# Generated by pormake.
# Topology zfk, (5)-cn, num edge types: 1
# Building blocks:
#     Node 0, Type 0, BuildingBlock: BEQFEK_clean_sbu_0, # of connection points: 5
#     Node 1, Type 0, BuildingBlock: BEQFEK_clean_sbu_0, # of connection points: 5
#     Node 2, Type 0, BuildingBlock: BEQFEK_clean_sbu_0, # of connection points: 5
#     Node 3, Type 0, BuildingBlock: BEQFEK_clean_sbu_0, # of connection points: 5
#     Node 4, Type 0, BuildingBlock: BEQFEK_clean_sbu_0, # of connection points: 5
#     Node 5, Type 0, BuildingBlock: BEQFEK_clean_sbu_0, # of connection points: 5
#     Node 6, Type 0, BuildingBlock: BEQFEK_clean_sbu_0, # of connection points: 5
#     Node 7, Type 0, BuildingBlock: BEQFEK_clean_sbu_0, # of connection points: 5
#     Node 8, Type 0, BuildingBlock: BEQFEK_clean_sbu_0, # of connection points: 5
#     Node 9, Type 0, BuildingBlock: BEQFEK_clean_sbu_0, # of connection points: 5
#     Node 10, Type 0, BuildingBlock: BEQFEK_clean_sbu_0, # of connection points: 5
#     Node 11, Type 0, BuildingBlock: BEQFEK_clean_sbu_0, # of connection points: 5
#     Node 12, Type 0, BuildingBlock: BEQFEK_clean_sbu_0, # of connection points: 5
#     Node 13, Type 0, BuildingBlock: BEQFEK_clean_sbu_0, # of connection points: 5
#     Node 14, Type 0, BuildingBlock: BEQFEK_clean_sbu_0, # of connection points: 5
#     Node 15, Type 0, BuildingBlock: BEQFEK_clean_sbu_0, # of connection points: 5
#     Edge 16, Type (0, 0), BuildingBlock: XIVTED_clean_linker_0, # of connection points: 2
#     Edge 17, Type (0, 0), BuildingBlock: XIVTED_clean_linker_0, # of connection points: 2
#     Edge 18, Type (0, 0), BuildingBlock: XIVTED_clean_linker_0, # of connection points: 2
#     Edge 19, Type (0, 0), BuildingBlock: XIVTED_clean_linker_0, # of connection points: 2
#     Edge 20, Type (0, 0), BuildingBlock: XIVTED_clean_linker_0, # of connection points: 2
#     Edge 21, Type (0, 0), BuildingBlock: XIVTED_clean_linker_0, # of connection points: 2
#     Edge 22, Type (0, 0), BuildingBlock: XIVTED_clean_linker_0, # of connection points: 2
#     Edge 23, Type (0, 0), BuildingBlock: XIVTED_clean_linker_0, # of connection points: 2
#     Edge 24, Type (0, 0), BuildingBlock: XIVTED_clean_linker_0, # of connection points: 2
#     Edge 25, Type (0, 0), BuildingBlock: XIVTED_clean_linker_0, # of connection points: 2
#     Edge 26, Type (0, 0), BuildingBlock: XIVTED_clean_linker_0, # of connection points: 2
#     Edge 27, Type (0, 0), BuildingBlock: XIVTED_clean_linker_0, # of connection points: 2
#     Edge 28, Type (0, 0), BuildingBlock: XIVTED_clean_linker_0, # of connection points: 2
#     Edge 29, Type (0, 0), BuildingBlock: XIVTED_clean_linker_0, # of connection points: 2
#     Edge 30, Type (0, 0), BuildingBlock: XIVTED_clean_linker_0, # of connection points: 2
#     Edge 31, Type (0, 0), BuildingBlock: XIVTED_clean_linker_0, # of connection points: 2
#     Edge 32, Type (0, 0), BuildingBlock: XIVTED_clean_linker_0, # of connection points: 2
#     Edge 33, Type (0, 0), BuildingBlock: XIVTED_clean_linker_0, # of connection points: 2
#     Edge 34, Type (0, 0), BuildingBlock: XIVTED_clean_linker_0, # of connection points: 2
#     Edge 35, Type (0, 0), BuildingBlock: XIVTED_clean_linker_0, # of connection points: 2
#     Edge 36, Type (0, 0), BuildingBlock: XIVTED_clean_linker_0, # of connection points: 2
#     Edge 37, Type (0, 0), BuildingBlock: XIVTED_clean_linker_0, # of connection points: 2
#     Edge 38, Type (0, 0), BuildingBlock: XIVTED_clean_linker_0, # of connection points: 2
#     Edge 39, Type (0, 0), BuildingBlock: XIVTED_clean_linker_0, # of connection points: 2
#     Edge 40, Type (0, 0), BuildingBlock: XIVTED_clean_linker_0, # of connection points: 2
#     Edge 41, Type (0, 0), BuildingBlock: XIVTED_clean_linker_0, # of connection points: 2
#     Edge 42, Type (0, 0), BuildingBlock: XIVTED_clean_linker_0, # of connection points: 2
#     Edge 43, Type (0, 0), BuildingBlock: XIVTED_clean_linker_0, # of connection points: 2
#     Edge 44, Type (0, 0), BuildingBlock: XIVTED_clean_linker_0, # of connection points: 2
#     Edge 45, Type (0, 0), BuildingBlock: XIVTED_clean_linker_0, # of connection points: 2
#     Edge 46, Type (0, 0), BuildingBlock: XIVTED_clean_linker_0, # of connection points: 2
#     Edge 47, Type (0, 0), BuildingBlock: XIVTED_clean_linker_0, # of connection points: 2
#     Edge 48, Type (0, 0), BuildingBlock: XIVTED_clean_linker_0, # of connection points: 2
#     Edge 49, Type (0, 0), BuildingBlock: XIVTED_clean_linker_0, # of connection points: 2
#     Edge 50, Type (0, 0), BuildingBlock: XIVTED_clean_linker_0, # of connection points: 2
#     Edge 51, Type (0, 0), BuildingBlock: XIVTED_clean_linker_0, # of connection points: 2
#     Edge 52, Type (0, 0), BuildingBlock: XIVTED_clean_linker_0, # of connection points: 2
#     Edge 53, Type (0, 0), BuildingBlock: XIVTED_clean_linker_0, # of connection points: 2
#     Edge 54, Type (0, 0), BuildingBlock: XIVTED_clean_linker_0, # of connection points: 2
#     Edge 55, Type (0, 0), BuildingBlock: XIVTED_clean_linker_0, # of connection points: 2
# Relax obj value: 0.167
# Max RMSD: 0.138
# Mean RMSD: 0.138
data_MOF--net-zfk--node1-BEQFEK_clean_sbu_0--edge1-XIVTED_clean_linker_0
_symmetry_space_group_name_H-M    P1
_symmetry_Int_Tables_number       1
_symmetry_cell_setting            triclinic
loop_
_symmetry_equiv_pos_as_xyz
'x, y, z'
_cell_length_a     30.968272
_cell_length_b     31.055172
_cell_length_c     74.623351
_cell_angle_alpha  90.127724
_cell_angle_beta   90.009407
_cell_angle_gamma 90.002602
loop_
_atom_site_label
_atom_site_type_symbol
_atom_site_fract_x
_atom_site_fract_y
_atom_site_fract_z
_atom_type_partial_charge
Co0 Co 0.03362 0.34367 0.09836 0.0
Co1 Co 0.0445 0.3469 0.14065 0.0
C2 C -0.00236 0.27605 0.12491 0.0
O3 O 0.00671 0.29316 0.10987 0.0
O4 O 0.0079 0.29432 0.13968 0.0
C5 C 0.98238 0.32508 0.06696 0.0
O6 O 0.95193 0.31629 0.07865 0.0
C7 C 0.05413 0.35459 0.18102 0.0
C8 C 0.1036 0.40592 0.1815 0.0
C9 C 0.07873 0.38024 0.19253 0.0
N10 N 0.06395 0.36525 0.16398 0.0
N11 N 0.09389 0.39557 0.16449 0.0
C12 C 0.02072 0.32207 0.18604 0.0
H13 H -0.00393 0.3193 0.1753 0.0
H14 H 0.00512 0.33091 0.19893 0.0
H15 H 0.03652 0.29024 0.18765 0.0
C16 C 0.00914 0.43485 0.10502 0.0
N17 N 0.01834 0.39472 0.11065 0.0
N18 N 0.01885 0.39428 0.1283 0.0
C19 C 0.00783 0.4336 0.13443 0.0
C20 C 0.00242 0.46097 0.11992 0.0
C21 C 0.0099 0.44831 0.0858 0.0
H22 H 0.99225 0.42435 0.07755 0.0
H23 H -0.00476 0.48064 0.08403 0.0
H24 H 0.04386 0.44903 0.08107 0.0
O25 O 0.09586 0.33361 0.09952 0.0
O26 O 0.09929 0.33006 0.1291 0.0
H27 H 0.03796 0.46082 0.15764 0.0
H28 H 0.98095 0.46965 0.15656 0.0
C29 C 0.00674 0.44586 0.15385 0.0
H30 H 0.00048 0.41725 0.16227 0.0
H31 H 0.10739 0.40966 0.15311 0.0
O32 O 0.01788 0.341 0.07246 0.0
C33 C 0.11692 0.32636 0.11379 0.0
Co34 Co 0.12352 0.01269 0.59677 0.0
Co35 Co 0.12319 0.02493 0.63893 0.0
C36 C 0.19212 0.97617 0.62272 0.0
O37 O 0.17434 0.9851 0.6078 0.0
O38 O 0.17474 0.98717 0.63756 0.0
C39 C 0.13761 0.95875 0.56588 0.0
O40 O 0.14364 0.92831 0.57782 0.0
C41 C 0.11536 0.03194 0.67926 0.0
C42 C 0.07657 0.09167 0.6804 0.0
C43 C 0.09507 0.06036 0.69108 0.0
N44 N 0.10854 0.04592 0.66239 0.0
N45 N 0.08577 0.08185 0.6633 0.0
C46 C 0.13822 0.99095 0.68371 0.0
H47 H 0.13772 0.96874 0.67203 0.0
H48 H 0.12309 0.97531 0.6955 0.0
H49 H 0.17236 -0.00168 0.68702 0.0
C50 C 0.03131 -0.00571 0.60436 0.0
N51 N 0.0725 -0.00022 0.60965 0.0
N52 N 0.07378 0.00124 0.62729 0.0
C53 C 0.03372 -0.00514 0.63377 0.0
C54 C 0.00521 0.99132 0.61948 0.0
C55 C 0.01698 -0.00359 0.58525 0.0
H56 H 0.03901 0.97693 0.57677 0.0
H57 H 0.98334 0.98463 0.58371 0.0
H58 H 0.01889 0.03027 0.5806 0.0
O59 O 0.13534 0.07464 0.59736 0.0
O60 O 0.14024 0.07854 0.62689 0.0
H61 H 0.01512 0.0325 0.65651 0.0
H62 H 0.99323 0.97912 0.6565 0.0
C63 C 0.02218 -0.0016 0.6532 0.0
H64 H 0.04924 0.98673 0.66158 0.0
H65 H 0.07576 0.09936 0.65213 0.0
O66 O 0.1244 -0.00445 0.57105 0.0
C67 C 0.14345 0.0958 0.61154 0.0
Co68 Co 0.48194 0.15766 0.10531 0.0
Co69 Co 0.45629 0.14475 0.14616 0.0
C70 C 0.50122 0.22277 0.13512 0.0
O71 O 0.50121 0.20848 0.11909 0.0
O72 O 0.48589 0.20087 0.1481 0.0
C73 C 0.53301 0.18888 0.07553 0.0
O74 O 0.55812 0.20527 0.08798 0.0
C75 C 0.44525 0.12853 0.18565 0.0
C76 C 0.38865 0.08523 0.18447 0.0
C77 C 0.41727 0.10436 0.1963 0.0
N78 N 0.43356 0.12341 0.16837 0.0
N79 N 0.3995 0.09782 0.16787 0.0
C80 C 0.48402 0.15357 0.19148 0.0
H81 H 0.50738 0.15647 0.18027 0.0
H82 H 0.49972 0.1379 0.20314 0.0
H83 H 0.47377 0.18643 0.1955 0.0
C84 C 0.51323 0.06842 0.11072 0.0
N85 N 0.49817 0.10619 0.11699 0.0
N86 N 0.49032 0.10246 0.13427 0.0
C87 C 0.50167 0.06272 0.13964 0.0
C88 C 0.51585 0.03949 0.12486 0.0
C89 C 0.52048 0.05914 0.09128 0.0
H90 H 0.54024 0.08521 0.0853 0.0
H91 H 0.53687 0.02769 0.08933 0.0
H92 H 0.48889 0.05876 0.08426 0.0
O93 O 0.41893 0.16264 0.10362 0.0
O94 O 0.4036 0.15691 0.13245 0.0
H95 H 0.45842 0.03625 0.15901 0.0
H96 H 0.5127 0.01662 0.16097 0.0
C97 C 0.49293 0.04541 0.158 0.0
H98 H 0.50023 0.07038 0.16817 0.0
H99 H 0.38394 0.08841 0.15609 0.0
O100 O 0.50212 0.16418 0.0801 0.0
C101 C 0.39184 0.16315 0.11637 0.0
Co102 Co 0.33635 0.45033 0.60337 0.0
Co103 Co 0.34799 0.43007 0.64492 0.0
C104 C 0.2785 0.48651 0.63318 0.0
O105 O 0.29094 0.48101 0.61705 0.0
O106 O 0.29838 0.46952 0.64636 0.0
C107 C 0.31064 0.49988 0.57221 0.0
O108 O 0.29829 0.52886 0.58398 0.0
C109 C 0.36361 0.42094 0.68471 0.0
C110 C 0.40708 0.36453 0.68392 0.0
C111 C 0.38772 0.39333 0.69561 0.0
N112 N 0.36931 0.40902 0.66747 0.0
N113 N 0.39511 0.37515 0.66722 0.0
C114 C 0.33383 0.45627 0.69046 0.0
H115 H 0.30879 0.46199 0.68014 0.0
H116 H 0.35267 0.48638 0.69222 0.0
H117 H 0.31799 0.44813 0.70335 0.0
C118 C 0.43032 0.46882 0.60752 0.0
N119 N 0.39101 0.45905 0.61409 0.0
N120 N 0.39394 0.45425 0.63157 0.0
C121 C 0.43454 0.46271 0.6368 0.0
C122 C 0.45937 0.47102 0.62175 0.0
C123 C 0.44014 0.47231 0.58796 0.0
H124 H 0.41586 0.45435 0.57997 0.0
H125 H 0.43893 0.5067 0.58399 0.0
H126 H 0.47293 0.45974 0.585 0.0
O127 O 0.32077 0.38929 0.60394 0.0
O128 O 0.32598 0.37769 0.63313 0.0
H129 H 0.45851 0.43319 0.66072 0.0
H130 H 0.4764 0.48776 0.65749 0.0
C131 C 0.44858 0.4655 0.65598 0.0
H132 H 0.42156 0.47717 0.66444 0.0
H133 H 0.40472 0.35932 0.65553 0.0
O134 O 0.33105 0.46673 0.57757 0.0
C135 C 0.31672 0.36477 0.61742 0.0
Co136 Co 0.02021 0.15223 0.91628 0.0
Co137 Co 0.04676 0.13847 0.87542 0.0
C138 C 0.00766 0.21973 0.88716 0.0
O139 O 0.0053 0.20486 0.90302 0.0
O140 O 0.02272 0.19746 0.8742 0.0
C141 C 0.96883 0.18436 0.94596 0.0
O142 O 0.94391 0.20067 0.93345 0.0
C143 C 0.05619 0.12256 0.83564 0.0
C144 C 0.11139 0.0775 0.83642 0.0
C145 C 0.0833 0.09778 0.82473 0.0
N146 N 0.06773 0.11643 0.85288 0.0
N147 N 0.10086 0.08963 0.85313 0.0
C148 C 0.02115 0.15266 0.82992 0.0
H149 H 0.01484 0.17701 0.84048 0.0
H150 H 0.99102 0.13406 0.82771 0.0
H151 H 0.03002 0.16901 0.81723 0.0
C152 C 0.98164 0.06648 0.90984 0.0
N153 N -0.00023 0.10312 0.90393 0.0
N154 N 0.00819 0.09919 0.8867 0.0
C155 C -0.00575 0.0605 0.88101 0.0
C156 C 0.97779 0.038 0.89554 0.0
C157 C 0.9734 0.05719 0.9292 0.0
H158 H 0.00474 0.05482 0.93635 0.0
H159 H 0.95505 0.08423 0.93526 0.0
H160 H 0.95513 0.02671 0.9309 0.0
O161 O 0.08333 0.1511 0.91825 0.0
O162 O 0.10002 0.1435 0.88959 0.0
H163 H 0.03734 0.03213 0.86198 0.0
H164 H 0.9823 0.01497 0.85944 0.0
C165 C 0.00322 0.0428 0.86269 0.0
H166 H -0.00241 0.0681 0.85253 0.0
H167 H 0.11626 0.07937 0.8648 0.0
O168 O -0.00028 0.15956 0.94145 0.0
C169 C 0.1112 0.14808 0.90585 0.0
Co170 Co 0.32424 -0.00512 0.41897 0.0
Co171 Co 0.33931 0.02664 0.37898 0.0
C172 C 0.2544 -0.00515 0.39015 0.0
O173 O 0.2696 0.98804 0.40575 0.0
O174 O 0.2778 0.00953 0.3775 0.0
C175 C 0.28695 0.94261 0.44706 0.0
O176 O 0.26715 0.92254 0.43391 0.0
C177 C 0.35418 0.04238 0.33952 0.0
C178 C 0.40361 0.09346 0.34171 0.0
C179 C 0.38034 0.06965 0.32934 0.0
N180 N 0.36226 0.04977 0.35703 0.0
N181 N 0.39175 0.08043 0.35812 0.0
C182 C 0.32101 0.01117 0.33292 0.0
H183 H 0.29673 0.00463 0.34347 0.0
H184 H 0.33711 0.98034 0.32945 0.0
H185 H 0.30475 0.02379 0.32076 0.0
C186 C 0.40735 0.95227 0.41113 0.0
N187 N 0.37113 0.97219 0.40569 0.0
N188 N 0.37516 0.98256 0.38866 0.0
C189 C 0.41337 0.96797 0.3826 0.0
C190 C 0.43584 0.94948 0.39674 0.0
C191 C 0.41702 0.94265 0.43034 0.0
H192 H 0.38976 0.92438 0.43627 0.0
H193 H 0.44732 0.92384 0.43171 0.0
H194 H 0.42005 0.97337 0.43787 0.0
O195 O 0.33181 0.05685 0.4231 0.0
O196 O 0.34076 0.07704 0.39492 0.0
H197 H 0.4454 0.0118 0.36499 0.0
H198 H 0.45714 0.95615 0.3605 0.0
C199 C 0.43143 0.97894 0.36457 0.0
H200 H 0.4055 0.97768 0.35437 0.0
H201 H 0.40391 0.09251 0.37016 0.0
O202 O 0.31565 0.97057 0.44339 0.0
C203 C 0.33787 0.08601 0.41149 0.0
Co204 Co 0.46359 0.34119 0.92326 0.0
Co205 Co 0.45197 0.34083 0.88118 0.0
C206 C 0.50972 0.27898 0.89688 0.0
O207 O 0.49825 0.29472 0.91194 0.0
O208 O 0.49705 0.29569 0.88217 0.0
C209 C 0.51557 0.32927 0.95491 0.0
O210 O 0.54677 0.32187 0.94339 0.0
C211 C 0.4471 0.35089 0.84106 0.0
C212 C 0.38307 0.38217 0.8394 0.0
C213 C 0.41755 0.36863 0.82905 0.0
N214 N 0.43066 0.3543 0.85772 0.0
N215 N 0.39225 0.37262 0.85652 0.0
C216 C 0.49119 0.33387 0.83703 0.0
H217 H 0.51216 0.33637 0.84905 0.0
H218 H 0.50587 0.35166 0.82567 0.0
H219 H 0.48858 0.2994 0.83322 0.0
C220 C 0.46799 0.43552 0.91621 0.0
N221 N 0.46821 0.39407 0.91082 0.0
N222 N 0.46751 0.39275 0.8932 0.0
C223 C 0.46896 0.4332 0.8868 0.0
C224 C 0.46801 0.46198 0.9011 0.0
C225 C 0.46244 0.44894 0.93534 0.0
H226 H 0.44881 0.42213 0.94334 0.0
H227 H 0.49443 0.4576 0.94099 0.0
H228 H 0.44096 0.47746 0.93634 0.0
O229 O 0.40423 0.32032 0.92231 0.0
O230 O 0.40115 0.314 0.89276 0.0
H231 H 0.44027 0.44585 0.86124 0.0
H232 H 0.4894 0.47524 0.86542 0.0
C233 C 0.47287 0.44386 0.86731 0.0
H234 H 0.49144 0.41839 0.86029 0.0
H235 H 0.3726 0.37947 0.86752 0.0
O236 O 0.47916 0.34235 0.94918 0.0
C237 C 0.38488 0.308 0.90821 0.0
Co238 Co 0.16148 0.44614 0.4186 0.0
Co239 Co 0.16558 0.42552 0.37686 0.0
C240 C 0.22532 0.48823 0.39246 0.0
O241 O 0.20845 0.47985 0.40762 0.0
O242 O 0.21015 0.472 0.37802 0.0
C243 C 0.17348 0.49811 0.45034 0.0
O244 O 0.18454 0.52829 0.43892 0.0
C245 C 0.15273 0.41926 0.33672 0.0
C246 C 0.14397 0.34887 0.33456 0.0
C247 C 0.1438 0.3862 0.32443 0.0
N248 N 0.15703 0.40179 0.35318 0.0
N249 N 0.15213 0.35969 0.35163 0.0
C250 C 0.15854 0.46623 0.33307 0.0
H251 H 0.17597 0.48198 0.3443 0.0
H252 H 0.12645 0.48175 0.33174 0.0
H253 H 0.17665 0.47094 0.32039 0.0
C254 C 0.0682 0.45558 0.40979 0.0
N255 N 0.10972 0.44948 0.40501 0.0
N256 N 0.11151 0.44078 0.38772 0.0
C257 C 0.07104 0.44067 0.38103 0.0
C258 C 0.0422 0.45024 0.39474 0.0
C259 C 0.05396 0.46543 0.4285 0.0
H260 H 0.05245 0.435 0.43624 0.0
H261 H 0.07773 0.48695 0.43511 0.0
H262 H 0.0216 0.4808 0.42862 0.0
O263 O 0.18316 0.38677 0.41923 0.0
O264 O 0.19237 0.37763 0.39003 0.0
H265 H 0.07417 0.39404 0.35997 0.0
H266 H 0.02467 0.42356 0.36022 0.0
C267 C 0.05992 0.42619 0.36243 0.0
H268 H 0.07367 0.44918 0.35265 0.0
H269 H 0.15347 0.33826 0.36237 0.0
O270 O 0.15791 0.46291 0.44441 0.0
C271 C 0.19713 0.36485 0.40607 0.0
Co272 Co 0.97115 0.65126 0.91739 0.0
Co273 Co 0.94849 0.63898 0.87619 0.0
C274 C 0.98674 0.71951 0.8887 0.0
O275 O 0.98732 0.7043 0.90454 0.0
O276 O 0.97315 0.6975 0.87539 0.0
C277 C 0.02163 0.68138 0.94771 0.0
O278 O 0.04799 0.69679 0.93552 0.0
C279 C 0.93978 0.6285 0.83637 0.0
C280 C 0.8903 0.57721 0.83568 0.0
C281 C 0.91537 0.60303 0.82474 0.0
N282 N 0.92943 0.61788 0.85333 0.0
N283 N 0.89966 0.58742 0.85274 0.0
C284 C 0.97397 0.66052 0.83167 0.0
H285 H -0.00208 0.66306 0.84269 0.0
H286 H 0.99046 0.65124 0.81903 0.0
H287 H 0.95879 0.69257 0.82982 0.0
C288 C 0.01003 0.56536 0.91104 0.0
N289 N 0.99245 0.6023 0.90514 0.0
N290 N 0.98602 0.59929 0.88773 0.0
C291 C 0.00105 0.56111 0.88192 0.0
C292 C 0.01579 0.53776 0.89653 0.0
C293 C 0.01612 0.55498 0.93043 0.0
H294 H 0.03381 0.58165 0.93709 0.0
H295 H 0.03416 0.52438 0.93218 0.0
H296 H 0.98403 0.55227 0.93695 0.0
O297 O 0.90785 0.65052 0.91848 0.0
O298 O 0.89406 0.64433 0.8895 0.0
H299 H 0.96259 0.53026 0.86186 0.0
H300 H 0.01933 0.51964 0.85983 0.0
C301 C -0.0048 0.54466 0.8632 0.0
H302 H -0.00126 0.57139 0.85351 0.0
H303 H 0.88582 0.57341 0.86406 0.0
O304 O 0.99001 0.65794 0.94282 0.0
C305 C 0.88123 0.6485 0.90557 0.0
Co306 Co 0.82509 0.97983 0.41862 0.0
Co307 Co 0.8387 0.95324 0.37783 0.0
C308 C 0.75434 0.98349 0.39012 0.0
O309 O 0.76996 0.98791 0.40582 0.0
O310 O 0.77748 0.97105 0.37696 0.0
C311 C 0.79015 0.03076 0.44792 0.0
O312 O 0.77124 0.05314 0.43523 0.0
C313 C 0.85237 0.94409 0.33806 0.0
C314 C 0.89965 0.89081 0.33823 0.0
C315 C 0.87724 0.91787 0.32679 0.0
N316 N 0.86024 0.93276 0.35519 0.0
N317 N 0.88835 0.90078 0.35509 0.0
C318 C 0.82392 0.98101 0.33302 0.0
H319 H 0.81899 0.00268 0.34469 0.0
H320 H 0.8383 -0.00065 0.32175 0.0
H321 H 0.79197 0.96846 0.32876 0.0
C322 C 0.90799 0.02355 0.41123 0.0
N323 N 0.87162 0.00416 0.40558 0.0
N324 N 0.87516 -0.00426 0.38832 0.0
C325 C 0.91319 0.011 0.38238 0.0
C326 C 0.93596 0.02812 0.39676 0.0
C327 C 0.91834 0.03094 0.43057 0.0
H328 H 0.92187 -0.00061 0.43737 0.0
H329 H 0.89121 0.04829 0.43708 0.0
H330 H 0.94858 0.04977 0.43216 0.0
O331 O 0.83292 0.91739 0.42127 0.0
O332 O 0.8401 0.90091 0.39255 0.0
H333 H 0.94303 0.96805 0.36368 0.0
H334 H 0.95782 0.02353 0.36063 0.0
C335 C 0.9309 0.00164 0.36411 0.0
H336 H 0.90513 0.00558 0.35397 0.0
H337 H 0.90019 0.8859 0.36661 0.0
O338 O 0.81709 0.00156 0.44361 0.0
C339 C 0.83801 0.88976 0.40889 0.0
Co340 Co 0.52744 0.84006 0.92077 0.0
Co341 Co 0.53709 0.84163 0.87859 0.0
C342 C 0.48035 0.77874 0.89442 0.0
O343 O 0.49242 0.79425 0.90943 0.0
O344 O 0.4925 0.79566 0.87968 0.0
C345 C 0.47551 0.8285 0.95238 0.0
O346 O 0.44379 0.82377 0.94085 0.0
C347 C 0.53974 0.85424 0.83849 0.0
C348 C 0.60312 0.88676 0.8367 0.0
C349 C 0.56833 0.87346 0.82648 0.0
N350 N 0.55699 0.85666 0.85506 0.0
N351 N 0.59503 0.87569 0.85375 0.0
C352 C 0.49576 0.83679 0.83459 0.0
H353 H 0.49878 0.80272 0.83026 0.0
H354 H 0.47536 0.83792 0.84681 0.0
H355 H 0.48023 0.85524 0.82361 0.0
C356 C 0.52201 0.93436 0.91467 0.0
N357 N 0.5218 0.89329 0.90883 0.0
N358 N 0.52172 0.89297 0.89121 0.0
C359 C 0.5198 0.93382 0.88526 0.0
C360 C 0.52116 0.96171 0.89987 0.0
C361 C 0.52849 0.9466 0.93389 0.0
H362 H 0.54287 0.91944 0.94146 0.0
H363 H 0.49672 0.95449 0.93994 0.0
H364 H 0.5497 0.97528 0.93503 0.0
O365 O 0.58681 0.81962 0.91915 0.0
O366 O 0.58897 0.81495 0.88952 0.0
H367 H 0.54761 0.94839 0.85972 0.0
H368 H 0.49846 0.97716 0.86451 0.0
C369 C 0.51521 0.94576 0.86593 0.0
H370 H 0.49656 0.92066 0.85871 0.0
H371 H 0.61512 0.8821 0.86467 0.0
O372 O 0.51254 0.83993 0.94671 0.0
C373 C 0.60586 0.80836 0.90482 0.0
Co374 Co 0.6661 0.52659 0.41631 0.0
Co375 Co 0.66239 0.54742 0.37491 0.0
C376 C 0.72486 0.48482 0.38774 0.0
O377 O 0.71116 0.4922 0.40358 0.0
O378 O 0.70696 0.50199 0.3741 0.0
C379 C 0.68403 0.47556 0.4478 0.0
O380 O 0.6964 0.44593 0.43631 0.0
C381 C 0.64512 0.5554 0.3354 0.0
C382 C 0.62453 0.62353 0.33485 0.0
C383 C 0.62962 0.58762 0.32401 0.0
N384 N 0.64822 0.57185 0.35209 0.0
N385 N 0.63631 0.61265 0.35153 0.0
C386 C 0.65365 0.50913 0.33107 0.0
H387 H 0.6549 0.48964 0.34351 0.0
H388 H 0.62822 0.49636 0.32202 0.0
H389 H 0.68532 0.50637 0.32422 0.0
C390 C 0.57065 0.52233 0.41061 0.0
N391 N 0.61163 0.52507 0.40459 0.0
N392 N 0.61104 0.53058 0.38711 0.0
C393 C 0.56984 0.52971 0.38135 0.0
C394 C 0.54254 0.52548 0.39604 0.0
C395 C 0.559 0.52117 0.43005 0.0
H396 H 0.58515 0.53563 0.43825 0.0
H397 H 0.55479 0.48717 0.43423 0.0
H398 H 0.52834 0.5387 0.43255 0.0
O399 O 0.68825 0.58553 0.41674 0.0
O400 O 0.69087 0.59584 0.38742 0.0
H401 H 0.55705 0.56448 0.3572 0.0
H402 H 0.52473 0.51644 0.35987 0.0
C403 C 0.55717 0.5307 0.362 0.0
H404 H 0.58075 0.51204 0.35402 0.0
H405 H 0.63516 0.63288 0.3627 0.0
O406 O 0.66592 0.50958 0.442 0.0
C407 C 0.6989 0.60818 0.40333 0.0
Co408 Co 0.9542 0.83455 0.1008 0.0
Co409 Co 0.9311 0.84065 0.14221 0.0
C410 C 0.99332 0.77675 0.12998 0.0
O411 O 0.98731 0.78989 0.11399 0.0
O412 O 0.97535 0.79516 0.14334 0.0
C413 C 0.00799 0.81682 0.06975 0.0
O414 O 0.03764 0.80639 0.08156 0.0
C415 C 0.92325 0.85748 0.18182 0.0
C416 C 0.85577 0.8805 0.18254 0.0
C417 C 0.89135 0.8733 0.19339 0.0
N418 N 0.90689 0.85601 0.16507 0.0
N419 N 0.86649 0.86951 0.16572 0.0
C420 C 0.9692 0.84681 0.18609 0.0
H421 H 0.98892 0.84603 0.17367 0.0
H422 H 0.9828 0.87081 0.19558 0.0
H423 H 0.97063 0.81451 0.19238 0.0
C424 C 0.96254 0.92935 0.10621 0.0
N425 N 0.95687 0.88897 0.11235 0.0
N426 N 0.95008 0.8905 0.12976 0.0
C427 C 0.95281 0.93161 0.13535 0.0
C428 C 0.95987 0.95791 0.12061 0.0
C429 C 0.96649 0.9402 0.08675 0.0
H430 H 0.95065 0.91513 0.07844 0.0
H431 H 0.0012 0.94139 0.0831 0.0
H432 H 0.95179 0.97203 0.08387 0.0
O433 O 0.89459 0.81356 0.10032 0.0
O434 O 0.88227 0.8133 0.12957 0.0
H435 H 0.91678 0.94683 0.15899 0.0
H436 H 0.96661 0.97669 0.15679 0.0
C437 C 0.95096 0.94497 0.15462 0.0
H438 H 0.96786 0.92085 0.16295 0.0
H439 H 0.84637 0.87192 0.15455 0.0
O440 O 0.9726 0.83318 0.07516 0.0
C441 C 0.87071 0.80455 0.11362 0.0
Co442 Co 0.63566 0.97205 0.60103 0.0
Co443 Co 0.62849 0.9523 0.64272 0.0
C444 C 0.69175 0.01426 0.63038 0.0
O445 O 0.67929 0.0066 0.61438 0.0
O446 O 0.67277 -0.00246 0.64386 0.0
C447 C 0.65264 0.02474 0.56963 0.0
O448 O 0.66065 0.05563 0.58121 0.0
C449 C 0.61446 0.94057 0.68258 0.0
C450 C 0.58152 0.87749 0.68162 0.0
C451 C 0.59533 0.90912 0.69342 0.0
N452 N 0.61125 0.92791 0.66532 0.0
N453 N 0.59178 0.89008 0.66497 0.0
C454 C 0.6373 0.98067 0.68837 0.0
H455 H 0.65975 0.9918 0.6778 0.0
H456 H 0.61316 0.00642 0.69081 0.0
H457 H 0.65561 0.97494 0.70093 0.0
C458 C 0.53989 0.97418 0.60564 0.0
N459 N 0.58055 0.97338 0.6121 0.0
N460 N 0.57898 0.96945 0.62965 0.0
C461 C 0.53758 0.96996 0.635 0.0
C462 C 0.51114 0.97152 0.62 0.0
C463 C 0.5293 0.9725 0.5861 0.0
H464 H 0.55721 0.96009 0.57833 0.0
H465 H 0.52177 0.0055 0.58137 0.0
H466 H 0.50069 0.95177 0.58366 0.0
O467 O 0.65844 0.91344 0.60133 0.0
O468 O 0.65797 0.90378 0.63073 0.0
H469 H 0.52028 0.93781 0.65934 0.0
H470 H 0.4923 0.98781 0.6557 0.0
C471 C 0.52379 0.9711 0.65424 0.0
H472 H 0.54838 0.98806 0.66244 0.0
H473 H 0.58522 0.87289 0.65325 0.0
O474 O 0.63786 0.98896 0.57523 0.0
C475 C 0.66777 0.89116 0.61503 0.0
Co476 Co 0.50648 0.65071 0.10071 0.0
Co477 Co 0.53357 0.64024 0.1414 0.0
C478 C 0.49551 0.72079 0.12934 0.0
O479 O 0.49303 0.70482 0.11362 0.0
O480 O 0.50987 0.69905 0.14253 0.0
C481 C 0.45411 0.68259 0.07161 0.0
O482 O 0.43081 0.70026 0.08436 0.0
C483 C 0.54552 0.62669 0.18097 0.0
C484 C 0.60091 0.58185 0.17999 0.0
C485 C 0.57336 0.60263 0.19179 0.0
N486 N 0.55635 0.61985 0.16371 0.0
N487 N 0.58964 0.59327 0.16332 0.0
C488 C 0.50751 0.65315 0.18659 0.0
H489 H 0.48474 0.6571 0.17522 0.0
H490 H 0.49068 0.63785 0.19806 0.0
H491 H 0.51881 0.68555 0.19077 0.0
C492 C 0.47064 0.56398 0.10821 0.0
N493 N 0.48667 0.6021 0.11365 0.0
N494 N 0.49445 0.60027 0.13098 0.0
C495 C 0.48163 0.56178 0.13723 0.0
C496 C 0.4672 0.53691 0.12298 0.0
C497 C 0.46503 0.55182 0.08895 0.0
H498 H 0.44661 0.57735 0.08193 0.0
H499 H 0.44801 0.52052 0.08759 0.0
H500 H 0.49726 0.54951 0.08252 0.0
O501 O 0.56945 0.64902 0.09792 0.0
O502 O 0.58596 0.6441 0.12667 0.0
H503 H 0.46893 0.51926 0.15961 0.0
H504 H 0.48492 0.57292 0.16553 0.0
C505 C 0.49034 0.54635 0.15589 0.0
H506 H 0.52428 0.53522 0.15686 0.0
H507 H 0.60439 0.58243 0.15158 0.0
O508 O 0.48424 0.65665 0.07582 0.0
C509 C 0.59725 0.64699 0.11037 0.0
Co510 Co 0.85188 0.5414 0.59675 0.0
Co511 Co 0.85214 0.55979 0.63857 0.0
C512 C 0.77772 0.5191 0.62244 0.0
O513 O 0.79688 0.52328 0.60747 0.0
O514 O 0.79593 0.52957 0.63714 0.0
C515 C 0.83076 0.48608 0.56727 0.0
O516 O 0.81911 0.4593 0.57998 0.0
C517 C 0.85934 0.56649 0.67889 0.0
C518 C 0.89812 0.62614 0.68039 0.0
C519 C 0.87898 0.59491 0.69094 0.0
N520 N 0.86722 0.58039 0.66208 0.0
N521 N 0.89022 0.61613 0.6632 0.0
C522 C 0.83246 0.52783 0.68311 0.0
H523 H 0.8105 0.52025 0.6718 0.0
H524 H 0.85398 0.49974 0.68524 0.0
H525 H 0.81338 0.53328 0.6955 0.0
C526 C 0.93868 0.50831 0.606 0.0
N527 N 0.89909 0.5221 0.61067 0.0
N528 N 0.8977 0.5273 0.62819 0.0
C529 C 0.93592 0.51572 0.63525 0.0
C530 C 0.96349 0.50404 0.62142 0.0
C531 C 0.95363 0.50418 0.58702 0.0
H532 H 0.95649 0.53677 0.58107 0.0
H533 H 0.9293 0.48605 0.57912 0.0
H534 H 0.98533 0.48759 0.58623 0.0
O535 O 0.85005 0.60436 0.59583 0.0
O536 O 0.8449 0.61383 0.62517 0.0
H537 H 0.95469 0.5572 0.65677 0.0
H538 H 0.9767 0.50391 0.65843 0.0
C539 C 0.9478 0.52258 0.6545 0.0
H540 H 0.92056 0.51271 0.66318 0.0
H541 H 0.90089 0.63366 0.65214 0.0
O542 O 0.84997 0.52086 0.57152 0.0
C543 C 0.84533 0.62881 0.60934 0.0
H544 H 0.90191 0.22723 0.96237 0.0
H545 H 0.04752 0.31107 0.0429 0.0
H546 H 0.03204 0.18262 0.97151 0.0
H547 H 0.90925 0.30054 0.04871 0.0
H548 H 0.04231 0.27535 0.01377 0.0
H549 H 0.9035 0.26342 0.99171 0.0
C550 C 0.93059 0.22464 0.9706 0.0
C551 C 0.96684 0.20172 0.96448 0.0
C552 C 0.01309 0.28109 0.02139 0.0
C553 C 0.96924 0.24401 0.99769 0.0
C554 C 0.01596 0.30187 0.03795 0.0
C555 C 0.97875 0.30878 0.04831 0.0
C556 C 0.97268 0.2677 0.01493 0.0
C557 C 0.93877 0.29576 0.04119 0.0
C558 C 0.93148 0.24536 0.98729 0.0
C559 C 0.00322 0.19963 0.97569 0.0
N560 N 0.93674 0.27592 0.02491 0.0
N561 N 0.00367 0.22093 0.99162 0.0
H562 H 0.29871 5e-05 0.47442 0.0
H563 H 0.15493 0.8837 0.54764 0.0
H564 H 0.2334 0.88112 0.46152 0.0
H565 H 0.16204 0.02195 0.54262 0.0
H566 H 0.19287 0.87663 0.5188 0.0
H567 H 0.26045 0.00225 0.50301 0.0
C568 C 0.27691 0.97395 0.47771 0.0
C569 C 0.26916 0.94038 0.46549 0.0
C570 C 0.18569 0.90841 0.52401 0.0
C571 C 0.22518 0.94293 0.49826 0.0
C572 C 0.164 0.9125 0.5404 0.0
C573 C 0.15513 0.95348 0.54753 0.0
C574 C 0.19958 0.94554 0.515 0.0
C575 C 0.16785 0.98972 0.53762 0.0
C576 C 0.25477 0.97552 0.49397 0.0
C577 C 0.24023 0.90766 0.47052 0.0
N578 N 0.18991 0.98489 0.52201 0.0
N579 N 0.21927 0.90968 0.48656 0.0
H580 H 0.59899 0.23307 0.05916 0.0
H581 H 0.45078 0.31353 0.97893 0.0
H582 H 0.4697 0.18594 0.05003 0.0
H583 H 0.58941 0.30798 0.97332 0.0
H584 H 0.45702 0.27805 1.00799 0.0
H585 H 0.59639 0.26961 0.02999 0.0
C586 C 0.57029 0.22999 0.05096 0.0
C587 C 0.53456 0.20629 0.05705 0.0
C588 C 0.48609 0.28483 1.00044 0.0
C589 C 0.53099 0.24896 0.02403 0.0
C590 C 0.48263 0.30551 0.98392 0.0
C591 C 0.51966 0.31369 0.97362 0.0
C592 C 0.52688 0.27279 1.0069 0.0
C593 C 0.56002 0.30219 0.98079 0.0
C594 C 0.56882 0.25093 0.03437 0.0
C595 C 0.49813 0.20358 0.04588 0.0
N596 N 0.56261 0.28235 0.99702 0.0
N597 N 0.4971 0.22507 0.03004 0.0
H598 H 0.19892 0.57001 0.46907 0.0
H599 H 0.30715 0.43453 0.54756 0.0
H600 H 0.1835 0.43252 0.47444 0.0
H601 H 0.27413 0.56853 0.55463 0.0
H602 H 0.27101 0.43524 0.51845 0.0
H603 H 0.23321 0.57205 0.49873 0.0
C604 C 0.20222 0.54036 0.47656 0.0
C605 C 0.18822 0.50104 0.46924 0.0
C606 C 0.27182 0.46453 0.52635 0.0
C607 C 0.22848 0.50306 0.5029 0.0
C608 C 0.29285 0.46431 0.54291 0.0
C609 C 0.29371 0.50156 0.5536 0.0
C610 C 0.25198 0.50242 0.52025 0.0
C611 C 0.27422 0.53907 0.54686 0.0
C612 C 0.2219 0.54156 0.49345 0.0
C613 C 0.19353 0.46361 0.47955 0.0
N614 N 0.25424 0.5386 0.53059 0.0
N615 N 0.21369 0.46548 0.49572 0.0
H616 H 0.94359 0.80703 0.045 0.0
H617 H 0.08944 0.7209 0.96495 0.0
H618 H 0.081 0.79047 0.05183 0.0
H619 H 0.95708 0.68158 0.97269 0.0
H620 H 0.08797 0.75595 0.99453 0.0
H621 H 0.94875 0.77275 0.01558 0.0
C622 C 0.97499 0.79682 0.04022 0.0
C623 C 0.01194 0.80159 0.05096 0.0
C624 C 0.05946 0.73931 0.98975 0.0
C625 C 0.01792 0.76214 0.01723 0.0
C626 C 0.06026 0.71925 0.97292 0.0
C627 C 0.02337 0.69813 0.96634 0.0
C628 C 0.02118 0.73913 0.99983 0.0
C629 C 0.98639 0.69718 0.97723 0.0
C630 C 0.9778 0.77686 0.02349 0.0
C631 C 0.05169 0.78735 0.04403 0.0
N632 N 0.98608 0.71782 0.99331 0.0
N633 N 0.05369 0.76833 0.02757 0.0
H634 H 0.79924 0.97114 0.47457 0.0
H635 H 0.67247 0.09796 0.55068 0.0
H636 H 0.74265 0.09539 0.4637 0.0
H637 H 0.67156 0.95937 0.54634 0.0
H638 H 0.7074 0.10188 0.52111 0.0
H639 H 0.76407 0.97107 0.50388 0.0
C640 C 0.77999 -0.00124 0.47843 0.0
C641 C 0.77384 0.03332 0.4666 0.0
C642 C 0.69917 0.07072 0.52664 0.0
C643 C 0.73339 0.03327 0.5002 0.0
C644 C 0.67919 0.06843 0.54345 0.0
C645 C 0.66888 0.02828 0.55098 0.0
C646 C 0.7099 0.03258 0.51753 0.0
C647 C 0.67856 0.99103 0.54104 0.0
C648 C 0.75958 -0.00154 0.49511 0.0
C649 C 0.74817 0.06804 0.47237 0.0
N650 N 0.69897 -0.00592 0.52497 0.0
N651 N 0.72894 0.06721 0.4888 0.0
H652 H 0.5397 0.80756 0.97594 0.0
H653 H 0.38991 0.73103 0.0561 0.0
H654 H 0.40088 0.80975 0.97072 0.0
H655 H 0.51539 0.67617 0.04539 0.0
H656 H 0.39334 0.76866 0.02718 0.0
H657 H 0.53205 0.77037 1.00456 0.0
C658 C 0.50755 0.80086 0.98093 0.0
C659 C 0.47085 0.81173 0.97086 0.0
C660 C 0.41983 0.74801 0.03116 0.0
C661 C 0.46199 0.76889 1.00363 0.0
C662 C 0.41788 0.72645 0.0476 0.0
C663 C 0.45239 0.70034 0.05319 0.0
C664 C 0.45698 0.74421 0.02049 0.0
C665 C 0.48792 0.69574 0.04165 0.0
C666 C 0.50326 0.77921 0.99718 0.0
C667 C 0.43003 0.80186 0.97801 0.0
N668 N 0.48953 0.7179 0.02599 0.0
N669 N 0.42665 0.78104 0.994 0.0
H670 H 0.68782 0.54189 0.4719 0.0
H671 H 0.79782 0.41296 0.5516 0.0
H672 H 0.71839 0.40691 0.46615 0.0
H673 H 0.82152 0.54771 0.54148 0.0
H674 H 0.75952 0.40809 0.5228 0.0
H675 H 0.72498 0.54249 0.50074 0.0
C676 C 0.70169 0.51215 0.47681 0.0
C677 C 0.70013 0.4743 0.46651 0.0
C678 C 0.7735 0.43854 0.52688 0.0
C679 C 0.74298 0.47498 0.49954 0.0
C680 C 0.79544 0.44135 0.54325 0.0
C681 C 0.81303 0.48078 0.54895 0.0
C682 C 0.76826 0.47566 0.5164 0.0
C683 C 0.80877 0.51659 0.53762 0.0
C684 C 0.7233 0.51268 0.4932 0.0
C685 C 0.71897 0.43684 0.47361 0.0
N686 N 0.78639 0.51328 0.52203 0.0
N687 N 0.73965 0.43809 0.48972 0.0
H688 H 0.97218 0.22446 0.15323 0.0
H689 H 0.01361 0.01065 0.10148 0.0
H690 H 0.98777 0.22459 0.09565 0.0
H691 H 0.90798 0.0138 0.13918 0.0
H692 H 0.01588 0.08952 0.10223 0.0
H693 H 0.95795 0.14641 0.15181 0.0
C694 C 0.97197 0.2084 0.14033 0.0
C695 C 0.98152 0.23116 0.12459 0.0
C696 C 0.99225 0.07271 0.11032 0.0
C697 C 0.96676 0.14253 0.12302 0.0
C698 C 0.99076 0.02785 0.10981 0.0
C699 C 0.96085 0.00561 0.12039 0.0
C700 C 0.96434 0.0953 0.12179 0.0
C701 C 0.93241 0.02962 0.1312 0.0
C702 C 0.96397 0.16404 0.13955 0.0
C703 C 0.98088 0.20858 0.1082 0.0
N704 N 0.93522 0.07326 0.13184 0.0
N705 N 0.97454 0.16544 0.1079 0.0
H706 H 0.24087 0.96031 0.59301 0.0
H707 H 0.4635 0.9154 0.64017 0.0
H708 H 0.24725 0.95838 0.65089 0.0
H709 H 0.45085 0.01098 0.5986 0.0
H710 H 0.38487 0.90861 0.6412 0.0
H711 H 0.31911 0.95359 0.59178 0.0
C712 C 0.25846 0.95747 0.60551 0.0
C713 C 0.23734 0.96078 0.62215 0.0
C714 C 0.39954 0.93089 0.63185 0.0
C715 C 0.3269 0.9525 0.6206 0.0
C716 C 0.44428 0.93528 0.63136 0.0
C717 C 0.46378 0.9648 0.61961 0.0
C718 C 0.37428 0.95495 0.62003 0.0
C719 C 0.43726 0.98786 0.60784 0.0
C720 C 0.30315 0.95392 0.6047 0.0
C721 C 0.26216 0.95638 0.6378 0.0
N722 N 0.39372 0.98238 0.60831 0.0
N723 N 0.30589 0.95273 0.63665 0.0
H724 H 0.4144 0.48088 0.14049 0.0
H725 H 0.55377 0.27425 0.11521 0.0
H726 H 0.52658 0.48664 0.10644 0.0
H727 H 0.46313 0.27714 0.1591 0.0
H728 H 0.54578 0.35202 0.11194 0.0
H729 H 0.42937 0.40455 0.14615 0.0
C730 C 0.44157 0.46562 0.13389 0.0
C731 C 0.46913 0.48959 0.12291 0.0
C732 C 0.52828 0.3358 0.12252 0.0
C733 C 0.48717 0.40322 0.12959 0.0
C734 C 0.53323 0.29151 0.12453 0.0
C735 C 0.5088 0.26924 0.13735 0.0
C736 C 0.49823 0.35777 0.13324 0.0
C737 C 0.48261 0.29308 0.14906 0.0
C738 C 0.45052 0.42241 0.13732 0.0
C739 C 0.50423 0.46886 0.11478 0.0
N740 N 0.47729 0.33603 0.14648 0.0
N741 N 0.51239 0.42681 0.11834 0.0
H742 H 0.22171 0.46771 0.65999 0.0
H743 H 0.01965 0.55954 0.60575 0.0
H744 H 0.23516 0.54292 0.61173 0.0
H745 H 0.01406 0.44922 0.64062 0.0
H746 H 0.09743 0.56516 0.61144 0.0
H747 H 0.14339 0.47615 0.65807 0.0
C748 C 0.20833 0.48729 0.64935 0.0
C749 C 0.23482 0.50403 0.63581 0.0
C750 C 0.07917 0.53968 0.6178 0.0
C751 C 0.14559 0.5129 0.63335 0.0
C752 C 0.03508 0.53611 0.61437 0.0
C753 C 0.01088 0.50368 0.62266 0.0
C754 C 0.09882 0.51091 0.62977 0.0
C755 C 0.03189 0.47465 0.63402 0.0
C756 C 0.16362 0.49148 0.64811 0.0
C757 C 0.21573 0.52896 0.62229 0.0
N758 N 0.07475 0.47907 0.63734 0.0
N759 N 0.17212 0.53213 0.62124 0.0
H760 H 0.96101 0.48464 0.91404 0.0
H761 H 0.04555 0.27424 0.86311 0.0
H762 H 0.07199 0.48422 0.87921 0.0
H763 H 0.95494 0.27101 0.90702 0.0
H764 H 0.04799 0.35286 0.86556 0.0
H765 H 0.95393 0.40692 0.90986 0.0
C766 C 0.98451 0.46784 0.90586 0.0
C767 C 0.01729 0.49045 0.89703 0.0
C768 C 0.02717 0.3349 0.87449 0.0
C769 C 0.00848 0.40217 0.8916 0.0
C770 C 0.02522 0.29015 0.8729 0.0
C771 C 0.00025 0.2662 0.88498 0.0
C772 C 0.00372 0.35556 0.88815 0.0
C773 C 0.9749 0.28834 0.89756 0.0
C774 C 0.98012 0.42368 0.90325 0.0
C775 C 0.04632 0.46762 0.88622 0.0
N776 N 0.97759 0.33177 0.89893 0.0
N777 N 0.04106 0.42462 0.88366 0.0
H778 H 0.99195 0.08183 0.37942 0.0
H779 H 0.19845 0.94455 0.40877 0.0
H780 H 0.987 0.9729 0.41502 0.0
H781 H 0.20302 0.04221 0.36777 0.0
H782 H 0.12064 0.95433 0.41096 0.0
H783 H 0.07003 0.07056 0.37588 0.0
C784 C 0.00764 0.05621 0.38679 0.0
C785 C 0.98345 0.02847 0.39763 0.0
C786 C 0.13847 0.9733 0.40131 0.0
C787 C 0.0718 0.01468 0.39338 0.0
C788 C 0.18286 0.96744 0.39995 0.0
C789 C 0.20717 -0.00728 0.38812 0.0
C790 C 0.11822 0.00503 0.39091 0.0
C791 C 0.18538 0.0219 0.37699 0.0
C792 C 0.05191 0.04943 0.38461 0.0
C793 C 0.00479 -0.00461 0.40677 0.0
N794 N 0.14209 0.02772 0.37883 0.0
N795 N 0.04773 0.98927 0.40437 0.0
H796 H 0.53345 0.23165 0.92606 0.0
H797 H 0.57109 0.0093 0.8768 0.0
H798 H 0.52787 0.22538 0.86823 0.0
H799 H 0.48625 0.02252 0.92236 0.0
H800 H 0.57798 0.08775 0.87553 0.0
H801 H 0.54265 0.15379 0.92698 0.0
C802 C 0.53533 0.21421 0.91349 0.0
C803 C 0.52886 0.2352 0.89701 0.0
C804 C 0.55806 0.07324 0.88581 0.0
C805 C 0.5398 0.146 0.89816 0.0
C806 C 0.55354 0.02855 0.88644 0.0
C807 C 0.52717 0.00918 0.89948 0.0
C808 C 0.53733 0.09861 0.8987 0.0
C809 C 0.50707 0.03589 0.91215 0.0
C810 C 0.54025 0.1697 0.91411 0.0
C811 C 0.53223 0.2106 0.88123 0.0
N812 N 0.51268 0.07927 0.91149 0.0
N813 N 0.53703 0.16706 0.88219 0.0
H814 H 0.49036 0.57838 0.37605 0.0
H815 H 0.27141 0.51473 0.42164 0.0
H816 H 0.48513 0.4787 0.4162 0.0
H817 H 0.27894 0.50743 0.36386 0.0
H818 H 0.34856 0.52949 0.42277 0.0
H819 H 0.41128 0.57735 0.37432 0.0
C820 C 0.47273 0.55612 0.38444 0.0
C821 C 0.49458 0.5278 0.39602 0.0
C822 C 0.33299 0.52549 0.40986 0.0
C823 C 0.40438 0.5286 0.39478 0.0
C824 C 0.28886 0.51733 0.40911 0.0
C825 C 0.26852 0.50899 0.39258 0.0
C826 C 0.35691 0.52659 0.39401 0.0
C827 C 0.29322 0.51326 0.37689 0.0
C828 C 0.4277 0.55596 0.38352 0.0
C829 C 0.46981 0.50119 0.40717 0.0
N830 N 0.33639 0.52151 0.37798 0.0
N831 N 0.42596 0.50237 0.40634 0.0
H832 H 0.95385 0.77356 0.86325 0.0
H833 H 0.03024 0.98594 0.91478 0.0
H834 H 0.03473 0.7714 0.91037 0.0
H835 H 0.92359 0.98352 0.87768 0.0
H836 H 0.03749 0.90792 0.91162 0.0
H837 H 0.95104 0.85219 0.86526 0.0
C838 C 0.97198 0.78968 0.87371 0.0
C839 C -0.00572 0.76602 0.88675 0.0
C840 C 0.01219 0.92433 0.9043 0.0
C841 C 0.99037 0.85545 0.88936 0.0
C842 C 0.00768 0.96866 0.9063 0.0
C843 C 0.97611 0.99076 0.89654 0.0
C844 C 0.98522 0.90218 0.89229 0.0
C845 C 0.94828 0.96731 0.88542 0.0
C846 C 0.9698 0.83445 0.87502 0.0
C847 C 0.01686 0.78847 0.90013 0.0
N848 N 0.95372 0.92417 0.88344 0.0
N849 N 0.01403 0.83196 0.90118 0.0
H850 H 0.70329 0.94267 0.36537 0.0
H851 H 0.48526 0.00223 0.41706 0.0
H852 H 0.69775 0.02663 0.4115 0.0
H853 H 0.49352 0.89981 0.37814 0.0
H854 H 0.56278 0.01402 0.41423 0.0
H855 H 0.62505 0.93225 0.36753 0.0
C856 C 0.68548 0.95977 0.37566 0.0
C857 C 0.707 0.98538 0.38834 0.0
C858 C 0.54787 0.98858 0.40644 0.0
C859 C 0.61805 0.9728 0.39113 0.0
C860 C 0.50376 0.98142 0.40827 0.0
C861 C 0.48332 0.94975 0.39792 0.0
C862 C 0.5716 0.9642 0.39401 0.0
C863 C 0.50839 0.92446 0.38636 0.0
C864 C 0.64098 0.95328 0.37705 0.0
C865 C 0.68245 0.00638 0.40152 0.0
N866 N 0.55133 0.93248 0.38457 0.0
N867 N 0.63934 -0.00062 0.40265 0.0
H868 H 0.4173 0.50777 0.87769 0.0
H869 H 0.45337 0.73367 0.9237 0.0
H870 H 0.50333 0.52456 0.92268 0.0
H871 H 0.46474 0.72319 0.86613 0.0
H872 H 0.44406 0.65592 0.92546 0.0
H873 H 0.41081 0.58609 0.87523 0.0
C874 C 0.43518 0.52776 0.88696 0.0
C875 C 0.46184 0.5094 0.90017 0.0
C876 C 0.44771 0.67089 0.91244 0.0
C877 C 0.45207 0.59874 0.89805 0.0
C878 C 0.45273 0.71532 0.91134 0.0
C879 C 0.46089 0.7351 0.89472 0.0
C880 C 0.44969 0.64604 0.89683 0.0
C881 C 0.459 0.70938 0.87922 0.0
C882 C 0.4309 0.57238 0.88564 0.0
C883 C 0.48231 0.53711 0.91236 0.0
N884 N 0.45404 0.66591 0.88065 0.0
N885 N 0.47686 0.58043 0.91105 0.0
H886 H 0.78025 0.48921 0.35915 0.0
H887 H 0.98385 0.40804 0.41602 0.0
H888 H 0.76905 0.43689 0.4125 0.0
H889 H 0.99231 0.49319 0.37062 0.0
H890 H 0.90496 0.40671 0.41261 0.0
H891 H 0.85789 0.47551 0.36004 0.0
C892 C 0.79381 0.47368 0.37085 0.0
C893 C 0.76807 0.46479 0.38588 0.0
C894 C 0.92414 0.42556 0.40337 0.0
C895 C 0.85713 0.44987 0.38711 0.0
C896 C 0.96901 0.42666 0.40542 0.0
C897 C -0.00555 0.45078 0.39358 0.0
C898 C 0.90473 0.44852 0.38929 0.0
C899 C 0.97378 0.47388 0.37992 0.0
C900 C 0.83829 0.46641 0.37144 0.0
C901 C 0.78768 0.44478 0.40069 0.0
N902 N 0.93017 0.47208 0.37811 0.0
N903 N 0.83112 0.43851 0.40102 0.0
H904 H 0.04809 0.73345 0.10747 0.0
H905 H 0.94448 0.5138 0.1365 0.0
H906 H 0.97612 0.7193 0.15664 0.0
H907 H 0.06211 0.51551 0.10565 0.0
H908 H 0.95243 0.59115 0.14196 0.0
H909 H 0.0545 0.65503 0.10553 0.0
C910 C 0.03489 0.71394 0.11817 0.0
C911 C 0.01106 0.73294 0.13212 0.0
C912 C 0.97661 0.57457 0.13405 0.0
C913 C 0.01687 0.64351 0.12959 0.0
C914 C 0.97195 0.5306 0.13087 0.0
C915 C 0.00293 0.50843 0.1208 0.0
C916 C 0.01208 0.59663 0.12679 0.0
C917 C 0.03737 0.53171 0.11338 0.0
C918 C 0.03824 0.66921 0.11696 0.0
C919 C -0.00537 0.70612 0.14561 0.0
N920 N 0.04102 0.57472 0.11648 0.0
N921 N -0.00313 0.66267 0.14376 0.0
H922 H 0.73839 0.06384 0.607 0.0
H923 H 0.9463 0.94185 0.63702 0.0
H924 H 0.74725 -0.00056 0.65808 0.0
H925 H 0.95778 0.05649 0.60492 0.0
H926 H 0.87059 0.95976 0.64286 0.0
H927 H 0.81727 0.06353 0.60502 0.0
C928 C 0.75691 0.0511 0.61811 0.0
C929 C 0.73614 0.03085 0.63256 0.0
C930 C 0.88973 0.98109 0.63459 0.0
C931 C 0.8259 0.02897 0.63 0.0
C932 C 0.93269 0.9707 0.63115 0.0
C933 C 0.95811 -0.00208 0.62061 0.0
C934 C 0.87188 0.0185 0.62708 0.0
C935 C 0.93894 0.03451 0.613 0.0
C936 C 0.80189 0.05056 0.61687 0.0
C937 C 0.76177 0.015 0.6466 0.0
N938 N 0.89676 0.04372 0.61632 0.0
N939 N 0.80532 0.01321 0.64472 0.0
H940 H 0.44776 0.77349 0.10791 0.0
H941 H 0.56983 0.98406 0.1421 0.0
H942 H 0.5316 0.77481 0.15413 0.0
H943 H 0.46143 0.9883 0.10594 0.0
H944 H 0.56027 0.90595 0.14489 0.0
H945 H 0.4532 0.85175 0.10626 0.0
C946 C 0.46656 0.79037 0.11795 0.0
C947 C 0.48945 0.76764 0.13112 0.0
C948 C 0.53874 0.92393 0.13625 0.0
C949 C 0.49682 0.85697 0.12899 0.0
C950 C 0.54452 0.96824 0.13452 0.0
C951 C 0.51639 -0.0078 0.12378 0.0
C952 C 0.50477 0.90365 0.12705 0.0
C953 C 0.48402 0.97064 0.11421 0.0
C954 C 0.46991 0.835 0.11692 0.0
C955 C 0.51332 0.79109 0.1438 0.0
N956 N 0.47895 0.92749 0.11612 0.0
N957 N 0.51694 0.83451 0.14225 0.0
H958 H 0.51855 0.42379 0.64024 0.0
H959 H 0.72396 0.52197 0.59374 0.0
H960 H 0.50821 0.52678 0.60175 0.0
H961 H 0.72638 0.48987 0.65006 0.0
H962 H 0.64654 0.50875 0.59323 0.0
H963 H 0.59679 0.43379 0.6409 0.0
C964 C 0.53269 0.44879 0.63204 0.0
C965 C 0.50683 0.47519 0.62119 0.0
C966 C 0.66413 0.50443 0.60565 0.0
C967 C 0.59613 0.48528 0.62135 0.0
C968 C 0.70836 0.51159 0.60598 0.0
C969 C 0.73171 0.50702 0.62202 0.0
C970 C 0.64313 0.49174 0.62134 0.0
C971 C 0.70956 0.49382 0.63745 0.0
C972 C 0.57726 0.45418 0.63237 0.0
C973 C 0.52701 0.50571 0.61025 0.0
N974 N 0.66629 0.48639 0.63672 0.0
N975 N 0.57067 0.50987 0.61055 0.0
H976 H 0.15124 0.31981 0.30079 0.0
H977 H 0.08458 0.45106 0.21377 0.0
H978 H 0.11151 0.45302 0.3032 0.0
H979 H 0.08037 0.31245 0.21625 0.0
H980 H 0.09852 0.45357 0.24604 0.0
H981 H 0.13062 0.3177 0.26933 0.0
C982 C 0.13855 0.34886 0.29475 0.0
C983 C 0.134 0.38695 0.30484 0.0
C984 C 0.09398 0.42262 0.23959 0.0
C985 C 0.11012 0.38448 0.26851 0.0
C986 C 0.08598 0.42114 0.22119 0.0
C987 C 0.08091 0.38148 0.21236 0.0
C988 C 0.09796 0.3841 0.24922 0.0
C989 C 0.08331 0.34371 0.22257 0.0
C990 C 0.1266 0.34745 0.27674 0.0
C991 C 0.11717 0.42331 0.29609 0.0
N992 N 0.09216 0.34593 0.24044 0.0
N993 N 0.10606 0.42121 0.27843 0.0
H994 H 0.02594 0.08396 0.71111 0.0
H995 H 0.15309 0.07821 0.80414 0.0
H996 H 0.15663 0.03753 0.71611 0.0
H997 H 0.01605 0.10163 0.80015 0.0
H998 H 0.15547 0.0648 0.77193 0.0
H999 H 0.02202 0.09167 0.74362 0.0
C1000 C 0.0537 0.07489 0.7191 0.0
C1001 C 0.09157 0.05973 0.71088 0.0
C1002 C 0.12491 0.0731 0.77809 0.0
C1003 C 0.08753 0.06919 0.74819 0.0
C1004 C 0.12347 0.08091 0.7965 0.0
C1005 C 0.08445 0.09212 0.80494 0.0
C1006 C 0.08701 0.07642 0.7679 0.0
C1007 C 0.04717 0.09475 0.79429 0.0
C1008 C 0.05142 0.07933 0.73767 0.0
C1009 C 0.12654 0.04855 0.72187 0.0
N1010 N 0.04942 0.0871 0.77634 0.0
N1011 N 0.1238 0.05386 0.73997 0.0
H1012 H 0.40138 0.14236 0.31112 0.0
H1013 H 0.39378 0.03206 0.21421 0.0
H1014 H 0.37149 0.00815 0.30257 0.0
H1015 H 0.43579 0.16276 0.22324 0.0
H1016 H 0.38485 0.02289 0.24646 0.0
H1017 H 0.41313 0.15065 0.27899 0.0
C1018 C 0.39689 0.11464 0.30248 0.0
C1019 C 0.38452 0.07465 0.30962 0.0
C1020 C 0.39642 0.05347 0.24144 0.0
C1021 C 0.39835 0.08393 0.27268 0.0
C1022 C 0.40157 0.05876 0.22301 0.0
C1023 C 0.41609 0.0981 0.21599 0.0
C1024 C 0.40535 0.08796 0.25303 0.0
C1025 C 0.42554 0.13157 0.22802 0.0
C1026 C 0.40371 0.11944 0.28411 0.0
C1027 C 0.37951 0.03991 0.29773 0.0
N1028 N 0.41979 0.12579 0.24595 0.0
N1029 N 0.38641 0.04538 0.27986 0.0
H1030 H 0.44937 0.31211 0.80377 0.0
H1031 H 0.38384 0.46029 0.72035 0.0
H1032 H 0.38933 0.43668 0.80954 0.0
H1033 H 0.40696 0.32354 0.71608 0.0
H1034 H 0.39453 0.45544 0.7527 0.0
H1035 H 0.44479 0.31957 0.77111 0.0
C1036 C 0.43609 0.34139 0.79818 0.0
C1037 C 0.42 0.37396 0.80937 0.0
C1038 C 0.39696 0.42647 0.74466 0.0
C1039 C 0.41393 0.38242 0.7721 0.0
C1040 C 0.39019 0.42909 0.72616 0.0
C1041 C 0.39309 0.39203 0.71541 0.0
C1042 C 0.4075 0.38668 0.75246 0.0
C1043 C 0.40396 0.35295 0.72379 0.0
C1044 C 0.433 0.34543 0.77955 0.0
C1045 C 0.40204 0.41075 0.80138 0.0
N1046 N 0.41071 0.3513 0.74176 0.0
N1047 N 0.39949 0.414 0.78326 0.0
H1048 H 0.92285 0.67078 0.80107 0.0
H1049 H 0.88088 0.52495 0.714 0.0
H1050 H 0.90158 0.5336 0.80324 0.0
H1051 H 0.88573 0.66384 0.71321 0.0
H1052 H 0.89065 0.5268 0.74648 0.0
H1053 H 0.91387 0.66814 0.76855 0.0
C1054 C 0.91724 0.63996 0.7947 0.0
C1055 C 0.91371 0.60224 0.80488 0.0
C1056 C 0.88918 0.55688 0.7392 0.0
C1057 C 0.90205 0.59911 0.76766 0.0
C1058 C 0.88296 0.55586 0.72063 0.0
C1059 C 0.88154 0.59434 0.71081 0.0
C1060 C 0.89448 0.59662 0.74801 0.0
C1061 C 0.88645 0.63333 0.7202 0.0
C1062 C 0.91149 0.63853 0.77612 0.0
C1063 C 0.90469 0.56346 0.79589 0.0
N1064 N 0.89274 0.63347 0.73821 0.0
N1065 N 0.89923 0.56287 0.77782 0.0
H1066 H 0.84049 0.93016 0.21146 0.0
H1067 H 0.94546 0.88805 0.30746 0.0
H1068 H 0.94274 0.83806 0.22034 0.0
H1069 H 0.8181 0.94215 0.30053 0.0
H1070 H 0.95112 0.87929 0.27508 0.0
H1071 H 0.83807 0.94426 0.24358 0.0
C1072 C 0.86279 0.91308 0.22008 0.0
C1073 C 0.89238 0.88323 0.21294 0.0
C1074 C 0.9221 0.89345 0.28066 0.0
C1075 C 0.88971 0.89961 0.24993 0.0
C1076 C 0.91876 0.89857 0.29918 0.0
C1077 C 0.88139 0.91646 0.30691 0.0
C1078 C 0.88792 0.90643 0.26963 0.0
C1079 C 0.84804 0.92943 0.29536 0.0
C1080 C 0.86129 0.92124 0.23845 0.0
C1081 C 0.92033 0.86229 0.22492 0.0
N1082 N 0.85212 0.92416 0.27731 0.0
N1083 N 0.91832 0.87093 0.2428 0.0
H1084 H 0.53835 0.81759 0.80063 0.0
H1085 H 0.59067 0.97522 0.71876 0.0
H1086 H 0.59195 0.9446 0.80786 0.0
H1087 H 0.58405 0.83684 0.71342 0.0
H1088 H 0.5802 0.96768 0.75101 0.0
H1089 H 0.54183 0.82774 0.76804 0.0
C1090 C 0.54994 0.84792 0.79537 0.0
C1091 C 0.56467 0.88039 0.80692 0.0
C1092 C 0.58132 0.93901 0.74273 0.0
C1093 C 0.5693 0.89203 0.76978 0.0
C1094 C 0.588 0.94322 0.72427 0.0
C1095 C 0.58971 0.90655 0.71323 0.0
C1096 C 0.57535 0.89795 0.7502 0.0
C1097 C 0.58339 0.86611 0.72132 0.0
C1098 C 0.5524 0.85353 0.77679 0.0
C1099 C 0.58038 0.91872 0.79938 0.0
N1100 N 0.57651 0.86291 0.73924 0.0
N1101 N 0.58227 0.92351 0.7813 0.0
H1102 H 0.60446 0.53411 0.21033 0.0
H1103 H 0.57101 0.63852 0.30711 0.0
H1104 H 0.54979 0.66054 0.21851 0.0
H1105 H 0.66127 0.53552 0.29658 0.0
H1106 H 0.55329 0.64062 0.27532 0.0
H1107 H 0.61539 0.52777 0.24256 0.0
C1108 C 0.59426 0.56043 0.21888 0.0
C1109 C 0.57567 0.59779 0.21157 0.0
C1110 C 0.5767 0.61731 0.28001 0.0
C1111 C 0.58824 0.59055 0.24863 0.0
C1112 C 0.58694 0.61602 0.29819 0.0
C1113 C 0.61741 0.58636 0.30474 0.0
C1114 C 0.5969 0.58866 0.26817 0.0
C1115 C 0.63674 0.55806 0.29243 0.0
C1116 C 0.60062 0.55672 0.2373 0.0
C1117 C 0.56309 0.63067 0.22341 0.0
N1118 N 0.62615 0.55993 0.27475 0.0
N1119 N 0.56968 0.62629 0.24135 0.0
H1120 H 0.3581 0.19914 0.08572 0.0
H1121 H 0.17054 0.30794 0.14161 0.0
H1122 H 0.32524 0.16471 0.14012 0.0
H1123 H 0.16188 0.29985 0.08388 0.0
H1124 H 0.23543 0.26419 0.14065 0.0
H1125 H 0.29091 0.24079 0.08382 0.0
C1126 C 0.3364 0.19949 0.0971 0.0
C1127 C 0.34762 0.17898 0.11322 0.0
C1128 C 0.21938 0.27204 0.12818 0.0
C1129 C 0.27195 0.22722 0.11123 0.0
C1130 C 0.18254 0.29741 0.12868 0.0
C1131 C 0.16037 0.30711 0.11281 0.0
C1132 C 0.23454 0.25647 0.1117 0.0
C1133 C 0.17786 0.2929 0.09645 0.0
C1134 C 0.29833 0.2235 0.09603 0.0
C1135 C 0.31831 0.18053 0.12753 0.0
N1136 N 0.21399 0.26798 0.0963 0.0
N1137 N 0.28219 0.20484 0.12628 0.0
H1138 H 0.29978 0.30593 0.64349 0.0
H1139 H 0.17553 0.13788 0.58194 0.0
H1140 H 0.2843 0.32792 0.58667 0.0
H1141 H 0.15582 0.15202 0.63898 0.0
H1142 H 0.21966 0.20359 0.5823 0.0
H1143 H 0.25468 0.24231 0.64095 0.0
C1144 C 0.2873 0.29716 0.63041 0.0
C1145 C 0.29547 0.3226 0.6153 0.0
C1146 C 0.20516 0.19238 0.59464 0.0
C1147 C 0.24326 0.24989 0.61238 0.0
C1148 C 0.17978 0.15516 0.59444 0.0
C1149 C 0.16249 0.13917 0.6105 0.0
C1150 C 0.21338 0.21313 0.61102 0.0
C1151 C 0.16904 0.16276 0.62632 0.0
C1152 C 0.2612 0.26099 0.62902 0.0
C1153 C 0.27861 0.30932 0.59869 0.0
N1154 N 0.19438 0.19821 0.6262 0.0
N1155 N 0.25303 0.27383 0.59766 0.0
H1156 H 0.18066 0.13199 0.88452 0.0
H1157 H 0.3358 0.29189 0.9382 0.0
H1158 H 0.14535 0.18743 0.93558 0.0
H1159 H 0.34506 0.26286 0.88167 0.0
H1160 H 0.27365 0.2431 0.94026 0.0
H1161 H 0.25129 0.16586 0.88696 0.0
C1162 C 0.1881 0.15057 0.89643 0.0
C1163 C 0.1568 0.15778 0.90967 0.0
C1164 C 0.2895 0.24751 0.92746 0.0
C1165 C 0.23715 0.1973 0.91236 0.0
C1166 C 0.32468 0.27549 0.92623 0.0
C1167 C 0.34541 0.28175 0.9097 0.0
C1168 C 0.27552 0.22538 0.9121 0.0
C1169 C 0.32991 0.25942 0.89466 0.0
C1170 C 0.22831 0.17015 0.89776 0.0
C1171 C 0.16843 0.1815 0.92497 0.0
N1172 N 0.29601 0.23221 0.89624 0.0
N1173 N 0.20756 0.20121 0.92575 0.0
H1174 H 0.25289 0.32716 0.38287 0.0
H1175 H 0.29428 0.12021 0.44012 0.0
H1176 H 0.20337 0.31607 0.43677 0.0
H1177 H 0.36954 0.15541 0.39374 0.0
H1178 H 0.26682 0.19402 0.44177 0.0
H1179 H 0.29909 0.26562 0.38815 0.0
C1180 C 0.25152 0.31155 0.39582 0.0
C1181 C 0.22373 0.32636 0.40932 0.0
C1182 C 0.29028 0.18586 0.43155 0.0
C1183 C 0.27712 0.25566 0.41554 0.0
C1184 C 0.30624 0.14384 0.43069 0.0
C1185 C 0.3333 0.13159 0.41648 0.0
C1186 C 0.30148 0.21525 0.41806 0.0
C1187 C 0.34787 0.16337 0.40465 0.0
C1188 C 0.27842 0.27666 0.39892 0.0
C1189 C 0.22406 0.30533 0.42595 0.0
N1190 N 0.33106 0.20356 0.40548 0.0
N1191 N 0.25 0.27052 0.42854 0.0
H1192 H 0.84413 0.68434 0.93551 0.0
H1193 H 0.64746 0.76768 0.87745 0.0
H1194 H 0.81436 0.63839 0.88224 0.0
H1195 H 0.65452 0.78937 0.9346 0.0
H1196 H 0.7094 0.72012 0.87951 0.0
H1197 H 0.7736 0.71971 0.93661 0.0
C1198 C 0.82235 0.68069 0.92424 0.0
C1199 C 0.83547 0.65919 0.90859 0.0
C1200 C 0.69739 0.73512 0.89164 0.0
C1201 C 0.75552 0.70021 0.90965 0.0
C1202 C 0.66224 0.76273 0.89045 0.0
C1203 C 0.64585 0.78274 0.90588 0.0
C1204 C 0.71676 0.72769 0.90835 0.0
C1205 C 0.66623 0.77473 0.92235 0.0
C1206 C 0.78226 0.70118 0.92484 0.0
C1207 C 0.80592 0.65538 0.89444 0.0
N1208 N 0.70086 0.74791 0.92315 0.0
N1209 N 0.76764 0.67637 0.89518 0.0
H1210 H 0.74688 0.65009 0.37841 0.0
H1211 H 0.79954 0.85195 0.43798 0.0
H1212 H 0.71145 0.6545 0.43437 0.0
H1213 H 0.86464 0.82254 0.38829 0.0
H1214 H 0.77224 0.77801 0.43889 0.0
H1215 H 0.79237 0.71275 0.38283 0.0
C1216 C 0.74846 0.66443 0.39164 0.0
C1217 C 0.72491 0.64737 0.406 0.0
C1218 C 0.79341 0.78749 0.42805 0.0
C1219 C 0.77746 0.71922 0.41121 0.0
C1220 C 0.80927 0.82958 0.42759 0.0
C1221 C 0.83344 0.84357 0.41279 0.0
C1222 C 0.80173 0.75976 0.41357 0.0
C1223 C 0.84521 0.8133 0.39972 0.0
C1224 C 0.77494 0.69996 0.39422 0.0
C1225 C 0.72885 0.66692 0.42291 0.0
N1226 N 0.8285 0.77305 0.40023 0.0
N1227 N 0.75432 0.70225 0.42503 0.0
H1228 H 0.82715 0.78827 0.08214 0.0
H1229 H 0.66629 0.62604 0.13102 0.0
H1230 H 0.82612 0.75999 0.13881 0.0
H1231 H 0.63207 0.68897 0.08148 0.0
H1232 H 0.73748 0.65908 0.12951 0.0
H1233 H 0.76513 0.73966 0.0782 0.0
C1234 C 0.81382 0.77205 0.09373 0.0
C1235 C 0.83151 0.7785 0.11086 0.0
C1236 C 0.71464 0.66511 0.1188 0.0
C1237 C 0.76213 0.72227 0.10632 0.0
C1238 C 0.67415 0.64602 0.11959 0.0
C1239 C 0.64302 0.65566 0.10657 0.0
C1240 C 0.72392 0.69422 0.10498 0.0
C1241 C 0.65511 0.68114 0.09189 0.0
C1242 C 0.77876 0.74422 0.09143 0.0
C1243 C 0.81329 0.75646 0.12539 0.0
N1244 N 0.69453 0.7004 0.09166 0.0
N1245 N 0.77975 0.72926 0.12276 0.0
H1246 H 0.70709 0.8459 0.64159 0.0
H1247 H 0.80904 0.66659 0.57974 0.0
H1248 H 0.69327 0.85048 0.58399 0.0
H1249 H 0.85122 0.69341 0.63378 0.0
H1250 H 0.76908 0.73469 0.57975 0.0
H1251 H 0.75917 0.78818 0.63832 0.0
C1252 C 0.71467 0.8345 0.62822 0.0
C1253 C 0.69561 0.85298 0.61303 0.0
C1254 C 0.7879 0.72602 0.59143 0.0
C1255 C 0.75592 0.78697 0.60919 0.0
C1256 C 0.81099 0.68739 0.59138 0.0
C1257 C 0.83263 0.67404 0.60694 0.0
C1258 C 0.78648 0.75088 0.60716 0.0
C1259 C 0.83416 0.70212 0.62164 0.0
C1260 C 0.74491 0.80183 0.62635 0.0
C1261 C 0.7071 0.837 0.59606 0.0
N1262 N 0.81068 0.73886 0.62151 0.0
N1263 N 0.73646 0.80463 0.59458 0.0
loop_
_geom_bond_atom_site_label_1
_geom_bond_atom_site_label_2
_geom_bond_distance
_geom_bond_site_symmetry_2
_ccdc_geom_bond_type
Co0 O3 1.970 . S
Co0 N17 1.989 . S
Co0 O25 1.967 . S
Co0 O32 1.920 . S
Co1 O4 1.966 . S
Co1 N10 2.022 . S
Co1 N18 1.993 . S
Co1 O26 1.941 . S
C2 O3 1.258 . S
C2 O4 1.263 . S
O3 Co0 1.970 . S
O3 C2 1.258 . S
O4 Co1 1.966 . S
O4 C2 1.263 . S
C5 O6 1.235 1_455 S
C5 O32 1.289 . S
O6 C5 1.235 1_655 S
C7 C9 1.400 . S
C7 N10 1.351 . S
C7 C12 1.501 . S
C8 C9 1.387 . S
C8 N11 1.341 . S
C9 C7 1.400 . S
C9 C8 1.387 . S
N10 Co1 2.022 . S
N10 C7 1.351 . S
N10 N11 1.365 . S
N11 C8 1.341 . S
N11 N10 1.365 . S
N11 H31 0.862 . S
C12 C7 1.501 . S
C12 H13 0.961 . S
C12 H14 0.961 1_455 S
C12 H15 0.960 . S
H13 C12 0.961 . S
H14 C12 0.961 1_655 S
H15 C12 0.960 . S
C16 N17 1.342 . S
C16 C20 1.401 . S
C16 C21 1.499 . S
N17 Co0 1.989 . S
N17 C16 1.342 . S
N17 N18 1.388 . S
N18 Co1 1.993 . S
N18 N17 1.388 . S
N18 C19 1.346 . S
C19 N18 1.346 . S
C19 C20 1.396 . S
C19 C29 1.510 . S
C20 C16 1.401 . S
C20 C19 1.396 . S
C21 C16 1.499 . S
C21 H22 0.959 . S
C21 H23 0.960 . S
C21 H24 0.961 . S
H22 C21 0.959 . S
H23 C21 0.960 . S
H24 C21 0.961 . S
O25 Co0 1.967 . S
O25 C33 1.258 . S
O26 Co1 1.941 . S
O26 C33 1.266 . S
H27 C29 0.959 . S
H28 C29 0.961 . S
C29 C19 1.510 . S
C29 H27 0.959 . S
C29 H28 0.961 . S
C29 H30 0.960 . S
H30 C29 0.960 . S
H31 N11 0.862 . S
O32 Co0 1.920 . S
O32 C5 1.289 . S
C33 O25 1.258 . S
C33 O26 1.266 . S
Co34 O37 1.970 . S
Co34 N51 1.989 . S
Co34 O59 1.967 . S
Co34 O66 1.920 . S
Co35 O38 1.966 . S
Co35 N44 2.022 . S
Co35 N52 1.993 . S
Co35 O60 1.941 . S
C36 O37 1.258 . S
C36 O38 1.263 . S
O37 Co34 1.970 . S
O37 C36 1.258 . S
O38 Co35 1.966 . S
O38 C36 1.263 . S
C39 O40 1.235 1_545 S
C39 O66 1.289 . S
O40 C39 1.235 1_565 S
C41 C43 1.400 . S
C41 N44 1.351 . S
C41 C46 1.501 . S
C42 C43 1.387 . S
C42 N45 1.341 . S
C43 C41 1.400 . S
C43 C42 1.387 . S
N44 Co35 2.022 . S
N44 C41 1.351 . S
N44 N45 1.365 . S
N45 C42 1.341 . S
N45 N44 1.365 . S
N45 H65 0.862 . S
C46 C41 1.501 . S
C46 H47 0.961 . S
C46 H48 0.961 1_545 S
C46 H49 0.960 . S
H47 C46 0.961 . S
H48 C46 0.961 1_565 S
H49 C46 0.960 . S
C50 N51 1.342 . S
C50 C54 1.401 . S
C50 C55 1.499 . S
N51 Co34 1.989 . S
N51 C50 1.342 . S
N51 N52 1.388 . S
N52 Co35 1.993 . S
N52 N51 1.388 . S
N52 C53 1.346 . S
C53 N52 1.346 . S
C53 C54 1.396 . S
C53 C63 1.510 . S
C54 C50 1.401 . S
C54 C53 1.396 . S
C55 C50 1.499 . S
C55 H56 0.959 . S
C55 H57 0.960 . S
C55 H58 0.961 . S
H56 C55 0.959 . S
H57 C55 0.960 . S
H58 C55 0.961 . S
O59 Co34 1.967 . S
O59 C67 1.258 . S
O60 Co35 1.941 . S
O60 C67 1.266 . S
H61 C63 0.959 . S
H62 C63 0.961 . S
C63 C53 1.510 . S
C63 H61 0.959 . S
C63 H62 0.961 . S
C63 H64 0.960 . S
H64 C63 0.960 . S
H65 N45 0.862 . S
O66 Co34 1.920 . S
O66 C39 1.289 . S
C67 O59 1.258 . S
C67 O60 1.266 . S
Co68 O71 1.970 . S
Co68 N85 1.989 . S
Co68 O93 1.967 . S
Co68 O100 1.920 . S
Co69 O72 1.966 . S
Co69 N78 2.022 . S
Co69 N86 1.993 . S
Co69 O94 1.941 . S
C70 O71 1.258 . S
C70 O72 1.263 . S
O71 Co68 1.970 . S
O71 C70 1.258 . S
O72 Co69 1.966 . S
O72 C70 1.263 . S
C73 O74 1.235 . S
C73 O100 1.289 . S
O74 C73 1.235 . S
C75 C77 1.400 . S
C75 N78 1.351 . S
C75 C80 1.501 . S
C76 C77 1.387 . S
C76 N79 1.341 . S
C77 C75 1.400 . S
C77 C76 1.387 . S
N78 Co69 2.022 . S
N78 C75 1.351 . S
N78 N79 1.365 . S
N79 C76 1.341 . S
N79 N78 1.365 . S
N79 H99 0.862 . S
C80 C75 1.501 . S
C80 H81 0.961 . S
C80 H82 0.961 . S
C80 H83 0.960 . S
H81 C80 0.961 . S
H82 C80 0.961 . S
H83 C80 0.960 . S
C84 N85 1.342 . S
C84 C88 1.401 . S
C84 C89 1.499 . S
N85 Co68 1.989 . S
N85 C84 1.342 . S
N85 N86 1.388 . S
N86 Co69 1.993 . S
N86 N85 1.388 . S
N86 C87 1.346 . S
C87 N86 1.346 . S
C87 C88 1.396 . S
C87 C97 1.510 . S
C88 C84 1.401 . S
C88 C87 1.396 . S
C89 C84 1.499 . S
C89 H90 0.959 . S
C89 H91 0.960 . S
C89 H92 0.961 . S
H90 C89 0.959 . S
H91 C89 0.960 . S
H92 C89 0.961 . S
O93 Co68 1.967 . S
O93 C101 1.258 . S
O94 Co69 1.941 . S
O94 C101 1.266 . S
H95 C97 0.959 . S
H96 C97 0.961 . S
C97 C87 1.510 . S
C97 H95 0.959 . S
C97 H96 0.961 . S
C97 H98 0.960 . S
H98 C97 0.960 . S
H99 N79 0.862 . S
O100 Co68 1.920 . S
O100 C73 1.289 . S
C101 O93 1.258 . S
C101 O94 1.266 . S
Co102 O105 1.970 . S
Co102 N119 1.989 . S
Co102 O127 1.967 . S
Co102 O134 1.920 . S
Co103 O106 1.966 . S
Co103 N112 2.022 . S
Co103 N120 1.993 . S
Co103 O128 1.941 . S
C104 O105 1.258 . S
C104 O106 1.263 . S
O105 Co102 1.970 . S
O105 C104 1.258 . S
O106 Co103 1.966 . S
O106 C104 1.263 . S
C107 O108 1.235 . S
C107 O134 1.289 . S
O108 C107 1.235 . S
C109 C111 1.400 . S
C109 N112 1.351 . S
C109 C114 1.501 . S
C110 C111 1.387 . S
C110 N113 1.341 . S
C111 C109 1.400 . S
C111 C110 1.387 . S
N112 Co103 2.022 . S
N112 C109 1.351 . S
N112 N113 1.365 . S
N113 C110 1.341 . S
N113 N112 1.365 . S
N113 H133 0.862 . S
C114 C109 1.501 . S
C114 H115 0.961 . S
C114 H116 0.961 . S
C114 H117 0.960 . S
H115 C114 0.961 . S
H116 C114 0.961 . S
H117 C114 0.960 . S
C118 N119 1.342 . S
C118 C122 1.401 . S
C118 C123 1.499 . S
N119 Co102 1.989 . S
N119 C118 1.342 . S
N119 N120 1.388 . S
N120 Co103 1.993 . S
N120 N119 1.388 . S
N120 C121 1.346 . S
C121 N120 1.346 . S
C121 C122 1.396 . S
C121 C131 1.510 . S
C122 C118 1.401 . S
C122 C121 1.396 . S
C123 C118 1.499 . S
C123 H124 0.959 . S
C123 H125 0.960 . S
C123 H126 0.961 . S
H124 C123 0.959 . S
H125 C123 0.960 . S
H126 C123 0.961 . S
O127 Co102 1.967 . S
O127 C135 1.258 . S
O128 Co103 1.941 . S
O128 C135 1.266 . S
H129 C131 0.959 . S
H130 C131 0.961 . S
C131 C121 1.510 . S
C131 H129 0.959 . S
C131 H130 0.961 . S
C131 H132 0.960 . S
H132 C131 0.960 . S
H133 N113 0.862 . S
O134 Co102 1.920 . S
O134 C107 1.289 . S
C135 O127 1.258 . S
C135 O128 1.266 . S
Co136 O139 1.970 . S
Co136 N153 1.989 . S
Co136 O161 1.967 . S
Co136 O168 1.920 . S
Co137 O140 1.966 . S
Co137 N146 2.022 . S
Co137 N154 1.993 . S
Co137 O162 1.941 . S
C138 O139 1.258 . S
C138 O140 1.263 . S
O139 Co136 1.970 . S
O139 C138 1.258 . S
O140 Co137 1.966 . S
O140 C138 1.263 . S
C141 O142 1.235 1_455 S
C141 O168 1.289 . S
O142 C141 1.235 1_655 S
C143 C145 1.400 . S
C143 N146 1.351 . S
C143 C148 1.501 . S
C144 C145 1.387 . S
C144 N147 1.341 . S
C145 C143 1.400 . S
C145 C144 1.387 . S
N146 Co137 2.022 . S
N146 C143 1.351 . S
N146 N147 1.365 . S
N147 C144 1.341 . S
N147 N146 1.365 . S
N147 H167 0.862 . S
C148 C143 1.501 . S
C148 H149 0.961 . S
C148 H150 0.961 1_455 S
C148 H151 0.960 . S
H149 C148 0.961 . S
H150 C148 0.961 1_655 S
H151 C148 0.960 . S
C152 N153 1.342 . S
C152 C156 1.401 . S
C152 C157 1.499 . S
N153 Co136 1.989 . S
N153 C152 1.342 . S
N153 N154 1.388 . S
N154 Co137 1.993 . S
N154 N153 1.388 . S
N154 C155 1.346 . S
C155 N154 1.346 . S
C155 C156 1.396 . S
C155 C165 1.510 . S
C156 C152 1.401 . S
C156 C155 1.396 . S
C157 C152 1.499 . S
C157 H158 0.959 . S
C157 H159 0.960 . S
C157 H160 0.961 . S
H158 C157 0.959 . S
H159 C157 0.960 . S
H160 C157 0.961 . S
O161 Co136 1.967 . S
O161 C169 1.258 . S
O162 Co137 1.941 . S
O162 C169 1.266 . S
H163 C165 0.959 . S
H164 C165 0.961 . S
C165 C155 1.510 . S
C165 H163 0.959 . S
C165 H164 0.961 . S
C165 H166 0.960 . S
H166 C165 0.960 . S
H167 N147 0.862 . S
O168 Co136 1.920 . S
O168 C141 1.289 . S
C169 O161 1.258 . S
C169 O162 1.266 . S
Co170 O173 1.970 . S
Co170 N187 1.989 . S
Co170 O195 1.967 . S
Co170 O202 1.920 . S
Co171 O174 1.966 . S
Co171 N180 2.022 . S
Co171 N188 1.993 . S
Co171 O196 1.941 . S
C172 O173 1.258 . S
C172 O174 1.263 . S
O173 Co170 1.970 . S
O173 C172 1.258 . S
O174 Co171 1.966 . S
O174 C172 1.263 . S
C175 O176 1.235 1_545 S
C175 O202 1.289 . S
O176 C175 1.235 1_565 S
C177 C179 1.400 . S
C177 N180 1.351 . S
C177 C182 1.501 . S
C178 C179 1.387 . S
C178 N181 1.341 . S
C179 C177 1.400 . S
C179 C178 1.387 . S
N180 Co171 2.022 . S
N180 C177 1.351 . S
N180 N181 1.365 . S
N181 C178 1.341 . S
N181 N180 1.365 . S
N181 H201 0.862 . S
C182 C177 1.501 . S
C182 H183 0.961 . S
C182 H184 0.961 1_545 S
C182 H185 0.960 . S
H183 C182 0.961 . S
H184 C182 0.961 1_565 S
H185 C182 0.960 . S
C186 N187 1.342 . S
C186 C190 1.401 . S
C186 C191 1.499 . S
N187 Co170 1.989 . S
N187 C186 1.342 . S
N187 N188 1.388 . S
N188 Co171 1.993 . S
N188 N187 1.388 . S
N188 C189 1.346 . S
C189 N188 1.346 . S
C189 C190 1.396 . S
C189 C199 1.510 . S
C190 C186 1.401 . S
C190 C189 1.396 . S
C191 C186 1.499 . S
C191 H192 0.959 . S
C191 H193 0.960 . S
C191 H194 0.961 . S
H192 C191 0.959 . S
H193 C191 0.960 . S
H194 C191 0.961 . S
O195 Co170 1.967 . S
O195 C203 1.258 . S
O196 Co171 1.941 . S
O196 C203 1.266 . S
H197 C199 0.959 . S
H198 C199 0.961 . S
C199 C189 1.510 . S
C199 H197 0.959 . S
C199 H198 0.961 . S
C199 H200 0.960 . S
H200 C199 0.960 . S
H201 N181 0.862 . S
O202 Co170 1.920 . S
O202 C175 1.289 . S
C203 O195 1.258 . S
C203 O196 1.266 . S
Co204 O207 1.970 . S
Co204 N221 1.989 . S
Co204 O229 1.967 . S
Co204 O236 1.920 . S
Co205 O208 1.966 . S
Co205 N214 2.022 . S
Co205 N222 1.993 . S
Co205 O230 1.941 . S
C206 O207 1.258 . S
C206 O208 1.263 . S
O207 Co204 1.970 . S
O207 C206 1.258 . S
O208 Co205 1.966 . S
O208 C206 1.263 . S
C209 O210 1.235 . S
C209 O236 1.289 . S
O210 C209 1.235 . S
C211 C213 1.400 . S
C211 N214 1.351 . S
C211 C216 1.501 . S
C212 C213 1.387 . S
C212 N215 1.341 . S
C213 C211 1.400 . S
C213 C212 1.387 . S
N214 Co205 2.022 . S
N214 C211 1.351 . S
N214 N215 1.365 . S
N215 C212 1.341 . S
N215 N214 1.365 . S
N215 H235 0.862 . S
C216 C211 1.501 . S
C216 H217 0.961 . S
C216 H218 0.961 . S
C216 H219 0.960 . S
H217 C216 0.961 . S
H218 C216 0.961 . S
H219 C216 0.960 . S
C220 N221 1.342 . S
C220 C224 1.401 . S
C220 C225 1.499 . S
N221 Co204 1.989 . S
N221 C220 1.342 . S
N221 N222 1.388 . S
N222 Co205 1.993 . S
N222 N221 1.388 . S
N222 C223 1.346 . S
C223 N222 1.346 . S
C223 C224 1.396 . S
C223 C233 1.510 . S
C224 C220 1.401 . S
C224 C223 1.396 . S
C225 C220 1.499 . S
C225 H226 0.959 . S
C225 H227 0.960 . S
C225 H228 0.961 . S
H226 C225 0.959 . S
H227 C225 0.960 . S
H228 C225 0.961 . S
O229 Co204 1.967 . S
O229 C237 1.258 . S
O230 Co205 1.941 . S
O230 C237 1.266 . S
H231 C233 0.959 . S
H232 C233 0.961 . S
C233 C223 1.510 . S
C233 H231 0.959 . S
C233 H232 0.961 . S
C233 H234 0.960 . S
H234 C233 0.960 . S
H235 N215 0.862 . S
O236 Co204 1.920 . S
O236 C209 1.289 . S
C237 O229 1.258 . S
C237 O230 1.266 . S
Co238 O241 1.970 . S
Co238 N255 1.989 . S
Co238 O263 1.967 . S
Co238 O270 1.920 . S
Co239 O242 1.966 . S
Co239 N248 2.022 . S
Co239 N256 1.993 . S
Co239 O264 1.941 . S
C240 O241 1.258 . S
C240 O242 1.263 . S
O241 Co238 1.970 . S
O241 C240 1.258 . S
O242 Co239 1.966 . S
O242 C240 1.263 . S
C243 O244 1.235 . S
C243 O270 1.289 . S
O244 C243 1.235 . S
C245 C247 1.400 . S
C245 N248 1.351 . S
C245 C250 1.501 . S
C246 C247 1.387 . S
C246 N249 1.341 . S
C247 C245 1.400 . S
C247 C246 1.387 . S
N248 Co239 2.022 . S
N248 C245 1.351 . S
N248 N249 1.365 . S
N249 C246 1.341 . S
N249 N248 1.365 . S
N249 H269 0.862 . S
C250 C245 1.501 . S
C250 H251 0.961 . S
C250 H252 0.961 . S
C250 H253 0.960 . S
H251 C250 0.961 . S
H252 C250 0.961 . S
H253 C250 0.960 . S
C254 N255 1.342 . S
C254 C258 1.401 . S
C254 C259 1.499 . S
N255 Co238 1.989 . S
N255 C254 1.342 . S
N255 N256 1.388 . S
N256 Co239 1.993 . S
N256 N255 1.388 . S
N256 C257 1.346 . S
C257 N256 1.346 . S
C257 C258 1.396 . S
C257 C267 1.510 . S
C258 C254 1.401 . S
C258 C257 1.396 . S
C259 C254 1.499 . S
C259 H260 0.959 . S
C259 H261 0.960 . S
C259 H262 0.961 . S
H260 C259 0.959 . S
H261 C259 0.960 . S
H262 C259 0.961 . S
O263 Co238 1.967 . S
O263 C271 1.258 . S
O264 Co239 1.941 . S
O264 C271 1.266 . S
H265 C267 0.959 . S
H266 C267 0.961 . S
C267 C257 1.510 . S
C267 H265 0.959 . S
C267 H266 0.961 . S
C267 H268 0.960 . S
H268 C267 0.960 . S
H269 N249 0.862 . S
O270 Co238 1.920 . S
O270 C243 1.289 . S
C271 O263 1.258 . S
C271 O264 1.266 . S
Co272 O275 1.970 . S
Co272 N289 1.989 . S
Co272 O297 1.967 . S
Co272 O304 1.920 . S
Co273 O276 1.966 . S
Co273 N282 2.022 . S
Co273 N290 1.993 . S
Co273 O298 1.941 . S
C274 O275 1.258 . S
C274 O276 1.263 . S
O275 Co272 1.970 . S
O275 C274 1.258 . S
O276 Co273 1.966 . S
O276 C274 1.263 . S
C277 O278 1.235 1_655 S
C277 O304 1.289 . S
O278 C277 1.235 1_455 S
C279 C281 1.400 . S
C279 N282 1.351 . S
C279 C284 1.501 . S
C280 C281 1.387 . S
C280 N283 1.341 . S
C281 C279 1.400 . S
C281 C280 1.387 . S
N282 Co273 2.022 . S
N282 C279 1.351 . S
N282 N283 1.365 . S
N283 C280 1.341 . S
N283 N282 1.365 . S
N283 H303 0.862 . S
C284 C279 1.501 . S
C284 H285 0.961 . S
C284 H286 0.961 1_655 S
C284 H287 0.960 . S
H285 C284 0.961 . S
H286 C284 0.961 1_455 S
H287 C284 0.960 . S
C288 N289 1.342 . S
C288 C292 1.401 . S
C288 C293 1.499 . S
N289 Co272 1.989 . S
N289 C288 1.342 . S
N289 N290 1.388 . S
N290 Co273 1.993 . S
N290 N289 1.388 . S
N290 C291 1.346 . S
C291 N290 1.346 . S
C291 C292 1.396 . S
C291 C301 1.510 . S
C292 C288 1.401 . S
C292 C291 1.396 . S
C293 C288 1.499 . S
C293 H294 0.959 . S
C293 H295 0.960 . S
C293 H296 0.961 . S
H294 C293 0.959 . S
H295 C293 0.960 . S
H296 C293 0.961 . S
O297 Co272 1.967 . S
O297 C305 1.258 . S
O298 Co273 1.941 . S
O298 C305 1.266 . S
H299 C301 0.959 . S
H300 C301 0.961 . S
C301 C291 1.510 . S
C301 H299 0.959 . S
C301 H300 0.961 . S
C301 H302 0.960 . S
H302 C301 0.960 . S
H303 N283 0.862 . S
O304 Co272 1.920 . S
O304 C277 1.289 . S
C305 O297 1.258 . S
C305 O298 1.266 . S
Co306 O309 1.970 . S
Co306 N323 1.989 . S
Co306 O331 1.967 . S
Co306 O338 1.920 . S
Co307 O310 1.966 . S
Co307 N316 2.022 . S
Co307 N324 1.993 . S
Co307 O332 1.941 . S
C308 O309 1.258 . S
C308 O310 1.263 . S
O309 Co306 1.970 . S
O309 C308 1.258 . S
O310 Co307 1.966 . S
O310 C308 1.263 . S
C311 O312 1.235 1_565 S
C311 O338 1.289 . S
O312 C311 1.235 1_545 S
C313 C315 1.400 . S
C313 N316 1.351 . S
C313 C318 1.501 . S
C314 C315 1.387 . S
C314 N317 1.341 . S
C315 C313 1.400 . S
C315 C314 1.387 . S
N316 Co307 2.022 . S
N316 C313 1.351 . S
N316 N317 1.365 . S
N317 C314 1.341 . S
N317 N316 1.365 . S
N317 H337 0.862 . S
C318 C313 1.501 . S
C318 H319 0.961 . S
C318 H320 0.961 1_565 S
C318 H321 0.960 . S
H319 C318 0.961 . S
H320 C318 0.961 1_545 S
H321 C318 0.960 . S
C322 N323 1.342 . S
C322 C326 1.401 . S
C322 C327 1.499 . S
N323 Co306 1.989 . S
N323 C322 1.342 . S
N323 N324 1.388 . S
N324 Co307 1.993 . S
N324 N323 1.388 . S
N324 C325 1.346 . S
C325 N324 1.346 . S
C325 C326 1.396 . S
C325 C335 1.510 . S
C326 C322 1.401 . S
C326 C325 1.396 . S
C327 C322 1.499 . S
C327 H328 0.959 . S
C327 H329 0.960 . S
C327 H330 0.961 . S
H328 C327 0.959 . S
H329 C327 0.960 . S
H330 C327 0.961 . S
O331 Co306 1.967 . S
O331 C339 1.258 . S
O332 Co307 1.941 . S
O332 C339 1.266 . S
H333 C335 0.959 . S
H334 C335 0.961 . S
C335 C325 1.510 . S
C335 H333 0.959 . S
C335 H334 0.961 . S
C335 H336 0.960 . S
H336 C335 0.960 . S
H337 N317 0.862 . S
O338 Co306 1.920 . S
O338 C311 1.289 . S
C339 O331 1.258 . S
C339 O332 1.266 . S
Co340 O343 1.970 . S
Co340 N357 1.989 . S
Co340 O365 1.967 . S
Co340 O372 1.920 . S
Co341 O344 1.966 . S
Co341 N350 2.022 . S
Co341 N358 1.993 . S
Co341 O366 1.941 . S
C342 O343 1.258 . S
C342 O344 1.263 . S
O343 Co340 1.970 . S
O343 C342 1.258 . S
O344 Co341 1.966 . S
O344 C342 1.263 . S
C345 O346 1.235 . S
C345 O372 1.289 . S
O346 C345 1.235 . S
C347 C349 1.400 . S
C347 N350 1.351 . S
C347 C352 1.501 . S
C348 C349 1.387 . S
C348 N351 1.341 . S
C349 C347 1.400 . S
C349 C348 1.387 . S
N350 Co341 2.022 . S
N350 C347 1.351 . S
N350 N351 1.365 . S
N351 C348 1.341 . S
N351 N350 1.365 . S
N351 H371 0.862 . S
C352 C347 1.501 . S
C352 H353 0.961 . S
C352 H354 0.961 . S
C352 H355 0.960 . S
H353 C352 0.961 . S
H354 C352 0.961 . S
H355 C352 0.960 . S
C356 N357 1.342 . S
C356 C360 1.401 . S
C356 C361 1.499 . S
N357 Co340 1.989 . S
N357 C356 1.342 . S
N357 N358 1.388 . S
N358 Co341 1.993 . S
N358 N357 1.388 . S
N358 C359 1.346 . S
C359 N358 1.346 . S
C359 C360 1.396 . S
C359 C369 1.510 . S
C360 C356 1.401 . S
C360 C359 1.396 . S
C361 C356 1.499 . S
C361 H362 0.959 . S
C361 H363 0.960 . S
C361 H364 0.961 . S
H362 C361 0.959 . S
H363 C361 0.960 . S
H364 C361 0.961 . S
O365 Co340 1.967 . S
O365 C373 1.258 . S
O366 Co341 1.941 . S
O366 C373 1.266 . S
H367 C369 0.959 . S
H368 C369 0.961 . S
C369 C359 1.510 . S
C369 H367 0.959 . S
C369 H368 0.961 . S
C369 H370 0.960 . S
H370 C369 0.960 . S
H371 N351 0.862 . S
O372 Co340 1.920 . S
O372 C345 1.289 . S
C373 O365 1.258 . S
C373 O366 1.266 . S
Co374 O377 1.970 . S
Co374 N391 1.989 . S
Co374 O399 1.967 . S
Co374 O406 1.920 . S
Co375 O378 1.966 . S
Co375 N384 2.022 . S
Co375 N392 1.993 . S
Co375 O400 1.941 . S
C376 O377 1.258 . S
C376 O378 1.263 . S
O377 Co374 1.970 . S
O377 C376 1.258 . S
O378 Co375 1.966 . S
O378 C376 1.263 . S
C379 O380 1.235 . S
C379 O406 1.289 . S
O380 C379 1.235 . S
C381 C383 1.400 . S
C381 N384 1.351 . S
C381 C386 1.501 . S
C382 C383 1.387 . S
C382 N385 1.341 . S
C383 C381 1.400 . S
C383 C382 1.387 . S
N384 Co375 2.022 . S
N384 C381 1.351 . S
N384 N385 1.365 . S
N385 C382 1.341 . S
N385 N384 1.365 . S
N385 H405 0.862 . S
C386 C381 1.501 . S
C386 H387 0.961 . S
C386 H388 0.961 . S
C386 H389 0.960 . S
H387 C386 0.961 . S
H388 C386 0.961 . S
H389 C386 0.960 . S
C390 N391 1.342 . S
C390 C394 1.401 . S
C390 C395 1.499 . S
N391 Co374 1.989 . S
N391 C390 1.342 . S
N391 N392 1.388 . S
N392 Co375 1.993 . S
N392 N391 1.388 . S
N392 C393 1.346 . S
C393 N392 1.346 . S
C393 C394 1.396 . S
C393 C403 1.510 . S
C394 C390 1.401 . S
C394 C393 1.396 . S
C395 C390 1.499 . S
C395 H396 0.959 . S
C395 H397 0.960 . S
C395 H398 0.961 . S
H396 C395 0.959 . S
H397 C395 0.960 . S
H398 C395 0.961 . S
O399 Co374 1.967 . S
O399 C407 1.258 . S
O400 Co375 1.941 . S
O400 C407 1.266 . S
H401 C403 0.959 . S
H402 C403 0.961 . S
C403 C393 1.510 . S
C403 H401 0.959 . S
C403 H402 0.961 . S
C403 H404 0.960 . S
H404 C403 0.960 . S
H405 N385 0.862 . S
O406 Co374 1.920 . S
O406 C379 1.289 . S
C407 O399 1.258 . S
C407 O400 1.266 . S
Co408 O411 1.970 . S
Co408 N425 1.989 . S
Co408 O433 1.967 . S
Co408 O440 1.920 . S
Co409 O412 1.966 . S
Co409 N418 2.022 . S
Co409 N426 1.993 . S
Co409 O434 1.941 . S
C410 O411 1.258 . S
C410 O412 1.263 . S
O411 Co408 1.970 . S
O411 C410 1.258 . S
O412 Co409 1.966 . S
O412 C410 1.263 . S
C413 O414 1.235 1_655 S
C413 O440 1.289 . S
O414 C413 1.235 1_455 S
C415 C417 1.400 . S
C415 N418 1.351 . S
C415 C420 1.501 . S
C416 C417 1.387 . S
C416 N419 1.341 . S
C417 C415 1.400 . S
C417 C416 1.387 . S
N418 Co409 2.022 . S
N418 C415 1.351 . S
N418 N419 1.365 . S
N419 C416 1.341 . S
N419 N418 1.365 . S
N419 H439 0.862 . S
C420 C415 1.501 . S
C420 H421 0.961 . S
C420 H422 0.961 1_655 S
C420 H423 0.960 . S
H421 C420 0.961 . S
H422 C420 0.961 1_455 S
H423 C420 0.960 . S
C424 N425 1.342 . S
C424 C428 1.401 . S
C424 C429 1.499 . S
N425 Co408 1.989 . S
N425 C424 1.342 . S
N425 N426 1.388 . S
N426 Co409 1.993 . S
N426 N425 1.388 . S
N426 C427 1.346 . S
C427 N426 1.346 . S
C427 C428 1.396 . S
C427 C437 1.510 . S
C428 C424 1.401 . S
C428 C427 1.396 . S
C429 C424 1.499 . S
C429 H430 0.959 . S
C429 H431 0.960 . S
C429 H432 0.961 . S
H430 C429 0.959 . S
H431 C429 0.960 . S
H432 C429 0.961 . S
O433 Co408 1.967 . S
O433 C441 1.258 . S
O434 Co409 1.941 . S
O434 C441 1.266 . S
H435 C437 0.959 . S
H436 C437 0.961 . S
C437 C427 1.510 . S
C437 H435 0.959 . S
C437 H436 0.961 . S
C437 H438 0.960 . S
H438 C437 0.960 . S
H439 N419 0.862 . S
O440 Co408 1.920 . S
O440 C413 1.289 . S
C441 O433 1.258 . S
C441 O434 1.266 . S
Co442 O445 1.970 . S
Co442 N459 1.989 . S
Co442 O467 1.967 . S
Co442 O474 1.920 . S
Co443 O446 1.966 . S
Co443 N452 2.022 . S
Co443 N460 1.993 . S
Co443 O468 1.941 . S
C444 O445 1.258 . S
C444 O446 1.263 . S
O445 Co442 1.970 . S
O445 C444 1.258 . S
O446 Co443 1.966 . S
O446 C444 1.263 . S
C447 O448 1.235 1_565 S
C447 O474 1.289 . S
O448 C447 1.235 1_545 S
C449 C451 1.400 . S
C449 N452 1.351 . S
C449 C454 1.501 . S
C450 C451 1.387 . S
C450 N453 1.341 . S
C451 C449 1.400 . S
C451 C450 1.387 . S
N452 Co443 2.022 . S
N452 C449 1.351 . S
N452 N453 1.365 . S
N453 C450 1.341 . S
N453 N452 1.365 . S
N453 H473 0.862 . S
C454 C449 1.501 . S
C454 H455 0.961 . S
C454 H456 0.961 1_565 S
C454 H457 0.960 . S
H455 C454 0.961 . S
H456 C454 0.961 1_545 S
H457 C454 0.960 . S
C458 N459 1.342 . S
C458 C462 1.401 . S
C458 C463 1.499 . S
N459 Co442 1.989 . S
N459 C458 1.342 . S
N459 N460 1.388 . S
N460 Co443 1.993 . S
N460 N459 1.388 . S
N460 C461 1.346 . S
C461 N460 1.346 . S
C461 C462 1.396 . S
C461 C471 1.510 . S
C462 C458 1.401 . S
C462 C461 1.396 . S
C463 C458 1.499 . S
C463 H464 0.959 . S
C463 H465 0.960 . S
C463 H466 0.961 . S
H464 C463 0.959 . S
H465 C463 0.960 . S
H466 C463 0.961 . S
O467 Co442 1.967 . S
O467 C475 1.258 . S
O468 Co443 1.941 . S
O468 C475 1.266 . S
H469 C471 0.959 . S
H470 C471 0.961 . S
C471 C461 1.510 . S
C471 H469 0.959 . S
C471 H470 0.961 . S
C471 H472 0.960 . S
H472 C471 0.960 . S
H473 N453 0.862 . S
O474 Co442 1.920 . S
O474 C447 1.289 . S
C475 O467 1.258 . S
C475 O468 1.266 . S
Co476 O479 1.970 . S
Co476 N493 1.989 . S
Co476 O501 1.967 . S
Co476 O508 1.920 . S
Co477 O480 1.966 . S
Co477 N486 2.022 . S
Co477 N494 1.993 . S
Co477 O502 1.941 . S
C478 O479 1.258 . S
C478 O480 1.263 . S
O479 Co476 1.970 . S
O479 C478 1.258 . S
O480 Co477 1.966 . S
O480 C478 1.263 . S
C481 O482 1.235 . S
C481 O508 1.289 . S
O482 C481 1.235 . S
C483 C485 1.400 . S
C483 N486 1.351 . S
C483 C488 1.501 . S
C484 C485 1.387 . S
C484 N487 1.341 . S
C485 C483 1.400 . S
C485 C484 1.387 . S
N486 Co477 2.022 . S
N486 C483 1.351 . S
N486 N487 1.365 . S
N487 C484 1.341 . S
N487 N486 1.365 . S
N487 H507 0.862 . S
C488 C483 1.501 . S
C488 H489 0.961 . S
C488 H490 0.961 . S
C488 H491 0.960 . S
H489 C488 0.961 . S
H490 C488 0.961 . S
H491 C488 0.960 . S
C492 N493 1.342 . S
C492 C496 1.401 . S
C492 C497 1.499 . S
N493 Co476 1.989 . S
N493 C492 1.342 . S
N493 N494 1.388 . S
N494 Co477 1.993 . S
N494 N493 1.388 . S
N494 C495 1.346 . S
C495 N494 1.346 . S
C495 C496 1.396 . S
C495 C505 1.510 . S
C496 C492 1.401 . S
C496 C495 1.396 . S
C497 C492 1.499 . S
C497 H498 0.959 . S
C497 H499 0.960 . S
C497 H500 0.961 . S
H498 C497 0.959 . S
H499 C497 0.960 . S
H500 C497 0.961 . S
O501 Co476 1.967 . S
O501 C509 1.258 . S
O502 Co477 1.941 . S
O502 C509 1.266 . S
H503 C505 0.959 . S
H504 C505 0.961 . S
C505 C495 1.510 . S
C505 H503 0.959 . S
C505 H504 0.961 . S
C505 H506 0.960 . S
H506 C505 0.960 . S
H507 N487 0.862 . S
O508 Co476 1.920 . S
O508 C481 1.289 . S
C509 O501 1.258 . S
C509 O502 1.266 . S
Co510 O513 1.970 . S
Co510 N527 1.989 . S
Co510 O535 1.967 . S
Co510 O542 1.920 . S
Co511 O514 1.966 . S
Co511 N520 2.022 . S
Co511 N528 1.993 . S
Co511 O536 1.941 . S
C512 O513 1.258 . S
C512 O514 1.263 . S
O513 Co510 1.970 . S
O513 C512 1.258 . S
O514 Co511 1.966 . S
O514 C512 1.263 . S
C515 O516 1.235 . S
C515 O542 1.289 . S
O516 C515 1.235 . S
C517 C519 1.400 . S
C517 N520 1.351 . S
C517 C522 1.501 . S
C518 C519 1.387 . S
C518 N521 1.341 . S
C519 C517 1.400 . S
C519 C518 1.387 . S
N520 Co511 2.022 . S
N520 C517 1.351 . S
N520 N521 1.365 . S
N521 C518 1.341 . S
N521 N520 1.365 . S
N521 H541 0.862 . S
C522 C517 1.501 . S
C522 H523 0.961 . S
C522 H524 0.961 . S
C522 H525 0.960 . S
H523 C522 0.961 . S
H524 C522 0.961 . S
H525 C522 0.960 . S
C526 N527 1.342 . S
C526 C530 1.401 . S
C526 C531 1.499 . S
N527 Co510 1.989 . S
N527 C526 1.342 . S
N527 N528 1.388 . S
N528 Co511 1.993 . S
N528 N527 1.388 . S
N528 C529 1.346 . S
C529 N528 1.346 . S
C529 C530 1.396 . S
C529 C539 1.510 . S
C530 C526 1.401 . S
C530 C529 1.396 . S
C531 C526 1.499 . S
C531 H532 0.959 . S
C531 H533 0.960 . S
C531 H534 0.961 . S
H532 C531 0.959 . S
H533 C531 0.960 . S
H534 C531 0.961 . S
O535 Co510 1.967 . S
O535 C543 1.258 . S
O536 Co511 1.941 . S
O536 C543 1.266 . S
H537 C539 0.959 . S
H538 C539 0.961 . S
C539 C529 1.510 . S
C539 H537 0.959 . S
C539 H538 0.961 . S
C539 H540 0.960 . S
H540 C539 0.960 . S
H541 N521 0.862 . S
O542 Co510 1.920 . S
O542 C515 1.289 . S
C543 O535 1.258 . S
C543 O536 1.266 . S
H544 C550 0.930 1_655 S
H545 C554 0.930 . S
H546 C559 0.929 . S
H547 C557 0.929 1_655 S
H548 C552 0.929 . S
H549 C558 0.929 1_655 S
C550 H544 0.930 1_455 S
C550 C551 1.367 . S
C550 C558 1.378 . S
C551 C550 1.367 . S
C551 C559 1.433 . S
C552 H548 0.929 . S
C552 C554 1.378 . S
C552 C556 1.350 . S
C553 C556 1.463 1_556 S
C553 C558 1.350 . S
C553 N561 1.427 . S
C554 H545 0.930 . S
C554 C552 1.378 . S
C554 C555 1.367 . S
C555 C554 1.367 . S
C555 C557 1.433 . S
C556 C552 1.350 . S
C556 C553 1.463 1_554 S
C556 N560 1.427 . S
C557 H547 0.929 1_455 S
C557 C555 1.433 . S
C557 N560 1.384 . S
C558 H549 0.929 1_455 S
C558 C550 1.378 . S
C558 C553 1.350 . S
C559 H546 0.929 . S
C559 C551 1.433 . S
C559 N561 1.384 . S
N560 C556 1.427 . S
N560 C557 1.384 . S
N561 C553 1.427 . S
N561 C559 1.384 . S
H562 C568 0.930 . S
H563 C572 0.930 . S
H564 C577 0.929 . S
H565 C575 0.929 . S
H566 C570 0.929 . S
H567 C576 0.929 . S
C568 H562 0.930 . S
C568 C569 1.367 . S
C568 C576 1.378 . S
C569 C568 1.367 . S
C569 C577 1.433 1_545 S
C570 H566 0.929 . S
C570 C572 1.378 . S
C570 C574 1.350 1_565 S
C571 C574 1.463 . S
C571 C576 1.350 . S
C571 N579 1.427 1_545 S
C572 H563 0.930 . S
C572 C570 1.378 . S
C572 C573 1.367 1_565 S
C573 C572 1.367 1_545 S
C573 C575 1.433 . S
C574 C570 1.350 1_545 S
C574 C571 1.463 . S
C574 N578 1.427 . S
C575 H565 0.929 . S
C575 C573 1.433 . S
C575 N578 1.384 . S
C576 H567 0.929 . S
C576 C568 1.378 . S
C576 C571 1.350 . S
C577 H564 0.929 . S
C577 C569 1.433 1_565 S
C577 N579 1.384 . S
N578 C574 1.427 . S
N578 C575 1.384 . S
N579 C571 1.427 1_565 S
N579 C577 1.384 . S
H580 C586 0.930 . S
H581 C590 0.930 . S
H582 C595 0.929 . S
H583 C593 0.929 . S
H584 C588 0.929 . S
H585 C594 0.929 . S
C586 H580 0.930 . S
C586 C587 1.367 . S
C586 C594 1.378 . S
C587 C586 1.367 . S
C587 C595 1.433 . S
C588 H584 0.929 . S
C588 C590 1.378 . S
C588 C592 1.350 . S
C589 C592 1.463 1_554 S
C589 C594 1.350 . S
C589 N597 1.427 . S
C590 H581 0.930 . S
C590 C588 1.378 . S
C590 C591 1.367 . S
C591 C590 1.367 . S
C591 C593 1.433 . S
C592 C588 1.350 . S
C592 C589 1.463 1_556 S
C592 N596 1.427 . S
C593 H583 0.929 . S
C593 C591 1.433 . S
C593 N596 1.384 . S
C594 H585 0.929 . S
C594 C586 1.378 . S
C594 C589 1.350 . S
C595 H582 0.929 . S
C595 C587 1.433 . S
C595 N597 1.384 . S
N596 C592 1.427 . S
N596 C593 1.384 . S
N597 C589 1.427 . S
N597 C595 1.384 . S
H598 C604 0.930 . S
H599 C608 0.930 . S
H600 C613 0.929 . S
H601 C611 0.929 . S
H602 C606 0.929 . S
H603 C612 0.929 . S
C604 H598 0.930 . S
C604 C605 1.367 . S
C604 C612 1.378 . S
C605 C604 1.367 . S
C605 C613 1.433 . S
C606 H602 0.929 . S
C606 C608 1.378 . S
C606 C610 1.350 . S
C607 C610 1.463 . S
C607 C612 1.350 . S
C607 N615 1.427 . S
C608 H599 0.930 . S
C608 C606 1.378 . S
C608 C609 1.367 . S
C609 C608 1.367 . S
C609 C611 1.433 . S
C610 C606 1.350 . S
C610 C607 1.463 . S
C610 N614 1.427 . S
C611 H601 0.929 . S
C611 C609 1.433 . S
C611 N614 1.384 . S
C612 H603 0.929 . S
C612 C604 1.378 . S
C612 C607 1.350 . S
C613 H600 0.929 . S
C613 C605 1.433 . S
C613 N615 1.384 . S
N614 C610 1.427 . S
N614 C611 1.384 . S
N615 C607 1.427 . S
N615 C613 1.384 . S
H616 C622 0.930 . S
H617 C626 0.930 1_455 S
H618 C631 0.929 1_455 S
H619 C629 0.929 . S
H620 C624 0.929 1_455 S
H621 C630 0.929 . S
C622 H616 0.930 . S
C622 C623 1.367 . S
C622 C630 1.378 . S
C623 C622 1.367 . S
C623 C631 1.433 . S
C624 H620 0.929 1_655 S
C624 C626 1.378 . S
C624 C628 1.350 . S
C625 C628 1.463 1_554 S
C625 C630 1.350 . S
C625 N633 1.427 . S
C626 H617 0.930 1_655 S
C626 C624 1.378 . S
C626 C627 1.367 . S
C627 C626 1.367 . S
C627 C629 1.433 . S
C628 C624 1.350 . S
C628 C625 1.463 1_556 S
C628 N632 1.427 . S
C629 H619 0.929 . S
C629 C627 1.433 . S
C629 N632 1.384 . S
C630 H621 0.929 . S
C630 C622 1.378 . S
C630 C625 1.350 . S
C631 H618 0.929 1_655 S
C631 C623 1.433 . S
C631 N633 1.384 . S
N632 C628 1.427 . S
N632 C629 1.384 . S
N633 C625 1.427 . S
N633 C631 1.384 . S
H634 C640 0.930 . S
H635 C644 0.930 . S
H636 C649 0.929 . S
H637 C647 0.929 . S
H638 C642 0.929 . S
H639 C648 0.929 . S
C640 H634 0.930 . S
C640 C641 1.367 . S
C640 C648 1.378 . S
C641 C640 1.367 . S
C641 C649 1.433 1_565 S
C642 H638 0.929 . S
C642 C644 1.378 . S
C642 C646 1.350 1_545 S
C643 C646 1.463 . S
C643 C648 1.350 . S
C643 N651 1.427 1_565 S
C644 H635 0.930 . S
C644 C642 1.378 . S
C644 C645 1.367 1_545 S
C645 C644 1.367 1_565 S
C645 C647 1.433 . S
C646 C642 1.350 1_565 S
C646 C643 1.463 . S
C646 N650 1.427 . S
C647 H637 0.929 . S
C647 C645 1.433 . S
C647 N650 1.384 . S
C648 H639 0.929 . S
C648 C640 1.378 . S
C648 C643 1.350 . S
C649 H636 0.929 . S
C649 C641 1.433 1_545 S
C649 N651 1.384 . S
N650 C646 1.427 . S
N650 C647 1.384 . S
N651 C643 1.427 1_545 S
N651 C649 1.384 . S
H652 C658 0.930 . S
H653 C662 0.930 . S
H654 C667 0.929 . S
H655 C665 0.929 . S
H656 C660 0.929 . S
H657 C666 0.929 . S
C658 H652 0.930 . S
C658 C659 1.367 . S
C658 C666 1.378 . S
C659 C658 1.367 . S
C659 C667 1.433 . S
C660 H656 0.929 . S
C660 C662 1.378 . S
C660 C664 1.350 . S
C661 C664 1.463 1_556 S
C661 C666 1.350 . S
C661 N669 1.427 . S
C662 H653 0.930 . S
C662 C660 1.378 . S
C662 C663 1.367 . S
C663 C662 1.367 . S
C663 C665 1.433 . S
C664 C660 1.350 . S
C664 C661 1.463 1_554 S
C664 N668 1.427 . S
C665 H655 0.929 . S
C665 C663 1.433 . S
C665 N668 1.384 . S
C666 H657 0.929 . S
C666 C658 1.378 . S
C666 C661 1.350 . S
C667 H654 0.929 . S
C667 C659 1.433 . S
C667 N669 1.384 . S
N668 C664 1.427 . S
N668 C665 1.384 . S
N669 C661 1.427 . S
N669 C667 1.384 . S
H670 C676 0.930 . S
H671 C680 0.930 . S
H672 C685 0.929 . S
H673 C683 0.929 . S
H674 C678 0.929 . S
H675 C684 0.929 . S
C676 H670 0.930 . S
C676 C677 1.367 . S
C676 C684 1.378 . S
C677 C676 1.367 . S
C677 C685 1.433 . S
C678 H674 0.929 . S
C678 C680 1.378 . S
C678 C682 1.350 . S
C679 C682 1.463 . S
C679 C684 1.350 . S
C679 N687 1.427 . S
C680 H671 0.930 . S
C680 C678 1.378 . S
C680 C681 1.367 . S
C681 C680 1.367 . S
C681 C683 1.433 . S
C682 C678 1.350 . S
C682 C679 1.463 . S
C682 N686 1.427 . S
C683 H673 0.929 . S
C683 C681 1.433 . S
C683 N686 1.384 . S
C684 H675 0.929 . S
C684 C676 1.378 . S
C684 C679 1.350 . S
C685 H672 0.929 . S
C685 C677 1.433 . S
C685 N687 1.384 . S
N686 C682 1.427 . S
N686 C683 1.384 . S
N687 C679 1.427 . S
N687 C685 1.384 . S
H688 C694 0.930 . S
H689 C698 0.930 . S
H690 C703 0.929 . S
H691 C701 0.929 1_565 S
H692 C696 0.929 . S
H693 C702 0.929 . S
C694 H688 0.930 . S
C694 C695 1.367 1_655 S
C694 C702 1.378 . S
C695 C694 1.367 1_455 S
C695 C703 1.433 . S
C696 H692 0.929 . S
C696 C698 1.378 1_545 S
C696 C700 1.350 1_455 S
C697 C700 1.463 1_455 S
C697 C702 1.350 1_455 S
C697 N705 1.427 . S
C698 H689 0.930 . S
C698 C696 1.378 1_565 S
C698 C699 1.367 1_455 S
C699 C698 1.367 1_655 S
C699 C701 1.433 1_565 S
C700 C696 1.350 1_655 S
C700 C697 1.463 1_655 S
C700 N704 1.427 . S
C701 H691 0.929 1_545 S
C701 C699 1.433 1_545 S
C701 N704 1.384 . S
C702 H693 0.929 . S
C702 C694 1.378 . S
C702 C697 1.350 1_655 S
C703 H690 0.929 . S
C703 C695 1.433 . S
C703 N705 1.384 . S
N704 C700 1.427 . S
N704 C701 1.384 . S
N705 C697 1.427 . S
N705 C703 1.384 . S
H706 C712 0.930 . S
H707 C716 0.930 . S
H708 C721 0.929 . S
H709 C719 0.929 . S
H710 C714 0.929 . S
H711 C720 0.929 . S
C712 H706 0.930 . S
C712 C713 1.367 . S
C712 C720 1.378 . S
C713 C712 1.367 . S
C713 C721 1.433 1_545 S
C714 H710 0.929 . S
C714 C716 1.378 . S
C714 C718 1.350 . S
C715 C718 1.463 1_545 S
C715 C720 1.350 . S
C715 N723 1.427 1_545 S
C716 H707 0.930 . S
C716 C714 1.378 . S
C716 C717 1.367 . S
C717 C716 1.367 . S
C717 C719 1.433 1_565 S
C718 C714 1.350 . S
C718 C715 1.463 1_565 S
C718 N722 1.427 1_565 S
C719 H709 0.929 . S
C719 C717 1.433 1_545 S
C719 N722 1.384 . S
C720 H711 0.929 . S
C720 C712 1.378 . S
C720 C715 1.350 . S
C721 H708 0.929 . S
C721 C713 1.433 1_565 S
C721 N723 1.384 . S
N722 C718 1.427 1_545 S
N722 C719 1.384 . S
N723 C715 1.427 1_565 S
N723 C721 1.384 . S
H724 C730 0.930 . S
H725 C734 0.930 . S
H726 C739 0.929 . S
H727 C737 0.929 . S
H728 C732 0.929 . S
H729 C738 0.929 . S
C730 H724 0.930 . S
C730 C731 1.367 . S
C730 C738 1.378 . S
C731 C730 1.367 . S
C731 C739 1.433 . S
C732 H728 0.929 . S
C732 C734 1.378 . S
C732 C736 1.350 . S
C733 C736 1.463 . S
C733 C738 1.350 . S
C733 N741 1.427 . S
C734 H725 0.930 . S
C734 C732 1.378 . S
C734 C735 1.367 . S
C735 C734 1.367 . S
C735 C737 1.433 . S
C736 C732 1.350 . S
C736 C733 1.463 . S
C736 N740 1.427 . S
C737 H727 0.929 . S
C737 C735 1.433 . S
C737 N740 1.384 . S
C738 H729 0.929 . S
C738 C730 1.378 . S
C738 C733 1.350 . S
C739 H726 0.929 . S
C739 C731 1.433 . S
C739 N741 1.384 . S
N740 C736 1.427 . S
N740 C737 1.384 . S
N741 C733 1.427 . S
N741 C739 1.384 . S
H742 C748 0.930 . S
H743 C752 0.930 1_655 S
H744 C757 0.929 . S
H745 C755 0.929 . S
H746 C750 0.929 . S
H747 C756 0.929 . S
C748 H742 0.930 . S
C748 C749 1.367 . S
C748 C756 1.378 . S
C749 C748 1.367 . S
C749 C757 1.433 . S
C750 H746 0.929 . S
C750 C752 1.378 . S
C750 C754 1.350 . S
C751 C754 1.463 . S
C751 C756 1.350 . S
C751 N759 1.427 . S
C752 H743 0.930 1_455 S
C752 C750 1.378 . S
C752 C753 1.367 1_455 S
C753 C752 1.367 1_655 S
C753 C755 1.433 . S
C754 C750 1.350 . S
C754 C751 1.463 . S
C754 N758 1.427 . S
C755 H745 0.929 . S
C755 C753 1.433 . S
C755 N758 1.384 1_655 S
C756 H747 0.929 . S
C756 C748 1.378 . S
C756 C751 1.350 . S
C757 H744 0.929 . S
C757 C749 1.433 . S
C757 N759 1.384 . S
N758 C754 1.427 . S
N758 C755 1.384 1_455 S
N759 C751 1.427 . S
N759 C757 1.384 . S
H760 C766 0.930 . S
H761 C770 0.930 . S
H762 C775 0.929 1_455 S
H763 C773 0.929 1_655 S
H764 C768 0.929 . S
H765 C774 0.929 . S
C766 H760 0.930 . S
C766 C767 1.367 . S
C766 C774 1.378 . S
C767 C766 1.367 . S
C767 C775 1.433 . S
C768 H764 0.929 . S
C768 C770 1.378 . S
C768 C772 1.350 . S
C769 C772 1.463 1_655 S
C769 C774 1.350 . S
C769 N777 1.427 1_655 S
C770 H761 0.930 . S
C770 C768 1.378 . S
C770 C771 1.367 . S
C771 C770 1.367 . S
C771 C773 1.433 . S
C772 C768 1.350 . S
C772 C769 1.463 1_455 S
C772 N776 1.427 1_455 S
C773 H763 0.929 1_455 S
C773 C771 1.433 . S
C773 N776 1.384 1_455 S
C774 H765 0.929 . S
C774 C766 1.378 . S
C774 C769 1.350 . S
C775 H762 0.929 1_655 S
C775 C767 1.433 . S
C775 N777 1.384 1_655 S
N776 C772 1.427 1_655 S
N776 C773 1.384 1_655 S
N777 C769 1.427 1_455 S
N777 C775 1.384 1_455 S
H778 C784 0.930 . S
H779 C788 0.930 . S
H780 C793 0.929 1_655 S
H781 C791 0.929 . S
H782 C786 0.929 . S
H783 C792 0.929 . S
C784 H778 0.930 . S
C784 C785 1.367 1_545 S
C784 C792 1.378 1_655 S
C785 C784 1.367 1_565 S
C785 C793 1.433 1_655 S
C786 H782 0.929 . S
C786 C788 1.378 . S
C786 C790 1.350 1_565 S
C787 C790 1.463 1_565 S
C787 C792 1.350 1_565 S
C787 N795 1.427 . S
C788 H779 0.930 . S
C788 C786 1.378 . S
C788 C789 1.367 1_565 S
C789 C788 1.367 1_545 S
C789 C791 1.433 . S
C790 C786 1.350 1_545 S
C790 C787 1.463 1_545 S
C790 N794 1.427 . S
C791 H781 0.929 . S
C791 C789 1.433 . S
C791 N794 1.384 . S
C792 H783 0.929 . S
C792 C784 1.378 1_455 S
C792 C787 1.350 1_545 S
C793 H780 0.929 1_455 S
C793 C785 1.433 1_455 S
C793 N795 1.384 . S
N794 C790 1.427 . S
N794 C791 1.384 . S
N795 C787 1.427 . S
N795 C793 1.384 . S
H796 C802 0.930 . S
H797 C806 0.933 . S
H798 C811 0.929 . S
H799 C809 0.916 1_565 S
H800 C804 0.929 . S
H801 C810 0.929 . S
C802 H796 0.930 . S
C802 C803 1.367 . S
C802 C810 1.378 . S
C803 C802 1.367 . S
C803 C811 1.433 . S
C804 H800 0.929 . S
C804 C806 1.373 1_545 S
C804 C808 1.350 . S
C805 C808 1.463 . S
C805 C810 1.350 . S
C805 N813 1.427 . S
C806 H797 0.933 . S
C806 C804 1.373 1_565 S
C806 C807 1.369 . S
C807 C806 1.369 . S
C807 C809 1.421 1_565 S
C808 C804 1.350 . S
C808 C805 1.463 . S
C808 N812 1.427 . S
C809 H799 0.916 1_545 S
C809 C807 1.421 1_545 S
C809 N812 1.410 . S
C810 H801 0.929 . S
C810 C802 1.378 . S
C810 C805 1.350 . S
C811 H798 0.929 . S
C811 C803 1.433 . S
C811 N813 1.384 . S
N812 C808 1.427 . S
N812 C809 1.410 . S
N813 C805 1.427 . S
N813 C811 1.384 . S
H814 C820 0.930 . S
H815 C824 0.930 . S
H816 C829 0.929 . S
H817 C827 0.929 . S
H818 C822 0.929 . S
H819 C828 0.929 . S
C820 H814 0.930 . S
C820 C821 1.367 . S
C820 C828 1.378 . S
C821 C820 1.367 . S
C821 C829 1.433 . S
C822 H818 0.929 . S
C822 C824 1.378 . S
C822 C826 1.350 . S
C823 C826 1.463 . S
C823 C828 1.350 . S
C823 N831 1.427 . S
C824 H815 0.930 . S
C824 C822 1.378 . S
C824 C825 1.367 . S
C825 C824 1.367 . S
C825 C827 1.433 . S
C826 C822 1.350 . S
C826 C823 1.463 . S
C826 N830 1.427 . S
C827 H817 0.929 . S
C827 C825 1.433 . S
C827 N830 1.384 . S
C828 H819 0.929 . S
C828 C820 1.378 . S
C828 C823 1.350 . S
C829 H816 0.929 . S
C829 C821 1.433 . S
C829 N831 1.384 . S
N830 C826 1.427 . S
N830 C827 1.384 . S
N831 C823 1.427 . S
N831 C829 1.384 . S
H832 C838 0.930 . S
H833 C842 0.930 1_545 S
H834 C847 0.929 . S
H835 C845 0.929 . S
H836 C840 0.929 . S
H837 C846 0.929 . S
C838 H832 0.930 . S
C838 C839 1.367 . S
C838 C846 1.378 . S
C839 C838 1.367 . S
C839 C847 1.433 1_655 S
C840 H836 0.929 . S
C840 C842 1.378 . S
C840 C844 1.350 . S
C841 C844 1.463 1_655 S
C841 C846 1.350 . S
C841 N849 1.427 1_655 S
C842 H833 0.930 1_565 S
C842 C840 1.378 . S
C842 C843 1.367 1_565 S
C843 C842 1.367 1_545 S
C843 C845 1.433 1_455 S
C844 C840 1.350 . S
C844 C841 1.463 1_455 S
C844 N848 1.427 1_455 S
C845 H835 0.929 . S
C845 C843 1.433 1_655 S
C845 N848 1.384 1_545 S
C846 H837 0.929 . S
C846 C838 1.378 . S
C846 C841 1.350 . S
C847 H834 0.929 . S
C847 C839 1.433 1_455 S
C847 N849 1.384 . S
N848 C844 1.427 1_655 S
N848 C845 1.384 1_565 S
N849 C841 1.427 1_455 S
N849 C847 1.384 . S
H850 C856 0.930 . S
H851 C860 0.930 . S
H852 C865 0.929 . S
H853 C863 0.929 . S
H854 C858 0.929 . S
H855 C864 0.929 . S
C856 H850 0.930 . S
C856 C857 1.367 . S
C856 C864 1.378 . S
C857 C856 1.367 . S
C857 C865 1.433 1_565 S
C858 H854 0.929 . S
C858 C860 1.378 . S
C858 C862 1.350 . S
C859 C862 1.463 1_565 S
C859 C864 1.350 . S
C859 N867 1.427 1_565 S
C860 H851 0.930 . S
C860 C858 1.378 . S
C860 C861 1.367 . S
C861 C860 1.367 . S
C861 C863 1.433 1_545 S
C862 C858 1.350 . S
C862 C859 1.463 1_545 S
C862 N866 1.427 1_545 S
C863 H853 0.929 . S
C863 C861 1.433 1_565 S
C863 N866 1.384 . S
C864 H855 0.929 . S
C864 C856 1.378 . S
C864 C859 1.350 . S
C865 H852 0.929 . S
C865 C857 1.433 1_545 S
C865 N867 1.384 . S
N866 C862 1.427 1_565 S
N866 C863 1.384 . S
N867 C859 1.427 1_545 S
N867 C865 1.384 . S
H868 C874 0.930 . S
H869 C878 0.930 . S
H870 C883 0.929 . S
H871 C881 0.929 . S
H872 C876 0.929 . S
H873 C882 0.929 . S
C874 H868 0.930 . S
C874 C875 1.367 . S
C874 C882 1.378 . S
C875 C874 1.367 . S
C875 C883 1.433 . S
C876 H872 0.929 . S
C876 C878 1.378 . S
C876 C880 1.350 . S
C877 C880 1.463 . S
C877 C882 1.350 . S
C877 N885 1.427 . S
C878 H869 0.930 . S
C878 C876 1.378 . S
C878 C879 1.367 . S
C879 C878 1.367 . S
C879 C881 1.433 . S
C880 C876 1.350 . S
C880 C877 1.463 . S
C880 N884 1.427 . S
C881 H871 0.929 . S
C881 C879 1.433 . S
C881 N884 1.384 . S
C882 H873 0.929 . S
C882 C874 1.378 . S
C882 C877 1.350 . S
C883 H870 0.929 . S
C883 C875 1.433 . S
C883 N885 1.384 . S
N884 C880 1.427 . S
N884 C881 1.384 . S
N885 C877 1.427 . S
N885 C883 1.384 . S
H886 C892 0.930 . S
H887 C896 0.930 1_455 S
H888 C901 0.929 . S
H889 C899 0.929 . S
H890 C894 0.929 . S
H891 C900 0.929 . S
C892 H886 0.930 . S
C892 C893 1.367 . S
C892 C900 1.378 . S
C893 C892 1.367 . S
C893 C901 1.433 . S
C894 H890 0.929 . S
C894 C896 1.378 . S
C894 C898 1.350 . S
C895 C898 1.463 . S
C895 C900 1.350 . S
C895 N903 1.427 . S
C896 H887 0.930 1_655 S
C896 C894 1.378 . S
C896 C897 1.367 1_655 S
C897 C896 1.367 1_455 S
C897 C899 1.433 . S
C898 C894 1.350 . S
C898 C895 1.463 . S
C898 N902 1.427 . S
C899 H889 0.929 . S
C899 C897 1.433 . S
C899 N902 1.384 1_455 S
C900 H891 0.929 . S
C900 C892 1.378 . S
C900 C895 1.350 . S
C901 H888 0.929 . S
C901 C893 1.433 . S
C901 N903 1.384 . S
N902 C898 1.427 . S
N902 C899 1.384 1_655 S
N903 C895 1.427 . S
N903 C901 1.384 . S
H904 C910 0.930 . S
H905 C914 0.930 1_655 S
H906 C919 0.929 . S
H907 C917 0.929 . S
H908 C912 0.929 . S
H909 C918 0.929 . S
C910 H904 0.930 . S
C910 C911 1.368 1_455 S
C910 C918 1.377 . S
C911 C910 1.368 1_655 S
C911 C919 1.433 . S
C912 H908 0.929 . S
C912 C914 1.378 1_655 S
C912 C916 1.350 1_655 S
C913 C916 1.463 1_655 S
C913 C918 1.350 1_655 S
C913 N921 1.427 . S
C914 H905 0.930 1_455 S
C914 C912 1.378 1_455 S
C914 C915 1.367 . S
C915 C914 1.367 . S
C915 C917 1.433 . S
C916 C912 1.350 1_455 S
C916 C913 1.463 1_455 S
C916 N920 1.427 . S
C917 H907 0.929 . S
C917 C915 1.433 . S
C917 N920 1.384 . S
C918 H909 0.929 . S
C918 C910 1.377 . S
C918 C913 1.350 1_455 S
C919 H906 0.929 . S
C919 C911 1.433 . S
C919 N921 1.384 . S
N920 C916 1.427 . S
N920 C917 1.384 . S
N921 C913 1.427 . S
N921 C919 1.384 . S
H922 C928 0.930 . S
H923 C932 0.930 . S
H924 C937 0.929 . S
H925 C935 0.929 1_455 S
H926 C930 0.929 . S
H927 C936 0.929 . S
C928 H922 0.930 . S
C928 C929 1.367 1_545 S
C928 C936 1.378 . S
C929 C928 1.367 1_565 S
C929 C937 1.433 . S
C930 H926 0.929 . S
C930 C932 1.378 1_655 S
C930 C934 1.350 1_565 S
C931 C934 1.463 1_565 S
C931 C936 1.350 1_565 S
C931 N939 1.427 . S
C932 H923 0.930 . S
C932 C930 1.378 1_455 S
C932 C933 1.367 1_565 S
C933 C932 1.367 1_545 S
C933 C935 1.433 1_455 S
C934 C930 1.350 1_545 S
C934 C931 1.463 1_545 S
C934 N938 1.427 . S
C935 H925 0.929 1_655 S
C935 C933 1.433 1_655 S
C935 N938 1.384 . S
C936 H927 0.929 . S
C936 C928 1.378 . S
C936 C931 1.350 1_545 S
C937 H924 0.929 . S
C937 C929 1.433 . S
C937 N939 1.384 . S
N938 C934 1.427 . S
N938 C935 1.384 . S
N939 C931 1.427 . S
N939 C937 1.384 . S
H940 C946 0.930 . S
H941 C950 0.930 . S
H942 C955 0.929 . S
H943 C953 0.929 1_545 S
H944 C948 0.929 . S
H945 C954 0.929 . S
C946 H940 0.930 . S
C946 C947 1.367 . S
C946 C954 1.378 . S
C947 C946 1.367 . S
C947 C955 1.433 . S
C948 H944 0.929 . S
C948 C950 1.378 1_565 S
C948 C952 1.350 . S
C949 C952 1.463 . S
C949 C954 1.350 . S
C949 N957 1.427 . S
C950 H941 0.930 . S
C950 C948 1.378 1_545 S
C950 C951 1.367 . S
C951 C950 1.367 . S
C951 C953 1.433 1_545 S
C952 C948 1.350 . S
C952 C949 1.463 . S
C952 N956 1.427 . S
C953 H943 0.929 1_565 S
C953 C951 1.433 1_565 S
C953 N956 1.384 . S
C954 H945 0.929 . S
C954 C946 1.378 . S
C954 C949 1.350 . S
C955 H942 0.929 . S
C955 C947 1.433 . S
C955 N957 1.384 . S
N956 C952 1.427 . S
N956 C953 1.384 . S
N957 C949 1.427 . S
N957 C955 1.384 . S
H958 C964 0.930 . S
H959 C968 0.930 . S
H960 C973 0.929 . S
H961 C971 0.929 . S
H962 C966 0.929 . S
H963 C972 0.929 . S
C964 H958 0.930 . S
C964 C965 1.367 . S
C964 C972 1.378 . S
C965 C964 1.367 . S
C965 C973 1.433 . S
C966 H962 0.929 . S
C966 C968 1.378 . S
C966 C970 1.350 . S
C967 C970 1.463 . S
C967 C972 1.350 . S
C967 N975 1.427 . S
C968 H959 0.930 . S
C968 C966 1.378 . S
C968 C969 1.367 . S
C969 C968 1.367 . S
C969 C971 1.433 . S
C970 C966 1.350 . S
C970 C967 1.463 . S
C970 N974 1.427 . S
C971 H961 0.929 . S
C971 C969 1.433 . S
C971 N974 1.384 . S
C972 H963 0.929 . S
C972 C964 1.378 . S
C972 C967 1.350 . S
C973 H960 0.929 . S
C973 C965 1.433 . S
C973 N975 1.384 . S
N974 C970 1.427 . S
N974 C971 1.384 . S
N975 C967 1.427 . S
N975 C973 1.384 . S
H976 C982 0.930 . S
H977 C986 0.930 . S
H978 C991 0.929 . S
H979 C989 0.929 . S
H980 C984 0.929 . S
H981 C990 0.929 . S
C982 H976 0.930 . S
C982 C983 1.367 . S
C982 C990 1.378 . S
C983 C982 1.367 . S
C983 C991 1.433 . S
C984 H980 0.929 . S
C984 C986 1.378 . S
C984 C988 1.350 . S
C985 C988 1.463 . S
C985 C990 1.350 . S
C985 N993 1.427 . S
C986 H977 0.930 . S
C986 C984 1.378 . S
C986 C987 1.367 . S
C987 C986 1.367 . S
C987 C989 1.433 . S
C988 C984 1.350 . S
C988 C985 1.463 . S
C988 N992 1.427 . S
C989 H979 0.929 . S
C989 C987 1.433 . S
C989 N992 1.384 . S
C990 H981 0.929 . S
C990 C982 1.378 . S
C990 C985 1.350 . S
C991 H978 0.929 . S
C991 C983 1.433 . S
C991 N993 1.384 . S
N992 C988 1.427 . S
N992 C989 1.384 . S
N993 C985 1.427 . S
N993 C991 1.384 . S
H994 C1000 0.930 . S
H995 C1004 0.930 . S
H996 C1009 0.929 . S
H997 C1007 0.929 1_655 S
H998 C1002 0.929 . S
H999 C1008 0.929 . S
C1000 H994 0.930 . S
C1000 C1001 1.367 . S
C1000 C1008 1.378 . S
C1001 C1000 1.367 . S
C1001 C1009 1.433 . S
C1002 H998 0.929 . S
C1002 C1004 1.378 . S
C1002 C1006 1.350 . S
C1003 C1006 1.463 . S
C1003 C1008 1.350 . S
C1003 N1011 1.427 . S
C1004 H995 0.930 . S
C1004 C1002 1.378 . S
C1004 C1005 1.367 . S
C1005 C1004 1.367 . S
C1005 C1007 1.433 . S
C1006 C1002 1.350 . S
C1006 C1003 1.463 . S
C1006 N1010 1.427 . S
C1007 H997 0.929 1_455 S
C1007 C1005 1.433 . S
C1007 N1010 1.384 . S
C1008 H999 0.929 . S
C1008 C1000 1.378 . S
C1008 C1003 1.350 . S
C1009 H996 0.929 . S
C1009 C1001 1.433 . S
C1009 N1011 1.384 . S
N1010 C1006 1.427 . S
N1010 C1007 1.384 . S
N1011 C1003 1.427 . S
N1011 C1009 1.384 . S
H1012 C1018 0.930 . S
H1013 C1022 0.930 . S
H1014 C1027 0.929 1_565 S
H1015 C1025 0.929 . S
H1016 C1020 0.929 . S
H1017 C1026 0.929 . S
C1018 H1012 0.930 . S
C1018 C1019 1.367 . S
C1018 C1026 1.378 . S
C1019 C1018 1.367 . S
C1019 C1027 1.433 . S
C1020 H1016 0.929 . S
C1020 C1022 1.378 . S
C1020 C1024 1.350 . S
C1021 C1024 1.463 . S
C1021 C1026 1.350 . S
C1021 N1029 1.427 . S
C1022 H1013 0.930 . S
C1022 C1020 1.378 . S
C1022 C1023 1.367 . S
C1023 C1022 1.367 . S
C1023 C1025 1.433 . S
C1024 C1020 1.350 . S
C1024 C1021 1.463 . S
C1024 N1028 1.427 . S
C1025 H1015 0.929 . S
C1025 C1023 1.433 . S
C1025 N1028 1.384 . S
C1026 H1017 0.929 . S
C1026 C1018 1.378 . S
C1026 C1021 1.350 . S
C1027 H1014 0.929 1_545 S
C1027 C1019 1.433 . S
C1027 N1029 1.384 . S
N1028 C1024 1.427 . S
N1028 C1025 1.384 . S
N1029 C1021 1.427 . S
N1029 C1027 1.384 . S
H1030 C1036 0.930 . S
H1031 C1040 0.930 . S
H1032 C1045 0.929 . S
H1033 C1043 0.929 . S
H1034 C1038 0.929 . S
H1035 C1044 0.929 . S
C1036 H1030 0.930 . S
C1036 C1037 1.367 . S
C1036 C1044 1.378 . S
C1037 C1036 1.367 . S
C1037 C1045 1.433 . S
C1038 H1034 0.929 . S
C1038 C1040 1.378 . S
C1038 C1042 1.350 . S
C1039 C1042 1.463 . S
C1039 C1044 1.350 . S
C1039 N1047 1.427 . S
C1040 H1031 0.930 . S
C1040 C1038 1.378 . S
C1040 C1041 1.367 . S
C1041 C1040 1.367 . S
C1041 C1043 1.433 . S
C1042 C1038 1.350 . S
C1042 C1039 1.463 . S
C1042 N1046 1.427 . S
C1043 H1033 0.929 . S
C1043 C1041 1.433 . S
C1043 N1046 1.384 . S
C1044 H1035 0.929 . S
C1044 C1036 1.378 . S
C1044 C1039 1.350 . S
C1045 H1032 0.929 . S
C1045 C1037 1.433 . S
C1045 N1047 1.384 . S
N1046 C1042 1.427 . S
N1046 C1043 1.384 . S
N1047 C1039 1.427 . S
N1047 C1045 1.384 . S
H1048 C1054 0.930 . S
H1049 C1058 0.930 . S
H1050 C1063 0.929 . S
H1051 C1061 0.929 . S
H1052 C1056 0.929 . S
H1053 C1062 0.929 . S
C1054 H1048 0.930 . S
C1054 C1055 1.367 . S
C1054 C1062 1.378 . S
C1055 C1054 1.367 . S
C1055 C1063 1.433 . S
C1056 H1052 0.929 . S
C1056 C1058 1.378 . S
C1056 C1060 1.350 . S
C1057 C1060 1.463 . S
C1057 C1062 1.350 . S
C1057 N1065 1.427 . S
C1058 H1049 0.930 . S
C1058 C1056 1.378 . S
C1058 C1059 1.367 . S
C1059 C1058 1.367 . S
C1059 C1061 1.433 . S
C1060 C1056 1.350 . S
C1060 C1057 1.463 . S
C1060 N1064 1.427 . S
C1061 H1051 0.929 . S
C1061 C1059 1.433 . S
C1061 N1064 1.384 . S
C1062 H1053 0.929 . S
C1062 C1054 1.378 . S
C1062 C1057 1.350 . S
C1063 H1050 0.929 . S
C1063 C1055 1.433 . S
C1063 N1065 1.384 . S
N1064 C1060 1.427 . S
N1064 C1061 1.384 . S
N1065 C1057 1.427 . S
N1065 C1063 1.384 . S
H1066 C1072 0.930 . S
H1067 C1076 0.930 . S
H1068 C1081 0.929 . S
H1069 C1079 0.929 . S
H1070 C1074 0.929 . S
H1071 C1080 0.929 . S
C1072 H1066 0.930 . S
C1072 C1073 1.367 . S
C1072 C1080 1.378 . S
C1073 C1072 1.367 . S
C1073 C1081 1.433 . S
C1074 H1070 0.929 . S
C1074 C1076 1.378 . S
C1074 C1078 1.350 . S
C1075 C1078 1.463 . S
C1075 C1080 1.350 . S
C1075 N1083 1.427 . S
C1076 H1067 0.930 . S
C1076 C1074 1.378 . S
C1076 C1077 1.367 . S
C1077 C1076 1.367 . S
C1077 C1079 1.433 . S
C1078 C1074 1.350 . S
C1078 C1075 1.463 . S
C1078 N1082 1.427 . S
C1079 H1069 0.929 . S
C1079 C1077 1.433 . S
C1079 N1082 1.384 . S
C1080 H1071 0.929 . S
C1080 C1072 1.378 . S
C1080 C1075 1.350 . S
C1081 H1068 0.929 . S
C1081 C1073 1.433 . S
C1081 N1083 1.384 . S
N1082 C1078 1.427 . S
N1082 C1079 1.384 . S
N1083 C1075 1.427 . S
N1083 C1081 1.384 . S
H1084 C1090 0.930 . S
H1085 C1094 0.930 1_545 S
H1086 C1099 0.929 . S
H1087 C1097 0.929 . S
H1088 C1092 0.929 . S
H1089 C1098 0.929 . S
C1090 H1084 0.930 . S
C1090 C1091 1.367 . S
C1090 C1098 1.378 . S
C1091 C1090 1.367 . S
C1091 C1099 1.433 . S
C1092 H1088 0.929 . S
C1092 C1094 1.378 . S
C1092 C1096 1.350 . S
C1093 C1096 1.463 . S
C1093 C1098 1.350 . S
C1093 N1101 1.427 . S
C1094 H1085 0.930 1_565 S
C1094 C1092 1.378 . S
C1094 C1095 1.367 . S
C1095 C1094 1.367 . S
C1095 C1097 1.433 . S
C1096 C1092 1.350 . S
C1096 C1093 1.463 . S
C1096 N1100 1.427 . S
C1097 H1087 0.929 . S
C1097 C1095 1.433 . S
C1097 N1100 1.384 . S
C1098 H1089 0.929 . S
C1098 C1090 1.378 . S
C1098 C1093 1.350 . S
C1099 H1086 0.929 . S
C1099 C1091 1.433 . S
C1099 N1101 1.384 . S
N1100 C1096 1.427 . S
N1100 C1097 1.384 . S
N1101 C1093 1.427 . S
N1101 C1099 1.384 . S
H1102 C1108 0.930 . S
H1103 C1112 0.930 . S
H1104 C1117 0.929 . S
H1105 C1115 0.929 . S
H1106 C1110 0.929 . S
H1107 C1116 0.929 . S
C1108 H1102 0.930 . S
C1108 C1109 1.367 . S
C1108 C1116 1.378 . S
C1109 C1108 1.367 . S
C1109 C1117 1.433 . S
C1110 H1106 0.929 . S
C1110 C1112 1.378 . S
C1110 C1114 1.350 . S
C1111 C1114 1.463 . S
C1111 C1116 1.350 . S
C1111 N1119 1.427 . S
C1112 H1103 0.930 . S
C1112 C1110 1.378 . S
C1112 C1113 1.367 . S
C1113 C1112 1.367 . S
C1113 C1115 1.433 . S
C1114 C1110 1.350 . S
C1114 C1111 1.463 . S
C1114 N1118 1.427 . S
C1115 H1105 0.929 . S
C1115 C1113 1.433 . S
C1115 N1118 1.384 . S
C1116 H1107 0.929 . S
C1116 C1108 1.378 . S
C1116 C1111 1.350 . S
C1117 H1104 0.929 . S
C1117 C1109 1.433 . S
C1117 N1119 1.384 . S
N1118 C1114 1.427 . S
N1118 C1115 1.384 . S
N1119 C1111 1.427 . S
N1119 C1117 1.384 . S
H1120 C1126 0.930 . S
H1121 C1130 0.930 . S
H1122 C1135 0.929 . S
H1123 C1133 0.929 . S
H1124 C1128 0.929 . S
H1125 C1134 0.929 . S
C1126 H1120 0.930 . S
C1126 C1127 1.367 . S
C1126 C1134 1.378 . S
C1127 C1126 1.367 . S
C1127 C1135 1.433 . S
C1128 H1124 0.929 . S
C1128 C1130 1.378 . S
C1128 C1132 1.350 . S
C1129 C1132 1.463 . S
C1129 C1134 1.350 . S
C1129 N1137 1.427 . S
C1130 H1121 0.930 . S
C1130 C1128 1.378 . S
C1130 C1131 1.367 . S
C1131 C1130 1.367 . S
C1131 C1133 1.433 . S
C1132 C1128 1.350 . S
C1132 C1129 1.463 . S
C1132 N1136 1.427 . S
C1133 H1123 0.929 . S
C1133 C1131 1.433 . S
C1133 N1136 1.384 . S
C1134 H1125 0.929 . S
C1134 C1126 1.378 . S
C1134 C1129 1.350 . S
C1135 H1122 0.929 . S
C1135 C1127 1.433 . S
C1135 N1137 1.384 . S
N1136 C1132 1.427 . S
N1136 C1133 1.384 . S
N1137 C1129 1.427 . S
N1137 C1135 1.384 . S
H1138 C1144 0.930 . S
H1139 C1148 0.930 . S
H1140 C1153 0.929 . S
H1141 C1151 0.929 . S
H1142 C1146 0.929 . S
H1143 C1152 0.929 . S
C1144 H1138 0.930 . S
C1144 C1145 1.367 . S
C1144 C1152 1.378 . S
C1145 C1144 1.367 . S
C1145 C1153 1.433 . S
C1146 H1142 0.929 . S
C1146 C1148 1.378 . S
C1146 C1150 1.350 . S
C1147 C1150 1.463 . S
C1147 C1152 1.350 . S
C1147 N1155 1.427 . S
C1148 H1139 0.930 . S
C1148 C1146 1.378 . S
C1148 C1149 1.367 . S
C1149 C1148 1.367 . S
C1149 C1151 1.433 . S
C1150 C1146 1.350 . S
C1150 C1147 1.463 . S
C1150 N1154 1.427 . S
C1151 H1141 0.929 . S
C1151 C1149 1.433 . S
C1151 N1154 1.384 . S
C1152 H1143 0.929 . S
C1152 C1144 1.378 . S
C1152 C1147 1.350 . S
C1153 H1140 0.929 . S
C1153 C1145 1.433 . S
C1153 N1155 1.384 . S
N1154 C1150 1.427 . S
N1154 C1151 1.384 . S
N1155 C1147 1.427 . S
N1155 C1153 1.384 . S
H1156 C1162 0.930 . S
H1157 C1166 0.930 . S
H1158 C1171 0.929 . S
H1159 C1169 0.929 . S
H1160 C1164 0.929 . S
H1161 C1170 0.929 . S
C1162 H1156 0.930 . S
C1162 C1163 1.367 . S
C1162 C1170 1.378 . S
C1163 C1162 1.367 . S
C1163 C1171 1.433 . S
C1164 H1160 0.929 . S
C1164 C1166 1.378 . S
C1164 C1168 1.350 . S
C1165 C1168 1.463 . S
C1165 C1170 1.350 . S
C1165 N1173 1.427 . S
C1166 H1157 0.930 . S
C1166 C1164 1.378 . S
C1166 C1167 1.367 . S
C1167 C1166 1.367 . S
C1167 C1169 1.433 . S
C1168 C1164 1.350 . S
C1168 C1165 1.463 . S
C1168 N1172 1.427 . S
C1169 H1159 0.929 . S
C1169 C1167 1.433 . S
C1169 N1172 1.384 . S
C1170 H1161 0.929 . S
C1170 C1162 1.378 . S
C1170 C1165 1.350 . S
C1171 H1158 0.929 . S
C1171 C1163 1.433 . S
C1171 N1173 1.384 . S
N1172 C1168 1.427 . S
N1172 C1169 1.384 . S
N1173 C1165 1.427 . S
N1173 C1171 1.384 . S
H1174 C1180 0.930 . S
H1175 C1184 0.930 . S
H1176 C1189 0.929 . S
H1177 C1187 0.929 . S
H1178 C1182 0.929 . S
H1179 C1188 0.929 . S
C1180 H1174 0.930 . S
C1180 C1181 1.367 . S
C1180 C1188 1.378 . S
C1181 C1180 1.367 . S
C1181 C1189 1.433 . S
C1182 H1178 0.929 . S
C1182 C1184 1.378 . S
C1182 C1186 1.350 . S
C1183 C1186 1.463 . S
C1183 C1188 1.350 . S
C1183 N1191 1.427 . S
C1184 H1175 0.930 . S
C1184 C1182 1.378 . S
C1184 C1185 1.367 . S
C1185 C1184 1.367 . S
C1185 C1187 1.433 . S
C1186 C1182 1.350 . S
C1186 C1183 1.463 . S
C1186 N1190 1.427 . S
C1187 H1177 0.929 . S
C1187 C1185 1.433 . S
C1187 N1190 1.384 . S
C1188 H1179 0.929 . S
C1188 C1180 1.378 . S
C1188 C1183 1.350 . S
C1189 H1176 0.929 . S
C1189 C1181 1.433 . S
C1189 N1191 1.384 . S
N1190 C1186 1.427 . S
N1190 C1187 1.384 . S
N1191 C1183 1.427 . S
N1191 C1189 1.384 . S
H1192 C1198 0.930 . S
H1193 C1202 0.930 . S
H1194 C1207 0.929 . S
H1195 C1205 0.929 . S
H1196 C1200 0.929 . S
H1197 C1206 0.929 . S
C1198 H1192 0.930 . S
C1198 C1199 1.367 . S
C1198 C1206 1.378 . S
C1199 C1198 1.367 . S
C1199 C1207 1.433 . S
C1200 H1196 0.929 . S
C1200 C1202 1.378 . S
C1200 C1204 1.350 . S
C1201 C1204 1.463 . S
C1201 C1206 1.350 . S
C1201 N1209 1.427 . S
C1202 H1193 0.930 . S
C1202 C1200 1.378 . S
C1202 C1203 1.367 . S
C1203 C1202 1.367 . S
C1203 C1205 1.433 . S
C1204 C1200 1.350 . S
C1204 C1201 1.463 . S
C1204 N1208 1.427 . S
C1205 H1195 0.929 . S
C1205 C1203 1.433 . S
C1205 N1208 1.384 . S
C1206 H1197 0.929 . S
C1206 C1198 1.378 . S
C1206 C1201 1.350 . S
C1207 H1194 0.929 . S
C1207 C1199 1.433 . S
C1207 N1209 1.384 . S
N1208 C1204 1.427 . S
N1208 C1205 1.384 . S
N1209 C1201 1.427 . S
N1209 C1207 1.384 . S
H1210 C1216 0.930 . S
H1211 C1220 0.930 . S
H1212 C1225 0.929 . S
H1213 C1223 0.929 . S
H1214 C1218 0.929 . S
H1215 C1224 0.929 . S
C1216 H1210 0.930 . S
C1216 C1217 1.367 . S
C1216 C1224 1.378 . S
C1217 C1216 1.367 . S
C1217 C1225 1.433 . S
C1218 H1214 0.929 . S
C1218 C1220 1.378 . S
C1218 C1222 1.350 . S
C1219 C1222 1.463 . S
C1219 C1224 1.350 . S
C1219 N1227 1.427 . S
C1220 H1211 0.930 . S
C1220 C1218 1.378 . S
C1220 C1221 1.367 . S
C1221 C1220 1.367 . S
C1221 C1223 1.433 . S
C1222 C1218 1.350 . S
C1222 C1219 1.463 . S
C1222 N1226 1.427 . S
C1223 H1213 0.929 . S
C1223 C1221 1.433 . S
C1223 N1226 1.384 . S
C1224 H1215 0.929 . S
C1224 C1216 1.378 . S
C1224 C1219 1.350 . S
C1225 H1212 0.929 . S
C1225 C1217 1.433 . S
C1225 N1227 1.384 . S
N1226 C1222 1.427 . S
N1226 C1223 1.384 . S
N1227 C1219 1.427 . S
N1227 C1225 1.384 . S
H1228 C1234 0.930 . S
H1229 C1238 0.930 . S
H1230 C1243 0.929 . S
H1231 C1241 0.929 . S
H1232 C1236 0.929 . S
H1233 C1242 0.929 . S
C1234 H1228 0.930 . S
C1234 C1235 1.367 . S
C1234 C1242 1.378 . S
C1235 C1234 1.367 . S
C1235 C1243 1.433 . S
C1236 H1232 0.929 . S
C1236 C1238 1.378 . S
C1236 C1240 1.350 . S
C1237 C1240 1.463 . S
C1237 C1242 1.350 . S
C1237 N1245 1.427 . S
C1238 H1229 0.930 . S
C1238 C1236 1.378 . S
C1238 C1239 1.367 . S
C1239 C1238 1.367 . S
C1239 C1241 1.433 . S
C1240 C1236 1.350 . S
C1240 C1237 1.463 . S
C1240 N1244 1.427 . S
C1241 H1231 0.929 . S
C1241 C1239 1.433 . S
C1241 N1244 1.384 . S
C1242 H1233 0.929 . S
C1242 C1234 1.378 . S
C1242 C1237 1.350 . S
C1243 H1230 0.929 . S
C1243 C1235 1.433 . S
C1243 N1245 1.384 . S
N1244 C1240 1.427 . S
N1244 C1241 1.384 . S
N1245 C1237 1.427 . S
N1245 C1243 1.384 . S
H1246 C1252 0.930 . S
H1247 C1256 0.930 . S
H1248 C1261 0.929 . S
H1249 C1259 0.929 . S
H1250 C1254 0.929 . S
H1251 C1260 0.929 . S
C1252 H1246 0.930 . S
C1252 C1253 1.367 . S
C1252 C1260 1.378 . S
C1253 C1252 1.367 . S
C1253 C1261 1.433 . S
C1254 H1250 0.929 . S
C1254 C1256 1.378 . S
C1254 C1258 1.350 . S
C1255 C1258 1.463 . S
C1255 C1260 1.350 . S
C1255 N1263 1.427 . S
C1256 H1247 0.930 . S
C1256 C1254 1.378 . S
C1256 C1257 1.367 . S
C1257 C1256 1.367 . S
C1257 C1259 1.433 . S
C1258 C1254 1.350 . S
C1258 C1255 1.463 . S
C1258 N1262 1.427 . S
C1259 H1249 0.929 . S
C1259 C1257 1.433 . S
C1259 N1262 1.384 . S
C1260 H1251 0.929 . S
C1260 C1252 1.378 . S
C1260 C1255 1.350 . S
C1261 H1248 0.929 . S
C1261 C1253 1.433 . S
C1261 N1263 1.384 . S
N1262 C1258 1.427 . S
N1262 C1259 1.384 . S
N1263 C1255 1.427 . S
N1263 C1261 1.384 . S
C551 C141 1.603 . S
C555 C5 1.604 . S
C569 C175 1.600 . S
C573 C39 1.597 . S
C587 C73 1.596 . S
C591 C209 1.597 . S
C605 C243 1.602 . S
C609 C107 1.604 . S
C623 C413 1.598 . S
C627 C277 1.596 . S
C641 C311 1.603 . S
C645 C447 1.601 . S
C659 C345 1.597 . S
C663 C481 1.596 . S
C677 C379 1.604 . S
C681 C515 1.603 . S
C695 C2 1.394 . S
C699 C428 1.409 . S
C713 C36 1.384 . S
C717 C462 1.406 . S
C731 C496 1.406 . S
C735 C70 1.387 . S
C749 C104 1.384 . S
C753 C530 1.406 . S
C767 C292 1.410 . S
C771 C138 1.392 . S
C785 C326 1.409 . S
C789 C172 1.394 . S
C803 C206 1.384 . S
C807 C360 1.405 . S
C821 C394 1.406 . S
C825 C240 1.384 . S
C839 C274 1.389 . S
C843 C156 1.409 . S
C857 C308 1.391 . S
C861 C190 1.409 . S
C875 C224 1.406 . S
C879 C342 1.384 . S
C893 C376 1.386 . S
C897 C258 1.407 . S
C911 C410 1.386 . S
C915 C20 1.405 . S
C929 C444 1.389 . S
C933 C54 1.406 . S
C947 C478 1.387 . S
C951 C88 1.405 . S
C965 C122 1.406 . S
C969 C512 1.384 . S
C983 C247 1.633 . S
C987 C9 1.642 . S
C1001 C43 1.638 . S
C1005 C145 1.631 . S
C1019 C179 1.632 . S
C1023 C77 1.639 . S
C1037 C213 1.650 . S
C1041 C111 1.654 . S
C1055 C281 1.643 . S
C1059 C519 1.652 . S
C1073 C417 1.632 . S
C1077 C315 1.633 . S
C1091 C349 1.642 . S
C1095 C451 1.652 . S
C1109 C485 1.633 . S
C1113 C383 1.633 . S
C1127 C101 0.241 . S
C1131 C33 0.213 . S
C1145 C135 0.187 . S
C1149 C67 0.211 . S
C1163 C169 0.228 . S
C1167 C237 0.242 . S
C1181 C271 0.188 . S
C1185 C203 0.216 . S
C1199 C305 0.199 . S
C1203 C373 0.191 . S
C1217 C407 0.191 . S
C1221 C339 0.224 . S
C1235 C441 0.238 . S
C1239 C509 0.204 . S
C1253 C475 0.205 . S
C1257 C543 0.238 . S
