# Generated by pormake.
# Topology hbo, (4)-cn, num edge types: 1
# Building blocks:
#     Node 0, Type 0, BuildingBlock: GALJAG_clean_sbu_0, # of connection points: 4
#     Node 1, Type 0, BuildingBlock: GALJAG_clean_sbu_0, # of connection points: 4
#     Node 2, Type 0, BuildingBlock: GALJAG_clean_sbu_0, # of connection points: 4
#     Node 3, Type 0, BuildingBlock: GALJAG_clean_sbu_0, # of connection points: 4
#     Node 4, Type 0, BuildingBlock: GALJAG_clean_sbu_0, # of connection points: 4
#     Node 5, Type 0, BuildingBlock: GALJAG_clean_sbu_0, # of connection points: 4
#     Node 6, Type 0, BuildingBlock: GALJAG_clean_sbu_0, # of connection points: 4
#     Node 7, Type 0, BuildingBlock: GALJAG_clean_sbu_0, # of connection points: 4
#     Node 8, Type 0, BuildingBlock: GALJAG_clean_sbu_0, # of connection points: 4
#     Node 9, Type 0, BuildingBlock: GALJAG_clean_sbu_0, # of connection points: 4
#     Node 10, Type 0, BuildingBlock: GALJAG_clean_sbu_0, # of connection points: 4
#     Node 11, Type 0, BuildingBlock: GALJAG_clean_sbu_0, # of connection points: 4
#     Node 12, Type 0, BuildingBlock: GALJAG_clean_sbu_0, # of connection points: 4
#     Node 13, Type 0, BuildingBlock: GALJAG_clean_sbu_0, # of connection points: 4
#     Node 14, Type 0, BuildingBlock: GALJAG_clean_sbu_0, # of connection points: 4
#     Node 15, Type 0, BuildingBlock: GALJAG_clean_sbu_0, # of connection points: 4
#     Node 16, Type 0, BuildingBlock: GALJAG_clean_sbu_0, # of connection points: 4
#     Node 17, Type 0, BuildingBlock: GALJAG_clean_sbu_0, # of connection points: 4
#     Node 18, Type 0, BuildingBlock: GALJAG_clean_sbu_0, # of connection points: 4
#     Node 19, Type 0, BuildingBlock: GALJAG_clean_sbu_0, # of connection points: 4
#     Node 20, Type 0, BuildingBlock: GALJAG_clean_sbu_0, # of connection points: 4
#     Node 21, Type 0, BuildingBlock: GALJAG_clean_sbu_0, # of connection points: 4
#     Node 22, Type 0, BuildingBlock: GALJAG_clean_sbu_0, # of connection points: 4
#     Node 23, Type 0, BuildingBlock: GALJAG_clean_sbu_0, # of connection points: 4
#     Edge 24, Type (0, 0), BuildingBlock: MIFKUJ_clean_linker_0, # of connection points: 2
#     Edge 25, Type (0, 0), BuildingBlock: MIFKUJ_clean_linker_0, # of connection points: 2
#     Edge 26, Type (0, 0), BuildingBlock: MIFKUJ_clean_linker_0, # of connection points: 2
#     Edge 27, Type (0, 0), BuildingBlock: MIFKUJ_clean_linker_0, # of connection points: 2
#     Edge 28, Type (0, 0), BuildingBlock: MIFKUJ_clean_linker_0, # of connection points: 2
#     Edge 29, Type (0, 0), BuildingBlock: MIFKUJ_clean_linker_0, # of connection points: 2
#     Edge 30, Type (0, 0), BuildingBlock: MIFKUJ_clean_linker_0, # of connection points: 2
#     Edge 31, Type (0, 0), BuildingBlock: MIFKUJ_clean_linker_0, # of connection points: 2
#     Edge 32, Type (0, 0), BuildingBlock: MIFKUJ_clean_linker_0, # of connection points: 2
#     Edge 33, Type (0, 0), BuildingBlock: MIFKUJ_clean_linker_0, # of connection points: 2
#     Edge 34, Type (0, 0), BuildingBlock: MIFKUJ_clean_linker_0, # of connection points: 2
#     Edge 35, Type (0, 0), BuildingBlock: MIFKUJ_clean_linker_0, # of connection points: 2
#     Edge 36, Type (0, 0), BuildingBlock: MIFKUJ_clean_linker_0, # of connection points: 2
#     Edge 37, Type (0, 0), BuildingBlock: MIFKUJ_clean_linker_0, # of connection points: 2
#     Edge 38, Type (0, 0), BuildingBlock: MIFKUJ_clean_linker_0, # of connection points: 2
#     Edge 39, Type (0, 0), BuildingBlock: MIFKUJ_clean_linker_0, # of connection points: 2
#     Edge 40, Type (0, 0), BuildingBlock: MIFKUJ_clean_linker_0, # of connection points: 2
#     Edge 41, Type (0, 0), BuildingBlock: MIFKUJ_clean_linker_0, # of connection points: 2
#     Edge 42, Type (0, 0), BuildingBlock: MIFKUJ_clean_linker_0, # of connection points: 2
#     Edge 43, Type (0, 0), BuildingBlock: MIFKUJ_clean_linker_0, # of connection points: 2
#     Edge 44, Type (0, 0), BuildingBlock: MIFKUJ_clean_linker_0, # of connection points: 2
#     Edge 45, Type (0, 0), BuildingBlock: MIFKUJ_clean_linker_0, # of connection points: 2
#     Edge 46, Type (0, 0), BuildingBlock: MIFKUJ_clean_linker_0, # of connection points: 2
#     Edge 47, Type (0, 0), BuildingBlock: MIFKUJ_clean_linker_0, # of connection points: 2
#     Edge 48, Type (0, 0), BuildingBlock: MIFKUJ_clean_linker_0, # of connection points: 2
#     Edge 49, Type (0, 0), BuildingBlock: MIFKUJ_clean_linker_0, # of connection points: 2
#     Edge 50, Type (0, 0), BuildingBlock: MIFKUJ_clean_linker_0, # of connection points: 2
#     Edge 51, Type (0, 0), BuildingBlock: MIFKUJ_clean_linker_0, # of connection points: 2
#     Edge 52, Type (0, 0), BuildingBlock: MIFKUJ_clean_linker_0, # of connection points: 2
#     Edge 53, Type (0, 0), BuildingBlock: MIFKUJ_clean_linker_0, # of connection points: 2
#     Edge 54, Type (0, 0), BuildingBlock: MIFKUJ_clean_linker_0, # of connection points: 2
#     Edge 55, Type (0, 0), BuildingBlock: MIFKUJ_clean_linker_0, # of connection points: 2
#     Edge 56, Type (0, 0), BuildingBlock: MIFKUJ_clean_linker_0, # of connection points: 2
#     Edge 57, Type (0, 0), BuildingBlock: MIFKUJ_clean_linker_0, # of connection points: 2
#     Edge 58, Type (0, 0), BuildingBlock: MIFKUJ_clean_linker_0, # of connection points: 2
#     Edge 59, Type (0, 0), BuildingBlock: MIFKUJ_clean_linker_0, # of connection points: 2
#     Edge 60, Type (0, 0), BuildingBlock: MIFKUJ_clean_linker_0, # of connection points: 2
#     Edge 61, Type (0, 0), BuildingBlock: MIFKUJ_clean_linker_0, # of connection points: 2
#     Edge 62, Type (0, 0), BuildingBlock: MIFKUJ_clean_linker_0, # of connection points: 2
#     Edge 63, Type (0, 0), BuildingBlock: MIFKUJ_clean_linker_0, # of connection points: 2
#     Edge 64, Type (0, 0), BuildingBlock: MIFKUJ_clean_linker_0, # of connection points: 2
#     Edge 65, Type (0, 0), BuildingBlock: MIFKUJ_clean_linker_0, # of connection points: 2
#     Edge 66, Type (0, 0), BuildingBlock: MIFKUJ_clean_linker_0, # of connection points: 2
#     Edge 67, Type (0, 0), BuildingBlock: MIFKUJ_clean_linker_0, # of connection points: 2
#     Edge 68, Type (0, 0), BuildingBlock: MIFKUJ_clean_linker_0, # of connection points: 2
#     Edge 69, Type (0, 0), BuildingBlock: MIFKUJ_clean_linker_0, # of connection points: 2
#     Edge 70, Type (0, 0), BuildingBlock: MIFKUJ_clean_linker_0, # of connection points: 2
#     Edge 71, Type (0, 0), BuildingBlock: MIFKUJ_clean_linker_0, # of connection points: 2
# Relax obj value: 0.092
# Max RMSD: 0.160
# Mean RMSD: 0.160
data_MOF--net-hbo--node1-GALJAG_clean_sbu_0--edge1-MIFKUJ_clean_linker_0
_symmetry_space_group_name_H-M    P1
_symmetry_Int_Tables_number       1
_symmetry_cell_setting            triclinic
loop_
_symmetry_equiv_pos_as_xyz
'x, y, z'
_cell_length_a     69.10666
_cell_length_b     69.143251
_cell_length_c     69.141113
_cell_angle_alpha  89.998129
_cell_angle_beta   90.003758
_cell_angle_gamma 89.971664
loop_
_atom_site_label
_atom_site_type_symbol
_atom_site_fract_x
_atom_site_fract_y
_atom_site_fract_z
_atom_type_partial_charge
In0 In 0.13573 0.35656 0.24885 0.0
O1 O 0.1394 0.382 0.26952 0.0
O2 O 0.14159 0.38726 0.23926 0.0
C3 C 0.13517 0.32702 0.27409 0.0
C4 C 0.09895 0.35944 0.23669 0.0
C5 C 0.16784 0.34742 0.22886 0.0
O6 O 0.14073 0.34378 0.27869 0.0
O7 O 0.12944 0.32528 0.25686 0.0
O8 O 0.15127 0.34735 0.22112 0.0
O9 O 0.16805 0.35201 0.24649 0.0
C10 C 0.14201 0.39416 0.25614 0.0
O11 O 0.11222 0.3532 0.22578 0.0
O12 O 0.10425 0.36373 0.25361 0.0
In13 In 0.13987 0.63286 0.75182 0.0
O14 O 0.14448 0.61129 0.72719 0.0
O15 O 0.13413 0.60076 0.7542 0.0
C16 C 0.14827 0.66239 0.72777 0.0
C17 C 0.10235 0.63503 0.76153 0.0
C18 C 0.16716 0.63654 0.7795 0.0
O19 O 0.15773 0.64678 0.72775 0.0
O20 O 0.13463 0.66303 0.73984 0.0
O21 O 0.15286 0.64777 0.77822 0.0
O22 O 0.1675 0.62324 0.76707 0.0
C23 C 0.13884 0.59696 0.73699 0.0
O24 O 0.11551 0.6338 0.77416 0.0
O25 O 0.10824 0.63536 0.74425 0.0
In26 In 0.8602 0.63235 0.24599 0.0
O27 O 0.86892 0.60962 0.26838 0.0
O28 O 0.84188 0.60657 0.25393 0.0
C29 C 0.85208 0.65864 0.27363 0.0
C30 C 0.89567 0.62963 0.22998 0.0
C31 C 0.83751 0.63941 0.21501 0.0
O32 O 0.83953 0.64761 0.26639 0.0
O33 O 0.86897 0.65627 0.26715 0.0
O34 O 0.84662 0.65255 0.22374 0.0
O35 O 0.84028 0.62264 0.22155 0.0
C36 C 0.85371 0.59975 0.26604 0.0
O37 O 0.88828 0.64558 0.23483 0.0
O38 O 0.88511 0.61511 0.23303 0.0
In39 In 0.86506 0.35727 0.75532 0.0
O40 O 0.86912 0.38172 0.73341 0.0
O41 O 0.86229 0.38913 0.76242 0.0
C42 C 0.85816 0.32939 0.72919 0.0
C43 C 0.90198 0.35344 0.76688 0.0
C44 C 0.83507 0.3503 0.77916 0.0
O45 O 0.85221 0.34651 0.7269 0.0
O46 O 0.86739 0.32643 0.74464 0.0
O47 O 0.85209 0.34499 0.7831 0.0
O48 O 0.83326 0.35906 0.76326 0.0
C49 C 0.866 0.39495 0.74557 0.0
O50 O 0.88867 0.35791 0.77856 0.0
O51 O 0.89657 0.35095 0.74966 0.0
In52 In 0.24945 0.13274 0.36063 0.0
O53 O 0.22776 0.10787 0.35988 0.0
O54 O 0.25761 0.1012 0.3635 0.0
C55 C 0.22541 0.16241 0.35333 0.0
C56 C 0.25844 0.13772 0.39808 0.0
C57 C 0.27257 0.13645 0.32953 0.0
O58 O 0.22052 0.14504 0.35049 0.0
O59 O 0.24229 0.16469 0.35988 0.0
O60 O 0.27758 0.14222 0.34612 0.0
O61 O 0.25613 0.1286 0.32881 0.0
C62 C 0.24051 0.09498 0.36216 0.0
O63 O 0.27132 0.13579 0.38526 0.0
O64 O 0.24127 0.1372 0.39192 0.0
In65 In 0.35895 0.75499 0.85798 0.0
O66 O 0.38217 0.73733 0.84256 0.0
O67 O 0.39003 0.75242 0.86821 0.0
C68 C 0.33065 0.72886 0.85175 0.0
C69 C 0.35571 0.7652 0.89529 0.0
C70 C 0.3535 0.78372 0.83207 0.0
O71 O 0.34808 0.72398 0.85399 0.0
O72 O 0.32761 0.74681 0.85244 0.0
O73 O 0.34448 0.78277 0.84785 0.0
O74 O 0.3656 0.77035 0.82944 0.0
C75 C 0.39524 0.74137 0.85465 0.0
O76 O 0.36286 0.77639 0.88275 0.0
O77 O 0.35059 0.74884 0.88902 0.0
In78 In 0.7503 0.85825 0.3648 0.0
O79 O 0.72723 0.85719 0.38834 0.0
O80 O 0.75678 0.856 0.39686 0.0
C81 C 0.72711 0.85346 0.33398 0.0
C82 C 0.76091 0.89554 0.36236 0.0
C83 C 0.77255 0.82678 0.35949 0.0
O84 O 0.72152 0.85018 0.35105 0.0
O85 O 0.74436 0.85923 0.3325 0.0
O86 O 0.77885 0.84367 0.35658 0.0
O87 O 0.75525 0.82592 0.36518 0.0
C88 C 0.73926 0.85582 0.40198 0.0
O89 O 0.7732 0.88212 0.36395 0.0
O90 O 0.74351 0.89009 0.36227 0.0
In91 In 0.63194 0.2619 0.86081 0.0
O92 O 0.63865 0.23812 0.8827 0.0
O93 O 0.62255 0.26261 0.89213 0.0
C94 C 0.64096 0.23969 0.83018 0.0
C95 C 0.59481 0.27229 0.8555 0.0
C96 C 0.66193 0.28674 0.86204 0.0
O97 O 0.63635 0.23263 0.84637 0.0
O98 O 0.64087 0.25792 0.82944 0.0
O99 O 0.64678 0.29019 0.85245 0.0
O100 O 0.66171 0.27102 0.87125 0.0
C101 C 0.63 0.24652 0.89641 0.0
O102 O 0.60713 0.28373 0.86259 0.0
O103 O 0.60141 0.256 0.85065 0.0
In104 In 0.24701 0.86011 0.63114 0.0
O105 O 0.27024 0.85302 0.60879 0.0
O106 O 0.24207 0.86068 0.59887 0.0
C107 C 0.26831 0.85936 0.66371 0.0
C108 C 0.23609 0.89735 0.62969 0.0
C109 C 0.22477 0.82848 0.63566 0.0
O110 O 0.27568 0.85688 0.6472 0.0
O111 O 0.25034 0.86247 0.66369 0.0
O112 O 0.21795 0.84538 0.63665 0.0
O113 O 0.24264 0.82762 0.63212 0.0
C114 C 0.25918 0.85599 0.59456 0.0
O115 O 0.2242 0.88392 0.63317 0.0
O116 O 0.25336 0.89195 0.62727 0.0
In117 In 0.64059 0.74976 0.1362 0.0
O118 O 0.64531 0.76926 0.10997 0.0
O119 O 0.64318 0.73884 0.10559 0.0
C120 C 0.64384 0.7754 0.1652 0.0
C121 C 0.60262 0.74188 0.13709 0.0
C122 C 0.67068 0.72626 0.14351 0.0
O123 O 0.64997 0.77895 0.14836 0.0
O124 O 0.63594 0.7591 0.16725 0.0
O125 O 0.6535 0.72007 0.14299 0.0
O126 O 0.67247 0.74417 0.14066 0.0
C127 C 0.64555 0.75532 0.09815 0.0
O128 O 0.61506 0.73028 0.14382 0.0
O129 O 0.60942 0.75727 0.13003 0.0
In130 In 0.74538 0.13824 0.63718 0.0
O131 O 0.72405 0.14189 0.61219 0.0
O132 O 0.75418 0.14046 0.60585 0.0
C133 C 0.72215 0.1435 0.66801 0.0
C134 C 0.75381 0.10035 0.63729 0.0
C135 C 0.77016 0.16763 0.64287 0.0
O136 O 0.71706 0.14816 0.65111 0.0
O137 O 0.73867 0.13587 0.66918 0.0
O138 O 0.77481 0.15023 0.64584 0.0
O139 O 0.75306 0.17014 0.63698 0.0
C140 C 0.73716 0.14214 0.59946 0.0
O141 O 0.76635 0.11309 0.64098 0.0
O142 O 0.73707 0.10675 0.63381 0.0
In143 In 0.36514 0.24936 0.13617 0.0
O144 O 0.38785 0.27278 0.12971 0.0
O145 O 0.39746 0.24474 0.13765 0.0
C146 C 0.34145 0.27884 0.14532 0.0
C147 C 0.35902 0.23273 0.10151 0.0
C148 C 0.35559 0.22369 0.16395 0.0
O149 O 0.35301 0.27146 0.15738 0.0
O150 O 0.34242 0.27182 0.12851 0.0
O151 O 0.34748 0.22391 0.14763 0.0
O152 O 0.36859 0.23625 0.16616 0.0
C153 C 0.40199 0.26167 0.13276 0.0
O154 O 0.34825 0.24583 0.10823 0.0
O155 O 0.37282 0.22781 0.11238 0.0
In156 In 0.86554 0.63826 0.73705 0.0
O157 O 0.88689 0.64183 0.76207 0.0
O158 O 0.89783 0.64087 0.7333 0.0
C159 C 0.83295 0.64811 0.75587 0.0
C160 C 0.86559 0.59966 0.73205 0.0
C161 C 0.86179 0.66475 0.70896 0.0
O162 O 0.84953 0.65109 0.76296 0.0
O163 O 0.83291 0.63989 0.7396 0.0
O164 O 0.85643 0.64742 0.70678 0.0
O165 O 0.8695 0.66847 0.72508 0.0
C166 C 0.90151 0.64219 0.75112 0.0
O167 O 0.86984 0.61118 0.71856 0.0
O168 O 0.86103 0.60765 0.74778 0.0
In169 In 0.86443 0.36246 0.25393 0.0
O170 O 0.86666 0.38609 0.2769 0.0
O171 O 0.85111 0.39225 0.25105 0.0
C172 C 0.86277 0.33121 0.27727 0.0
C173 C 0.90009 0.36894 0.23974 0.0
C174 C 0.83619 0.35263 0.2291 0.0
O175 O 0.85397 0.34672 0.28102 0.0
O176 O 0.87277 0.33166 0.26206 0.0
O177 O 0.85381 0.34915 0.22574 0.0
O178 O 0.83288 0.36115 0.2449 0.0
C179 C 0.85694 0.39818 0.26727 0.0
O180 O 0.8857 0.36618 0.22888 0.0
O181 O 0.89645 0.36843 0.25759 0.0
In182 In 0.14072 0.36514 0.75419 0.0
O183 O 0.11716 0.36552 0.77745 0.0
O184 O 0.11122 0.35131 0.75087 0.0
C185 C 0.17032 0.36927 0.77912 0.0
C186 C 0.13648 0.39982 0.73695 0.0
C187 C 0.15147 0.33393 0.73354 0.0
O188 O 0.15512 0.36006 0.78332 0.0
O189 O 0.17036 0.3768 0.76249 0.0
O190 O 0.1409 0.34705 0.7265 0.0
O191 O 0.15651 0.33658 0.75085 0.0
C192 C 0.10511 0.3563 0.7673 0.0
O193 O 0.1466 0.38653 0.7296 0.0
O194 O 0.1287 0.39558 0.75286 0.0
In195 In 0.13421 0.63459 0.24962 0.0
O196 O 0.13896 0.61011 0.27118 0.0
O197 O 0.14576 0.60515 0.24152 0.0
C198 C 0.12961 0.66268 0.27622 0.0
C199 C 0.09836 0.62946 0.23518 0.0
C200 C 0.1652 0.64616 0.22908 0.0
O201 O 0.13585 0.64607 0.28052 0.0
O202 O 0.12533 0.66491 0.25864 0.0
O203 O 0.14981 0.64042 0.22109 0.0
O204 O 0.16485 0.64609 0.24731 0.0
C205 C 0.145 0.59843 0.25848 0.0
O206 O 0.10956 0.64243 0.22893 0.0
O207 O 0.10519 0.61929 0.24864 0.0
In208 In 0.73801 0.86092 0.64037 0.0
O209 O 0.76098 0.88456 0.6424 0.0
O210 O 0.73274 0.89227 0.63281 0.0
C211 C 0.75933 0.82937 0.64819 0.0
C212 C 0.729 0.85369 0.60338 0.0
C213 C 0.71502 0.86238 0.67171 0.0
O214 O 0.76635 0.84622 0.64865 0.0
O215 O 0.74157 0.82853 0.64405 0.0
O216 O 0.70887 0.85687 0.65542 0.0
O217 O 0.7326 0.86719 0.67203 0.0
C218 C 0.74973 0.89773 0.63659 0.0
O219 O 0.71611 0.85639 0.61605 0.0
O220 O 0.74618 0.85471 0.60945 0.0
In221 In 0.63959 0.25044 0.13323 0.0
O222 O 0.64304 0.22796 0.10926 0.0
O223 O 0.63467 0.25655 0.10147 0.0
C224 C 0.6434 0.22624 0.16346 0.0
C225 C 0.6027 0.26234 0.13554 0.0
C226 C 0.67151 0.27246 0.13742 0.0
O227 O 0.646 0.22083 0.14623 0.0
O228 O 0.63877 0.24378 0.16539 0.0
O229 O 0.65513 0.27763 0.14358 0.0
O230 O 0.67168 0.25641 0.12882 0.0
C231 C 0.63823 0.23953 0.09598 0.0
O232 O 0.61656 0.27411 0.13379 0.0
O233 O 0.60758 0.24478 0.13654 0.0
In234 In 0.25425 0.1338 0.63868 0.0
O235 O 0.2764 0.13636 0.61425 0.0
O236 O 0.24751 0.14548 0.6089 0.0
C237 C 0.27814 0.13055 0.66916 0.0
C238 C 0.24031 0.09787 0.63374 0.0
C239 C 0.23395 0.16485 0.65027 0.0
O240 O 0.28327 0.13847 0.65352 0.0
O241 O 0.26122 0.12371 0.66912 0.0
O242 O 0.22577 0.14989 0.64369 0.0
O243 O 0.25216 0.16408 0.65081 0.0
C244 C 0.26436 0.14315 0.60231 0.0
O245 O 0.23051 0.11098 0.64185 0.0
O246 O 0.257 0.10293 0.62839 0.0
In247 In 0.36164 0.75526 0.13355 0.0
O248 O 0.38528 0.73299 0.14013 0.0
O249 O 0.39276 0.7581 0.12405 0.0
C250 C 0.33022 0.73414 0.14239 0.0
C251 C 0.35413 0.7661 0.09705 0.0
C252 C 0.36215 0.77977 0.16372 0.0
O253 O 0.34591 0.72635 0.13712 0.0
O254 O 0.33051 0.75235 0.14302 0.0
O255 O 0.35576 0.78452 0.14729 0.0
O256 O 0.36879 0.76281 0.16475 0.0
C257 C 0.39834 0.74248 0.1316 0.0
O258 O 0.3599 0.77789 0.10973 0.0
O259 O 0.35219 0.74889 0.10282 0.0
In260 In 0.74742 0.13418 0.35788 0.0
O261 O 0.77063 0.11074 0.35762 0.0
O262 O 0.74105 0.10212 0.35711 0.0
C263 C 0.77189 0.16301 0.34842 0.0
C264 C 0.73877 0.13679 0.39569 0.0
C265 C 0.72075 0.13931 0.32996 0.0
O266 O 0.77392 0.14602 0.3421 0.0
O267 O 0.75761 0.16538 0.35949 0.0
O268 O 0.71976 0.14785 0.34606 0.0
O269 O 0.73505 0.12816 0.32808 0.0
C270 C 0.75859 0.09703 0.35706 0.0
O271 O 0.72582 0.13571 0.38286 0.0
O272 O 0.75588 0.13642 0.38939 0.0
In273 In 0.35397 0.24816 0.86489 0.0
O274 O 0.36189 0.22589 0.88793 0.0
O275 O 0.34267 0.24854 0.89576 0.0
C276 C 0.34465 0.22301 0.83655 0.0
C277 C 0.39134 0.25896 0.86496 0.0
C278 C 0.32921 0.27732 0.85744 0.0
O279 O 0.33896 0.22092 0.85374 0.0
O280 O 0.35483 0.23784 0.83365 0.0
O281 O 0.34684 0.27804 0.85275 0.0
O282 O 0.32414 0.26193 0.86579 0.0
C283 C 0.35171 0.23358 0.90095 0.0
O284 O 0.37837 0.26895 0.87306 0.0
O285 O 0.38537 0.24375 0.85687 0.0
In286 In 0.24099 0.8522 0.36014 0.0
O287 O 0.22079 0.87837 0.36037 0.0
O288 O 0.25117 0.88326 0.35924 0.0
C289 C 0.21278 0.82532 0.35701 0.0
C290 C 0.25484 0.85059 0.3963 0.0
C291 C 0.26434 0.84479 0.32984 0.0
O292 O 0.21277 0.84069 0.34721 0.0
O293 O 0.2269 0.82359 0.36836 0.0
O294 O 0.26764 0.83828 0.34655 0.0
O295 O 0.24918 0.8548 0.32839 0.0
C296 C 0.23443 0.8905 0.35988 0.0
O297 O 0.2645 0.84467 0.38198 0.0
O298 O 0.23818 0.85696 0.39234 0.0
In299 In 0.63212 0.74427 0.85614 0.0
O300 O 0.63737 0.76406 0.88177 0.0
O301 O 0.6358 0.73368 0.88693 0.0
C302 C 0.63709 0.77671 0.83509 0.0
C303 C 0.59552 0.73093 0.85543 0.0
C304 C 0.65947 0.72018 0.8421 0.0
O305 O 0.64945 0.77063 0.84701 0.0
O306 O 0.62198 0.76657 0.83393 0.0
O307 O 0.64593 0.72674 0.8318 0.0
O308 O 0.65892 0.72536 0.85954 0.0
C309 C 0.6382 0.75042 0.89389 0.0
O310 O 0.60891 0.72298 0.84593 0.0
O311 O 0.60062 0.74544 0.86518 0.0
H312 H 0.15623 0.57093 0.23287 0.0
H313 H 0.15765 0.53611 0.23822 0.0
H314 H 0.14399 0.54448 0.29849 0.0
H315 H 0.14237 0.57959 0.29324 0.0
H316 H 0.17394 0.51334 0.28784 0.0
H317 H 0.1086 0.5342 0.27651 0.0
H318 H 0.0834 0.55307 0.25972 0.0
H319 H 0.0965 0.5238 0.20654 0.0
H320 H 0.12206 0.50502 0.22294 0.0
H321 H 0.14307 0.41288 0.29102 0.0
H322 H 0.14527 0.4479 0.29644 0.0
H323 H 0.14871 0.45718 0.23483 0.0
H324 H 0.14645 0.42244 0.22932 0.0
H325 H 0.12138 0.47986 0.25212 0.0
H326 H 0.18822 0.46128 0.26244 0.0
H327 H 0.21456 0.44321 0.27835 0.0
H328 H 0.19894 0.46806 0.33309 0.0
H329 H 0.17232 0.48609 0.31752 0.0
C330 C 0.15388 0.56544 0.24736 0.0
C331 C 0.14894 0.57791 0.2626 0.0
C332 C 0.15475 0.54557 0.25038 0.0
C333 C 0.15075 0.53786 0.26869 0.0
C334 C 0.14713 0.55028 0.28429 0.0
C335 C 0.14614 0.57026 0.28124 0.0
C336 C 0.1482 0.51681 0.27064 0.0
C337 C 0.16225 0.50594 0.28043 0.0
C338 C 0.13301 0.50735 0.26078 0.0
C339 C 0.11736 0.51832 0.25093 0.0
C340 C 0.10622 0.5319 0.2612 0.0
C341 C 0.09186 0.54257 0.25176 0.0
C342 C 0.08838 0.53967 0.23207 0.0
C343 C 0.09922 0.52604 0.22179 0.0
C344 C 0.11364 0.51537 0.23116 0.0
C345 C 0.14444 0.42242 0.27867 0.0
C346 C 0.14452 0.41499 0.25975 0.0
C347 C 0.14574 0.44236 0.28179 0.0
C348 C 0.14714 0.45505 0.26602 0.0
C349 C 0.14755 0.44759 0.24717 0.0
C350 C 0.14631 0.42775 0.24405 0.0
C351 C 0.14746 0.47622 0.26883 0.0
C352 C 0.13289 0.48716 0.25992 0.0
C353 C 0.16215 0.48565 0.27952 0.0
C354 C 0.17813 0.47483 0.28887 0.0
C355 C 0.19029 0.46275 0.2779 0.0
C356 C 0.20529 0.45255 0.28685 0.0
C357 C 0.20838 0.45443 0.30673 0.0
C358 C 0.1965 0.46658 0.3177 0.0
C359 C 0.18146 0.4768 0.30882 0.0
H360 H 0.22 0.44653 0.31363 0.0
H361 H 0.07726 0.54795 0.22478 0.0
H362 H 0.93412 0.64546 0.72973 0.0
H363 H 0.96743 0.64274 0.74077 0.0
H364 H 0.94787 0.63739 0.79976 0.0
H365 H 0.9141 0.64017 0.78874 0.0
H366 H 0.98287 0.66221 0.79275 0.0
H367 H 0.95967 0.59822 0.78281 0.0
H368 H 0.94162 0.57259 0.76582 0.0
H369 H 0.97843 0.57908 0.71623 0.0
H370 H 0.9965 0.60499 0.73278 0.0
H371 H 0.08535 0.63473 0.79743 0.0
H372 H 0.05047 0.63415 0.80458 0.0
H373 H 0.03806 0.63548 0.74343 0.0
H374 H 0.0725 0.63602 0.73624 0.0
H375 H 0.01786 0.60697 0.76308 0.0
H376 H 0.03476 0.67578 0.7704 0.0
H377 H 0.05216 0.70255 0.78634 0.0
H378 H 0.02714 0.68671 0.84094 0.0
H379 H 0.00977 0.6597 0.82533 0.0
C380 C 0.93684 0.64392 0.74508 0.0
C381 C 0.92153 0.64281 0.75836 0.0
C382 C 0.95587 0.64238 0.75136 0.0
C383 C 0.95999 0.63959 0.77101 0.0
C384 C 0.94487 0.63947 0.78453 0.0
C385 C 0.92567 0.64102 0.77821 0.0
C386 C 0.98016 0.63564 0.77673 0.0
C387 C 0.99051 0.64986 0.78681 0.0
C388 C 0.98998 0.61947 0.76898 0.0
C389 C 0.97943 0.60359 0.75906 0.0
C390 C 0.96386 0.59425 0.76825 0.0
C391 C 0.95363 0.57967 0.7587 0.0
C392 C 0.95887 0.57421 0.73996 0.0
C393 C 0.9744 0.5833 0.73076 0.0
C394 C 0.98467 0.59792 0.74024 0.0
C395 C 0.07512 0.63495 0.78557 0.0
C396 C 0.08159 0.63539 0.76628 0.0
C397 C 0.05527 0.63462 0.78967 0.0
C398 C 0.04178 0.63468 0.77451 0.0
C399 C 0.04828 0.63527 0.75532 0.0
C400 C 0.06797 0.63566 0.75124 0.0
C401 C 0.02073 0.6341 0.7781 0.0
C402 C 0.01019 0.61893 0.76975 0.0
C403 C 0.01081 0.64934 0.78748 0.0
C404 C 0.02119 0.6656 0.79677 0.0
C405 C 0.03311 0.67792 0.78583 0.0
C406 C 0.04293 0.69315 0.7948 0.0
C407 C 0.04081 0.69629 0.81465 0.0
C408 C 0.02881 0.68424 0.82557 0.0
C409 C 0.01897 0.66897 0.81668 0.0
H410 H 0.04843 0.70809 0.82157 0.0
H411 H 0.95091 0.56293 0.73258 0.0
H412 H 0.82828 0.42225 0.25568 0.0
H413 H 0.82508 0.45667 0.26285 0.0
H414 H 0.87521 0.45375 0.29997 0.0
H415 H 0.87796 0.41896 0.29345 0.0
H416 H 0.84936 0.48002 0.31357 0.0
H417 H 0.88071 0.46655 0.25355 0.0
H418 H 0.88483 0.45137 0.22155 0.0
H419 H 0.83303 0.47913 0.20137 0.0
H420 H 0.82844 0.49425 0.23337 0.0
H421 H 0.87897 0.57923 0.28868 0.0
H422 H 0.87667 0.54474 0.29675 0.0
H423 H 0.82014 0.54235 0.27046 0.0
H424 H 0.8222 0.57664 0.26252 0.0
H425 H 0.85064 0.51896 0.25328 0.0
H426 H 0.82126 0.53389 0.31487 0.0
H427 H 0.81981 0.54945 0.34692 0.0
H428 H 0.87183 0.52003 0.36393 0.0
H429 H 0.87376 0.5045 0.33186 0.0
C430 C 0.83839 0.42888 0.26565 0.0
C431 C 0.85355 0.41812 0.27378 0.0
C432 C 0.83656 0.44851 0.26975 0.0
C433 C 0.85021 0.45782 0.28155 0.0
C434 C 0.86459 0.44683 0.29075 0.0
C435 C 0.8662 0.42703 0.28696 0.0
C436 C 0.85062 0.47919 0.28242 0.0
C437 C 0.84982 0.48858 0.30043 0.0
C438 C 0.85134 0.49031 0.26525 0.0
C439 C 0.85414 0.48139 0.24591 0.0
C440 C 0.87013 0.46931 0.24233 0.0
C441 C 0.87256 0.46073 0.22419 0.0
C442 C 0.85918 0.46425 0.20945 0.0
C443 C 0.84337 0.4764 0.21281 0.0
C444 C 0.84085 0.48499 0.23094 0.0
C445 C 0.86582 0.57147 0.28516 0.0
C446 C 0.85089 0.58049 0.2747 0.0
C447 C 0.86451 0.55183 0.28985 0.0
C448 C 0.84827 0.54111 0.2841 0.0
C449 C 0.83276 0.55046 0.275 0.0
C450 C 0.83401 0.57003 0.27043 0.0
C451 C 0.84878 0.5198 0.28435 0.0
C452 C 0.85006 0.51043 0.26645 0.0
C453 C 0.84893 0.50886 0.30161 0.0
C454 C 0.84778 0.5182 0.32088 0.0
C455 C 0.83251 0.53089 0.32537 0.0
C456 C 0.83157 0.53967 0.34356 0.0
C457 C 0.84575 0.53578 0.35743 0.0
C458 C 0.86087 0.52306 0.35316 0.0
C459 C 0.86189 0.51425 0.33498 0.0
H460 H 0.845 0.54259 0.37151 0.0
H461 H 0.86108 0.45759 0.19541 0.0
H462 H 0.08726 0.36823 0.80065 0.0
H463 H 0.05236 0.36744 0.80751 0.0
H464 H 0.04253 0.33745 0.75372 0.0
H465 H 0.07711 0.33803 0.74685 0.0
H466 H 0.02226 0.37371 0.75887 0.0
H467 H 0.03698 0.31341 0.79263 0.0
H468 H 0.05324 0.29417 0.81789 0.0
H469 H 0.02741 0.32958 0.86191 0.0
H470 H 0.0112 0.34921 0.83687 0.0
H471 H 0.93118 0.33883 0.74533 0.0
H472 H 0.96565 0.33956 0.75251 0.0
H473 H 0.95391 0.36577 0.8079 0.0
H474 H 0.919 0.36485 0.80087 0.0
H475 H 0.98482 0.33734 0.80816 0.0
H476 H 0.96684 0.39504 0.77549 0.0
H477 H 0.95013 0.41464 0.75083 0.0
H478 H 0.98234 0.38623 0.70597 0.0
H479 H -0.00099 0.36619 0.73034 0.0
C480 C 0.07766 0.36113 0.79051 0.0
C481 C 0.08483 0.35336 0.77312 0.0
C482 C 0.0578 0.36068 0.79446 0.0
C483 C 0.04499 0.3525 0.78104 0.0
C484 C 0.05226 0.34389 0.76419 0.0
C485 C 0.07201 0.34422 0.7603 0.0
C486 C 0.02387 0.35444 0.78328 0.0
C487 C 0.01405 0.36577 0.76964 0.0
C488 C 0.01336 0.34475 0.79789 0.0
C489 C 0.0231 0.33294 0.81288 0.0
C490 C 0.03494 0.31723 0.80769 0.0
C491 C 0.0441 0.30621 0.82197 0.0
C492 C 0.04142 0.31069 0.84149 0.0
C493 C 0.02951 0.32615 0.84678 0.0
C494 C 0.02033 0.33722 0.83255 0.0
C495 C 0.93586 0.34455 0.75915 0.0
C496 C 0.92248 0.35203 0.77244 0.0
C497 C 0.95555 0.34493 0.76323 0.0
C498 C 0.96225 0.353 0.78058 0.0
C499 C 0.94893 0.35954 0.79442 0.0
C500 C 0.92908 0.35906 0.79036 0.0
C501 C 0.98325 0.35586 0.78315 0.0
C502 C 0.99304 0.34562 0.79768 0.0
C503 C 0.99387 0.36679 0.76951 0.0
C504 C 0.98412 0.37904 0.75476 0.0
C505 C 0.97029 0.39289 0.76036 0.0
C506 C 0.96082 0.40409 0.74643 0.0
C507 C 0.96516 0.40168 0.72685 0.0
C508 C 0.979 0.38808 0.72115 0.0
C509 C 0.98848 0.37682 0.73502 0.0
H510 H 0.95781 0.41036 0.71609 0.0
H511 H 0.04852 0.30215 0.85253 0.0
H512 H 0.15417 0.41388 0.70436 0.0
H513 H 0.15305 0.44724 0.69221 0.0
H514 H 0.11358 0.46253 0.73812 0.0
H515 H 0.11439 0.42943 0.75003 0.0
H516 H 0.10394 0.48064 0.7051 0.0
H517 H 0.16307 0.46819 0.74274 0.0
H518 H 0.19408 0.45144 0.74857 0.0
H519 H 0.21479 0.46979 0.69296 0.0
H520 H 0.18379 0.48646 0.68673 0.0
H521 H 0.11965 0.56663 0.75259 0.0
H522 H 0.11781 0.53366 0.74035 0.0
H523 H 0.15306 0.54951 0.69136 0.0
H524 H 0.1548 0.58292 0.70352 0.0
H525 H 0.16587 0.51629 0.71189 0.0
H526 H 0.10886 0.53831 0.68128 0.0
H527 H 0.07798 0.55592 0.67826 0.0
H528 H 0.05295 0.52033 0.72256 0.0
H529 H 0.08375 0.50269 0.72607 0.0
C530 C 0.14504 0.42434 0.71163 0.0
C531 C 0.13455 0.41918 0.72827 0.0
C532 C 0.14441 0.44334 0.70469 0.0
C533 C 0.13336 0.45737 0.71437 0.0
C534 C 0.12215 0.45192 0.73038 0.0
C535 C 0.12274 0.43302 0.73727 0.0
C536 C 0.1347 0.47814 0.70941 0.0
C537 C 0.11748 0.48847 0.70637 0.0
C538 C 0.15247 0.48826 0.71039 0.0
C539 C 0.17108 0.47832 0.71417 0.0
C540 C 0.17421 0.46853 0.73172 0.0
C541 C 0.19177 0.45907 0.7351 0.0
C542 C 0.20637 0.45949 0.72111 0.0
C543 C 0.20345 0.46943 0.70375 0.0
C544 C 0.18589 0.47887 0.70028 0.0
C545 C 0.12691 0.56318 0.73914 0.0
C546 C 0.13743 0.57727 0.72903 0.0
C547 C 0.1257 0.54438 0.73208 0.0
C548 C 0.13508 0.53927 0.71483 0.0
C549 C 0.14559 0.55329 0.7046 0.0
C550 C 0.14658 0.57228 0.71156 0.0
C551 C 0.13497 0.5188 0.70874 0.0
C552 C 0.15241 0.50851 0.70971 0.0
C553 C 0.11737 0.50874 0.70608 0.0
C554 C 0.09867 0.51917 0.70393 0.0
C555 C 0.09681 0.53429 0.69045 0.0
C556 C 0.07931 0.54428 0.68865 0.0
C557 C 0.06351 0.53925 0.70021 0.0
C558 C 0.06518 0.52419 0.71358 0.0
C559 C 0.08266 0.51416 0.71546 0.0
H560 H 0.04998 0.547 0.6988 0.0
H561 H 0.21996 0.45217 0.72376 0.0
H562 H 0.91651 0.5966 0.22485 0.0
H563 H 0.95126 0.59409 0.21864 0.0
H564 H 0.95497 0.65612 0.21342 0.0
H565 H 0.9202 0.65881 0.2198 0.0
H566 H 0.97993 0.63343 0.18673 0.0
H567 H 0.96301 0.6406 0.25478 0.0
H568 H 0.94501 0.63146 0.28418 0.0
H569 H 0.96896 0.57421 0.28138 0.0
H570 H 0.98687 0.58295 0.25175 0.0
H571 H 0.07594 0.65578 0.21621 0.0
H572 H 0.04148 0.6529 0.20871 0.0
H573 H 0.04169 0.5943 0.23036 0.0
H574 H 0.07589 0.59749 0.23867 0.0
H575 H 0.01421 0.61273 0.24631 0.0
H576 H 0.03475 0.60608 0.18091 0.0
H577 H 0.05241 0.61427 0.15104 0.0
H578 H 0.02224 0.66847 0.14768 0.0
H579 H 0.00458 0.66073 0.1777 0.0
C580 C 0.92463 0.60968 0.22195 0.0
C581 C 0.91576 0.62793 0.22307 0.0
C582 C 0.94444 0.6082 0.21836 0.0
C583 C 0.95559 0.62493 0.21571 0.0
C584 C 0.94652 0.64307 0.21537 0.0
C585 C 0.92673 0.64458 0.21914 0.0
C586 C 0.97689 0.62373 0.21614 0.0
C587 C 0.98755 0.62899 0.19972 0.0
C588 C 0.98663 0.61753 0.23299 0.0
C589 C 0.97609 0.61235 0.25094 0.0
C590 C 0.96431 0.62602 0.26035 0.0
C591 C 0.95414 0.62092 0.27706 0.0
C592 C 0.95579 0.60224 0.28461 0.0
C593 C 0.96766 0.58865 0.2755 0.0
C594 C 0.97783 0.59367 0.25875 0.0
C595 C 0.06866 0.6422 0.21905 0.0
C596 C 0.07844 0.62693 0.22817 0.0
C597 C 0.049 0.6405 0.21464 0.0
C598 C 0.03898 0.62333 0.21886 0.0
C599 C 0.04908 0.60772 0.22705 0.0
C600 C 0.0686 0.60955 0.23179 0.0
C601 C 0.01764 0.62236 0.21681 0.0
C602 C 0.00683 0.61684 0.23309 0.0
C603 C 0.00787 0.62816 0.19974 0.0
C604 C 0.01844 0.63288 0.18166 0.0
C605 C 0.03198 0.61982 0.17389 0.0
C606 C 0.04197 0.62437 0.15691 0.0
C607 C 0.03848 0.6419 0.14749 0.0
C608 C 0.02494 0.6549 0.155 0.0
C609 C 0.01491 0.65043 0.17199 0.0
H610 H 0.04623 0.64539 0.13435 0.0
H611 H 0.94791 0.59832 0.29756 0.0
H612 H 0.87804 0.57874 0.70079 0.0
H613 H 0.88138 0.54345 0.69861 0.0
H614 H 0.85897 0.53782 0.75659 0.0
H615 H 0.85584 0.57285 0.75895 0.0
H616 H 0.89171 0.51676 0.75126 0.0
H617 H 0.83103 0.52849 0.71674 0.0
H618 H 0.81153 0.54301 0.6906 0.0
H619 H 0.84763 0.51564 0.64809 0.0
H620 H 0.86748 0.50115 0.674 0.0
H621 H 0.85662 0.42511 0.76879 0.0
H622 H 0.85981 0.45948 0.7618 0.0
H623 H 0.88144 0.44619 0.70478 0.0
H624 H 0.87793 0.41149 0.7116 0.0
H625 H 0.85559 0.47626 0.70428 0.0
H626 H 0.91293 0.46022 0.73838 0.0
H627 H 0.9326 0.44532 0.76413 0.0
H628 H 0.9043 0.48066 0.80664 0.0
H629 H 0.88425 0.49559 0.7812 0.0
C630 C 0.87373 0.56992 0.713 0.0
C631 C 0.86668 0.57849 0.73004 0.0
C632 C 0.87564 0.54981 0.71173 0.0
C633 C 0.87041 0.53808 0.72744 0.0
C634 C 0.86319 0.54665 0.74435 0.0
C635 C 0.86133 0.56665 0.74564 0.0
C636 C 0.87254 0.51682 0.7267 0.0
C637 C 0.88379 0.50788 0.74102 0.0
C638 C 0.86289 0.50533 0.71279 0.0
C639 C 0.85086 0.51394 0.69728 0.0
C640 C 0.83489 0.52569 0.70181 0.0
C641 C 0.82376 0.53389 0.68705 0.0
C642 C 0.82837 0.5303 0.6677 0.0
C643 C 0.84409 0.51844 0.66308 0.0
C644 C 0.85528 0.51023 0.67779 0.0
C645 C 0.86201 0.42946 0.75474 0.0
C646 C 0.86716 0.41566 0.74078 0.0
C647 C 0.8639 0.4491 0.75079 0.0
C648 C 0.87122 0.45533 0.73292 0.0
C649 C 0.87588 0.44162 0.7187 0.0
C650 C 0.87389 0.42187 0.72262 0.0
C651 C 0.87399 0.47624 0.72945 0.0
C652 C 0.86383 0.48511 0.71428 0.0
C653 C 0.88478 0.48772 0.74249 0.0
C654 C 0.89702 0.47898 0.75786 0.0
C655 C 0.91082 0.46475 0.75323 0.0
C656 C 0.92205 0.4563 0.76777 0.0
C657 C 0.91969 0.46202 0.78701 0.0
C658 C 0.90612 0.47625 0.79173 0.0
C659 C 0.89484 0.48474 0.77725 0.0
H660 H 0.92838 0.45544 0.79825 0.0
H661 H 0.81974 0.53666 0.65629 0.0
H662 H 0.91376 0.36139 0.20337 0.0
H663 H 0.94758 0.36312 0.19249 0.0
H664 H 0.96445 0.38459 0.24861 0.0
H665 H 0.93095 0.38273 0.25955 0.0
H666 H 0.98312 0.40347 0.21755 0.0
H667 H 0.96713 0.33783 0.24007 0.0
H668 H 0.94858 0.30741 0.23817 0.0
H669 H 0.9667 0.29971 0.17925 0.0
H670 H 0.98516 0.33026 0.18076 0.0
H671 H 0.06988 0.3762 0.25688 0.0
H672 H 0.03652 0.38103 0.24681 0.0
H673 H 0.04881 0.35395 0.19195 0.0
H674 H 0.0826 0.34898 0.20204 0.0
H675 H 0.0156 0.33995 0.20928 0.0
H676 H 0.04005 0.40096 0.19148 0.0
H677 H 0.05916 0.4309 0.19447 0.0
H678 H 0.0257 0.4477 0.24402 0.0
H679 H 0.00658 0.41772 0.24154 0.0
C680 C 0.92469 0.36674 0.21324 0.0
C681 C 0.91985 0.37176 0.23234 0.0
C682 C 0.94393 0.36772 0.20702 0.0
C683 C 0.95843 0.37394 0.21978 0.0
C684 C 0.95342 0.37985 0.23853 0.0
C685 C 0.93432 0.37864 0.2448 0.0
C686 C 0.97913 0.37275 0.21462 0.0
C687 C 0.99028 0.38965 0.21554 0.0
C688 C 0.98828 0.35476 0.21129 0.0
C689 C 0.97727 0.33641 0.21044 0.0
C690 C 0.96701 0.32972 0.22667 0.0
C691 C 0.95655 0.31245 0.22567 0.0
C692 C 0.9564 0.30167 0.20858 0.0
C693 C 0.96678 0.30811 0.19246 0.0
C694 C 0.97724 0.32539 0.19338 0.0
C695 C 0.06557 0.37132 0.24263 0.0
C696 C 0.07882 0.3622 0.23024 0.0
C697 C 0.04653 0.37425 0.23683 0.0
C698 C 0.04031 0.36818 0.2185 0.0
C699 C 0.05343 0.35891 0.20607 0.0
C700 C 0.07264 0.35607 0.21186 0.0
C701 C 0.01972 0.37059 0.21326 0.0
C702 C 0.00852 0.35393 0.21041 0.0
C703 C 0.01054 0.38882 0.21478 0.0
C704 C 0.02187 0.40703 0.21632 0.0
C705 C 0.03682 0.41098 0.20308 0.0
C706 C 0.04766 0.42797 0.20468 0.0
C707 C 0.04364 0.44119 0.21943 0.0
C708 C 0.02877 0.43746 0.23259 0.0
C709 C 0.0179 0.42048 0.23106 0.0
H710 H 0.05206 0.45434 0.22065 0.0
H711 H 0.9483 0.2883 0.20783 0.0
H712 H 0.24058 0.15811 0.57495 0.0
H713 H 0.24559 0.15812 0.54006 0.0
H714 H 0.30296 0.13485 0.54795 0.0
H715 H 0.29805 0.13475 0.58316 0.0
H716 H 0.29746 0.16502 0.51647 0.0
H717 H 0.27385 0.10335 0.53867 0.0
H718 H 0.25246 0.08243 0.55812 0.0
H719 H 0.20276 0.10543 0.52878 0.0
H720 H 0.22383 0.12669 0.50936 0.0
H721 H 0.29363 0.13433 0.41608 0.0
H722 H 0.30001 0.1359 0.45098 0.0
H723 H 0.23958 0.14776 0.4614 0.0
H724 H 0.23309 0.14585 0.42684 0.0
H725 H 0.25222 0.11957 0.48418 0.0
H726 H 0.27459 0.18307 0.46445 0.0
H727 H 0.29495 0.20578 0.44596 0.0
H728 H 0.3461 0.18053 0.4706 0.0
H729 H 0.32603 0.15749 0.48906 0.0
C730 C 0.25442 0.15334 0.56934 0.0
C731 C 0.26884 0.14618 0.58172 0.0
C732 C 0.25726 0.1534 0.54942 0.0
C733 C 0.27454 0.14628 0.54155 0.0
C734 C 0.28954 0.14039 0.55387 0.0
C735 C 0.28668 0.14029 0.5739 0.0
C736 C 0.27574 0.14309 0.52051 0.0
C737 C 0.28791 0.15482 0.50933 0.0
C738 C 0.2631 0.12989 0.51137 0.0
C739 C 0.25042 0.11671 0.52266 0.0
C740 C 0.25836 0.10402 0.53644 0.0
C741 C 0.24629 0.0921 0.54745 0.0
C742 C 0.22627 0.09266 0.54473 0.0
C743 C 0.21828 0.10503 0.53089 0.0
C744 C 0.23027 0.117 0.51986 0.0
C745 C 0.28177 0.1374 0.42586 0.0
C746 C 0.26285 0.13987 0.41881 0.0
C747 C 0.28544 0.13834 0.44574 0.0
C748 C 0.27026 0.14195 0.45875 0.0
C749 C 0.25148 0.14483 0.45161 0.0
C750 C 0.2478 0.14378 0.43186 0.0
C751 C 0.27345 0.14201 0.4799 0.0
C752 C 0.2621 0.12954 0.49119 0.0
C753 C 0.28679 0.15458 0.48904 0.0
C754 C 0.29883 0.1684 0.47794 0.0
C755 C 0.29019 0.18225 0.46579 0.0
C756 C 0.30167 0.1952 0.45534 0.0
C757 C 0.32181 0.19455 0.45705 0.0
C758 C 0.33051 0.18098 0.46926 0.0
C759 C 0.31909 0.16798 0.47972 0.0
H760 H 0.33068 0.2046 0.44896 0.0
H761 H 0.21694 0.08351 0.55334 0.0
H762 H 0.33883 0.74409 0.92373 0.0
H763 H 0.33539 0.75263 0.95773 0.0
H764 H 0.36369 0.80724 0.94716 0.0
H765 H 0.36734 0.79866 0.9129 0.0
H766 H 0.3786 0.78859 0.9783 0.0
H767 H 0.31626 0.80735 0.95727 0.0
H768 H 0.28524 0.80465 0.93988 0.0
H769 H 0.2702 0.75483 0.97374 0.0
H770 H 0.30125 0.75703 0.99116 0.0
H771 H 0.36269 0.80058 0.07978 0.0
H772 H 0.35966 0.80857 0.04535 0.0
H773 H 0.33502 0.75228 0.03448 0.0
H774 H 0.33799 0.74422 0.06872 0.0
H775 H 0.31664 0.7817 0.01395 0.0
H776 H 0.3821 0.75904 0.02838 0.0
H777 H 0.41345 0.76086 0.04536 0.0
H778 H 0.42237 0.81824 0.02332 0.0
H779 H 0.39092 0.81683 0.00642 0.0
C780 C 0.34423 0.75797 0.92859 0.0
C781 C 0.35338 0.77071 0.91571 0.0
C782 C 0.34211 0.7629 0.94799 0.0
C783 C 0.349 0.7807 0.95486 0.0
C784 C 0.35815 0.79351 0.94206 0.0
C785 C 0.36023 0.78858 0.92255 0.0
C786 C 0.34771 0.78506 0.97574 0.0
C787 C 0.36498 0.78767 0.98606 0.0
C788 C 0.32995 0.78369 0.98583 0.0
C789 C 0.31115 0.78233 0.97549 0.0
C790 C 0.3064 0.79574 0.96094 0.0
C791 C 0.28879 0.79431 0.95108 0.0
C792 C 0.27576 0.77957 0.95569 0.0
C793 C 0.2803 0.76625 0.9702 0.0
C794 C 0.29789 0.7676 0.9801 0.0
C795 C 0.3564 0.79003 0.07006 0.0
C796 C 0.35074 0.77172 0.07682 0.0
C797 C 0.35468 0.79462 0.05046 0.0
C798 C 0.34722 0.78096 0.03744 0.0
C799 C 0.34075 0.76302 0.04435 0.0
C800 C 0.34257 0.7584 0.06386 0.0
C801 C 0.34757 0.78443 0.01639 0.0
C802 C 0.33014 0.78329 0.00609 0.0
C803 C 0.36516 0.78715 0.00631 0.0
C804 C 0.38407 0.78794 0.01637 0.0
C805 C 0.39068 0.7721 0.02729 0.0
C806 C 0.40847 0.77305 0.03687 0.0
C807 C 0.41986 0.78968 0.03547 0.0
C808 C 0.41351 0.80538 0.02443 0.0
C809 C 0.39571 0.80452 0.01485 0.0
H810 H 0.43363 0.79039 0.04289 0.0
H811 H 0.26215 0.77848 0.94804 0.0
H812 H 0.70268 0.85724 0.41704 0.0
H813 H 0.69329 0.85285 0.45101 0.0
H814 H 0.75324 0.84466 0.46644 0.0
H815 H 0.76268 0.849 0.43273 0.0
H816 H 0.72877 0.81734 0.48296 0.0
H817 H 0.7321 0.88742 0.47335 0.0
H818 H 0.72213 0.91798 0.45785 0.0
H819 H 0.66341 0.90827 0.4757 0.0
H820 H 0.67303 0.87751 0.49111 0.0
H821 H 0.75453 0.84428 0.57522 0.0
H822 H 0.74814 0.84004 0.54091 0.0
H823 H 0.68735 0.85057 0.55057 0.0
H824 H 0.69372 0.85502 0.58527 0.0
H825 H 0.70185 0.87208 0.52078 0.0
H826 H 0.70103 0.80593 0.53768 0.0
H827 H 0.71172 0.776 0.55385 0.0
H828 H 0.76545 0.77791 0.52273 0.0
H829 H 0.75524 0.80801 0.50658 0.0
C830 C 0.71382 0.8545 0.42772 0.0
C831 C 0.73341 0.85352 0.42232 0.0
C832 C 0.70844 0.85199 0.44705 0.0
C833 C 0.72259 0.8484 0.46114 0.0
C834 C 0.74211 0.84728 0.45571 0.0
C835 C 0.74749 0.8499 0.43649 0.0
C836 C 0.71748 0.84633 0.48176 0.0
C837 C 0.72281 0.82924 0.49128 0.0
C838 C 0.70896 0.8616 0.49237 0.0
C839 C 0.70322 0.88007 0.48313 0.0
C840 C 0.71704 0.89172 0.47381 0.0
C841 C 0.71146 0.90909 0.46508 0.0
C842 C 0.69213 0.91502 0.46573 0.0
C843 C 0.67836 0.90363 0.47517 0.0
C844 C 0.68387 0.88623 0.4839 0.0
C845 C 0.73976 0.84552 0.57012 0.0
C846 C 0.72462 0.85001 0.58288 0.0
C847 C 0.7361 0.84294 0.55052 0.0
C848 C 0.71723 0.8447 0.54327 0.0
C849 C 0.70198 0.84901 0.55596 0.0
C850 C 0.70564 0.85152 0.57571 0.0
C851 C 0.71409 0.84344 0.52217 0.0
C852 C 0.70717 0.85987 0.51248 0.0
C853 C 0.72114 0.82753 0.51139 0.0
C854 C 0.72735 0.80929 0.52093 0.0
C855 C 0.71517 0.80003 0.53435 0.0
C856 C 0.72114 0.78302 0.54351 0.0
C857 C 0.73925 0.77506 0.53932 0.0
C858 C 0.75141 0.78408 0.52594 0.0
C859 C 0.74552 0.8011 0.51675 0.0
H860 H 0.74385 0.76189 0.54644 0.0
H861 H 0.68784 0.92848 0.45897 0.0
H862 H 0.65224 0.20681 0.07859 0.0
H863 H 0.64939 0.19794 0.04426 0.0
H864 H 0.61648 0.24991 0.03363 0.0
H865 H 0.61946 0.25892 0.0676 0.0
H866 H 0.6012 0.21641 0.01531 0.0
H867 H 0.6627 0.25061 0.0249 0.0
H868 H 0.69503 0.25433 0.03955 0.0
H869 H 0.71187 0.19882 0.01732 0.0
H870 H 0.6795 0.19468 0.00274 0.0
H871 H 0.61002 0.26111 0.92683 0.0
H872 H 0.60994 0.24952 0.96004 0.0
H873 H 0.64754 0.20231 0.94399 0.0
H874 H 0.64788 0.21409 0.91047 0.0
H875 H 0.66068 0.22112 0.97538 0.0
H876 H 0.60152 0.19255 0.9573 0.0
H877 H 0.56957 0.19057 0.94159 0.0
H878 H 0.54795 0.23516 0.97901 0.0
H879 H 0.57985 0.23769 0.99474 0.0
C880 C 0.64432 0.21624 0.06889 0.0
C881 C 0.63623 0.23363 0.07563 0.0
C882 C 0.64267 0.21114 0.04938 0.0
C883 C 0.63269 0.22327 0.03652 0.0
C884 C 0.62412 0.24031 0.0434 0.0
C885 C 0.626 0.24553 0.06275 0.0
C886 C 0.6322 0.21929 0.01556 0.0
C887 C 0.61416 0.21726 0.0065 0.0
C888 C 0.64923 0.21971 0.00425 0.0
C889 C 0.66863 0.22221 0.01299 0.0
C890 C 0.67324 0.23912 0.0233 0.0
C891 C 0.69158 0.24133 0.03155 0.0
C892 C 0.70547 0.22679 0.02943 0.0
C893 C 0.70107 0.21004 0.019 0.0
C894 C 0.68274 0.20776 0.01074 0.0
C895 C 0.61812 0.24815 0.93029 0.0
C896 C 0.62902 0.23853 0.91612 0.0
C897 C 0.61793 0.24143 0.94925 0.0
C898 C 0.62849 0.22487 0.95441 0.0
C899 C 0.63917 0.21502 0.94023 0.0
C900 C 0.63935 0.22175 0.92115 0.0
C901 C 0.62954 0.21919 0.975 0.0
C902 C 0.6477 0.21942 0.98405 0.0
C903 C 0.61259 0.21707 0.98628 0.0
C904 C 0.59315 0.21532 0.97721 0.0
C905 C 0.58998 0.202 0.96215 0.0
C906 C 0.57187 0.20078 0.95322 0.0
C907 C 0.55674 0.21273 0.95929 0.0
C908 C 0.55968 0.22589 0.97434 0.0
C909 C 0.57778 0.22719 0.9833 0.0
H910 H 0.54274 0.21179 0.95234 0.0
H911 H 0.71966 0.22852 0.03582 0.0
H912 H 0.23903 0.8681 0.42754 0.0
H913 H 0.25133 0.86852 0.46052 0.0
H914 H 0.30011 0.83361 0.44321 0.0
H915 H 0.28784 0.83323 0.4098 0.0
H916 H 0.28073 0.82043 0.47706 0.0
H917 H 0.31069 0.87729 0.45472 0.0
H918 H 0.31376 0.90805 0.43698 0.0
H919 H 0.26975 0.93346 0.47271 0.0
H920 H 0.26617 0.90276 0.49048 0.0
H921 H 0.2924 0.83942 0.58056 0.0
H922 H 0.30273 0.83771 0.54652 0.0
H923 H 0.25128 0.86871 0.5295 0.0
H924 H 0.2408 0.87019 0.56311 0.0
H925 H 0.2868 0.88254 0.51251 0.0
H926 H 0.25084 0.82224 0.52583 0.0
H927 H 0.2466 0.7912 0.54292 0.0
H928 H 0.3027 0.77261 0.52371 0.0
H929 H 0.30734 0.80367 0.5067 0.0
C930 C 0.2524 0.86055 0.43069 0.0
C931 C 0.26249 0.85062 0.41615 0.0
C932 C 0.25949 0.86091 0.4495 0.0
C933 C 0.27677 0.85134 0.45417 0.0
C934 C 0.28684 0.84122 0.43977 0.0
C935 C 0.27983 0.84101 0.42078 0.0
C936 C 0.28333 0.85139 0.47447 0.0
C937 C 0.28277 0.83394 0.48479 0.0
C938 C 0.28603 0.86902 0.48445 0.0
C939 C 0.28817 0.88766 0.47395 0.0
C940 C 0.30159 0.88939 0.45874 0.0
C941 C 0.30342 0.90683 0.44868 0.0
C942 C 0.29196 0.9227 0.45372 0.0
C943 C 0.27865 0.92116 0.46885 0.0
C944 C 0.27674 0.90375 0.47895 0.0
C945 C 0.28337 0.84588 0.5695 0.0
C946 C 0.26577 0.85486 0.57437 0.0
C947 C 0.28929 0.84492 0.55016 0.0
C948 C 0.27779 0.8532 0.53564 0.0
C949 C 0.2604 0.86239 0.54058 0.0
C950 C 0.25437 0.86309 0.55975 0.0
C951 C 0.28298 0.85176 0.51503 0.0
C952 C 0.28575 0.86898 0.5047 0.0
C953 C 0.28238 0.83394 0.50505 0.0
C954 C 0.27955 0.81534 0.51526 0.0
C955 C 0.26233 0.81159 0.52541 0.0
C956 C 0.25984 0.79399 0.53505 0.0
C957 C 0.2744 0.77997 0.53446 0.0
C958 C 0.29146 0.7835 0.52419 0.0
C959 C 0.29403 0.8011 0.51456 0.0
H960 H 0.27244 0.76635 0.54192 0.0
H961 H 0.2934 0.93619 0.4459 0.0
H962 H 0.65153 0.78904 0.07823 0.0
H963 H 0.65502 0.79278 0.0431 0.0
H964 H 0.64863 0.73109 0.03596 0.0
H965 H 0.6455 0.72725 0.07081 0.0
H966 H 0.67715 0.74489 0.01354 0.0
H967 H 0.61057 0.76239 0.02934 0.0
H968 H 0.58566 0.78188 0.04587 0.0
H969 H 0.60818 0.83347 0.01963 0.0
H970 H 0.63339 0.81427 0.00312 0.0
H971 H 0.63965 0.72346 0.92247 0.0
H972 H 0.64548 0.72888 0.95684 0.0
H973 H 0.65107 0.79017 0.94647 0.0
H974 H 0.64491 0.78487 0.91197 0.0
H975 H 0.62824 0.78284 0.97717 0.0
H976 H 0.69099 0.7637 0.9564 0.0
H977 H 0.71514 0.74363 0.93948 0.0
H978 H 0.69984 0.69488 0.97476 0.0
H979 H 0.6754 0.71456 0.99171 0.0
C980 C 0.65097 0.77631 0.06912 0.0
C981 C 0.64815 0.75787 0.07719 0.0
C982 C 0.65294 0.77846 0.04911 0.0
C983 C 0.65196 0.76221 0.03697 0.0
C984 C 0.64951 0.7438 0.04509 0.0
C985 C 0.64762 0.74164 0.065 0.0
C986 C 0.65271 0.76412 0.0157 0.0
C987 C 0.66647 0.75317 0.00555 0.0
C988 C 0.63918 0.77546 0.00535 0.0
C989 C 0.62399 0.78695 0.0152 0.0
C990 C 0.61029 0.7779 0.02722 0.0
C991 C 0.59611 0.78889 0.03656 0.0
C992 C 0.59538 0.80891 0.03386 0.0
C993 C 0.60879 0.81797 0.02175 0.0
C994 C 0.62302 0.80705 0.01239 0.0
C995 C 0.64218 0.73808 0.92749 0.0
C996 C 0.64186 0.75374 0.91458 0.0
C997 C 0.64563 0.74115 0.9471 0.0
C998 C 0.64902 0.75989 0.95411 0.0
C999 C 0.6486 0.77559 0.94128 0.0
C1000 C 0.64509 0.77254 0.92163 0.0
C1001 C 0.65219 0.76297 0.97502 0.0
C1002 C 0.63923 0.77491 0.9851 0.0
C1003 C 0.66644 0.75249 0.98531 0.0
C1004 C 0.68128 0.74062 0.97528 0.0
C1005 C 0.69269 0.74867 0.96048 0.0
C1006 C 0.70644 0.73736 0.95089 0.0
C1007 C 0.70901 0.71799 0.95602 0.0
C1008 C 0.69785 0.70989 0.9708 0.0
C1009 C 0.68406 0.72113 0.98043 0.0
H1010 H 0.71966 0.70925 0.94857 0.0
H1011 H 0.58439 0.81739 0.0411 0.0
H1012 H 0.70191 0.14469 0.58142 0.0
H1013 H 0.69589 0.14726 0.54648 0.0
H1014 H 0.75744 0.14628 0.53593 0.0
H1015 H 0.76351 0.14392 0.57052 0.0
H1016 H 0.73948 0.17406 0.51493 0.0
H1017 H 0.72986 0.1058 0.53066 0.0
H1018 H 0.71367 0.07893 0.54767 0.0
H1019 H 0.65901 0.0963 0.52372 0.0
H1020 H 0.67488 0.12341 0.50673 0.0
H1021 H 0.76462 0.13861 0.42512 0.0
H1022 H 0.75795 0.1429 0.45943 0.0
H1023 H 0.69663 0.14403 0.44771 0.0
H1024 H 0.70323 0.13948 0.41308 0.0
H1025 H 0.7061 0.12135 0.47944 0.0
H1026 H 0.71812 0.18557 0.458 0.0
H1027 H 0.73533 0.21142 0.44048 0.0
H1028 H 0.78602 0.20156 0.47501 0.0
H1029 H 0.76922 0.17546 0.49256 0.0
C1030 C 0.71411 0.14511 0.5716 0.0
C1031 C 0.73317 0.14407 0.57863 0.0
C1032 C 0.71066 0.14654 0.5517 0.0
C1033 C 0.72623 0.14691 0.53868 0.0
C1034 C 0.74522 0.14612 0.54576 0.0
C1035 C 0.74866 0.14468 0.56553 0.0
C1036 C 0.72316 0.14767 0.51754 0.0
C1037 C 0.73214 0.16258 0.50714 0.0
C1038 C 0.71298 0.13305 0.50748 0.0
C1039 C 0.7035 0.11675 0.51765 0.0
C1040 C 0.71436 0.10397 0.52915 0.0
C1041 C 0.70526 0.08868 0.53876 0.0
C1042 C 0.68531 0.08595 0.53683 0.0
C1043 C 0.67445 0.09846 0.52524 0.0
C1044 C 0.68349 0.11378 0.51561 0.0
C1045 C 0.7497 0.13976 0.4298 0.0
C1046 C 0.73444 0.13883 0.41644 0.0
C1047 C 0.74592 0.1423 0.4494 0.0
C1048 C 0.72682 0.14414 0.45602 0.0
C1049 C 0.71147 0.14278 0.44281 0.0
C1050 C 0.71526 0.14021 0.4231 0.0
C1051 C 0.72325 0.14725 0.47686 0.0
C1052 C 0.71296 0.13315 0.4872 0.0
C1053 C 0.73229 0.1626 0.4869 0.0
C1054 C 0.7424 0.1785 0.47656 0.0
C1055 C 0.73296 0.18885 0.4618 0.0
C1056 C 0.74265 0.20356 0.45186 0.0
C1057 C 0.76176 0.20813 0.45662 0.0
C1058 C 0.77121 0.19802 0.47136 0.0
C1059 C 0.7616 0.18329 0.48133 0.0
H1060 H 0.76923 0.21951 0.4489 0.0
H1061 H 0.67828 0.07412 0.54428 0.0
H1062 H 0.38189 0.20651 0.08276 0.0
H1063 H 0.37998 0.19714 0.04865 0.0
H1064 H 0.32889 0.23239 0.04182 0.0
H1065 H 0.33054 0.24155 0.07585 0.0
H1066 H 0.32642 0.19942 0.02055 0.0
H1067 H 0.37303 0.2507 0.03223 0.0
H1068 H 0.40199 0.26495 0.04743 0.0
H1069 H 0.43721 0.21963 0.02363 0.0
H1070 H 0.40837 0.20496 0.0085 0.0
H1071 H 0.32672 0.24411 0.9294 0.0
H1072 H 0.3274 0.2342 0.96329 0.0
H1073 H 0.3761 0.19691 0.95164 0.0
H1074 H 0.37541 0.20669 0.91754 0.0
H1075 H 0.38227 0.22251 0.9818 0.0
H1076 H 0.33504 0.1762 0.96365 0.0
H1077 H 0.30548 0.16401 0.94788 0.0
H1078 H 0.27074 0.20164 0.98302 0.0
H1079 H 0.30012 0.21429 -0.00118 0.0
C1080 C 0.37005 0.21195 0.07405 0.0
C1081 C 0.3565 0.22495 0.08184 0.0
C1082 C 0.36899 0.2066 0.0546 0.0
C1083 C 0.35444 0.21429 0.04269 0.0
C1084 C 0.34022 0.2263 0.05077 0.0
C1085 C 0.34125 0.23161 0.07019 0.0
C1086 C 0.35505 0.21166 0.02148 0.0
C1087 C 0.33863 0.2044 0.01203 0.0
C1088 C 0.37119 0.21776 0.01045 0.0
C1089 C 0.38853 0.22659 0.01947 0.0
C1090 C 0.38693 0.24369 0.03037 0.0
C1091 C 0.40332 0.25185 0.03896 0.0
C1092 C 0.42142 0.24316 0.03656 0.0
C1093 C 0.42317 0.22632 0.02552 0.0
C1094 C 0.40681 0.21807 0.01694 0.0
C1095 C 0.33739 0.23359 0.93399 0.0
C1096 C 0.35107 0.22623 0.92091 0.0
C1097 C 0.33768 0.22784 0.95331 0.0
C1098 C 0.3517 0.2147 0.95988 0.0
C1099 C 0.3651 0.20696 0.94676 0.0
C1100 C 0.36469 0.21256 0.92735 0.0
C1101 C 0.35341 0.21078 0.98081 0.0
C1102 C 0.37028 0.21692 0.99025 0.0
C1103 C 0.33759 0.20386 0.99177 0.0
C1104 C 0.31983 0.19626 0.98237 0.0
C1105 C 0.32112 0.18199 0.96793 0.0
C1106 C 0.30439 0.17497 0.959 0.0
C1107 C 0.28625 0.18206 0.96443 0.0
C1108 C 0.28481 0.19616 0.97883 0.0
C1109 C 0.30149 0.20323 0.98781 0.0
H1110 H 0.27331 0.17661 0.95749 0.0
H1111 H 0.43409 0.24951 0.04321 0.0
H1112 H 0.5713 0.23902 0.13775 0.0
H1113 H 0.53751 0.24797 0.13345 0.0
H1114 H 0.55373 0.30789 0.12733 0.0
H1115 H 0.58795 0.29898 0.13161 0.0
H1116 H 0.51967 0.30023 0.15159 0.0
H1117 H 0.54283 0.28842 0.08821 0.0
H1118 H 0.56126 0.27135 0.0629 0.0
H1119 H 0.52625 0.22073 0.0711 0.0
H1120 H 0.50783 0.23736 0.09671 0.0
H1121 H 0.41658 0.29824 0.1274 0.0
H1122 H 0.45088 0.30726 0.12387 0.0
H1123 H 0.46708 0.24721 0.12907 0.0
H1124 H 0.43326 0.23821 0.1327 0.0
H1125 H 0.48535 0.26647 0.09833 0.0
H1126 H 0.46978 0.27588 0.1673 0.0
H1127 H 0.45211 0.29196 0.19381 0.0
H1128 H 0.4731 0.3472 0.17469 0.0
H1129 H 0.49071 0.33142 0.14791 0.0
C1130 C 0.56774 0.25413 0.13566 0.0
C1131 C 0.58225 0.26829 0.13487 0.0
C1132 C 0.54843 0.25921 0.13315 0.0
C1133 C 0.54325 0.27852 0.12977 0.0
C1134 C 0.55755 0.29289 0.1298 0.0
C1135 C 0.57701 0.28779 0.13224 0.0
C1136 C 0.5228 0.2831 0.12575 0.0
C1137 C 0.51217 0.2934 0.13962 0.0
C1138 C 0.51313 0.27421 0.11008 0.0
C1139 C 0.52395 0.26417 0.09443 0.0
C1140 C 0.53912 0.27362 0.08469 0.0
C1141 C 0.54957 0.26401 0.07028 0.0
C1142 C 0.54493 0.24497 0.0654 0.0
C1143 C 0.52981 0.23549 0.07489 0.0
C1144 C 0.51933 0.24502 0.08933 0.0
C1145 C 0.42752 0.28703 0.12773 0.0
C1146 C 0.42233 0.26755 0.13038 0.0
C1147 C 0.44702 0.29219 0.12571 0.0
C1148 C 0.46142 0.27786 0.12614 0.0
C1149 C 0.45615 0.25844 0.12855 0.0
C1150 C 0.43683 0.25334 0.13075 0.0
C1151 C 0.48218 0.28261 0.12477 0.0
C1152 C 0.49289 0.27405 0.10982 0.0
C1153 C 0.49187 0.29312 0.1394 0.0
C1154 C 0.48131 0.30252 0.15548 0.0
C1155 C 0.47047 0.29147 0.16866 0.0
C1156 C 0.46051 0.30052 0.18375 0.0
C1157 C 0.46142 0.3206 0.18589 0.0
C1158 C 0.47236 0.33165 0.17298 0.0
C1159 C 0.48233 0.32267 0.15785 0.0
H1160 H 0.4537 0.32758 0.19759 0.0
H1161 H 0.55305 0.23755 0.05424 0.0
H1162 H 0.57845 0.70774 0.82832 0.0
H1163 H 0.54382 0.70018 0.8255 0.0
H1164 H 0.53264 0.73196 0.87803 0.0
H1165 H 0.56697 0.73974 0.88077 0.0
H1166 H 0.51149 0.69672 0.87485 0.0
H1167 H 0.52795 0.75457 0.83726 0.0
H1168 H 0.5457 0.77171 0.81149 0.0
H1169 H 0.52303 0.73225 0.76922 0.0
H1170 H 0.50535 0.71471 0.79483 0.0
H1171 H 0.42415 0.74532 0.88091 0.0
H1172 H 0.45743 0.73398 0.87821 0.0
H1173 H 0.44471 0.70911 0.8224 0.0
H1174 H 0.41117 0.72055 0.825 0.0
H1175 H 0.47734 0.7311 0.82187 0.0
H1176 H 0.45373 0.6791 0.85907 0.0
H1177 H 0.43557 0.66267 0.88498 0.0
H1178 H 0.47105 0.69028 0.92781 0.0
H1179 H 0.48925 0.70712 0.90219 0.0
C1180 C 0.5686 0.71283 0.83939 0.0
C1181 C 0.57527 0.72445 0.85467 0.0
C1182 C 0.5489 0.7085 0.83777 0.0
C1183 C 0.53576 0.71556 0.85155 0.0
C1184 C 0.5426 0.72632 0.86731 0.0
C1185 C 0.56217 0.73086 0.86879 0.0
C1186 C 0.51469 0.71353 0.84886 0.0
C1187 C 0.50395 0.70409 0.86323 0.0
C1188 C 0.505 0.72262 0.83332 0.0
C1189 C 0.51558 0.73318 0.81796 0.0
C1190 C 0.5269 0.74945 0.82249 0.0
C1191 C 0.53692 0.75925 0.80792 0.0
C1192 C 0.53555 0.75303 0.78874 0.0
C1193 C 0.52412 0.73702 0.78409 0.0
C1194 C 0.5141 0.72714 0.79862 0.0
C1195 C 0.42837 0.73731 0.86812 0.0
C1196 C 0.41512 0.73384 0.85314 0.0
C1197 C 0.44735 0.7307 0.86666 0.0
C1198 C 0.45343 0.72045 0.85023 0.0
C1199 C 0.44022 0.71686 0.83526 0.0
C1200 C 0.42112 0.7234 0.83676 0.0
C1201 C 0.47403 0.71497 0.84835 0.0
C1202 C 0.48474 0.72305 0.83313 0.0
C1203 C 0.48366 0.70457 0.86311 0.0
C1204 C 0.47283 0.69444 0.87866 0.0
C1205 C 0.45759 0.68178 0.87401 0.0
C1206 C 0.4473 0.67237 0.88866 0.0
C1207 C 0.45215 0.67544 0.90803 0.0
C1208 C 0.46732 0.68791 0.9128 0.0
C1209 C 0.47766 0.69736 0.89821 0.0
H1210 H 0.44416 0.66815 0.91934 0.0
H1211 H 0.5433 0.76064 0.77747 0.0
H1212 H 0.79682 0.91204 0.36604 0.0
H1213 H 0.80499 0.94647 0.3624 0.0
H1214 H 0.74515 0.95928 0.35002 0.0
H1215 H 0.73692 0.92525 0.35369 0.0
H1216 H 0.77086 0.97698 0.3245 0.0
H1217 H 0.76245 0.96646 0.39418 0.0
H1218 H 0.77106 0.95128 0.4253 0.0
H1219 H 0.82908 0.97291 0.42018 0.0
H1220 H 0.82084 0.98802 0.38888 0.0
H1221 H 0.73532 0.06621 0.3504 0.0
H1222 H 0.74459 0.03229 0.34822 0.0
H1223 H 0.80415 0.04745 0.35911 0.0
H1224 H 0.79493 0.08175 0.36122 0.0
H1225 H 0.7901 0.01593 0.38163 0.0
H1226 H 0.79489 0.03379 0.3158 0.0
H1227 H 0.78523 0.04959 0.28533 0.0
H1228 H 0.73404 0.01452 0.28294 0.0
H1229 H 0.74321 -0.00129 0.31356 0.0
C1230 C 0.78547 0.92225 0.36251 0.0
C1231 C 0.76623 0.91604 0.36021 0.0
C1232 C 0.79015 0.94184 0.36043 0.0
C1233 C 0.77566 0.95532 0.35589 0.0
C1234 C 0.75654 0.94904 0.35339 0.0
C1235 C 0.75185 0.92962 0.35561 0.0
C1236 C 0.77984 0.97619 0.3543 0.0
C1237 C 0.77521 0.98554 0.33691 0.0
C1238 C 0.78622 0.98718 0.37032 0.0
C1239 C 0.79112 0.97811 0.38909 0.0
C1240 C 0.77709 0.96782 0.39961 0.0
C1241 C 0.78189 0.95927 0.4173 0.0
C1242 C 0.80062 0.96107 0.42468 0.0
C1243 C 0.81459 0.97148 0.41442 0.0
C1244 C 0.80986 0.98004 0.39671 0.0
C1245 C 0.7504 0.06238 0.3523 0.0
C1246 C 0.76442 0.07658 0.35595 0.0
C1247 C 0.75569 0.04301 0.35094 0.0
C1248 C 0.77508 0.03747 0.35325 0.0
C1249 C 0.78914 0.05154 0.35716 0.0
C1250 C 0.78386 0.07105 0.35835 0.0
C1251 C 0.78011 0.01675 0.35212 0.0
C1252 C 0.78649 0.00741 0.36896 0.0
C1253 C 0.77532 0.00574 0.33558 0.0
C1254 C 0.76974 0.01508 0.31704 0.0
C1255 C 0.78151 0.02952 0.30885 0.0
C1256 C 0.77613 0.03848 0.29154 0.0
C1257 C 0.75903 0.03307 0.28221 0.0
C1258 C 0.74729 0.01868 0.29017 0.0
C1259 C 0.7526 0.00968 0.30749 0.0
H1260 H 0.75488 0.04003 0.26881 0.0
H1261 H 0.80431 0.95444 0.43838 0.0
H1262 H 0.40804 0.29181 0.87962 0.0
H1263 H 0.44271 0.29967 0.88043 0.0
H1264 H 0.45557 0.24576 0.85174 0.0
H1265 H 0.42123 0.23787 0.85085 0.0
H1266 H 0.47813 0.25224 0.88428 0.0
H1267 H 0.45586 0.28707 0.82695 0.0
H1268 H 0.43587 0.31136 0.8101 0.0
H1269 H 0.45942 0.35617 0.84607 0.0
H1270 H 0.47938 0.33208 0.86331 0.0
H1271 H 0.56659 0.24997 0.83996 0.0
H1272 H 0.53177 0.25373 0.84402 0.0
H1273 H 0.54074 0.3074 0.87449 0.0
H1274 H 0.5759 0.30376 0.87047 0.0
H1275 H 0.50758 0.3066 0.84776 0.0
H1276 H 0.53343 0.27269 0.90186 0.0
H1277 H 0.55383 0.24862 0.91854 0.0
H1278 H 0.5236 0.20264 0.88977 0.0
H1279 H 0.5032 0.22644 0.8727 0.0
C1280 C 0.4183 0.2817 0.87345 0.0
C1281 C 0.41199 0.26422 0.8652 0.0
C1282 C 0.43804 0.28622 0.8739 0.0
C1283 C 0.45162 0.27327 0.86616 0.0
C1284 C 0.44528 0.25589 0.85787 0.0
C1285 C 0.42566 0.25143 0.85732 0.0
C1286 C 0.47258 0.27738 0.86673 0.0
C1287 C 0.48458 0.26414 0.87633 0.0
C1288 C 0.48087 0.29333 0.85697 0.0
C1289 C 0.4689 0.30776 0.84658 0.0
C1290 C 0.45663 0.30208 0.83138 0.0
C1291 C 0.44534 0.31581 0.82173 0.0
C1292 C 0.44632 0.33528 0.82705 0.0
C1293 C 0.45864 0.34107 0.84199 0.0
C1294 C 0.46995 0.32739 0.8517 0.0
C1295 C 0.56119 0.26276 0.84723 0.0
C1296 C 0.57393 0.27647 0.8551 0.0
C1297 C 0.54131 0.26487 0.84956 0.0
C1298 C 0.53382 0.28066 0.85983 0.0
C1299 C 0.54636 0.29509 0.8666 0.0
C1300 C 0.56637 0.29297 0.86429 0.0
C1301 C 0.51303 0.28096 0.8646 0.0
C1302 C 0.5011 0.295 0.85612 0.0
C1303 C 0.50473 0.26581 0.87553 0.0
C1304 C 0.51685 0.25138 0.88591 0.0
C1305 C 0.53122 0.25745 0.89898 0.0
C1306 C 0.54277 0.24386 0.90853 0.0
C1307 C 0.54003 0.22412 0.90519 0.0
C1308 C 0.52571 0.21794 0.89234 0.0
C1309 C 0.51412 0.23148 0.88275 0.0
H1310 H 0.54901 0.21362 0.91256 0.0
H1311 H 0.43757 0.34589 0.81956 0.0
H1312 H 0.20003 0.91014 0.35834 0.0
H1313 H 0.19529 0.94528 0.36075 0.0
H1314 H 0.25698 0.95314 0.36621 0.0
H1315 H 0.26182 0.9183 0.36375 0.0
H1316 H 0.23561 0.97356 0.39372 0.0
H1317 H 0.23582 0.96147 0.32422 0.0
H1318 H 0.22348 0.94637 0.29436 0.0
H1319 H 0.16756 0.97158 0.30434 0.0
H1320 H 0.17953 0.98662 0.33443 0.0
H1321 H 0.26577 0.06552 0.36802 0.0
H1322 H 0.25864 0.0311 0.37006 0.0
H1323 H 0.19796 0.04285 0.3612 0.0
H1324 H 0.20506 0.07758 0.35894 0.0
H1325 H 0.21085 0.01277 0.33892 0.0
H1326 H 0.21253 0.02992 0.40519 0.0
H1327 H 0.22497 0.04537 0.43482 0.0
H1328 H 0.27654 0.01085 0.4316 0.0
H1329 H 0.26456 0.9954 0.40178 0.0
C1330 C 0.21255 0.91941 0.36 0.0
C1331 C 0.23129 0.91154 0.36081 0.0
C1332 C 0.20982 0.93942 0.36138 0.0
C1333 C 0.2258 0.95171 0.36368 0.0
C1334 C 0.24447 0.94384 0.36454 0.0
C1335 C 0.24721 0.92395 0.36302 0.0
C1336 C 0.22341 0.97288 0.36508 0.0
C1337 C 0.23021 0.98218 0.38177 0.0
C1338 C 0.21565 0.98397 0.34975 0.0
C1339 C 0.20849 0.97494 0.33169 0.0
C1340 C 0.22085 0.96363 0.32014 0.0
C1341 C 0.21393 0.95512 0.30316 0.0
C1342 C 0.19473 0.95795 0.29749 0.0
C1343 C 0.18242 0.96935 0.30877 0.0
C1344 C 0.18926 0.97788 0.32578 0.0
C1345 C 0.25089 0.06083 0.36655 0.0
C1346 C 0.23595 0.07421 0.36337 0.0
C1347 C 0.24683 0.04116 0.36783 0.0
C1348 C 0.22774 0.03449 0.3661 0.0
C1349 C 0.21276 0.04777 0.3627 0.0
C1350 C 0.21683 0.06755 0.36144 0.0
C1351 C 0.22384 0.0135 0.36726 0.0
C1352 C 0.21581 0.00421 0.35111 0.0
C1353 C 0.23039 0.00238 0.38313 0.0
C1354 C 0.23766 0.01155 0.40117 0.0
C1355 C 0.22658 0.02571 0.41072 0.0
C1356 C 0.23355 0.03446 0.42756 0.0
C1357 C 0.25154 0.02911 0.43507 0.0
C1358 C 0.2626 0.01498 0.42577 0.0
C1359 C 0.25571 0.00619 0.40891 0.0
H1360 H 0.25691 0.03591 0.44812 0.0
H1361 H 0.1894 0.95136 0.28433 0.0
H1362 H 0.58376 0.71142 0.15406 0.0
H1363 H 0.54863 0.70629 0.15579 0.0
H1364 H 0.53945 0.75855 0.12289 0.0
H1365 H 0.57423 0.76388 0.12138 0.0
H1366 H 0.51699 0.75746 0.15447 0.0
H1367 H 0.53522 0.71355 0.10251 0.0
H1368 H 0.55292 0.68581 0.0887 0.0
H1369 H 0.52696 0.648 0.13057 0.0
H1370 H 0.50927 0.67559 0.14478 0.0
H1371 H 0.42756 0.75964 0.11196 0.0
H1372 H 0.46212 0.75365 0.11543 0.0
H1373 H 0.45041 0.70688 0.155 0.0
H1374 H 0.41548 0.71277 0.15155 0.0
H1375 H 0.48268 0.70077 0.12684 0.0
H1376 H 0.46099 0.74476 0.17578 0.0
H1377 H 0.44269 0.77277 0.18814 0.0
H1378 H 0.47528 0.81071 0.15132 0.0
H1379 H 0.49357 0.78287 0.13849 0.0
C1380 C 0.57419 0.72174 0.14715 0.0
C1381 C 0.58167 0.73808 0.13765 0.0
C1382 C 0.55419 0.71877 0.14811 0.0
C1383 C 0.54149 0.73204 0.13945 0.0
C1384 C 0.54901 0.7482 0.12977 0.0
C1385 C 0.56889 0.7512 0.12888 0.0
C1386 C 0.52027 0.7297 0.1407 0.0
C1387 C 0.50951 0.74505 0.14844 0.0
C1388 C 0.51055 0.7132 0.13344 0.0
C1389 C 0.52113 0.69665 0.12485 0.0
C1390 C 0.53341 0.69935 0.10887 0.0
C1391 C 0.54342 0.68365 0.10095 0.0
C1392 C 0.54112 0.66517 0.1088 0.0
C1393 C 0.52876 0.66233 0.12454 0.0
C1394 C 0.51874 0.67799 0.13252 0.0
C1395 C 0.43227 0.74787 0.12118 0.0
C1396 C 0.41888 0.73683 0.1317 0.0
C1397 C 0.452 0.74446 0.12311 0.0
C1398 C 0.45871 0.73002 0.13566 0.0
C1399 C 0.44541 0.71811 0.14528 0.0
C1400 C 0.42554 0.72152 0.14333 0.0
C1401 C 0.47959 0.72889 0.13985 0.0
C1402 C 0.49023 0.71293 0.13327 0.0
C1403 C 0.48929 0.74485 0.14816 0.0
C1404 C 0.47858 0.7617 0.1561 0.0
C1405 C 0.46418 0.75906 0.17023 0.0
C1406 C 0.45381 0.77491 0.17733 0.0
C1407 C 0.45781 0.79351 0.17051 0.0
C1408 C 0.47221 0.79629 0.1566 0.0
C1409 C 0.4826 0.78049 0.14943 0.0
H1410 H 0.44975 0.80576 0.17601 0.0
H1411 H 0.54887 0.65304 0.10265 0.0
H1412 H 0.78405 0.91422 0.64755 0.0
H1413 H 0.79274 0.94861 0.64583 0.0
H1414 H 0.7374 0.96123 0.61979 0.0
H1415 H 0.72873 0.92712 0.62135 0.0
H1416 H 0.76677 0.98082 0.60219 0.0
H1417 H 0.74433 0.96696 0.66772 0.0
H1418 H 0.7459 0.95023 0.69919 0.0
H1419 H 0.80367 0.97137 0.70791 0.0
H1420 H 0.80251 0.98803 0.67634 0.0
H1421 H 0.73046 0.07142 0.62477 0.0
H1422 H 0.73793 0.037 0.62293 0.0
H1423 H 0.79482 0.04773 0.64626 0.0
H1424 H 0.78745 0.08245 0.64809 0.0
H1425 H 0.77485 0.01657 0.66392 0.0
H1426 H 0.79316 0.03692 0.60098 0.0
H1427 H 0.78979 0.05449 0.57014 0.0
H1428 H 0.7388 0.0217 0.55663 0.0
H1429 H 0.74169 0.00412 0.58753 0.0
C1430 C 0.77385 0.92435 0.64131 0.0
C1431 C 0.75567 0.91808 0.6347 0.0
C1432 C 0.77882 0.94394 0.64036 0.0
C1433 C 0.76566 0.95741 0.63276 0.0
C1434 C 0.74778 0.95103 0.62563 0.0
C1435 C 0.7428 0.93156 0.62664 0.0
C1436 C 0.76971 0.97838 0.63311 0.0
C1437 C 0.76864 0.98867 0.61566 0.0
C1438 C 0.77276 0.98849 0.65064 0.0
C1439 C 0.77344 0.9785 0.66958 0.0
C1440 C 0.75742 0.9679 0.67628 0.0
C1441 C 0.75823 0.95845 0.69414 0.0
C1442 C 0.7749 0.95967 0.70551 0.0
C1443 C 0.79079 0.97039 0.69906 0.0
C1444 C 0.79006 0.97983 0.68119 0.0
C1445 C 0.74457 0.06649 0.6295 0.0
C1446 C 0.75839 0.07957 0.63654 0.0
C1447 C 0.74885 0.04685 0.62834 0.0
C1448 C 0.76701 0.03994 0.63422 0.0
C1449 C 0.78078 0.05289 0.64155 0.0
C1450 C 0.77656 0.07264 0.64256 0.0
C1451 C 0.77104 0.01902 0.63309 0.0
C1452 C 0.77365 0.00874 0.65037 0.0
C1453 C 0.7693 0.00891 0.61541 0.0
C1454 C 0.76762 0.01924 0.59664 0.0
C1455 C 0.78117 0.03352 0.59149 0.0
C1456 C 0.77934 0.04348 0.57398 0.0
C1457 C 0.76408 0.03923 0.56144 0.0
C1458 C 0.75063 0.02497 0.56636 0.0
C1459 C 0.75237 0.01497 0.58385 0.0
H1460 H 0.76268 0.04697 0.54791 0.0
H1461 H 0.7755 0.95236 0.71934 0.0
H1462 H 0.25854 0.06874 0.61491 0.0
H1463 H 0.24809 0.03534 0.61165 0.0
H1464 H 0.19552 0.04842 0.64273 0.0
H1465 H 0.20614 0.08215 0.64633 0.0
H1466 H 0.21276 0.01658 0.65672 0.0
H1467 H 0.19265 0.03709 0.59483 0.0
H1468 H 0.19465 0.0542 0.56362 0.0
H1469 H 0.24374 0.01973 0.54747 0.0
H1470 H 0.24217 0.00251 0.57865 0.0
H1471 H 0.20161 0.91388 0.64015 0.0
H1472 H 0.19297 0.94833 0.63839 0.0
H1473 H 0.24896 0.96102 0.61391 0.0
H1474 H 0.2577 0.92691 0.61575 0.0
H1475 H 0.21811 0.9801 0.59513 0.0
H1476 H 0.2423 0.96694 0.66061 0.0
H1477 H 0.24096 0.9504 0.69219 0.0
H1478 H 0.18328 0.97172 0.70122 0.0
H1479 H 0.18422 0.98819 0.66955 0.0
C1480 C 0.24466 0.0646 0.62091 0.0
C1481 C 0.23317 0.07801 0.63092 0.0
C1482 C 0.23861 0.04552 0.61888 0.0
C1483 C 0.22086 0.03947 0.62665 0.0
C1484 C 0.20919 0.05287 0.63649 0.0
C1485 C 0.21527 0.07207 0.63853 0.0
C1486 C 0.21564 0.01874 0.62574 0.0
C1487 C 0.21329 0.00865 0.64318 0.0
C1488 C 0.21639 0.0084 0.60809 0.0
C1489 C 0.21729 0.01851 0.58913 0.0
C1490 C 0.20392 0.03319 0.58466 0.0
C1491 C 0.20497 0.04291 0.56696 0.0
C1492 C 0.21932 0.03807 0.55358 0.0
C1493 C 0.23261 0.02345 0.55784 0.0
C1494 C 0.23161 0.01365 0.57551 0.0
C1495 C 0.21199 0.92405 0.63431 0.0
C1496 C 0.23037 0.91781 0.62821 0.0
C1497 C 0.20703 0.94365 0.63329 0.0
C1498 C 0.22033 0.95713 0.626 0.0
C1499 C 0.23846 0.95079 0.61946 0.0
C1500 C 0.24348 0.93133 0.62066 0.0
C1501 C 0.2162 0.97807 0.62614 0.0
C1502 C 0.21679 0.98814 0.60854 0.0
C1503 C 0.21374 0.98839 0.64361 0.0
C1504 C 0.21323 0.97855 0.66263 0.0
C1505 C 0.22928 0.96795 0.66927 0.0
C1506 C 0.2286 0.95862 0.68719 0.0
C1507 C 0.21202 0.95994 0.69868 0.0
C1508 C 0.1961 0.97066 0.69229 0.0
C1509 C 0.19669 0.97999 0.67436 0.0
H1510 H 0.21152 0.95271 0.71255 0.0
H1511 H 0.22014 0.04564 0.5399 0.0
H1512 H 0.15404 0.3261 0.3086 0.0
H1513 H 0.16454 0.29727 0.32614 0.0
H1514 H 0.13302 0.26123 0.28618 0.0
H1515 H 0.12262 0.29003 0.26833 0.0
H1516 H 0.13428 0.24857 0.32846 0.0
H1517 H 0.17408 0.26658 0.27345 0.0
H1518 H 0.19214 0.29031 0.25386 0.0
H1519 H 0.2291 0.30255 0.30225 0.0
H1520 H 0.21098 0.27916 0.32225 0.0
H1521 H 0.19057 0.1618 0.33463 0.0
H1522 H 0.17105 0.18968 0.3248 0.0
H1523 H 0.2121 0.22802 0.35204 0.0
H1524 H 0.23184 0.20031 0.36148 0.0
H1525 H 0.2046 0.23961 0.31671 0.0
H1526 H 0.16673 0.21991 0.3713 0.0
H1527 H 0.14812 0.19728 0.39162 0.0
H1528 H 0.10761 0.18854 0.34535 0.0
H1529 H 0.12614 0.21092 0.32465 0.0
C1530 C 0.14889 0.31209 0.30385 0.0
C1531 C 0.13777 0.31024 0.28695 0.0
C1532 C 0.15485 0.29566 0.31391 0.0
C1533 C 0.14964 0.27722 0.3073 0.0
C1534 C 0.1371 0.2754 0.29148 0.0
C1535 C 0.13129 0.29183 0.28126 0.0
C1536 C 0.15979 0.26008 0.31487 0.0
C1537 C 0.1496 0.24641 0.32581 0.0
C1538 C 0.17981 0.2576 0.31153 0.0
C1539 C 0.19104 0.27129 0.2994 0.0
C1540 C 0.18596 0.27445 0.27995 0.0
C1541 C 0.19621 0.28782 0.26877 0.0
C1542 C 0.21172 0.29797 0.27682 0.0
C1543 C 0.21706 0.29471 0.29605 0.0
C1544 C 0.2068 0.28139 0.30731 0.0
C1545 C 0.1953 0.17617 0.33868 0.0
C1546 C 0.21275 0.17893 0.34872 0.0
C1547 C 0.18409 0.19207 0.33315 0.0
C1548 C 0.19007 0.21092 0.3378 0.0
C1549 C 0.20725 0.21361 0.34828 0.0
C1550 C 0.2185 0.19776 0.35367 0.0
C1551 C 0.17922 0.22794 0.33064 0.0
C1552 C 0.18929 0.24165 0.31956 0.0
C1553 C 0.15913 0.2304 0.33394 0.0
C1554 C 0.14794 0.21695 0.34635 0.0
C1555 C 0.15395 0.21304 0.3654 0.0
C1556 C 0.14339 0.20028 0.377 0.0
C1557 C 0.12672 0.19144 0.36976 0.0
C1558 C 0.12054 0.19538 0.35093 0.0
C1559 C 0.13105 0.20811 0.33926 0.0
H1560 H 0.11856 0.18157 0.37877 0.0
H1561 H 0.21963 0.30833 0.26814 0.0
H1562 H 0.29201 0.73583 0.8529 0.0
H1563 H 0.26581 0.71306 0.84651 0.0
H1564 H 0.30743 0.66751 0.83705 0.0
H1565 H 0.33387 0.6903 0.8436 0.0
H1566 H 0.28043 0.67149 0.80742 0.0
H1567 H 0.28021 0.66442 0.87575 0.0
H1568 H 0.28062 0.67524 0.90972 0.0
H1569 H 0.22635 0.70434 0.90146 0.0
H1570 H 0.22574 0.69396 0.86735 0.0
H1571 H 0.19939 0.61432 0.78475 0.0
H1572 H 0.22842 0.62297 0.80307 0.0
H1573 H 0.20058 0.67539 0.82241 0.0
H1574 H 0.17142 0.66664 0.80451 0.0
H1575 H 0.22379 0.66086 0.85026 0.0
H1576 H 0.22796 0.675 0.78162 0.0
H1577 H 0.22729 0.66662 0.74694 0.0
H1578 H 0.27402 0.62654 0.75542 0.0
H1579 H 0.27477 0.63451 0.79023 0.0
C1580 C 0.2956 0.72093 0.84962 0.0
C1581 C 0.31495 0.71482 0.84866 0.0
C1582 C 0.28062 0.70791 0.84613 0.0
C1583 C 0.28472 0.68858 0.84154 0.0
C1584 C 0.30402 0.68236 0.84072 0.0
C1585 C 0.31906 0.69536 0.84444 0.0
C1586 C 0.26874 0.67552 0.83601 0.0
C1587 C 0.26828 0.66865 0.81695 0.0
C1588 C 0.25277 0.67226 0.84837 0.0
C1589 C 0.25298 0.67847 0.86894 0.0
C1590 C 0.26842 0.67324 0.88113 0.0
C1591 C 0.26868 0.67928 0.90042 0.0
C1592 C 0.25353 0.69049 0.90774 0.0
C1593 C 0.23807 0.69565 0.89578 0.0
C1594 C 0.23775 0.68966 0.87647 0.0
C1595 C 0.19933 0.62747 0.79326 0.0
C1596 C 0.18329 0.63997 0.793 0.0
C1597 C 0.21591 0.63239 0.80369 0.0
C1598 C 0.21675 0.64998 0.81379 0.0
C1599 C 0.20024 0.66176 0.81468 0.0
C1600 C 0.18362 0.6568 0.80437 0.0
C1601 C 0.23531 0.6573 0.82154 0.0
C1602 C 0.23621 0.66316 0.84095 0.0
C1603 C 0.25164 0.65989 0.80945 0.0
C1604 C 0.25125 0.65515 0.78854 0.0
C1605 C 0.23799 0.66429 0.7761 0.0
C1606 C 0.23761 0.65963 0.75643 0.0
C1607 C 0.25056 0.646 0.749 0.0
C1608 C 0.26396 0.63705 0.76121 0.0
C1609 C 0.26437 0.64163 0.78091 0.0
H1610 H 0.25025 0.64242 0.73376 0.0
H1611 H 0.25377 0.69516 0.92268 0.0
H1612 H 0.87406 0.68961 0.28458 0.0
H1613 H 0.86333 0.7177 0.30331 0.0
H1614 H 0.80776 0.69062 0.31215 0.0
H1615 H 0.81821 0.66284 0.29304 0.0
H1616 H 0.80332 0.72548 0.29826 0.0
H1617 H 0.84074 0.69722 0.34943 0.0
H1618 H 0.86983 0.68338 0.36475 0.0
H1619 H 0.90046 0.73659 0.35545 0.0
H1620 H 0.87162 0.75067 0.33982 0.0
H1621 H 0.76078 0.78952 0.36322 0.0
H1622 H 0.77772 0.7605 0.35243 0.0
H1623 H 0.8267 0.79512 0.33528 0.0
H1624 H 0.80975 0.82442 0.34605 0.0
H1625 H 0.83595 0.75765 0.35351 0.0
H1626 H 0.79803 0.78536 0.30194 0.0
H1627 H 0.76835 0.79903 0.2876 0.0
H1628 H 0.73822 0.74583 0.29847 0.0
H1629 H 0.76765 0.73196 0.3132 0.0
C1630 C 0.85968 0.68953 0.29083 0.0
C1631 C 0.84689 0.67416 0.28725 0.0
C1632 C 0.8536 0.70554 0.30158 0.0
C1633 C 0.83474 0.70624 0.30913 0.0
C1634 C 0.82233 0.69042 0.30636 0.0
C1635 C 0.82833 0.67455 0.29548 0.0
C1636 C 0.82721 0.72409 0.31829 0.0
C1637 C 0.81034 0.73231 0.31052 0.0
C1638 C 0.8367 0.73337 0.33389 0.0
C1639 C 0.85407 0.72493 0.34327 0.0
C1640 C 0.85373 0.70591 0.35049 0.0
C1641 C 0.87016 0.69804 0.35927 0.0
C1642 C 0.887 0.70908 0.36103 0.0
C1643 C 0.88742 0.72804 0.35405 0.0
C1644 C 0.87102 0.73598 0.34525 0.0
C1645 C 0.77527 0.79097 0.35743 0.0
C1646 C 0.78388 0.80924 0.35524 0.0
C1647 C 0.78493 0.77438 0.35132 0.0
C1648 C 0.80333 0.77577 0.34293 0.0
C1649 C 0.81248 0.79383 0.34176 0.0
C1650 C 0.80276 0.81052 0.34781 0.0
C1651 C 0.81198 0.75861 0.33366 0.0
C1652 C 0.82903 0.75068 0.34127 0.0
C1653 C 0.80265 0.74947 0.31794 0.0
C1654 C 0.785 0.75769 0.30884 0.0
C1655 C 0.78504 0.77663 0.30142 0.0
C1656 C 0.76826 0.78441 0.2932 0.0
C1657 C 0.7514 0.77332 0.29217 0.0
C1658 C 0.75129 0.75441 0.2993 0.0
C1659 C 0.76802 0.74658 0.30758 0.0
H1660 H 0.73842 0.77937 0.2858 0.0
H1661 H 0.89971 0.70295 0.36783 0.0
H1662 H 0.83514 0.33164 0.81401 0.0
H1663 H 0.80717 0.32445 0.83456 0.0
H1664 H 0.76963 0.3528 0.79351 0.0
H1665 H 0.79747 0.36027 0.77311 0.0
H1666 H 0.75982 0.3621 0.8301 0.0
H1667 H 0.77278 0.30293 0.79402 0.0
H1668 H 0.79231 0.27525 0.78282 0.0
H1669 H 0.80363 0.25891 0.84164 0.0
H1670 H 0.78394 0.2864 0.8532 0.0
H1671 H 0.66846 0.31708 0.83772 0.0
H1672 H 0.69956 0.33234 0.83093 0.0
H1673 H 0.72616 0.29874 0.87634 0.0
H1674 H 0.69515 0.28309 0.88289 0.0
H1675 H 0.74421 0.29342 0.84361 0.0
H1676 H 0.72395 0.34877 0.8788 0.0
H1677 H 0.70217 0.37514 0.88891 0.0
H1678 H 0.70359 0.39879 0.83151 0.0
H1679 H 0.72516 0.37241 0.82096 0.0
C1680 C 0.82092 0.33641 0.80945 0.0
C1681 C 0.81844 0.34641 0.79193 0.0
C1682 C 0.80498 0.33227 0.82116 0.0
C1683 C 0.78632 0.33797 0.81547 0.0
C1684 C 0.78391 0.34833 0.7982 0.0
C1685 C 0.79982 0.3525 0.78651 0.0
C1686 C 0.76912 0.33252 0.82699 0.0
C1687 C 0.75632 0.34709 0.83305 0.0
C1688 C 0.76491 0.313 0.83134 0.0
C1689 C 0.77715 0.29683 0.82445 0.0
C1690 C 0.7796 0.29353 0.80455 0.0
C1691 C 0.79064 0.27785 0.79814 0.0
C1692 C 0.79936 0.26542 0.81149 0.0
C1693 C 0.79693 0.26859 0.83131 0.0
C1694 C 0.78579 0.28417 0.8378 0.0
C1695 C 0.68083 0.31333 0.84659 0.0
C1696 C 0.67948 0.29875 0.86066 0.0
C1697 C 0.69859 0.32215 0.84278 0.0
C1698 C 0.7152 0.31671 0.85316 0.0
C1699 C 0.71353 0.30312 0.86815 0.0
C1700 C 0.69582 0.2942 0.87187 0.0
C1701 C 0.73455 0.32295 0.84643 0.0
C1702 C 0.74782 0.3085 0.84118 0.0
C1703 C 0.73908 0.34257 0.8428 0.0
C1704 C 0.72611 0.35852 0.84906 0.0
C1705 C 0.71951 0.35951 0.86829 0.0
C1706 C 0.70722 0.37448 0.8741 0.0
C1707 C 0.70148 0.38862 0.86085 0.0
C1708 C 0.70805 0.38783 0.84176 0.0
C1709 C 0.72035 0.37289 0.83586 0.0
H1710 H 0.69196 0.4002 0.86538 0.0
H1711 H 0.80789 0.25329 0.80649 0.0
H1712 H 0.18681 0.82665 0.64659 0.0
H1713 H 0.16931 0.79804 0.65802 0.0
H1714 H 0.21943 0.76267 0.64636 0.0
H1715 H 0.23687 0.79106 0.63471 0.0
H1716 H 0.18549 0.74392 0.63753 0.0
H1717 H 0.21227 0.78227 0.68985 0.0
H1718 H 0.21609 0.81233 0.70867 0.0
H1719 H 0.15546 0.81204 0.72213 0.0
H1720 H 0.15112 0.78236 0.70281 0.0
H1721 H 0.17916 0.66595 0.70347 0.0
H1722 H 0.188 0.69412 0.68402 0.0
H1723 H 0.13691 0.72404 0.70391 0.0
H1724 H 0.12824 0.69607 0.72373 0.0
H1725 H 0.16737 0.74649 0.70693 0.0
H1726 H 0.14047 0.70718 0.65716 0.0
H1727 H 0.13573 0.67767 0.63771 0.0
H1728 H 0.19513 0.67962 0.61962 0.0
H1729 H 0.20031 0.709 0.63918 0.0
C1730 C 0.19395 0.8127 0.64614 0.0
C1731 C 0.21327 0.81108 0.64001 0.0
C1732 C 0.18396 0.79641 0.65268 0.0
C1733 C 0.1932 0.77833 0.65328 0.0
C1734 C 0.21206 0.7765 0.64603 0.0
C1735 C 0.22203 0.79276 0.63948 0.0
C1736 C 0.18407 0.76167 0.66308 0.0
C1737 C 0.18157 0.7444 0.65272 0.0
C1738 C 0.17859 0.76253 0.68278 0.0
C1739 C 0.18132 0.78021 0.69467 0.0
C1740 C 0.19971 0.7887 0.69667 0.0
C1741 C 0.20198 0.80567 0.70744 0.0
C1742 C 0.18604 0.81406 0.71661 0.0
C1743 C 0.16779 0.80553 0.715 0.0
C1744 C 0.16541 0.78867 0.7041 0.0
C1745 C 0.16974 0.67847 0.70355 0.0
C1746 C 0.15305 0.67886 0.71512 0.0
C1747 C 0.17474 0.69451 0.69235 0.0
C1748 C 0.16299 0.7111 0.69235 0.0
C1749 C 0.14616 0.71138 0.70368 0.0
C1750 C 0.14122 0.69539 0.71497 0.0
C1751 C 0.16892 0.72858 0.68146 0.0
C1752 C 0.17095 0.74601 0.69166 0.0
C1753 C 0.17387 0.72787 0.66161 0.0
C1754 C 0.17081 0.71022 0.64977 0.0
C1755 C 0.15256 0.70124 0.64915 0.0
C1756 C 0.14979 0.68454 0.63809 0.0
C1757 C 0.16513 0.67675 0.62747 0.0
C1758 C 0.18326 0.68567 0.62786 0.0
C1759 C 0.18612 0.70235 0.63892 0.0
H1760 H 0.16295 0.66383 0.61891 0.0
H1761 H 0.18784 0.82717 0.72497 0.0
H1762 H 0.67126 0.68691 0.14785 0.0
H1763 H 0.69969 0.66641 0.15355 0.0
H1764 H 0.73634 0.71692 0.15242 0.0
H1765 H 0.70822 0.73731 0.14642 0.0
H1766 H 0.75284 0.68763 0.13314 0.0
H1767 H 0.72122 0.69733 0.19497 0.0
H1768 H 0.69379 0.69583 0.21775 0.0
H1769 H 0.69098 0.63418 0.21072 0.0
H1770 H 0.71826 0.63537 0.18769 0.0
H1771 H 0.83089 0.67377 0.19701 0.0
H1772 H 0.80275 0.68238 0.17748 0.0
H1773 H 0.7823 0.62352 0.18064 0.0
H1774 H 0.81053 0.61477 0.20018 0.0
H1775 H 0.75601 0.65003 0.19416 0.0
H1776 H 0.79389 0.64129 0.13747 0.0
H1777 H 0.82242 0.64459 0.11633 0.0
H1778 H 0.81479 0.7062 0.11512 0.0
H1779 H 0.78638 0.70332 0.13649 0.0
C1780 C 0.68541 0.69358 0.14877 0.0
C1781 C 0.68755 0.71369 0.14684 0.0
C1782 C 0.7016 0.68188 0.15198 0.0
C1783 C 0.72009 0.69018 0.15348 0.0
C1784 C 0.72223 0.71021 0.15119 0.0
C1785 C 0.70612 0.72186 0.14791 0.0
C1786 C 0.73722 0.67836 0.15845 0.0
C1787 C 0.75358 0.67938 0.14646 0.0
C1788 C 0.73795 0.66721 0.17558 0.0
C1789 C 0.72159 0.66647 0.18943 0.0
C1790 C 0.71464 0.68348 0.19816 0.0
C1791 C 0.69915 0.68268 0.21114 0.0
C1792 C 0.69061 0.66492 0.21562 0.0
C1793 C 0.69758 0.64793 0.20719 0.0
C1794 C 0.71306 0.64865 0.19418 0.0
C1795 C 0.82067 0.66256 0.19312 0.0
C1796 C 0.82278 0.64366 0.20023 0.0
C1797 C 0.80465 0.66746 0.18188 0.0
C1798 C 0.79049 0.65356 0.17761 0.0
C1799 C 0.79313 0.63442 0.18376 0.0
C1800 C 0.80926 0.62945 0.19488 0.0
C1801 C 0.77187 0.65978 0.16914 0.0
C1802 C 0.75518 0.65777 0.18052 0.0
C1803 C 0.77096 0.67025 0.15161 0.0
C1804 C 0.78802 0.67208 0.13867 0.0
C1805 C 0.79837 0.65556 0.13281 0.0
C1806 C 0.81451 0.65735 0.12076 0.0
C1807 C 0.82043 0.67559 0.1144 0.0
C1808 C 0.81019 0.69208 0.12005 0.0
C1809 C 0.79404 0.69037 0.13211 0.0
H1810 H 0.83293 0.67695 0.10508 0.0
H1811 H 0.67862 0.66433 0.22568 0.0
H1812 H 0.76413 0.20575 0.63501 0.0
H1813 H 0.78428 0.23307 0.64487 0.0
H1814 H 0.82569 0.19368 0.66997 0.0
H1815 H 0.80559 0.16623 0.66015 0.0
H1816 H 0.81281 0.22154 0.69528 0.0
H1817 H 0.83801 0.21879 0.63077 0.0
H1818 H 0.83605 0.2176 0.59519 0.0
H1819 H 0.80727 0.27264 0.59458 0.0
H1820 H 0.8088 0.27405 0.63019 0.0
H1821 H 0.87439 0.29363 0.72818 0.0
H1822 H 0.86448 0.26621 0.70826 0.0
H1823 H 0.82216 0.30209 0.67964 0.0
H1824 H 0.83238 0.3298 0.69924 0.0
H1825 H 0.83802 0.27521 0.6548 0.0
H1826 H 0.80936 0.27714 0.7177 0.0
H1827 H 0.80998 0.27975 0.75317 0.0
H1828 H 0.84209 0.22667 0.75687 0.0
H1829 H 0.84227 0.22413 0.72125 0.0
C1830 C 0.77767 0.2029 0.64237 0.0
C1831 C 0.78326 0.1839 0.64696 0.0
C1832 C 0.78921 0.21851 0.64787 0.0
C1833 C 0.80649 0.21534 0.65804 0.0
C1834 C 0.81241 0.19636 0.66206 0.0
C1835 C 0.80094 0.18073 0.65646 0.0
C1836 C 0.81724 0.23188 0.66622 0.0
C1837 C 0.81873 0.23305 0.6864 0.0
C1838 C 0.82425 0.2472 0.65461 0.0
C1839 C 0.82339 0.24645 0.63318 0.0
C1840 C 0.83112 0.23058 0.62306 0.0
C1841 C 0.83012 0.22987 0.60288 0.0
C1842 C 0.82151 0.24502 0.59263 0.0
C1843 C 0.81393 0.26092 0.60254 0.0
C1844 C 0.81488 0.26169 0.62272 0.0
C1845 C 0.8632 0.29576 0.71741 0.0
C1846 C 0.85389 0.31371 0.71546 0.0
C1847 C 0.85761 0.28012 0.70601 0.0
C1848 C 0.84237 0.28208 0.69275 0.0
C1849 C 0.83394 0.30031 0.68983 0.0
C1850 C 0.83969 0.31607 0.70111 0.0
C1851 C 0.83371 0.26471 0.6838 0.0
C1852 C 0.83241 0.26349 0.6636 0.0
C1853 C 0.82654 0.2494 0.69536 0.0
C1854 C 0.82603 0.25057 0.7168 0.0
C1855 C 0.81668 0.2661 0.72606 0.0
C1856 C 0.81689 0.26756 0.7462 0.0
C1857 C 0.82604 0.25337 0.7573 0.0
C1858 C 0.83502 0.23767 0.74825 0.0
C1859 C 0.83502 0.23624 0.72807 0.0
H1860 H 0.82619 0.25452 0.77291 0.0
H1861 H 0.82074 0.24444 0.577 0.0
H1862 H 0.20433 0.34559 0.24337 0.0
H1863 H 0.23414 0.33819 0.226 0.0
H1864 H 0.20179 0.3314 0.17305 0.0
H1865 H 0.17172 0.33865 0.19047 0.0
H1866 H 0.22748 0.30224 0.17854 0.0
H1867 H 0.22898 0.37121 0.1797 0.0
H1868 H 0.22704 0.40363 0.1944 0.0
H1869 H 0.27585 0.3905 0.23053 0.0
H1870 H 0.27791 0.35788 0.21624 0.0
H1871 H 0.31183 0.29231 0.12309 0.0
H1872 H 0.2828 0.30906 0.13442 0.0
H1873 H 0.30701 0.31244 0.19181 0.0
H1874 H 0.3361 0.29563 0.18062 0.0
H1875 H 0.28473 0.34556 0.18086 0.0
H1876 H 0.28104 0.27579 0.18194 0.0
H1877 H 0.28347 0.24348 0.16708 0.0
H1878 H 0.23823 0.25811 0.12711 0.0
H1879 H 0.236 0.2908 0.1413 0.0
C1880 C 0.20355 0.34259 0.22801 0.0
C1881 C 0.18573 0.34277 0.21823 0.0
C1882 C 0.22061 0.33846 0.21809 0.0
C1883 C 0.2202 0.33457 0.19819 0.0
C1884 C 0.2024 0.3345 0.1884 0.0
C1885 C 0.18527 0.33863 0.19834 0.0
C1886 C 0.23835 0.32991 0.18786 0.0
C1887 C 0.23986 0.31189 0.17869 0.0
C1888 C 0.25461 0.34237 0.18843 0.0
C1889 C 0.2535 0.36203 0.19699 0.0
C1890 C 0.23921 0.37518 0.19088 0.0
C1891 C 0.23811 0.39361 0.19912 0.0
C1892 C 0.25129 0.39911 0.21342 0.0
C1893 C 0.26564 0.38621 0.21946 0.0
C1894 C 0.2668 0.36776 0.21127 0.0
C1895 C 0.31119 0.29706 0.13801 0.0
C1896 C 0.32608 0.29244 0.15106 0.0
C1897 C 0.29461 0.30661 0.14443 0.0
C1898 C 0.29272 0.31169 0.16398 0.0
C1899 C 0.30824 0.30858 0.17667 0.0
C1900 C 0.32479 0.29893 0.17028 0.0
C1901 C 0.27379 0.31791 0.1717 0.0
C1902 C 0.2722 0.33611 0.18045 0.0
C1903 C 0.25744 0.30562 0.1708 0.0
C1904 C 0.25853 0.28584 0.16251 0.0
C1905 C 0.27174 0.2722 0.16985 0.0
C1906 C 0.27308 0.25382 0.16156 0.0
C1907 C 0.26101 0.24874 0.14618 0.0
C1908 C 0.24759 0.26207 0.13902 0.0
C1909 C 0.24632 0.28055 0.14714 0.0
H1910 H 0.26203 0.23448 0.13982 0.0
H1911 H 0.25041 0.41338 0.21979 0.0
H1912 H 0.32842 0.19511 0.16241 0.0
H1913 H 0.31663 0.17531 0.18927 0.0
H1914 H 0.35707 0.20326 0.22774 0.0
H1915 H 0.36919 0.22278 0.2009 0.0
H1916 H 0.35449 0.16528 0.23565 0.0
H1917 H 0.31033 0.21828 0.22512 0.0
H1918 H 0.28799 0.23891 0.20644 0.0
H1919 H 0.25181 0.18979 0.19483 0.0
H1920 H 0.27408 0.16882 0.21326 0.0
H1921 H 0.3067 0.15616 0.3267 0.0
H1922 H 0.32336 0.16574 0.29698 0.0
H1923 H 0.28117 0.13456 0.26317 0.0
H1924 H 0.26434 0.12513 0.29276 0.0
H1925 H 0.28471 0.17126 0.25141 0.0
H1926 H 0.32778 0.11898 0.26559 0.0
H1927 H 0.34986 0.09943 0.28566 0.0
H1928 H 0.38802 0.14805 0.29167 0.0
H1929 H 0.36603 0.16799 0.27186 0.0
C1930 C 0.33494 0.19686 0.17655 0.0
C1931 C 0.34959 0.21059 0.17964 0.0
C1932 C 0.32817 0.18559 0.19188 0.0
C1933 C 0.3358 0.18804 0.21054 0.0
C1934 C 0.35099 0.20116 0.21345 0.0
C1935 C 0.35784 0.21235 0.19813 0.0
C1936 C 0.32721 0.17783 0.22726 0.0
C1937 C 0.33926 0.16665 0.2392 0.0
C1938 C 0.30727 0.17938 0.23164 0.0
C1939 C 0.29398 0.19194 0.22039 0.0
C1940 C 0.29771 0.21185 0.21844 0.0
C1941 C 0.28503 0.22361 0.20793 0.0
C1942 C 0.26851 0.21565 0.19943 0.0
C1943 C 0.26463 0.19592 0.20141 0.0
C1944 C 0.27726 0.1841 0.21189 0.0
C1945 C 0.30119 0.15106 0.31294 0.0
C1946 C 0.28416 0.14004 0.31201 0.0
C1947 C 0.31077 0.15647 0.29599 0.0
C1948 C 0.30352 0.1508 0.27789 0.0
C1949 C 0.28698 0.13908 0.277 0.0
C1950 C 0.2774 0.13371 0.29392 0.0
C1951 C 0.31197 0.1587 0.25989 0.0
C1952 C 0.29989 0.16959 0.24774 0.0
C1953 C 0.33188 0.15699 0.25546 0.0
C1954 C 0.34516 0.14503 0.26736 0.0
C1955 C 0.3408 0.12556 0.27132 0.0
C1956 C 0.35332 0.11439 0.28263 0.0
C1957 C 0.37031 0.1225 0.28997 0.0
C1958 C 0.37484 0.14179 0.28599 0.0
C1959 C 0.36237 0.15302 0.2747 0.0
H1960 H 0.37998 0.11384 0.29872 0.0
H1961 H 0.25867 0.22478 0.19136 0.0
H1962 H 0.3719 0.78984 0.79765 0.0
H1963 H 0.36011 0.80935 0.7705 0.0
H1964 H 0.31185 0.82852 0.8051 0.0
H1965 H 0.32363 0.80931 0.83233 0.0
H1966 H 0.30242 0.80839 0.77026 0.0
H1967 H 0.34218 0.86089 0.79237 0.0
H1968 H 0.3726 0.87636 0.80271 0.0
H1969 H 0.39816 0.8638 0.74752 0.0
H1970 H 0.36796 0.84799 0.73693 0.0
H1971 H 0.25501 0.86351 0.70049 0.0
H1972 H 0.27221 0.85605 0.73041 0.0
H1973 H 0.3237 0.84265 0.69776 0.0
H1974 H 0.30659 0.85028 0.66766 0.0
H1975 H 0.33214 0.86141 0.73209 0.0
H1976 H 0.29596 0.80693 0.71049 0.0
H1977 H 0.26778 0.78812 0.69936 0.0
H1978 H 0.23786 0.80098 0.75224 0.0
H1979 H 0.26579 0.82013 0.76359 0.0
C1980 C 0.35905 0.7986 0.7996 0.0
C1981 C 0.34855 0.79792 0.81699 0.0
C1982 C 0.3524 0.80978 0.78414 0.0
C1983 C 0.33513 0.8203 0.78587 0.0
C1984 C 0.32524 0.82051 0.80357 0.0
C1985 C 0.33198 0.80952 0.81908 0.0
C1986 C 0.32594 0.82873 0.76856 0.0
C1987 C 0.30868 0.82027 0.76213 0.0
C1988 C 0.33468 0.84359 0.7576 0.0
C1989 C 0.35286 0.85308 0.76393 0.0
C1990 C 0.35434 0.86125 0.7825 0.0
C1991 C 0.37153 0.87012 0.78839 0.0
C1992 C 0.38732 0.87102 0.7758 0.0
C1993 C 0.38593 0.86308 0.75726 0.0
C1994 C 0.36877 0.85418 0.75131 0.0
C1995 C 0.27008 0.85926 0.69968 0.0
C1996 C 0.27943 0.85725 0.68176 0.0
C1997 C 0.27987 0.855 0.71678 0.0
C1998 C 0.29911 0.84855 0.71622 0.0
C1999 C 0.30884 0.8476 0.69844 0.0
C2000 C 0.29903 0.85187 0.68129 0.0
C2001 C 0.30843 0.84126 0.73401 0.0
C2002 C 0.32575 0.84973 0.7404 0.0
C2003 C 0.3 0.82608 0.74482 0.0
C2004 C 0.28289 0.81514 0.7378 0.0
C2005 C 0.28328 0.80596 0.71965 0.0
C2006 C 0.26739 0.79518 0.71333 0.0
C2007 C 0.25107 0.79333 0.7251 0.0
C2008 C 0.25054 0.80241 0.74315 0.0
C2009 C 0.26639 0.81323 0.74954 0.0
H2010 H 0.23887 0.7848 0.72027 0.0
H2011 H 0.40061 0.8779 0.78038 0.0
H2012 H 0.73518 0.8617 0.2963 0.0
H2013 H 0.71603 0.85294 0.26787 0.0
H2014 H 0.6723 0.82812 0.30481 0.0
H2015 H 0.69136 0.83686 0.33334 0.0
H2016 H 0.68565 0.80318 0.27659 0.0
H2017 H 0.66215 0.86835 0.28071 0.0
H2018 H 0.66516 0.9038 0.28314 0.0
H2019 H 0.69586 0.90522 0.22917 0.0
H2020 H 0.69328 0.86974 0.22655 0.0
H2021 H 0.62658 0.77411 0.20048 0.0
H2022 H 0.63587 0.79212 0.22942 0.0
H2023 H 0.67872 0.82326 0.19638 0.0
H2024 H 0.669 0.80571 0.1672 0.0
H2025 H 0.66326 0.84619 0.22364 0.0
H2026 H 0.691 0.78257 0.2208 0.0
H2027 H 0.69066 0.74703 0.21768 0.0
H2028 H 0.65531 0.74263 0.26857 0.0
H2029 H 0.65523 0.77818 0.27183 0.0
C2030 C 0.72136 0.85462 0.29837 0.0
C2031 C 0.71478 0.84984 0.31699 0.0
C2032 C 0.7104 0.84973 0.28214 0.0
C2033 C 0.69273 0.84 0.2843 0.0
C2034 C 0.68588 0.8357 0.3029 0.0
C2035 C 0.69677 0.84069 0.31915 0.0
C2036 C 0.68237 0.83267 0.26712 0.0
C2037 C 0.68035 0.8126 0.2652 0.0
C2038 C 0.67616 0.84499 0.25202 0.0
C2039 C 0.67765 0.86635 0.25351 0.0
C2040 C 0.66968 0.8762 0.26943 0.0
C2041 C 0.67128 0.89631 0.27083 0.0
C2042 C 0.68073 0.90675 0.25634 0.0
C2043 C 0.68855 0.89711 0.24039 0.0
C2044 C 0.687 0.87701 0.23893 0.0
C2045 C 0.63771 0.78507 0.19932 0.0
C2046 C 0.64729 0.78835 0.18172 0.0
C2047 C 0.64302 0.79532 0.21585 0.0
C2048 C 0.65829 0.80868 0.21511 0.0
C2049 C 0.66696 0.81295 0.19726 0.0
C2050 C 0.66144 0.80288 0.18063 0.0
C2051 C 0.66647 0.8167 0.23318 0.0
C2052 C 0.66825 0.83682 0.23519 0.0
C2053 C 0.67283 0.80443 0.2483 0.0
C2054 C 0.67292 0.78304 0.24643 0.0
C2055 C 0.68304 0.77403 0.23124 0.0
C2056 C 0.68294 0.75389 0.22946 0.0
C2057 C 0.67292 0.74258 0.24289 0.0
C2058 C 0.66303 0.7514 0.25816 0.0
C2059 C 0.66306 0.77155 0.25998 0.0
H2060 H 0.67287 0.72699 0.24148 0.0
H2061 H 0.68195 0.92232 0.25745 0.0
H2062 H 0.73133 0.13596 0.7055 0.0
H2063 H 0.71486 0.14791 0.73437 0.0
H2064 H 0.67097 0.17426 0.69864 0.0
H2065 H 0.68735 0.16225 0.66962 0.0
H2066 H 0.71044 0.18576 0.74224 0.0
H2067 H 0.6287 0.17661 0.72539 0.0
H2068 H 0.60714 0.15369 0.70859 0.0
H2069 H 0.64802 0.10787 0.718 0.0
H2070 H 0.6697 0.13043 0.73509 0.0
H2071 H 0.65454 0.25188 0.79531 0.0
H2072 H 0.66605 0.23188 0.76853 0.0
H2073 H 0.6519 0.18033 0.8007 0.0
H2074 H 0.64031 0.20029 0.82762 0.0
H2075 H 0.64163 0.1782 0.7613 0.0
H2076 H 0.69661 0.19398 0.80078 0.0
H2077 H 0.71856 0.21578 0.81854 0.0
H2078 H 0.73237 0.24541 0.76574 0.0
H2079 H 0.71026 0.22397 0.74771 0.0
C2080 C 0.71798 0.144 0.70379 0.0
C2081 C 0.71068 0.14832 0.68532 0.0
C2082 C 0.70861 0.15083 0.7203 0.0
C2083 C 0.69173 0.16197 0.71863 0.0
C2084 C 0.68389 0.16552 0.70024 0.0
C2085 C 0.69328 0.15871 0.68368 0.0
C2086 C 0.68348 0.17143 0.73594 0.0
C2087 C 0.69542 0.18403 0.74645 0.0
C2088 C 0.66392 0.16903 0.74148 0.0
C2089 C 0.65091 0.15528 0.73137 0.0
C2090 C 0.63306 0.16163 0.72394 0.0
C2091 C 0.62082 0.1487 0.71436 0.0
C2092 C 0.62624 0.12935 0.71218 0.0
C2093 C 0.64388 0.12288 0.71963 0.0
C2094 C 0.65616 0.13574 0.72924 0.0
C2095 C 0.65373 0.2363 0.79662 0.0
C2096 C 0.64668 0.22762 0.81358 0.0
C2097 C 0.66032 0.22491 0.78134 0.0
C2098 C 0.65996 0.20467 0.78277 0.0
C2099 C 0.65227 0.19594 0.79938 0.0
C2100 C 0.64576 0.20734 0.81474 0.0
C2101 C 0.66853 0.19272 0.76728 0.0
C2102 C 0.65667 0.17978 0.75711 0.0
C2103 C 0.68824 0.19462 0.76213 0.0
C2104 C 0.70164 0.20747 0.77292 0.0
C2105 C 0.70421 0.20524 0.79298 0.0
C2106 C 0.7167 0.21752 0.80309 0.0
C2107 C 0.72682 0.232 0.79329 0.0
C2108 C 0.7245 0.2342 0.77333 0.0
C2109 C 0.71201 0.22198 0.76315 0.0
H2110 H 0.73649 0.24149 0.80114 0.0
H2111 H 0.61674 0.11936 0.70474 0.0
H2112 H 0.79637 0.82737 0.6617 0.0
H2113 H 0.81573 0.79824 0.66711 0.0
H2114 H 0.76825 0.76295 0.64712 0.0
H2115 H 0.74865 0.79196 0.64231 0.0
H2116 H 0.78285 0.74772 0.67797 0.0
H2117 H 0.80911 0.77147 0.61883 0.0
H2118 H 0.82334 0.79538 0.59654 0.0
H2119 H 0.87268 0.80126 0.63382 0.0
H2120 H 0.85861 0.77757 0.65649 0.0
H2121 H 0.83683 0.66242 0.67852 0.0
H2122 H 0.82195 0.68973 0.66163 0.0
H2123 H 0.85975 0.72911 0.69182 0.0
H2124 H 0.87462 0.70193 0.70883 0.0
H2125 H 0.84972 0.74066 0.65268 0.0
H2126 H 0.82091 0.71663 0.71236 0.0
H2127 H 0.80667 0.69066 0.73217 0.0
H2128 H 0.76042 0.68434 0.69119 0.0
H2129 H 0.77487 0.7097 0.67068 0.0
C2130 C 0.79009 0.81338 0.65847 0.0
C2131 C 0.77104 0.81189 0.65159 0.0
C2132 C 0.8012 0.79677 0.66142 0.0
C2133 C 0.79354 0.77842 0.65721 0.0
C2134 C 0.77446 0.77695 0.65042 0.0
C2135 C 0.76329 0.79353 0.64768 0.0
C2136 C 0.80519 0.76073 0.6605 0.0
C2137 C 0.79733 0.74606 0.67212 0.0
C2138 C 0.82418 0.75862 0.65305 0.0
C2139 C 0.83271 0.77286 0.63945 0.0
C2140 C 0.82292 0.77797 0.62236 0.0
C2141 C 0.83097 0.79146 0.60964 0.0
C2142 C 0.84888 0.79986 0.61378 0.0
C2143 C 0.8588 0.79475 0.63064 0.0
C2144 C 0.8508 0.78128 0.64342 0.0
C2145 C 0.84242 0.67683 0.68106 0.0
C2146 C 0.8566 0.68015 0.69523 0.0
C2147 C 0.83392 0.69239 0.6714 0.0
C2148 C 0.83959 0.71137 0.67577 0.0
C2149 C 0.85519 0.71453 0.68833 0.0
C2150 C 0.86358 0.69901 0.6981 0.0
C2151 C 0.82732 0.72787 0.67006 0.0
C2152 C 0.83512 0.74231 0.6582 0.0
C2153 C 0.80815 0.72968 0.67706 0.0
C2154 C 0.79918 0.71485 0.68979 0.0
C2155 C 0.80788 0.70951 0.7074 0.0
C2156 C 0.79981 0.69483 0.71873 0.0
C2157 C 0.78272 0.68576 0.71287 0.0
C2158 C 0.77371 0.69132 0.69566 0.0
C2159 C 0.78188 0.70578 0.68413 0.0
H2160 H 0.77635 0.67456 0.72172 0.0
H2161 H 0.8551 0.81031 0.60391 0.0
H2162 H 0.67497 0.3059 0.15801 0.0
H2163 H 0.70488 0.32162 0.16833 0.0
H2164 H 0.7382 0.27947 0.13653 0.0
H2165 H 0.7083 0.26349 0.12639 0.0
H2166 H 0.75047 0.28227 0.17283 0.0
H2167 H 0.73674 0.32672 0.12201 0.0
H2168 H 0.717 0.34923 0.10261 0.0
H2169 H 0.70995 0.38618 0.15202 0.0
H2170 H 0.72942 0.36376 0.17181 0.0
H2171 H 0.83888 0.32863 0.1979 0.0
H2172 H 0.81233 0.31684 0.17758 0.0
H2173 H 0.77183 0.35125 0.2103 0.0
H2174 H 0.79823 0.36298 0.23074 0.0
H2175 H 0.76547 0.35239 0.16994 0.0
H2176 H 0.77561 0.30608 0.22124 0.0
H2177 H 0.79465 0.28338 0.24112 0.0
H2178 H 0.80797 0.24981 0.19059 0.0
H2179 H 0.78922 0.2725 0.17036 0.0
C2180 C 0.68866 0.30019 0.15295 0.0
C2181 C 0.68933 0.28343 0.14149 0.0
C2182 C 0.70574 0.30923 0.15877 0.0
C2183 C 0.72377 0.30177 0.1531 0.0
C2184 C 0.72444 0.28545 0.14105 0.0
C2185 C 0.70736 0.27638 0.13525 0.0
C2186 C 0.74183 0.30991 0.16124 0.0
C2187 C 0.75398 0.29753 0.1718 0.0
C2188 C 0.74613 0.3299 0.16029 0.0
C2189 C 0.73444 0.34347 0.14843 0.0
C2190 C 0.73086 0.33957 0.12879 0.0
C2191 C 0.71974 0.35233 0.11771 0.0
C2192 C 0.7122 0.3691 0.12609 0.0
C2193 C 0.7158 0.37318 0.14555 0.0
C2194 C 0.7269 0.36046 0.1567 0.0
C2195 C 0.82434 0.33381 0.20063 0.0
C2196 C 0.82055 0.3466 0.21596 0.0
C2197 C 0.80923 0.32707 0.18904 0.0
C2198 C 0.79017 0.33313 0.19255 0.0
C2199 C 0.78647 0.34646 0.20738 0.0
C2200 C 0.80153 0.35306 0.21908 0.0
C2201 C 0.77389 0.32475 0.18156 0.0
C2202 C 0.76208 0.33708 0.1706 0.0
C2203 C 0.76985 0.30472 0.18213 0.0
C2204 C 0.78123 0.29113 0.19425 0.0
C2205 C 0.78277 0.29398 0.21434 0.0
C2206 C 0.79347 0.28109 0.22568 0.0
C2207 C 0.80257 0.26519 0.21711 0.0
C2208 C 0.80095 0.26215 0.1972 0.0
C2209 C 0.79029 0.27502 0.18579 0.0
H2210 H 0.81081 0.25521 0.22592 0.0
H2211 H 0.70359 0.37897 0.11749 0.0
H2212 H 0.18126 0.30988 0.74201 0.0
H2213 H 0.19202 0.28157 0.72375 0.0
H2214 H 0.14629 0.29063 0.6823 0.0
H2215 H 0.13566 0.31945 0.7003 0.0
H2216 H 0.15401 0.24904 0.70142 0.0
H2217 H 0.18157 0.30127 0.6637 0.0
H2218 H 0.19929 0.33199 0.65994 0.0
H2219 H 0.2492 0.3069 0.68715 0.0
H2220 H 0.23165 0.27611 0.69134 0.0
H2221 H 0.19626 0.17447 0.6429 0.0
H2222 H 0.17919 0.20374 0.65344 0.0
H2223 H 0.23046 0.22255 0.68378 0.0
H2224 H 0.2477 0.19392 0.6726 0.0
H2225 H 0.21612 0.25151 0.66549 0.0
H2226 H 0.18998 0.20183 0.7069 0.0
H2227 H 0.17356 0.17105 0.7143 0.0
H2228 H 0.12276 0.19055 0.6843 0.0
H2229 H 0.13898 0.22138 0.67652 0.0
C2230 C 0.17348 0.30586 0.72901 0.0
C2231 C 0.15768 0.31683 0.7225 0.0
C2232 C 0.17964 0.28973 0.71863 0.0
C2233 C 0.16991 0.28415 0.70176 0.0
C2234 C 0.1539 0.29482 0.69534 0.0
C2235 C 0.14794 0.31124 0.70555 0.0
C2236 C 0.17694 0.26725 0.69088 0.0
C2237 C 0.16733 0.24955 0.69313 0.0
C2238 C 0.19458 0.26802 0.68065 0.0
C2239 C 0.20523 0.28645 0.67797 0.0
C2240 C 0.19626 0.30236 0.66903 0.0
C2241 C 0.20629 0.31977 0.66679 0.0
C2242 C 0.22535 0.32141 0.67334 0.0
C2243 C 0.23443 0.30561 0.68209 0.0
C2244 C 0.22446 0.28817 0.68438 0.0
C2245 C 0.20381 0.1849 0.65183 0.0
C2246 C 0.22326 0.182 0.65694 0.0
C2247 C 0.19405 0.20155 0.6579 0.0
C2248 C 0.2035 0.21529 0.66952 0.0
C2249 C 0.2229 0.21224 0.67472 0.0
C2250 C 0.23272 0.19584 0.66839 0.0
C2251 C 0.19345 0.23298 0.6763 0.0
C2252 C 0.20254 0.2509 0.67335 0.0
C2253 C 0.17553 0.2323 0.68624 0.0
C2254 C 0.16577 0.2138 0.69092 0.0
C2255 C 0.17536 0.19949 0.70175 0.0
C2256 C 0.16608 0.18205 0.70604 0.0
C2257 C 0.14715 0.17882 0.69972 0.0
C2258 C 0.13743 0.19306 0.68915 0.0
C2259 C 0.14666 0.21052 0.6848 0.0
H2260 H 0.13999 0.16531 0.70306 0.0
H2261 H 0.23308 0.3349 0.67159 0.0
H2262 H 0.19821 0.66188 0.2435 0.0
H2263 H 0.22617 0.6736 0.22545 0.0
H2264 H 0.19915 0.65615 0.17195 0.0
H2265 H 0.17081 0.64477 0.18996 0.0
H2266 H 0.25196 0.65714 0.20264 0.0
H2267 H 0.21177 0.68883 0.13691 0.0
H2268 H 0.17954 0.70166 0.12836 0.0
H2269 H 0.1703 0.71868 0.18737 0.0
H2270 H 0.20254 0.70618 0.1962 0.0
H2271 H 0.32445 0.69502 0.13984 0.0
H2272 H 0.29598 0.67686 0.15073 0.0
H2273 H 0.26907 0.73014 0.16913 0.0
H2274 H 0.297 0.74828 0.15768 0.0
H2275 H 0.24317 0.7081 0.15288 0.0
H2276 H 0.29337 0.69958 0.20102 0.0
H2277 H 0.32569 0.68979 0.21259 0.0
H2278 H 0.31502 0.63149 0.19404 0.0
H2279 H 0.28271 0.64101 0.18215 0.0
C2280 C 0.19823 0.66049 0.22789 0.0
C2281 C 0.1823 0.65256 0.2181 0.0
C2282 C 0.21426 0.66709 0.21761 0.0
C2283 C 0.21469 0.66586 0.19736 0.0
C2284 C 0.199 0.65746 0.18756 0.0
C2285 C 0.18286 0.65096 0.19785 0.0
C2286 C 0.23128 0.67414 0.18665 0.0
C2287 C 0.25004 0.66816 0.19163 0.0
C2288 C 0.22878 0.68862 0.17241 0.0
C2289 C 0.20945 0.69635 0.16724 0.0
C2290 C 0.20286 0.69535 0.14804 0.0
C2291 C 0.1846 0.70256 0.14314 0.0
C2292 C 0.17285 0.71091 0.15733 0.0
C2293 C 0.17937 0.71214 0.17642 0.0
C2294 C 0.19763 0.70497 0.18138 0.0
C2295 C 0.31237 0.70281 0.14607 0.0
C2296 C 0.31296 0.72302 0.14807 0.0
C2297 C 0.29616 0.69244 0.15232 0.0
C2298 C 0.28049 0.70213 0.16093 0.0
C2299 C 0.28094 0.72236 0.16247 0.0
C2300 C 0.29697 0.7327 0.15604 0.0
C2301 C 0.26388 0.69138 0.16915 0.0
C2302 C 0.2451 0.69681 0.16362 0.0
C2303 C 0.26637 0.67679 0.18329 0.0
C2304 C 0.28574 0.67105 0.19051 0.0
C2305 C 0.29798 0.68471 0.19929 0.0
C2306 C 0.31629 0.6792 0.20593 0.0
C2307 C 0.32243 0.66004 0.204 0.0
C2308 C 0.31026 0.64633 0.19549 0.0
C2309 C 0.29195 0.65177 0.18881 0.0
H2310 H 0.33661 0.6558 0.20914 0.0
H2311 H 0.15871 0.71647 0.15351 0.0
H2312 H 0.841 0.32646 0.30981 0.0
H2313 H 0.83154 0.29584 0.32472 0.0
H2314 H 0.86788 0.26488 0.2845 0.0
H2315 H 0.87733 0.29545 0.26946 0.0
H2316 H 0.8306 0.2526 0.28388 0.0
H2317 H 0.87882 0.26457 0.33188 0.0
H2318 H 0.89637 0.28353 0.35646 0.0
H2319 H 0.84463 0.28781 0.39057 0.0
H2320 H 0.82668 0.26911 0.36607 0.0
H2321 H 0.80207 0.16206 0.32294 0.0
H2322 H 0.82259 0.18916 0.31297 0.0
H2323 H 0.79135 0.22706 0.3515 0.0
H2324 H 0.77093 0.20006 0.36164 0.0
H2325 H 0.82996 0.23374 0.35309 0.0
H2326 H 0.78091 0.2274 0.30416 0.0
H2327 H 0.76139 0.21121 0.2791 0.0
H2328 H 0.81292 0.19843 0.24681 0.0
H2329 H 0.83276 0.21454 0.27175 0.0
C2330 C 0.84731 0.31316 0.30444 0.0
C2331 C 0.85976 0.31329 0.28838 0.0
C2332 C 0.84198 0.29569 0.31303 0.0
C2333 C 0.84905 0.27812 0.30572 0.0
C2334 C 0.86229 0.27831 0.29034 0.0
C2335 C 0.86768 0.29577 0.2818 0.0
C2336 C 0.84076 0.25963 0.31249 0.0
C2337 C 0.83089 0.2482 0.29894 0.0
C2338 C 0.8406 0.25432 0.33224 0.0
C2339 C 0.85137 0.26553 0.34705 0.0
C2340 C 0.87114 0.26968 0.34455 0.0
C2341 C 0.88117 0.28036 0.35848 0.0
C2342 C 0.87161 0.2869 0.37505 0.0
C2343 C 0.85201 0.28274 0.37773 0.0
C2344 C 0.84191 0.27207 0.36384 0.0
C2345 C 0.79968 0.17615 0.32936 0.0
C2346 C 0.78486 0.17901 0.34297 0.0
C2347 C 0.81136 0.1916 0.32363 0.0
C2348 C 0.80836 0.21012 0.3314 0.0
C2349 C 0.79391 0.21287 0.34537 0.0
C2350 C 0.78221 0.19746 0.35107 0.0
C2351 C 0.81975 0.22684 0.32447 0.0
C2352 C 0.83007 0.23795 0.33798 0.0
C2353 C 0.82014 0.23206 0.30471 0.0
C2354 C 0.80833 0.22192 0.28995 0.0
C2355 C 0.78809 0.22094 0.29182 0.0
C2356 C 0.77697 0.21184 0.27761 0.0
C2357 C 0.78592 0.20369 0.26142 0.0
C2358 C 0.80601 0.20469 0.25939 0.0
C2359 C 0.8172 0.21383 0.27354 0.0
H2360 H 0.77728 0.19669 0.2504 0.0
H2361 H 0.8794 0.29517 0.38582 0.0
H2362 H 0.1747 0.3509 0.81367 0.0
H2363 H 0.20498 0.34462 0.83059 0.0
H2364 H 0.23559 0.38023 0.78946 0.0
H2365 H 0.20528 0.38627 0.77218 0.0
H2366 H 0.25095 0.34568 0.79115 0.0
H2367 H 0.23391 0.39255 0.83797 0.0
H2368 H 0.21308 0.40994 0.8611 0.0
H2369 H 0.20785 0.35854 0.89554 0.0
H2370 H 0.22841 0.34073 0.87247 0.0
H2371 H 0.3359 0.3104 0.83685 0.0
H2372 H 0.31202 0.33473 0.82706 0.0
H2373 H 0.26758 0.30363 0.85791 0.0
H2374 H 0.29131 0.2794 0.86783 0.0
H2375 H 0.26369 0.34331 0.86172 0.0
H2376 H 0.27396 0.2957 0.81084 0.0
H2377 H 0.29384 0.27763 0.78734 0.0
H2378 H 0.31098 0.3309 0.76041 0.0
H2379 H 0.29139 0.3493 0.78394 0.0
C2380 C 0.18779 0.35781 0.80851 0.0
C2381 C 0.18769 0.36888 0.79149 0.0
C2382 C 0.2051 0.35432 0.81829 0.0
C2383 C 0.22257 0.36201 0.81134 0.0
C2384 C 0.22228 0.37416 0.79507 0.0
C2385 C 0.20496 0.3776 0.78524 0.0
C2386 C 0.24119 0.35495 0.8193 0.0
C2387 C 0.25401 0.34571 0.80654 0.0
C2388 C 0.24502 0.35463 0.8394 0.0
C2389 C 0.23267 0.36528 0.85341 0.0
C2390 C 0.22822 0.3849 0.8504 0.0
C2391 C 0.21647 0.39485 0.86352 0.0
C2392 C 0.20913 0.38534 0.87977 0.0
C2393 C 0.21355 0.36588 0.88295 0.0
C2394 C 0.22529 0.35587 0.86987 0.0
C2395 C 0.32108 0.30891 0.84174 0.0
C2396 C 0.31538 0.29291 0.85291 0.0
C2397 C 0.3075 0.32281 0.83617 0.0
C2398 C 0.28804 0.32087 0.84166 0.0
C2399 C 0.28254 0.30541 0.85358 0.0
C2400 C 0.29608 0.29151 0.85911 0.0
C2401 C 0.27297 0.33374 0.83359 0.0
C2402 C 0.26085 0.34391 0.8463 0.0
C2403 C 0.2697 0.33492 0.81343 0.0
C2404 C 0.28145 0.32387 0.79929 0.0
C2405 C 0.28211 0.30356 0.80001 0.0
C2406 C 0.29329 0.29326 0.78667 0.0
C2407 C 0.30372 0.30311 0.77244 0.0
C2408 C 0.30294 0.32329 0.77148 0.0
C2409 C 0.2918 0.33366 0.78481 0.0
H2410 H 0.31237 0.29512 0.76212 0.0
H2411 H 0.20003 0.39306 0.88991 0.0
H2412 H 0.1846 0.82305 0.32947 0.0
H2413 H 0.16365 0.79542 0.32266 0.0
H2414 H 0.18713 0.76533 0.37207 0.0
H2415 H 0.20844 0.79274 0.37866 0.0
H2416 H 0.18993 0.74411 0.34085 0.0
H2417 H 0.13905 0.78008 0.37054 0.0
H2418 H 0.11834 0.80848 0.3766 0.0
H2419 H 0.09839 0.80693 0.31781 0.0
H2420 H 0.11918 0.77868 0.31131 0.0
H2421 H 0.13844 0.66164 0.31471 0.0
H2422 H 0.14523 0.68942 0.33555 0.0
H2423 H 0.12887 0.72812 0.2894 0.0
H2424 H 0.1216 0.70048 0.2687 0.0
H2425 H 0.12001 0.74354 0.32454 0.0
H2426 H 0.17503 0.71318 0.29336 0.0
H2427 H 0.19644 0.68571 0.28553 0.0
H2428 H 0.20928 0.67813 0.34583 0.0
H2429 H 0.1877 0.7054 0.35402 0.0
C2430 C 0.18502 0.81069 0.33908 0.0
C2431 C 0.19826 0.80993 0.35447 0.0
C2432 C 0.17294 0.79496 0.33527 0.0
C2433 C 0.17372 0.77835 0.34694 0.0
C2434 C 0.18627 0.77801 0.3629 0.0
C2435 C 0.19845 0.79366 0.36662 0.0
C2436 C 0.16339 0.76053 0.34104 0.0
C2437 C 0.17452 0.74386 0.33781 0.0
C2438 C 0.14341 0.76037 0.33654 0.0
C2439 C 0.13078 0.77731 0.34042 0.0
C2440 C 0.13035 0.78587 0.35887 0.0
C2441 C 0.11857 0.80193 0.36239 0.0
C2442 C 0.10708 0.80952 0.3476 0.0
C2443 C 0.1073 0.80103 0.32926 0.0
C2444 C 0.11906 0.78497 0.32566 0.0
C2445 C 0.13579 0.67607 0.30921 0.0
C2446 C 0.12985 0.67894 0.28999 0.0
C2447 C 0.13967 0.69191 0.32111 0.0
C2448 C 0.13794 0.7108 0.31386 0.0
C2449 C 0.13035 0.71366 0.29526 0.0
C2450 C 0.12631 0.69784 0.28341 0.0
C2451 C 0.14662 0.72733 0.32431 0.0
C2452 C 0.13528 0.74373 0.32817 0.0
C2453 C 0.16649 0.72742 0.32924 0.0
C2454 C 0.17959 0.71115 0.32432 0.0
C2455 C 0.18232 0.70556 0.30495 0.0
C2456 C 0.19449 0.69004 0.30045 0.0
C2457 C 0.20417 0.68014 0.31518 0.0
C2458 C 0.20174 0.68578 0.33444 0.0
C2459 C 0.18954 0.70126 0.33902 0.0
H2460 H 0.21358 0.66813 0.31167 0.0
H2461 H 0.09797 0.82196 0.35035 0.0
H2462 H 0.79685 0.64885 0.74034 0.0
H2463 H 0.76698 0.66016 0.75559 0.0
H2464 H 0.7983 0.67246 0.80811 0.0
H2465 H 0.82842 0.66151 0.7928 0.0
H2466 H 0.76256 0.6507 0.81263 0.0
H2467 H 0.78702 0.70878 0.7837 0.0
H2468 H 0.79904 0.73081 0.75838 0.0
H2469 H 0.74686 0.72238 0.72577 0.0
H2470 H 0.73462 0.70006 0.75078 0.0
H2471 H 0.6921 0.70832 0.86076 0.0
H2472 H 0.72078 0.69353 0.8464 0.0
H2473 H 0.69222 0.69187 0.7909 0.0
H2474 H 0.66362 0.70711 0.80512 0.0
H2475 H 0.72672 0.70771 0.78782 0.0
H2476 H 0.70169 0.65023 0.81693 0.0
H2477 H 0.6887 0.6299 0.84319 0.0
H2478 H 0.74128 0.63732 0.87542 0.0
H2479 H 0.7545 0.65793 0.84946 0.0
C2480 C 0.79738 0.65396 0.75514 0.0
C2481 C 0.81493 0.65435 0.7654 0.0
C2482 C 0.78035 0.66048 0.76378 0.0
C2483 C 0.78055 0.66724 0.78287 0.0
C2484 C 0.79795 0.66732 0.79331 0.0
C2485 C 0.81509 0.66109 0.78457 0.0
C2486 C 0.76244 0.67397 0.79194 0.0
C2487 C 0.75479 0.6633 0.8074 0.0
C2488 C 0.75216 0.69008 0.78467 0.0
C2489 C 0.75998 0.70258 0.76905 0.0
C2490 C 0.77821 0.71139 0.77101 0.0
C2491 C 0.78501 0.72405 0.75678 0.0
C2492 C 0.77365 0.7281 0.74055 0.0
C2493 C 0.75557 0.71933 0.73842 0.0
C2494 C 0.74872 0.70665 0.7526 0.0
C2495 C 0.69182 0.70452 0.84556 0.0
C2496 C 0.67568 0.70893 0.83402 0.0
C2497 C 0.70819 0.69598 0.83739 0.0
C2498 C 0.70861 0.6915 0.81759 0.0
C2499 C 0.69221 0.69524 0.8062 0.0
C2500 C 0.67587 0.70389 0.81434 0.0
C2501 C 0.72665 0.68438 0.80848 0.0
C2502 C 0.73435 0.69501 0.793 0.0
C2503 C 0.73691 0.66819 0.81568 0.0
C2504 C 0.72901 0.65577 0.83132 0.0
C2505 C 0.71042 0.64766 0.82969 0.0
C2506 C 0.70303 0.63606 0.8445 0.0
C2507 C 0.71414 0.63236 0.86098 0.0
C2508 C 0.73269 0.64022 0.86265 0.0
C2509 C 0.74015 0.65184 0.84788 0.0
H2510 H 0.70839 0.62337 0.87243 0.0
H2511 H 0.77893 0.73791 0.72955 0.0
H2512 H 0.72601 0.8727 0.70799 0.0
H2513 H 0.70898 0.86577 0.73812 0.0
H2514 H 0.66068 0.843 0.70587 0.0
H2515 H 0.67767 0.84989 0.67551 0.0
H2516 H 0.65061 0.8637 0.74188 0.0
H2517 H 0.69124 0.81229 0.71729 0.0
H2518 H 0.72163 0.79871 0.70443 0.0
H2519 H 0.75138 0.81527 0.75638 0.0
H2520 H 0.7212 0.82928 0.76939 0.0
H2521 H 0.61573 0.78858 0.80407 0.0
H2522 H 0.62587 0.8113 0.77894 0.0
H2523 H 0.67756 0.82429 0.81145 0.0
H2524 H 0.66768 0.80137 0.83643 0.0
H2525 H 0.68583 0.81144 0.77631 0.0
H2526 H 0.64358 0.85908 0.80285 0.0
H2527 H 0.61295 0.87234 0.81542 0.0
H2528 H 0.58571 0.86248 0.76049 0.0
H2529 H 0.61611 0.84888 0.74765 0.0
C2530 C 0.71158 0.86663 0.70727 0.0
C2531 C 0.70328 0.86149 0.68945 0.0
C2532 C 0.70185 0.86278 0.72449 0.0
C2533 C 0.68371 0.85373 0.72413 0.0
C2534 C 0.67467 0.85005 0.70635 0.0
C2535 C 0.68444 0.85386 0.68907 0.0
C2536 C 0.67578 0.84537 0.74206 0.0
C2537 C 0.65816 0.8522 0.74944 0.0
C2538 C 0.6859 0.83059 0.75193 0.0
C2539 C 0.70403 0.82205 0.7442 0.0
C2540 C 0.70431 0.8132 0.72588 0.0
C2541 C 0.72148 0.8054 0.71858 0.0
C2542 C 0.73844 0.80618 0.72955 0.0
C2543 C 0.73824 0.81472 0.74787 0.0
C2544 C 0.72111 0.8226 0.75522 0.0
C2545 C 0.62901 0.79666 0.80607 0.0
C2546 C 0.64108 0.79303 0.82202 0.0
C2547 C 0.63473 0.80972 0.79176 0.0
C2548 C 0.65248 0.81945 0.79333 0.0
C2549 C 0.66383 0.81688 0.80997 0.0
C2550 C 0.65818 0.80377 0.8242 0.0
C2551 C 0.66059 0.82982 0.77648 0.0
C2552 C 0.67829 0.82318 0.76909 0.0
C2553 C 0.65044 0.84466 0.76667 0.0
C2554 C 0.6321 0.8528 0.77434 0.0
C2555 C 0.63102 0.85957 0.79349 0.0
C2556 C 0.6137 0.86719 0.80066 0.0
C2557 C 0.59738 0.86821 0.78878 0.0
C2558 C 0.59836 0.86166 0.76969 0.0
C2559 C 0.61564 0.85402 0.76245 0.0
H2560 H 0.58399 0.87412 0.79435 0.0
H2561 H 0.75173 0.80012 0.72388 0.0
H2562 H 0.71752 0.11956 0.29608 0.0
H2563 H 0.69887 0.12903 0.26758 0.0
H2564 H 0.67554 0.17774 0.29889 0.0
H2565 H 0.69379 0.16804 0.32763 0.0
H2566 H 0.64901 0.16274 0.27391 0.0
H2567 H 0.71594 0.18204 0.27284 0.0
H2568 H 0.75108 0.17623 0.27451 0.0
H2569 H 0.74794 0.14035 0.22395 0.0
H2570 H 0.71261 0.14532 0.2224 0.0
H2571 H 0.63718 0.23447 0.20146 0.0
H2572 H 0.64523 0.21435 0.22936 0.0
H2573 H 0.66474 0.16897 0.19121 0.0
H2574 H 0.6568 0.18911 0.16317 0.0
H2575 H 0.69153 0.17843 0.21823 0.0
H2576 H 0.62428 0.16261 0.21761 0.0
H2577 H 0.58923 0.16917 0.21662 0.0
H2578 H 0.59325 0.20057 0.27004 0.0
H2579 H 0.62839 0.19444 0.27122 0.0
C2580 C 0.70812 0.13207 0.297 0.0
C2581 C 0.70731 0.14327 0.31392 0.0
C2582 C 0.69747 0.13744 0.28073 0.0
C2583 C 0.68615 0.15429 0.28104 0.0
C2584 C 0.68425 0.16471 0.29836 0.0
C2585 C 0.69474 0.15921 0.31472 0.0
C2586 C 0.67815 0.16229 0.26288 0.0
C2587 C 0.65827 0.16624 0.26173 0.0
C2588 C 0.69026 0.16657 0.24693 0.0
C2589 C 0.71157 0.16385 0.24765 0.0
C2590 C 0.7227 0.17277 0.26217 0.0
C2591 C 0.74266 0.16964 0.2631 0.0
C2592 C 0.75175 0.15797 0.24933 0.0
C2593 C 0.74088 0.14937 0.23462 0.0
C2594 C 0.72087 0.15228 0.23375 0.0
C2595 C 0.64294 0.2201 0.19901 0.0
C2596 C 0.64648 0.21338 0.18017 0.0
C2597 C 0.64741 0.20858 0.21496 0.0
C2598 C 0.65544 0.19013 0.21232 0.0
C2599 C 0.65848 0.18316 0.19351 0.0
C2600 C 0.65395 0.19466 0.17753 0.0
C2601 C 0.66236 0.17898 0.22922 0.0
C2602 C 0.68214 0.17458 0.23021 0.0
C2603 C 0.65018 0.17451 0.24504 0.0
C2604 C 0.62902 0.17817 0.24443 0.0
C2605 C 0.61773 0.17104 0.22907 0.0
C2606 C 0.59783 0.17466 0.22849 0.0
C2607 C 0.58902 0.18531 0.24324 0.0
C2608 C 0.60009 0.19233 0.25862 0.0
C2609 C 0.62 0.18876 0.25927 0.0
H2610 H 0.57362 0.1881 0.24276 0.0
H2611 H 0.76722 0.15562 0.25004 0.0
H2612 H 0.26979 0.11509 0.70444 0.0
H2613 H 0.28447 0.12405 0.73533 0.0
H2614 H 0.32648 0.15909 0.70531 0.0
H2615 H 0.31209 0.14994 0.67435 0.0
H2616 H 0.34175 0.1428 0.73818 0.0
H2617 H 0.2852 0.17915 0.71924 0.0
H2618 H 0.25123 0.183 0.70899 0.0
H2619 H 0.23201 0.1557 0.76135 0.0
H2620 H 0.26592 0.15145 0.77179 0.0
H2621 H 0.35831 0.22295 0.79964 0.0
H2622 H 0.34975 0.20072 0.77354 0.0
H2623 H 0.31168 0.16982 0.81214 0.0
H2624 H 0.3202 0.19206 0.8384 0.0
H2625 H 0.29443 0.17973 0.77763 0.0
H2626 H 0.35276 0.14883 0.79837 0.0
H2627 H 0.38718 0.1471 0.80757 0.0
H2628 H 0.40365 0.16651 0.75093 0.0
H2629 H 0.36931 0.16864 0.74146 0.0
C2630 C 0.2825 0.12425 0.70439 0.0
C2631 C 0.28961 0.1321 0.68705 0.0
C2632 C 0.29084 0.12938 0.72204 0.0
C2633 C 0.30626 0.14256 0.72257 0.0
C2634 C 0.31452 0.14896 0.70518 0.0
C2635 C 0.30625 0.14376 0.68751 0.0
C2636 C 0.31203 0.15172 0.74101 0.0
C2637 C 0.33145 0.15089 0.74683 0.0
C2638 C 0.29848 0.16209 0.75235 0.0
C2639 C 0.27809 0.16477 0.74618 0.0
C2640 C 0.27373 0.17384 0.72849 0.0
C2641 C 0.25449 0.17611 0.72265 0.0
C2642 C 0.23947 0.16954 0.73447 0.0
C2643 C 0.24367 0.16074 0.75219 0.0
C2644 C 0.26289 0.1584 0.75808 0.0
C2645 C 0.34821 0.21134 0.80261 0.0
C2646 C 0.33987 0.20924 0.82101 0.0
C2647 C 0.34344 0.19859 0.78773 0.0
C2648 C 0.33026 0.18351 0.791 0.0
C2649 C 0.32197 0.18131 0.80939 0.0
C2650 C 0.32684 0.19401 0.82434 0.0
C2651 C 0.3242 0.17095 0.7748 0.0
C2652 C 0.30469 0.17127 0.76929 0.0
C2653 C 0.33774 0.16038 0.76365 0.0
C2654 C 0.35843 0.15902 0.76925 0.0
C2655 C 0.36371 0.15287 0.78792 0.0
C2656 C 0.38321 0.15179 0.79317 0.0
C2657 C 0.39759 0.15672 0.77986 0.0
C2658 C 0.3925 0.1627 0.76124 0.0
C2659 C 0.37301 0.16382 0.75591 0.0
H2660 H 0.41269 0.15588 0.78396 0.0
H2661 H 0.22459 0.17132 0.72993 0.0
H2662 H 0.29726 0.82297 0.32929 0.0
H2663 H 0.31795 0.81601 0.30141 0.0
H2664 H 0.2813 0.85142 0.26534 0.0
H2665 H 0.26042 0.8582 0.29305 0.0
H2666 H 0.28809 0.81688 0.2493 0.0
H2667 H 0.32623 0.86681 0.27897 0.0
H2668 H 0.34384 0.88275 0.30558 0.0
H2669 H 0.38199 0.83392 0.31005 0.0
H2670 H 0.36444 0.81756 0.28364 0.0
H2671 H 0.34315 0.81419 0.16579 0.0
H2672 H 0.33114 0.82977 0.19513 0.0
H2673 H 0.36166 0.78801 0.23002 0.0
H2674 H 0.37372 0.77224 0.20069 0.0
H2675 H 0.35917 0.827 0.24656 0.0
H2676 H 0.31968 0.77588 0.22023 0.0
H2677 H 0.30242 0.75877 0.19414 0.0
H2678 H 0.26694 0.80884 0.18435 0.0
H2679 H 0.28421 0.82634 0.21026 0.0
C2680 C 0.29369 0.82934 0.31543 0.0
C2681 C 0.27721 0.84104 0.31328 0.0
C2682 C 0.30559 0.82547 0.29957 0.0
C2683 C 0.30125 0.83337 0.28138 0.0
C2684 C 0.28491 0.84523 0.27928 0.0
C2685 C 0.273 0.84907 0.2951 0.0
C2686 C 0.31299 0.82827 0.26424 0.0
C2687 C 0.30356 0.81944 0.2486 0.0
C2688 C 0.33328 0.83106 0.26359 0.0
C2689 C 0.3439 0.84089 0.27943 0.0
C2690 C 0.33828 0.8594 0.28573 0.0
C2691 C 0.34827 0.86852 0.30076 0.0
C2692 C 0.36399 0.85933 0.30953 0.0
C2693 C 0.36979 0.84101 0.30326 0.0
C2694 C 0.35984 0.83182 0.28824 0.0
C2695 C 0.3478 0.80867 0.1797 0.0
C2696 C 0.35906 0.79181 0.181 0.0
C2697 C 0.34094 0.8176 0.19642 0.0
C2698 C 0.34533 0.80982 0.21463 0.0
C2699 C 0.35815 0.79417 0.21604 0.0
C2700 C 0.36493 0.78514 0.19929 0.0
C2701 C 0.33414 0.81595 0.23171 0.0
C2702 C 0.34365 0.82474 0.2473 0.0
C2703 C 0.31391 0.81301 0.23248 0.0
C2704 C 0.30338 0.80249 0.21701 0.0
C2705 C 0.30831 0.7833 0.2124 0.0
C2706 C 0.29851 0.77352 0.19766 0.0
C2707 C 0.28363 0.78273 0.18754 0.0
C2708 C 0.2785 0.80173 0.19218 0.0
C2709 C 0.28827 0.81159 0.2069 0.0
H2710 H 0.27604 0.77514 0.17615 0.0
H2711 H 0.3717 0.86641 0.32117 0.0
loop_
_geom_bond_atom_site_label_1
_geom_bond_atom_site_label_2
_geom_bond_distance
_geom_bond_site_symmetry_2
_ccdc_geom_bond_type
In0 O1 2.294 . S
In0 O2 2.326 . S
In0 O6 2.266 . S
In0 O7 2.326 . S
In0 O8 2.266 . S
In0 O9 2.326 . S
In0 O11 2.294 . S
In0 O12 2.326 . S
O1 In0 2.294 . S
O1 C10 1.240 . S
O2 In0 2.326 . S
O2 C10 1.252 . S
C3 O6 1.252 . S
C3 O7 1.260 . S
C4 O11 1.240 . S
C4 O12 1.252 . S
C5 O8 1.252 . S
C5 O9 1.260 . S
O6 In0 2.266 . S
O6 C3 1.252 . S
O7 In0 2.326 . S
O7 C3 1.260 . S
O8 In0 2.266 . S
O8 C5 1.252 . S
O9 In0 2.326 . S
O9 C5 1.260 . S
C10 O1 1.240 . S
C10 O2 1.252 . S
O11 In0 2.294 . S
O11 C4 1.240 . S
O12 In0 2.326 . S
O12 C4 1.252 . S
In13 O14 2.294 . S
In13 O15 2.326 . S
In13 O19 2.266 . S
In13 O20 2.326 . S
In13 O21 2.266 . S
In13 O22 2.326 . S
In13 O24 2.294 . S
In13 O25 2.326 . S
O14 In13 2.294 . S
O14 C23 1.240 . S
O15 In13 2.326 . S
O15 C23 1.252 . S
C16 O19 1.252 . S
C16 O20 1.260 . S
C17 O24 1.240 . S
C17 O25 1.252 . S
C18 O21 1.252 . S
C18 O22 1.260 . S
O19 In13 2.266 . S
O19 C16 1.252 . S
O20 In13 2.326 . S
O20 C16 1.260 . S
O21 In13 2.266 . S
O21 C18 1.252 . S
O22 In13 2.326 . S
O22 C18 1.260 . S
C23 O14 1.240 . S
C23 O15 1.252 . S
O24 In13 2.294 . S
O24 C17 1.240 . S
O25 In13 2.326 . S
O25 C17 1.252 . S
In26 O27 2.294 . S
In26 O28 2.326 . S
In26 O32 2.266 . S
In26 O33 2.326 . S
In26 O34 2.266 . S
In26 O35 2.326 . S
In26 O37 2.294 . S
In26 O38 2.326 . S
O27 In26 2.294 . S
O27 C36 1.240 . S
O28 In26 2.326 . S
O28 C36 1.252 . S
C29 O32 1.252 . S
C29 O33 1.260 . S
C30 O37 1.240 . S
C30 O38 1.252 . S
C31 O34 1.252 . S
C31 O35 1.260 . S
O32 In26 2.266 . S
O32 C29 1.252 . S
O33 In26 2.326 . S
O33 C29 1.260 . S
O34 In26 2.266 . S
O34 C31 1.252 . S
O35 In26 2.326 . S
O35 C31 1.260 . S
C36 O27 1.240 . S
C36 O28 1.252 . S
O37 In26 2.294 . S
O37 C30 1.240 . S
O38 In26 2.326 . S
O38 C30 1.252 . S
In39 O40 2.294 . S
In39 O41 2.326 . S
In39 O45 2.266 . S
In39 O46 2.326 . S
In39 O47 2.266 . S
In39 O48 2.326 . S
In39 O50 2.294 . S
In39 O51 2.326 . S
O40 In39 2.294 . S
O40 C49 1.240 . S
O41 In39 2.326 . S
O41 C49 1.252 . S
C42 O45 1.252 . S
C42 O46 1.260 . S
C43 O50 1.240 . S
C43 O51 1.252 . S
C44 O47 1.252 . S
C44 O48 1.260 . S
O45 In39 2.266 . S
O45 C42 1.252 . S
O46 In39 2.326 . S
O46 C42 1.260 . S
O47 In39 2.266 . S
O47 C44 1.252 . S
O48 In39 2.326 . S
O48 C44 1.260 . S
C49 O40 1.240 . S
C49 O41 1.252 . S
O50 In39 2.294 . S
O50 C43 1.240 . S
O51 In39 2.326 . S
O51 C43 1.252 . S
In52 O53 2.294 . S
In52 O54 2.326 . S
In52 O58 2.266 . S
In52 O59 2.326 . S
In52 O60 2.266 . S
In52 O61 2.326 . S
In52 O63 2.294 . S
In52 O64 2.326 . S
O53 In52 2.294 . S
O53 C62 1.240 . S
O54 In52 2.326 . S
O54 C62 1.252 . S
C55 O58 1.252 . S
C55 O59 1.260 . S
C56 O63 1.240 . S
C56 O64 1.252 . S
C57 O60 1.252 . S
C57 O61 1.260 . S
O58 In52 2.266 . S
O58 C55 1.252 . S
O59 In52 2.326 . S
O59 C55 1.260 . S
O60 In52 2.266 . S
O60 C57 1.252 . S
O61 In52 2.326 . S
O61 C57 1.260 . S
C62 O53 1.240 . S
C62 O54 1.252 . S
O63 In52 2.294 . S
O63 C56 1.240 . S
O64 In52 2.326 . S
O64 C56 1.252 . S
In65 O66 2.294 . S
In65 O67 2.326 . S
In65 O71 2.266 . S
In65 O72 2.326 . S
In65 O73 2.266 . S
In65 O74 2.326 . S
In65 O76 2.294 . S
In65 O77 2.326 . S
O66 In65 2.294 . S
O66 C75 1.240 . S
O67 In65 2.326 . S
O67 C75 1.252 . S
C68 O71 1.252 . S
C68 O72 1.260 . S
C69 O76 1.240 . S
C69 O77 1.252 . S
C70 O73 1.252 . S
C70 O74 1.260 . S
O71 In65 2.266 . S
O71 C68 1.252 . S
O72 In65 2.326 . S
O72 C68 1.260 . S
O73 In65 2.266 . S
O73 C70 1.252 . S
O74 In65 2.326 . S
O74 C70 1.260 . S
C75 O66 1.240 . S
C75 O67 1.252 . S
O76 In65 2.294 . S
O76 C69 1.240 . S
O77 In65 2.326 . S
O77 C69 1.252 . S
In78 O79 2.294 . S
In78 O80 2.326 . S
In78 O84 2.266 . S
In78 O85 2.326 . S
In78 O86 2.266 . S
In78 O87 2.326 . S
In78 O89 2.294 . S
In78 O90 2.326 . S
O79 In78 2.294 . S
O79 C88 1.240 . S
O80 In78 2.326 . S
O80 C88 1.252 . S
C81 O84 1.252 . S
C81 O85 1.260 . S
C82 O89 1.240 . S
C82 O90 1.252 . S
C83 O86 1.252 . S
C83 O87 1.260 . S
O84 In78 2.266 . S
O84 C81 1.252 . S
O85 In78 2.326 . S
O85 C81 1.260 . S
O86 In78 2.266 . S
O86 C83 1.252 . S
O87 In78 2.326 . S
O87 C83 1.260 . S
C88 O79 1.240 . S
C88 O80 1.252 . S
O89 In78 2.294 . S
O89 C82 1.240 . S
O90 In78 2.326 . S
O90 C82 1.252 . S
In91 O92 2.294 . S
In91 O93 2.326 . S
In91 O97 2.266 . S
In91 O98 2.326 . S
In91 O99 2.266 . S
In91 O100 2.326 . S
In91 O102 2.294 . S
In91 O103 2.326 . S
O92 In91 2.294 . S
O92 C101 1.240 . S
O93 In91 2.326 . S
O93 C101 1.252 . S
C94 O97 1.252 . S
C94 O98 1.260 . S
C95 O102 1.240 . S
C95 O103 1.252 . S
C96 O99 1.252 . S
C96 O100 1.260 . S
O97 In91 2.266 . S
O97 C94 1.252 . S
O98 In91 2.326 . S
O98 C94 1.260 . S
O99 In91 2.266 . S
O99 C96 1.252 . S
O100 In91 2.326 . S
O100 C96 1.260 . S
C101 O92 1.240 . S
C101 O93 1.252 . S
O102 In91 2.294 . S
O102 C95 1.240 . S
O103 In91 2.326 . S
O103 C95 1.252 . S
In104 O105 2.294 . S
In104 O106 2.326 . S
In104 O110 2.266 . S
In104 O111 2.326 . S
In104 O112 2.266 . S
In104 O113 2.326 . S
In104 O115 2.294 . S
In104 O116 2.326 . S
O105 In104 2.294 . S
O105 C114 1.240 . S
O106 In104 2.326 . S
O106 C114 1.252 . S
C107 O110 1.252 . S
C107 O111 1.260 . S
C108 O115 1.240 . S
C108 O116 1.252 . S
C109 O112 1.252 . S
C109 O113 1.260 . S
O110 In104 2.266 . S
O110 C107 1.252 . S
O111 In104 2.326 . S
O111 C107 1.260 . S
O112 In104 2.266 . S
O112 C109 1.252 . S
O113 In104 2.326 . S
O113 C109 1.260 . S
C114 O105 1.240 . S
C114 O106 1.252 . S
O115 In104 2.294 . S
O115 C108 1.240 . S
O116 In104 2.326 . S
O116 C108 1.252 . S
In117 O118 2.294 . S
In117 O119 2.326 . S
In117 O123 2.266 . S
In117 O124 2.326 . S
In117 O125 2.266 . S
In117 O126 2.326 . S
In117 O128 2.294 . S
In117 O129 2.326 . S
O118 In117 2.294 . S
O118 C127 1.240 . S
O119 In117 2.326 . S
O119 C127 1.252 . S
C120 O123 1.252 . S
C120 O124 1.260 . S
C121 O128 1.240 . S
C121 O129 1.252 . S
C122 O125 1.252 . S
C122 O126 1.260 . S
O123 In117 2.266 . S
O123 C120 1.252 . S
O124 In117 2.326 . S
O124 C120 1.260 . S
O125 In117 2.266 . S
O125 C122 1.252 . S
O126 In117 2.326 . S
O126 C122 1.260 . S
C127 O118 1.240 . S
C127 O119 1.252 . S
O128 In117 2.294 . S
O128 C121 1.240 . S
O129 In117 2.326 . S
O129 C121 1.252 . S
In130 O131 2.294 . S
In130 O132 2.326 . S
In130 O136 2.266 . S
In130 O137 2.326 . S
In130 O138 2.266 . S
In130 O139 2.326 . S
In130 O141 2.294 . S
In130 O142 2.326 . S
O131 In130 2.294 . S
O131 C140 1.240 . S
O132 In130 2.326 . S
O132 C140 1.252 . S
C133 O136 1.252 . S
C133 O137 1.260 . S
C134 O141 1.240 . S
C134 O142 1.252 . S
C135 O138 1.252 . S
C135 O139 1.260 . S
O136 In130 2.266 . S
O136 C133 1.252 . S
O137 In130 2.326 . S
O137 C133 1.260 . S
O138 In130 2.266 . S
O138 C135 1.252 . S
O139 In130 2.326 . S
O139 C135 1.260 . S
C140 O131 1.240 . S
C140 O132 1.252 . S
O141 In130 2.294 . S
O141 C134 1.240 . S
O142 In130 2.326 . S
O142 C134 1.252 . S
In143 O144 2.294 . S
In143 O145 2.326 . S
In143 O149 2.266 . S
In143 O150 2.326 . S
In143 O151 2.266 . S
In143 O152 2.326 . S
In143 O154 2.294 . S
In143 O155 2.326 . S
O144 In143 2.294 . S
O144 C153 1.240 . S
O145 In143 2.326 . S
O145 C153 1.252 . S
C146 O149 1.252 . S
C146 O150 1.260 . S
C147 O154 1.240 . S
C147 O155 1.252 . S
C148 O151 1.252 . S
C148 O152 1.260 . S
O149 In143 2.266 . S
O149 C146 1.252 . S
O150 In143 2.326 . S
O150 C146 1.260 . S
O151 In143 2.266 . S
O151 C148 1.252 . S
O152 In143 2.326 . S
O152 C148 1.260 . S
C153 O144 1.240 . S
C153 O145 1.252 . S
O154 In143 2.294 . S
O154 C147 1.240 . S
O155 In143 2.326 . S
O155 C147 1.252 . S
In156 O157 2.294 . S
In156 O158 2.326 . S
In156 O162 2.266 . S
In156 O163 2.326 . S
In156 O164 2.266 . S
In156 O165 2.326 . S
In156 O167 2.294 . S
In156 O168 2.326 . S
O157 In156 2.294 . S
O157 C166 1.240 . S
O158 In156 2.326 . S
O158 C166 1.252 . S
C159 O162 1.252 . S
C159 O163 1.260 . S
C160 O167 1.240 . S
C160 O168 1.252 . S
C161 O164 1.252 . S
C161 O165 1.260 . S
O162 In156 2.266 . S
O162 C159 1.252 . S
O163 In156 2.326 . S
O163 C159 1.260 . S
O164 In156 2.266 . S
O164 C161 1.252 . S
O165 In156 2.326 . S
O165 C161 1.260 . S
C166 O157 1.240 . S
C166 O158 1.252 . S
O167 In156 2.294 . S
O167 C160 1.240 . S
O168 In156 2.326 . S
O168 C160 1.252 . S
In169 O170 2.294 . S
In169 O171 2.326 . S
In169 O175 2.266 . S
In169 O176 2.326 . S
In169 O177 2.266 . S
In169 O178 2.326 . S
In169 O180 2.294 . S
In169 O181 2.326 . S
O170 In169 2.294 . S
O170 C179 1.240 . S
O171 In169 2.326 . S
O171 C179 1.252 . S
C172 O175 1.252 . S
C172 O176 1.260 . S
C173 O180 1.240 . S
C173 O181 1.252 . S
C174 O177 1.252 . S
C174 O178 1.260 . S
O175 In169 2.266 . S
O175 C172 1.252 . S
O176 In169 2.326 . S
O176 C172 1.260 . S
O177 In169 2.266 . S
O177 C174 1.252 . S
O178 In169 2.326 . S
O178 C174 1.260 . S
C179 O170 1.240 . S
C179 O171 1.252 . S
O180 In169 2.294 . S
O180 C173 1.240 . S
O181 In169 2.326 . S
O181 C173 1.252 . S
In182 O183 2.294 . S
In182 O184 2.326 . S
In182 O188 2.266 . S
In182 O189 2.326 . S
In182 O190 2.266 . S
In182 O191 2.326 . S
In182 O193 2.294 . S
In182 O194 2.326 . S
O183 In182 2.294 . S
O183 C192 1.240 . S
O184 In182 2.326 . S
O184 C192 1.252 . S
C185 O188 1.252 . S
C185 O189 1.260 . S
C186 O193 1.240 . S
C186 O194 1.252 . S
C187 O190 1.252 . S
C187 O191 1.260 . S
O188 In182 2.266 . S
O188 C185 1.252 . S
O189 In182 2.326 . S
O189 C185 1.260 . S
O190 In182 2.266 . S
O190 C187 1.252 . S
O191 In182 2.326 . S
O191 C187 1.260 . S
C192 O183 1.240 . S
C192 O184 1.252 . S
O193 In182 2.294 . S
O193 C186 1.240 . S
O194 In182 2.326 . S
O194 C186 1.252 . S
In195 O196 2.294 . S
In195 O197 2.326 . S
In195 O201 2.266 . S
In195 O202 2.326 . S
In195 O203 2.266 . S
In195 O204 2.326 . S
In195 O206 2.294 . S
In195 O207 2.326 . S
O196 In195 2.294 . S
O196 C205 1.240 . S
O197 In195 2.326 . S
O197 C205 1.252 . S
C198 O201 1.252 . S
C198 O202 1.260 . S
C199 O206 1.240 . S
C199 O207 1.252 . S
C200 O203 1.252 . S
C200 O204 1.260 . S
O201 In195 2.266 . S
O201 C198 1.252 . S
O202 In195 2.326 . S
O202 C198 1.260 . S
O203 In195 2.266 . S
O203 C200 1.252 . S
O204 In195 2.326 . S
O204 C200 1.260 . S
C205 O196 1.240 . S
C205 O197 1.252 . S
O206 In195 2.294 . S
O206 C199 1.240 . S
O207 In195 2.326 . S
O207 C199 1.252 . S
In208 O209 2.294 . S
In208 O210 2.326 . S
In208 O214 2.266 . S
In208 O215 2.326 . S
In208 O216 2.266 . S
In208 O217 2.326 . S
In208 O219 2.294 . S
In208 O220 2.326 . S
O209 In208 2.294 . S
O209 C218 1.240 . S
O210 In208 2.326 . S
O210 C218 1.252 . S
C211 O214 1.252 . S
C211 O215 1.260 . S
C212 O219 1.240 . S
C212 O220 1.252 . S
C213 O216 1.252 . S
C213 O217 1.260 . S
O214 In208 2.266 . S
O214 C211 1.252 . S
O215 In208 2.326 . S
O215 C211 1.260 . S
O216 In208 2.266 . S
O216 C213 1.252 . S
O217 In208 2.326 . S
O217 C213 1.260 . S
C218 O209 1.240 . S
C218 O210 1.252 . S
O219 In208 2.294 . S
O219 C212 1.240 . S
O220 In208 2.326 . S
O220 C212 1.252 . S
In221 O222 2.294 . S
In221 O223 2.326 . S
In221 O227 2.266 . S
In221 O228 2.326 . S
In221 O229 2.266 . S
In221 O230 2.326 . S
In221 O232 2.294 . S
In221 O233 2.326 . S
O222 In221 2.294 . S
O222 C231 1.240 . S
O223 In221 2.326 . S
O223 C231 1.252 . S
C224 O227 1.252 . S
C224 O228 1.260 . S
C225 O232 1.240 . S
C225 O233 1.252 . S
C226 O229 1.252 . S
C226 O230 1.260 . S
O227 In221 2.266 . S
O227 C224 1.252 . S
O228 In221 2.326 . S
O228 C224 1.260 . S
O229 In221 2.266 . S
O229 C226 1.252 . S
O230 In221 2.326 . S
O230 C226 1.260 . S
C231 O222 1.240 . S
C231 O223 1.252 . S
O232 In221 2.294 . S
O232 C225 1.240 . S
O233 In221 2.326 . S
O233 C225 1.252 . S
In234 O235 2.294 . S
In234 O236 2.326 . S
In234 O240 2.266 . S
In234 O241 2.326 . S
In234 O242 2.266 . S
In234 O243 2.326 . S
In234 O245 2.294 . S
In234 O246 2.326 . S
O235 In234 2.294 . S
O235 C244 1.240 . S
O236 In234 2.326 . S
O236 C244 1.252 . S
C237 O240 1.252 . S
C237 O241 1.260 . S
C238 O245 1.240 . S
C238 O246 1.252 . S
C239 O242 1.252 . S
C239 O243 1.260 . S
O240 In234 2.266 . S
O240 C237 1.252 . S
O241 In234 2.326 . S
O241 C237 1.260 . S
O242 In234 2.266 . S
O242 C239 1.252 . S
O243 In234 2.326 . S
O243 C239 1.260 . S
C244 O235 1.240 . S
C244 O236 1.252 . S
O245 In234 2.294 . S
O245 C238 1.240 . S
O246 In234 2.326 . S
O246 C238 1.252 . S
In247 O248 2.294 . S
In247 O249 2.326 . S
In247 O253 2.266 . S
In247 O254 2.326 . S
In247 O255 2.266 . S
In247 O256 2.326 . S
In247 O258 2.294 . S
In247 O259 2.326 . S
O248 In247 2.294 . S
O248 C257 1.240 . S
O249 In247 2.326 . S
O249 C257 1.252 . S
C250 O253 1.252 . S
C250 O254 1.260 . S
C251 O258 1.240 . S
C251 O259 1.252 . S
C252 O255 1.252 . S
C252 O256 1.260 . S
O253 In247 2.266 . S
O253 C250 1.252 . S
O254 In247 2.326 . S
O254 C250 1.260 . S
O255 In247 2.266 . S
O255 C252 1.252 . S
O256 In247 2.326 . S
O256 C252 1.260 . S
C257 O248 1.240 . S
C257 O249 1.252 . S
O258 In247 2.294 . S
O258 C251 1.240 . S
O259 In247 2.326 . S
O259 C251 1.252 . S
In260 O261 2.294 . S
In260 O262 2.326 . S
In260 O266 2.266 . S
In260 O267 2.326 . S
In260 O268 2.266 . S
In260 O269 2.326 . S
In260 O271 2.294 . S
In260 O272 2.326 . S
O261 In260 2.294 . S
O261 C270 1.240 . S
O262 In260 2.326 . S
O262 C270 1.252 . S
C263 O266 1.252 . S
C263 O267 1.260 . S
C264 O271 1.240 . S
C264 O272 1.252 . S
C265 O268 1.252 . S
C265 O269 1.260 . S
O266 In260 2.266 . S
O266 C263 1.252 . S
O267 In260 2.326 . S
O267 C263 1.260 . S
O268 In260 2.266 . S
O268 C265 1.252 . S
O269 In260 2.326 . S
O269 C265 1.260 . S
C270 O261 1.240 . S
C270 O262 1.252 . S
O271 In260 2.294 . S
O271 C264 1.240 . S
O272 In260 2.326 . S
O272 C264 1.252 . S
In273 O274 2.294 . S
In273 O275 2.326 . S
In273 O279 2.266 . S
In273 O280 2.326 . S
In273 O281 2.266 . S
In273 O282 2.326 . S
In273 O284 2.294 . S
In273 O285 2.326 . S
O274 In273 2.294 . S
O274 C283 1.240 . S
O275 In273 2.326 . S
O275 C283 1.252 . S
C276 O279 1.252 . S
C276 O280 1.260 . S
C277 O284 1.240 . S
C277 O285 1.252 . S
C278 O281 1.252 . S
C278 O282 1.260 . S
O279 In273 2.266 . S
O279 C276 1.252 . S
O280 In273 2.326 . S
O280 C276 1.260 . S
O281 In273 2.266 . S
O281 C278 1.252 . S
O282 In273 2.326 . S
O282 C278 1.260 . S
C283 O274 1.240 . S
C283 O275 1.252 . S
O284 In273 2.294 . S
O284 C277 1.240 . S
O285 In273 2.326 . S
O285 C277 1.252 . S
In286 O287 2.294 . S
In286 O288 2.326 . S
In286 O292 2.266 . S
In286 O293 2.326 . S
In286 O294 2.266 . S
In286 O295 2.326 . S
In286 O297 2.294 . S
In286 O298 2.326 . S
O287 In286 2.294 . S
O287 C296 1.240 . S
O288 In286 2.326 . S
O288 C296 1.252 . S
C289 O292 1.252 . S
C289 O293 1.260 . S
C290 O297 1.240 . S
C290 O298 1.252 . S
C291 O294 1.252 . S
C291 O295 1.260 . S
O292 In286 2.266 . S
O292 C289 1.252 . S
O293 In286 2.326 . S
O293 C289 1.260 . S
O294 In286 2.266 . S
O294 C291 1.252 . S
O295 In286 2.326 . S
O295 C291 1.260 . S
C296 O287 1.240 . S
C296 O288 1.252 . S
O297 In286 2.294 . S
O297 C290 1.240 . S
O298 In286 2.326 . S
O298 C290 1.252 . S
In299 O300 2.294 . S
In299 O301 2.326 . S
In299 O305 2.266 . S
In299 O306 2.326 . S
In299 O307 2.266 . S
In299 O308 2.326 . S
In299 O310 2.294 . S
In299 O311 2.326 . S
O300 In299 2.294 . S
O300 C309 1.240 . S
O301 In299 2.326 . S
O301 C309 1.252 . S
C302 O305 1.252 . S
C302 O306 1.260 . S
C303 O310 1.240 . S
C303 O311 1.252 . S
C304 O307 1.252 . S
C304 O308 1.260 . S
O305 In299 2.266 . S
O305 C302 1.252 . S
O306 In299 2.326 . S
O306 C302 1.260 . S
O307 In299 2.266 . S
O307 C304 1.252 . S
O308 In299 2.326 . S
O308 C304 1.260 . S
C309 O300 1.240 . S
C309 O301 1.252 . S
O310 In299 2.294 . S
O310 C303 1.240 . S
O311 In299 2.326 . S
O311 C303 1.252 . S
H312 C330 0.951 . S
H313 C332 0.951 . S
H314 C334 0.950 . S
H315 C335 0.950 . S
H316 C337 0.950 . S
H317 C340 0.950 . S
H318 C341 0.950 . S
H319 C343 0.950 . S
H320 C344 0.950 . S
H321 C345 0.951 . S
H322 C347 0.951 . S
H323 C349 0.950 . S
H324 C350 0.950 . S
H325 C352 0.950 . S
H326 C355 0.950 . S
H327 C356 0.950 . S
H328 C358 0.950 . S
H329 C359 0.950 . S
C330 H312 0.951 . S
C330 C331 1.366 . S
C330 C332 1.388 . S
C331 C330 1.366 . S
C331 C335 1.385 . S
C332 H313 0.951 . S
C332 C330 1.388 . S
C332 C333 1.366 . S
C333 C332 1.366 . S
C333 C334 1.414 . S
C333 C336 1.499 . S
C334 H314 0.950 . S
C334 C333 1.414 . S
C334 C335 1.374 . S
C335 H315 0.950 . S
C335 C331 1.385 . S
C335 C334 1.374 . S
C336 C333 1.499 . S
C336 C337 1.373 . S
C336 C338 1.389 . S
C337 H316 0.950 . S
C337 C336 1.373 . S
C337 C353 1.377 . S
C338 C336 1.389 . S
C338 C339 1.524 . S
C338 C352 1.377 . S
C339 C338 1.524 . S
C339 C340 1.397 . S
C339 C344 1.363 . S
C340 H317 0.950 . S
C340 C339 1.397 . S
C340 C341 1.334 . S
C341 H318 0.950 . S
C341 C340 1.334 . S
C341 C342 1.287 . S
C342 C341 1.287 . S
C342 C343 1.524 . S
C342 H361 0.913 . S
C343 H319 0.950 . S
C343 C342 1.524 . S
C343 C344 1.415 . S
C344 H320 0.950 . S
C344 C339 1.363 . S
C344 C343 1.415 . S
C345 H321 0.951 . S
C345 C346 1.366 . S
C345 C347 1.388 . S
C346 C345 1.366 . S
C346 C350 1.385 . S
C347 H322 0.951 . S
C347 C345 1.388 . S
C347 C348 1.366 . S
C348 C347 1.366 . S
C348 C349 1.414 . S
C348 C351 1.499 . S
C349 H323 0.950 . S
C349 C348 1.414 . S
C349 C350 1.374 . S
C350 H324 0.950 . S
C350 C346 1.385 . S
C350 C349 1.374 . S
C351 C348 1.499 . S
C351 C352 1.373 . S
C351 C353 1.389 . S
C352 H325 0.950 . S
C352 C338 1.377 . S
C352 C351 1.373 . S
C353 C337 1.377 . S
C353 C351 1.389 . S
C353 C354 1.524 . S
C354 C353 1.524 . S
C354 C355 1.397 . S
C354 C359 1.363 . S
C355 H326 0.950 . S
C355 C354 1.397 . S
C355 C356 1.334 . S
C356 H327 0.950 . S
C356 C355 1.334 . S
C356 C357 1.287 . S
C357 C356 1.287 . S
C357 C358 1.524 . S
C357 H360 0.999 . S
C358 H328 0.950 . S
C358 C357 1.524 . S
C358 C359 1.415 . S
C359 H329 0.950 . S
C359 C354 1.363 . S
C359 C358 1.415 . S
H360 C357 0.999 . S
H361 C342 0.913 . S
H362 C380 0.951 . S
H363 C382 0.951 . S
H364 C384 0.950 . S
H365 C385 0.950 . S
H366 C387 0.950 . S
H367 C390 0.950 . S
H368 C391 0.950 . S
H369 C393 0.950 . S
H370 C394 0.950 . S
H371 C395 0.951 . S
H372 C397 0.951 . S
H373 C399 0.950 . S
H374 C400 0.950 . S
H375 C402 0.950 . S
H376 C405 0.950 . S
H377 C406 0.950 . S
H378 C408 0.950 . S
H379 C409 0.950 . S
C380 H362 0.951 . S
C380 C381 1.366 . S
C380 C382 1.388 . S
C381 C380 1.366 . S
C381 C385 1.385 . S
C382 H363 0.951 . S
C382 C380 1.388 . S
C382 C383 1.366 . S
C383 C382 1.366 . S
C383 C384 1.414 . S
C383 C386 1.499 . S
C384 H364 0.950 . S
C384 C383 1.414 . S
C384 C385 1.374 . S
C385 H365 0.950 . S
C385 C381 1.385 . S
C385 C384 1.374 . S
C386 C383 1.499 . S
C386 C387 1.373 . S
C386 C388 1.389 . S
C387 H366 0.950 . S
C387 C386 1.373 . S
C387 C403 1.377 1_655 S
C388 C386 1.389 . S
C388 C389 1.524 . S
C388 C402 1.377 1_655 S
C389 C388 1.524 . S
C389 C390 1.397 . S
C389 C394 1.363 . S
C390 H367 0.950 . S
C390 C389 1.397 . S
C390 C391 1.334 . S
C391 H368 0.950 . S
C391 C390 1.334 . S
C391 C392 1.287 . S
C392 C391 1.287 . S
C392 C393 1.524 . S
C392 H411 0.913 . S
C393 H369 0.950 . S
C393 C392 1.524 . S
C393 C394 1.415 . S
C394 H370 0.950 . S
C394 C389 1.363 . S
C394 C393 1.415 . S
C395 H371 0.951 . S
C395 C396 1.366 . S
C395 C397 1.388 . S
C396 C395 1.366 . S
C396 C400 1.385 . S
C397 H372 0.951 . S
C397 C395 1.388 . S
C397 C398 1.366 . S
C398 C397 1.366 . S
C398 C399 1.414 . S
C398 C401 1.499 . S
C399 H373 0.950 . S
C399 C398 1.414 . S
C399 C400 1.374 . S
C400 H374 0.950 . S
C400 C396 1.385 . S
C400 C399 1.374 . S
C401 C398 1.499 . S
C401 C402 1.373 . S
C401 C403 1.389 . S
C402 H375 0.950 . S
C402 C388 1.377 1_455 S
C402 C401 1.373 . S
C403 C387 1.377 1_455 S
C403 C401 1.389 . S
C403 C404 1.524 . S
C404 C403 1.524 . S
C404 C405 1.397 . S
C404 C409 1.363 . S
C405 H376 0.950 . S
C405 C404 1.397 . S
C405 C406 1.334 . S
C406 H377 0.950 . S
C406 C405 1.334 . S
C406 C407 1.287 . S
C407 C406 1.287 . S
C407 C408 1.524 . S
C407 H410 0.999 . S
C408 H378 0.950 . S
C408 C407 1.524 . S
C408 C409 1.415 . S
C409 H379 0.950 . S
C409 C404 1.363 . S
C409 C408 1.415 . S
H410 C407 0.999 . S
H411 C392 0.913 . S
H412 C430 0.951 . S
H413 C432 0.951 . S
H414 C434 0.950 . S
H415 C435 0.950 . S
H416 C437 0.950 . S
H417 C440 0.950 . S
H418 C441 0.950 . S
H419 C443 0.950 . S
H420 C444 0.950 . S
H421 C445 0.951 . S
H422 C447 0.951 . S
H423 C449 0.950 . S
H424 C450 0.950 . S
H425 C452 0.950 . S
H426 C455 0.950 . S
H427 C456 0.950 . S
H428 C458 0.950 . S
H429 C459 0.950 . S
C430 H412 0.951 . S
C430 C431 1.366 . S
C430 C432 1.388 . S
C431 C430 1.366 . S
C431 C435 1.385 . S
C432 H413 0.951 . S
C432 C430 1.388 . S
C432 C433 1.366 . S
C433 C432 1.366 . S
C433 C434 1.414 . S
C433 C436 1.499 . S
C434 H414 0.950 . S
C434 C433 1.414 . S
C434 C435 1.374 . S
C435 H415 0.950 . S
C435 C431 1.385 . S
C435 C434 1.374 . S
C436 C433 1.499 . S
C436 C437 1.373 . S
C436 C438 1.389 . S
C437 H416 0.950 . S
C437 C436 1.373 . S
C437 C453 1.377 . S
C438 C436 1.389 . S
C438 C439 1.524 . S
C438 C452 1.377 . S
C439 C438 1.524 . S
C439 C440 1.397 . S
C439 C444 1.363 . S
C440 H417 0.950 . S
C440 C439 1.397 . S
C440 C441 1.334 . S
C441 H418 0.950 . S
C441 C440 1.334 . S
C441 C442 1.287 . S
C442 C441 1.287 . S
C442 C443 1.524 . S
C442 H461 0.913 . S
C443 H419 0.950 . S
C443 C442 1.524 . S
C443 C444 1.415 . S
C444 H420 0.950 . S
C444 C439 1.363 . S
C444 C443 1.415 . S
C445 H421 0.951 . S
C445 C446 1.366 . S
C445 C447 1.388 . S
C446 C445 1.366 . S
C446 C450 1.385 . S
C447 H422 0.951 . S
C447 C445 1.388 . S
C447 C448 1.366 . S
C448 C447 1.366 . S
C448 C449 1.414 . S
C448 C451 1.499 . S
C449 H423 0.950 . S
C449 C448 1.414 . S
C449 C450 1.374 . S
C450 H424 0.950 . S
C450 C446 1.385 . S
C450 C449 1.374 . S
C451 C448 1.499 . S
C451 C452 1.373 . S
C451 C453 1.389 . S
C452 H425 0.950 . S
C452 C438 1.377 . S
C452 C451 1.373 . S
C453 C437 1.377 . S
C453 C451 1.389 . S
C453 C454 1.524 . S
C454 C453 1.524 . S
C454 C455 1.397 . S
C454 C459 1.363 . S
C455 H426 0.950 . S
C455 C454 1.397 . S
C455 C456 1.334 . S
C456 H427 0.950 . S
C456 C455 1.334 . S
C456 C457 1.287 . S
C457 C456 1.287 . S
C457 C458 1.524 . S
C457 H460 0.999 . S
C458 H428 0.950 . S
C458 C457 1.524 . S
C458 C459 1.415 . S
C459 H429 0.950 . S
C459 C454 1.363 . S
C459 C458 1.415 . S
H460 C457 0.999 . S
H461 C442 0.913 . S
H462 C480 0.951 . S
H463 C482 0.951 . S
H464 C484 0.950 . S
H465 C485 0.950 . S
H466 C487 0.950 . S
H467 C490 0.950 . S
H468 C491 0.950 . S
H469 C493 0.950 . S
H470 C494 0.950 . S
H471 C495 0.951 . S
H472 C497 0.951 . S
H473 C499 0.950 . S
H474 C500 0.950 . S
H475 C502 0.950 . S
H476 C505 0.950 . S
H477 C506 0.950 . S
H478 C508 0.950 . S
H479 C509 0.950 . S
C480 H462 0.951 . S
C480 C481 1.366 . S
C480 C482 1.388 . S
C481 C480 1.366 . S
C481 C485 1.385 . S
C482 H463 0.951 . S
C482 C480 1.388 . S
C482 C483 1.366 . S
C483 C482 1.366 . S
C483 C484 1.414 . S
C483 C486 1.499 . S
C484 H464 0.950 . S
C484 C483 1.414 . S
C484 C485 1.374 . S
C485 H465 0.950 . S
C485 C481 1.385 . S
C485 C484 1.374 . S
C486 C483 1.499 . S
C486 C487 1.373 . S
C486 C488 1.389 . S
C487 H466 0.950 . S
C487 C486 1.373 . S
C487 C503 1.377 1_455 S
C488 C486 1.389 . S
C488 C489 1.524 . S
C488 C502 1.377 1_455 S
C489 C488 1.524 . S
C489 C490 1.397 . S
C489 C494 1.363 . S
C490 H467 0.950 . S
C490 C489 1.397 . S
C490 C491 1.334 . S
C491 H468 0.950 . S
C491 C490 1.334 . S
C491 C492 1.287 . S
C492 C491 1.287 . S
C492 C493 1.524 . S
C492 H511 0.913 . S
C493 H469 0.950 . S
C493 C492 1.524 . S
C493 C494 1.415 . S
C494 H470 0.950 . S
C494 C489 1.363 . S
C494 C493 1.415 . S
C495 H471 0.951 . S
C495 C496 1.366 . S
C495 C497 1.388 . S
C496 C495 1.366 . S
C496 C500 1.385 . S
C497 H472 0.951 . S
C497 C495 1.388 . S
C497 C498 1.366 . S
C498 C497 1.366 . S
C498 C499 1.414 . S
C498 C501 1.499 . S
C499 H473 0.950 . S
C499 C498 1.414 . S
C499 C500 1.374 . S
C500 H474 0.950 . S
C500 C496 1.385 . S
C500 C499 1.374 . S
C501 C498 1.499 . S
C501 C502 1.373 . S
C501 C503 1.389 . S
C502 H475 0.950 . S
C502 C488 1.377 1_655 S
C502 C501 1.373 . S
C503 C487 1.377 1_655 S
C503 C501 1.389 . S
C503 C504 1.524 . S
C504 C503 1.524 . S
C504 C505 1.397 . S
C504 C509 1.363 . S
C505 H476 0.950 . S
C505 C504 1.397 . S
C505 C506 1.334 . S
C506 H477 0.950 . S
C506 C505 1.334 . S
C506 C507 1.287 . S
C507 C506 1.287 . S
C507 C508 1.524 . S
C507 H510 0.999 . S
C508 H478 0.950 . S
C508 C507 1.524 . S
C508 C509 1.415 . S
C509 H479 0.950 . S
C509 C504 1.363 . S
C509 C508 1.415 . S
H510 C507 0.999 . S
H511 C492 0.913 . S
H512 C530 0.951 . S
H513 C532 0.951 . S
H514 C534 0.950 . S
H515 C535 0.950 . S
H516 C537 0.950 . S
H517 C540 0.950 . S
H518 C541 0.950 . S
H519 C543 0.950 . S
H520 C544 0.950 . S
H521 C545 0.951 . S
H522 C547 0.951 . S
H523 C549 0.950 . S
H524 C550 0.950 . S
H525 C552 0.950 . S
H526 C555 0.950 . S
H527 C556 0.950 . S
H528 C558 0.950 . S
H529 C559 0.950 . S
C530 H512 0.951 . S
C530 C531 1.366 . S
C530 C532 1.388 . S
C531 C530 1.366 . S
C531 C535 1.385 . S
C532 H513 0.951 . S
C532 C530 1.388 . S
C532 C533 1.366 . S
C533 C532 1.366 . S
C533 C534 1.414 . S
C533 C536 1.499 . S
C534 H514 0.950 . S
C534 C533 1.414 . S
C534 C535 1.374 . S
C535 H515 0.950 . S
C535 C531 1.385 . S
C535 C534 1.374 . S
C536 C533 1.499 . S
C536 C537 1.373 . S
C536 C538 1.389 . S
C537 H516 0.950 . S
C537 C536 1.373 . S
C537 C553 1.377 . S
C538 C536 1.389 . S
C538 C539 1.524 . S
C538 C552 1.377 . S
C539 C538 1.524 . S
C539 C540 1.397 . S
C539 C544 1.363 . S
C540 H517 0.950 . S
C540 C539 1.397 . S
C540 C541 1.334 . S
C541 H518 0.950 . S
C541 C540 1.334 . S
C541 C542 1.287 . S
C542 C541 1.287 . S
C542 C543 1.524 . S
C542 H561 0.913 . S
C543 H519 0.950 . S
C543 C542 1.524 . S
C543 C544 1.415 . S
C544 H520 0.950 . S
C544 C539 1.363 . S
C544 C543 1.415 . S
C545 H521 0.951 . S
C545 C546 1.366 . S
C545 C547 1.388 . S
C546 C545 1.366 . S
C546 C550 1.385 . S
C547 H522 0.951 . S
C547 C545 1.388 . S
C547 C548 1.366 . S
C548 C547 1.366 . S
C548 C549 1.414 . S
C548 C551 1.499 . S
C549 H523 0.950 . S
C549 C548 1.414 . S
C549 C550 1.374 . S
C550 H524 0.950 . S
C550 C546 1.385 . S
C550 C549 1.374 . S
C551 C548 1.499 . S
C551 C552 1.373 . S
C551 C553 1.389 . S
C552 H525 0.950 . S
C552 C538 1.377 . S
C552 C551 1.373 . S
C553 C537 1.377 . S
C553 C551 1.389 . S
C553 C554 1.524 . S
C554 C553 1.524 . S
C554 C555 1.397 . S
C554 C559 1.363 . S
C555 H526 0.950 . S
C555 C554 1.397 . S
C555 C556 1.334 . S
C556 H527 0.950 . S
C556 C555 1.334 . S
C556 C557 1.287 . S
C557 C556 1.287 . S
C557 C558 1.524 . S
C557 H560 0.999 . S
C558 H528 0.950 . S
C558 C557 1.524 . S
C558 C559 1.415 . S
C559 H529 0.950 . S
C559 C554 1.363 . S
C559 C558 1.415 . S
H560 C557 0.999 . S
H561 C542 0.913 . S
H562 C580 0.951 . S
H563 C582 0.951 . S
H564 C584 0.950 . S
H565 C585 0.950 . S
H566 C587 0.950 . S
H567 C590 0.950 . S
H568 C591 0.950 . S
H569 C593 0.950 . S
H570 C594 0.950 . S
H571 C595 0.951 . S
H572 C597 0.951 . S
H573 C599 0.950 . S
H574 C600 0.950 . S
H575 C602 0.950 . S
H576 C605 0.950 . S
H577 C606 0.950 . S
H578 C608 0.950 . S
H579 C609 0.950 . S
C580 H562 0.951 . S
C580 C581 1.366 . S
C580 C582 1.388 . S
C581 C580 1.366 . S
C581 C585 1.385 . S
C582 H563 0.951 . S
C582 C580 1.388 . S
C582 C583 1.366 . S
C583 C582 1.366 . S
C583 C584 1.414 . S
C583 C586 1.499 . S
C584 H564 0.950 . S
C584 C583 1.414 . S
C584 C585 1.374 . S
C585 H565 0.950 . S
C585 C581 1.385 . S
C585 C584 1.374 . S
C586 C583 1.499 . S
C586 C587 1.373 . S
C586 C588 1.389 . S
C587 H566 0.950 . S
C587 C586 1.373 . S
C587 C603 1.377 1_655 S
C588 C586 1.389 . S
C588 C589 1.524 . S
C588 C602 1.377 1_655 S
C589 C588 1.524 . S
C589 C590 1.397 . S
C589 C594 1.363 . S
C590 H567 0.950 . S
C590 C589 1.397 . S
C590 C591 1.334 . S
C591 H568 0.950 . S
C591 C590 1.334 . S
C591 C592 1.287 . S
C592 C591 1.287 . S
C592 C593 1.524 . S
C592 H611 0.913 . S
C593 H569 0.950 . S
C593 C592 1.524 . S
C593 C594 1.415 . S
C594 H570 0.950 . S
C594 C589 1.363 . S
C594 C593 1.415 . S
C595 H571 0.951 . S
C595 C596 1.366 . S
C595 C597 1.388 . S
C596 C595 1.366 . S
C596 C600 1.385 . S
C597 H572 0.951 . S
C597 C595 1.388 . S
C597 C598 1.366 . S
C598 C597 1.366 . S
C598 C599 1.414 . S
C598 C601 1.499 . S
C599 H573 0.950 . S
C599 C598 1.414 . S
C599 C600 1.374 . S
C600 H574 0.950 . S
C600 C596 1.385 . S
C600 C599 1.374 . S
C601 C598 1.499 . S
C601 C602 1.373 . S
C601 C603 1.389 . S
C602 H575 0.950 . S
C602 C588 1.377 1_455 S
C602 C601 1.373 . S
C603 C587 1.377 1_455 S
C603 C601 1.389 . S
C603 C604 1.524 . S
C604 C603 1.524 . S
C604 C605 1.397 . S
C604 C609 1.363 . S
C605 H576 0.950 . S
C605 C604 1.397 . S
C605 C606 1.334 . S
C606 H577 0.950 . S
C606 C605 1.334 . S
C606 C607 1.287 . S
C607 C606 1.287 . S
C607 C608 1.524 . S
C607 H610 0.999 . S
C608 H578 0.950 . S
C608 C607 1.524 . S
C608 C609 1.415 . S
C609 H579 0.950 . S
C609 C604 1.363 . S
C609 C608 1.415 . S
H610 C607 0.999 . S
H611 C592 0.913 . S
H612 C630 0.951 . S
H613 C632 0.951 . S
H614 C634 0.950 . S
H615 C635 0.950 . S
H616 C637 0.950 . S
H617 C640 0.950 . S
H618 C641 0.950 . S
H619 C643 0.950 . S
H620 C644 0.950 . S
H621 C645 0.951 . S
H622 C647 0.951 . S
H623 C649 0.950 . S
H624 C650 0.950 . S
H625 C652 0.950 . S
H626 C655 0.950 . S
H627 C656 0.950 . S
H628 C658 0.950 . S
H629 C659 0.950 . S
C630 H612 0.951 . S
C630 C631 1.366 . S
C630 C632 1.388 . S
C631 C630 1.366 . S
C631 C635 1.385 . S
C632 H613 0.951 . S
C632 C630 1.388 . S
C632 C633 1.366 . S
C633 C632 1.366 . S
C633 C634 1.414 . S
C633 C636 1.499 . S
C634 H614 0.950 . S
C634 C633 1.414 . S
C634 C635 1.374 . S
C635 H615 0.950 . S
C635 C631 1.385 . S
C635 C634 1.374 . S
C636 C633 1.499 . S
C636 C637 1.373 . S
C636 C638 1.389 . S
C637 H616 0.950 . S
C637 C636 1.373 . S
C637 C653 1.377 . S
C638 C636 1.389 . S
C638 C639 1.524 . S
C638 C652 1.377 . S
C639 C638 1.524 . S
C639 C640 1.397 . S
C639 C644 1.363 . S
C640 H617 0.950 . S
C640 C639 1.397 . S
C640 C641 1.334 . S
C641 H618 0.950 . S
C641 C640 1.334 . S
C641 C642 1.287 . S
C642 C641 1.287 . S
C642 C643 1.524 . S
C642 H661 0.913 . S
C643 H619 0.950 . S
C643 C642 1.524 . S
C643 C644 1.415 . S
C644 H620 0.950 . S
C644 C639 1.363 . S
C644 C643 1.415 . S
C645 H621 0.951 . S
C645 C646 1.366 . S
C645 C647 1.388 . S
C646 C645 1.366 . S
C646 C650 1.385 . S
C647 H622 0.951 . S
C647 C645 1.388 . S
C647 C648 1.366 . S
C648 C647 1.366 . S
C648 C649 1.414 . S
C648 C651 1.499 . S
C649 H623 0.950 . S
C649 C648 1.414 . S
C649 C650 1.374 . S
C650 H624 0.950 . S
C650 C646 1.385 . S
C650 C649 1.374 . S
C651 C648 1.499 . S
C651 C652 1.373 . S
C651 C653 1.389 . S
C652 H625 0.950 . S
C652 C638 1.377 . S
C652 C651 1.373 . S
C653 C637 1.377 . S
C653 C651 1.389 . S
C653 C654 1.524 . S
C654 C653 1.524 . S
C654 C655 1.397 . S
C654 C659 1.363 . S
C655 H626 0.950 . S
C655 C654 1.397 . S
C655 C656 1.334 . S
C656 H627 0.950 . S
C656 C655 1.334 . S
C656 C657 1.287 . S
C657 C656 1.287 . S
C657 C658 1.524 . S
C657 H660 0.999 . S
C658 H628 0.950 . S
C658 C657 1.524 . S
C658 C659 1.415 . S
C659 H629 0.950 . S
C659 C654 1.363 . S
C659 C658 1.415 . S
H660 C657 0.999 . S
H661 C642 0.913 . S
H662 C680 0.951 . S
H663 C682 0.951 . S
H664 C684 0.950 . S
H665 C685 0.950 . S
H666 C687 0.950 . S
H667 C690 0.950 . S
H668 C691 0.950 . S
H669 C693 0.950 . S
H670 C694 0.950 . S
H671 C695 0.951 . S
H672 C697 0.951 . S
H673 C699 0.950 . S
H674 C700 0.950 . S
H675 C702 0.950 . S
H676 C705 0.950 . S
H677 C706 0.950 . S
H678 C708 0.950 . S
H679 C709 0.950 . S
C680 H662 0.951 . S
C680 C681 1.366 . S
C680 C682 1.388 . S
C681 C680 1.366 . S
C681 C685 1.385 . S
C682 H663 0.951 . S
C682 C680 1.388 . S
C682 C683 1.366 . S
C683 C682 1.366 . S
C683 C684 1.414 . S
C683 C686 1.499 . S
C684 H664 0.950 . S
C684 C683 1.414 . S
C684 C685 1.374 . S
C685 H665 0.950 . S
C685 C681 1.385 . S
C685 C684 1.374 . S
C686 C683 1.499 . S
C686 C687 1.373 . S
C686 C688 1.389 . S
C687 H666 0.950 . S
C687 C686 1.373 . S
C687 C703 1.377 1_655 S
C688 C686 1.389 . S
C688 C689 1.524 . S
C688 C702 1.377 1_655 S
C689 C688 1.524 . S
C689 C690 1.397 . S
C689 C694 1.363 . S
C690 H667 0.950 . S
C690 C689 1.397 . S
C690 C691 1.334 . S
C691 H668 0.950 . S
C691 C690 1.334 . S
C691 C692 1.287 . S
C692 C691 1.287 . S
C692 C693 1.524 . S
C692 H711 0.913 . S
C693 H669 0.950 . S
C693 C692 1.524 . S
C693 C694 1.415 . S
C694 H670 0.950 . S
C694 C689 1.363 . S
C694 C693 1.415 . S
C695 H671 0.951 . S
C695 C696 1.366 . S
C695 C697 1.388 . S
C696 C695 1.366 . S
C696 C700 1.385 . S
C697 H672 0.951 . S
C697 C695 1.388 . S
C697 C698 1.366 . S
C698 C697 1.366 . S
C698 C699 1.414 . S
C698 C701 1.499 . S
C699 H673 0.950 . S
C699 C698 1.414 . S
C699 C700 1.374 . S
C700 H674 0.950 . S
C700 C696 1.385 . S
C700 C699 1.374 . S
C701 C698 1.499 . S
C701 C702 1.373 . S
C701 C703 1.389 . S
C702 H675 0.950 . S
C702 C688 1.377 1_455 S
C702 C701 1.373 . S
C703 C687 1.377 1_455 S
C703 C701 1.389 . S
C703 C704 1.524 . S
C704 C703 1.524 . S
C704 C705 1.397 . S
C704 C709 1.363 . S
C705 H676 0.950 . S
C705 C704 1.397 . S
C705 C706 1.334 . S
C706 H677 0.950 . S
C706 C705 1.334 . S
C706 C707 1.287 . S
C707 C706 1.287 . S
C707 C708 1.524 . S
C707 H710 0.999 . S
C708 H678 0.950 . S
C708 C707 1.524 . S
C708 C709 1.415 . S
C709 H679 0.950 . S
C709 C704 1.363 . S
C709 C708 1.415 . S
H710 C707 0.999 . S
H711 C692 0.913 . S
H712 C730 0.951 . S
H713 C732 0.951 . S
H714 C734 0.950 . S
H715 C735 0.950 . S
H716 C737 0.950 . S
H717 C740 0.950 . S
H718 C741 0.950 . S
H719 C743 0.950 . S
H720 C744 0.950 . S
H721 C745 0.951 . S
H722 C747 0.951 . S
H723 C749 0.950 . S
H724 C750 0.950 . S
H725 C752 0.950 . S
H726 C755 0.950 . S
H727 C756 0.950 . S
H728 C758 0.950 . S
H729 C759 0.950 . S
C730 H712 0.951 . S
C730 C731 1.366 . S
C730 C732 1.388 . S
C731 C730 1.366 . S
C731 C735 1.385 . S
C732 H713 0.951 . S
C732 C730 1.388 . S
C732 C733 1.366 . S
C733 C732 1.366 . S
C733 C734 1.414 . S
C733 C736 1.499 . S
C734 H714 0.950 . S
C734 C733 1.414 . S
C734 C735 1.374 . S
C735 H715 0.950 . S
C735 C731 1.385 . S
C735 C734 1.374 . S
C736 C733 1.499 . S
C736 C737 1.373 . S
C736 C738 1.389 . S
C737 H716 0.950 . S
C737 C736 1.373 . S
C737 C753 1.377 . S
C738 C736 1.389 . S
C738 C739 1.524 . S
C738 C752 1.377 . S
C739 C738 1.524 . S
C739 C740 1.397 . S
C739 C744 1.363 . S
C740 H717 0.950 . S
C740 C739 1.397 . S
C740 C741 1.334 . S
C741 H718 0.950 . S
C741 C740 1.334 . S
C741 C742 1.287 . S
C742 C741 1.287 . S
C742 C743 1.524 . S
C742 H761 0.913 . S
C743 H719 0.950 . S
C743 C742 1.524 . S
C743 C744 1.415 . S
C744 H720 0.950 . S
C744 C739 1.363 . S
C744 C743 1.415 . S
C745 H721 0.951 . S
C745 C746 1.366 . S
C745 C747 1.388 . S
C746 C745 1.366 . S
C746 C750 1.385 . S
C747 H722 0.951 . S
C747 C745 1.388 . S
C747 C748 1.366 . S
C748 C747 1.366 . S
C748 C749 1.414 . S
C748 C751 1.499 . S
C749 H723 0.950 . S
C749 C748 1.414 . S
C749 C750 1.374 . S
C750 H724 0.950 . S
C750 C746 1.385 . S
C750 C749 1.374 . S
C751 C748 1.499 . S
C751 C752 1.373 . S
C751 C753 1.389 . S
C752 H725 0.950 . S
C752 C738 1.377 . S
C752 C751 1.373 . S
C753 C737 1.377 . S
C753 C751 1.389 . S
C753 C754 1.524 . S
C754 C753 1.524 . S
C754 C755 1.397 . S
C754 C759 1.363 . S
C755 H726 0.950 . S
C755 C754 1.397 . S
C755 C756 1.334 . S
C756 H727 0.950 . S
C756 C755 1.334 . S
C756 C757 1.287 . S
C757 C756 1.287 . S
C757 C758 1.524 . S
C757 H760 0.999 . S
C758 H728 0.950 . S
C758 C757 1.524 . S
C758 C759 1.415 . S
C759 H729 0.950 . S
C759 C754 1.363 . S
C759 C758 1.415 . S
H760 C757 0.999 . S
H761 C742 0.913 . S
H762 C780 0.951 . S
H763 C782 0.951 . S
H764 C784 0.950 . S
H765 C785 0.950 . S
H766 C787 0.950 . S
H767 C790 0.950 . S
H768 C791 0.950 . S
H769 C793 0.950 . S
H770 C794 0.950 . S
H771 C795 0.951 . S
H772 C797 0.951 . S
H773 C799 0.950 . S
H774 C800 0.950 . S
H775 C802 0.950 . S
H776 C805 0.950 . S
H777 C806 0.950 . S
H778 C808 0.950 . S
H779 C809 0.950 . S
C780 H762 0.951 . S
C780 C781 1.366 . S
C780 C782 1.388 . S
C781 C780 1.366 . S
C781 C785 1.385 . S
C782 H763 0.951 . S
C782 C780 1.388 . S
C782 C783 1.366 . S
C783 C782 1.366 . S
C783 C784 1.414 . S
C783 C786 1.499 . S
C784 H764 0.950 . S
C784 C783 1.414 . S
C784 C785 1.374 . S
C785 H765 0.950 . S
C785 C781 1.385 . S
C785 C784 1.374 . S
C786 C783 1.499 . S
C786 C787 1.373 . S
C786 C788 1.389 . S
C787 H766 0.950 . S
C787 C786 1.373 . S
C787 C803 1.377 1_556 S
C788 C786 1.389 . S
C788 C789 1.524 . S
C788 C802 1.377 1_556 S
C789 C788 1.524 . S
C789 C790 1.397 . S
C789 C794 1.363 . S
C790 H767 0.950 . S
C790 C789 1.397 . S
C790 C791 1.334 . S
C791 H768 0.950 . S
C791 C790 1.334 . S
C791 C792 1.287 . S
C792 C791 1.287 . S
C792 C793 1.524 . S
C792 H811 0.913 . S
C793 H769 0.950 . S
C793 C792 1.524 . S
C793 C794 1.415 . S
C794 H770 0.950 . S
C794 C789 1.363 . S
C794 C793 1.415 . S
C795 H771 0.951 . S
C795 C796 1.366 . S
C795 C797 1.388 . S
C796 C795 1.366 . S
C796 C800 1.385 . S
C797 H772 0.951 . S
C797 C795 1.388 . S
C797 C798 1.366 . S
C798 C797 1.366 . S
C798 C799 1.414 . S
C798 C801 1.499 . S
C799 H773 0.950 . S
C799 C798 1.414 . S
C799 C800 1.374 . S
C800 H774 0.950 . S
C800 C796 1.385 . S
C800 C799 1.374 . S
C801 C798 1.499 . S
C801 C802 1.373 . S
C801 C803 1.389 . S
C802 H775 0.950 . S
C802 C788 1.377 1_554 S
C802 C801 1.373 . S
C803 C787 1.377 1_554 S
C803 C801 1.389 . S
C803 C804 1.524 . S
C804 C803 1.524 . S
C804 C805 1.397 . S
C804 C809 1.363 . S
C805 H776 0.950 . S
C805 C804 1.397 . S
C805 C806 1.334 . S
C806 H777 0.950 . S
C806 C805 1.334 . S
C806 C807 1.287 . S
C807 C806 1.287 . S
C807 C808 1.524 . S
C807 H810 0.999 . S
C808 H778 0.950 . S
C808 C807 1.524 . S
C808 C809 1.415 . S
C809 H779 0.950 . S
C809 C804 1.363 . S
C809 C808 1.415 . S
H810 C807 0.999 . S
H811 C792 0.913 . S
H812 C830 0.951 . S
H813 C832 0.951 . S
H814 C834 0.950 . S
H815 C835 0.950 . S
H816 C837 0.950 . S
H817 C840 0.950 . S
H818 C841 0.950 . S
H819 C843 0.950 . S
H820 C844 0.950 . S
H821 C845 0.951 . S
H822 C847 0.951 . S
H823 C849 0.950 . S
H824 C850 0.950 . S
H825 C852 0.950 . S
H826 C855 0.950 . S
H827 C856 0.950 . S
H828 C858 0.950 . S
H829 C859 0.950 . S
C830 H812 0.951 . S
C830 C831 1.366 . S
C830 C832 1.388 . S
C831 C830 1.366 . S
C831 C835 1.385 . S
C832 H813 0.951 . S
C832 C830 1.388 . S
C832 C833 1.366 . S
C833 C832 1.366 . S
C833 C834 1.414 . S
C833 C836 1.499 . S
C834 H814 0.950 . S
C834 C833 1.414 . S
C834 C835 1.374 . S
C835 H815 0.950 . S
C835 C831 1.385 . S
C835 C834 1.374 . S
C836 C833 1.499 . S
C836 C837 1.373 . S
C836 C838 1.389 . S
C837 H816 0.950 . S
C837 C836 1.373 . S
C837 C853 1.377 . S
C838 C836 1.389 . S
C838 C839 1.524 . S
C838 C852 1.377 . S
C839 C838 1.524 . S
C839 C840 1.397 . S
C839 C844 1.363 . S
C840 H817 0.950 . S
C840 C839 1.397 . S
C840 C841 1.334 . S
C841 H818 0.950 . S
C841 C840 1.334 . S
C841 C842 1.287 . S
C842 C841 1.287 . S
C842 C843 1.524 . S
C842 H861 0.913 . S
C843 H819 0.950 . S
C843 C842 1.524 . S
C843 C844 1.415 . S
C844 H820 0.950 . S
C844 C839 1.363 . S
C844 C843 1.415 . S
C845 H821 0.951 . S
C845 C846 1.366 . S
C845 C847 1.388 . S
C846 C845 1.366 . S
C846 C850 1.385 . S
C847 H822 0.951 . S
C847 C845 1.388 . S
C847 C848 1.366 . S
C848 C847 1.366 . S
C848 C849 1.414 . S
C848 C851 1.499 . S
C849 H823 0.950 . S
C849 C848 1.414 . S
C849 C850 1.374 . S
C850 H824 0.950 . S
C850 C846 1.385 . S
C850 C849 1.374 . S
C851 C848 1.499 . S
C851 C852 1.373 . S
C851 C853 1.389 . S
C852 H825 0.950 . S
C852 C838 1.377 . S
C852 C851 1.373 . S
C853 C837 1.377 . S
C853 C851 1.389 . S
C853 C854 1.524 . S
C854 C853 1.524 . S
C854 C855 1.397 . S
C854 C859 1.363 . S
C855 H826 0.950 . S
C855 C854 1.397 . S
C855 C856 1.334 . S
C856 H827 0.950 . S
C856 C855 1.334 . S
C856 C857 1.287 . S
C857 C856 1.287 . S
C857 C858 1.524 . S
C857 H860 0.999 . S
C858 H828 0.950 . S
C858 C857 1.524 . S
C858 C859 1.415 . S
C859 H829 0.950 . S
C859 C854 1.363 . S
C859 C858 1.415 . S
H860 C857 0.999 . S
H861 C842 0.913 . S
H862 C880 0.951 . S
H863 C882 0.951 . S
H864 C884 0.950 . S
H865 C885 0.950 . S
H866 C887 0.950 . S
H867 C890 0.950 . S
H868 C891 0.950 . S
H869 C893 0.950 . S
H870 C894 0.950 . S
H871 C895 0.951 . S
H872 C897 0.951 . S
H873 C899 0.950 . S
H874 C900 0.950 . S
H875 C902 0.950 . S
H876 C905 0.950 . S
H877 C906 0.950 . S
H878 C908 0.950 . S
H879 C909 0.950 . S
C880 H862 0.951 . S
C880 C881 1.366 . S
C880 C882 1.388 . S
C881 C880 1.366 . S
C881 C885 1.385 . S
C882 H863 0.951 . S
C882 C880 1.388 . S
C882 C883 1.366 . S
C883 C882 1.366 . S
C883 C884 1.414 . S
C883 C886 1.499 . S
C884 H864 0.950 . S
C884 C883 1.414 . S
C884 C885 1.374 . S
C885 H865 0.950 . S
C885 C881 1.385 . S
C885 C884 1.374 . S
C886 C883 1.499 . S
C886 C887 1.373 . S
C886 C888 1.389 . S
C887 H866 0.950 . S
C887 C886 1.373 . S
C887 C903 1.377 1_554 S
C888 C886 1.389 . S
C888 C889 1.524 . S
C888 C902 1.377 1_554 S
C889 C888 1.524 . S
C889 C890 1.397 . S
C889 C894 1.363 . S
C890 H867 0.950 . S
C890 C889 1.397 . S
C890 C891 1.334 . S
C891 H868 0.950 . S
C891 C890 1.334 . S
C891 C892 1.287 . S
C892 C891 1.287 . S
C892 C893 1.524 . S
C892 H911 0.913 . S
C893 H869 0.950 . S
C893 C892 1.524 . S
C893 C894 1.415 . S
C894 H870 0.950 . S
C894 C889 1.363 . S
C894 C893 1.415 . S
C895 H871 0.951 . S
C895 C896 1.366 . S
C895 C897 1.388 . S
C896 C895 1.366 . S
C896 C900 1.385 . S
C897 H872 0.951 . S
C897 C895 1.388 . S
C897 C898 1.366 . S
C898 C897 1.366 . S
C898 C899 1.414 . S
C898 C901 1.499 . S
C899 H873 0.950 . S
C899 C898 1.414 . S
C899 C900 1.374 . S
C900 H874 0.950 . S
C900 C896 1.385 . S
C900 C899 1.374 . S
C901 C898 1.499 . S
C901 C902 1.373 . S
C901 C903 1.389 . S
C902 H875 0.950 . S
C902 C888 1.377 1_556 S
C902 C901 1.373 . S
C903 C887 1.377 1_556 S
C903 C901 1.389 . S
C903 C904 1.524 . S
C904 C903 1.524 . S
C904 C905 1.397 . S
C904 C909 1.363 . S
C905 H876 0.950 . S
C905 C904 1.397 . S
C905 C906 1.334 . S
C906 H877 0.950 . S
C906 C905 1.334 . S
C906 C907 1.287 . S
C907 C906 1.287 . S
C907 C908 1.524 . S
C907 H910 0.999 . S
C908 H878 0.950 . S
C908 C907 1.524 . S
C908 C909 1.415 . S
C909 H879 0.950 . S
C909 C904 1.363 . S
C909 C908 1.415 . S
H910 C907 0.999 . S
H911 C892 0.913 . S
H912 C930 0.951 . S
H913 C932 0.951 . S
H914 C934 0.950 . S
H915 C935 0.950 . S
H916 C937 0.950 . S
H917 C940 0.950 . S
H918 C941 0.950 . S
H919 C943 0.950 . S
H920 C944 0.950 . S
H921 C945 0.951 . S
H922 C947 0.951 . S
H923 C949 0.950 . S
H924 C950 0.950 . S
H925 C952 0.950 . S
H926 C955 0.950 . S
H927 C956 0.950 . S
H928 C958 0.950 . S
H929 C959 0.950 . S
C930 H912 0.951 . S
C930 C931 1.366 . S
C930 C932 1.388 . S
C931 C930 1.366 . S
C931 C935 1.385 . S
C932 H913 0.951 . S
C932 C930 1.388 . S
C932 C933 1.366 . S
C933 C932 1.366 . S
C933 C934 1.414 . S
C933 C936 1.499 . S
C934 H914 0.950 . S
C934 C933 1.414 . S
C934 C935 1.374 . S
C935 H915 0.950 . S
C935 C931 1.385 . S
C935 C934 1.374 . S
C936 C933 1.499 . S
C936 C937 1.373 . S
C936 C938 1.389 . S
C937 H916 0.950 . S
C937 C936 1.373 . S
C937 C953 1.377 . S
C938 C936 1.389 . S
C938 C939 1.524 . S
C938 C952 1.377 . S
C939 C938 1.524 . S
C939 C940 1.397 . S
C939 C944 1.363 . S
C940 H917 0.950 . S
C940 C939 1.397 . S
C940 C941 1.334 . S
C941 H918 0.950 . S
C941 C940 1.334 . S
C941 C942 1.287 . S
C942 C941 1.287 . S
C942 C943 1.524 . S
C942 H961 0.913 . S
C943 H919 0.950 . S
C943 C942 1.524 . S
C943 C944 1.415 . S
C944 H920 0.950 . S
C944 C939 1.363 . S
C944 C943 1.415 . S
C945 H921 0.951 . S
C945 C946 1.366 . S
C945 C947 1.388 . S
C946 C945 1.366 . S
C946 C950 1.385 . S
C947 H922 0.951 . S
C947 C945 1.388 . S
C947 C948 1.366 . S
C948 C947 1.366 . S
C948 C949 1.414 . S
C948 C951 1.499 . S
C949 H923 0.950 . S
C949 C948 1.414 . S
C949 C950 1.374 . S
C950 H924 0.950 . S
C950 C946 1.385 . S
C950 C949 1.374 . S
C951 C948 1.499 . S
C951 C952 1.373 . S
C951 C953 1.389 . S
C952 H925 0.950 . S
C952 C938 1.377 . S
C952 C951 1.373 . S
C953 C937 1.377 . S
C953 C951 1.389 . S
C953 C954 1.524 . S
C954 C953 1.524 . S
C954 C955 1.397 . S
C954 C959 1.363 . S
C955 H926 0.950 . S
C955 C954 1.397 . S
C955 C956 1.334 . S
C956 H927 0.950 . S
C956 C955 1.334 . S
C956 C957 1.287 . S
C957 C956 1.287 . S
C957 C958 1.524 . S
C957 H960 0.999 . S
C958 H928 0.950 . S
C958 C957 1.524 . S
C958 C959 1.415 . S
C959 H929 0.950 . S
C959 C954 1.363 . S
C959 C958 1.415 . S
H960 C957 0.999 . S
H961 C942 0.913 . S
H962 C980 0.951 . S
H963 C982 0.951 . S
H964 C984 0.950 . S
H965 C985 0.950 . S
H966 C987 0.950 . S
H967 C990 0.950 . S
H968 C991 0.950 . S
H969 C993 0.950 . S
H970 C994 0.950 . S
H971 C995 0.951 . S
H972 C997 0.951 . S
H973 C999 0.950 . S
H974 C1000 0.950 . S
H975 C1002 0.950 . S
H976 C1005 0.950 . S
H977 C1006 0.950 . S
H978 C1008 0.950 . S
H979 C1009 0.950 . S
C980 H962 0.951 . S
C980 C981 1.366 . S
C980 C982 1.388 . S
C981 C980 1.366 . S
C981 C985 1.385 . S
C982 H963 0.951 . S
C982 C980 1.388 . S
C982 C983 1.366 . S
C983 C982 1.366 . S
C983 C984 1.414 . S
C983 C986 1.499 . S
C984 H964 0.950 . S
C984 C983 1.414 . S
C984 C985 1.374 . S
C985 H965 0.950 . S
C985 C981 1.385 . S
C985 C984 1.374 . S
C986 C983 1.499 . S
C986 C987 1.373 . S
C986 C988 1.389 . S
C987 H966 0.950 . S
C987 C986 1.373 . S
C987 C1003 1.377 1_554 S
C988 C986 1.389 . S
C988 C989 1.524 . S
C988 C1002 1.377 1_554 S
C989 C988 1.524 . S
C989 C990 1.397 . S
C989 C994 1.363 . S
C990 H967 0.950 . S
C990 C989 1.397 . S
C990 C991 1.334 . S
C991 H968 0.950 . S
C991 C990 1.334 . S
C991 C992 1.287 . S
C992 C991 1.287 . S
C992 C993 1.524 . S
C992 H1011 0.913 . S
C993 H969 0.950 . S
C993 C992 1.524 . S
C993 C994 1.415 . S
C994 H970 0.950 . S
C994 C989 1.363 . S
C994 C993 1.415 . S
C995 H971 0.951 . S
C995 C996 1.366 . S
C995 C997 1.388 . S
C996 C995 1.366 . S
C996 C1000 1.385 . S
C997 H972 0.951 . S
C997 C995 1.388 . S
C997 C998 1.366 . S
C998 C997 1.366 . S
C998 C999 1.414 . S
C998 C1001 1.499 . S
C999 H973 0.950 . S
C999 C998 1.414 . S
C999 C1000 1.374 . S
C1000 H974 0.950 . S
C1000 C996 1.385 . S
C1000 C999 1.374 . S
C1001 C998 1.499 . S
C1001 C1002 1.373 . S
C1001 C1003 1.389 . S
C1002 H975 0.950 . S
C1002 C988 1.377 1_556 S
C1002 C1001 1.373 . S
C1003 C987 1.377 1_556 S
C1003 C1001 1.389 . S
C1003 C1004 1.524 . S
C1004 C1003 1.524 . S
C1004 C1005 1.397 . S
C1004 C1009 1.363 . S
C1005 H976 0.950 . S
C1005 C1004 1.397 . S
C1005 C1006 1.334 . S
C1006 H977 0.950 . S
C1006 C1005 1.334 . S
C1006 C1007 1.287 . S
C1007 C1006 1.287 . S
C1007 C1008 1.524 . S
C1007 H1010 0.999 . S
C1008 H978 0.950 . S
C1008 C1007 1.524 . S
C1008 C1009 1.415 . S
C1009 H979 0.950 . S
C1009 C1004 1.363 . S
C1009 C1008 1.415 . S
H1010 C1007 0.999 . S
H1011 C992 0.913 . S
H1012 C1030 0.951 . S
H1013 C1032 0.951 . S
H1014 C1034 0.950 . S
H1015 C1035 0.950 . S
H1016 C1037 0.950 . S
H1017 C1040 0.950 . S
H1018 C1041 0.950 . S
H1019 C1043 0.950 . S
H1020 C1044 0.950 . S
H1021 C1045 0.951 . S
H1022 C1047 0.951 . S
H1023 C1049 0.950 . S
H1024 C1050 0.950 . S
H1025 C1052 0.950 . S
H1026 C1055 0.950 . S
H1027 C1056 0.950 . S
H1028 C1058 0.950 . S
H1029 C1059 0.950 . S
C1030 H1012 0.951 . S
C1030 C1031 1.366 . S
C1030 C1032 1.388 . S
C1031 C1030 1.366 . S
C1031 C1035 1.385 . S
C1032 H1013 0.951 . S
C1032 C1030 1.388 . S
C1032 C1033 1.366 . S
C1033 C1032 1.366 . S
C1033 C1034 1.414 . S
C1033 C1036 1.499 . S
C1034 H1014 0.950 . S
C1034 C1033 1.414 . S
C1034 C1035 1.374 . S
C1035 H1015 0.950 . S
C1035 C1031 1.385 . S
C1035 C1034 1.374 . S
C1036 C1033 1.499 . S
C1036 C1037 1.373 . S
C1036 C1038 1.389 . S
C1037 H1016 0.950 . S
C1037 C1036 1.373 . S
C1037 C1053 1.377 . S
C1038 C1036 1.389 . S
C1038 C1039 1.524 . S
C1038 C1052 1.377 . S
C1039 C1038 1.524 . S
C1039 C1040 1.397 . S
C1039 C1044 1.363 . S
C1040 H1017 0.950 . S
C1040 C1039 1.397 . S
C1040 C1041 1.334 . S
C1041 H1018 0.950 . S
C1041 C1040 1.334 . S
C1041 C1042 1.287 . S
C1042 C1041 1.287 . S
C1042 C1043 1.524 . S
C1042 H1061 0.913 . S
C1043 H1019 0.950 . S
C1043 C1042 1.524 . S
C1043 C1044 1.415 . S
C1044 H1020 0.950 . S
C1044 C1039 1.363 . S
C1044 C1043 1.415 . S
C1045 H1021 0.951 . S
C1045 C1046 1.366 . S
C1045 C1047 1.388 . S
C1046 C1045 1.366 . S
C1046 C1050 1.385 . S
C1047 H1022 0.951 . S
C1047 C1045 1.388 . S
C1047 C1048 1.366 . S
C1048 C1047 1.366 . S
C1048 C1049 1.414 . S
C1048 C1051 1.499 . S
C1049 H1023 0.950 . S
C1049 C1048 1.414 . S
C1049 C1050 1.374 . S
C1050 H1024 0.950 . S
C1050 C1046 1.385 . S
C1050 C1049 1.374 . S
C1051 C1048 1.499 . S
C1051 C1052 1.373 . S
C1051 C1053 1.389 . S
C1052 H1025 0.950 . S
C1052 C1038 1.377 . S
C1052 C1051 1.373 . S
C1053 C1037 1.377 . S
C1053 C1051 1.389 . S
C1053 C1054 1.524 . S
C1054 C1053 1.524 . S
C1054 C1055 1.397 . S
C1054 C1059 1.363 . S
C1055 H1026 0.950 . S
C1055 C1054 1.397 . S
C1055 C1056 1.334 . S
C1056 H1027 0.950 . S
C1056 C1055 1.334 . S
C1056 C1057 1.287 . S
C1057 C1056 1.287 . S
C1057 C1058 1.524 . S
C1057 H1060 0.999 . S
C1058 H1028 0.950 . S
C1058 C1057 1.524 . S
C1058 C1059 1.415 . S
C1059 H1029 0.950 . S
C1059 C1054 1.363 . S
C1059 C1058 1.415 . S
H1060 C1057 0.999 . S
H1061 C1042 0.913 . S
H1062 C1080 0.951 . S
H1063 C1082 0.951 . S
H1064 C1084 0.950 . S
H1065 C1085 0.950 . S
H1066 C1087 0.950 . S
H1067 C1090 0.950 . S
H1068 C1091 0.950 . S
H1069 C1093 0.950 . S
H1070 C1094 0.950 . S
H1071 C1095 0.951 . S
H1072 C1097 0.951 . S
H1073 C1099 0.950 . S
H1074 C1100 0.950 . S
H1075 C1102 0.950 . S
H1076 C1105 0.950 . S
H1077 C1106 0.950 . S
H1078 C1108 0.950 . S
H1079 C1109 0.950 . S
C1080 H1062 0.951 . S
C1080 C1081 1.366 . S
C1080 C1082 1.388 . S
C1081 C1080 1.366 . S
C1081 C1085 1.385 . S
C1082 H1063 0.951 . S
C1082 C1080 1.388 . S
C1082 C1083 1.366 . S
C1083 C1082 1.366 . S
C1083 C1084 1.414 . S
C1083 C1086 1.499 . S
C1084 H1064 0.950 . S
C1084 C1083 1.414 . S
C1084 C1085 1.374 . S
C1085 H1065 0.950 . S
C1085 C1081 1.385 . S
C1085 C1084 1.374 . S
C1086 C1083 1.499 . S
C1086 C1087 1.373 . S
C1086 C1088 1.389 . S
C1087 H1066 0.950 . S
C1087 C1086 1.373 . S
C1087 C1103 1.377 1_554 S
C1088 C1086 1.389 . S
C1088 C1089 1.524 . S
C1088 C1102 1.377 1_554 S
C1089 C1088 1.524 . S
C1089 C1090 1.397 . S
C1089 C1094 1.363 . S
C1090 H1067 0.950 . S
C1090 C1089 1.397 . S
C1090 C1091 1.334 . S
C1091 H1068 0.950 . S
C1091 C1090 1.334 . S
C1091 C1092 1.287 . S
C1092 C1091 1.287 . S
C1092 C1093 1.524 . S
C1092 H1111 0.913 . S
C1093 H1069 0.950 . S
C1093 C1092 1.524 . S
C1093 C1094 1.415 . S
C1094 H1070 0.950 . S
C1094 C1089 1.363 . S
C1094 C1093 1.415 . S
C1095 H1071 0.951 . S
C1095 C1096 1.366 . S
C1095 C1097 1.388 . S
C1096 C1095 1.366 . S
C1096 C1100 1.385 . S
C1097 H1072 0.951 . S
C1097 C1095 1.388 . S
C1097 C1098 1.366 . S
C1098 C1097 1.366 . S
C1098 C1099 1.414 . S
C1098 C1101 1.499 . S
C1099 H1073 0.950 . S
C1099 C1098 1.414 . S
C1099 C1100 1.374 . S
C1100 H1074 0.950 . S
C1100 C1096 1.385 . S
C1100 C1099 1.374 . S
C1101 C1098 1.499 . S
C1101 C1102 1.373 . S
C1101 C1103 1.389 . S
C1102 H1075 0.950 . S
C1102 C1088 1.377 1_556 S
C1102 C1101 1.373 . S
C1103 C1087 1.377 1_556 S
C1103 C1101 1.389 . S
C1103 C1104 1.524 . S
C1104 C1103 1.524 . S
C1104 C1105 1.397 . S
C1104 C1109 1.363 . S
C1105 H1076 0.950 . S
C1105 C1104 1.397 . S
C1105 C1106 1.334 . S
C1106 H1077 0.950 . S
C1106 C1105 1.334 . S
C1106 C1107 1.287 . S
C1107 C1106 1.287 . S
C1107 C1108 1.524 . S
C1107 H1110 0.999 . S
C1108 H1078 0.950 . S
C1108 C1107 1.524 . S
C1108 C1109 1.415 . S
C1109 H1079 0.950 . S
C1109 C1104 1.363 . S
C1109 C1108 1.415 . S
H1110 C1107 0.999 . S
H1111 C1092 0.913 . S
H1112 C1130 0.951 . S
H1113 C1132 0.951 . S
H1114 C1134 0.950 . S
H1115 C1135 0.950 . S
H1116 C1137 0.950 . S
H1117 C1140 0.950 . S
H1118 C1141 0.950 . S
H1119 C1143 0.950 . S
H1120 C1144 0.950 . S
H1121 C1145 0.951 . S
H1122 C1147 0.951 . S
H1123 C1149 0.950 . S
H1124 C1150 0.950 . S
H1125 C1152 0.950 . S
H1126 C1155 0.950 . S
H1127 C1156 0.950 . S
H1128 C1158 0.950 . S
H1129 C1159 0.950 . S
C1130 H1112 0.951 . S
C1130 C1131 1.366 . S
C1130 C1132 1.388 . S
C1131 C1130 1.366 . S
C1131 C1135 1.385 . S
C1132 H1113 0.951 . S
C1132 C1130 1.388 . S
C1132 C1133 1.366 . S
C1133 C1132 1.366 . S
C1133 C1134 1.414 . S
C1133 C1136 1.499 . S
C1134 H1114 0.950 . S
C1134 C1133 1.414 . S
C1134 C1135 1.374 . S
C1135 H1115 0.950 . S
C1135 C1131 1.385 . S
C1135 C1134 1.374 . S
C1136 C1133 1.499 . S
C1136 C1137 1.373 . S
C1136 C1138 1.389 . S
C1137 H1116 0.950 . S
C1137 C1136 1.373 . S
C1137 C1153 1.377 . S
C1138 C1136 1.389 . S
C1138 C1139 1.524 . S
C1138 C1152 1.377 . S
C1139 C1138 1.524 . S
C1139 C1140 1.397 . S
C1139 C1144 1.363 . S
C1140 H1117 0.950 . S
C1140 C1139 1.397 . S
C1140 C1141 1.334 . S
C1141 H1118 0.950 . S
C1141 C1140 1.334 . S
C1141 C1142 1.287 . S
C1142 C1141 1.287 . S
C1142 C1143 1.524 . S
C1142 H1161 0.913 . S
C1143 H1119 0.950 . S
C1143 C1142 1.524 . S
C1143 C1144 1.415 . S
C1144 H1120 0.950 . S
C1144 C1139 1.363 . S
C1144 C1143 1.415 . S
C1145 H1121 0.951 . S
C1145 C1146 1.366 . S
C1145 C1147 1.388 . S
C1146 C1145 1.366 . S
C1146 C1150 1.385 . S
C1147 H1122 0.951 . S
C1147 C1145 1.388 . S
C1147 C1148 1.366 . S
C1148 C1147 1.366 . S
C1148 C1149 1.414 . S
C1148 C1151 1.499 . S
C1149 H1123 0.950 . S
C1149 C1148 1.414 . S
C1149 C1150 1.374 . S
C1150 H1124 0.950 . S
C1150 C1146 1.385 . S
C1150 C1149 1.374 . S
C1151 C1148 1.499 . S
C1151 C1152 1.373 . S
C1151 C1153 1.389 . S
C1152 H1125 0.950 . S
C1152 C1138 1.377 . S
C1152 C1151 1.373 . S
C1153 C1137 1.377 . S
C1153 C1151 1.389 . S
C1153 C1154 1.524 . S
C1154 C1153 1.524 . S
C1154 C1155 1.397 . S
C1154 C1159 1.363 . S
C1155 H1126 0.950 . S
C1155 C1154 1.397 . S
C1155 C1156 1.334 . S
C1156 H1127 0.950 . S
C1156 C1155 1.334 . S
C1156 C1157 1.287 . S
C1157 C1156 1.287 . S
C1157 C1158 1.524 . S
C1157 H1160 0.999 . S
C1158 H1128 0.950 . S
C1158 C1157 1.524 . S
C1158 C1159 1.415 . S
C1159 H1129 0.950 . S
C1159 C1154 1.363 . S
C1159 C1158 1.415 . S
H1160 C1157 0.999 . S
H1161 C1142 0.913 . S
H1162 C1180 0.951 . S
H1163 C1182 0.951 . S
H1164 C1184 0.950 . S
H1165 C1185 0.950 . S
H1166 C1187 0.950 . S
H1167 C1190 0.950 . S
H1168 C1191 0.950 . S
H1169 C1193 0.950 . S
H1170 C1194 0.950 . S
H1171 C1195 0.951 . S
H1172 C1197 0.951 . S
H1173 C1199 0.950 . S
H1174 C1200 0.950 . S
H1175 C1202 0.950 . S
H1176 C1205 0.950 . S
H1177 C1206 0.950 . S
H1178 C1208 0.950 . S
H1179 C1209 0.950 . S
C1180 H1162 0.951 . S
C1180 C1181 1.366 . S
C1180 C1182 1.388 . S
C1181 C1180 1.366 . S
C1181 C1185 1.385 . S
C1182 H1163 0.951 . S
C1182 C1180 1.388 . S
C1182 C1183 1.366 . S
C1183 C1182 1.366 . S
C1183 C1184 1.414 . S
C1183 C1186 1.499 . S
C1184 H1164 0.950 . S
C1184 C1183 1.414 . S
C1184 C1185 1.374 . S
C1185 H1165 0.950 . S
C1185 C1181 1.385 . S
C1185 C1184 1.374 . S
C1186 C1183 1.499 . S
C1186 C1187 1.373 . S
C1186 C1188 1.389 . S
C1187 H1166 0.950 . S
C1187 C1186 1.373 . S
C1187 C1203 1.377 . S
C1188 C1186 1.389 . S
C1188 C1189 1.524 . S
C1188 C1202 1.377 . S
C1189 C1188 1.524 . S
C1189 C1190 1.397 . S
C1189 C1194 1.363 . S
C1190 H1167 0.950 . S
C1190 C1189 1.397 . S
C1190 C1191 1.334 . S
C1191 H1168 0.950 . S
C1191 C1190 1.334 . S
C1191 C1192 1.287 . S
C1192 C1191 1.287 . S
C1192 C1193 1.524 . S
C1192 H1211 0.913 . S
C1193 H1169 0.950 . S
C1193 C1192 1.524 . S
C1193 C1194 1.415 . S
C1194 H1170 0.950 . S
C1194 C1189 1.363 . S
C1194 C1193 1.415 . S
C1195 H1171 0.951 . S
C1195 C1196 1.366 . S
C1195 C1197 1.388 . S
C1196 C1195 1.366 . S
C1196 C1200 1.385 . S
C1197 H1172 0.951 . S
C1197 C1195 1.388 . S
C1197 C1198 1.366 . S
C1198 C1197 1.366 . S
C1198 C1199 1.414 . S
C1198 C1201 1.499 . S
C1199 H1173 0.950 . S
C1199 C1198 1.414 . S
C1199 C1200 1.374 . S
C1200 H1174 0.950 . S
C1200 C1196 1.385 . S
C1200 C1199 1.374 . S
C1201 C1198 1.499 . S
C1201 C1202 1.373 . S
C1201 C1203 1.389 . S
C1202 H1175 0.950 . S
C1202 C1188 1.377 . S
C1202 C1201 1.373 . S
C1203 C1187 1.377 . S
C1203 C1201 1.389 . S
C1203 C1204 1.524 . S
C1204 C1203 1.524 . S
C1204 C1205 1.397 . S
C1204 C1209 1.363 . S
C1205 H1176 0.950 . S
C1205 C1204 1.397 . S
C1205 C1206 1.334 . S
C1206 H1177 0.950 . S
C1206 C1205 1.334 . S
C1206 C1207 1.287 . S
C1207 C1206 1.287 . S
C1207 C1208 1.524 . S
C1207 H1210 0.999 . S
C1208 H1178 0.950 . S
C1208 C1207 1.524 . S
C1208 C1209 1.415 . S
C1209 H1179 0.950 . S
C1209 C1204 1.363 . S
C1209 C1208 1.415 . S
H1210 C1207 0.999 . S
H1211 C1192 0.913 . S
H1212 C1230 0.951 . S
H1213 C1232 0.951 . S
H1214 C1234 0.950 . S
H1215 C1235 0.950 . S
H1216 C1237 0.950 . S
H1217 C1240 0.950 . S
H1218 C1241 0.950 . S
H1219 C1243 0.950 . S
H1220 C1244 0.950 . S
H1221 C1245 0.951 . S
H1222 C1247 0.951 . S
H1223 C1249 0.950 . S
H1224 C1250 0.950 . S
H1225 C1252 0.950 . S
H1226 C1255 0.950 . S
H1227 C1256 0.950 . S
H1228 C1258 0.950 . S
H1229 C1259 0.950 . S
C1230 H1212 0.951 . S
C1230 C1231 1.366 . S
C1230 C1232 1.388 . S
C1231 C1230 1.366 . S
C1231 C1235 1.385 . S
C1232 H1213 0.951 . S
C1232 C1230 1.388 . S
C1232 C1233 1.366 . S
C1233 C1232 1.366 . S
C1233 C1234 1.414 . S
C1233 C1236 1.499 . S
C1234 H1214 0.950 . S
C1234 C1233 1.414 . S
C1234 C1235 1.374 . S
C1235 H1215 0.950 . S
C1235 C1231 1.385 . S
C1235 C1234 1.374 . S
C1236 C1233 1.499 . S
C1236 C1237 1.373 . S
C1236 C1238 1.389 . S
C1237 H1216 0.950 . S
C1237 C1236 1.373 . S
C1237 C1253 1.377 1_565 S
C1238 C1236 1.389 . S
C1238 C1239 1.524 . S
C1238 C1252 1.377 1_565 S
C1239 C1238 1.524 . S
C1239 C1240 1.397 . S
C1239 C1244 1.363 . S
C1240 H1217 0.950 . S
C1240 C1239 1.397 . S
C1240 C1241 1.334 . S
C1241 H1218 0.950 . S
C1241 C1240 1.334 . S
C1241 C1242 1.287 . S
C1242 C1241 1.287 . S
C1242 C1243 1.524 . S
C1242 H1261 0.913 . S
C1243 H1219 0.950 . S
C1243 C1242 1.524 . S
C1243 C1244 1.415 . S
C1244 H1220 0.950 . S
C1244 C1239 1.363 . S
C1244 C1243 1.415 . S
C1245 H1221 0.951 . S
C1245 C1246 1.366 . S
C1245 C1247 1.388 . S
C1246 C1245 1.366 . S
C1246 C1250 1.385 . S
C1247 H1222 0.951 . S
C1247 C1245 1.388 . S
C1247 C1248 1.366 . S
C1248 C1247 1.366 . S
C1248 C1249 1.414 . S
C1248 C1251 1.499 . S
C1249 H1223 0.950 . S
C1249 C1248 1.414 . S
C1249 C1250 1.374 . S
C1250 H1224 0.950 . S
C1250 C1246 1.385 . S
C1250 C1249 1.374 . S
C1251 C1248 1.499 . S
C1251 C1252 1.373 . S
C1251 C1253 1.389 . S
C1252 H1225 0.950 . S
C1252 C1238 1.377 1_545 S
C1252 C1251 1.373 . S
C1253 C1237 1.377 1_545 S
C1253 C1251 1.389 . S
C1253 C1254 1.524 . S
C1254 C1253 1.524 . S
C1254 C1255 1.397 . S
C1254 C1259 1.363 . S
C1255 H1226 0.950 . S
C1255 C1254 1.397 . S
C1255 C1256 1.334 . S
C1256 H1227 0.950 . S
C1256 C1255 1.334 . S
C1256 C1257 1.287 . S
C1257 C1256 1.287 . S
C1257 C1258 1.524 . S
C1257 H1260 0.999 . S
C1258 H1228 0.950 . S
C1258 C1257 1.524 . S
C1258 C1259 1.415 . S
C1259 H1229 0.950 . S
C1259 C1254 1.363 . S
C1259 C1258 1.415 . S
H1260 C1257 0.999 . S
H1261 C1242 0.913 . S
H1262 C1280 0.951 . S
H1263 C1282 0.951 . S
H1264 C1284 0.950 . S
H1265 C1285 0.950 . S
H1266 C1287 0.950 . S
H1267 C1290 0.950 . S
H1268 C1291 0.950 . S
H1269 C1293 0.950 . S
H1270 C1294 0.950 . S
H1271 C1295 0.951 . S
H1272 C1297 0.951 . S
H1273 C1299 0.950 . S
H1274 C1300 0.950 . S
H1275 C1302 0.950 . S
H1276 C1305 0.950 . S
H1277 C1306 0.950 . S
H1278 C1308 0.950 . S
H1279 C1309 0.950 . S
C1280 H1262 0.951 . S
C1280 C1281 1.366 . S
C1280 C1282 1.388 . S
C1281 C1280 1.366 . S
C1281 C1285 1.385 . S
C1282 H1263 0.951 . S
C1282 C1280 1.388 . S
C1282 C1283 1.366 . S
C1283 C1282 1.366 . S
C1283 C1284 1.414 . S
C1283 C1286 1.499 . S
C1284 H1264 0.950 . S
C1284 C1283 1.414 . S
C1284 C1285 1.374 . S
C1285 H1265 0.950 . S
C1285 C1281 1.385 . S
C1285 C1284 1.374 . S
C1286 C1283 1.499 . S
C1286 C1287 1.373 . S
C1286 C1288 1.389 . S
C1287 H1266 0.950 . S
C1287 C1286 1.373 . S
C1287 C1303 1.377 . S
C1288 C1286 1.389 . S
C1288 C1289 1.524 . S
C1288 C1302 1.377 . S
C1289 C1288 1.524 . S
C1289 C1290 1.397 . S
C1289 C1294 1.363 . S
C1290 H1267 0.950 . S
C1290 C1289 1.397 . S
C1290 C1291 1.334 . S
C1291 H1268 0.950 . S
C1291 C1290 1.334 . S
C1291 C1292 1.287 . S
C1292 C1291 1.287 . S
C1292 C1293 1.524 . S
C1292 H1311 0.913 . S
C1293 H1269 0.950 . S
C1293 C1292 1.524 . S
C1293 C1294 1.415 . S
C1294 H1270 0.950 . S
C1294 C1289 1.363 . S
C1294 C1293 1.415 . S
C1295 H1271 0.951 . S
C1295 C1296 1.366 . S
C1295 C1297 1.388 . S
C1296 C1295 1.366 . S
C1296 C1300 1.385 . S
C1297 H1272 0.951 . S
C1297 C1295 1.388 . S
C1297 C1298 1.366 . S
C1298 C1297 1.366 . S
C1298 C1299 1.414 . S
C1298 C1301 1.499 . S
C1299 H1273 0.950 . S
C1299 C1298 1.414 . S
C1299 C1300 1.374 . S
C1300 H1274 0.950 . S
C1300 C1296 1.385 . S
C1300 C1299 1.374 . S
C1301 C1298 1.499 . S
C1301 C1302 1.373 . S
C1301 C1303 1.389 . S
C1302 H1275 0.950 . S
C1302 C1288 1.377 . S
C1302 C1301 1.373 . S
C1303 C1287 1.377 . S
C1303 C1301 1.389 . S
C1303 C1304 1.524 . S
C1304 C1303 1.524 . S
C1304 C1305 1.397 . S
C1304 C1309 1.363 . S
C1305 H1276 0.950 . S
C1305 C1304 1.397 . S
C1305 C1306 1.334 . S
C1306 H1277 0.950 . S
C1306 C1305 1.334 . S
C1306 C1307 1.287 . S
C1307 C1306 1.287 . S
C1307 C1308 1.524 . S
C1307 H1310 0.999 . S
C1308 H1278 0.950 . S
C1308 C1307 1.524 . S
C1308 C1309 1.415 . S
C1309 H1279 0.950 . S
C1309 C1304 1.363 . S
C1309 C1308 1.415 . S
H1310 C1307 0.999 . S
H1311 C1292 0.913 . S
H1312 C1330 0.951 . S
H1313 C1332 0.951 . S
H1314 C1334 0.950 . S
H1315 C1335 0.950 . S
H1316 C1337 0.950 . S
H1317 C1340 0.950 . S
H1318 C1341 0.950 . S
H1319 C1343 0.950 . S
H1320 C1344 0.950 . S
H1321 C1345 0.951 . S
H1322 C1347 0.951 . S
H1323 C1349 0.950 . S
H1324 C1350 0.950 . S
H1325 C1352 0.950 . S
H1326 C1355 0.950 . S
H1327 C1356 0.950 . S
H1328 C1358 0.950 . S
H1329 C1359 0.950 . S
C1330 H1312 0.951 . S
C1330 C1331 1.366 . S
C1330 C1332 1.388 . S
C1331 C1330 1.366 . S
C1331 C1335 1.385 . S
C1332 H1313 0.951 . S
C1332 C1330 1.388 . S
C1332 C1333 1.366 . S
C1333 C1332 1.366 . S
C1333 C1334 1.414 . S
C1333 C1336 1.499 . S
C1334 H1314 0.950 . S
C1334 C1333 1.414 . S
C1334 C1335 1.374 . S
C1335 H1315 0.950 . S
C1335 C1331 1.385 . S
C1335 C1334 1.374 . S
C1336 C1333 1.499 . S
C1336 C1337 1.373 . S
C1336 C1338 1.389 . S
C1337 H1316 0.950 . S
C1337 C1336 1.373 . S
C1337 C1353 1.377 1_565 S
C1338 C1336 1.389 . S
C1338 C1339 1.524 . S
C1338 C1352 1.377 1_565 S
C1339 C1338 1.524 . S
C1339 C1340 1.397 . S
C1339 C1344 1.363 . S
C1340 H1317 0.950 . S
C1340 C1339 1.397 . S
C1340 C1341 1.334 . S
C1341 H1318 0.950 . S
C1341 C1340 1.334 . S
C1341 C1342 1.287 . S
C1342 C1341 1.287 . S
C1342 C1343 1.524 . S
C1342 H1361 0.913 . S
C1343 H1319 0.950 . S
C1343 C1342 1.524 . S
C1343 C1344 1.415 . S
C1344 H1320 0.950 . S
C1344 C1339 1.363 . S
C1344 C1343 1.415 . S
C1345 H1321 0.951 . S
C1345 C1346 1.366 . S
C1345 C1347 1.388 . S
C1346 C1345 1.366 . S
C1346 C1350 1.385 . S
C1347 H1322 0.951 . S
C1347 C1345 1.388 . S
C1347 C1348 1.366 . S
C1348 C1347 1.366 . S
C1348 C1349 1.414 . S
C1348 C1351 1.499 . S
C1349 H1323 0.950 . S
C1349 C1348 1.414 . S
C1349 C1350 1.374 . S
C1350 H1324 0.950 . S
C1350 C1346 1.385 . S
C1350 C1349 1.374 . S
C1351 C1348 1.499 . S
C1351 C1352 1.373 . S
C1351 C1353 1.389 . S
C1352 H1325 0.950 . S
C1352 C1338 1.377 1_545 S
C1352 C1351 1.373 . S
C1353 C1337 1.377 1_545 S
C1353 C1351 1.389 . S
C1353 C1354 1.524 . S
C1354 C1353 1.524 . S
C1354 C1355 1.397 . S
C1354 C1359 1.363 . S
C1355 H1326 0.950 . S
C1355 C1354 1.397 . S
C1355 C1356 1.334 . S
C1356 H1327 0.950 . S
C1356 C1355 1.334 . S
C1356 C1357 1.287 . S
C1357 C1356 1.287 . S
C1357 C1358 1.524 . S
C1357 H1360 0.999 . S
C1358 H1328 0.950 . S
C1358 C1357 1.524 . S
C1358 C1359 1.415 . S
C1359 H1329 0.950 . S
C1359 C1354 1.363 . S
C1359 C1358 1.415 . S
H1360 C1357 0.999 . S
H1361 C1342 0.913 . S
H1362 C1380 0.951 . S
H1363 C1382 0.951 . S
H1364 C1384 0.950 . S
H1365 C1385 0.950 . S
H1366 C1387 0.950 . S
H1367 C1390 0.950 . S
H1368 C1391 0.950 . S
H1369 C1393 0.950 . S
H1370 C1394 0.950 . S
H1371 C1395 0.951 . S
H1372 C1397 0.951 . S
H1373 C1399 0.950 . S
H1374 C1400 0.950 . S
H1375 C1402 0.950 . S
H1376 C1405 0.950 . S
H1377 C1406 0.950 . S
H1378 C1408 0.950 . S
H1379 C1409 0.950 . S
C1380 H1362 0.951 . S
C1380 C1381 1.366 . S
C1380 C1382 1.388 . S
C1381 C1380 1.366 . S
C1381 C1385 1.385 . S
C1382 H1363 0.951 . S
C1382 C1380 1.388 . S
C1382 C1383 1.366 . S
C1383 C1382 1.366 . S
C1383 C1384 1.414 . S
C1383 C1386 1.499 . S
C1384 H1364 0.950 . S
C1384 C1383 1.414 . S
C1384 C1385 1.374 . S
C1385 H1365 0.950 . S
C1385 C1381 1.385 . S
C1385 C1384 1.374 . S
C1386 C1383 1.499 . S
C1386 C1387 1.373 . S
C1386 C1388 1.389 . S
C1387 H1366 0.950 . S
C1387 C1386 1.373 . S
C1387 C1403 1.377 . S
C1388 C1386 1.389 . S
C1388 C1389 1.524 . S
C1388 C1402 1.377 . S
C1389 C1388 1.524 . S
C1389 C1390 1.397 . S
C1389 C1394 1.363 . S
C1390 H1367 0.950 . S
C1390 C1389 1.397 . S
C1390 C1391 1.334 . S
C1391 H1368 0.950 . S
C1391 C1390 1.334 . S
C1391 C1392 1.287 . S
C1392 C1391 1.287 . S
C1392 C1393 1.524 . S
C1392 H1411 0.913 . S
C1393 H1369 0.950 . S
C1393 C1392 1.524 . S
C1393 C1394 1.415 . S
C1394 H1370 0.950 . S
C1394 C1389 1.363 . S
C1394 C1393 1.415 . S
C1395 H1371 0.951 . S
C1395 C1396 1.366 . S
C1395 C1397 1.388 . S
C1396 C1395 1.366 . S
C1396 C1400 1.385 . S
C1397 H1372 0.951 . S
C1397 C1395 1.388 . S
C1397 C1398 1.366 . S
C1398 C1397 1.366 . S
C1398 C1399 1.414 . S
C1398 C1401 1.499 . S
C1399 H1373 0.950 . S
C1399 C1398 1.414 . S
C1399 C1400 1.374 . S
C1400 H1374 0.950 . S
C1400 C1396 1.385 . S
C1400 C1399 1.374 . S
C1401 C1398 1.499 . S
C1401 C1402 1.373 . S
C1401 C1403 1.389 . S
C1402 H1375 0.950 . S
C1402 C1388 1.377 . S
C1402 C1401 1.373 . S
C1403 C1387 1.377 . S
C1403 C1401 1.389 . S
C1403 C1404 1.524 . S
C1404 C1403 1.524 . S
C1404 C1405 1.397 . S
C1404 C1409 1.363 . S
C1405 H1376 0.950 . S
C1405 C1404 1.397 . S
C1405 C1406 1.334 . S
C1406 H1377 0.950 . S
C1406 C1405 1.334 . S
C1406 C1407 1.287 . S
C1407 C1406 1.287 . S
C1407 C1408 1.524 . S
C1407 H1410 0.999 . S
C1408 H1378 0.950 . S
C1408 C1407 1.524 . S
C1408 C1409 1.415 . S
C1409 H1379 0.950 . S
C1409 C1404 1.363 . S
C1409 C1408 1.415 . S
H1410 C1407 0.999 . S
H1411 C1392 0.913 . S
H1412 C1430 0.951 . S
H1413 C1432 0.951 . S
H1414 C1434 0.950 . S
H1415 C1435 0.950 . S
H1416 C1437 0.950 . S
H1417 C1440 0.950 . S
H1418 C1441 0.950 . S
H1419 C1443 0.950 . S
H1420 C1444 0.950 . S
H1421 C1445 0.951 . S
H1422 C1447 0.951 . S
H1423 C1449 0.950 . S
H1424 C1450 0.950 . S
H1425 C1452 0.950 . S
H1426 C1455 0.950 . S
H1427 C1456 0.950 . S
H1428 C1458 0.950 . S
H1429 C1459 0.950 . S
C1430 H1412 0.951 . S
C1430 C1431 1.366 . S
C1430 C1432 1.388 . S
C1431 C1430 1.366 . S
C1431 C1435 1.385 . S
C1432 H1413 0.951 . S
C1432 C1430 1.388 . S
C1432 C1433 1.366 . S
C1433 C1432 1.366 . S
C1433 C1434 1.414 . S
C1433 C1436 1.499 . S
C1434 H1414 0.950 . S
C1434 C1433 1.414 . S
C1434 C1435 1.374 . S
C1435 H1415 0.950 . S
C1435 C1431 1.385 . S
C1435 C1434 1.374 . S
C1436 C1433 1.499 . S
C1436 C1437 1.373 . S
C1436 C1438 1.389 . S
C1437 H1416 0.950 . S
C1437 C1436 1.373 . S
C1437 C1453 1.377 1_565 S
C1438 C1436 1.389 . S
C1438 C1439 1.524 . S
C1438 C1452 1.377 1_565 S
C1439 C1438 1.524 . S
C1439 C1440 1.397 . S
C1439 C1444 1.363 . S
C1440 H1417 0.950 . S
C1440 C1439 1.397 . S
C1440 C1441 1.334 . S
C1441 H1418 0.950 . S
C1441 C1440 1.334 . S
C1441 C1442 1.287 . S
C1442 C1441 1.287 . S
C1442 C1443 1.524 . S
C1442 H1461 0.913 . S
C1443 H1419 0.950 . S
C1443 C1442 1.524 . S
C1443 C1444 1.415 . S
C1444 H1420 0.950 . S
C1444 C1439 1.363 . S
C1444 C1443 1.415 . S
C1445 H1421 0.951 . S
C1445 C1446 1.366 . S
C1445 C1447 1.388 . S
C1446 C1445 1.366 . S
C1446 C1450 1.385 . S
C1447 H1422 0.951 . S
C1447 C1445 1.388 . S
C1447 C1448 1.366 . S
C1448 C1447 1.366 . S
C1448 C1449 1.414 . S
C1448 C1451 1.499 . S
C1449 H1423 0.950 . S
C1449 C1448 1.414 . S
C1449 C1450 1.374 . S
C1450 H1424 0.950 . S
C1450 C1446 1.385 . S
C1450 C1449 1.374 . S
C1451 C1448 1.499 . S
C1451 C1452 1.373 . S
C1451 C1453 1.389 . S
C1452 H1425 0.950 . S
C1452 C1438 1.377 1_545 S
C1452 C1451 1.373 . S
C1453 C1437 1.377 1_545 S
C1453 C1451 1.389 . S
C1453 C1454 1.524 . S
C1454 C1453 1.524 . S
C1454 C1455 1.397 . S
C1454 C1459 1.363 . S
C1455 H1426 0.950 . S
C1455 C1454 1.397 . S
C1455 C1456 1.334 . S
C1456 H1427 0.950 . S
C1456 C1455 1.334 . S
C1456 C1457 1.287 . S
C1457 C1456 1.287 . S
C1457 C1458 1.524 . S
C1457 H1460 0.999 . S
C1458 H1428 0.950 . S
C1458 C1457 1.524 . S
C1458 C1459 1.415 . S
C1459 H1429 0.950 . S
C1459 C1454 1.363 . S
C1459 C1458 1.415 . S
H1460 C1457 0.999 . S
H1461 C1442 0.913 . S
H1462 C1480 0.951 . S
H1463 C1482 0.951 . S
H1464 C1484 0.950 . S
H1465 C1485 0.950 . S
H1466 C1487 0.950 . S
H1467 C1490 0.950 . S
H1468 C1491 0.950 . S
H1469 C1493 0.950 . S
H1470 C1494 0.950 . S
H1471 C1495 0.951 . S
H1472 C1497 0.951 . S
H1473 C1499 0.950 . S
H1474 C1500 0.950 . S
H1475 C1502 0.950 . S
H1476 C1505 0.950 . S
H1477 C1506 0.950 . S
H1478 C1508 0.950 . S
H1479 C1509 0.950 . S
C1480 H1462 0.951 . S
C1480 C1481 1.366 . S
C1480 C1482 1.388 . S
C1481 C1480 1.366 . S
C1481 C1485 1.385 . S
C1482 H1463 0.951 . S
C1482 C1480 1.388 . S
C1482 C1483 1.366 . S
C1483 C1482 1.366 . S
C1483 C1484 1.414 . S
C1483 C1486 1.499 . S
C1484 H1464 0.950 . S
C1484 C1483 1.414 . S
C1484 C1485 1.374 . S
C1485 H1465 0.950 . S
C1485 C1481 1.385 . S
C1485 C1484 1.374 . S
C1486 C1483 1.499 . S
C1486 C1487 1.373 . S
C1486 C1488 1.389 . S
C1487 H1466 0.950 . S
C1487 C1486 1.373 . S
C1487 C1503 1.377 1_545 S
C1488 C1486 1.389 . S
C1488 C1489 1.524 . S
C1488 C1502 1.377 1_545 S
C1489 C1488 1.524 . S
C1489 C1490 1.397 . S
C1489 C1494 1.363 . S
C1490 H1467 0.950 . S
C1490 C1489 1.397 . S
C1490 C1491 1.334 . S
C1491 H1468 0.950 . S
C1491 C1490 1.334 . S
C1491 C1492 1.287 . S
C1492 C1491 1.287 . S
C1492 C1493 1.524 . S
C1492 H1511 0.913 . S
C1493 H1469 0.950 . S
C1493 C1492 1.524 . S
C1493 C1494 1.415 . S
C1494 H1470 0.950 . S
C1494 C1489 1.363 . S
C1494 C1493 1.415 . S
C1495 H1471 0.951 . S
C1495 C1496 1.366 . S
C1495 C1497 1.388 . S
C1496 C1495 1.366 . S
C1496 C1500 1.385 . S
C1497 H1472 0.951 . S
C1497 C1495 1.388 . S
C1497 C1498 1.366 . S
C1498 C1497 1.366 . S
C1498 C1499 1.414 . S
C1498 C1501 1.499 . S
C1499 H1473 0.950 . S
C1499 C1498 1.414 . S
C1499 C1500 1.374 . S
C1500 H1474 0.950 . S
C1500 C1496 1.385 . S
C1500 C1499 1.374 . S
C1501 C1498 1.499 . S
C1501 C1502 1.373 . S
C1501 C1503 1.389 . S
C1502 H1475 0.950 . S
C1502 C1488 1.377 1_565 S
C1502 C1501 1.373 . S
C1503 C1487 1.377 1_565 S
C1503 C1501 1.389 . S
C1503 C1504 1.524 . S
C1504 C1503 1.524 . S
C1504 C1505 1.397 . S
C1504 C1509 1.363 . S
C1505 H1476 0.950 . S
C1505 C1504 1.397 . S
C1505 C1506 1.334 . S
C1506 H1477 0.950 . S
C1506 C1505 1.334 . S
C1506 C1507 1.287 . S
C1507 C1506 1.287 . S
C1507 C1508 1.524 . S
C1507 H1510 0.999 . S
C1508 H1478 0.950 . S
C1508 C1507 1.524 . S
C1508 C1509 1.415 . S
C1509 H1479 0.950 . S
C1509 C1504 1.363 . S
C1509 C1508 1.415 . S
H1510 C1507 0.999 . S
H1511 C1492 0.913 . S
H1512 C1530 0.951 . S
H1513 C1532 0.951 . S
H1514 C1534 0.950 . S
H1515 C1535 0.950 . S
H1516 C1537 0.950 . S
H1517 C1540 0.950 . S
H1518 C1541 0.950 . S
H1519 C1543 0.950 . S
H1520 C1544 0.950 . S
H1521 C1545 0.951 . S
H1522 C1547 0.951 . S
H1523 C1549 0.950 . S
H1524 C1550 0.950 . S
H1525 C1552 0.950 . S
H1526 C1555 0.950 . S
H1527 C1556 0.950 . S
H1528 C1558 0.950 . S
H1529 C1559 0.950 . S
C1530 H1512 0.951 . S
C1530 C1531 1.366 . S
C1530 C1532 1.388 . S
C1531 C1530 1.366 . S
C1531 C1535 1.385 . S
C1532 H1513 0.951 . S
C1532 C1530 1.388 . S
C1532 C1533 1.366 . S
C1533 C1532 1.366 . S
C1533 C1534 1.414 . S
C1533 C1536 1.499 . S
C1534 H1514 0.950 . S
C1534 C1533 1.414 . S
C1534 C1535 1.374 . S
C1535 H1515 0.950 . S
C1535 C1531 1.385 . S
C1535 C1534 1.374 . S
C1536 C1533 1.499 . S
C1536 C1537 1.373 . S
C1536 C1538 1.389 . S
C1537 H1516 0.950 . S
C1537 C1536 1.373 . S
C1537 C1553 1.377 . S
C1538 C1536 1.389 . S
C1538 C1539 1.524 . S
C1538 C1552 1.377 . S
C1539 C1538 1.524 . S
C1539 C1540 1.397 . S
C1539 C1544 1.363 . S
C1540 H1517 0.950 . S
C1540 C1539 1.397 . S
C1540 C1541 1.334 . S
C1541 H1518 0.950 . S
C1541 C1540 1.334 . S
C1541 C1542 1.287 . S
C1542 C1541 1.287 . S
C1542 C1543 1.524 . S
C1542 H1561 0.913 . S
C1543 H1519 0.950 . S
C1543 C1542 1.524 . S
C1543 C1544 1.415 . S
C1544 H1520 0.950 . S
C1544 C1539 1.363 . S
C1544 C1543 1.415 . S
C1545 H1521 0.951 . S
C1545 C1546 1.366 . S
C1545 C1547 1.388 . S
C1546 C1545 1.366 . S
C1546 C1550 1.385 . S
C1547 H1522 0.951 . S
C1547 C1545 1.388 . S
C1547 C1548 1.366 . S
C1548 C1547 1.366 . S
C1548 C1549 1.414 . S
C1548 C1551 1.499 . S
C1549 H1523 0.950 . S
C1549 C1548 1.414 . S
C1549 C1550 1.374 . S
C1550 H1524 0.950 . S
C1550 C1546 1.385 . S
C1550 C1549 1.374 . S
C1551 C1548 1.499 . S
C1551 C1552 1.373 . S
C1551 C1553 1.389 . S
C1552 H1525 0.950 . S
C1552 C1538 1.377 . S
C1552 C1551 1.373 . S
C1553 C1537 1.377 . S
C1553 C1551 1.389 . S
C1553 C1554 1.524 . S
C1554 C1553 1.524 . S
C1554 C1555 1.397 . S
C1554 C1559 1.363 . S
C1555 H1526 0.950 . S
C1555 C1554 1.397 . S
C1555 C1556 1.334 . S
C1556 H1527 0.950 . S
C1556 C1555 1.334 . S
C1556 C1557 1.287 . S
C1557 C1556 1.287 . S
C1557 C1558 1.524 . S
C1557 H1560 0.999 . S
C1558 H1528 0.950 . S
C1558 C1557 1.524 . S
C1558 C1559 1.415 . S
C1559 H1529 0.950 . S
C1559 C1554 1.363 . S
C1559 C1558 1.415 . S
H1560 C1557 0.999 . S
H1561 C1542 0.913 . S
H1562 C1580 0.951 . S
H1563 C1582 0.951 . S
H1564 C1584 0.950 . S
H1565 C1585 0.950 . S
H1566 C1587 0.950 . S
H1567 C1590 0.950 . S
H1568 C1591 0.950 . S
H1569 C1593 0.950 . S
H1570 C1594 0.950 . S
H1571 C1595 0.951 . S
H1572 C1597 0.951 . S
H1573 C1599 0.950 . S
H1574 C1600 0.950 . S
H1575 C1602 0.950 . S
H1576 C1605 0.950 . S
H1577 C1606 0.950 . S
H1578 C1608 0.950 . S
H1579 C1609 0.950 . S
C1580 H1562 0.951 . S
C1580 C1581 1.366 . S
C1580 C1582 1.388 . S
C1581 C1580 1.366 . S
C1581 C1585 1.385 . S
C1582 H1563 0.951 . S
C1582 C1580 1.388 . S
C1582 C1583 1.366 . S
C1583 C1582 1.366 . S
C1583 C1584 1.414 . S
C1583 C1586 1.499 . S
C1584 H1564 0.950 . S
C1584 C1583 1.414 . S
C1584 C1585 1.374 . S
C1585 H1565 0.950 . S
C1585 C1581 1.385 . S
C1585 C1584 1.374 . S
C1586 C1583 1.499 . S
C1586 C1587 1.373 . S
C1586 C1588 1.389 . S
C1587 H1566 0.950 . S
C1587 C1586 1.373 . S
C1587 C1603 1.377 . S
C1588 C1586 1.389 . S
C1588 C1589 1.524 . S
C1588 C1602 1.377 . S
C1589 C1588 1.524 . S
C1589 C1590 1.397 . S
C1589 C1594 1.363 . S
C1590 H1567 0.950 . S
C1590 C1589 1.397 . S
C1590 C1591 1.334 . S
C1591 H1568 0.950 . S
C1591 C1590 1.334 . S
C1591 C1592 1.287 . S
C1592 C1591 1.287 . S
C1592 C1593 1.524 . S
C1592 H1611 0.913 . S
C1593 H1569 0.950 . S
C1593 C1592 1.524 . S
C1593 C1594 1.415 . S
C1594 H1570 0.950 . S
C1594 C1589 1.363 . S
C1594 C1593 1.415 . S
C1595 H1571 0.951 . S
C1595 C1596 1.366 . S
C1595 C1597 1.388 . S
C1596 C1595 1.366 . S
C1596 C1600 1.385 . S
C1597 H1572 0.951 . S
C1597 C1595 1.388 . S
C1597 C1598 1.366 . S
C1598 C1597 1.366 . S
C1598 C1599 1.414 . S
C1598 C1601 1.499 . S
C1599 H1573 0.950 . S
C1599 C1598 1.414 . S
C1599 C1600 1.374 . S
C1600 H1574 0.950 . S
C1600 C1596 1.385 . S
C1600 C1599 1.374 . S
C1601 C1598 1.499 . S
C1601 C1602 1.373 . S
C1601 C1603 1.389 . S
C1602 H1575 0.950 . S
C1602 C1588 1.377 . S
C1602 C1601 1.373 . S
C1603 C1587 1.377 . S
C1603 C1601 1.389 . S
C1603 C1604 1.524 . S
C1604 C1603 1.524 . S
C1604 C1605 1.397 . S
C1604 C1609 1.363 . S
C1605 H1576 0.950 . S
C1605 C1604 1.397 . S
C1605 C1606 1.334 . S
C1606 H1577 0.950 . S
C1606 C1605 1.334 . S
C1606 C1607 1.287 . S
C1607 C1606 1.287 . S
C1607 C1608 1.524 . S
C1607 H1610 0.999 . S
C1608 H1578 0.950 . S
C1608 C1607 1.524 . S
C1608 C1609 1.415 . S
C1609 H1579 0.950 . S
C1609 C1604 1.363 . S
C1609 C1608 1.415 . S
H1610 C1607 0.999 . S
H1611 C1592 0.913 . S
H1612 C1630 0.951 . S
H1613 C1632 0.951 . S
H1614 C1634 0.950 . S
H1615 C1635 0.950 . S
H1616 C1637 0.950 . S
H1617 C1640 0.950 . S
H1618 C1641 0.950 . S
H1619 C1643 0.950 . S
H1620 C1644 0.950 . S
H1621 C1645 0.951 . S
H1622 C1647 0.951 . S
H1623 C1649 0.950 . S
H1624 C1650 0.950 . S
H1625 C1652 0.950 . S
H1626 C1655 0.950 . S
H1627 C1656 0.950 . S
H1628 C1658 0.950 . S
H1629 C1659 0.950 . S
C1630 H1612 0.951 . S
C1630 C1631 1.366 . S
C1630 C1632 1.388 . S
C1631 C1630 1.366 . S
C1631 C1635 1.385 . S
C1632 H1613 0.951 . S
C1632 C1630 1.388 . S
C1632 C1633 1.366 . S
C1633 C1632 1.366 . S
C1633 C1634 1.414 . S
C1633 C1636 1.499 . S
C1634 H1614 0.950 . S
C1634 C1633 1.414 . S
C1634 C1635 1.374 . S
C1635 H1615 0.950 . S
C1635 C1631 1.385 . S
C1635 C1634 1.374 . S
C1636 C1633 1.499 . S
C1636 C1637 1.373 . S
C1636 C1638 1.389 . S
C1637 H1616 0.950 . S
C1637 C1636 1.373 . S
C1637 C1653 1.377 . S
C1638 C1636 1.389 . S
C1638 C1639 1.524 . S
C1638 C1652 1.377 . S
C1639 C1638 1.524 . S
C1639 C1640 1.397 . S
C1639 C1644 1.363 . S
C1640 H1617 0.950 . S
C1640 C1639 1.397 . S
C1640 C1641 1.334 . S
C1641 H1618 0.950 . S
C1641 C1640 1.334 . S
C1641 C1642 1.287 . S
C1642 C1641 1.287 . S
C1642 C1643 1.524 . S
C1642 H1661 0.913 . S
C1643 H1619 0.950 . S
C1643 C1642 1.524 . S
C1643 C1644 1.415 . S
C1644 H1620 0.950 . S
C1644 C1639 1.363 . S
C1644 C1643 1.415 . S
C1645 H1621 0.951 . S
C1645 C1646 1.366 . S
C1645 C1647 1.388 . S
C1646 C1645 1.366 . S
C1646 C1650 1.385 . S
C1647 H1622 0.951 . S
C1647 C1645 1.388 . S
C1647 C1648 1.366 . S
C1648 C1647 1.366 . S
C1648 C1649 1.414 . S
C1648 C1651 1.499 . S
C1649 H1623 0.950 . S
C1649 C1648 1.414 . S
C1649 C1650 1.374 . S
C1650 H1624 0.950 . S
C1650 C1646 1.385 . S
C1650 C1649 1.374 . S
C1651 C1648 1.499 . S
C1651 C1652 1.373 . S
C1651 C1653 1.389 . S
C1652 H1625 0.950 . S
C1652 C1638 1.377 . S
C1652 C1651 1.373 . S
C1653 C1637 1.377 . S
C1653 C1651 1.389 . S
C1653 C1654 1.524 . S
C1654 C1653 1.524 . S
C1654 C1655 1.397 . S
C1654 C1659 1.363 . S
C1655 H1626 0.950 . S
C1655 C1654 1.397 . S
C1655 C1656 1.334 . S
C1656 H1627 0.950 . S
C1656 C1655 1.334 . S
C1656 C1657 1.287 . S
C1657 C1656 1.287 . S
C1657 C1658 1.524 . S
C1657 H1660 0.999 . S
C1658 H1628 0.950 . S
C1658 C1657 1.524 . S
C1658 C1659 1.415 . S
C1659 H1629 0.950 . S
C1659 C1654 1.363 . S
C1659 C1658 1.415 . S
H1660 C1657 0.999 . S
H1661 C1642 0.913 . S
H1662 C1680 0.951 . S
H1663 C1682 0.951 . S
H1664 C1684 0.950 . S
H1665 C1685 0.950 . S
H1666 C1687 0.950 . S
H1667 C1690 0.950 . S
H1668 C1691 0.950 . S
H1669 C1693 0.950 . S
H1670 C1694 0.950 . S
H1671 C1695 0.951 . S
H1672 C1697 0.951 . S
H1673 C1699 0.950 . S
H1674 C1700 0.950 . S
H1675 C1702 0.950 . S
H1676 C1705 0.950 . S
H1677 C1706 0.950 . S
H1678 C1708 0.950 . S
H1679 C1709 0.950 . S
C1680 H1662 0.951 . S
C1680 C1681 1.366 . S
C1680 C1682 1.388 . S
C1681 C1680 1.366 . S
C1681 C1685 1.385 . S
C1682 H1663 0.951 . S
C1682 C1680 1.388 . S
C1682 C1683 1.366 . S
C1683 C1682 1.366 . S
C1683 C1684 1.414 . S
C1683 C1686 1.499 . S
C1684 H1664 0.950 . S
C1684 C1683 1.414 . S
C1684 C1685 1.374 . S
C1685 H1665 0.950 . S
C1685 C1681 1.385 . S
C1685 C1684 1.374 . S
C1686 C1683 1.499 . S
C1686 C1687 1.373 . S
C1686 C1688 1.389 . S
C1687 H1666 0.950 . S
C1687 C1686 1.373 . S
C1687 C1703 1.377 . S
C1688 C1686 1.389 . S
C1688 C1689 1.524 . S
C1688 C1702 1.377 . S
C1689 C1688 1.524 . S
C1689 C1690 1.397 . S
C1689 C1694 1.363 . S
C1690 H1667 0.950 . S
C1690 C1689 1.397 . S
C1690 C1691 1.334 . S
C1691 H1668 0.950 . S
C1691 C1690 1.334 . S
C1691 C1692 1.287 . S
C1692 C1691 1.287 . S
C1692 C1693 1.524 . S
C1692 H1711 0.913 . S
C1693 H1669 0.950 . S
C1693 C1692 1.524 . S
C1693 C1694 1.415 . S
C1694 H1670 0.950 . S
C1694 C1689 1.363 . S
C1694 C1693 1.415 . S
C1695 H1671 0.951 . S
C1695 C1696 1.366 . S
C1695 C1697 1.388 . S
C1696 C1695 1.366 . S
C1696 C1700 1.385 . S
C1697 H1672 0.951 . S
C1697 C1695 1.388 . S
C1697 C1698 1.366 . S
C1698 C1697 1.366 . S
C1698 C1699 1.414 . S
C1698 C1701 1.499 . S
C1699 H1673 0.950 . S
C1699 C1698 1.414 . S
C1699 C1700 1.374 . S
C1700 H1674 0.950 . S
C1700 C1696 1.385 . S
C1700 C1699 1.374 . S
C1701 C1698 1.499 . S
C1701 C1702 1.373 . S
C1701 C1703 1.389 . S
C1702 H1675 0.950 . S
C1702 C1688 1.377 . S
C1702 C1701 1.373 . S
C1703 C1687 1.377 . S
C1703 C1701 1.389 . S
C1703 C1704 1.524 . S
C1704 C1703 1.524 . S
C1704 C1705 1.397 . S
C1704 C1709 1.363 . S
C1705 H1676 0.950 . S
C1705 C1704 1.397 . S
C1705 C1706 1.334 . S
C1706 H1677 0.950 . S
C1706 C1705 1.334 . S
C1706 C1707 1.287 . S
C1707 C1706 1.287 . S
C1707 C1708 1.524 . S
C1707 H1710 0.999 . S
C1708 H1678 0.950 . S
C1708 C1707 1.524 . S
C1708 C1709 1.415 . S
C1709 H1679 0.950 . S
C1709 C1704 1.363 . S
C1709 C1708 1.415 . S
H1710 C1707 0.999 . S
H1711 C1692 0.913 . S
H1712 C1730 0.951 . S
H1713 C1732 0.951 . S
H1714 C1734 0.950 . S
H1715 C1735 0.950 . S
H1716 C1737 0.950 . S
H1717 C1740 0.950 . S
H1718 C1741 0.950 . S
H1719 C1743 0.950 . S
H1720 C1744 0.950 . S
H1721 C1745 0.951 . S
H1722 C1747 0.951 . S
H1723 C1749 0.950 . S
H1724 C1750 0.950 . S
H1725 C1752 0.950 . S
H1726 C1755 0.950 . S
H1727 C1756 0.950 . S
H1728 C1758 0.950 . S
H1729 C1759 0.950 . S
C1730 H1712 0.951 . S
C1730 C1731 1.366 . S
C1730 C1732 1.388 . S
C1731 C1730 1.366 . S
C1731 C1735 1.385 . S
C1732 H1713 0.951 . S
C1732 C1730 1.388 . S
C1732 C1733 1.366 . S
C1733 C1732 1.366 . S
C1733 C1734 1.414 . S
C1733 C1736 1.499 . S
C1734 H1714 0.950 . S
C1734 C1733 1.414 . S
C1734 C1735 1.374 . S
C1735 H1715 0.950 . S
C1735 C1731 1.385 . S
C1735 C1734 1.374 . S
C1736 C1733 1.499 . S
C1736 C1737 1.373 . S
C1736 C1738 1.389 . S
C1737 H1716 0.950 . S
C1737 C1736 1.373 . S
C1737 C1753 1.377 . S
C1738 C1736 1.389 . S
C1738 C1739 1.524 . S
C1738 C1752 1.377 . S
C1739 C1738 1.524 . S
C1739 C1740 1.397 . S
C1739 C1744 1.363 . S
C1740 H1717 0.950 . S
C1740 C1739 1.397 . S
C1740 C1741 1.334 . S
C1741 H1718 0.950 . S
C1741 C1740 1.334 . S
C1741 C1742 1.287 . S
C1742 C1741 1.287 . S
C1742 C1743 1.524 . S
C1742 H1761 0.913 . S
C1743 H1719 0.950 . S
C1743 C1742 1.524 . S
C1743 C1744 1.415 . S
C1744 H1720 0.950 . S
C1744 C1739 1.363 . S
C1744 C1743 1.415 . S
C1745 H1721 0.951 . S
C1745 C1746 1.366 . S
C1745 C1747 1.388 . S
C1746 C1745 1.366 . S
C1746 C1750 1.385 . S
C1747 H1722 0.951 . S
C1747 C1745 1.388 . S
C1747 C1748 1.366 . S
C1748 C1747 1.366 . S
C1748 C1749 1.414 . S
C1748 C1751 1.499 . S
C1749 H1723 0.950 . S
C1749 C1748 1.414 . S
C1749 C1750 1.374 . S
C1750 H1724 0.950 . S
C1750 C1746 1.385 . S
C1750 C1749 1.374 . S
C1751 C1748 1.499 . S
C1751 C1752 1.373 . S
C1751 C1753 1.389 . S
C1752 H1725 0.950 . S
C1752 C1738 1.377 . S
C1752 C1751 1.373 . S
C1753 C1737 1.377 . S
C1753 C1751 1.389 . S
C1753 C1754 1.524 . S
C1754 C1753 1.524 . S
C1754 C1755 1.397 . S
C1754 C1759 1.363 . S
C1755 H1726 0.950 . S
C1755 C1754 1.397 . S
C1755 C1756 1.334 . S
C1756 H1727 0.950 . S
C1756 C1755 1.334 . S
C1756 C1757 1.287 . S
C1757 C1756 1.287 . S
C1757 C1758 1.524 . S
C1757 H1760 0.999 . S
C1758 H1728 0.950 . S
C1758 C1757 1.524 . S
C1758 C1759 1.415 . S
C1759 H1729 0.950 . S
C1759 C1754 1.363 . S
C1759 C1758 1.415 . S
H1760 C1757 0.999 . S
H1761 C1742 0.913 . S
H1762 C1780 0.951 . S
H1763 C1782 0.951 . S
H1764 C1784 0.950 . S
H1765 C1785 0.950 . S
H1766 C1787 0.950 . S
H1767 C1790 0.950 . S
H1768 C1791 0.950 . S
H1769 C1793 0.950 . S
H1770 C1794 0.950 . S
H1771 C1795 0.951 . S
H1772 C1797 0.951 . S
H1773 C1799 0.950 . S
H1774 C1800 0.950 . S
H1775 C1802 0.950 . S
H1776 C1805 0.950 . S
H1777 C1806 0.950 . S
H1778 C1808 0.950 . S
H1779 C1809 0.950 . S
C1780 H1762 0.951 . S
C1780 C1781 1.366 . S
C1780 C1782 1.388 . S
C1781 C1780 1.366 . S
C1781 C1785 1.385 . S
C1782 H1763 0.951 . S
C1782 C1780 1.388 . S
C1782 C1783 1.366 . S
C1783 C1782 1.366 . S
C1783 C1784 1.414 . S
C1783 C1786 1.499 . S
C1784 H1764 0.950 . S
C1784 C1783 1.414 . S
C1784 C1785 1.374 . S
C1785 H1765 0.950 . S
C1785 C1781 1.385 . S
C1785 C1784 1.374 . S
C1786 C1783 1.499 . S
C1786 C1787 1.373 . S
C1786 C1788 1.389 . S
C1787 H1766 0.950 . S
C1787 C1786 1.373 . S
C1787 C1803 1.377 . S
C1788 C1786 1.389 . S
C1788 C1789 1.524 . S
C1788 C1802 1.377 . S
C1789 C1788 1.524 . S
C1789 C1790 1.397 . S
C1789 C1794 1.363 . S
C1790 H1767 0.950 . S
C1790 C1789 1.397 . S
C1790 C1791 1.334 . S
C1791 H1768 0.950 . S
C1791 C1790 1.334 . S
C1791 C1792 1.287 . S
C1792 C1791 1.287 . S
C1792 C1793 1.524 . S
C1792 H1811 0.913 . S
C1793 H1769 0.950 . S
C1793 C1792 1.524 . S
C1793 C1794 1.415 . S
C1794 H1770 0.950 . S
C1794 C1789 1.363 . S
C1794 C1793 1.415 . S
C1795 H1771 0.951 . S
C1795 C1796 1.366 . S
C1795 C1797 1.388 . S
C1796 C1795 1.366 . S
C1796 C1800 1.385 . S
C1797 H1772 0.951 . S
C1797 C1795 1.388 . S
C1797 C1798 1.366 . S
C1798 C1797 1.366 . S
C1798 C1799 1.414 . S
C1798 C1801 1.499 . S
C1799 H1773 0.950 . S
C1799 C1798 1.414 . S
C1799 C1800 1.374 . S
C1800 H1774 0.950 . S
C1800 C1796 1.385 . S
C1800 C1799 1.374 . S
C1801 C1798 1.499 . S
C1801 C1802 1.373 . S
C1801 C1803 1.389 . S
C1802 H1775 0.950 . S
C1802 C1788 1.377 . S
C1802 C1801 1.373 . S
C1803 C1787 1.377 . S
C1803 C1801 1.389 . S
C1803 C1804 1.524 . S
C1804 C1803 1.524 . S
C1804 C1805 1.397 . S
C1804 C1809 1.363 . S
C1805 H1776 0.950 . S
C1805 C1804 1.397 . S
C1805 C1806 1.334 . S
C1806 H1777 0.950 . S
C1806 C1805 1.334 . S
C1806 C1807 1.287 . S
C1807 C1806 1.287 . S
C1807 C1808 1.524 . S
C1807 H1810 0.999 . S
C1808 H1778 0.950 . S
C1808 C1807 1.524 . S
C1808 C1809 1.415 . S
C1809 H1779 0.950 . S
C1809 C1804 1.363 . S
C1809 C1808 1.415 . S
H1810 C1807 0.999 . S
H1811 C1792 0.913 . S
H1812 C1830 0.951 . S
H1813 C1832 0.951 . S
H1814 C1834 0.950 . S
H1815 C1835 0.950 . S
H1816 C1837 0.950 . S
H1817 C1840 0.950 . S
H1818 C1841 0.950 . S
H1819 C1843 0.950 . S
H1820 C1844 0.950 . S
H1821 C1845 0.951 . S
H1822 C1847 0.951 . S
H1823 C1849 0.950 . S
H1824 C1850 0.950 . S
H1825 C1852 0.950 . S
H1826 C1855 0.950 . S
H1827 C1856 0.950 . S
H1828 C1858 0.950 . S
H1829 C1859 0.950 . S
C1830 H1812 0.951 . S
C1830 C1831 1.366 . S
C1830 C1832 1.388 . S
C1831 C1830 1.366 . S
C1831 C1835 1.385 . S
C1832 H1813 0.951 . S
C1832 C1830 1.388 . S
C1832 C1833 1.366 . S
C1833 C1832 1.366 . S
C1833 C1834 1.414 . S
C1833 C1836 1.499 . S
C1834 H1814 0.950 . S
C1834 C1833 1.414 . S
C1834 C1835 1.374 . S
C1835 H1815 0.950 . S
C1835 C1831 1.385 . S
C1835 C1834 1.374 . S
C1836 C1833 1.499 . S
C1836 C1837 1.373 . S
C1836 C1838 1.389 . S
C1837 H1816 0.950 . S
C1837 C1836 1.373 . S
C1837 C1853 1.377 . S
C1838 C1836 1.389 . S
C1838 C1839 1.524 . S
C1838 C1852 1.377 . S
C1839 C1838 1.524 . S
C1839 C1840 1.397 . S
C1839 C1844 1.363 . S
C1840 H1817 0.950 . S
C1840 C1839 1.397 . S
C1840 C1841 1.334 . S
C1841 H1818 0.950 . S
C1841 C1840 1.334 . S
C1841 C1842 1.287 . S
C1842 C1841 1.287 . S
C1842 C1843 1.524 . S
C1842 H1861 0.913 . S
C1843 H1819 0.950 . S
C1843 C1842 1.524 . S
C1843 C1844 1.415 . S
C1844 H1820 0.950 . S
C1844 C1839 1.363 . S
C1844 C1843 1.415 . S
C1845 H1821 0.951 . S
C1845 C1846 1.366 . S
C1845 C1847 1.388 . S
C1846 C1845 1.366 . S
C1846 C1850 1.385 . S
C1847 H1822 0.951 . S
C1847 C1845 1.388 . S
C1847 C1848 1.366 . S
C1848 C1847 1.366 . S
C1848 C1849 1.414 . S
C1848 C1851 1.499 . S
C1849 H1823 0.950 . S
C1849 C1848 1.414 . S
C1849 C1850 1.374 . S
C1850 H1824 0.950 . S
C1850 C1846 1.385 . S
C1850 C1849 1.374 . S
C1851 C1848 1.499 . S
C1851 C1852 1.373 . S
C1851 C1853 1.389 . S
C1852 H1825 0.950 . S
C1852 C1838 1.377 . S
C1852 C1851 1.373 . S
C1853 C1837 1.377 . S
C1853 C1851 1.389 . S
C1853 C1854 1.524 . S
C1854 C1853 1.524 . S
C1854 C1855 1.397 . S
C1854 C1859 1.363 . S
C1855 H1826 0.950 . S
C1855 C1854 1.397 . S
C1855 C1856 1.334 . S
C1856 H1827 0.950 . S
C1856 C1855 1.334 . S
C1856 C1857 1.287 . S
C1857 C1856 1.287 . S
C1857 C1858 1.524 . S
C1857 H1860 0.999 . S
C1858 H1828 0.950 . S
C1858 C1857 1.524 . S
C1858 C1859 1.415 . S
C1859 H1829 0.950 . S
C1859 C1854 1.363 . S
C1859 C1858 1.415 . S
H1860 C1857 0.999 . S
H1861 C1842 0.913 . S
H1862 C1880 0.951 . S
H1863 C1882 0.951 . S
H1864 C1884 0.950 . S
H1865 C1885 0.950 . S
H1866 C1887 0.950 . S
H1867 C1890 0.950 . S
H1868 C1891 0.950 . S
H1869 C1893 0.950 . S
H1870 C1894 0.950 . S
H1871 C1895 0.951 . S
H1872 C1897 0.951 . S
H1873 C1899 0.950 . S
H1874 C1900 0.950 . S
H1875 C1902 0.950 . S
H1876 C1905 0.950 . S
H1877 C1906 0.950 . S
H1878 C1908 0.950 . S
H1879 C1909 0.950 . S
C1880 H1862 0.951 . S
C1880 C1881 1.366 . S
C1880 C1882 1.388 . S
C1881 C1880 1.366 . S
C1881 C1885 1.385 . S
C1882 H1863 0.951 . S
C1882 C1880 1.388 . S
C1882 C1883 1.366 . S
C1883 C1882 1.366 . S
C1883 C1884 1.414 . S
C1883 C1886 1.499 . S
C1884 H1864 0.950 . S
C1884 C1883 1.414 . S
C1884 C1885 1.374 . S
C1885 H1865 0.950 . S
C1885 C1881 1.385 . S
C1885 C1884 1.374 . S
C1886 C1883 1.499 . S
C1886 C1887 1.373 . S
C1886 C1888 1.389 . S
C1887 H1866 0.950 . S
C1887 C1886 1.373 . S
C1887 C1903 1.377 . S
C1888 C1886 1.389 . S
C1888 C1889 1.524 . S
C1888 C1902 1.377 . S
C1889 C1888 1.524 . S
C1889 C1890 1.397 . S
C1889 C1894 1.363 . S
C1890 H1867 0.950 . S
C1890 C1889 1.397 . S
C1890 C1891 1.334 . S
C1891 H1868 0.950 . S
C1891 C1890 1.334 . S
C1891 C1892 1.287 . S
C1892 C1891 1.287 . S
C1892 C1893 1.524 . S
C1892 H1911 0.913 . S
C1893 H1869 0.950 . S
C1893 C1892 1.524 . S
C1893 C1894 1.415 . S
C1894 H1870 0.950 . S
C1894 C1889 1.363 . S
C1894 C1893 1.415 . S
C1895 H1871 0.951 . S
C1895 C1896 1.366 . S
C1895 C1897 1.388 . S
C1896 C1895 1.366 . S
C1896 C1900 1.385 . S
C1897 H1872 0.951 . S
C1897 C1895 1.388 . S
C1897 C1898 1.366 . S
C1898 C1897 1.366 . S
C1898 C1899 1.414 . S
C1898 C1901 1.499 . S
C1899 H1873 0.950 . S
C1899 C1898 1.414 . S
C1899 C1900 1.374 . S
C1900 H1874 0.950 . S
C1900 C1896 1.385 . S
C1900 C1899 1.374 . S
C1901 C1898 1.499 . S
C1901 C1902 1.373 . S
C1901 C1903 1.389 . S
C1902 H1875 0.950 . S
C1902 C1888 1.377 . S
C1902 C1901 1.373 . S
C1903 C1887 1.377 . S
C1903 C1901 1.389 . S
C1903 C1904 1.524 . S
C1904 C1903 1.524 . S
C1904 C1905 1.397 . S
C1904 C1909 1.363 . S
C1905 H1876 0.950 . S
C1905 C1904 1.397 . S
C1905 C1906 1.334 . S
C1906 H1877 0.950 . S
C1906 C1905 1.334 . S
C1906 C1907 1.287 . S
C1907 C1906 1.287 . S
C1907 C1908 1.524 . S
C1907 H1910 0.999 . S
C1908 H1878 0.950 . S
C1908 C1907 1.524 . S
C1908 C1909 1.415 . S
C1909 H1879 0.950 . S
C1909 C1904 1.363 . S
C1909 C1908 1.415 . S
H1910 C1907 0.999 . S
H1911 C1892 0.913 . S
H1912 C1930 0.951 . S
H1913 C1932 0.951 . S
H1914 C1934 0.950 . S
H1915 C1935 0.950 . S
H1916 C1937 0.950 . S
H1917 C1940 0.950 . S
H1918 C1941 0.950 . S
H1919 C1943 0.950 . S
H1920 C1944 0.950 . S
H1921 C1945 0.951 . S
H1922 C1947 0.951 . S
H1923 C1949 0.950 . S
H1924 C1950 0.950 . S
H1925 C1952 0.950 . S
H1926 C1955 0.950 . S
H1927 C1956 0.950 . S
H1928 C1958 0.950 . S
H1929 C1959 0.950 . S
C1930 H1912 0.951 . S
C1930 C1931 1.366 . S
C1930 C1932 1.388 . S
C1931 C1930 1.366 . S
C1931 C1935 1.385 . S
C1932 H1913 0.951 . S
C1932 C1930 1.388 . S
C1932 C1933 1.366 . S
C1933 C1932 1.366 . S
C1933 C1934 1.414 . S
C1933 C1936 1.499 . S
C1934 H1914 0.950 . S
C1934 C1933 1.414 . S
C1934 C1935 1.374 . S
C1935 H1915 0.950 . S
C1935 C1931 1.385 . S
C1935 C1934 1.374 . S
C1936 C1933 1.499 . S
C1936 C1937 1.373 . S
C1936 C1938 1.389 . S
C1937 H1916 0.950 . S
C1937 C1936 1.373 . S
C1937 C1953 1.377 . S
C1938 C1936 1.389 . S
C1938 C1939 1.524 . S
C1938 C1952 1.377 . S
C1939 C1938 1.524 . S
C1939 C1940 1.397 . S
C1939 C1944 1.363 . S
C1940 H1917 0.950 . S
C1940 C1939 1.397 . S
C1940 C1941 1.334 . S
C1941 H1918 0.950 . S
C1941 C1940 1.334 . S
C1941 C1942 1.287 . S
C1942 C1941 1.287 . S
C1942 C1943 1.524 . S
C1942 H1961 0.913 . S
C1943 H1919 0.950 . S
C1943 C1942 1.524 . S
C1943 C1944 1.415 . S
C1944 H1920 0.950 . S
C1944 C1939 1.363 . S
C1944 C1943 1.415 . S
C1945 H1921 0.951 . S
C1945 C1946 1.366 . S
C1945 C1947 1.388 . S
C1946 C1945 1.366 . S
C1946 C1950 1.385 . S
C1947 H1922 0.951 . S
C1947 C1945 1.388 . S
C1947 C1948 1.366 . S
C1948 C1947 1.366 . S
C1948 C1949 1.414 . S
C1948 C1951 1.499 . S
C1949 H1923 0.950 . S
C1949 C1948 1.414 . S
C1949 C1950 1.374 . S
C1950 H1924 0.950 . S
C1950 C1946 1.385 . S
C1950 C1949 1.374 . S
C1951 C1948 1.499 . S
C1951 C1952 1.373 . S
C1951 C1953 1.389 . S
C1952 H1925 0.950 . S
C1952 C1938 1.377 . S
C1952 C1951 1.373 . S
C1953 C1937 1.377 . S
C1953 C1951 1.389 . S
C1953 C1954 1.524 . S
C1954 C1953 1.524 . S
C1954 C1955 1.397 . S
C1954 C1959 1.363 . S
C1955 H1926 0.950 . S
C1955 C1954 1.397 . S
C1955 C1956 1.334 . S
C1956 H1927 0.950 . S
C1956 C1955 1.334 . S
C1956 C1957 1.287 . S
C1957 C1956 1.287 . S
C1957 C1958 1.524 . S
C1957 H1960 0.999 . S
C1958 H1928 0.950 . S
C1958 C1957 1.524 . S
C1958 C1959 1.415 . S
C1959 H1929 0.950 . S
C1959 C1954 1.363 . S
C1959 C1958 1.415 . S
H1960 C1957 0.999 . S
H1961 C1942 0.913 . S
H1962 C1980 0.951 . S
H1963 C1982 0.951 . S
H1964 C1984 0.950 . S
H1965 C1985 0.950 . S
H1966 C1987 0.950 . S
H1967 C1990 0.950 . S
H1968 C1991 0.950 . S
H1969 C1993 0.950 . S
H1970 C1994 0.950 . S
H1971 C1995 0.951 . S
H1972 C1997 0.951 . S
H1973 C1999 0.950 . S
H1974 C2000 0.950 . S
H1975 C2002 0.950 . S
H1976 C2005 0.950 . S
H1977 C2006 0.950 . S
H1978 C2008 0.950 . S
H1979 C2009 0.950 . S
C1980 H1962 0.951 . S
C1980 C1981 1.366 . S
C1980 C1982 1.388 . S
C1981 C1980 1.366 . S
C1981 C1985 1.385 . S
C1982 H1963 0.951 . S
C1982 C1980 1.388 . S
C1982 C1983 1.366 . S
C1983 C1982 1.366 . S
C1983 C1984 1.414 . S
C1983 C1986 1.499 . S
C1984 H1964 0.950 . S
C1984 C1983 1.414 . S
C1984 C1985 1.374 . S
C1985 H1965 0.950 . S
C1985 C1981 1.385 . S
C1985 C1984 1.374 . S
C1986 C1983 1.499 . S
C1986 C1987 1.373 . S
C1986 C1988 1.389 . S
C1987 H1966 0.950 . S
C1987 C1986 1.373 . S
C1987 C2003 1.377 . S
C1988 C1986 1.389 . S
C1988 C1989 1.524 . S
C1988 C2002 1.377 . S
C1989 C1988 1.524 . S
C1989 C1990 1.397 . S
C1989 C1994 1.363 . S
C1990 H1967 0.950 . S
C1990 C1989 1.397 . S
C1990 C1991 1.334 . S
C1991 H1968 0.950 . S
C1991 C1990 1.334 . S
C1991 C1992 1.287 . S
C1992 C1991 1.287 . S
C1992 C1993 1.524 . S
C1992 H2011 0.913 . S
C1993 H1969 0.950 . S
C1993 C1992 1.524 . S
C1993 C1994 1.415 . S
C1994 H1970 0.950 . S
C1994 C1989 1.363 . S
C1994 C1993 1.415 . S
C1995 H1971 0.951 . S
C1995 C1996 1.366 . S
C1995 C1997 1.388 . S
C1996 C1995 1.366 . S
C1996 C2000 1.385 . S
C1997 H1972 0.951 . S
C1997 C1995 1.388 . S
C1997 C1998 1.366 . S
C1998 C1997 1.366 . S
C1998 C1999 1.414 . S
C1998 C2001 1.499 . S
C1999 H1973 0.950 . S
C1999 C1998 1.414 . S
C1999 C2000 1.374 . S
C2000 H1974 0.950 . S
C2000 C1996 1.385 . S
C2000 C1999 1.374 . S
C2001 C1998 1.499 . S
C2001 C2002 1.373 . S
C2001 C2003 1.389 . S
C2002 H1975 0.950 . S
C2002 C1988 1.377 . S
C2002 C2001 1.373 . S
C2003 C1987 1.377 . S
C2003 C2001 1.389 . S
C2003 C2004 1.524 . S
C2004 C2003 1.524 . S
C2004 C2005 1.397 . S
C2004 C2009 1.363 . S
C2005 H1976 0.950 . S
C2005 C2004 1.397 . S
C2005 C2006 1.334 . S
C2006 H1977 0.950 . S
C2006 C2005 1.334 . S
C2006 C2007 1.287 . S
C2007 C2006 1.287 . S
C2007 C2008 1.524 . S
C2007 H2010 0.999 . S
C2008 H1978 0.950 . S
C2008 C2007 1.524 . S
C2008 C2009 1.415 . S
C2009 H1979 0.950 . S
C2009 C2004 1.363 . S
C2009 C2008 1.415 . S
H2010 C2007 0.999 . S
H2011 C1992 0.913 . S
H2012 C2030 0.951 . S
H2013 C2032 0.951 . S
H2014 C2034 0.950 . S
H2015 C2035 0.950 . S
H2016 C2037 0.950 . S
H2017 C2040 0.950 . S
H2018 C2041 0.950 . S
H2019 C2043 0.950 . S
H2020 C2044 0.950 . S
H2021 C2045 0.951 . S
H2022 C2047 0.951 . S
H2023 C2049 0.950 . S
H2024 C2050 0.950 . S
H2025 C2052 0.950 . S
H2026 C2055 0.950 . S
H2027 C2056 0.950 . S
H2028 C2058 0.950 . S
H2029 C2059 0.950 . S
C2030 H2012 0.951 . S
C2030 C2031 1.366 . S
C2030 C2032 1.388 . S
C2031 C2030 1.366 . S
C2031 C2035 1.385 . S
C2032 H2013 0.951 . S
C2032 C2030 1.388 . S
C2032 C2033 1.366 . S
C2033 C2032 1.366 . S
C2033 C2034 1.414 . S
C2033 C2036 1.499 . S
C2034 H2014 0.950 . S
C2034 C2033 1.414 . S
C2034 C2035 1.374 . S
C2035 H2015 0.950 . S
C2035 C2031 1.385 . S
C2035 C2034 1.374 . S
C2036 C2033 1.499 . S
C2036 C2037 1.373 . S
C2036 C2038 1.389 . S
C2037 H2016 0.950 . S
C2037 C2036 1.373 . S
C2037 C2053 1.377 . S
C2038 C2036 1.389 . S
C2038 C2039 1.524 . S
C2038 C2052 1.377 . S
C2039 C2038 1.524 . S
C2039 C2040 1.397 . S
C2039 C2044 1.363 . S
C2040 H2017 0.950 . S
C2040 C2039 1.397 . S
C2040 C2041 1.334 . S
C2041 H2018 0.950 . S
C2041 C2040 1.334 . S
C2041 C2042 1.287 . S
C2042 C2041 1.287 . S
C2042 C2043 1.524 . S
C2042 H2061 0.913 . S
C2043 H2019 0.950 . S
C2043 C2042 1.524 . S
C2043 C2044 1.415 . S
C2044 H2020 0.950 . S
C2044 C2039 1.363 . S
C2044 C2043 1.415 . S
C2045 H2021 0.951 . S
C2045 C2046 1.366 . S
C2045 C2047 1.388 . S
C2046 C2045 1.366 . S
C2046 C2050 1.385 . S
C2047 H2022 0.951 . S
C2047 C2045 1.388 . S
C2047 C2048 1.366 . S
C2048 C2047 1.366 . S
C2048 C2049 1.414 . S
C2048 C2051 1.499 . S
C2049 H2023 0.950 . S
C2049 C2048 1.414 . S
C2049 C2050 1.374 . S
C2050 H2024 0.950 . S
C2050 C2046 1.385 . S
C2050 C2049 1.374 . S
C2051 C2048 1.499 . S
C2051 C2052 1.373 . S
C2051 C2053 1.389 . S
C2052 H2025 0.950 . S
C2052 C2038 1.377 . S
C2052 C2051 1.373 . S
C2053 C2037 1.377 . S
C2053 C2051 1.389 . S
C2053 C2054 1.524 . S
C2054 C2053 1.524 . S
C2054 C2055 1.397 . S
C2054 C2059 1.363 . S
C2055 H2026 0.950 . S
C2055 C2054 1.397 . S
C2055 C2056 1.334 . S
C2056 H2027 0.950 . S
C2056 C2055 1.334 . S
C2056 C2057 1.287 . S
C2057 C2056 1.287 . S
C2057 C2058 1.524 . S
C2057 H2060 0.999 . S
C2058 H2028 0.950 . S
C2058 C2057 1.524 . S
C2058 C2059 1.415 . S
C2059 H2029 0.950 . S
C2059 C2054 1.363 . S
C2059 C2058 1.415 . S
H2060 C2057 0.999 . S
H2061 C2042 0.913 . S
H2062 C2080 0.951 . S
H2063 C2082 0.951 . S
H2064 C2084 0.950 . S
H2065 C2085 0.950 . S
H2066 C2087 0.950 . S
H2067 C2090 0.950 . S
H2068 C2091 0.950 . S
H2069 C2093 0.950 . S
H2070 C2094 0.950 . S
H2071 C2095 0.951 . S
H2072 C2097 0.951 . S
H2073 C2099 0.950 . S
H2074 C2100 0.950 . S
H2075 C2102 0.950 . S
H2076 C2105 0.950 . S
H2077 C2106 0.950 . S
H2078 C2108 0.950 . S
H2079 C2109 0.950 . S
C2080 H2062 0.951 . S
C2080 C2081 1.366 . S
C2080 C2082 1.388 . S
C2081 C2080 1.366 . S
C2081 C2085 1.385 . S
C2082 H2063 0.951 . S
C2082 C2080 1.388 . S
C2082 C2083 1.366 . S
C2083 C2082 1.366 . S
C2083 C2084 1.414 . S
C2083 C2086 1.499 . S
C2084 H2064 0.950 . S
C2084 C2083 1.414 . S
C2084 C2085 1.374 . S
C2085 H2065 0.950 . S
C2085 C2081 1.385 . S
C2085 C2084 1.374 . S
C2086 C2083 1.499 . S
C2086 C2087 1.373 . S
C2086 C2088 1.389 . S
C2087 H2066 0.950 . S
C2087 C2086 1.373 . S
C2087 C2103 1.377 . S
C2088 C2086 1.389 . S
C2088 C2089 1.524 . S
C2088 C2102 1.377 . S
C2089 C2088 1.524 . S
C2089 C2090 1.397 . S
C2089 C2094 1.363 . S
C2090 H2067 0.950 . S
C2090 C2089 1.397 . S
C2090 C2091 1.334 . S
C2091 H2068 0.950 . S
C2091 C2090 1.334 . S
C2091 C2092 1.287 . S
C2092 C2091 1.287 . S
C2092 C2093 1.524 . S
C2092 H2111 0.913 . S
C2093 H2069 0.950 . S
C2093 C2092 1.524 . S
C2093 C2094 1.415 . S
C2094 H2070 0.950 . S
C2094 C2089 1.363 . S
C2094 C2093 1.415 . S
C2095 H2071 0.951 . S
C2095 C2096 1.366 . S
C2095 C2097 1.388 . S
C2096 C2095 1.366 . S
C2096 C2100 1.385 . S
C2097 H2072 0.951 . S
C2097 C2095 1.388 . S
C2097 C2098 1.366 . S
C2098 C2097 1.366 . S
C2098 C2099 1.414 . S
C2098 C2101 1.499 . S
C2099 H2073 0.950 . S
C2099 C2098 1.414 . S
C2099 C2100 1.374 . S
C2100 H2074 0.950 . S
C2100 C2096 1.385 . S
C2100 C2099 1.374 . S
C2101 C2098 1.499 . S
C2101 C2102 1.373 . S
C2101 C2103 1.389 . S
C2102 H2075 0.950 . S
C2102 C2088 1.377 . S
C2102 C2101 1.373 . S
C2103 C2087 1.377 . S
C2103 C2101 1.389 . S
C2103 C2104 1.524 . S
C2104 C2103 1.524 . S
C2104 C2105 1.397 . S
C2104 C2109 1.363 . S
C2105 H2076 0.950 . S
C2105 C2104 1.397 . S
C2105 C2106 1.334 . S
C2106 H2077 0.950 . S
C2106 C2105 1.334 . S
C2106 C2107 1.287 . S
C2107 C2106 1.287 . S
C2107 C2108 1.524 . S
C2107 H2110 0.999 . S
C2108 H2078 0.950 . S
C2108 C2107 1.524 . S
C2108 C2109 1.415 . S
C2109 H2079 0.950 . S
C2109 C2104 1.363 . S
C2109 C2108 1.415 . S
H2110 C2107 0.999 . S
H2111 C2092 0.913 . S
H2112 C2130 0.951 . S
H2113 C2132 0.951 . S
H2114 C2134 0.950 . S
H2115 C2135 0.950 . S
H2116 C2137 0.950 . S
H2117 C2140 0.950 . S
H2118 C2141 0.950 . S
H2119 C2143 0.950 . S
H2120 C2144 0.950 . S
H2121 C2145 0.951 . S
H2122 C2147 0.951 . S
H2123 C2149 0.950 . S
H2124 C2150 0.950 . S
H2125 C2152 0.950 . S
H2126 C2155 0.950 . S
H2127 C2156 0.950 . S
H2128 C2158 0.950 . S
H2129 C2159 0.950 . S
C2130 H2112 0.951 . S
C2130 C2131 1.366 . S
C2130 C2132 1.388 . S
C2131 C2130 1.366 . S
C2131 C2135 1.385 . S
C2132 H2113 0.951 . S
C2132 C2130 1.388 . S
C2132 C2133 1.366 . S
C2133 C2132 1.366 . S
C2133 C2134 1.414 . S
C2133 C2136 1.499 . S
C2134 H2114 0.950 . S
C2134 C2133 1.414 . S
C2134 C2135 1.374 . S
C2135 H2115 0.950 . S
C2135 C2131 1.385 . S
C2135 C2134 1.374 . S
C2136 C2133 1.499 . S
C2136 C2137 1.373 . S
C2136 C2138 1.389 . S
C2137 H2116 0.950 . S
C2137 C2136 1.373 . S
C2137 C2153 1.377 . S
C2138 C2136 1.389 . S
C2138 C2139 1.524 . S
C2138 C2152 1.377 . S
C2139 C2138 1.524 . S
C2139 C2140 1.397 . S
C2139 C2144 1.363 . S
C2140 H2117 0.950 . S
C2140 C2139 1.397 . S
C2140 C2141 1.334 . S
C2141 H2118 0.950 . S
C2141 C2140 1.334 . S
C2141 C2142 1.287 . S
C2142 C2141 1.287 . S
C2142 C2143 1.524 . S
C2142 H2161 0.913 . S
C2143 H2119 0.950 . S
C2143 C2142 1.524 . S
C2143 C2144 1.415 . S
C2144 H2120 0.950 . S
C2144 C2139 1.363 . S
C2144 C2143 1.415 . S
C2145 H2121 0.951 . S
C2145 C2146 1.366 . S
C2145 C2147 1.388 . S
C2146 C2145 1.366 . S
C2146 C2150 1.385 . S
C2147 H2122 0.951 . S
C2147 C2145 1.388 . S
C2147 C2148 1.366 . S
C2148 C2147 1.366 . S
C2148 C2149 1.414 . S
C2148 C2151 1.499 . S
C2149 H2123 0.950 . S
C2149 C2148 1.414 . S
C2149 C2150 1.374 . S
C2150 H2124 0.950 . S
C2150 C2146 1.385 . S
C2150 C2149 1.374 . S
C2151 C2148 1.499 . S
C2151 C2152 1.373 . S
C2151 C2153 1.389 . S
C2152 H2125 0.950 . S
C2152 C2138 1.377 . S
C2152 C2151 1.373 . S
C2153 C2137 1.377 . S
C2153 C2151 1.389 . S
C2153 C2154 1.524 . S
C2154 C2153 1.524 . S
C2154 C2155 1.397 . S
C2154 C2159 1.363 . S
C2155 H2126 0.950 . S
C2155 C2154 1.397 . S
C2155 C2156 1.334 . S
C2156 H2127 0.950 . S
C2156 C2155 1.334 . S
C2156 C2157 1.287 . S
C2157 C2156 1.287 . S
C2157 C2158 1.524 . S
C2157 H2160 0.999 . S
C2158 H2128 0.950 . S
C2158 C2157 1.524 . S
C2158 C2159 1.415 . S
C2159 H2129 0.950 . S
C2159 C2154 1.363 . S
C2159 C2158 1.415 . S
H2160 C2157 0.999 . S
H2161 C2142 0.913 . S
H2162 C2180 0.951 . S
H2163 C2182 0.951 . S
H2164 C2184 0.950 . S
H2165 C2185 0.950 . S
H2166 C2187 0.950 . S
H2167 C2190 0.950 . S
H2168 C2191 0.950 . S
H2169 C2193 0.950 . S
H2170 C2194 0.950 . S
H2171 C2195 0.951 . S
H2172 C2197 0.951 . S
H2173 C2199 0.950 . S
H2174 C2200 0.950 . S
H2175 C2202 0.950 . S
H2176 C2205 0.950 . S
H2177 C2206 0.950 . S
H2178 C2208 0.950 . S
H2179 C2209 0.950 . S
C2180 H2162 0.951 . S
C2180 C2181 1.366 . S
C2180 C2182 1.388 . S
C2181 C2180 1.366 . S
C2181 C2185 1.385 . S
C2182 H2163 0.951 . S
C2182 C2180 1.388 . S
C2182 C2183 1.366 . S
C2183 C2182 1.366 . S
C2183 C2184 1.414 . S
C2183 C2186 1.499 . S
C2184 H2164 0.950 . S
C2184 C2183 1.414 . S
C2184 C2185 1.374 . S
C2185 H2165 0.950 . S
C2185 C2181 1.385 . S
C2185 C2184 1.374 . S
C2186 C2183 1.499 . S
C2186 C2187 1.373 . S
C2186 C2188 1.389 . S
C2187 H2166 0.950 . S
C2187 C2186 1.373 . S
C2187 C2203 1.377 . S
C2188 C2186 1.389 . S
C2188 C2189 1.524 . S
C2188 C2202 1.377 . S
C2189 C2188 1.524 . S
C2189 C2190 1.397 . S
C2189 C2194 1.363 . S
C2190 H2167 0.950 . S
C2190 C2189 1.397 . S
C2190 C2191 1.334 . S
C2191 H2168 0.950 . S
C2191 C2190 1.334 . S
C2191 C2192 1.287 . S
C2192 C2191 1.287 . S
C2192 C2193 1.524 . S
C2192 H2211 0.913 . S
C2193 H2169 0.950 . S
C2193 C2192 1.524 . S
C2193 C2194 1.415 . S
C2194 H2170 0.950 . S
C2194 C2189 1.363 . S
C2194 C2193 1.415 . S
C2195 H2171 0.951 . S
C2195 C2196 1.366 . S
C2195 C2197 1.388 . S
C2196 C2195 1.366 . S
C2196 C2200 1.385 . S
C2197 H2172 0.951 . S
C2197 C2195 1.388 . S
C2197 C2198 1.366 . S
C2198 C2197 1.366 . S
C2198 C2199 1.414 . S
C2198 C2201 1.499 . S
C2199 H2173 0.950 . S
C2199 C2198 1.414 . S
C2199 C2200 1.374 . S
C2200 H2174 0.950 . S
C2200 C2196 1.385 . S
C2200 C2199 1.374 . S
C2201 C2198 1.499 . S
C2201 C2202 1.373 . S
C2201 C2203 1.389 . S
C2202 H2175 0.950 . S
C2202 C2188 1.377 . S
C2202 C2201 1.373 . S
C2203 C2187 1.377 . S
C2203 C2201 1.389 . S
C2203 C2204 1.524 . S
C2204 C2203 1.524 . S
C2204 C2205 1.397 . S
C2204 C2209 1.363 . S
C2205 H2176 0.950 . S
C2205 C2204 1.397 . S
C2205 C2206 1.334 . S
C2206 H2177 0.950 . S
C2206 C2205 1.334 . S
C2206 C2207 1.287 . S
C2207 C2206 1.287 . S
C2207 C2208 1.524 . S
C2207 H2210 0.999 . S
C2208 H2178 0.950 . S
C2208 C2207 1.524 . S
C2208 C2209 1.415 . S
C2209 H2179 0.950 . S
C2209 C2204 1.363 . S
C2209 C2208 1.415 . S
H2210 C2207 0.999 . S
H2211 C2192 0.913 . S
H2212 C2230 0.951 . S
H2213 C2232 0.951 . S
H2214 C2234 0.950 . S
H2215 C2235 0.950 . S
H2216 C2237 0.950 . S
H2217 C2240 0.950 . S
H2218 C2241 0.950 . S
H2219 C2243 0.950 . S
H2220 C2244 0.950 . S
H2221 C2245 0.951 . S
H2222 C2247 0.951 . S
H2223 C2249 0.950 . S
H2224 C2250 0.950 . S
H2225 C2252 0.950 . S
H2226 C2255 0.950 . S
H2227 C2256 0.950 . S
H2228 C2258 0.950 . S
H2229 C2259 0.950 . S
C2230 H2212 0.951 . S
C2230 C2231 1.366 . S
C2230 C2232 1.388 . S
C2231 C2230 1.366 . S
C2231 C2235 1.385 . S
C2232 H2213 0.951 . S
C2232 C2230 1.388 . S
C2232 C2233 1.366 . S
C2233 C2232 1.366 . S
C2233 C2234 1.414 . S
C2233 C2236 1.499 . S
C2234 H2214 0.950 . S
C2234 C2233 1.414 . S
C2234 C2235 1.374 . S
C2235 H2215 0.950 . S
C2235 C2231 1.385 . S
C2235 C2234 1.374 . S
C2236 C2233 1.499 . S
C2236 C2237 1.373 . S
C2236 C2238 1.389 . S
C2237 H2216 0.950 . S
C2237 C2236 1.373 . S
C2237 C2253 1.377 . S
C2238 C2236 1.389 . S
C2238 C2239 1.524 . S
C2238 C2252 1.377 . S
C2239 C2238 1.524 . S
C2239 C2240 1.397 . S
C2239 C2244 1.363 . S
C2240 H2217 0.950 . S
C2240 C2239 1.397 . S
C2240 C2241 1.334 . S
C2241 H2218 0.950 . S
C2241 C2240 1.334 . S
C2241 C2242 1.287 . S
C2242 C2241 1.287 . S
C2242 C2243 1.524 . S
C2242 H2261 0.913 . S
C2243 H2219 0.950 . S
C2243 C2242 1.524 . S
C2243 C2244 1.415 . S
C2244 H2220 0.950 . S
C2244 C2239 1.363 . S
C2244 C2243 1.415 . S
C2245 H2221 0.951 . S
C2245 C2246 1.366 . S
C2245 C2247 1.388 . S
C2246 C2245 1.366 . S
C2246 C2250 1.385 . S
C2247 H2222 0.951 . S
C2247 C2245 1.388 . S
C2247 C2248 1.366 . S
C2248 C2247 1.366 . S
C2248 C2249 1.414 . S
C2248 C2251 1.499 . S
C2249 H2223 0.950 . S
C2249 C2248 1.414 . S
C2249 C2250 1.374 . S
C2250 H2224 0.950 . S
C2250 C2246 1.385 . S
C2250 C2249 1.374 . S
C2251 C2248 1.499 . S
C2251 C2252 1.373 . S
C2251 C2253 1.389 . S
C2252 H2225 0.950 . S
C2252 C2238 1.377 . S
C2252 C2251 1.373 . S
C2253 C2237 1.377 . S
C2253 C2251 1.389 . S
C2253 C2254 1.524 . S
C2254 C2253 1.524 . S
C2254 C2255 1.397 . S
C2254 C2259 1.363 . S
C2255 H2226 0.950 . S
C2255 C2254 1.397 . S
C2255 C2256 1.334 . S
C2256 H2227 0.950 . S
C2256 C2255 1.334 . S
C2256 C2257 1.287 . S
C2257 C2256 1.287 . S
C2257 C2258 1.524 . S
C2257 H2260 0.999 . S
C2258 H2228 0.950 . S
C2258 C2257 1.524 . S
C2258 C2259 1.415 . S
C2259 H2229 0.950 . S
C2259 C2254 1.363 . S
C2259 C2258 1.415 . S
H2260 C2257 0.999 . S
H2261 C2242 0.913 . S
H2262 C2280 0.951 . S
H2263 C2282 0.951 . S
H2264 C2284 0.950 . S
H2265 C2285 0.950 . S
H2266 C2287 0.950 . S
H2267 C2290 0.950 . S
H2268 C2291 0.950 . S
H2269 C2293 0.950 . S
H2270 C2294 0.950 . S
H2271 C2295 0.951 . S
H2272 C2297 0.951 . S
H2273 C2299 0.950 . S
H2274 C2300 0.950 . S
H2275 C2302 0.950 . S
H2276 C2305 0.950 . S
H2277 C2306 0.950 . S
H2278 C2308 0.950 . S
H2279 C2309 0.950 . S
C2280 H2262 0.951 . S
C2280 C2281 1.366 . S
C2280 C2282 1.388 . S
C2281 C2280 1.366 . S
C2281 C2285 1.385 . S
C2282 H2263 0.951 . S
C2282 C2280 1.388 . S
C2282 C2283 1.366 . S
C2283 C2282 1.366 . S
C2283 C2284 1.414 . S
C2283 C2286 1.499 . S
C2284 H2264 0.950 . S
C2284 C2283 1.414 . S
C2284 C2285 1.374 . S
C2285 H2265 0.950 . S
C2285 C2281 1.385 . S
C2285 C2284 1.374 . S
C2286 C2283 1.499 . S
C2286 C2287 1.373 . S
C2286 C2288 1.389 . S
C2287 H2266 0.950 . S
C2287 C2286 1.373 . S
C2287 C2303 1.377 . S
C2288 C2286 1.389 . S
C2288 C2289 1.524 . S
C2288 C2302 1.377 . S
C2289 C2288 1.524 . S
C2289 C2290 1.397 . S
C2289 C2294 1.363 . S
C2290 H2267 0.950 . S
C2290 C2289 1.397 . S
C2290 C2291 1.334 . S
C2291 H2268 0.950 . S
C2291 C2290 1.334 . S
C2291 C2292 1.287 . S
C2292 C2291 1.287 . S
C2292 C2293 1.524 . S
C2292 H2311 0.913 . S
C2293 H2269 0.950 . S
C2293 C2292 1.524 . S
C2293 C2294 1.415 . S
C2294 H2270 0.950 . S
C2294 C2289 1.363 . S
C2294 C2293 1.415 . S
C2295 H2271 0.951 . S
C2295 C2296 1.366 . S
C2295 C2297 1.388 . S
C2296 C2295 1.366 . S
C2296 C2300 1.385 . S
C2297 H2272 0.951 . S
C2297 C2295 1.388 . S
C2297 C2298 1.366 . S
C2298 C2297 1.366 . S
C2298 C2299 1.414 . S
C2298 C2301 1.499 . S
C2299 H2273 0.950 . S
C2299 C2298 1.414 . S
C2299 C2300 1.374 . S
C2300 H2274 0.950 . S
C2300 C2296 1.385 . S
C2300 C2299 1.374 . S
C2301 C2298 1.499 . S
C2301 C2302 1.373 . S
C2301 C2303 1.389 . S
C2302 H2275 0.950 . S
C2302 C2288 1.377 . S
C2302 C2301 1.373 . S
C2303 C2287 1.377 . S
C2303 C2301 1.389 . S
C2303 C2304 1.524 . S
C2304 C2303 1.524 . S
C2304 C2305 1.397 . S
C2304 C2309 1.363 . S
C2305 H2276 0.950 . S
C2305 C2304 1.397 . S
C2305 C2306 1.334 . S
C2306 H2277 0.950 . S
C2306 C2305 1.334 . S
C2306 C2307 1.287 . S
C2307 C2306 1.287 . S
C2307 C2308 1.524 . S
C2307 H2310 0.999 . S
C2308 H2278 0.950 . S
C2308 C2307 1.524 . S
C2308 C2309 1.415 . S
C2309 H2279 0.950 . S
C2309 C2304 1.363 . S
C2309 C2308 1.415 . S
H2310 C2307 0.999 . S
H2311 C2292 0.913 . S
H2312 C2330 0.951 . S
H2313 C2332 0.951 . S
H2314 C2334 0.950 . S
H2315 C2335 0.950 . S
H2316 C2337 0.950 . S
H2317 C2340 0.950 . S
H2318 C2341 0.950 . S
H2319 C2343 0.950 . S
H2320 C2344 0.950 . S
H2321 C2345 0.951 . S
H2322 C2347 0.951 . S
H2323 C2349 0.950 . S
H2324 C2350 0.950 . S
H2325 C2352 0.950 . S
H2326 C2355 0.950 . S
H2327 C2356 0.950 . S
H2328 C2358 0.950 . S
H2329 C2359 0.950 . S
C2330 H2312 0.951 . S
C2330 C2331 1.366 . S
C2330 C2332 1.388 . S
C2331 C2330 1.366 . S
C2331 C2335 1.385 . S
C2332 H2313 0.951 . S
C2332 C2330 1.388 . S
C2332 C2333 1.366 . S
C2333 C2332 1.366 . S
C2333 C2334 1.414 . S
C2333 C2336 1.499 . S
C2334 H2314 0.950 . S
C2334 C2333 1.414 . S
C2334 C2335 1.374 . S
C2335 H2315 0.950 . S
C2335 C2331 1.385 . S
C2335 C2334 1.374 . S
C2336 C2333 1.499 . S
C2336 C2337 1.373 . S
C2336 C2338 1.389 . S
C2337 H2316 0.950 . S
C2337 C2336 1.373 . S
C2337 C2353 1.377 . S
C2338 C2336 1.389 . S
C2338 C2339 1.524 . S
C2338 C2352 1.377 . S
C2339 C2338 1.524 . S
C2339 C2340 1.397 . S
C2339 C2344 1.363 . S
C2340 H2317 0.950 . S
C2340 C2339 1.397 . S
C2340 C2341 1.334 . S
C2341 H2318 0.950 . S
C2341 C2340 1.334 . S
C2341 C2342 1.287 . S
C2342 C2341 1.287 . S
C2342 C2343 1.524 . S
C2342 H2361 0.913 . S
C2343 H2319 0.950 . S
C2343 C2342 1.524 . S
C2343 C2344 1.415 . S
C2344 H2320 0.950 . S
C2344 C2339 1.363 . S
C2344 C2343 1.415 . S
C2345 H2321 0.951 . S
C2345 C2346 1.366 . S
C2345 C2347 1.388 . S
C2346 C2345 1.366 . S
C2346 C2350 1.385 . S
C2347 H2322 0.951 . S
C2347 C2345 1.388 . S
C2347 C2348 1.366 . S
C2348 C2347 1.366 . S
C2348 C2349 1.414 . S
C2348 C2351 1.499 . S
C2349 H2323 0.950 . S
C2349 C2348 1.414 . S
C2349 C2350 1.374 . S
C2350 H2324 0.950 . S
C2350 C2346 1.385 . S
C2350 C2349 1.374 . S
C2351 C2348 1.499 . S
C2351 C2352 1.373 . S
C2351 C2353 1.389 . S
C2352 H2325 0.950 . S
C2352 C2338 1.377 . S
C2352 C2351 1.373 . S
C2353 C2337 1.377 . S
C2353 C2351 1.389 . S
C2353 C2354 1.524 . S
C2354 C2353 1.524 . S
C2354 C2355 1.397 . S
C2354 C2359 1.363 . S
C2355 H2326 0.950 . S
C2355 C2354 1.397 . S
C2355 C2356 1.334 . S
C2356 H2327 0.950 . S
C2356 C2355 1.334 . S
C2356 C2357 1.287 . S
C2357 C2356 1.287 . S
C2357 C2358 1.524 . S
C2357 H2360 0.999 . S
C2358 H2328 0.950 . S
C2358 C2357 1.524 . S
C2358 C2359 1.415 . S
C2359 H2329 0.950 . S
C2359 C2354 1.363 . S
C2359 C2358 1.415 . S
H2360 C2357 0.999 . S
H2361 C2342 0.913 . S
H2362 C2380 0.951 . S
H2363 C2382 0.951 . S
H2364 C2384 0.950 . S
H2365 C2385 0.950 . S
H2366 C2387 0.950 . S
H2367 C2390 0.950 . S
H2368 C2391 0.950 . S
H2369 C2393 0.950 . S
H2370 C2394 0.950 . S
H2371 C2395 0.951 . S
H2372 C2397 0.951 . S
H2373 C2399 0.950 . S
H2374 C2400 0.950 . S
H2375 C2402 0.950 . S
H2376 C2405 0.950 . S
H2377 C2406 0.950 . S
H2378 C2408 0.950 . S
H2379 C2409 0.950 . S
C2380 H2362 0.951 . S
C2380 C2381 1.366 . S
C2380 C2382 1.388 . S
C2381 C2380 1.366 . S
C2381 C2385 1.385 . S
C2382 H2363 0.951 . S
C2382 C2380 1.388 . S
C2382 C2383 1.366 . S
C2383 C2382 1.366 . S
C2383 C2384 1.414 . S
C2383 C2386 1.499 . S
C2384 H2364 0.950 . S
C2384 C2383 1.414 . S
C2384 C2385 1.374 . S
C2385 H2365 0.950 . S
C2385 C2381 1.385 . S
C2385 C2384 1.374 . S
C2386 C2383 1.499 . S
C2386 C2387 1.373 . S
C2386 C2388 1.389 . S
C2387 H2366 0.950 . S
C2387 C2386 1.373 . S
C2387 C2403 1.377 . S
C2388 C2386 1.389 . S
C2388 C2389 1.524 . S
C2388 C2402 1.377 . S
C2389 C2388 1.524 . S
C2389 C2390 1.397 . S
C2389 C2394 1.363 . S
C2390 H2367 0.950 . S
C2390 C2389 1.397 . S
C2390 C2391 1.334 . S
C2391 H2368 0.950 . S
C2391 C2390 1.334 . S
C2391 C2392 1.287 . S
C2392 C2391 1.287 . S
C2392 C2393 1.524 . S
C2392 H2411 0.913 . S
C2393 H2369 0.950 . S
C2393 C2392 1.524 . S
C2393 C2394 1.415 . S
C2394 H2370 0.950 . S
C2394 C2389 1.363 . S
C2394 C2393 1.415 . S
C2395 H2371 0.951 . S
C2395 C2396 1.366 . S
C2395 C2397 1.388 . S
C2396 C2395 1.366 . S
C2396 C2400 1.385 . S
C2397 H2372 0.951 . S
C2397 C2395 1.388 . S
C2397 C2398 1.366 . S
C2398 C2397 1.366 . S
C2398 C2399 1.414 . S
C2398 C2401 1.499 . S
C2399 H2373 0.950 . S
C2399 C2398 1.414 . S
C2399 C2400 1.374 . S
C2400 H2374 0.950 . S
C2400 C2396 1.385 . S
C2400 C2399 1.374 . S
C2401 C2398 1.499 . S
C2401 C2402 1.373 . S
C2401 C2403 1.389 . S
C2402 H2375 0.950 . S
C2402 C2388 1.377 . S
C2402 C2401 1.373 . S
C2403 C2387 1.377 . S
C2403 C2401 1.389 . S
C2403 C2404 1.524 . S
C2404 C2403 1.524 . S
C2404 C2405 1.397 . S
C2404 C2409 1.363 . S
C2405 H2376 0.950 . S
C2405 C2404 1.397 . S
C2405 C2406 1.334 . S
C2406 H2377 0.950 . S
C2406 C2405 1.334 . S
C2406 C2407 1.287 . S
C2407 C2406 1.287 . S
C2407 C2408 1.524 . S
C2407 H2410 0.999 . S
C2408 H2378 0.950 . S
C2408 C2407 1.524 . S
C2408 C2409 1.415 . S
C2409 H2379 0.950 . S
C2409 C2404 1.363 . S
C2409 C2408 1.415 . S
H2410 C2407 0.999 . S
H2411 C2392 0.913 . S
H2412 C2430 0.951 . S
H2413 C2432 0.951 . S
H2414 C2434 0.950 . S
H2415 C2435 0.950 . S
H2416 C2437 0.950 . S
H2417 C2440 0.950 . S
H2418 C2441 0.950 . S
H2419 C2443 0.950 . S
H2420 C2444 0.950 . S
H2421 C2445 0.951 . S
H2422 C2447 0.951 . S
H2423 C2449 0.950 . S
H2424 C2450 0.950 . S
H2425 C2452 0.950 . S
H2426 C2455 0.950 . S
H2427 C2456 0.950 . S
H2428 C2458 0.950 . S
H2429 C2459 0.950 . S
C2430 H2412 0.951 . S
C2430 C2431 1.366 . S
C2430 C2432 1.388 . S
C2431 C2430 1.366 . S
C2431 C2435 1.385 . S
C2432 H2413 0.951 . S
C2432 C2430 1.388 . S
C2432 C2433 1.366 . S
C2433 C2432 1.366 . S
C2433 C2434 1.414 . S
C2433 C2436 1.499 . S
C2434 H2414 0.950 . S
C2434 C2433 1.414 . S
C2434 C2435 1.374 . S
C2435 H2415 0.950 . S
C2435 C2431 1.385 . S
C2435 C2434 1.374 . S
C2436 C2433 1.499 . S
C2436 C2437 1.373 . S
C2436 C2438 1.389 . S
C2437 H2416 0.950 . S
C2437 C2436 1.373 . S
C2437 C2453 1.377 . S
C2438 C2436 1.389 . S
C2438 C2439 1.524 . S
C2438 C2452 1.377 . S
C2439 C2438 1.524 . S
C2439 C2440 1.397 . S
C2439 C2444 1.363 . S
C2440 H2417 0.950 . S
C2440 C2439 1.397 . S
C2440 C2441 1.334 . S
C2441 H2418 0.950 . S
C2441 C2440 1.334 . S
C2441 C2442 1.287 . S
C2442 C2441 1.287 . S
C2442 C2443 1.524 . S
C2442 H2461 0.913 . S
C2443 H2419 0.950 . S
C2443 C2442 1.524 . S
C2443 C2444 1.415 . S
C2444 H2420 0.950 . S
C2444 C2439 1.363 . S
C2444 C2443 1.415 . S
C2445 H2421 0.951 . S
C2445 C2446 1.366 . S
C2445 C2447 1.388 . S
C2446 C2445 1.366 . S
C2446 C2450 1.385 . S
C2447 H2422 0.951 . S
C2447 C2445 1.388 . S
C2447 C2448 1.366 . S
C2448 C2447 1.366 . S
C2448 C2449 1.414 . S
C2448 C2451 1.499 . S
C2449 H2423 0.950 . S
C2449 C2448 1.414 . S
C2449 C2450 1.374 . S
C2450 H2424 0.950 . S
C2450 C2446 1.385 . S
C2450 C2449 1.374 . S
C2451 C2448 1.499 . S
C2451 C2452 1.373 . S
C2451 C2453 1.389 . S
C2452 H2425 0.950 . S
C2452 C2438 1.377 . S
C2452 C2451 1.373 . S
C2453 C2437 1.377 . S
C2453 C2451 1.389 . S
C2453 C2454 1.524 . S
C2454 C2453 1.524 . S
C2454 C2455 1.397 . S
C2454 C2459 1.363 . S
C2455 H2426 0.950 . S
C2455 C2454 1.397 . S
C2455 C2456 1.334 . S
C2456 H2427 0.950 . S
C2456 C2455 1.334 . S
C2456 C2457 1.287 . S
C2457 C2456 1.287 . S
C2457 C2458 1.524 . S
C2457 H2460 0.999 . S
C2458 H2428 0.950 . S
C2458 C2457 1.524 . S
C2458 C2459 1.415 . S
C2459 H2429 0.950 . S
C2459 C2454 1.363 . S
C2459 C2458 1.415 . S
H2460 C2457 0.999 . S
H2461 C2442 0.913 . S
H2462 C2480 0.951 . S
H2463 C2482 0.951 . S
H2464 C2484 0.950 . S
H2465 C2485 0.950 . S
H2466 C2487 0.950 . S
H2467 C2490 0.950 . S
H2468 C2491 0.950 . S
H2469 C2493 0.950 . S
H2470 C2494 0.950 . S
H2471 C2495 0.951 . S
H2472 C2497 0.951 . S
H2473 C2499 0.950 . S
H2474 C2500 0.950 . S
H2475 C2502 0.950 . S
H2476 C2505 0.950 . S
H2477 C2506 0.950 . S
H2478 C2508 0.950 . S
H2479 C2509 0.950 . S
C2480 H2462 0.951 . S
C2480 C2481 1.366 . S
C2480 C2482 1.388 . S
C2481 C2480 1.366 . S
C2481 C2485 1.385 . S
C2482 H2463 0.951 . S
C2482 C2480 1.388 . S
C2482 C2483 1.366 . S
C2483 C2482 1.366 . S
C2483 C2484 1.414 . S
C2483 C2486 1.499 . S
C2484 H2464 0.950 . S
C2484 C2483 1.414 . S
C2484 C2485 1.374 . S
C2485 H2465 0.950 . S
C2485 C2481 1.385 . S
C2485 C2484 1.374 . S
C2486 C2483 1.499 . S
C2486 C2487 1.373 . S
C2486 C2488 1.389 . S
C2487 H2466 0.950 . S
C2487 C2486 1.373 . S
C2487 C2503 1.377 . S
C2488 C2486 1.389 . S
C2488 C2489 1.524 . S
C2488 C2502 1.377 . S
C2489 C2488 1.524 . S
C2489 C2490 1.397 . S
C2489 C2494 1.363 . S
C2490 H2467 0.950 . S
C2490 C2489 1.397 . S
C2490 C2491 1.334 . S
C2491 H2468 0.950 . S
C2491 C2490 1.334 . S
C2491 C2492 1.287 . S
C2492 C2491 1.287 . S
C2492 C2493 1.524 . S
C2492 H2511 0.913 . S
C2493 H2469 0.950 . S
C2493 C2492 1.524 . S
C2493 C2494 1.415 . S
C2494 H2470 0.950 . S
C2494 C2489 1.363 . S
C2494 C2493 1.415 . S
C2495 H2471 0.951 . S
C2495 C2496 1.366 . S
C2495 C2497 1.388 . S
C2496 C2495 1.366 . S
C2496 C2500 1.385 . S
C2497 H2472 0.951 . S
C2497 C2495 1.388 . S
C2497 C2498 1.366 . S
C2498 C2497 1.366 . S
C2498 C2499 1.414 . S
C2498 C2501 1.499 . S
C2499 H2473 0.950 . S
C2499 C2498 1.414 . S
C2499 C2500 1.374 . S
C2500 H2474 0.950 . S
C2500 C2496 1.385 . S
C2500 C2499 1.374 . S
C2501 C2498 1.499 . S
C2501 C2502 1.373 . S
C2501 C2503 1.389 . S
C2502 H2475 0.950 . S
C2502 C2488 1.377 . S
C2502 C2501 1.373 . S
C2503 C2487 1.377 . S
C2503 C2501 1.389 . S
C2503 C2504 1.524 . S
C2504 C2503 1.524 . S
C2504 C2505 1.397 . S
C2504 C2509 1.363 . S
C2505 H2476 0.950 . S
C2505 C2504 1.397 . S
C2505 C2506 1.334 . S
C2506 H2477 0.950 . S
C2506 C2505 1.334 . S
C2506 C2507 1.287 . S
C2507 C2506 1.287 . S
C2507 C2508 1.524 . S
C2507 H2510 0.999 . S
C2508 H2478 0.950 . S
C2508 C2507 1.524 . S
C2508 C2509 1.415 . S
C2509 H2479 0.950 . S
C2509 C2504 1.363 . S
C2509 C2508 1.415 . S
H2510 C2507 0.999 . S
H2511 C2492 0.913 . S
H2512 C2530 0.951 . S
H2513 C2532 0.951 . S
H2514 C2534 0.950 . S
H2515 C2535 0.950 . S
H2516 C2537 0.950 . S
H2517 C2540 0.950 . S
H2518 C2541 0.950 . S
H2519 C2543 0.950 . S
H2520 C2544 0.950 . S
H2521 C2545 0.951 . S
H2522 C2547 0.951 . S
H2523 C2549 0.950 . S
H2524 C2550 0.950 . S
H2525 C2552 0.950 . S
H2526 C2555 0.950 . S
H2527 C2556 0.950 . S
H2528 C2558 0.950 . S
H2529 C2559 0.950 . S
C2530 H2512 0.951 . S
C2530 C2531 1.366 . S
C2530 C2532 1.388 . S
C2531 C2530 1.366 . S
C2531 C2535 1.385 . S
C2532 H2513 0.951 . S
C2532 C2530 1.388 . S
C2532 C2533 1.366 . S
C2533 C2532 1.366 . S
C2533 C2534 1.414 . S
C2533 C2536 1.499 . S
C2534 H2514 0.950 . S
C2534 C2533 1.414 . S
C2534 C2535 1.374 . S
C2535 H2515 0.950 . S
C2535 C2531 1.385 . S
C2535 C2534 1.374 . S
C2536 C2533 1.499 . S
C2536 C2537 1.373 . S
C2536 C2538 1.389 . S
C2537 H2516 0.950 . S
C2537 C2536 1.373 . S
C2537 C2553 1.377 . S
C2538 C2536 1.389 . S
C2538 C2539 1.524 . S
C2538 C2552 1.377 . S
C2539 C2538 1.524 . S
C2539 C2540 1.397 . S
C2539 C2544 1.363 . S
C2540 H2517 0.950 . S
C2540 C2539 1.397 . S
C2540 C2541 1.334 . S
C2541 H2518 0.950 . S
C2541 C2540 1.334 . S
C2541 C2542 1.287 . S
C2542 C2541 1.287 . S
C2542 C2543 1.524 . S
C2542 H2561 0.913 . S
C2543 H2519 0.950 . S
C2543 C2542 1.524 . S
C2543 C2544 1.415 . S
C2544 H2520 0.950 . S
C2544 C2539 1.363 . S
C2544 C2543 1.415 . S
C2545 H2521 0.951 . S
C2545 C2546 1.366 . S
C2545 C2547 1.388 . S
C2546 C2545 1.366 . S
C2546 C2550 1.385 . S
C2547 H2522 0.951 . S
C2547 C2545 1.388 . S
C2547 C2548 1.366 . S
C2548 C2547 1.366 . S
C2548 C2549 1.414 . S
C2548 C2551 1.499 . S
C2549 H2523 0.950 . S
C2549 C2548 1.414 . S
C2549 C2550 1.374 . S
C2550 H2524 0.950 . S
C2550 C2546 1.385 . S
C2550 C2549 1.374 . S
C2551 C2548 1.499 . S
C2551 C2552 1.373 . S
C2551 C2553 1.389 . S
C2552 H2525 0.950 . S
C2552 C2538 1.377 . S
C2552 C2551 1.373 . S
C2553 C2537 1.377 . S
C2553 C2551 1.389 . S
C2553 C2554 1.524 . S
C2554 C2553 1.524 . S
C2554 C2555 1.397 . S
C2554 C2559 1.363 . S
C2555 H2526 0.950 . S
C2555 C2554 1.397 . S
C2555 C2556 1.334 . S
C2556 H2527 0.950 . S
C2556 C2555 1.334 . S
C2556 C2557 1.287 . S
C2557 C2556 1.287 . S
C2557 C2558 1.524 . S
C2557 H2560 0.999 . S
C2558 H2528 0.950 . S
C2558 C2557 1.524 . S
C2558 C2559 1.415 . S
C2559 H2529 0.950 . S
C2559 C2554 1.363 . S
C2559 C2558 1.415 . S
H2560 C2557 0.999 . S
H2561 C2542 0.913 . S
H2562 C2580 0.951 . S
H2563 C2582 0.951 . S
H2564 C2584 0.950 . S
H2565 C2585 0.950 . S
H2566 C2587 0.950 . S
H2567 C2590 0.950 . S
H2568 C2591 0.950 . S
H2569 C2593 0.950 . S
H2570 C2594 0.950 . S
H2571 C2595 0.951 . S
H2572 C2597 0.951 . S
H2573 C2599 0.950 . S
H2574 C2600 0.950 . S
H2575 C2602 0.950 . S
H2576 C2605 0.950 . S
H2577 C2606 0.950 . S
H2578 C2608 0.950 . S
H2579 C2609 0.950 . S
C2580 H2562 0.951 . S
C2580 C2581 1.366 . S
C2580 C2582 1.388 . S
C2581 C2580 1.366 . S
C2581 C2585 1.385 . S
C2582 H2563 0.951 . S
C2582 C2580 1.388 . S
C2582 C2583 1.366 . S
C2583 C2582 1.366 . S
C2583 C2584 1.414 . S
C2583 C2586 1.499 . S
C2584 H2564 0.950 . S
C2584 C2583 1.414 . S
C2584 C2585 1.374 . S
C2585 H2565 0.950 . S
C2585 C2581 1.385 . S
C2585 C2584 1.374 . S
C2586 C2583 1.499 . S
C2586 C2587 1.373 . S
C2586 C2588 1.389 . S
C2587 H2566 0.950 . S
C2587 C2586 1.373 . S
C2587 C2603 1.377 . S
C2588 C2586 1.389 . S
C2588 C2589 1.524 . S
C2588 C2602 1.377 . S
C2589 C2588 1.524 . S
C2589 C2590 1.397 . S
C2589 C2594 1.363 . S
C2590 H2567 0.950 . S
C2590 C2589 1.397 . S
C2590 C2591 1.334 . S
C2591 H2568 0.950 . S
C2591 C2590 1.334 . S
C2591 C2592 1.287 . S
C2592 C2591 1.287 . S
C2592 C2593 1.524 . S
C2592 H2611 0.913 . S
C2593 H2569 0.950 . S
C2593 C2592 1.524 . S
C2593 C2594 1.415 . S
C2594 H2570 0.950 . S
C2594 C2589 1.363 . S
C2594 C2593 1.415 . S
C2595 H2571 0.951 . S
C2595 C2596 1.366 . S
C2595 C2597 1.388 . S
C2596 C2595 1.366 . S
C2596 C2600 1.385 . S
C2597 H2572 0.951 . S
C2597 C2595 1.388 . S
C2597 C2598 1.366 . S
C2598 C2597 1.366 . S
C2598 C2599 1.414 . S
C2598 C2601 1.499 . S
C2599 H2573 0.950 . S
C2599 C2598 1.414 . S
C2599 C2600 1.374 . S
C2600 H2574 0.950 . S
C2600 C2596 1.385 . S
C2600 C2599 1.374 . S
C2601 C2598 1.499 . S
C2601 C2602 1.373 . S
C2601 C2603 1.389 . S
C2602 H2575 0.950 . S
C2602 C2588 1.377 . S
C2602 C2601 1.373 . S
C2603 C2587 1.377 . S
C2603 C2601 1.389 . S
C2603 C2604 1.524 . S
C2604 C2603 1.524 . S
C2604 C2605 1.397 . S
C2604 C2609 1.363 . S
C2605 H2576 0.950 . S
C2605 C2604 1.397 . S
C2605 C2606 1.334 . S
C2606 H2577 0.950 . S
C2606 C2605 1.334 . S
C2606 C2607 1.287 . S
C2607 C2606 1.287 . S
C2607 C2608 1.524 . S
C2607 H2610 0.999 . S
C2608 H2578 0.950 . S
C2608 C2607 1.524 . S
C2608 C2609 1.415 . S
C2609 H2579 0.950 . S
C2609 C2604 1.363 . S
C2609 C2608 1.415 . S
H2610 C2607 0.999 . S
H2611 C2592 0.913 . S
H2612 C2630 0.951 . S
H2613 C2632 0.951 . S
H2614 C2634 0.950 . S
H2615 C2635 0.950 . S
H2616 C2637 0.950 . S
H2617 C2640 0.950 . S
H2618 C2641 0.950 . S
H2619 C2643 0.950 . S
H2620 C2644 0.950 . S
H2621 C2645 0.951 . S
H2622 C2647 0.951 . S
H2623 C2649 0.950 . S
H2624 C2650 0.950 . S
H2625 C2652 0.950 . S
H2626 C2655 0.950 . S
H2627 C2656 0.950 . S
H2628 C2658 0.950 . S
H2629 C2659 0.950 . S
C2630 H2612 0.951 . S
C2630 C2631 1.366 . S
C2630 C2632 1.388 . S
C2631 C2630 1.366 . S
C2631 C2635 1.385 . S
C2632 H2613 0.951 . S
C2632 C2630 1.388 . S
C2632 C2633 1.366 . S
C2633 C2632 1.366 . S
C2633 C2634 1.414 . S
C2633 C2636 1.499 . S
C2634 H2614 0.950 . S
C2634 C2633 1.414 . S
C2634 C2635 1.374 . S
C2635 H2615 0.950 . S
C2635 C2631 1.385 . S
C2635 C2634 1.374 . S
C2636 C2633 1.499 . S
C2636 C2637 1.373 . S
C2636 C2638 1.389 . S
C2637 H2616 0.950 . S
C2637 C2636 1.373 . S
C2637 C2653 1.377 . S
C2638 C2636 1.389 . S
C2638 C2639 1.524 . S
C2638 C2652 1.377 . S
C2639 C2638 1.524 . S
C2639 C2640 1.397 . S
C2639 C2644 1.363 . S
C2640 H2617 0.950 . S
C2640 C2639 1.397 . S
C2640 C2641 1.334 . S
C2641 H2618 0.950 . S
C2641 C2640 1.334 . S
C2641 C2642 1.287 . S
C2642 C2641 1.287 . S
C2642 C2643 1.524 . S
C2642 H2661 0.913 . S
C2643 H2619 0.950 . S
C2643 C2642 1.524 . S
C2643 C2644 1.415 . S
C2644 H2620 0.950 . S
C2644 C2639 1.363 . S
C2644 C2643 1.415 . S
C2645 H2621 0.951 . S
C2645 C2646 1.366 . S
C2645 C2647 1.388 . S
C2646 C2645 1.366 . S
C2646 C2650 1.385 . S
C2647 H2622 0.951 . S
C2647 C2645 1.388 . S
C2647 C2648 1.366 . S
C2648 C2647 1.366 . S
C2648 C2649 1.414 . S
C2648 C2651 1.499 . S
C2649 H2623 0.950 . S
C2649 C2648 1.414 . S
C2649 C2650 1.374 . S
C2650 H2624 0.950 . S
C2650 C2646 1.385 . S
C2650 C2649 1.374 . S
C2651 C2648 1.499 . S
C2651 C2652 1.373 . S
C2651 C2653 1.389 . S
C2652 H2625 0.950 . S
C2652 C2638 1.377 . S
C2652 C2651 1.373 . S
C2653 C2637 1.377 . S
C2653 C2651 1.389 . S
C2653 C2654 1.524 . S
C2654 C2653 1.524 . S
C2654 C2655 1.397 . S
C2654 C2659 1.363 . S
C2655 H2626 0.950 . S
C2655 C2654 1.397 . S
C2655 C2656 1.334 . S
C2656 H2627 0.950 . S
C2656 C2655 1.334 . S
C2656 C2657 1.287 . S
C2657 C2656 1.287 . S
C2657 C2658 1.524 . S
C2657 H2660 0.999 . S
C2658 H2628 0.950 . S
C2658 C2657 1.524 . S
C2658 C2659 1.415 . S
C2659 H2629 0.950 . S
C2659 C2654 1.363 . S
C2659 C2658 1.415 . S
H2660 C2657 0.999 . S
H2661 C2642 0.913 . S
H2662 C2680 0.951 . S
H2663 C2682 0.951 . S
H2664 C2684 0.950 . S
H2665 C2685 0.950 . S
H2666 C2687 0.950 . S
H2667 C2690 0.950 . S
H2668 C2691 0.950 . S
H2669 C2693 0.950 . S
H2670 C2694 0.950 . S
H2671 C2695 0.951 . S
H2672 C2697 0.951 . S
H2673 C2699 0.950 . S
H2674 C2700 0.950 . S
H2675 C2702 0.950 . S
H2676 C2705 0.950 . S
H2677 C2706 0.950 . S
H2678 C2708 0.950 . S
H2679 C2709 0.950 . S
C2680 H2662 0.951 . S
C2680 C2681 1.366 . S
C2680 C2682 1.388 . S
C2681 C2680 1.366 . S
C2681 C2685 1.385 . S
C2682 H2663 0.951 . S
C2682 C2680 1.388 . S
C2682 C2683 1.366 . S
C2683 C2682 1.366 . S
C2683 C2684 1.414 . S
C2683 C2686 1.499 . S
C2684 H2664 0.950 . S
C2684 C2683 1.414 . S
C2684 C2685 1.374 . S
C2685 H2665 0.950 . S
C2685 C2681 1.385 . S
C2685 C2684 1.374 . S
C2686 C2683 1.499 . S
C2686 C2687 1.373 . S
C2686 C2688 1.389 . S
C2687 H2666 0.950 . S
C2687 C2686 1.373 . S
C2687 C2703 1.377 . S
C2688 C2686 1.389 . S
C2688 C2689 1.524 . S
C2688 C2702 1.377 . S
C2689 C2688 1.524 . S
C2689 C2690 1.397 . S
C2689 C2694 1.363 . S
C2690 H2667 0.950 . S
C2690 C2689 1.397 . S
C2690 C2691 1.334 . S
C2691 H2668 0.950 . S
C2691 C2690 1.334 . S
C2691 C2692 1.287 . S
C2692 C2691 1.287 . S
C2692 C2693 1.524 . S
C2692 H2711 0.913 . S
C2693 H2669 0.950 . S
C2693 C2692 1.524 . S
C2693 C2694 1.415 . S
C2694 H2670 0.950 . S
C2694 C2689 1.363 . S
C2694 C2693 1.415 . S
C2695 H2671 0.951 . S
C2695 C2696 1.366 . S
C2695 C2697 1.388 . S
C2696 C2695 1.366 . S
C2696 C2700 1.385 . S
C2697 H2672 0.951 . S
C2697 C2695 1.388 . S
C2697 C2698 1.366 . S
C2698 C2697 1.366 . S
C2698 C2699 1.414 . S
C2698 C2701 1.499 . S
C2699 H2673 0.950 . S
C2699 C2698 1.414 . S
C2699 C2700 1.374 . S
C2700 H2674 0.950 . S
C2700 C2696 1.385 . S
C2700 C2699 1.374 . S
C2701 C2698 1.499 . S
C2701 C2702 1.373 . S
C2701 C2703 1.389 . S
C2702 H2675 0.950 . S
C2702 C2688 1.377 . S
C2702 C2701 1.373 . S
C2703 C2687 1.377 . S
C2703 C2701 1.389 . S
C2703 C2704 1.524 . S
C2704 C2703 1.524 . S
C2704 C2705 1.397 . S
C2704 C2709 1.363 . S
C2705 H2676 0.950 . S
C2705 C2704 1.397 . S
C2705 C2706 1.334 . S
C2706 H2677 0.950 . S
C2706 C2705 1.334 . S
C2706 C2707 1.287 . S
C2707 C2706 1.287 . S
C2707 C2708 1.524 . S
C2707 H2710 0.999 . S
C2708 H2678 0.950 . S
C2708 C2707 1.524 . S
C2708 C2709 1.415 . S
C2709 H2679 0.950 . S
C2709 C2704 1.363 . S
C2709 C2708 1.415 . S
H2710 C2707 0.999 . S
H2711 C2692 0.913 . S
C331 C205 1.383 . S
C346 C10 1.383 . S
C381 C166 1.383 . S
C396 C17 1.383 . S
C431 C179 1.383 . S
C446 C36 1.383 . S
C481 C192 1.383 . S
C496 C43 1.383 . S
C531 C186 1.383 . S
C546 C23 1.383 . S
C581 C30 1.383 . S
C596 C199 1.383 . S
C631 C160 1.383 . S
C646 C49 1.383 . S
C681 C173 1.383 . S
C696 C4 1.383 . S
C731 C244 1.383 . S
C746 C56 1.383 . S
C781 C69 1.383 . S
C796 C251 1.383 . S
C831 C88 1.383 . S
C846 C212 1.383 . S
C881 C231 1.383 . S
C896 C101 1.383 . S
C931 C290 1.383 . S
C946 C114 1.383 . S
C981 C127 1.383 . S
C996 C309 1.383 . S
C1031 C140 1.383 . S
C1046 C264 1.383 . S
C1081 C147 1.383 . S
C1096 C283 1.383 . S
C1131 C225 1.383 . S
C1146 C153 1.383 . S
C1181 C303 1.383 . S
C1196 C75 1.383 . S
C1231 C82 1.383 . S
C1246 C270 1.383 . S
C1281 C277 1.383 . S
C1296 C95 1.383 . S
C1331 C296 1.383 . S
C1346 C62 1.383 . S
C1381 C121 1.383 . S
C1396 C257 1.383 . S
C1431 C218 1.383 . S
C1446 C134 1.383 . S
C1481 C238 1.383 . S
C1496 C108 1.383 . S
C1531 C3 0.961 . S
C1546 C55 0.960 . S
C1581 C68 0.960 . S
C1596 C18 0.961 . S
C1631 C29 0.960 . S
C1646 C83 0.960 . S
C1681 C44 0.960 . S
C1696 C96 0.960 . S
C1731 C109 0.960 . S
C1746 C16 0.960 . S
C1781 C122 0.960 . S
C1796 C31 0.960 . S
C1831 C135 0.960 . S
C1846 C42 0.961 . S
C1881 C5 0.960 . S
C1896 C146 0.960 . S
C1931 C148 0.960 . S
C1946 C57 0.960 . S
C1981 C70 0.960 . S
C1996 C107 0.960 . S
C2031 C81 0.960 . S
C2046 C120 0.961 . S
C2081 C133 0.960 . S
C2096 C94 0.960 . S
C2131 C211 0.960 . S
C2146 C161 0.961 . S
C2181 C226 0.960 . S
C2196 C174 0.961 . S
C2231 C187 0.960 . S
C2246 C239 0.960 . S
C2281 C200 0.960 . S
C2296 C250 0.960 . S
C2331 C172 0.960 . S
C2346 C263 0.960 . S
C2381 C185 0.960 . S
C2396 C278 0.961 . S
C2431 C289 0.960 . S
C2446 C198 0.960 . S
C2481 C159 0.960 . S
C2496 C304 0.960 . S
C2531 C213 0.960 . S
C2546 C302 0.960 . S
C2581 C265 0.961 . S
C2596 C224 0.960 . S
C2631 C237 0.961 . S
C2646 C276 0.960 . S
C2681 C291 0.960 . S
C2696 C252 0.960 . S
