# Generated by pormake.
# Topology umd, (4)-cn, num edge types: 1
# Building blocks:
#     Node 0, Type 0, BuildingBlock: CEKHIL_clean_sbu_0, # of connection points: 4
#     Node 1, Type 0, BuildingBlock: CEKHIL_clean_sbu_0, # of connection points: 4
#     Node 2, Type 0, BuildingBlock: CEKHIL_clean_sbu_0, # of connection points: 4
#     Node 3, Type 0, BuildingBlock: CEKHIL_clean_sbu_0, # of connection points: 4
#     Node 4, Type 0, BuildingBlock: CEKHIL_clean_sbu_0, # of connection points: 4
#     Node 5, Type 0, BuildingBlock: CEKHIL_clean_sbu_0, # of connection points: 4
#     Node 6, Type 0, BuildingBlock: CEKHIL_clean_sbu_0, # of connection points: 4
#     Node 7, Type 0, BuildingBlock: CEKHIL_clean_sbu_0, # of connection points: 4
#     Node 8, Type 0, BuildingBlock: CEKHIL_clean_sbu_0, # of connection points: 4
#     Node 9, Type 0, BuildingBlock: CEKHIL_clean_sbu_0, # of connection points: 4
#     Node 10, Type 0, BuildingBlock: CEKHIL_clean_sbu_0, # of connection points: 4
#     Node 11, Type 0, BuildingBlock: CEKHIL_clean_sbu_0, # of connection points: 4
#     Node 12, Type 0, BuildingBlock: CEKHIL_clean_sbu_0, # of connection points: 4
#     Node 13, Type 0, BuildingBlock: CEKHIL_clean_sbu_0, # of connection points: 4
#     Node 14, Type 0, BuildingBlock: CEKHIL_clean_sbu_0, # of connection points: 4
#     Node 15, Type 0, BuildingBlock: CEKHIL_clean_sbu_0, # of connection points: 4
#     Edge 16, Type (0, 0), BuildingBlock: AJUNOK_clean_linker_0, # of connection points: 2
#     Edge 17, Type (0, 0), BuildingBlock: AJUNOK_clean_linker_0, # of connection points: 2
#     Edge 18, Type (0, 0), BuildingBlock: AJUNOK_clean_linker_0, # of connection points: 2
#     Edge 19, Type (0, 0), BuildingBlock: AJUNOK_clean_linker_0, # of connection points: 2
#     Edge 20, Type (0, 0), BuildingBlock: AJUNOK_clean_linker_0, # of connection points: 2
#     Edge 21, Type (0, 0), BuildingBlock: AJUNOK_clean_linker_0, # of connection points: 2
#     Edge 22, Type (0, 0), BuildingBlock: AJUNOK_clean_linker_0, # of connection points: 2
#     Edge 23, Type (0, 0), BuildingBlock: AJUNOK_clean_linker_0, # of connection points: 2
#     Edge 24, Type (0, 0), BuildingBlock: AJUNOK_clean_linker_0, # of connection points: 2
#     Edge 25, Type (0, 0), BuildingBlock: AJUNOK_clean_linker_0, # of connection points: 2
#     Edge 26, Type (0, 0), BuildingBlock: AJUNOK_clean_linker_0, # of connection points: 2
#     Edge 27, Type (0, 0), BuildingBlock: AJUNOK_clean_linker_0, # of connection points: 2
#     Edge 28, Type (0, 0), BuildingBlock: AJUNOK_clean_linker_0, # of connection points: 2
#     Edge 29, Type (0, 0), BuildingBlock: AJUNOK_clean_linker_0, # of connection points: 2
#     Edge 30, Type (0, 0), BuildingBlock: AJUNOK_clean_linker_0, # of connection points: 2
#     Edge 31, Type (0, 0), BuildingBlock: AJUNOK_clean_linker_0, # of connection points: 2
#     Edge 32, Type (0, 0), BuildingBlock: AJUNOK_clean_linker_0, # of connection points: 2
#     Edge 33, Type (0, 0), BuildingBlock: AJUNOK_clean_linker_0, # of connection points: 2
#     Edge 34, Type (0, 0), BuildingBlock: AJUNOK_clean_linker_0, # of connection points: 2
#     Edge 35, Type (0, 0), BuildingBlock: AJUNOK_clean_linker_0, # of connection points: 2
#     Edge 36, Type (0, 0), BuildingBlock: AJUNOK_clean_linker_0, # of connection points: 2
#     Edge 37, Type (0, 0), BuildingBlock: AJUNOK_clean_linker_0, # of connection points: 2
#     Edge 38, Type (0, 0), BuildingBlock: AJUNOK_clean_linker_0, # of connection points: 2
#     Edge 39, Type (0, 0), BuildingBlock: AJUNOK_clean_linker_0, # of connection points: 2
#     Edge 40, Type (0, 0), BuildingBlock: AJUNOK_clean_linker_0, # of connection points: 2
#     Edge 41, Type (0, 0), BuildingBlock: AJUNOK_clean_linker_0, # of connection points: 2
#     Edge 42, Type (0, 0), BuildingBlock: AJUNOK_clean_linker_0, # of connection points: 2
#     Edge 43, Type (0, 0), BuildingBlock: AJUNOK_clean_linker_0, # of connection points: 2
#     Edge 44, Type (0, 0), BuildingBlock: AJUNOK_clean_linker_0, # of connection points: 2
#     Edge 45, Type (0, 0), BuildingBlock: AJUNOK_clean_linker_0, # of connection points: 2
#     Edge 46, Type (0, 0), BuildingBlock: AJUNOK_clean_linker_0, # of connection points: 2
#     Edge 47, Type (0, 0), BuildingBlock: AJUNOK_clean_linker_0, # of connection points: 2
# Relax obj value: 0.091
# Max RMSD: 0.226
# Mean RMSD: 0.226
data_MOF--net-umd--node1-CEKHIL_clean_sbu_0--edge1-AJUNOK_clean_linker_0
_symmetry_space_group_name_H-M    P1
_symmetry_Int_Tables_number       1
_symmetry_cell_setting            triclinic
loop_
_symmetry_equiv_pos_as_xyz
'x, y, z'
_cell_length_a     28.725213
_cell_length_b     28.726891
_cell_length_c     40.385866
_cell_angle_alpha  89.995121
_cell_angle_beta   90.00102
_cell_angle_gamma 90.00752
loop_
_atom_site_label
_atom_site_type_symbol
_atom_site_fract_x
_atom_site_fract_y
_atom_site_fract_z
_atom_type_partial_charge
Co0 Co 0.19074 0.43974 0.13128 0.0
O1 O 0.25008 0.4101 0.1338 0.0
O2 O 0.18663 0.37585 0.11455 0.0
C3 C 0.19334 0.46795 0.18326 0.0
O4 O 0.12283 0.46098 0.12717 0.0
Co5 Co 0.18749 0.54659 0.13531 0.0
O6 O 0.11989 0.5366 0.14142 0.0
C7 C 0.21348 0.50321 0.07224 0.0
C8 C 0.23056 0.37289 0.12236 0.0
C9 C 0.09982 0.49842 0.1341 0.0
O10 O 0.20536 0.46341 0.08556 0.0
O11 O 0.21075 0.54146 0.08839 0.0
O12 O 0.17975 0.42573 0.17744 0.0
O13 O 0.20893 0.49071 0.1578 0.0
Co14 Co 0.57053 0.19357 0.63214 0.0
O15 O 0.6034 0.25147 0.63013 0.0
O16 O 0.63282 0.18392 0.61395 0.0
C17 C 0.54462 0.20193 0.68448 0.0
O18 O 0.54505 0.1268 0.63188 0.0
Co19 Co 0.46338 0.19829 0.63858 0.0
O20 O 0.46897 0.13024 0.64521 0.0
C21 C 0.50562 0.21556 0.5736 0.0
C22 C 0.63819 0.22862 0.61795 0.0
C23 C 0.50566 0.10709 0.63865 0.0
O24 O 0.54523 0.2049 0.5863 0.0
O25 O 0.46832 0.21821 0.59086 0.0
O26 O 0.58625 0.18655 0.67861 0.0
O27 O 0.52193 0.21663 0.65876 0.0
Co28 Co 0.80743 0.56587 0.12952 0.0
O29 O 0.74831 0.59638 0.12791 0.0
O30 O 0.81426 0.62841 0.11099 0.0
C31 C 0.80072 0.53984 0.18194 0.0
O32 O 0.87506 0.54289 0.12856 0.0
Co33 Co 0.80643 0.45869 0.13578 0.0
O34 O 0.87436 0.46662 0.14151 0.0
C35 C 0.78707 0.50029 0.07104 0.0
C36 C 0.76938 0.63185 0.11511 0.0
C37 C 0.89616 0.50407 0.13478 0.0
O38 O 0.7963 0.54012 0.08389 0.0
O39 O 0.78655 0.46261 0.08797 0.0
O40 O 0.81462 0.58194 0.17587 0.0
O41 O 0.7865 0.51651 0.15637 0.0
Co42 Co 0.4367 0.81284 0.63246 0.0
O43 O 0.4082 0.75287 0.62987 0.0
O44 O 0.37422 0.81806 0.61348 0.0
C45 C 0.46168 0.80541 0.68511 0.0
O46 O 0.45758 0.88116 0.63264 0.0
Co47 Co 0.54367 0.81541 0.64047 0.0
O48 O 0.53324 0.88286 0.64721 0.0
C49 C 0.50445 0.79532 0.57494 0.0
C50 C 0.37209 0.77303 0.61723 0.0
C51 C 0.49522 0.90352 0.6402 0.0
O52 O 0.46388 0.80353 0.58701 0.0
O53 O 0.54132 0.79504 0.59275 0.0
O54 O 0.41937 0.81835 0.67875 0.0
O55 O 0.48599 0.79275 0.65961 0.0
Co56 Co 0.19391 0.5688 0.36937 0.0
O57 O 0.25447 0.59604 0.37155 0.0
O58 O 0.19007 0.63207 0.38724 0.0
C59 C 0.20029 0.54136 0.31729 0.0
O60 O 0.12518 0.54905 0.36932 0.0
Co61 Co 0.1902 0.46143 0.3638 0.0
O62 O 0.12299 0.47264 0.35658 0.0
C63 C 0.2106 0.50305 0.42831 0.0
C64 C 0.23518 0.63298 0.38364 0.0
C65 C 0.10265 0.51122 0.36245 0.0
O66 O 0.20246 0.54315 0.41542 0.0
O67 O 0.211 0.46554 0.41124 0.0
O68 O 0.18882 0.58438 0.32264 0.0
O69 O 0.21286 0.51815 0.34332 0.0
Co70 Co 0.43723 0.19225 0.86898 0.0
O71 O 0.40887 0.25239 0.87036 0.0
O72 O 0.37336 0.18739 0.88548 0.0
C73 C 0.46722 0.19918 0.81759 0.0
O74 O 0.45749 0.12373 0.86978 0.0
Co75 Co 0.54451 0.18824 0.86614 0.0
O76 O 0.53431 0.12084 0.85892 0.0
C77 C 0.49975 0.21074 0.92926 0.0
C78 C 0.37193 0.23247 0.88199 0.0
C79 C 0.49539 0.10076 0.86402 0.0
O80 O 0.46042 0.20164 0.91557 0.0
O81 O 0.53816 0.21045 0.9132 0.0
O82 O 0.42417 0.18684 0.8219 0.0
O83 O 0.48909 0.21178 0.8442 0.0
Co84 Co 0.81206 0.43771 0.36782 0.0
O85 O 0.75386 0.40566 0.37022 0.0
O86 O 0.82126 0.37484 0.38529 0.0
C87 C 0.80269 0.4654 0.31593 0.0
O88 O 0.87909 0.46261 0.36767 0.0
Co89 Co 0.80798 0.54494 0.36315 0.0
O90 O 0.87582 0.53906 0.3556 0.0
C91 C 0.79097 0.50093 0.42741 0.0
C92 C 0.77631 0.37041 0.38211 0.0
C93 C 0.89894 0.50207 0.36124 0.0
O94 O 0.80208 0.46181 0.41414 0.0
O95 O 0.7877 0.53858 0.41063 0.0
O96 O 0.81766 0.42336 0.32089 0.0
O97 O 0.78885 0.48721 0.34224 0.0
Co98 Co 0.56191 0.80768 0.87162 0.0
O99 O 0.59145 0.74812 0.87328 0.0
O100 O 0.6252 0.81359 0.88923 0.0
C101 C 0.53437 0.80088 0.81952 0.0
O102 O 0.53962 0.87572 0.87212 0.0
Co103 Co 0.45449 0.80735 0.86641 0.0
O104 O 0.46334 0.87488 0.85911 0.0
C105 C 0.49717 0.78814 0.93078 0.0
C106 C 0.6278 0.76861 0.88528 0.0
C107 C 0.50088 0.89679 0.8654 0.0
O108 O 0.53693 0.79753 0.91774 0.0
O109 O 0.45952 0.78677 0.91388 0.0
O110 O 0.57693 0.81396 0.82486 0.0
O111 O 0.5118 0.78711 0.84552 0.0
Co112 Co 0.80964 0.56528 0.86896 0.0
O113 O 0.74948 0.5937 0.8707 0.0
O114 O 0.81429 0.62826 0.88721 0.0
C115 C 0.80332 0.53858 0.81677 0.0
O116 O 0.87808 0.54473 0.86965 0.0
Co117 Co 0.81305 0.45816 0.8632 0.0
O118 O 0.88063 0.46847 0.85686 0.0
C119 C 0.79035 0.4996 0.92737 0.0
C120 C 0.76929 0.6301 0.88322 0.0
C121 C 0.90086 0.50697 0.86309 0.0
O122 O 0.79953 0.53948 0.9146 0.0
O123 O 0.79094 0.46185 0.91053 0.0
O124 O 0.81587 0.58119 0.82254 0.0
O125 O 0.79028 0.51493 0.84251 0.0
Co126 Co 0.44299 0.81091 0.37123 0.0
O127 O 0.4146 0.75079 0.37326 0.0
O128 O 0.37956 0.81593 0.38853 0.0
C129 C 0.47107 0.80388 0.31932 0.0
O130 O 0.46337 0.87936 0.37137 0.0
Co131 Co 0.55025 0.81439 0.36631 0.0
O132 O 0.53969 0.88164 0.35874 0.0
C133 C 0.50782 0.79432 0.4307 0.0
C134 C 0.37777 0.77088 0.38491 0.0
C135 C 0.50114 0.902 0.36461 0.0
O136 O 0.46784 0.80208 0.41748 0.0
O137 O 0.5456 0.79421 0.41391 0.0
O138 O 0.42819 0.81609 0.32442 0.0
O139 O 0.49391 0.7912 0.3455 0.0
Co140 Co 0.19349 0.43838 0.86967 0.0
O141 O 0.25288 0.40858 0.87075 0.0
O142 O 0.18766 0.37533 0.88777 0.0
C143 C 0.19973 0.46502 0.81743 0.0
O144 O 0.12564 0.46119 0.87082 0.0
Co145 Co 0.19459 0.54561 0.86424 0.0
O146 O 0.12692 0.53727 0.85732 0.0
C147 C 0.21488 0.503 0.92848 0.0
C148 C 0.23256 0.37261 0.8834 0.0
C149 C 0.10478 0.50002 0.86402 0.0
O150 O 0.20488 0.46347 0.91546 0.0
O151 O 0.21556 0.54087 0.91178 0.0
O152 O 0.18602 0.42281 0.82329 0.0
O153 O 0.21406 0.48808 0.84309 0.0
Co154 Co 0.57181 0.19343 0.37097 0.0
O155 O 0.60295 0.25215 0.3728 0.0
O156 O 0.63436 0.18574 0.38939 0.0
C157 C 0.54604 0.20078 0.31851 0.0
O158 O 0.54787 0.1261 0.37148 0.0
Co159 Co 0.46458 0.19606 0.36425 0.0
O160 O 0.47183 0.12813 0.35785 0.0
C161 C 0.50613 0.21474 0.42923 0.0
C162 C 0.63835 0.23057 0.38525 0.0
C163 C 0.50886 0.10568 0.36464 0.0
O164 O 0.54599 0.20455 0.41668 0.0
O165 O 0.46892 0.21664 0.41186 0.0
O166 O 0.58798 0.18641 0.32456 0.0
O167 O 0.5229 0.21511 0.34412 0.0
Co168 Co 0.81136 0.43569 0.63124 0.0
O169 O 0.75339 0.40294 0.62899 0.0
O170 O 0.82122 0.37291 0.61401 0.0
C171 C 0.80203 0.46327 0.68311 0.0
O172 O 0.87825 0.4609 0.63135 0.0
Co173 Co 0.80711 0.54299 0.63632 0.0
O174 O 0.875 0.5373 0.64367 0.0
C175 C 0.79018 0.49933 0.57186 0.0
C176 C 0.77642 0.36777 0.61753 0.0
C177 C 0.89807 0.50034 0.63782 0.0
O178 O 0.80108 0.45995 0.58491 0.0
O179 O 0.78701 0.53679 0.58885 0.0
O180 O 0.81723 0.42133 0.67812 0.0
O181 O 0.78794 0.48504 0.65686 0.0
Co182 Co 0.56771 0.81141 0.13192 0.0
O183 O 0.59809 0.75243 0.13014 0.0
O184 O 0.62957 0.81815 0.1122 0.0
C185 C 0.54346 0.805 0.1848 0.0
O186 O 0.54444 0.8789 0.13106 0.0
Co187 Co 0.46067 0.80977 0.14028 0.0
O188 O 0.46856 0.87786 0.14527 0.0
C189 C 0.50015 0.7896 0.07491 0.0
C190 C 0.63304 0.77331 0.1165 0.0
C191 C 0.50568 0.89979 0.13782 0.0
O192 O 0.5404 0.79971 0.08677 0.0
O193 O 0.4634 0.78829 0.09282 0.0
O194 O 0.58531 0.81906 0.17803 0.0
O195 O 0.51946 0.79057 0.15963 0.0
Co196 Co 0.19266 0.56788 0.63173 0.0
O197 O 0.25272 0.59626 0.62929 0.0
O198 O 0.18738 0.63117 0.61422 0.0
C199 C 0.20041 0.53993 0.68364 0.0
O200 O 0.12422 0.54735 0.63197 0.0
Co201 Co 0.18953 0.46056 0.63704 0.0
O202 O 0.12229 0.47106 0.64474 0.0
C203 C 0.20967 0.50277 0.5726 0.0
C204 C 0.2325 0.63293 0.61751 0.0
C205 C 0.10176 0.50952 0.63886 0.0
O206 O 0.20115 0.54277 0.58554 0.0
O207 O 0.21035 0.46521 0.58961 0.0
O208 O 0.188 0.58279 0.67863 0.0
O209 O 0.21271 0.51718 0.65737 0.0
Co210 Co 0.43884 0.19378 0.13382 0.0
O211 O 0.4086 0.25296 0.13549 0.0
O212 O 0.37462 0.18828 0.11809 0.0
C213 C 0.46949 0.19835 0.18518 0.0
O214 O 0.46051 0.12593 0.13067 0.0
Co215 Co 0.5461 0.1914 0.13599 0.0
O216 O 0.53684 0.12386 0.14301 0.0
C217 C 0.50016 0.21439 0.07321 0.0
C218 C 0.37143 0.23256 0.12471 0.0
C219 C 0.49846 0.10335 0.13689 0.0
O220 O 0.46081 0.20651 0.08729 0.0
O221 O 0.53889 0.21289 0.08886 0.0
O222 O 0.42687 0.18483 0.18073 0.0
O223 O 0.49072 0.21312 0.15886 0.0
C224 C 0.02344 0.54096 0.1361 0.0
C225 C 0.04789 0.49845 0.1333 0.0
C226 C 0.97463 0.5426 0.13614 0.0
C227 C 0.94796 0.50179 0.13367 0.0
H228 H 0.04206 0.57359 0.13834 0.0
H229 H 0.95777 0.57615 0.13863 0.0
S230 S 0.99443 0.38148 0.12442 0.0
N231 N 0.04124 0.41455 0.12705 0.0
N232 N 0.94976 0.41739 0.12708 0.0
C233 C 0.97186 0.45899 0.13041 0.0
C234 C 0.02164 0.45739 0.1302 0.0
C235 C 0.53928 0.97901 0.64189 0.0
C236 C 0.49617 0.95547 0.63971 0.0
C237 C 0.54209 0.02773 0.6412 0.0
C238 C 0.50192 0.05533 0.63859 0.0
H239 H 0.57154 0.95973 0.64399 0.0
H240 H 0.5761 0.04383 0.64309 0.0
S241 S 0.38034 0.01146 0.63138 0.0
N242 N 0.41233 0.96394 0.63431 0.0
N243 N 0.41735 0.05535 0.63303 0.0
C244 C 0.45848 0.03236 0.63622 0.0
C245 C 0.45568 0.98261 0.63675 0.0
C246 C 0.02697 0.46773 0.36413 0.0
C247 C 0.05077 0.51069 0.36217 0.0
C248 C 0.97823 0.46528 0.36377 0.0
C249 C 0.95083 0.50563 0.36121 0.0
H250 H 0.0461 0.43538 0.36623 0.0
H251 H 0.96202 0.43131 0.36546 0.0
S252 S 0.99582 0.62704 0.35499 0.0
N253 N 0.04307 0.59456 0.35736 0.0
N254 N 0.95161 0.59043 0.35658 0.0
C255 C 0.97418 0.54898 0.35913 0.0
C256 C 0.02397 0.5514 0.35969 0.0
C257 C 0.53952 0.97536 0.86362 0.0
C258 C 0.49861 0.94871 0.86537 0.0
C259 C 0.53789 0.02419 0.86297 0.0
C260 C 0.49527 0.04876 0.8643 0.0
H261 H 0.57319 0.95845 0.86243 0.0
H262 H 0.57065 0.04275 0.86157 0.0
S263 S 0.37781 0.99553 0.87002 0.0
N264 N 0.41382 0.95081 0.86912 0.0
N265 N 0.41108 0.04224 0.86785 0.0
C266 C 0.45406 0.02255 0.86631 0.0
C267 C 0.45564 0.97276 0.86684 0.0
C268 C 0.97706 0.46389 0.86318 0.0
C269 C 0.95283 0.50672 0.86359 0.0
C270 C 0.02589 0.46193 0.86366 0.0
C271 C 0.05286 0.5027 0.8643 0.0
H272 H 0.95823 0.43123 0.86262 0.0
H273 H 0.04253 0.4281 0.86317 0.0
S274 S 0.00687 0.62398 0.86624 0.0
N275 N 0.95991 0.59096 0.86511 0.0
N276 N 0.05135 0.58765 0.86604 0.0
C277 C 0.02911 0.54589 0.86492 0.0
C278 C 0.97932 0.5478 0.86459 0.0
C279 C 0.54645 0.02679 0.3628 0.0
C280 C 0.50589 0.05387 0.36501 0.0
C281 C 0.54429 0.97802 0.36247 0.0
C282 C 0.50146 0.95395 0.36462 0.0
H283 H 0.58025 0.04332 0.36096 0.0
H284 H 0.57681 0.95913 0.36066 0.0
S285 S 0.38481 0.00851 0.37194 0.0
N286 N 0.42126 0.05284 0.37015 0.0
N287 N 0.41746 0.96139 0.36952 0.0
C288 C 0.46058 0.98059 0.36714 0.0
C289 C 0.46272 0.03037 0.36732 0.0
C290 C 0.97723 0.46347 0.64049 0.0
C291 C 0.94987 0.50382 0.63803 0.0
C292 C 0.02598 0.46597 0.64104 0.0
C293 C 0.04979 0.50893 0.63887 0.0
H294 H 0.96095 0.42955 0.64228 0.0
H295 H 0.04506 0.43357 0.64296 0.0
S296 S 0.99447 0.62519 0.63125 0.0
N297 N 0.95036 0.58845 0.63288 0.0
N298 N 0.0418 0.59287 0.63388 0.0
C299 C 0.02287 0.54963 0.63622 0.0
C300 C 0.9731 0.54714 0.63583 0.0
C301 C 0.54153 0.0273 0.13977 0.0
C302 C 0.49888 0.05141 0.13643 0.0
C303 C 0.54358 0.97851 0.13973 0.0
C304 C 0.50306 0.95153 0.13664 0.0
H305 H 0.57394 0.04616 0.1425 0.0
H306 H 0.57718 0.96189 0.14266 0.0
S307 S 0.38266 0.99692 0.12568 0.0
N308 N 0.41521 0.04402 0.12892 0.0
N309 N 0.41889 0.95257 0.12882 0.0
C310 C 0.46017 0.97505 0.13285 0.0
C311 C 0.45812 0.0248 0.13274 0.0
C312 C 0.19648 0.55154 0.25592 0.0
C313 C 0.1994 0.52151 0.28347 0.0
C314 C 0.19514 0.53413 0.22348 0.0
C315 C 0.19574 0.48604 0.21746 0.0
H316 H 0.19547 0.58892 0.25936 0.0
H317 H 0.1929 0.55847 0.20304 0.0
S318 S 0.20409 0.39255 0.2808 0.0
N319 N 0.20397 0.44134 0.30237 0.0
N320 N 0.2004 0.40849 0.24163 0.0
C321 C 0.19873 0.45559 0.24475 0.0
C322 C 0.20088 0.47335 0.27771 0.0
C323 C 0.47728 0.20186 0.72381 0.0
C324 C 0.52556 0.20286 0.71851 0.0
C325 C 0.4589 0.20045 0.75598 0.0
C326 C 0.48809 0.20092 0.78406 0.0
H327 H 0.45352 0.20122 0.70298 0.0
H328 H 0.42143 0.19921 0.75883 0.0
S329 S 0.61711 0.20542 0.78346 0.0
N330 N 0.60235 0.20522 0.74396 0.0
N331 N 0.5677 0.20363 0.80429 0.0
C332 C 0.53642 0.20287 0.77907 0.0
C333 C 0.55517 0.20353 0.74632 0.0
C334 C 0.80211 0.47335 0.22201 0.0
C335 C 0.79951 0.52144 0.21615 0.0
C336 C 0.80315 0.45572 0.25441 0.0
C337 C 0.80066 0.48545 0.28215 0.0
H338 H 0.80434 0.44921 0.20146 0.0
H339 H 0.8058 0.41839 0.25771 0.0
S340 S 0.7912 0.61416 0.28001 0.0
N341 N 0.79333 0.59859 0.2407 0.0
N342 N 0.79415 0.56529 0.30141 0.0
C343 C 0.79698 0.53354 0.27657 0.0
C344 C 0.79674 0.55156 0.24362 0.0
C345 C 0.5447 0.80396 0.75816 0.0
C346 C 0.51458 0.80094 0.78564 0.0
C347 C 0.52746 0.80468 0.72567 0.0
C348 C 0.47941 0.8033 0.71947 0.0
H349 H 0.58204 0.80558 0.7617 0.0
H350 H 0.55194 0.80709 0.70533 0.0
S351 S 0.38571 0.79465 0.78259 0.0
N352 N 0.43436 0.79559 0.80432 0.0
N353 N 0.4018 0.79801 0.74343 0.0
C354 C 0.44886 0.80021 0.74668 0.0
C355 C 0.46647 0.7987 0.77973 0.0
C356 C 0.80473 0.47192 0.77693 0.0
C357 C 0.80158 0.52 0.78265 0.0
C358 C 0.80483 0.45407 0.7446 0.0
C359 C 0.80084 0.48355 0.71682 0.0
H360 H 0.80803 0.44797 0.79752 0.0
H361 H 0.80792 0.41675 0.7414 0.0
S362 S 0.78942 0.61212 0.71866 0.0
N363 N 0.79329 0.59688 0.75797 0.0
N364 N 0.79234 0.56315 0.6974 0.0
C365 C 0.79664 0.53163 0.72228 0.0
C366 C 0.79735 0.54989 0.75515 0.0
C367 C 0.46063 0.80435 0.25794 0.0
C368 C 0.49084 0.80323 0.28544 0.0
C369 C 0.47781 0.80419 0.22544 0.0
C370 C 0.52587 0.80382 0.21921 0.0
H371 H 0.42326 0.80511 0.26148 0.0
H372 H 0.45325 0.80513 0.20509 0.0
S373 S 0.61983 0.80024 0.28239 0.0
N374 N 0.57119 0.80079 0.30415 0.0
N375 N 0.60361 0.80157 0.24318 0.0
C376 C 0.55652 0.80266 0.24645 0.0
C377 C 0.53899 0.80203 0.27953 0.0
C378 C 0.19921 0.53171 0.77754 0.0
C379 C 0.20123 0.48357 0.7833 0.0
C380 C 0.1988 0.54947 0.74517 0.0
C381 C 0.20128 0.5198 0.71741 0.0
H382 H 0.19707 0.55578 0.79813 0.0
H383 H 0.1967 0.58685 0.74194 0.0
S384 S 0.2093 0.39096 0.71935 0.0
N385 N 0.20683 0.40643 0.75866 0.0
N386 N 0.2071 0.43992 0.69804 0.0
C387 C 0.20426 0.47163 0.72291 0.0
C388 C 0.20392 0.4535 0.75581 0.0
C389 C 0.47903 0.19959 0.27896 0.0
C390 C 0.52725 0.20145 0.28441 0.0
C391 C 0.46088 0.19828 0.24673 0.0
C392 C 0.49021 0.19973 0.21875 0.0
H393 H 0.45516 0.19829 0.2997 0.0
H394 H 0.42344 0.19644 0.24377 0.0
S395 S 0.61909 0.20643 0.21973 0.0
N396 N 0.60414 0.20544 0.2592 0.0
N397 N 0.56984 0.20407 0.19875 0.0
C398 C 0.53846 0.20243 0.22388 0.0
C399 C 0.55701 0.20296 0.25669 0.0
C400 C 0.21335 0.54554 0.98291 0.0
C401 C 0.2223 0.50451 0.96493 0.0
C402 C 0.21311 0.54559 0.01772 0.0
C403 C 0.22196 0.50463 0.03589 0.0
H404 H 0.20412 0.57735 0.97009 0.0
H405 H 0.20364 0.57745 0.03036 0.0
S406 S 0.25562 0.39 1.00061 0.0
N407 N 0.24587 0.42327 0.96804 0.0
N408 N 0.2461 0.42347 0.0331 0.0
C409 C 0.23435 0.46426 0.01817 0.0
C410 C 0.23433 0.46417 0.98283 0.0
C411 C 0.54529 0.22497 0.48414 0.0
C412 C 0.50369 0.22144 0.46584 0.0
C413 C 0.54516 0.22519 0.51879 0.0
C414 C 0.50343 0.22189 0.53696 0.0
H415 H 0.57865 0.22633 0.47168 0.0
H416 H 0.57845 0.2267 0.53139 0.0
S417 S 0.38434 0.21661 0.5012 0.0
N418 N 0.41908 0.21817 0.46866 0.0
N419 N 0.41884 0.21858 0.53386 0.0
C420 C 0.46129 0.22095 0.51907 0.0
C421 C 0.46139 0.22072 0.48357 0.0
C422 C 0.79065 0.45737 0.01675 0.0
C423 C 0.78033 0.49827 0.03455 0.0
C424 C 0.7915 0.45717 0.98192 0.0
C425 C 0.78191 0.49783 0.96366 0.0
H426 H 0.80045 0.42588 0.02975 0.0
H427 H 0.80194 0.42555 0.96935 0.0
S428 S 0.7449 0.61179 0.99829 0.0
N429 N 0.75493 0.57893 0.03103 0.0
N430 N 0.7557 0.57834 0.96601 0.0
C431 C 0.76823 0.53795 0.98117 0.0
C432 C 0.76767 0.53823 0.01646 0.0
C433 C 0.4671 0.78259 0.51972 0.0
C434 C 0.50803 0.78887 0.5384 0.0
C435 C 0.46789 0.78235 0.48509 0.0
C436 C 0.50966 0.78837 0.46734 0.0
H437 H 0.43366 0.77901 0.53188 0.0
H438 H 0.43504 0.77862 0.47218 0.0
S439 S 0.62744 0.80176 0.50423 0.0
N440 N 0.59226 0.79787 0.53643 0.0
N441 N 0.59378 0.79741 0.47125 0.0
C442 C 0.55132 0.79218 0.48562 0.0
C443 C 0.5505 0.79242 0.5211 0.0
C444 C 0.22044 0.54224 0.4832 0.0
C445 C 0.21651 0.50065 0.46494 0.0
C446 C 0.22016 0.54219 0.51784 0.0
C447 C 0.21595 0.50054 0.536 0.0
H448 H 0.22254 0.57556 0.47071 0.0
H449 H 0.22207 0.57544 0.53041 0.0
S450 S 0.20927 0.38144 0.50034 0.0
N451 N 0.21182 0.4161 0.4678 0.0
N452 N 0.21131 0.41599 0.53296 0.0
C453 C 0.21451 0.45836 0.51816 0.0
C454 C 0.21479 0.45843 0.4827 0.0
C455 C 0.54178 0.21116 0.98382 0.0
C456 C 0.50057 0.21852 0.96569 0.0
C457 C 0.54189 0.21229 0.01858 0.0
C458 C 0.50081 0.22091 0.03664 0.0
H459 H 0.57387 0.2024 0.9712 0.0
H460 H 0.57408 0.20422 0.03131 0.0
S461 S 0.38534 0.25036 1.00084 0.0
N462 N 0.41876 0.24023 0.96842 0.0
N463 N 0.41903 0.24274 0.0335 0.0
C464 C 0.46005 0.23143 0.01875 0.0
C465 C 0.45991 0.23011 0.98339 0.0
C466 C 0.7851 0.46014 0.48207 0.0
C467 C 0.78475 0.50216 0.46407 0.0
C468 C 0.78489 0.45973 0.51673 0.0
C469 C 0.7843 0.50133 0.53519 0.0
H470 H 0.78675 0.42697 0.46937 0.0
H471 H 0.78641 0.42628 0.52907 0.0
S472 S 0.77845 0.62095 0.50027 0.0
N473 N 0.78019 0.58667 0.4675 0.0
N474 N 0.77976 0.58593 0.53265 0.0
C475 C 0.78148 0.54366 0.51758 0.0
C476 C 0.78171 0.54407 0.48211 0.0
C477 C 0.53771 0.77625 0.01984 0.0
C478 C 0.49669 0.78243 0.03845 0.0
C479 C 0.53703 0.77599 0.9852 0.0
C480 C 0.49528 0.78184 0.9674 0.0
H481 H 0.57112 0.77291 0.03208 0.0
H482 H 0.56992 0.77244 0.97231 0.0
S483 S 0.37734 0.79475 0.0041 0.0
N484 N 0.41244 0.79103 0.03636 0.0
N485 N 0.41111 0.79046 0.97117 0.0
C486 C 0.45354 0.78537 0.98561 0.0
C487 C 0.45425 0.78567 0.02108 0.0
C488 C 0.28314 0.32012 0.15211 0.0
C489 C 0.2571 0.32894 0.12337 0.0
C490 C 0.31753 0.28589 0.15271 0.0
C491 C 0.32734 0.25889 0.12461 0.0
H492 H 0.27863 0.34167 0.17392 0.0
H493 H 0.3384 0.28224 0.17492 0.0
S494 S 0.26607 0.265 0.04399 0.0
N495 N 0.24065 0.30557 0.06675 0.0
N496 N 0.30586 0.24042 0.06791 0.0
C497 C 0.29936 0.26476 0.09633 0.0
C498 C 0.264 0.30007 0.0957 0.0
C499 C 0.71173 0.32794 0.58904 0.0
C500 C 0.75105 0.32458 0.60958 0.0
C501 C 0.67741 0.29331 0.5891 0.0
C502 C 0.68118 0.2541 0.6097 0.0
H503 H 0.70566 0.35931 0.57476 0.0
H504 H 0.64593 0.29907 0.57488 0.0
S505 S 0.77875 0.22744 0.66655 0.0
N506 N 0.79338 0.27768 0.64949 0.0
N507 N 0.72856 0.21234 0.64962 0.0
C508 C 0.722 0.24847 0.62844 0.0
C509 C 0.75711 0.28388 0.62837 0.0
C510 C 0.75182 0.7173 0.11964 0.0
C511 C 0.74175 0.67328 0.10605 0.0
C512 C 0.71788 0.75286 0.11984 0.0
C513 C 0.67344 0.74514 0.1062 0.0
H514 H 0.78421 0.72283 0.13279 0.0
H515 H 0.72495 0.78469 0.13331 0.0
S516 S 0.63339 0.63909 0.06253 0.0
N517 N 0.68651 0.62631 0.07519 0.0
N518 N 0.62387 0.69312 0.07466 0.0
C519 C 0.66512 0.70309 0.0896 0.0
C520 C 0.69903 0.66707 0.08978 0.0
C521 C 0.30576 0.66522 0.59547 0.0
C522 C 0.26139 0.67371 0.6088 0.0
C523 C 0.34001 0.69971 0.59527 0.0
C524 C 0.33137 0.74415 0.60841 0.0
H525 H 0.31512 0.63061 0.58711 0.0
H526 H 0.37463 0.69046 0.58683 0.0
S527 S 0.21913 0.78606 0.64235 0.0
N528 N 0.20887 0.73121 0.63226 0.0
N529 N 0.27381 0.79653 0.63194 0.0
C530 C 0.28594 0.75463 0.61901 0.0
C531 C 0.25073 0.71919 0.6192 0.0
C532 C 0.34466 0.69697 0.40525 0.0
C533 C 0.33665 0.74197 0.3929 0.0
C534 C 0.30967 0.66323 0.40501 0.0
C535 C 0.26516 0.67299 0.39237 0.0
H536 H 0.3792 0.68681 0.4133 0.0
H537 H 0.3185 0.62824 0.41286 0.0
S538 S 0.22448 0.78711 0.36091 0.0
N539 N 0.2796 0.79617 0.37082 0.0
N540 N 0.21334 0.73219 0.37031 0.0
C541 C 0.25524 0.71894 0.38267 0.0
C542 C 0.2912 0.75365 0.38294 0.0
C543 C 0.28667 0.25257 0.87858 0.0
C544 C 0.33153 0.26165 0.8911 0.0
C545 C 0.25188 0.28735 0.87912 0.0
C546 C 0.26131 0.3318 0.89222 0.0
H547 H 0.27968 0.22011 0.86588 0.0
H548 H 0.21909 0.28077 0.86672 0.0
S549 S 0.37045 0.36944 0.93328 0.0
N550 N 0.38107 0.31571 0.92097 0.0
N551 N 0.31642 0.38048 0.92183 0.0
C552 C 0.30454 0.33932 0.90752 0.0
C553 C 0.33952 0.30434 0.90699 0.0
C554 C 0.67367 0.30058 0.40982 0.0
C555 C 0.68028 0.25779 0.39369 0.0
C556 C 0.70776 0.33527 0.4089 0.0
C557 C 0.74981 0.32853 0.3918 0.0
H558 H 0.64037 0.30871 0.42106 0.0
H559 H 0.69965 0.36896 0.41952 0.0
S560 S 0.78649 0.22067 0.3489 0.0
N561 N 0.73378 0.20862 0.36295 0.0
N562 N 0.79833 0.27427 0.36124 0.0
C563 C 0.75882 0.28441 0.37822 0.0
C564 C 0.72383 0.24881 0.37916 0.0
C565 C 0.69604 0.66141 0.90602 0.0
C566 C 0.74003 0.6705 0.89227 0.0
C567 C 0.66134 0.69547 0.9066 0.0
C568 C 0.66911 0.74007 0.89342 0.0
H569 H 0.68731 0.62666 0.91446 0.0
H570 H 0.62705 0.68576 0.91544 0.0
S571 S 0.7801 0.78339 0.85827 0.0
N572 N 0.79127 0.72869 0.86824 0.0
N573 N 0.72552 0.79317 0.86928 0.0
C574 C 0.71419 0.75111 0.88232 0.0
C575 C 0.74986 0.71612 0.88175 0.0
loop_
_geom_bond_atom_site_label_1
_geom_bond_atom_site_label_2
_geom_bond_distance
_geom_bond_site_symmetry_2
_ccdc_geom_bond_type
Co0 O1 2.216 . S
Co0 O2 2.091 . S
Co0 O4 2.004 . S
Co0 O10 2.021 . S
Co0 O12 2.137 . S
Co0 O13 2.244 . S
O1 Co0 2.216 . S
O1 C8 1.247 . S
O2 Co0 2.091 . S
O2 C8 1.261 . S
C3 O12 1.247 . S
C3 O13 1.272 . S
O4 Co0 2.004 . S
O4 C9 1.259 . S
Co5 O6 2.061 . S
Co5 O11 2.052 . S
Co5 O13 2.135 . S
O6 Co5 2.061 . S
O6 C9 1.235 . S
C7 O10 1.238 . S
C7 O11 1.241 . S
C8 O1 1.247 . S
C8 O2 1.261 . S
C9 O4 1.259 . S
C9 O6 1.235 . S
O10 Co0 2.021 . S
O10 C7 1.238 . S
O11 Co5 2.052 . S
O11 C7 1.241 . S
O12 Co0 2.137 . S
O12 C3 1.247 . S
O13 Co0 2.244 . S
O13 C3 1.272 . S
O13 Co5 2.135 . S
Co14 O15 2.216 . S
Co14 O16 2.091 . S
Co14 O18 2.004 . S
Co14 O24 2.021 . S
Co14 O26 2.137 . S
Co14 O27 2.244 . S
O15 Co14 2.216 . S
O15 C22 1.247 . S
O16 Co14 2.091 . S
O16 C22 1.261 . S
C17 O26 1.247 . S
C17 O27 1.272 . S
O18 Co14 2.004 . S
O18 C23 1.259 . S
Co19 O20 2.061 . S
Co19 O25 2.052 . S
Co19 O27 2.135 . S
O20 Co19 2.061 . S
O20 C23 1.235 . S
C21 O24 1.238 . S
C21 O25 1.241 . S
C22 O15 1.247 . S
C22 O16 1.261 . S
C23 O18 1.259 . S
C23 O20 1.235 . S
O24 Co14 2.021 . S
O24 C21 1.238 . S
O25 Co19 2.052 . S
O25 C21 1.241 . S
O26 Co14 2.137 . S
O26 C17 1.247 . S
O27 Co14 2.244 . S
O27 C17 1.272 . S
O27 Co19 2.135 . S
Co28 O29 2.216 . S
Co28 O30 2.091 . S
Co28 O32 2.004 . S
Co28 O38 2.021 . S
Co28 O40 2.137 . S
Co28 O41 2.244 . S
O29 Co28 2.216 . S
O29 C36 1.247 . S
O30 Co28 2.091 . S
O30 C36 1.261 . S
C31 O40 1.247 . S
C31 O41 1.272 . S
O32 Co28 2.004 . S
O32 C37 1.259 . S
Co33 O34 2.061 . S
Co33 O39 2.052 . S
Co33 O41 2.135 . S
O34 Co33 2.061 . S
O34 C37 1.235 . S
C35 O38 1.238 . S
C35 O39 1.241 . S
C36 O29 1.247 . S
C36 O30 1.261 . S
C37 O32 1.259 . S
C37 O34 1.235 . S
O38 Co28 2.021 . S
O38 C35 1.238 . S
O39 Co33 2.052 . S
O39 C35 1.241 . S
O40 Co28 2.137 . S
O40 C31 1.247 . S
O41 Co28 2.244 . S
O41 C31 1.272 . S
O41 Co33 2.135 . S
Co42 O43 2.216 . S
Co42 O44 2.091 . S
Co42 O46 2.004 . S
Co42 O52 2.021 . S
Co42 O54 2.137 . S
Co42 O55 2.244 . S
O43 Co42 2.216 . S
O43 C50 1.247 . S
O44 Co42 2.091 . S
O44 C50 1.261 . S
C45 O54 1.247 . S
C45 O55 1.272 . S
O46 Co42 2.004 . S
O46 C51 1.259 . S
Co47 O48 2.061 . S
Co47 O53 2.052 . S
Co47 O55 2.135 . S
O48 Co47 2.061 . S
O48 C51 1.235 . S
C49 O52 1.238 . S
C49 O53 1.241 . S
C50 O43 1.247 . S
C50 O44 1.261 . S
C51 O46 1.259 . S
C51 O48 1.235 . S
O52 Co42 2.021 . S
O52 C49 1.238 . S
O53 Co47 2.052 . S
O53 C49 1.241 . S
O54 Co42 2.137 . S
O54 C45 1.247 . S
O55 Co42 2.244 . S
O55 C45 1.272 . S
O55 Co47 2.135 . S
Co56 O57 2.216 . S
Co56 O58 2.091 . S
Co56 O60 2.004 . S
Co56 O66 2.021 . S
Co56 O68 2.137 . S
Co56 O69 2.244 . S
O57 Co56 2.216 . S
O57 C64 1.247 . S
O58 Co56 2.091 . S
O58 C64 1.261 . S
C59 O68 1.247 . S
C59 O69 1.272 . S
O60 Co56 2.004 . S
O60 C65 1.259 . S
Co61 O62 2.061 . S
Co61 O67 2.052 . S
Co61 O69 2.135 . S
O62 Co61 2.061 . S
O62 C65 1.235 . S
C63 O66 1.238 . S
C63 O67 1.241 . S
C64 O57 1.247 . S
C64 O58 1.261 . S
C65 O60 1.259 . S
C65 O62 1.235 . S
O66 Co56 2.021 . S
O66 C63 1.238 . S
O67 Co61 2.052 . S
O67 C63 1.241 . S
O68 Co56 2.137 . S
O68 C59 1.247 . S
O69 Co56 2.244 . S
O69 C59 1.272 . S
O69 Co61 2.135 . S
Co70 O71 2.216 . S
Co70 O72 2.091 . S
Co70 O74 2.004 . S
Co70 O80 2.021 . S
Co70 O82 2.137 . S
Co70 O83 2.244 . S
O71 Co70 2.216 . S
O71 C78 1.247 . S
O72 Co70 2.091 . S
O72 C78 1.261 . S
C73 O82 1.247 . S
C73 O83 1.272 . S
O74 Co70 2.004 . S
O74 C79 1.259 . S
Co75 O76 2.061 . S
Co75 O81 2.052 . S
Co75 O83 2.135 . S
O76 Co75 2.061 . S
O76 C79 1.235 . S
C77 O80 1.238 . S
C77 O81 1.241 . S
C78 O71 1.247 . S
C78 O72 1.261 . S
C79 O74 1.259 . S
C79 O76 1.235 . S
O80 Co70 2.021 . S
O80 C77 1.238 . S
O81 Co75 2.052 . S
O81 C77 1.241 . S
O82 Co70 2.137 . S
O82 C73 1.247 . S
O83 Co70 2.244 . S
O83 C73 1.272 . S
O83 Co75 2.135 . S
Co84 O85 2.216 . S
Co84 O86 2.091 . S
Co84 O88 2.004 . S
Co84 O94 2.021 . S
Co84 O96 2.137 . S
Co84 O97 2.244 . S
O85 Co84 2.216 . S
O85 C92 1.247 . S
O86 Co84 2.091 . S
O86 C92 1.261 . S
C87 O96 1.247 . S
C87 O97 1.272 . S
O88 Co84 2.004 . S
O88 C93 1.259 . S
Co89 O90 2.061 . S
Co89 O95 2.052 . S
Co89 O97 2.135 . S
O90 Co89 2.061 . S
O90 C93 1.235 . S
C91 O94 1.238 . S
C91 O95 1.241 . S
C92 O85 1.247 . S
C92 O86 1.261 . S
C93 O88 1.259 . S
C93 O90 1.235 . S
O94 Co84 2.021 . S
O94 C91 1.238 . S
O95 Co89 2.052 . S
O95 C91 1.241 . S
O96 Co84 2.137 . S
O96 C87 1.247 . S
O97 Co84 2.244 . S
O97 C87 1.272 . S
O97 Co89 2.135 . S
Co98 O99 2.216 . S
Co98 O100 2.091 . S
Co98 O102 2.004 . S
Co98 O108 2.021 . S
Co98 O110 2.137 . S
Co98 O111 2.244 . S
O99 Co98 2.216 . S
O99 C106 1.247 . S
O100 Co98 2.091 . S
O100 C106 1.261 . S
C101 O110 1.247 . S
C101 O111 1.272 . S
O102 Co98 2.004 . S
O102 C107 1.259 . S
Co103 O104 2.061 . S
Co103 O109 2.052 . S
Co103 O111 2.135 . S
O104 Co103 2.061 . S
O104 C107 1.235 . S
C105 O108 1.238 . S
C105 O109 1.241 . S
C106 O99 1.247 . S
C106 O100 1.261 . S
C107 O102 1.259 . S
C107 O104 1.235 . S
O108 Co98 2.021 . S
O108 C105 1.238 . S
O109 Co103 2.052 . S
O109 C105 1.241 . S
O110 Co98 2.137 . S
O110 C101 1.247 . S
O111 Co98 2.244 . S
O111 C101 1.272 . S
O111 Co103 2.135 . S
Co112 O113 2.216 . S
Co112 O114 2.091 . S
Co112 O116 2.004 . S
Co112 O122 2.021 . S
Co112 O124 2.137 . S
Co112 O125 2.244 . S
O113 Co112 2.216 . S
O113 C120 1.247 . S
O114 Co112 2.091 . S
O114 C120 1.261 . S
C115 O124 1.247 . S
C115 O125 1.272 . S
O116 Co112 2.004 . S
O116 C121 1.259 . S
Co117 O118 2.061 . S
Co117 O123 2.052 . S
Co117 O125 2.135 . S
O118 Co117 2.061 . S
O118 C121 1.235 . S
C119 O122 1.238 . S
C119 O123 1.241 . S
C120 O113 1.247 . S
C120 O114 1.261 . S
C121 O116 1.259 . S
C121 O118 1.235 . S
O122 Co112 2.021 . S
O122 C119 1.238 . S
O123 Co117 2.052 . S
O123 C119 1.241 . S
O124 Co112 2.137 . S
O124 C115 1.247 . S
O125 Co112 2.244 . S
O125 C115 1.272 . S
O125 Co117 2.135 . S
Co126 O127 2.216 . S
Co126 O128 2.091 . S
Co126 O130 2.004 . S
Co126 O136 2.021 . S
Co126 O138 2.137 . S
Co126 O139 2.244 . S
O127 Co126 2.216 . S
O127 C134 1.247 . S
O128 Co126 2.091 . S
O128 C134 1.261 . S
C129 O138 1.247 . S
C129 O139 1.272 . S
O130 Co126 2.004 . S
O130 C135 1.259 . S
Co131 O132 2.061 . S
Co131 O137 2.052 . S
Co131 O139 2.135 . S
O132 Co131 2.061 . S
O132 C135 1.235 . S
C133 O136 1.238 . S
C133 O137 1.241 . S
C134 O127 1.247 . S
C134 O128 1.261 . S
C135 O130 1.259 . S
C135 O132 1.235 . S
O136 Co126 2.021 . S
O136 C133 1.238 . S
O137 Co131 2.052 . S
O137 C133 1.241 . S
O138 Co126 2.137 . S
O138 C129 1.247 . S
O139 Co126 2.244 . S
O139 C129 1.272 . S
O139 Co131 2.135 . S
Co140 O141 2.216 . S
Co140 O142 2.091 . S
Co140 O144 2.004 . S
Co140 O150 2.021 . S
Co140 O152 2.137 . S
Co140 O153 2.244 . S
O141 Co140 2.216 . S
O141 C148 1.247 . S
O142 Co140 2.091 . S
O142 C148 1.261 . S
C143 O152 1.247 . S
C143 O153 1.272 . S
O144 Co140 2.004 . S
O144 C149 1.259 . S
Co145 O146 2.061 . S
Co145 O151 2.052 . S
Co145 O153 2.135 . S
O146 Co145 2.061 . S
O146 C149 1.235 . S
C147 O150 1.238 . S
C147 O151 1.241 . S
C148 O141 1.247 . S
C148 O142 1.261 . S
C149 O144 1.259 . S
C149 O146 1.235 . S
O150 Co140 2.021 . S
O150 C147 1.238 . S
O151 Co145 2.052 . S
O151 C147 1.241 . S
O152 Co140 2.137 . S
O152 C143 1.247 . S
O153 Co140 2.244 . S
O153 C143 1.272 . S
O153 Co145 2.135 . S
Co154 O155 2.216 . S
Co154 O156 2.091 . S
Co154 O158 2.004 . S
Co154 O164 2.021 . S
Co154 O166 2.137 . S
Co154 O167 2.244 . S
O155 Co154 2.216 . S
O155 C162 1.247 . S
O156 Co154 2.091 . S
O156 C162 1.261 . S
C157 O166 1.247 . S
C157 O167 1.272 . S
O158 Co154 2.004 . S
O158 C163 1.259 . S
Co159 O160 2.061 . S
Co159 O165 2.052 . S
Co159 O167 2.135 . S
O160 Co159 2.061 . S
O160 C163 1.235 . S
C161 O164 1.238 . S
C161 O165 1.241 . S
C162 O155 1.247 . S
C162 O156 1.261 . S
C163 O158 1.259 . S
C163 O160 1.235 . S
O164 Co154 2.021 . S
O164 C161 1.238 . S
O165 Co159 2.052 . S
O165 C161 1.241 . S
O166 Co154 2.137 . S
O166 C157 1.247 . S
O167 Co154 2.244 . S
O167 C157 1.272 . S
O167 Co159 2.135 . S
Co168 O169 2.216 . S
Co168 O170 2.091 . S
Co168 O172 2.004 . S
Co168 O178 2.021 . S
Co168 O180 2.137 . S
Co168 O181 2.244 . S
O169 Co168 2.216 . S
O169 C176 1.247 . S
O170 Co168 2.091 . S
O170 C176 1.261 . S
C171 O180 1.247 . S
C171 O181 1.272 . S
O172 Co168 2.004 . S
O172 C177 1.259 . S
Co173 O174 2.061 . S
Co173 O179 2.052 . S
Co173 O181 2.135 . S
O174 Co173 2.061 . S
O174 C177 1.235 . S
C175 O178 1.238 . S
C175 O179 1.241 . S
C176 O169 1.247 . S
C176 O170 1.261 . S
C177 O172 1.259 . S
C177 O174 1.235 . S
O178 Co168 2.021 . S
O178 C175 1.238 . S
O179 Co173 2.052 . S
O179 C175 1.241 . S
O180 Co168 2.137 . S
O180 C171 1.247 . S
O181 Co168 2.244 . S
O181 C171 1.272 . S
O181 Co173 2.135 . S
Co182 O183 2.216 . S
Co182 O184 2.091 . S
Co182 O186 2.004 . S
Co182 O192 2.021 . S
Co182 O194 2.137 . S
Co182 O195 2.244 . S
O183 Co182 2.216 . S
O183 C190 1.247 . S
O184 Co182 2.091 . S
O184 C190 1.261 . S
C185 O194 1.247 . S
C185 O195 1.272 . S
O186 Co182 2.004 . S
O186 C191 1.259 . S
Co187 O188 2.061 . S
Co187 O193 2.052 . S
Co187 O195 2.135 . S
O188 Co187 2.061 . S
O188 C191 1.235 . S
C189 O192 1.238 . S
C189 O193 1.241 . S
C190 O183 1.247 . S
C190 O184 1.261 . S
C191 O186 1.259 . S
C191 O188 1.235 . S
O192 Co182 2.021 . S
O192 C189 1.238 . S
O193 Co187 2.052 . S
O193 C189 1.241 . S
O194 Co182 2.137 . S
O194 C185 1.247 . S
O195 Co182 2.244 . S
O195 C185 1.272 . S
O195 Co187 2.135 . S
Co196 O197 2.216 . S
Co196 O198 2.091 . S
Co196 O200 2.004 . S
Co196 O206 2.021 . S
Co196 O208 2.137 . S
Co196 O209 2.244 . S
O197 Co196 2.216 . S
O197 C204 1.247 . S
O198 Co196 2.091 . S
O198 C204 1.261 . S
C199 O208 1.247 . S
C199 O209 1.272 . S
O200 Co196 2.004 . S
O200 C205 1.259 . S
Co201 O202 2.061 . S
Co201 O207 2.052 . S
Co201 O209 2.135 . S
O202 Co201 2.061 . S
O202 C205 1.235 . S
C203 O206 1.238 . S
C203 O207 1.241 . S
C204 O197 1.247 . S
C204 O198 1.261 . S
C205 O200 1.259 . S
C205 O202 1.235 . S
O206 Co196 2.021 . S
O206 C203 1.238 . S
O207 Co201 2.052 . S
O207 C203 1.241 . S
O208 Co196 2.137 . S
O208 C199 1.247 . S
O209 Co196 2.244 . S
O209 C199 1.272 . S
O209 Co201 2.135 . S
Co210 O211 2.216 . S
Co210 O212 2.091 . S
Co210 O214 2.004 . S
Co210 O220 2.021 . S
Co210 O222 2.137 . S
Co210 O223 2.244 . S
O211 Co210 2.216 . S
O211 C218 1.247 . S
O212 Co210 2.091 . S
O212 C218 1.261 . S
C213 O222 1.247 . S
C213 O223 1.272 . S
O214 Co210 2.004 . S
O214 C219 1.259 . S
Co215 O216 2.061 . S
Co215 O221 2.052 . S
Co215 O223 2.135 . S
O216 Co215 2.061 . S
O216 C219 1.235 . S
C217 O220 1.238 . S
C217 O221 1.241 . S
C218 O211 1.247 . S
C218 O212 1.261 . S
C219 O214 1.259 . S
C219 O216 1.235 . S
O220 Co210 2.021 . S
O220 C217 1.238 . S
O221 Co215 2.052 . S
O221 C217 1.241 . S
O222 Co210 2.137 . S
O222 C213 1.247 . S
O223 Co210 2.244 . S
O223 C213 1.272 . S
O223 Co215 2.135 . S
C224 C225 1.369 . S
C224 C226 1.419 1_455 S
C224 H228 0.930 . S
C225 C224 1.369 . S
C225 C234 1.429 . S
C226 C224 1.419 1_655 S
C226 C227 1.363 . S
C226 H229 0.929 . S
C227 C226 1.363 . S
C227 C233 1.428 . S
H228 C224 0.930 . S
H229 C226 0.929 . S
S230 N231 1.613 1_655 S
S230 N232 1.610 . S
N231 S230 1.613 1_455 S
N231 C234 1.350 . S
N232 S230 1.610 . S
N232 C233 1.351 . S
C233 C227 1.428 . S
C233 N232 1.351 . S
C233 C234 1.434 1_655 S
C234 C225 1.429 . S
C234 N231 1.350 . S
C234 C233 1.434 1_455 S
C235 C236 1.369 . S
C235 C237 1.419 1_565 S
C235 H239 0.930 . S
C236 C235 1.369 . S
C236 C245 1.429 . S
C237 C235 1.419 1_545 S
C237 C238 1.363 . S
C237 H240 0.929 . S
C238 C237 1.363 . S
C238 C244 1.428 . S
H239 C235 0.930 . S
H240 C237 0.929 . S
S241 N242 1.613 1_545 S
S241 N243 1.610 . S
N242 S241 1.613 1_565 S
N242 C245 1.350 . S
N243 S241 1.610 . S
N243 C244 1.351 . S
C244 C238 1.428 . S
C244 N243 1.351 . S
C244 C245 1.434 1_545 S
C245 C236 1.429 . S
C245 N242 1.350 . S
C245 C244 1.434 1_565 S
C246 C247 1.369 . S
C246 C248 1.419 1_455 S
C246 H250 0.930 . S
C247 C246 1.369 . S
C247 C256 1.429 . S
C248 C246 1.419 1_655 S
C248 C249 1.363 . S
C248 H251 0.929 . S
C249 C248 1.363 . S
C249 C255 1.428 . S
H250 C246 0.930 . S
H251 C248 0.929 . S
S252 N253 1.613 1_655 S
S252 N254 1.610 . S
N253 S252 1.613 1_455 S
N253 C256 1.350 . S
N254 S252 1.610 . S
N254 C255 1.351 . S
C255 C249 1.428 . S
C255 N254 1.351 . S
C255 C256 1.434 1_655 S
C256 C247 1.429 . S
C256 N253 1.350 . S
C256 C255 1.434 1_455 S
C257 C258 1.369 . S
C257 C259 1.419 1_565 S
C257 H261 0.930 . S
C258 C257 1.369 . S
C258 C267 1.429 . S
C259 C257 1.419 1_545 S
C259 C260 1.363 . S
C259 H262 0.929 . S
C260 C259 1.363 . S
C260 C266 1.428 . S
H261 C257 0.930 . S
H262 C259 0.929 . S
S263 N264 1.613 . S
S263 N265 1.610 1_565 S
N264 S263 1.613 . S
N264 C267 1.350 . S
N265 S263 1.610 1_545 S
N265 C266 1.351 . S
C266 C260 1.428 . S
C266 N265 1.351 . S
C266 C267 1.434 1_545 S
C267 C258 1.429 . S
C267 N264 1.350 . S
C267 C266 1.434 1_565 S
C268 C269 1.369 . S
C268 C270 1.419 1_655 S
C268 H272 0.930 . S
C269 C268 1.369 . S
C269 C278 1.429 . S
C270 C268 1.419 1_455 S
C270 C271 1.363 . S
C270 H273 0.929 . S
C271 C270 1.363 . S
C271 C277 1.428 . S
H272 C268 0.930 . S
H273 C270 0.929 . S
S274 N275 1.613 1_455 S
S274 N276 1.610 . S
N275 S274 1.613 1_655 S
N275 C278 1.350 . S
N276 S274 1.610 . S
N276 C277 1.351 . S
C277 C271 1.428 . S
C277 N276 1.351 . S
C277 C278 1.434 1_455 S
C278 C269 1.429 . S
C278 N275 1.350 . S
C278 C277 1.434 1_655 S
C279 C280 1.369 . S
C279 C281 1.419 1_545 S
C279 H283 0.930 . S
C280 C279 1.369 . S
C280 C289 1.429 . S
C281 C279 1.419 1_565 S
C281 C282 1.363 . S
C281 H284 0.929 . S
C282 C281 1.363 . S
C282 C288 1.428 . S
H283 C279 0.930 . S
H284 C281 0.929 . S
S285 N286 1.613 . S
S285 N287 1.610 1_545 S
N286 S285 1.613 . S
N286 C289 1.350 . S
N287 S285 1.610 1_565 S
N287 C288 1.351 . S
C288 C282 1.428 . S
C288 N287 1.351 . S
C288 C289 1.434 1_565 S
C289 C280 1.429 . S
C289 N286 1.350 . S
C289 C288 1.434 1_545 S
C290 C291 1.369 . S
C290 C292 1.419 1_655 S
C290 H294 0.930 . S
C291 C290 1.369 . S
C291 C300 1.429 . S
C292 C290 1.419 1_455 S
C292 C293 1.363 . S
C292 H295 0.929 . S
C293 C292 1.363 . S
C293 C299 1.428 . S
H294 C290 0.930 . S
H295 C292 0.929 . S
S296 N297 1.613 . S
S296 N298 1.610 1_655 S
N297 S296 1.613 . S
N297 C300 1.350 . S
N298 S296 1.610 1_455 S
N298 C299 1.351 . S
C299 C293 1.428 . S
C299 N298 1.351 . S
C299 C300 1.434 1_455 S
C300 C291 1.429 . S
C300 N297 1.350 . S
C300 C299 1.434 1_655 S
C301 C302 1.369 . S
C301 C303 1.419 1_545 S
C301 H305 0.930 . S
C302 C301 1.369 . S
C302 C311 1.429 . S
C303 C301 1.419 1_565 S
C303 C304 1.363 . S
C303 H306 0.929 . S
C304 C303 1.363 . S
C304 C310 1.428 . S
H305 C301 0.930 . S
H306 C303 0.929 . S
S307 N308 1.613 1_565 S
S307 N309 1.610 . S
N308 S307 1.613 1_545 S
N308 C311 1.350 . S
N309 S307 1.610 . S
N309 C310 1.351 . S
C310 C304 1.428 . S
C310 N309 1.351 . S
C310 C311 1.434 1_565 S
C311 C302 1.429 . S
C311 N308 1.350 . S
C311 C310 1.434 1_545 S
C312 C313 1.369 . S
C312 C314 1.419 . S
C312 H316 0.930 . S
C313 C312 1.369 . S
C313 C322 1.429 . S
C314 C312 1.419 . S
C314 C315 1.363 . S
C314 H317 0.929 . S
C315 C314 1.363 . S
C315 C321 1.428 . S
H316 C312 0.930 . S
H317 C314 0.929 . S
S318 N319 1.613 . S
S318 N320 1.610 . S
N319 S318 1.613 . S
N319 C322 1.350 . S
N320 S318 1.610 . S
N320 C321 1.351 . S
C321 C315 1.428 . S
C321 N320 1.351 . S
C321 C322 1.434 . S
C322 C313 1.429 . S
C322 N319 1.350 . S
C322 C321 1.434 . S
C323 C324 1.369 . S
C323 C325 1.419 . S
C323 H327 0.930 . S
C324 C323 1.369 . S
C324 C333 1.429 . S
C325 C323 1.419 . S
C325 C326 1.363 . S
C325 H328 0.929 . S
C326 C325 1.363 . S
C326 C332 1.428 . S
H327 C323 0.930 . S
H328 C325 0.929 . S
S329 N330 1.613 . S
S329 N331 1.610 . S
N330 S329 1.613 . S
N330 C333 1.350 . S
N331 S329 1.610 . S
N331 C332 1.351 . S
C332 C326 1.428 . S
C332 N331 1.351 . S
C332 C333 1.434 . S
C333 C324 1.429 . S
C333 N330 1.350 . S
C333 C332 1.434 . S
C334 C335 1.369 . S
C334 C336 1.419 . S
C334 H338 0.930 . S
C335 C334 1.369 . S
C335 C344 1.429 . S
C336 C334 1.419 . S
C336 C337 1.363 . S
C336 H339 0.929 . S
C337 C336 1.363 . S
C337 C343 1.428 . S
H338 C334 0.930 . S
H339 C336 0.929 . S
S340 N341 1.613 . S
S340 N342 1.610 . S
N341 S340 1.613 . S
N341 C344 1.350 . S
N342 S340 1.610 . S
N342 C343 1.351 . S
C343 C337 1.428 . S
C343 N342 1.351 . S
C343 C344 1.434 . S
C344 C335 1.429 . S
C344 N341 1.350 . S
C344 C343 1.434 . S
C345 C346 1.369 . S
C345 C347 1.419 . S
C345 H349 0.930 . S
C346 C345 1.369 . S
C346 C355 1.429 . S
C347 C345 1.419 . S
C347 C348 1.363 . S
C347 H350 0.929 . S
C348 C347 1.363 . S
C348 C354 1.428 . S
H349 C345 0.930 . S
H350 C347 0.929 . S
S351 N352 1.613 . S
S351 N353 1.610 . S
N352 S351 1.613 . S
N352 C355 1.350 . S
N353 S351 1.610 . S
N353 C354 1.351 . S
C354 C348 1.428 . S
C354 N353 1.351 . S
C354 C355 1.434 . S
C355 C346 1.429 . S
C355 N352 1.350 . S
C355 C354 1.434 . S
C356 C357 1.369 . S
C356 C358 1.419 . S
C356 H360 0.930 . S
C357 C356 1.369 . S
C357 C366 1.429 . S
C358 C356 1.419 . S
C358 C359 1.363 . S
C358 H361 0.929 . S
C359 C358 1.363 . S
C359 C365 1.428 . S
H360 C356 0.930 . S
H361 C358 0.929 . S
S362 N363 1.613 . S
S362 N364 1.610 . S
N363 S362 1.613 . S
N363 C366 1.350 . S
N364 S362 1.610 . S
N364 C365 1.351 . S
C365 C359 1.428 . S
C365 N364 1.351 . S
C365 C366 1.434 . S
C366 C357 1.429 . S
C366 N363 1.350 . S
C366 C365 1.434 . S
C367 C368 1.369 . S
C367 C369 1.419 . S
C367 H371 0.930 . S
C368 C367 1.369 . S
C368 C377 1.429 . S
C369 C367 1.419 . S
C369 C370 1.363 . S
C369 H372 0.929 . S
C370 C369 1.363 . S
C370 C376 1.428 . S
H371 C367 0.930 . S
H372 C369 0.929 . S
S373 N374 1.613 . S
S373 N375 1.610 . S
N374 S373 1.613 . S
N374 C377 1.350 . S
N375 S373 1.610 . S
N375 C376 1.351 . S
C376 C370 1.428 . S
C376 N375 1.351 . S
C376 C377 1.434 . S
C377 C368 1.429 . S
C377 N374 1.350 . S
C377 C376 1.434 . S
C378 C379 1.369 . S
C378 C380 1.419 . S
C378 H382 0.930 . S
C379 C378 1.369 . S
C379 C388 1.429 . S
C380 C378 1.419 . S
C380 C381 1.363 . S
C380 H383 0.929 . S
C381 C380 1.363 . S
C381 C387 1.428 . S
H382 C378 0.930 . S
H383 C380 0.929 . S
S384 N385 1.613 . S
S384 N386 1.610 . S
N385 S384 1.613 . S
N385 C388 1.350 . S
N386 S384 1.610 . S
N386 C387 1.351 . S
C387 C381 1.428 . S
C387 N386 1.351 . S
C387 C388 1.434 . S
C388 C379 1.429 . S
C388 N385 1.350 . S
C388 C387 1.434 . S
C389 C390 1.369 . S
C389 C391 1.419 . S
C389 H393 0.930 . S
C390 C389 1.369 . S
C390 C399 1.429 . S
C391 C389 1.419 . S
C391 C392 1.363 . S
C391 H394 0.929 . S
C392 C391 1.363 . S
C392 C398 1.428 . S
H393 C389 0.930 . S
H394 C391 0.929 . S
S395 N396 1.613 . S
S395 N397 1.610 . S
N396 S395 1.613 . S
N396 C399 1.350 . S
N397 S395 1.610 . S
N397 C398 1.351 . S
C398 C392 1.428 . S
C398 N397 1.351 . S
C398 C399 1.434 . S
C399 C390 1.429 . S
C399 N396 1.350 . S
C399 C398 1.434 . S
C400 C401 1.369 . S
C400 C402 1.419 1_556 S
C400 H404 0.930 . S
C401 C400 1.369 . S
C401 C410 1.429 . S
C402 C400 1.419 1_554 S
C402 C403 1.363 . S
C402 H405 0.929 . S
C403 C402 1.363 . S
C403 C409 1.428 . S
H404 C400 0.930 . S
H405 C402 0.929 . S
S406 N407 1.616 1_554 S
S406 N408 1.608 . S
N407 S406 1.616 1_556 S
N407 C410 1.350 . S
N408 S406 1.608 . S
N408 C409 1.351 . S
C409 C403 1.428 . S
C409 N408 1.351 . S
C409 C410 1.434 1_554 S
C410 C401 1.429 . S
C410 N407 1.350 . S
C410 C409 1.434 1_556 S
C411 C412 1.369 . S
C411 C413 1.419 . S
C411 H415 0.930 . S
C412 C411 1.369 . S
C412 C421 1.429 . S
C413 C411 1.419 . S
C413 C414 1.363 . S
C413 H416 0.929 . S
C414 C413 1.363 . S
C414 C420 1.428 . S
H415 C411 0.930 . S
H416 C413 0.929 . S
S417 N418 1.613 . S
S417 N419 1.610 . S
N418 S417 1.613 . S
N418 C421 1.350 . S
N419 S417 1.610 . S
N419 C420 1.351 . S
C420 C414 1.428 . S
C420 N419 1.351 . S
C420 C421 1.434 . S
C421 C412 1.429 . S
C421 N418 1.350 . S
C421 C420 1.434 . S
C422 C423 1.369 . S
C422 C424 1.419 1_554 S
C422 H426 0.930 . S
C423 C422 1.369 . S
C423 C432 1.429 . S
C424 C422 1.419 1_556 S
C424 C425 1.363 . S
C424 H427 0.929 . S
C425 C424 1.363 . S
C425 C431 1.428 . S
H426 C422 0.930 . S
H427 C424 0.929 . S
S428 N429 1.616 1_556 S
S428 N430 1.608 . S
N429 S428 1.616 1_554 S
N429 C432 1.350 . S
N430 S428 1.608 . S
N430 C431 1.351 . S
C431 C425 1.428 . S
C431 N430 1.351 . S
C431 C432 1.434 1_556 S
C432 C423 1.429 . S
C432 N429 1.350 . S
C432 C431 1.434 1_554 S
C433 C434 1.369 . S
C433 C435 1.419 . S
C433 H437 0.930 . S
C434 C433 1.369 . S
C434 C443 1.429 . S
C435 C433 1.419 . S
C435 C436 1.363 . S
C435 H438 0.929 . S
C436 C435 1.363 . S
C436 C442 1.428 . S
H437 C433 0.930 . S
H438 C435 0.929 . S
S439 N440 1.613 . S
S439 N441 1.610 . S
N440 S439 1.613 . S
N440 C443 1.350 . S
N441 S439 1.610 . S
N441 C442 1.351 . S
C442 C436 1.428 . S
C442 N441 1.351 . S
C442 C443 1.434 . S
C443 C434 1.429 . S
C443 N440 1.350 . S
C443 C442 1.434 . S
C444 C445 1.369 . S
C444 C446 1.419 . S
C444 H448 0.930 . S
C445 C444 1.369 . S
C445 C454 1.429 . S
C446 C444 1.419 . S
C446 C447 1.363 . S
C446 H449 0.929 . S
C447 C446 1.363 . S
C447 C453 1.428 . S
H448 C444 0.930 . S
H449 C446 0.929 . S
S450 N451 1.613 . S
S450 N452 1.610 . S
N451 S450 1.613 . S
N451 C454 1.350 . S
N452 S450 1.610 . S
N452 C453 1.351 . S
C453 C447 1.428 . S
C453 N452 1.351 . S
C453 C454 1.434 . S
C454 C445 1.429 . S
C454 N451 1.350 . S
C454 C453 1.434 . S
C455 C456 1.369 . S
C455 C457 1.419 1_556 S
C455 H459 0.930 . S
C456 C455 1.369 . S
C456 C465 1.429 . S
C457 C455 1.419 1_554 S
C457 C458 1.363 . S
C457 H460 0.929 . S
C458 C457 1.363 . S
C458 C464 1.428 . S
H459 C455 0.930 . S
H460 C457 0.929 . S
S461 N462 1.616 1_554 S
S461 N463 1.608 . S
N462 S461 1.616 1_556 S
N462 C465 1.350 . S
N463 S461 1.608 . S
N463 C464 1.351 . S
C464 C458 1.428 . S
C464 N463 1.351 . S
C464 C465 1.434 1_554 S
C465 C456 1.429 . S
C465 N462 1.350 . S
C465 C464 1.434 1_556 S
C466 C467 1.369 . S
C466 C468 1.419 . S
C466 H470 0.930 . S
C467 C466 1.369 . S
C467 C476 1.429 . S
C468 C466 1.419 . S
C468 C469 1.363 . S
C468 H471 0.929 . S
C469 C468 1.363 . S
C469 C475 1.428 . S
H470 C466 0.930 . S
H471 C468 0.929 . S
S472 N473 1.613 . S
S472 N474 1.610 . S
N473 S472 1.613 . S
N473 C476 1.350 . S
N474 S472 1.610 . S
N474 C475 1.351 . S
C475 C469 1.428 . S
C475 N474 1.351 . S
C475 C476 1.434 . S
C476 C467 1.429 . S
C476 N473 1.350 . S
C476 C475 1.434 . S
C477 C478 1.369 . S
C477 C479 1.419 1_554 S
C477 H481 0.930 . S
C478 C477 1.369 . S
C478 C487 1.429 . S
C479 C477 1.419 1_556 S
C479 C480 1.363 . S
C479 H482 0.929 . S
C480 C479 1.363 . S
C480 C486 1.428 . S
H481 C477 0.930 . S
H482 C479 0.929 . S
S483 N484 1.616 1_556 S
S483 N485 1.608 . S
N484 S483 1.616 1_554 S
N484 C487 1.350 . S
N485 S483 1.608 . S
N485 C486 1.351 . S
C486 C480 1.428 . S
C486 N485 1.351 . S
C486 C487 1.434 1_556 S
C487 C478 1.429 . S
C487 N484 1.350 . S
C487 C486 1.434 1_554 S
C488 C489 1.369 . S
C488 C490 1.419 . S
C488 H492 0.930 . S
C489 C488 1.369 . S
C489 C498 1.429 . S
C490 C488 1.419 . S
C490 C491 1.363 . S
C490 H493 0.929 . S
C491 C490 1.363 . S
C491 C497 1.428 . S
H492 C488 0.930 . S
H493 C490 0.929 . S
S494 N495 1.613 . S
S494 N496 1.610 . S
N495 S494 1.613 . S
N495 C498 1.350 . S
N496 S494 1.610 . S
N496 C497 1.351 . S
C497 C491 1.428 . S
C497 N496 1.351 . S
C497 C498 1.434 . S
C498 C489 1.429 . S
C498 N495 1.350 . S
C498 C497 1.434 . S
C499 C500 1.369 . S
C499 C501 1.419 . S
C499 H503 0.930 . S
C500 C499 1.369 . S
C500 C509 1.429 . S
C501 C499 1.419 . S
C501 C502 1.363 . S
C501 H504 0.929 . S
C502 C501 1.363 . S
C502 C508 1.428 . S
H503 C499 0.930 . S
H504 C501 0.929 . S
S505 N506 1.613 . S
S505 N507 1.610 . S
N506 S505 1.613 . S
N506 C509 1.350 . S
N507 S505 1.610 . S
N507 C508 1.351 . S
C508 C502 1.428 . S
C508 N507 1.351 . S
C508 C509 1.434 . S
C509 C500 1.429 . S
C509 N506 1.350 . S
C509 C508 1.434 . S
C510 C511 1.369 . S
C510 C512 1.419 . S
C510 H514 0.930 . S
C511 C510 1.369 . S
C511 C520 1.429 . S
C512 C510 1.419 . S
C512 C513 1.363 . S
C512 H515 0.929 . S
C513 C512 1.363 . S
C513 C519 1.428 . S
H514 C510 0.930 . S
H515 C512 0.929 . S
S516 N517 1.613 . S
S516 N518 1.610 . S
N517 S516 1.613 . S
N517 C520 1.350 . S
N518 S516 1.610 . S
N518 C519 1.351 . S
C519 C513 1.428 . S
C519 N518 1.351 . S
C519 C520 1.434 . S
C520 C511 1.429 . S
C520 N517 1.350 . S
C520 C519 1.434 . S
C521 C522 1.369 . S
C521 C523 1.419 . S
C521 H525 0.930 . S
C522 C521 1.369 . S
C522 C531 1.429 . S
C523 C521 1.419 . S
C523 C524 1.363 . S
C523 H526 0.929 . S
C524 C523 1.363 . S
C524 C530 1.428 . S
H525 C521 0.930 . S
H526 C523 0.929 . S
S527 N528 1.613 . S
S527 N529 1.610 . S
N528 S527 1.613 . S
N528 C531 1.350 . S
N529 S527 1.610 . S
N529 C530 1.351 . S
C530 C524 1.428 . S
C530 N529 1.351 . S
C530 C531 1.434 . S
C531 C522 1.429 . S
C531 N528 1.350 . S
C531 C530 1.434 . S
C532 C533 1.369 . S
C532 C534 1.419 . S
C532 H536 0.930 . S
C533 C532 1.369 . S
C533 C542 1.429 . S
C534 C532 1.419 . S
C534 C535 1.363 . S
C534 H537 0.929 . S
C535 C534 1.363 . S
C535 C541 1.428 . S
H536 C532 0.930 . S
H537 C534 0.929 . S
S538 N539 1.613 . S
S538 N540 1.610 . S
N539 S538 1.613 . S
N539 C542 1.350 . S
N540 S538 1.610 . S
N540 C541 1.351 . S
C541 C535 1.428 . S
C541 N540 1.351 . S
C541 C542 1.434 . S
C542 C533 1.429 . S
C542 N539 1.350 . S
C542 C541 1.434 . S
C543 C544 1.369 . S
C543 C545 1.419 . S
C543 H547 0.930 . S
C544 C543 1.369 . S
C544 C553 1.429 . S
C545 C543 1.419 . S
C545 C546 1.363 . S
C545 H548 0.929 . S
C546 C545 1.363 . S
C546 C552 1.428 . S
H547 C543 0.930 . S
H548 C545 0.929 . S
S549 N550 1.613 . S
S549 N551 1.610 . S
N550 S549 1.613 . S
N550 C553 1.350 . S
N551 S549 1.610 . S
N551 C552 1.351 . S
C552 C546 1.428 . S
C552 N551 1.351 . S
C552 C553 1.434 . S
C553 C544 1.429 . S
C553 N550 1.350 . S
C553 C552 1.434 . S
C554 C555 1.369 . S
C554 C556 1.419 . S
C554 H558 0.930 . S
C555 C554 1.369 . S
C555 C564 1.429 . S
C556 C554 1.419 . S
C556 C557 1.363 . S
C556 H559 0.929 . S
C557 C556 1.363 . S
C557 C563 1.428 . S
H558 C554 0.930 . S
H559 C556 0.929 . S
S560 N561 1.613 . S
S560 N562 1.610 . S
N561 S560 1.613 . S
N561 C564 1.350 . S
N562 S560 1.610 . S
N562 C563 1.351 . S
C563 C557 1.428 . S
C563 N562 1.351 . S
C563 C564 1.434 . S
C564 C555 1.429 . S
C564 N561 1.350 . S
C564 C563 1.434 . S
C565 C566 1.369 . S
C565 C567 1.419 . S
C565 H569 0.930 . S
C566 C565 1.369 . S
C566 C575 1.429 . S
C567 C565 1.419 . S
C567 C568 1.363 . S
C567 H570 0.929 . S
C568 C567 1.363 . S
C568 C574 1.428 . S
H569 C565 0.930 . S
H570 C567 0.929 . S
S571 N572 1.613 . S
S571 N573 1.610 . S
N572 S571 1.613 . S
N572 C575 1.350 . S
N573 S571 1.610 . S
N573 C574 1.351 . S
C574 C568 1.428 . S
C574 N573 1.351 . S
C574 C575 1.434 . S
C575 C566 1.429 . S
C575 N572 1.350 . S
C575 C574 1.434 . S
C225 C9 1.396 . S
C227 C37 1.388 . S
C236 C51 1.392 . S
C238 C23 1.391 . S
C247 C65 1.394 . S
C249 C93 1.389 . S
C258 C107 1.387 . S
C260 C79 1.395 . S
C269 C121 1.395 . S
C271 C149 1.389 . S
C280 C163 1.388 . S
C282 C135 1.395 . S
C291 C177 1.389 . S
C293 C205 1.394 . S
C302 C219 1.395 . S
C304 C191 1.389 . S
C313 C59 1.449 . S
C315 C3 1.441 . S
C324 C17 1.437 . S
C326 C73 1.449 . S
C335 C31 1.440 . S
C337 C87 1.448 . S
C346 C101 1.445 . S
C348 C45 1.444 . S
C357 C115 1.437 . S
C359 C171 1.446 . S
C368 C129 1.444 . S
C370 C185 1.441 . S
C379 C143 1.446 . S
C381 C199 1.445 . S
C390 C157 1.447 . S
C392 C213 1.444 . S
C401 C147 1.373 . S
C403 C7 1.373 . S
C412 C161 1.376 . S
C414 C21 1.375 . S
C423 C35 1.374 . S
C425 C119 1.374 . S
C434 C49 1.369 . S
C436 C133 1.370 . S
C445 C63 1.372 . S
C447 C203 1.372 . S
C456 C77 1.375 . S
C458 C217 1.374 . S
C467 C91 1.369 . S
C469 C175 1.370 . S
C478 C189 1.374 . S
C480 C105 1.374 . S
C489 C8 1.421 . S
C491 C218 1.421 . S
C500 C176 1.421 . S
C502 C22 1.421 . S
C511 C36 1.421 . S
C513 C190 1.421 . S
C522 C204 1.422 . S
C524 C50 1.421 . S
C533 C134 1.422 . S
C535 C64 1.421 . S
C544 C78 1.421 . S
C546 C148 1.421 . S
C555 C162 1.421 . S
C557 C92 1.421 . S
C566 C120 1.422 . S
C568 C106 1.421 . S
