# Generated by pormake.
# Topology pcl, (4)-cn, num edge types: 1
# Building blocks:
#     Node 0, Type 0, BuildingBlock: NAHDIM_clean_sbu_0, # of connection points: 4
#     Node 1, Type 0, BuildingBlock: NAHDIM_clean_sbu_0, # of connection points: 4
#     Node 2, Type 0, BuildingBlock: NAHDIM_clean_sbu_0, # of connection points: 4
#     Node 3, Type 0, BuildingBlock: NAHDIM_clean_sbu_0, # of connection points: 4
#     Node 4, Type 0, BuildingBlock: NAHDIM_clean_sbu_0, # of connection points: 4
#     Node 5, Type 0, BuildingBlock: NAHDIM_clean_sbu_0, # of connection points: 4
#     Node 6, Type 0, BuildingBlock: NAHDIM_clean_sbu_0, # of connection points: 4
#     Node 7, Type 0, BuildingBlock: NAHDIM_clean_sbu_0, # of connection points: 4
#     Node 8, Type 0, BuildingBlock: NAHDIM_clean_sbu_0, # of connection points: 4
#     Node 9, Type 0, BuildingBlock: NAHDIM_clean_sbu_0, # of connection points: 4
#     Node 10, Type 0, BuildingBlock: NAHDIM_clean_sbu_0, # of connection points: 4
#     Node 11, Type 0, BuildingBlock: NAHDIM_clean_sbu_0, # of connection points: 4
#     Node 12, Type 0, BuildingBlock: NAHDIM_clean_sbu_0, # of connection points: 4
#     Node 13, Type 0, BuildingBlock: NAHDIM_clean_sbu_0, # of connection points: 4
#     Node 14, Type 0, BuildingBlock: NAHDIM_clean_sbu_0, # of connection points: 4
#     Node 15, Type 0, BuildingBlock: NAHDIM_clean_sbu_0, # of connection points: 4
#     Edge 16, Type (0, 0), BuildingBlock: KIFKEQ_clean_linker_1, # of connection points: 2
#     Edge 17, Type (0, 0), BuildingBlock: KIFKEQ_clean_linker_1, # of connection points: 2
#     Edge 18, Type (0, 0), BuildingBlock: KIFKEQ_clean_linker_1, # of connection points: 2
#     Edge 19, Type (0, 0), BuildingBlock: KIFKEQ_clean_linker_1, # of connection points: 2
#     Edge 20, Type (0, 0), BuildingBlock: KIFKEQ_clean_linker_1, # of connection points: 2
#     Edge 21, Type (0, 0), BuildingBlock: KIFKEQ_clean_linker_1, # of connection points: 2
#     Edge 22, Type (0, 0), BuildingBlock: KIFKEQ_clean_linker_1, # of connection points: 2
#     Edge 23, Type (0, 0), BuildingBlock: KIFKEQ_clean_linker_1, # of connection points: 2
#     Edge 24, Type (0, 0), BuildingBlock: KIFKEQ_clean_linker_1, # of connection points: 2
#     Edge 25, Type (0, 0), BuildingBlock: KIFKEQ_clean_linker_1, # of connection points: 2
#     Edge 26, Type (0, 0), BuildingBlock: KIFKEQ_clean_linker_1, # of connection points: 2
#     Edge 27, Type (0, 0), BuildingBlock: KIFKEQ_clean_linker_1, # of connection points: 2
#     Edge 28, Type (0, 0), BuildingBlock: KIFKEQ_clean_linker_1, # of connection points: 2
#     Edge 29, Type (0, 0), BuildingBlock: KIFKEQ_clean_linker_1, # of connection points: 2
#     Edge 30, Type (0, 0), BuildingBlock: KIFKEQ_clean_linker_1, # of connection points: 2
#     Edge 31, Type (0, 0), BuildingBlock: KIFKEQ_clean_linker_1, # of connection points: 2
#     Edge 32, Type (0, 0), BuildingBlock: KIFKEQ_clean_linker_1, # of connection points: 2
#     Edge 33, Type (0, 0), BuildingBlock: KIFKEQ_clean_linker_1, # of connection points: 2
#     Edge 34, Type (0, 0), BuildingBlock: KIFKEQ_clean_linker_1, # of connection points: 2
#     Edge 35, Type (0, 0), BuildingBlock: KIFKEQ_clean_linker_1, # of connection points: 2
#     Edge 36, Type (0, 0), BuildingBlock: KIFKEQ_clean_linker_1, # of connection points: 2
#     Edge 37, Type (0, 0), BuildingBlock: KIFKEQ_clean_linker_1, # of connection points: 2
#     Edge 38, Type (0, 0), BuildingBlock: KIFKEQ_clean_linker_1, # of connection points: 2
#     Edge 39, Type (0, 0), BuildingBlock: KIFKEQ_clean_linker_1, # of connection points: 2
#     Edge 40, Type (0, 0), BuildingBlock: KIFKEQ_clean_linker_1, # of connection points: 2
#     Edge 41, Type (0, 0), BuildingBlock: KIFKEQ_clean_linker_1, # of connection points: 2
#     Edge 42, Type (0, 0), BuildingBlock: KIFKEQ_clean_linker_1, # of connection points: 2
#     Edge 43, Type (0, 0), BuildingBlock: KIFKEQ_clean_linker_1, # of connection points: 2
#     Edge 44, Type (0, 0), BuildingBlock: KIFKEQ_clean_linker_1, # of connection points: 2
#     Edge 45, Type (0, 0), BuildingBlock: KIFKEQ_clean_linker_1, # of connection points: 2
#     Edge 46, Type (0, 0), BuildingBlock: KIFKEQ_clean_linker_1, # of connection points: 2
#     Edge 47, Type (0, 0), BuildingBlock: KIFKEQ_clean_linker_1, # of connection points: 2
# Relax obj value: 0.089
# Max RMSD: 0.096
# Mean RMSD: 0.087
data_MOF--net-pcl--node1-NAHDIM_clean_sbu_0--edge1-KIFKEQ_clean_linker_1
_symmetry_space_group_name_H-M    P1
_symmetry_Int_Tables_number       1
_symmetry_cell_setting            triclinic
loop_
_symmetry_equiv_pos_as_xyz
'x, y, z'
_cell_length_a     49.243396
_cell_length_b     48.891874
_cell_length_c     43.609235
_cell_angle_alpha  89.997329
_cell_angle_beta   89.91041
_cell_angle_gamma 90.087933
loop_
_atom_site_label
_atom_site_type_symbol
_atom_site_fract_x
_atom_site_fract_y
_atom_site_fract_z
_atom_type_partial_charge
C0 C 0.20666 0.31259 0.0657 0.0
O1 O 0.21605 0.32102 0.09225 0.0
O2 O 0.17235 0.35657 0.11948 0.0
Zn3 Zn 0.16779 0.35668 0.07347 0.0
O4 O 0.18167 0.39112 0.05375 0.0
C5 C 0.11136 0.34145 0.08076 0.0
O6 O 0.1207 0.32723 0.10403 0.0
O7 O 0.18629 0.32454 0.05395 0.0
C8 C 0.17082 0.41391 0.06045 0.0
O9 O 0.15207 0.41472 0.0819 0.0
C10 C 0.18601 0.37375 0.135 0.0
O11 O 0.19963 0.39307 0.12075 0.0
O12 O 0.12787 0.355 0.06428 0.0
C13 C 0.78373 0.66958 0.56166 0.0
O14 O 0.77258 0.6575 0.58548 0.0
O15 O 0.81849 0.62828 0.61668 0.0
Zn16 Zn 0.82501 0.6288 0.57115 0.0
O17 O 0.8127 0.5937 0.55156 0.0
C18 C 0.87994 0.64809 0.57957 0.0
O19 O 0.86831 0.66491 0.59906 0.0
O20 O 0.80633 0.66087 0.55157 0.0
C21 C 0.81156 0.59244 0.52248 0.0
O22 O 0.81681 0.61456 0.5064 0.0
C23 C 0.82117 0.60625 0.63182 0.0
O24 O 0.82684 0.58351 0.61711 0.0
O25 O 0.86528 0.63143 0.56454 0.0
C26 C 0.21377 0.66609 0.93636 0.0
O27 O 0.22636 0.64316 0.92971 0.0
O28 O 0.17385 0.63519 0.86655 0.0
Zn29 Zn 0.16873 0.63626 0.91232 0.0
O30 O 0.1812 0.60182 0.93307 0.0
C31 C 0.11296 0.65277 0.90319 0.0
O32 O 0.1231 0.66531 0.8791 0.0
O33 O 0.18861 0.66822 0.93043 0.0
C34 C 0.17268 0.57849 0.92458 0.0
O35 O 0.15669 0.57678 0.90056 0.0
C36 C 0.18981 0.61987 0.85143 0.0
O37 O 0.20579 0.6028 0.86606 0.0
O38 O 0.12878 0.63974 0.92093 0.0
C39 C 0.7805 0.32357 0.43871 0.0
O40 O 0.77021 0.34812 0.43501 0.0
O41 O 0.83076 0.35105 0.37245 0.0
Zn42 Zn 0.82921 0.35062 0.4184 0.0
O43 O 0.81576 0.38694 0.43378 0.0
C44 C 0.88381 0.33041 0.41856 0.0
O45 O 0.87425 0.31532 0.39609 0.0
O46 O 0.80554 0.3197 0.43311 0.0
C47 C 0.82737 0.40824 0.42339 0.0
O48 O 0.84675 0.40544 0.40288 0.0
C49 C 0.81242 0.36007 0.35471 0.0
O50 O 0.78967 0.36946 0.3664 0.0
O51 O 0.86773 0.34625 0.43287 0.0
C52 C 0.8091 0.6724 0.94311 0.0
O53 O 0.79534 0.65072 0.93437 0.0
O54 O 0.84542 0.60727 0.94436 0.0
Zn55 Zn 0.85331 0.64102 0.91926 0.0
O56 O 0.84051 0.63608 0.87576 0.0
C57 C 0.91049 0.62901 0.92506 0.0
O58 O 0.90119 0.60468 0.93239 0.0
O59 O 0.83458 0.67311 0.9386 0.0
C60 C 0.85147 0.61771 0.85927 0.0
O61 O 0.87048 0.60224 0.87128 0.0
C62 C 0.82844 0.5889 0.93673 0.0
O63 O 0.81437 0.59181 0.91138 0.0
O64 O 0.89376 0.64796 0.9187 0.0
C65 C 0.18746 0.32754 0.45282 0.0
O66 O 0.20071 0.34983 0.44507 0.0
O67 O 0.14917 0.3914 0.44441 0.0
Zn68 Zn 0.14269 0.35515 0.42345 0.0
O69 O 0.15517 0.35621 0.37943 0.0
C70 C 0.08499 0.36528 0.42741 0.0
O71 O 0.09309 0.39085 0.42905 0.0
O72 O 0.16251 0.32534 0.44588 0.0
C73 C 0.14909 0.37606 0.36194 0.0
O74 O 0.13463 0.39639 0.37295 0.0
C75 C 0.16802 0.40817 0.43767 0.0
O76 O 0.18538 0.40196 0.41586 0.0
O77 O 0.10262 0.34646 0.42469 0.0
C78 C 0.80852 0.32079 0.0509 0.0
O79 O 0.79613 0.33594 0.07149 0.0
O80 O 0.84322 0.39223 0.04295 0.0
Zn81 Zn 0.85249 0.35706 0.0648 0.0
O82 O 0.8412 0.35844 0.10925 0.0
C83 C 0.90972 0.36924 0.05714 0.0
O84 O 0.90066 0.39411 0.05219 0.0
O85 O 0.83307 0.32605 0.04411 0.0
C86 C 0.85648 0.36953 0.12915 0.0
O87 O 0.87954 0.38057 0.12033 0.0
C88 C 0.83359 0.41317 0.05636 0.0
O89 O 0.82875 0.41222 0.08596 0.0
O90 O 0.89284 0.35015 0.06262 0.0
C91 C 0.16546 0.67116 0.51643 0.0
O92 O 0.15971 0.6495 0.49984 0.0
O93 O 0.14539 0.60509 0.54377 0.0
Zn94 Zn 0.13982 0.64063 0.56616 0.0
O95 O 0.1543 0.63829 0.60925 0.0
C96 C 0.08368 0.62803 0.57295 0.0
O97 O 0.09402 0.60352 0.57691 0.0
O98 O 0.15874 0.67165 0.54457 0.0
C99 C 0.15632 0.61606 0.62418 0.0
O100 O 0.14893 0.593 0.61115 0.0
C101 C 0.16815 0.59342 0.53969 0.0
O102 O 0.19034 0.60505 0.55016 0.0
O103 O 0.09962 0.64803 0.56802 0.0
C104 C 0.7142 0.82312 0.05927 0.0
O105 O 0.72599 0.83496 0.08281 0.0
O106 O 0.67647 0.85304 0.12192 0.0
Zn107 Zn 0.669 0.85738 0.07665 0.0
O108 O 0.67712 0.8954 0.06093 0.0
C109 C 0.61385 0.83722 0.08708 0.0
O110 O 0.62442 0.82476 0.11092 0.0
O111 O 0.69001 0.82966 0.05241 0.0
C112 C 0.65876 0.91339 0.06463 0.0
O113 O 0.63692 0.90695 0.08041 0.0
C114 C 0.67923 0.87279 0.1406 0.0
O115 O 0.67873 0.898 0.13024 0.0
O116 O 0.62915 0.85104 0.06942 0.0
C117 C 0.28359 0.17332 0.56146 0.0
O118 O 0.27088 0.15807 0.58174 0.0
O119 O 0.31976 0.13646 0.62039 0.0
Zn120 Zn 0.3281 0.13717 0.57513 0.0
O121 O 0.31794 0.10185 0.55435 0.0
C122 C 0.38513 0.13635 0.59032 0.0
O123 O 0.37592 0.12574 0.61599 0.0
O124 O 0.30823 0.16814 0.55505 0.0
C125 C 0.32844 0.07934 0.56275 0.0
O126 O 0.34523 0.07919 0.58613 0.0
C127 C 0.30471 0.11914 0.63401 0.0
O128 O 0.2922 0.1002 0.61798 0.0
O129 O 0.36838 0.14304 0.56947 0.0
C130 C 0.7078 0.16774 0.9451 0.0
O131 O 0.71996 0.1447 0.93794 0.0
O132 O 0.6709 0.13855 0.87417 0.0
Zn133 Zn 0.66151 0.14043 0.91911 0.0
O134 O 0.66922 0.10479 0.94073 0.0
C135 C 0.60491 0.14531 0.9017 0.0
O136 O 0.61416 0.13708 0.87499 0.0
O137 O 0.68274 0.17057 0.93902 0.0
C138 C 0.6522 0.08537 0.93812 0.0
O139 O 0.63093 0.08875 0.92039 0.0
C140 C 0.6812 0.11794 0.86075 0.0
O141 O 0.68763 0.09622 0.87689 0.0
O142 O 0.62146 0.14861 0.92376 0.0
C143 C 0.27961 0.82714 0.43729 0.0
O144 O 0.27114 0.85257 0.43887 0.0
O145 O 0.3273 0.86194 0.37272 0.0
Zn146 Zn 0.32891 0.85355 0.41788 0.0
O147 O 0.31941 0.88709 0.44246 0.0
C148 C 0.38417 0.83556 0.4081 0.0
O149 O 0.37543 0.83147 0.38003 0.0
O150 O 0.30381 0.82241 0.42863 0.0
C151 C 0.32282 0.91088 0.43133 0.0
O152 O 0.33171 0.91339 0.40306 0.0
C153 C 0.30698 0.85849 0.35523 0.0
O154 O 0.28418 0.84887 0.36665 0.0
O155 O 0.36761 0.84394 0.42841 0.0
C156 C 0.3025 0.16615 0.94381 0.0
O157 O 0.28875 0.15035 0.92504 0.0
O158 O 0.34413 0.09835 0.94126 0.0
Zn159 Zn 0.34698 0.13486 0.92013 0.0
O160 O 0.33056 0.13325 0.87794 0.0
C161 C 0.40299 0.14009 0.93757 0.0
O162 O 0.39367 0.13004 0.96348 0.0
O163 O 0.32811 0.16343 0.9455 0.0
C164 C 0.33361 0.11231 0.86103 0.0
O165 O 0.34715 0.09123 0.87171 0.0
C166 C 0.32284 0.08363 0.94126 0.0
O167 O 0.30115 0.09218 0.92665 0.0
O168 O 0.38653 0.14439 0.91568 0.0
C169 C 0.68732 0.82352 0.45273 0.0
O170 O 0.70108 0.84342 0.43968 0.0
O171 O 0.64674 0.8892 0.45057 0.0
Zn172 Zn 0.64183 0.85331 0.42851 0.0
O173 O 0.65608 0.85665 0.3854 0.0
C174 C 0.5849 0.85386 0.44546 0.0
O175 O 0.59346 0.87044 0.46709 0.0
O176 O 0.66158 0.82347 0.45089 0.0
C177 C 0.64971 0.8388 0.36549 0.0
O178 O 0.63438 0.81803 0.37373 0.0
C179 C 0.66547 0.90612 0.44392 0.0
O180 O 0.68277 0.90013 0.42198 0.0
O181 O 0.60195 0.84393 0.4266 0.0
C182 C 0.31052 0.81619 0.05162 0.0
O183 O 0.29727 0.83072 0.07208 0.0
O184 O 0.34879 0.88676 0.04728 0.0
Zn185 Zn 0.35441 0.8513 0.06972 0.0
O186 O 0.33982 0.85365 0.11276 0.0
C187 C 0.41152 0.86284 0.07103 0.0
O188 O 0.40252 0.88806 0.0691 0.0
O189 O 0.33548 0.82123 0.0468 0.0
C190 C 0.3442 0.87451 0.12941 0.0
O191 O 0.35815 0.89509 0.11805 0.0
C192 C 0.32737 0.90111 0.04912 0.0
O193 O 0.30715 0.89265 0.06638 0.0
O194 O 0.39453 0.84324 0.07166 0.0
C195 C 0.66972 0.16781 0.52449 0.0
O196 O 0.66583 0.14501 0.50917 0.0
O197 O 0.64734 0.1028 0.55225 0.0
Zn198 Zn 0.64342 0.13853 0.57469 0.0
O199 O 0.65951 0.13546 0.61689 0.0
C200 C 0.5876 0.14242 0.55669 0.0
O201 O 0.59773 0.13457 0.53023 0.0
O202 O 0.66167 0.16944 0.55213 0.0
C203 C 0.65544 0.11424 0.63307 0.0
O204 O 0.64117 0.09398 0.62154 0.0
C205 C 0.66946 0.08967 0.54969 0.0
O206 O 0.69173 0.09981 0.56179 0.0
O207 O 0.60354 0.14617 0.57919 0.0
H208 H 0.08567 0.36923 0.03484 0.0
H209 H 0.07016 0.31787 0.11364 0.0
H210 H 0.03699 0.3744 0.027 0.0
H211 H 0.02145 0.32353 0.10614 0.0
H212 H 0.9353 0.32058 0.0683 0.0
H213 H 0.98403 0.31225 0.07183 0.0
H214 H -0.00038 0.39751 0.05247 0.0
H215 H 0.95103 0.40575 0.04834 0.0
C216 C 0.07188 0.35896 0.05045 0.0
C217 C 0.08181 0.34322 0.07496 0.0
C218 C 0.04397 0.36207 0.04605 0.0
C219 C 0.02534 0.34953 0.06605 0.0
C220 C 0.03526 0.33324 0.09012 0.0
C221 C 0.0632 0.33011 0.09453 0.0
C222 C 0.94914 0.33752 0.06461 0.0
C223 C 0.93927 0.36385 0.05809 0.0
C224 C 0.97705 0.33276 0.0668 0.0
C225 C 0.99571 0.35421 0.06249 0.0
C226 C 0.98582 0.38045 0.05552 0.0
C227 C 0.95793 0.38521 0.05333 0.0
H228 H 0.91751 0.68061 0.60816 0.0
H229 H 0.91016 0.61306 0.54474 0.0
H230 H 0.96693 0.67664 0.60602 0.0
H231 H 0.95942 0.60933 0.54245 0.0
H232 H 0.04452 0.58876 0.57759 0.0
H233 H 0.99549 0.59491 0.57824 0.0
H234 H 0.00616 0.68232 0.57026 0.0
H235 H 0.05543 0.67623 0.56987 0.0
C236 C 0.92641 0.66508 0.59357 0.0
C237 C 0.90988 0.64706 0.57675 0.0
C238 C 0.95471 0.6629 0.59226 0.0
C239 C 0.96703 0.64255 0.57424 0.0
C240 C 0.95051 0.62495 0.55691 0.0
C241 C 0.92227 0.62721 0.55809 0.0
C242 C 0.03647 0.60932 0.576 0.0
C243 C 0.0539 0.63201 0.57363 0.0
C244 C 0.00835 0.61281 0.57617 0.0
C245 C -0.00303 0.63908 0.57413 0.0
C246 C 0.01436 0.66184 0.57206 0.0
C247 C 0.04256 0.65833 0.5717 0.0
H248 H 0.95122 0.59272 0.93669 0.0
H249 H 0.93681 0.67651 0.90967 0.0
H250 H -7e-05 0.60025 0.93266 0.0
H251 H 0.98573 0.68418 0.90622 0.0
H252 H 0.07302 0.67494 0.86745 0.0
H253 H 0.02403 0.67046 0.87402 0.0
H254 H 0.03675 0.62471 0.95752 0.0
H255 H 0.08568 0.62869 0.95067 0.0
C256 C 0.95844 0.61282 0.9301 0.0
C257 C 0.94011 0.634 0.92346 0.0
C258 C 0.9864 0.61719 0.92799 0.0
C259 C -0.00328 0.64284 0.91921 0.0
C260 C 0.97841 0.6641 0.91274 0.0
C261 C 0.95039 0.65974 0.91488 0.0
C262 C 0.06537 0.6641 0.88733 0.0
C263 C 0.08327 0.65201 0.90842 0.0
C264 C 0.03727 0.66165 0.89117 0.0
C265 C 0.02649 0.64707 0.91619 0.0
C266 C 0.04441 0.63567 0.93772 0.0
C267 C 0.07247 0.6381 0.93388 0.0
H268 H 0.04249 0.40063 0.43368 0.0
H269 H 0.06114 0.31469 0.42411 0.0
H270 H 0.99425 0.38988 0.4346 0.0
H271 H 0.01273 0.30389 0.42561 0.0
H272 H 0.92413 0.30285 0.38853 0.0
H273 H 0.97294 0.30983 0.39308 0.0
H274 H 0.95944 0.36817 0.46591 0.0
H275 H 0.91056 0.36162 0.46097 0.0
C276 C 0.03632 0.37941 0.43198 0.0
C277 C 0.05569 0.35853 0.42869 0.0
C278 C 0.00863 0.37322 0.43277 0.0
C279 C -0.00038 0.34601 0.43029 0.0
C280 C 0.019 0.32508 0.42729 0.0
C281 C 0.04674 0.33127 0.42653 0.0
C282 C 0.93156 0.31692 0.40579 0.0
C283 C 0.91342 0.33187 0.42418 0.0
C284 C 0.95958 0.32083 0.40848 0.0
C285 C 0.97008 0.33977 0.42964 0.0
C286 C 0.95197 0.3538 0.44899 0.0
C287 C 0.92396 0.3499 0.4463 0.0
H288 H 0.45262 0.89985 0.06513 0.0
H289 H 0.43724 0.81379 0.08005 0.0
H290 H 0.50125 0.89149 0.06764 0.0
H291 H 0.48615 0.80542 0.08229 0.0
H292 H 0.57456 0.81178 0.1214 0.0
H293 H 0.52537 0.81647 0.11641 0.0
H294 H 0.53674 0.8684 0.0373 0.0
H295 H 0.58574 0.86404 0.04238 0.0
C296 C 0.45961 0.87912 0.06885 0.0
C297 C 0.44105 0.85749 0.07237 0.0
C298 C 0.4875 0.8743 0.07009 0.0
C299 C 0.49752 0.84777 0.07499 0.0
C300 C 0.479 0.82611 0.07866 0.0
C301 C 0.45103 0.8309 0.07724 0.0
C302 C 0.56655 0.82398 0.10277 0.0
C303 C 0.58409 0.8377 0.08245 0.0
C304 C 0.53838 0.82657 0.09985 0.0
C305 C 0.52723 0.84302 0.07664 0.0
C306 C 0.54476 0.85595 0.05572 0.0
C307 C 0.57285 0.8533 0.05855 0.0
H308 H 0.56013 0.15793 0.60838 0.0
H309 H 0.54776 0.13219 0.51461 0.0
H310 H 0.51115 0.15899 0.61629 0.0
H311 H 0.49881 0.13267 0.52275 0.0
H312 H 0.41118 0.15793 0.54029 0.0
H313 H 0.46003 0.16219 0.53201 0.0
H314 H 0.47472 0.12591 0.62079 0.0
H315 H 0.42603 0.1222 0.62935 0.0
C316 C 0.54697 0.15259 0.58941 0.0
C317 C 0.55787 0.14484 0.5609 0.0
C318 C 0.51889 0.15304 0.59401 0.0
C319 C 0.50106 0.14572 0.57023 0.0
C320 C 0.51195 0.13869 0.54147 0.0
C321 C 0.54004 0.13827 0.53686 0.0
C322 C 0.42485 0.15099 0.5581 0.0
C323 C 0.41471 0.13967 0.58546 0.0
C324 C 0.45284 0.15332 0.55328 0.0
C325 C 0.47129 0.14438 0.57572 0.0
C326 C 0.46109 0.13337 0.60321 0.0
C327 C 0.43314 0.13106 0.60804 0.0
H328 H 0.56412 0.13545 0.86084 0.0
H329 H 0.57874 0.16202 0.95389 0.0
H330 H 0.51544 0.137 0.87005 0.0
H331 H 0.52989 0.16427 0.96287 0.0
H332 H 0.44401 0.12835 0.97758 0.0
H333 H 0.49268 0.13253 0.96888 0.0
H334 H 0.47743 0.16682 0.87922 0.0
H335 H 0.42872 0.16198 0.8876 0.0
C336 C 0.55695 0.14197 0.88316 0.0
C337 C 0.57534 0.14844 0.90669 0.0
C338 C 0.52899 0.14304 0.88838 0.0
C339 C 0.51872 0.15069 0.91724 0.0
C340 C 0.53712 0.15789 0.94053 0.0
C341 C 0.56512 0.15675 0.93532 0.0
C342 C 0.45101 0.13697 0.95609 0.0
C343 C 0.43247 0.14464 0.9332 0.0
C344 C 0.47895 0.13953 0.95117 0.0
C345 C 0.489 0.14991 0.92329 0.0
C346 C 0.4704 0.15833 0.90076 0.0
C347 C 0.44246 0.15569 0.90563 0.0
H348 H 0.40877 0.83889 0.46421 0.0
H349 H 0.42596 0.8278 0.36783 0.0
H350 H 0.45731 0.83974 0.47505 0.0
H351 H 0.47436 0.82963 0.37844 0.0
H352 H 0.56086 0.8161 0.40793 0.0
H353 H 0.51247 0.80769 0.40092 0.0
H354 H 0.49429 0.8704 0.46772 0.0
H355 H 0.5426 0.87806 0.47549 0.0
C356 C 0.4229 0.83651 0.44536 0.0
C357 C 0.41349 0.83345 0.41514 0.0
C358 C 0.45075 0.83719 0.45152 0.0
C359 C 0.46983 0.83503 0.4276 0.0
C360 C 0.46034 0.83103 0.39751 0.0
C361 C 0.43251 0.83013 0.39139 0.0
C362 C 0.54652 0.82793 0.42128 0.0
C363 C 0.55558 0.84783 0.44217 0.0
C364 C 0.51875 0.82321 0.41716 0.0
C365 C 0.49939 0.83844 0.43364 0.0
C366 C 0.50855 0.85797 0.45497 0.0
C367 C 0.5363 0.86252 0.45927 0.0
H368 H 0.16519 0.33335 0.1713 0.0
H369 H 0.20309 0.41306 0.17534 0.0
H370 H 0.15904 0.33402 0.22675 0.0
H371 H 0.19695 0.41363 0.23097 0.0
H372 H 0.1444 0.41747 0.32019 0.0
H373 H 0.1565 0.41656 0.26592 0.0
H374 H 0.18528 0.33364 0.27573 0.0
H375 H 0.17311 0.33444 0.33001 0.0
C376 C 0.17246 0.3509 0.18405 0.0
C377 C 0.18452 0.37322 0.16889 0.0
C378 C 0.16906 0.35121 0.21585 0.0
C379 C 0.17743 0.37392 0.23317 0.0
C380 C 0.19007 0.39597 0.21814 0.0
C381 C 0.19372 0.39556 0.18632 0.0
C382 C 0.15344 0.39909 0.31083 0.0
C383 C 0.15764 0.37597 0.32938 0.0
C384 C 0.16055 0.39865 0.27979 0.0
C385 C 0.1718 0.37501 0.26659 0.0
C386 C 0.17641 0.35205 0.28524 0.0
C387 C 0.16953 0.35256 0.31634 0.0
H388 H 0.81659 0.65084 0.66928 0.0
H389 H 0.82509 0.56289 0.67113 0.0
H390 H 0.82104 0.65224 0.72482 0.0
H391 H 0.82882 0.56423 0.72685 0.0
H392 H 0.87343 0.58276 0.81729 0.0
H393 H 0.86265 0.57898 0.76307 0.0
H394 H 0.80054 0.64066 0.77341 0.0
H395 H 0.81183 0.64496 0.82766 0.0
C396 C 0.81896 0.63174 0.68158 0.0
C397 C 0.82076 0.60677 0.66575 0.0
C398 C 0.82136 0.63253 0.71349 0.0
C399 C 0.8255 0.60836 0.7303 0.0
C400 C 0.82615 0.58327 0.71454 0.0
C401 C 0.82386 0.58249 0.68261 0.0
C402 C 0.85736 0.59542 0.80808 0.0
C403 C 0.84364 0.61431 0.82675 0.0
C404 C 0.85103 0.5931 0.77699 0.0
C405 C 0.83073 0.60953 0.76384 0.0
C406 C 0.81653 0.62796 0.78271 0.0
C407 C 0.82293 0.63034 0.81383 0.0
H408 H 0.16292 0.65603 0.81499 0.0
H409 H 0.21417 0.58441 0.81113 0.0
H410 H 0.15822 0.65504 0.75956 0.0
H411 H 0.20964 0.58364 0.75526 0.0
H412 H 0.16118 0.57275 0.6636 0.0
H413 H 0.17273 0.57414 0.71798 0.0
H414 H 0.18409 0.6616 0.71211 0.0
H415 H 0.17218 0.66034 0.65795 0.0
C416 C 0.17343 0.64021 0.80228 0.0
C417 C 0.18884 0.62023 0.81751 0.0
C418 C 0.17087 0.63976 0.77045 0.0
C419 C 0.18357 0.61927 0.75302 0.0
C420 C 0.19943 0.59955 0.76813 0.0
C421 C 0.20214 0.60009 0.80008 0.0
C422 C 0.16635 0.59225 0.67384 0.0
C423 C 0.16546 0.61647 0.6565 0.0
C424 C 0.17315 0.59301 0.70496 0.0
C425 C 0.17914 0.61801 0.71938 0.0
C426 C 0.17917 0.64208 0.70176 0.0
C427 C 0.17243 0.64132 0.67069 0.0
H428 H 0.88643 0.38777 0.17759 0.0
H429 H 0.80907 0.35116 0.15487 0.0
H430 H 0.87462 0.38605 0.23182 0.0
H431 H 0.7974 0.34925 0.20931 0.0
H432 H 0.77776 0.37659 0.30912 0.0
H433 H 0.78751 0.37984 0.25418 0.0
H434 H 0.86848 0.34924 0.27014 0.0
H435 H 0.85897 0.34617 0.32473 0.0
C436 C 0.86687 0.37941 0.18414 0.0
C437 C 0.84875 0.36945 0.16193 0.0
C438 C 0.86018 0.37831 0.21522 0.0
C439 C 0.83517 0.36734 0.2248 0.0
C440 C 0.81675 0.35797 0.20258 0.0
C441 C 0.82351 0.35893 0.17143 0.0
C442 C 0.7976 0.3705 0.30085 0.0
C443 C 0.8176 0.3612 0.32131 0.0
C444 C 0.80313 0.37228 0.26942 0.0
C445 C 0.82882 0.36498 0.25794 0.0
C446 C 0.84865 0.35542 0.27838 0.0
C447 C 0.84311 0.3535 0.30966 0.0
H448 H 0.68364 0.87764 0.34132 0.0
H449 H 0.63429 0.808 0.31628 0.0
H450 H 0.69498 0.88495 0.28747 0.0
H451 H 0.64494 0.81576 0.26252 0.0
H452 H 0.68307 0.82333 0.16951 0.0
H453 H 0.67984 0.81416 0.2243 0.0
H454 H 0.67276 0.90085 0.24193 0.0
H455 H 0.67681 0.91005 0.18727 0.0
C456 C 0.67526 0.86385 0.32434 0.0
C457 C 0.65795 0.84231 0.33308 0.0
C458 C 0.68165 0.86812 0.29345 0.0
C459 C 0.6708 0.85102 0.2706 0.0
C460 C 0.654 0.8291 0.27949 0.0
C461 C 0.64773 0.82475 0.31035 0.0
C462 C 0.68115 0.84045 0.18511 0.0
C463 C 0.67999 0.86741 0.17399 0.0
C464 C 0.67913 0.83518 0.21653 0.0
C465 C 0.67575 0.85673 0.23755 0.0
C466 C 0.67562 0.88376 0.22647 0.0
C467 C 0.6778 0.88904 0.19506 0.0
H468 H 0.30947 0.15444 0.83018 0.0
H469 H 0.33598 0.07076 0.81918 0.0
H470 H 0.29759 0.15621 0.77594 0.0
H471 H 0.32431 0.07269 0.7649 0.0
H472 H 0.28396 0.07934 0.67161 0.0
H473 H 0.28628 0.07744 0.72759 0.0
H474 H 0.3255 0.15651 0.72872 0.0
H475 H 0.32305 0.15854 0.67306 0.0
C476 C 0.31253 0.13634 0.81628 0.0
C477 C 0.32395 0.11254 0.82892 0.0
C478 C 0.3058 0.1374 0.7852 0.0
C479 C 0.31019 0.11466 0.76614 0.0
C480 C 0.32048 0.09048 0.77906 0.0
C481 C 0.32735 0.08944 0.81012 0.0
C482 C 0.29273 0.09647 0.68386 0.0
C483 C 0.30348 0.11901 0.6679 0.0
C484 C 0.29418 0.0953 0.71587 0.0
C485 C 0.30614 0.11679 0.73252 0.0
C486 C 0.3159 0.13977 0.71658 0.0
C487 C 0.31466 0.14083 0.68465 0.0
H488 H 0.67038 0.15971 0.82115 0.0
H489 H 0.69614 0.07527 0.82367 0.0
H490 H 0.66862 0.15788 0.7655 0.0
H491 H 0.69479 0.0736 0.7677 0.0
H492 H 0.64759 0.0733 0.67486 0.0
H493 H 0.65849 0.07393 0.72932 0.0
H494 H 0.69541 0.1536 0.71878 0.0
H495 H 0.68407 0.15323 0.66438 0.0
C496 C 0.67607 0.14085 0.80981 0.0
C497 C 0.68317 0.11756 0.82688 0.0
C498 C 0.67523 0.13986 0.77785 0.0
C499 C 0.68146 0.11556 0.76216 0.0
C500 C 0.68955 0.09253 0.77916 0.0
C501 C 0.69046 0.09354 0.8112 0.0
C502 C 0.65829 0.09083 0.68407 0.0
C503 C 0.66466 0.11335 0.66535 0.0
C504 C 0.66472 0.09111 0.71527 0.0
C505 C 0.67766 0.1139 0.72843 0.0
C506 C 0.68506 0.13592 0.70942 0.0
C507 C 0.67864 0.13564 0.67822 0.0
H508 H 0.31474 0.83552 0.15975 0.0
H509 H 0.35325 0.91422 0.17235 0.0
H510 H 0.30323 0.83425 0.21409 0.0
H511 H 0.34133 0.9131 0.22663 0.0
H512 H 0.3507 0.88017 0.32542 0.0
H513 H 0.35683 0.88631 0.27056 0.0
H514 H 0.27572 0.8557 0.25466 0.0
H515 H 0.26964 0.84912 0.30982 0.0
C516 C 0.32048 0.8527 0.17403 0.0
C517 C 0.33517 0.87484 0.16178 0.0
C518 C 0.3137 0.85205 0.20515 0.0
C519 C 0.3215 0.87351 0.2247 0.0
C520 C 0.33537 0.89608 0.21222 0.0
C521 C 0.3421 0.89676 0.18109 0.0
C522 C 0.33405 0.87491 0.31031 0.0
C523 C 0.30973 0.86397 0.322 0.0
C524 C 0.33752 0.87863 0.27883 0.0
C525 C 0.31677 0.87148 0.25825 0.0
C526 C 0.29218 0.86113 0.26995 0.0
C527 C 0.28867 0.85748 0.30153 0.0
H528 H 0.32502 0.20416 0.98221 0.0
H529 H 0.24789 0.17481 0.94822 0.0
H530 H 0.30156 0.23882 0.01241 0.0
H531 H 0.22444 0.20897 0.979 0.0
H532 H 0.19477 0.29345 0.00848 0.0
H533 H 0.21793 0.25771 0.97991 0.0
H534 H 0.27203 0.24459 0.05643 0.0
H535 H 0.24924 0.28095 0.08482 0.0
C536 C 0.30305 0.20499 0.98133 0.0
C537 C 0.28832 0.18682 0.96269 0.0
C538 C 0.2896 0.22474 -0.00119 0.0
C539 C 0.26112 0.2267 -0.0019 0.0
C540 C 0.24641 0.20829 0.97972 0.0
C541 C 0.25986 0.18862 0.96217 0.0
C542 C 0.21155 0.28291 0.0193 0.0
C543 C 0.2202 0.2901 0.04893 0.0
C544 C 0.22474 0.26228 0.00295 0.0
C545 C 0.24683 0.24825 0.01588 0.0
C546 C 0.25532 0.25525 0.04565 0.0
C547 C 0.24215 0.27598 0.06199 0.0
H548 H 0.73666 0.69489 0.57896 0.0
H549 H 0.79958 0.69662 0.50977 0.0
H550 H 0.71373 0.7327 0.55344 0.0
H551 H 0.77632 0.73397 0.48389 0.0
H552 H 0.74188 0.81841 0.46265 0.0
H553 H 0.76534 0.78192 0.48989 0.0
H554 H 0.68854 0.74178 0.5069 0.0
H555 H 0.66502 0.77855 0.4803 0.0
C556 C 0.74557 0.70328 0.55827 0.0
C557 C 0.76994 0.69273 0.5464 0.0
C558 C 0.73234 0.72486 0.54354 0.0
C559 C 0.74316 0.73633 0.51659 0.0
C560 C 0.76762 0.72586 0.50484 0.0
C561 C 0.78088 0.70433 0.51959 0.0
C562 C 0.72999 0.80183 0.47224 0.0
C563 C 0.70158 0.80139 0.46928 0.0
C564 C 0.74346 0.78083 0.48773 0.0
C565 C 0.72883 0.75891 0.50056 0.0
C566 C 0.7004 0.75855 0.49767 0.0
C567 C 0.68693 0.77956 0.48223 0.0
H568 H 0.33137 0.78406 0.00601 0.0
H569 H 0.258 0.79899 0.05786 0.0
H570 H 0.30813 0.74844 0.97704 0.0
H571 H 0.23497 0.76295 0.02937 0.0
H572 H 0.19419 0.71661 0.95151 0.0
H573 H 0.21782 0.75319 0.97849 0.0
H574 H 0.28971 0.70288 0.98399 0.0
H575 H 0.26631 0.66652 0.95638 0.0
C576 C 0.31032 0.77967 0.01133 0.0
C577 C 0.29652 0.79437 0.03424 0.0
C578 C 0.29704 0.75915 0.99482 0.0
C579 C 0.26969 0.75286 0.00088 0.0
C580 C 0.25593 0.76757 0.02382 0.0
C581 C 0.26918 0.78811 0.04029 0.0
C582 C 0.21508 0.71339 0.95836 0.0
C583 C 0.22836 0.68864 0.95184 0.0
C584 C 0.22856 0.7343 0.97399 0.0
C585 C 0.25561 0.73091 0.98352 0.0
C586 C 0.26898 0.70627 0.97666 0.0
C587 C 0.25552 0.68537 0.96096 0.0
H588 H 0.69686 0.16859 0.46971 0.0
H589 H 0.6756 0.21958 0.54706 0.0
H590 H 0.72258 0.20647 0.44742 0.0
H591 H 0.70137 0.2573 0.52478 0.0
H592 H 0.72845 0.32627 0.46034 0.0
H593 H 0.70034 0.28876 0.47942 0.0
H594 H 0.76531 0.23187 0.46089 0.0
H595 H 0.79345 0.26928 0.44172 0.0
C596 C 0.69755 0.18789 0.48188 0.0
C597 C 0.68428 0.19105 0.51021 0.0
C598 C 0.71239 0.20952 0.46918 0.0
C599 C 0.71402 0.2348 0.48441 0.0
C600 C 0.70027 0.23813 0.5124 0.0
C601 C 0.68564 0.21646 0.52523 0.0
C602 C 0.73672 0.30575 0.46023 0.0
C603 C 0.76322 0.30077 0.44962 0.0
C604 C 0.72065 0.28431 0.47127 0.0
C605 C 0.73065 0.25741 0.47166 0.0
C606 C 0.75698 0.25236 0.46058 0.0
C607 C 0.77314 0.27382 0.4498 0.0
H608 H 0.69607 0.79617 0.00837 0.0
H609 H 0.76488 0.80215 0.06944 0.0
H610 H 0.71929 0.76071 0.97927 0.0
H611 H 0.78788 0.76621 0.04065 0.0
H612 H 0.83161 0.72003 0.9641 0.0
H613 H 0.80895 0.75722 0.99113 0.0
H614 H 0.73286 0.71338 0.98555 0.0
H615 H 0.75536 0.67647 0.95799 0.0
C616 C 0.71614 0.78989 0.01564 0.0
C617 C 0.7286 0.80196 0.04128 0.0
C618 C 0.72939 0.76945 -0.00097 0.0
C619 C 0.75539 0.76055 0.0077 0.0
C620 C 0.76798 0.77282 0.03316 0.0
C621 C 0.75474 0.79332 0.04976 0.0
C622 C 0.81002 0.71837 0.96854 0.0
C623 C 0.79528 0.69527 0.9589 0.0
C624 C 0.79707 0.73962 0.98419 0.0
C625 C 0.76911 0.73825 0.99055 0.0
C626 C 0.75436 0.71524 0.98067 0.0
C627 C 0.76729 0.694 0.96501 0.0
H628 H 0.23178 0.1914 0.57142 0.0
H629 H 0.30338 0.20692 0.51662 0.0
H630 H 0.20858 0.22911 0.54598 0.0
H631 H 0.27998 0.24414 0.49074 0.0
H632 H 0.2399 0.32658 0.47321 0.0
H633 H 0.26291 0.28974 0.50032 0.0
H634 H 0.18979 0.24089 0.49632 0.0
H635 H 0.16658 0.27795 0.46983 0.0
C636 C 0.24254 0.20278 0.55388 0.0
C637 C 0.26943 0.19616 0.54607 0.0
C638 C 0.22919 0.2243 0.53918 0.0
C639 C 0.24243 0.23964 0.51632 0.0
C640 C 0.26933 0.23301 0.50856 0.0
C641 C 0.28269 0.21154 0.52328 0.0
C642 C 0.22871 0.308 0.47814 0.0
C643 C 0.20142 0.3052 0.46933 0.0
C644 C 0.24195 0.28682 0.49355 0.0
C645 C 0.22821 0.26234 0.50043 0.0
C646 C 0.20086 0.2596 0.49173 0.0
C647 C 0.18761 0.2808 0.47637 0.0
H648 H 0.75696 0.30265 0.06206 0.0
H649 H 0.8274 0.28734 0.00538 0.0
H650 H 0.73304 0.26525 0.03688 0.0
H651 H 0.80323 0.25032 0.97974 0.0
H652 H 0.76102 0.168 0.96305 0.0
H653 H 0.78553 0.20458 0.98916 0.0
H654 H 0.71331 0.25464 0.98739 0.0
H655 H 0.68867 0.21795 0.96193 0.0
C656 C 0.76731 0.29138 0.04416 0.0
C657 C 0.79406 0.29801 0.03569 0.0
C658 C 0.75354 0.27003 0.02961 0.0
C659 C 0.7662 0.25486 0.00623 0.0
C660 C 0.79302 0.26139 -0.00209 0.0
C661 C 0.80681 0.28272 0.01249 0.0
C662 C 0.75038 0.18681 0.96823 0.0
C663 C 0.72289 0.19003 0.96045 0.0
C664 C 0.76446 0.20783 0.98306 0.0
C665 C 0.75135 0.23251 0.99041 0.0
C666 C 0.72389 0.23574 0.98248 0.0
C667 C 0.70982 0.21474 0.9677 0.0
H668 H 0.18932 0.67426 0.45977 0.0
H669 H 0.17557 0.72085 0.54258 0.0
H670 H 0.21556 0.71228 0.43853 0.0
H671 H 0.20188 0.75863 0.52142 0.0
H672 H 0.22898 0.8306 0.46265 0.0
H673 H 0.19986 0.79316 0.4797 0.0
H674 H 0.26006 0.73479 0.44977 0.0
H675 H 0.28916 0.77219 0.43248 0.0
C676 C 0.19178 0.69263 0.47338 0.0
C677 C 0.18043 0.6945 0.5029 0.0
C678 C 0.20691 0.71432 0.46127 0.0
C679 C 0.21078 0.7384 0.47833 0.0
C680 C 0.199 0.74045 0.50759 0.0
C681 C 0.18407 0.71872 0.51979 0.0
C682 C 0.23596 0.80979 0.45953 0.0
C683 C 0.26146 0.80438 0.44637 0.0
C684 C 0.21931 0.78836 0.46942 0.0
C685 C 0.22773 0.76107 0.46618 0.0
C686 C 0.25293 0.75562 0.45233 0.0
C687 C 0.26967 0.77705 0.44261 0.0
H688 H 0.19461 0.5768 0.98206 0.0
H689 H 0.16292 0.525 0.91016 0.0
H690 H 0.19885 0.53704 0.01559 0.0
H691 H 0.16733 0.48528 0.94373 0.0
H692 H 0.19741 0.41659 0.00545 0.0
H693 H 0.20251 0.45651 0.9722 0.0
H694 H 0.1628 0.50665 0.04026 0.0
H695 H 0.15752 0.4668 0.07347 0.0
C696 C 0.18892 0.55689 0.97324 0.0
C697 C 0.17821 0.55406 0.94353 0.0
C698 C 0.19126 0.53419 0.9925 0.0
C699 C 0.1833 0.50816 0.98228 0.0
C700 C 0.1738 0.5051 0.95211 0.0
C701 C 0.17114 0.52786 0.93297 0.0
C702 C 0.19012 0.43621 0.01352 0.0
C703 C 0.17689 0.43853 0.042 0.0
C704 C 0.19293 0.45899 0.99441 0.0
C705 C 0.18295 0.48459 0.00362 0.0
C706 C 0.17086 0.48718 0.03269 0.0
C707 C 0.16772 0.46434 0.05162 0.0
H708 H 0.80566 0.54198 0.54885 0.0
H709 H 0.80932 0.58256 0.46088 0.0
H710 H 0.80564 0.49774 0.52318 0.0
H711 H 0.80871 0.5383 0.43521 0.0
H712 H 0.84975 0.45717 0.40709 0.0
H713 H 0.84153 0.50175 0.42988 0.0
H714 H 0.78116 0.46621 0.48991 0.0
H715 H 0.7898 0.42128 0.46745 0.0
C716 C 0.80597 0.54149 0.52402 0.0
C717 C 0.80783 0.5658 0.50692 0.0
C718 C 0.8058 0.5161 0.50929 0.0
C719 C 0.80744 0.51448 0.47714 0.0
C720 C 0.80793 0.53884 0.46003 0.0
C721 C 0.80813 0.56422 0.47475 0.0
C722 C 0.83455 0.45884 0.42496 0.0
C723 C 0.82059 0.43563 0.43561 0.0
C724 C 0.82968 0.48449 0.43789 0.0
C725 C 0.81069 0.48756 0.46175 0.0
C726 C 0.79615 0.46446 0.47181 0.0
C727 C 0.80102 0.43876 0.45885 0.0
H728 H 0.83717 0.42085 0.99441 0.0
H729 H 0.82055 0.46357 0.07917 0.0
H730 H 0.83301 0.46372 0.96623 0.0
H731 H 0.81628 0.50641 0.05085 0.0
H732 H 0.85046 0.57884 0.99301 0.0
H733 H 0.84877 0.53641 0.02229 0.0
H734 H 0.799 0.49957 0.95203 0.0
H735 H 0.80074 0.54204 0.92254 0.0
C736 C 0.83241 0.43933 0.00701 0.0
C737 C 0.82934 0.43883 0.03906 0.0
C738 C 0.82986 0.46385 0.99082 0.0
C739 C 0.82439 0.4884 0.00636 0.0
C740 C 0.82077 0.48782 0.03832 0.0
C741 C 0.8231 0.46326 0.0545 0.0
C742 C 0.83898 0.56178 0.98388 0.0
C743 C 0.82584 0.56376 0.95538 0.0
C744 C 0.83788 0.53753 0.00076 0.0
C745 C 0.82379 0.51468 0.98941 0.0
C746 C 0.81021 0.5168 0.96119 0.0
C747 C 0.81111 0.54115 0.9444 0.0
H748 H 0.2049 0.44942 0.42854 0.0
H749 H 0.13447 0.4275 0.48255 0.0
H750 H 0.20581 0.49433 0.45308 0.0
H751 H 0.13569 0.47206 0.50729 0.0
H752 H 0.12564 0.56397 0.517 0.0
H753 H 0.12678 0.51932 0.49256 0.0
H754 H 0.21396 0.51685 0.50306 0.0
H755 H 0.21292 0.56197 0.52723 0.0
C756 C 0.18974 0.45409 0.44577 0.0
C757 C 0.16953 0.43492 0.45346 0.0
C758 C 0.19036 0.47976 0.45993 0.0
C759 C 0.17072 0.48681 0.48197 0.0
C760 C 0.15084 0.46743 0.49003 0.0
C761 C 0.15025 0.44181 0.47595 0.0
C762 C 0.1451 0.554 0.51407 0.0
C763 C 0.1692 0.56652 0.52416 0.0
C764 C 0.14572 0.52829 0.50022 0.0
C765 C 0.17043 0.51444 0.4961 0.0
C766 C 0.19462 0.5271 0.50575 0.0
C767 C 0.194 0.55287 0.51971 0.0
H768 H 0.61547 0.04405 0.9442 0.0
H769 H 0.6956 0.06931 0.97314 0.0
H770 H 0.61894 0.00339 0.97611 0.0
H771 H 0.699 0.02832 0.00522 0.0
H772 H 0.70065 0.93389 0.02982 0.0
H773 H 0.70066 0.97603 -0.00055 0.0
H774 H 0.62037 -0.00496 0.03306 0.0
H775 H 0.62024 0.95323 0.06327 0.0
C776 C 0.6339 0.04088 0.95725 0.0
C777 C 0.65521 0.05999 0.95624 0.0
C778 C 0.63579 0.01766 0.97568 0.0
C779 C 0.65913 0.01286 0.99335 0.0
C780 C 0.6808 0.03153 0.99177 0.0
C781 C 0.6788 0.05499 0.9735 0.0
C782 C 0.68314 0.94724 0.03097 0.0
C783 C 0.66035 0.94009 0.04876 0.0
C784 C 0.6832 0.97136 0.01366 0.0
C785 C 0.66037 0.98858 0.01363 0.0
C786 C 0.63805 0.9819 0.03226 0.0
C787 C 0.63807 0.958 0.0497 0.0
H788 H 0.3101 0.9128 0.49243 0.0
H789 H 0.32719 0.96442 0.41425 0.0
H790 H 0.30766 0.95319 0.52521 0.0
H791 H 0.32503 0.00466 0.44708 0.0
H792 H 0.29925 0.07364 0.50981 0.0
H793 H 0.29398 0.03252 0.47867 0.0
H794 H 0.34114 0.98677 0.54442 0.0
H795 H 0.34619 0.02773 0.57574 0.0
C796 C 0.31312 0.93275 0.48218 0.0
C797 C 0.31903 0.93539 0.45076 0.0
C798 C 0.31185 0.95586 0.501 0.0
C799 C 0.31628 0.98208 0.48875 0.0
C800 C 0.32125 0.98476 0.45715 0.0
C801 C 0.32266 0.96167 0.43837 0.0
C802 C 0.30826 0.05475 0.51779 0.0
C803 C 0.32332 0.054 0.54515 0.0
C804 C 0.30534 0.03124 0.49987 0.0
C805 C 0.31726 0.00646 0.509 0.0
C806 C 0.3315 0.00549 0.5369 0.0
C807 C 0.33453 0.02902 0.55474 0.0
H808 H 0.36566 0.92393 0.01175 0.0
H809 H 0.28555 0.93803 0.04919 0.0
H810 H 0.36377 0.96773 0.98543 0.0
H811 H 0.28392 0.98224 0.02318 0.0
H812 H 0.28107 0.04681 0.94593 0.0
H813 H 0.28151 0.00241 0.97156 0.0
H814 H 0.36477 0.01603 -0.00125 0.0
H815 H 0.36453 0.06006 0.97278 0.0
C816 C 0.34764 0.93638 0.01441 0.0
C817 C 0.32578 0.9275 0.03264 0.0
C818 C 0.34664 0.96158 -0.00055 0.0
C819 C 0.32377 0.97854 0.00237 0.0
C820 C 0.30172 0.96953 0.02027 0.0
C821 C 0.30273 0.94427 0.03528 0.0
C822 C 0.29945 0.04032 0.95738 0.0
C823 C 0.32278 0.05693 0.95721 0.0
C824 C 0.29965 0.01495 0.97221 0.0
C825 C 0.32321 0.00566 0.98708 0.0
C826 C 0.34644 0.0224 0.98709 0.0
C827 C 0.34623 0.04772 0.97234 0.0
H828 H 0.71309 0.05633 0.53852 0.0
H829 H 0.62638 0.06247 0.52489 0.0
H830 H 0.71292 0.01163 0.51341 0.0
H831 H 0.62633 0.01814 0.4996 0.0
H832 H 0.63116 0.92584 0.48791 0.0
H833 H 0.63307 0.97001 0.51362 0.0
H834 H 0.70521 0.9909 0.4622 0.0
H835 H 0.70355 0.94648 0.43665 0.0
C836 C 0.69404 0.04822 0.53009 0.0
C837 C 0.66975 0.06292 0.53381 0.0
C838 C 0.69397 0.02268 0.51559 0.0
C839 C 0.66958 0.01131 0.50468 0.0
C840 C 0.64537 0.02615 0.50818 0.0
C841 C 0.64545 0.05166 0.52253 0.0
C842 C 0.6475 0.93978 0.48213 0.0
C843 C 0.66715 0.93266 0.46014 0.0
C844 C 0.64849 0.96516 0.49675 0.0
C845 C 0.6692 0.984 0.4898 0.0
C846 C 0.68913 0.97673 0.4682 0.0
C847 C 0.68808 0.95134 0.45346 0.0
loop_
_geom_bond_atom_site_label_1
_geom_bond_atom_site_label_2
_geom_bond_distance
_geom_bond_site_symmetry_2
_ccdc_geom_bond_type
C0 O1 1.160 . S
C0 O7 1.185 . S
O1 C0 1.160 . S
O2 Zn3 1.899 . S
O2 C10 1.284 . S
Zn3 O2 1.899 . S
Zn3 O4 2.032 . S
Zn3 O7 2.086 . S
Zn3 O12 1.977 . S
O4 Zn3 2.032 . S
O4 C8 1.278 . S
C5 O6 1.203 . S
C5 O12 1.267 . S
O6 C5 1.203 . S
O7 C0 1.185 . S
O7 Zn3 2.086 . S
C8 O4 1.278 . S
C8 O9 1.211 . S
O9 C8 1.211 . S
C10 O2 1.284 . S
C10 O11 1.273 . S
O11 C10 1.273 . S
O12 Zn3 1.977 . S
O12 C5 1.267 . S
C13 O14 1.160 . S
C13 O20 1.185 . S
O14 C13 1.160 . S
O15 Zn16 1.899 . S
O15 C23 1.284 . S
Zn16 O15 1.899 . S
Zn16 O17 2.032 . S
Zn16 O20 2.086 . S
Zn16 O25 1.977 . S
O17 Zn16 2.032 . S
O17 C21 1.278 . S
C18 O19 1.203 . S
C18 O25 1.267 . S
O19 C18 1.203 . S
O20 C13 1.185 . S
O20 Zn16 2.086 . S
C21 O17 1.278 . S
C21 O22 1.211 . S
O22 C21 1.211 . S
C23 O15 1.284 . S
C23 O24 1.273 . S
O24 C23 1.273 . S
O25 Zn16 1.977 . S
O25 C18 1.267 . S
C26 O27 1.160 . S
C26 O33 1.185 . S
O27 C26 1.160 . S
O28 Zn29 1.899 . S
O28 C36 1.284 . S
Zn29 O28 1.899 . S
Zn29 O30 2.032 . S
Zn29 O33 2.086 . S
Zn29 O38 1.977 . S
O30 Zn29 2.032 . S
O30 C34 1.278 . S
C31 O32 1.203 . S
C31 O38 1.267 . S
O32 C31 1.203 . S
O33 C26 1.185 . S
O33 Zn29 2.086 . S
C34 O30 1.278 . S
C34 O35 1.211 . S
O35 C34 1.211 . S
C36 O28 1.284 . S
C36 O37 1.273 . S
O37 C36 1.273 . S
O38 Zn29 1.977 . S
O38 C31 1.267 . S
C39 O40 1.160 . S
C39 O46 1.185 . S
O40 C39 1.160 . S
O41 Zn42 1.899 . S
O41 C49 1.284 . S
Zn42 O41 1.899 . S
Zn42 O43 2.032 . S
Zn42 O46 2.086 . S
Zn42 O51 1.977 . S
O43 Zn42 2.032 . S
O43 C47 1.278 . S
C44 O45 1.203 . S
C44 O51 1.267 . S
O45 C44 1.203 . S
O46 C39 1.185 . S
O46 Zn42 2.086 . S
C47 O43 1.278 . S
C47 O48 1.211 . S
O48 C47 1.211 . S
C49 O41 1.284 . S
C49 O50 1.273 . S
O50 C49 1.273 . S
O51 Zn42 1.977 . S
O51 C44 1.267 . S
C52 O53 1.160 . S
C52 O59 1.185 . S
O53 C52 1.160 . S
O54 Zn55 1.899 . S
O54 C62 1.284 . S
Zn55 O54 1.899 . S
Zn55 O56 2.032 . S
Zn55 O59 2.086 . S
Zn55 O64 1.977 . S
O56 Zn55 2.032 . S
O56 C60 1.278 . S
C57 O58 1.203 . S
C57 O64 1.267 . S
O58 C57 1.203 . S
O59 C52 1.185 . S
O59 Zn55 2.086 . S
C60 O56 1.278 . S
C60 O61 1.211 . S
O61 C60 1.211 . S
C62 O54 1.284 . S
C62 O63 1.273 . S
O63 C62 1.273 . S
O64 Zn55 1.977 . S
O64 C57 1.267 . S
C65 O66 1.160 . S
C65 O72 1.185 . S
O66 C65 1.160 . S
O67 Zn68 1.899 . S
O67 C75 1.284 . S
Zn68 O67 1.899 . S
Zn68 O69 2.032 . S
Zn68 O72 2.086 . S
Zn68 O77 1.977 . S
O69 Zn68 2.032 . S
O69 C73 1.278 . S
C70 O71 1.203 . S
C70 O77 1.267 . S
O71 C70 1.203 . S
O72 C65 1.185 . S
O72 Zn68 2.086 . S
C73 O69 1.278 . S
C73 O74 1.211 . S
O74 C73 1.211 . S
C75 O67 1.284 . S
C75 O76 1.273 . S
O76 C75 1.273 . S
O77 Zn68 1.977 . S
O77 C70 1.267 . S
C78 O79 1.160 . S
C78 O85 1.185 . S
O79 C78 1.160 . S
O80 Zn81 1.899 . S
O80 C88 1.284 . S
Zn81 O80 1.899 . S
Zn81 O82 2.032 . S
Zn81 O85 2.086 . S
Zn81 O90 1.977 . S
O82 Zn81 2.032 . S
O82 C86 1.278 . S
C83 O84 1.203 . S
C83 O90 1.267 . S
O84 C83 1.203 . S
O85 C78 1.185 . S
O85 Zn81 2.086 . S
C86 O82 1.278 . S
C86 O87 1.211 . S
O87 C86 1.211 . S
C88 O80 1.284 . S
C88 O89 1.273 . S
O89 C88 1.273 . S
O90 Zn81 1.977 . S
O90 C83 1.267 . S
C91 O92 1.160 . S
C91 O98 1.185 . S
O92 C91 1.160 . S
O93 Zn94 1.899 . S
O93 C101 1.284 . S
Zn94 O93 1.899 . S
Zn94 O95 2.032 . S
Zn94 O98 2.086 . S
Zn94 O103 1.977 . S
O95 Zn94 2.032 . S
O95 C99 1.278 . S
C96 O97 1.203 . S
C96 O103 1.267 . S
O97 C96 1.203 . S
O98 C91 1.185 . S
O98 Zn94 2.086 . S
C99 O95 1.278 . S
C99 O100 1.211 . S
O100 C99 1.211 . S
C101 O93 1.284 . S
C101 O102 1.273 . S
O102 C101 1.273 . S
O103 Zn94 1.977 . S
O103 C96 1.267 . S
C104 O105 1.160 . S
C104 O111 1.185 . S
O105 C104 1.160 . S
O106 Zn107 1.899 . S
O106 C114 1.284 . S
Zn107 O106 1.899 . S
Zn107 O108 2.032 . S
Zn107 O111 2.086 . S
Zn107 O116 1.977 . S
O108 Zn107 2.032 . S
O108 C112 1.278 . S
C109 O110 1.203 . S
C109 O116 1.267 . S
O110 C109 1.203 . S
O111 C104 1.185 . S
O111 Zn107 2.086 . S
C112 O108 1.278 . S
C112 O113 1.211 . S
O113 C112 1.211 . S
C114 O106 1.284 . S
C114 O115 1.273 . S
O115 C114 1.273 . S
O116 Zn107 1.977 . S
O116 C109 1.267 . S
C117 O118 1.160 . S
C117 O124 1.185 . S
O118 C117 1.160 . S
O119 Zn120 1.899 . S
O119 C127 1.284 . S
Zn120 O119 1.899 . S
Zn120 O121 2.032 . S
Zn120 O124 2.086 . S
Zn120 O129 1.977 . S
O121 Zn120 2.032 . S
O121 C125 1.278 . S
C122 O123 1.203 . S
C122 O129 1.267 . S
O123 C122 1.203 . S
O124 C117 1.185 . S
O124 Zn120 2.086 . S
C125 O121 1.278 . S
C125 O126 1.211 . S
O126 C125 1.211 . S
C127 O119 1.284 . S
C127 O128 1.273 . S
O128 C127 1.273 . S
O129 Zn120 1.977 . S
O129 C122 1.267 . S
C130 O131 1.160 . S
C130 O137 1.185 . S
O131 C130 1.160 . S
O132 Zn133 1.899 . S
O132 C140 1.284 . S
Zn133 O132 1.899 . S
Zn133 O134 2.032 . S
Zn133 O137 2.086 . S
Zn133 O142 1.977 . S
O134 Zn133 2.032 . S
O134 C138 1.278 . S
C135 O136 1.203 . S
C135 O142 1.267 . S
O136 C135 1.203 . S
O137 C130 1.185 . S
O137 Zn133 2.086 . S
C138 O134 1.278 . S
C138 O139 1.211 . S
O139 C138 1.211 . S
C140 O132 1.284 . S
C140 O141 1.273 . S
O141 C140 1.273 . S
O142 Zn133 1.977 . S
O142 C135 1.267 . S
C143 O144 1.160 . S
C143 O150 1.185 . S
O144 C143 1.160 . S
O145 Zn146 1.899 . S
O145 C153 1.284 . S
Zn146 O145 1.899 . S
Zn146 O147 2.032 . S
Zn146 O150 2.086 . S
Zn146 O155 1.977 . S
O147 Zn146 2.032 . S
O147 C151 1.278 . S
C148 O149 1.203 . S
C148 O155 1.267 . S
O149 C148 1.203 . S
O150 C143 1.185 . S
O150 Zn146 2.086 . S
C151 O147 1.278 . S
C151 O152 1.211 . S
O152 C151 1.211 . S
C153 O145 1.284 . S
C153 O154 1.273 . S
O154 C153 1.273 . S
O155 Zn146 1.977 . S
O155 C148 1.267 . S
C156 O157 1.160 . S
C156 O163 1.185 . S
O157 C156 1.160 . S
O158 Zn159 1.899 . S
O158 C166 1.284 . S
Zn159 O158 1.899 . S
Zn159 O160 2.032 . S
Zn159 O163 2.086 . S
Zn159 O168 1.977 . S
O160 Zn159 2.032 . S
O160 C164 1.278 . S
C161 O162 1.203 . S
C161 O168 1.267 . S
O162 C161 1.203 . S
O163 C156 1.185 . S
O163 Zn159 2.086 . S
C164 O160 1.278 . S
C164 O165 1.211 . S
O165 C164 1.211 . S
C166 O158 1.284 . S
C166 O167 1.273 . S
O167 C166 1.273 . S
O168 Zn159 1.977 . S
O168 C161 1.267 . S
C169 O170 1.160 . S
C169 O176 1.185 . S
O170 C169 1.160 . S
O171 Zn172 1.899 . S
O171 C179 1.284 . S
Zn172 O171 1.899 . S
Zn172 O173 2.032 . S
Zn172 O176 2.086 . S
Zn172 O181 1.977 . S
O173 Zn172 2.032 . S
O173 C177 1.278 . S
C174 O175 1.203 . S
C174 O181 1.267 . S
O175 C174 1.203 . S
O176 C169 1.185 . S
O176 Zn172 2.086 . S
C177 O173 1.278 . S
C177 O178 1.211 . S
O178 C177 1.211 . S
C179 O171 1.284 . S
C179 O180 1.273 . S
O180 C179 1.273 . S
O181 Zn172 1.977 . S
O181 C174 1.267 . S
C182 O183 1.160 . S
C182 O189 1.185 . S
O183 C182 1.160 . S
O184 Zn185 1.899 . S
O184 C192 1.284 . S
Zn185 O184 1.899 . S
Zn185 O186 2.032 . S
Zn185 O189 2.086 . S
Zn185 O194 1.977 . S
O186 Zn185 2.032 . S
O186 C190 1.278 . S
C187 O188 1.203 . S
C187 O194 1.267 . S
O188 C187 1.203 . S
O189 C182 1.185 . S
O189 Zn185 2.086 . S
C190 O186 1.278 . S
C190 O191 1.211 . S
O191 C190 1.211 . S
C192 O184 1.284 . S
C192 O193 1.273 . S
O193 C192 1.273 . S
O194 Zn185 1.977 . S
O194 C187 1.267 . S
C195 O196 1.160 . S
C195 O202 1.185 . S
O196 C195 1.160 . S
O197 Zn198 1.899 . S
O197 C205 1.284 . S
Zn198 O197 1.899 . S
Zn198 O199 2.032 . S
Zn198 O202 2.086 . S
Zn198 O207 1.977 . S
O199 Zn198 2.032 . S
O199 C203 1.278 . S
C200 O201 1.203 . S
C200 O207 1.267 . S
O201 C200 1.203 . S
O202 C195 1.185 . S
O202 Zn198 2.086 . S
C203 O199 1.278 . S
C203 O204 1.211 . S
O204 C203 1.211 . S
C205 O197 1.284 . S
C205 O206 1.273 . S
O206 C205 1.273 . S
O207 Zn198 1.977 . S
O207 C200 1.267 . S
H208 C216 0.950 . S
H209 C221 0.950 . S
H210 C218 0.950 . S
H211 C220 0.950 . S
H212 C222 0.950 . S
H213 C224 0.950 . S
H214 C226 0.950 . S
H215 C227 0.950 . S
C216 H208 0.950 . S
C216 C217 1.386 . S
C216 C218 1.391 . S
C217 C216 1.386 . S
C217 C221 1.393 . S
C218 H210 0.950 . S
C218 C216 1.391 . S
C218 C219 1.400 . S
C219 C218 1.400 . S
C219 C220 1.398 . S
C219 C225 1.491 1_455 S
C220 H211 0.950 . S
C220 C219 1.398 . S
C220 C221 1.391 . S
C221 H209 0.950 . S
C221 C217 1.393 . S
C221 C220 1.391 . S
C222 H212 0.950 . S
C222 C223 1.386 . S
C222 C224 1.391 . S
C223 C222 1.386 . S
C223 C227 1.393 . S
C224 H213 0.950 . S
C224 C222 1.391 . S
C224 C225 1.400 . S
C225 C219 1.491 1_655 S
C225 C224 1.400 . S
C225 C226 1.398 . S
C226 H214 0.950 . S
C226 C225 1.398 . S
C226 C227 1.391 . S
C227 H215 0.950 . S
C227 C223 1.393 . S
C227 C226 1.391 . S
H228 C236 0.950 . S
H229 C241 0.950 . S
H230 C238 0.950 . S
H231 C240 0.950 . S
H232 C242 0.950 . S
H233 C244 0.950 . S
H234 C246 0.950 . S
H235 C247 0.950 . S
C236 H228 0.950 . S
C236 C237 1.386 . S
C236 C238 1.391 . S
C237 C236 1.386 . S
C237 C241 1.393 . S
C238 H230 0.950 . S
C238 C236 1.391 . S
C238 C239 1.400 . S
C239 C238 1.400 . S
C239 C240 1.398 . S
C239 C245 1.491 1_655 S
C240 H231 0.950 . S
C240 C239 1.398 . S
C240 C241 1.391 . S
C241 H229 0.950 . S
C241 C237 1.393 . S
C241 C240 1.391 . S
C242 H232 0.950 . S
C242 C243 1.386 . S
C242 C244 1.391 . S
C243 C242 1.386 . S
C243 C247 1.393 . S
C244 H233 0.950 . S
C244 C242 1.391 . S
C244 C245 1.400 . S
C245 C239 1.491 1_455 S
C245 C244 1.400 . S
C245 C246 1.398 . S
C246 H234 0.950 . S
C246 C245 1.398 . S
C246 C247 1.391 . S
C247 H235 0.950 . S
C247 C243 1.393 . S
C247 C246 1.391 . S
H248 C256 0.950 . S
H249 C261 0.950 . S
H250 C258 0.950 . S
H251 C260 0.950 . S
H252 C262 0.950 . S
H253 C264 0.950 . S
H254 C266 0.950 . S
H255 C267 0.950 . S
C256 H248 0.950 . S
C256 C257 1.386 . S
C256 C258 1.391 . S
C257 C256 1.386 . S
C257 C261 1.393 . S
C258 H250 0.950 . S
C258 C256 1.391 . S
C258 C259 1.400 . S
C259 C258 1.400 . S
C259 C260 1.398 . S
C259 C265 1.491 1_655 S
C260 H251 0.950 . S
C260 C259 1.398 . S
C260 C261 1.391 . S
C261 H249 0.950 . S
C261 C257 1.393 . S
C261 C260 1.391 . S
C262 H252 0.950 . S
C262 C263 1.386 . S
C262 C264 1.391 . S
C263 C262 1.386 . S
C263 C267 1.393 . S
C264 H253 0.950 . S
C264 C262 1.391 . S
C264 C265 1.400 . S
C265 C259 1.491 1_455 S
C265 C264 1.400 . S
C265 C266 1.398 . S
C266 H254 0.950 . S
C266 C265 1.398 . S
C266 C267 1.391 . S
C267 H255 0.950 . S
C267 C263 1.393 . S
C267 C266 1.391 . S
H268 C276 0.950 . S
H269 C281 0.950 . S
H270 C278 0.950 . S
H271 C280 0.950 . S
H272 C282 0.950 . S
H273 C284 0.950 . S
H274 C286 0.950 . S
H275 C287 0.950 . S
C276 H268 0.950 . S
C276 C277 1.386 . S
C276 C278 1.391 . S
C277 C276 1.386 . S
C277 C281 1.393 . S
C278 H270 0.950 . S
C278 C276 1.391 . S
C278 C279 1.400 . S
C279 C278 1.400 . S
C279 C280 1.398 . S
C279 C285 1.491 1_455 S
C280 H271 0.950 . S
C280 C279 1.398 . S
C280 C281 1.391 . S
C281 H269 0.950 . S
C281 C277 1.393 . S
C281 C280 1.391 . S
C282 H272 0.950 . S
C282 C283 1.386 . S
C282 C284 1.391 . S
C283 C282 1.386 . S
C283 C287 1.393 . S
C284 H273 0.950 . S
C284 C282 1.391 . S
C284 C285 1.400 . S
C285 C279 1.491 1_655 S
C285 C284 1.400 . S
C285 C286 1.398 . S
C286 H274 0.950 . S
C286 C285 1.398 . S
C286 C287 1.391 . S
C287 H275 0.950 . S
C287 C283 1.393 . S
C287 C286 1.391 . S
H288 C296 0.950 . S
H289 C301 0.950 . S
H290 C298 0.950 . S
H291 C300 0.950 . S
H292 C302 0.950 . S
H293 C304 0.950 . S
H294 C306 0.950 . S
H295 C307 0.950 . S
C296 H288 0.950 . S
C296 C297 1.386 . S
C296 C298 1.391 . S
C297 C296 1.386 . S
C297 C301 1.393 . S
C298 H290 0.950 . S
C298 C296 1.391 . S
C298 C299 1.400 . S
C299 C298 1.400 . S
C299 C300 1.398 . S
C299 C305 1.491 . S
C300 H291 0.950 . S
C300 C299 1.398 . S
C300 C301 1.391 . S
C301 H289 0.950 . S
C301 C297 1.393 . S
C301 C300 1.391 . S
C302 H292 0.950 . S
C302 C303 1.386 . S
C302 C304 1.391 . S
C303 C302 1.386 . S
C303 C307 1.393 . S
C304 H293 0.950 . S
C304 C302 1.391 . S
C304 C305 1.400 . S
C305 C299 1.491 . S
C305 C304 1.400 . S
C305 C306 1.398 . S
C306 H294 0.950 . S
C306 C305 1.398 . S
C306 C307 1.391 . S
C307 H295 0.950 . S
C307 C303 1.393 . S
C307 C306 1.391 . S
H308 C316 0.950 . S
H309 C321 0.950 . S
H310 C318 0.950 . S
H311 C320 0.950 . S
H312 C322 0.950 . S
H313 C324 0.950 . S
H314 C326 0.950 . S
H315 C327 0.950 . S
C316 H308 0.950 . S
C316 C317 1.386 . S
C316 C318 1.391 . S
C317 C316 1.386 . S
C317 C321 1.393 . S
C318 H310 0.950 . S
C318 C316 1.391 . S
C318 C319 1.400 . S
C319 C318 1.400 . S
C319 C320 1.398 . S
C319 C325 1.491 . S
C320 H311 0.950 . S
C320 C319 1.398 . S
C320 C321 1.391 . S
C321 H309 0.950 . S
C321 C317 1.393 . S
C321 C320 1.391 . S
C322 H312 0.950 . S
C322 C323 1.386 . S
C322 C324 1.391 . S
C323 C322 1.386 . S
C323 C327 1.393 . S
C324 H313 0.950 . S
C324 C322 1.391 . S
C324 C325 1.400 . S
C325 C319 1.491 . S
C325 C324 1.400 . S
C325 C326 1.398 . S
C326 H314 0.950 . S
C326 C325 1.398 . S
C326 C327 1.391 . S
C327 H315 0.950 . S
C327 C323 1.393 . S
C327 C326 1.391 . S
H328 C336 0.950 . S
H329 C341 0.950 . S
H330 C338 0.950 . S
H331 C340 0.950 . S
H332 C342 0.950 . S
H333 C344 0.950 . S
H334 C346 0.950 . S
H335 C347 0.950 . S
C336 H328 0.950 . S
C336 C337 1.386 . S
C336 C338 1.391 . S
C337 C336 1.386 . S
C337 C341 1.393 . S
C338 H330 0.950 . S
C338 C336 1.391 . S
C338 C339 1.400 . S
C339 C338 1.400 . S
C339 C340 1.398 . S
C339 C345 1.491 . S
C340 H331 0.950 . S
C340 C339 1.398 . S
C340 C341 1.391 . S
C341 H329 0.950 . S
C341 C337 1.393 . S
C341 C340 1.391 . S
C342 H332 0.950 . S
C342 C343 1.386 . S
C342 C344 1.391 . S
C343 C342 1.386 . S
C343 C347 1.393 . S
C344 H333 0.950 . S
C344 C342 1.391 . S
C344 C345 1.400 . S
C345 C339 1.491 . S
C345 C344 1.400 . S
C345 C346 1.398 . S
C346 H334 0.950 . S
C346 C345 1.398 . S
C346 C347 1.391 . S
C347 H335 0.950 . S
C347 C343 1.393 . S
C347 C346 1.391 . S
H348 C356 0.950 . S
H349 C361 0.950 . S
H350 C358 0.950 . S
H351 C360 0.950 . S
H352 C362 0.950 . S
H353 C364 0.950 . S
H354 C366 0.950 . S
H355 C367 0.950 . S
C356 H348 0.950 . S
C356 C357 1.386 . S
C356 C358 1.391 . S
C357 C356 1.386 . S
C357 C361 1.393 . S
C358 H350 0.950 . S
C358 C356 1.391 . S
C358 C359 1.400 . S
C359 C358 1.400 . S
C359 C360 1.398 . S
C359 C365 1.491 . S
C360 H351 0.950 . S
C360 C359 1.398 . S
C360 C361 1.391 . S
C361 H349 0.950 . S
C361 C357 1.393 . S
C361 C360 1.391 . S
C362 H352 0.950 . S
C362 C363 1.386 . S
C362 C364 1.391 . S
C363 C362 1.386 . S
C363 C367 1.393 . S
C364 H353 0.950 . S
C364 C362 1.391 . S
C364 C365 1.400 . S
C365 C359 1.491 . S
C365 C364 1.400 . S
C365 C366 1.398 . S
C366 H354 0.950 . S
C366 C365 1.398 . S
C366 C367 1.391 . S
C367 H355 0.950 . S
C367 C363 1.393 . S
C367 C366 1.391 . S
H368 C376 0.950 . S
H369 C381 0.950 . S
H370 C378 0.950 . S
H371 C380 0.950 . S
H372 C382 0.950 . S
H373 C384 0.950 . S
H374 C386 0.950 . S
H375 C387 0.950 . S
C376 H368 0.950 . S
C376 C377 1.386 . S
C376 C378 1.391 . S
C377 C376 1.386 . S
C377 C381 1.393 . S
C378 H370 0.950 . S
C378 C376 1.391 . S
C378 C379 1.400 . S
C379 C378 1.400 . S
C379 C380 1.398 . S
C379 C385 1.491 . S
C380 H371 0.950 . S
C380 C379 1.398 . S
C380 C381 1.391 . S
C381 H369 0.950 . S
C381 C377 1.393 . S
C381 C380 1.391 . S
C382 H372 0.950 . S
C382 C383 1.386 . S
C382 C384 1.391 . S
C383 C382 1.386 . S
C383 C387 1.393 . S
C384 H373 0.950 . S
C384 C382 1.391 . S
C384 C385 1.400 . S
C385 C379 1.491 . S
C385 C384 1.400 . S
C385 C386 1.398 . S
C386 H374 0.950 . S
C386 C385 1.398 . S
C386 C387 1.391 . S
C387 H375 0.950 . S
C387 C383 1.393 . S
C387 C386 1.391 . S
H388 C396 0.950 . S
H389 C401 0.950 . S
H390 C398 0.950 . S
H391 C400 0.950 . S
H392 C402 0.950 . S
H393 C404 0.950 . S
H394 C406 0.950 . S
H395 C407 0.950 . S
C396 H388 0.950 . S
C396 C397 1.386 . S
C396 C398 1.391 . S
C397 C396 1.386 . S
C397 C401 1.393 . S
C398 H390 0.950 . S
C398 C396 1.391 . S
C398 C399 1.400 . S
C399 C398 1.400 . S
C399 C400 1.398 . S
C399 C405 1.491 . S
C400 H391 0.950 . S
C400 C399 1.398 . S
C400 C401 1.391 . S
C401 H389 0.950 . S
C401 C397 1.393 . S
C401 C400 1.391 . S
C402 H392 0.950 . S
C402 C403 1.386 . S
C402 C404 1.391 . S
C403 C402 1.386 . S
C403 C407 1.393 . S
C404 H393 0.950 . S
C404 C402 1.391 . S
C404 C405 1.400 . S
C405 C399 1.491 . S
C405 C404 1.400 . S
C405 C406 1.398 . S
C406 H394 0.950 . S
C406 C405 1.398 . S
C406 C407 1.391 . S
C407 H395 0.950 . S
C407 C403 1.393 . S
C407 C406 1.391 . S
H408 C416 0.950 . S
H409 C421 0.950 . S
H410 C418 0.950 . S
H411 C420 0.950 . S
H412 C422 0.950 . S
H413 C424 0.950 . S
H414 C426 0.950 . S
H415 C427 0.950 . S
C416 H408 0.950 . S
C416 C417 1.386 . S
C416 C418 1.391 . S
C417 C416 1.386 . S
C417 C421 1.393 . S
C418 H410 0.950 . S
C418 C416 1.391 . S
C418 C419 1.400 . S
C419 C418 1.400 . S
C419 C420 1.398 . S
C419 C425 1.491 . S
C420 H411 0.950 . S
C420 C419 1.398 . S
C420 C421 1.391 . S
C421 H409 0.950 . S
C421 C417 1.393 . S
C421 C420 1.391 . S
C422 H412 0.950 . S
C422 C423 1.386 . S
C422 C424 1.391 . S
C423 C422 1.386 . S
C423 C427 1.393 . S
C424 H413 0.950 . S
C424 C422 1.391 . S
C424 C425 1.400 . S
C425 C419 1.491 . S
C425 C424 1.400 . S
C425 C426 1.398 . S
C426 H414 0.950 . S
C426 C425 1.398 . S
C426 C427 1.391 . S
C427 H415 0.950 . S
C427 C423 1.393 . S
C427 C426 1.391 . S
H428 C436 0.950 . S
H429 C441 0.950 . S
H430 C438 0.950 . S
H431 C440 0.950 . S
H432 C442 0.950 . S
H433 C444 0.950 . S
H434 C446 0.950 . S
H435 C447 0.950 . S
C436 H428 0.950 . S
C436 C437 1.386 . S
C436 C438 1.391 . S
C437 C436 1.386 . S
C437 C441 1.393 . S
C438 H430 0.950 . S
C438 C436 1.391 . S
C438 C439 1.400 . S
C439 C438 1.400 . S
C439 C440 1.398 . S
C439 C445 1.491 . S
C440 H431 0.950 . S
C440 C439 1.398 . S
C440 C441 1.391 . S
C441 H429 0.950 . S
C441 C437 1.393 . S
C441 C440 1.391 . S
C442 H432 0.950 . S
C442 C443 1.386 . S
C442 C444 1.391 . S
C443 C442 1.386 . S
C443 C447 1.393 . S
C444 H433 0.950 . S
C444 C442 1.391 . S
C444 C445 1.400 . S
C445 C439 1.491 . S
C445 C444 1.400 . S
C445 C446 1.398 . S
C446 H434 0.950 . S
C446 C445 1.398 . S
C446 C447 1.391 . S
C447 H435 0.950 . S
C447 C443 1.393 . S
C447 C446 1.391 . S
H448 C456 0.950 . S
H449 C461 0.950 . S
H450 C458 0.950 . S
H451 C460 0.950 . S
H452 C462 0.950 . S
H453 C464 0.950 . S
H454 C466 0.950 . S
H455 C467 0.950 . S
C456 H448 0.950 . S
C456 C457 1.386 . S
C456 C458 1.391 . S
C457 C456 1.386 . S
C457 C461 1.393 . S
C458 H450 0.950 . S
C458 C456 1.391 . S
C458 C459 1.400 . S
C459 C458 1.400 . S
C459 C460 1.398 . S
C459 C465 1.491 . S
C460 H451 0.950 . S
C460 C459 1.398 . S
C460 C461 1.391 . S
C461 H449 0.950 . S
C461 C457 1.393 . S
C461 C460 1.391 . S
C462 H452 0.950 . S
C462 C463 1.386 . S
C462 C464 1.391 . S
C463 C462 1.386 . S
C463 C467 1.393 . S
C464 H453 0.950 . S
C464 C462 1.391 . S
C464 C465 1.400 . S
C465 C459 1.491 . S
C465 C464 1.400 . S
C465 C466 1.398 . S
C466 H454 0.950 . S
C466 C465 1.398 . S
C466 C467 1.391 . S
C467 H455 0.950 . S
C467 C463 1.393 . S
C467 C466 1.391 . S
H468 C476 0.950 . S
H469 C481 0.950 . S
H470 C478 0.950 . S
H471 C480 0.950 . S
H472 C482 0.950 . S
H473 C484 0.950 . S
H474 C486 0.950 . S
H475 C487 0.950 . S
C476 H468 0.950 . S
C476 C477 1.386 . S
C476 C478 1.391 . S
C477 C476 1.386 . S
C477 C481 1.393 . S
C478 H470 0.950 . S
C478 C476 1.391 . S
C478 C479 1.400 . S
C479 C478 1.400 . S
C479 C480 1.398 . S
C479 C485 1.491 . S
C480 H471 0.950 . S
C480 C479 1.398 . S
C480 C481 1.391 . S
C481 H469 0.950 . S
C481 C477 1.393 . S
C481 C480 1.391 . S
C482 H472 0.950 . S
C482 C483 1.386 . S
C482 C484 1.391 . S
C483 C482 1.386 . S
C483 C487 1.393 . S
C484 H473 0.950 . S
C484 C482 1.391 . S
C484 C485 1.400 . S
C485 C479 1.491 . S
C485 C484 1.400 . S
C485 C486 1.398 . S
C486 H474 0.950 . S
C486 C485 1.398 . S
C486 C487 1.391 . S
C487 H475 0.950 . S
C487 C483 1.393 . S
C487 C486 1.391 . S
H488 C496 0.950 . S
H489 C501 0.950 . S
H490 C498 0.950 . S
H491 C500 0.950 . S
H492 C502 0.950 . S
H493 C504 0.950 . S
H494 C506 0.950 . S
H495 C507 0.950 . S
C496 H488 0.950 . S
C496 C497 1.386 . S
C496 C498 1.391 . S
C497 C496 1.386 . S
C497 C501 1.393 . S
C498 H490 0.950 . S
C498 C496 1.391 . S
C498 C499 1.400 . S
C499 C498 1.400 . S
C499 C500 1.398 . S
C499 C505 1.491 . S
C500 H491 0.950 . S
C500 C499 1.398 . S
C500 C501 1.391 . S
C501 H489 0.950 . S
C501 C497 1.393 . S
C501 C500 1.391 . S
C502 H492 0.950 . S
C502 C503 1.386 . S
C502 C504 1.391 . S
C503 C502 1.386 . S
C503 C507 1.393 . S
C504 H493 0.950 . S
C504 C502 1.391 . S
C504 C505 1.400 . S
C505 C499 1.491 . S
C505 C504 1.400 . S
C505 C506 1.398 . S
C506 H494 0.950 . S
C506 C505 1.398 . S
C506 C507 1.391 . S
C507 H495 0.950 . S
C507 C503 1.393 . S
C507 C506 1.391 . S
H508 C516 0.950 . S
H509 C521 0.950 . S
H510 C518 0.950 . S
H511 C520 0.950 . S
H512 C522 0.950 . S
H513 C524 0.950 . S
H514 C526 0.950 . S
H515 C527 0.950 . S
C516 H508 0.950 . S
C516 C517 1.386 . S
C516 C518 1.391 . S
C517 C516 1.386 . S
C517 C521 1.393 . S
C518 H510 0.950 . S
C518 C516 1.391 . S
C518 C519 1.400 . S
C519 C518 1.400 . S
C519 C520 1.398 . S
C519 C525 1.491 . S
C520 H511 0.950 . S
C520 C519 1.398 . S
C520 C521 1.391 . S
C521 H509 0.950 . S
C521 C517 1.393 . S
C521 C520 1.391 . S
C522 H512 0.950 . S
C522 C523 1.386 . S
C522 C524 1.391 . S
C523 C522 1.386 . S
C523 C527 1.393 . S
C524 H513 0.950 . S
C524 C522 1.391 . S
C524 C525 1.400 . S
C525 C519 1.491 . S
C525 C524 1.400 . S
C525 C526 1.398 . S
C526 H514 0.950 . S
C526 C525 1.398 . S
C526 C527 1.391 . S
C527 H515 0.950 . S
C527 C523 1.393 . S
C527 C526 1.391 . S
H528 C536 0.950 1_554 S
H529 C541 0.950 . S
H530 C538 0.950 . S
H531 C540 0.950 . S
H532 C542 0.950 1_556 S
H533 C544 0.950 . S
H534 C546 0.950 . S
H535 C547 0.950 . S
C536 H528 0.950 1_556 S
C536 C537 1.386 . S
C536 C538 1.391 1_556 S
C537 C536 1.386 . S
C537 C541 1.393 . S
C538 H530 0.950 . S
C538 C536 1.391 1_554 S
C538 C539 1.400 1_554 S
C539 C538 1.400 1_556 S
C539 C540 1.398 . S
C539 C545 1.491 1_556 S
C540 H531 0.950 . S
C540 C539 1.398 . S
C540 C541 1.391 . S
C541 H529 0.950 . S
C541 C537 1.393 . S
C541 C540 1.391 . S
C542 H532 0.950 1_554 S
C542 C543 1.386 . S
C542 C544 1.391 1_554 S
C543 C542 1.386 . S
C543 C547 1.393 . S
C544 H533 0.950 . S
C544 C542 1.391 1_556 S
C544 C545 1.400 1_556 S
C545 C539 1.491 1_554 S
C545 C544 1.400 1_554 S
C545 C546 1.398 . S
C546 H534 0.950 . S
C546 C545 1.398 . S
C546 C547 1.391 . S
C547 H535 0.950 . S
C547 C543 1.393 . S
C547 C546 1.391 . S
H548 C556 0.950 . S
H549 C561 0.950 . S
H550 C558 0.950 . S
H551 C560 0.950 . S
H552 C562 0.950 . S
H553 C564 0.950 . S
H554 C566 0.950 . S
H555 C567 0.950 . S
C556 H548 0.950 . S
C556 C557 1.386 . S
C556 C558 1.391 . S
C557 C556 1.386 . S
C557 C561 1.393 . S
C558 H550 0.950 . S
C558 C556 1.391 . S
C558 C559 1.400 . S
C559 C558 1.400 . S
C559 C560 1.398 . S
C559 C565 1.491 . S
C560 H551 0.950 . S
C560 C559 1.398 . S
C560 C561 1.391 . S
C561 H549 0.950 . S
C561 C557 1.393 . S
C561 C560 1.391 . S
C562 H552 0.950 . S
C562 C563 1.386 . S
C562 C564 1.391 . S
C563 C562 1.386 . S
C563 C567 1.393 . S
C564 H553 0.950 . S
C564 C562 1.391 . S
C564 C565 1.400 . S
C565 C559 1.491 . S
C565 C564 1.400 . S
C565 C566 1.398 . S
C566 H554 0.950 . S
C566 C565 1.398 . S
C566 C567 1.391 . S
C567 H555 0.950 . S
C567 C563 1.393 . S
C567 C566 1.391 . S
H568 C576 0.950 . S
H569 C581 0.950 . S
H570 C578 0.950 . S
H571 C580 0.950 . S
H572 C582 0.950 . S
H573 C584 0.950 . S
H574 C586 0.950 . S
H575 C587 0.950 . S
C576 H568 0.950 . S
C576 C577 1.386 . S
C576 C578 1.391 . S
C577 C576 1.386 . S
C577 C581 1.393 . S
C578 H570 0.950 . S
C578 C576 1.391 . S
C578 C579 1.400 . S
C579 C578 1.400 . S
C579 C580 1.398 1_554 S
C579 C585 1.491 1_554 S
C580 H571 0.950 . S
C580 C579 1.398 1_556 S
C580 C581 1.391 1_556 S
C581 H569 0.950 . S
C581 C577 1.393 . S
C581 C580 1.391 1_554 S
C582 H572 0.950 . S
C582 C583 1.386 . S
C582 C584 1.391 . S
C583 C582 1.386 . S
C583 C587 1.393 . S
C584 H573 0.950 . S
C584 C582 1.391 . S
C584 C585 1.400 . S
C585 C579 1.491 1_556 S
C585 C584 1.400 . S
C585 C586 1.398 1_556 S
C586 H574 0.950 . S
C586 C585 1.398 1_554 S
C586 C587 1.391 1_554 S
C587 H575 0.950 . S
C587 C583 1.393 . S
C587 C586 1.391 1_556 S
H588 C596 0.950 . S
H589 C601 0.950 . S
H590 C598 0.950 . S
H591 C600 0.950 . S
H592 C602 0.950 . S
H593 C604 0.950 . S
H594 C606 0.950 . S
H595 C607 0.950 . S
C596 H588 0.950 . S
C596 C597 1.386 . S
C596 C598 1.391 . S
C597 C596 1.386 . S
C597 C601 1.393 . S
C598 H590 0.950 . S
C598 C596 1.391 . S
C598 C599 1.400 . S
C599 C598 1.400 . S
C599 C600 1.398 . S
C599 C605 1.491 . S
C600 H591 0.950 . S
C600 C599 1.398 . S
C600 C601 1.391 . S
C601 H589 0.950 . S
C601 C597 1.393 . S
C601 C600 1.391 . S
C602 H592 0.950 . S
C602 C603 1.386 . S
C602 C604 1.391 . S
C603 C602 1.386 . S
C603 C607 1.393 . S
C604 H593 0.950 . S
C604 C602 1.391 . S
C604 C605 1.400 . S
C605 C599 1.491 . S
C605 C604 1.400 . S
C605 C606 1.398 . S
C606 H594 0.950 . S
C606 C605 1.398 . S
C606 C607 1.391 . S
C607 H595 0.950 . S
C607 C603 1.393 . S
C607 C606 1.391 . S
H608 C616 0.965 . S
H609 C621 0.950 . S
H610 C618 0.950 . S
H611 C620 0.950 . S
H612 C622 0.957 . S
H613 C624 0.950 . S
H614 C626 0.950 . S
H615 C627 0.950 . S
C616 H608 0.965 . S
C616 C617 1.386 . S
C616 C618 1.391 1_554 S
C617 C616 1.386 . S
C617 C621 1.393 . S
C618 H610 0.950 . S
C618 C616 1.391 1_556 S
C618 C619 1.400 1_556 S
C619 C618 1.400 1_554 S
C619 C620 1.398 . S
C619 C625 1.491 1_554 S
C620 H611 0.950 . S
C620 C619 1.398 . S
C620 C621 1.391 . S
C621 H609 0.950 . S
C621 C617 1.393 . S
C621 C620 1.391 . S
C622 H612 0.957 . S
C622 C623 1.386 . S
C622 C624 1.391 1_556 S
C623 C622 1.386 . S
C623 C627 1.393 . S
C624 H613 0.950 . S
C624 C622 1.391 1_554 S
C624 C625 1.400 1_554 S
C625 C619 1.491 1_556 S
C625 C624 1.400 1_556 S
C625 C626 1.398 . S
C626 H614 0.950 . S
C626 C625 1.398 . S
C626 C627 1.391 . S
C627 H615 0.950 . S
C627 C623 1.393 . S
C627 C626 1.391 . S
H628 C636 0.950 . S
H629 C641 0.950 . S
H630 C638 0.950 . S
H631 C640 0.950 . S
H632 C642 0.950 . S
H633 C644 0.950 . S
H634 C646 0.950 . S
H635 C647 0.950 . S
C636 H628 0.950 . S
C636 C637 1.386 . S
C636 C638 1.391 . S
C637 C636 1.386 . S
C637 C641 1.393 . S
C638 H630 0.950 . S
C638 C636 1.391 . S
C638 C639 1.400 . S
C639 C638 1.400 . S
C639 C640 1.398 . S
C639 C645 1.491 . S
C640 H631 0.950 . S
C640 C639 1.398 . S
C640 C641 1.391 . S
C641 H629 0.950 . S
C641 C637 1.393 . S
C641 C640 1.391 . S
C642 H632 0.950 . S
C642 C643 1.386 . S
C642 C644 1.391 . S
C643 C642 1.386 . S
C643 C647 1.393 . S
C644 H633 0.950 . S
C644 C642 1.391 . S
C644 C645 1.400 . S
C645 C639 1.491 . S
C645 C644 1.400 . S
C645 C646 1.398 . S
C646 H634 0.950 . S
C646 C645 1.398 . S
C646 C647 1.391 . S
C647 H635 0.950 . S
C647 C643 1.393 . S
C647 C646 1.391 . S
H648 C656 0.950 . S
H649 C661 0.950 1_556 S
H650 C658 0.950 . S
H651 C660 0.950 . S
H652 C662 0.950 . S
H653 C664 0.950 . S
H654 C666 0.950 . S
H655 C667 0.950 1_554 S
C656 H648 0.950 . S
C656 C657 1.386 . S
C656 C658 1.391 . S
C657 C656 1.386 . S
C657 C661 1.393 . S
C658 H650 0.950 . S
C658 C656 1.391 . S
C658 C659 1.400 . S
C659 C658 1.400 . S
C659 C660 1.398 1_554 S
C659 C665 1.491 1_554 S
C660 H651 0.950 . S
C660 C659 1.398 1_556 S
C660 C661 1.391 1_556 S
C661 H649 0.950 1_554 S
C661 C657 1.393 . S
C661 C660 1.391 1_554 S
C662 H652 0.950 . S
C662 C663 1.386 . S
C662 C664 1.391 . S
C663 C662 1.386 . S
C663 C667 1.393 . S
C664 H653 0.950 . S
C664 C662 1.391 . S
C664 C665 1.400 . S
C665 C659 1.491 1_556 S
C665 C664 1.400 . S
C665 C666 1.398 1_556 S
C666 H654 0.950 . S
C666 C665 1.398 1_554 S
C666 C667 1.391 1_554 S
C667 H655 0.950 1_556 S
C667 C663 1.393 . S
C667 C666 1.391 1_556 S
H668 C676 0.950 . S
H669 C681 0.950 . S
H670 C678 0.950 . S
H671 C680 0.950 . S
H672 C682 0.950 . S
H673 C684 0.950 . S
H674 C686 0.950 . S
H675 C687 0.950 . S
C676 H668 0.950 . S
C676 C677 1.386 . S
C676 C678 1.391 . S
C677 C676 1.386 . S
C677 C681 1.393 . S
C678 H670 0.950 . S
C678 C676 1.391 . S
C678 C679 1.400 . S
C679 C678 1.400 . S
C679 C680 1.398 . S
C679 C685 1.491 . S
C680 H671 0.950 . S
C680 C679 1.398 . S
C680 C681 1.391 . S
C681 H669 0.950 . S
C681 C677 1.393 . S
C681 C680 1.391 . S
C682 H672 0.950 . S
C682 C683 1.386 . S
C682 C684 1.391 . S
C683 C682 1.386 . S
C683 C687 1.393 . S
C684 H673 0.950 . S
C684 C682 1.391 . S
C684 C685 1.400 . S
C685 C679 1.491 . S
C685 C684 1.400 . S
C685 C686 1.398 . S
C686 H674 0.950 . S
C686 C685 1.398 . S
C686 C687 1.391 . S
C687 H675 0.950 . S
C687 C683 1.393 . S
C687 C686 1.391 . S
H688 C696 0.940 1_554 S
H689 C701 0.950 . S
H690 C698 0.950 . S
H691 C700 0.950 . S
H692 C702 0.940 1_556 S
H693 C704 0.950 . S
H694 C706 0.950 . S
H695 C707 0.950 . S
C696 H688 0.940 1_556 S
C696 C697 1.386 . S
C696 C698 1.391 1_556 S
C697 C696 1.386 . S
C697 C701 1.393 . S
C698 H690 0.950 . S
C698 C696 1.391 1_554 S
C698 C699 1.400 1_554 S
C699 C698 1.400 1_556 S
C699 C700 1.398 . S
C699 C705 1.491 1_556 S
C700 H691 0.950 . S
C700 C699 1.398 . S
C700 C701 1.391 . S
C701 H689 0.950 . S
C701 C697 1.393 . S
C701 C700 1.391 . S
C702 H692 0.940 1_554 S
C702 C703 1.386 . S
C702 C704 1.391 1_554 S
C703 C702 1.386 . S
C703 C707 1.393 . S
C704 H693 0.950 . S
C704 C702 1.391 1_556 S
C704 C705 1.400 1_556 S
C705 C699 1.491 1_554 S
C705 C704 1.400 1_554 S
C705 C706 1.398 . S
C706 H694 0.950 . S
C706 C705 1.398 . S
C706 C707 1.391 . S
C707 H695 0.950 . S
C707 C703 1.393 . S
C707 C706 1.391 . S
H708 C716 0.950 . S
H709 C721 0.950 . S
H710 C718 0.950 . S
H711 C720 0.950 . S
H712 C722 0.950 . S
H713 C724 0.950 . S
H714 C726 0.950 . S
H715 C727 0.950 . S
C716 H708 0.950 . S
C716 C717 1.386 . S
C716 C718 1.391 . S
C717 C716 1.386 . S
C717 C721 1.393 . S
C718 H710 0.950 . S
C718 C716 1.391 . S
C718 C719 1.400 . S
C719 C718 1.400 . S
C719 C720 1.398 . S
C719 C725 1.491 . S
C720 H711 0.950 . S
C720 C719 1.398 . S
C720 C721 1.391 . S
C721 H709 0.950 . S
C721 C717 1.393 . S
C721 C720 1.391 . S
C722 H712 0.950 . S
C722 C723 1.386 . S
C722 C724 1.391 . S
C723 C722 1.386 . S
C723 C727 1.393 . S
C724 H713 0.950 . S
C724 C722 1.391 . S
C724 C725 1.400 . S
C725 C719 1.491 . S
C725 C724 1.400 . S
C725 C726 1.398 . S
C726 H714 0.950 . S
C726 C725 1.398 . S
C726 C727 1.391 . S
C727 H715 0.950 . S
C727 C723 1.393 . S
C727 C726 1.391 . S
H728 C736 0.950 . S
H729 C741 0.950 . S
H730 C738 0.950 1_556 S
H731 C740 0.950 . S
H732 C742 0.950 . S
H733 C744 0.950 1_554 S
H734 C746 0.950 . S
H735 C747 0.950 . S
C736 H728 0.950 . S
C736 C737 1.386 . S
C736 C738 1.391 . S
C737 C736 1.386 . S
C737 C741 1.393 . S
C738 H730 0.950 1_554 S
C738 C736 1.391 . S
C738 C739 1.400 . S
C739 C738 1.400 . S
C739 C740 1.398 . S
C739 C745 1.491 1_554 S
C740 H731 0.950 . S
C740 C739 1.398 . S
C740 C741 1.391 . S
C741 H729 0.950 . S
C741 C737 1.393 . S
C741 C740 1.391 . S
C742 H732 0.950 . S
C742 C743 1.386 . S
C742 C744 1.391 . S
C743 C742 1.386 . S
C743 C747 1.393 . S
C744 H733 0.950 1_556 S
C744 C742 1.391 . S
C744 C745 1.400 . S
C745 C739 1.491 1_556 S
C745 C744 1.400 . S
C745 C746 1.398 . S
C746 H734 0.950 . S
C746 C745 1.398 . S
C746 C747 1.391 . S
C747 H735 0.950 . S
C747 C743 1.393 . S
C747 C746 1.391 . S
H748 C756 0.950 . S
H749 C761 0.950 . S
H750 C758 0.950 . S
H751 C760 0.950 . S
H752 C762 0.950 . S
H753 C764 0.950 . S
H754 C766 0.950 . S
H755 C767 0.950 . S
C756 H748 0.950 . S
C756 C757 1.386 . S
C756 C758 1.391 . S
C757 C756 1.386 . S
C757 C761 1.393 . S
C758 H750 0.950 . S
C758 C756 1.391 . S
C758 C759 1.400 . S
C759 C758 1.400 . S
C759 C760 1.398 . S
C759 C765 1.491 . S
C760 H751 0.950 . S
C760 C759 1.398 . S
C760 C761 1.391 . S
C761 H749 0.950 . S
C761 C757 1.393 . S
C761 C760 1.391 . S
C762 H752 0.950 . S
C762 C763 1.386 . S
C762 C764 1.391 . S
C763 C762 1.386 . S
C763 C767 1.393 . S
C764 H753 0.950 . S
C764 C762 1.391 . S
C764 C765 1.400 . S
C765 C759 1.491 . S
C765 C764 1.400 . S
C765 C766 1.398 . S
C766 H754 0.950 . S
C766 C765 1.398 . S
C766 C767 1.391 . S
C767 H755 0.950 . S
C767 C763 1.393 . S
C767 C766 1.391 . S
H768 C776 0.950 . S
H769 C781 0.950 . S
H770 C778 0.950 . S
H771 C780 0.950 . S
H772 C782 0.950 . S
H773 C784 0.950 . S
H774 C786 0.950 . S
H775 C787 0.950 . S
C776 H768 0.950 . S
C776 C777 1.386 . S
C776 C778 1.391 . S
C777 C776 1.386 . S
C777 C781 1.393 . S
C778 H770 0.950 . S
C778 C776 1.391 . S
C778 C779 1.400 . S
C779 C778 1.400 . S
C779 C780 1.398 . S
C779 C785 1.491 1_546 S
C780 H771 0.950 . S
C780 C779 1.398 . S
C780 C781 1.391 . S
C781 H769 0.950 . S
C781 C777 1.393 . S
C781 C780 1.391 . S
C782 H772 0.950 . S
C782 C783 1.386 . S
C782 C784 1.391 . S
C783 C782 1.386 . S
C783 C787 1.393 . S
C784 H773 0.950 . S
C784 C782 1.391 . S
C784 C785 1.400 . S
C785 C779 1.491 1_564 S
C785 C784 1.400 . S
C785 C786 1.398 . S
C786 H774 0.950 . S
C786 C785 1.398 . S
C786 C787 1.391 . S
C787 H775 0.950 . S
C787 C783 1.393 . S
C787 C786 1.391 . S
H788 C796 0.950 . S
H789 C801 0.950 . S
H790 C798 0.950 . S
H791 C800 0.950 . S
H792 C802 0.950 . S
H793 C804 0.950 . S
H794 C806 0.950 . S
H795 C807 0.950 . S
C796 H788 0.950 . S
C796 C797 1.386 . S
C796 C798 1.391 . S
C797 C796 1.386 . S
C797 C801 1.393 . S
C798 H790 0.950 . S
C798 C796 1.391 . S
C798 C799 1.400 . S
C799 C798 1.400 . S
C799 C800 1.398 . S
C799 C805 1.491 1_565 S
C800 H791 0.950 . S
C800 C799 1.398 . S
C800 C801 1.391 . S
C801 H789 0.950 . S
C801 C797 1.393 . S
C801 C800 1.391 . S
C802 H792 0.950 . S
C802 C803 1.386 . S
C802 C804 1.391 . S
C803 C802 1.386 . S
C803 C807 1.393 . S
C804 H793 0.950 . S
C804 C802 1.391 . S
C804 C805 1.400 . S
C805 C799 1.491 1_545 S
C805 C804 1.400 . S
C805 C806 1.398 . S
C806 H794 0.950 . S
C806 C805 1.398 . S
C806 C807 1.391 . S
C807 H795 0.950 . S
C807 C803 1.393 . S
C807 C806 1.391 . S
H808 C816 0.950 . S
H809 C821 0.950 . S
H810 C818 0.950 . S
H811 C820 0.956 . S
H812 C822 0.950 . S
H813 C824 0.950 . S
H814 C826 0.956 . S
H815 C827 0.950 . S
C816 H808 0.950 . S
C816 C817 1.386 . S
C816 C818 1.391 . S
C817 C816 1.386 . S
C817 C821 1.393 . S
C818 H810 0.950 . S
C818 C816 1.391 . S
C818 C819 1.400 . S
C819 C818 1.400 . S
C819 C820 1.398 . S
C819 C825 1.491 1_564 S
C820 H811 0.956 . S
C820 C819 1.398 . S
C820 C821 1.391 . S
C821 H809 0.950 . S
C821 C817 1.393 . S
C821 C820 1.391 . S
C822 H812 0.950 . S
C822 C823 1.386 . S
C822 C824 1.391 . S
C823 C822 1.386 . S
C823 C827 1.393 . S
C824 H813 0.950 . S
C824 C822 1.391 . S
C824 C825 1.400 . S
C825 C819 1.491 1_546 S
C825 C824 1.400 . S
C825 C826 1.398 . S
C826 H814 0.956 . S
C826 C825 1.398 . S
C826 C827 1.391 . S
C827 H815 0.950 . S
C827 C823 1.393 . S
C827 C826 1.391 . S
H828 C836 0.950 . S
H829 C841 0.950 . S
H830 C838 0.950 . S
H831 C840 0.950 . S
H832 C842 0.950 . S
H833 C844 0.950 . S
H834 C846 0.950 . S
H835 C847 0.950 . S
C836 H828 0.950 . S
C836 C837 1.386 . S
C836 C838 1.391 . S
C837 C836 1.386 . S
C837 C841 1.393 . S
C838 H830 0.950 . S
C838 C836 1.391 . S
C838 C839 1.400 . S
C839 C838 1.400 . S
C839 C840 1.398 . S
C839 C845 1.491 1_545 S
C840 H831 0.950 . S
C840 C839 1.398 . S
C840 C841 1.391 . S
C841 H829 0.950 . S
C841 C837 1.393 . S
C841 C840 1.391 . S
C842 H832 0.950 . S
C842 C843 1.386 . S
C842 C844 1.391 . S
C843 C842 1.386 . S
C843 C847 1.393 . S
C844 H833 0.950 . S
C844 C842 1.391 . S
C844 C845 1.400 . S
C845 C839 1.491 1_565 S
C845 C844 1.400 . S
C845 C846 1.398 . S
C846 H834 0.950 . S
C846 C845 1.398 . S
C846 C847 1.391 . S
C847 H835 0.950 . S
C847 C843 1.393 . S
C847 C846 1.391 . S
C217 C5 1.421 . S
C223 C83 1.409 . S
C237 C18 1.398 . S
C243 C96 1.422 . S
C257 C57 1.404 . S
C263 C31 1.424 . S
C277 C70 1.405 . S
C283 C44 1.423 . S
C297 C187 1.412 . S
C303 C109 1.419 . S
C317 C200 1.424 . S
C323 C122 1.399 . S
C337 C135 1.406 . S
C343 C161 1.423 . S
C357 C148 1.422 . S
C363 C174 1.400 . S
C377 C10 1.391 . S
C383 C73 1.342 . S
C397 C23 1.393 . S
C403 C60 1.338 . S
C417 C36 1.396 . S
C423 C99 1.336 . S
C437 C86 1.357 . S
C443 C49 1.394 . S
C457 C177 1.361 . S
C463 C114 1.385 . S
C477 C164 1.336 . S
C483 C127 1.396 . S
C497 C140 1.397 . S
C503 C203 1.336 . S
C517 C190 1.342 . S
C523 C153 1.391 . S
C537 C156 1.270 . S
C543 C0 1.265 . S
C557 C13 1.260 . S
C563 C169 1.273 . S
C577 C182 1.262 . S
C583 C26 1.261 . S
C597 C195 1.257 . S
C603 C39 1.275 . S
C617 C104 1.271 . S
C623 C52 1.253 . S
C637 C117 1.256 . S
C643 C65 1.274 . S
C657 C78 1.254 . S
C663 C130 1.269 . S
C677 C91 1.260 . S
C683 C143 1.274 . S
C697 C34 1.326 . S
C703 C8 1.355 . S
C717 C21 1.340 . S
C723 C47 1.337 . S
C737 C88 1.392 . S
C743 C62 1.390 . S
C757 C75 1.390 . S
C763 C101 1.391 . S
C777 C138 1.342 . S
C783 C112 1.340 . S
C797 C151 1.332 . S
C803 C125 1.345 . S
C817 C192 1.402 . S
C823 C166 1.402 . S
C837 C205 1.390 . S
C843 C179 1.391 . S
