# Generated by pormake.
# Topology sod-h, (3)-cn, num edge types: 1
# Building blocks:
#     Node 0, Type 0, BuildingBlock: OLANEW_clean_sbu_2, # of connection points: 3
#     Node 1, Type 0, BuildingBlock: OLANEW_clean_sbu_2, # of connection points: 3
#     Node 2, Type 0, BuildingBlock: OLANEW_clean_sbu_2, # of connection points: 3
#     Node 3, Type 0, BuildingBlock: OLANEW_clean_sbu_2, # of connection points: 3
#     Node 4, Type 0, BuildingBlock: OLANEW_clean_sbu_2, # of connection points: 3
#     Node 5, Type 0, BuildingBlock: OLANEW_clean_sbu_2, # of connection points: 3
#     Node 6, Type 0, BuildingBlock: OLANEW_clean_sbu_2, # of connection points: 3
#     Node 7, Type 0, BuildingBlock: OLANEW_clean_sbu_2, # of connection points: 3
#     Node 8, Type 0, BuildingBlock: OLANEW_clean_sbu_2, # of connection points: 3
#     Node 9, Type 0, BuildingBlock: OLANEW_clean_sbu_2, # of connection points: 3
#     Node 10, Type 0, BuildingBlock: OLANEW_clean_sbu_2, # of connection points: 3
#     Node 11, Type 0, BuildingBlock: OLANEW_clean_sbu_2, # of connection points: 3
#     Node 12, Type 0, BuildingBlock: OLANEW_clean_sbu_2, # of connection points: 3
#     Node 13, Type 0, BuildingBlock: OLANEW_clean_sbu_2, # of connection points: 3
#     Node 14, Type 0, BuildingBlock: OLANEW_clean_sbu_2, # of connection points: 3
#     Node 15, Type 0, BuildingBlock: OLANEW_clean_sbu_2, # of connection points: 3
#     Node 16, Type 0, BuildingBlock: OLANEW_clean_sbu_2, # of connection points: 3
#     Node 17, Type 0, BuildingBlock: OLANEW_clean_sbu_2, # of connection points: 3
#     Node 18, Type 0, BuildingBlock: OLANEW_clean_sbu_2, # of connection points: 3
#     Node 19, Type 0, BuildingBlock: OLANEW_clean_sbu_2, # of connection points: 3
#     Node 20, Type 0, BuildingBlock: OLANEW_clean_sbu_2, # of connection points: 3
#     Node 21, Type 0, BuildingBlock: OLANEW_clean_sbu_2, # of connection points: 3
#     Node 22, Type 0, BuildingBlock: OLANEW_clean_sbu_2, # of connection points: 3
#     Node 23, Type 0, BuildingBlock: OLANEW_clean_sbu_2, # of connection points: 3
#     Node 24, Type 0, BuildingBlock: OLANEW_clean_sbu_2, # of connection points: 3
#     Node 25, Type 0, BuildingBlock: OLANEW_clean_sbu_2, # of connection points: 3
#     Node 26, Type 0, BuildingBlock: OLANEW_clean_sbu_2, # of connection points: 3
#     Node 27, Type 0, BuildingBlock: OLANEW_clean_sbu_2, # of connection points: 3
#     Node 28, Type 0, BuildingBlock: OLANEW_clean_sbu_2, # of connection points: 3
#     Node 29, Type 0, BuildingBlock: OLANEW_clean_sbu_2, # of connection points: 3
#     Node 30, Type 0, BuildingBlock: OLANEW_clean_sbu_2, # of connection points: 3
#     Node 31, Type 0, BuildingBlock: OLANEW_clean_sbu_2, # of connection points: 3
#     Node 32, Type 0, BuildingBlock: OLANEW_clean_sbu_2, # of connection points: 3
#     Node 33, Type 0, BuildingBlock: OLANEW_clean_sbu_2, # of connection points: 3
#     Node 34, Type 0, BuildingBlock: OLANEW_clean_sbu_2, # of connection points: 3
#     Node 35, Type 0, BuildingBlock: OLANEW_clean_sbu_2, # of connection points: 3
#     Node 36, Type 0, BuildingBlock: OLANEW_clean_sbu_2, # of connection points: 3
#     Node 37, Type 0, BuildingBlock: OLANEW_clean_sbu_2, # of connection points: 3
#     Node 38, Type 0, BuildingBlock: OLANEW_clean_sbu_2, # of connection points: 3
#     Node 39, Type 0, BuildingBlock: OLANEW_clean_sbu_2, # of connection points: 3
#     Node 40, Type 0, BuildingBlock: OLANEW_clean_sbu_2, # of connection points: 3
#     Node 41, Type 0, BuildingBlock: OLANEW_clean_sbu_2, # of connection points: 3
#     Node 42, Type 0, BuildingBlock: OLANEW_clean_sbu_2, # of connection points: 3
#     Node 43, Type 0, BuildingBlock: OLANEW_clean_sbu_2, # of connection points: 3
#     Node 44, Type 0, BuildingBlock: OLANEW_clean_sbu_2, # of connection points: 3
#     Node 45, Type 0, BuildingBlock: OLANEW_clean_sbu_2, # of connection points: 3
#     Node 46, Type 0, BuildingBlock: OLANEW_clean_sbu_2, # of connection points: 3
#     Node 47, Type 0, BuildingBlock: OLANEW_clean_sbu_2, # of connection points: 3
#     Edge 48, Type (0, 0), BuildingBlock: KIFKEQ_clean_linker_1, # of connection points: 2
#     Edge 49, Type (0, 0), BuildingBlock: KIFKEQ_clean_linker_1, # of connection points: 2
#     Edge 50, Type (0, 0), BuildingBlock: KIFKEQ_clean_linker_1, # of connection points: 2
#     Edge 51, Type (0, 0), BuildingBlock: KIFKEQ_clean_linker_1, # of connection points: 2
#     Edge 52, Type (0, 0), BuildingBlock: KIFKEQ_clean_linker_1, # of connection points: 2
#     Edge 53, Type (0, 0), BuildingBlock: KIFKEQ_clean_linker_1, # of connection points: 2
#     Edge 54, Type (0, 0), BuildingBlock: KIFKEQ_clean_linker_1, # of connection points: 2
#     Edge 55, Type (0, 0), BuildingBlock: KIFKEQ_clean_linker_1, # of connection points: 2
#     Edge 56, Type (0, 0), BuildingBlock: KIFKEQ_clean_linker_1, # of connection points: 2
#     Edge 57, Type (0, 0), BuildingBlock: KIFKEQ_clean_linker_1, # of connection points: 2
#     Edge 58, Type (0, 0), BuildingBlock: KIFKEQ_clean_linker_1, # of connection points: 2
#     Edge 59, Type (0, 0), BuildingBlock: KIFKEQ_clean_linker_1, # of connection points: 2
#     Edge 60, Type (0, 0), BuildingBlock: KIFKEQ_clean_linker_1, # of connection points: 2
#     Edge 61, Type (0, 0), BuildingBlock: KIFKEQ_clean_linker_1, # of connection points: 2
#     Edge 62, Type (0, 0), BuildingBlock: KIFKEQ_clean_linker_1, # of connection points: 2
#     Edge 63, Type (0, 0), BuildingBlock: KIFKEQ_clean_linker_1, # of connection points: 2
#     Edge 64, Type (0, 0), BuildingBlock: KIFKEQ_clean_linker_1, # of connection points: 2
#     Edge 65, Type (0, 0), BuildingBlock: KIFKEQ_clean_linker_1, # of connection points: 2
#     Edge 66, Type (0, 0), BuildingBlock: KIFKEQ_clean_linker_1, # of connection points: 2
#     Edge 67, Type (0, 0), BuildingBlock: KIFKEQ_clean_linker_1, # of connection points: 2
#     Edge 68, Type (0, 0), BuildingBlock: KIFKEQ_clean_linker_1, # of connection points: 2
#     Edge 69, Type (0, 0), BuildingBlock: KIFKEQ_clean_linker_1, # of connection points: 2
#     Edge 70, Type (0, 0), BuildingBlock: KIFKEQ_clean_linker_1, # of connection points: 2
#     Edge 71, Type (0, 0), BuildingBlock: KIFKEQ_clean_linker_1, # of connection points: 2
#     Edge 72, Type (0, 0), BuildingBlock: KIFKEQ_clean_linker_1, # of connection points: 2
#     Edge 73, Type (0, 0), BuildingBlock: KIFKEQ_clean_linker_1, # of connection points: 2
#     Edge 74, Type (0, 0), BuildingBlock: KIFKEQ_clean_linker_1, # of connection points: 2
#     Edge 75, Type (0, 0), BuildingBlock: KIFKEQ_clean_linker_1, # of connection points: 2
#     Edge 76, Type (0, 0), BuildingBlock: KIFKEQ_clean_linker_1, # of connection points: 2
#     Edge 77, Type (0, 0), BuildingBlock: KIFKEQ_clean_linker_1, # of connection points: 2
#     Edge 78, Type (0, 0), BuildingBlock: KIFKEQ_clean_linker_1, # of connection points: 2
#     Edge 79, Type (0, 0), BuildingBlock: KIFKEQ_clean_linker_1, # of connection points: 2
#     Edge 80, Type (0, 0), BuildingBlock: KIFKEQ_clean_linker_1, # of connection points: 2
#     Edge 81, Type (0, 0), BuildingBlock: KIFKEQ_clean_linker_1, # of connection points: 2
#     Edge 82, Type (0, 0), BuildingBlock: KIFKEQ_clean_linker_1, # of connection points: 2
#     Edge 83, Type (0, 0), BuildingBlock: KIFKEQ_clean_linker_1, # of connection points: 2
#     Edge 84, Type (0, 0), BuildingBlock: KIFKEQ_clean_linker_1, # of connection points: 2
#     Edge 85, Type (0, 0), BuildingBlock: KIFKEQ_clean_linker_1, # of connection points: 2
#     Edge 86, Type (0, 0), BuildingBlock: KIFKEQ_clean_linker_1, # of connection points: 2
#     Edge 87, Type (0, 0), BuildingBlock: KIFKEQ_clean_linker_1, # of connection points: 2
#     Edge 88, Type (0, 0), BuildingBlock: KIFKEQ_clean_linker_1, # of connection points: 2
#     Edge 89, Type (0, 0), BuildingBlock: KIFKEQ_clean_linker_1, # of connection points: 2
#     Edge 90, Type (0, 0), BuildingBlock: KIFKEQ_clean_linker_1, # of connection points: 2
#     Edge 91, Type (0, 0), BuildingBlock: KIFKEQ_clean_linker_1, # of connection points: 2
#     Edge 92, Type (0, 0), BuildingBlock: KIFKEQ_clean_linker_1, # of connection points: 2
#     Edge 93, Type (0, 0), BuildingBlock: KIFKEQ_clean_linker_1, # of connection points: 2
#     Edge 94, Type (0, 0), BuildingBlock: KIFKEQ_clean_linker_1, # of connection points: 2
#     Edge 95, Type (0, 0), BuildingBlock: KIFKEQ_clean_linker_1, # of connection points: 2
#     Edge 96, Type (0, 0), BuildingBlock: KIFKEQ_clean_linker_1, # of connection points: 2
#     Edge 97, Type (0, 0), BuildingBlock: KIFKEQ_clean_linker_1, # of connection points: 2
#     Edge 98, Type (0, 0), BuildingBlock: KIFKEQ_clean_linker_1, # of connection points: 2
#     Edge 99, Type (0, 0), BuildingBlock: KIFKEQ_clean_linker_1, # of connection points: 2
#     Edge 100, Type (0, 0), BuildingBlock: KIFKEQ_clean_linker_1, # of connection points: 2
#     Edge 101, Type (0, 0), BuildingBlock: KIFKEQ_clean_linker_1, # of connection points: 2
#     Edge 102, Type (0, 0), BuildingBlock: KIFKEQ_clean_linker_1, # of connection points: 2
#     Edge 103, Type (0, 0), BuildingBlock: KIFKEQ_clean_linker_1, # of connection points: 2
#     Edge 104, Type (0, 0), BuildingBlock: KIFKEQ_clean_linker_1, # of connection points: 2
#     Edge 105, Type (0, 0), BuildingBlock: KIFKEQ_clean_linker_1, # of connection points: 2
#     Edge 106, Type (0, 0), BuildingBlock: KIFKEQ_clean_linker_1, # of connection points: 2
#     Edge 107, Type (0, 0), BuildingBlock: KIFKEQ_clean_linker_1, # of connection points: 2
#     Edge 108, Type (0, 0), BuildingBlock: KIFKEQ_clean_linker_1, # of connection points: 2
#     Edge 109, Type (0, 0), BuildingBlock: KIFKEQ_clean_linker_1, # of connection points: 2
#     Edge 110, Type (0, 0), BuildingBlock: KIFKEQ_clean_linker_1, # of connection points: 2
#     Edge 111, Type (0, 0), BuildingBlock: KIFKEQ_clean_linker_1, # of connection points: 2
#     Edge 112, Type (0, 0), BuildingBlock: KIFKEQ_clean_linker_1, # of connection points: 2
#     Edge 113, Type (0, 0), BuildingBlock: KIFKEQ_clean_linker_1, # of connection points: 2
#     Edge 114, Type (0, 0), BuildingBlock: KIFKEQ_clean_linker_1, # of connection points: 2
#     Edge 115, Type (0, 0), BuildingBlock: KIFKEQ_clean_linker_1, # of connection points: 2
#     Edge 116, Type (0, 0), BuildingBlock: KIFKEQ_clean_linker_1, # of connection points: 2
#     Edge 117, Type (0, 0), BuildingBlock: KIFKEQ_clean_linker_1, # of connection points: 2
#     Edge 118, Type (0, 0), BuildingBlock: KIFKEQ_clean_linker_1, # of connection points: 2
#     Edge 119, Type (0, 0), BuildingBlock: KIFKEQ_clean_linker_1, # of connection points: 2
# Relax obj value: 0.008
# Max RMSD: 0.033
# Mean RMSD: 0.033
data_MOF--net-sod-h--node1-OLANEW_clean_sbu_2--edge1-KIFKEQ_clean_linker_1
_symmetry_space_group_name_H-M    P1
_symmetry_Int_Tables_number       1
_symmetry_cell_setting            triclinic
loop_
_symmetry_equiv_pos_as_xyz
'x, y, z'
_cell_length_a     106.91949
_cell_length_b     107.07369
_cell_length_c     107.08652
_cell_angle_alpha  89.84493
_cell_angle_beta   90.024504
_cell_angle_gamma 89.929685
loop_
_atom_site_label
_atom_site_type_symbol
_atom_site_fract_x
_atom_site_fract_y
_atom_site_fract_z
_atom_type_partial_charge
O0 O 0.10745 0.2144 0.69659 0.0
Cd1 Cd 0.10847 0.20052 0.67851 0.0
O2 O 0.0881 0.20838 0.69957 0.0
Cd3 Cd 0.06955 0.20925 0.70814 0.0
O4 O 0.04977 0.20945 0.71322 0.0
C5 C 0.04328 0.21925 0.71146 0.0
O6 O 0.04873 0.22928 0.70694 0.0
C7 C 0.09739 0.21501 0.70287 0.0
C8 C 0.12036 0.17792 0.68392 0.0
O9 O 0.12656 0.18737 0.67994 0.0
O10 O 0.10852 0.17919 0.68539 0.0
O11 O 0.77656 0.6035 0.20072 0.0
Cd12 Cd 0.79118 0.60134 0.18329 0.0
O13 O 0.7811 0.58395 0.2046 0.0
Cd14 Cd 0.77865 0.56576 0.21363 0.0
O15 O 0.77723 0.54607 0.21878 0.0
C16 C 0.76752 0.5399 0.21586 0.0
O17 O 0.75829 0.54566 0.21012 0.0
C18 C 0.77505 0.59379 0.20738 0.0
C19 C 0.81209 0.61679 0.18499 0.0
O20 O 0.80252 0.62006 0.17854 0.0
O21 O 0.81171 0.60628 0.19074 0.0
O22 O 0.38357 0.27536 0.69685 0.0
Cd23 Cd 0.3832 0.28968 0.67902 0.0
O24 O 0.40306 0.28063 0.70025 0.0
Cd25 Cd 0.42145 0.27902 0.70908 0.0
O26 O 0.44118 0.27844 0.71434 0.0
C27 C 0.44778 0.26895 0.71162 0.0
O28 O 0.44245 0.25944 0.70601 0.0
C29 C 0.39351 0.27425 0.70327 0.0
C30 C 0.37028 0.31176 0.68407 0.0
O31 O 0.36462 0.30222 0.67959 0.0
O32 O 0.38204 0.31083 0.68623 0.0
O33 O 0.70748 0.89658 0.21845 0.0
Cd34 Cd 0.69303 0.90318 0.20196 0.0
O35 O 0.69756 0.90793 0.23238 0.0
Cd36 Cd 0.68734 0.91893 0.21859 0.0
O37 O 0.6869 0.93794 0.21118 0.0
C38 C 0.69665 0.94426 0.21368 0.0
O39 O 0.70578 0.93879 0.21983 0.0
C40 C 0.70599 0.89998 0.22972 0.0
C41 C 0.67307 0.88656 0.19941 0.0
O42 O 0.68283 0.88559 0.19254 0.0
O43 O 0.67273 0.89539 0.20746 0.0
O44 O 0.10747 0.27252 0.78421 0.0
Cd45 Cd 0.10839 0.28487 0.80337 0.0
O46 O 0.08716 0.27483 0.78417 0.0
Cd47 Cd 0.06773 0.27378 0.77772 0.0
O48 O 0.04751 0.27386 0.77469 0.0
C49 C 0.04096 0.28126 0.78127 0.0
O50 O 0.04663 0.28849 0.78939 0.0
C51 C 0.09695 0.27029 0.77916 0.0
C52 C 0.12231 0.30676 0.80078 0.0
O53 O 0.12753 0.29647 0.80402 0.0
O54 O 0.1105 0.30668 0.79867 0.0
O55 O 0.70961 0.6028 0.28372 0.0
Cd56 Cd 0.69386 0.60073 0.30016 0.0
O57 O 0.70722 0.58268 0.2815 0.0
Cd58 Cd 0.70928 0.56395 0.27358 0.0
O59 O 0.71039 0.54403 0.2694 0.0
C60 C 0.71475 0.53677 0.27774 0.0
O61 O 0.71863 0.54156 0.28834 0.0
C62 C 0.71262 0.59275 0.2782 0.0
C63 C 0.6736 0.61691 0.29734 0.0
O64 O 0.68283 0.61975 0.30443 0.0
O65 O 0.67402 0.60649 0.29149 0.0
O66 O 0.37822 0.21733 0.78409 0.0
Cd67 Cd 0.37423 0.2054 0.80317 0.0
O68 O 0.39823 0.21292 0.78436 0.0
Cd69 Cd 0.41758 0.21231 0.77764 0.0
O70 O 0.43753 0.21173 0.77328 0.0
C71 C 0.44524 0.21628 0.78108 0.0
O72 O 0.44092 0.22129 0.79141 0.0
C73 C 0.38901 0.21843 0.77921 0.0
C74 C 0.36439 0.1818 0.79825 0.0
O75 O 0.35738 0.19151 0.79836 0.0
O76 O 0.37609 0.18321 0.80044 0.0
O77 O 0.77614 0.87672 0.29899 0.0
Cd78 Cd 0.79301 0.87774 0.31437 0.0
O79 O 0.77925 0.89683 0.29739 0.0
Cd80 Cd 0.77674 0.91567 0.28974 0.0
O81 O 0.77573 0.93522 0.28394 0.0
C82 C 0.76535 0.94099 0.28337 0.0
O83 O 0.755 0.93496 0.2861 0.0
C84 C 0.77315 0.88716 0.29418 0.0
C85 C 0.8138 0.86313 0.30866 0.0
O86 O 0.80525 0.85905 0.31599 0.0
O87 O 0.81243 0.87403 0.30388 0.0
O88 O 0.69678 0.1014 0.20734 0.0
Cd89 Cd 0.67973 0.101 0.19211 0.0
O90 O 0.70074 0.08256 0.20059 0.0
Cd91 Cd 0.70907 0.06392 0.20111 0.0
O92 O 0.71015 0.04355 0.2013 0.0
C93 C 0.69987 0.03774 0.20264 0.0
O94 O 0.6895 0.04423 0.20384 0.0
C95 C 0.70334 0.09152 0.20791 0.0
C96 C 0.68291 0.11741 0.17211 0.0
O97 O 0.67634 0.12051 0.18162 0.0
O98 O 0.68812 0.10662 0.17214 0.0
O99 O 0.8855 0.19816 0.70925 0.0
Cd100 Cd 0.88744 0.18112 0.6942 0.0
O101 O 0.90506 0.20216 0.70478 0.0
Cd102 Cd 0.92321 0.21126 0.70717 0.0
O103 O 0.94293 0.21641 0.70828 0.0
C104 C 0.94951 0.21258 0.71741 0.0
O105 O 0.94414 0.20593 0.72623 0.0
C106 C 0.8952 0.20481 0.71087 0.0
C107 C 0.8722 0.18417 0.67325 0.0
O108 O 0.86867 0.17741 0.6825 0.0
O109 O 0.88288 0.18955 0.67395 0.0
O110 O 0.78909 0.383 0.21104 0.0
Cd111 Cd 0.80645 0.38537 0.19638 0.0
O112 O 0.7848 0.40249 0.20662 0.0
Cd113 Cd 0.77529 0.42043 0.209 0.0
O114 O 0.76984 0.44004 0.21035 0.0
C115 C 0.77228 0.44617 0.2202 0.0
O116 O 0.77768 0.4404 0.22962 0.0
C117 C 0.7822 0.39254 0.21259 0.0
C118 C 0.80388 0.37062 0.17511 0.0
O119 O 0.81045 0.36689 0.18442 0.0
O120 O 0.79847 0.38127 0.17589 0.0
O121 O 0.60616 0.28872 0.71281 0.0
Cd122 Cd 0.60699 0.30734 0.69956 0.0
O123 O 0.58655 0.28626 0.70744 0.0
Cd124 Cd 0.56787 0.27802 0.70873 0.0
O125 O 0.54808 0.27299 0.70916 0.0
C126 C 0.54148 0.27566 0.71866 0.0
O127 O 0.54683 0.28112 0.72825 0.0
C128 C 0.59602 0.28258 0.71363 0.0
C129 C 0.62014 0.30355 0.67738 0.0
O130 O 0.62574 0.3072 0.6873 0.0
O131 O 0.60833 0.3016 0.67797 0.0
O132 O 0.70274 0.37686 0.27225 0.0
Cd133 Cd 0.68403 0.3757 0.28535 0.0
O134 O 0.70341 0.39685 0.27631 0.0
Cd135 Cd 0.71063 0.41599 0.27622 0.0
O136 O 0.71489 0.43593 0.27582 0.0
C137 C 0.70726 0.44323 0.27035 0.0
O138 O 0.69727 0.43848 0.26502 0.0
C139 C 0.70794 0.38741 0.27069 0.0
C140 C 0.6881 0.36367 0.30813 0.0
O141 O 0.68465 0.35755 0.29845 0.0
O142 O 0.68974 0.37547 0.307 0.0
O143 O 0.60511 0.20035 0.77079 0.0
Cd144 Cd 0.60554 0.18166 0.78395 0.0
O145 O 0.58499 0.20176 0.77418 0.0
Cd146 Cd 0.56604 0.20957 0.77386 0.0
O147 O 0.5461 0.21402 0.77423 0.0
C148 C 0.53843 0.20596 0.77011 0.0
O149 O 0.54281 0.19542 0.76561 0.0
C150 C 0.59481 0.206 0.76895 0.0
C151 C 0.61744 0.18583 0.80676 0.0
O152 O 0.6236 0.18209 0.7972 0.0
O153 O 0.60565 0.18762 0.80552 0.0
O154 O 0.78038 0.09791 0.27164 0.0
Cd155 Cd 0.79729 0.09639 0.28701 0.0
O156 O 0.77527 0.07908 0.27778 0.0
Cd157 Cd 0.76545 0.06122 0.27661 0.0
O158 O 0.76123 0.04126 0.27692 0.0
C159 C 0.76711 0.03413 0.26948 0.0
O160 O 0.7751 0.03909 0.26157 0.0
C161 C 0.77327 0.08845 0.27072 0.0
C162 C 0.79601 0.11381 0.30631 0.0
O163 O 0.80265 0.11591 0.29656 0.0
O164 O 0.78983 0.10357 0.30683 0.0
O165 O 0.88016 0.28319 0.77161 0.0
Cd166 Cd 0.87879 0.30185 0.78468 0.0
O167 O 0.90033 0.28319 0.77495 0.0
Cd168 Cd 0.9199 0.27709 0.7745 0.0
O169 O 0.94022 0.27491 0.77457 0.0
C170 C 0.94679 0.2848 0.77451 0.0
O171 O 0.94109 0.29568 0.77431 0.0
C172 C 0.89083 0.27832 0.7697 0.0
C173 C 0.86622 0.29776 0.80715 0.0
O174 O 0.86031 0.30125 0.79732 0.0
O175 O 0.87807 0.2961 0.80632 0.0
O176 O 0.21806 0.69748 0.10251 0.0
Cd177 Cd 0.20487 0.6789 0.10397 0.0
O178 O 0.21016 0.70117 0.08399 0.0
Cd179 Cd 0.20939 0.71081 0.06598 0.0
O180 O 0.20922 0.71629 0.04633 0.0
C181 C 0.21868 0.71379 0.0396 0.0
O182 O 0.22842 0.70835 0.04479 0.0
C183 C 0.21751 0.70426 0.09277 0.0
C184 C 0.1821 0.68387 0.11567 0.0
O185 O 0.19165 0.68031 0.12198 0.0
O186 O 0.18332 0.6851 0.10383 0.0
O187 O 0.21479 0.79301 0.3797 0.0
Cd188 Cd 0.20093 0.81102 0.37709 0.0
O189 O 0.20906 0.79222 0.39932 0.0
Cd190 Cd 0.20976 0.78603 0.41884 0.0
O191 O 0.20876 0.78148 0.43875 0.0
C192 C 0.21393 0.78863 0.44668 0.0
O193 O 0.21998 0.79853 0.44268 0.0
C194 C 0.21557 0.78787 0.39038 0.0
C195 C 0.17892 0.80531 0.36434 0.0
O196 O 0.18869 0.80898 0.35846 0.0
O197 O 0.17959 0.80425 0.37625 0.0
O198 O 0.20035 0.7158 0.88072 0.0
Cd199 Cd 0.18169 0.70271 0.87916 0.0
O200 O 0.2011 0.71144 0.90067 0.0
Cd201 Cd 0.20851 0.71105 0.91973 0.0
O202 O 0.2133 0.71118 0.93954 0.0
C203 C 0.21077 0.72072 0.9461 0.0
O204 O 0.20553 0.73045 0.94071 0.0
C205 C 0.20562 0.71716 0.89126 0.0
C206 C 0.18613 0.68031 0.86663 0.0
O207 O 0.18267 0.69014 0.8607 0.0
O208 O 0.18756 0.6811 0.87849 0.0
O209 O 0.28421 0.7138 0.3984 0.0
Cd210 Cd 0.29982 0.69754 0.40236 0.0
O211 O 0.27992 0.71587 0.41838 0.0
Cd212 Cd 0.29322 0.70222 0.42576 0.0
O213 O 0.30082 0.69431 0.44297 0.0
C214 C 0.29722 0.68378 0.4471 0.0
O215 O 0.28964 0.677 0.44025 0.0
C216 C 0.27801 0.719 0.40708 0.0
C217 C 0.31997 0.69911 0.38585 0.0
O218 O 0.31018 0.69279 0.38309 0.0
O219 O 0.32022 0.7047 0.39642 0.0
O220 O 0.2883 0.77394 0.88551 0.0
Cd221 Cd 0.30668 0.78751 0.88553 0.0
O222 O 0.2854 0.77817 0.90531 0.0
Cd223 Cd 0.27688 0.77581 0.92375 0.0
O224 O 0.27218 0.77456 0.94357 0.0
C225 C 0.27777 0.76656 0.95037 0.0
O226 O 0.28596 0.75903 0.94519 0.0
C227 C 0.282 0.77248 0.89547 0.0
C228 C 0.303 0.80945 0.87187 0.0
O229 O 0.30719 0.79954 0.86664 0.0
O230 O 0.30049 0.80896 0.88357 0.0
O231 O 0.2688 0.7875 0.1074 0.0
Cd232 Cd 0.28126 0.80583 0.11284 0.0
O233 O 0.27765 0.78569 0.08901 0.0
Cd234 Cd 0.27919 0.77767 0.07029 0.0
O235 O 0.28009 0.77286 0.0505 0.0
C236 C 0.27014 0.77253 0.044 0.0
O237 O 0.25937 0.77479 0.04946 0.0
C238 C 0.26985 0.78178 0.09708 0.0
C239 C 0.30476 0.79945 0.12224 0.0
O240 O 0.29505 0.79936 0.12925 0.0
O241 O 0.30339 0.80252 0.11075 0.0
O242 O 0.19714 0.77383 0.60623 0.0
Cd243 Cd 0.17876 0.78729 0.60834 0.0
O244 O 0.19808 0.77934 0.58654 0.0
Cd245 Cd 0.20448 0.77845 0.56711 0.0
O246 O 0.20898 0.77911 0.54719 0.0
C247 C 0.2005 0.77654 0.53928 0.0
O248 O 0.18935 0.77338 0.54334 0.0
C249 C 0.20243 0.773 0.59564 0.0
C250 C 0.18355 0.8095 0.62103 0.0
O251 O 0.18015 0.79963 0.62691 0.0
O252 O 0.18481 0.80883 0.60915 0.0
O253 O 0.27682 0.70456 0.58919 0.0
Cd254 Cd 0.29327 0.6891 0.58547 0.0
O255 O 0.27524 0.70905 0.56919 0.0
Cd256 Cd 0.28899 0.69569 0.5622 0.0
O257 O 0.29721 0.6872 0.5456 0.0
C258 C 0.28996 0.68067 0.53884 0.0
O259 O 0.27852 0.67855 0.5428 0.0
C260 C 0.27184 0.71085 0.58041 0.0
C261 C 0.29179 0.6688 0.60183 0.0
O262 O 0.29789 0.67866 0.60477 0.0
O263 O 0.28635 0.66856 0.59116 0.0
O264 O 0.91113 0.78495 0.27241 0.0
Cd265 Cd 0.91478 0.8003 0.28884 0.0
O266 O 0.9177 0.76943 0.28421 0.0
Cd267 Cd 0.92626 0.78169 0.29805 0.0
O268 O 0.94368 0.78924 0.30558 0.0
C269 C 0.95132 0.7814 0.31023 0.0
O270 O 0.94789 0.76964 0.31109 0.0
C271 C 0.91278 0.7733 0.27409 0.0
C272 C 0.89305 0.81399 0.29326 0.0
O273 O 0.9016 0.81822 0.28601 0.0
O274 O 0.89484 0.80336 0.2985 0.0
O275 O 0.20425 0.40432 0.7773 0.0
Cd276 Cd 0.18741 0.40777 0.79233 0.0
O277 O 0.19793 0.41979 0.76528 0.0
Cd278 Cd 0.18459 0.42787 0.77843 0.0
O279 O 0.17863 0.44569 0.7864 0.0
C280 C 0.18357 0.44972 0.7964 0.0
O281 O 0.19142 0.44248 0.8025 0.0
C282 C 0.20525 0.41063 0.76727 0.0
C283 C 0.17276 0.38632 0.79459 0.0
O284 O 0.17022 0.3947 0.7864 0.0
O285 O 0.18216 0.38815 0.80179 0.0
O286 O 0.58162 0.705 0.27134 0.0
Cd287 Cd 0.57741 0.68904 0.28715 0.0
O288 O 0.57305 0.71986 0.28262 0.0
Cd289 Cd 0.56409 0.70705 0.29577 0.0
O290 O 0.54673 0.69956 0.30355 0.0
C291 C 0.5392 0.70746 0.30823 0.0
O292 O 0.54268 0.71921 0.30886 0.0
C293 C 0.57911 0.71649 0.27298 0.0
C294 C 0.59798 0.6732 0.28976 0.0
O295 O 0.58875 0.67022 0.28273 0.0
O296 O 0.59741 0.6836 0.29563 0.0
O297 O 0.29273 0.08025 0.76729 0.0
Cd298 Cd 0.31274 0.0756 0.77732 0.0
O299 O 0.28104 0.07086 0.78136 0.0
Cd300 Cd 0.29662 0.06213 0.79131 0.0
O301 O 0.30402 0.04437 0.79825 0.0
C302 C 0.29634 0.03766 0.80435 0.0
O303 O 0.28516 0.04218 0.8067 0.0
C304 C 0.28198 0.07736 0.77145 0.0
C305 C 0.32552 0.09778 0.78209 0.0
O306 O 0.32597 0.09261 0.77132 0.0
O307 O 0.31916 0.09238 0.79069 0.0
O308 O 0.90867 0.70076 0.20513 0.0
Cd309 Cd 0.91146 0.68483 0.18908 0.0
O310 O 0.91749 0.71541 0.19372 0.0
Cd311 Cd 0.92556 0.70222 0.18046 0.0
O312 O 0.94295 0.69344 0.17429 0.0
C313 C 0.94879 0.68694 0.18236 0.0
O314 O 0.94357 0.68509 0.19332 0.0
C315 C 0.91162 0.71216 0.20353 0.0
C316 C 0.89019 0.66985 0.1877 0.0
O317 O 0.8908 0.68026 0.18179 0.0
O318 O 0.8997 0.66644 0.19415 0.0
O319 O 0.29093 0.40934 0.71648 0.0
Cd320 Cd 0.31015 0.41406 0.70507 0.0
O321 O 0.27887 0.41296 0.70023 0.0
Cd322 Cd 0.29369 0.42213 0.68959 0.0
O323 O 0.30082 0.44013 0.68304 0.0
C324 C 0.29291 0.44714 0.67757 0.0
O325 O 0.28161 0.44279 0.67555 0.0
C326 C 0.28014 0.40931 0.71147 0.0
C327 C 0.3236 0.39223 0.7003 0.0
O328 O 0.32549 0.39855 0.71027 0.0
O329 O 0.31541 0.39629 0.69254 0.0
O330 O 0.58531 0.7913 0.20619 0.0
Cd331 Cd 0.58214 0.80782 0.19069 0.0
O332 O 0.57585 0.77705 0.19483 0.0
Cd333 Cd 0.56707 0.7902 0.18188 0.0
O334 O 0.54828 0.79537 0.17564 0.0
C335 C 0.54258 0.80456 0.18052 0.0
O336 O 0.5486 0.81167 0.1885 0.0
C337 C 0.58214 0.77999 0.20446 0.0
C338 C 0.6015 0.82531 0.19183 0.0
O339 O 0.59123 0.82705 0.19775 0.0
O340 O 0.60257 0.81536 0.18529 0.0
O341 O 0.19558 0.07892 0.7206 0.0
Cd342 Cd 0.17685 0.07426 0.70838 0.0
O343 O 0.20834 0.0729 0.70568 0.0
Cd344 Cd 0.19374 0.06395 0.6946 0.0
O345 O 0.18654 0.04617 0.68765 0.0
C346 C 0.19437 0.0393 0.68196 0.0
O347 O 0.20566 0.04368 0.67991 0.0
C348 C 0.20663 0.07771 0.71639 0.0
C349 C 0.16396 0.09621 0.70262 0.0
O350 O 0.1615 0.09002 0.71258 0.0
O351 O 0.17245 0.09194 0.69533 0.0
O352 O 0.27346 0.90532 0.78988 0.0
Cd353 Cd 0.28707 0.91021 0.80754 0.0
O354 O 0.28676 0.91234 0.77586 0.0
Cd355 Cd 0.29889 0.9215 0.78945 0.0
O356 O 0.30561 0.93974 0.79558 0.0
C357 C 0.30162 0.94483 0.80552 0.0
O358 O 0.29407 0.93849 0.81285 0.0
C359 C 0.27649 0.90697 0.77851 0.0
C360 C 0.29104 0.88891 0.8221 0.0
O361 O 0.28183 0.89626 0.82428 0.0
O362 O 0.29845 0.89171 0.81312 0.0
O363 O 0.08228 0.76964 0.28573 0.0
Cd364 Cd 0.07713 0.78169 0.30438 0.0
O365 O 0.07471 0.78385 0.27292 0.0
Cd366 Cd 0.0653 0.7943 0.28769 0.0
O367 O 0.04719 0.79907 0.29586 0.0
C368 C 0.04326 0.79379 0.30575 0.0
O369 O 0.05072 0.78609 0.31177 0.0
C370 C 0.08043 0.77357 0.27467 0.0
C371 C 0.09872 0.78716 0.31793 0.0
O372 O 0.09239 0.77724 0.32017 0.0
O373 O 0.09477 0.79454 0.30935 0.0
O374 O 0.21886 0.58222 0.78922 0.0
Cd375 Cd 0.20558 0.57754 0.80721 0.0
O376 O 0.20491 0.57577 0.77559 0.0
Cd377 Cd 0.19295 0.56694 0.78958 0.0
O378 O 0.18574 0.54929 0.79694 0.0
C379 C 0.19366 0.54181 0.8017 0.0
O380 O 0.20533 0.5455 0.80284 0.0
C381 C 0.21543 0.58079 0.77794 0.0
C382 C 0.20082 0.59925 0.82077 0.0
O383 O 0.21026 0.59231 0.82332 0.0
O384 O 0.19356 0.59584 0.81188 0.0
O385 O 0.40682 0.71781 0.2901 0.0
Cd386 Cd 0.41285 0.70703 0.30935 0.0
O387 O 0.41382 0.70284 0.27793 0.0
Cd388 Cd 0.42376 0.69312 0.29291 0.0
O389 O 0.44245 0.68877 0.29998 0.0
C390 C 0.44702 0.69442 0.30935 0.0
O391 O 0.43993 0.70226 0.31557 0.0
C392 C 0.40823 0.71324 0.27924 0.0
C393 C 0.39281 0.70516 0.32596 0.0
O394 O 0.40001 0.71472 0.32599 0.0
O395 O 0.3951 0.69646 0.31808 0.0
O396 O 0.27307 0.58138 0.69635 0.0
Cd397 Cd 0.28525 0.57544 0.67797 0.0
O398 O 0.28614 0.57275 0.70969 0.0
Cd399 Cd 0.29717 0.56307 0.69552 0.0
O400 O 0.30325 0.54476 0.68887 0.0
C401 C 0.29893 0.53999 0.67891 0.0
O402 O 0.29135 0.54666 0.67188 0.0
C403 C 0.27633 0.57913 0.70755 0.0
C404 C 0.28698 0.59531 0.66113 0.0
O405 O 0.27779 0.58764 0.66071 0.0
O406 O 0.2954 0.59353 0.66947 0.0
O407 O 0.40598 0.762 0.1919 0.0
Cd408 Cd 0.41078 0.77191 0.17189 0.0
O409 O 0.41619 0.77558 0.20342 0.0
Cd410 Cd 0.42527 0.78525 0.18787 0.0
O411 O 0.44297 0.79245 0.18056 0.0
C412 C 0.44981 0.79809 0.18845 0.0
O413 O 0.44548 0.79974 0.19981 0.0
C414 C 0.40921 0.76602 0.20258 0.0
C415 C 0.38861 0.7781 0.15958 0.0
O416 O 0.3932 0.76707 0.15891 0.0
O417 O 0.39458 0.78629 0.16592 0.0
O418 O 0.21583 0.90662 0.6991 0.0
Cd419 Cd 0.20226 0.91175 0.68145 0.0
O420 O 0.20274 0.914 0.7131 0.0
Cd421 Cd 0.19084 0.92346 0.69943 0.0
O422 O 0.18439 0.94168 0.6928 0.0
C423 C 0.18858 0.94653 0.6828 0.0
O424 O 0.19619 0.93997 0.67576 0.0
C425 C 0.21287 0.90836 0.71046 0.0
C426 C 0.19756 0.8903 0.66749 0.0
O427 O 0.20688 0.89738 0.66496 0.0
O428 O 0.19036 0.89347 0.67651 0.0
O429 O 0.08292 0.72017 0.19032 0.0
Cd430 Cd 0.07815 0.70802 0.17162 0.0
O431 O 0.07462 0.70629 0.20301 0.0
Cd432 Cd 0.06538 0.6959 0.1881 0.0
O433 O 0.04736 0.69118 0.1797 0.0
C434 C 0.0416 0.68131 0.18296 0.0
O435 O 0.04714 0.67345 0.19062 0.0
C436 C 0.08064 0.7164 0.20135 0.0
C437 C 0.1001 0.70222 0.15879 0.0
O438 O 0.09393 0.71218 0.15628 0.0
O439 O 0.09582 0.69494 0.16729 0.0
O440 O 0.78811 0.26913 0.90611 0.0
Cd441 Cd 0.80681 0.28141 0.91063 0.0
O442 O 0.77529 0.28318 0.91389 0.0
Cd443 Cd 0.79015 0.29389 0.92287 0.0
O444 O 0.79835 0.29918 0.94079 0.0
C445 C 0.8082 0.29394 0.9449 0.0
O446 O 0.81413 0.28594 0.93774 0.0
C447 C 0.77703 0.27291 0.9082 0.0
C448 C 0.82043 0.28546 0.88877 0.0
O449 O 0.82258 0.27593 0.89571 0.0
O450 O 0.81192 0.29315 0.89224 0.0
O451 O 0.78795 0.21208 0.57847 0.0
Cd452 Cd 0.80399 0.1963 0.57455 0.0
O453 O 0.77307 0.20008 0.57095 0.0
Cd454 Cd 0.78587 0.18703 0.56188 0.0
O455 O 0.79224 0.17988 0.54387 0.0
C456 C 0.80189 0.18436 0.53858 0.0
O457 O 0.80867 0.19262 0.5446 0.0
C458 C 0.77641 0.21006 0.57645 0.0
C459 C 0.81901 0.19317 0.59564 0.0
O460 O 0.82244 0.20032 0.58666 0.0
O461 O 0.80857 0.18741 0.59459 0.0
O462 O 0.77645 0.28831 0.07914 0.0
Cd463 Cd 0.793 0.30367 0.07576 0.0
O464 O 0.78754 0.27315 0.07084 0.0
Cd465 Cd 0.80125 0.28562 0.06228 0.0
O466 O 0.8086 0.29263 0.04455 0.0
C467 C 0.81305 0.28451 0.03715 0.0
O468 O 0.81384 0.27286 0.04099 0.0
C469 C 0.77779 0.2768 0.07658 0.0
C470 C 0.79594 0.31847 0.09695 0.0
O471 O 0.80138 0.30784 0.09606 0.0
O472 O 0.78919 0.32218 0.08776 0.0
O473 O 0.69977 0.27436 0.57984 0.0
Cd474 Cd 0.68224 0.28833 0.57533 0.0
O475 O 0.7138 0.28662 0.57116 0.0
Cd476 Cd 0.69999 0.29873 0.56219 0.0
O477 O 0.69262 0.30464 0.54407 0.0
C478 C 0.68234 0.30042 0.53988 0.0
O479 O 0.67549 0.2932 0.54707 0.0
C480 C 0.71113 0.2768 0.57729 0.0
C481 C 0.66809 0.29218 0.59688 0.0
O482 O 0.6656 0.28317 0.58942 0.0
O483 O 0.67718 0.29945 0.59406 0.0
O484 O 0.70806 0.20476 0.07912 0.0
Cd485 Cd 0.69172 0.18923 0.07564 0.0
O486 O 0.6968 0.21991 0.07092 0.0
Cd487 Cd 0.68336 0.20726 0.06225 0.0
O488 O 0.67695 0.19968 0.04444 0.0
C489 C 0.68092 0.18921 0.0405 0.0
O490 O 0.68811 0.18242 0.0478 0.0
C491 C 0.70659 0.21629 0.07665 0.0
C492 C 0.68962 0.17356 0.09638 0.0
O493 O 0.68398 0.18413 0.096 0.0
O494 O 0.69616 0.17033 0.0869 0.0
O495 O 0.69295 0.21854 0.90632 0.0
Cd496 Cd 0.67435 0.2061 0.91089 0.0
O497 O 0.70586 0.20456 0.91418 0.0
Cd498 Cd 0.6911 0.19365 0.92313 0.0
O499 O 0.68298 0.1877 0.94091 0.0
C500 C 0.69033 0.18217 0.94844 0.0
O501 O 0.70176 0.17962 0.94472 0.0
C502 C 0.70406 0.21483 0.90845 0.0
C503 C 0.66127 0.20109 0.88892 0.0
O504 O 0.65883 0.21082 0.89542 0.0
O505 O 0.66981 0.19365 0.89288 0.0
O506 O 0.78004 0.20389 0.39882 0.0
Cd507 Cd 0.79707 0.18874 0.40049 0.0
O508 O 0.77021 0.19704 0.41554 0.0
Cd509 Cd 0.78479 0.18434 0.42218 0.0
O510 O 0.79382 0.17826 0.43949 0.0
C511 C 0.79918 0.18672 0.44584 0.0
O512 O 0.79987 0.19804 0.44114 0.0
C513 C 0.77071 0.20434 0.40616 0.0
C514 C 0.79688 0.17255 0.38009 0.0
O515 O 0.80242 0.18315 0.3795 0.0
O516 O 0.79151 0.16956 0.39037 0.0
O517 O 0.71552 0.28732 0.40852 0.0
Cd518 Cd 0.70364 0.3063 0.41297 0.0
O519 O 0.70003 0.27477 0.41349 0.0
Cd520 Cd 0.68925 0.28956 0.42251 0.0
O521 O 0.68309 0.29767 0.44019 0.0
C522 C 0.67753 0.2903 0.44768 0.0
O523 O 0.67513 0.27887 0.44396 0.0
C524 C 0.711 0.27636 0.40919 0.0
C525 C 0.69971 0.31967 0.39092 0.0
O526 O 0.70932 0.32173 0.39775 0.0
O527 O 0.69186 0.3114 0.39461 0.0
H528 H 0.07749 0.25594 0.77042 0.0
H529 H 0.11552 0.26668 0.76223 0.0
H530 H 0.07686 0.24355 0.75146 0.0
H531 H 0.11528 0.2535 0.74378 0.0
H532 H 0.10821 0.2378 0.70539 0.0
H533 H 0.10741 0.25168 0.72338 0.0
H534 H 0.08457 0.22475 0.74306 0.0
H535 H 0.08511 0.21112 0.72488 0.0
C536 C 0.08563 0.25589 0.76446 0.0
C537 C 0.0964 0.26267 0.76764 0.0
C538 C 0.08539 0.24851 0.7537 0.0
C539 C 0.096 0.24753 0.74599 0.0
C540 C 0.10682 0.25422 0.7493 0.0
C541 C 0.10701 0.26169 0.75996 0.0
C542 C 0.10295 0.23492 0.71355 0.0
C543 C 0.09656 0.22349 0.71369 0.0
C544 C 0.10255 0.24283 0.72391 0.0
C545 C 0.09593 0.23937 0.73473 0.0
C546 C 0.08953 0.22788 0.73482 0.0
C547 C 0.08981 0.22005 0.72439 0.0
H548 H 0.72826 0.5739 0.27059 0.0
H549 H 0.71876 0.61241 0.26324 0.0
H550 H 0.74289 0.57414 0.25326 0.0
H551 H 0.73416 0.61301 0.24649 0.0
H552 H 0.75291 0.60625 0.20883 0.0
H553 H 0.73785 0.60599 0.22594 0.0
H554 H 0.7625 0.58182 0.24708 0.0
H555 H 0.7773 0.58186 0.22979 0.0
C556 C 0.72912 0.58235 0.26514 0.0
C557 C 0.72198 0.59298 0.268 0.0
C558 C 0.73777 0.58261 0.25537 0.0
C559 C 0.73969 0.59358 0.24837 0.0
C560 C 0.73276 0.60431 0.25147 0.0
C561 C 0.724 0.60401 0.26116 0.0
C562 C 0.75506 0.60088 0.21714 0.0
C563 C 0.76613 0.59386 0.2179 0.0
C564 C 0.74648 0.60078 0.227 0.0
C565 C 0.74889 0.59381 0.23791 0.0
C566 C 0.76014 0.58702 0.23872 0.0
C567 C 0.76864 0.58702 0.2288 0.0
H568 H 0.40965 0.23146 0.77106 0.0
H569 H 0.37133 0.22306 0.76162 0.0
H570 H 0.41164 0.24386 0.7521 0.0
H571 H 0.37296 0.23622 0.74317 0.0
H572 H 0.3818 0.25184 0.70521 0.0
H573 H 0.3816 0.23764 0.72304 0.0
H574 H 0.40517 0.2632 0.74355 0.0
H575 H 0.40561 0.27716 0.72554 0.0
C576 C 0.40174 0.23202 0.76481 0.0
C577 C 0.39046 0.22592 0.76766 0.0
C578 C 0.40277 0.2394 0.75406 0.0
C579 C 0.39248 0.24102 0.74601 0.0
C580 C 0.38118 0.23498 0.74896 0.0
C581 C 0.3802 0.22753 0.75962 0.0
C582 C 0.38701 0.25434 0.71351 0.0
C583 C 0.39386 0.2655 0.71394 0.0
C584 C 0.38685 0.24625 0.72377 0.0
C585 C 0.39334 0.24926 0.7348 0.0
C586 C 0.40027 0.26043 0.73515 0.0
C587 C 0.40055 0.26844 0.72482 0.0
H588 H 0.70413 0.90391 0.25482 0.0
H589 H 0.72773 0.88664 0.22701 0.0
H590 H 0.71976 0.89955 0.27075 0.0
H591 H 0.74353 0.88251 0.24296 0.0
H592 H 0.76589 0.86956 0.27728 0.0
H593 H 0.74881 0.87101 0.2621 0.0
H594 H 0.74009 0.90806 0.27547 0.0
H595 H 0.75667 0.90633 0.29092 0.0
C596 C 0.71261 0.89908 0.25211 0.0
C597 C 0.71473 0.89573 0.2396 0.0
C598 C 0.72161 0.89665 0.26124 0.0
C599 C 0.73298 0.89087 0.2581 0.0
C600 C 0.73485 0.88694 0.24571 0.0
C601 C 0.7258 0.88933 0.23656 0.0
C602 C 0.76027 0.87799 0.27696 0.0
C603 C 0.76282 0.88798 0.28504 0.0
C604 C 0.75055 0.87885 0.26823 0.0
C605 C 0.74311 0.88967 0.26754 0.0
C606 C 0.74557 0.89955 0.2758 0.0
C607 C 0.75526 0.89869 0.28449 0.0
H608 H 0.77371 0.09798 0.24716 0.0
H609 H 0.74985 0.07881 0.27345 0.0
H610 H 0.7567 0.098 0.23177 0.0
H611 H 0.73278 0.07909 0.25815 0.0
H612 H 0.70366 0.10065 0.23157 0.0
H613 H 0.72066 0.09921 0.24688 0.0
H614 H 0.74311 0.07898 0.22026 0.0
H615 H 0.726 0.08015 0.20502 0.0
C616 C 0.76484 0.09376 0.24962 0.0
C617 C 0.7631 0.08828 0.26142 0.0
C618 C 0.75516 0.09373 0.24082 0.0
C619 C 0.7435 0.08851 0.24382 0.0
C620 C 0.74172 0.08314 0.25565 0.0
C621 C 0.75149 0.08291 0.26434 0.0
C622 C 0.7122 0.09583 0.22904 0.0
C623 C 0.7135 0.0904 0.21718 0.0
C624 C 0.72187 0.09497 0.23779 0.0
C625 C 0.73312 0.08897 0.23471 0.0
C626 C 0.73449 0.08363 0.22282 0.0
C627 C 0.72469 0.08423 0.21417 0.0
H628 H 0.9111 0.27051 0.75595 0.0
H629 H 0.87269 0.26139 0.7643 0.0
H630 H 0.91265 0.25223 0.74269 0.0
H631 H 0.87387 0.24364 0.75023 0.0
H632 H 0.88263 0.20608 0.73291 0.0
H633 H 0.88209 0.22342 0.74764 0.0
H634 H 0.90611 0.24481 0.72315 0.0
H635 H 0.90691 0.22731 0.70871 0.0
C636 C 0.90307 0.26448 0.75519 0.0
C637 C 0.89191 0.2672 0.76155 0.0
C638 C 0.90384 0.25412 0.7473 0.0
C639 C 0.8934 0.24637 0.74538 0.0
C640 C 0.8822 0.2492 0.75166 0.0
C641 C 0.88148 0.25947 0.75965 0.0
C642 C 0.88784 0.21449 0.73076 0.0
C643 C 0.89499 0.21528 0.7198 0.0
C644 C 0.88748 0.22447 0.73915 0.0
C645 C 0.89409 0.23556 0.73664 0.0
C646 C 0.90116 0.23634 0.72558 0.0
C647 C 0.90164 0.22629 0.71729 0.0
H648 H 0.78067 0.37972 0.2345 0.0
H649 H 0.75952 0.40393 0.21009 0.0
H650 H 0.76304 0.37885 0.24894 0.0
H651 H 0.74175 0.40283 0.22425 0.0
H652 H 0.71571 0.40765 0.25695 0.0
H653 H 0.73412 0.40928 0.24378 0.0
H654 H 0.74277 0.37051 0.25124 0.0
H655 H 0.72487 0.36925 0.26524 0.0
C656 C 0.77222 0.38484 0.23223 0.0
C657 C 0.77153 0.39208 0.22131 0.0
C658 C 0.76208 0.3843 0.24046 0.0
C659 C 0.75094 0.39081 0.23783 0.0
C660 C 0.75026 0.39795 0.22678 0.0
C661 C 0.76045 0.3986 0.21865 0.0
C662 C 0.72179 0.39963 0.25619 0.0
C663 C 0.71907 0.38846 0.26253 0.0
C664 C 0.73221 0.40045 0.24835 0.0
C665 C 0.74002 0.39004 0.24644 0.0
C666 C 0.73716 0.37881 0.25266 0.0
C667 C 0.72682 0.37804 0.26061 0.0
H668 H 0.57526 0.2155 0.75514 0.0
H669 H 0.61407 0.22185 0.76423 0.0
H670 H 0.57503 0.23442 0.74253 0.0
H671 H 0.61416 0.24025 0.75087 0.0
H672 H 0.60779 0.27924 0.73586 0.0
H673 H 0.60698 0.26104 0.74955 0.0
H674 H 0.58242 0.24258 0.72336 0.0
H675 H 0.58303 0.26096 0.70989 0.0
C676 C 0.58367 0.22105 0.75467 0.0
C677 C 0.59455 0.21739 0.76106 0.0
C678 C 0.58364 0.23177 0.74717 0.0
C679 C 0.59456 0.23896 0.74572 0.0
C680 C 0.60549 0.23514 0.75197 0.0
C681 C 0.60548 0.2245 0.75954 0.0
C682 C 0.60218 0.27129 0.73309 0.0
C683 C 0.59531 0.27158 0.72193 0.0
C684 C 0.60176 0.26082 0.74089 0.0
C685 C 0.59463 0.25029 0.7376 0.0
C686 C 0.58779 0.2506 0.72636 0.0
C687 C 0.5881 0.26114 0.71863 0.0
H688 H 0.24552 0.77848 0.10349 0.0
H689 H 0.27665 0.76008 0.08561 0.0
H690 H 0.23284 0.75964 0.10089 0.0
H691 H 0.26399 0.74118 0.08314 0.0
H692 H 0.24144 0.70705 0.10087 0.0
H693 H 0.25422 0.72602 0.10028 0.0
H694 H 0.22398 0.74586 0.08232 0.0
H695 H 0.21123 0.72686 0.08279 0.0
C696 C 0.24958 0.77044 0.09889 0.0
C697 C 0.26199 0.77075 0.09462 0.0
C698 C 0.24233 0.75972 0.09735 0.0
C699 C 0.24745 0.74901 0.09179 0.0
C700 C 0.25984 0.74934 0.08744 0.0
C701 C 0.26702 0.76017 0.08874 0.0
C702 C 0.2376 0.71544 0.09667 0.0
C703 C 0.22543 0.71548 0.09175 0.0
C704 C 0.24492 0.72624 0.09627 0.0
C705 C 0.24007 0.73735 0.09121 0.0
C706 C 0.22791 0.73739 0.08624 0.0
C707 C 0.22068 0.72651 0.08642 0.0
H708 H 0.26354 0.73195 0.42358 0.0
H709 H 0.27108 0.72816 0.38411 0.0
H710 H 0.2483 0.74819 0.41911 0.0
H711 H 0.25555 0.74432 0.37962 0.0
H712 H 0.23766 0.78368 0.3785 0.0
H713 H 0.25252 0.76672 0.38212 0.0
H714 H 0.22777 0.75104 0.40992 0.0
H715 H 0.21295 0.76796 0.40624 0.0
C716 C 0.2619 0.73452 0.41392 0.0
C717 C 0.26857 0.72874 0.4042 0.0
C718 C 0.25308 0.7438 0.41136 0.0
C719 C 0.25066 0.74754 0.39901 0.0
C720 C 0.25729 0.74174 0.38926 0.0
C721 C 0.26614 0.73244 0.39182 0.0
C722 C 0.2354 0.77658 0.38537 0.0
C723 C 0.22431 0.77734 0.39236 0.0
C724 C 0.24388 0.76683 0.3874 0.0
C725 C 0.2414 0.75758 0.39641 0.0
C726 C 0.23012 0.75818 0.40314 0.0
C727 C 0.22166 0.76794 0.40111 0.0
H728 H 0.22231 0.72269 0.87294 0.0
H729 H 0.21407 0.73029 0.91164 0.0
H730 H 0.24065 0.73604 0.87419 0.0
H731 H 0.23296 0.74276 0.91324 0.0
H732 H 0.25999 0.77543 0.90806 0.0
H733 H 0.24161 0.76202 0.9073 0.0
H734 H 0.26104 0.73715 0.88211 0.0
H735 H 0.2792 0.75086 0.8826 0.0
C736 C 0.22454 0.72703 0.8818 0.0
C737 C 0.21693 0.72507 0.8923 0.0
C738 C 0.23515 0.73459 0.88256 0.0
C739 C 0.23845 0.74037 0.89388 0.0
C740 C 0.23074 0.7385 0.90436 0.0
C741 C 0.22003 0.73105 0.90354 0.0
C742 C 0.26037 0.76699 0.90254 0.0
C743 C 0.27106 0.76409 0.89551 0.0
C744 C 0.24983 0.75928 0.90207 0.0
C745 C 0.24978 0.74845 0.89464 0.0
C746 C 0.2606 0.74551 0.88775 0.0
C747 C 0.27106 0.75331 0.88809 0.0
H748 H 0.25905 0.72526 0.56365 0.0
H749 H 0.26236 0.71779 0.6032 0.0
H750 H 0.24271 0.74046 0.56779 0.0
H751 H 0.24611 0.73329 0.60737 0.0
H752 H 0.20668 0.75109 0.60785 0.0
H753 H 0.22377 0.73632 0.60459 0.0
H754 H 0.23961 0.76093 0.57674 0.0
H755 H 0.22252 0.77565 0.58003 0.0
C756 C 0.25636 0.72691 0.57325 0.0
C757 C 0.26202 0.72027 0.5831 0.0
C758 C 0.24703 0.73571 0.57563 0.0
C759 C 0.24312 0.73814 0.58791 0.0
C760 C 0.24881 0.73155 0.59778 0.0
C761 C 0.25816 0.7227 0.5954 0.0
C762 C 0.21384 0.75334 0.60105 0.0
C763 C 0.21308 0.76435 0.59393 0.0
C764 C 0.22367 0.74491 0.59923 0.0
C765 C 0.233 0.74737 0.59031 0.0
C766 C 0.23241 0.75859 0.58346 0.0
C767 C 0.22257 0.767 0.58527 0.0
H768 H 0.90359 0.77833 0.25071 0.0
H769 H 0.91541 0.74792 0.27461 0.0
H770 H 0.90087 0.7637 0.23349 0.0
H771 H 0.91292 0.7334 0.25737 0.0
H772 H 0.91709 0.73708 0.20326 0.0
H773 H 0.91514 0.75187 0.22034 0.0
H774 H 0.89827 0.72324 0.24329 0.0
H775 H 0.90044 0.70833 0.22624 0.0
C776 C 0.90549 0.76852 0.25233 0.0
C777 C 0.90983 0.76432 0.26402 0.0
C778 C 0.90399 0.76015 0.24244 0.0
C779 C 0.90676 0.7474 0.24402 0.0
C780 C 0.91057 0.74313 0.25585 0.0
C781 C 0.91209 0.75149 0.26573 0.0
C782 C 0.91283 0.73396 0.21189 0.0
C783 C 0.90905 0.72148 0.21341 0.0
C784 C 0.91163 0.74247 0.22167 0.0
C785 C 0.90661 0.73872 0.23321 0.0
C786 C 0.90234 0.72638 0.23457 0.0
C787 C 0.90353 0.71785 0.22478 0.0
H788 H 0.22414 0.39332 0.76929 0.0
H789 H 0.20935 0.42187 0.74476 0.0
H790 H 0.24182 0.39037 0.75514 0.0
H791 H 0.22703 0.41911 0.73085 0.0
H792 H 0.25591 0.40744 0.70351 0.0
H793 H 0.23722 0.40526 0.71633 0.0
H794 H 0.26027 0.4024 0.74937 0.0
H795 H 0.27897 0.40427 0.73653 0.0
C796 C 0.22459 0.39888 0.76084 0.0
C797 C 0.21536 0.40789 0.75821 0.0
C798 C 0.23475 0.39723 0.75276 0.0
C799 C 0.23587 0.40452 0.74187 0.0
C800 C 0.2264 0.4132 0.73905 0.0
C801 C 0.21628 0.41486 0.7471 0.0
C802 C 0.25701 0.40615 0.71349 0.0
C803 C 0.26894 0.40619 0.71901 0.0
C804 C 0.24629 0.40495 0.72084 0.0
C805 C 0.24723 0.40383 0.7339 0.0
C806 C 0.25919 0.40316 0.73934 0.0
C807 C 0.26993 0.40431 0.73197 0.0
H808 H 0.57757 0.75493 0.20317 0.0
H809 H 0.59259 0.78327 0.22761 0.0
H810 H 0.57926 0.7396 0.21988 0.0
H811 H 0.59445 0.76781 0.24432 0.0
H812 H 0.57581 0.74178 0.27395 0.0
H813 H 0.57906 0.7569 0.25729 0.0
H814 H 0.59331 0.72767 0.23347 0.0
H815 H 0.58989 0.71243 0.25012 0.0
C816 C 0.58143 0.75785 0.21205 0.0
C817 C 0.58481 0.77037 0.21409 0.0
C818 C 0.58248 0.74903 0.22161 0.0
C819 C 0.58691 0.7525 0.23346 0.0
C820 C 0.59085 0.76488 0.23534 0.0
C821 C 0.58984 0.77372 0.22574 0.0
C822 C 0.57978 0.73857 0.26522 0.0
C823 C 0.58246 0.72586 0.26333 0.0
C824 C 0.58173 0.74728 0.25569 0.0
C825 C 0.58639 0.74349 0.24403 0.0
C826 C 0.58956 0.73086 0.2423 0.0
C827 C 0.58765 0.72214 0.25186 0.0
H828 H 0.28051 0.09004 0.74924 0.0
H829 H 0.25767 0.07189 0.77718 0.0
H830 H 0.26209 0.09294 0.7361 0.0
H831 H 0.23936 0.07456 0.76396 0.0
H832 H 0.20664 0.08628 0.7405 0.0
H833 H 0.22467 0.08898 0.75422 0.0
H834 H 0.2493 0.07868 0.72397 0.0
H835 H 0.23139 0.07621 0.71023 0.0
C836 C 0.27155 0.0868 0.75265 0.0
C837 C 0.2706 0.08061 0.76421 0.0
C838 C 0.261 0.0884 0.74509 0.0
C839 C 0.24927 0.08388 0.74892 0.0
C840 C 0.24822 0.07827 0.76076 0.0
C841 C 0.25875 0.07666 0.76832 0.0
C842 C 0.21592 0.08478 0.73672 0.0
C843 C 0.21755 0.0809 0.72429 0.0
C844 C 0.22624 0.08627 0.74461 0.0
C845 C 0.23842 0.08395 0.74023 0.0
C846 C 0.24007 0.08067 0.72763 0.0
C847 C 0.22977 0.07917 0.71976 0.0
H848 H 0.20985 0.91164 0.73558 0.0
H849 H 0.23583 0.89715 0.70829 0.0
H850 H 0.22534 0.90856 0.75191 0.0
H851 H 0.25127 0.89381 0.72474 0.0
H852 H 0.27969 0.91009 0.75338 0.0
H853 H 0.2641 0.90773 0.73705 0.0
H854 H 0.23757 0.89403 0.76424 0.0
H855 H 0.25313 0.89667 0.7807 0.0
C856 C 0.21878 0.90757 0.73309 0.0
C857 C 0.22164 0.9048 0.72059 0.0
C858 C 0.22765 0.90572 0.74249 0.0
C859 C 0.23959 0.90102 0.73963 0.0
C860 C 0.24223 0.89763 0.72722 0.0
C861 C 0.23335 0.89949 0.7178 0.0
C862 C 0.2706 0.9064 0.75588 0.0
C863 C 0.26762 0.90372 0.76839 0.0
C864 C 0.26167 0.90496 0.74647 0.0
C865 C 0.24954 0.90078 0.74934 0.0
C866 C 0.24677 0.89746 0.76175 0.0
C867 C 0.25571 0.89891 0.77117 0.0
H868 H 0.09168 0.73949 0.2013 0.0
H869 H 0.07698 0.71116 0.22607 0.0
H870 H 0.09458 0.75344 0.21905 0.0
H871 H 0.07966 0.72515 0.2437 0.0
H872 H 0.09114 0.7503 0.27487 0.0
H873 H 0.09414 0.73634 0.25714 0.0
H874 H 0.08012 0.76495 0.23227 0.0
H875 H 0.07736 0.77896 0.24989 0.0
C876 C 0.08921 0.73617 0.21053 0.0
C877 C 0.08397 0.72425 0.21224 0.0
C878 C 0.09082 0.7442 0.2207 0.0
C879 C 0.08726 0.74046 0.23278 0.0
C880 C 0.08262 0.7283 0.23455 0.0
C881 C 0.081 0.72029 0.22441 0.0
C882 C 0.0889 0.75369 0.26559 0.0
C883 C 0.08388 0.76571 0.26382 0.0
C884 C 0.09056 0.74566 0.25544 0.0
C885 C 0.08726 0.74948 0.24331 0.0
C886 C 0.08287 0.76173 0.24147 0.0
C887 C 0.08121 0.76975 0.2516 0.0
H888 H 0.21127 0.57827 0.75289 0.0
H889 H 0.23916 0.59034 0.77947 0.0
H890 H 0.22631 0.58065 0.73605 0.0
H891 H 0.25417 0.59297 0.76251 0.0
H892 H 0.28028 0.57528 0.73248 0.0
H893 H 0.26554 0.57842 0.74944 0.0
H894 H 0.23905 0.59463 0.72357 0.0
H895 H 0.25374 0.59124 0.70648 0.0
C896 C 0.22054 0.58166 0.75513 0.0
C897 C 0.22404 0.58396 0.76757 0.0
C898 C 0.22916 0.58311 0.74543 0.0
C899 C 0.24149 0.58692 0.74794 0.0
C900 C 0.2448 0.58984 0.7603 0.0
C901 C 0.23617 0.58839 0.77001 0.0
C902 C 0.2714 0.57969 0.73041 0.0
C903 C 0.26814 0.58285 0.71808 0.0
C904 C 0.26296 0.58157 0.74018 0.0
C905 C 0.25106 0.58668 0.73786 0.0
C906 C 0.24807 0.59049 0.72564 0.0
C907 C 0.25652 0.5886 0.71585 0.0
H908 H 0.39873 0.73701 0.27831 0.0
H909 H 0.40976 0.70617 0.25478 0.0
H910 H 0.39598 0.75012 0.25983 0.0
H911 H 0.40721 0.71931 0.2364 0.0
H912 H 0.39643 0.74389 0.20426 0.0
H913 H 0.39306 0.73117 0.2229 0.0
H914 H 0.41099 0.75943 0.24536 0.0
H915 H 0.41419 0.7722 0.22683 0.0
C916 C 0.40037 0.73296 0.2692 0.0
C917 C 0.40461 0.72058 0.26804 0.0
C918 C 0.39886 0.7405 0.25862 0.0
C919 C 0.4015 0.73581 0.24665 0.0
C920 C 0.405 0.72321 0.24546 0.0
C921 C 0.40654 0.71568 0.25602 0.0
C922 C 0.39948 0.74748 0.2132 0.0
C923 C 0.40571 0.75902 0.21402 0.0
C924 C 0.39759 0.74016 0.22388 0.0
C925 C 0.40184 0.74424 0.2356 0.0
C926 C 0.40749 0.75605 0.2365 0.0
C927 C 0.4094 0.76335 0.22584 0.0
H928 H 0.77726 0.24967 0.89753 0.0
H929 H 0.75223 0.27796 0.91182 0.0
H930 H 0.75959 0.23554 0.8948 0.0
H931 H 0.73467 0.26377 0.90932 0.0
H932 H 0.7037 0.23814 0.8978 0.0
H933 H 0.72133 0.25232 0.89495 0.0
H934 H 0.7464 0.22406 0.90933 0.0
H935 H 0.72889 0.20983 0.91196 0.0
C936 C 0.76798 0.25294 0.89995 0.0
C937 C 0.76619 0.26491 0.90502 0.0
C938 C 0.75787 0.24481 0.89845 0.0
C939 C 0.74574 0.24848 0.90194 0.0
C940 C 0.74387 0.26067 0.90641 0.0
C941 C 0.75397 0.26879 0.90793 0.0
C942 C 0.713 0.23488 0.90017 0.0
C943 C 0.71486 0.22289 0.90523 0.0
C944 C 0.72309 0.24303 0.89859 0.0
C945 C 0.73526 0.23936 0.902 0.0
C946 C 0.73718 0.22716 0.90648 0.0
C947 C 0.7271 0.21902 0.90807 0.0
H948 H 0.70868 0.25412 0.58896 0.0
H949 H 0.73618 0.27878 0.57259 0.0
H950 H 0.72467 0.23805 0.5915 0.0
H951 H 0.75205 0.26265 0.57491 0.0
H952 H 0.75105 0.20832 0.57393 0.0
H953 H 0.73561 0.22474 0.57672 0.0
H954 H 0.76463 0.2499 0.58907 0.0
H955 H 0.7802 0.23348 0.58605 0.0
C956 C 0.71816 0.25618 0.58605 0.0
C957 C 0.72111 0.2677 0.58044 0.0
C958 C 0.72731 0.24694 0.58745 0.0
C959 C 0.73961 0.24901 0.58329 0.0
C960 C 0.7427 0.26077 0.57831 0.0
C961 C 0.73356 0.27 0.5769 0.0
C962 C 0.75415 0.2173 0.57738 0.0
C963 C 0.76689 0.21961 0.57963 0.0
C964 C 0.74526 0.2267 0.57908 0.0
C965 C 0.74889 0.23866 0.58307 0.0
C966 C 0.76156 0.24083 0.58583 0.0
C967 C 0.77047 0.2314 0.58416 0.0
H968 H 0.77789 0.2516 0.07268 0.0
H969 H 0.7548 0.28153 0.08687 0.0
H970 H 0.76054 0.23713 0.07505 0.0
H971 H 0.73746 0.26694 0.08944 0.0
H972 H 0.7064 0.2415 0.07259 0.0
H973 H 0.72371 0.25603 0.07492 0.0
H974 H 0.7468 0.22632 0.08968 0.0
H975 H 0.72952 0.21168 0.08715 0.0
C976 C 0.76917 0.25506 0.0765 0.0
C977 C 0.7677 0.26776 0.07946 0.0
C978 C 0.75924 0.24673 0.07794 0.0
C979 C 0.74759 0.25089 0.08238 0.0
C980 C 0.74627 0.26348 0.08584 0.0
C981 C 0.75623 0.27183 0.08442 0.0
C982 C 0.71511 0.23808 0.07648 0.0
C983 C 0.71661 0.22539 0.07955 0.0
C984 C 0.72502 0.24644 0.0779 0.0
C985 C 0.73666 0.24232 0.08241 0.0
C986 C 0.73799 0.22975 0.08601 0.0
C987 C 0.72807 0.22137 0.08461 0.0
H988 H 0.70423 0.25172 0.40928 0.0
H989 H 0.73552 0.27616 0.40183 0.0
H990 H 0.71774 0.23362 0.40635 0.0
H991 H 0.74906 0.25806 0.39919 0.0
H992 H 0.76954 0.22284 0.3884 0.0
H993 H 0.7542 0.23969 0.38687 0.0
H994 H 0.73439 0.22443 0.41857 0.0
H995 H 0.74949 0.20752 0.41995 0.0
C996 C 0.71396 0.25324 0.4069 0.0
C997 C 0.71882 0.2654 0.40592 0.0
C998 C 0.72171 0.24286 0.40529 0.0
C999 C 0.73451 0.24438 0.40267 0.0
C1000 C 0.73923 0.25654 0.40109 0.0
C1001 C 0.73147 0.26693 0.40268 0.0
C1002 C 0.76181 0.22299 0.39493 0.0
C1003 C 0.7608 0.21387 0.40435 0.0
C1004 C 0.75306 0.23269 0.39409 0.0
C1005 C 0.7431 0.23345 0.40263 0.0
C1006 C 0.74185 0.22406 0.41174 0.0
C1007 C 0.75058 0.21439 0.41259 0.0
H1008 H 0.02654 0.23825 0.70774 0.0
H1009 H 0.02905 0.19991 0.72023 0.0
H1010 H 0.00388 0.2376 0.71028 0.0
H1011 H 0.00641 0.19921 0.72254 0.0
H1012 H 0.96635 0.20488 0.73506 0.0
H1013 H 0.98902 0.20739 0.73476 0.0
H1014 H 0.98627 0.22757 0.69987 0.0
H1015 H 0.96362 0.22527 0.70028 0.0
C1016 C 0.02228 0.2297 0.71108 0.0
C1017 C 0.02961 0.21911 0.71372 0.0
C1018 C 0.00928 0.22931 0.71247 0.0
C1019 C 0.00333 0.21834 0.71656 0.0
C1020 C 0.0107 0.20786 0.7195 0.0
C1021 C 0.02369 0.20823 0.7181 0.0
C1022 C 0.97057 0.20995 0.72738 0.0
C1023 C 0.96317 0.21482 0.71766 0.0
C1024 C 0.98357 0.21132 0.72717 0.0
C1025 C 0.98946 0.21762 0.71726 0.0
C1026 C 0.98203 0.22279 0.70772 0.0
C1027 C 0.96903 0.2214 0.70791 0.0
H1028 H 0.74873 0.52376 0.20961 0.0
H1029 H 0.78522 0.52511 0.22692 0.0
H1030 H 0.74861 0.50107 0.2118 0.0
H1031 H 0.78517 0.50245 0.22891 0.0
H1032 H 0.7619 0.461 0.20213 0.0
H1033 H 0.75975 0.48364 0.20222 0.0
H1034 H 0.77517 0.48488 0.23949 0.0
H1035 H 0.77753 0.46222 0.23933 0.0
C1036 C 0.75669 0.51923 0.21394 0.0
C1037 C 0.76702 0.52624 0.21802 0.0
C1038 C 0.75664 0.50623 0.21514 0.0
C1039 C 0.7669 0.49995 0.22047 0.0
C1040 C 0.77706 0.507 0.22488 0.0
C1041 C 0.77712 0.51999 0.22367 0.0
C1042 C 0.76474 0.46608 0.21039 0.0
C1043 C 0.76998 0.4598 0.22068 0.0
C1044 C 0.76343 0.47906 0.21047 0.0
C1045 C 0.76734 0.48607 0.22084 0.0
C1046 C 0.77224 0.47976 0.23128 0.0
C1047 C 0.77353 0.46676 0.23121 0.0
H1048 H 0.52454 0.28125 0.73696 0.0
H1049 H 0.52748 0.26497 0.70018 0.0
H1050 H 0.50189 0.27863 0.73631 0.0
H1051 H 0.50484 0.26257 0.69946 0.0
H1052 H 0.46471 0.25063 0.70603 0.0
H1053 H 0.48736 0.25121 0.70872 0.0
H1054 H 0.48441 0.28798 0.72497 0.0
H1055 H 0.46178 0.28732 0.72249 0.0
C1056 C 0.52037 0.27706 0.72875 0.0
C1057 C 0.52782 0.27338 0.71859 0.0
C1058 C 0.50738 0.27563 0.72836 0.0
C1059 C 0.50155 0.27044 0.71781 0.0
C1060 C 0.50904 0.26646 0.70778 0.0
C1061 C 0.52202 0.26792 0.70817 0.0
C1062 C 0.46888 0.2588 0.71027 0.0
C1063 C 0.46144 0.26896 0.71398 0.0
C1064 C 0.48187 0.25915 0.71175 0.0
C1065 C 0.4877 0.26966 0.717 0.0
C1066 C 0.48021 0.27968 0.72102 0.0
C1067 C 0.46723 0.27934 0.71952 0.0
H1068 H 0.71554 0.96031 0.21941 0.0
H1069 H 0.67961 0.95868 0.20099 0.0
H1070 H 0.71639 0.9827 0.21577 0.0
H1071 H 0.68063 0.98112 0.19702 0.0
H1072 H 0.71922 0.02136 0.19895 0.0
H1073 H 0.7186 -0.00139 0.20013 0.0
H1074 H 0.67915 0.00018 0.20878 0.0
H1075 H 0.6797 0.02284 0.20726 0.0
C1076 C 0.70788 0.96471 0.21444 0.0
C1077 C 0.69746 0.95771 0.21056 0.0
C1078 C 0.70841 0.97756 0.21227 0.0
C1079 C 0.69857 0.98374 0.20612 0.0
C1080 C 0.68829 0.97669 0.20195 0.0
C1081 C 0.68773 0.96381 0.20416 0.0
C1082 C 0.71041 0.01684 0.20105 0.0
C1083 C 0.69952 0.02392 0.20306 0.0
C1084 C 0.71006 0.0038 0.20177 0.0
C1085 C 0.69883 -0.00245 0.20458 0.0
C1086 C 0.68792 0.00466 0.20641 0.0
C1087 C 0.68826 0.01767 0.20564 0.0
H1088 H 0.96327 0.30423 0.77532 0.0
H1089 H 0.96164 0.2639 0.77468 0.0
H1090 H 0.98599 0.30328 0.77649 0.0
H1091 H 0.98442 0.26297 0.77604 0.0
H1092 H 0.02457 0.2964 0.79358 0.0
H1093 H 0.0019 0.29705 0.79164 0.0
H1094 H 0.0034 0.26785 0.76392 0.0
H1095 H 0.02614 0.26705 0.76599 0.0
C1096 C 0.96775 0.29515 0.77544 0.0
C1097 C 0.96063 0.28414 0.77495 0.0
C1098 C 0.98078 0.29461 0.77618 0.0
C1099 C 0.98701 0.28305 0.77642 0.0
C1100 C 0.97991 0.27203 0.77576 0.0
C1101 C 0.96685 0.27256 0.77505 0.0
C1102 C 0.02009 0.29012 0.78706 0.0
C1103 C 0.02718 0.28168 0.77993 0.0
C1104 C 0.00709 0.29054 0.7859 0.0
C1105 C 0.00085 0.28253 0.7776 0.0
C1106 C 0.00792 0.27406 0.77049 0.0
C1107 C 0.02096 0.27366 0.77162 0.0
H1108 H 0.72717 0.45608 0.27998 0.0
H1109 H 0.69188 0.46134 0.26096 0.0
H1110 H 0.72998 0.47866 0.28086 0.0
H1111 H 0.69455 0.48388 0.26212 0.0
H1112 H 0.70761 0.52377 0.25694 0.0
H1113 H 0.7068 0.50117 0.2543 0.0
H1114 H 0.72094 0.4962 0.2918 0.0
H1115 H 0.72203 0.51875 0.29432 0.0
C1116 C 0.72002 0.46205 0.27598 0.0
C1117 C 0.70927 0.45691 0.27045 0.0
C1118 C 0.7216 0.475 0.27654 0.0
C1119 C 0.71247 0.48309 0.27161 0.0
C1120 C 0.70185 0.47792 0.26587 0.0
C1121 C 0.70028 0.46499 0.26528 0.0
C1122 C 0.71063 0.51785 0.26458 0.0
C1123 C 0.71483 0.52307 0.27586 0.0
C1124 C 0.7101 0.50489 0.2631 0.0
C1125 C 0.71375 0.49686 0.27286 0.0
C1126 C 0.71821 0.5021 0.28403 0.0
C1127 C 0.71875 0.51505 0.28551 0.0
H1128 H 0.45729 0.20693 0.76057 0.0
H1129 H 0.46408 0.224 0.79645 0.0
H1130 H 0.47978 0.20519 0.75717 0.0
H1131 H 0.48653 0.22201 0.79318 0.0
H1132 H 0.52623 0.22668 0.77882 0.0
H1133 H 0.50372 0.22987 0.78071 0.0
H1134 H 0.49724 0.19322 0.76524 0.0
H1135 H 0.5197 0.19014 0.7631 0.0
C1136 C 0.46357 0.21031 0.76773 0.0
C1137 C 0.45888 0.21557 0.7788 0.0
C1138 C 0.47647 0.20926 0.76581 0.0
C1139 C 0.48496 0.21343 0.77492 0.0
C1140 C 0.48026 0.21885 0.7859 0.0
C1141 C 0.46737 0.21992 0.78781 0.0
C1142 C 0.52 0.21933 0.77576 0.0
C1143 C 0.52477 0.20814 0.77085 0.0
C1144 C 0.50709 0.22114 0.77691 0.0
C1145 C 0.49867 0.21179 0.77317 0.0
C1146 C 0.50345 0.20068 0.76807 0.0
C1147 C 0.51634 0.19888 0.76691 0.0
H1148 H 0.77884 0.01638 0.2554 0.0
H1149 H 0.75233 0.02075 0.28553 0.0
H1150 H 0.77771 -0.00623 0.25772 0.0
H1151 H 0.75138 -0.00188 0.28798 0.0
H1152 H 0.74493 0.95642 0.28235 0.0
H1153 H 0.74457 0.9788 0.27793 0.0
H1154 H 0.78467 0.97842 0.27303 0.0
H1155 H 0.78502 0.95607 0.27723 0.0
C1156 C 0.77273 0.01253 0.26248 0.0
C1157 C 0.76573 0.02038 0.27032 0.0
C1158 C 0.77214 -0.00044 0.26385 0.0
C1159 C 0.76452 -0.00586 0.27309 0.0
C1160 C 0.75725 0.00199 0.28069 0.0
C1161 C 0.75784 0.01496 0.27933 0.0
C1162 C 0.75366 0.9611 0.28025 0.0
C1163 C 0.76501 0.95446 0.28018 0.0
C1164 C 0.75345 0.97394 0.27778 0.0
C1165 C 0.76459 0.9804 0.27515 0.0
C1166 C 0.7759 0.9737 0.27487 0.0
C1167 C 0.77611 0.96089 0.27736 0.0
H1168 H 0.23683 0.70839 0.02246 0.0
H1169 H 0.1999 0.72447 0.02587 0.0
H1170 H 0.23584 0.71103 -0.00014 0.0
H1171 H 0.19885 0.72693 0.00327 0.0
H1172 H 0.20514 0.739 0.96301 0.0
H1173 H 0.20796 0.73837 0.98561 0.0
H1174 H 0.22416 0.70151 0.98267 0.0
H1175 H 0.22153 0.7022 0.96009 0.0
C1176 C 0.22853 0.71254 0.01841 0.0
C1177 C 0.21841 0.71616 0.02597 0.0
C1178 C 0.22794 0.71399 0.00545 0.0
C1179 C 0.21724 0.71912 -0.00024 0.0
C1180 C 0.20727 0.72306 0.00736 0.0
C1181 C 0.20785 0.72158 0.02032 0.0
C1182 C 0.20939 0.7308 0.96717 0.0
C1183 C 0.21306 0.72063 0.95974 0.0
C1184 C 0.21094 0.73041 0.98013 0.0
C1185 C 0.21624 0.71988 0.98594 0.0
C1186 C 0.22017 0.70983 0.97848 0.0
C1187 C 0.21859 0.71019 0.96553 0.0
H1188 H 0.22317 0.80251 0.46598 0.0
H1189 H 0.20188 0.76915 0.45811 0.0
H1190 H 0.22032 0.79901 0.48828 0.0
H1191 H 0.19926 0.76553 0.48044 0.0
H1192 H 0.18421 0.77229 0.5201 0.0
H1193 H 0.18797 0.7747 0.49781 0.0
H1194 H 0.22623 0.7852 0.50534 0.0
H1195 H 0.22241 0.78304 0.5277 0.0
C1196 C 0.21797 0.79437 0.469 0.0
C1197 C 0.2127 0.78614 0.46025 0.0
C1198 C 0.2164 0.79232 0.4818 0.0
C1199 C 0.20954 0.782 0.48616 0.0
C1200 C 0.20445 0.77366 0.4774 0.0
C1201 C 0.20601 0.77571 0.4646 0.0
C1202 C 0.19344 0.77507 0.51702 0.0
C1203 C 0.20299 0.77751 0.5257 0.0
C1204 C 0.19562 0.77638 0.50421 0.0
C1205 C 0.2074 0.78015 0.49977 0.0
C1206 C 0.217 0.78244 0.50845 0.0
C1207 C 0.21483 0.78113 0.52127 0.0
H1208 H 0.30974 0.69737 0.46466 0.0
H1209 H 0.29009 0.66252 0.45948 0.0
H1210 H 0.31017 0.69378 0.48703 0.0
H1211 H 0.29089 0.65871 0.48193 0.0
H1212 H 0.27548 0.66952 0.52113 0.0
H1213 H 0.2798 0.66774 0.49898 0.0
H1214 H 0.31698 0.68239 0.50495 0.0
H1215 H 0.31246 0.68457 0.52717 0.0
C1216 C 0.30579 0.68877 0.46826 0.0
C1217 C 0.29967 0.68034 0.46029 0.0
C1218 C 0.30612 0.68666 0.48113 0.0
C1219 C 0.30042 0.67602 0.48634 0.0
C1220 C 0.29514 0.66713 0.47826 0.0
C1221 C 0.29474 0.66928 0.46537 0.0
C1222 C 0.28466 0.67217 0.51778 0.0
C1223 C 0.29354 0.6774 0.52589 0.0
C1224 C 0.28719 0.67105 0.50504 0.0
C1225 C 0.2987 0.67506 0.50011 0.0
C1226 C 0.30792 0.67945 0.50839 0.0
C1227 C 0.30536 0.68063 0.52114 0.0
H1228 H 0.28895 0.75129 0.96758 0.0
H1229 H 0.26197 0.7812 0.96416 0.0
H1230 H 0.2865 0.75161 0.9902 0.0
H1231 H 0.25969 0.78164 0.9868 0.0
H1232 H 0.25078 0.77223 0.02728 0.0
H1233 H 0.25195 0.76969 0.00468 0.0
H1234 H 0.29207 0.76562 0.00724 0.0
H1235 H 0.2909 0.76795 0.02982 0.0
C1236 C 0.28246 0.7579 0.97164 0.0
C1237 C 0.27571 0.76626 0.96405 0.0
C1238 C 0.28111 0.75813 0.98462 0.0
C1239 C 0.27295 0.7667 0.99031 0.0
C1240 C 0.26596 0.77484 0.9827 0.0
C1241 C 0.26732 0.77463 0.96972 0.0
C1242 C 0.25985 0.77071 0.02303 0.0
C1243 C 0.27076 0.77034 0.03036 0.0
C1244 C 0.26052 0.76932 0.01007 0.0
C1245 C 0.27211 0.76749 0.00415 0.0
C1246 C 0.28298 0.76686 0.01151 0.0
C1247 C 0.28231 0.76827 0.02446 0.0
H1248 H 0.97024 0.76635 0.31837 0.0
H1249 H 0.96213 0.80452 0.30795 0.0
H1250 H 0.99235 0.7713 0.31961 0.0
H1251 H 0.98432 0.8096 0.30954 0.0
H1252 H 0.02469 0.80631 0.2934 0.0
H1253 H 0.00231 0.8049 0.29701 0.0
H1254 H 0.00904 0.78216 0.32974 0.0
H1255 H 0.03149 0.78327 0.32589 0.0
C1256 C 0.97314 0.77588 0.3166 0.0
C1257 C 0.96443 0.78499 0.31289 0.0
C1258 C 0.98585 0.77875 0.31741 0.0
C1259 C 0.99016 0.79084 0.31458 0.0
C1260 C 0.98135 0.80014 0.31157 0.0
C1261 C 0.96861 0.79725 0.31073 0.0
C1262 C 0.02143 0.80118 0.30149 0.0
C1263 C 0.02988 0.79474 0.30924 0.0
C1264 C 0.00856 0.80043 0.30362 0.0
C1265 C 0.00384 0.79329 0.3136 0.0
C1266 C 0.01235 0.78753 0.32183 0.0
C1267 C 0.02523 0.78823 0.31966 0.0
H1268 H 0.17085 0.53048 0.79873 0.0
H1269 H 0.20895 0.52318 0.81011 0.0
H1270 H 0.16625 0.50819 0.80003 0.0
H1271 H 0.20448 0.50098 0.81106 0.0
H1272 H 0.1932 0.46158 0.81687 0.0
H1273 H 0.19369 0.48399 0.82083 0.0
H1274 H 0.17173 0.49041 0.78753 0.0
H1275 H 0.17093 0.46806 0.78379 0.0
C1276 C 0.1782 0.52415 0.80166 0.0
C1277 C 0.19031 0.5286 0.80418 0.0
C1278 C 0.17559 0.51136 0.80233 0.0
C1279 C 0.18502 0.50275 0.80552 0.0
C1280 C 0.19693 0.50731 0.8087 0.0
C1281 C 0.19953 0.52008 0.80806 0.0
C1282 C 0.18827 0.46776 0.81053 0.0
C1283 C 0.18217 0.46303 0.79992 0.0
C1284 C 0.18862 0.48062 0.81276 0.0
C1285 C 0.1829 0.48905 0.80441 0.0
C1286 C 0.17615 0.48423 0.79423 0.0
C1287 C 0.17576 0.47138 0.79203 0.0
H1288 H 0.5206 0.72261 0.31679 0.0
H1289 H 0.5283 0.68432 0.30673 0.0
H1290 H 0.4986 0.71762 0.31924 0.0
H1291 H 0.50623 0.67921 0.30954 0.0
H1292 H 0.46485 0.68186 0.29605 0.0
H1293 H 0.48741 0.68355 0.29811 0.0
H1294 H 0.48269 0.70687 0.33065 0.0
H1295 H 0.46004 0.70549 0.32835 0.0
C1296 C 0.51764 0.71305 0.31533 0.0
C1297 C 0.5262 0.7039 0.31141 0.0
C1298 C 0.505 0.71016 0.31684 0.0
C1299 C 0.50059 0.69801 0.31452 0.0
C1300 C 0.50927 0.6887 0.31121 0.0
C1301 C 0.52194 0.69161 0.30966 0.0
C1302 C 0.4686 0.68719 0.30377 0.0
C1303 C 0.46062 0.6937 0.31192 0.0
C1304 C 0.48158 0.68809 0.305 0.0
C1305 C 0.4869 0.69547 0.31446 0.0
C1306 C 0.47891 0.70132 0.3231 0.0
C1307 C 0.46592 0.70047 0.32182 0.0
H1308 H 0.29435 0.95884 0.82561 0.0
H1309 H 0.31372 0.9614 0.79029 0.0
H1310 H 0.29524 0.9815 0.82767 0.0
H1311 H 0.31425 0.98399 0.79213 0.0
H1312 H 0.31807 0.02476 0.7998 0.0
H1313 H 0.32166 0.00237 0.80238 0.0
H1314 H 0.28448 -0.00173 0.81766 0.0
H1315 H 0.28107 0.02057 0.81546 0.0
C1316 C 0.29893 0.96421 0.81835 0.0
C1317 C 0.30382 0.95831 0.80771 0.0
C1318 C 0.29937 0.97722 0.81949 0.0
C1319 C 0.30466 0.98462 0.80999 0.0
C1320 C 0.3102 0.97863 0.7997 0.0
C1321 C 0.30982 0.96563 0.7986 0.0
C1322 C 0.31076 0.01909 0.80391 0.0
C1323 C 0.29924 0.02444 0.80731 0.0
C1324 C 0.31279 0.00625 0.80532 0.0
C1325 C 0.30333 -0.00153 0.81013 0.0
C1326 C 0.29205 0.00395 0.81408 0.0
C1327 C 0.29005 0.01677 0.81272 0.0
H1328 H 0.96314 0.69076 0.16146 0.0
H1329 H 0.9643 0.67469 0.1985 0.0
H1330 H 0.98557 0.68711 0.15924 0.0
H1331 H 0.98666 0.67137 0.19644 0.0
H1332 H 0.02629 0.6617 0.18886 0.0
H1333 H 0.00363 0.66066 0.1865 0.0
H1334 H 0.00388 0.69662 0.16808 0.0
H1335 H 0.0265 0.69749 0.17012 0.0
C1336 C 0.96814 0.68631 0.16907 0.0
C1337 C 0.96195 0.68314 0.18022 0.0
C1338 C 0.98101 0.68428 0.16782 0.0
C1339 C 0.98797 0.67906 0.1777 0.0
C1340 C 0.98162 0.67529 0.18857 0.0
C1341 C 0.96877 0.67728 0.1898 0.0
C1342 C 0.02153 0.66928 0.1841 0.0
C1343 C 0.02819 0.67976 0.17982 0.0
C1344 C 0.00852 0.66871 0.18281 0.0
C1345 C 0.00189 0.67863 0.17725 0.0
C1346 C 0.00866 0.68875 0.17232 0.0
C1347 C 0.02166 0.6893 0.17356 0.0
H1348 H 0.29083 0.52658 0.65873 0.0
H1349 H 0.31124 0.52286 0.69338 0.0
H1350 H 0.29141 0.50398 0.65607 0.0
H1351 H 0.31147 0.50032 0.69093 0.0
H1352 H 0.31485 0.45974 0.68184 0.0
H1353 H 0.31847 0.48218 0.67988 0.0
H1354 H 0.28081 0.48703 0.66599 0.0
H1355 H 0.27735 0.4647 0.66759 0.0
C1356 C 0.29556 0.52097 0.66571 0.0
C1357 C 0.30085 0.52653 0.67634 0.0
C1358 C 0.29583 0.50799 0.66422 0.0
C1359 C 0.30134 0.50028 0.67337 0.0
C1360 C 0.30724 0.50593 0.68364 0.0
C1361 C 0.30704 0.51889 0.68509 0.0
C1362 C 0.30742 0.46559 0.67817 0.0
C1363 C 0.29576 0.46044 0.67498 0.0
C1364 C 0.30947 0.47846 0.67711 0.0
C1365 C 0.2999 0.48646 0.67287 0.0
C1366 C 0.28846 0.48118 0.66914 0.0
C1367 C 0.28643 0.46834 0.67015 0.0
H1368 H 0.52662 0.78894 0.16814 0.0
H1369 H 0.52749 0.82322 0.18933 0.0
H1370 H 0.50389 0.7893 0.16848 0.0
H1371 H 0.5047 0.8238 0.18932 0.0
H1372 H 0.46696 0.80876 0.20391 0.0
H1373 H 0.48905 0.81212 0.20005 0.0
H1374 H 0.48453 0.79879 0.16226 0.0
H1375 H 0.46235 0.79506 0.16628 0.0
C1376 C 0.52196 0.79672 0.17263 0.0
C1377 C 0.52888 0.80596 0.17887 0.0
C1378 C 0.50889 0.79696 0.17276 0.0
C1379 C 0.50242 0.8065 0.17906 0.0
C1380 C 0.50937 0.81617 0.18461 0.0
C1381 C 0.52244 0.81588 0.18455 0.0
C1382 C 0.47061 0.80667 0.19472 0.0
C1383 C 0.46289 0.80152 0.18545 0.0
C1384 C 0.48331 0.8087 0.19246 0.0
C1385 C 0.48862 0.8057 0.18084 0.0
C1386 C 0.48079 0.80104 0.17137 0.0
C1387 C 0.46806 0.79896 0.17366 0.0
H1388 H 0.20984 0.02191 0.67163 0.0
H1389 H 0.17243 0.02667 0.68613 0.0
H1390 H 0.20636 -0.0004 0.66985 0.0
H1391 H 0.16879 0.00427 0.68398 0.0
H1392 H 0.17623 0.96349 0.69733 0.0
H1393 H 0.17587 0.98605 0.69492 0.0
H1394 H 0.19573 0.98272 0.65994 0.0
H1395 H 0.19643 0.9601 0.66256 0.0
C1396 C 0.20077 0.01823 0.67421 0.0
C1397 C 0.19147 0.02606 0.67918 0.0
C1398 C 0.19873 0.00541 0.67309 0.0
C1399 C 0.18731 8e-05 0.67685 0.0
C1400 C 0.17776 0.00802 0.68119 0.0
C1401 C 0.17983 0.02087 0.68236 0.0
C1402 C 0.18035 0.96753 0.68902 0.0
C1403 C 0.18653 0.95999 0.68023 0.0
C1404 C 0.18007 0.9805 0.68759 0.0
C1405 C 0.1859 0.98625 0.67729 0.0
C1406 C 0.19137 0.97863 0.66811 0.0
C1407 C 0.19171 0.96565 0.66957 0.0
H1408 H 0.81076 0.30726 0.0255 0.0
H1409 H 0.82096 0.2688 0.01877 0.0
H1410 H 0.81222 0.31159 0.00315 0.0
H1411 H 0.82206 0.27301 -0.00348 0.0
H1412 H 0.82831 0.28368 0.95701 0.0
H1413 H 0.83222 0.28327 0.97945 0.0
H1414 H 0.79959 0.30636 0.98539 0.0
H1415 H 0.79593 0.30708 0.96301 0.0
C1416 C 0.81346 0.29977 0.01928 0.0
C1417 C 0.81561 0.28765 0.02391 0.0
C1418 C 0.81423 0.30223 0.00646 0.0
C1419 C 0.81714 0.29263 -0.002 0.0
C1420 C 0.81993 0.28068 0.00274 0.0
C1421 C 0.8192 0.27824 0.01553 0.0
C1422 C 0.82211 0.28886 0.96309 0.0
C1423 C 0.81171 0.29527 0.95822 0.0
C1424 C 0.82431 0.28857 0.97597 0.0
C1425 C 0.81613 0.29463 0.98427 0.0
C1426 C 0.80616 0.30167 0.97931 0.0
C1427 C 0.80401 0.30201 0.96644 0.0
H1428 H 0.79721 0.16497 0.45933 0.0
H1429 H 0.80928 0.20335 0.46222 0.0
H1430 H 0.80044 0.16225 0.48175 0.0
H1431 H 0.81216 0.20075 0.48456 0.0
H1432 H 0.82128 0.19279 0.52416 0.0
H1433 H 0.82332 0.19136 0.50153 0.0
H1434 H 0.78952 0.16933 0.49999 0.0
H1435 H 0.7877 0.17045 0.52257 0.0
C1436 C 0.8007 0.17278 0.46471 0.0
C1437 C 0.80285 0.18442 0.459 0.0
C1438 C 0.80248 0.17124 0.47758 0.0
C1439 C 0.80644 0.18131 0.48501 0.0
C1440 C 0.80924 0.19274 0.47915 0.0
C1441 C 0.80749 0.19426 0.46631 0.0
C1442 C 0.81442 0.18745 0.51901 0.0
C1443 C 0.80424 0.18188 0.52517 0.0
C1444 C 0.81555 0.18668 0.50602 0.0
C1445 C 0.8065 0.18038 0.49889 0.0
C1446 C 0.79674 0.17418 0.50515 0.0
C1447 C 0.79564 0.17489 0.51813 0.0
H1448 H 0.69632 0.31175 0.52173 0.0
H1449 H 0.66137 0.29239 0.52762 0.0
H1450 H 0.69295 0.31111 0.49931 0.0
H1451 H 0.65778 0.2921 0.50513 0.0
H1452 H 0.66765 0.27592 0.46624 0.0
H1453 H 0.66682 0.28051 0.4884 0.0
H1454 H 0.68137 0.31749 0.48124 0.0
H1455 H 0.68256 0.31272 0.45899 0.0
C1456 C 0.68776 0.30761 0.51826 0.0
C1457 C 0.67921 0.30195 0.52647 0.0
C1458 C 0.68578 0.30731 0.50537 0.0
C1459 C 0.67515 0.30142 0.50037 0.0
C1460 C 0.6662 0.29649 0.50864 0.0
C1461 C 0.66822 0.29672 0.52155 0.0
C1462 C 0.67052 0.2851 0.46934 0.0
C1463 C 0.67532 0.29389 0.46085 0.0
C1464 C 0.66995 0.28778 0.48208 0.0
C1465 C 0.67411 0.29935 0.48666 0.0
C1466 C 0.67828 0.30841 0.47807 0.0
C1467 C 0.6789 0.3057 0.4653 0.0
H1468 H 0.68852 0.16781 0.02878 0.0
H1469 H 0.6696 0.20288 0.02208 0.0
H1470 H 0.68858 0.16366 0.0064 0.0
H1471 H 0.67 0.19893 -0.00024 0.0
H1472 H 0.66798 0.18765 0.95978 0.0
H1473 H 0.66331 0.187 0.98209 0.0
H1474 H 0.70021 0.17212 0.98932 0.0
H1475 H 0.70471 0.17243 0.96712 0.0
C1476 C 0.68424 0.17457 0.02255 0.0
C1477 C 0.67921 0.18576 0.02721 0.0
C1478 C 0.68433 0.17222 0.00971 0.0
C1479 C 0.67945 0.18103 0.00124 0.0
C1480 C 0.67374 0.19187 0.00599 0.0
C1481 C 0.67359 0.19418 0.01882 0.0
C1482 C 0.675 0.18403 0.96613 0.0
C1483 C 0.68677 0.18022 0.96168 0.0
C1484 C 0.67235 0.18372 0.97892 0.0
C1485 C 0.68142 0.17962 0.98754 0.0
C1486 C 0.69294 0.17521 0.98299 0.0
C1487 C 0.69556 0.17547 0.97022 0.0
H1488 H 0.1098 0.15634 0.69263 0.0
H1489 H 0.14517 0.17229 0.68138 0.0
H1490 H 0.12016 0.13648 0.69692 0.0
H1491 H 0.15555 0.1525 0.68587 0.0
H1492 H 0.16742 0.1116 0.6825 0.0
H1493 H 0.15673 0.1312 0.67789 0.0
H1494 H 0.13499 0.12727 0.71166 0.0
H1495 H 0.14553 0.10756 0.71618 0.0
C1496 C 0.11979 0.15562 0.69111 0.0
C1497 C 0.12666 0.1659 0.68665 0.0
C1498 C 0.12574 0.14426 0.69363 0.0
C1499 C 0.13868 0.1429 0.69173 0.0
C1500 C 0.14554 0.15318 0.68728 0.0
C1501 C 0.1396 0.16455 0.68478 0.0
C1502 C 0.16034 0.1149 0.68893 0.0
C1503 C 0.15733 0.10801 0.69971 0.0
C1504 C 0.15426 0.12617 0.68632 0.0
C1505 C 0.14502 0.13082 0.69442 0.0
C1506 C 0.14196 0.12388 0.70516 0.0
C1507 C 0.14805 0.11261 0.70778 0.0
H1508 H 0.86679 0.67699 0.18042 0.0
H1509 H 0.88777 0.64523 0.19394 0.0
H1510 H 0.84783 0.66446 0.1802 0.0
H1511 H 0.86897 0.63246 0.1931 0.0
H1512 H 0.83115 0.61566 0.20192 0.0
H1513 H 0.84979 0.62867 0.20279 0.0
H1514 H 0.8374 0.64849 0.16976 0.0
H1515 H 0.81848 0.63589 0.16934 0.0
C1516 C 0.86737 0.66727 0.18321 0.0
C1517 C 0.87876 0.6621 0.18721 0.0
C1518 C 0.8565 0.66004 0.18301 0.0
C1519 C 0.85679 0.64739 0.18662 0.0
C1520 C 0.86827 0.64221 0.1905 0.0
C1521 C 0.8791 0.6495 0.19089 0.0
C1522 C 0.83241 0.62284 0.19488 0.0
C1523 C 0.82335 0.62477 0.18558 0.0
C1524 C 0.84315 0.63025 0.19531 0.0
C1525 C 0.8452 0.63964 0.18631 0.0
C1526 C 0.83609 0.64153 0.17699 0.0
C1527 C 0.82525 0.63425 0.1767 0.0
H1528 H 0.34146 0.38124 0.71496 0.0
H1529 H 0.32149 0.37669 0.68018 0.0
H1530 H 0.35266 0.36177 0.71116 0.0
H1531 H 0.33285 0.35734 0.67628 0.0
H1532 H 0.34545 0.31664 0.68029 0.0
H1533 H 0.33424 0.33606 0.68431 0.0
H1534 H 0.36848 0.35302 0.69732 0.0
H1535 H 0.37966 0.33353 0.69352 0.0
C1536 C 0.3395 0.37612 0.70648 0.0
C1537 C 0.33057 0.38052 0.69788 0.0
C1538 C 0.34597 0.36499 0.70427 0.0
C1539 C 0.34365 0.35799 0.69342 0.0
C1540 C 0.33474 0.36242 0.68481 0.0
C1541 C 0.32828 0.37356 0.68701 0.0
C1542 C 0.35059 0.3245 0.68403 0.0
C1543 C 0.36345 0.32353 0.68659 0.0
C1544 C 0.34418 0.33566 0.68626 0.0
C1545 C 0.35047 0.3461 0.69111 0.0
C1546 C 0.36332 0.34511 0.69371 0.0
C1547 C 0.36974 0.33396 0.69147 0.0
H1548 H 0.62574 0.82215 0.18446 0.0
H1549 H 0.6007 0.84907 0.20105 0.0
H1550 H 0.64296 0.83687 0.18635 0.0
H1551 H 0.61777 0.86404 0.20246 0.0
H1552 H 0.65343 0.88318 0.21537 0.0
H1553 H 0.63627 0.86839 0.21349 0.0
H1554 H 0.65138 0.85553 0.17834 0.0
H1555 H 0.66883 0.86995 0.18055 0.0
C1556 C 0.62389 0.83127 0.18839 0.0
C1557 C 0.61186 0.83443 0.19263 0.0
C1558 C 0.63376 0.83977 0.18941 0.0
C1559 C 0.63181 0.8517 0.19456 0.0
C1560 C 0.61971 0.85488 0.19866 0.0
C1561 C 0.60988 0.84632 0.19777 0.0
C1562 C 0.65308 0.87719 0.20724 0.0
C1563 C 0.6625 0.87772 0.19812 0.0
C1564 C 0.64318 0.86875 0.20611 0.0
C1565 C 0.64236 0.86073 0.19574 0.0
C1566 C 0.65177 0.86137 0.18657 0.0
C1567 C 0.66176 0.86971 0.18778 0.0
H1568 H 0.15316 0.37917 0.77984 0.0
H1569 H 0.17525 0.36735 0.81155 0.0
H1570 H 0.14105 0.35994 0.78115 0.0
H1571 H 0.16295 0.34827 0.81305 0.0
H1572 H 0.14753 0.30969 0.80369 0.0
H1573 H 0.15962 0.3289 0.80207 0.0
H1574 H 0.12576 0.34951 0.79407 0.0
H1575 H 0.11372 0.33024 0.79539 0.0
C1576 C 0.15538 0.37251 0.78715 0.0
C1577 C 0.16518 0.37479 0.79558 0.0
C1578 C 0.14839 0.3615 0.78793 0.0
C1579 C 0.15103 0.35253 0.79719 0.0
C1580 C 0.16078 0.35488 0.80568 0.0
C1581 C 0.16779 0.36586 0.80487 0.0
C1582 C 0.14267 0.31831 0.80156 0.0
C1583 C 0.12966 0.31843 0.79967 0.0
C1584 C 0.14959 0.32935 0.80071 0.0
C1585 C 0.14366 0.34077 0.79798 0.0
C1586 C 0.13065 0.34086 0.79603 0.0
C1587 C 0.12373 0.32982 0.79685 0.0
H1588 H 0.66687 0.63608 0.31268 0.0
H1589 H 0.65565 0.61668 0.27922 0.0
H1590 H 0.64851 0.64944 0.31109 0.0
H1591 H 0.63761 0.63043 0.2772 0.0
H1592 H 0.59981 0.64854 0.28357 0.0
H1593 H 0.61798 0.63496 0.28561 0.0
H1594 H 0.63949 0.66594 0.30002 0.0
H1595 H 0.62111 0.67928 0.29858 0.0
C1596 C 0.66055 0.63478 0.30489 0.0
C1597 C 0.66269 0.62532 0.29609 0.0
C1598 C 0.65003 0.64249 0.30392 0.0
C1599 C 0.64151 0.64107 0.294 0.0
C1600 C 0.64379 0.63168 0.28511 0.0
C1601 C 0.65419 0.62383 0.2862 0.0
C1602 C 0.60843 0.65242 0.28721 0.0
C1603 C 0.60903 0.66496 0.29095 0.0
C1604 C 0.6189 0.64466 0.2883 0.0
C1605 C 0.63029 0.64931 0.29296 0.0
C1606 C 0.63086 0.66192 0.29662 0.0
C1607 C 0.62033 0.66962 0.29572 0.0
H1608 H 0.34275 0.17636 0.78596 0.0
H1609 H 0.37403 0.15909 0.80487 0.0
H1610 H 0.33388 0.15571 0.78185 0.0
H1611 H 0.36493 0.13845 0.80102 0.0
H1612 H 0.33271 0.10753 0.80452 0.0
H1613 H 0.34272 0.12776 0.80831 0.0
H1614 H 0.34228 0.13552 0.76876 0.0
H1615 H 0.33259 0.11519 0.76489 0.0
C1616 C 0.3477 0.16816 0.78926 0.0
C1617 C 0.35908 0.16932 0.79572 0.0
C1618 C 0.34265 0.15638 0.78687 0.0
C1619 C 0.34874 0.14556 0.79114 0.0
C1620 C 0.36006 0.14669 0.79768 0.0
C1621 C 0.36527 0.15847 0.79983 0.0
C1622 C 0.33482 0.11353 0.79664 0.0
C1623 C 0.33188 0.1098 0.78441 0.0
C1624 C 0.34058 0.12505 0.79881 0.0
C1625 C 0.34321 0.13314 0.78881 0.0
C1626 C 0.34028 0.12943 0.7766 0.0
C1627 C 0.33479 0.1178 0.7744 0.0
H1628 H 0.8227 0.84322 0.3219 0.0
H1629 H 0.83047 0.86612 0.28958 0.0
H1630 H 0.84185 0.83149 0.31827 0.0
H1631 H 0.8493 0.854 0.2855 0.0
H1632 H 0.88879 0.83875 0.28884 0.0
H1633 H 0.86965 0.85049 0.29258 0.0
H1634 H 0.85158 0.81675 0.30561 0.0
H1635 H 0.87095 0.80523 0.30248 0.0
C1636 C 0.82843 0.84563 0.3139 0.0
C1637 C 0.8251 0.85561 0.30604 0.0
C1638 C 0.83939 0.83885 0.31177 0.0
C1639 C 0.8472 0.84176 0.30158 0.0
C1640 C 0.8437 0.85162 0.29359 0.0
C1641 C 0.83284 0.85853 0.29586 0.0
C1642 C 0.88072 0.83387 0.29253 0.0
C1643 C 0.88138 0.82109 0.29541 0.0
C1644 C 0.86969 0.84058 0.29459 0.0
C1645 C 0.85898 0.83461 0.29938 0.0
C1646 C 0.85967 0.82176 0.30214 0.0
C1647 C 0.87076 0.81511 0.30028 0.0
H1648 H 0.66832 0.13747 0.16616 0.0
H1649 H 0.7004 0.11647 0.15357 0.0
H1650 H 0.6698 0.15087 0.14784 0.0
H1651 H 0.70237 0.13026 0.13556 0.0
H1652 H 0.69504 0.14869 0.09806 0.0
H1653 H 0.69335 0.13523 0.11634 0.0
H1654 H 0.68113 0.16682 0.13832 0.0
H1655 H 0.68219 0.18006 0.11985 0.0
C1656 C 0.6758 0.13583 0.15955 0.0
C1657 C 0.68422 0.1259 0.16128 0.0
C1658 C 0.67672 0.14357 0.14906 0.0
C1659 C 0.68621 0.1417 0.14014 0.0
C1660 C 0.69477 0.13186 0.14204 0.0
C1661 C 0.69371 0.124 0.15243 0.0
C1662 C 0.69196 0.15273 0.10681 0.0
C1663 C 0.6887 0.16541 0.10751 0.0
C1664 C 0.69108 0.14504 0.11734 0.0
C1665 C 0.68712 0.1499 0.12889 0.0
C1666 C 0.68398 0.16265 0.12957 0.0
C1667 C 0.68466 0.17028 0.11899 0.0
H1668 H 0.81182 0.18443 0.61848 0.0
H1669 H 0.84378 0.1987 0.59839 0.0
H1670 H 0.82442 0.18262 0.63732 0.0
H1671 H 0.85662 0.19626 0.61701 0.0
H1672 H 0.87373 0.20214 0.65521 0.0
H1673 H 0.86072 0.20449 0.63669 0.0
H1674 H 0.84021 0.17124 0.64707 0.0
H1675 H 0.85281 0.16936 0.66591 0.0
C1676 C 0.8216 0.18704 0.61806 0.0
C1677 C 0.82681 0.19172 0.60697 0.0
C1678 C 0.82887 0.18593 0.62886 0.0
C1679 C 0.8416 0.18927 0.62877 0.0
C1680 C 0.84682 0.19383 0.61757 0.0
C1681 C 0.83948 0.19514 0.60684 0.0
C1682 C 0.86641 0.19537 0.65353 0.0
C1683 C 0.86427 0.18558 0.66202 0.0
C1684 C 0.85899 0.19664 0.64285 0.0
C1685 C 0.84939 0.18803 0.64028 0.0
C1686 C 0.84733 0.17821 0.6488 0.0
C1687 C 0.85461 0.17707 0.65959 0.0
H1688 H 0.81867 0.35116 0.16787 0.0
H1689 H 0.78639 0.3727 0.15665 0.0
H1690 H 0.81708 0.33884 0.14888 0.0
H1691 H 0.78433 0.35998 0.13796 0.0
H1692 H 0.79084 0.34331 0.09967 0.0
H1693 H 0.79305 0.35594 0.11841 0.0
H1694 H 0.80556 0.32334 0.13887 0.0
H1695 H 0.80397 0.31093 0.11994 0.0
C1696 C 0.81114 0.35316 0.1614 0.0
C1697 C 0.80267 0.36291 0.16374 0.0
C1698 C 0.81017 0.34604 0.15052 0.0
C1699 C 0.80056 0.34836 0.14181 0.0
C1700 C 0.79201 0.35806 0.14428 0.0
C1701 C 0.79312 0.36531 0.15505 0.0
C1702 C 0.7941 0.33887 0.10818 0.0
C1703 C 0.79726 0.32614 0.10833 0.0
C1704 C 0.79529 0.34609 0.11897 0.0
C1705 C 0.79946 0.3407 0.13024 0.0
C1706 C 0.80255 0.32792 0.13035 0.0
C1707 C 0.80157 0.32076 0.11951 0.0
H1708 H 0.6108 0.29665 0.65464 0.0
H1709 H 0.64521 0.30646 0.67335 0.0
H1710 H 0.6222 0.29413 0.63509 0.0
H1711 H 0.65665 0.30368 0.65387 0.0
H1712 H 0.64891 0.27784 0.60581 0.0
H1713 H 0.63736 0.28049 0.62524 0.0
H1714 H 0.6591 0.31342 0.63357 0.0
H1715 H 0.67084 0.31062 0.61427 0.0
C1716 C 0.62081 0.2982 0.6546 0.0
C1717 C 0.62709 0.30177 0.66555 0.0
C1718 C 0.62735 0.2967 0.6434 0.0
C1719 C 0.64034 0.29872 0.6429 0.0
C1720 C 0.64662 0.30223 0.65388 0.0
C1721 C 0.64008 0.30375 0.66507 0.0
C1722 C 0.65121 0.28566 0.61177 0.0
C1723 C 0.66081 0.29401 0.6085 0.0
C1724 C 0.64454 0.28722 0.62289 0.0
C1725 C 0.64731 0.29716 0.63099 0.0
C1726 C 0.65685 0.30556 0.62765 0.0
C1727 C 0.66353 0.304 0.61654 0.0
H1728 H 0.71457 0.33777 0.38068 0.0
H1729 H 0.68065 0.31687 0.37413 0.0
H1730 H 0.71186 0.34842 0.36069 0.0
H1731 H 0.67785 0.32766 0.35425 0.0
H1732 H 0.68479 0.33893 0.31356 0.0
H1733 H 0.6876 0.3285 0.33363 0.0
H1734 H 0.6982 0.3636 0.35035 0.0
H1735 H 0.69558 0.37402 0.33023 0.0
C1736 C 0.7065 0.3355 0.37501 0.0
C1737 C 0.69784 0.32645 0.37899 0.0
C1738 C 0.70491 0.34165 0.36358 0.0
C1739 C 0.69465 0.33887 0.35586 0.0
C1740 C 0.68595 0.32989 0.35989 0.0
C1741 C 0.68751 0.32376 0.37133 0.0
C1742 C 0.68775 0.34443 0.32151 0.0
C1743 C 0.68997 0.35731 0.32029 0.0
C1744 C 0.68928 0.33846 0.33303 0.0
C1745 C 0.69309 0.34523 0.3436 0.0
C1746 C 0.69538 0.3581 0.34236 0.0
C1747 C 0.69382 0.36408 0.33084 0.0
H1748 H 0.64222 0.18274 0.81231 0.0
H1749 H 0.60695 0.19375 0.82864 0.0
H1750 H 0.65263 0.18635 0.83223 0.0
H1751 H 0.61733 0.19714 0.84863 0.0
H1752 H 0.66457 0.18148 0.87294 0.0
H1753 H 0.6538 0.17763 0.85325 0.0
H1754 H 0.63223 0.21138 0.85828 0.0
H1755 H 0.64283 0.21513 0.87807 0.0
C1756 C 0.63667 0.18589 0.82016 0.0
C1757 C 0.62375 0.18797 0.81888 0.0
C1758 C 0.64263 0.18788 0.8316 0.0
C1759 C 0.63581 0.19201 0.84203 0.0
C1760 C 0.62289 0.1941 0.84074 0.0
C1761 C 0.61692 0.19209 0.8293 0.0
C1762 C 0.6575 0.18806 0.86986 0.0
C1763 C 0.65456 0.19861 0.87708 0.0
C1764 C 0.65138 0.18589 0.85854 0.0
C1765 C 0.64218 0.19421 0.85417 0.0
C1766 C 0.63917 0.20471 0.86144 0.0
C1767 C 0.6453 0.20689 0.87276 0.0
H1768 H 0.77963 0.1145 0.32586 0.0
H1769 H 0.81187 0.13332 0.31052 0.0
H1770 H 0.7795 0.12894 0.34339 0.0
H1771 H 0.81214 0.14741 0.32831 0.0
H1772 H 0.80271 0.17809 0.35588 0.0
H1773 H 0.80196 0.16428 0.33788 0.0
H1774 H 0.79028 0.13386 0.36182 0.0
H1775 H 0.79048 0.14787 0.37969 0.0
C1776 C 0.78673 0.12169 0.32627 0.0
C1777 C 0.79575 0.12278 0.3168 0.0
C1778 C 0.78673 0.12993 0.33638 0.0
C1779 C 0.79585 0.13935 0.33736 0.0
C1780 C 0.80484 0.14043 0.32782 0.0
C1781 C 0.80474 0.1323 0.31762 0.0
C1782 C 0.79997 0.16845 0.35728 0.0
C1783 C 0.79664 0.16407 0.3692 0.0
C1784 C 0.79961 0.16049 0.34696 0.0
C1785 C 0.79607 0.1479 0.34834 0.0
C1786 C 0.79282 0.14353 0.36032 0.0
C1787 C 0.79302 0.15154 0.3706 0.0
H1788 H 0.83895 0.27085 0.87894 0.0
H1789 H 0.81764 0.30447 0.87188 0.0
H1790 H 0.85 0.27375 0.85923 0.0
H1791 H 0.82885 0.30747 0.85228 0.0
H1792 H 0.84129 0.30089 0.8119 0.0
H1793 H 0.83039 0.29791 0.83167 0.0
H1794 H 0.86523 0.28757 0.84935 0.0
H1795 H 0.87612 0.29033 0.82952 0.0
C1796 C 0.83667 0.2789 0.87322 0.0
C1797 C 0.8274 0.28742 0.87698 0.0
C1798 C 0.84305 0.28059 0.86195 0.0
C1799 C 0.84029 0.29083 0.85417 0.0
C1800 C 0.83108 0.29939 0.85797 0.0
C1801 C 0.82471 0.29771 0.86925 0.0
C1802 C 0.84663 0.29796 0.82 0.0
C1803 C 0.85958 0.29584 0.81913 0.0
C1804 C 0.84039 0.29633 0.83135 0.0
C1805 C 0.84694 0.29253 0.8421 0.0
C1806 C 0.85988 0.29036 0.84121 0.0
C1807 C 0.86613 0.29201 0.82986 0.0
H1808 H 0.11134 0.71561 0.14015 0.0
H1809 H 0.11564 0.68226 0.16257 0.0
H1810 H 0.1311 0.71112 0.12971 0.0
H1811 H 0.1353 0.67767 0.15198 0.0
H1812 H 0.17647 0.6816 0.14048 0.0
H1813 H 0.15659 0.68595 0.15072 0.0
H1814 H 0.14039 0.69617 0.11516 0.0
H1815 H 0.16034 0.692 0.10493 0.0
C1816 C 0.11647 0.70729 0.14281 0.0
C1817 C 0.11193 0.69931 0.15221 0.0
C1818 C 0.12776 0.70468 0.13677 0.0
C1819 C 0.13478 0.69404 0.14002 0.0
C1820 C 0.1302 0.68603 0.14937 0.0
C1821 C 0.11889 0.68862 0.15539 0.0
C1822 C 0.16868 0.68477 0.13484 0.0
C1823 C 0.17 0.68646 0.12188 0.0
C1824 C 0.15725 0.6872 0.1407 0.0
C1825 C 0.1469 0.69139 0.13376 0.0
C1826 C 0.14823 0.69308 0.1208 0.0
C1827 C 0.15965 0.69063 0.11493 0.0
H1828 H 0.11452 0.80698 0.31479 0.0
H1829 H 0.10923 0.77356 0.33687 0.0
H1830 H 0.13381 0.81136 0.32612 0.0
H1831 H 0.12862 0.77785 0.34806 0.0
H1832 H 0.15682 0.79697 0.37412 0.0
H1833 H 0.13735 0.79273 0.36304 0.0
H1834 H 0.155 0.80293 0.3282 0.0
H1835 H 0.17441 0.80735 0.33929 0.0
C1836 C 0.11747 0.80056 0.32205 0.0
C1837 C 0.11034 0.78991 0.32493 0.0
C1838 C 0.12857 0.80303 0.32849 0.0
C1839 C 0.13277 0.79494 0.33797 0.0
C1840 C 0.12558 0.78434 0.3409 0.0
C1841 C 0.1145 0.78185 0.33444 0.0
C1842 C 0.15655 0.7983 0.3641 0.0
C1843 C 0.16717 0.80251 0.35759 0.0
C1844 C 0.14541 0.79581 0.35774 0.0
C1845 C 0.14462 0.79751 0.34474 0.0
C1846 C 0.15525 0.80169 0.33823 0.0
C1847 C 0.1664 0.80415 0.34459 0.0
H1848 H 0.21462 0.60903 0.83988 0.0
H1849 H 0.18176 0.61597 0.8174 0.0
H1850 H 0.21111 0.62859 0.85096 0.0
H1851 H 0.17812 0.63541 0.82864 0.0
H1852 H 0.18379 0.67573 0.84164 0.0
H1853 H 0.18732 0.65609 0.83072 0.0
H1854 H 0.1967 0.63821 0.86571 0.0
H1855 H 0.19339 0.6579 0.87661 0.0
C1856 C 0.20661 0.61469 0.83735 0.0
C1857 C 0.19848 0.61095 0.82774 0.0
C1858 C 0.20456 0.62587 0.84375 0.0
C1859 C 0.19434 0.63358 0.84067 0.0
C1860 C 0.18617 0.62978 0.83112 0.0
C1861 C 0.18822 0.6186 0.82473 0.0
C1862 C 0.18662 0.66761 0.84701 0.0
C1863 C 0.18832 0.66839 0.86 0.0
C1864 C 0.18857 0.65633 0.84076 0.0
C1865 C 0.19227 0.64557 0.84734 0.0
C1866 C 0.194 0.64636 0.86034 0.0
C1867 C 0.19204 0.65763 0.86659 0.0
H1868 H 0.38442 0.72287 0.34228 0.0
H1869 H 0.37708 0.68535 0.3295 0.0
H1870 H 0.36677 0.72144 0.35658 0.0
H1871 H 0.35964 0.68377 0.34407 0.0
H1872 H 0.3427 0.71006 0.38983 0.0
H1873 H 0.36033 0.7113 0.37548 0.0
H1874 H 0.3389 0.6916 0.34756 0.0
H1875 H 0.32141 0.69004 0.36205 0.0
C1876 C 0.37908 0.71428 0.34257 0.0
C1877 C 0.38215 0.70423 0.33474 0.0
C1878 C 0.369 0.71343 0.35084 0.0
C1879 C 0.36177 0.70248 0.35151 0.0
C1880 C 0.36488 0.69241 0.34368 0.0
C1881 C 0.37493 0.69328 0.33537 0.0
C1882 C 0.34176 0.70598 0.38063 0.0
C1883 C 0.33065 0.69994 0.37709 0.0
C1884 C 0.35185 0.70676 0.37237 0.0
C1885 C 0.35105 0.70157 0.36034 0.0
C1886 C 0.33992 0.69554 0.3568 0.0
C1887 C 0.32985 0.69471 0.36509 0.0
H1888 H 0.27635 0.87994 0.84099 0.0
H1889 H 0.31002 0.87189 0.82019 0.0
H1890 H 0.27918 0.86075 0.85297 0.0
H1891 H 0.313 0.85285 0.83236 0.0
H1892 H 0.30674 0.81316 0.84689 0.0
H1893 H 0.30382 0.83238 0.835 0.0
H1894 H 0.29257 0.85148 0.86867 0.0
H1895 H 0.29522 0.83218 0.88052 0.0
C1896 C 0.2844 0.87412 0.83903 0.0
C1897 C 0.29295 0.87744 0.82962 0.0
C1898 C 0.28606 0.86315 0.84594 0.0
C1899 C 0.29631 0.85524 0.84362 0.0
C1900 C 0.3049 0.85862 0.83427 0.0
C1901 C 0.30324 0.86958 0.82734 0.0
C1902 C 0.30363 0.82145 0.85176 0.0
C1903 C 0.3012 0.82113 0.86465 0.0
C1904 C 0.30203 0.8325 0.84495 0.0
C1905 C 0.29799 0.84349 0.85088 0.0
C1906 C 0.29555 0.84315 0.86378 0.0
C1907 C 0.29713 0.8321 0.87058 0.0
H1908 H 0.32766 0.80574 0.11285 0.0
H1909 H 0.30992 0.78577 0.14313 0.0
H1910 H 0.34823 0.80062 0.12159 0.0
H1911 H 0.33049 0.78043 0.15164 0.0
H1912 H 0.37032 0.76197 0.15227 0.0
H1913 H 0.35005 0.7671 0.14296 0.0
H1914 H 0.35953 0.80624 0.14356 0.0
H1915 H 0.37973 0.80119 0.15317 0.0
C1916 C 0.32816 0.8002 0.12131 0.0
C1917 C 0.3172 0.79616 0.12732 0.0
C1918 C 0.33991 0.79733 0.12632 0.0
C1919 C 0.34089 0.79013 0.13725 0.0
C1920 C 0.32995 0.78594 0.14316 0.0
C1921 C 0.31821 0.78904 0.13832 0.0
C1922 C 0.36811 0.77167 0.15038 0.0
C1923 C 0.37659 0.78119 0.15346 0.0
C1924 C 0.3565 0.77458 0.1451 0.0
C1925 C 0.35328 0.78705 0.14257 0.0
C1926 C 0.36186 0.79656 0.14539 0.0
C1927 C 0.37336 0.79367 0.15092 0.0
H1928 H 0.19056 0.83202 0.61116 0.0
H1929 H 0.18152 0.81385 0.64609 0.0
H1930 H 0.19372 0.85167 0.62218 0.0
H1931 H 0.18491 0.83343 0.65712 0.0
H1932 H 0.17875 0.87333 0.67077 0.0
H1933 H 0.17535 0.85395 0.65938 0.0
H1934 H 0.20806 0.86142 0.63691 0.0
H1935 H 0.21133 0.88093 0.64814 0.0
C1936 C 0.18931 0.8322 0.6212 0.0
C1937 C 0.18577 0.82137 0.62774 0.0
C1938 C 0.19118 0.84345 0.62752 0.0
C1939 C 0.18954 0.84413 0.64053 0.0
C1940 C 0.18607 0.83328 0.64707 0.0
C1941 C 0.18421 0.82203 0.64076 0.0
C1942 C 0.1852 0.87086 0.66337 0.0
C1943 C 0.19532 0.87867 0.66037 0.0
C1944 C 0.18329 0.85971 0.6569 0.0
C1945 C 0.19146 0.85611 0.64727 0.0
C1946 C 0.20151 0.86398 0.64418 0.0
C1947 C 0.20342 0.87514 0.65066 0.0
H1948 H 0.30628 0.61179 0.65819 0.0
H1949 H 0.26945 0.60296 0.64416 0.0
H1950 H 0.30755 0.62935 0.64373 0.0
H1951 H 0.27055 0.62074 0.62997 0.0
H1952 H 0.28172 0.64579 0.59735 0.0
H1953 H 0.2808 0.62795 0.61149 0.0
H1954 H 0.29902 0.6497 0.64015 0.0
H1955 H 0.30028 0.6674 0.62587 0.0
C1956 C 0.29843 0.61363 0.65206 0.0
C1957 C 0.28777 0.60597 0.65232 0.0
C1958 C 0.29912 0.62376 0.64381 0.0
C1959 C 0.28915 0.6265 0.63568 0.0
C1960 C 0.27849 0.61881 0.63596 0.0
C1961 C 0.27783 0.60864 0.64415 0.0
C1962 C 0.28553 0.64676 0.60667 0.0
C1963 C 0.29108 0.65801 0.61048 0.0
C1964 C 0.28495 0.63654 0.61481 0.0
C1965 C 0.28983 0.63736 0.62698 0.0
C1966 C 0.29534 0.64865 0.63079 0.0
C1967 C 0.29599 0.65884 0.62262 0.0
loop_
_geom_bond_atom_site_label_1
_geom_bond_atom_site_label_2
_geom_bond_distance
_geom_bond_site_symmetry_2
_ccdc_geom_bond_type
O0 Cd1 2.300 . S
O0 C7 1.275 . S
Cd1 O0 2.300 . S
Cd1 O9 2.381 . S
Cd1 O10 2.378 . S
O2 Cd3 2.385 . S
O2 C7 1.255 . S
Cd3 O2 2.385 . S
Cd3 O4 2.317 . S
O4 Cd3 2.317 . S
O4 C5 1.232 . S
C5 O4 1.232 . S
C5 O6 1.218 . S
O6 C5 1.218 . S
C7 O0 1.275 . S
C7 O2 1.255 . S
C8 O9 1.258 . S
C8 O10 1.256 . S
O9 Cd1 2.381 . S
O9 C8 1.258 . S
O10 Cd1 2.378 . S
O10 C8 1.256 . S
O11 Cd12 2.300 . S
O11 C18 1.275 . S
Cd12 O11 2.300 . S
Cd12 O20 2.381 . S
Cd12 O21 2.378 . S
O13 Cd14 2.385 . S
O13 C18 1.255 . S
Cd14 O13 2.385 . S
Cd14 O15 2.317 . S
O15 Cd14 2.317 . S
O15 C16 1.232 . S
C16 O15 1.232 . S
C16 O17 1.218 . S
O17 C16 1.218 . S
C18 O11 1.275 . S
C18 O13 1.255 . S
C19 O20 1.258 . S
C19 O21 1.256 . S
O20 Cd12 2.381 . S
O20 C19 1.258 . S
O21 Cd12 2.378 . S
O21 C19 1.256 . S
O22 Cd23 2.300 . S
O22 C29 1.275 . S
Cd23 O22 2.300 . S
Cd23 O31 2.381 . S
Cd23 O32 2.378 . S
O24 Cd25 2.385 . S
O24 C29 1.255 . S
Cd25 O24 2.385 . S
Cd25 O26 2.317 . S
O26 Cd25 2.317 . S
O26 C27 1.232 . S
C27 O26 1.232 . S
C27 O28 1.218 . S
O28 C27 1.218 . S
C29 O22 1.275 . S
C29 O24 1.255 . S
C30 O31 1.258 . S
C30 O32 1.256 . S
O31 Cd23 2.381 . S
O31 C30 1.258 . S
O32 Cd23 2.378 . S
O32 C30 1.256 . S
O33 Cd34 2.300 . S
O33 C40 1.275 . S
Cd34 O33 2.300 . S
Cd34 O42 2.381 . S
Cd34 O43 2.378 . S
O35 Cd36 2.385 . S
O35 C40 1.255 . S
Cd36 O35 2.385 . S
Cd36 O37 2.317 . S
O37 Cd36 2.317 . S
O37 C38 1.232 . S
C38 O37 1.232 . S
C38 O39 1.218 . S
O39 C38 1.218 . S
C40 O33 1.275 . S
C40 O35 1.255 . S
C41 O42 1.258 . S
C41 O43 1.256 . S
O42 Cd34 2.381 . S
O42 C41 1.258 . S
O43 Cd34 2.378 . S
O43 C41 1.256 . S
O44 Cd45 2.300 . S
O44 C51 1.275 . S
Cd45 O44 2.300 . S
Cd45 O53 2.381 . S
Cd45 O54 2.378 . S
O46 Cd47 2.385 . S
O46 C51 1.255 . S
Cd47 O46 2.385 . S
Cd47 O48 2.317 . S
O48 Cd47 2.317 . S
O48 C49 1.232 . S
C49 O48 1.232 . S
C49 O50 1.218 . S
O50 C49 1.218 . S
C51 O44 1.275 . S
C51 O46 1.255 . S
C52 O53 1.258 . S
C52 O54 1.256 . S
O53 Cd45 2.381 . S
O53 C52 1.258 . S
O54 Cd45 2.378 . S
O54 C52 1.256 . S
O55 Cd56 2.300 . S
O55 C62 1.275 . S
Cd56 O55 2.300 . S
Cd56 O64 2.381 . S
Cd56 O65 2.378 . S
O57 Cd58 2.385 . S
O57 C62 1.255 . S
Cd58 O57 2.385 . S
Cd58 O59 2.317 . S
O59 Cd58 2.317 . S
O59 C60 1.232 . S
C60 O59 1.232 . S
C60 O61 1.218 . S
O61 C60 1.218 . S
C62 O55 1.275 . S
C62 O57 1.255 . S
C63 O64 1.258 . S
C63 O65 1.256 . S
O64 Cd56 2.381 . S
O64 C63 1.258 . S
O65 Cd56 2.378 . S
O65 C63 1.256 . S
O66 Cd67 2.300 . S
O66 C73 1.275 . S
Cd67 O66 2.300 . S
Cd67 O75 2.381 . S
Cd67 O76 2.378 . S
O68 Cd69 2.385 . S
O68 C73 1.255 . S
Cd69 O68 2.385 . S
Cd69 O70 2.317 . S
O70 Cd69 2.317 . S
O70 C71 1.232 . S
C71 O70 1.232 . S
C71 O72 1.218 . S
O72 C71 1.218 . S
C73 O66 1.275 . S
C73 O68 1.255 . S
C74 O75 1.258 . S
C74 O76 1.256 . S
O75 Cd67 2.381 . S
O75 C74 1.258 . S
O76 Cd67 2.378 . S
O76 C74 1.256 . S
O77 Cd78 2.300 . S
O77 C84 1.275 . S
Cd78 O77 2.300 . S
Cd78 O86 2.381 . S
Cd78 O87 2.378 . S
O79 Cd80 2.385 . S
O79 C84 1.255 . S
Cd80 O79 2.385 . S
Cd80 O81 2.317 . S
O81 Cd80 2.317 . S
O81 C82 1.232 . S
C82 O81 1.232 . S
C82 O83 1.218 . S
O83 C82 1.218 . S
C84 O77 1.275 . S
C84 O79 1.255 . S
C85 O86 1.258 . S
C85 O87 1.256 . S
O86 Cd78 2.381 . S
O86 C85 1.258 . S
O87 Cd78 2.378 . S
O87 C85 1.256 . S
O88 Cd89 2.300 . S
O88 C95 1.275 . S
Cd89 O88 2.300 . S
Cd89 O97 2.381 . S
Cd89 O98 2.378 . S
O90 Cd91 2.385 . S
O90 C95 1.255 . S
Cd91 O90 2.385 . S
Cd91 O92 2.317 . S
O92 Cd91 2.317 . S
O92 C93 1.232 . S
C93 O92 1.232 . S
C93 O94 1.218 . S
O94 C93 1.218 . S
C95 O88 1.275 . S
C95 O90 1.255 . S
C96 O97 1.258 . S
C96 O98 1.256 . S
O97 Cd89 2.381 . S
O97 C96 1.258 . S
O98 Cd89 2.378 . S
O98 C96 1.256 . S
O99 Cd100 2.300 . S
O99 C106 1.275 . S
Cd100 O99 2.300 . S
Cd100 O108 2.381 . S
Cd100 O109 2.378 . S
O101 Cd102 2.385 . S
O101 C106 1.255 . S
Cd102 O101 2.385 . S
Cd102 O103 2.317 . S
O103 Cd102 2.317 . S
O103 C104 1.232 . S
C104 O103 1.232 . S
C104 O105 1.218 . S
O105 C104 1.218 . S
C106 O99 1.275 . S
C106 O101 1.255 . S
C107 O108 1.258 . S
C107 O109 1.256 . S
O108 Cd100 2.381 . S
O108 C107 1.258 . S
O109 Cd100 2.378 . S
O109 C107 1.256 . S
O110 Cd111 2.300 . S
O110 C117 1.275 . S
Cd111 O110 2.300 . S
Cd111 O119 2.381 . S
Cd111 O120 2.378 . S
O112 Cd113 2.385 . S
O112 C117 1.255 . S
Cd113 O112 2.385 . S
Cd113 O114 2.317 . S
O114 Cd113 2.317 . S
O114 C115 1.232 . S
C115 O114 1.232 . S
C115 O116 1.218 . S
O116 C115 1.218 . S
C117 O110 1.275 . S
C117 O112 1.255 . S
C118 O119 1.258 . S
C118 O120 1.256 . S
O119 Cd111 2.381 . S
O119 C118 1.258 . S
O120 Cd111 2.378 . S
O120 C118 1.256 . S
O121 Cd122 2.300 . S
O121 C128 1.275 . S
Cd122 O121 2.300 . S
Cd122 O130 2.381 . S
Cd122 O131 2.378 . S
O123 Cd124 2.385 . S
O123 C128 1.255 . S
Cd124 O123 2.385 . S
Cd124 O125 2.317 . S
O125 Cd124 2.317 . S
O125 C126 1.232 . S
C126 O125 1.232 . S
C126 O127 1.218 . S
O127 C126 1.218 . S
C128 O121 1.275 . S
C128 O123 1.255 . S
C129 O130 1.258 . S
C129 O131 1.256 . S
O130 Cd122 2.381 . S
O130 C129 1.258 . S
O131 Cd122 2.378 . S
O131 C129 1.256 . S
O132 Cd133 2.300 . S
O132 C139 1.275 . S
Cd133 O132 2.300 . S
Cd133 O141 2.381 . S
Cd133 O142 2.378 . S
O134 Cd135 2.385 . S
O134 C139 1.255 . S
Cd135 O134 2.385 . S
Cd135 O136 2.317 . S
O136 Cd135 2.317 . S
O136 C137 1.232 . S
C137 O136 1.232 . S
C137 O138 1.218 . S
O138 C137 1.218 . S
C139 O132 1.275 . S
C139 O134 1.255 . S
C140 O141 1.258 . S
C140 O142 1.256 . S
O141 Cd133 2.381 . S
O141 C140 1.258 . S
O142 Cd133 2.378 . S
O142 C140 1.256 . S
O143 Cd144 2.300 . S
O143 C150 1.275 . S
Cd144 O143 2.300 . S
Cd144 O152 2.381 . S
Cd144 O153 2.378 . S
O145 Cd146 2.385 . S
O145 C150 1.255 . S
Cd146 O145 2.385 . S
Cd146 O147 2.317 . S
O147 Cd146 2.317 . S
O147 C148 1.232 . S
C148 O147 1.232 . S
C148 O149 1.218 . S
O149 C148 1.218 . S
C150 O143 1.275 . S
C150 O145 1.255 . S
C151 O152 1.258 . S
C151 O153 1.256 . S
O152 Cd144 2.381 . S
O152 C151 1.258 . S
O153 Cd144 2.378 . S
O153 C151 1.256 . S
O154 Cd155 2.300 . S
O154 C161 1.275 . S
Cd155 O154 2.300 . S
Cd155 O163 2.381 . S
Cd155 O164 2.378 . S
O156 Cd157 2.385 . S
O156 C161 1.255 . S
Cd157 O156 2.385 . S
Cd157 O158 2.317 . S
O158 Cd157 2.317 . S
O158 C159 1.232 . S
C159 O158 1.232 . S
C159 O160 1.218 . S
O160 C159 1.218 . S
C161 O154 1.275 . S
C161 O156 1.255 . S
C162 O163 1.258 . S
C162 O164 1.256 . S
O163 Cd155 2.381 . S
O163 C162 1.258 . S
O164 Cd155 2.378 . S
O164 C162 1.256 . S
O165 Cd166 2.300 . S
O165 C172 1.275 . S
Cd166 O165 2.300 . S
Cd166 O174 2.381 . S
Cd166 O175 2.378 . S
O167 Cd168 2.385 . S
O167 C172 1.255 . S
Cd168 O167 2.385 . S
Cd168 O169 2.317 . S
O169 Cd168 2.317 . S
O169 C170 1.232 . S
C170 O169 1.232 . S
C170 O171 1.218 . S
O171 C170 1.218 . S
C172 O165 1.275 . S
C172 O167 1.255 . S
C173 O174 1.258 . S
C173 O175 1.256 . S
O174 Cd166 2.381 . S
O174 C173 1.258 . S
O175 Cd166 2.378 . S
O175 C173 1.256 . S
O176 Cd177 2.300 . S
O176 C183 1.275 . S
Cd177 O176 2.300 . S
Cd177 O185 2.381 . S
Cd177 O186 2.378 . S
O178 Cd179 2.385 . S
O178 C183 1.255 . S
Cd179 O178 2.385 . S
Cd179 O180 2.317 . S
O180 Cd179 2.317 . S
O180 C181 1.232 . S
C181 O180 1.232 . S
C181 O182 1.218 . S
O182 C181 1.218 . S
C183 O176 1.275 . S
C183 O178 1.255 . S
C184 O185 1.258 . S
C184 O186 1.256 . S
O185 Cd177 2.381 . S
O185 C184 1.258 . S
O186 Cd177 2.378 . S
O186 C184 1.256 . S
O187 Cd188 2.300 . S
O187 C194 1.275 . S
Cd188 O187 2.300 . S
Cd188 O196 2.381 . S
Cd188 O197 2.378 . S
O189 Cd190 2.385 . S
O189 C194 1.255 . S
Cd190 O189 2.385 . S
Cd190 O191 2.317 . S
O191 Cd190 2.317 . S
O191 C192 1.232 . S
C192 O191 1.232 . S
C192 O193 1.218 . S
O193 C192 1.218 . S
C194 O187 1.275 . S
C194 O189 1.255 . S
C195 O196 1.258 . S
C195 O197 1.256 . S
O196 Cd188 2.381 . S
O196 C195 1.258 . S
O197 Cd188 2.378 . S
O197 C195 1.256 . S
O198 Cd199 2.300 . S
O198 C205 1.275 . S
Cd199 O198 2.300 . S
Cd199 O207 2.381 . S
Cd199 O208 2.378 . S
O200 Cd201 2.385 . S
O200 C205 1.255 . S
Cd201 O200 2.385 . S
Cd201 O202 2.317 . S
O202 Cd201 2.317 . S
O202 C203 1.232 . S
C203 O202 1.232 . S
C203 O204 1.218 . S
O204 C203 1.218 . S
C205 O198 1.275 . S
C205 O200 1.255 . S
C206 O207 1.258 . S
C206 O208 1.256 . S
O207 Cd199 2.381 . S
O207 C206 1.258 . S
O208 Cd199 2.378 . S
O208 C206 1.256 . S
O209 Cd210 2.300 . S
O209 C216 1.275 . S
Cd210 O209 2.300 . S
Cd210 O218 2.381 . S
Cd210 O219 2.378 . S
O211 Cd212 2.385 . S
O211 C216 1.255 . S
Cd212 O211 2.385 . S
Cd212 O213 2.317 . S
O213 Cd212 2.317 . S
O213 C214 1.232 . S
C214 O213 1.232 . S
C214 O215 1.218 . S
O215 C214 1.218 . S
C216 O209 1.275 . S
C216 O211 1.255 . S
C217 O218 1.258 . S
C217 O219 1.256 . S
O218 Cd210 2.381 . S
O218 C217 1.258 . S
O219 Cd210 2.378 . S
O219 C217 1.256 . S
O220 Cd221 2.300 . S
O220 C227 1.275 . S
Cd221 O220 2.300 . S
Cd221 O229 2.381 . S
Cd221 O230 2.378 . S
O222 Cd223 2.385 . S
O222 C227 1.255 . S
Cd223 O222 2.385 . S
Cd223 O224 2.317 . S
O224 Cd223 2.317 . S
O224 C225 1.232 . S
C225 O224 1.232 . S
C225 O226 1.218 . S
O226 C225 1.218 . S
C227 O220 1.275 . S
C227 O222 1.255 . S
C228 O229 1.258 . S
C228 O230 1.256 . S
O229 Cd221 2.381 . S
O229 C228 1.258 . S
O230 Cd221 2.378 . S
O230 C228 1.256 . S
O231 Cd232 2.300 . S
O231 C238 1.275 . S
Cd232 O231 2.300 . S
Cd232 O240 2.381 . S
Cd232 O241 2.378 . S
O233 Cd234 2.385 . S
O233 C238 1.255 . S
Cd234 O233 2.385 . S
Cd234 O235 2.317 . S
O235 Cd234 2.317 . S
O235 C236 1.232 . S
C236 O235 1.232 . S
C236 O237 1.218 . S
O237 C236 1.218 . S
C238 O231 1.275 . S
C238 O233 1.255 . S
C239 O240 1.258 . S
C239 O241 1.256 . S
O240 Cd232 2.381 . S
O240 C239 1.258 . S
O241 Cd232 2.378 . S
O241 C239 1.256 . S
O242 Cd243 2.300 . S
O242 C249 1.275 . S
Cd243 O242 2.300 . S
Cd243 O251 2.381 . S
Cd243 O252 2.378 . S
O244 Cd245 2.385 . S
O244 C249 1.255 . S
Cd245 O244 2.385 . S
Cd245 O246 2.317 . S
O246 Cd245 2.317 . S
O246 C247 1.232 . S
C247 O246 1.232 . S
C247 O248 1.218 . S
O248 C247 1.218 . S
C249 O242 1.275 . S
C249 O244 1.255 . S
C250 O251 1.258 . S
C250 O252 1.256 . S
O251 Cd243 2.381 . S
O251 C250 1.258 . S
O252 Cd243 2.378 . S
O252 C250 1.256 . S
O253 Cd254 2.300 . S
O253 C260 1.275 . S
Cd254 O253 2.300 . S
Cd254 O262 2.381 . S
Cd254 O263 2.378 . S
O255 Cd256 2.385 . S
O255 C260 1.255 . S
Cd256 O255 2.385 . S
Cd256 O257 2.317 . S
O257 Cd256 2.317 . S
O257 C258 1.232 . S
C258 O257 1.232 . S
C258 O259 1.218 . S
O259 C258 1.218 . S
C260 O253 1.275 . S
C260 O255 1.255 . S
C261 O262 1.258 . S
C261 O263 1.256 . S
O262 Cd254 2.381 . S
O262 C261 1.258 . S
O263 Cd254 2.378 . S
O263 C261 1.256 . S
O264 Cd265 2.300 . S
O264 C271 1.275 . S
Cd265 O264 2.300 . S
Cd265 O273 2.381 . S
Cd265 O274 2.378 . S
O266 Cd267 2.385 . S
O266 C271 1.255 . S
Cd267 O266 2.385 . S
Cd267 O268 2.317 . S
O268 Cd267 2.317 . S
O268 C269 1.232 . S
C269 O268 1.232 . S
C269 O270 1.218 . S
O270 C269 1.218 . S
C271 O264 1.275 . S
C271 O266 1.255 . S
C272 O273 1.258 . S
C272 O274 1.256 . S
O273 Cd265 2.381 . S
O273 C272 1.258 . S
O274 Cd265 2.378 . S
O274 C272 1.256 . S
O275 Cd276 2.300 . S
O275 C282 1.275 . S
Cd276 O275 2.300 . S
Cd276 O284 2.381 . S
Cd276 O285 2.378 . S
O277 Cd278 2.385 . S
O277 C282 1.255 . S
Cd278 O277 2.385 . S
Cd278 O279 2.317 . S
O279 Cd278 2.317 . S
O279 C280 1.232 . S
C280 O279 1.232 . S
C280 O281 1.218 . S
O281 C280 1.218 . S
C282 O275 1.275 . S
C282 O277 1.255 . S
C283 O284 1.258 . S
C283 O285 1.256 . S
O284 Cd276 2.381 . S
O284 C283 1.258 . S
O285 Cd276 2.378 . S
O285 C283 1.256 . S
O286 Cd287 2.300 . S
O286 C293 1.275 . S
Cd287 O286 2.300 . S
Cd287 O295 2.381 . S
Cd287 O296 2.378 . S
O288 Cd289 2.385 . S
O288 C293 1.255 . S
Cd289 O288 2.385 . S
Cd289 O290 2.317 . S
O290 Cd289 2.317 . S
O290 C291 1.232 . S
C291 O290 1.232 . S
C291 O292 1.218 . S
O292 C291 1.218 . S
C293 O286 1.275 . S
C293 O288 1.255 . S
C294 O295 1.258 . S
C294 O296 1.256 . S
O295 Cd287 2.381 . S
O295 C294 1.258 . S
O296 Cd287 2.378 . S
O296 C294 1.256 . S
O297 Cd298 2.300 . S
O297 C304 1.275 . S
Cd298 O297 2.300 . S
Cd298 O306 2.381 . S
Cd298 O307 2.378 . S
O299 Cd300 2.385 . S
O299 C304 1.255 . S
Cd300 O299 2.385 . S
Cd300 O301 2.317 . S
O301 Cd300 2.317 . S
O301 C302 1.232 . S
C302 O301 1.232 . S
C302 O303 1.218 . S
O303 C302 1.218 . S
C304 O297 1.275 . S
C304 O299 1.255 . S
C305 O306 1.258 . S
C305 O307 1.256 . S
O306 Cd298 2.381 . S
O306 C305 1.258 . S
O307 Cd298 2.378 . S
O307 C305 1.256 . S
O308 Cd309 2.300 . S
O308 C315 1.275 . S
Cd309 O308 2.300 . S
Cd309 O317 2.381 . S
Cd309 O318 2.378 . S
O310 Cd311 2.385 . S
O310 C315 1.255 . S
Cd311 O310 2.385 . S
Cd311 O312 2.317 . S
O312 Cd311 2.317 . S
O312 C313 1.232 . S
C313 O312 1.232 . S
C313 O314 1.218 . S
O314 C313 1.218 . S
C315 O308 1.275 . S
C315 O310 1.255 . S
C316 O317 1.258 . S
C316 O318 1.256 . S
O317 Cd309 2.381 . S
O317 C316 1.258 . S
O318 Cd309 2.378 . S
O318 C316 1.256 . S
O319 Cd320 2.300 . S
O319 C326 1.275 . S
Cd320 O319 2.300 . S
Cd320 O328 2.381 . S
Cd320 O329 2.378 . S
O321 Cd322 2.385 . S
O321 C326 1.255 . S
Cd322 O321 2.385 . S
Cd322 O323 2.317 . S
O323 Cd322 2.317 . S
O323 C324 1.232 . S
C324 O323 1.232 . S
C324 O325 1.218 . S
O325 C324 1.218 . S
C326 O319 1.275 . S
C326 O321 1.255 . S
C327 O328 1.258 . S
C327 O329 1.256 . S
O328 Cd320 2.381 . S
O328 C327 1.258 . S
O329 Cd320 2.378 . S
O329 C327 1.256 . S
O330 Cd331 2.300 . S
O330 C337 1.275 . S
Cd331 O330 2.300 . S
Cd331 O339 2.381 . S
Cd331 O340 2.378 . S
O332 Cd333 2.385 . S
O332 C337 1.255 . S
Cd333 O332 2.385 . S
Cd333 O334 2.317 . S
O334 Cd333 2.317 . S
O334 C335 1.232 . S
C335 O334 1.232 . S
C335 O336 1.218 . S
O336 C335 1.218 . S
C337 O330 1.275 . S
C337 O332 1.255 . S
C338 O339 1.258 . S
C338 O340 1.256 . S
O339 Cd331 2.381 . S
O339 C338 1.258 . S
O340 Cd331 2.378 . S
O340 C338 1.256 . S
O341 Cd342 2.300 . S
O341 C348 1.275 . S
Cd342 O341 2.300 . S
Cd342 O350 2.381 . S
Cd342 O351 2.378 . S
O343 Cd344 2.385 . S
O343 C348 1.255 . S
Cd344 O343 2.385 . S
Cd344 O345 2.317 . S
O345 Cd344 2.317 . S
O345 C346 1.232 . S
C346 O345 1.232 . S
C346 O347 1.218 . S
O347 C346 1.218 . S
C348 O341 1.275 . S
C348 O343 1.255 . S
C349 O350 1.258 . S
C349 O351 1.256 . S
O350 Cd342 2.381 . S
O350 C349 1.258 . S
O351 Cd342 2.378 . S
O351 C349 1.256 . S
O352 Cd353 2.300 . S
O352 C359 1.275 . S
Cd353 O352 2.300 . S
Cd353 O361 2.381 . S
Cd353 O362 2.378 . S
O354 Cd355 2.385 . S
O354 C359 1.255 . S
Cd355 O354 2.385 . S
Cd355 O356 2.317 . S
O356 Cd355 2.317 . S
O356 C357 1.232 . S
C357 O356 1.232 . S
C357 O358 1.218 . S
O358 C357 1.218 . S
C359 O352 1.275 . S
C359 O354 1.255 . S
C360 O361 1.258 . S
C360 O362 1.256 . S
O361 Cd353 2.381 . S
O361 C360 1.258 . S
O362 Cd353 2.378 . S
O362 C360 1.256 . S
O363 Cd364 2.300 . S
O363 C370 1.275 . S
Cd364 O363 2.300 . S
Cd364 O372 2.381 . S
Cd364 O373 2.378 . S
O365 Cd366 2.385 . S
O365 C370 1.255 . S
Cd366 O365 2.385 . S
Cd366 O367 2.317 . S
O367 Cd366 2.317 . S
O367 C368 1.232 . S
C368 O367 1.232 . S
C368 O369 1.218 . S
O369 C368 1.218 . S
C370 O363 1.275 . S
C370 O365 1.255 . S
C371 O372 1.258 . S
C371 O373 1.256 . S
O372 Cd364 2.381 . S
O372 C371 1.258 . S
O373 Cd364 2.378 . S
O373 C371 1.256 . S
O374 Cd375 2.300 . S
O374 C381 1.275 . S
Cd375 O374 2.300 . S
Cd375 O383 2.381 . S
Cd375 O384 2.378 . S
O376 Cd377 2.385 . S
O376 C381 1.255 . S
Cd377 O376 2.385 . S
Cd377 O378 2.317 . S
O378 Cd377 2.317 . S
O378 C379 1.232 . S
C379 O378 1.232 . S
C379 O380 1.218 . S
O380 C379 1.218 . S
C381 O374 1.275 . S
C381 O376 1.255 . S
C382 O383 1.258 . S
C382 O384 1.256 . S
O383 Cd375 2.381 . S
O383 C382 1.258 . S
O384 Cd375 2.378 . S
O384 C382 1.256 . S
O385 Cd386 2.300 . S
O385 C392 1.275 . S
Cd386 O385 2.300 . S
Cd386 O394 2.381 . S
Cd386 O395 2.378 . S
O387 Cd388 2.385 . S
O387 C392 1.255 . S
Cd388 O387 2.385 . S
Cd388 O389 2.317 . S
O389 Cd388 2.317 . S
O389 C390 1.232 . S
C390 O389 1.232 . S
C390 O391 1.218 . S
O391 C390 1.218 . S
C392 O385 1.275 . S
C392 O387 1.255 . S
C393 O394 1.258 . S
C393 O395 1.256 . S
O394 Cd386 2.381 . S
O394 C393 1.258 . S
O395 Cd386 2.378 . S
O395 C393 1.256 . S
O396 Cd397 2.300 . S
O396 C403 1.275 . S
Cd397 O396 2.300 . S
Cd397 O405 2.381 . S
Cd397 O406 2.378 . S
O398 Cd399 2.385 . S
O398 C403 1.255 . S
Cd399 O398 2.385 . S
Cd399 O400 2.317 . S
O400 Cd399 2.317 . S
O400 C401 1.232 . S
C401 O400 1.232 . S
C401 O402 1.218 . S
O402 C401 1.218 . S
C403 O396 1.275 . S
C403 O398 1.255 . S
C404 O405 1.258 . S
C404 O406 1.256 . S
O405 Cd397 2.381 . S
O405 C404 1.258 . S
O406 Cd397 2.378 . S
O406 C404 1.256 . S
O407 Cd408 2.300 . S
O407 C414 1.275 . S
Cd408 O407 2.300 . S
Cd408 O416 2.381 . S
Cd408 O417 2.378 . S
O409 Cd410 2.385 . S
O409 C414 1.255 . S
Cd410 O409 2.385 . S
Cd410 O411 2.317 . S
O411 Cd410 2.317 . S
O411 C412 1.232 . S
C412 O411 1.232 . S
C412 O413 1.218 . S
O413 C412 1.218 . S
C414 O407 1.275 . S
C414 O409 1.255 . S
C415 O416 1.258 . S
C415 O417 1.256 . S
O416 Cd408 2.381 . S
O416 C415 1.258 . S
O417 Cd408 2.378 . S
O417 C415 1.256 . S
O418 Cd419 2.300 . S
O418 C425 1.275 . S
Cd419 O418 2.300 . S
Cd419 O427 2.381 . S
Cd419 O428 2.378 . S
O420 Cd421 2.385 . S
O420 C425 1.255 . S
Cd421 O420 2.385 . S
Cd421 O422 2.317 . S
O422 Cd421 2.317 . S
O422 C423 1.232 . S
C423 O422 1.232 . S
C423 O424 1.218 . S
O424 C423 1.218 . S
C425 O418 1.275 . S
C425 O420 1.255 . S
C426 O427 1.258 . S
C426 O428 1.256 . S
O427 Cd419 2.381 . S
O427 C426 1.258 . S
O428 Cd419 2.378 . S
O428 C426 1.256 . S
O429 Cd430 2.300 . S
O429 C436 1.275 . S
Cd430 O429 2.300 . S
Cd430 O438 2.381 . S
Cd430 O439 2.378 . S
O431 Cd432 2.385 . S
O431 C436 1.255 . S
Cd432 O431 2.385 . S
Cd432 O433 2.317 . S
O433 Cd432 2.317 . S
O433 C434 1.232 . S
C434 O433 1.232 . S
C434 O435 1.218 . S
O435 C434 1.218 . S
C436 O429 1.275 . S
C436 O431 1.255 . S
C437 O438 1.258 . S
C437 O439 1.256 . S
O438 Cd430 2.381 . S
O438 C437 1.258 . S
O439 Cd430 2.378 . S
O439 C437 1.256 . S
O440 Cd441 2.300 . S
O440 C447 1.275 . S
Cd441 O440 2.300 . S
Cd441 O449 2.381 . S
Cd441 O450 2.378 . S
O442 Cd443 2.385 . S
O442 C447 1.255 . S
Cd443 O442 2.385 . S
Cd443 O444 2.317 . S
O444 Cd443 2.317 . S
O444 C445 1.232 . S
C445 O444 1.232 . S
C445 O446 1.218 . S
O446 C445 1.218 . S
C447 O440 1.275 . S
C447 O442 1.255 . S
C448 O449 1.258 . S
C448 O450 1.256 . S
O449 Cd441 2.381 . S
O449 C448 1.258 . S
O450 Cd441 2.378 . S
O450 C448 1.256 . S
O451 Cd452 2.300 . S
O451 C458 1.275 . S
Cd452 O451 2.300 . S
Cd452 O460 2.381 . S
Cd452 O461 2.378 . S
O453 Cd454 2.385 . S
O453 C458 1.255 . S
Cd454 O453 2.385 . S
Cd454 O455 2.317 . S
O455 Cd454 2.317 . S
O455 C456 1.232 . S
C456 O455 1.232 . S
C456 O457 1.218 . S
O457 C456 1.218 . S
C458 O451 1.275 . S
C458 O453 1.255 . S
C459 O460 1.258 . S
C459 O461 1.256 . S
O460 Cd452 2.381 . S
O460 C459 1.258 . S
O461 Cd452 2.378 . S
O461 C459 1.256 . S
O462 Cd463 2.300 . S
O462 C469 1.275 . S
Cd463 O462 2.300 . S
Cd463 O471 2.381 . S
Cd463 O472 2.378 . S
O464 Cd465 2.385 . S
O464 C469 1.255 . S
Cd465 O464 2.385 . S
Cd465 O466 2.317 . S
O466 Cd465 2.317 . S
O466 C467 1.232 . S
C467 O466 1.232 . S
C467 O468 1.218 . S
O468 C467 1.218 . S
C469 O462 1.275 . S
C469 O464 1.255 . S
C470 O471 1.258 . S
C470 O472 1.256 . S
O471 Cd463 2.381 . S
O471 C470 1.258 . S
O472 Cd463 2.378 . S
O472 C470 1.256 . S
O473 Cd474 2.300 . S
O473 C480 1.275 . S
Cd474 O473 2.300 . S
Cd474 O482 2.381 . S
Cd474 O483 2.378 . S
O475 Cd476 2.385 . S
O475 C480 1.255 . S
Cd476 O475 2.385 . S
Cd476 O477 2.317 . S
O477 Cd476 2.317 . S
O477 C478 1.232 . S
C478 O477 1.232 . S
C478 O479 1.218 . S
O479 C478 1.218 . S
C480 O473 1.275 . S
C480 O475 1.255 . S
C481 O482 1.258 . S
C481 O483 1.256 . S
O482 Cd474 2.381 . S
O482 C481 1.258 . S
O483 Cd474 2.378 . S
O483 C481 1.256 . S
O484 Cd485 2.300 . S
O484 C491 1.275 . S
Cd485 O484 2.300 . S
Cd485 O493 2.381 . S
Cd485 O494 2.378 . S
O486 Cd487 2.385 . S
O486 C491 1.255 . S
Cd487 O486 2.385 . S
Cd487 O488 2.317 . S
O488 Cd487 2.317 . S
O488 C489 1.232 . S
C489 O488 1.232 . S
C489 O490 1.218 . S
O490 C489 1.218 . S
C491 O484 1.275 . S
C491 O486 1.255 . S
C492 O493 1.258 . S
C492 O494 1.256 . S
O493 Cd485 2.381 . S
O493 C492 1.258 . S
O494 Cd485 2.378 . S
O494 C492 1.256 . S
O495 Cd496 2.300 . S
O495 C502 1.275 . S
Cd496 O495 2.300 . S
Cd496 O504 2.381 . S
Cd496 O505 2.378 . S
O497 Cd498 2.385 . S
O497 C502 1.255 . S
Cd498 O497 2.385 . S
Cd498 O499 2.317 . S
O499 Cd498 2.317 . S
O499 C500 1.232 . S
C500 O499 1.232 . S
C500 O501 1.218 . S
O501 C500 1.218 . S
C502 O495 1.275 . S
C502 O497 1.255 . S
C503 O504 1.258 . S
C503 O505 1.256 . S
O504 Cd496 2.381 . S
O504 C503 1.258 . S
O505 Cd496 2.378 . S
O505 C503 1.256 . S
O506 Cd507 2.300 . S
O506 C513 1.275 . S
Cd507 O506 2.300 . S
Cd507 O515 2.381 . S
Cd507 O516 2.378 . S
O508 Cd509 2.385 . S
O508 C513 1.255 . S
Cd509 O508 2.385 . S
Cd509 O510 2.317 . S
O510 Cd509 2.317 . S
O510 C511 1.232 . S
C511 O510 1.232 . S
C511 O512 1.218 . S
O512 C511 1.218 . S
C513 O506 1.275 . S
C513 O508 1.255 . S
C514 O515 1.258 . S
C514 O516 1.256 . S
O515 Cd507 2.381 . S
O515 C514 1.258 . S
O516 Cd507 2.378 . S
O516 C514 1.256 . S
O517 Cd518 2.300 . S
O517 C524 1.275 . S
Cd518 O517 2.300 . S
Cd518 O526 2.381 . S
Cd518 O527 2.378 . S
O519 Cd520 2.385 . S
O519 C524 1.255 . S
Cd520 O519 2.385 . S
Cd520 O521 2.317 . S
O521 Cd520 2.317 . S
O521 C522 1.232 . S
C522 O521 1.232 . S
C522 O523 1.218 . S
O523 C522 1.218 . S
C524 O517 1.275 . S
C524 O519 1.255 . S
C525 O526 1.258 . S
C525 O527 1.256 . S
O526 Cd518 2.381 . S
O526 C525 1.258 . S
O527 Cd518 2.378 . S
O527 C525 1.256 . S
H528 C536 0.950 . S
H529 C541 0.950 . S
H530 C538 0.950 . S
H531 C540 0.950 . S
H532 C542 0.950 . S
H533 C544 0.950 . S
H534 C546 0.950 . S
H535 C547 0.950 . S
C536 H528 0.950 . S
C536 C537 1.386 . S
C536 C538 1.391 . S
C537 C536 1.386 . S
C537 C541 1.393 . S
C538 H530 0.950 . S
C538 C536 1.391 . S
C538 C539 1.400 . S
C539 C538 1.400 . S
C539 C540 1.398 . S
C539 C545 1.491 . S
C540 H531 0.950 . S
C540 C539 1.398 . S
C540 C541 1.391 . S
C541 H529 0.950 . S
C541 C537 1.393 . S
C541 C540 1.391 . S
C542 H532 0.950 . S
C542 C543 1.386 . S
C542 C544 1.391 . S
C543 C542 1.386 . S
C543 C547 1.393 . S
C544 H533 0.950 . S
C544 C542 1.391 . S
C544 C545 1.400 . S
C545 C539 1.491 . S
C545 C544 1.400 . S
C545 C546 1.398 . S
C546 H534 0.950 . S
C546 C545 1.398 . S
C546 C547 1.391 . S
C547 H535 0.950 . S
C547 C543 1.393 . S
C547 C546 1.391 . S
H548 C556 0.950 . S
H549 C561 0.950 . S
H550 C558 0.950 . S
H551 C560 0.950 . S
H552 C562 0.950 . S
H553 C564 0.950 . S
H554 C566 0.950 . S
H555 C567 0.950 . S
C556 H548 0.950 . S
C556 C557 1.386 . S
C556 C558 1.391 . S
C557 C556 1.386 . S
C557 C561 1.393 . S
C558 H550 0.950 . S
C558 C556 1.391 . S
C558 C559 1.400 . S
C559 C558 1.400 . S
C559 C560 1.398 . S
C559 C565 1.491 . S
C560 H551 0.950 . S
C560 C559 1.398 . S
C560 C561 1.391 . S
C561 H549 0.950 . S
C561 C557 1.393 . S
C561 C560 1.391 . S
C562 H552 0.950 . S
C562 C563 1.386 . S
C562 C564 1.391 . S
C563 C562 1.386 . S
C563 C567 1.393 . S
C564 H553 0.950 . S
C564 C562 1.391 . S
C564 C565 1.400 . S
C565 C559 1.491 . S
C565 C564 1.400 . S
C565 C566 1.398 . S
C566 H554 0.950 . S
C566 C565 1.398 . S
C566 C567 1.391 . S
C567 H555 0.950 . S
C567 C563 1.393 . S
C567 C566 1.391 . S
H568 C576 0.950 . S
H569 C581 0.950 . S
H570 C578 0.950 . S
H571 C580 0.950 . S
H572 C582 0.950 . S
H573 C584 0.950 . S
H574 C586 0.950 . S
H575 C587 0.950 . S
C576 H568 0.950 . S
C576 C577 1.386 . S
C576 C578 1.391 . S
C577 C576 1.386 . S
C577 C581 1.393 . S
C578 H570 0.950 . S
C578 C576 1.391 . S
C578 C579 1.400 . S
C579 C578 1.400 . S
C579 C580 1.398 . S
C579 C585 1.491 . S
C580 H571 0.950 . S
C580 C579 1.398 . S
C580 C581 1.391 . S
C581 H569 0.950 . S
C581 C577 1.393 . S
C581 C580 1.391 . S
C582 H572 0.950 . S
C582 C583 1.386 . S
C582 C584 1.391 . S
C583 C582 1.386 . S
C583 C587 1.393 . S
C584 H573 0.950 . S
C584 C582 1.391 . S
C584 C585 1.400 . S
C585 C579 1.491 . S
C585 C584 1.400 . S
C585 C586 1.398 . S
C586 H574 0.950 . S
C586 C585 1.398 . S
C586 C587 1.391 . S
C587 H575 0.950 . S
C587 C583 1.393 . S
C587 C586 1.391 . S
H588 C596 0.950 . S
H589 C601 0.950 . S
H590 C598 0.950 . S
H591 C600 0.950 . S
H592 C602 0.950 . S
H593 C604 0.950 . S
H594 C606 0.950 . S
H595 C607 0.950 . S
C596 H588 0.950 . S
C596 C597 1.386 . S
C596 C598 1.391 . S
C597 C596 1.386 . S
C597 C601 1.393 . S
C598 H590 0.950 . S
C598 C596 1.391 . S
C598 C599 1.400 . S
C599 C598 1.400 . S
C599 C600 1.398 . S
C599 C605 1.491 . S
C600 H591 0.950 . S
C600 C599 1.398 . S
C600 C601 1.391 . S
C601 H589 0.950 . S
C601 C597 1.393 . S
C601 C600 1.391 . S
C602 H592 0.950 . S
C602 C603 1.386 . S
C602 C604 1.391 . S
C603 C602 1.386 . S
C603 C607 1.393 . S
C604 H593 0.950 . S
C604 C602 1.391 . S
C604 C605 1.400 . S
C605 C599 1.491 . S
C605 C604 1.400 . S
C605 C606 1.398 . S
C606 H594 0.950 . S
C606 C605 1.398 . S
C606 C607 1.391 . S
C607 H595 0.950 . S
C607 C603 1.393 . S
C607 C606 1.391 . S
H608 C616 0.950 . S
H609 C621 0.950 . S
H610 C618 0.950 . S
H611 C620 0.950 . S
H612 C622 0.950 . S
H613 C624 0.950 . S
H614 C626 0.950 . S
H615 C627 0.950 . S
C616 H608 0.950 . S
C616 C617 1.386 . S
C616 C618 1.391 . S
C617 C616 1.386 . S
C617 C621 1.393 . S
C618 H610 0.950 . S
C618 C616 1.391 . S
C618 C619 1.400 . S
C619 C618 1.400 . S
C619 C620 1.398 . S
C619 C625 1.491 . S
C620 H611 0.950 . S
C620 C619 1.398 . S
C620 C621 1.391 . S
C621 H609 0.950 . S
C621 C617 1.393 . S
C621 C620 1.391 . S
C622 H612 0.950 . S
C622 C623 1.386 . S
C622 C624 1.391 . S
C623 C622 1.386 . S
C623 C627 1.393 . S
C624 H613 0.950 . S
C624 C622 1.391 . S
C624 C625 1.400 . S
C625 C619 1.491 . S
C625 C624 1.400 . S
C625 C626 1.398 . S
C626 H614 0.950 . S
C626 C625 1.398 . S
C626 C627 1.391 . S
C627 H615 0.950 . S
C627 C623 1.393 . S
C627 C626 1.391 . S
H628 C636 0.950 . S
H629 C641 0.950 . S
H630 C638 0.950 . S
H631 C640 0.950 . S
H632 C642 0.950 . S
H633 C644 0.950 . S
H634 C646 0.950 . S
H635 C647 0.950 . S
C636 H628 0.950 . S
C636 C637 1.386 . S
C636 C638 1.391 . S
C637 C636 1.386 . S
C637 C641 1.393 . S
C638 H630 0.950 . S
C638 C636 1.391 . S
C638 C639 1.400 . S
C639 C638 1.400 . S
C639 C640 1.398 . S
C639 C645 1.491 . S
C640 H631 0.950 . S
C640 C639 1.398 . S
C640 C641 1.391 . S
C641 H629 0.950 . S
C641 C637 1.393 . S
C641 C640 1.391 . S
C642 H632 0.950 . S
C642 C643 1.386 . S
C642 C644 1.391 . S
C643 C642 1.386 . S
C643 C647 1.393 . S
C644 H633 0.950 . S
C644 C642 1.391 . S
C644 C645 1.400 . S
C645 C639 1.491 . S
C645 C644 1.400 . S
C645 C646 1.398 . S
C646 H634 0.950 . S
C646 C645 1.398 . S
C646 C647 1.391 . S
C647 H635 0.950 . S
C647 C643 1.393 . S
C647 C646 1.391 . S
H648 C656 0.950 . S
H649 C661 0.950 . S
H650 C658 0.950 . S
H651 C660 0.950 . S
H652 C662 0.950 . S
H653 C664 0.950 . S
H654 C666 0.950 . S
H655 C667 0.950 . S
C656 H648 0.950 . S
C656 C657 1.386 . S
C656 C658 1.391 . S
C657 C656 1.386 . S
C657 C661 1.393 . S
C658 H650 0.950 . S
C658 C656 1.391 . S
C658 C659 1.400 . S
C659 C658 1.400 . S
C659 C660 1.398 . S
C659 C665 1.491 . S
C660 H651 0.950 . S
C660 C659 1.398 . S
C660 C661 1.391 . S
C661 H649 0.950 . S
C661 C657 1.393 . S
C661 C660 1.391 . S
C662 H652 0.950 . S
C662 C663 1.386 . S
C662 C664 1.391 . S
C663 C662 1.386 . S
C663 C667 1.393 . S
C664 H653 0.950 . S
C664 C662 1.391 . S
C664 C665 1.400 . S
C665 C659 1.491 . S
C665 C664 1.400 . S
C665 C666 1.398 . S
C666 H654 0.950 . S
C666 C665 1.398 . S
C666 C667 1.391 . S
C667 H655 0.950 . S
C667 C663 1.393 . S
C667 C666 1.391 . S
H668 C676 0.950 . S
H669 C681 0.950 . S
H670 C678 0.950 . S
H671 C680 0.950 . S
H672 C682 0.950 . S
H673 C684 0.950 . S
H674 C686 0.950 . S
H675 C687 0.950 . S
C676 H668 0.950 . S
C676 C677 1.386 . S
C676 C678 1.391 . S
C677 C676 1.386 . S
C677 C681 1.393 . S
C678 H670 0.950 . S
C678 C676 1.391 . S
C678 C679 1.400 . S
C679 C678 1.400 . S
C679 C680 1.398 . S
C679 C685 1.491 . S
C680 H671 0.950 . S
C680 C679 1.398 . S
C680 C681 1.391 . S
C681 H669 0.950 . S
C681 C677 1.393 . S
C681 C680 1.391 . S
C682 H672 0.950 . S
C682 C683 1.386 . S
C682 C684 1.391 . S
C683 C682 1.386 . S
C683 C687 1.393 . S
C684 H673 0.950 . S
C684 C682 1.391 . S
C684 C685 1.400 . S
C685 C679 1.491 . S
C685 C684 1.400 . S
C685 C686 1.398 . S
C686 H674 0.950 . S
C686 C685 1.398 . S
C686 C687 1.391 . S
C687 H675 0.950 . S
C687 C683 1.393 . S
C687 C686 1.391 . S
H688 C696 0.950 . S
H689 C701 0.950 . S
H690 C698 0.950 . S
H691 C700 0.950 . S
H692 C702 0.950 . S
H693 C704 0.950 . S
H694 C706 0.950 . S
H695 C707 0.950 . S
C696 H688 0.950 . S
C696 C697 1.386 . S
C696 C698 1.391 . S
C697 C696 1.386 . S
C697 C701 1.393 . S
C698 H690 0.950 . S
C698 C696 1.391 . S
C698 C699 1.400 . S
C699 C698 1.400 . S
C699 C700 1.398 . S
C699 C705 1.491 . S
C700 H691 0.950 . S
C700 C699 1.398 . S
C700 C701 1.391 . S
C701 H689 0.950 . S
C701 C697 1.393 . S
C701 C700 1.391 . S
C702 H692 0.950 . S
C702 C703 1.386 . S
C702 C704 1.391 . S
C703 C702 1.386 . S
C703 C707 1.393 . S
C704 H693 0.950 . S
C704 C702 1.391 . S
C704 C705 1.400 . S
C705 C699 1.491 . S
C705 C704 1.400 . S
C705 C706 1.398 . S
C706 H694 0.950 . S
C706 C705 1.398 . S
C706 C707 1.391 . S
C707 H695 0.950 . S
C707 C703 1.393 . S
C707 C706 1.391 . S
H708 C716 0.950 . S
H709 C721 0.950 . S
H710 C718 0.950 . S
H711 C720 0.950 . S
H712 C722 0.950 . S
H713 C724 0.950 . S
H714 C726 0.950 . S
H715 C727 0.950 . S
C716 H708 0.950 . S
C716 C717 1.386 . S
C716 C718 1.391 . S
C717 C716 1.386 . S
C717 C721 1.393 . S
C718 H710 0.950 . S
C718 C716 1.391 . S
C718 C719 1.400 . S
C719 C718 1.400 . S
C719 C720 1.398 . S
C719 C725 1.491 . S
C720 H711 0.950 . S
C720 C719 1.398 . S
C720 C721 1.391 . S
C721 H709 0.950 . S
C721 C717 1.393 . S
C721 C720 1.391 . S
C722 H712 0.950 . S
C722 C723 1.386 . S
C722 C724 1.391 . S
C723 C722 1.386 . S
C723 C727 1.393 . S
C724 H713 0.950 . S
C724 C722 1.391 . S
C724 C725 1.400 . S
C725 C719 1.491 . S
C725 C724 1.400 . S
C725 C726 1.398 . S
C726 H714 0.950 . S
C726 C725 1.398 . S
C726 C727 1.391 . S
C727 H715 0.950 . S
C727 C723 1.393 . S
C727 C726 1.391 . S
H728 C736 0.950 . S
H729 C741 0.950 . S
H730 C738 0.950 . S
H731 C740 0.950 . S
H732 C742 0.950 . S
H733 C744 0.950 . S
H734 C746 0.950 . S
H735 C747 0.950 . S
C736 H728 0.950 . S
C736 C737 1.386 . S
C736 C738 1.391 . S
C737 C736 1.386 . S
C737 C741 1.393 . S
C738 H730 0.950 . S
C738 C736 1.391 . S
C738 C739 1.400 . S
C739 C738 1.400 . S
C739 C740 1.398 . S
C739 C745 1.491 . S
C740 H731 0.950 . S
C740 C739 1.398 . S
C740 C741 1.391 . S
C741 H729 0.950 . S
C741 C737 1.393 . S
C741 C740 1.391 . S
C742 H732 0.950 . S
C742 C743 1.386 . S
C742 C744 1.391 . S
C743 C742 1.386 . S
C743 C747 1.393 . S
C744 H733 0.950 . S
C744 C742 1.391 . S
C744 C745 1.400 . S
C745 C739 1.491 . S
C745 C744 1.400 . S
C745 C746 1.398 . S
C746 H734 0.950 . S
C746 C745 1.398 . S
C746 C747 1.391 . S
C747 H735 0.950 . S
C747 C743 1.393 . S
C747 C746 1.391 . S
H748 C756 0.950 . S
H749 C761 0.950 . S
H750 C758 0.950 . S
H751 C760 0.950 . S
H752 C762 0.950 . S
H753 C764 0.950 . S
H754 C766 0.950 . S
H755 C767 0.950 . S
C756 H748 0.950 . S
C756 C757 1.386 . S
C756 C758 1.391 . S
C757 C756 1.386 . S
C757 C761 1.393 . S
C758 H750 0.950 . S
C758 C756 1.391 . S
C758 C759 1.400 . S
C759 C758 1.400 . S
C759 C760 1.398 . S
C759 C765 1.491 . S
C760 H751 0.950 . S
C760 C759 1.398 . S
C760 C761 1.391 . S
C761 H749 0.950 . S
C761 C757 1.393 . S
C761 C760 1.391 . S
C762 H752 0.950 . S
C762 C763 1.386 . S
C762 C764 1.391 . S
C763 C762 1.386 . S
C763 C767 1.393 . S
C764 H753 0.950 . S
C764 C762 1.391 . S
C764 C765 1.400 . S
C765 C759 1.491 . S
C765 C764 1.400 . S
C765 C766 1.398 . S
C766 H754 0.950 . S
C766 C765 1.398 . S
C766 C767 1.391 . S
C767 H755 0.950 . S
C767 C763 1.393 . S
C767 C766 1.391 . S
H768 C776 0.950 . S
H769 C781 0.950 . S
H770 C778 0.950 . S
H771 C780 0.950 . S
H772 C782 0.950 . S
H773 C784 0.950 . S
H774 C786 0.950 . S
H775 C787 0.950 . S
C776 H768 0.950 . S
C776 C777 1.386 . S
C776 C778 1.391 . S
C777 C776 1.386 . S
C777 C781 1.393 . S
C778 H770 0.950 . S
C778 C776 1.391 . S
C778 C779 1.400 . S
C779 C778 1.400 . S
C779 C780 1.398 . S
C779 C785 1.491 . S
C780 H771 0.950 . S
C780 C779 1.398 . S
C780 C781 1.391 . S
C781 H769 0.950 . S
C781 C777 1.393 . S
C781 C780 1.391 . S
C782 H772 0.950 . S
C782 C783 1.386 . S
C782 C784 1.391 . S
C783 C782 1.386 . S
C783 C787 1.393 . S
C784 H773 0.950 . S
C784 C782 1.391 . S
C784 C785 1.400 . S
C785 C779 1.491 . S
C785 C784 1.400 . S
C785 C786 1.398 . S
C786 H774 0.950 . S
C786 C785 1.398 . S
C786 C787 1.391 . S
C787 H775 0.950 . S
C787 C783 1.393 . S
C787 C786 1.391 . S
H788 C796 0.950 . S
H789 C801 0.950 . S
H790 C798 0.950 . S
H791 C800 0.950 . S
H792 C802 0.950 . S
H793 C804 0.950 . S
H794 C806 0.950 . S
H795 C807 0.950 . S
C796 H788 0.950 . S
C796 C797 1.386 . S
C796 C798 1.391 . S
C797 C796 1.386 . S
C797 C801 1.393 . S
C798 H790 0.950 . S
C798 C796 1.391 . S
C798 C799 1.400 . S
C799 C798 1.400 . S
C799 C800 1.398 . S
C799 C805 1.491 . S
C800 H791 0.950 . S
C800 C799 1.398 . S
C800 C801 1.391 . S
C801 H789 0.950 . S
C801 C797 1.393 . S
C801 C800 1.391 . S
C802 H792 0.950 . S
C802 C803 1.386 . S
C802 C804 1.391 . S
C803 C802 1.386 . S
C803 C807 1.393 . S
C804 H793 0.950 . S
C804 C802 1.391 . S
C804 C805 1.400 . S
C805 C799 1.491 . S
C805 C804 1.400 . S
C805 C806 1.398 . S
C806 H794 0.950 . S
C806 C805 1.398 . S
C806 C807 1.391 . S
C807 H795 0.950 . S
C807 C803 1.393 . S
C807 C806 1.391 . S
H808 C816 0.950 . S
H809 C821 0.950 . S
H810 C818 0.950 . S
H811 C820 0.950 . S
H812 C822 0.950 . S
H813 C824 0.950 . S
H814 C826 0.950 . S
H815 C827 0.950 . S
C816 H808 0.950 . S
C816 C817 1.386 . S
C816 C818 1.391 . S
C817 C816 1.386 . S
C817 C821 1.393 . S
C818 H810 0.950 . S
C818 C816 1.391 . S
C818 C819 1.400 . S
C819 C818 1.400 . S
C819 C820 1.398 . S
C819 C825 1.491 . S
C820 H811 0.950 . S
C820 C819 1.398 . S
C820 C821 1.391 . S
C821 H809 0.950 . S
C821 C817 1.393 . S
C821 C820 1.391 . S
C822 H812 0.950 . S
C822 C823 1.386 . S
C822 C824 1.391 . S
C823 C822 1.386 . S
C823 C827 1.393 . S
C824 H813 0.950 . S
C824 C822 1.391 . S
C824 C825 1.400 . S
C825 C819 1.491 . S
C825 C824 1.400 . S
C825 C826 1.398 . S
C826 H814 0.950 . S
C826 C825 1.398 . S
C826 C827 1.391 . S
C827 H815 0.950 . S
C827 C823 1.393 . S
C827 C826 1.391 . S
H828 C836 0.950 . S
H829 C841 0.950 . S
H830 C838 0.950 . S
H831 C840 0.950 . S
H832 C842 0.950 . S
H833 C844 0.950 . S
H834 C846 0.950 . S
H835 C847 0.950 . S
C836 H828 0.950 . S
C836 C837 1.386 . S
C836 C838 1.391 . S
C837 C836 1.386 . S
C837 C841 1.393 . S
C838 H830 0.950 . S
C838 C836 1.391 . S
C838 C839 1.400 . S
C839 C838 1.400 . S
C839 C840 1.398 . S
C839 C845 1.491 . S
C840 H831 0.950 . S
C840 C839 1.398 . S
C840 C841 1.391 . S
C841 H829 0.950 . S
C841 C837 1.393 . S
C841 C840 1.391 . S
C842 H832 0.950 . S
C842 C843 1.386 . S
C842 C844 1.391 . S
C843 C842 1.386 . S
C843 C847 1.393 . S
C844 H833 0.950 . S
C844 C842 1.391 . S
C844 C845 1.400 . S
C845 C839 1.491 . S
C845 C844 1.400 . S
C845 C846 1.398 . S
C846 H834 0.950 . S
C846 C845 1.398 . S
C846 C847 1.391 . S
C847 H835 0.950 . S
C847 C843 1.393 . S
C847 C846 1.391 . S
H848 C856 0.950 . S
H849 C861 0.950 . S
H850 C858 0.950 . S
H851 C860 0.950 . S
H852 C862 0.950 . S
H853 C864 0.950 . S
H854 C866 0.950 . S
H855 C867 0.950 . S
C856 H848 0.950 . S
C856 C857 1.386 . S
C856 C858 1.391 . S
C857 C856 1.386 . S
C857 C861 1.393 . S
C858 H850 0.950 . S
C858 C856 1.391 . S
C858 C859 1.400 . S
C859 C858 1.400 . S
C859 C860 1.398 . S
C859 C865 1.491 . S
C860 H851 0.950 . S
C860 C859 1.398 . S
C860 C861 1.391 . S
C861 H849 0.950 . S
C861 C857 1.393 . S
C861 C860 1.391 . S
C862 H852 0.950 . S
C862 C863 1.386 . S
C862 C864 1.391 . S
C863 C862 1.386 . S
C863 C867 1.393 . S
C864 H853 0.950 . S
C864 C862 1.391 . S
C864 C865 1.400 . S
C865 C859 1.491 . S
C865 C864 1.400 . S
C865 C866 1.398 . S
C866 H854 0.950 . S
C866 C865 1.398 . S
C866 C867 1.391 . S
C867 H855 0.950 . S
C867 C863 1.393 . S
C867 C866 1.391 . S
H868 C876 0.950 . S
H869 C881 0.950 . S
H870 C878 0.950 . S
H871 C880 0.950 . S
H872 C882 0.950 . S
H873 C884 0.950 . S
H874 C886 0.950 . S
H875 C887 0.950 . S
C876 H868 0.950 . S
C876 C877 1.386 . S
C876 C878 1.391 . S
C877 C876 1.386 . S
C877 C881 1.393 . S
C878 H870 0.950 . S
C878 C876 1.391 . S
C878 C879 1.400 . S
C879 C878 1.400 . S
C879 C880 1.398 . S
C879 C885 1.491 . S
C880 H871 0.950 . S
C880 C879 1.398 . S
C880 C881 1.391 . S
C881 H869 0.950 . S
C881 C877 1.393 . S
C881 C880 1.391 . S
C882 H872 0.950 . S
C882 C883 1.386 . S
C882 C884 1.391 . S
C883 C882 1.386 . S
C883 C887 1.393 . S
C884 H873 0.950 . S
C884 C882 1.391 . S
C884 C885 1.400 . S
C885 C879 1.491 . S
C885 C884 1.400 . S
C885 C886 1.398 . S
C886 H874 0.950 . S
C886 C885 1.398 . S
C886 C887 1.391 . S
C887 H875 0.950 . S
C887 C883 1.393 . S
C887 C886 1.391 . S
H888 C896 0.950 . S
H889 C901 0.950 . S
H890 C898 0.950 . S
H891 C900 0.950 . S
H892 C902 0.950 . S
H893 C904 0.950 . S
H894 C906 0.950 . S
H895 C907 0.950 . S
C896 H888 0.950 . S
C896 C897 1.386 . S
C896 C898 1.391 . S
C897 C896 1.386 . S
C897 C901 1.393 . S
C898 H890 0.950 . S
C898 C896 1.391 . S
C898 C899 1.400 . S
C899 C898 1.400 . S
C899 C900 1.398 . S
C899 C905 1.491 . S
C900 H891 0.950 . S
C900 C899 1.398 . S
C900 C901 1.391 . S
C901 H889 0.950 . S
C901 C897 1.393 . S
C901 C900 1.391 . S
C902 H892 0.950 . S
C902 C903 1.386 . S
C902 C904 1.391 . S
C903 C902 1.386 . S
C903 C907 1.393 . S
C904 H893 0.950 . S
C904 C902 1.391 . S
C904 C905 1.400 . S
C905 C899 1.491 . S
C905 C904 1.400 . S
C905 C906 1.398 . S
C906 H894 0.950 . S
C906 C905 1.398 . S
C906 C907 1.391 . S
C907 H895 0.950 . S
C907 C903 1.393 . S
C907 C906 1.391 . S
H908 C916 0.950 . S
H909 C921 0.950 . S
H910 C918 0.950 . S
H911 C920 0.950 . S
H912 C922 0.950 . S
H913 C924 0.950 . S
H914 C926 0.950 . S
H915 C927 0.950 . S
C916 H908 0.950 . S
C916 C917 1.386 . S
C916 C918 1.391 . S
C917 C916 1.386 . S
C917 C921 1.393 . S
C918 H910 0.950 . S
C918 C916 1.391 . S
C918 C919 1.400 . S
C919 C918 1.400 . S
C919 C920 1.398 . S
C919 C925 1.491 . S
C920 H911 0.950 . S
C920 C919 1.398 . S
C920 C921 1.391 . S
C921 H909 0.950 . S
C921 C917 1.393 . S
C921 C920 1.391 . S
C922 H912 0.950 . S
C922 C923 1.386 . S
C922 C924 1.391 . S
C923 C922 1.386 . S
C923 C927 1.393 . S
C924 H913 0.950 . S
C924 C922 1.391 . S
C924 C925 1.400 . S
C925 C919 1.491 . S
C925 C924 1.400 . S
C925 C926 1.398 . S
C926 H914 0.950 . S
C926 C925 1.398 . S
C926 C927 1.391 . S
C927 H915 0.950 . S
C927 C923 1.393 . S
C927 C926 1.391 . S
H928 C936 0.950 . S
H929 C941 0.950 . S
H930 C938 0.950 . S
H931 C940 0.950 . S
H932 C942 0.950 . S
H933 C944 0.950 . S
H934 C946 0.950 . S
H935 C947 0.950 . S
C936 H928 0.950 . S
C936 C937 1.386 . S
C936 C938 1.391 . S
C937 C936 1.386 . S
C937 C941 1.393 . S
C938 H930 0.950 . S
C938 C936 1.391 . S
C938 C939 1.400 . S
C939 C938 1.400 . S
C939 C940 1.398 . S
C939 C945 1.491 . S
C940 H931 0.950 . S
C940 C939 1.398 . S
C940 C941 1.391 . S
C941 H929 0.950 . S
C941 C937 1.393 . S
C941 C940 1.391 . S
C942 H932 0.950 . S
C942 C943 1.386 . S
C942 C944 1.391 . S
C943 C942 1.386 . S
C943 C947 1.393 . S
C944 H933 0.950 . S
C944 C942 1.391 . S
C944 C945 1.400 . S
C945 C939 1.491 . S
C945 C944 1.400 . S
C945 C946 1.398 . S
C946 H934 0.950 . S
C946 C945 1.398 . S
C946 C947 1.391 . S
C947 H935 0.950 . S
C947 C943 1.393 . S
C947 C946 1.391 . S
H948 C956 0.950 . S
H949 C961 0.950 . S
H950 C958 0.950 . S
H951 C960 0.950 . S
H952 C962 0.950 . S
H953 C964 0.950 . S
H954 C966 0.950 . S
H955 C967 0.950 . S
C956 H948 0.950 . S
C956 C957 1.386 . S
C956 C958 1.391 . S
C957 C956 1.386 . S
C957 C961 1.393 . S
C958 H950 0.950 . S
C958 C956 1.391 . S
C958 C959 1.400 . S
C959 C958 1.400 . S
C959 C960 1.398 . S
C959 C965 1.491 . S
C960 H951 0.950 . S
C960 C959 1.398 . S
C960 C961 1.391 . S
C961 H949 0.950 . S
C961 C957 1.393 . S
C961 C960 1.391 . S
C962 H952 0.950 . S
C962 C963 1.386 . S
C962 C964 1.391 . S
C963 C962 1.386 . S
C963 C967 1.393 . S
C964 H953 0.950 . S
C964 C962 1.391 . S
C964 C965 1.400 . S
C965 C959 1.491 . S
C965 C964 1.400 . S
C965 C966 1.398 . S
C966 H954 0.950 . S
C966 C965 1.398 . S
C966 C967 1.391 . S
C967 H955 0.950 . S
C967 C963 1.393 . S
C967 C966 1.391 . S
H968 C976 0.950 . S
H969 C981 0.950 . S
H970 C978 0.950 . S
H971 C980 0.950 . S
H972 C982 0.950 . S
H973 C984 0.950 . S
H974 C986 0.950 . S
H975 C987 0.950 . S
C976 H968 0.950 . S
C976 C977 1.386 . S
C976 C978 1.391 . S
C977 C976 1.386 . S
C977 C981 1.393 . S
C978 H970 0.950 . S
C978 C976 1.391 . S
C978 C979 1.400 . S
C979 C978 1.400 . S
C979 C980 1.398 . S
C979 C985 1.491 . S
C980 H971 0.950 . S
C980 C979 1.398 . S
C980 C981 1.391 . S
C981 H969 0.950 . S
C981 C977 1.393 . S
C981 C980 1.391 . S
C982 H972 0.950 . S
C982 C983 1.386 . S
C982 C984 1.391 . S
C983 C982 1.386 . S
C983 C987 1.393 . S
C984 H973 0.950 . S
C984 C982 1.391 . S
C984 C985 1.400 . S
C985 C979 1.491 . S
C985 C984 1.400 . S
C985 C986 1.398 . S
C986 H974 0.950 . S
C986 C985 1.398 . S
C986 C987 1.391 . S
C987 H975 0.950 . S
C987 C983 1.393 . S
C987 C986 1.391 . S
H988 C996 0.950 . S
H989 C1001 0.950 . S
H990 C998 0.950 . S
H991 C1000 0.950 . S
H992 C1002 0.950 . S
H993 C1004 0.950 . S
H994 C1006 0.950 . S
H995 C1007 0.950 . S
C996 H988 0.950 . S
C996 C997 1.386 . S
C996 C998 1.391 . S
C997 C996 1.386 . S
C997 C1001 1.393 . S
C998 H990 0.950 . S
C998 C996 1.391 . S
C998 C999 1.400 . S
C999 C998 1.400 . S
C999 C1000 1.398 . S
C999 C1005 1.491 . S
C1000 H991 0.950 . S
C1000 C999 1.398 . S
C1000 C1001 1.391 . S
C1001 H989 0.950 . S
C1001 C997 1.393 . S
C1001 C1000 1.391 . S
C1002 H992 0.950 . S
C1002 C1003 1.386 . S
C1002 C1004 1.391 . S
C1003 C1002 1.386 . S
C1003 C1007 1.393 . S
C1004 H993 0.950 . S
C1004 C1002 1.391 . S
C1004 C1005 1.400 . S
C1005 C999 1.491 . S
C1005 C1004 1.400 . S
C1005 C1006 1.398 . S
C1006 H994 0.950 . S
C1006 C1005 1.398 . S
C1006 C1007 1.391 . S
C1007 H995 0.950 . S
C1007 C1003 1.393 . S
C1007 C1006 1.391 . S
H1008 C1016 0.950 . S
H1009 C1021 0.950 . S
H1010 C1018 0.950 . S
H1011 C1020 0.950 . S
H1012 C1022 0.950 . S
H1013 C1024 0.950 . S
H1014 C1026 0.950 . S
H1015 C1027 0.950 . S
C1016 H1008 0.950 . S
C1016 C1017 1.386 . S
C1016 C1018 1.391 . S
C1017 C1016 1.386 . S
C1017 C1021 1.393 . S
C1018 H1010 0.950 . S
C1018 C1016 1.391 . S
C1018 C1019 1.400 . S
C1019 C1018 1.400 . S
C1019 C1020 1.398 . S
C1019 C1025 1.491 1_455 S
C1020 H1011 0.950 . S
C1020 C1019 1.398 . S
C1020 C1021 1.391 . S
C1021 H1009 0.950 . S
C1021 C1017 1.393 . S
C1021 C1020 1.391 . S
C1022 H1012 0.950 . S
C1022 C1023 1.386 . S
C1022 C1024 1.391 . S
C1023 C1022 1.386 . S
C1023 C1027 1.393 . S
C1024 H1013 0.950 . S
C1024 C1022 1.391 . S
C1024 C1025 1.400 . S
C1025 C1019 1.491 1_655 S
C1025 C1024 1.400 . S
C1025 C1026 1.398 . S
C1026 H1014 0.950 . S
C1026 C1025 1.398 . S
C1026 C1027 1.391 . S
C1027 H1015 0.950 . S
C1027 C1023 1.393 . S
C1027 C1026 1.391 . S
H1028 C1036 0.950 . S
H1029 C1041 0.950 . S
H1030 C1038 0.950 . S
H1031 C1040 0.950 . S
H1032 C1042 0.950 . S
H1033 C1044 0.950 . S
H1034 C1046 0.950 . S
H1035 C1047 0.950 . S
C1036 H1028 0.950 . S
C1036 C1037 1.386 . S
C1036 C1038 1.391 . S
C1037 C1036 1.386 . S
C1037 C1041 1.393 . S
C1038 H1030 0.950 . S
C1038 C1036 1.391 . S
C1038 C1039 1.400 . S
C1039 C1038 1.400 . S
C1039 C1040 1.398 . S
C1039 C1045 1.491 . S
C1040 H1031 0.950 . S
C1040 C1039 1.398 . S
C1040 C1041 1.391 . S
C1041 H1029 0.950 . S
C1041 C1037 1.393 . S
C1041 C1040 1.391 . S
C1042 H1032 0.950 . S
C1042 C1043 1.386 . S
C1042 C1044 1.391 . S
C1043 C1042 1.386 . S
C1043 C1047 1.393 . S
C1044 H1033 0.950 . S
C1044 C1042 1.391 . S
C1044 C1045 1.400 . S
C1045 C1039 1.491 . S
C1045 C1044 1.400 . S
C1045 C1046 1.398 . S
C1046 H1034 0.950 . S
C1046 C1045 1.398 . S
C1046 C1047 1.391 . S
C1047 H1035 0.950 . S
C1047 C1043 1.393 . S
C1047 C1046 1.391 . S
H1048 C1056 0.950 . S
H1049 C1061 0.950 . S
H1050 C1058 0.950 . S
H1051 C1060 0.950 . S
H1052 C1062 0.950 . S
H1053 C1064 0.950 . S
H1054 C1066 0.950 . S
H1055 C1067 0.950 . S
C1056 H1048 0.950 . S
C1056 C1057 1.386 . S
C1056 C1058 1.391 . S
C1057 C1056 1.386 . S
C1057 C1061 1.393 . S
C1058 H1050 0.950 . S
C1058 C1056 1.391 . S
C1058 C1059 1.400 . S
C1059 C1058 1.400 . S
C1059 C1060 1.398 . S
C1059 C1065 1.491 . S
C1060 H1051 0.950 . S
C1060 C1059 1.398 . S
C1060 C1061 1.391 . S
C1061 H1049 0.950 . S
C1061 C1057 1.393 . S
C1061 C1060 1.391 . S
C1062 H1052 0.950 . S
C1062 C1063 1.386 . S
C1062 C1064 1.391 . S
C1063 C1062 1.386 . S
C1063 C1067 1.393 . S
C1064 H1053 0.950 . S
C1064 C1062 1.391 . S
C1064 C1065 1.400 . S
C1065 C1059 1.491 . S
C1065 C1064 1.400 . S
C1065 C1066 1.398 . S
C1066 H1054 0.950 . S
C1066 C1065 1.398 . S
C1066 C1067 1.391 . S
C1067 H1055 0.950 . S
C1067 C1063 1.393 . S
C1067 C1066 1.391 . S
H1068 C1076 0.950 . S
H1069 C1081 0.950 . S
H1070 C1078 0.950 . S
H1071 C1080 0.950 . S
H1072 C1082 0.950 . S
H1073 C1084 0.950 . S
H1074 C1086 0.950 . S
H1075 C1087 0.950 . S
C1076 H1068 0.950 . S
C1076 C1077 1.386 . S
C1076 C1078 1.391 . S
C1077 C1076 1.386 . S
C1077 C1081 1.393 . S
C1078 H1070 0.950 . S
C1078 C1076 1.391 . S
C1078 C1079 1.400 . S
C1079 C1078 1.400 . S
C1079 C1080 1.398 . S
C1079 C1085 1.491 1_565 S
C1080 H1071 0.950 . S
C1080 C1079 1.398 . S
C1080 C1081 1.391 . S
C1081 H1069 0.950 . S
C1081 C1077 1.393 . S
C1081 C1080 1.391 . S
C1082 H1072 0.950 . S
C1082 C1083 1.386 . S
C1082 C1084 1.391 . S
C1083 C1082 1.386 . S
C1083 C1087 1.393 . S
C1084 H1073 0.950 . S
C1084 C1082 1.391 . S
C1084 C1085 1.400 . S
C1085 C1079 1.491 1_545 S
C1085 C1084 1.400 . S
C1085 C1086 1.398 . S
C1086 H1074 0.950 . S
C1086 C1085 1.398 . S
C1086 C1087 1.391 . S
C1087 H1075 0.950 . S
C1087 C1083 1.393 . S
C1087 C1086 1.391 . S
H1088 C1096 0.950 . S
H1089 C1101 0.950 . S
H1090 C1098 0.950 . S
H1091 C1100 0.950 . S
H1092 C1102 0.950 . S
H1093 C1104 0.950 . S
H1094 C1106 0.950 . S
H1095 C1107 0.950 . S
C1096 H1088 0.950 . S
C1096 C1097 1.386 . S
C1096 C1098 1.391 . S
C1097 C1096 1.386 . S
C1097 C1101 1.393 . S
C1098 H1090 0.950 . S
C1098 C1096 1.391 . S
C1098 C1099 1.400 . S
C1099 C1098 1.400 . S
C1099 C1100 1.398 . S
C1099 C1105 1.491 1_655 S
C1100 H1091 0.950 . S
C1100 C1099 1.398 . S
C1100 C1101 1.391 . S
C1101 H1089 0.950 . S
C1101 C1097 1.393 . S
C1101 C1100 1.391 . S
C1102 H1092 0.950 . S
C1102 C1103 1.386 . S
C1102 C1104 1.391 . S
C1103 C1102 1.386 . S
C1103 C1107 1.393 . S
C1104 H1093 0.950 . S
C1104 C1102 1.391 . S
C1104 C1105 1.400 . S
C1105 C1099 1.491 1_455 S
C1105 C1104 1.400 . S
C1105 C1106 1.398 . S
C1106 H1094 0.950 . S
C1106 C1105 1.398 . S
C1106 C1107 1.391 . S
C1107 H1095 0.950 . S
C1107 C1103 1.393 . S
C1107 C1106 1.391 . S
H1108 C1116 0.950 . S
H1109 C1121 0.950 . S
H1110 C1118 0.950 . S
H1111 C1120 0.950 . S
H1112 C1122 0.950 . S
H1113 C1124 0.950 . S
H1114 C1126 0.950 . S
H1115 C1127 0.950 . S
C1116 H1108 0.950 . S
C1116 C1117 1.386 . S
C1116 C1118 1.391 . S
C1117 C1116 1.386 . S
C1117 C1121 1.393 . S
C1118 H1110 0.950 . S
C1118 C1116 1.391 . S
C1118 C1119 1.400 . S
C1119 C1118 1.400 . S
C1119 C1120 1.398 . S
C1119 C1125 1.491 . S
C1120 H1111 0.950 . S
C1120 C1119 1.398 . S
C1120 C1121 1.391 . S
C1121 H1109 0.950 . S
C1121 C1117 1.393 . S
C1121 C1120 1.391 . S
C1122 H1112 0.950 . S
C1122 C1123 1.386 . S
C1122 C1124 1.391 . S
C1123 C1122 1.386 . S
C1123 C1127 1.393 . S
C1124 H1113 0.950 . S
C1124 C1122 1.391 . S
C1124 C1125 1.400 . S
C1125 C1119 1.491 . S
C1125 C1124 1.400 . S
C1125 C1126 1.398 . S
C1126 H1114 0.950 . S
C1126 C1125 1.398 . S
C1126 C1127 1.391 . S
C1127 H1115 0.950 . S
C1127 C1123 1.393 . S
C1127 C1126 1.391 . S
H1128 C1136 0.950 . S
H1129 C1141 0.950 . S
H1130 C1138 0.950 . S
H1131 C1140 0.950 . S
H1132 C1142 0.950 . S
H1133 C1144 0.950 . S
H1134 C1146 0.950 . S
H1135 C1147 0.950 . S
C1136 H1128 0.950 . S
C1136 C1137 1.386 . S
C1136 C1138 1.391 . S
C1137 C1136 1.386 . S
C1137 C1141 1.393 . S
C1138 H1130 0.950 . S
C1138 C1136 1.391 . S
C1138 C1139 1.400 . S
C1139 C1138 1.400 . S
C1139 C1140 1.398 . S
C1139 C1145 1.491 . S
C1140 H1131 0.950 . S
C1140 C1139 1.398 . S
C1140 C1141 1.391 . S
C1141 H1129 0.950 . S
C1141 C1137 1.393 . S
C1141 C1140 1.391 . S
C1142 H1132 0.950 . S
C1142 C1143 1.386 . S
C1142 C1144 1.391 . S
C1143 C1142 1.386 . S
C1143 C1147 1.393 . S
C1144 H1133 0.950 . S
C1144 C1142 1.391 . S
C1144 C1145 1.400 . S
C1145 C1139 1.491 . S
C1145 C1144 1.400 . S
C1145 C1146 1.398 . S
C1146 H1134 0.950 . S
C1146 C1145 1.398 . S
C1146 C1147 1.391 . S
C1147 H1135 0.950 . S
C1147 C1143 1.393 . S
C1147 C1146 1.391 . S
H1148 C1156 0.950 . S
H1149 C1161 0.950 . S
H1150 C1158 0.950 . S
H1151 C1160 0.950 . S
H1152 C1162 0.950 . S
H1153 C1164 0.950 . S
H1154 C1166 0.950 . S
H1155 C1167 0.950 . S
C1156 H1148 0.950 . S
C1156 C1157 1.386 . S
C1156 C1158 1.391 . S
C1157 C1156 1.386 . S
C1157 C1161 1.393 . S
C1158 H1150 0.950 . S
C1158 C1156 1.391 . S
C1158 C1159 1.400 . S
C1159 C1158 1.400 . S
C1159 C1160 1.398 . S
C1159 C1165 1.491 1_545 S
C1160 H1151 0.950 . S
C1160 C1159 1.398 . S
C1160 C1161 1.391 . S
C1161 H1149 0.950 . S
C1161 C1157 1.393 . S
C1161 C1160 1.391 . S
C1162 H1152 0.950 . S
C1162 C1163 1.386 . S
C1162 C1164 1.391 . S
C1163 C1162 1.386 . S
C1163 C1167 1.393 . S
C1164 H1153 0.950 . S
C1164 C1162 1.391 . S
C1164 C1165 1.400 . S
C1165 C1159 1.491 1_565 S
C1165 C1164 1.400 . S
C1165 C1166 1.398 . S
C1166 H1154 0.950 . S
C1166 C1165 1.398 . S
C1166 C1167 1.391 . S
C1167 H1155 0.950 . S
C1167 C1163 1.393 . S
C1167 C1166 1.391 . S
H1168 C1176 0.950 . S
H1169 C1181 0.950 . S
H1170 C1178 0.950 . S
H1171 C1180 0.950 . S
H1172 C1182 0.950 . S
H1173 C1184 0.950 . S
H1174 C1186 0.950 . S
H1175 C1187 0.950 . S
C1176 H1168 0.950 . S
C1176 C1177 1.386 . S
C1176 C1178 1.391 . S
C1177 C1176 1.386 . S
C1177 C1181 1.393 . S
C1178 H1170 0.950 . S
C1178 C1176 1.391 . S
C1178 C1179 1.400 . S
C1179 C1178 1.400 . S
C1179 C1180 1.398 . S
C1179 C1185 1.491 1_554 S
C1180 H1171 0.950 . S
C1180 C1179 1.398 . S
C1180 C1181 1.391 . S
C1181 H1169 0.950 . S
C1181 C1177 1.393 . S
C1181 C1180 1.391 . S
C1182 H1172 0.950 . S
C1182 C1183 1.386 . S
C1182 C1184 1.391 . S
C1183 C1182 1.386 . S
C1183 C1187 1.393 . S
C1184 H1173 0.950 . S
C1184 C1182 1.391 . S
C1184 C1185 1.400 . S
C1185 C1179 1.491 1_556 S
C1185 C1184 1.400 . S
C1185 C1186 1.398 . S
C1186 H1174 0.950 . S
C1186 C1185 1.398 . S
C1186 C1187 1.391 . S
C1187 H1175 0.950 . S
C1187 C1183 1.393 . S
C1187 C1186 1.391 . S
H1188 C1196 0.950 . S
H1189 C1201 0.950 . S
H1190 C1198 0.950 . S
H1191 C1200 0.950 . S
H1192 C1202 0.950 . S
H1193 C1204 0.950 . S
H1194 C1206 0.950 . S
H1195 C1207 0.950 . S
C1196 H1188 0.950 . S
C1196 C1197 1.386 . S
C1196 C1198 1.391 . S
C1197 C1196 1.386 . S
C1197 C1201 1.393 . S
C1198 H1190 0.950 . S
C1198 C1196 1.391 . S
C1198 C1199 1.400 . S
C1199 C1198 1.400 . S
C1199 C1200 1.398 . S
C1199 C1205 1.491 . S
C1200 H1191 0.950 . S
C1200 C1199 1.398 . S
C1200 C1201 1.391 . S
C1201 H1189 0.950 . S
C1201 C1197 1.393 . S
C1201 C1200 1.391 . S
C1202 H1192 0.950 . S
C1202 C1203 1.386 . S
C1202 C1204 1.391 . S
C1203 C1202 1.386 . S
C1203 C1207 1.393 . S
C1204 H1193 0.950 . S
C1204 C1202 1.391 . S
C1204 C1205 1.400 . S
C1205 C1199 1.491 . S
C1205 C1204 1.400 . S
C1205 C1206 1.398 . S
C1206 H1194 0.950 . S
C1206 C1205 1.398 . S
C1206 C1207 1.391 . S
C1207 H1195 0.950 . S
C1207 C1203 1.393 . S
C1207 C1206 1.391 . S
H1208 C1216 0.950 . S
H1209 C1221 0.950 . S
H1210 C1218 0.950 . S
H1211 C1220 0.950 . S
H1212 C1222 0.950 . S
H1213 C1224 0.950 . S
H1214 C1226 0.950 . S
H1215 C1227 0.950 . S
C1216 H1208 0.950 . S
C1216 C1217 1.386 . S
C1216 C1218 1.391 . S
C1217 C1216 1.386 . S
C1217 C1221 1.393 . S
C1218 H1210 0.950 . S
C1218 C1216 1.391 . S
C1218 C1219 1.400 . S
C1219 C1218 1.400 . S
C1219 C1220 1.398 . S
C1219 C1225 1.491 . S
C1220 H1211 0.950 . S
C1220 C1219 1.398 . S
C1220 C1221 1.391 . S
C1221 H1209 0.950 . S
C1221 C1217 1.393 . S
C1221 C1220 1.391 . S
C1222 H1212 0.950 . S
C1222 C1223 1.386 . S
C1222 C1224 1.391 . S
C1223 C1222 1.386 . S
C1223 C1227 1.393 . S
C1224 H1213 0.950 . S
C1224 C1222 1.391 . S
C1224 C1225 1.400 . S
C1225 C1219 1.491 . S
C1225 C1224 1.400 . S
C1225 C1226 1.398 . S
C1226 H1214 0.950 . S
C1226 C1225 1.398 . S
C1226 C1227 1.391 . S
C1227 H1215 0.950 . S
C1227 C1223 1.393 . S
C1227 C1226 1.391 . S
H1228 C1236 0.950 . S
H1229 C1241 0.950 . S
H1230 C1238 0.950 . S
H1231 C1240 0.950 . S
H1232 C1242 0.950 . S
H1233 C1244 0.950 . S
H1234 C1246 0.950 . S
H1235 C1247 0.950 . S
C1236 H1228 0.950 . S
C1236 C1237 1.386 . S
C1236 C1238 1.391 . S
C1237 C1236 1.386 . S
C1237 C1241 1.393 . S
C1238 H1230 0.950 . S
C1238 C1236 1.391 . S
C1238 C1239 1.400 . S
C1239 C1238 1.400 . S
C1239 C1240 1.398 . S
C1239 C1245 1.491 1_556 S
C1240 H1231 0.950 . S
C1240 C1239 1.398 . S
C1240 C1241 1.391 . S
C1241 H1229 0.950 . S
C1241 C1237 1.393 . S
C1241 C1240 1.391 . S
C1242 H1232 0.950 . S
C1242 C1243 1.386 . S
C1242 C1244 1.391 . S
C1243 C1242 1.386 . S
C1243 C1247 1.393 . S
C1244 H1233 0.950 . S
C1244 C1242 1.391 . S
C1244 C1245 1.400 . S
C1245 C1239 1.491 1_554 S
C1245 C1244 1.400 . S
C1245 C1246 1.398 . S
C1246 H1234 0.950 . S
C1246 C1245 1.398 . S
C1246 C1247 1.391 . S
C1247 H1235 0.950 . S
C1247 C1243 1.393 . S
C1247 C1246 1.391 . S
H1248 C1256 0.950 . S
H1249 C1261 0.950 . S
H1250 C1258 0.950 . S
H1251 C1260 0.950 . S
H1252 C1262 0.950 . S
H1253 C1264 0.950 . S
H1254 C1266 0.950 . S
H1255 C1267 0.950 . S
C1256 H1248 0.950 . S
C1256 C1257 1.386 . S
C1256 C1258 1.391 . S
C1257 C1256 1.386 . S
C1257 C1261 1.393 . S
C1258 H1250 0.950 . S
C1258 C1256 1.391 . S
C1258 C1259 1.400 . S
C1259 C1258 1.400 . S
C1259 C1260 1.398 . S
C1259 C1265 1.491 1_655 S
C1260 H1251 0.950 . S
C1260 C1259 1.398 . S
C1260 C1261 1.391 . S
C1261 H1249 0.950 . S
C1261 C1257 1.393 . S
C1261 C1260 1.391 . S
C1262 H1252 0.950 . S
C1262 C1263 1.386 . S
C1262 C1264 1.391 . S
C1263 C1262 1.386 . S
C1263 C1267 1.393 . S
C1264 H1253 0.950 . S
C1264 C1262 1.391 . S
C1264 C1265 1.400 . S
C1265 C1259 1.491 1_455 S
C1265 C1264 1.400 . S
C1265 C1266 1.398 . S
C1266 H1254 0.950 . S
C1266 C1265 1.398 . S
C1266 C1267 1.391 . S
C1267 H1255 0.950 . S
C1267 C1263 1.393 . S
C1267 C1266 1.391 . S
H1268 C1276 0.950 . S
H1269 C1281 0.950 . S
H1270 C1278 0.950 . S
H1271 C1280 0.950 . S
H1272 C1282 0.950 . S
H1273 C1284 0.950 . S
H1274 C1286 0.950 . S
H1275 C1287 0.950 . S
C1276 H1268 0.950 . S
C1276 C1277 1.386 . S
C1276 C1278 1.391 . S
C1277 C1276 1.386 . S
C1277 C1281 1.393 . S
C1278 H1270 0.950 . S
C1278 C1276 1.391 . S
C1278 C1279 1.400 . S
C1279 C1278 1.400 . S
C1279 C1280 1.398 . S
C1279 C1285 1.491 . S
C1280 H1271 0.950 . S
C1280 C1279 1.398 . S
C1280 C1281 1.391 . S
C1281 H1269 0.950 . S
C1281 C1277 1.393 . S
C1281 C1280 1.391 . S
C1282 H1272 0.950 . S
C1282 C1283 1.386 . S
C1282 C1284 1.391 . S
C1283 C1282 1.386 . S
C1283 C1287 1.393 . S
C1284 H1273 0.950 . S
C1284 C1282 1.391 . S
C1284 C1285 1.400 . S
C1285 C1279 1.491 . S
C1285 C1284 1.400 . S
C1285 C1286 1.398 . S
C1286 H1274 0.950 . S
C1286 C1285 1.398 . S
C1286 C1287 1.391 . S
C1287 H1275 0.950 . S
C1287 C1283 1.393 . S
C1287 C1286 1.391 . S
H1288 C1296 0.950 . S
H1289 C1301 0.950 . S
H1290 C1298 0.950 . S
H1291 C1300 0.950 . S
H1292 C1302 0.950 . S
H1293 C1304 0.950 . S
H1294 C1306 0.950 . S
H1295 C1307 0.950 . S
C1296 H1288 0.950 . S
C1296 C1297 1.386 . S
C1296 C1298 1.391 . S
C1297 C1296 1.386 . S
C1297 C1301 1.393 . S
C1298 H1290 0.950 . S
C1298 C1296 1.391 . S
C1298 C1299 1.400 . S
C1299 C1298 1.400 . S
C1299 C1300 1.398 . S
C1299 C1305 1.491 . S
C1300 H1291 0.950 . S
C1300 C1299 1.398 . S
C1300 C1301 1.391 . S
C1301 H1289 0.950 . S
C1301 C1297 1.393 . S
C1301 C1300 1.391 . S
C1302 H1292 0.950 . S
C1302 C1303 1.386 . S
C1302 C1304 1.391 . S
C1303 C1302 1.386 . S
C1303 C1307 1.393 . S
C1304 H1293 0.950 . S
C1304 C1302 1.391 . S
C1304 C1305 1.400 . S
C1305 C1299 1.491 . S
C1305 C1304 1.400 . S
C1305 C1306 1.398 . S
C1306 H1294 0.950 . S
C1306 C1305 1.398 . S
C1306 C1307 1.391 . S
C1307 H1295 0.950 . S
C1307 C1303 1.393 . S
C1307 C1306 1.391 . S
H1308 C1316 0.950 . S
H1309 C1321 0.950 . S
H1310 C1318 0.950 . S
H1311 C1320 0.950 . S
H1312 C1322 0.950 . S
H1313 C1324 0.950 . S
H1314 C1326 0.950 . S
H1315 C1327 0.950 . S
C1316 H1308 0.950 . S
C1316 C1317 1.386 . S
C1316 C1318 1.391 . S
C1317 C1316 1.386 . S
C1317 C1321 1.393 . S
C1318 H1310 0.950 . S
C1318 C1316 1.391 . S
C1318 C1319 1.400 . S
C1319 C1318 1.400 . S
C1319 C1320 1.398 . S
C1319 C1325 1.491 1_565 S
C1320 H1311 0.950 . S
C1320 C1319 1.398 . S
C1320 C1321 1.391 . S
C1321 H1309 0.950 . S
C1321 C1317 1.393 . S
C1321 C1320 1.391 . S
C1322 H1312 0.950 . S
C1322 C1323 1.386 . S
C1322 C1324 1.391 . S
C1323 C1322 1.386 . S
C1323 C1327 1.393 . S
C1324 H1313 0.950 . S
C1324 C1322 1.391 . S
C1324 C1325 1.400 . S
C1325 C1319 1.491 1_545 S
C1325 C1324 1.400 . S
C1325 C1326 1.398 . S
C1326 H1314 0.950 . S
C1326 C1325 1.398 . S
C1326 C1327 1.391 . S
C1327 H1315 0.950 . S
C1327 C1323 1.393 . S
C1327 C1326 1.391 . S
H1328 C1336 0.950 . S
H1329 C1341 0.950 . S
H1330 C1338 0.950 . S
H1331 C1340 0.950 . S
H1332 C1342 0.950 . S
H1333 C1344 0.950 . S
H1334 C1346 0.950 . S
H1335 C1347 0.950 . S
C1336 H1328 0.950 . S
C1336 C1337 1.386 . S
C1336 C1338 1.391 . S
C1337 C1336 1.386 . S
C1337 C1341 1.393 . S
C1338 H1330 0.950 . S
C1338 C1336 1.391 . S
C1338 C1339 1.400 . S
C1339 C1338 1.400 . S
C1339 C1340 1.398 . S
C1339 C1345 1.491 1_655 S
C1340 H1331 0.950 . S
C1340 C1339 1.398 . S
C1340 C1341 1.391 . S
C1341 H1329 0.950 . S
C1341 C1337 1.393 . S
C1341 C1340 1.391 . S
C1342 H1332 0.950 . S
C1342 C1343 1.386 . S
C1342 C1344 1.391 . S
C1343 C1342 1.386 . S
C1343 C1347 1.393 . S
C1344 H1333 0.950 . S
C1344 C1342 1.391 . S
C1344 C1345 1.400 . S
C1345 C1339 1.491 1_455 S
C1345 C1344 1.400 . S
C1345 C1346 1.398 . S
C1346 H1334 0.950 . S
C1346 C1345 1.398 . S
C1346 C1347 1.391 . S
C1347 H1335 0.950 . S
C1347 C1343 1.393 . S
C1347 C1346 1.391 . S
H1348 C1356 0.950 . S
H1349 C1361 0.950 . S
H1350 C1358 0.950 . S
H1351 C1360 0.950 . S
H1352 C1362 0.950 . S
H1353 C1364 0.950 . S
H1354 C1366 0.950 . S
H1355 C1367 0.950 . S
C1356 H1348 0.950 . S
C1356 C1357 1.386 . S
C1356 C1358 1.391 . S
C1357 C1356 1.386 . S
C1357 C1361 1.393 . S
C1358 H1350 0.950 . S
C1358 C1356 1.391 . S
C1358 C1359 1.400 . S
C1359 C1358 1.400 . S
C1359 C1360 1.398 . S
C1359 C1365 1.491 . S
C1360 H1351 0.950 . S
C1360 C1359 1.398 . S
C1360 C1361 1.391 . S
C1361 H1349 0.950 . S
C1361 C1357 1.393 . S
C1361 C1360 1.391 . S
C1362 H1352 0.950 . S
C1362 C1363 1.386 . S
C1362 C1364 1.391 . S
C1363 C1362 1.386 . S
C1363 C1367 1.393 . S
C1364 H1353 0.950 . S
C1364 C1362 1.391 . S
C1364 C1365 1.400 . S
C1365 C1359 1.491 . S
C1365 C1364 1.400 . S
C1365 C1366 1.398 . S
C1366 H1354 0.950 . S
C1366 C1365 1.398 . S
C1366 C1367 1.391 . S
C1367 H1355 0.950 . S
C1367 C1363 1.393 . S
C1367 C1366 1.391 . S
H1368 C1376 0.950 . S
H1369 C1381 0.950 . S
H1370 C1378 0.950 . S
H1371 C1380 0.950 . S
H1372 C1382 0.950 . S
H1373 C1384 0.950 . S
H1374 C1386 0.950 . S
H1375 C1387 0.950 . S
C1376 H1368 0.950 . S
C1376 C1377 1.386 . S
C1376 C1378 1.391 . S
C1377 C1376 1.386 . S
C1377 C1381 1.393 . S
C1378 H1370 0.950 . S
C1378 C1376 1.391 . S
C1378 C1379 1.400 . S
C1379 C1378 1.400 . S
C1379 C1380 1.398 . S
C1379 C1385 1.491 . S
C1380 H1371 0.950 . S
C1380 C1379 1.398 . S
C1380 C1381 1.391 . S
C1381 H1369 0.950 . S
C1381 C1377 1.393 . S
C1381 C1380 1.391 . S
C1382 H1372 0.950 . S
C1382 C1383 1.386 . S
C1382 C1384 1.391 . S
C1383 C1382 1.386 . S
C1383 C1387 1.393 . S
C1384 H1373 0.950 . S
C1384 C1382 1.391 . S
C1384 C1385 1.400 . S
C1385 C1379 1.491 . S
C1385 C1384 1.400 . S
C1385 C1386 1.398 . S
C1386 H1374 0.950 . S
C1386 C1385 1.398 . S
C1386 C1387 1.391 . S
C1387 H1375 0.950 . S
C1387 C1383 1.393 . S
C1387 C1386 1.391 . S
H1388 C1396 0.950 . S
H1389 C1401 0.950 . S
H1390 C1398 0.950 . S
H1391 C1400 0.950 . S
H1392 C1402 0.950 . S
H1393 C1404 0.950 . S
H1394 C1406 0.950 . S
H1395 C1407 0.950 . S
C1396 H1388 0.950 . S
C1396 C1397 1.386 . S
C1396 C1398 1.391 . S
C1397 C1396 1.386 . S
C1397 C1401 1.393 . S
C1398 H1390 0.950 . S
C1398 C1396 1.391 . S
C1398 C1399 1.400 . S
C1399 C1398 1.400 . S
C1399 C1400 1.398 . S
C1399 C1405 1.491 1_545 S
C1400 H1391 0.950 . S
C1400 C1399 1.398 . S
C1400 C1401 1.391 . S
C1401 H1389 0.950 . S
C1401 C1397 1.393 . S
C1401 C1400 1.391 . S
C1402 H1392 0.950 . S
C1402 C1403 1.386 . S
C1402 C1404 1.391 . S
C1403 C1402 1.386 . S
C1403 C1407 1.393 . S
C1404 H1393 0.950 . S
C1404 C1402 1.391 . S
C1404 C1405 1.400 . S
C1405 C1399 1.491 1_565 S
C1405 C1404 1.400 . S
C1405 C1406 1.398 . S
C1406 H1394 0.950 . S
C1406 C1405 1.398 . S
C1406 C1407 1.391 . S
C1407 H1395 0.950 . S
C1407 C1403 1.393 . S
C1407 C1406 1.391 . S
H1408 C1416 0.950 . S
H1409 C1421 0.950 . S
H1410 C1418 0.950 . S
H1411 C1420 0.950 . S
H1412 C1422 0.950 . S
H1413 C1424 0.950 . S
H1414 C1426 0.950 . S
H1415 C1427 0.950 . S
C1416 H1408 0.950 . S
C1416 C1417 1.386 . S
C1416 C1418 1.391 . S
C1417 C1416 1.386 . S
C1417 C1421 1.393 . S
C1418 H1410 0.950 . S
C1418 C1416 1.391 . S
C1418 C1419 1.400 . S
C1419 C1418 1.400 . S
C1419 C1420 1.398 . S
C1419 C1425 1.491 1_554 S
C1420 H1411 0.950 . S
C1420 C1419 1.398 . S
C1420 C1421 1.391 . S
C1421 H1409 0.950 . S
C1421 C1417 1.393 . S
C1421 C1420 1.391 . S
C1422 H1412 0.950 . S
C1422 C1423 1.386 . S
C1422 C1424 1.391 . S
C1423 C1422 1.386 . S
C1423 C1427 1.393 . S
C1424 H1413 0.950 . S
C1424 C1422 1.391 . S
C1424 C1425 1.400 . S
C1425 C1419 1.491 1_556 S
C1425 C1424 1.400 . S
C1425 C1426 1.398 . S
C1426 H1414 0.950 . S
C1426 C1425 1.398 . S
C1426 C1427 1.391 . S
C1427 H1415 0.950 . S
C1427 C1423 1.393 . S
C1427 C1426 1.391 . S
H1428 C1436 0.950 . S
H1429 C1441 0.950 . S
H1430 C1438 0.950 . S
H1431 C1440 0.950 . S
H1432 C1442 0.950 . S
H1433 C1444 0.950 . S
H1434 C1446 0.950 . S
H1435 C1447 0.950 . S
C1436 H1428 0.950 . S
C1436 C1437 1.386 . S
C1436 C1438 1.391 . S
C1437 C1436 1.386 . S
C1437 C1441 1.393 . S
C1438 H1430 0.950 . S
C1438 C1436 1.391 . S
C1438 C1439 1.400 . S
C1439 C1438 1.400 . S
C1439 C1440 1.398 . S
C1439 C1445 1.491 . S
C1440 H1431 0.950 . S
C1440 C1439 1.398 . S
C1440 C1441 1.391 . S
C1441 H1429 0.950 . S
C1441 C1437 1.393 . S
C1441 C1440 1.391 . S
C1442 H1432 0.950 . S
C1442 C1443 1.386 . S
C1442 C1444 1.391 . S
C1443 C1442 1.386 . S
C1443 C1447 1.393 . S
C1444 H1433 0.950 . S
C1444 C1442 1.391 . S
C1444 C1445 1.400 . S
C1445 C1439 1.491 . S
C1445 C1444 1.400 . S
C1445 C1446 1.398 . S
C1446 H1434 0.950 . S
C1446 C1445 1.398 . S
C1446 C1447 1.391 . S
C1447 H1435 0.950 . S
C1447 C1443 1.393 . S
C1447 C1446 1.391 . S
H1448 C1456 0.950 . S
H1449 C1461 0.950 . S
H1450 C1458 0.950 . S
H1451 C1460 0.950 . S
H1452 C1462 0.950 . S
H1453 C1464 0.950 . S
H1454 C1466 0.950 . S
H1455 C1467 0.950 . S
C1456 H1448 0.950 . S
C1456 C1457 1.386 . S
C1456 C1458 1.391 . S
C1457 C1456 1.386 . S
C1457 C1461 1.393 . S
C1458 H1450 0.950 . S
C1458 C1456 1.391 . S
C1458 C1459 1.400 . S
C1459 C1458 1.400 . S
C1459 C1460 1.398 . S
C1459 C1465 1.491 . S
C1460 H1451 0.950 . S
C1460 C1459 1.398 . S
C1460 C1461 1.391 . S
C1461 H1449 0.950 . S
C1461 C1457 1.393 . S
C1461 C1460 1.391 . S
C1462 H1452 0.950 . S
C1462 C1463 1.386 . S
C1462 C1464 1.391 . S
C1463 C1462 1.386 . S
C1463 C1467 1.393 . S
C1464 H1453 0.950 . S
C1464 C1462 1.391 . S
C1464 C1465 1.400 . S
C1465 C1459 1.491 . S
C1465 C1464 1.400 . S
C1465 C1466 1.398 . S
C1466 H1454 0.950 . S
C1466 C1465 1.398 . S
C1466 C1467 1.391 . S
C1467 H1455 0.950 . S
C1467 C1463 1.393 . S
C1467 C1466 1.391 . S
H1468 C1476 0.950 . S
H1469 C1481 0.950 . S
H1470 C1478 0.950 . S
H1471 C1480 0.950 . S
H1472 C1482 0.950 . S
H1473 C1484 0.950 . S
H1474 C1486 0.950 . S
H1475 C1487 0.950 . S
C1476 H1468 0.950 . S
C1476 C1477 1.386 . S
C1476 C1478 1.391 . S
C1477 C1476 1.386 . S
C1477 C1481 1.393 . S
C1478 H1470 0.950 . S
C1478 C1476 1.391 . S
C1478 C1479 1.400 . S
C1479 C1478 1.400 . S
C1479 C1480 1.398 . S
C1479 C1485 1.491 1_554 S
C1480 H1471 0.950 . S
C1480 C1479 1.398 . S
C1480 C1481 1.391 . S
C1481 H1469 0.950 . S
C1481 C1477 1.393 . S
C1481 C1480 1.391 . S
C1482 H1472 0.950 . S
C1482 C1483 1.386 . S
C1482 C1484 1.391 . S
C1483 C1482 1.386 . S
C1483 C1487 1.393 . S
C1484 H1473 0.950 . S
C1484 C1482 1.391 . S
C1484 C1485 1.400 . S
C1485 C1479 1.491 1_556 S
C1485 C1484 1.400 . S
C1485 C1486 1.398 . S
C1486 H1474 0.950 . S
C1486 C1485 1.398 . S
C1486 C1487 1.391 . S
C1487 H1475 0.950 . S
C1487 C1483 1.393 . S
C1487 C1486 1.391 . S
H1488 C1496 0.950 . S
H1489 C1501 0.950 . S
H1490 C1498 0.950 . S
H1491 C1500 0.950 . S
H1492 C1502 0.950 . S
H1493 C1504 0.950 . S
H1494 C1506 0.950 . S
H1495 C1507 0.950 . S
C1496 H1488 0.950 . S
C1496 C1497 1.386 . S
C1496 C1498 1.391 . S
C1497 C1496 1.386 . S
C1497 C1501 1.393 . S
C1498 H1490 0.950 . S
C1498 C1496 1.391 . S
C1498 C1499 1.400 . S
C1499 C1498 1.400 . S
C1499 C1500 1.398 . S
C1499 C1505 1.491 . S
C1500 H1491 0.950 . S
C1500 C1499 1.398 . S
C1500 C1501 1.391 . S
C1501 H1489 0.950 . S
C1501 C1497 1.393 . S
C1501 C1500 1.391 . S
C1502 H1492 0.950 . S
C1502 C1503 1.386 . S
C1502 C1504 1.391 . S
C1503 C1502 1.386 . S
C1503 C1507 1.393 . S
C1504 H1493 0.950 . S
C1504 C1502 1.391 . S
C1504 C1505 1.400 . S
C1505 C1499 1.491 . S
C1505 C1504 1.400 . S
C1505 C1506 1.398 . S
C1506 H1494 0.950 . S
C1506 C1505 1.398 . S
C1506 C1507 1.391 . S
C1507 H1495 0.950 . S
C1507 C1503 1.393 . S
C1507 C1506 1.391 . S
H1508 C1516 0.950 . S
H1509 C1521 0.950 . S
H1510 C1518 0.950 . S
H1511 C1520 0.950 . S
H1512 C1522 0.950 . S
H1513 C1524 0.950 . S
H1514 C1526 0.950 . S
H1515 C1527 0.950 . S
C1516 H1508 0.950 . S
C1516 C1517 1.386 . S
C1516 C1518 1.391 . S
C1517 C1516 1.386 . S
C1517 C1521 1.393 . S
C1518 H1510 0.950 . S
C1518 C1516 1.391 . S
C1518 C1519 1.400 . S
C1519 C1518 1.400 . S
C1519 C1520 1.398 . S
C1519 C1525 1.491 . S
C1520 H1511 0.950 . S
C1520 C1519 1.398 . S
C1520 C1521 1.391 . S
C1521 H1509 0.950 . S
C1521 C1517 1.393 . S
C1521 C1520 1.391 . S
C1522 H1512 0.950 . S
C1522 C1523 1.386 . S
C1522 C1524 1.391 . S
C1523 C1522 1.386 . S
C1523 C1527 1.393 . S
C1524 H1513 0.950 . S
C1524 C1522 1.391 . S
C1524 C1525 1.400 . S
C1525 C1519 1.491 . S
C1525 C1524 1.400 . S
C1525 C1526 1.398 . S
C1526 H1514 0.950 . S
C1526 C1525 1.398 . S
C1526 C1527 1.391 . S
C1527 H1515 0.950 . S
C1527 C1523 1.393 . S
C1527 C1526 1.391 . S
H1528 C1536 0.950 . S
H1529 C1541 0.950 . S
H1530 C1538 0.950 . S
H1531 C1540 0.950 . S
H1532 C1542 0.950 . S
H1533 C1544 0.950 . S
H1534 C1546 0.950 . S
H1535 C1547 0.950 . S
C1536 H1528 0.950 . S
C1536 C1537 1.386 . S
C1536 C1538 1.391 . S
C1537 C1536 1.386 . S
C1537 C1541 1.393 . S
C1538 H1530 0.950 . S
C1538 C1536 1.391 . S
C1538 C1539 1.400 . S
C1539 C1538 1.400 . S
C1539 C1540 1.398 . S
C1539 C1545 1.491 . S
C1540 H1531 0.950 . S
C1540 C1539 1.398 . S
C1540 C1541 1.391 . S
C1541 H1529 0.950 . S
C1541 C1537 1.393 . S
C1541 C1540 1.391 . S
C1542 H1532 0.950 . S
C1542 C1543 1.386 . S
C1542 C1544 1.391 . S
C1543 C1542 1.386 . S
C1543 C1547 1.393 . S
C1544 H1533 0.950 . S
C1544 C1542 1.391 . S
C1544 C1545 1.400 . S
C1545 C1539 1.491 . S
C1545 C1544 1.400 . S
C1545 C1546 1.398 . S
C1546 H1534 0.950 . S
C1546 C1545 1.398 . S
C1546 C1547 1.391 . S
C1547 H1535 0.950 . S
C1547 C1543 1.393 . S
C1547 C1546 1.391 . S
H1548 C1556 0.950 . S
H1549 C1561 0.950 . S
H1550 C1558 0.950 . S
H1551 C1560 0.950 . S
H1552 C1562 0.950 . S
H1553 C1564 0.950 . S
H1554 C1566 0.950 . S
H1555 C1567 0.950 . S
C1556 H1548 0.950 . S
C1556 C1557 1.386 . S
C1556 C1558 1.391 . S
C1557 C1556 1.386 . S
C1557 C1561 1.393 . S
C1558 H1550 0.950 . S
C1558 C1556 1.391 . S
C1558 C1559 1.400 . S
C1559 C1558 1.400 . S
C1559 C1560 1.398 . S
C1559 C1565 1.491 . S
C1560 H1551 0.950 . S
C1560 C1559 1.398 . S
C1560 C1561 1.391 . S
C1561 H1549 0.950 . S
C1561 C1557 1.393 . S
C1561 C1560 1.391 . S
C1562 H1552 0.950 . S
C1562 C1563 1.386 . S
C1562 C1564 1.391 . S
C1563 C1562 1.386 . S
C1563 C1567 1.393 . S
C1564 H1553 0.950 . S
C1564 C1562 1.391 . S
C1564 C1565 1.400 . S
C1565 C1559 1.491 . S
C1565 C1564 1.400 . S
C1565 C1566 1.398 . S
C1566 H1554 0.950 . S
C1566 C1565 1.398 . S
C1566 C1567 1.391 . S
C1567 H1555 0.950 . S
C1567 C1563 1.393 . S
C1567 C1566 1.391 . S
H1568 C1576 0.950 . S
H1569 C1581 0.950 . S
H1570 C1578 0.950 . S
H1571 C1580 0.950 . S
H1572 C1582 0.950 . S
H1573 C1584 0.950 . S
H1574 C1586 0.950 . S
H1575 C1587 0.950 . S
C1576 H1568 0.950 . S
C1576 C1577 1.386 . S
C1576 C1578 1.391 . S
C1577 C1576 1.386 . S
C1577 C1581 1.393 . S
C1578 H1570 0.950 . S
C1578 C1576 1.391 . S
C1578 C1579 1.400 . S
C1579 C1578 1.400 . S
C1579 C1580 1.398 . S
C1579 C1585 1.491 . S
C1580 H1571 0.950 . S
C1580 C1579 1.398 . S
C1580 C1581 1.391 . S
C1581 H1569 0.950 . S
C1581 C1577 1.393 . S
C1581 C1580 1.391 . S
C1582 H1572 0.950 . S
C1582 C1583 1.386 . S
C1582 C1584 1.391 . S
C1583 C1582 1.386 . S
C1583 C1587 1.393 . S
C1584 H1573 0.950 . S
C1584 C1582 1.391 . S
C1584 C1585 1.400 . S
C1585 C1579 1.491 . S
C1585 C1584 1.400 . S
C1585 C1586 1.398 . S
C1586 H1574 0.950 . S
C1586 C1585 1.398 . S
C1586 C1587 1.391 . S
C1587 H1575 0.950 . S
C1587 C1583 1.393 . S
C1587 C1586 1.391 . S
H1588 C1596 0.950 . S
H1589 C1601 0.950 . S
H1590 C1598 0.950 . S
H1591 C1600 0.950 . S
H1592 C1602 0.950 . S
H1593 C1604 0.950 . S
H1594 C1606 0.950 . S
H1595 C1607 0.950 . S
C1596 H1588 0.950 . S
C1596 C1597 1.386 . S
C1596 C1598 1.391 . S
C1597 C1596 1.386 . S
C1597 C1601 1.393 . S
C1598 H1590 0.950 . S
C1598 C1596 1.391 . S
C1598 C1599 1.400 . S
C1599 C1598 1.400 . S
C1599 C1600 1.398 . S
C1599 C1605 1.491 . S
C1600 H1591 0.950 . S
C1600 C1599 1.398 . S
C1600 C1601 1.391 . S
C1601 H1589 0.950 . S
C1601 C1597 1.393 . S
C1601 C1600 1.391 . S
C1602 H1592 0.950 . S
C1602 C1603 1.386 . S
C1602 C1604 1.391 . S
C1603 C1602 1.386 . S
C1603 C1607 1.393 . S
C1604 H1593 0.950 . S
C1604 C1602 1.391 . S
C1604 C1605 1.400 . S
C1605 C1599 1.491 . S
C1605 C1604 1.400 . S
C1605 C1606 1.398 . S
C1606 H1594 0.950 . S
C1606 C1605 1.398 . S
C1606 C1607 1.391 . S
C1607 H1595 0.950 . S
C1607 C1603 1.393 . S
C1607 C1606 1.391 . S
H1608 C1616 0.950 . S
H1609 C1621 0.950 . S
H1610 C1618 0.950 . S
H1611 C1620 0.950 . S
H1612 C1622 0.950 . S
H1613 C1624 0.950 . S
H1614 C1626 0.950 . S
H1615 C1627 0.950 . S
C1616 H1608 0.950 . S
C1616 C1617 1.386 . S
C1616 C1618 1.391 . S
C1617 C1616 1.386 . S
C1617 C1621 1.393 . S
C1618 H1610 0.950 . S
C1618 C1616 1.391 . S
C1618 C1619 1.400 . S
C1619 C1618 1.400 . S
C1619 C1620 1.398 . S
C1619 C1625 1.491 . S
C1620 H1611 0.950 . S
C1620 C1619 1.398 . S
C1620 C1621 1.391 . S
C1621 H1609 0.950 . S
C1621 C1617 1.393 . S
C1621 C1620 1.391 . S
C1622 H1612 0.950 . S
C1622 C1623 1.386 . S
C1622 C1624 1.391 . S
C1623 C1622 1.386 . S
C1623 C1627 1.393 . S
C1624 H1613 0.950 . S
C1624 C1622 1.391 . S
C1624 C1625 1.400 . S
C1625 C1619 1.491 . S
C1625 C1624 1.400 . S
C1625 C1626 1.398 . S
C1626 H1614 0.950 . S
C1626 C1625 1.398 . S
C1626 C1627 1.391 . S
C1627 H1615 0.950 . S
C1627 C1623 1.393 . S
C1627 C1626 1.391 . S
H1628 C1636 0.950 . S
H1629 C1641 0.950 . S
H1630 C1638 0.950 . S
H1631 C1640 0.950 . S
H1632 C1642 0.950 . S
H1633 C1644 0.950 . S
H1634 C1646 0.950 . S
H1635 C1647 0.950 . S
C1636 H1628 0.950 . S
C1636 C1637 1.386 . S
C1636 C1638 1.391 . S
C1637 C1636 1.386 . S
C1637 C1641 1.393 . S
C1638 H1630 0.950 . S
C1638 C1636 1.391 . S
C1638 C1639 1.400 . S
C1639 C1638 1.400 . S
C1639 C1640 1.398 . S
C1639 C1645 1.491 . S
C1640 H1631 0.950 . S
C1640 C1639 1.398 . S
C1640 C1641 1.391 . S
C1641 H1629 0.950 . S
C1641 C1637 1.393 . S
C1641 C1640 1.391 . S
C1642 H1632 0.950 . S
C1642 C1643 1.386 . S
C1642 C1644 1.391 . S
C1643 C1642 1.386 . S
C1643 C1647 1.393 . S
C1644 H1633 0.950 . S
C1644 C1642 1.391 . S
C1644 C1645 1.400 . S
C1645 C1639 1.491 . S
C1645 C1644 1.400 . S
C1645 C1646 1.398 . S
C1646 H1634 0.950 . S
C1646 C1645 1.398 . S
C1646 C1647 1.391 . S
C1647 H1635 0.950 . S
C1647 C1643 1.393 . S
C1647 C1646 1.391 . S
H1648 C1656 0.950 . S
H1649 C1661 0.950 . S
H1650 C1658 0.950 . S
H1651 C1660 0.950 . S
H1652 C1662 0.950 . S
H1653 C1664 0.950 . S
H1654 C1666 0.950 . S
H1655 C1667 0.950 . S
C1656 H1648 0.950 . S
C1656 C1657 1.386 . S
C1656 C1658 1.391 . S
C1657 C1656 1.386 . S
C1657 C1661 1.393 . S
C1658 H1650 0.950 . S
C1658 C1656 1.391 . S
C1658 C1659 1.400 . S
C1659 C1658 1.400 . S
C1659 C1660 1.398 . S
C1659 C1665 1.491 . S
C1660 H1651 0.950 . S
C1660 C1659 1.398 . S
C1660 C1661 1.391 . S
C1661 H1649 0.950 . S
C1661 C1657 1.393 . S
C1661 C1660 1.391 . S
C1662 H1652 0.950 . S
C1662 C1663 1.386 . S
C1662 C1664 1.391 . S
C1663 C1662 1.386 . S
C1663 C1667 1.393 . S
C1664 H1653 0.950 . S
C1664 C1662 1.391 . S
C1664 C1665 1.400 . S
C1665 C1659 1.491 . S
C1665 C1664 1.400 . S
C1665 C1666 1.398 . S
C1666 H1654 0.950 . S
C1666 C1665 1.398 . S
C1666 C1667 1.391 . S
C1667 H1655 0.950 . S
C1667 C1663 1.393 . S
C1667 C1666 1.391 . S
H1668 C1676 0.950 . S
H1669 C1681 0.950 . S
H1670 C1678 0.950 . S
H1671 C1680 0.950 . S
H1672 C1682 0.950 . S
H1673 C1684 0.950 . S
H1674 C1686 0.950 . S
H1675 C1687 0.950 . S
C1676 H1668 0.950 . S
C1676 C1677 1.386 . S
C1676 C1678 1.391 . S
C1677 C1676 1.386 . S
C1677 C1681 1.393 . S
C1678 H1670 0.950 . S
C1678 C1676 1.391 . S
C1678 C1679 1.400 . S
C1679 C1678 1.400 . S
C1679 C1680 1.398 . S
C1679 C1685 1.491 . S
C1680 H1671 0.950 . S
C1680 C1679 1.398 . S
C1680 C1681 1.391 . S
C1681 H1669 0.950 . S
C1681 C1677 1.393 . S
C1681 C1680 1.391 . S
C1682 H1672 0.950 . S
C1682 C1683 1.386 . S
C1682 C1684 1.391 . S
C1683 C1682 1.386 . S
C1683 C1687 1.393 . S
C1684 H1673 0.950 . S
C1684 C1682 1.391 . S
C1684 C1685 1.400 . S
C1685 C1679 1.491 . S
C1685 C1684 1.400 . S
C1685 C1686 1.398 . S
C1686 H1674 0.950 . S
C1686 C1685 1.398 . S
C1686 C1687 1.391 . S
C1687 H1675 0.950 . S
C1687 C1683 1.393 . S
C1687 C1686 1.391 . S
H1688 C1696 0.950 . S
H1689 C1701 0.950 . S
H1690 C1698 0.950 . S
H1691 C1700 0.950 . S
H1692 C1702 0.950 . S
H1693 C1704 0.950 . S
H1694 C1706 0.950 . S
H1695 C1707 0.950 . S
C1696 H1688 0.950 . S
C1696 C1697 1.386 . S
C1696 C1698 1.391 . S
C1697 C1696 1.386 . S
C1697 C1701 1.393 . S
C1698 H1690 0.950 . S
C1698 C1696 1.391 . S
C1698 C1699 1.400 . S
C1699 C1698 1.400 . S
C1699 C1700 1.398 . S
C1699 C1705 1.491 . S
C1700 H1691 0.950 . S
C1700 C1699 1.398 . S
C1700 C1701 1.391 . S
C1701 H1689 0.950 . S
C1701 C1697 1.393 . S
C1701 C1700 1.391 . S
C1702 H1692 0.950 . S
C1702 C1703 1.386 . S
C1702 C1704 1.391 . S
C1703 C1702 1.386 . S
C1703 C1707 1.393 . S
C1704 H1693 0.950 . S
C1704 C1702 1.391 . S
C1704 C1705 1.400 . S
C1705 C1699 1.491 . S
C1705 C1704 1.400 . S
C1705 C1706 1.398 . S
C1706 H1694 0.950 . S
C1706 C1705 1.398 . S
C1706 C1707 1.391 . S
C1707 H1695 0.950 . S
C1707 C1703 1.393 . S
C1707 C1706 1.391 . S
H1708 C1716 0.950 . S
H1709 C1721 0.950 . S
H1710 C1718 0.950 . S
H1711 C1720 0.950 . S
H1712 C1722 0.950 . S
H1713 C1724 0.950 . S
H1714 C1726 0.950 . S
H1715 C1727 0.950 . S
C1716 H1708 0.950 . S
C1716 C1717 1.386 . S
C1716 C1718 1.391 . S
C1717 C1716 1.386 . S
C1717 C1721 1.393 . S
C1718 H1710 0.950 . S
C1718 C1716 1.391 . S
C1718 C1719 1.400 . S
C1719 C1718 1.400 . S
C1719 C1720 1.398 . S
C1719 C1725 1.491 . S
C1720 H1711 0.950 . S
C1720 C1719 1.398 . S
C1720 C1721 1.391 . S
C1721 H1709 0.950 . S
C1721 C1717 1.393 . S
C1721 C1720 1.391 . S
C1722 H1712 0.950 . S
C1722 C1723 1.386 . S
C1722 C1724 1.391 . S
C1723 C1722 1.386 . S
C1723 C1727 1.393 . S
C1724 H1713 0.950 . S
C1724 C1722 1.391 . S
C1724 C1725 1.400 . S
C1725 C1719 1.491 . S
C1725 C1724 1.400 . S
C1725 C1726 1.398 . S
C1726 H1714 0.950 . S
C1726 C1725 1.398 . S
C1726 C1727 1.391 . S
C1727 H1715 0.950 . S
C1727 C1723 1.393 . S
C1727 C1726 1.391 . S
H1728 C1736 0.950 . S
H1729 C1741 0.950 . S
H1730 C1738 0.950 . S
H1731 C1740 0.950 . S
H1732 C1742 0.950 . S
H1733 C1744 0.950 . S
H1734 C1746 0.950 . S
H1735 C1747 0.950 . S
C1736 H1728 0.950 . S
C1736 C1737 1.386 . S
C1736 C1738 1.391 . S
C1737 C1736 1.386 . S
C1737 C1741 1.393 . S
C1738 H1730 0.950 . S
C1738 C1736 1.391 . S
C1738 C1739 1.400 . S
C1739 C1738 1.400 . S
C1739 C1740 1.398 . S
C1739 C1745 1.491 . S
C1740 H1731 0.950 . S
C1740 C1739 1.398 . S
C1740 C1741 1.391 . S
C1741 H1729 0.950 . S
C1741 C1737 1.393 . S
C1741 C1740 1.391 . S
C1742 H1732 0.950 . S
C1742 C1743 1.386 . S
C1742 C1744 1.391 . S
C1743 C1742 1.386 . S
C1743 C1747 1.393 . S
C1744 H1733 0.950 . S
C1744 C1742 1.391 . S
C1744 C1745 1.400 . S
C1745 C1739 1.491 . S
C1745 C1744 1.400 . S
C1745 C1746 1.398 . S
C1746 H1734 0.950 . S
C1746 C1745 1.398 . S
C1746 C1747 1.391 . S
C1747 H1735 0.950 . S
C1747 C1743 1.393 . S
C1747 C1746 1.391 . S
H1748 C1756 0.950 . S
H1749 C1761 0.950 . S
H1750 C1758 0.950 . S
H1751 C1760 0.950 . S
H1752 C1762 0.950 . S
H1753 C1764 0.950 . S
H1754 C1766 0.950 . S
H1755 C1767 0.950 . S
C1756 H1748 0.950 . S
C1756 C1757 1.386 . S
C1756 C1758 1.391 . S
C1757 C1756 1.386 . S
C1757 C1761 1.393 . S
C1758 H1750 0.950 . S
C1758 C1756 1.391 . S
C1758 C1759 1.400 . S
C1759 C1758 1.400 . S
C1759 C1760 1.398 . S
C1759 C1765 1.491 . S
C1760 H1751 0.950 . S
C1760 C1759 1.398 . S
C1760 C1761 1.391 . S
C1761 H1749 0.950 . S
C1761 C1757 1.393 . S
C1761 C1760 1.391 . S
C1762 H1752 0.950 . S
C1762 C1763 1.386 . S
C1762 C1764 1.391 . S
C1763 C1762 1.386 . S
C1763 C1767 1.393 . S
C1764 H1753 0.950 . S
C1764 C1762 1.391 . S
C1764 C1765 1.400 . S
C1765 C1759 1.491 . S
C1765 C1764 1.400 . S
C1765 C1766 1.398 . S
C1766 H1754 0.950 . S
C1766 C1765 1.398 . S
C1766 C1767 1.391 . S
C1767 H1755 0.950 . S
C1767 C1763 1.393 . S
C1767 C1766 1.391 . S
H1768 C1776 0.950 . S
H1769 C1781 0.950 . S
H1770 C1778 0.950 . S
H1771 C1780 0.950 . S
H1772 C1782 0.950 . S
H1773 C1784 0.950 . S
H1774 C1786 0.950 . S
H1775 C1787 0.950 . S
C1776 H1768 0.950 . S
C1776 C1777 1.386 . S
C1776 C1778 1.391 . S
C1777 C1776 1.386 . S
C1777 C1781 1.393 . S
C1778 H1770 0.950 . S
C1778 C1776 1.391 . S
C1778 C1779 1.400 . S
C1779 C1778 1.400 . S
C1779 C1780 1.398 . S
C1779 C1785 1.491 . S
C1780 H1771 0.950 . S
C1780 C1779 1.398 . S
C1780 C1781 1.391 . S
C1781 H1769 0.950 . S
C1781 C1777 1.393 . S
C1781 C1780 1.391 . S
C1782 H1772 0.950 . S
C1782 C1783 1.386 . S
C1782 C1784 1.391 . S
C1783 C1782 1.386 . S
C1783 C1787 1.393 . S
C1784 H1773 0.950 . S
C1784 C1782 1.391 . S
C1784 C1785 1.400 . S
C1785 C1779 1.491 . S
C1785 C1784 1.400 . S
C1785 C1786 1.398 . S
C1786 H1774 0.950 . S
C1786 C1785 1.398 . S
C1786 C1787 1.391 . S
C1787 H1775 0.950 . S
C1787 C1783 1.393 . S
C1787 C1786 1.391 . S
H1788 C1796 0.950 . S
H1789 C1801 0.950 . S
H1790 C1798 0.950 . S
H1791 C1800 0.950 . S
H1792 C1802 0.950 . S
H1793 C1804 0.950 . S
H1794 C1806 0.950 . S
H1795 C1807 0.950 . S
C1796 H1788 0.950 . S
C1796 C1797 1.386 . S
C1796 C1798 1.391 . S
C1797 C1796 1.386 . S
C1797 C1801 1.393 . S
C1798 H1790 0.950 . S
C1798 C1796 1.391 . S
C1798 C1799 1.400 . S
C1799 C1798 1.400 . S
C1799 C1800 1.398 . S
C1799 C1805 1.491 . S
C1800 H1791 0.950 . S
C1800 C1799 1.398 . S
C1800 C1801 1.391 . S
C1801 H1789 0.950 . S
C1801 C1797 1.393 . S
C1801 C1800 1.391 . S
C1802 H1792 0.950 . S
C1802 C1803 1.386 . S
C1802 C1804 1.391 . S
C1803 C1802 1.386 . S
C1803 C1807 1.393 . S
C1804 H1793 0.950 . S
C1804 C1802 1.391 . S
C1804 C1805 1.400 . S
C1805 C1799 1.491 . S
C1805 C1804 1.400 . S
C1805 C1806 1.398 . S
C1806 H1794 0.950 . S
C1806 C1805 1.398 . S
C1806 C1807 1.391 . S
C1807 H1795 0.950 . S
C1807 C1803 1.393 . S
C1807 C1806 1.391 . S
H1808 C1816 0.950 . S
H1809 C1821 0.950 . S
H1810 C1818 0.950 . S
H1811 C1820 0.950 . S
H1812 C1822 0.950 . S
H1813 C1824 0.950 . S
H1814 C1826 0.950 . S
H1815 C1827 0.950 . S
C1816 H1808 0.950 . S
C1816 C1817 1.386 . S
C1816 C1818 1.391 . S
C1817 C1816 1.386 . S
C1817 C1821 1.393 . S
C1818 H1810 0.950 . S
C1818 C1816 1.391 . S
C1818 C1819 1.400 . S
C1819 C1818 1.400 . S
C1819 C1820 1.398 . S
C1819 C1825 1.491 . S
C1820 H1811 0.950 . S
C1820 C1819 1.398 . S
C1820 C1821 1.391 . S
C1821 H1809 0.950 . S
C1821 C1817 1.393 . S
C1821 C1820 1.391 . S
C1822 H1812 0.950 . S
C1822 C1823 1.386 . S
C1822 C1824 1.391 . S
C1823 C1822 1.386 . S
C1823 C1827 1.393 . S
C1824 H1813 0.950 . S
C1824 C1822 1.391 . S
C1824 C1825 1.400 . S
C1825 C1819 1.491 . S
C1825 C1824 1.400 . S
C1825 C1826 1.398 . S
C1826 H1814 0.950 . S
C1826 C1825 1.398 . S
C1826 C1827 1.391 . S
C1827 H1815 0.950 . S
C1827 C1823 1.393 . S
C1827 C1826 1.391 . S
H1828 C1836 0.950 . S
H1829 C1841 0.950 . S
H1830 C1838 0.950 . S
H1831 C1840 0.950 . S
H1832 C1842 0.950 . S
H1833 C1844 0.950 . S
H1834 C1846 0.950 . S
H1835 C1847 0.950 . S
C1836 H1828 0.950 . S
C1836 C1837 1.386 . S
C1836 C1838 1.391 . S
C1837 C1836 1.386 . S
C1837 C1841 1.393 . S
C1838 H1830 0.950 . S
C1838 C1836 1.391 . S
C1838 C1839 1.400 . S
C1839 C1838 1.400 . S
C1839 C1840 1.398 . S
C1839 C1845 1.491 . S
C1840 H1831 0.950 . S
C1840 C1839 1.398 . S
C1840 C1841 1.391 . S
C1841 H1829 0.950 . S
C1841 C1837 1.393 . S
C1841 C1840 1.391 . S
C1842 H1832 0.950 . S
C1842 C1843 1.386 . S
C1842 C1844 1.391 . S
C1843 C1842 1.386 . S
C1843 C1847 1.393 . S
C1844 H1833 0.950 . S
C1844 C1842 1.391 . S
C1844 C1845 1.400 . S
C1845 C1839 1.491 . S
C1845 C1844 1.400 . S
C1845 C1846 1.398 . S
C1846 H1834 0.950 . S
C1846 C1845 1.398 . S
C1846 C1847 1.391 . S
C1847 H1835 0.950 . S
C1847 C1843 1.393 . S
C1847 C1846 1.391 . S
H1848 C1856 0.950 . S
H1849 C1861 0.950 . S
H1850 C1858 0.950 . S
H1851 C1860 0.950 . S
H1852 C1862 0.950 . S
H1853 C1864 0.950 . S
H1854 C1866 0.950 . S
H1855 C1867 0.950 . S
C1856 H1848 0.950 . S
C1856 C1857 1.386 . S
C1856 C1858 1.391 . S
C1857 C1856 1.386 . S
C1857 C1861 1.393 . S
C1858 H1850 0.950 . S
C1858 C1856 1.391 . S
C1858 C1859 1.400 . S
C1859 C1858 1.400 . S
C1859 C1860 1.398 . S
C1859 C1865 1.491 . S
C1860 H1851 0.950 . S
C1860 C1859 1.398 . S
C1860 C1861 1.391 . S
C1861 H1849 0.950 . S
C1861 C1857 1.393 . S
C1861 C1860 1.391 . S
C1862 H1852 0.950 . S
C1862 C1863 1.386 . S
C1862 C1864 1.391 . S
C1863 C1862 1.386 . S
C1863 C1867 1.393 . S
C1864 H1853 0.950 . S
C1864 C1862 1.391 . S
C1864 C1865 1.400 . S
C1865 C1859 1.491 . S
C1865 C1864 1.400 . S
C1865 C1866 1.398 . S
C1866 H1854 0.950 . S
C1866 C1865 1.398 . S
C1866 C1867 1.391 . S
C1867 H1855 0.950 . S
C1867 C1863 1.393 . S
C1867 C1866 1.391 . S
H1868 C1876 0.950 . S
H1869 C1881 0.950 . S
H1870 C1878 0.950 . S
H1871 C1880 0.950 . S
H1872 C1882 0.950 . S
H1873 C1884 0.950 . S
H1874 C1886 0.950 . S
H1875 C1887 0.950 . S
C1876 H1868 0.950 . S
C1876 C1877 1.386 . S
C1876 C1878 1.391 . S
C1877 C1876 1.386 . S
C1877 C1881 1.393 . S
C1878 H1870 0.950 . S
C1878 C1876 1.391 . S
C1878 C1879 1.400 . S
C1879 C1878 1.400 . S
C1879 C1880 1.398 . S
C1879 C1885 1.491 . S
C1880 H1871 0.950 . S
C1880 C1879 1.398 . S
C1880 C1881 1.391 . S
C1881 H1869 0.950 . S
C1881 C1877 1.393 . S
C1881 C1880 1.391 . S
C1882 H1872 0.950 . S
C1882 C1883 1.386 . S
C1882 C1884 1.391 . S
C1883 C1882 1.386 . S
C1883 C1887 1.393 . S
C1884 H1873 0.950 . S
C1884 C1882 1.391 . S
C1884 C1885 1.400 . S
C1885 C1879 1.491 . S
C1885 C1884 1.400 . S
C1885 C1886 1.398 . S
C1886 H1874 0.950 . S
C1886 C1885 1.398 . S
C1886 C1887 1.391 . S
C1887 H1875 0.950 . S
C1887 C1883 1.393 . S
C1887 C1886 1.391 . S
H1888 C1896 0.950 . S
H1889 C1901 0.950 . S
H1890 C1898 0.950 . S
H1891 C1900 0.950 . S
H1892 C1902 0.950 . S
H1893 C1904 0.950 . S
H1894 C1906 0.950 . S
H1895 C1907 0.950 . S
C1896 H1888 0.950 . S
C1896 C1897 1.386 . S
C1896 C1898 1.391 . S
C1897 C1896 1.386 . S
C1897 C1901 1.393 . S
C1898 H1890 0.950 . S
C1898 C1896 1.391 . S
C1898 C1899 1.400 . S
C1899 C1898 1.400 . S
C1899 C1900 1.398 . S
C1899 C1905 1.491 . S
C1900 H1891 0.950 . S
C1900 C1899 1.398 . S
C1900 C1901 1.391 . S
C1901 H1889 0.950 . S
C1901 C1897 1.393 . S
C1901 C1900 1.391 . S
C1902 H1892 0.950 . S
C1902 C1903 1.386 . S
C1902 C1904 1.391 . S
C1903 C1902 1.386 . S
C1903 C1907 1.393 . S
C1904 H1893 0.950 . S
C1904 C1902 1.391 . S
C1904 C1905 1.400 . S
C1905 C1899 1.491 . S
C1905 C1904 1.400 . S
C1905 C1906 1.398 . S
C1906 H1894 0.950 . S
C1906 C1905 1.398 . S
C1906 C1907 1.391 . S
C1907 H1895 0.950 . S
C1907 C1903 1.393 . S
C1907 C1906 1.391 . S
H1908 C1916 0.950 . S
H1909 C1921 0.950 . S
H1910 C1918 0.950 . S
H1911 C1920 0.950 . S
H1912 C1922 0.950 . S
H1913 C1924 0.950 . S
H1914 C1926 0.950 . S
H1915 C1927 0.950 . S
C1916 H1908 0.950 . S
C1916 C1917 1.386 . S
C1916 C1918 1.391 . S
C1917 C1916 1.386 . S
C1917 C1921 1.393 . S
C1918 H1910 0.950 . S
C1918 C1916 1.391 . S
C1918 C1919 1.400 . S
C1919 C1918 1.400 . S
C1919 C1920 1.398 . S
C1919 C1925 1.491 . S
C1920 H1911 0.950 . S
C1920 C1919 1.398 . S
C1920 C1921 1.391 . S
C1921 H1909 0.950 . S
C1921 C1917 1.393 . S
C1921 C1920 1.391 . S
C1922 H1912 0.950 . S
C1922 C1923 1.386 . S
C1922 C1924 1.391 . S
C1923 C1922 1.386 . S
C1923 C1927 1.393 . S
C1924 H1913 0.950 . S
C1924 C1922 1.391 . S
C1924 C1925 1.400 . S
C1925 C1919 1.491 . S
C1925 C1924 1.400 . S
C1925 C1926 1.398 . S
C1926 H1914 0.950 . S
C1926 C1925 1.398 . S
C1926 C1927 1.391 . S
C1927 H1915 0.950 . S
C1927 C1923 1.393 . S
C1927 C1926 1.391 . S
H1928 C1936 0.950 . S
H1929 C1941 0.950 . S
H1930 C1938 0.950 . S
H1931 C1940 0.950 . S
H1932 C1942 0.950 . S
H1933 C1944 0.950 . S
H1934 C1946 0.950 . S
H1935 C1947 0.950 . S
C1936 H1928 0.950 . S
C1936 C1937 1.386 . S
C1936 C1938 1.391 . S
C1937 C1936 1.386 . S
C1937 C1941 1.393 . S
C1938 H1930 0.950 . S
C1938 C1936 1.391 . S
C1938 C1939 1.400 . S
C1939 C1938 1.400 . S
C1939 C1940 1.398 . S
C1939 C1945 1.491 . S
C1940 H1931 0.950 . S
C1940 C1939 1.398 . S
C1940 C1941 1.391 . S
C1941 H1929 0.950 . S
C1941 C1937 1.393 . S
C1941 C1940 1.391 . S
C1942 H1932 0.950 . S
C1942 C1943 1.386 . S
C1942 C1944 1.391 . S
C1943 C1942 1.386 . S
C1943 C1947 1.393 . S
C1944 H1933 0.950 . S
C1944 C1942 1.391 . S
C1944 C1945 1.400 . S
C1945 C1939 1.491 . S
C1945 C1944 1.400 . S
C1945 C1946 1.398 . S
C1946 H1934 0.950 . S
C1946 C1945 1.398 . S
C1946 C1947 1.391 . S
C1947 H1935 0.950 . S
C1947 C1943 1.393 . S
C1947 C1946 1.391 . S
H1948 C1956 0.950 . S
H1949 C1961 0.950 . S
H1950 C1958 0.950 . S
H1951 C1960 0.950 . S
H1952 C1962 0.950 . S
H1953 C1964 0.950 . S
H1954 C1966 0.950 . S
H1955 C1967 0.950 . S
C1956 H1948 0.950 . S
C1956 C1957 1.386 . S
C1956 C1958 1.391 . S
C1957 C1956 1.386 . S
C1957 C1961 1.393 . S
C1958 H1950 0.950 . S
C1958 C1956 1.391 . S
C1958 C1959 1.400 . S
C1959 C1958 1.400 . S
C1959 C1960 1.398 . S
C1959 C1965 1.491 . S
C1960 H1951 0.950 . S
C1960 C1959 1.398 . S
C1960 C1961 1.391 . S
C1961 H1949 0.950 . S
C1961 C1957 1.393 . S
C1961 C1960 1.391 . S
C1962 H1952 0.950 . S
C1962 C1963 1.386 . S
C1962 C1964 1.391 . S
C1963 C1962 1.386 . S
C1963 C1967 1.393 . S
C1964 H1953 0.950 . S
C1964 C1962 1.391 . S
C1964 C1965 1.400 . S
C1965 C1959 1.491 . S
C1965 C1964 1.400 . S
C1965 C1966 1.398 . S
C1966 H1954 0.950 . S
C1966 C1965 1.398 . S
C1966 C1967 1.391 . S
C1967 H1955 0.950 . S
C1967 C1963 1.393 . S
C1967 C1966 1.391 . S
C537 C51 1.463 . S
C543 C7 1.462 . S
C557 C62 1.462 . S
C563 C18 1.462 . S
C577 C73 1.468 . S
C583 C29 1.464 . S
C597 C40 1.465 . S
C603 C84 1.462 . S
C617 C161 1.476 . S
C623 C95 1.470 . S
C637 C172 1.464 . S
C643 C106 1.462 . S
C657 C117 1.491 . S
C663 C139 1.485 . S
C677 C150 1.467 . S
C683 C128 1.463 . S
C697 C238 1.483 . S
C703 C183 1.477 . S
C717 C216 1.465 . S
C723 C194 1.462 . S
C737 C205 1.494 . S
C743 C227 1.494 . S
C757 C260 1.467 . S
C763 C249 1.463 . S
C777 C271 1.560 . S
C783 C315 1.566 . S
C797 C282 1.560 . S
C803 C326 1.567 . S
C817 C337 1.558 . S
C823 C293 1.571 . S
C837 C304 1.570 . S
C843 C348 1.561 . S
C857 C425 1.559 . S
C863 C359 1.571 . S
C877 C436 1.569 . S
C883 C370 1.562 . S
C897 C381 1.560 . S
C903 C403 1.570 . S
C917 C392 1.570 . S
C923 C414 1.558 . S
C937 C447 1.571 . S
C943 C502 1.560 . S
C957 C480 1.565 . S
C963 C458 1.561 . S
C977 C469 1.559 . S
C983 C491 1.568 . S
C997 C524 1.562 . S
C1003 C513 1.569 . S
C1017 C5 1.316 . S
C1023 C104 1.289 . S
C1037 C16 1.339 . S
C1043 C115 1.330 . S
C1057 C126 1.312 . S
C1063 C27 1.287 . S
C1077 C38 1.335 . S
C1083 C93 1.337 . S
C1097 C170 1.340 . S
C1103 C49 1.327 . S
C1117 C137 1.324 . S
C1123 C60 1.341 . S
C1137 C71 1.327 . S
C1143 C148 1.340 . S
C1157 C159 1.306 . S
C1163 C82 1.286 . S
C1177 C181 1.336 . S
C1183 C203 1.306 . S
C1197 C192 1.341 . S
C1203 C247 1.326 . S
C1217 C214 1.288 . S
C1223 C258 1.296 . S
C1237 C225 1.310 . S
C1243 C236 1.287 . S
C1257 C269 1.574 . S
C1263 C368 1.575 . S
C1277 C379 1.556 . S
C1283 C280 1.561 . S
C1297 C291 1.572 . S
C1303 C390 1.575 . S
C1317 C357 1.575 . S
C1323 C302 1.572 . S
C1337 C313 1.553 . S
C1343 C434 1.558 . S
C1357 C401 1.573 . S
C1363 C324 1.569 . S
C1377 C335 1.543 . S
C1383 C412 1.545 . S
C1397 C346 1.574 . S
C1403 C423 1.576 . S
C1417 C467 1.547 . S
C1423 C445 1.544 . S
C1437 C511 1.549 . S
C1443 C456 1.546 . S
C1457 C478 1.547 . S
C1463 C522 1.551 . S
C1477 C489 1.571 . S
C1483 C500 1.566 . S
C1497 C8 1.575 . S
C1503 C349 1.604 . S
C1517 C316 1.605 . S
C1523 C19 1.568 . S
C1537 C327 1.604 . S
C1543 C30 1.578 . S
C1557 C338 1.606 . S
C1563 C41 1.570 . S
C1577 C283 1.604 . S
C1583 C52 1.580 . S
C1597 C63 1.580 . S
C1603 C294 1.607 . S
C1617 C74 1.570 . S
C1623 C305 1.604 . S
C1637 C85 1.581 . S
C1643 C272 1.607 . S
C1657 C96 1.569 . S
C1663 C492 1.604 . S
C1677 C459 1.606 . S
C1683 C107 1.569 . S
C1697 C118 1.568 . S
C1703 C470 1.604 . S
C1717 C129 1.585 . S
C1723 C481 1.607 . S
C1737 C525 1.604 . S
C1743 C140 1.574 . S
C1757 C151 1.569 . S
C1763 C503 1.604 . S
C1777 C162 1.586 . S
C1783 C514 1.606 . S
C1797 C448 1.604 . S
C1803 C173 1.579 . S
C1817 C437 1.604 . S
C1823 C184 1.574 . S
C1837 C371 1.606 . S
C1843 C195 1.571 . S
C1857 C382 1.604 . S
C1863 C206 1.582 . S
C1877 C393 1.604 . S
C1883 C217 1.569 . S
C1897 C360 1.604 . S
C1903 C228 1.573 . S
C1917 C239 1.583 . S
C1923 C415 1.607 . S
C1937 C250 1.580 . S
C1943 C426 1.604 . S
C1957 C404 1.607 . S
C1963 C261 1.574 . S
