# Generated by pormake.
# Topology ums, (4)-cn, num edge types: 1
# Building blocks:
#     Node 0, Type 0, BuildingBlock: GALJAG_clean_sbu_0, # of connection points: 4
#     Node 1, Type 0, BuildingBlock: GALJAG_clean_sbu_0, # of connection points: 4
#     Node 2, Type 0, BuildingBlock: GALJAG_clean_sbu_0, # of connection points: 4
#     Node 3, Type 0, BuildingBlock: GALJAG_clean_sbu_0, # of connection points: 4
#     Node 4, Type 0, BuildingBlock: GALJAG_clean_sbu_0, # of connection points: 4
#     Node 5, Type 0, BuildingBlock: GALJAG_clean_sbu_0, # of connection points: 4
#     Node 6, Type 0, BuildingBlock: GALJAG_clean_sbu_0, # of connection points: 4
#     Node 7, Type 0, BuildingBlock: GALJAG_clean_sbu_0, # of connection points: 4
#     Node 8, Type 0, BuildingBlock: GALJAG_clean_sbu_0, # of connection points: 4
#     Node 9, Type 0, BuildingBlock: GALJAG_clean_sbu_0, # of connection points: 4
#     Node 10, Type 0, BuildingBlock: GALJAG_clean_sbu_0, # of connection points: 4
#     Node 11, Type 0, BuildingBlock: GALJAG_clean_sbu_0, # of connection points: 4
#     Node 12, Type 0, BuildingBlock: GALJAG_clean_sbu_0, # of connection points: 4
#     Node 13, Type 0, BuildingBlock: GALJAG_clean_sbu_0, # of connection points: 4
#     Node 14, Type 0, BuildingBlock: GALJAG_clean_sbu_0, # of connection points: 4
#     Node 15, Type 0, BuildingBlock: GALJAG_clean_sbu_0, # of connection points: 4
#     Node 16, Type 0, BuildingBlock: GALJAG_clean_sbu_0, # of connection points: 4
#     Node 17, Type 0, BuildingBlock: GALJAG_clean_sbu_0, # of connection points: 4
#     Node 18, Type 0, BuildingBlock: GALJAG_clean_sbu_0, # of connection points: 4
#     Node 19, Type 0, BuildingBlock: GALJAG_clean_sbu_0, # of connection points: 4
#     Node 20, Type 0, BuildingBlock: GALJAG_clean_sbu_0, # of connection points: 4
#     Node 21, Type 0, BuildingBlock: GALJAG_clean_sbu_0, # of connection points: 4
#     Node 22, Type 0, BuildingBlock: GALJAG_clean_sbu_0, # of connection points: 4
#     Node 23, Type 0, BuildingBlock: GALJAG_clean_sbu_0, # of connection points: 4
#     Node 24, Type 0, BuildingBlock: GALJAG_clean_sbu_0, # of connection points: 4
#     Node 25, Type 0, BuildingBlock: GALJAG_clean_sbu_0, # of connection points: 4
#     Node 26, Type 0, BuildingBlock: GALJAG_clean_sbu_0, # of connection points: 4
#     Node 27, Type 0, BuildingBlock: GALJAG_clean_sbu_0, # of connection points: 4
#     Node 28, Type 0, BuildingBlock: GALJAG_clean_sbu_0, # of connection points: 4
#     Node 29, Type 0, BuildingBlock: GALJAG_clean_sbu_0, # of connection points: 4
#     Node 30, Type 0, BuildingBlock: GALJAG_clean_sbu_0, # of connection points: 4
#     Node 31, Type 0, BuildingBlock: GALJAG_clean_sbu_0, # of connection points: 4
#     Node 32, Type 0, BuildingBlock: GALJAG_clean_sbu_0, # of connection points: 4
#     Node 33, Type 0, BuildingBlock: GALJAG_clean_sbu_0, # of connection points: 4
#     Node 34, Type 0, BuildingBlock: GALJAG_clean_sbu_0, # of connection points: 4
#     Node 35, Type 0, BuildingBlock: GALJAG_clean_sbu_0, # of connection points: 4
#     Edge 36, Type (0, 0), BuildingBlock: MIFKUJ_clean_linker_0, # of connection points: 2
#     Edge 37, Type (0, 0), BuildingBlock: MIFKUJ_clean_linker_0, # of connection points: 2
#     Edge 38, Type (0, 0), BuildingBlock: MIFKUJ_clean_linker_0, # of connection points: 2
#     Edge 39, Type (0, 0), BuildingBlock: MIFKUJ_clean_linker_0, # of connection points: 2
#     Edge 40, Type (0, 0), BuildingBlock: MIFKUJ_clean_linker_0, # of connection points: 2
#     Edge 41, Type (0, 0), BuildingBlock: MIFKUJ_clean_linker_0, # of connection points: 2
#     Edge 42, Type (0, 0), BuildingBlock: MIFKUJ_clean_linker_0, # of connection points: 2
#     Edge 43, Type (0, 0), BuildingBlock: MIFKUJ_clean_linker_0, # of connection points: 2
#     Edge 44, Type (0, 0), BuildingBlock: MIFKUJ_clean_linker_0, # of connection points: 2
#     Edge 45, Type (0, 0), BuildingBlock: MIFKUJ_clean_linker_0, # of connection points: 2
#     Edge 46, Type (0, 0), BuildingBlock: MIFKUJ_clean_linker_0, # of connection points: 2
#     Edge 47, Type (0, 0), BuildingBlock: MIFKUJ_clean_linker_0, # of connection points: 2
#     Edge 48, Type (0, 0), BuildingBlock: MIFKUJ_clean_linker_0, # of connection points: 2
#     Edge 49, Type (0, 0), BuildingBlock: MIFKUJ_clean_linker_0, # of connection points: 2
#     Edge 50, Type (0, 0), BuildingBlock: MIFKUJ_clean_linker_0, # of connection points: 2
#     Edge 51, Type (0, 0), BuildingBlock: MIFKUJ_clean_linker_0, # of connection points: 2
#     Edge 52, Type (0, 0), BuildingBlock: MIFKUJ_clean_linker_0, # of connection points: 2
#     Edge 53, Type (0, 0), BuildingBlock: MIFKUJ_clean_linker_0, # of connection points: 2
#     Edge 54, Type (0, 0), BuildingBlock: MIFKUJ_clean_linker_0, # of connection points: 2
#     Edge 55, Type (0, 0), BuildingBlock: MIFKUJ_clean_linker_0, # of connection points: 2
#     Edge 56, Type (0, 0), BuildingBlock: MIFKUJ_clean_linker_0, # of connection points: 2
#     Edge 57, Type (0, 0), BuildingBlock: MIFKUJ_clean_linker_0, # of connection points: 2
#     Edge 58, Type (0, 0), BuildingBlock: MIFKUJ_clean_linker_0, # of connection points: 2
#     Edge 59, Type (0, 0), BuildingBlock: MIFKUJ_clean_linker_0, # of connection points: 2
#     Edge 60, Type (0, 0), BuildingBlock: MIFKUJ_clean_linker_0, # of connection points: 2
#     Edge 61, Type (0, 0), BuildingBlock: MIFKUJ_clean_linker_0, # of connection points: 2
#     Edge 62, Type (0, 0), BuildingBlock: MIFKUJ_clean_linker_0, # of connection points: 2
#     Edge 63, Type (0, 0), BuildingBlock: MIFKUJ_clean_linker_0, # of connection points: 2
#     Edge 64, Type (0, 0), BuildingBlock: MIFKUJ_clean_linker_0, # of connection points: 2
#     Edge 65, Type (0, 0), BuildingBlock: MIFKUJ_clean_linker_0, # of connection points: 2
#     Edge 66, Type (0, 0), BuildingBlock: MIFKUJ_clean_linker_0, # of connection points: 2
#     Edge 67, Type (0, 0), BuildingBlock: MIFKUJ_clean_linker_0, # of connection points: 2
#     Edge 68, Type (0, 0), BuildingBlock: MIFKUJ_clean_linker_0, # of connection points: 2
#     Edge 69, Type (0, 0), BuildingBlock: MIFKUJ_clean_linker_0, # of connection points: 2
#     Edge 70, Type (0, 0), BuildingBlock: MIFKUJ_clean_linker_0, # of connection points: 2
#     Edge 71, Type (0, 0), BuildingBlock: MIFKUJ_clean_linker_0, # of connection points: 2
#     Edge 72, Type (0, 0), BuildingBlock: MIFKUJ_clean_linker_0, # of connection points: 2
#     Edge 73, Type (0, 0), BuildingBlock: MIFKUJ_clean_linker_0, # of connection points: 2
#     Edge 74, Type (0, 0), BuildingBlock: MIFKUJ_clean_linker_0, # of connection points: 2
#     Edge 75, Type (0, 0), BuildingBlock: MIFKUJ_clean_linker_0, # of connection points: 2
#     Edge 76, Type (0, 0), BuildingBlock: MIFKUJ_clean_linker_0, # of connection points: 2
#     Edge 77, Type (0, 0), BuildingBlock: MIFKUJ_clean_linker_0, # of connection points: 2
#     Edge 78, Type (0, 0), BuildingBlock: MIFKUJ_clean_linker_0, # of connection points: 2
#     Edge 79, Type (0, 0), BuildingBlock: MIFKUJ_clean_linker_0, # of connection points: 2
#     Edge 80, Type (0, 0), BuildingBlock: MIFKUJ_clean_linker_0, # of connection points: 2
#     Edge 81, Type (0, 0), BuildingBlock: MIFKUJ_clean_linker_0, # of connection points: 2
#     Edge 82, Type (0, 0), BuildingBlock: MIFKUJ_clean_linker_0, # of connection points: 2
#     Edge 83, Type (0, 0), BuildingBlock: MIFKUJ_clean_linker_0, # of connection points: 2
#     Edge 84, Type (0, 0), BuildingBlock: MIFKUJ_clean_linker_0, # of connection points: 2
#     Edge 85, Type (0, 0), BuildingBlock: MIFKUJ_clean_linker_0, # of connection points: 2
#     Edge 86, Type (0, 0), BuildingBlock: MIFKUJ_clean_linker_0, # of connection points: 2
#     Edge 87, Type (0, 0), BuildingBlock: MIFKUJ_clean_linker_0, # of connection points: 2
#     Edge 88, Type (0, 0), BuildingBlock: MIFKUJ_clean_linker_0, # of connection points: 2
#     Edge 89, Type (0, 0), BuildingBlock: MIFKUJ_clean_linker_0, # of connection points: 2
#     Edge 90, Type (0, 0), BuildingBlock: MIFKUJ_clean_linker_0, # of connection points: 2
#     Edge 91, Type (0, 0), BuildingBlock: MIFKUJ_clean_linker_0, # of connection points: 2
#     Edge 92, Type (0, 0), BuildingBlock: MIFKUJ_clean_linker_0, # of connection points: 2
#     Edge 93, Type (0, 0), BuildingBlock: MIFKUJ_clean_linker_0, # of connection points: 2
#     Edge 94, Type (0, 0), BuildingBlock: MIFKUJ_clean_linker_0, # of connection points: 2
#     Edge 95, Type (0, 0), BuildingBlock: MIFKUJ_clean_linker_0, # of connection points: 2
#     Edge 96, Type (0, 0), BuildingBlock: MIFKUJ_clean_linker_0, # of connection points: 2
#     Edge 97, Type (0, 0), BuildingBlock: MIFKUJ_clean_linker_0, # of connection points: 2
#     Edge 98, Type (0, 0), BuildingBlock: MIFKUJ_clean_linker_0, # of connection points: 2
#     Edge 99, Type (0, 0), BuildingBlock: MIFKUJ_clean_linker_0, # of connection points: 2
#     Edge 100, Type (0, 0), BuildingBlock: MIFKUJ_clean_linker_0, # of connection points: 2
#     Edge 101, Type (0, 0), BuildingBlock: MIFKUJ_clean_linker_0, # of connection points: 2
#     Edge 102, Type (0, 0), BuildingBlock: MIFKUJ_clean_linker_0, # of connection points: 2
#     Edge 103, Type (0, 0), BuildingBlock: MIFKUJ_clean_linker_0, # of connection points: 2
#     Edge 104, Type (0, 0), BuildingBlock: MIFKUJ_clean_linker_0, # of connection points: 2
#     Edge 105, Type (0, 0), BuildingBlock: MIFKUJ_clean_linker_0, # of connection points: 2
#     Edge 106, Type (0, 0), BuildingBlock: MIFKUJ_clean_linker_0, # of connection points: 2
#     Edge 107, Type (0, 0), BuildingBlock: MIFKUJ_clean_linker_0, # of connection points: 2
# Relax obj value: 0.176
# Max RMSD: 0.175
# Mean RMSD: 0.174
data_MOF--net-ums--node1-GALJAG_clean_sbu_0--edge1-MIFKUJ_clean_linker_0
_symmetry_space_group_name_H-M    P1
_symmetry_Int_Tables_number       1
_symmetry_cell_setting            triclinic
loop_
_symmetry_equiv_pos_as_xyz
'x, y, z'
_cell_length_a     125.44367
_cell_length_b     125.43084
_cell_length_c     33.85539
_cell_angle_alpha  90.008313
_cell_angle_beta   89.987315
_cell_angle_gamma 120.00189
loop_
_atom_site_label
_atom_site_type_symbol
_atom_site_fract_x
_atom_site_fract_y
_atom_site_fract_z
_atom_type_partial_charge
In0 In 0.16272 0.24501 0.14752 0.0
O1 O 0.16154 0.22696 0.16609 0.0
O2 O 0.17847 0.241 0.14251 0.0
C3 C 0.1499 0.2416 0.07997 0.0
C4 C 0.14988 0.24148 0.21468 0.0
C5 C 0.18059 0.26877 0.14312 0.0
O6 O 0.15283 0.23391 0.09201 0.0
O7 O 0.15315 0.25072 0.10234 0.0
O8 O 0.17127 0.26515 0.16506 0.0
O9 O 0.18099 0.26035 0.12387 0.0
C10 C 0.17254 0.23037 0.15718 0.0
O11 O 0.16148 0.24695 0.2137 0.0
O12 O 0.14467 0.23776 0.18158 0.0
In13 In 0.75788 0.91679 0.14101 0.0
O14 O 0.7509 0.90917 0.2026 0.0
O15 O 0.76746 0.91013 0.18307 0.0
C16 C 0.73424 0.90613 0.11726 0.0
C17 C 0.76933 0.94059 0.16303 0.0
C18 C 0.76731 0.91246 0.07551 0.0
O19 O 0.73903 0.90002 0.12991 0.0
O20 O 0.74135 0.91763 0.11678 0.0
O21 O 0.76638 0.92197 0.07924 0.0
O22 O 0.76376 0.9054 0.10499 0.0
C23 C 0.75965 0.90728 0.21034 0.0
O24 O 0.77516 0.93511 0.15455 0.0
O25 O 0.75781 0.93416 0.15945 0.0
In26 In 0.0864 0.83963 0.14972 0.0
O27 O 0.067 0.83668 0.15111 0.0
O28 O 0.06976 0.82239 0.17366 0.0
C29 C 0.09248 0.85497 0.08733 0.0
C30 C 0.09646 0.85393 0.21436 0.0
C31 C 0.09331 0.82312 0.12937 0.0
O32 O 0.08156 0.8466 0.09401 0.0
O33 O 0.10023 0.85576 0.11255 0.0
O34 O 0.09399 0.82687 0.16437 0.0
O35 O 0.08895 0.82753 0.10497 0.0
C36 C 0.06232 0.82621 0.16722 0.0
O37 O 0.10283 0.85215 0.18926 0.0
O38 O 0.08514 0.84858 0.20679 0.0
In39 In 0.24561 0.15902 0.34807 0.0
O40 O 0.25111 0.15263 0.29269 0.0
O41 O 0.23221 0.14318 0.30886 0.0
C42 C 0.26986 0.17215 0.36421 0.0
C43 C 0.23545 0.17228 0.3226 0.0
C44 C 0.23738 0.14737 0.41784 0.0
O45 O 0.2645 0.16087 0.35534 0.0
O46 O 0.26299 0.17683 0.36475 0.0
O47 O 0.24183 0.15881 0.414 0.0
O48 O 0.23695 0.14177 0.38642 0.0
C49 C 0.24031 0.14426 0.28456 0.0
O50 O 0.23035 0.16384 0.34795 0.0
O51 O 0.24583 0.17425 0.31095 0.0
In52 In 0.8353 0.0866 0.33785 0.0
O53 O 0.83667 0.09019 0.27164 0.0
O54 O 0.85316 0.09475 0.30231 0.0
C55 C 0.82018 0.09577 0.34988 0.0
C56 C 0.82414 0.06224 0.32442 0.0
C57 C 0.84839 0.09389 0.40549 0.0
O58 O 0.83 0.10134 0.33017 0.0
O59 O 0.81787 0.08545 0.36338 0.0
O60 O 0.84105 0.08271 0.3979 0.0
O61 O 0.84916 0.1013 0.37902 0.0
C62 C 0.84811 0.09437 0.26974 0.0
O63 O 0.83542 0.0686 0.33286 0.0
O64 O 0.81842 0.06814 0.32358 0.0
In65 In 0.91568 0.75223 0.33714 0.0
O66 O 0.91273 0.74898 0.27108 0.0
O67 O 0.90739 0.76097 0.29761 0.0
C68 C 0.90699 0.72811 0.35086 0.0
C69 C 0.94019 0.76563 0.32612 0.0
C70 C 0.90652 0.75772 0.40125 0.0
O71 O 0.90253 0.73196 0.32491 0.0
O72 O 0.91601 0.73644 0.36961 0.0
O73 O 0.91791 0.76196 0.39645 0.0
O74 O 0.89989 0.75107 0.37337 0.0
C75 C 0.90819 0.75587 0.26645 0.0
O76 O 0.93339 0.77038 0.32637 0.0
O77 O 0.93468 0.7542 0.33253 0.0
In78 In 0.8373 0.75287 0.83833 0.0
O79 O 0.83774 0.7713 0.83286 0.0
O80 O 0.82112 0.75499 0.81891 0.0
C81 C 0.85273 0.75793 0.89965 0.0
C82 C 0.84944 0.755 0.77035 0.0
C83 C 0.82005 0.73031 0.86283 0.0
O84 O 0.84597 0.76269 0.89621 0.0
O85 O 0.85185 0.75084 0.8718 0.0
O86 O 0.82597 0.73207 0.83105 0.0
O87 O 0.82275 0.73994 0.88212 0.0
C88 C 0.82677 0.76656 0.82108 0.0
O89 O 0.8385 0.74658 0.77626 0.0
O90 O 0.85433 0.76233 0.79886 0.0
In91 In 0.24266 0.08521 0.84877 0.0
O92 O 0.24567 0.10083 0.80741 0.0
O93 O 0.22928 0.0836 0.80042 0.0
C94 C 0.26668 0.09391 0.8662 0.0
C95 C 0.23414 0.06151 0.82926 0.0
C96 C 0.23326 0.09034 0.91262 0.0
O97 O 0.26287 0.09296 0.83125 0.0
O98 O 0.25843 0.09043 0.89215 0.0
O99 O 0.23217 0.07989 0.90692 0.0
O100 O 0.23883 0.0981 0.88557 0.0
C101 C 0.2358 0.09452 0.78847 0.0
O102 O 0.22954 0.06464 0.85692 0.0
O103 O 0.24314 0.0703 0.81195 0.0
In104 In 0.91356 0.16129 0.83814 0.0
O105 O 0.93275 0.16344 0.83515 0.0
O106 O 0.93024 0.17757 0.81033 0.0
C107 C 0.90546 0.14689 0.90282 0.0
C108 C 0.90422 0.14782 0.77197 0.0
C109 C 0.90608 0.17729 0.85826 0.0
O110 O 0.91663 0.15493 0.89805 0.0
O111 O 0.89846 0.14602 0.87473 0.0
O112 O 0.90083 0.16915 0.83205 0.0
O113 O 0.91516 0.17738 0.87461 0.0
C114 C 0.93749 0.17357 0.81696 0.0
O115 O 0.90501 0.15813 0.77727 0.0
O116 O 0.90805 0.14414 0.80038 0.0
In117 In 0.75286 0.83871 0.6485 0.0
O118 O 0.75259 0.84128 0.71502 0.0
O119 O 0.76132 0.85732 0.67914 0.0
C120 C 0.72863 0.82256 0.64058 0.0
C121 C 0.76676 0.82828 0.66176 0.0
C122 C 0.75727 0.85124 0.58018 0.0
O123 O 0.73276 0.83166 0.66371 0.0
O124 O 0.73675 0.82143 0.62209 0.0
O125 O 0.76245 0.84512 0.5885 0.0
O126 O 0.75003 0.85106 0.60627 0.0
C127 C 0.75844 0.85288 0.71346 0.0
O128 O 0.77135 0.83971 0.65666 0.0
O129 O 0.75518 0.82209 0.65906 0.0
In130 In 0.15733 0.915 0.65167 0.0
O131 O 0.16626 0.93588 0.64377 0.0
O132 O 0.16768 0.92912 0.69976 0.0
C133 C 0.14605 0.91266 0.58193 0.0
C134 C 0.14199 0.90402 0.71263 0.0
C135 C 0.17065 0.90403 0.63527 0.0
O136 O 0.1575 0.91937 0.58661 0.0
O137 O 0.14015 0.90742 0.61293 0.0
O138 O 0.15906 0.8983 0.63569 0.0
O139 O 0.1756 0.9153 0.64368 0.0
C140 C 0.17016 0.93835 0.67876 0.0
O141 O 0.15128 0.9029 0.70588 0.0
O142 O 0.14016 0.91046 0.68777 0.0
In143 In 0.08467 0.24615 0.64604 0.0
O144 O 0.06762 0.22911 0.66959 0.0
O145 O 0.06516 0.24332 0.64574 0.0
C146 C 0.09289 0.23973 0.58185 0.0
C147 C 0.09646 0.24428 0.70995 0.0
C148 C 0.09133 0.26982 0.63181 0.0
O149 O 0.08163 0.23617 0.58697 0.0
O150 O 0.09987 0.24629 0.60934 0.0
O151 O 0.08942 0.26541 0.66631 0.0
O152 O 0.08973 0.26226 0.60469 0.0
C153 C 0.06028 0.23293 0.66211 0.0
O154 O 0.09615 0.25393 0.70182 0.0
O155 O 0.09092 0.2356 0.68562 0.0
In156 In 0.82415 0.57804 0.49116 0.0
O157 O 0.82256 0.58492 0.55172 0.0
O158 O 0.808 0.56746 0.53358 0.0
C159 C 0.83887 0.60162 0.46927 0.0
C160 C 0.83664 0.56669 0.51291 0.0
C161 C 0.81015 0.57014 0.42528 0.0
O162 O 0.8291 0.59809 0.4888 0.0
O163 O 0.84125 0.59324 0.46074 0.0
O164 O 0.81901 0.56827 0.43114 0.0
O165 O 0.8082 0.57566 0.45296 0.0
C166 C 0.81236 0.57561 0.56013 0.0
O167 O 0.8254 0.56082 0.50354 0.0
O168 O 0.84159 0.57824 0.51062 0.0
In169 In 0.42277 0.24862 0.47968 0.0
O170 O 0.44067 0.26461 0.50276 0.0
O171 O 0.42715 0.26856 0.48069 0.0
C172 C 0.43326 0.24543 0.41483 0.0
C173 C 0.42174 0.238 0.54968 0.0
C174 C 0.39866 0.2376 0.46023 0.0
O175 O 0.42889 0.25256 0.41522 0.0
O176 O 0.43262 0.24024 0.44731 0.0
O177 O 0.40482 0.2322 0.45859 0.0
O178 O 0.40462 0.24862 0.47182 0.0
C179 C 0.43759 0.27261 0.49644 0.0
O180 O 0.42582 0.23569 0.51879 0.0
O181 O 0.41804 0.24561 0.54527 0.0
In182 In 0.74772 0.17293 0.49348 0.0
O183 O 0.75797 0.17434 0.55051 0.0
O184 O 0.7542 0.18869 0.53775 0.0
C185 C 0.75717 0.15942 0.46431 0.0
C186 C 0.72436 0.16069 0.51999 0.0
C187 C 0.75097 0.18648 0.42817 0.0
O188 O 0.76377 0.17063 0.4733 0.0
O189 O 0.7458 0.15498 0.47024 0.0
O190 O 0.74192 0.17574 0.43223 0.0
O191 O 0.75811 0.19045 0.4575 0.0
C192 C 0.7588 0.18434 0.56139 0.0
O193 O 0.72906 0.17135 0.50539 0.0
O194 O 0.73136 0.15617 0.52038 0.0
In195 In 0.91047 0.4935 0.68352 0.0
O196 O 0.89358 0.49576 0.68024 0.0
O197 O 0.91081 0.51096 0.66315 0.0
C198 C 0.90258 0.47856 0.74692 0.0
C199 C 0.90637 0.48182 0.61374 0.0
C200 C 0.93434 0.50667 0.70479 0.0
O201 O 0.90202 0.48833 0.74523 0.0
O202 O 0.90687 0.47629 0.71649 0.0
O203 O 0.93004 0.49692 0.6847 0.0
O204 O 0.92662 0.50992 0.71385 0.0
C205 C 0.89938 0.50663 0.66719 0.0
O206 O 0.91589 0.49204 0.62052 0.0
O207 O 0.89889 0.47752 0.64213 0.0
In208 In 0.50649 0.41795 0.67805 0.0
O209 O 0.52382 0.43288 0.64679 0.0
O210 O 0.50951 0.41926 0.61162 0.0
C211 C 0.49242 0.42843 0.68861 0.0
C212 C 0.49565 0.39388 0.65976 0.0
C213 C 0.51658 0.41982 0.74997 0.0
O214 O 0.50397 0.43469 0.68515 0.0
O215 O 0.48801 0.41696 0.68631 0.0
O216 O 0.50534 0.41631 0.74506 0.0
O217 O 0.52273 0.42211 0.71846 0.0
C218 C 0.52006 0.42866 0.61262 0.0
O219 O 0.50622 0.39959 0.67522 0.0
O220 O 0.49055 0.40025 0.65454 0.0
In221 In 0.57777 0.08164 0.68575 0.0
O222 O 0.57568 0.07913 0.61896 0.0
O223 O 0.57034 0.09103 0.64599 0.0
C224 C 0.56664 0.05692 0.69373 0.0
C225 C 0.6023 0.09569 0.67794 0.0
C226 C 0.57095 0.08803 0.75322 0.0
O227 O 0.56084 0.06247 0.68598 0.0
O228 O 0.57811 0.06383 0.69734 0.0
O229 O 0.5811 0.08831 0.74996 0.0
O230 O 0.56437 0.08459 0.72266 0.0
C231 C 0.57143 0.08628 0.61455 0.0
O232 O 0.59521 0.10012 0.67724 0.0
O233 O 0.59703 0.08421 0.68349 0.0
In234 In 0.50477 0.08928 0.18536 0.0
O235 O 0.50558 0.10784 0.18054 0.0
O236 O 0.48839 0.09158 0.17115 0.0
C237 C 0.51942 0.09426 0.24888 0.0
C238 C 0.51667 0.09319 0.11608 0.0
C239 C 0.48878 0.06546 0.20155 0.0
O240 O 0.51126 0.09734 0.24718 0.0
O241 O 0.52022 0.0889 0.21854 0.0
O242 O 0.49758 0.06878 0.17755 0.0
O243 O 0.48796 0.07416 0.21714 0.0
C244 C 0.49434 0.10317 0.17184 0.0
O245 O 0.50534 0.08554 0.11982 0.0
O246 O 0.52198 0.09885 0.14727 0.0
In247 In 0.91027 0.41712 0.1831 0.0
O248 O 0.91342 0.4205 0.11696 0.0
O249 O 0.90248 0.42671 0.14609 0.0
C250 C 0.93424 0.42571 0.19945 0.0
C251 C 0.89662 0.39284 0.16868 0.0
C252 C 0.90367 0.42505 0.24757 0.0
O253 O 0.93065 0.43064 0.17428 0.0
O254 O 0.92574 0.41617 0.21565 0.0
O255 O 0.89934 0.41375 0.24051 0.0
O256 O 0.91108 0.43218 0.22198 0.0
C257 C 0.90711 0.42576 0.11412 0.0
O258 O 0.9079 0.39796 0.17742 0.0
O259 O 0.8922 0.39992 0.16805 0.0
In260 In 0.57777 0.49222 0.17224 0.0
O261 O 0.59845 0.49964 0.17351 0.0
O262 O 0.59147 0.50663 0.12956 0.0
C263 C 0.57383 0.47989 0.24089 0.0
C264 C 0.56769 0.47439 0.11707 0.0
C265 C 0.56898 0.50761 0.18729 0.0
O266 O 0.58362 0.48983 0.23378 0.0
O267 O 0.56614 0.47598 0.21294 0.0
O268 O 0.56723 0.50211 0.15471 0.0
O269 O 0.57517 0.50542 0.21178 0.0
C270 C 0.60075 0.50675 0.14442 0.0
O271 O 0.56178 0.4789 0.13338 0.0
O272 O 0.57858 0.47867 0.12926 0.0
In273 In 0.41823 0.1712 0.98706 0.0
O274 O 0.4161 0.17248 0.05332 0.0
O275 O 0.42698 0.18914 0.02162 0.0
C276 C 0.39423 0.15552 0.9718 0.0
C277 C 0.43234 0.16102 0.0009 0.0
C278 C 0.42359 0.18511 0.92179 0.0
O279 O 0.39775 0.16318 -0.00021 0.0
O280 O 0.4028 0.15563 0.95205 0.0
O281 O 0.42607 0.17656 0.92498 0.0
O282 O 0.41865 0.18679 0.95181 0.0
C283 C 0.42276 0.18405 0.05453 0.0
O284 O 0.43684 0.17219 0.99158 0.0
O285 O 0.42075 0.15495 0.00213 0.0
In286 In 0.82637 0.2453 0.00284 0.0
O287 O 0.82921 0.26471 -0.00148 0.0
O288 O 0.84056 0.26172 0.03815 0.0
C289 C 0.81302 0.23574 0.93667 0.0
C290 C 0.81064 0.23494 0.0639 0.0
C291 C 0.84463 0.24056 0.98696 0.0
O292 O 0.81841 0.2471 0.94432 0.0
O293 O 0.81423 0.22921 0.9626 0.0
O294 O 0.83689 0.23528 0.01424 0.0
O295 O 0.84329 0.24845 0.96777 0.0
C296 C 0.83769 0.26922 0.02391 0.0
O297 O 0.82026 0.23424 0.05978 0.0
O298 O 0.80884 0.24078 0.03693 0.0
In299 In 0.74997 0.58188 0.99629 0.0
O300 O 0.72968 0.57181 0.97663 0.0
O301 O 0.73354 0.57313 0.03781 0.0
C302 C 0.76044 0.57713 0.9344 0.0
C303 C 0.76051 0.57713 0.0579 0.0
C304 C 0.75522 0.60529 0.98368 0.0
O305 O 0.74986 0.56938 0.94691 0.0
O306 O 0.76579 0.58703 0.95382 0.0
O307 O 0.75846 0.60206 0.01454 0.0
O308 O 0.74916 0.59671 0.95953 0.0
C309 C 0.72547 0.56938 0.01127 0.0
O310 O 0.7596 0.58668 0.05561 0.0
O311 O 0.75631 0.56998 0.02854 0.0
In312 In 0.48905 0.90545 0.81994 0.0
O313 O 0.49034 0.88809 0.82843 0.0
O314 O 0.50616 0.90536 0.84129 0.0
C315 C 0.47502 0.89634 0.75497 0.0
C316 C 0.47814 0.90386 0.89001 0.0
C317 C 0.50193 0.92883 0.79343 0.0
O318 O 0.48558 0.89749 0.75759 0.0
O319 O 0.47142 0.89932 0.78562 0.0
O320 O 0.49116 0.92424 0.807 0.0
O321 O 0.50632 0.92171 0.79396 0.0
C322 C 0.50133 0.89381 0.84044 0.0
O323 O 0.48847 0.91288 0.88083 0.0
O324 O 0.47326 0.89569 0.86372 0.0
In325 In 0.08686 0.58018 0.81666 0.0
O326 O 0.10495 0.5984 0.82176 0.0
O327 O 0.08836 0.59789 0.83899 0.0
C328 C 0.09422 0.57856 0.74305 0.0
C329 C 0.09085 0.56925 0.87923 0.0
C330 C 0.06206 0.56892 0.81121 0.0
O331 O 0.08714 0.58277 0.74988 0.0
O332 O 0.09792 0.57557 0.77343 0.0
O333 O 0.06779 0.56307 0.81297 0.0
O334 O 0.06881 0.58045 0.81282 0.0
C335 C 0.09991 0.60419 0.83546 0.0
O336 O 0.0889 0.56475 0.84496 0.0
O337 O 0.09068 0.57917 0.88203 0.0
In338 In 0.41858 0.50349 0.82685 0.0
O339 O 0.42574 0.50768 0.8894 0.0
O340 O 0.42628 0.52238 0.85651 0.0
C341 C 0.4261 0.48688 0.81982 0.0
C342 C 0.39418 0.4915 0.84186 0.0
C343 C 0.42696 0.51647 0.75928 0.0
O344 O 0.43257 0.49732 0.83541 0.0
O345 O 0.41554 0.48457 0.80884 0.0
O346 O 0.41785 0.51577 0.77757 0.0
O347 O 0.43184 0.51096 0.7756 0.0
C348 C 0.42832 0.51876 0.88897 0.0
O349 O 0.39833 0.49302 0.80709 0.0
O350 O 0.40228 0.49589 0.86837 0.0
In351 In 0.58089 0.82759 0.01872 0.0
O352 O 0.56226 0.82657 0.01276 0.0
O353 O 0.57847 0.84375 0.00204 0.0
C354 C 0.5738 0.81698 0.09058 0.0
C355 C 0.57706 0.814 0.95302 0.0
C356 C 0.60569 0.84137 0.02405 0.0
O357 O 0.5796 0.82849 0.08592 0.0
O358 O 0.5713 0.81087 0.05903 0.0
O359 O 0.60019 0.83002 0.01642 0.0
O360 O 0.59872 0.84579 0.02872 0.0
C361 C 0.56686 0.83774 0.00308 0.0
O362 O 0.57765 0.81022 0.987 0.0
O363 O 0.57858 0.82472 0.95202 0.0
In364 In 0.17232 0.75089 0.00685 0.0
O365 O 0.19074 0.76304 0.97629 0.0
O366 O 0.17483 0.75367 0.94028 0.0
C367 C 0.15599 0.75859 0.01983 0.0
C368 C 0.16147 0.72652 0.99291 0.0
C369 C 0.18581 0.75839 0.07341 0.0
O370 O 0.16261 0.76149 0.98924 0.0
O371 O 0.15743 0.75163 0.04336 0.0
O372 O 0.17981 0.74718 0.06365 0.0
O373 O 0.18517 0.7657 0.04927 0.0
C374 C 0.18631 0.76079 0.94188 0.0
O375 O 0.17299 0.73329 0.99583 0.0
O376 O 0.15544 0.73198 0.99808 0.0
In377 In 0.24542 0.4167 -0.00146 0.0
O378 O 0.23615 0.41193 0.93868 0.0
O379 O 0.24028 0.42913 0.96372 0.0
C380 C 0.23892 0.39346 0.01945 0.0
C381 C 0.26891 0.42814 0.97339 0.0
C382 C 0.23774 0.42331 0.0635 0.0
O383 O 0.23206 0.39608 -0.00046 0.0
O384 O 0.24919 0.40257 0.02864 0.0
O385 O 0.249 0.42733 0.0564 0.0
O386 O 0.23046 0.41623 0.03744 0.0
C387 C 0.23593 0.42181 0.93485 0.0
O388 O 0.26565 0.43162 0.00379 0.0
O389 O 0.26041 0.41884 0.9564 0.0
In390 In 0.17127 0.41994 0.50267 0.0
O391 O 0.17149 0.43797 0.49102 0.0
O392 O 0.15433 0.42136 0.48764 0.0
C393 C 0.18591 0.42719 0.56673 0.0
C394 C 0.1837 0.42236 0.4351 0.0
C395 C 0.15538 0.39658 0.52479 0.0
O396 O 0.17867 0.43118 0.55915 0.0
O397 O 0.1859 0.41974 0.54162 0.0
O398 O 0.16201 0.39916 0.49431 0.0
O399 O 0.15669 0.40578 0.54398 0.0
C400 C 0.1601 0.4329 0.48426 0.0
O401 O 0.17223 0.41536 0.43822 0.0
O402 O 0.18898 0.42806 0.46628 0.0
In403 In 0.57682 0.75005 0.52191 0.0
O404 O 0.57405 0.76447 0.4899 0.0
O405 O 0.57764 0.75254 0.45503 0.0
C406 C 0.60143 0.761 0.53239 0.0
C407 C 0.5625 0.72582 0.50758 0.0
C408 C 0.56811 0.7523 0.59236 0.0
O409 O 0.59528 0.7661 0.54123 0.0
O410 O 0.59522 0.75045 0.51735 0.0
O411 O 0.57408 0.74674 0.58821 0.0
O412 O 0.56615 0.75634 0.56073 0.0
C413 C 0.57542 0.76129 0.45581 0.0
O414 O 0.5587 0.73335 0.50309 0.0
O415 O 0.57339 0.73048 0.52014 0.0
In416 In 0.24623 0.82768 0.50946 0.0
O417 O 0.23626 0.82378 0.45074 0.0
O418 O 0.24112 0.81076 0.47132 0.0
C419 C 0.23558 0.84096 0.53065 0.0
C420 C 0.26974 0.8402 0.48413 0.0
C421 C 0.24239 0.81494 0.57699 0.0
O422 O 0.22952 0.82983 0.52037 0.0
O423 O 0.24711 0.8455 0.53021 0.0
O424 O 0.25106 0.8259 0.57317 0.0
O425 O 0.23584 0.8104 0.54659 0.0
C426 C 0.23617 0.81382 0.44455 0.0
O427 O 0.26607 0.83162 0.50914 0.0
O428 O 0.26163 0.84261 0.47259 0.0
In429 In 0.0858 0.50556 0.3154 0.0
O430 O 0.08789 0.52295 0.34463 0.0
O431 O 0.08864 0.50966 0.38139 0.0
C432 C 0.06099 0.4922 0.31101 0.0
C433 C 0.0992 0.49466 0.32954 0.0
C434 C 0.09359 0.51458 0.24217 0.0
O435 O 0.06708 0.50329 0.30031 0.0
O436 O 0.06739 0.48787 0.32464 0.0
O437 O 0.08647 0.50329 0.24886 0.0
O438 O 0.09705 0.52129 0.27256 0.0
C439 C 0.08916 0.51993 0.37905 0.0
O440 O 0.10403 0.50621 0.32675 0.0
O441 O 0.0877 0.48868 0.32435 0.0
In442 In 0.49172 0.58075 0.31992 0.0
O443 O 0.49406 0.59991 0.32507 0.0
O444 O 0.50816 0.59721 0.34882 0.0
C445 C 0.47713 0.5745 0.25581 0.0
C446 C 0.47712 0.56884 0.38227 0.0
C447 C 0.50842 0.57431 0.29765 0.0
O448 O 0.48605 0.58524 0.2612 0.0
O449 O 0.47545 0.56695 0.28308 0.0
O450 O 0.50514 0.57394 0.33308 0.0
O451 O 0.50352 0.57824 0.27354 0.0
C452 C 0.50417 0.60451 0.34318 0.0
O453 O 0.48372 0.56525 0.3653 0.0
O454 O 0.47762 0.57826 0.36718 0.0
In455 In 0.41805 0.91519 0.32518 0.0
O456 O 0.39809 0.91064 0.31821 0.0
O457 O 0.40147 0.89828 0.3513 0.0
C458 C 0.42647 0.90951 0.25956 0.0
C459 C 0.42821 0.91216 0.39105 0.0
C460 C 0.42454 0.93909 0.31699 0.0
O461 O 0.41568 0.90273 0.27227 0.0
O462 O 0.43291 0.91898 0.27999 0.0
O463 O 0.4297 0.93549 0.34126 0.0
O464 O 0.41594 0.93061 0.29737 0.0
C465 C 0.39365 0.90092 0.33847 0.0
O466 O 0.42178 0.91734 0.39125 0.0
O467 O 0.42957 0.90858 0.35753 0.0
H468 H 0.21219 0.16778 0.33713 0.0
H469 H 0.2016 0.17737 0.30509 0.0
H470 H 0.23431 0.20069 0.23756 0.0
H471 H 0.24498 0.19117 0.26958 0.0
H472 H 0.22341 0.21326 0.26824 0.0
H473 H 0.21145 0.17632 0.19436 0.0
H474 H 0.20323 0.15404 0.18555 0.0
H475 H 0.16859 0.14654 0.23464 0.0
H476 H 0.17667 0.16878 0.24431 0.0
H477 H 0.1955 0.23514 0.13637 0.0
H478 H 0.2062 0.22456 0.15981 0.0
H479 H 0.17377 0.19887 0.22452 0.0
H480 H 0.16291 0.20921 0.20035 0.0
H481 H 0.18499 0.18747 0.1927 0.0
H482 H 0.19706 0.22402 0.26991 0.0
H483 H 0.20511 0.24622 0.28009 0.0
H484 H 0.23938 0.25435 0.22639 0.0
H485 H 0.23146 0.23219 0.2154 0.0
C486 C 0.21715 0.17502 0.31569 0.0
C487 C 0.22939 0.17871 0.30572 0.0
C488 C 0.21108 0.18043 0.29728 0.0
C489 C 0.21714 0.1896 0.26861 0.0
C490 C 0.22948 0.19358 0.25952 0.0
C491 C 0.23555 0.18814 0.27779 0.0
C492 C 0.21057 0.19497 0.2479 0.0
C493 C 0.21512 0.20766 0.25122 0.0
C494 C 0.19961 0.18759 0.22642 0.0
C495 C 0.1947 0.17421 0.2204 0.0
C496 C 0.20211 0.16992 0.20357 0.0
C497 C 0.19747 0.1573 0.19837 0.0
C498 C 0.18541 0.14888 0.20962 0.0
C499 C 0.17794 0.15307 0.22599 0.0
C500 C 0.18254 0.16568 0.23131 0.0
C501 C 0.19059 0.22711 0.15508 0.0
C502 C 0.17842 0.22306 0.16689 0.0
C503 C 0.19673 0.22112 0.16857 0.0
C504 C 0.19086 0.2111 0.19456 0.0
C505 C 0.17848 0.20662 0.20462 0.0
C506 C 0.1723 0.21255 0.19085 0.0
C507 C 0.19781 0.20576 0.21317 0.0
C508 C 0.19333 0.19308 0.20953 0.0
C509 C 0.2088 0.21314 0.23455 0.0
C510 C 0.21362 0.22646 0.24148 0.0
C511 C 0.20628 0.23055 0.26004 0.0
C512 C 0.21082 0.24312 0.26598 0.0
C513 C 0.22274 0.25169 0.2538 0.0
C514 C 0.23014 0.2477 0.23575 0.0
C515 C 0.22564 0.23514 0.22968 0.0
H516 H 0.22624 0.26143 0.25842 0.0
H517 H 0.18183 0.13911 0.20557 0.0
H518 H 0.80032 0.04698 0.3023 0.0
H519 H 0.79121 0.02583 0.27832 0.0
H520 H 0.82566 0.02676 0.2978 0.0
H521 H 0.83488 0.04799 0.32137 0.0
H522 H 0.81668 0.01845 0.22502 0.0
H523 H 0.80115 0.00984 0.3575 0.0
H524 H 0.79059 0.0116 0.41645 0.0
H525 H 0.75712 0.99817 0.35013 0.0
H526 H 0.76753 0.99649 0.29061 0.0
H527 H 0.79328 0.95483 0.18579 0.0
H528 H 0.80285 0.9753 0.21574 0.0
H529 H 0.76866 0.97546 0.20442 0.0
H530 H 0.75895 0.95486 0.17553 0.0
H531 H 0.77802 0.98303 0.27534 0.0
H532 H 0.79355 0.99254 0.14244 0.0
H533 H 0.80397 0.99099 0.08277 0.0
H534 H 0.83724 0.00296 0.14903 0.0
H535 H 0.82696 0.00444 0.20924 0.0
C536 C 0.8059 0.04263 0.30193 0.0
C537 C 0.81831 0.04912 0.31361 0.0
C538 C 0.80068 0.03053 0.28836 0.0
C539 C 0.80775 0.02471 0.28651 0.0
C540 C 0.82006 0.03109 0.299 0.0
C541 C 0.82529 0.04319 0.31256 0.0
C542 C 0.8025 0.01223 0.26941 0.0
C543 C 0.80834 0.01064 0.23641 0.0
C544 C 0.79145 0.00216 0.2837 0.0
C545 C 0.78516 0.00314 0.31949 0.0
C546 C 0.79156 0.00735 0.3554 0.0
C547 C 0.7856 0.00832 0.38893 0.0
C548 C 0.7732 0.00503 0.38701 0.0
C549 C 0.76673 0.00073 0.35157 0.0
C550 C 0.77265 -0.00024 0.31793 0.0
C551 C 0.78785 0.95928 0.18938 0.0
C552 C 0.77539 0.95329 0.17827 0.0
C553 C 0.79332 0.97099 0.20642 0.0
C554 C 0.78649 0.97695 0.21201 0.0
C555 C 0.77409 0.97102 0.20046 0.0
C556 C 0.76858 0.95928 0.1838 0.0
C557 C 0.79215 0.98927 0.23074 0.0
C558 C 0.78639 0.99082 0.26405 0.0
C559 C 0.80325 -0.00067 0.21663 0.0
C560 C 0.80945 0.99848 0.18043 0.0
C561 C 0.80306 0.99475 0.14435 0.0
C562 C 0.80895 0.9939 0.11042 0.0
C563 C 0.82125 0.99684 0.11213 0.0
C564 C 0.82771 0.00067 0.14776 0.0
C565 C 0.82186 0.00153 0.18179 0.0
H566 H 0.82579 0.99618 0.08583 0.0
H567 H 0.7686 0.00578 0.41301 0.0
H568 H 0.95295 0.78904 0.2974 0.0
H569 H 0.97405 0.79966 0.27201 0.0
H570 H 0.97813 0.76866 0.30479 0.0
H571 H 0.957 0.75794 0.33005 0.0
H572 H -0.00096 0.79193 0.32181 0.0
H573 H 0.9714 0.77036 0.21409 0.0
H574 H 0.95345 0.76475 0.17132 0.0
H575 H 0.96897 0.80248 0.13556 0.0
H576 H 0.98693 0.80835 0.17866 0.0
H577 H 0.05051 0.80406 0.20508 0.0
H578 H 0.02973 0.79391 0.23288 0.0
H579 H 0.02437 0.82314 0.18857 0.0
H580 H 0.04508 0.83326 0.1602 0.0
H581 H 0.00408 0.80102 0.17809 0.0
H582 H 0.0317 0.82286 0.28404 0.0
H583 H 0.04961 0.82903 0.32755 0.0
H584 H 0.03427 0.79171 0.36757 0.0
H585 H 0.01635 0.78528 0.3238 0.0
C586 C 0.9584 0.78456 0.29972 0.0
C587 C 0.95333 0.77264 0.31544 0.0
C588 C 0.97042 0.79062 0.28511 0.0
C589 C 0.97755 0.78486 0.28618 0.0
C590 C 0.97273 0.77322 0.30367 0.0
C591 C 0.96068 0.76711 0.31798 0.0
C592 C 0.98977 0.79068 0.26706 0.0
C593 C 0.00016 0.7938 0.29033 0.0
C594 C 0.99118 0.79334 0.22616 0.0
C595 C 0.98045 0.78981 0.19992 0.0
C596 C 0.97094 0.77748 0.19736 0.0
C597 C 0.96077 0.77425 0.17302 0.0
C598 C 0.96005 0.78326 0.15082 0.0
C599 C 0.96952 0.79551 0.15283 0.0
C600 C 0.97971 0.7988 0.17719 0.0
C601 C 0.04485 0.80826 0.20091 0.0
C602 C 0.04942 0.81948 0.18069 0.0
C603 C 0.03302 0.80248 0.21698 0.0
C604 C 0.0256 0.80789 0.21334 0.0
C605 C 0.02997 0.81885 0.19183 0.0
C606 C 0.0418 0.82462 0.17569 0.0
C607 C 0.01341 0.80227 0.2328 0.0
C608 C 0.003 0.79918 0.20959 0.0
C609 C 0.012 0.79972 0.27382 0.0
C610 C 0.02274 0.80357 0.30033 0.0
C611 C 0.03219 0.81595 0.30188 0.0
C612 C 0.04234 0.8195 0.32662 0.0
C613 C 0.04309 0.81076 0.35024 0.0
C614 C 0.03368 0.79847 0.34922 0.0
C615 C 0.02352 0.79486 0.32446 0.0
H616 H 0.05095 0.81353 0.36938 0.0
H617 H 0.95217 0.78074 0.132 0.0
H618 H 0.80359 0.75798 0.79318 0.0
H619 H 0.7949 0.76993 0.7654 0.0
H620 H 0.82865 0.8036 0.79067 0.0
H621 H 0.83743 0.79165 0.81889 0.0
H622 H 0.80768 0.80506 0.8078 0.0
H623 H 0.82402 0.79317 0.69991 0.0
H624 H 0.82729 0.77881 0.6589 0.0
H625 H 0.78863 0.75816 0.633 0.0
H626 H 0.78509 0.77229 0.67439 0.0
H627 H 0.79098 0.84011 0.68287 0.0
H628 H 0.80269 0.8308 0.70863 0.0
H629 H 0.77103 0.79464 0.69296 0.0
H630 H 0.75926 0.80387 0.66732 0.0
H631 H 0.79303 0.79618 0.669 0.0
H632 H 0.77655 0.807 0.78092 0.0
H633 H 0.77306 0.82116 0.82227 0.0
H634 H 0.81201 0.84384 0.84032 0.0
H635 H 0.81574 0.8299 0.79854 0.0
C636 C 0.80913 0.76793 0.79319 0.0
C637 C 0.82122 0.77389 0.80791 0.0
C638 C 0.80417 0.77474 0.77718 0.0
C639 C 0.81122 0.78762 0.77542 0.0
C640 C 0.82311 0.79365 0.79162 0.0
C641 C 0.8281 0.78682 0.80765 0.0
C642 C 0.80623 0.79466 0.75542 0.0
C643 C 0.80468 0.8033 0.77725 0.0
C644 C 0.80218 0.79221 0.71572 0.0
C645 C 0.80428 0.78374 0.69052 0.0
C646 C 0.8162 0.78551 0.68571 0.0
C647 C 0.8181 0.77742 0.66237 0.0
C648 C 0.80817 0.76756 0.64342 0.0
C649 C 0.79631 0.76579 0.64772 0.0
C650 C 0.79435 0.77385 0.67109 0.0
C651 C 0.78657 0.83018 0.68446 0.0
C652 C 0.7742 0.8227 0.67329 0.0
C653 C 0.79325 0.82489 0.69931 0.0
C654 C 0.78766 0.81206 0.70302 0.0
C655 C 0.77548 0.80457 0.69034 0.0
C656 C 0.76877 0.80985 0.6758 0.0
C657 C 0.7943 0.80641 0.72155 0.0
C658 C 0.79617 0.79805 0.69941 0.0
C659 C 0.79865 0.80913 0.76092 0.0
C660 C 0.79643 0.81749 0.78623 0.0
C661 C 0.78438 0.81507 0.79342 0.0
C662 C 0.78235 0.82304 0.81698 0.0
C663 C 0.79231 0.83341 0.83382 0.0
C664 C 0.80431 0.83581 0.82719 0.0
C665 C 0.80638 0.82788 0.80359 0.0
H666 H 0.79071 0.83954 0.85212 0.0
H667 H 0.80966 0.76131 0.62536 0.0
H668 H 0.23881 0.05329 0.76067 0.0
H669 H 0.22861 0.0321 0.73613 0.0
H670 H 0.20744 0.01953 0.84363 0.0
H671 H 0.21745 0.04076 0.86819 0.0
H672 H 0.21829 0.00476 0.81346 0.0
H673 H 0.19347 0.02262 0.77316 0.0
H674 H 0.19044 0.03864 0.74178 0.0
H675 H 0.20327 0.0325 0.63119 0.0
H676 H 0.20657 0.01657 0.66211 0.0
H677 H 0.17223 0.94551 0.75531 0.0
H678 H 0.18365 0.96642 0.78146 0.0
H679 H 0.19558 0.98047 0.66348 0.0
H680 H 0.1835 0.95956 0.63703 0.0
H681 H 0.19016 0.9949 0.69898 0.0
H682 H 0.21481 0.97719 0.73518 0.0
H683 H 0.21922 0.96179 0.76434 0.0
H684 H 0.20866 0.96812 0.87874 0.0
H685 H 0.20403 0.98345 0.85018 0.0
C686 C 0.23208 0.046 0.77927 0.0
C687 C 0.22886 0.04864 0.81624 0.0
C688 C 0.22627 0.03393 0.76519 0.0
C689 C 0.21726 0.02433 0.78806 0.0
C690 C 0.21439 0.02686 0.82567 0.0
C691 C 0.22007 0.03896 0.83955 0.0
C692 C 0.21037 0.01176 0.77177 0.0
C693 C 0.21202 0.00251 0.78871 0.0
C694 C 0.20253 0.00904 0.73878 0.0
C695 C 0.20039 0.0185 0.72005 0.0
C696 C 0.19575 0.02476 0.74224 0.0
C697 C 0.19396 0.03381 0.72452 0.0
C698 C 0.19669 0.03662 0.68454 0.0
C699 C 0.20117 0.03034 0.66217 0.0
C700 C 0.203 0.02129 0.67977 0.0
C701 C 0.1773 0.95308 0.73501 0.0
C702 C 0.17707 0.95097 0.69423 0.0
C703 C 0.1839 0.96502 0.74998 0.0
C704 C 0.19074 0.97502 0.72458 0.0
C705 C 0.19041 0.97291 0.68371 0.0
C706 C 0.18354 0.96098 0.66861 0.0
C707 C 0.19802 0.9877 0.74056 0.0
C708 C 0.19645 0.99704 0.72361 0.0
C709 C 0.20611 0.99054 0.77313 0.0
C710 C 0.20897 0.98139 0.79047 0.0
C711 C 0.21335 0.97524 0.76652 0.0
C712 C 0.2159 0.96653 0.78294 0.0
C713 C 0.21419 0.96396 0.82335 0.0
C714 C 0.20996 0.97011 0.84744 0.0
C715 C 0.20739 0.97883 0.83116 0.0
H716 H 0.21617 0.95721 0.836 0.0
H717 H 0.19531 0.04363 0.67088 0.0
H718 H 0.04866 0.21177 0.70502 0.0
H719 H 0.02752 0.20145 0.72947 0.0
H720 H 0.02128 0.22836 0.67052 0.0
H721 H 0.04256 0.23891 0.64673 0.0
H722 H 0.01327 0.22511 0.7443 0.0
H723 H 0.00868 0.19855 0.6359 0.0
H724 H 0.01356 0.18524 0.59524 0.0
H725 H 0.00581 0.16083 0.69363 0.0
H726 H 0.00104 0.1741 0.73506 0.0
H727 H 0.94859 0.19404 0.77078 0.0
H728 H 0.96939 0.20392 0.74356 0.0
H729 H 0.97612 0.17746 0.80335 0.0
H730 H 0.95516 0.16732 0.82997 0.0
H731 H 0.98377 0.18047 0.72843 0.0
H732 H 0.98859 0.20726 0.83692 0.0
H733 H 0.98359 0.22057 0.87717 0.0
H734 H 0.99083 0.24455 0.77789 0.0
H735 H 0.99571 0.23129 0.73688 0.0
C736 C 0.04274 0.21541 0.69691 0.0
C737 C 0.04723 0.22614 0.67397 0.0
C738 C 0.03065 0.20947 0.71079 0.0
C739 C 0.02279 0.21407 0.70151 0.0
C740 C 0.0272 0.22466 0.67801 0.0
C741 C 0.03933 0.23066 0.66433 0.0
C742 C 0.01016 0.20815 0.71793 0.0
C743 C 0.00674 0.21538 0.74031 0.0
C744 C 0.00179 0.1954 0.71359 0.0
C745 C 0.00461 0.18738 0.68868 0.0
C746 C 0.00811 0.1904 0.64896 0.0
C747 C 0.01084 0.18285 0.62575 0.0
C748 C 0.01002 0.17221 0.64187 0.0
C749 C 0.00645 0.16908 0.6812 0.0
C750 C 0.00372 0.17661 0.70454 0.0
C751 C 0.95454 0.19037 0.77838 0.0
C752 C 0.95029 0.17993 0.80259 0.0
C753 C 0.96643 0.19606 0.76288 0.0
C754 C 0.97434 0.19151 0.77178 0.0
C755 C 0.97015 0.18112 0.79616 0.0
C756 C 0.95821 0.17537 0.81147 0.0
C757 C 0.9869 0.19743 0.7548 0.0
C758 C 0.9903 0.19019 0.73236 0.0
C759 C 0.99525 0.21018 0.75903 0.0
C760 C 0.99241 0.21822 0.78374 0.0
C761 C 0.98903 0.21532 0.8236 0.0
C762 C 0.98623 0.22287 0.84656 0.0
C763 C 0.98686 0.23338 0.83007 0.0
C764 C 0.99033 0.23639 0.79061 0.0
C765 C 0.99313 0.22888 0.76751 0.0
H766 H 0.98469 0.23921 0.8479 0.0
H767 H 0.01214 0.16638 0.62385 0.0
H768 H 0.86123 0.57725 0.5274 0.0
H769 H 0.8722 0.56733 0.55437 0.0
H770 H 0.8382 0.5326 0.55845 0.0
H771 H 0.82715 0.54245 0.53133 0.0
H772 H 0.85185 0.53857 0.62884 0.0
H773 H 0.85814 0.53689 0.48891 0.0
H774 H 0.86454 0.54563 0.42212 0.0
H775 H 0.90141 0.56922 0.46361 0.0
H776 H 0.89518 0.56073 0.53082 0.0
H777 H 0.87472 0.49803 0.66302 0.0
H778 H 0.86447 0.50891 0.63843 0.0
H779 H 0.89977 0.54157 0.62029 0.0
H780 H 0.91009 0.53061 0.64384 0.0
H781 H 0.88588 0.5374 0.558 0.0
H782 H 0.88043 0.53941 0.69664 0.0
H783 H 0.87458 0.53155 0.76459 0.0
H784 H 0.83704 0.50866 0.72796 0.0
H785 H 0.8427 0.51625 0.65963 0.0
C786 C 0.85611 0.56749 0.5338 0.0
C787 C 0.84335 0.5606 0.52723 0.0
C788 C 0.86238 0.56184 0.54913 0.0
C789 C 0.85599 0.54925 0.55823 0.0
C790 C 0.84326 0.54234 0.5516 0.0
C791 C 0.83699 0.54796 0.53596 0.0
C792 C 0.86256 0.54332 0.57539 0.0
C793 C 0.85919 0.53815 0.61323 0.0
C794 C 0.8724 0.54319 0.55542 0.0
C795 C 0.87616 0.54826 0.51498 0.0
C796 C 0.86758 0.54401 0.48387 0.0
C797 C 0.87119 0.54891 0.44592 0.0
C798 C 0.88336 0.558 0.43865 0.0
C799 C 0.89198 0.56219 0.4693 0.0
C800 C 0.88842 0.55733 0.50732 0.0
C801 C 0.88029 0.50757 0.65415 0.0
C802 C 0.8932 0.51349 0.65535 0.0
C803 C 0.87442 0.51379 0.64025 0.0
C804 C 0.88135 0.5261 0.6279 0.0
C805 C 0.89425 0.53208 0.62966 0.0
C806 C 0.90013 0.52582 0.64324 0.0
C807 C 0.87514 0.53254 0.61154 0.0
C808 C 0.87858 0.53783 0.57381 0.0
C809 C 0.86546 0.53291 0.63184 0.0
C810 C 0.86201 0.52832 0.67292 0.0
C811 C 0.87094 0.53262 0.703 0.0
C812 C 0.86766 0.52823 0.7416 0.0
C813 C 0.85545 0.51959 0.75056 0.0
C814 C 0.8465 0.51534 0.72096 0.0
C815 C 0.84973 0.5197 0.68229 0.0
H816 H 0.85293 0.5162 0.78047 0.0
H817 H 0.88613 0.56178 0.40924 0.0
H818 H 0.43292 0.29141 0.48547 0.0
H819 H 0.44449 0.31227 0.51217 0.0
H820 H 0.47083 0.30376 0.5636 0.0
H821 H 0.45922 0.28282 0.53722 0.0
H822 H 0.46295 0.31452 0.61649 0.0
H823 H 0.47891 0.32264 0.48523 0.0
H824 H 0.47807 0.32204 0.41247 0.0
H825 H 0.45832 0.34182 0.41318 0.0
H826 H 0.45888 0.34238 0.48601 0.0
H827 H 0.50414 0.37777 0.66985 0.0
H828 H 0.49537 0.357 0.64201 0.0
H829 H 0.4659 0.36051 0.58984 0.0
H830 H 0.47453 0.38116 0.61757 0.0
H831 H 0.47722 0.35247 0.53684 0.0
H832 H 0.46003 0.343 0.66791 0.0
H833 H 0.4607 0.34348 0.7407 0.0
H834 H 0.48285 0.3262 0.74 0.0
H835 H 0.48246 0.32578 0.66712 0.0
C836 C 0.44126 0.29403 0.50205 0.0
C837 C 0.44518 0.28551 0.50928 0.0
C838 C 0.44787 0.30596 0.51719 0.0
C839 C 0.45855 0.30957 0.53964 0.0
C840 C 0.46261 0.30114 0.54631 0.0
C841 C 0.45601 0.28921 0.53109 0.0
C842 C 0.46508 0.32196 0.55775 0.0
C843 C 0.46629 0.32284 0.59903 0.0
C844 C 0.46921 0.33277 0.53497 0.0
C845 C 0.46885 0.33246 0.49113 0.0
C846 C 0.4743 0.32678 0.4699 0.0
C847 C 0.47389 0.32646 0.42863 0.0
C848 C 0.46812 0.33187 0.40822 0.0
C849 C 0.46277 0.33762 0.42904 0.0
C850 C 0.46315 0.33796 0.47031 0.0
C851 C 0.49573 0.37405 0.65276 0.0
C852 C 0.49001 0.38106 0.64585 0.0
C853 C 0.49074 0.36221 0.63692 0.0
C854 C 0.48001 0.35727 0.61388 0.0
C855 C 0.47422 0.3642 0.60743 0.0
C856 C 0.47913 0.37596 0.62346 0.0
C857 C 0.47492 0.34499 0.59552 0.0
C858 C 0.47399 0.34414 0.55421 0.0
C859 C 0.47107 0.33422 0.61826 0.0
C860 C 0.47135 0.3345 0.66205 0.0
C861 C 0.46515 0.33942 0.68326 0.0
C862 C 0.46546 0.33965 0.72454 0.0
C863 C 0.47185 0.33491 0.74496 0.0
C864 C 0.47793 0.32989 0.72414 0.0
C865 C 0.47766 0.32965 0.68285 0.0
H866 H 0.47207 0.33509 0.77692 0.0
H867 H 0.46781 0.33161 0.37626 0.0
H868 H 0.70821 0.16916 0.52806 0.0
H869 H 0.6878 0.15848 0.55879 0.0
H870 H 0.69207 0.12697 0.58136 0.0
H871 H 0.71239 0.13752 0.55048 0.0
H872 H 0.66959 0.12038 0.55118 0.0
H873 H 0.69568 0.14632 0.65507 0.0
H874 H 0.71107 0.16591 0.68535 0.0
H875 H 0.68717 0.18079 0.66753 0.0
H876 H 0.67168 0.16132 0.63661 0.0
H877 H 0.61934 0.08825 0.67873 0.0
H878 H 0.64073 0.09994 0.65657 0.0
H879 H 0.63652 0.13152 0.63456 0.0
H880 H 0.61517 0.11995 0.65736 0.0
H881 H 0.6591 0.13821 0.66545 0.0
H882 H 0.6333 0.1125 0.56008 0.0
H883 H 0.61789 0.09292 0.52968 0.0
H884 H 0.64141 0.07771 0.54995 0.0
H885 H 0.65689 0.09716 0.58101 0.0
C886 C 0.70476 0.15993 0.53944 0.0
C887 C 0.71187 0.15416 0.53693 0.0
C888 C 0.69315 0.15389 0.55717 0.0
C889 C 0.68851 0.142 0.57271 0.0
C890 C 0.69551 0.13615 0.5696 0.0
C891 C 0.70711 0.14219 0.55199 0.0
C892 C 0.67628 0.13557 0.59191 0.0
C893 C 0.66735 0.1242 0.5765 0.0
C894 C 0.67331 0.14071 0.62439 0.0
C895 C 0.68257 0.1524 0.64316 0.0
C896 C 0.69374 0.1538 0.65731 0.0
C897 C 0.70248 0.16488 0.67465 0.0
C898 C 0.70012 0.17461 0.67827 0.0
C899 C 0.689 0.17326 0.66466 0.0
C900 C 0.68023 0.1622 0.64725 0.0
C901 C 0.62302 0.09774 0.66973 0.0
C902 C 0.61557 0.10316 0.66936 0.0
C903 C 0.63522 0.10439 0.65698 0.0
C904 C 0.64011 0.11651 0.64326 0.0
C905 C 0.63289 0.12216 0.6449 0.0
C906 C 0.6207 0.11553 0.65783 0.0
C907 C 0.65245 0.123 0.62479 0.0
C908 C 0.66138 0.13439 0.64022 0.0
C909 C 0.65544 0.1179 0.59225 0.0
C910 C 0.6462 0.10624 0.5732 0.0
C911 C 0.63515 0.10495 0.55829 0.0
C912 C 0.62641 0.09388 0.54092 0.0
C913 C 0.62865 0.08407 0.53798 0.0
C914 C 0.63967 0.08532 0.5523 0.0
C915 C 0.64844 0.09636 0.56977 0.0
H916 H 0.62187 0.0755 0.52452 0.0
H917 H 0.7069 0.18318 0.6917 0.0
H918 H 0.47019 0.09503 0.15735 0.0
H919 H 0.46131 0.10656 0.12761 0.0
H920 H 0.49707 0.13941 0.12692 0.0
H921 H 0.50602 0.12793 0.15742 0.0
H922 H 0.47853 0.14427 0.14573 0.0
H923 H 0.48717 0.12312 0.04475 0.0
H924 H 0.48695 0.10532 0.01302 0.0
H925 H 0.44747 0.08637 0.00819 0.0
H926 H 0.44743 0.10398 0.04049 0.0
H927 H 0.45734 0.17291 0.00902 0.0
H928 H 0.46969 0.16445 0.03594 0.0
H929 H 0.43693 0.12887 0.0476 0.0
H930 H 0.42457 0.13722 0.02049 0.0
H931 H 0.45646 0.12722 0.01924 0.0
H932 H 0.44811 0.14797 0.12558 0.0
H933 H 0.44852 0.16595 0.15674 0.0
H934 H 0.48799 0.18604 0.14998 0.0
H935 H 0.48779 0.16822 0.11823 0.0
C936 C 0.47614 0.10475 0.15143 0.0
C937 C 0.48881 0.11057 0.15929 0.0
C938 C 0.47106 0.11131 0.13431 0.0
C939 C 0.4786 0.12375 0.12431 0.0
C940 C 0.49113 0.12978 0.13422 0.0
C941 C 0.49622 0.12323 0.1516 0.0
C942 C 0.47341 0.13016 0.10159 0.0
C943 C 0.47388 0.14068 0.11775 0.0
C944 C 0.46732 0.12541 0.06518 0.0
C945 C 0.4673 0.11485 0.04532 0.0
C946 C 0.47843 0.11513 0.03716 0.0
C947 C 0.47836 0.10508 0.01905 0.0
C948 C 0.4672 0.09471 0.00866 0.0
C949 C 0.4561 0.0944 0.01628 0.0
C950 C 0.45612 0.10442 0.03445 0.0
C951 C 0.45281 0.16325 0.01684 0.0
C952 C 0.44 0.15572 0.0129 0.0
C953 C 0.45986 0.15846 0.03236 0.0
C954 C 0.45418 0.14609 0.0442 0.0
C955 C 0.44147 0.13845 0.03869 0.0
C956 C 0.43442 0.14323 0.02328 0.0
C957 C 0.46129 0.14113 0.06385 0.0
C958 C 0.46123 0.13089 0.047 0.0
C959 C 0.4678 0.14618 0.09947 0.0
C960 C 0.46793 0.15682 0.11914 0.0
C961 C 0.45687 0.15625 0.1305 0.0
C962 C 0.45707 0.16641 0.1483 0.0
C963 C 0.46827 0.17714 0.15522 0.0
C964 C 0.47931 0.17773 0.14452 0.0
C965 C 0.47917 0.1676 0.12665 0.0
H966 H 0.46841 0.18501 0.16895 0.0
H967 H 0.46716 0.08694 0.99464 0.0
H968 H 0.85635 0.28081 0.0768 0.0
H969 H 0.8652 0.30182 0.10168 0.0
H970 H 0.84071 0.30765 0.02693 0.0
H971 H 0.83194 0.28665 0.00134 0.0
H972 H 0.86326 0.32731 0.02593 0.0
H973 H 0.83467 0.3025 0.12387 0.0
H974 H 0.82423 0.28524 0.17063 0.0
H975 H 0.8578 0.29846 0.23622 0.0
H976 H 0.86851 0.31572 0.18946 0.0
H977 H 0.87448 0.38141 0.13111 0.0
H978 H 0.8633 0.36013 0.10727 0.0
H979 H 0.89116 0.35357 0.157 0.0
H980 H 0.90252 0.37492 0.1804 0.0
H981 H 0.86527 0.33437 0.17074 0.0
H982 H 0.89352 0.35915 0.06608 0.0
H983 H 0.90228 0.37664 0.01964 0.0
H984 H 0.86669 0.3634 0.96718 0.0
H985 H 0.85768 0.34591 0.01375 0.0
C986 C 0.85289 0.28658 0.06552 0.0
C987 C 0.84343 0.28209 0.0373 0.0
C988 C 0.85791 0.29856 0.07989 0.0
C989 C 0.85346 0.30621 0.06662 0.0
C990 C 0.84423 0.30186 0.03765 0.0
C991 C 0.83923 0.28988 0.02313 0.0
C992 C 0.85845 0.31872 0.08331 0.0
C993 C 0.86353 0.32884 0.05755 0.0
C994 C 0.8588 0.3207 0.12459 0.0
C995 C 0.85242 0.31035 0.15291 0.0
C996 C 0.83986 0.30167 0.14807 0.0
C997 C 0.83388 0.2919 0.17461 0.0
C998 C 0.84035 0.29074 0.20633 0.0
C999 C 0.85281 0.29937 0.21161 0.0
C1000 C 0.85883 0.30916 0.18511 0.0
C1001 C 0.87815 0.37539 0.13733 0.0
C1002 C 0.88937 0.37978 0.15746 0.0
C1003 C 0.87178 0.36328 0.12364 0.0
C1004 C 0.87647 0.35537 0.1303 0.0
C1005 C 0.88743 0.35959 0.15168 0.0
C1006 C 0.8939 0.37175 0.16487 0.0
C1007 C 0.87026 0.34287 0.1134 0.0
C1008 C 0.86493 0.33278 0.13914 0.0
C1009 C 0.86944 0.34091 0.07212 0.0
C1010 C 0.8749 0.3513 0.04367 0.0
C1011 C 0.88754 0.36002 0.04485 0.0
C1012 C 0.89256 0.36992 0.01847 0.0
C1013 C 0.88504 0.37115 0.99056 0.0
C1014 C 0.8725 0.36245 0.98886 0.0
C1015 C 0.86743 0.35253 0.01521 0.0
H1016 H 0.88893 0.37884 0.97019 0.0
H1017 H 0.83571 0.28316 0.22686 0.0
H1018 H 0.60723 0.51787 0.07228 0.0
H1019 H 0.62803 0.52951 0.04435 0.0
H1020 H 0.64313 0.52424 0.15214 0.0
H1021 H 0.62239 0.51243 0.17996 0.0
H1022 H 0.65543 0.54922 0.12046 0.0
H1023 H 0.64036 0.5067 0.08079 0.0
H1024 H 0.62533 0.48726 0.04869 0.0
H1025 H 0.63096 0.50615 0.93818 0.0
H1026 H 0.64591 0.52575 0.96981 0.0
H1027 H 0.71489 0.56135 0.08311 0.0
H1028 H 0.69313 0.55167 0.09995 0.0
H1029 H 0.68428 0.55356 0.97792 0.0
H1030 H 0.70617 0.56306 0.96061 0.0
H1031 H 0.66794 0.53195 0.00955 0.0
H1032 H 0.68436 0.57382 0.04456 0.0
H1033 H 0.69886 0.59386 0.07445 0.0
H1034 H 0.69015 0.57752 0.18992 0.0
H1035 H 0.67573 0.55733 0.16068 0.0
C1036 C 0.61501 0.51927 0.09005 0.0
C1037 C 0.61324 0.51425 0.12823 0.0
C1038 C 0.62684 0.52587 0.07405 0.0
C1039 C 0.63705 0.52767 0.09623 0.0
C1040 C 0.63533 0.52293 0.13468 0.0
C1041 C 0.6235 0.51617 0.15044 0.0
C1042 C 0.64956 0.53426 0.07927 0.0
C1043 C 0.65823 0.54544 0.09639 0.0
C1044 C 0.65297 0.52951 0.04687 0.0
C1045 C 0.64414 0.5177 0.02776 0.0
C1046 C 0.63832 0.50672 0.04972 0.0
C1047 C 0.62983 0.49568 0.0316 0.0
C1048 C 0.62716 0.49548 0.99145 0.0
C1049 C 0.63302 0.50632 0.9693 0.0
C1050 C 0.6415 0.5174 0.9873 0.0
C1051 C 0.70832 0.55968 0.05979 0.0
C1052 C 0.71221 0.56303 0.02059 0.0
C1053 C 0.69589 0.55421 0.06949 0.0
C1054 C 0.68711 0.55214 0.04033 0.0
C1055 C 0.69092 0.55516 0.00091 0.0
C1056 C 0.7034 0.56058 0.99108 0.0
C1057 C 0.674 0.5468 0.05152 0.0
C1058 C 0.66517 0.53587 0.03327 0.0
C1059 C 0.67038 0.5519 0.08253 0.0
C1060 C 0.67902 0.56403 0.10037 0.0
C1061 C 0.6856 0.57447 0.0763 0.0
C1062 C 0.69379 0.58586 0.09314 0.0
C1063 C 0.69544 0.58696 0.13406 0.0
C1064 C 0.68887 0.57666 0.15823 0.0
C1065 C 0.68067 0.56524 0.14154 0.0
H1066 H 0.70179 0.59578 0.14703 0.0
H1067 H 0.62057 0.48692 0.97748 0.0
H1068 H 0.49197 0.86912 0.85065 0.0
H1069 H 0.50255 0.85886 0.87839 0.0
H1070 H 0.53584 0.89398 0.89018 0.0
H1071 H 0.52536 0.90429 0.86247 0.0
H1072 H 0.53998 0.87596 0.85965 0.0
H1073 H 0.51831 0.8812 0.96885 0.0
H1074 H 0.50001 0.87903 0.00332 0.0
H1075 H 0.48276 0.83967 0.9958 0.0
H1076 H 0.5009 0.84161 0.96074 0.0
H1077 H 0.57476 0.86188 0.98855 0.0
H1078 H 0.56282 0.87071 0.96168 0.0
H1079 H 0.53021 0.83476 0.96149 0.0
H1080 H 0.54208 0.82588 0.98936 0.0
H1081 H 0.52492 0.85213 0.98423 0.0
H1082 H 0.54662 0.84663 0.87713 0.0
H1083 H 0.56474 0.84857 0.84208 0.0
H1084 H 0.58161 0.88796 0.8442 0.0
H1085 H 0.56366 0.88626 0.87979 0.0
C1086 C 0.50157 0.87463 0.85888 0.0
C1087 C 0.50785 0.88749 0.85455 0.0
C1088 C 0.50757 0.86877 0.87486 0.0
C1089 C 0.51992 0.8757 0.88667 0.0
C1090 C 0.5263 0.8885 0.88129 0.0
C1091 C 0.52029 0.89436 0.86554 0.0
C1092 C 0.5262 0.86967 0.90528 0.0
C1093 C 0.53677 0.87085 0.88709 0.0
C1094 C 0.52178 0.86274 0.94051 0.0
C1095 C 0.51091 0.86156 0.9618 0.0
C1096 C 0.51057 0.87208 0.97426 0.0
C1097 C 0.50024 0.8709 0.99395 0.0
C1098 C 0.49021 0.85922 0.00164 0.0
C1099 C 0.49052 0.84871 0.98976 0.0
C1100 C 0.50083 0.84985 0.97 0.0
C1101 C 0.56502 0.85587 0.98318 0.0
C1102 C 0.55936 0.84318 0.99071 0.0
C1103 C 0.55822 0.86092 0.96766 0.0
C1104 C 0.54569 0.85334 0.9588 0.0
C1105 C 0.53989 0.84075 0.96791 0.0
C1106 C 0.54667 0.8357 0.98378 0.0
C1107 C 0.53881 0.85854 0.93883 0.0
C1108 C 0.5281 0.85718 0.95669 0.0
C1109 C 0.54306 0.86526 0.90313 0.0
C1110 C 0.55383 0.86632 0.88143 0.0
C1111 C 0.55423 0.85571 0.87036 0.0
C1112 C 0.56446 0.85677 0.85037 0.0
C1113 C 0.57433 0.86838 0.841 0.0
C1114 C 0.57397 0.87897 0.85151 0.0
C1115 C 0.56376 0.87797 0.87157 0.0
H1116 H 0.58225 0.86918 0.82552 0.0
H1117 H 0.48222 0.85832 0.01689 0.0
H1118 H 0.09075 0.61841 0.86243 0.0
H1119 H 0.10224 0.63937 0.88805 0.0
H1120 H 0.13641 0.64014 0.86438 0.0
H1121 H 0.12492 0.61903 0.83883 0.0
H1122 H 0.13571 0.64856 0.93881 0.0
H1123 H 0.12796 0.65609 0.80628 0.0
H1124 H 0.11538 0.6534 0.74717 0.0
H1125 H 0.09376 0.66516 0.81261 0.0
H1126 H 0.1061 0.66776 0.8723 0.0
H1127 H 0.17268 0.71344 0.97248 0.0
H1128 H 0.16289 0.6925 0.94603 0.0
H1129 H 0.1272 0.68928 0.95987 0.0
H1130 H 0.13694 0.71027 0.98568 0.0
H1131 H 0.12981 0.68234 0.8878 0.0
H1132 H 0.13681 0.67396 0.02084 0.0
H1133 H 0.14908 0.67644 0.08056 0.0
H1134 H 0.17186 0.66617 0.01492 0.0
H1135 H 0.15981 0.66379 0.95463 0.0
C1136 C 0.10071 0.62307 0.86237 0.0
C1137 C 0.10695 0.61711 0.84856 0.0
C1138 C 0.10726 0.63505 0.87693 0.0
C1139 C 0.12017 0.64133 0.8778 0.0
C1140 C 0.12645 0.63544 0.86387 0.0
C1141 C 0.11989 0.62343 0.84915 0.0
C1142 C 0.12702 0.65392 0.89434 0.0
C1143 C 0.13461 0.65603 0.92728 0.0
C1144 C 0.12532 0.66353 0.87977 0.0
C1145 C 0.1179 0.66202 0.84387 0.0
C1146 C 0.12046 0.65801 0.80816 0.0
C1147 C 0.11338 0.65652 0.77453 0.0
C1148 C 0.10376 0.65908 0.77615 0.0
C1149 C 0.10121 0.66317 0.8114 0.0
C1150 C 0.10826 0.66467 0.84513 0.0
C1151 C 0.16274 0.7082 0.97036 0.0
C1152 C 0.15556 0.71348 0.98105 0.0
C1153 C 0.15716 0.69624 0.95533 0.0
C1154 C 0.14432 0.68932 0.95111 0.0
C1155 C 0.13713 0.69448 0.96277 0.0
C1156 C 0.1427 0.70644 0.97766 0.0
C1157 C 0.13838 0.67696 0.93268 0.0
C1158 C 0.13098 0.6749 0.89927 0.0
C1159 C 0.14023 0.6674 0.94691 0.0
C1160 C 0.14749 0.66883 0.98312 0.0
C1161 C 0.1445 0.67234 0.01905 0.0
C1162 C 0.1514 0.6737 0.05302 0.0
C1163 C 0.16127 0.6715 0.05151 0.0
C1164 C 0.16423 0.66789 0.01603 0.0
C1165 C 0.15736 0.66652 0.98196 0.0
H1166 H 0.1666 0.67255 0.07784 0.0
H1167 H 0.09829 0.65793 0.75008 0.0
H1168 H 0.27659 0.42576 0.90057 0.0
H1169 H 0.29746 0.43681 0.87395 0.0
H1170 H 0.31074 0.45594 0.98488 0.0
H1171 H 0.28973 0.44526 0.01108 0.0
H1172 H 0.32093 0.47137 0.92711 0.0
H1173 H 0.31469 0.4311 0.95588 0.0
H1174 H 0.30403 0.40843 0.95282 0.0
H1175 H 0.3086 0.41002 0.82686 0.0
H1176 H 0.31915 0.43271 0.82912 0.0
H1177 H 0.38395 0.49024 0.91347 0.0
H1178 H 0.36215 0.47977 0.93047 0.0
H1179 H 0.35265 0.46799 0.80954 0.0
H1180 H 0.37461 0.47856 0.79209 0.0
H1181 H 0.34021 0.44912 0.86633 0.0
H1182 H 0.34819 0.49002 0.84032 0.0
H1183 H 0.35948 0.51265 0.84623 0.0
H1184 H 0.35229 0.50969 0.97092 0.0
H1185 H 0.3411 0.48704 0.96587 0.0
C1186 C 0.28397 0.4323 0.91931 0.0
C1187 C 0.28158 0.43462 0.95795 0.0
C1188 C 0.2959 0.43857 0.90412 0.0
C1189 C 0.30571 0.44706 0.92761 0.0
C1190 C 0.30331 0.44942 0.96622 0.0
C1191 C 0.29134 0.44329 0.98122 0.0
C1192 C 0.31844 0.45358 0.91185 0.0
C1193 C 0.32517 0.46648 0.91423 0.0
C1194 C 0.32389 0.44724 0.89403 0.0
C1195 C 0.31759 0.4336 0.89263 0.0
C1196 C 0.31334 0.42661 0.9275 0.0
C1197 C 0.30733 0.41376 0.92592 0.0
C1198 C 0.30561 0.40779 0.88966 0.0
C1199 C 0.30992 0.41466 0.85492 0.0
C1200 C 0.31592 0.42752 0.85633 0.0
C1201 C 0.37723 0.48545 0.8904 0.0
C1202 C 0.38096 0.48521 0.85142 0.0
C1203 C 0.36479 0.47953 0.90016 0.0
C1204 C 0.35583 0.47323 0.87117 0.0
C1205 C 0.35947 0.47286 0.83223 0.0
C1206 C 0.37198 0.4789 0.82232 0.0
C1207 C 0.34267 0.46682 0.88221 0.0
C1208 C 0.33588 0.45397 0.87892 0.0
C1209 C 0.33722 0.47319 0.89964 0.0
C1210 C 0.34388 0.48682 0.90274 0.0
C1211 C 0.34909 0.49419 0.86905 0.0
C1212 C 0.35546 0.50702 0.87224 0.0
C1213 C 0.35662 0.5126 0.90894 0.0
C1214 C 0.35138 0.50536 0.94252 0.0
C1215 C 0.34501 0.49252 0.93949 0.0
H1216 H 0.36155 0.52254 0.91135 0.0
H1217 H 0.30096 0.39784 0.88849 0.0
H1218 H 0.12366 0.5056 0.34761 0.0
H1219 H 0.13473 0.49559 0.37312 0.0
H1220 H 0.10166 0.46018 0.36334 0.0
H1221 H 0.09053 0.47012 0.33829 0.0
H1222 H 0.11214 0.46343 0.43508 0.0
H1223 H 0.12539 0.46852 0.29963 0.0
H1224 H 0.13454 0.48006 0.23817 0.0
H1225 H 0.16871 0.50275 0.29842 0.0
H1226 H 0.15971 0.49144 0.36041 0.0
H1227 H 0.13608 0.42366 0.46386 0.0
H1228 H 0.12643 0.43496 0.43794 0.0
H1229 H 0.16089 0.46906 0.44897 0.0
H1230 H 0.17068 0.45775 0.4743 0.0
H1231 H 0.15043 0.46742 0.37838 0.0
H1232 H 0.13743 0.46201 0.51335 0.0
H1233 H 0.12836 0.45048 0.57487 0.0
H1234 H 0.09377 0.42855 0.51592 0.0
H1235 H 0.10269 0.43984 0.45387 0.0
C1236 C 0.1188 0.49567 0.35045 0.0
C1237 C 0.10623 0.48863 0.34108 0.0
C1238 C 0.12514 0.48997 0.36494 0.0
C1239 C 0.11901 0.47715 0.37002 0.0
C1240 C 0.10654 0.47009 0.35974 0.0
C1241 C 0.10021 0.47578 0.3453 0.0
C1242 C 0.12539 0.4711 0.38789 0.0
C1243 C 0.12043 0.46417 0.42241 0.0
C1244 C 0.13641 0.47241 0.37201 0.0
C1245 C 0.14183 0.47922 0.33476 0.0
C1246 C 0.13482 0.47604 0.29986 0.0
C1247 C 0.13999 0.48252 0.26491 0.0
C1248 C 0.15218 0.49215 0.26441 0.0
C1249 C 0.15926 0.4953 0.29886 0.0
C1250 C 0.15413 0.48885 0.3339 0.0
C1251 C 0.14158 0.43358 0.46108 0.0
C1252 C 0.15412 0.43984 0.47117 0.0
C1253 C 0.13605 0.44002 0.44637 0.0
C1254 C 0.14292 0.45286 0.4419 0.0
C1255 C 0.15543 0.45915 0.45225 0.0
C1256 C 0.16098 0.4527 0.46685 0.0
C1257 C 0.1371 0.45963 0.42532 0.0
C1258 C 0.14217 0.46672 0.39113 0.0
C1259 C 0.12618 0.45849 0.44154 0.0
C1260 C 0.12077 0.45171 0.47887 0.0
C1261 C 0.12792 0.45467 0.51342 0.0
C1262 C 0.1228 0.44819 0.54841 0.0
C1263 C 0.1105 0.43877 0.54928 0.0
C1264 C 0.1033 0.43584 0.51519 0.0
C1265 C 0.10838 0.44229 0.48012 0.0
H1266 H 0.10656 0.43376 0.5764 0.0
H1267 H 0.15617 0.49716 0.23732 0.0
H1268 H 0.49721 0.62175 0.33404 0.0
H1269 H 0.50675 0.64229 0.36338 0.0
H1270 H 0.53459 0.6364 0.41695 0.0
H1271 H 0.52502 0.61577 0.38793 0.0
H1272 H 0.52488 0.64571 0.46926 0.0
H1273 H 0.54164 0.65496 0.33835 0.0
H1274 H 0.54099 0.65449 0.26556 0.0
H1275 H 0.51933 0.67229 0.26613 0.0
H1276 H 0.5197 0.67271 0.339 0.0
H1277 H 0.56827 0.7078 0.51887 0.0
H1278 H 0.5573 0.68676 0.49331 0.0
H1279 H 0.52949 0.69342 0.44366 0.0
H1280 H 0.54043 0.71452 0.46914 0.0
H1281 H 0.53863 0.68364 0.38994 0.0
H1282 H 0.52252 0.67494 0.52144 0.0
H1283 H 0.52345 0.67549 0.59419 0.0
H1284 H 0.54425 0.65679 0.59255 0.0
H1285 H 0.5436 0.65628 0.51972 0.0
C1286 C 0.50542 0.62487 0.35181 0.0
C1287 C 0.5104 0.61719 0.35867 0.0
C1288 C 0.51087 0.6366 0.36848 0.0
C1289 C 0.52141 0.64087 0.39214 0.0
C1290 C 0.52645 0.63325 0.3988 0.0
C1291 C 0.52102 0.62151 0.38206 0.0
C1292 C 0.52701 0.65319 0.41063 0.0
C1293 C 0.52804 0.65403 0.45193 0.0
C1294 C 0.53082 0.66398 0.38797 0.0
C1295 C 0.53059 0.66375 0.34415 0.0
C1296 C 0.53664 0.65868 0.32297 0.0
C1297 C 0.53635 0.65844 0.28169 0.0
C1298 C 0.53009 0.66333 0.26123 0.0
C1299 C 0.52415 0.66849 0.28202 0.0
C1300 C 0.52441 0.66874 0.32331 0.0
C1301 C 0.55973 0.70473 0.50298 0.0
C1302 C 0.5552 0.71278 0.49591 0.0
C1303 C 0.55346 0.6927 0.4885 0.0
C1304 C 0.54257 0.68855 0.46673 0.0
C1305 C 0.53788 0.69648 0.46042 0.0
C1306 C 0.54411 0.70849 0.47511 0.0
C1307 C 0.53652 0.67617 0.44857 0.0
C1308 C 0.53542 0.67532 0.4073 0.0
C1309 C 0.53269 0.66539 0.47126 0.0
C1310 C 0.53311 0.66568 0.51508 0.0
C1311 C 0.52739 0.67105 0.53656 0.0
C1312 C 0.52785 0.67133 0.57783 0.0
C1313 C 0.53393 0.66621 0.59798 0.0
C1314 C 0.53955 0.66076 0.5769 0.0
C1315 C 0.53913 0.66047 0.53562 0.0
H1316 H 0.53428 0.66643 0.62993 0.0
H1317 H 0.52988 0.66314 0.22927 0.0
H1318 H 0.38298 0.88275 0.39346 0.0
H1319 H 0.36149 0.87194 0.41441 0.0
H1320 H 0.35305 0.89169 0.32701 0.0
H1321 H 0.37469 0.90289 0.30694 0.0
H1322 H 0.34326 0.89208 0.39421 0.0
H1323 H 0.34377 0.86027 0.31745 0.0
H1324 H 0.35132 0.84641 0.29625 0.0
H1325 H 0.3445 0.83045 0.4122 0.0
H1326 H 0.33705 0.84433 0.43426 0.0
H1327 H 0.27857 0.85626 0.42243 0.0
H1328 H 0.29927 0.86611 0.39426 0.0
H1329 H 0.31017 0.84845 0.48198 0.0
H1330 H 0.28935 0.83828 0.50959 0.0
H1331 H 0.31824 0.8468 0.41109 0.0
H1332 H 0.3186 0.8794 0.48805 0.0
H1333 H 0.31099 0.89327 0.50864 0.0
H1334 H 0.31608 0.90766 0.39077 0.0
H1335 H 0.32358 0.89376 0.36936 0.0
C1336 C 0.37651 0.88469 0.37841 0.0
C1337 C 0.38048 0.89365 0.34856 0.0
C1338 C 0.36421 0.87845 0.39028 0.0
C1339 C 0.3556 0.88087 0.37194 0.0
C1340 C 0.35952 0.88966 0.34156 0.0
C1341 C 0.37187 0.89602 0.33003 0.0
C1342 C 0.34267 0.87475 0.38602 0.0
C1343 C 0.33772 0.88216 0.39722 0.0
C1344 C 0.33553 0.86182 0.39084 0.0
C1345 C 0.33994 0.85341 0.37758 0.0
C1346 C 0.34396 0.85387 0.3385 0.0
C1347 C 0.34821 0.846 0.32632 0.0
C1348 C 0.34842 0.83758 0.35288 0.0
C1349 C 0.34434 0.83699 0.39166 0.0
C1350 C 0.34009 0.84484 0.404 0.0
C1351 C 0.2854 0.85453 0.43584 0.0
C1352 C 0.28239 0.84656 0.4683 0.0
C1353 C 0.29723 0.86019 0.41977 0.0
C1354 C 0.30631 0.85813 0.43631 0.0
C1355 C 0.3033 0.85016 0.46877 0.0
C1356 C 0.29143 0.84441 0.48461 0.0
C1357 C 0.31891 0.86415 0.41951 0.0
C1358 C 0.32378 0.85671 0.40781 0.0
C1359 C 0.32597 0.87704 0.4141 0.0
C1360 C 0.32154 0.88546 0.42704 0.0
C1361 C 0.31802 0.88546 0.46647 0.0
C1362 C 0.31374 0.89334 0.47829 0.0
C1363 C 0.31302 0.90132 0.45101 0.0
C1364 C 0.31662 0.90146 0.41186 0.0
C1365 C 0.3209 0.8936 0.39988 0.0
H1366 H 0.3097 0.9074 0.46022 0.0
H1367 H 0.35171 0.8315 0.34339 0.0
H1368 H 0.10969 0.26205 0.76429 0.0
H1369 H 0.11913 0.26 0.82477 0.0
H1370 H 0.1063 0.2219 0.79715 0.0
H1371 H 0.09674 0.22386 0.73655 0.0
H1372 H 0.10175 0.22494 0.87379 0.0
H1373 H 0.13608 0.24242 0.78661 0.0
H1374 H 0.15046 0.25699 0.73736 0.0
H1375 H 0.16146 0.28679 0.81943 0.0
H1376 H 0.147 0.27242 0.869 0.0
H1377 H 0.13942 0.22177 0.03005 0.0
H1378 H 0.13028 0.22068 0.96494 0.0
H1379 H 0.13796 0.25807 0.97843 0.0
H1380 H 0.14694 0.25919 0.04332 0.0
H1381 H 0.14569 0.25343 0.90581 0.0
H1382 H 0.10981 0.23594 0.99023 0.0
H1383 H 0.09539 0.22125 0.03918 0.0
H1384 H 0.08757 0.19115 0.96143 0.0
H1385 H 0.10208 0.20567 0.91221 0.0
C1386 C 0.10894 0.25326 0.77098 0.0
C1387 C 0.10251 0.24313 0.74571 0.0
C1388 C 0.11437 0.25211 0.80545 0.0
C1389 C 0.11351 0.24083 0.8152 0.0
C1390 C 0.10708 0.23068 0.79006 0.0
C1391 C 0.10167 0.23184 0.75545 0.0
C1392 C 0.11908 0.23963 0.85227 0.0
C1393 C 0.11142 0.231 0.88051 0.0
C1394 C 0.13165 0.24765 0.86114 0.0
C1395 C 0.14037 0.25635 0.83142 0.0
C1396 C 0.14149 0.25209 0.79406 0.0
C1397 C 0.14967 0.26031 0.7661 0.0
C1398 C 0.15685 0.27281 0.77523 0.0
C1399 C 0.15588 0.27711 0.81238 0.0
C1400 C 0.14771 0.26893 0.84044 0.0
C1401 C 0.13907 0.22971 0.01916 0.0
C1402 C 0.14385 0.24055 0.0417 0.0
C1403 C 0.13386 0.22907 0.98209 0.0
C1404 C 0.13347 0.2393 0.96703 0.0
C1405 C 0.13821 0.2501 0.98957 0.0
C1406 C 0.14328 0.25069 0.02669 0.0
C1407 C 0.12831 0.23893 0.92751 0.0
C1408 C 0.13607 0.24727 0.89881 0.0
C1409 C 0.11586 0.23061 0.9182 0.0
C1410 C 0.10715 0.22188 0.94777 0.0
C1411 C 0.10511 0.22618 0.98374 0.0
C1412 C 0.0969 0.21789 0.01149 0.0
C1413 C 0.0906 0.20527 0.00348 0.0
C1414 C 0.09247 0.20092 0.96763 0.0
C1415 C 0.10069 0.20918 0.93979 0.0
H1416 H 0.08424 0.19886 0.02499 0.0
H1417 H 0.16318 0.27916 0.75355 0.0
H1418 H 0.77486 0.92573 0.00692 0.0
H1419 H 0.77767 0.9185 0.94265 0.0
H1420 H 0.77024 0.88417 0.99573 0.0
H1421 H 0.76778 0.89145 0.05996 0.0
H1422 H 0.78704 0.89051 0.93913 0.0
H1423 H 0.74728 0.88742 0.95365 0.0
H1424 H 0.73337 0.89559 0.96663 0.0
H1425 H 0.74855 0.92006 0.86759 0.0
H1426 H 0.76272 0.91217 0.85447 0.0
H1427 H 0.7567 0.84562 0.79011 0.0
H1428 H 0.76217 0.85856 0.84915 0.0
H1429 H 0.77316 0.89058 0.77614 0.0
H1430 H 0.76778 0.8777 0.71685 0.0
H1431 H 0.75722 0.88807 0.83816 0.0
H1432 H 0.79491 0.88785 0.81894 0.0
H1433 H 0.80771 0.87832 0.8074 0.0
H1434 H 0.79495 0.85828 0.91623 0.0
H1435 H 0.78194 0.86757 0.92821 0.0
C1436 C 0.7741 0.91675 0.00496 0.0
C1437 C 0.77094 0.90908 0.03825 0.0
C1438 C 0.77567 0.91262 0.96827 0.0
C1439 C 0.77392 0.9007 0.96433 0.0
C1440 C 0.7716 0.89338 0.99808 0.0
C1441 C 0.77014 0.89754 0.03474 0.0
C1442 C 0.77321 0.89529 0.92488 0.0
C1443 C 0.78052 0.88996 0.91705 0.0
C1444 C 0.76479 0.89471 0.8959 0.0
C1445 C 0.75616 0.89933 0.90339 0.0
C1446 C 0.7477 0.8946 0.93481 0.0
C1447 C 0.73976 0.89917 0.94217 0.0
C1448 C 0.74009 0.90836 0.91801 0.0
C1449 C 0.74833 0.91296 0.88633 0.0
C1450 C 0.75632 0.90845 0.87893 0.0
C1451 C 0.76032 0.85542 0.78665 0.0
C1452 C 0.7618 0.86067 0.74899 0.0
C1453 C 0.76351 0.8628 0.82033 0.0
C1454 C 0.76817 0.87552 0.81685 0.0
C1455 C 0.76963 0.88078 0.7793 0.0
C1456 C 0.76656 0.87342 0.74556 0.0
C1457 C 0.77093 0.88317 0.85266 0.0
C1458 C 0.76394 0.88886 0.85987 0.0
C1459 C 0.77948 0.88389 0.88123 0.0
C1460 C 0.78739 0.87836 0.87435 0.0
C1461 C 0.79477 0.88135 0.8403 0.0
C1462 C 0.80207 0.876 0.8337 0.0
C1463 C 0.80214 0.8677 0.86106 0.0
C1464 C 0.7949 0.86473 0.8951 0.0
C1465 C 0.78757 0.87005 0.90183 0.0
H1466 H 0.80781 0.86358 0.85591 0.0
H1467 H 0.73397 0.91192 0.92378 0.0
H1468 H 0.07753 0.85736 0.03362 0.0
H1469 H 0.08354 0.86782 0.96958 0.0
H1470 H 0.12151 0.87909 0.99411 0.0
H1471 H 0.11562 0.86916 0.05857 0.0
H1472 H 0.12093 0.89656 0.95659 0.0
H1473 H 0.10162 0.85251 0.93849 0.0
H1474 H 0.08478 0.83097 0.9439 0.0
H1475 H 0.06103 0.8397 0.87721 0.0
H1476 H 0.0777 0.86134 0.87183 0.0
H1477 H 0.14751 0.8946 0.77632 0.0
H1478 H 0.13642 0.88802 0.83888 0.0
H1479 H 0.10868 0.89552 0.79392 0.0
H1480 H 0.11994 0.90245 0.73098 0.0
H1481 H 0.10132 0.87051 0.83862 0.0
H1482 H 0.12392 0.91487 0.84909 0.0
H1483 H 0.14256 0.93524 0.84182 0.0
H1484 H 0.16199 0.92453 0.92224 0.0
H1485 H 0.14352 0.90401 0.92946 0.0
C1486 C 0.08718 0.86225 0.02551 0.0
C1487 C 0.09611 0.86238 0.05085 0.0
C1488 C 0.09059 0.86817 0.98887 0.0
C1489 C 0.10295 0.87403 0.97664 0.0
C1490 C 0.11192 0.87463 0.0028 0.0
C1491 C 0.10854 0.86891 0.03963 0.0
C1492 C 0.10658 0.8789 0.93589 0.0
C1493 C 0.11659 0.89086 0.93086 0.0
C1494 C 0.10084 0.87155 0.90211 0.0
C1495 C 0.09084 0.85856 0.9052 0.0
C1496 C 0.09277 0.84984 0.92522 0.0
C1497 C 0.08327 0.83762 0.92825 0.0
C1498 C 0.07183 0.83398 0.91103 0.0
C1499 C 0.06988 0.84254 0.89062 0.0
C1500 C 0.07935 0.85479 0.88757 0.0
C1501 C 0.13899 0.89476 0.77951 0.0
C1502 C 0.13459 0.89906 0.74883 0.0
C1503 C 0.13271 0.89103 0.81528 0.0
C1504 C 0.12182 0.89138 0.82087 0.0
C1505 C 0.11711 0.89523 0.78995 0.0
C1506 C 0.12353 0.89918 0.75418 0.0
C1507 C 0.11573 0.88799 0.85977 0.0
C1508 C 0.10535 0.8763 0.8644 0.0
C1509 C 0.1213 0.89546 0.89323 0.0
C1510 C 0.13235 0.90788 0.8896 0.0
C1511 C 0.13219 0.91683 0.865 0.0
C1512 C 0.14272 0.92841 0.86092 0.0
C1513 C 0.15346 0.93117 0.8815 0.0
C1514 C 0.15367 0.92237 0.90631 0.0
C1515 C 0.14316 0.91077 0.91044 0.0
H1516 H 0.16161 0.94013 0.87827 0.0
H1517 H 0.06448 0.82451 0.91339 0.0
H1518 H 0.24548 0.11844 0.76586 0.0
H1519 H 0.24166 0.12608 0.70392 0.0
H1520 H 0.21557 0.08889 0.66907 0.0
H1521 H 0.21913 0.08119 0.73133 0.0
H1522 H 0.23544 0.10317 0.61408 0.0
H1523 H 0.20407 0.10554 0.68754 0.0
H1524 H 0.1956 0.11138 0.74384 0.0
H1525 H 0.22085 0.14961 0.72094 0.0
H1526 H 0.22961 0.14399 0.66483 0.0
H1527 H 0.22415 0.12269 0.43211 0.0
H1528 H 0.21997 0.11238 0.49625 0.0
H1529 H 0.23883 0.1477 0.55452 0.0
H1530 H 0.24258 0.15803 0.49061 0.0
H1531 H 0.22003 0.13244 0.59755 0.0
H1532 H 0.25333 0.13092 0.53238 0.0
H1533 H 0.26343 0.12618 0.47813 0.0
H1534 H 0.23663 0.08775 0.48792 0.0
H1535 H 0.22627 0.09229 0.54191 0.0
C1536 C 0.23878 0.11192 0.74526 0.0
C1537 C 0.23262 0.09924 0.75325 0.0
C1538 C 0.23658 0.11629 0.71004 0.0
C1539 C 0.22831 0.10803 0.68214 0.0
C1540 C 0.22194 0.09538 0.69042 0.0
C1541 C 0.22397 0.09102 0.72595 0.0
C1542 C 0.22719 0.11255 0.64299 0.0
C1543 C 0.23183 0.10936 0.61021 0.0
C1544 C 0.22283 0.12091 0.63848 0.0
C1545 C 0.21757 0.12433 0.67217 0.0
C1546 C 0.2079 0.11519 0.69471 0.0
C1547 C 0.20303 0.11846 0.72655 0.0
C1548 C 0.2077 0.13086 0.73602 0.0
C1549 C 0.21725 0.14001 0.7136 0.0
C1550 C 0.22216 0.13678 0.68174 0.0
C1551 C 0.22725 0.12824 0.45868 0.0
C1552 C 0.2338 0.14114 0.45646 0.0
C1553 C 0.2249 0.12235 0.49527 0.0
C1554 C 0.22932 0.12927 0.53014 0.0
C1555 C 0.23536 0.14217 0.52803 0.0
C1556 C 0.23753 0.14806 0.49149 0.0
C1557 C 0.2284 0.12316 0.5685 0.0
C1558 C 0.22346 0.12609 0.6012 0.0
C1559 C 0.23271 0.11472 0.57318 0.0
C1560 C 0.23895 0.11196 0.54084 0.0
C1561 C 0.24954 0.12147 0.52276 0.0
C1562 C 0.25532 0.11882 0.49209 0.0
C1563 C 0.25065 0.10668 0.4795 0.0
C1564 C 0.24022 0.09716 0.49764 0.0
C1565 C 0.23439 0.09976 0.52828 0.0
H1566 H 0.25514 0.10464 0.45576 0.0
H1567 H 0.20392 0.13337 0.76067 0.0
H1568 H 0.85987 0.11706 0.43521 0.0
H1569 H 0.87093 0.12414 0.49747 0.0
H1570 H 0.8641 0.08745 0.52176 0.0
H1571 H 0.85246 0.08018 0.45987 0.0
H1572 H 0.86049 0.09646 0.58547 0.0
H1573 H 0.89341 0.11154 0.4939 0.0
H1574 H 0.9052 0.12187 0.43387 0.0
H1575 H 0.90886 0.15609 0.47325 0.0
H1576 H 0.89695 0.14594 0.53327 0.0
H1577 H 0.90052 0.1249 0.75393 0.0
H1578 H 0.89265 0.11363 0.69157 0.0
H1579 H 0.88929 0.14379 0.64464 0.0
H1580 H 0.89711 0.15505 0.70639 0.0
H1581 H 0.90054 0.13539 0.59276 0.0
H1582 H 0.86446 0.11836 0.6795 0.0
H1583 H 0.853 0.10755 0.73955 0.0
H1584 H 0.85648 0.07622 0.70869 0.0
H1585 H 0.86808 0.08692 0.64868 0.0
C1586 C 0.86078 0.11051 0.45369 0.0
C1587 C 0.85537 0.0981 0.44269 0.0
C1588 C 0.86719 0.11458 0.48918 0.0
C1589 C 0.86862 0.1064 0.51393 0.0
C1590 C 0.86319 0.09395 0.50302 0.0
C1591 C 0.85657 0.08982 0.46771 0.0
C1592 C 0.87533 0.11085 0.55189 0.0
C1593 C 0.86939 0.10482 0.58695 0.0
C1594 C 0.88695 0.12176 0.55399 0.0
C1595 C 0.89423 0.12795 0.51805 0.0
C1596 C 0.89667 0.12126 0.48967 0.0
C1597 C 0.90338 0.12708 0.45565 0.0
C1598 C 0.90776 0.13962 0.44973 0.0
C1599 C 0.90546 0.14637 0.47788 0.0
C1600 C 0.89875 0.14059 0.51195 0.0
C1601 C 0.89809 0.1291 0.73026 0.0
C1602 C 0.8994 0.14083 0.73497 0.0
C1603 C 0.8936 0.12266 0.69476 0.0
C1604 C 0.89039 0.1279 0.66361 0.0
C1605 C 0.89177 0.13963 0.6683 0.0
C1606 C 0.89619 0.14602 0.70366 0.0
C1607 C 0.88545 0.12127 0.62595 0.0
C1608 C 0.89178 0.12688 0.59102 0.0
C1609 C 0.8743 0.10991 0.624 0.0
C1610 C 0.86725 0.10349 0.6599 0.0
C1611 C 0.86286 0.1092 0.6857 0.0
C1612 C 0.85632 0.10309 0.71969 0.0
C1613 C 0.85405 0.09122 0.728 0.0
C1614 C 0.85827 0.08542 0.70226 0.0
C1615 C 0.86482 0.0915 0.66826 0.0
H1616 H 0.84899 0.0865 0.75432 0.0
H1617 H 0.91295 0.14411 0.42336 0.0
H1618 H 0.84002 0.74152 0.70333 0.0
H1619 H 0.85074 0.74334 0.64133 0.0
H1620 H 0.88432 0.77277 0.69079 0.0
H1621 H 0.87353 0.77118 0.75278 0.0
H1622 H 0.88132 0.77816 0.61706 0.0
H1623 H 0.88009 0.74382 0.68155 0.0
H1624 H 0.87079 0.72392 0.71648 0.0
H1625 H 0.84779 0.70596 0.61617 0.0
H1626 H 0.85681 0.72579 0.58084 0.0
H1627 H 0.9187 0.77253 0.46426 0.0
H1628 H 0.90977 0.77361 0.52761 0.0
H1629 H 0.87353 0.7476 0.48456 0.0
H1630 H 0.88233 0.74655 0.42133 0.0
H1631 H 0.87947 0.74115 0.55728 0.0
H1632 H 0.88079 0.77633 0.49425 0.0
H1633 H 0.89085 0.7964 0.46026 0.0
H1634 H 0.91495 0.81292 0.55941 0.0
H1635 H 0.90513 0.79289 0.59379 0.0
C1636 C 0.84969 0.74837 0.70102 0.0
C1637 C 0.85597 0.75616 0.73293 0.0
C1638 C 0.85582 0.74938 0.66563 0.0
C1639 C 0.86838 0.75806 0.66164 0.0
C1640 C 0.87463 0.76598 0.69328 0.0
C1641 C 0.86847 0.76504 0.72868 0.0
C1642 C 0.87493 0.75881 0.62437 0.0
C1643 C 0.88108 0.77011 0.60429 0.0
C1644 C 0.87452 0.74828 0.60753 0.0
C1645 C 0.86905 0.73632 0.62868 0.0
C1646 C 0.87298 0.73565 0.66706 0.0
C1647 C 0.86777 0.72437 0.68691 0.0
C1648 C 0.85868 0.71369 0.66859 0.0
C1649 C 0.85481 0.71425 0.63034 0.0
C1650 C 0.85998 0.7255 0.61037 0.0
C1651 C 0.90882 0.76718 0.46818 0.0
C1652 C 0.90121 0.75944 0.43795 0.0
C1653 C 0.90374 0.76782 0.50429 0.0
C1654 C 0.891 0.76067 0.51065 0.0
C1655 C 0.88338 0.75317 0.48017 0.0
C1656 C 0.88842 0.75262 0.44405 0.0
C1657 C 0.88562 0.76041 0.54972 0.0
C1658 C 0.87974 0.7492 0.57021 0.0
C1659 C 0.88641 0.77104 0.56705 0.0
C1660 C 0.89232 0.78308 0.54639 0.0
C1661 C 0.88831 0.78421 0.50865 0.0
C1662 C 0.89395 0.79559 0.48934 0.0
C1663 C 0.90356 0.80592 0.50761 0.0
C1664 C 0.90752 0.8049 0.54527 0.0
C1665 C 0.90192 0.79354 0.56469 0.0
H1666 H 0.90791 0.81472 0.49262 0.0
H1667 H 0.85466 0.70497 0.68401 0.0
H1668 H 0.85536 0.77186 0.96489 0.0
H1669 H 0.86648 0.77314 0.02573 0.0
H1670 H 0.87841 0.74932 0.9747 0.0
H1671 H 0.86722 0.7479 0.91403 0.0
H1672 H 0.86837 0.74148 0.0464 0.0
H1673 H 0.89861 0.7797 0.98876 0.0
H1674 H 0.90636 0.8001 0.95822 0.0
H1675 H 0.8963 0.81278 0.06189 0.0
H1676 H 0.88833 0.79238 0.09286 0.0
H1677 H 0.90939 0.74606 0.19601 0.0
H1678 H 0.90135 0.74799 0.13232 0.0
H1679 H 0.88909 0.77125 0.18554 0.0
H1680 H 0.89726 0.76949 0.24942 0.0
H1681 H 0.89953 0.77976 0.11284 0.0
H1682 H 0.86892 0.74156 0.16976 0.0
H1683 H 0.86098 0.72114 0.20044 0.0
H1684 H 0.87143 0.70842 0.09776 0.0
H1685 H 0.87961 0.72883 0.0667 0.0
C1686 C 0.86049 0.76703 0.96648 0.0
C1687 C 0.8604 0.75975 0.9348 0.0
C1688 C 0.86687 0.76781 0.00118 0.0
C1689 C 0.87331 0.76137 0.00463 0.0
C1690 C 0.87349 0.75435 0.97262 0.0
C1691 C 0.86712 0.75358 0.93796 0.0
C1692 C 0.87917 0.76125 0.04246 0.0
C1693 C 0.87533 0.74984 0.0606 0.0
C1694 C 0.88796 0.77219 0.06151 0.0
C1695 C 0.89276 0.78447 0.04297 0.0
C1696 C 0.89795 0.7868 0.00492 0.0
C1697 C 0.9024 0.79837 0.98755 0.0
C1698 C 0.90179 0.80772 0.00806 0.0
C1699 C 0.89676 0.80552 0.04602 0.0
C1700 C 0.89228 0.79396 0.06351 0.0
C1701 C 0.90503 0.75164 0.19413 0.0
C1702 C 0.90385 0.75755 0.22771 0.0
C1703 C 0.90043 0.75271 0.15775 0.0
C1704 C 0.89448 0.75963 0.15438 0.0
C1705 C 0.89363 0.76585 0.18759 0.0
C1706 C 0.89826 0.7648 0.22404 0.0
C1707 C 0.8888 0.75999 0.11648 0.0
C1708 C 0.89261 0.77141 0.09848 0.0
C1709 C 0.87994 0.74906 0.0975 0.0
C1710 C 0.875 0.73677 0.11609 0.0
C1711 C 0.86962 0.73444 0.15386 0.0
C1712 C 0.86506 0.72286 0.1713 0.0
C1713 C 0.86573 0.7135 0.15111 0.0
C1714 C 0.87094 0.71568 0.11339 0.0
C1715 C 0.87553 0.72726 0.09585 0.0
H1716 H 0.86219 0.70453 0.16465 0.0
H1717 H 0.90525 0.81668 0.99457 0.0
H1718 H 0.22217 0.07553 0.97624 0.0
H1719 H 0.21891 0.08182 0.04146 0.0
H1720 H 0.23327 0.11896 -0.00106 0.0
H1721 H 0.23635 0.11269 0.93364 0.0
H1722 H 0.23666 0.09761 0.08783 0.0
H1723 H 0.2218 0.13372 0.05183 0.0
H1724 H 0.20884 0.13672 0.00345 0.0
H1725 H 0.18753 0.09768 0.98483 0.0
H1726 H 0.20025 0.09442 0.03351 0.0
H1727 H 0.25635 0.14441 0.23008 0.0
H1728 H 0.25143 0.13245 0.1691 0.0
H1729 H 0.21271 0.1151 0.19647 0.0
H1730 H 0.21757 0.12713 0.25758 0.0
H1731 H 0.21749 0.12287 0.11984 0.0
H1732 H 0.22686 0.09884 0.20698 0.0
H1733 H 0.23902 0.09504 0.2564 0.0
H1734 H 0.26914 0.1078 0.17474 0.0
H1735 H 0.25723 0.11184 0.12501 0.0
C1736 C 0.22438 0.08497 0.9806 0.0
C1737 C 0.22958 0.09364 0.94997 0.0
C1738 C 0.22254 0.08856 0.01787 0.0
C1739 C 0.22582 0.10085 0.02504 0.0
C1740 C 0.2305 0.10939 0.99395 0.0
C1741 C 0.23231 0.10581 0.95668 0.0
C1742 C 0.22561 0.10506 0.06576 0.0
C1743 C 0.23235 0.10303 0.0949 0.0
C1744 C 0.21986 0.11198 0.07514 0.0
C1745 C 0.21205 0.11384 0.04616 0.0
C1746 C 0.21431 0.12577 0.03759 0.0
C1747 C 0.20701 0.12751 0.01007 0.0
C1748 C 0.19739 0.1174 0.99101 0.0
C1749 C 0.19502 0.10551 -0.00048 0.0
C1750 C 0.20228 0.10371 0.02703 0.0
C1751 C 0.24679 0.138 0.22324 0.0
C1752 C 0.23734 0.13666 0.24861 0.0
C1753 C 0.244 0.13115 0.18847 0.0
C1754 C 0.23172 0.12281 0.17851 0.0
C1755 C 0.22225 0.12147 0.20372 0.0
C1756 C 0.22504 0.1283 0.23864 0.0
C1757 C 0.22885 0.11573 0.14127 0.0
C1758 C 0.22159 0.11727 0.11284 0.0
C1759 C 0.23399 0.10821 0.13262 0.0
C1760 C 0.24117 0.10571 0.16235 0.0
C1761 C 0.2361 0.10091 0.19965 0.0
C1762 C 0.24295 0.09871 0.22771 0.0
C1763 C 0.25485 0.1012 0.21874 0.0
C1764 C 0.25992 0.10588 0.18165 0.0
C1765 C 0.25312 0.10811 0.15349 0.0
H1766 H 0.26014 0.09949 0.24051 0.0
H1767 H 0.19176 0.11877 0.9697 0.0
H1768 H 0.87286 0.10425 0.25856 0.0
H1769 H 0.88424 0.1115 0.19632 0.0
H1770 H 0.85033 0.10108 0.13457 0.0
H1771 H 0.83891 0.09372 0.19644 0.0
H1772 H 0.86504 0.09454 0.09381 0.0
H1773 H 0.86924 0.13061 0.16108 0.0
H1774 H 0.875 0.14505 0.21706 0.0
H1775 H 0.91238 0.15281 0.20926 0.0
H1776 H 0.9068 0.13829 0.15352 0.0
H1777 H 0.8816 0.13072 0.92166 0.0
H1778 H 0.87364 0.12006 0.98431 0.0
H1779 H 0.91069 0.13578 0.02912 0.0
H1780 H 0.91872 0.14674 0.96661 0.0
H1781 H 0.89669 0.13865 0.08057 0.0
H1782 H 0.89317 0.10469 0.00742 0.0
H1783 H 0.88752 0.0903 0.95142 0.0
H1784 H 0.8493 0.07834 0.96993 0.0
H1785 H 0.85472 0.09279 0.0257 0.0
C1786 C 0.86783 0.10347 0.23164 0.0
C1787 C 0.85501 0.0985 0.23232 0.0
C1788 C 0.87435 0.10762 0.1962 0.0
C1789 C 0.86813 0.1069 0.16095 0.0
C1790 C 0.85529 0.10169 0.16146 0.0
C1791 C 0.84879 0.09755 0.19684 0.0
C1792 C 0.87496 0.11198 0.12364 0.0
C1793 C 0.87192 0.10419 0.09075 0.0
C1794 C 0.88421 0.12449 0.12014 0.0
C1795 C 0.88758 0.13327 0.15346 0.0
C1796 C 0.87867 0.13533 0.17151 0.0
C1797 C 0.8819 0.14354 0.20315 0.0
C1798 C 0.89404 0.14981 0.21679 0.0
C1799 C 0.90298 0.14793 0.19872 0.0
C1800 C 0.89979 0.13971 0.16709 0.0
C1801 C 0.88807 0.13179 0.94469 0.0
C1802 C 0.90078 0.13958 0.93933 0.0
C1803 C 0.88351 0.12562 0.9804 0.0
C1804 C 0.89158 0.127 0.01128 0.0
C1805 C 0.9043 0.13456 0.00565 0.0
C1806 C 0.90888 0.1408 0.96995 0.0
C1807 C 0.8866 0.12127 0.05026 0.0
C1808 C 0.88998 0.12894 0.08358 0.0
C1809 C 0.87769 0.10864 0.05412 0.0
C1810 C 0.87437 0.0999 0.02062 0.0
C1811 C 0.88357 0.09906 -0.00061 0.0
C1812 C 0.8804 0.09088 0.9677 0.0
C1813 C 0.86806 0.08342 0.95708 0.0
C1814 C 0.85886 0.08412 0.97818 0.0
C1815 C 0.86197 0.09229 0.00988 0.0
H1816 H 0.86564 0.07709 0.93254 0.0
H1817 H 0.89652 0.15616 0.2413 0.0
H1818 H 0.74471 0.90171 0.27459 0.0
H1819 H 0.74654 0.8933 0.33772 0.0
H1820 H 0.77879 0.89297 0.29515 0.0
H1821 H 0.77699 0.90134 0.23176 0.0
H1822 H 0.76231 0.87132 0.33187 0.0
H1823 H 0.78231 0.91455 0.35915 0.0
H1824 H 0.78429 0.93512 0.3609 0.0
H1825 H 0.75277 0.92144 0.43702 0.0
H1826 H 0.75048 0.90074 0.43526 0.0
H1827 H 0.77425 0.85545 0.52262 0.0
H1828 H 0.77694 0.86622 0.45977 0.0
H1829 H 0.74701 0.87236 0.49012 0.0
H1830 H 0.74456 0.862 0.55315 0.0
H1831 H 0.76501 0.89232 0.45879 0.0
H1832 H 0.74343 0.84899 0.42614 0.0
H1833 H 0.74053 0.82805 0.42357 0.0
H1834 H 0.77399 0.8415 0.35716 0.0
H1835 H 0.77717 0.86257 0.35977 0.0
C1836 C 0.7522 0.89986 0.2787 0.0
C1837 C 0.76073 0.90219 0.24836 0.0
C1838 C 0.75326 0.89511 0.31479 0.0
C1839 C 0.76288 0.89265 0.32115 0.0
C1840 C 0.77134 0.89485 0.29078 0.0
C1841 C 0.77031 0.89965 0.25469 0.0
C1842 C 0.76392 0.88755 0.35936 0.0
C1843 C 0.76312 0.876 0.35964 0.0
C1844 C 0.76477 0.89359 0.39546 0.0
C1845 C 0.76617 0.90607 0.39683 0.0
C1846 C 0.77575 0.91591 0.37603 0.0
C1847 C 0.77693 0.92759 0.37706 0.0
C1848 C 0.76865 0.92958 0.399 0.0
C1849 C 0.75917 0.91989 0.42003 0.0
C1850 C 0.75794 0.90818 0.41906 0.0
C1851 C 0.7683 0.85915 0.51584 0.0
C1852 C 0.75918 0.85787 0.54262 0.0
C1853 C 0.76981 0.86525 0.47994 0.0
C1854 C 0.76208 0.86997 0.47009 0.0
C1855 C 0.75309 0.86882 0.49713 0.0
C1856 C 0.75167 0.86286 0.53308 0.0
C1857 C 0.76311 0.87594 0.43144 0.0
C1858 C 0.76433 0.88769 0.43105 0.0
C1859 C 0.76254 0.87002 0.39524 0.0
C1860 C 0.76061 0.85737 0.39354 0.0
C1861 C 0.75022 0.8475 0.41125 0.0
C1862 C 0.74851 0.8356 0.40974 0.0
C1863 C 0.75709 0.83345 0.39032 0.0
C1864 C 0.76737 0.84319 0.37226 0.0
C1865 C 0.76913 0.8551 0.37372 0.0
H1866 H 0.75575 0.82424 0.38918 0.0
H1867 H 0.76958 0.93864 0.39975 0.0
H1868 H 0.08413 0.85444 0.27965 0.0
H1869 H 0.09273 0.86654 0.33961 0.0
H1870 H 0.12919 0.88291 0.28928 0.0
H1871 H 0.12063 0.87034 0.22978 0.0
H1872 H 0.13014 0.87717 0.36143 0.0
H1873 H 0.11258 0.89885 0.29834 0.0
H1874 H 0.09646 0.90139 0.2654 0.0
H1875 H 0.07384 0.88813 0.36918 0.0
H1876 H 0.08976 0.88535 0.40258 0.0
H1877 H 0.15747 0.92132 0.51125 0.0
H1878 H 0.14887 0.91377 0.44569 0.0
H1879 H 0.11325 0.89002 0.49749 0.0
H1880 H 0.12181 0.89752 0.56339 0.0
H1881 H 0.11272 0.90108 0.4229 0.0
H1882 H 0.13026 0.87816 0.48291 0.0
H1883 H 0.14703 0.87673 0.51588 0.0
H1884 H 0.17051 0.89367 0.41567 0.0
H1885 H 0.15392 0.89538 0.38234 0.0
C1886 C 0.09398 0.86065 0.28133 0.0
C1887 C 0.10172 0.86149 0.25008 0.0
C1888 C 0.09888 0.86764 0.31551 0.0
C1889 C 0.11159 0.87584 0.31872 0.0
C1890 C 0.11935 0.87668 0.28745 0.0
C1891 C 0.11446 0.86952 0.25348 0.0
C1892 C 0.11681 0.88316 0.35534 0.0
C1893 C 0.12645 0.88257 0.37435 0.0
C1894 C 0.1119 0.89007 0.37275 0.0
C1895 C 0.10233 0.8918 0.35285 0.0
C1896 C 0.10413 0.8964 0.31405 0.0
C1897 C 0.09503 0.89789 0.29531 0.0
C1898 C 0.08412 0.8949 0.31515 0.0
C1899 C 0.0823 0.89043 0.35383 0.0
C1900 C 0.09136 0.88891 0.3727 0.0
C1901 C 0.14775 0.9147 0.50866 0.0
C1902 C 0.14033 0.90988 0.54244 0.0
C1903 C 0.14286 0.9104 0.4712 0.0
C1904 C 0.13049 0.90124 0.46695 0.0
C1905 C 0.12283 0.89709 0.5003 0.0
C1906 C 0.12773 0.90136 0.53787 0.0
C1907 C 0.12593 0.89501 0.42853 0.0
C1908 C 0.11643 0.89577 0.40945 0.0
C1909 C 0.13103 0.88836 0.41079 0.0
C1910 C 0.14089 0.887 0.4303 0.0
C1911 C 0.13902 0.88164 0.468 0.0
C1912 C 0.14849 0.88078 0.48674 0.0
C1913 C 0.15984 0.88513 0.46792 0.0
C1914 C 0.16172 0.89031 0.43023 0.0
C1915 C 0.15228 0.89123 0.41138 0.0
H1916 H 0.16716 0.88446 0.4825 0.0
H1917 H 0.07709 0.89606 0.30058 0.0
H1918 H 0.07998 0.22692 0.51655 0.0
H1919 H 0.08848 0.22526 0.45311 0.0
H1920 H 0.1252 0.24584 0.5009 0.0
H1921 H 0.11682 0.24756 0.56408 0.0
H1922 H 0.12266 0.25541 0.4316 0.0
H1923 H 0.1126 0.21566 0.4832 0.0
H1924 H 0.09895 0.19509 0.51133 0.0
H1925 H 0.07585 0.18517 0.4086 0.0
H1926 H 0.08927 0.20576 0.38009 0.0
H1927 H 0.15942 0.24956 0.28786 0.0
H1928 H 0.14825 0.2475 0.34901 0.0
H1929 H 0.11374 0.22761 0.28677 0.0
H1930 H 0.1249 0.22958 0.22516 0.0
H1931 H 0.11351 0.21722 0.36008 0.0
H1932 H 0.1238 0.25653 0.30735 0.0
H1933 H 0.13734 0.27706 0.27879 0.0
H1934 H 0.15964 0.28785 0.38347 0.0
H1935 H 0.14634 0.26731 0.41245 0.0
C1936 C 0.08985 0.23092 0.51364 0.0
C1937 C 0.09775 0.23742 0.54514 0.0
C1938 C 0.09468 0.22995 0.47746 0.0
C1939 C 0.10746 0.23544 0.47238 0.0
C1940 C 0.11531 0.24158 0.50423 0.0
C1941 C 0.1105 0.24252 0.54032 0.0
C1942 C 0.11279 0.23559 0.43327 0.0
C1943 C 0.12077 0.24706 0.41618 0.0
C1944 C 0.10995 0.22468 0.41259 0.0
C1945 C 0.10186 0.2123 0.42972 0.0
C1946 C 0.10454 0.20914 0.46677 0.0
C1947 C 0.09686 0.19746 0.48275 0.0
C1948 C 0.08652 0.18884 0.46182 0.0
C1949 C 0.08385 0.19186 0.42482 0.0
C1950 C 0.0915 0.20353 0.40872 0.0
C1951 C 0.14946 0.2447 0.28715 0.0
C1952 C 0.14303 0.2398 0.25171 0.0
C1953 C 0.14309 0.24355 0.3221 0.0
C1954 C 0.13019 0.23753 0.32224 0.0
C1955 C 0.12371 0.23231 0.28716 0.0
C1956 C 0.13009 0.23349 0.25205 0.0
C1957 C 0.12359 0.23705 0.359 0.0
C1958 C 0.11534 0.22555 0.37548 0.0
C1959 C 0.12613 0.24794 0.37918 0.0
C1960 C 0.13413 0.26033 0.36193 0.0
C1961 C 0.13165 0.26324 0.32416 0.0
C1962 C 0.13927 0.27489 0.30791 0.0
C1963 C 0.14936 0.28375 0.32926 0.0
C1964 C 0.15183 0.28098 0.36695 0.0
C1965 C 0.14424 0.26934 0.38332 0.0
H1966 H 0.15525 0.29276 0.31664 0.0
H1967 H 0.08058 0.1798 0.47423 0.0
H1968 H 0.79384 0.57713 0.40214 0.0
H1969 H 0.78409 0.57415 0.33788 0.0
H1970 H 0.80093 0.55321 0.29912 0.0
H1971 H 0.81118 0.55663 0.36337 0.0
H1972 H 0.80374 0.56871 0.24485 0.0
H1973 H 0.76898 0.53938 0.31559 0.0
H1974 H 0.75397 0.5307 0.37001 0.0
H1975 H 0.74282 0.55746 0.34885 0.0
H1976 H 0.75789 0.56642 0.29466 0.0
H1977 H 0.7672 0.55953 0.06654 0.0
H1978 H 0.77463 0.55451 0.12705 0.0
H1979 H 0.7718 0.58292 0.18973 0.0
H1980 H 0.76466 0.58814 0.12962 0.0
H1981 H 0.7604 0.55858 0.22763 0.0
H1982 H 0.79851 0.58939 0.16341 0.0
H1983 H 0.81326 0.59699 0.10802 0.0
H1984 H 0.81711 0.56491 0.11584 0.0
H1985 H 0.80224 0.55704 0.17098 0.0
C1986 C 0.79534 0.57174 0.38017 0.0
C1987 C 0.80325 0.5671 0.38776 0.0
C1988 C 0.78968 0.56996 0.34344 0.0
C1989 C 0.79158 0.56326 0.31375 0.0
C1990 C 0.79928 0.55836 0.32159 0.0
C1991 C 0.80509 0.56029 0.3583 0.0
C1992 C 0.78625 0.56228 0.27383 0.0
C1993 C 0.79418 0.56618 0.24102 0.0
C1994 C 0.77376 0.55899 0.26859 0.0
C1995 C 0.76462 0.55361 0.30111 0.0
C1996 C 0.76339 0.54347 0.32268 0.0
C1997 C 0.75485 0.53849 0.35348 0.0
C1998 C 0.74745 0.54353 0.36291 0.0
C1999 C 0.74855 0.55355 0.3415 0.0
C2000 C 0.75707 0.55858 0.31068 0.0
C2001 C 0.76823 0.56472 0.09322 0.0
C2002 C 0.76539 0.57424 0.09343 0.0
C2003 C 0.77245 0.56184 0.12765 0.0
C2004 C 0.77369 0.56833 0.16272 0.0
C2005 C 0.77084 0.57779 0.16292 0.0
C2006 C 0.76683 0.5808 0.12852 0.0
C2007 C 0.77801 0.56542 0.19957 0.0
C2008 C 0.76987 0.56078 0.2316 0.0
C2009 C 0.7902 0.56779 0.20393 0.0
C2010 C 0.79915 0.57256 0.17092 0.0
C2011 C 0.80241 0.5839 0.15305 0.0
C2012 C 0.81081 0.58827 0.12177 0.0
C2013 C 0.81608 0.58142 0.10832 0.0
C2014 C 0.81299 0.5702 0.12622 0.0
C2015 C 0.80459 0.56578 0.15749 0.0
H2016 H 0.82259 0.58482 0.08411 0.0
H2017 H 0.74085 0.53966 0.38678 0.0
H2018 H 0.43452 0.20897 0.06325 0.0
H2019 H 0.43908 0.22061 0.12487 0.0
H2020 H 0.42231 0.18664 0.19109 0.0
H2021 H 0.41741 0.17496 0.12946 0.0
H2022 H 0.41476 0.20101 0.21858 0.0
H2023 H 0.45385 0.20575 0.18764 0.0
H2024 H 0.472 0.21062 0.14681 0.0
H2025 H 0.48042 0.24818 0.13702 0.0
H2026 H 0.4622 0.24349 0.17738 0.0
H2027 H 0.43802 0.22672 0.4049 0.0
H2028 H 0.43973 0.21807 0.34219 0.0
H2029 H 0.4388 0.24745 0.27924 0.0
H2030 H 0.43677 0.25607 0.34198 0.0
H2031 H 0.45628 0.23575 0.25167 0.0
H2032 H 0.41422 0.22844 0.27838 0.0
H2033 H 0.39708 0.22266 0.32514 0.0
H2034 H 0.39556 0.18824 0.34777 0.0
H2035 H 0.41285 0.19394 0.30166 0.0
C2036 C 0.43182 0.204 0.09097 0.0
C2037 C 0.42559 0.19107 0.09165 0.0
C2038 C 0.43451 0.21065 0.12616 0.0
C2039 C 0.43118 0.2045 0.16261 0.0
C2040 C 0.42497 0.19158 0.16329 0.0
C2041 C 0.42218 0.18492 0.1281 0.0
C2042 C 0.43373 0.21151 0.19995 0.0
C2043 C 0.42388 0.20852 0.22579 0.0
C2044 C 0.44562 0.22136 0.2095 0.0
C2045 C 0.45659 0.22424 0.18521 0.0
C2046 C 0.45951 0.21503 0.17651 0.0
C2047 C 0.46983 0.21776 0.1535 0.0
C2048 C 0.47734 0.22969 0.13923 0.0
C2049 C 0.47458 0.23893 0.14804 0.0
C2050 C 0.46427 0.23624 0.17102 0.0
C2051 C 0.43852 0.23155 0.37782 0.0
C2052 C 0.43709 0.24197 0.37818 0.0
C2053 C 0.43955 0.22662 0.3421 0.0
C2054 C 0.43935 0.23214 0.30639 0.0
C2055 C 0.43903 0.24315 0.30671 0.0
C2056 C 0.43781 0.248 0.34247 0.0
C2057 C 0.4373 0.22527 0.26929 0.0
C2058 C 0.44721 0.22826 0.2439 0.0
C2059 C 0.42553 0.21527 0.26033 0.0
C2060 C 0.41488 0.21166 0.28692 0.0
C2061 C 0.41027 0.21968 0.29355 0.0
C2062 C 0.40054 0.21642 0.3199 0.0
C2063 C 0.39525 0.2051 0.3395 0.0
C2064 C 0.39967 0.197 0.33262 0.0
C2065 C 0.40943 0.20024 0.30637 0.0
H2066 H 0.38773 0.2026 0.35993 0.0
H2067 H 0.48532 0.23179 0.12143 0.0
H2068 H 0.78999 0.23615 0.08142 0.0
H2069 H 0.77705 0.22814 0.14051 0.0
H2070 H 0.80007 0.21409 0.18317 0.0
H2071 H 0.81289 0.2219 0.12422 0.0
H2072 H 0.77653 0.1977 0.19456 0.0
H2073 H 0.80351 0.2408 0.2183 0.0
H2074 H 0.81321 0.263 0.20395 0.0
H2075 H 0.77783 0.26055 0.2078 0.0
H2076 H 0.76791 0.23828 0.22171 0.0
H2077 H 0.77109 0.20863 0.41128 0.0
H2078 H 0.77823 0.21759 0.34596 0.0
H2079 H 0.74485 0.18858 0.29414 0.0
H2080 H 0.73776 0.17937 0.3595 0.0
H2081 H 0.7716 0.22625 0.28426 0.0
H2082 H 0.75283 0.1785 0.2122 0.0
H2083 H 0.7462 0.15711 0.23169 0.0
H2084 H 0.77021 0.17023 0.33238 0.0
H2085 H 0.7771 0.19168 0.31313 0.0
C2086 C 0.79222 0.23128 0.10332 0.0
C2087 C 0.80245 0.22968 0.09835 0.0
C2088 C 0.78485 0.22674 0.13705 0.0
C2089 C 0.78766 0.2206 0.16631 0.0
C2090 C 0.79772 0.21877 0.16089 0.0
C2091 C 0.80506 0.22328 0.12727 0.0
C2092 C 0.78039 0.21632 0.20323 0.0
C2093 C 0.77532 0.20391 0.21392 0.0
C2094 C 0.77903 0.22448 0.22883 0.0
C2095 C 0.78496 0.23786 0.22054 0.0
C2096 C 0.79779 0.24498 0.21575 0.0
C2097 C 0.80333 0.25758 0.20776 0.0
C2098 C 0.79614 0.26318 0.20483 0.0
C2099 C 0.78339 0.2562 0.21 0.0
C2100 C 0.7778 0.24359 0.21795 0.0
C2101 C 0.76514 0.2043 0.3861 0.0
C2102 C 0.75397 0.19319 0.39033 0.0
C2103 C 0.76921 0.20947 0.34879 0.0
C2104 C 0.76216 0.20363 0.31516 0.0
C2105 C 0.7505 0.19312 0.31971 0.0
C2106 C 0.74646 0.18789 0.35704 0.0
C2107 C 0.76775 0.20764 0.27551 0.0
C2108 C 0.77253 0.21998 0.26436 0.0
C2109 C 0.76926 0.19953 0.25006 0.0
C2110 C 0.76534 0.18667 0.26148 0.0
C2111 C 0.75671 0.17681 0.23841 0.0
C2112 C 0.75291 0.16468 0.24942 0.0
C2113 C 0.75775 0.16231 0.28333 0.0
C2114 C 0.76644 0.17207 0.3062 0.0
C2115 C 0.77029 0.18422 0.29526 0.0
H2116 H 0.75478 0.15292 0.29184 0.0
H2117 H 0.80044 0.27293 0.19866 0.0
H2118 H 0.89197 0.48065 0.81478 0.0
H2119 H 0.88968 0.46985 0.87719 0.0
H2120 H 0.90468 0.44905 0.82288 0.0
H2121 H 0.90661 0.4595 0.76028 0.0
H2122 H 0.88743 0.43502 0.87399 0.0
H2123 H 0.92272 0.47544 0.87312 0.0
H2124 H 0.9338 0.49798 0.86534 0.0
H2125 H 0.9135 0.50121 0.96224 0.0
H2126 H 0.90199 0.47861 0.9698 0.0
H2127 H 0.91432 0.42293 0.04073 0.0
H2128 H 0.91103 0.43059 0.97806 0.0
H2129 H 0.89226 0.44656 0.03958 0.0
H2130 H 0.89552 0.43896 0.10237 0.0
H2131 H 0.90996 0.46257 0.9864 0.0
H2132 H 0.87579 0.42088 0.98834 0.0
H2133 H 0.86646 0.39838 0.99481 0.0
H2134 H 0.88729 0.39778 0.89505 0.0
H2135 H 0.89688 0.42032 0.8883 0.0
C2136 C 0.89456 0.47361 0.81603 0.0
C2137 C 0.89961 0.47101 0.78291 0.0
C2138 C 0.89328 0.46747 0.85167 0.0
C2139 C 0.89725 0.45883 0.85484 0.0
C2140 C 0.90159 0.4557 0.82112 0.0
C2141 C 0.90274 0.46173 0.78541 0.0
C2142 C 0.89792 0.45384 0.8938 0.0
C2143 C 0.89239 0.44104 0.89852 0.0
C2144 C 0.90438 0.46171 0.92584 0.0
C2145 C 0.91139 0.47532 0.92172 0.0
C2146 C 0.92054 0.48095 0.89257 0.0
C2147 C 0.92691 0.49374 0.88822 0.0
C2148 C 0.92438 0.50104 0.91332 0.0
C2149 C 0.91545 0.49555 0.94279 0.0
C2150 C 0.90898 0.48274 0.94707 0.0
C2151 C 0.90948 0.42806 0.04087 0.0
C2152 C 0.90517 0.43035 0.07634 0.0
C2153 C 0.90756 0.43237 0.00509 0.0
C2154 C 0.9013 0.43903 0.00429 0.0
C2155 C 0.89707 0.44141 0.03969 0.0
C2156 C 0.89893 0.43705 0.07544 0.0
C2157 C 0.89944 0.44378 0.96656 0.0
C2158 C 0.90484 0.45655 0.96203 0.0
C2159 C 0.89309 0.4359 0.93454 0.0
C2160 C 0.88711 0.42231 0.93799 0.0
C2161 C 0.87843 0.41596 0.9679 0.0
C2162 C 0.87309 0.4032 0.97161 0.0
C2163 C 0.8763 0.39666 0.94541 0.0
C2164 C 0.88482 0.40286 0.91534 0.0
C2165 C 0.89019 0.41563 0.91152 0.0
H2166 H 0.87217 0.38678 0.94836 0.0
H2167 H 0.92935 0.51095 0.90995 0.0
H2168 H 0.58004 0.46697 0.06824 0.0
H2169 H 0.57216 0.45441 0.00848 0.0
H2170 H 0.53611 0.44938 0.0314 0.0
H2171 H 0.54393 0.46201 0.09105 0.0
H2172 H 0.53614 0.42769 0.00248 0.0
H2173 H 0.55359 0.47132 0.97239 0.0
H2174 H 0.57037 0.49296 0.97321 0.0
H2175 H 0.5937 0.48299 0.90952 0.0
H2176 H 0.57708 0.46125 0.90877 0.0
H2177 H 0.50548 0.41776 0.82086 0.0
H2178 H 0.51524 0.42381 0.88552 0.0
H2179 H 0.55022 0.43293 0.83358 0.0
H2180 H 0.54051 0.42718 0.76836 0.0
H2181 H 0.55288 0.45098 0.87778 0.0
H2182 H 0.53484 0.40808 0.8976 0.0
H2183 H 0.5187 0.3862 0.89737 0.0
H2184 H 0.49743 0.39385 0.98009 0.0
H2185 H 0.51337 0.41582 0.9804 0.0
C2186 C 0.57038 0.46302 0.06091 0.0
C2187 C 0.56261 0.46555 0.08407 0.0
C2188 C 0.56591 0.45585 0.0268 0.0
C2189 C 0.55359 0.45105 0.0155 0.0
C2190 C 0.54565 0.45299 0.03974 0.0
C2191 C 0.55014 0.46025 0.07365 0.0
C2192 C 0.54924 0.44504 0.97662 0.0
C2193 C 0.53973 0.43274 0.97512 0.0
C2194 C 0.55425 0.45157 0.94108 0.0
C2195 C 0.56415 0.46466 0.9409 0.0
C2196 C 0.56232 0.47374 0.95879 0.0
C2197 C 0.5718 0.48602 0.9592 0.0
C2198 C 0.58311 0.48934 0.94152 0.0
C2199 C 0.58494 0.4804 0.92324 0.0
C2200 C 0.5755 0.4681 0.92279 0.0
C2201 C 0.51521 0.42087 0.82327 0.0
C2202 C 0.52225 0.42204 0.78955 0.0
C2203 C 0.52078 0.42426 0.86035 0.0
C2204 C 0.53346 0.42872 0.86457 0.0
C2205 C 0.54043 0.4295 0.83106 0.0
C2206 C 0.53487 0.42619 0.79385 0.0
C2207 C 0.53954 0.43358 0.90327 0.0
C2208 C 0.54939 0.44575 0.90488 0.0
C2209 C 0.53492 0.42685 0.93882 0.0
C2210 C 0.52528 0.41363 0.9388 0.0
C2211 C 0.52668 0.40512 0.91552 0.0
C2212 C 0.51757 0.39269 0.91541 0.0
C2213 C 0.50704 0.38864 0.93865 0.0
C2214 C 0.5056 0.397 0.9621 0.0
C2215 C 0.51468 0.40945 0.96229 0.0
H2216 H 0.5 0.37901 0.93853 0.0
H2217 H 0.59044 0.49885 0.94191 0.0
H2218 H 0.54795 0.08355 0.77056 0.0
H2219 H 0.54071 0.0876 0.83242 0.0
H2220 H 0.57742 0.10382 0.88065 0.0
H2221 H 0.58462 0.09928 0.81899 0.0
H2222 H 0.56191 0.08913 0.93201 0.0
H2223 H 0.56388 0.12156 0.85422 0.0
H2224 H 0.5605 0.13143 0.79633 0.0
H2225 H 0.5214 0.10955 0.81258 0.0
H2226 H 0.52452 0.09942 0.87025 0.0
H2227 H 0.54142 0.10676 0.10356 0.0
H2228 H 0.55246 0.10897 0.04169 0.0
H2229 H 0.51794 0.08627 0.98206 0.0
H2230 H 0.50683 0.08398 0.0438 0.0
H2231 H 0.53479 0.10737 0.93866 0.0
H2232 H 0.53368 0.07348 0.01202 0.0
H2233 H 0.53756 0.0642 0.07054 0.0
H2234 H 0.57623 0.09034 0.06281 0.0
H2235 H 0.57254 0.09988 0.00452 0.0
C2236 C 0.55451 0.08806 0.79424 0.0
C2237 C 0.56685 0.09111 0.79006 0.0
C2238 C 0.55038 0.09047 0.8295 0.0
C2239 C 0.55857 0.09624 0.86097 0.0
C2240 C 0.57095 0.09941 0.85669 0.0
C2241 C 0.57506 0.09683 0.82152 0.0
C2242 C 0.55395 0.09816 0.89908 0.0
C2243 C 0.55622 0.09339 0.93352 0.0
C2244 C 0.54638 0.10357 0.90109 0.0
C2245 C 0.54445 0.10967 0.86646 0.0
C2246 C 0.55456 0.11879 0.84531 0.0
C2247 C 0.55269 0.12444 0.81254 0.0
C2248 C 0.54075 0.12111 0.80074 0.0
C2249 C 0.53064 0.11213 0.82174 0.0
C2250 C 0.53246 0.10644 0.85452 0.0
C2251 C 0.53618 0.10232 0.07718 0.0
C2252 C 0.52328 0.09512 0.07845 0.0
C2253 C 0.5425 0.10359 0.04195 0.0
C2254 C 0.53599 0.09772 0.00752 0.0
C2255 C 0.52309 0.09088 0.0084 0.0
C2256 C 0.51678 0.08952 0.04367 0.0
C2257 C 0.54261 0.09814 0.97095 0.0
C2258 C 0.54068 0.10334 0.93697 0.0
C2259 C 0.5506 0.09327 0.9694 0.0
C2260 C 0.55282 0.08747 0.00423 0.0
C2261 C 0.543 0.07731 0.02301 0.0
C2262 C 0.54516 0.07199 0.05609 0.0
C2263 C 0.55713 0.0767 0.07046 0.0
C2264 C 0.56696 0.08672 0.05169 0.0
C2265 C 0.56484 0.09207 0.01863 0.0
H2266 H 0.55879 0.07257 0.09607 0.0
H2267 H 0.53932 0.12549 0.77537 0.0
H2268 H 0.51862 0.10431 0.31977 0.0
H2269 H 0.52964 0.10504 0.38038 0.0
H2270 H 0.54798 0.08866 0.31853 0.0
H2271 H 0.53698 0.08784 0.25812 0.0
H2272 H 0.53706 0.07649 0.38608 0.0
H2273 H 0.56388 0.11829 0.34597 0.0
H2274 H 0.56908 0.13915 0.32482 0.0
H2275 H 0.55451 0.14432 0.43332 0.0
H2276 H 0.54906 0.12341 0.4549 0.0
H2277 H 0.57563 0.07962 0.54211 0.0
H2278 H 0.56882 0.08301 0.47803 0.0
H2279 H 0.55197 0.1016 0.53562 0.0
H2280 H 0.55908 0.09857 0.59962 0.0
H2281 H 0.56288 0.11314 0.46902 0.0
H2282 H 0.53492 0.07129 0.50755 0.0
H2283 H 0.52914 0.0503 0.52917 0.0
H2284 H 0.54509 0.04509 0.42389 0.0
H2285 H 0.55112 0.06612 0.40189 0.0
C2286 C 0.52513 0.10103 0.31903 0.0
C2287 C 0.5269 0.09596 0.28436 0.0
C2288 C 0.53145 0.10149 0.35357 0.0
C2289 C 0.53963 0.09693 0.35382 0.0
C2290 C 0.54168 0.09221 0.3189 0.0
C2291 C 0.5354 0.09177 0.28444 0.0
C2292 C 0.54537 0.09619 0.39107 0.0
C2293 C 0.54288 0.08453 0.4039 0.0
C2294 C 0.55265 0.10664 0.41474 0.0
C2295 C 0.55595 0.11923 0.40188 0.0
C2296 C 0.56169 0.12383 0.36518 0.0
C2297 C 0.5647 0.13567 0.35315 0.0
C2298 C 0.5621 0.14304 0.37767 0.0
C2299 C 0.5565 0.1386 0.41433 0.0
C2300 C 0.55346 0.12676 0.4265 0.0
C2301 C 0.57053 0.08449 0.54104 0.0
C2302 C 0.56777 0.08873 0.57578 0.0
C2303 C 0.56663 0.0864 0.50447 0.0
C2304 C 0.55971 0.09238 0.50217 0.0
C2305 C 0.55728 0.09695 0.53675 0.0
C2306 C 0.56129 0.09516 0.57328 0.0
C2307 C 0.55459 0.09344 0.46395 0.0
C2308 C 0.55714 0.10512 0.45103 0.0
C2309 C 0.54727 0.083 0.44022 0.0
C2310 C 0.54358 0.07032 0.45328 0.0
C2311 C 0.53727 0.0657 0.48915 0.0
C2312 C 0.53394 0.05379 0.50145 0.0
C2313 C 0.53677 0.04638 0.47797 0.0
C2314 C 0.54292 0.05085 0.44208 0.0
C2315 C 0.54629 0.06276 0.42966 0.0
H2316 H 0.53419 0.03716 0.48755 0.0
H2317 H 0.56444 0.15221 0.3683 0.0
H2318 H 0.91523 0.44866 0.2733 0.0
H2319 H 0.91283 0.45627 0.33707 0.0
H2320 H 0.88406 0.41978 0.36856 0.0
H2321 H 0.88657 0.41195 0.30465 0.0
H2322 H 0.88118 0.44306 0.38678 0.0
H2323 H 0.90616 0.4242 0.40854 0.0
H2324 H 0.92288 0.42007 0.39166 0.0
H2325 H 0.94931 0.4586 0.40131 0.0
H2326 H 0.9327 0.46299 0.4176 0.0
H2327 H 0.88649 0.45991 0.59213 0.0
H2328 H 0.88362 0.44867 0.53021 0.0
H2329 H 0.91872 0.47773 0.48842 0.0
H2330 H 0.92169 0.48893 0.55021 0.0
H2331 H 0.91641 0.45538 0.47811 0.0
H2332 H 0.8923 0.47475 0.45312 0.0
H2333 H 0.87609 0.47995 0.46616 0.0
H2334 H 0.84853 0.44169 0.46018 0.0
H2335 H 0.86461 0.43623 0.44764 0.0
C2336 C 0.90827 0.44226 0.29351 0.0
C2337 C 0.90114 0.4297 0.28422 0.0
C2338 C 0.90691 0.44663 0.32984 0.0
C2339 C 0.89831 0.43855 0.35728 0.0
C2340 C 0.89072 0.42611 0.3475 0.0
C2341 C 0.8922 0.42167 0.3112 0.0
C2342 C 0.89813 0.44311 0.39718 0.0
C2343 C 0.8887 0.44551 0.4073 0.0
C2344 C 0.90813 0.44654 0.42314 0.0
C2345 C 0.91817 0.44393 0.41392 0.0
C2346 C 0.91552 0.4318 0.40671 0.0
C2347 C 0.92498 0.42941 0.39732 0.0
C2348 C 0.93714 0.43907 0.39531 0.0
C2349 C 0.93988 0.45113 0.40283 0.0
C2350 C 0.93045 0.45357 0.41218 0.0
C2351 C 0.89356 0.46391 0.56962 0.0
C2352 C 0.90433 0.47527 0.57593 0.0
C2353 C 0.89188 0.45751 0.53428 0.0
C2354 C 0.90094 0.4624 0.50476 0.0
C2355 C 0.91164 0.47379 0.51092 0.0
C2356 C 0.91331 0.48019 0.54615 0.0
C2357 C 0.89952 0.45553 0.46784 0.0
C2358 C 0.90872 0.45273 0.45815 0.0
C2359 C 0.88934 0.45182 0.44226 0.0
C2360 C 0.87967 0.45507 0.44996 0.0
C2361 C 0.88279 0.46743 0.45498 0.0
C2362 C 0.87363 0.47043 0.4622 0.0
C2363 C 0.8613 0.46115 0.46414 0.0
C2364 C 0.85809 0.44886 0.45876 0.0
C2365 C 0.86723 0.44581 0.45158 0.0
H2366 H 0.85421 0.46349 0.4697 0.0
H2367 H 0.94446 0.4372 0.38802 0.0
H2368 H 0.54219 0.45001 0.60569 0.0
H2369 H 0.55404 0.45895 0.54501 0.0
H2370 H 0.5263 0.42846 0.47778 0.0
H2371 H 0.51447 0.4195 0.53805 0.0
H2372 H 0.54956 0.43418 0.45598 0.0
H2373 H 0.52674 0.45517 0.47826 0.0
H2374 H 0.51993 0.46747 0.51621 0.0
H2375 H 0.55728 0.49719 0.5237 0.0
H2376 H 0.56433 0.48497 0.48623 0.0
H2377 H 0.55483 0.45724 0.26086 0.0
H2378 H 0.54879 0.44861 0.32732 0.0
H2379 H 0.58019 0.48074 0.37606 0.0
H2380 H 0.58636 0.48938 0.30958 0.0
H2381 H 0.55789 0.47529 0.41093 0.0
H2382 H 0.58017 0.45481 0.38032 0.0
H2383 H 0.5864 0.44235 0.34064 0.0
H2384 H 0.54963 0.41152 0.34701 0.0
H2385 H 0.54313 0.42385 0.38625 0.0
C2386 C 0.53865 0.44522 0.57796 0.0
C2387 C 0.52738 0.43411 0.57651 0.0
C2388 C 0.54542 0.45033 0.54338 0.0
C2389 C 0.54101 0.44438 0.50692 0.0
C2390 C 0.52987 0.43317 0.50562 0.0
C2391 C 0.5231 0.42811 0.54005 0.0
C2392 C 0.54773 0.44995 0.46977 0.0
C2393 C 0.55134 0.44314 0.44598 0.0
C2394 C 0.55029 0.46176 0.45728 0.0
C2395 C 0.54608 0.4691 0.47991 0.0
C2396 C 0.53352 0.46428 0.48834 0.0
C2397 C 0.52961 0.47125 0.50969 0.0
C2398 C 0.53817 0.48309 0.52248 0.0
C2399 C 0.55066 0.488 0.51386 0.0
C2400 C 0.55462 0.48106 0.49256 0.0
C2401 C 0.56056 0.46236 0.28567 0.0
C2402 C 0.57104 0.47399 0.28012 0.0
C2403 C 0.55713 0.45741 0.32357 0.0
C2404 C 0.56407 0.46404 0.35652 0.0
C2405 C 0.57474 0.47549 0.35095 0.0
C2406 C 0.57826 0.48038 0.31299 0.0
C2407 C 0.55957 0.45944 0.39683 0.0
C2408 C 0.55633 0.46642 0.42119 0.0
C2409 C 0.55728 0.44776 0.40967 0.0
C2410 C 0.56114 0.4403 0.38598 0.0
C2411 C 0.57338 0.44541 0.37296 0.0
C2412 C 0.57697 0.43836 0.35061 0.0
C2413 C 0.56841 0.42616 0.34124 0.0
C2414 C 0.55625 0.42097 0.35427 0.0
C2415 C 0.55261 0.42799 0.37662 0.0
H2416 H 0.57121 0.42072 0.32394 0.0
H2417 H 0.53513 0.48847 0.53899 0.0
H2418 H 0.41772 0.24477 0.62222 0.0
H2419 H 0.41875 0.2363 0.68638 0.0
H2420 H 0.42676 0.21053 0.62802 0.0
H2421 H 0.42584 0.219 0.56383 0.0
H2422 H 0.4088 0.19992 0.68756 0.0
H2423 H 0.44945 0.23445 0.66831 0.0
H2424 H 0.46469 0.25612 0.65422 0.0
H2425 H 0.45269 0.26758 0.75632 0.0
H2426 H 0.43724 0.24597 0.77068 0.0
H2427 H 0.42966 0.18013 0.84963 0.0
H2428 H 0.43012 0.18996 0.78674 0.0
H2429 H 0.42181 0.21519 0.84733 0.0
H2430 H 0.42125 0.20535 0.91038 0.0
H2431 H 0.43991 0.2263 0.78725 0.0
H2432 H 0.39927 0.19205 0.80655 0.0
H2433 H 0.3839 0.17045 0.82114 0.0
H2434 H 0.3956 0.15859 0.7193 0.0
H2435 H 0.4112 0.18012 0.70447 0.0
C2436 C 0.41964 0.23726 0.62311 0.0
C2437 C 0.42174 0.23255 0.58816 0.0
C2438 C 0.42027 0.23247 0.65969 0.0
C2439 C 0.42293 0.22287 0.66177 0.0
C2440 C 0.42472 0.21795 0.62689 0.0
C2441 C 0.42422 0.22282 0.59034 0.0
C2442 C 0.42396 0.21801 0.7004 0.0
C2443 C 0.4157 0.20563 0.70918 0.0
C2444 C 0.43278 0.22559 0.7288 0.0
C2445 C 0.44209 0.2386 0.72031 0.0
C2446 C 0.44998 0.24159 0.68755 0.0
C2447 C 0.45868 0.25387 0.67955 0.0
C2448 C 0.45964 0.26323 0.70429 0.0
C2449 C 0.45192 0.26032 0.73714 0.0
C2450 C 0.4432 0.24806 0.74524 0.0
C2451 C 0.42811 0.18788 0.84961 0.0
C2452 C 0.42533 0.19194 0.88475 0.0
C2453 C 0.42834 0.19345 0.81372 0.0
C2454 C 0.42587 0.20319 0.81253 0.0
C2455 C 0.42372 0.20767 0.84778 0.0
C2456 C 0.42337 0.20202 0.88366 0.0
C2457 C 0.42481 0.2082 0.77425 0.0
C2458 C 0.43303 0.22059 0.76559 0.0
C2459 C 0.41592 0.20065 0.74598 0.0
C2460 C 0.4065 0.18769 0.75465 0.0
C2461 C 0.39865 0.18483 0.78747 0.0
C2462 C 0.38988 0.1726 0.79575 0.0
C2463 C 0.3888 0.16315 0.77123 0.0
C2464 C 0.39647 0.16592 0.73831 0.0
C2465 C 0.40527 0.17814 0.72994 0.0
H2466 H 0.382 0.15369 0.77768 0.0
H2467 H 0.46638 0.27273 0.69806 0.0
H2468 H 0.76794 0.1758 0.6184 0.0
H2469 H 0.77635 0.18511 0.68264 0.0
H2470 H 0.77046 0.21534 0.65484 0.0
H2471 H 0.76207 0.2061 0.5903 0.0
H2472 H 0.79326 0.22294 0.68817 0.0
H2473 H 0.75102 0.19355 0.71557 0.0
H2474 H 0.73226 0.17313 0.71401 0.0
H2475 H 0.75085 0.15775 0.77853 0.0
H2476 H 0.76979 0.17807 0.78 0.0
H2477 H 0.8055 0.24683 0.883 0.0
H2478 H 0.7952 0.23847 0.81982 0.0
H2479 H 0.79567 0.20484 0.84265 0.0
H2480 H 0.8055 0.21297 0.90643 0.0
H2481 H 0.77462 0.19957 0.81147 0.0
H2482 H 0.81712 0.22826 0.78055 0.0
H2483 H 0.83623 0.24844 0.78113 0.0
H2484 H 0.81759 0.26483 0.72251 0.0
H2485 H 0.79833 0.24477 0.72202 0.0
C2486 C 0.76847 0.18445 0.6259 0.0
C2487 C 0.76432 0.19021 0.59945 0.0
C2488 C 0.77323 0.18972 0.66265 0.0
C2489 C 0.77387 0.20082 0.6736 0.0
C2490 C 0.76999 0.20674 0.64692 0.0
C2491 C 0.76519 0.20145 0.61016 0.0
C2492 C 0.77861 0.2062 0.713 0.0
C2493 C 0.78909 0.21793 0.71521 0.0
C2494 C 0.77327 0.19953 0.7481 0.0
C2495 C 0.76186 0.18732 0.74761 0.0
C2496 C 0.75113 0.1858 0.72918 0.0
C2497 C 0.74046 0.17424 0.72835 0.0
C2498 C 0.74037 0.16414 0.74608 0.0
C2499 C 0.75094 0.16558 0.76478 0.0
C2500 C 0.76164 0.17712 0.76566 0.0
C2501 C 0.80332 0.23762 0.87458 0.0
C2502 C 0.80633 0.23056 0.89945 0.0
C2503 C 0.7975 0.23288 0.83842 0.0
C2504 C 0.79487 0.22111 0.82616 0.0
C2505 C 0.79763 0.21395 0.85145 0.0
C2506 C 0.80326 0.21861 0.88785 0.0
C2507 C 0.78942 0.21627 0.78676 0.0
C2508 C 0.77878 0.20464 0.78451 0.0
C2509 C 0.79467 0.223 0.75159 0.0
C2510 C 0.80626 0.23504 0.75161 0.0
C2511 C 0.81708 0.23619 0.76802 0.0
C2512 C 0.82794 0.2476 0.7683 0.0
C2513 C 0.82812 0.25791 0.75197 0.0
C2514 C 0.81744 0.25683 0.73521 0.0
C2515 C 0.80655 0.24544 0.73489 0.0
H2516 H 0.83653 0.26674 0.75222 0.0
H2517 H 0.7321 0.15519 0.74539 0.0
H2518 H 0.75165 0.55622 0.88958 0.0
H2519 H 0.75967 0.55404 0.82577 0.0
H2520 H 0.78904 0.59179 0.833 0.0
H2521 H 0.78119 0.594 0.89665 0.0
H2522 H 0.77576 0.58585 0.76198 0.0
H2523 H 0.79571 0.57017 0.84662 0.0
H2524 H 0.79647 0.5564 0.89705 0.0
H2525 H 0.77384 0.52503 0.8243 0.0
H2526 H 0.77279 0.53862 0.77363 0.0
H2527 H 0.8186 0.59323 0.61629 0.0
H2528 H 0.80834 0.59142 0.67928 0.0
H2529 H 0.78189 0.55352 0.65338 0.0
H2530 H 0.79211 0.55528 0.58986 0.0
H2531 H 0.79134 0.55739 0.73128 0.0
H2532 H 0.7725 0.57299 0.64464 0.0
H2533 H 0.77168 0.58664 0.59384 0.0
H2534 H 0.79172 0.61783 0.66996 0.0
H2535 H 0.79283 0.6044 0.72103 0.0
C2536 C 0.7599 0.56399 0.87774 0.0
C2537 C 0.76579 0.57529 0.89799 0.0
C2538 C 0.76447 0.56273 0.84139 0.0
C2539 C 0.77492 0.57277 0.82475 0.0
C2540 C 0.78094 0.58395 0.84536 0.0
C2541 C 0.77647 0.58518 0.88178 0.0
C2542 C 0.7793 0.57192 0.78497 0.0
C2543 C 0.77926 0.5797 0.75533 0.0
C2544 C 0.78345 0.56358 0.77609 0.0
C2545 C 0.78403 0.5554 0.80657 0.0
C2546 C 0.79078 0.56033 0.84155 0.0
C2547 C 0.7913 0.55255 0.87014 0.0
C2548 C 0.78517 0.53984 0.86395 0.0
C2549 C 0.77855 0.53488 0.8291 0.0
C2550 C 0.778 0.54261 0.80043 0.0
C2551 C 0.81059 0.5845 0.62395 0.0
C2552 C 0.80611 0.5744 0.59814 0.0
C2553 C 0.80474 0.5835 0.65989 0.0
C2554 C 0.79432 0.57237 0.67076 0.0
C2555 C 0.78991 0.56219 0.6454 0.0
C2556 C 0.79572 0.56322 0.60915 0.0
C2557 C 0.78806 0.57154 0.70863 0.0
C2558 C 0.78771 0.56344 0.73783 0.0
C2559 C 0.78348 0.57955 0.71715 0.0
C2560 C 0.78284 0.58769 0.68655 0.0
C2561 C 0.77683 0.58278 0.65043 0.0
C2562 C 0.77629 0.59047 0.6216 0.0
C2563 C 0.78167 0.6031 0.62863 0.0
C2564 C 0.78757 0.60805 0.66455 0.0
C2565 C 0.78814 0.6004 0.69346 0.0
H2566 H 0.78124 0.60904 0.60628 0.0
H2567 H 0.78559 0.53384 0.8861 0.0
H2568 H 0.44366 0.90283 0.39724 0.0
H2569 H 0.45168 0.89878 0.45778 0.0
H2570 H 0.43225 0.9125 0.52726 0.0
H2571 H 0.42446 0.91685 0.46682 0.0
H2572 H 0.45469 0.92076 0.55574 0.0
H2573 H 0.42117 0.8814 0.51515 0.0
H2574 H 0.40956 0.86416 0.46908 0.0
H2575 H 0.44024 0.858 0.46164 0.0
H2576 H 0.4521 0.87533 0.50729 0.0
H2577 H 0.45382 0.89658 0.74093 0.0
H2578 H 0.44536 0.89706 0.67649 0.0
H2579 H 0.47256 0.89095 0.61932 0.0
H2580 H 0.48123 0.89059 0.68389 0.0
H2581 H 0.44731 0.87871 0.58339 0.0
H2582 H 0.48033 0.91783 0.62819 0.0
H2583 H 0.49064 0.93389 0.67894 0.0
H2584 H 0.46009 0.94031 0.67981 0.0
H2585 H 0.44935 0.92392 0.63022 0.0
C2586 C 0.44115 0.90502 0.42543 0.0
C2587 C 0.4334 0.9101 0.42738 0.0
C2588 C 0.44569 0.90266 0.45998 0.0
C2589 C 0.44242 0.90518 0.49704 0.0
C2590 C 0.43488 0.91048 0.49897 0.0
C2591 C 0.43041 0.91293 0.46444 0.0
C2592 C 0.44672 0.90217 0.53392 0.0
C2593 C 0.45298 0.91155 0.56186 0.0
C2594 C 0.4447 0.89019 0.5416 0.0
C2595 C 0.43757 0.87974 0.51429 0.0
C2596 C 0.42547 0.87643 0.50345 0.0
C2597 C 0.41884 0.86663 0.47746 0.0
C2598 C 0.42417 0.86001 0.46235 0.0
C2599 C 0.43613 0.86315 0.47331 0.0
C2600 C 0.44281 0.87295 0.49926 0.0
C2601 C 0.45781 0.89501 0.71475 0.0
C2602 C 0.46829 0.89373 0.71732 0.0
C2603 C 0.45296 0.89528 0.67801 0.0
C2604 C 0.45847 0.89421 0.64338 0.0
C2605 C 0.46823 0.89181 0.64588 0.0
C2606 C 0.47317 0.89164 0.68271 0.0
C2607 C 0.45509 0.89725 0.60503 0.0
C2608 C 0.44906 0.88792 0.57694 0.0
C2609 C 0.45727 0.90926 0.59726 0.0
C2610 C 0.46395 0.91951 0.62581 0.0
C2611 C 0.47573 0.92256 0.6395 0.0
C2612 C 0.48164 0.9317 0.66815 0.0
C2613 C 0.476 0.93807 0.68273 0.0
C2614 C 0.46443 0.93533 0.6686 0.0
C2615 C 0.45841 0.92609 0.64029 0.0
H2616 H 0.48062 0.94519 0.70475 0.0
H2617 H 0.41902 0.85243 0.44224 0.0
H2618 H 0.10556 0.56575 0.72174 0.0
H2619 H 0.10692 0.55879 0.65565 0.0
H2620 H 0.09006 0.57862 0.60697 0.0
H2621 H 0.08831 0.58528 0.67339 0.0
H2622 H 0.07879 0.55627 0.58069 0.0
H2623 H 0.12094 0.58736 0.58907 0.0
H2624 H 0.14161 0.5992 0.6186 0.0
H2625 H 0.14516 0.56688 0.61857 0.0
H2626 H 0.12443 0.5548 0.58954 0.0
H2627 H 0.08641 0.54014 0.38406 0.0
H2628 H 0.08924 0.55279 0.44266 0.0
H2629 H 0.09941 0.53017 0.51069 0.0
H2630 H 0.09645 0.51741 0.45247 0.0
H2631 H 0.115 0.55612 0.52235 0.0
H2632 H 0.07184 0.52495 0.52029 0.0
H2633 H 0.05121 0.51334 0.49031 0.0
H2634 H 0.04995 0.54676 0.47754 0.0
H2635 H 0.07068 0.5586 0.50691 0.0
C2636 C 0.10236 0.56882 0.69688 0.0
C2637 C 0.09679 0.57602 0.70269 0.0
C2638 C 0.1032 0.56488 0.65903 0.0
C2639 C 0.09868 0.56825 0.62621 0.0
C2640 C 0.0936 0.57589 0.63183 0.0
C2641 C 0.09264 0.57973 0.66976 0.0
C2642 C 0.09822 0.56285 0.58681 0.0
C2643 C 0.08679 0.5565 0.56755 0.0
C2644 C 0.10859 0.56291 0.56996 0.0
C2645 C 0.12108 0.57015 0.58737 0.0
C2646 C 0.12609 0.58276 0.59562 0.0
C2647 C 0.13783 0.58952 0.61223 0.0
C2648 C 0.14469 0.5838 0.62052 0.0
C2649 C 0.13983 0.5713 0.61214 0.0
C2650 C 0.1281 0.5645 0.59555 0.0
C2651 C 0.08929 0.53791 0.41149 0.0
C2652 C 0.09115 0.52777 0.41385 0.0
C2653 C 0.0909 0.54513 0.44485 0.0
C2654 C 0.09451 0.54238 0.48088 0.0
C2655 C 0.09665 0.53244 0.48305 0.0
C2656 C 0.09489 0.52513 0.44988 0.0
C2657 C 0.0956 0.54954 0.51683 0.0
C2658 C 0.1071 0.55613 0.53536 0.0
C2659 C 0.08533 0.54979 0.53292 0.0
C2660 C 0.07287 0.54268 0.5153 0.0
C2661 C 0.06722 0.52984 0.51071 0.0
C2662 C 0.0555 0.52321 0.49391 0.0
C2663 C 0.04929 0.52931 0.48189 0.0
C2664 C 0.05478 0.54205 0.48677 0.0
C2665 C 0.06651 0.54872 0.5035 0.0
H2666 H 0.04021 0.52417 0.4689 0.0
H2667 H 0.15377 0.58905 0.63338 0.0
H2668 H 0.44326 0.51502 0.71038 0.0
H2669 H 0.4506 0.52488 0.64657 0.0
H2670 H 0.42835 0.54212 0.65738 0.0
H2671 H 0.42057 0.53182 0.72134 0.0
H2672 H 0.42702 0.5337 0.58426 0.0
H2673 H 0.45977 0.55888 0.67175 0.0
H2674 H 0.47493 0.56345 0.72477 0.0
H2675 H 0.49214 0.54747 0.6559 0.0
H2676 H 0.47698 0.54265 0.60264 0.0
H2677 H 0.4615 0.57425 0.42238 0.0
H2678 H 0.45165 0.56595 0.48636 0.0
H2679 H 0.46752 0.54238 0.48874 0.0
H2680 H 0.47732 0.55055 0.42489 0.0
H2681 H 0.47191 0.55646 0.55709 0.0
H2682 H 0.43784 0.53018 0.4716 0.0
H2683 H 0.4226 0.52597 0.41913 0.0
H2684 H 0.40809 0.54511 0.48515 0.0
H2685 H 0.42337 0.54958 0.5378 0.0
C2686 C 0.43995 0.52095 0.69935 0.0
C2687 C 0.43142 0.52276 0.72099 0.0
C2688 C 0.4442 0.52663 0.66288 0.0
C2689 C 0.44024 0.53446 0.64756 0.0
C2690 C 0.43158 0.53617 0.66881 0.0
C2691 C 0.42718 0.53034 0.70531 0.0
C2692 C 0.44513 0.54066 0.60911 0.0
C2693 C 0.43684 0.53889 0.57853 0.0
C2694 C 0.45795 0.54734 0.60151 0.0
C2695 C 0.46719 0.55035 0.63328 0.0
C2696 C 0.46675 0.55628 0.66799 0.0
C2697 C 0.47535 0.55892 0.69808 0.0
C2698 C 0.48448 0.55574 0.69373 0.0
C2699 C 0.48506 0.54993 0.65922 0.0
C2700 C 0.47648 0.54727 0.62904 0.0
C2701 C 0.46275 0.56718 0.43634 0.0
C2702 C 0.47019 0.56306 0.41875 0.0
C2703 C 0.45711 0.56245 0.4728 0.0
C2704 C 0.45889 0.55358 0.49219 0.0
C2705 C 0.46608 0.54925 0.47422 0.0
C2706 C 0.47162 0.55389 0.43771 0.0
C2707 C 0.4538 0.5492 0.53214 0.0
C2708 C 0.46209 0.55139 0.56302 0.0
C2709 C 0.44103 0.54304 0.54002 0.0
C2710 C 0.43184 0.54034 0.50841 0.0
C2711 C 0.43148 0.53359 0.47475 0.0
C2712 C 0.42281 0.53114 0.44502 0.0
C2713 C 0.41441 0.53531 0.44874 0.0
C2714 C 0.41462 0.54191 0.48227 0.0
C2715 C 0.42328 0.5444 0.51208 0.0
H2716 H 0.40771 0.53339 0.42569 0.0
H2717 H 0.49113 0.55779 0.71707 0.0
H2718 H 0.56597 0.79297 0.10719 0.0
H2719 H 0.5642 0.78378 0.17199 0.0
H2720 H 0.57379 0.81843 0.22754 0.0
H2721 H 0.57607 0.82782 0.16241 0.0
H2722 H 0.58686 0.81 0.25789 0.0
H2723 H 0.54397 0.79232 0.23303 0.0
H2724 H 0.52457 0.7813 0.19558 0.0
H2725 H 0.52782 0.74882 0.19329 0.0
H2726 H 0.54734 0.75969 0.23026 0.0
H2727 H 0.57461 0.78256 0.4502 0.0
H2728 H 0.57259 0.79226 0.39001 0.0
H2729 H 0.57126 0.76288 0.32006 0.0
H2730 H 0.57343 0.7532 0.38003 0.0
H2731 H 0.5528 0.76932 0.30094 0.0
H2732 H 0.59678 0.78826 0.32141 0.0
H2733 H 0.61592 0.79952 0.36003 0.0
H2734 H 0.6098 0.83012 0.37225 0.0
H2735 H 0.59051 0.81895 0.33417 0.0
C2736 C 0.56751 0.79859 0.13323 0.0
C2737 C 0.57118 0.81112 0.12982 0.0
C2738 C 0.56643 0.7933 0.17032 0.0
C2739 C 0.56872 0.80036 0.20476 0.0
C2740 C 0.57197 0.81279 0.2014 0.0
C2741 C 0.57323 0.81814 0.16422 0.0
C2742 C 0.56872 0.79503 0.2439 0.0
C2743 C 0.57927 0.80123 0.26761 0.0
C2744 C 0.55894 0.78346 0.25637 0.0
C2745 C 0.54718 0.77686 0.23419 0.0
C2746 C 0.5406 0.78286 0.2243 0.0
C2747 C 0.52957 0.77663 0.2032 0.0
C2748 C 0.52498 0.76438 0.192 0.0
C2749 C 0.53139 0.75832 0.20196 0.0
C2750 C 0.54243 0.7645 0.22305 0.0
C2751 C 0.57389 0.77818 0.42198 0.0
C2752 C 0.57423 0.76717 0.41968 0.0
C2753 C 0.57274 0.78372 0.38771 0.0
C2754 C 0.57179 0.77827 0.35074 0.0
C2755 C 0.57195 0.76719 0.34842 0.0
C2756 C 0.57326 0.76172 0.3826 0.0
C2757 C 0.57093 0.78427 0.3143 0.0
C2758 C 0.56026 0.77817 0.29122 0.0
C2759 C 0.58052 0.79598 0.30258 0.0
C2760 C 0.59213 0.80271 0.32536 0.0
C2761 C 0.59945 0.79734 0.33266 0.0
C2762 C 0.61034 0.80372 0.35438 0.0
C2763 C 0.61405 0.81552 0.3687 0.0
C2764 C 0.6069 0.82098 0.36122 0.0
C2765 C 0.59599 0.81463 0.33955 0.0
H2766 H 0.62249 0.82044 0.38549 0.0
H2767 H 0.51644 0.75958 0.17566 0.0
H2768 H 0.23322 0.79122 0.42664 0.0
H2769 H 0.22443 0.77927 0.36611 0.0
H2770 H 0.21865 0.80812 0.32049 0.0
H2771 H 0.2271 0.81991 0.38102 0.0
H2772 H 0.19909 0.78653 0.30769 0.0
H2773 H 0.24304 0.80435 0.29065 0.0
H2774 H 0.26377 0.80837 0.30876 0.0
H2775 H 0.2511 0.76962 0.30475 0.0
H2776 H 0.23024 0.76536 0.2871 0.0
H2777 H 0.19667 0.78157 0.10309 0.0
H2778 H 0.20526 0.78833 0.16901 0.0
H2779 H 0.19818 0.75176 0.19611 0.0
H2780 H 0.18936 0.74481 0.12989 0.0
H2781 H 0.2227 0.77352 0.22218 0.0
H2782 H 0.17888 0.7565 0.23145 0.0
H2783 H 0.15888 0.75364 0.20941 0.0
H2784 H 0.17214 0.79223 0.22555 0.0
H2785 H 0.1923 0.79535 0.24705 0.0
C2786 C 0.23004 0.79498 0.40367 0.0
C2787 C 0.23085 0.80649 0.40845 0.0
C2788 C 0.22507 0.78817 0.3691 0.0
C2789 C 0.22098 0.79285 0.33867 0.0
C2790 C 0.22172 0.80431 0.34363 0.0
C2791 C 0.22658 0.81105 0.37819 0.0
C2792 C 0.21589 0.78594 0.30144 0.0
C2793 C 0.20429 0.78372 0.28903 0.0
C2794 C 0.22252 0.78197 0.27751 0.0
C2795 C 0.23505 0.78452 0.28805 0.0
C2796 C 0.24465 0.79668 0.29396 0.0
C2797 C 0.25643 0.799 0.30407 0.0
C2798 C 0.25874 0.78925 0.30803 0.0
C2799 C 0.24929 0.77716 0.30176 0.0
C2800 C 0.23749 0.77479 0.29168 0.0
C2801 C 0.19707 0.77498 0.12281 0.0
C2802 C 0.19226 0.76264 0.11151 0.0
C2803 C 0.20198 0.77886 0.16042 0.0
C2804 C 0.20224 0.7705 0.1873 0.0
C2805 C 0.19803 0.75831 0.1756 0.0
C2806 C 0.19298 0.75437 0.13793 0.0
C2807 C 0.20613 0.77448 0.22834 0.0
C2808 C 0.21746 0.77612 0.24138 0.0
C2809 C 0.19932 0.77804 0.25278 0.0
C2810 C 0.18713 0.77617 0.2406 0.0
C2811 C 0.17756 0.76439 0.23003 0.0
C2812 C 0.16619 0.76272 0.21767 0.0
C2813 C 0.16425 0.77275 0.216 0.0
C2814 C 0.17366 0.78446 0.22683 0.0
C2815 C 0.18506 0.78619 0.23916 0.0
H2816 H 0.15545 0.77144 0.20638 0.0
H2817 H 0.26787 0.79107 0.31586 0.0
H2818 H 0.21397 0.41442 0.08614 0.0
H2819 H 0.20651 0.41721 0.1496 0.0
H2820 H 0.24392 0.44095 0.18823 0.0
H2821 H 0.25148 0.43796 0.12477 0.0
H2822 H 0.23115 0.42427 0.24293 0.0
H2823 H 0.2249 0.45265 0.16734 0.0
H2824 H 0.21789 0.46 0.11097 0.0
H2825 H 0.18041 0.43257 0.13512 0.0
H2826 H 0.1872 0.42493 0.19132 0.0
H2827 H 0.20837 0.4368 0.42099 0.0
H2828 H 0.21915 0.43958 0.35812 0.0
H2829 H 0.18474 0.4143 0.30193 0.0
H2830 H 0.17392 0.41156 0.36442 0.0
H2831 H 0.1982 0.43489 0.25769 0.0
H2832 H 0.20501 0.40522 0.32823 0.0
H2833 H 0.21211 0.39784 0.38433 0.0
H2834 H 0.24884 0.42819 0.36934 0.0
H2835 H 0.24192 0.43584 0.31343 0.0
C2836 C 0.22062 0.42036 0.10794 0.0
C2837 C 0.23331 0.42598 0.10053 0.0
C2838 C 0.21634 0.422 0.14416 0.0
C2839 C 0.22465 0.42941 0.17352 0.0
C2840 C 0.23734 0.43522 0.16593 0.0
C2841 C 0.24165 0.43354 0.12968 0.0
C2842 C 0.22002 0.43039 0.21286 0.0
C2843 C 0.22414 0.42686 0.24627 0.0
C2844 C 0.21073 0.43357 0.21713 0.0
C2845 C 0.20658 0.43817 0.18342 0.0
C2846 C 0.21517 0.44813 0.16048 0.0
C2847 C 0.21123 0.45235 0.12857 0.0
C2848 C 0.19871 0.44674 0.11943 0.0
C2849 C 0.1901 0.43691 0.14223 0.0
C2850 C 0.19399 0.43264 0.17416 0.0
C2851 C 0.20312 0.43182 0.39523 0.0
C2852 C 0.19032 0.42393 0.39758 0.0
C2853 C 0.20928 0.43341 0.35939 0.0
C2854 C 0.20274 0.4271 0.32545 0.0
C2855 C 0.18995 0.41928 0.32776 0.0
C2856 C 0.1838 0.41768 0.36352 0.0
C2857 C 0.20914 0.42851 0.28741 0.0
C2858 C 0.20535 0.4325 0.25433 0.0
C2859 C 0.21875 0.42579 0.28344 0.0
C2860 C 0.22292 0.42118 0.31698 0.0
C2861 C 0.21458 0.41038 0.33712 0.0
C2862 C 0.21858 0.40613 0.36883 0.0
C2863 C 0.23091 0.41257 0.38048 0.0
C2864 C 0.23929 0.42323 0.36034 0.0
C2865 C 0.23533 0.42752 0.32863 0.0
H2866 H 0.23399 0.40927 0.40503 0.0
H2867 H 0.19568 0.45003 0.09471 0.0
H2868 H 0.23045 0.44015 0.9231 0.0
H2869 H 0.22348 0.44503 0.86132 0.0
H2870 H 0.22493 0.41523 0.8029 0.0
H2871 H 0.23164 0.41018 0.86427 0.0
H2872 H 0.23665 0.43854 0.76118 0.0
H2873 H 0.19853 0.41019 0.82956 0.0
H2874 H 0.18412 0.40383 0.88578 0.0
H2875 H 0.182 0.43681 0.87399 0.0
H2876 H 0.19654 0.44344 0.81798 0.0
H2877 H 0.20059 0.41828 0.59122 0.0
H2878 H 0.21102 0.42174 0.65457 0.0
H2879 H 0.19819 0.44656 0.68873 0.0
H2880 H 0.18744 0.44288 0.62539 0.0
H2881 H 0.19402 0.43076 0.7457 0.0
H2882 H 0.22895 0.45744 0.66998 0.0
H2883 H 0.24346 0.46433 0.614 0.0
H2884 H 0.25232 0.43613 0.63969 0.0
H2885 H 0.23773 0.42895 0.69548 0.0
C2886 C 0.22924 0.43464 0.89705 0.0
C2887 C 0.23152 0.42476 0.89841 0.0
C2888 C 0.22528 0.43744 0.86191 0.0
C2889 C 0.22376 0.4305 0.82771 0.0
C2890 C 0.22613 0.42071 0.82902 0.0
C2891 C 0.22988 0.4178 0.86413 0.0
C2892 C 0.21946 0.43314 0.79038 0.0
C2893 C 0.22734 0.43685 0.75761 0.0
C2894 C 0.20748 0.43138 0.7864 0.0
C2895 C 0.19874 0.42739 0.81998 0.0
C2896 C 0.19508 0.41614 0.83922 0.0
C2897 C 0.18687 0.41247 0.87098 0.0
C2898 C 0.18218 0.41993 0.88355 0.0
C2899 C 0.18566 0.43106 0.86429 0.0
C2900 C 0.19388 0.43477 0.83254 0.0
C2901 C 0.20012 0.42461 0.61197 0.0
C2902 C 0.1932 0.4303 0.60342 0.0
C2903 C 0.20616 0.42664 0.64812 0.0
C2904 C 0.20553 0.43454 0.67624 0.0
C2905 C 0.19883 0.44047 0.6674 0.0
C2906 C 0.19273 0.43838 0.63123 0.0
C2907 C 0.21108 0.43576 0.7158 0.0
C2908 C 0.20345 0.43279 0.74915 0.0
C2909 C 0.22336 0.43833 0.72038 0.0
C2910 C 0.23218 0.44262 0.68685 0.0
C2911 C 0.23393 0.45265 0.66354 0.0
C2912 C 0.24218 0.45662 0.63186 0.0
C2913 C 0.2488 0.45066 0.62327 0.0
C2914 C 0.24719 0.44074 0.64639 0.0
C2915 C 0.23895 0.43673 0.67809 0.0
H2916 H 0.25518 0.45374 0.59872 0.0
H2917 H 0.17582 0.41708 0.90813 0.0
H2918 H 0.5775 0.79259 0.94621 0.0
H2919 H 0.5737 0.78008 0.88674 0.0
H2920 H 0.56714 0.80557 0.82023 0.0
H2921 H 0.57106 0.81822 0.87953 0.0
H2922 H 0.54956 0.77997 0.80669 0.0
H2923 H 0.59336 0.80795 0.80938 0.0
H2924 H 0.61404 0.81819 0.83933 0.0
H2925 H 0.61199 0.7832 0.85381 0.0
H2926 H 0.59119 0.77273 0.82446 0.0
H2927 H 0.55861 0.76716 0.6089 0.0
H2928 H 0.55743 0.77513 0.67353 0.0
H2929 H 0.56993 0.75234 0.72893 0.0
H2930 H 0.57141 0.74455 0.66417 0.0
H2931 H 0.58361 0.77533 0.75106 0.0
H2932 H 0.54044 0.74731 0.7434 0.0
H2933 H 0.51975 0.737 0.71349 0.0
H2934 H 0.52031 0.77148 0.70845 0.0
H2935 H 0.54109 0.78204 0.73784 0.0
C2936 C 0.57522 0.79551 0.91893 0.0
C2937 C 0.57464 0.8064 0.91734 0.0
C2938 C 0.57306 0.78836 0.88507 0.0
C2939 C 0.57017 0.79194 0.84924 0.0
C2940 C 0.56933 0.80267 0.84773 0.0
C2941 C 0.57164 0.80991 0.88148 0.0
C2942 C 0.56851 0.78473 0.81297 0.0
C2943 C 0.557 0.77901 0.79419 0.0
C2944 C 0.57816 0.78327 0.79752 0.0
C2945 C 0.59066 0.78954 0.81518 0.0
C2946 C 0.59726 0.80242 0.81931 0.0
C2947 C 0.60902 0.80827 0.8361 0.0
C2948 C 0.61431 0.80134 0.84858 0.0
C2949 C 0.60787 0.78855 0.8442 0.0
C2950 C 0.5961 0.78265 0.82748 0.0
C2951 C 0.56084 0.76364 0.63493 0.0
C2952 C 0.56519 0.7553 0.63153 0.0
C2953 C 0.56011 0.76816 0.6719 0.0
C2954 C 0.56357 0.76431 0.7061 0.0
C2955 C 0.56726 0.75546 0.7029 0.0
C2956 C 0.56806 0.75099 0.66592 0.0
C2957 C 0.56461 0.77048 0.74441 0.0
C2958 C 0.57606 0.7761 0.76361 0.0
C2959 C 0.55488 0.77179 0.76022 0.0
C2960 C 0.54237 0.76548 0.74254 0.0
C2961 C 0.5362 0.75271 0.73563 0.0
C2962 C 0.52444 0.74682 0.71882 0.0
C2963 C 0.51873 0.75359 0.709 0.0
C2964 C 0.52475 0.76626 0.71605 0.0
C2965 C 0.53651 0.7722 0.73283 0.0
H2966 H 0.50963 0.74901 0.69599 0.0
H2967 H 0.62342 0.80589 0.86155 0.0
H2968 H 0.17943 0.75432 0.86541 0.0
H2969 H 0.192 0.76303 0.80616 0.0
H2970 H 0.22292 0.78769 0.87845 0.0
H2971 H 0.2104 0.77893 0.93803 0.0
H2972 H 0.21812 0.79928 0.81583 0.0
H2973 H 0.22402 0.76492 0.83632 0.0
H2974 H 0.21766 0.74317 0.84873 0.0
H2975 H 0.19721 0.73272 0.74022 0.0
H2976 H 0.20329 0.75439 0.72743 0.0
H2977 H 0.25532 0.82249 0.64612 0.0
H2978 H 0.24888 0.81257 0.71084 0.0
H2979 H 0.21618 0.78277 0.65834 0.0
H2980 H 0.22271 0.79245 0.59358 0.0
H2981 H 0.22471 0.77428 0.71551 0.0
H2982 H 0.21608 0.80745 0.69941 0.0
H2983 H 0.22178 0.82891 0.68524 0.0
H2984 H 0.24615 0.84123 0.78514 0.0
H2985 H 0.24081 0.81982 0.79928 0.0
C2986 C 0.18892 0.76156 0.86869 0.0
C2987 C 0.19395 0.76597 0.90626 0.0
C2988 C 0.1961 0.76647 0.83488 0.0
C2989 C 0.20841 0.77591 0.83805 0.0
C2990 C 0.21345 0.78036 0.8755 0.0
C2991 C 0.20631 0.77536 0.90941 0.0
C2992 C 0.21576 0.78147 0.80198 0.0
C2993 C 0.21981 0.7939 0.79426 0.0
C2994 C 0.21769 0.77433 0.77359 0.0
C2995 C 0.21404 0.76128 0.78107 0.0
C2996 C 0.21808 0.75798 0.81525 0.0
C2997 C 0.21454 0.74566 0.82233 0.0
C2998 C 0.20702 0.73657 0.79532 0.0
C2999 C 0.20303 0.73978 0.76113 0.0
C3000 C 0.20654 0.75208 0.75393 0.0
C3001 C 0.24687 0.81371 0.64832 0.0
C3002 C 0.23943 0.8083 0.61496 0.0
C3003 C 0.24319 0.80807 0.68528 0.0
C3004 C 0.23194 0.79705 0.68948 0.0
C3005 C 0.22488 0.79128 0.65578 0.0
C3006 C 0.2286 0.79686 0.61882 0.0
C3007 C 0.22691 0.79205 0.72911 0.0
C3008 C 0.22324 0.77972 0.73743 0.0
C3009 C 0.22519 0.79923 0.75794 0.0
C3010 C 0.22817 0.81206 0.7501 0.0
C3011 C 0.22271 0.81474 0.71821 0.0
C3012 C 0.22588 0.8269 0.71019 0.0
C3013 C 0.23434 0.83645 0.73426 0.0
C3014 C 0.23962 0.83384 0.76648 0.0
C3015 C 0.23654 0.82169 0.77448 0.0
H3016 H 0.23681 0.84587 0.72798 0.0
H3017 H 0.20429 0.72704 0.80084 0.0
H3018 H 0.08694 0.54586 0.8842 0.0
H3019 H 0.0897 0.53583 0.94232 0.0
H3020 H 0.10262 0.56934 0.00915 0.0
H3021 H 0.09973 0.57937 0.9514 0.0
H3022 H 0.11675 0.55707 0.01988 0.0
H3023 H 0.07475 0.54896 0.0218 0.0
H3024 H 0.05411 0.5416 0.99349 0.0
H3025 H 0.04927 0.5054 0.9798 0.0
H3026 H 0.06998 0.51261 0.0075 0.0
H3027 H 0.10639 0.53874 0.22055 0.0
H3028 H 0.10846 0.54715 0.15416 0.0
H3029 H 0.08944 0.51034 0.10617 0.0
H3030 H 0.08711 0.50187 0.17272 0.0
H3031 H 0.07924 0.52293 0.08114 0.0
H3032 H 0.1202 0.53021 0.08676 0.0
H3033 H 0.14083 0.53742 0.11479 0.0
H3034 H 0.14795 0.57465 0.11379 0.0
H3035 H 0.12728 0.56765 0.08627 0.0
C3036 C 0.09044 0.5511 0.91122 0.0
C3037 C 0.09304 0.56335 0.91347 0.0
C3038 C 0.09202 0.54537 0.94429 0.0
C3039 C 0.09635 0.55187 0.97989 0.0
C3040 C 0.09932 0.56422 0.98183 0.0
C3041 C 0.09758 0.56989 0.94895 0.0
C3042 C 0.09707 0.5456 0.01586 0.0
C3043 C 0.10857 0.54965 0.03353 0.0
C3044 C 0.08641 0.53571 0.03281 0.0
C3045 C 0.07396 0.53136 0.01623 0.0
C3046 C 0.06933 0.53946 0.01239 0.0
C3047 C 0.05762 0.53531 0.99653 0.0
C3048 C 0.0504 0.52305 0.98473 0.0
C3049 C 0.05488 0.5149 0.98887 0.0
C3050 C 0.0666 0.51902 0.00465 0.0
C3051 C 0.10286 0.53245 0.19578 0.0
C3052 C 0.09652 0.51965 0.20179 0.0
C3053 C 0.1041 0.53726 0.15779 0.0
C3054 C 0.09915 0.52937 0.12514 0.0
C3055 C 0.09331 0.5166 0.13095 0.0
C3056 C 0.09202 0.51177 0.16896 0.0
C3057 C 0.09896 0.53443 0.08574 0.0
C3058 C 0.0875 0.5302 0.06736 0.0
C3059 C 0.10969 0.5441 0.06813 0.0
C3060 C 0.12214 0.54838 0.08472 0.0
C3061 C 0.12612 0.53992 0.09281 0.0
C3062 C 0.13783 0.54398 0.10856 0.0
C3063 C 0.14568 0.55649 0.11614 0.0
C3064 C 0.14185 0.56497 0.10792 0.0
C3065 C 0.13014 0.56096 0.0922 0.0
H3066 H 0.15475 0.55961 0.12833 0.0
H3067 H 0.04133 0.51985 0.97247 0.0
H3068 H 0.43708 0.5436 0.89527 0.0
H3069 H 0.44385 0.55607 0.95589 0.0
H3070 H 0.43578 0.52371 0.02335 0.0
H3071 H 0.42917 0.51131 0.96339 0.0
H3072 H 0.42666 0.53818 0.05754 0.0
H3073 H 0.46428 0.54268 -0.00154 0.0
H3074 H 0.47954 0.54868 0.94484 0.0
H3075 H 0.48606 0.58569 0.94905 0.0
H3076 H 0.4707 0.57985 0.00238 0.0
H3077 H 0.45984 0.55137 0.2334 0.0
H3078 H 0.44976 0.54492 0.16932 0.0
H3079 H 0.46793 0.58279 0.13073 0.0
H3080 H 0.47836 0.58928 0.19467 0.0
H3081 H 0.47061 0.56941 0.07757 0.0
H3082 H 0.4362 0.5661 0.14577 0.0
H3083 H 0.42101 0.56043 0.19937 0.0
H3084 H 0.40797 0.52212 0.17798 0.0
H3085 H 0.42321 0.52755 0.12461 0.0
C3086 C 0.43678 0.53919 0.92307 0.0
C3087 C 0.43267 0.52651 0.92466 0.0
C3088 C 0.44062 0.54629 0.95757 0.0
C3089 C 0.44025 0.54077 0.99398 0.0
C3090 C 0.43604 0.52811 0.99554 0.0
C3091 C 0.43236 0.52107 0.9612 0.0
C3092 C 0.44459 0.54806 0.03072 0.0
C3093 C 0.43626 0.54503 0.06209 0.0
C3094 C 0.457 0.5573 0.03593 0.0
C3095 C 0.46624 0.56079 0.00398 0.0
C3096 C 0.46889 0.55206 0.98768 0.0
C3097 C 0.47757 0.55544 0.95741 0.0
C3098 C 0.48373 0.56755 0.94345 0.0
C3099 C 0.48126 0.57631 0.95982 0.0
C3100 C 0.47257 0.57297 0.99007 0.0
C3101 C 0.46154 0.55835 0.21151 0.0
C3102 C 0.46991 0.57082 0.21894 0.0
C3103 C 0.45571 0.55466 0.17493 0.0
C3104 C 0.45796 0.56339 0.14531 0.0
C3105 C 0.46603 0.5759 0.15316 0.0
C3106 C 0.47196 0.57959 0.18969 0.0
C3107 C 0.45277 0.55924 0.10521 0.0
C3108 C 0.46093 0.56284 0.07307 0.0
C3109 C 0.44015 0.5506 0.09924 0.0
C3110 C 0.43091 0.54725 0.13125 0.0
C3111 C 0.43015 0.55647 0.15264 0.0
C3112 C 0.42152 0.5533 0.18297 0.0
C3113 C 0.41354 0.54093 0.1921 0.0
C3114 C 0.41416 0.5317 0.17086 0.0
C3115 C 0.42278 0.53482 0.14051 0.0
H3116 H 0.40686 0.53849 0.21561 0.0
H3117 H 0.49046 0.57015 0.92002 0.0
H3118 H 0.45585 0.88547 0.91579 0.0
H3119 H 0.44616 0.88395 0.97993 0.0
H3120 H 0.47747 0.91851 0.01524 0.0
H3121 H 0.48725 0.92002 0.9514 0.0
H3122 H 0.47013 0.90118 0.07334 0.0
H3123 H 0.4512 0.91719 0.9847 0.0
H3124 H 0.43969 0.91684 0.9252 0.0
H3125 H 0.40889 0.88242 0.962 0.0
H3126 H 0.42029 0.88248 0.0215 0.0
H3127 H 0.44919 0.92329 0.22737 0.0
H3128 H 0.45695 0.91955 0.16604 0.0
H3129 H 0.42237 0.88602 0.14819 0.0
H3130 H 0.41443 0.88984 0.20962 0.0
H3131 H 0.42987 0.89959 0.08202 0.0
H3132 H 0.44786 0.88475 0.17472 0.0
H3133 H 0.45927 0.88511 0.23444 0.0
H3134 H 0.4917 0.91692 0.19064 0.0
H3135 H 0.48043 0.91687 0.13089 0.0
C3136 C 0.46066 0.89273 0.93725 0.0
C3137 C 0.47227 0.90289 0.9286 0.0
C3138 C 0.45511 0.89186 0.97381 0.0
C3139 C 0.46107 0.90116 0.00216 0.0
C3140 C 0.47273 0.91123 0.99374 0.0
C3141 C 0.47828 0.91211 0.95723 0.0
C3142 C 0.45513 0.90056 0.04053 0.0
C3143 C 0.46137 0.90092 0.07532 0.0
C3144 C 0.44351 0.89979 0.04296 0.0
C3145 C 0.43664 0.89977 0.00728 0.0
C3146 C 0.44201 0.9095 0.97993 0.0
C3147 C 0.4355 0.90936 0.94624 0.0
C3148 C 0.42358 0.8996 0.93976 0.0
C3149 C 0.41813 0.88997 0.96702 0.0
C3150 C 0.42461 0.89005 0.00073 0.0
C3151 C 0.44325 0.91507 0.21057 0.0
C3152 C 0.43121 0.90684 0.22327 0.0
C3153 C 0.44773 0.9129 0.17562 0.0
C3154 C 0.4403 0.90241 0.15284 0.0
C3155 C 0.42827 0.89414 0.16547 0.0
C3156 C 0.42376 0.89632 0.20053 0.0
C3157 C 0.44501 0.90051 0.11494 0.0
C3158 C 0.43855 0.89967 0.08018 0.0
C3159 C 0.45642 0.9008 0.11255 0.0
C3160 C 0.46326 0.90085 0.14841 0.0
C3161 C 0.4574 0.89188 0.17794 0.0
C3162 C 0.46385 0.89202 0.21178 0.0
C3163 C 0.4762 0.90104 0.21636 0.0
C3164 C 0.48213 0.90994 0.18706 0.0
C3165 C 0.47572 0.90985 0.15316 0.0
H3166 H 0.48118 0.90114 0.24259 0.0
H3167 H 0.41855 0.89951 0.91367 0.0
H3168 H 0.21676 0.37298 0.00648 0.0
H3169 H 0.20971 0.35214 0.03011 0.0
H3170 H 0.24514 0.36429 0.08399 0.0
H3171 H 0.25219 0.38532 0.06103 0.0
H3172 H 0.21682 0.33601 0.01663 0.0
H3173 H 0.24042 0.3473 0.16906 0.0
H3174 H 0.24843 0.36394 0.21873 0.0
H3175 H 0.22282 0.37492 0.17917 0.0
H3176 H 0.21456 0.35826 0.12965 0.0
H3177 H 0.20165 0.27872 0.09917 0.0
H3178 H 0.21497 0.30044 0.0823 0.0
H3179 H 0.19307 0.31009 0.15635 0.0
H3180 H 0.17992 0.28846 0.17404 0.0
H3181 H 0.2168 0.32759 0.15988 0.0
H3182 H 0.1869 0.30466 0.05839 0.0
H3183 H 0.17648 0.28786 0.00995 0.0
H3184 H 0.2107 0.3002 0.94891 0.0
H3185 H 0.22135 0.31698 0.99737 0.0
C3186 C 0.22307 0.37122 0.02323 0.0
C3187 C 0.235 0.38077 0.03209 0.0
C3188 C 0.21905 0.35929 0.0366 0.0
C3189 C 0.22687 0.35668 0.05906 0.0
C3190 C 0.23891 0.36614 0.06714 0.0
C3191 C 0.24293 0.37813 0.05391 0.0
C3192 C 0.22217 0.34406 0.07459 0.0
C3193 C 0.21694 0.33419 0.04792 0.0
C3194 C 0.2222 0.34167 0.11545 0.0
C3195 C 0.227 0.35164 0.14535 0.0
C3196 C 0.23649 0.35326 0.17105 0.0
C3197 C 0.24107 0.36269 0.19916 0.0
C3198 C 0.23617 0.37051 0.202 0.0
C3199 C 0.22664 0.36889 0.17683 0.0
C3200 C 0.22202 0.35946 0.14871 0.0
C3201 C 0.19983 0.28551 0.11243 0.0
C3202 C 0.18966 0.28191 0.13748 0.0
C3203 C 0.20743 0.2979 0.10274 0.0
C3204 C 0.20487 0.30684 0.11754 0.0
C3205 C 0.1952 0.30334 0.14456 0.0
C3206 C 0.18766 0.29097 0.1545 0.0
C3207 C 0.21136 0.31957 0.10193 0.0
C3208 C 0.21694 0.32945 0.12853 0.0
C3209 C 0.21135 0.32198 0.06108 0.0
C3210 C 0.20494 0.31198 0.03172 0.0
C3211 C 0.19221 0.30374 0.03478 0.0
C3212 C 0.18626 0.29423 0.00732 0.0
C3213 C 0.19293 0.29294 0.97644 0.0
C3214 C 0.20555 0.30119 0.97289 0.0
C3215 C 0.21155 0.31071 0.00033 0.0
H3216 H 0.18831 0.28557 0.9552 0.0
H3217 H 0.23973 0.37781 0.22376 0.0
H3218 H 0.71875 0.88183 0.10194 0.0
H3219 H 0.6972 0.872 0.08107 0.0
H3220 H 0.69895 0.90722 0.08281 0.0
H3221 H 0.72059 0.91716 0.10322 0.0
H3222 H 0.6783 0.888 0.12306 0.0
H3223 H 0.69816 0.89609 0.99693 0.0
H3224 H 0.71253 0.89604 0.94743 0.0
H3225 H 0.69395 0.85656 0.95138 0.0
H3226 H 0.67947 0.85637 0.00111 0.0
H3227 H 0.61954 0.86607 0.03734 0.0
H3228 H 0.64175 0.8781 0.0486 0.0
H3229 H 0.64443 0.84536 0.03352 0.0
H3230 H 0.62226 0.83333 0.02138 0.0
H3231 H 0.66321 0.86457 0.99781 0.0
H3232 H 0.64388 0.85634 0.12545 0.0
H3233 H 0.62964 0.85617 0.17603 0.0
H3234 H 0.6475 0.89561 0.17119 0.0
H3235 H 0.66174 0.896 0.12015 0.0
C3236 C 0.71455 0.88748 0.09775 0.0
C3237 C 0.72131 0.90025 0.1042 0.0
C3238 C 0.70228 0.88187 0.0857 0.0
C3239 C 0.69655 0.88892 0.08024 0.0
C3240 C 0.70325 0.90166 0.08682 0.0
C3241 C 0.71559 0.90731 0.09837 0.0
C3242 C 0.68344 0.88286 0.06871 0.0
C3243 C 0.675 0.88305 0.09538 0.0
C3244 C 0.67918 0.87619 0.03304 0.0
C3245 C 0.6878 0.87623 0.003 0.0
C3246 C 0.69719 0.8874 0.98746 0.0
C3247 C 0.70535 0.88742 0.9593 0.0
C3248 C 0.70421 0.87631 0.94639 0.0
C3249 C 0.69484 0.86516 0.96145 0.0
C3250 C 0.68663 0.86509 0.98955 0.0
C3251 C 0.62488 0.86146 0.03617 0.0
C3252 C 0.61917 0.84876 0.02876 0.0
C3253 C 0.63756 0.86833 0.04274 0.0
C3254 C 0.64471 0.86258 0.04249 0.0
C3255 C 0.63908 0.84997 0.03392 0.0
C3256 C 0.62641 0.84311 0.02712 0.0
C3257 C 0.658 0.86963 0.0523 0.0
C3258 C 0.66649 0.86959 0.02536 0.0
C3259 C 0.66231 0.8764 0.08789 0.0
C3260 C 0.65378 0.87619 0.11868 0.0
C3261 C 0.64471 0.86497 0.13495 0.0
C3262 C 0.63665 0.86483 0.16374 0.0
C3263 C 0.63764 0.87587 0.17673 0.0
C3264 C 0.64672 0.88707 0.16104 0.0
C3265 C 0.6548 0.88725 0.1322 0.0
H3266 H 0.6314 0.87574 0.19902 0.0
H3267 H 0.71056 0.87635 0.92465 0.0
H3268 H 0.14396 0.7567 0.08876 0.0
H3269 H 0.13165 0.76623 0.10508 0.0
H3270 H 0.13698 0.78104 0.98701 0.0
H3271 H 0.14964 0.77183 0.97093 0.0
H3272 H 0.14099 0.79815 0.03772 0.0
H3273 H 0.10877 0.75673 0.01927 0.0
H3274 H 0.09755 0.73421 0.0283 0.0
H3275 H 0.09345 0.73879 0.15203 0.0
H3276 H 0.1048 0.76136 0.14386 0.0
H3277 H 0.09701 0.81772 0.05454 0.0
H3278 H 0.1061 0.80526 0.0345 0.0
H3279 H 0.10894 0.79724 0.15663 0.0
H3280 H 0.09999 0.80986 0.17702 0.0
H3281 H 0.09997 0.77632 0.10209 0.0
H3282 H 0.13331 0.81815 0.11863 0.0
H3283 H 0.14397 0.84055 0.10713 0.0
H3284 H 0.14515 0.83468 0.98263 0.0
H3285 H 0.13433 0.81221 0.99336 0.0
C3286 C 0.1424 0.76188 0.06615 0.0
C3287 C 0.14775 0.76352 0.02856 0.0
C3288 C 0.1353 0.76728 0.07546 0.0
C3289 C 0.13325 0.77424 0.04714 0.0
C3290 C 0.13843 0.7757 0.00934 0.0
C3291 C 0.14563 0.77041 0.00014 0.0
C3292 C 0.1263 0.78056 0.05766 0.0
C3293 C 0.13193 0.7933 0.05115 0.0
C3294 C 0.11457 0.77432 0.07594 0.0
C3295 C 0.10773 0.76075 0.081 0.0
C3296 C 0.10556 0.75294 0.04847 0.0
C3297 C 0.09917 0.74016 0.05342 0.0
C3298 C 0.09482 0.73507 0.09073 0.0
C3299 C 0.09684 0.74275 0.12315 0.0
C3300 C 0.10324 0.75554 0.11837 0.0
C3301 C 0.09946 0.81321 0.07712 0.0
C3302 C 0.09786 0.8148 0.11736 0.0
C3303 C 0.10465 0.80611 0.06563 0.0
C3304 C 0.10823 0.8004 0.09413 0.0
C3305 C 0.10621 0.80157 0.13425 0.0
C3306 C 0.10115 0.80881 0.14583 0.0
C3307 C 0.1147 0.79379 0.08207 0.0
C3308 C 0.109 0.78106 0.0884 0.0
C3309 C 0.1263 0.79999 0.06321 0.0
C3310 C 0.13289 0.8135 0.05675 0.0
C3311 C 0.13575 0.82163 0.08877 0.0
C3312 C 0.14184 0.83434 0.0824 0.0
C3313 C 0.1452 0.83904 0.04416 0.0
C3314 C 0.14252 0.83103 0.01223 0.0
C3315 C 0.13642 0.8183 0.01844 0.0
H3316 H 0.14992 0.84888 0.03928 0.0
H3317 H 0.08987 0.72518 0.09451 0.0
H3318 H 0.28313 0.19616 0.38767 0.0
H3319 H 0.30505 0.20782 0.40416 0.0
H3320 H 0.30844 0.17597 0.37794 0.0
H3321 H 0.2865 0.1642 0.36215 0.0
H3322 H 0.31987 0.18649 0.4453 0.0
H3323 H 0.31884 0.20036 0.31355 0.0
H3324 H 0.31198 0.20916 0.26094 0.0
H3325 H 0.32522 0.24255 0.32763 0.0
H3326 H 0.33202 0.23388 0.3809 0.0
H3327 H 0.38446 0.21427 0.43236 0.0
H3328 H 0.36254 0.20378 0.41638 0.0
H3329 H 0.36112 0.23634 0.44845 0.0
H3330 H 0.38314 0.24697 0.46417 0.0
H3331 H 0.34862 0.22609 0.38016 0.0
H3332 H 0.35015 0.21246 0.51103 0.0
H3333 H 0.35709 0.20373 0.56359 0.0
H3334 H 0.3429 0.16991 0.49868 0.0
H3335 H 0.33602 0.17851 0.44543 0.0
C3336 C 0.28856 0.19166 0.38534 0.0
C3337 C 0.28312 0.17928 0.37355 0.0
C3338 C 0.30109 0.19834 0.39462 0.0
C3339 C 0.30841 0.1928 0.39187 0.0
C3340 C 0.30296 0.18043 0.38024 0.0
C3341 C 0.29044 0.17373 0.37112 0.0
C3342 C 0.3217 0.19982 0.4017 0.0
C3343 C 0.32618 0.19507 0.43069 0.0
C3344 C 0.32987 0.21119 0.38344 0.0
C3345 C 0.32582 0.21643 0.35138 0.0
C3346 C 0.3202 0.20954 0.31713 0.0
C3347 C 0.31634 0.21451 0.28717 0.0
C3348 C 0.31813 0.22639 0.29099 0.0
C3349 C 0.32382 0.23334 0.32474 0.0
C3350 C 0.32769 0.22841 0.35481 0.0
C3351 C 0.37948 0.21921 0.43603 0.0
C3352 C 0.38548 0.23141 0.44979 0.0
C3353 C 0.36696 0.21319 0.42698 0.0
C3354 C 0.36017 0.21924 0.43176 0.0
C3355 C 0.36619 0.23151 0.4447 0.0
C3356 C 0.37874 0.23755 0.45375 0.0
C3357 C 0.34679 0.21268 0.42339 0.0
C3358 C 0.34229 0.21752 0.3948 0.0
C3359 C 0.3386 0.20139 0.442 0.0
C3360 C 0.34267 0.19617 0.47407 0.0
C3361 C 0.34859 0.2032 0.50781 0.0
C3362 C 0.3525 0.19827 0.53776 0.0
C3363 C 0.35046 0.18628 0.53444 0.0
C3364 C 0.34448 0.1792 0.50119 0.0
C3365 C 0.34057 0.18409 0.47114 0.0
H3366 H 0.35349 0.18248 0.55765 0.0
H3367 H 0.31513 0.23022 0.26776 0.0
H3368 H 0.74588 0.13441 0.45812 0.0
H3369 H 0.75492 0.1222 0.43445 0.0
H3370 H 0.78913 0.15555 0.41082 0.0
H3371 H 0.78022 0.16781 0.43489 0.0
H3372 H 0.78095 0.13731 0.34914 0.0
H3373 H 0.78745 0.14119 0.49106 0.0
H3374 H 0.78055 0.13908 0.56028 0.0
H3375 H 0.75722 0.10012 0.54429 0.0
H3376 H 0.76385 0.10203 0.47475 0.0
H3377 H 0.82555 0.11927 0.33571 0.0
H3378 H 0.81299 0.12856 0.35103 0.0
H3379 H 0.78425 0.0937 0.3957 0.0
H3380 H 0.79705 0.08446 0.38175 0.0
H3381 H 0.78735 0.11089 0.44406 0.0
H3382 H 0.78173 0.106 0.30515 0.0
H3383 H 0.78768 0.10741 0.23512 0.0
H3384 H 0.80774 0.14686 0.24288 0.0
H3385 H 0.80206 0.1457 0.31315 0.0
C3386 C 0.75531 0.13913 0.4477 0.0
C3387 C 0.76239 0.15204 0.44856 0.0
C3388 C 0.76044 0.13215 0.43425 0.0
C3389 C 0.77269 0.138 0.4211 0.0
C3390 C 0.77966 0.15089 0.42086 0.0
C3391 C 0.77458 0.15787 0.43478 0.0
C3392 C 0.77843 0.1307 0.40895 0.0
C3393 C 0.78245 0.13159 0.36984 0.0
C3394 C 0.77995 0.12293 0.43576 0.0
C3395 C 0.77603 0.12177 0.4776 0.0
C3396 C 0.78077 0.13219 0.50221 0.0
C3397 C 0.77692 0.13103 0.54152 0.0
C3398 C 0.76842 0.11948 0.55664 0.0
C3399 C 0.76378 0.10906 0.53251 0.0
C3400 C 0.76758 0.11018 0.49316 0.0
C3401 C 0.81652 0.11356 0.34855 0.0
C3402 C 0.81226 0.10114 0.35749 0.0
C3403 C 0.8093 0.11886 0.35706 0.0
C3404 C 0.79757 0.11179 0.37389 0.0
C3405 C 0.79326 0.09933 0.38259 0.0
C3406 C 0.80056 0.09406 0.37456 0.0
C3407 C 0.79011 0.1176 0.38413 0.0
C3408 C 0.78575 0.11645 0.42299 0.0
C3409 C 0.78812 0.125 0.35686 0.0
C3410 C 0.79154 0.12575 0.31454 0.0
C3411 C 0.78749 0.11498 0.29202 0.0
C3412 C 0.7908 0.11573 0.25226 0.0
C3413 C 0.7981 0.12721 0.23459 0.0
C3414 C 0.80209 0.13797 0.25662 0.0
C3415 C 0.79881 0.13727 0.29641 0.0
H3416 H 0.80066 0.12778 0.2038 0.0
H3417 H 0.76546 0.1186 0.58709 0.0
H3418 H 0.88669 0.70893 0.31771 0.0
H3419 H 0.87654 0.6873 0.33711 0.0
H3420 H 0.90492 0.69575 0.42371 0.0
H3421 H 0.915 0.71751 0.40497 0.0
H3422 H 0.88252 0.66981 0.33782 0.0
H3423 H 0.89164 0.67803 0.50535 0.0
H3424 H 0.89573 0.69402 0.55511 0.0
H3425 H 0.8765 0.70736 0.48408 0.0
H3426 H 0.87216 0.69136 0.4342 0.0
H3427 H 0.86111 0.6118 0.43169 0.0
H3428 H 0.8741 0.63327 0.4113 0.0
H3429 H 0.8474 0.64199 0.4586 0.0
H3430 H 0.83455 0.62065 0.4798 0.0
H3431 H 0.86972 0.65934 0.47772 0.0
H3432 H 0.84933 0.63777 0.35901 0.0
H3433 H 0.84304 0.6218 0.3076 0.0
H3434 H 0.88094 0.63516 0.27806 0.0
H3435 H 0.88746 0.65112 0.32969 0.0
C3436 C 0.89083 0.70617 0.34066 0.0
C3437 C 0.90157 0.71491 0.36009 0.0
C3438 C 0.88504 0.6938 0.35161 0.0
C3439 C 0.88989 0.68994 0.38216 0.0
C3440 C 0.90092 0.69857 0.40046 0.0
C3441 C 0.90669 0.71098 0.38966 0.0
C3442 C 0.88302 0.67701 0.39601 0.0
C3443 C 0.87979 0.66752 0.36846 0.0
C3444 C 0.87928 0.67402 0.43584 0.0
C3445 C 0.88171 0.68359 0.46586 0.0
C3446 C 0.88826 0.68436 0.50043 0.0
C3447 C 0.89062 0.69342 0.52864 0.0
C3448 C 0.88642 0.70173 0.52269 0.0
C3449 C 0.87979 0.70095 0.48859 0.0
C3450 C 0.87739 0.6919 0.46032 0.0
C3451 C 0.85804 0.61831 0.43778 0.0
C3452 C 0.84681 0.61456 0.4572 0.0
C3453 C 0.86544 0.63056 0.42604 0.0
C3454 C 0.86166 0.63921 0.4331 0.0
C3455 C 0.85052 0.63548 0.45292 0.0
C3456 C 0.84316 0.62327 0.46488 0.0
C3457 C 0.86919 0.65212 0.41953 0.0
C3458 C 0.87257 0.66162 0.44717 0.0
C3459 C 0.87278 0.65511 0.37957 0.0
C3460 C 0.86888 0.64554 0.34849 0.0
C3461 C 0.85632 0.63724 0.34176 0.0
C3462 C 0.85272 0.6282 0.31255 0.0
C3463 C 0.86159 0.62744 0.28966 0.0
C3464 C 0.87408 0.63574 0.29586 0.0
C3465 C 0.87774 0.64479 0.32507 0.0
H3466 H 0.85877 0.62044 0.26705 0.0
H3467 H 0.88826 0.70874 0.54455 0.0
H3468 H 0.81032 0.72374 0.93684 0.0
H3469 H 0.79673 0.70286 0.96176 0.0
H3470 H 0.7959 0.68806 0.84609 0.0
H3471 H 0.80963 0.70887 0.82109 0.0
H3472 H 0.77219 0.67735 0.88731 0.0
H3473 H 0.81487 0.6877 0.90704 0.0
H3474 H 0.83587 0.70078 0.93302 0.0
H3475 H 0.82155 0.69576 0.05099 0.0
H3476 H 0.80043 0.68279 0.02558 0.0
H3477 H 0.75562 0.61533 0.91216 0.0
H3478 H 0.76416 0.63706 0.89646 0.0
H3479 H 0.77177 0.64623 0.02008 0.0
H3480 H 0.76379 0.62447 0.03557 0.0
H3481 H 0.79067 0.66086 0.98152 0.0
H3482 H 0.74855 0.64869 0.96611 0.0
H3483 H 0.72711 0.63619 0.94314 0.0
H3484 H 0.73909 0.64512 0.82277 0.0
H3485 H 0.76063 0.65754 0.84495 0.0
C3486 C 0.80713 0.71604 0.91664 0.0
C3487 C 0.81108 0.71789 0.87711 0.0
C3488 C 0.79938 0.70415 0.93091 0.0
C3489 C 0.79537 0.69397 0.90572 0.0
C3490 C 0.79889 0.69583 0.86587 0.0
C3491 C 0.80677 0.7077 0.85173 0.0
C3492 C 0.78823 0.68131 0.92136 0.0
C3493 C 0.77619 0.67366 0.90777 0.0
C3494 C 0.79336 0.67674 0.94911 0.0
C3495 C 0.80607 0.68441 0.96437 0.0
C3496 C 0.81619 0.68947 0.93847 0.0
C3497 C 0.82811 0.69685 0.9531 0.0
C3498 C 0.83004 0.69913 0.99362 0.0
C3499 C 0.82004 0.69401 0.0196 0.0
C3500 C 0.8081 0.68664 0.00511 0.0
C3501 C 0.75895 0.62196 0.93604 0.0
C3502 C 0.75906 0.61824 0.97506 0.0
C3503 C 0.76376 0.6344 0.92709 0.0
C3504 C 0.76846 0.64333 0.95713 0.0
C3505 C 0.76821 0.63954 0.99636 0.0
C3506 C 0.76362 0.62711 0.00522 0.0
C3507 C 0.77454 0.65664 0.94709 0.0
C3508 C 0.78646 0.66448 0.96163 0.0
C3509 C 0.76918 0.66143 0.92077 0.0
C3510 C 0.75623 0.65399 0.90722 0.0
C3511 C 0.74663 0.64792 0.93472 0.0
C3512 C 0.73445 0.64086 0.92184 0.0
C3513 C 0.73174 0.63985 0.88152 0.0
C3514 C 0.7412 0.64591 0.85399 0.0
C3515 C 0.75339 0.65298 0.86671 0.0
H3516 H 0.72231 0.63437 0.8716 0.0
H3517 H 0.83927 0.70485 0.00489 0.0
H3518 H 0.37418 0.15174 0.01445 0.0
H3519 H 0.35251 0.13944 0.99539 0.0
H3520 H 0.36309 0.12922 0.88684 0.0
H3521 H 0.38478 0.14145 0.90578 0.0
H3522 H 0.34675 0.138 0.87624 0.0
H3523 H 0.35026 0.10829 0.95617 0.0
H3524 H 0.35561 0.10077 0.01601 0.0
H3525 H 0.33025 0.10686 0.08408 0.0
H3526 H 0.32488 0.11458 0.02474 0.0
H3527 H 0.28528 0.09682 0.81741 0.0
H3528 H 0.30705 0.10554 0.83425 0.0
H3529 H 0.29936 0.11163 0.95386 0.0
H3530 H 0.27754 0.10237 0.93759 0.0
H3531 H 0.31472 0.10386 0.95626 0.0
H3532 H 0.31236 0.13512 0.88056 0.0
H3533 H 0.30727 0.14374 0.82286 0.0
H3534 H 0.33061 0.13611 0.74957 0.0
H3535 H 0.33571 0.1273 0.80676 0.0
C3536 C 0.37188 0.14678 0.9867 0.0
C3537 C 0.38115 0.14753 0.9616 0.0
C3538 C 0.35951 0.13973 0.97592 0.0
C3539 C 0.35623 0.13338 0.93982 0.0
C3540 C 0.36546 0.13404 0.91485 0.0
C3541 C 0.37782 0.14099 0.92578 0.0
C3542 C 0.34319 0.12651 0.92741 0.0
C3543 C 0.33975 0.13039 0.89331 0.0
C3544 C 0.33408 0.11683 0.95035 0.0
C3545 C 0.33725 0.11212 0.98605 0.0
C3546 C 0.3459 0.10812 0.98396 0.0
C3547 C 0.34892 0.1038 0.01778 0.0
C3548 C 0.3433 0.10336 0.05384 0.0
C3549 C 0.33461 0.10721 0.05613 0.0
C3550 C 0.33156 0.11155 0.0224 0.0
C3551 C 0.28826 0.09999 0.8473 0.0
C3552 C 0.27977 0.09898 0.87617 0.0
C3553 C 0.3007 0.10503 0.85686 0.0
C3554 C 0.3049 0.10946 0.89518 0.0
C3555 C 0.29636 0.10828 0.92412 0.0
C3556 C 0.2839 0.10303 0.91477 0.0
C3557 C 0.31819 0.11545 0.90525 0.0
C3558 C 0.3217 0.11141 0.93894 0.0
C3559 C 0.32736 0.12513 0.88223 0.0
C3560 C 0.32431 0.13043 0.84783 0.0
C3561 C 0.31633 0.1352 0.85207 0.0
C3562 C 0.31346 0.14013 0.81947 0.0
C3563 C 0.31858 0.14044 0.78255 0.0
C3564 C 0.32662 0.13585 0.77817 0.0
C3565 C 0.32952 0.13089 0.81066 0.0
H3566 H 0.31635 0.14427 0.75735 0.0
H3567 H 0.34565 0.10002 0.08 0.0
H3568 H 0.8888 0.18055 0.82057 0.0
H3569 H 0.88073 0.19389 0.84014 0.0
H3570 H 0.90505 0.20633 0.94094 0.0
H3571 H 0.91342 0.19321 0.92079 0.0
H3572 H 0.86837 0.19244 0.9031 0.0
H3573 H 0.91128 0.23527 0.96741 0.0
H3574 H 0.93372 0.24718 0.95651 0.0
H3575 H 0.92862 0.23522 0.83567 0.0
H3576 H 0.90615 0.22337 0.84569 0.0
H3577 H 0.84897 0.224 0.02485 0.0
H3578 H 0.86194 0.21579 0.00246 0.0
H3579 H 0.87381 0.24047 0.90271 0.0
H3580 H 0.86086 0.24884 0.9251 0.0
H3581 H 0.89277 0.23694 0.93554 0.0
H3582 H 0.85135 0.21342 0.88725 0.0
H3583 H 0.82874 0.20206 0.8936 0.0
H3584 H 0.83074 0.17611 0.97153 0.0
H3585 H 0.8534 0.18744 0.96615 0.0
C3586 C 0.89251 0.18622 0.8467 0.0
C3587 C 0.9017 0.18582 0.86926 0.0
C3588 C 0.88789 0.19383 0.85786 0.0
C3589 C 0.89232 0.20116 0.89189 0.0
C3590 C 0.90163 0.20091 0.9142 0.0
C3591 C 0.90636 0.19337 0.90282 0.0
C3592 C 0.88657 0.20839 0.90522 0.0
C3593 C 0.87375 0.20217 0.91006 0.0
C3594 C 0.89354 0.22113 0.91395 0.0
C3595 C 0.90703 0.22834 0.90745 0.0
C3596 C 0.91494 0.23522 0.93847 0.0
C3597 C 0.92767 0.24196 0.93245 0.0
C3598 C 0.93259 0.24192 0.89546 0.0
C3599 C 0.9248 0.23519 0.86436 0.0
C3600 C 0.91206 0.22845 0.87021 0.0
C3601 C 0.8545 0.22785 -0.00148 0.0
C3602 C 0.85379 0.23694 0.9764 0.0
C3603 C 0.86191 0.22315 0.98582 0.0
C3604 C 0.86869 0.22743 0.95072 0.0
C3605 C 0.86863 0.23707 0.92989 0.0
C3606 C 0.8612 0.24179 0.94261 0.0
C3607 C 0.87469 0.22089 0.93379 0.0
C3608 C 0.88749 0.22721 0.92842 0.0
C3609 C 0.86771 0.20829 0.92372 0.0
C3610 C 0.85408 0.20134 0.92658 0.0
C3611 C 0.84698 0.20534 0.90596 0.0
C3612 C 0.83415 0.1989 0.90936 0.0
C3613 C 0.82831 0.18839 0.93303 0.0
C3614 C 0.83528 0.18427 0.95325 0.0
C3615 C 0.84812 0.19069 0.95002 0.0
H3616 H 0.81838 0.18341 0.93563 0.0
H3617 H 0.94245 0.24714 0.89087 0.0
H3618 H 0.71001 0.82637 0.66331 0.0
H3619 H 0.68828 0.81408 0.64619 0.0
H3620 H 0.69543 0.78806 0.58524 0.0
H3621 H 0.71735 0.80066 0.60097 0.0
H3622 H 0.68168 0.79298 0.54146 0.0
H3623 H 0.67957 0.78133 0.6763 0.0
H3624 H 0.6833 0.78425 0.74803 0.0
H3625 H 0.66353 0.80397 0.75335 0.0
H3626 H 0.65983 0.80131 0.68154 0.0
H3627 H 0.61663 0.75173 0.51694 0.0
H3628 H 0.63828 0.76063 0.53606 0.0
H3629 H 0.63763 0.79176 0.58755 0.0
H3630 H 0.61604 0.78293 0.56877 0.0
H3631 H 0.64775 0.78186 0.63708 0.0
H3632 H 0.65147 0.79446 0.5 0.0
H3633 H 0.64761 0.79084 0.42848 0.0
H3634 H 0.66414 0.76801 0.42868 0.0
H3635 H 0.66796 0.77137 0.50034 0.0
C3636 C 0.70693 0.81795 0.64668 0.0
C3637 C 0.71535 0.81445 0.6335 0.0
C3638 C 0.69448 0.81088 0.63707 0.0
C3639 C 0.69015 0.80002 0.6149 0.0
C3640 C 0.69854 0.79638 0.60241 0.0
C3641 C 0.71104 0.80356 0.61152 0.0
C3642 C 0.67703 0.79292 0.60284 0.0
C3643 C 0.67426 0.79033 0.56255 0.0
C3644 C 0.66732 0.7896 0.63018 0.0
C3645 C 0.6695 0.79119 0.67344 0.0
C3646 C 0.67609 0.78636 0.6927 0.0
C3647 C 0.67819 0.78796 0.73339 0.0
C3648 C 0.67368 0.79431 0.75522 0.0
C3649 C 0.66703 0.79905 0.73641 0.0
C3650 C 0.66491 0.79749 0.69572 0.0
C3651 C 0.62115 0.76052 0.53205 0.0
C3652 C 0.61467 0.76665 0.54135 0.0
C3653 C 0.6335 0.76559 0.54291 0.0
C3654 C 0.63954 0.77686 0.56314 0.0
C3655 C 0.63311 0.78304 0.57206 0.0
C3656 C 0.6208 0.77801 0.56114 0.0
C3657 C 0.6525 0.78218 0.57583 0.0
C3658 C 0.65521 0.7844 0.61622 0.0
C3659 C 0.66213 0.78503 0.54867 0.0
C3660 C 0.65987 0.78306 0.50559 0.0
C3661 C 0.65419 0.78859 0.48485 0.0
C3662 C 0.65203 0.7866 0.44428 0.0
C3663 C 0.65559 0.77917 0.42407 0.0
C3664 C 0.66136 0.77374 0.44438 0.0
C3665 C 0.66354 0.77569 0.48496 0.0
H3666 H 0.65391 0.77764 0.39266 0.0
H3667 H 0.67531 0.79554 0.78672 0.0
H3668 H 0.19564 0.91459 0.62943 0.0
H3669 H 0.20737 0.90447 0.61177 0.0
H3670 H 0.17354 0.86982 0.60004 0.0
H3671 H 0.16177 0.87984 0.61782 0.0
H3672 H 0.19083 0.86766 0.64265 0.0
H3673 H 0.18849 0.88529 0.51926 0.0
H3674 H 0.19094 0.90199 0.47503 0.0
H3675 H 0.22988 0.92159 0.49672 0.0
H3676 H 0.22764 0.90507 0.54153 0.0
H3677 H 0.21104 0.83238 0.53859 0.0
H3678 H 0.20093 0.84393 0.55772 0.0
H3679 H 0.23629 0.87701 0.56813 0.0
H3680 H 0.24651 0.86547 0.5488 0.0
H3681 H 0.21921 0.88079 0.5278 0.0
H3682 H 0.22157 0.86367 0.65208 0.0
H3683 H 0.21924 0.84741 0.69798 0.0
H3684 H 0.18043 0.82696 0.67426 0.0
H3685 H 0.18252 0.84321 0.62843 0.0
C3686 C 0.19071 0.90482 0.6231 0.0
C3687 C 0.1778 0.89799 0.62504 0.0
C3688 C 0.19741 0.89907 0.61286 0.0
C3689 C 0.1913 0.88643 0.60434 0.0
C3690 C 0.17842 0.87959 0.60654 0.0
C3691 C 0.17172 0.88533 0.61664 0.0
C3692 C 0.19832 0.88024 0.59367 0.0
C3693 C 0.19692 0.87044 0.61726 0.0
C3694 C 0.2065 0.8841 0.56117 0.0
C3695 C 0.20788 0.894 0.53407 0.0
C3696 C 0.19756 0.89321 0.51486 0.0
C3697 C 0.19891 0.90263 0.48963 0.0
C3698 C 0.21055 0.91286 0.48317 0.0
C3699 C 0.22087 0.91366 0.50181 0.0
C3700 C 0.21957 0.90427 0.52709 0.0
C3701 C 0.21668 0.84211 0.54498 0.0
C3702 C 0.22957 0.84803 0.5423 0.0
C3703 C 0.21089 0.84868 0.55605 0.0
C3704 C 0.21787 0.86129 0.5647 0.0
C3705 C 0.23075 0.86727 0.56164 0.0
C3706 C 0.23656 0.86067 0.55072 0.0
C3707 C 0.21163 0.86816 0.57663 0.0
C3708 C 0.21316 0.87807 0.55328 0.0
C3709 C 0.20355 0.86442 0.60935 0.0
C3710 C 0.20222 0.85459 0.63661 0.0
C3711 C 0.21255 0.85566 0.65646 0.0
C3712 C 0.21127 0.84646 0.68253 0.0
C3713 C 0.19971 0.83609 0.68883 0.0
C3714 C 0.18938 0.83497 0.66929 0.0
C3715 C 0.1906 0.84421 0.64341 0.0
H3716 H 0.19875 0.82896 0.70895 0.0
H3717 H 0.21158 0.92014 0.46363 0.0
H3718 H 0.14436 0.38873 0.59668 0.0
H3719 H 0.13137 0.36741 0.61883 0.0
H3720 H 0.13446 0.35436 0.50391 0.0
H3721 H 0.1476 0.37563 0.48174 0.0
H3722 H 0.10988 0.34228 0.53713 0.0
H3723 H 0.15195 0.35402 0.57126 0.0
H3724 H 0.17201 0.3672 0.60325 0.0
H3725 H 0.15431 0.36023 0.71645 0.0
H3726 H 0.1341 0.34714 0.685 0.0
H3727 H 0.09637 0.28112 0.56013 0.0
H3728 H 0.10491 0.303 0.54658 0.0
H3729 H 0.10464 0.31007 0.67122 0.0
H3730 H 0.09625 0.28812 0.68508 0.0
H3731 H 0.12614 0.3259 0.63966 0.0
H3732 H 0.08448 0.31229 0.60851 0.0
H3733 H 0.0641 0.29934 0.57822 0.0
H3734 H 0.08007 0.30999 0.46262 0.0
H3735 H 0.10059 0.32287 0.49219 0.0
C3736 C 0.14219 0.38131 0.57608 0.0
C3737 C 0.14701 0.3838 0.53755 0.0
C3738 C 0.1348 0.36917 0.58878 0.0
C3739 C 0.13201 0.35936 0.56298 0.0
C3740 C 0.13651 0.36183 0.52416 0.0
C3741 C 0.14404 0.37396 0.51163 0.0
C3742 C 0.12487 0.34648 0.57683 0.0
C3743 C 0.11343 0.33864 0.55936 0.0
C3744 C 0.12936 0.34192 0.6068 0.0
C3745 C 0.14151 0.34973 0.62573 0.0
C3746 C 0.15232 0.35539 0.60292 0.0
C3747 C 0.16372 0.36282 0.62096 0.0
C3748 C 0.16443 0.36459 0.66184 0.0
C3749 C 0.15374 0.35888 0.68478 0.0
C3750 C 0.14232 0.35145 0.66686 0.0
C3751 C 0.09801 0.28731 0.58465 0.0
C3752 C 0.09565 0.28292 0.62367 0.0
C3753 C 0.10283 0.29981 0.57684 0.0
C3754 C 0.10528 0.30816 0.60784 0.0
C3755 C 0.10278 0.30378 0.64685 0.0
C3756 C 0.09796 0.29125 0.65471 0.0
C3757 C 0.11119 0.32153 0.59941 0.0
C3758 C 0.12243 0.32951 0.61787 0.0
C3759 C 0.10643 0.32624 0.57063 0.0
C3760 C 0.09411 0.31848 0.55261 0.0
C3761 C 0.08367 0.3118 0.57662 0.0
C3762 C 0.07209 0.30448 0.55958 0.0
C3763 C 0.07079 0.30382 0.51852 0.0
C3764 C 0.08109 0.3105 0.49443 0.0
C3765 C 0.0927 0.31783 0.51132 0.0
H3766 H 0.06181 0.29816 0.50539 0.0
H3767 H 0.17327 0.37034 0.67576 0.0
H3768 H 0.0464 0.5447 0.7953 0.0
H3769 H 0.02446 0.53487 0.77966 0.0
H3770 H 0.02544 0.56938 0.79765 0.0
H3771 H 0.04746 0.57935 0.81306 0.0
H3772 H 0.00437 0.54818 0.83151 0.0
H3773 H 0.02635 0.56197 0.70839 0.0
H3774 H 0.04158 0.56394 0.65861 0.0
H3775 H 0.0227 0.52466 0.64464 0.0
H3776 H 0.00746 0.52244 0.69484 0.0
H3777 H 0.94667 0.52949 0.73867 0.0
H3778 H 0.9683 0.54079 0.75887 0.0
H3779 H 0.97277 0.51044 0.7204 0.0
H3780 H 0.95133 0.49933 0.69896 0.0
H3781 H 0.99143 0.53083 0.69681 0.0
H3782 H 0.97056 0.51634 0.82135 0.0
H3783 H 0.95564 0.51341 0.87364 0.0
H3784 H 0.97215 0.55257 0.88646 0.0
H3785 H 0.98721 0.55574 0.83427 0.0
C3786 C 0.04193 0.55017 0.7963 0.0
C3787 C 0.04864 0.5628 0.80516 0.0
C3788 C 0.02942 0.54455 0.78729 0.0
C3789 C 0.0234 0.55144 0.78719 0.0
C3790 C 0.02995 0.56394 0.79755 0.0
C3791 C 0.04251 0.56961 0.80621 0.0
C3792 C 0.01041 0.54568 0.77452 0.0
C3793 C 0.00152 0.54453 0.80191 0.0
C3794 C 0.00675 0.54072 0.73617 0.0
C3795 C 0.01583 0.54204 0.70564 0.0
C3796 C 0.0255 0.55374 0.69494 0.0
C3797 C 0.03413 0.5549 0.6666 0.0
C3798 C 0.03313 0.54443 0.64853 0.0
C3799 C 0.02347 0.53276 0.65869 0.0
C3800 C 0.01483 0.53155 0.68705 0.0
C3801 C 0.95229 0.52525 0.73455 0.0
C3802 C 0.94734 0.51354 0.71724 0.0
C3803 C 0.96462 0.53168 0.74632 0.0
C3804 C 0.97214 0.5264 0.74164 0.0
C3805 C 0.96717 0.51471 0.72428 0.0
C3806 C 0.95491 0.50836 0.7121 0.0
C3807 C 0.98524 0.5331 0.75398 0.0
C3808 C 0.99422 0.53449 0.72642 0.0
C3809 C 0.98895 0.53814 0.79233 0.0
C3810 C 0.97991 0.53628 0.82364 0.0
C3811 C 0.97095 0.52433 0.83514 0.0
C3812 C 0.96248 0.52262 0.86479 0.0
C3813 C 0.96288 0.53279 0.88317 0.0
C3814 C 0.97182 0.5447 0.87212 0.0
C3815 C 0.98035 0.54646 0.8426 0.0
H3816 H 0.9563 0.53144 0.90607 0.0
H3817 H 0.03982 0.54534 0.62661 0.0
H3818 H 0.4495 0.49177 0.8322 0.0
H3819 H 0.45898 0.48018 0.80755 0.0
H3820 H 0.42399 0.45237 0.76112 0.0
H3821 H 0.41438 0.46405 0.78538 0.0
H3822 H 0.43945 0.44366 0.80119 0.0
H3823 H 0.44083 0.47084 0.69864 0.0
H3824 H 0.44487 0.49089 0.67274 0.0
H3825 H 0.4831 0.50692 0.7027 0.0
H3826 H 0.47925 0.48701 0.72952 0.0
H3827 H 0.4674 0.41724 0.68581 0.0
H3828 H 0.45454 0.42599 0.7046 0.0
H3829 H 0.48714 0.46064 0.73094 0.0
H3830 H 0.50003 0.45206 0.71077 0.0
H3831 H 0.47091 0.46477 0.69666 0.0
H3832 H 0.46986 0.43899 0.80393 0.0
H3833 H 0.46637 0.41969 0.83481 0.0
H3834 H 0.42837 0.40171 0.80018 0.0
H3835 H 0.43167 0.42087 0.76862 0.0
C3836 C 0.44375 0.48309 0.81733 0.0
C3837 C 0.43122 0.47885 0.81043 0.0
C3838 C 0.44919 0.47651 0.80321 0.0
C3839 C 0.44219 0.46554 0.78218 0.0
C3840 C 0.42952 0.46086 0.77724 0.0
C3841 C 0.42406 0.46753 0.79106 0.0
C3842 C 0.44839 0.4595 0.76329 0.0
C3843 C 0.44617 0.44812 0.77781 0.0
C3844 C 0.45731 0.46552 0.73343 0.0
C3845 C 0.45973 0.47744 0.7164 0.0
C3846 C 0.45008 0.47866 0.69997 0.0
C3847 C 0.45234 0.49 0.6851 0.0
C3848 C 0.46423 0.50018 0.68615 0.0
C3849 C 0.47389 0.49903 0.70194 0.0
C3850 C 0.47168 0.48771 0.71696 0.0
C3851 C 0.47181 0.42676 0.69527 0.0
C3852 C 0.48471 0.43396 0.69712 0.0
C3853 C 0.46446 0.43173 0.70618 0.0
C3854 C 0.46987 0.4439 0.71995 0.0
C3855 C 0.48276 0.45122 0.72052 0.0
C3856 C 0.49012 0.44631 0.70907 0.0
C3857 C 0.46215 0.44893 0.73492 0.0
C3858 C 0.4641 0.46017 0.71967 0.0
C3859 C 0.45306 0.44282 0.76443 0.0
C3860 C 0.45105 0.43132 0.78354 0.0
C3861 C 0.46078 0.43089 0.80266 0.0
C3862 C 0.45883 0.41999 0.82031 0.0
C3863 C 0.44716 0.40947 0.81935 0.0
C3864 C 0.43741 0.40986 0.80083 0.0
C3865 C 0.43931 0.42074 0.78308 0.0
H3866 H 0.44567 0.40104 0.83304 0.0
H3867 H 0.46595 0.50896 0.67467 0.0
H3868 H 0.49317 0.94441 0.77863 0.0
H3869 H 0.50474 0.96566 0.75494 0.0
H3870 H 0.53775 0.9631 0.74948 0.0
H3871 H 0.52622 0.94183 0.77323 0.0
H3872 H 0.54142 0.98367 0.78811 0.0
H3873 H 0.52404 0.96385 0.66485 0.0
H3874 H 0.50776 0.95043 0.618 0.0
H3875 H 0.48963 0.97141 0.63524 0.0
H3876 H 0.50577 0.98494 0.68239 0.0
H3877 H 0.5772 0.04253 0.70085 0.0
H3878 H 0.56675 0.02027 0.71172 0.0
H3879 H 0.53162 0.01878 0.7107 0.0
H3880 H 0.54199 0.04093 0.69854 0.0
H3881 H 0.52991 -0.00016 0.67191 0.0
H3882 H 0.54638 0.01878 0.79811 0.0
H3883 H 0.5627 0.03249 0.84439 0.0
H3884 H 0.58216 0.01299 0.82283 0.0
H3885 H 0.56602 -0.00074 0.77601 0.0
C3886 C 0.50288 0.94837 0.77226 0.0
C3887 C 0.50883 0.94152 0.77802 0.0
C3888 C 0.50946 0.96047 0.75844 0.0
C3889 C 0.52209 0.96592 0.75021 0.0
C3890 C 0.52801 0.95905 0.7556 0.0
C3891 C 0.52142 0.94691 0.76914 0.0
C3892 C 0.52923 0.97902 0.73822 0.0
C3893 C 0.53905 0.98718 0.76229 0.0
C3894 C 0.52593 0.98362 0.70511 0.0
C3895 C 0.51608 0.97536 0.67734 0.0
C3896 C 0.51653 0.96555 0.65887 0.0
C3897 C 0.50737 0.95797 0.63211 0.0
C3898 C 0.4977 0.9601 0.62353 0.0
C3899 C 0.49716 0.96981 0.64179 0.0
C3900 C 0.50632 0.97745 0.66848 0.0
C3901 C 0.56724 0.03743 0.70278 0.0
C3902 C 0.5604 0.04346 0.69911 0.0
C3903 C 0.56129 0.02472 0.70912 0.0
C3904 C 0.5484 0.01787 0.71266 0.0
C3905 C 0.54156 0.02386 0.70811 0.0
C3906 C 0.5475 0.03653 0.7013 0.0
C3907 C 0.54203 0.00453 0.72203 0.0
C3908 C 0.53234 0.99632 0.69755 0.0
C3909 C 0.5454 -0.00012 0.75493 0.0
C3910 C 0.55506 0.00808 0.78326 0.0
C3911 C 0.55418 0.01747 0.80304 0.0
C3912 C 0.56339 0.02524 0.8294 0.0
C3913 C 0.57347 0.02364 0.83646 0.0
C3914 C 0.57435 0.01424 0.81728 0.0
C3915 C 0.56517 0.00646 0.79086 0.0
H3916 H 0.5806 0.02966 0.85687 0.0
H3917 H 0.49059 0.95419 0.60289 0.0
H3918 H 0.46754 0.05576 0.24465 0.0
H3919 H 0.45435 0.03425 0.26426 0.0
H3920 H 0.47832 0.02443 0.20246 0.0
H3921 H 0.49125 0.04579 0.18169 0.0
H3922 H 0.4557 0.00746 0.19075 0.0
H3923 H 0.47985 0.02912 0.30463 0.0
H3924 H 0.48785 0.04524 0.35595 0.0
H3925 H 0.45108 0.03249 0.39758 0.0
H3926 H 0.44285 0.01638 0.34616 0.0
H3927 H 0.44495 0.95879 0.34762 0.0
H3928 H 0.45369 0.98039 0.32915 0.0
H3929 H 0.42276 0.97075 0.25216 0.0
H3930 H 0.41414 0.94904 0.26967 0.0
H3931 H 0.44746 0.99744 0.33325 0.0
H3932 H 0.43288 0.9884 0.16944 0.0
H3933 H 0.42738 0.97228 0.11894 0.0
H3934 H 0.44936 0.95981 0.17863 0.0
H3935 H 0.45511 0.97596 0.22913 0.0
C3936 C 0.46993 0.04898 0.23503 0.0
C3937 C 0.48045 0.05244 0.21184 0.0
C3938 C 0.46242 0.03671 0.24638 0.0
C3939 C 0.46544 0.02775 0.23533 0.0
C3940 C 0.47579 0.03117 0.21132 0.0
C3941 C 0.4832 0.04339 0.19957 0.0
C3942 C 0.45812 0.01488 0.2496 0.0
C3943 C 0.45382 0.00528 0.22189 0.0
C3944 C 0.45581 0.012 0.29028 0.0
C3945 C 0.46073 0.02164 0.3213 0.0
C3946 C 0.47347 0.02981 0.32456 0.0
C3947 C 0.47804 0.03894 0.35368 0.0
C3948 C 0.46997 0.03991 0.37993 0.0
C3949 C 0.45731 0.03174 0.37718 0.0
C3950 C 0.45269 0.0226 0.34807 0.0
C3951 C 0.43994 0.96129 0.3271 0.0
C3952 C 0.42894 0.95224 0.30972 0.0
C3953 C 0.44492 0.97364 0.31667 0.0
C3954 C 0.43898 0.97716 0.28881 0.0
C3955 C 0.42762 0.96821 0.27316 0.0
C3956 C 0.42268 0.95583 0.28328 0.0
C3957 C 0.44513 0.99005 0.27441 0.0
C3958 C 0.44917 -0.00037 0.30207 0.0
C3959 C 0.44756 0.99293 0.23378 0.0
C3960 C 0.4443 0.98329 0.20328 0.0
C3961 C 0.43656 0.98224 0.17169 0.0
C3962 C 0.4334 0.9731 0.14308 0.0
C3963 C 0.43798 0.965 0.14566 0.0
C3964 C 0.44578 0.96606 0.17675 0.0
C3965 C 0.44899 0.9752 0.20538 0.0
H3966 H 0.43551 0.95792 0.12352 0.0
H3967 H 0.47353 0.04698 0.40246 0.0
H3968 H 0.04579 0.49941 0.27837 0.0
H3969 H 0.02379 0.48675 0.26537 0.0
H3970 H 0.02372 0.45547 0.31873 0.0
H3971 H 0.04588 0.46808 0.33113 0.0
H3972 H 0.01157 0.44908 0.25081 0.0
H3973 H 0.01054 0.47004 0.36605 0.0
H3974 H 0.01614 0.4877 0.4102 0.0
H3975 H 0.00253 0.50338 0.32516 0.0
H3976 H 0.99703 0.48591 0.2802 0.0
H3977 H 0.94476 0.41566 0.24604 0.0
H3978 H 0.96615 0.42572 0.26937 0.0
H3979 H 0.97424 0.45843 0.204 0.0
H3980 H 0.95302 0.44843 0.18014 0.0
H3981 H 0.98154 0.46235 0.28564 0.0
H3982 H 0.98441 0.44163 0.16865 0.0
H3983 H 0.97869 0.42353 0.12644 0.0
H3984 H 0.9884 0.40667 0.21938 0.0
H3985 H 0.99402 0.42461 0.26236 0.0
C3986 C 0.04107 0.48986 0.28768 0.0
C3987 C 0.04754 0.48473 0.30582 0.0
C3988 C 0.02849 0.48265 0.28039 0.0
C3989 C 0.02208 0.4702 0.2915 0.0
C3990 C 0.02849 0.46507 0.31 0.0
C3991 C 0.04112 0.47229 0.31718 0.0
C3992 C 0.00881 0.46249 0.28209 0.0
C3993 C 0.00495 0.45185 0.25913 0.0
C3994 C 0.00019 0.46616 0.29262 0.0
C3995 C 0.00346 0.47669 0.31961 0.0
C3996 C 0.00883 0.4773 0.35662 0.0
C3997 C 0.01197 0.48727 0.38182 0.0
C3998 C 0.00971 0.49667 0.37046 0.0
C3999 C 0.00428 0.4961 0.33391 0.0
C4000 C 0.00114 0.48615 0.30857 0.0
C4001 C 0.95115 0.42495 0.23635 0.0
C4002 C 0.94726 0.43127 0.21126 0.0
C4003 C 0.96333 0.43067 0.24968 0.0
C4004 C 0.97171 0.44281 0.23842 0.0
C4005 C 0.96787 0.44907 0.21306 0.0
C4006 C 0.95577 0.44331 0.19931 0.0
C4007 C 0.98445 0.44919 0.25372 0.0
C4008 C 0.98816 0.45954 0.27785 0.0
C4009 C 0.99287 0.44517 0.24469 0.0
C4010 C 0.98948 0.43439 0.21888 0.0
C4011 C 0.98521 0.43401 0.18023 0.0
C4012 C 0.98201 0.42379 0.15613 0.0
C4013 C 0.98314 0.41394 0.17026 0.0
C4014 C 0.9875 0.41429 0.20849 0.0
C4015 C 0.9907 0.42448 0.23273 0.0
H4016 H 0.98066 0.40604 0.15155 0.0
H4017 H 0.01215 0.50438 0.39002 0.0
H4018 H 0.55737 0.51578 0.13756 0.0
H4019 H 0.54839 0.52863 0.1547 0.0
H4020 H 0.56004 0.53033 0.27552 0.0
H4021 H 0.56907 0.5176 0.25864 0.0
H4022 H 0.53545 0.52384 0.26814 0.0
H4023 H 0.57506 0.55478 0.21934 0.0
H4024 H 0.59183 0.56425 0.17043 0.0
H4025 H 0.56729 0.56668 0.08728 0.0
H4026 H 0.55032 0.55706 0.13554 0.0
H4027 H 0.5216 0.56742 0.34453 0.0
H4028 H 0.53331 0.55759 0.32398 0.0
H4029 H 0.52488 0.5602 0.20202 0.0
H4030 H 0.51345 0.57038 0.22236 0.0
H4031 H 0.54783 0.56452 0.2083 0.0
H4032 H 0.50824 0.53347 0.25434 0.0
H4033 H 0.49091 0.52349 0.30115 0.0
H4034 H 0.51454 0.5204 0.38649 0.0
H4035 H 0.53206 0.53053 0.34037 0.0
C4036 C 0.55807 0.51896 0.16769 0.0
C4037 C 0.56391 0.51569 0.19678 0.0
C4038 C 0.55298 0.52632 0.1774 0.0
C4039 C 0.55361 0.53045 0.21634 0.0
C4040 C 0.55947 0.52723 0.24532 0.0
C4041 C 0.56465 0.51998 0.23559 0.0
C4042 C 0.54775 0.53775 0.22741 0.0
C4043 C 0.53826 0.53281 0.25547 0.0
C4044 C 0.55119 0.54927 0.20991 0.0
C4045 C 0.56139 0.55508 0.18091 0.0
C4046 C 0.57321 0.55723 0.1905 0.0
C4047 C 0.58276 0.56265 0.16292 0.0
C4048 C 0.58062 0.56603 0.12573 0.0
C4049 C 0.56893 0.56404 0.11608 0.0
C4050 C 0.55935 0.55862 0.14355 0.0
C4051 C 0.52237 0.56604 0.31331 0.0
C4052 C 0.51653 0.56956 0.28506 0.0
C4053 C 0.52901 0.56037 0.30161 0.0
C4054 C 0.52975 0.55792 0.26151 0.0
C4055 C 0.52439 0.56195 0.23312 0.0
C4056 C 0.51785 0.56774 0.24479 0.0
C4057 C 0.53559 0.55066 0.24942 0.0
C4058 C 0.54502 0.55556 0.22105 0.0
C4059 C 0.53202 0.53902 0.2663 0.0
C4060 C 0.52149 0.53287 0.29405 0.0
C4061 C 0.50976 0.53075 0.2832 0.0
C4062 C 0.4999 0.52505 0.30959 0.0
C4063 C 0.50163 0.52135 0.34681 0.0
C4064 C 0.51322 0.5233 0.35768 0.0
C4065 C 0.52312 0.52901 0.33141 0.0
H4066 H 0.49399 0.51694 0.3672 0.0
H4067 H 0.58803 0.57023 0.10441 0.0
loop_
_geom_bond_atom_site_label_1
_geom_bond_atom_site_label_2
_geom_bond_distance
_geom_bond_site_symmetry_2
_ccdc_geom_bond_type
In0 O1 2.294 . S
In0 O2 2.326 . S
In0 O6 2.266 . S
In0 O7 2.326 . S
In0 O8 2.266 . S
In0 O9 2.326 . S
In0 O11 2.294 . S
In0 O12 2.326 . S
O1 In0 2.294 . S
O1 C10 1.240 . S
O2 In0 2.326 . S
O2 C10 1.252 . S
C3 O6 1.252 . S
C3 O7 1.260 . S
C4 O11 1.240 . S
C4 O12 1.252 . S
C5 O8 1.252 . S
C5 O9 1.260 . S
O6 In0 2.266 . S
O6 C3 1.252 . S
O7 In0 2.326 . S
O7 C3 1.260 . S
O8 In0 2.266 . S
O8 C5 1.252 . S
O9 In0 2.326 . S
O9 C5 1.260 . S
C10 O1 1.240 . S
C10 O2 1.252 . S
O11 In0 2.294 . S
O11 C4 1.240 . S
O12 In0 2.326 . S
O12 C4 1.252 . S
In13 O14 2.294 . S
In13 O15 2.326 . S
In13 O19 2.266 . S
In13 O20 2.326 . S
In13 O21 2.266 . S
In13 O22 2.326 . S
In13 O24 2.294 . S
In13 O25 2.326 . S
O14 In13 2.294 . S
O14 C23 1.240 . S
O15 In13 2.326 . S
O15 C23 1.252 . S
C16 O19 1.252 . S
C16 O20 1.260 . S
C17 O24 1.240 . S
C17 O25 1.252 . S
C18 O21 1.252 . S
C18 O22 1.260 . S
O19 In13 2.266 . S
O19 C16 1.252 . S
O20 In13 2.326 . S
O20 C16 1.260 . S
O21 In13 2.266 . S
O21 C18 1.252 . S
O22 In13 2.326 . S
O22 C18 1.260 . S
C23 O14 1.240 . S
C23 O15 1.252 . S
O24 In13 2.294 . S
O24 C17 1.240 . S
O25 In13 2.326 . S
O25 C17 1.252 . S
In26 O27 2.294 . S
In26 O28 2.326 . S
In26 O32 2.266 . S
In26 O33 2.326 . S
In26 O34 2.266 . S
In26 O35 2.326 . S
In26 O37 2.294 . S
In26 O38 2.326 . S
O27 In26 2.294 . S
O27 C36 1.240 . S
O28 In26 2.326 . S
O28 C36 1.252 . S
C29 O32 1.252 . S
C29 O33 1.260 . S
C30 O37 1.240 . S
C30 O38 1.252 . S
C31 O34 1.252 . S
C31 O35 1.260 . S
O32 In26 2.266 . S
O32 C29 1.252 . S
O33 In26 2.326 . S
O33 C29 1.260 . S
O34 In26 2.266 . S
O34 C31 1.252 . S
O35 In26 2.326 . S
O35 C31 1.260 . S
C36 O27 1.240 . S
C36 O28 1.252 . S
O37 In26 2.294 . S
O37 C30 1.240 . S
O38 In26 2.326 . S
O38 C30 1.252 . S
In39 O40 2.294 . S
In39 O41 2.326 . S
In39 O45 2.266 . S
In39 O46 2.326 . S
In39 O47 2.266 . S
In39 O48 2.326 . S
In39 O50 2.294 . S
In39 O51 2.326 . S
O40 In39 2.294 . S
O40 C49 1.240 . S
O41 In39 2.326 . S
O41 C49 1.252 . S
C42 O45 1.252 . S
C42 O46 1.260 . S
C43 O50 1.240 . S
C43 O51 1.252 . S
C44 O47 1.252 . S
C44 O48 1.260 . S
O45 In39 2.266 . S
O45 C42 1.252 . S
O46 In39 2.326 . S
O46 C42 1.260 . S
O47 In39 2.266 . S
O47 C44 1.252 . S
O48 In39 2.326 . S
O48 C44 1.260 . S
C49 O40 1.240 . S
C49 O41 1.252 . S
O50 In39 2.294 . S
O50 C43 1.240 . S
O51 In39 2.326 . S
O51 C43 1.252 . S
In52 O53 2.294 . S
In52 O54 2.326 . S
In52 O58 2.266 . S
In52 O59 2.326 . S
In52 O60 2.266 . S
In52 O61 2.326 . S
In52 O63 2.294 . S
In52 O64 2.326 . S
O53 In52 2.294 . S
O53 C62 1.240 . S
O54 In52 2.326 . S
O54 C62 1.252 . S
C55 O58 1.252 . S
C55 O59 1.260 . S
C56 O63 1.240 . S
C56 O64 1.252 . S
C57 O60 1.252 . S
C57 O61 1.260 . S
O58 In52 2.266 . S
O58 C55 1.252 . S
O59 In52 2.326 . S
O59 C55 1.260 . S
O60 In52 2.266 . S
O60 C57 1.252 . S
O61 In52 2.326 . S
O61 C57 1.260 . S
C62 O53 1.240 . S
C62 O54 1.252 . S
O63 In52 2.294 . S
O63 C56 1.240 . S
O64 In52 2.326 . S
O64 C56 1.252 . S
In65 O66 2.294 . S
In65 O67 2.326 . S
In65 O71 2.266 . S
In65 O72 2.326 . S
In65 O73 2.266 . S
In65 O74 2.326 . S
In65 O76 2.294 . S
In65 O77 2.326 . S
O66 In65 2.294 . S
O66 C75 1.240 . S
O67 In65 2.326 . S
O67 C75 1.252 . S
C68 O71 1.252 . S
C68 O72 1.260 . S
C69 O76 1.240 . S
C69 O77 1.252 . S
C70 O73 1.252 . S
C70 O74 1.260 . S
O71 In65 2.266 . S
O71 C68 1.252 . S
O72 In65 2.326 . S
O72 C68 1.260 . S
O73 In65 2.266 . S
O73 C70 1.252 . S
O74 In65 2.326 . S
O74 C70 1.260 . S
C75 O66 1.240 . S
C75 O67 1.252 . S
O76 In65 2.294 . S
O76 C69 1.240 . S
O77 In65 2.326 . S
O77 C69 1.252 . S
In78 O79 2.294 . S
In78 O80 2.326 . S
In78 O84 2.266 . S
In78 O85 2.326 . S
In78 O86 2.266 . S
In78 O87 2.326 . S
In78 O89 2.294 . S
In78 O90 2.326 . S
O79 In78 2.294 . S
O79 C88 1.240 . S
O80 In78 2.326 . S
O80 C88 1.252 . S
C81 O84 1.252 . S
C81 O85 1.260 . S
C82 O89 1.240 . S
C82 O90 1.252 . S
C83 O86 1.252 . S
C83 O87 1.260 . S
O84 In78 2.266 . S
O84 C81 1.252 . S
O85 In78 2.326 . S
O85 C81 1.260 . S
O86 In78 2.266 . S
O86 C83 1.252 . S
O87 In78 2.326 . S
O87 C83 1.260 . S
C88 O79 1.240 . S
C88 O80 1.252 . S
O89 In78 2.294 . S
O89 C82 1.240 . S
O90 In78 2.326 . S
O90 C82 1.252 . S
In91 O92 2.294 . S
In91 O93 2.326 . S
In91 O97 2.266 . S
In91 O98 2.326 . S
In91 O99 2.266 . S
In91 O100 2.326 . S
In91 O102 2.294 . S
In91 O103 2.326 . S
O92 In91 2.294 . S
O92 C101 1.240 . S
O93 In91 2.326 . S
O93 C101 1.252 . S
C94 O97 1.252 . S
C94 O98 1.260 . S
C95 O102 1.240 . S
C95 O103 1.252 . S
C96 O99 1.252 . S
C96 O100 1.260 . S
O97 In91 2.266 . S
O97 C94 1.252 . S
O98 In91 2.326 . S
O98 C94 1.260 . S
O99 In91 2.266 . S
O99 C96 1.252 . S
O100 In91 2.326 . S
O100 C96 1.260 . S
C101 O92 1.240 . S
C101 O93 1.252 . S
O102 In91 2.294 . S
O102 C95 1.240 . S
O103 In91 2.326 . S
O103 C95 1.252 . S
In104 O105 2.294 . S
In104 O106 2.326 . S
In104 O110 2.266 . S
In104 O111 2.326 . S
In104 O112 2.266 . S
In104 O113 2.326 . S
In104 O115 2.294 . S
In104 O116 2.326 . S
O105 In104 2.294 . S
O105 C114 1.240 . S
O106 In104 2.326 . S
O106 C114 1.252 . S
C107 O110 1.252 . S
C107 O111 1.260 . S
C108 O115 1.240 . S
C108 O116 1.252 . S
C109 O112 1.252 . S
C109 O113 1.260 . S
O110 In104 2.266 . S
O110 C107 1.252 . S
O111 In104 2.326 . S
O111 C107 1.260 . S
O112 In104 2.266 . S
O112 C109 1.252 . S
O113 In104 2.326 . S
O113 C109 1.260 . S
C114 O105 1.240 . S
C114 O106 1.252 . S
O115 In104 2.294 . S
O115 C108 1.240 . S
O116 In104 2.326 . S
O116 C108 1.252 . S
In117 O118 2.294 . S
In117 O119 2.326 . S
In117 O123 2.266 . S
In117 O124 2.326 . S
In117 O125 2.266 . S
In117 O126 2.326 . S
In117 O128 2.294 . S
In117 O129 2.326 . S
O118 In117 2.294 . S
O118 C127 1.240 . S
O119 In117 2.326 . S
O119 C127 1.252 . S
C120 O123 1.252 . S
C120 O124 1.260 . S
C121 O128 1.240 . S
C121 O129 1.252 . S
C122 O125 1.252 . S
C122 O126 1.260 . S
O123 In117 2.266 . S
O123 C120 1.252 . S
O124 In117 2.326 . S
O124 C120 1.260 . S
O125 In117 2.266 . S
O125 C122 1.252 . S
O126 In117 2.326 . S
O126 C122 1.260 . S
C127 O118 1.240 . S
C127 O119 1.252 . S
O128 In117 2.294 . S
O128 C121 1.240 . S
O129 In117 2.326 . S
O129 C121 1.252 . S
In130 O131 2.294 . S
In130 O132 2.326 . S
In130 O136 2.266 . S
In130 O137 2.326 . S
In130 O138 2.266 . S
In130 O139 2.326 . S
In130 O141 2.294 . S
In130 O142 2.326 . S
O131 In130 2.294 . S
O131 C140 1.240 . S
O132 In130 2.326 . S
O132 C140 1.252 . S
C133 O136 1.252 . S
C133 O137 1.260 . S
C134 O141 1.240 . S
C134 O142 1.252 . S
C135 O138 1.252 . S
C135 O139 1.260 . S
O136 In130 2.266 . S
O136 C133 1.252 . S
O137 In130 2.326 . S
O137 C133 1.260 . S
O138 In130 2.266 . S
O138 C135 1.252 . S
O139 In130 2.326 . S
O139 C135 1.260 . S
C140 O131 1.240 . S
C140 O132 1.252 . S
O141 In130 2.294 . S
O141 C134 1.240 . S
O142 In130 2.326 . S
O142 C134 1.252 . S
In143 O144 2.294 . S
In143 O145 2.326 . S
In143 O149 2.266 . S
In143 O150 2.326 . S
In143 O151 2.266 . S
In143 O152 2.326 . S
In143 O154 2.294 . S
In143 O155 2.326 . S
O144 In143 2.294 . S
O144 C153 1.240 . S
O145 In143 2.326 . S
O145 C153 1.252 . S
C146 O149 1.252 . S
C146 O150 1.260 . S
C147 O154 1.240 . S
C147 O155 1.252 . S
C148 O151 1.252 . S
C148 O152 1.260 . S
O149 In143 2.266 . S
O149 C146 1.252 . S
O150 In143 2.326 . S
O150 C146 1.260 . S
O151 In143 2.266 . S
O151 C148 1.252 . S
O152 In143 2.326 . S
O152 C148 1.260 . S
C153 O144 1.240 . S
C153 O145 1.252 . S
O154 In143 2.294 . S
O154 C147 1.240 . S
O155 In143 2.326 . S
O155 C147 1.252 . S
In156 O157 2.294 . S
In156 O158 2.326 . S
In156 O162 2.266 . S
In156 O163 2.326 . S
In156 O164 2.266 . S
In156 O165 2.326 . S
In156 O167 2.294 . S
In156 O168 2.326 . S
O157 In156 2.294 . S
O157 C166 1.240 . S
O158 In156 2.326 . S
O158 C166 1.252 . S
C159 O162 1.252 . S
C159 O163 1.260 . S
C160 O167 1.240 . S
C160 O168 1.252 . S
C161 O164 1.252 . S
C161 O165 1.260 . S
O162 In156 2.266 . S
O162 C159 1.252 . S
O163 In156 2.326 . S
O163 C159 1.260 . S
O164 In156 2.266 . S
O164 C161 1.252 . S
O165 In156 2.326 . S
O165 C161 1.260 . S
C166 O157 1.240 . S
C166 O158 1.252 . S
O167 In156 2.294 . S
O167 C160 1.240 . S
O168 In156 2.326 . S
O168 C160 1.252 . S
In169 O170 2.294 . S
In169 O171 2.326 . S
In169 O175 2.266 . S
In169 O176 2.326 . S
In169 O177 2.266 . S
In169 O178 2.326 . S
In169 O180 2.294 . S
In169 O181 2.326 . S
O170 In169 2.294 . S
O170 C179 1.240 . S
O171 In169 2.326 . S
O171 C179 1.252 . S
C172 O175 1.252 . S
C172 O176 1.260 . S
C173 O180 1.240 . S
C173 O181 1.252 . S
C174 O177 1.252 . S
C174 O178 1.260 . S
O175 In169 2.266 . S
O175 C172 1.252 . S
O176 In169 2.326 . S
O176 C172 1.260 . S
O177 In169 2.266 . S
O177 C174 1.252 . S
O178 In169 2.326 . S
O178 C174 1.260 . S
C179 O170 1.240 . S
C179 O171 1.252 . S
O180 In169 2.294 . S
O180 C173 1.240 . S
O181 In169 2.326 . S
O181 C173 1.252 . S
In182 O183 2.294 . S
In182 O184 2.326 . S
In182 O188 2.266 . S
In182 O189 2.326 . S
In182 O190 2.266 . S
In182 O191 2.326 . S
In182 O193 2.294 . S
In182 O194 2.326 . S
O183 In182 2.294 . S
O183 C192 1.240 . S
O184 In182 2.326 . S
O184 C192 1.252 . S
C185 O188 1.252 . S
C185 O189 1.260 . S
C186 O193 1.240 . S
C186 O194 1.252 . S
C187 O190 1.252 . S
C187 O191 1.260 . S
O188 In182 2.266 . S
O188 C185 1.252 . S
O189 In182 2.326 . S
O189 C185 1.260 . S
O190 In182 2.266 . S
O190 C187 1.252 . S
O191 In182 2.326 . S
O191 C187 1.260 . S
C192 O183 1.240 . S
C192 O184 1.252 . S
O193 In182 2.294 . S
O193 C186 1.240 . S
O194 In182 2.326 . S
O194 C186 1.252 . S
In195 O196 2.294 . S
In195 O197 2.326 . S
In195 O201 2.266 . S
In195 O202 2.326 . S
In195 O203 2.266 . S
In195 O204 2.326 . S
In195 O206 2.294 . S
In195 O207 2.326 . S
O196 In195 2.294 . S
O196 C205 1.240 . S
O197 In195 2.326 . S
O197 C205 1.252 . S
C198 O201 1.252 . S
C198 O202 1.260 . S
C199 O206 1.240 . S
C199 O207 1.252 . S
C200 O203 1.252 . S
C200 O204 1.260 . S
O201 In195 2.266 . S
O201 C198 1.252 . S
O202 In195 2.326 . S
O202 C198 1.260 . S
O203 In195 2.266 . S
O203 C200 1.252 . S
O204 In195 2.326 . S
O204 C200 1.260 . S
C205 O196 1.240 . S
C205 O197 1.252 . S
O206 In195 2.294 . S
O206 C199 1.240 . S
O207 In195 2.326 . S
O207 C199 1.252 . S
In208 O209 2.294 . S
In208 O210 2.326 . S
In208 O214 2.266 . S
In208 O215 2.326 . S
In208 O216 2.266 . S
In208 O217 2.326 . S
In208 O219 2.294 . S
In208 O220 2.326 . S
O209 In208 2.294 . S
O209 C218 1.240 . S
O210 In208 2.326 . S
O210 C218 1.252 . S
C211 O214 1.252 . S
C211 O215 1.260 . S
C212 O219 1.240 . S
C212 O220 1.252 . S
C213 O216 1.252 . S
C213 O217 1.260 . S
O214 In208 2.266 . S
O214 C211 1.252 . S
O215 In208 2.326 . S
O215 C211 1.260 . S
O216 In208 2.266 . S
O216 C213 1.252 . S
O217 In208 2.326 . S
O217 C213 1.260 . S
C218 O209 1.240 . S
C218 O210 1.252 . S
O219 In208 2.294 . S
O219 C212 1.240 . S
O220 In208 2.326 . S
O220 C212 1.252 . S
In221 O222 2.294 . S
In221 O223 2.326 . S
In221 O227 2.266 . S
In221 O228 2.326 . S
In221 O229 2.266 . S
In221 O230 2.326 . S
In221 O232 2.294 . S
In221 O233 2.326 . S
O222 In221 2.294 . S
O222 C231 1.240 . S
O223 In221 2.326 . S
O223 C231 1.252 . S
C224 O227 1.252 . S
C224 O228 1.260 . S
C225 O232 1.240 . S
C225 O233 1.252 . S
C226 O229 1.252 . S
C226 O230 1.260 . S
O227 In221 2.266 . S
O227 C224 1.252 . S
O228 In221 2.326 . S
O228 C224 1.260 . S
O229 In221 2.266 . S
O229 C226 1.252 . S
O230 In221 2.326 . S
O230 C226 1.260 . S
C231 O222 1.240 . S
C231 O223 1.252 . S
O232 In221 2.294 . S
O232 C225 1.240 . S
O233 In221 2.326 . S
O233 C225 1.252 . S
In234 O235 2.294 . S
In234 O236 2.326 . S
In234 O240 2.266 . S
In234 O241 2.326 . S
In234 O242 2.266 . S
In234 O243 2.326 . S
In234 O245 2.294 . S
In234 O246 2.326 . S
O235 In234 2.294 . S
O235 C244 1.240 . S
O236 In234 2.326 . S
O236 C244 1.252 . S
C237 O240 1.252 . S
C237 O241 1.260 . S
C238 O245 1.240 . S
C238 O246 1.252 . S
C239 O242 1.252 . S
C239 O243 1.260 . S
O240 In234 2.266 . S
O240 C237 1.252 . S
O241 In234 2.326 . S
O241 C237 1.260 . S
O242 In234 2.266 . S
O242 C239 1.252 . S
O243 In234 2.326 . S
O243 C239 1.260 . S
C244 O235 1.240 . S
C244 O236 1.252 . S
O245 In234 2.294 . S
O245 C238 1.240 . S
O246 In234 2.326 . S
O246 C238 1.252 . S
In247 O248 2.294 . S
In247 O249 2.326 . S
In247 O253 2.266 . S
In247 O254 2.326 . S
In247 O255 2.266 . S
In247 O256 2.326 . S
In247 O258 2.294 . S
In247 O259 2.326 . S
O248 In247 2.294 . S
O248 C257 1.240 . S
O249 In247 2.326 . S
O249 C257 1.252 . S
C250 O253 1.252 . S
C250 O254 1.260 . S
C251 O258 1.240 . S
C251 O259 1.252 . S
C252 O255 1.252 . S
C252 O256 1.260 . S
O253 In247 2.266 . S
O253 C250 1.252 . S
O254 In247 2.326 . S
O254 C250 1.260 . S
O255 In247 2.266 . S
O255 C252 1.252 . S
O256 In247 2.326 . S
O256 C252 1.260 . S
C257 O248 1.240 . S
C257 O249 1.252 . S
O258 In247 2.294 . S
O258 C251 1.240 . S
O259 In247 2.326 . S
O259 C251 1.252 . S
In260 O261 2.294 . S
In260 O262 2.326 . S
In260 O266 2.266 . S
In260 O267 2.326 . S
In260 O268 2.266 . S
In260 O269 2.326 . S
In260 O271 2.294 . S
In260 O272 2.326 . S
O261 In260 2.294 . S
O261 C270 1.240 . S
O262 In260 2.326 . S
O262 C270 1.252 . S
C263 O266 1.252 . S
C263 O267 1.260 . S
C264 O271 1.240 . S
C264 O272 1.252 . S
C265 O268 1.252 . S
C265 O269 1.260 . S
O266 In260 2.266 . S
O266 C263 1.252 . S
O267 In260 2.326 . S
O267 C263 1.260 . S
O268 In260 2.266 . S
O268 C265 1.252 . S
O269 In260 2.326 . S
O269 C265 1.260 . S
C270 O261 1.240 . S
C270 O262 1.252 . S
O271 In260 2.294 . S
O271 C264 1.240 . S
O272 In260 2.326 . S
O272 C264 1.252 . S
In273 O274 2.297 . S
In273 O275 2.328 . S
In273 O279 2.266 1_554 S
In273 O280 2.323 1_554 S
In273 O281 2.263 1_554 S
In273 O282 2.324 1_554 S
In273 O284 2.294 . S
In273 O285 2.329 . S
O274 In273 2.297 . S
O274 C283 1.240 . S
O275 In273 2.328 . S
O275 C283 1.252 . S
C276 O279 1.252 . S
C276 O280 1.260 . S
C277 O284 1.240 . S
C277 O285 1.252 . S
C278 O281 1.252 . S
C278 O282 1.260 . S
O279 In273 2.266 1_556 S
O279 C276 1.252 . S
O280 In273 2.323 1_556 S
O280 C276 1.260 . S
O281 In273 2.263 1_556 S
O281 C278 1.252 . S
O282 In273 2.324 1_556 S
O282 C278 1.260 . S
C283 O274 1.240 . S
C283 O275 1.252 . S
O284 In273 2.294 . S
O284 C277 1.240 . S
O285 In273 2.329 . S
O285 C277 1.252 . S
In286 O287 2.294 . S
In286 O288 2.329 . S
In286 O292 2.263 1_554 S
In286 O293 2.324 1_554 S
In286 O294 2.266 1_554 S
In286 O295 2.323 1_554 S
In286 O297 2.297 . S
In286 O298 2.328 . S
O287 In286 2.294 . S
O287 C296 1.240 . S
O288 In286 2.329 . S
O288 C296 1.252 . S
C289 O292 1.252 . S
C289 O293 1.260 . S
C290 O297 1.240 . S
C290 O298 1.252 . S
C291 O294 1.252 . S
C291 O295 1.260 . S
O292 In286 2.263 1_556 S
O292 C289 1.252 . S
O293 In286 2.324 1_556 S
O293 C289 1.260 . S
O294 In286 2.266 1_556 S
O294 C291 1.252 . S
O295 In286 2.323 1_556 S
O295 C291 1.260 . S
C296 O287 1.240 . S
C296 O288 1.252 . S
O297 In286 2.297 . S
O297 C290 1.240 . S
O298 In286 2.328 . S
O298 C290 1.252 . S
In299 O300 2.294 . S
In299 O301 2.329 . S
In299 O305 2.263 1_554 S
In299 O306 2.324 1_554 S
In299 O307 2.266 1_554 S
In299 O308 2.323 1_554 S
In299 O310 2.297 . S
In299 O311 2.328 . S
O300 In299 2.294 . S
O300 C309 1.240 . S
O301 In299 2.329 . S
O301 C309 1.252 . S
C302 O305 1.252 . S
C302 O306 1.260 . S
C303 O310 1.240 . S
C303 O311 1.252 . S
C304 O307 1.252 . S
C304 O308 1.260 . S
O305 In299 2.263 1_556 S
O305 C302 1.252 . S
O306 In299 2.324 1_556 S
O306 C302 1.260 . S
O307 In299 2.266 1_556 S
O307 C304 1.252 . S
O308 In299 2.323 1_556 S
O308 C304 1.260 . S
C309 O300 1.240 . S
C309 O301 1.252 . S
O310 In299 2.297 . S
O310 C303 1.240 . S
O311 In299 2.328 . S
O311 C303 1.252 . S
In312 O313 2.294 . S
In312 O314 2.326 . S
In312 O318 2.266 . S
In312 O319 2.326 . S
In312 O320 2.266 . S
In312 O321 2.326 . S
In312 O323 2.294 . S
In312 O324 2.326 . S
O313 In312 2.294 . S
O313 C322 1.240 . S
O314 In312 2.326 . S
O314 C322 1.252 . S
C315 O318 1.252 . S
C315 O319 1.260 . S
C316 O323 1.240 . S
C316 O324 1.252 . S
C317 O320 1.252 . S
C317 O321 1.260 . S
O318 In312 2.266 . S
O318 C315 1.252 . S
O319 In312 2.326 . S
O319 C315 1.260 . S
O320 In312 2.266 . S
O320 C317 1.252 . S
O321 In312 2.326 . S
O321 C317 1.260 . S
C322 O313 1.240 . S
C322 O314 1.252 . S
O323 In312 2.294 . S
O323 C316 1.240 . S
O324 In312 2.326 . S
O324 C316 1.252 . S
In325 O326 2.294 . S
In325 O327 2.326 . S
In325 O331 2.266 . S
In325 O332 2.326 . S
In325 O333 2.266 . S
In325 O334 2.326 . S
In325 O336 2.294 . S
In325 O337 2.326 . S
O326 In325 2.294 . S
O326 C335 1.240 . S
O327 In325 2.326 . S
O327 C335 1.252 . S
C328 O331 1.252 . S
C328 O332 1.260 . S
C329 O336 1.240 . S
C329 O337 1.252 . S
C330 O333 1.252 . S
C330 O334 1.260 . S
O331 In325 2.266 . S
O331 C328 1.252 . S
O332 In325 2.326 . S
O332 C328 1.260 . S
O333 In325 2.266 . S
O333 C330 1.252 . S
O334 In325 2.326 . S
O334 C330 1.260 . S
C335 O326 1.240 . S
C335 O327 1.252 . S
O336 In325 2.294 . S
O336 C329 1.240 . S
O337 In325 2.326 . S
O337 C329 1.252 . S
In338 O339 2.294 . S
In338 O340 2.326 . S
In338 O344 2.266 . S
In338 O345 2.326 . S
In338 O346 2.266 . S
In338 O347 2.326 . S
In338 O349 2.294 . S
In338 O350 2.326 . S
O339 In338 2.294 . S
O339 C348 1.240 . S
O340 In338 2.326 . S
O340 C348 1.252 . S
C341 O344 1.252 . S
C341 O345 1.260 . S
C342 O349 1.240 . S
C342 O350 1.252 . S
C343 O346 1.252 . S
C343 O347 1.260 . S
O344 In338 2.266 . S
O344 C341 1.252 . S
O345 In338 2.326 . S
O345 C341 1.260 . S
O346 In338 2.266 . S
O346 C343 1.252 . S
O347 In338 2.326 . S
O347 C343 1.260 . S
C348 O339 1.240 . S
C348 O340 1.252 . S
O349 In338 2.294 . S
O349 C342 1.240 . S
O350 In338 2.326 . S
O350 C342 1.252 . S
In351 O352 2.294 . S
In351 O353 2.329 . S
In351 O357 2.263 1_556 S
In351 O358 2.324 1_556 S
In351 O359 2.266 1_556 S
In351 O360 2.323 1_556 S
In351 O362 2.297 . S
In351 O363 2.328 . S
O352 In351 2.294 . S
O352 C361 1.240 . S
O353 In351 2.329 . S
O353 C361 1.252 . S
C354 O357 1.252 . S
C354 O358 1.260 . S
C355 O362 1.240 . S
C355 O363 1.252 . S
C356 O359 1.252 . S
C356 O360 1.260 . S
O357 In351 2.263 1_554 S
O357 C354 1.252 . S
O358 In351 2.324 1_554 S
O358 C354 1.260 . S
O359 In351 2.266 1_554 S
O359 C356 1.252 . S
O360 In351 2.323 1_554 S
O360 C356 1.260 . S
C361 O352 1.240 . S
C361 O353 1.252 . S
O362 In351 2.297 . S
O362 C355 1.240 . S
O363 In351 2.328 . S
O363 C355 1.252 . S
In364 O365 2.297 . S
In364 O366 2.328 . S
In364 O370 2.266 1_556 S
In364 O371 2.323 1_556 S
In364 O372 2.263 1_556 S
In364 O373 2.324 1_556 S
In364 O375 2.294 . S
In364 O376 2.329 . S
O365 In364 2.297 . S
O365 C374 1.240 . S
O366 In364 2.328 . S
O366 C374 1.252 . S
C367 O370 1.252 . S
C367 O371 1.260 . S
C368 O375 1.240 . S
C368 O376 1.252 . S
C369 O372 1.252 . S
C369 O373 1.260 . S
O370 In364 2.266 1_554 S
O370 C367 1.252 . S
O371 In364 2.323 1_554 S
O371 C367 1.260 . S
O372 In364 2.263 1_554 S
O372 C369 1.252 . S
O373 In364 2.324 1_554 S
O373 C369 1.260 . S
C374 O365 1.240 . S
C374 O366 1.252 . S
O375 In364 2.294 . S
O375 C368 1.240 . S
O376 In364 2.329 . S
O376 C368 1.252 . S
In377 O378 2.297 . S
In377 O379 2.328 . S
In377 O383 2.266 1_556 S
In377 O384 2.323 1_556 S
In377 O385 2.263 1_556 S
In377 O386 2.324 1_556 S
In377 O388 2.294 . S
In377 O389 2.329 . S
O378 In377 2.297 . S
O378 C387 1.240 . S
O379 In377 2.328 . S
O379 C387 1.252 . S
C380 O383 1.252 . S
C380 O384 1.260 . S
C381 O388 1.240 . S
C381 O389 1.252 . S
C382 O385 1.252 . S
C382 O386 1.260 . S
O383 In377 2.266 1_554 S
O383 C380 1.252 . S
O384 In377 2.323 1_554 S
O384 C380 1.260 . S
O385 In377 2.263 1_554 S
O385 C382 1.252 . S
O386 In377 2.324 1_554 S
O386 C382 1.260 . S
C387 O378 1.240 . S
C387 O379 1.252 . S
O388 In377 2.294 . S
O388 C381 1.240 . S
O389 In377 2.329 . S
O389 C381 1.252 . S
In390 O391 2.294 . S
In390 O392 2.326 . S
In390 O396 2.266 . S
In390 O397 2.326 . S
In390 O398 2.266 . S
In390 O399 2.326 . S
In390 O401 2.294 . S
In390 O402 2.326 . S
O391 In390 2.294 . S
O391 C400 1.240 . S
O392 In390 2.326 . S
O392 C400 1.252 . S
C393 O396 1.252 . S
C393 O397 1.260 . S
C394 O401 1.240 . S
C394 O402 1.252 . S
C395 O398 1.252 . S
C395 O399 1.260 . S
O396 In390 2.266 . S
O396 C393 1.252 . S
O397 In390 2.326 . S
O397 C393 1.260 . S
O398 In390 2.266 . S
O398 C395 1.252 . S
O399 In390 2.326 . S
O399 C395 1.260 . S
C400 O391 1.240 . S
C400 O392 1.252 . S
O401 In390 2.294 . S
O401 C394 1.240 . S
O402 In390 2.326 . S
O402 C394 1.252 . S
In403 O404 2.294 . S
In403 O405 2.326 . S
In403 O409 2.266 . S
In403 O410 2.326 . S
In403 O411 2.266 . S
In403 O412 2.326 . S
In403 O414 2.294 . S
In403 O415 2.326 . S
O404 In403 2.294 . S
O404 C413 1.240 . S
O405 In403 2.326 . S
O405 C413 1.252 . S
C406 O409 1.252 . S
C406 O410 1.260 . S
C407 O414 1.240 . S
C407 O415 1.252 . S
C408 O411 1.252 . S
C408 O412 1.260 . S
O409 In403 2.266 . S
O409 C406 1.252 . S
O410 In403 2.326 . S
O410 C406 1.260 . S
O411 In403 2.266 . S
O411 C408 1.252 . S
O412 In403 2.326 . S
O412 C408 1.260 . S
C413 O404 1.240 . S
C413 O405 1.252 . S
O414 In403 2.294 . S
O414 C407 1.240 . S
O415 In403 2.326 . S
O415 C407 1.252 . S
In416 O417 2.294 . S
In416 O418 2.326 . S
In416 O422 2.266 . S
In416 O423 2.326 . S
In416 O424 2.266 . S
In416 O425 2.326 . S
In416 O427 2.294 . S
In416 O428 2.326 . S
O417 In416 2.294 . S
O417 C426 1.240 . S
O418 In416 2.326 . S
O418 C426 1.252 . S
C419 O422 1.252 . S
C419 O423 1.260 . S
C420 O427 1.240 . S
C420 O428 1.252 . S
C421 O424 1.252 . S
C421 O425 1.260 . S
O422 In416 2.266 . S
O422 C419 1.252 . S
O423 In416 2.326 . S
O423 C419 1.260 . S
O424 In416 2.266 . S
O424 C421 1.252 . S
O425 In416 2.326 . S
O425 C421 1.260 . S
C426 O417 1.240 . S
C426 O418 1.252 . S
O427 In416 2.294 . S
O427 C420 1.240 . S
O428 In416 2.326 . S
O428 C420 1.252 . S
In429 O430 2.294 . S
In429 O431 2.326 . S
In429 O435 2.266 . S
In429 O436 2.326 . S
In429 O437 2.266 . S
In429 O438 2.326 . S
In429 O440 2.294 . S
In429 O441 2.326 . S
O430 In429 2.294 . S
O430 C439 1.240 . S
O431 In429 2.326 . S
O431 C439 1.252 . S
C432 O435 1.252 . S
C432 O436 1.260 . S
C433 O440 1.240 . S
C433 O441 1.252 . S
C434 O437 1.252 . S
C434 O438 1.260 . S
O435 In429 2.266 . S
O435 C432 1.252 . S
O436 In429 2.326 . S
O436 C432 1.260 . S
O437 In429 2.266 . S
O437 C434 1.252 . S
O438 In429 2.326 . S
O438 C434 1.260 . S
C439 O430 1.240 . S
C439 O431 1.252 . S
O440 In429 2.294 . S
O440 C433 1.240 . S
O441 In429 2.326 . S
O441 C433 1.252 . S
In442 O443 2.294 . S
In442 O444 2.326 . S
In442 O448 2.266 . S
In442 O449 2.326 . S
In442 O450 2.266 . S
In442 O451 2.326 . S
In442 O453 2.294 . S
In442 O454 2.326 . S
O443 In442 2.294 . S
O443 C452 1.240 . S
O444 In442 2.326 . S
O444 C452 1.252 . S
C445 O448 1.252 . S
C445 O449 1.260 . S
C446 O453 1.240 . S
C446 O454 1.252 . S
C447 O450 1.252 . S
C447 O451 1.260 . S
O448 In442 2.266 . S
O448 C445 1.252 . S
O449 In442 2.326 . S
O449 C445 1.260 . S
O450 In442 2.266 . S
O450 C447 1.252 . S
O451 In442 2.326 . S
O451 C447 1.260 . S
C452 O443 1.240 . S
C452 O444 1.252 . S
O453 In442 2.294 . S
O453 C446 1.240 . S
O454 In442 2.326 . S
O454 C446 1.252 . S
In455 O456 2.294 . S
In455 O457 2.326 . S
In455 O461 2.266 . S
In455 O462 2.326 . S
In455 O463 2.266 . S
In455 O464 2.326 . S
In455 O466 2.294 . S
In455 O467 2.326 . S
O456 In455 2.294 . S
O456 C465 1.240 . S
O457 In455 2.326 . S
O457 C465 1.252 . S
C458 O461 1.252 . S
C458 O462 1.260 . S
C459 O466 1.240 . S
C459 O467 1.252 . S
C460 O463 1.252 . S
C460 O464 1.260 . S
O461 In455 2.266 . S
O461 C458 1.252 . S
O462 In455 2.326 . S
O462 C458 1.260 . S
O463 In455 2.266 . S
O463 C460 1.252 . S
O464 In455 2.326 . S
O464 C460 1.260 . S
C465 O456 1.240 . S
C465 O457 1.252 . S
O466 In455 2.294 . S
O466 C459 1.240 . S
O467 In455 2.326 . S
O467 C459 1.252 . S
H468 C486 0.951 . S
H469 C488 0.951 . S
H470 C490 0.950 . S
H471 C491 0.950 . S
H472 C493 0.950 . S
H473 C496 0.950 . S
H474 C497 0.950 . S
H475 C499 0.950 . S
H476 C500 0.950 . S
H477 C501 0.951 . S
H478 C503 0.951 . S
H479 C505 0.950 . S
H480 C506 0.950 . S
H481 C508 0.950 . S
H482 C511 0.950 . S
H483 C512 0.950 . S
H484 C514 0.950 . S
H485 C515 0.950 . S
C486 H468 0.951 . S
C486 C487 1.366 . S
C486 C488 1.388 . S
C487 C486 1.366 . S
C487 C491 1.385 . S
C488 H469 0.951 . S
C488 C486 1.388 . S
C488 C489 1.366 . S
C489 C488 1.366 . S
C489 C490 1.414 . S
C489 C492 1.499 . S
C490 H470 0.950 . S
C490 C489 1.414 . S
C490 C491 1.374 . S
C491 H471 0.950 . S
C491 C487 1.385 . S
C491 C490 1.374 . S
C492 C489 1.499 . S
C492 C493 1.373 . S
C492 C494 1.389 . S
C493 H472 0.950 . S
C493 C492 1.373 . S
C493 C509 1.377 . S
C494 C492 1.389 . S
C494 C495 1.524 . S
C494 C508 1.377 . S
C495 C494 1.524 . S
C495 C496 1.397 . S
C495 C500 1.363 . S
C496 H473 0.950 . S
C496 C495 1.397 . S
C496 C497 1.334 . S
C497 H474 0.950 . S
C497 C496 1.334 . S
C497 C498 1.287 . S
C498 C497 1.287 . S
C498 C499 1.524 . S
C498 H517 0.913 . S
C499 H475 0.950 . S
C499 C498 1.524 . S
C499 C500 1.415 . S
C500 H476 0.950 . S
C500 C495 1.363 . S
C500 C499 1.415 . S
C501 H477 0.951 . S
C501 C502 1.366 . S
C501 C503 1.388 . S
C502 C501 1.366 . S
C502 C506 1.385 . S
C503 H478 0.951 . S
C503 C501 1.388 . S
C503 C504 1.366 . S
C504 C503 1.366 . S
C504 C505 1.414 . S
C504 C507 1.499 . S
C505 H479 0.950 . S
C505 C504 1.414 . S
C505 C506 1.374 . S
C506 H480 0.950 . S
C506 C502 1.385 . S
C506 C505 1.374 . S
C507 C504 1.499 . S
C507 C508 1.373 . S
C507 C509 1.389 . S
C508 H481 0.950 . S
C508 C494 1.377 . S
C508 C507 1.373 . S
C509 C493 1.377 . S
C509 C507 1.389 . S
C509 C510 1.524 . S
C510 C509 1.524 . S
C510 C511 1.397 . S
C510 C515 1.363 . S
C511 H482 0.950 . S
C511 C510 1.397 . S
C511 C512 1.334 . S
C512 H483 0.950 . S
C512 C511 1.334 . S
C512 C513 1.287 . S
C513 C512 1.287 . S
C513 C514 1.524 . S
C513 H516 0.999 . S
C514 H484 0.950 . S
C514 C513 1.524 . S
C514 C515 1.415 . S
C515 H485 0.950 . S
C515 C510 1.363 . S
C515 C514 1.415 . S
H516 C513 0.999 . S
H517 C498 0.913 . S
H518 C536 0.951 . S
H519 C538 0.951 . S
H520 C540 0.950 . S
H521 C541 0.950 . S
H522 C543 0.950 . S
H523 C546 0.950 . S
H524 C547 0.950 . S
H525 C549 0.950 . S
H526 C550 0.950 . S
H527 C551 0.951 . S
H528 C553 0.951 . S
H529 C555 0.950 . S
H530 C556 0.950 . S
H531 C558 0.950 . S
H532 C561 0.950 . S
H533 C562 0.950 . S
H534 C564 0.950 . S
H535 C565 0.950 . S
C536 H518 0.951 . S
C536 C537 1.366 . S
C536 C538 1.388 . S
C537 C536 1.366 . S
C537 C541 1.385 . S
C538 H519 0.951 . S
C538 C536 1.388 . S
C538 C539 1.366 . S
C539 C538 1.366 . S
C539 C540 1.414 . S
C539 C542 1.499 . S
C540 H520 0.950 . S
C540 C539 1.414 . S
C540 C541 1.374 . S
C541 H521 0.950 . S
C541 C537 1.385 . S
C541 C540 1.374 . S
C542 C539 1.499 . S
C542 C543 1.373 . S
C542 C544 1.389 . S
C543 H522 0.950 . S
C543 C542 1.373 . S
C543 C559 1.377 1_545 S
C544 C542 1.389 . S
C544 C545 1.524 . S
C544 C558 1.377 1_545 S
C545 C544 1.524 . S
C545 C546 1.397 . S
C545 C550 1.363 . S
C546 H523 0.950 . S
C546 C545 1.397 . S
C546 C547 1.334 . S
C547 H524 0.950 . S
C547 C546 1.334 . S
C547 C548 1.287 . S
C548 C547 1.287 . S
C548 C549 1.524 . S
C548 H567 0.913 . S
C549 H525 0.950 . S
C549 C548 1.524 . S
C549 C550 1.415 . S
C550 H526 0.950 . S
C550 C545 1.363 . S
C550 C549 1.415 . S
C551 H527 0.951 . S
C551 C552 1.366 . S
C551 C553 1.388 . S
C552 C551 1.366 . S
C552 C556 1.385 . S
C553 H528 0.951 . S
C553 C551 1.388 . S
C553 C554 1.366 . S
C554 C553 1.366 . S
C554 C555 1.414 . S
C554 C557 1.499 . S
C555 H529 0.950 . S
C555 C554 1.414 . S
C555 C556 1.374 . S
C556 H530 0.950 . S
C556 C552 1.385 . S
C556 C555 1.374 . S
C557 C554 1.499 . S
C557 C558 1.373 . S
C557 C559 1.389 . S
C558 H531 0.950 . S
C558 C544 1.377 1_565 S
C558 C557 1.373 . S
C559 C543 1.377 1_565 S
C559 C557 1.389 . S
C559 C560 1.524 . S
C560 C559 1.524 . S
C560 C561 1.397 . S
C560 C565 1.363 . S
C561 H532 0.950 . S
C561 C560 1.397 . S
C561 C562 1.334 . S
C562 H533 0.950 . S
C562 C561 1.334 . S
C562 C563 1.287 . S
C563 C562 1.287 . S
C563 C564 1.524 . S
C563 H566 0.999 . S
C564 H534 0.950 . S
C564 C563 1.524 . S
C564 C565 1.415 . S
C565 H535 0.950 . S
C565 C560 1.363 . S
C565 C564 1.415 . S
H566 C563 0.999 . S
H567 C548 0.913 . S
H568 C586 0.951 . S
H569 C588 0.951 . S
H570 C590 0.950 . S
H571 C591 0.950 . S
H572 C593 0.950 . S
H573 C596 0.950 . S
H574 C597 0.950 . S
H575 C599 0.950 . S
H576 C600 0.950 . S
H577 C601 0.951 . S
H578 C603 0.951 . S
H579 C605 0.950 . S
H580 C606 0.950 . S
H581 C608 0.950 . S
H582 C611 0.950 . S
H583 C612 0.950 . S
H584 C614 0.950 . S
H585 C615 0.950 . S
C586 H568 0.951 . S
C586 C587 1.366 . S
C586 C588 1.388 . S
C587 C586 1.366 . S
C587 C591 1.385 . S
C588 H569 0.951 . S
C588 C586 1.388 . S
C588 C589 1.366 . S
C589 C588 1.366 . S
C589 C590 1.414 . S
C589 C592 1.499 . S
C590 H570 0.950 . S
C590 C589 1.414 . S
C590 C591 1.374 . S
C591 H571 0.950 . S
C591 C587 1.385 . S
C591 C590 1.374 . S
C592 C589 1.499 . S
C592 C593 1.373 . S
C592 C594 1.389 . S
C593 H572 0.950 . S
C593 C592 1.373 . S
C593 C609 1.377 1_655 S
C594 C592 1.389 . S
C594 C595 1.524 . S
C594 C608 1.377 1_655 S
C595 C594 1.524 . S
C595 C596 1.397 . S
C595 C600 1.363 . S
C596 H573 0.950 . S
C596 C595 1.397 . S
C596 C597 1.334 . S
C597 H574 0.950 . S
C597 C596 1.334 . S
C597 C598 1.287 . S
C598 C597 1.287 . S
C598 C599 1.524 . S
C598 H617 0.913 . S
C599 H575 0.950 . S
C599 C598 1.524 . S
C599 C600 1.415 . S
C600 H576 0.950 . S
C600 C595 1.363 . S
C600 C599 1.415 . S
C601 H577 0.951 . S
C601 C602 1.366 . S
C601 C603 1.388 . S
C602 C601 1.366 . S
C602 C606 1.385 . S
C603 H578 0.951 . S
C603 C601 1.388 . S
C603 C604 1.366 . S
C604 C603 1.366 . S
C604 C605 1.414 . S
C604 C607 1.499 . S
C605 H579 0.950 . S
C605 C604 1.414 . S
C605 C606 1.374 . S
C606 H580 0.950 . S
C606 C602 1.385 . S
C606 C605 1.374 . S
C607 C604 1.499 . S
C607 C608 1.373 . S
C607 C609 1.389 . S
C608 H581 0.950 . S
C608 C594 1.377 1_455 S
C608 C607 1.373 . S
C609 C593 1.377 1_455 S
C609 C607 1.389 . S
C609 C610 1.524 . S
C610 C609 1.524 . S
C610 C611 1.397 . S
C610 C615 1.363 . S
C611 H582 0.950 . S
C611 C610 1.397 . S
C611 C612 1.334 . S
C612 H583 0.950 . S
C612 C611 1.334 . S
C612 C613 1.287 . S
C613 C612 1.287 . S
C613 C614 1.524 . S
C613 H616 0.999 . S
C614 H584 0.950 . S
C614 C613 1.524 . S
C614 C615 1.415 . S
C615 H585 0.950 . S
C615 C610 1.363 . S
C615 C614 1.415 . S
H616 C613 0.999 . S
H617 C598 0.913 . S
H618 C636 0.951 . S
H619 C638 0.951 . S
H620 C640 0.950 . S
H621 C641 0.950 . S
H622 C643 0.950 . S
H623 C646 0.950 . S
H624 C647 0.950 . S
H625 C649 0.950 . S
H626 C650 0.950 . S
H627 C651 0.951 . S
H628 C653 0.951 . S
H629 C655 0.950 . S
H630 C656 0.950 . S
H631 C658 0.950 . S
H632 C661 0.950 . S
H633 C662 0.950 . S
H634 C664 0.950 . S
H635 C665 0.950 . S
C636 H618 0.951 . S
C636 C637 1.366 . S
C636 C638 1.388 . S
C637 C636 1.366 . S
C637 C641 1.385 . S
C638 H619 0.951 . S
C638 C636 1.388 . S
C638 C639 1.366 . S
C639 C638 1.366 . S
C639 C640 1.414 . S
C639 C642 1.499 . S
C640 H620 0.950 . S
C640 C639 1.414 . S
C640 C641 1.374 . S
C641 H621 0.950 . S
C641 C637 1.385 . S
C641 C640 1.374 . S
C642 C639 1.499 . S
C642 C643 1.373 . S
C642 C644 1.389 . S
C643 H622 0.950 . S
C643 C642 1.373 . S
C643 C659 1.377 . S
C644 C642 1.389 . S
C644 C645 1.524 . S
C644 C658 1.377 . S
C645 C644 1.524 . S
C645 C646 1.397 . S
C645 C650 1.363 . S
C646 H623 0.950 . S
C646 C645 1.397 . S
C646 C647 1.334 . S
C647 H624 0.950 . S
C647 C646 1.334 . S
C647 C648 1.287 . S
C648 C647 1.287 . S
C648 C649 1.524 . S
C648 H667 0.913 . S
C649 H625 0.950 . S
C649 C648 1.524 . S
C649 C650 1.415 . S
C650 H626 0.950 . S
C650 C645 1.363 . S
C650 C649 1.415 . S
C651 H627 0.951 . S
C651 C652 1.366 . S
C651 C653 1.388 . S
C652 C651 1.366 . S
C652 C656 1.385 . S
C653 H628 0.951 . S
C653 C651 1.388 . S
C653 C654 1.366 . S
C654 C653 1.366 . S
C654 C655 1.414 . S
C654 C657 1.499 . S
C655 H629 0.950 . S
C655 C654 1.414 . S
C655 C656 1.374 . S
C656 H630 0.950 . S
C656 C652 1.385 . S
C656 C655 1.374 . S
C657 C654 1.499 . S
C657 C658 1.373 . S
C657 C659 1.389 . S
C658 H631 0.950 . S
C658 C644 1.377 . S
C658 C657 1.373 . S
C659 C643 1.377 . S
C659 C657 1.389 . S
C659 C660 1.524 . S
C660 C659 1.524 . S
C660 C661 1.397 . S
C660 C665 1.363 . S
C661 H632 0.950 . S
C661 C660 1.397 . S
C661 C662 1.334 . S
C662 H633 0.950 . S
C662 C661 1.334 . S
C662 C663 1.287 . S
C663 C662 1.287 . S
C663 C664 1.524 . S
C663 H666 0.999 . S
C664 H634 0.950 . S
C664 C663 1.524 . S
C664 C665 1.415 . S
C665 H635 0.950 . S
C665 C660 1.363 . S
C665 C664 1.415 . S
H666 C663 0.999 . S
H667 C648 0.913 . S
H668 C686 0.951 . S
H669 C688 0.951 . S
H670 C690 0.950 . S
H671 C691 0.950 . S
H672 C693 0.950 . S
H673 C696 0.950 . S
H674 C697 0.950 . S
H675 C699 0.950 . S
H676 C700 0.950 . S
H677 C701 0.951 . S
H678 C703 0.951 . S
H679 C705 0.950 . S
H680 C706 0.950 . S
H681 C708 0.950 . S
H682 C711 0.950 . S
H683 C712 0.950 . S
H684 C714 0.950 . S
H685 C715 0.950 . S
C686 H668 0.951 . S
C686 C687 1.366 . S
C686 C688 1.388 . S
C687 C686 1.366 . S
C687 C691 1.385 . S
C688 H669 0.951 . S
C688 C686 1.388 . S
C688 C689 1.366 . S
C689 C688 1.366 . S
C689 C690 1.414 . S
C689 C692 1.499 . S
C690 H670 0.950 . S
C690 C689 1.414 . S
C690 C691 1.374 . S
C691 H671 0.950 . S
C691 C687 1.385 . S
C691 C690 1.374 . S
C692 C689 1.499 . S
C692 C693 1.373 . S
C692 C694 1.389 . S
C693 H672 0.950 . S
C693 C692 1.373 . S
C693 C709 1.377 1_545 S
C694 C692 1.389 . S
C694 C695 1.524 . S
C694 C708 1.377 1_545 S
C695 C694 1.524 . S
C695 C696 1.397 . S
C695 C700 1.363 . S
C696 H673 0.950 . S
C696 C695 1.397 . S
C696 C697 1.334 . S
C697 H674 0.950 . S
C697 C696 1.334 . S
C697 C698 1.287 . S
C698 C697 1.287 . S
C698 C699 1.524 . S
C698 H717 0.913 . S
C699 H675 0.950 . S
C699 C698 1.524 . S
C699 C700 1.415 . S
C700 H676 0.950 . S
C700 C695 1.363 . S
C700 C699 1.415 . S
C701 H677 0.951 . S
C701 C702 1.366 . S
C701 C703 1.388 . S
C702 C701 1.366 . S
C702 C706 1.385 . S
C703 H678 0.951 . S
C703 C701 1.388 . S
C703 C704 1.366 . S
C704 C703 1.366 . S
C704 C705 1.414 . S
C704 C707 1.499 . S
C705 H679 0.950 . S
C705 C704 1.414 . S
C705 C706 1.374 . S
C706 H680 0.950 . S
C706 C702 1.385 . S
C706 C705 1.374 . S
C707 C704 1.499 . S
C707 C708 1.373 . S
C707 C709 1.389 . S
C708 H681 0.950 . S
C708 C694 1.377 1_565 S
C708 C707 1.373 . S
C709 C693 1.377 1_565 S
C709 C707 1.389 . S
C709 C710 1.524 . S
C710 C709 1.524 . S
C710 C711 1.397 . S
C710 C715 1.363 . S
C711 H682 0.950 . S
C711 C710 1.397 . S
C711 C712 1.334 . S
C712 H683 0.950 . S
C712 C711 1.334 . S
C712 C713 1.287 . S
C713 C712 1.287 . S
C713 C714 1.524 . S
C713 H716 0.999 . S
C714 H684 0.950 . S
C714 C713 1.524 . S
C714 C715 1.415 . S
C715 H685 0.950 . S
C715 C710 1.363 . S
C715 C714 1.415 . S
H716 C713 0.999 . S
H717 C698 0.913 . S
H718 C736 0.951 . S
H719 C738 0.951 . S
H720 C740 0.950 . S
H721 C741 0.950 . S
H722 C743 0.950 . S
H723 C746 0.950 . S
H724 C747 0.950 . S
H725 C749 0.950 . S
H726 C750 0.950 . S
H727 C751 0.951 . S
H728 C753 0.951 . S
H729 C755 0.950 . S
H730 C756 0.950 . S
H731 C758 0.950 . S
H732 C761 0.950 . S
H733 C762 0.950 . S
H734 C764 0.950 . S
H735 C765 0.950 . S
C736 H718 0.951 . S
C736 C737 1.366 . S
C736 C738 1.388 . S
C737 C736 1.366 . S
C737 C741 1.385 . S
C738 H719 0.951 . S
C738 C736 1.388 . S
C738 C739 1.366 . S
C739 C738 1.366 . S
C739 C740 1.414 . S
C739 C742 1.499 . S
C740 H720 0.950 . S
C740 C739 1.414 . S
C740 C741 1.374 . S
C741 H721 0.950 . S
C741 C737 1.385 . S
C741 C740 1.374 . S
C742 C739 1.499 . S
C742 C743 1.373 . S
C742 C744 1.389 . S
C743 H722 0.950 . S
C743 C742 1.373 . S
C743 C759 1.377 1_455 S
C744 C742 1.389 . S
C744 C745 1.524 . S
C744 C758 1.377 1_455 S
C745 C744 1.524 . S
C745 C746 1.397 . S
C745 C750 1.363 . S
C746 H723 0.950 . S
C746 C745 1.397 . S
C746 C747 1.334 . S
C747 H724 0.950 . S
C747 C746 1.334 . S
C747 C748 1.287 . S
C748 C747 1.287 . S
C748 C749 1.524 . S
C748 H767 0.913 . S
C749 H725 0.950 . S
C749 C748 1.524 . S
C749 C750 1.415 . S
C750 H726 0.950 . S
C750 C745 1.363 . S
C750 C749 1.415 . S
C751 H727 0.951 . S
C751 C752 1.366 . S
C751 C753 1.388 . S
C752 C751 1.366 . S
C752 C756 1.385 . S
C753 H728 0.951 . S
C753 C751 1.388 . S
C753 C754 1.366 . S
C754 C753 1.366 . S
C754 C755 1.414 . S
C754 C757 1.499 . S
C755 H729 0.950 . S
C755 C754 1.414 . S
C755 C756 1.374 . S
C756 H730 0.950 . S
C756 C752 1.385 . S
C756 C755 1.374 . S
C757 C754 1.499 . S
C757 C758 1.373 . S
C757 C759 1.389 . S
C758 H731 0.950 . S
C758 C744 1.377 1_655 S
C758 C757 1.373 . S
C759 C743 1.377 1_655 S
C759 C757 1.389 . S
C759 C760 1.524 . S
C760 C759 1.524 . S
C760 C761 1.397 . S
C760 C765 1.363 . S
C761 H732 0.950 . S
C761 C760 1.397 . S
C761 C762 1.334 . S
C762 H733 0.950 . S
C762 C761 1.334 . S
C762 C763 1.287 . S
C763 C762 1.287 . S
C763 C764 1.524 . S
C763 H766 0.999 . S
C764 H734 0.950 . S
C764 C763 1.524 . S
C764 C765 1.415 . S
C765 H735 0.950 . S
C765 C760 1.363 . S
C765 C764 1.415 . S
H766 C763 0.999 . S
H767 C748 0.913 . S
H768 C786 0.951 . S
H769 C788 0.951 . S
H770 C790 0.950 . S
H771 C791 0.950 . S
H772 C793 0.950 . S
H773 C796 0.950 . S
H774 C797 0.950 . S
H775 C799 0.950 . S
H776 C800 0.950 . S
H777 C801 0.951 . S
H778 C803 0.951 . S
H779 C805 0.950 . S
H780 C806 0.950 . S
H781 C808 0.950 . S
H782 C811 0.950 . S
H783 C812 0.950 . S
H784 C814 0.950 . S
H785 C815 0.950 . S
C786 H768 0.951 . S
C786 C787 1.366 . S
C786 C788 1.388 . S
C787 C786 1.366 . S
C787 C791 1.385 . S
C788 H769 0.951 . S
C788 C786 1.388 . S
C788 C789 1.366 . S
C789 C788 1.366 . S
C789 C790 1.414 . S
C789 C792 1.499 . S
C790 H770 0.950 . S
C790 C789 1.414 . S
C790 C791 1.374 . S
C791 H771 0.950 . S
C791 C787 1.385 . S
C791 C790 1.374 . S
C792 C789 1.499 . S
C792 C793 1.373 . S
C792 C794 1.389 . S
C793 H772 0.950 . S
C793 C792 1.373 . S
C793 C809 1.377 . S
C794 C792 1.389 . S
C794 C795 1.524 . S
C794 C808 1.377 . S
C795 C794 1.524 . S
C795 C796 1.397 . S
C795 C800 1.363 . S
C796 H773 0.950 . S
C796 C795 1.397 . S
C796 C797 1.334 . S
C797 H774 0.950 . S
C797 C796 1.334 . S
C797 C798 1.287 . S
C798 C797 1.287 . S
C798 C799 1.524 . S
C798 H817 0.913 . S
C799 H775 0.950 . S
C799 C798 1.524 . S
C799 C800 1.415 . S
C800 H776 0.950 . S
C800 C795 1.363 . S
C800 C799 1.415 . S
C801 H777 0.951 . S
C801 C802 1.366 . S
C801 C803 1.388 . S
C802 C801 1.366 . S
C802 C806 1.385 . S
C803 H778 0.951 . S
C803 C801 1.388 . S
C803 C804 1.366 . S
C804 C803 1.366 . S
C804 C805 1.414 . S
C804 C807 1.499 . S
C805 H779 0.950 . S
C805 C804 1.414 . S
C805 C806 1.374 . S
C806 H780 0.950 . S
C806 C802 1.385 . S
C806 C805 1.374 . S
C807 C804 1.499 . S
C807 C808 1.373 . S
C807 C809 1.389 . S
C808 H781 0.950 . S
C808 C794 1.377 . S
C808 C807 1.373 . S
C809 C793 1.377 . S
C809 C807 1.389 . S
C809 C810 1.524 . S
C810 C809 1.524 . S
C810 C811 1.397 . S
C810 C815 1.363 . S
C811 H782 0.950 . S
C811 C810 1.397 . S
C811 C812 1.334 . S
C812 H783 0.950 . S
C812 C811 1.334 . S
C812 C813 1.287 . S
C813 C812 1.287 . S
C813 C814 1.524 . S
C813 H816 0.999 . S
C814 H784 0.950 . S
C814 C813 1.524 . S
C814 C815 1.415 . S
C815 H785 0.950 . S
C815 C810 1.363 . S
C815 C814 1.415 . S
H816 C813 0.999 . S
H817 C798 0.913 . S
H818 C836 0.951 . S
H819 C838 0.951 . S
H820 C840 0.950 . S
H821 C841 0.950 . S
H822 C843 0.950 . S
H823 C846 0.950 . S
H824 C847 0.950 . S
H825 C849 0.950 . S
H826 C850 0.950 . S
H827 C851 0.951 . S
H828 C853 0.951 . S
H829 C855 0.950 . S
H830 C856 0.950 . S
H831 C858 0.950 . S
H832 C861 0.950 . S
H833 C862 0.950 . S
H834 C864 0.950 . S
H835 C865 0.950 . S
C836 H818 0.951 . S
C836 C837 1.366 . S
C836 C838 1.388 . S
C837 C836 1.366 . S
C837 C841 1.385 . S
C838 H819 0.951 . S
C838 C836 1.388 . S
C838 C839 1.366 . S
C839 C838 1.366 . S
C839 C840 1.414 . S
C839 C842 1.499 . S
C840 H820 0.950 . S
C840 C839 1.414 . S
C840 C841 1.374 . S
C841 H821 0.950 . S
C841 C837 1.385 . S
C841 C840 1.374 . S
C842 C839 1.499 . S
C842 C843 1.373 . S
C842 C844 1.389 . S
C843 H822 0.950 . S
C843 C842 1.373 . S
C843 C859 1.377 . S
C844 C842 1.389 . S
C844 C845 1.524 . S
C844 C858 1.377 . S
C845 C844 1.524 . S
C845 C846 1.397 . S
C845 C850 1.363 . S
C846 H823 0.950 . S
C846 C845 1.397 . S
C846 C847 1.334 . S
C847 H824 0.950 . S
C847 C846 1.334 . S
C847 C848 1.287 . S
C848 C847 1.287 . S
C848 C849 1.524 . S
C848 H867 0.913 . S
C849 H825 0.950 . S
C849 C848 1.524 . S
C849 C850 1.415 . S
C850 H826 0.950 . S
C850 C845 1.363 . S
C850 C849 1.415 . S
C851 H827 0.951 . S
C851 C852 1.366 . S
C851 C853 1.388 . S
C852 C851 1.366 . S
C852 C856 1.385 . S
C853 H828 0.951 . S
C853 C851 1.388 . S
C853 C854 1.366 . S
C854 C853 1.366 . S
C854 C855 1.414 . S
C854 C857 1.499 . S
C855 H829 0.950 . S
C855 C854 1.414 . S
C855 C856 1.374 . S
C856 H830 0.950 . S
C856 C852 1.385 . S
C856 C855 1.374 . S
C857 C854 1.499 . S
C857 C858 1.373 . S
C857 C859 1.389 . S
C858 H831 0.950 . S
C858 C844 1.377 . S
C858 C857 1.373 . S
C859 C843 1.377 . S
C859 C857 1.389 . S
C859 C860 1.524 . S
C860 C859 1.524 . S
C860 C861 1.397 . S
C860 C865 1.363 . S
C861 H832 0.950 . S
C861 C860 1.397 . S
C861 C862 1.334 . S
C862 H833 0.950 . S
C862 C861 1.334 . S
C862 C863 1.287 . S
C863 C862 1.287 . S
C863 C864 1.524 . S
C863 H866 0.999 . S
C864 H834 0.950 . S
C864 C863 1.524 . S
C864 C865 1.415 . S
C865 H835 0.950 . S
C865 C860 1.363 . S
C865 C864 1.415 . S
H866 C863 0.999 . S
H867 C848 0.913 . S
H868 C886 0.951 . S
H869 C888 0.951 . S
H870 C890 0.950 . S
H871 C891 0.950 . S
H872 C893 0.950 . S
H873 C896 0.950 . S
H874 C897 0.950 . S
H875 C899 0.950 . S
H876 C900 0.950 . S
H877 C901 0.951 . S
H878 C903 0.951 . S
H879 C905 0.950 . S
H880 C906 0.950 . S
H881 C908 0.950 . S
H882 C911 0.950 . S
H883 C912 0.950 . S
H884 C914 0.950 . S
H885 C915 0.950 . S
C886 H868 0.951 . S
C886 C887 1.366 . S
C886 C888 1.388 . S
C887 C886 1.366 . S
C887 C891 1.385 . S
C888 H869 0.951 . S
C888 C886 1.388 . S
C888 C889 1.366 . S
C889 C888 1.366 . S
C889 C890 1.414 . S
C889 C892 1.499 . S
C890 H870 0.950 . S
C890 C889 1.414 . S
C890 C891 1.374 . S
C891 H871 0.950 . S
C891 C887 1.385 . S
C891 C890 1.374 . S
C892 C889 1.499 . S
C892 C893 1.373 . S
C892 C894 1.389 . S
C893 H872 0.950 . S
C893 C892 1.373 . S
C893 C909 1.377 . S
C894 C892 1.389 . S
C894 C895 1.524 . S
C894 C908 1.377 . S
C895 C894 1.524 . S
C895 C896 1.397 . S
C895 C900 1.363 . S
C896 H873 0.950 . S
C896 C895 1.397 . S
C896 C897 1.334 . S
C897 H874 0.950 . S
C897 C896 1.334 . S
C897 C898 1.287 . S
C898 C897 1.287 . S
C898 C899 1.524 . S
C898 H917 0.913 . S
C899 H875 0.950 . S
C899 C898 1.524 . S
C899 C900 1.415 . S
C900 H876 0.950 . S
C900 C895 1.363 . S
C900 C899 1.415 . S
C901 H877 0.951 . S
C901 C902 1.366 . S
C901 C903 1.388 . S
C902 C901 1.366 . S
C902 C906 1.385 . S
C903 H878 0.951 . S
C903 C901 1.388 . S
C903 C904 1.366 . S
C904 C903 1.366 . S
C904 C905 1.414 . S
C904 C907 1.499 . S
C905 H879 0.950 . S
C905 C904 1.414 . S
C905 C906 1.374 . S
C906 H880 0.950 . S
C906 C902 1.385 . S
C906 C905 1.374 . S
C907 C904 1.499 . S
C907 C908 1.373 . S
C907 C909 1.389 . S
C908 H881 0.950 . S
C908 C894 1.377 . S
C908 C907 1.373 . S
C909 C893 1.377 . S
C909 C907 1.389 . S
C909 C910 1.524 . S
C910 C909 1.524 . S
C910 C911 1.397 . S
C910 C915 1.363 . S
C911 H882 0.950 . S
C911 C910 1.397 . S
C911 C912 1.334 . S
C912 H883 0.950 . S
C912 C911 1.334 . S
C912 C913 1.287 . S
C913 C912 1.287 . S
C913 C914 1.524 . S
C913 H916 0.999 . S
C914 H884 0.950 . S
C914 C913 1.524 . S
C914 C915 1.415 . S
C915 H885 0.950 . S
C915 C910 1.363 . S
C915 C914 1.415 . S
H916 C913 0.999 . S
H917 C898 0.913 . S
H918 C936 0.951 . S
H919 C938 0.951 . S
H920 C940 0.950 . S
H921 C941 0.950 . S
H922 C943 0.950 . S
H923 C946 0.950 . S
H924 C947 0.950 . S
H925 C949 0.950 . S
H926 C950 0.950 . S
H927 C951 0.951 . S
H928 C953 0.951 . S
H929 C955 0.950 . S
H930 C956 0.950 . S
H931 C958 0.950 . S
H932 C961 0.950 . S
H933 C962 0.950 . S
H934 C964 0.950 . S
H935 C965 0.950 . S
C936 H918 0.951 . S
C936 C937 1.366 . S
C936 C938 1.388 . S
C937 C936 1.366 . S
C937 C941 1.385 . S
C938 H919 0.951 . S
C938 C936 1.388 . S
C938 C939 1.366 . S
C939 C938 1.366 . S
C939 C940 1.414 . S
C939 C942 1.499 . S
C940 H920 0.950 . S
C940 C939 1.414 . S
C940 C941 1.374 . S
C941 H921 0.950 . S
C941 C937 1.385 . S
C941 C940 1.374 . S
C942 C939 1.499 . S
C942 C943 1.373 . S
C942 C944 1.389 . S
C943 H922 0.950 . S
C943 C942 1.373 . S
C943 C959 1.377 . S
C944 C942 1.389 . S
C944 C945 1.524 . S
C944 C958 1.377 . S
C945 C944 1.524 . S
C945 C946 1.397 . S
C945 C950 1.363 . S
C946 H923 0.950 . S
C946 C945 1.397 . S
C946 C947 1.334 . S
C947 H924 0.950 . S
C947 C946 1.334 . S
C947 C948 1.287 . S
C948 C947 1.287 . S
C948 C949 1.524 . S
C948 H967 0.913 . S
C949 H925 0.950 . S
C949 C948 1.524 . S
C949 C950 1.415 . S
C950 H926 0.950 . S
C950 C945 1.363 . S
C950 C949 1.415 . S
C951 H927 0.951 . S
C951 C952 1.366 . S
C951 C953 1.388 . S
C952 C951 1.366 . S
C952 C956 1.385 . S
C953 H928 0.951 . S
C953 C951 1.388 . S
C953 C954 1.366 . S
C954 C953 1.366 . S
C954 C955 1.414 . S
C954 C957 1.499 . S
C955 H929 0.950 . S
C955 C954 1.414 . S
C955 C956 1.374 . S
C956 H930 0.950 . S
C956 C952 1.385 . S
C956 C955 1.374 . S
C957 C954 1.499 . S
C957 C958 1.373 . S
C957 C959 1.389 . S
C958 H931 0.950 . S
C958 C944 1.377 . S
C958 C957 1.373 . S
C959 C943 1.377 . S
C959 C957 1.389 . S
C959 C960 1.524 . S
C960 C959 1.524 . S
C960 C961 1.397 . S
C960 C965 1.363 . S
C961 H932 0.950 . S
C961 C960 1.397 . S
C961 C962 1.334 . S
C962 H933 0.950 . S
C962 C961 1.334 . S
C962 C963 1.287 . S
C963 C962 1.287 . S
C963 C964 1.524 . S
C963 H966 0.999 . S
C964 H934 0.950 . S
C964 C963 1.524 . S
C964 C965 1.415 . S
C965 H935 0.950 . S
C965 C960 1.363 . S
C965 C964 1.415 . S
H966 C963 0.999 . S
H967 C948 0.913 . S
H968 C986 0.951 . S
H969 C988 0.951 . S
H970 C990 0.950 . S
H971 C991 0.950 1_556 S
H972 C993 0.950 . S
H973 C996 0.950 . S
H974 C997 0.950 . S
H975 C999 0.950 . S
H976 C1000 0.950 . S
H977 C1001 0.951 . S
H978 C1003 0.951 . S
H979 C1005 0.950 . S
H980 C1006 0.950 . S
H981 C1008 0.950 . S
H982 C1011 0.950 . S
H983 C1012 0.950 . S
H984 C1014 0.950 . S
H985 C1015 0.950 . S
C986 H968 0.951 . S
C986 C987 1.366 . S
C986 C988 1.388 . S
C987 C986 1.366 . S
C987 C991 1.385 . S
C988 H969 0.951 . S
C988 C986 1.388 . S
C988 C989 1.366 . S
C989 C988 1.366 . S
C989 C990 1.414 . S
C989 C992 1.499 . S
C990 H970 0.950 . S
C990 C989 1.414 . S
C990 C991 1.374 . S
C991 H971 0.950 1_554 S
C991 C987 1.385 . S
C991 C990 1.374 . S
C992 C989 1.499 . S
C992 C993 1.373 . S
C992 C994 1.389 . S
C993 H972 0.950 . S
C993 C992 1.373 . S
C993 C1009 1.377 . S
C994 C992 1.389 . S
C994 C995 1.524 . S
C994 C1008 1.377 . S
C995 C994 1.524 . S
C995 C996 1.397 . S
C995 C1000 1.363 . S
C996 H973 0.950 . S
C996 C995 1.397 . S
C996 C997 1.334 . S
C997 H974 0.950 . S
C997 C996 1.334 . S
C997 C998 1.287 . S
C998 C997 1.287 . S
C998 C999 1.524 . S
C998 H1017 0.913 . S
C999 H975 0.950 . S
C999 C998 1.524 . S
C999 C1000 1.415 . S
C1000 H976 0.950 . S
C1000 C995 1.363 . S
C1000 C999 1.415 . S
C1001 H977 0.951 . S
C1001 C1002 1.366 . S
C1001 C1003 1.388 . S
C1002 C1001 1.366 . S
C1002 C1006 1.385 . S
C1003 H978 0.951 . S
C1003 C1001 1.388 . S
C1003 C1004 1.366 . S
C1004 C1003 1.366 . S
C1004 C1005 1.414 . S
C1004 C1007 1.499 . S
C1005 H979 0.950 . S
C1005 C1004 1.414 . S
C1005 C1006 1.374 . S
C1006 H980 0.950 . S
C1006 C1002 1.385 . S
C1006 C1005 1.374 . S
C1007 C1004 1.499 . S
C1007 C1008 1.373 . S
C1007 C1009 1.389 . S
C1008 H981 0.950 . S
C1008 C994 1.377 . S
C1008 C1007 1.373 . S
C1009 C993 1.377 . S
C1009 C1007 1.389 . S
C1009 C1010 1.524 . S
C1010 C1009 1.524 . S
C1010 C1011 1.397 . S
C1010 C1015 1.363 1_554 S
C1011 H982 0.950 . S
C1011 C1010 1.397 . S
C1011 C1012 1.334 . S
C1012 H983 0.950 . S
C1012 C1011 1.334 . S
C1012 C1013 1.287 1_554 S
C1013 C1012 1.287 1_556 S
C1013 C1014 1.524 . S
C1013 H1016 0.999 . S
C1014 H984 0.950 . S
C1014 C1013 1.524 . S
C1014 C1015 1.415 . S
C1015 H985 0.950 . S
C1015 C1010 1.363 1_556 S
C1015 C1014 1.415 . S
H1016 C1013 0.999 . S
H1017 C998 0.913 . S
H1018 C1036 0.951 . S
H1019 C1038 0.951 . S
H1020 C1040 0.950 . S
H1021 C1041 0.950 . S
H1022 C1043 0.950 . S
H1023 C1046 0.950 . S
H1024 C1047 0.950 . S
H1025 C1049 0.950 1_556 S
H1026 C1050 0.950 . S
H1027 C1051 0.951 . S
H1028 C1053 0.951 . S
H1029 C1055 0.950 . S
H1030 C1056 0.950 1_556 S
H1031 C1058 0.950 . S
H1032 C1061 0.950 . S
H1033 C1062 0.950 . S
H1034 C1064 0.950 . S
H1035 C1065 0.950 . S
C1036 H1018 0.951 . S
C1036 C1037 1.366 . S
C1036 C1038 1.388 . S
C1037 C1036 1.366 . S
C1037 C1041 1.385 . S
C1038 H1019 0.951 . S
C1038 C1036 1.388 . S
C1038 C1039 1.366 . S
C1039 C1038 1.366 . S
C1039 C1040 1.414 . S
C1039 C1042 1.499 . S
C1040 H1020 0.950 . S
C1040 C1039 1.414 . S
C1040 C1041 1.374 . S
C1041 H1021 0.950 . S
C1041 C1037 1.385 . S
C1041 C1040 1.374 . S
C1042 C1039 1.499 . S
C1042 C1043 1.373 . S
C1042 C1044 1.389 . S
C1043 H1022 0.950 . S
C1043 C1042 1.373 . S
C1043 C1059 1.377 . S
C1044 C1042 1.389 . S
C1044 C1045 1.524 . S
C1044 C1058 1.377 . S
C1045 C1044 1.524 . S
C1045 C1046 1.397 . S
C1045 C1050 1.363 . S
C1046 H1023 0.950 . S
C1046 C1045 1.397 . S
C1046 C1047 1.334 . S
C1047 H1024 0.950 . S
C1047 C1046 1.334 . S
C1047 C1048 1.287 . S
C1048 C1047 1.287 . S
C1048 C1049 1.524 . S
C1048 H1067 0.913 . S
C1049 H1025 0.950 1_554 S
C1049 C1048 1.524 . S
C1049 C1050 1.415 . S
C1050 H1026 0.950 . S
C1050 C1045 1.363 . S
C1050 C1049 1.415 . S
C1051 H1027 0.951 . S
C1051 C1052 1.366 . S
C1051 C1053 1.388 . S
C1052 C1051 1.366 . S
C1052 C1056 1.385 . S
C1053 H1028 0.951 . S
C1053 C1051 1.388 . S
C1053 C1054 1.366 . S
C1054 C1053 1.366 . S
C1054 C1055 1.414 . S
C1054 C1057 1.499 . S
C1055 H1029 0.950 . S
C1055 C1054 1.414 . S
C1055 C1056 1.374 . S
C1056 H1030 0.950 1_554 S
C1056 C1052 1.385 . S
C1056 C1055 1.374 . S
C1057 C1054 1.499 . S
C1057 C1058 1.373 . S
C1057 C1059 1.389 . S
C1058 H1031 0.950 . S
C1058 C1044 1.377 . S
C1058 C1057 1.373 . S
C1059 C1043 1.377 . S
C1059 C1057 1.389 . S
C1059 C1060 1.524 . S
C1060 C1059 1.524 . S
C1060 C1061 1.397 . S
C1060 C1065 1.363 . S
C1061 H1032 0.950 . S
C1061 C1060 1.397 . S
C1061 C1062 1.334 . S
C1062 H1033 0.950 . S
C1062 C1061 1.334 . S
C1062 C1063 1.287 . S
C1063 C1062 1.287 . S
C1063 C1064 1.524 . S
C1063 H1066 0.999 . S
C1064 H1034 0.950 . S
C1064 C1063 1.524 . S
C1064 C1065 1.415 . S
C1065 H1035 0.950 . S
C1065 C1060 1.363 . S
C1065 C1064 1.415 . S
H1066 C1063 0.999 . S
H1067 C1048 0.913 . S
H1068 C1086 0.951 . S
H1069 C1088 0.951 . S
H1070 C1090 0.950 . S
H1071 C1091 0.950 . S
H1072 C1093 0.950 . S
H1073 C1096 0.950 . S
H1074 C1097 0.950 1_554 S
H1075 C1099 0.950 . S
H1076 C1100 0.950 . S
H1077 C1101 0.951 . S
H1078 C1103 0.951 . S
H1079 C1105 0.950 . S
H1080 C1106 0.950 . S
H1081 C1108 0.950 . S
H1082 C1111 0.950 . S
H1083 C1112 0.950 . S
H1084 C1114 0.950 . S
H1085 C1115 0.950 . S
C1086 H1068 0.951 . S
C1086 C1087 1.366 . S
C1086 C1088 1.388 . S
C1087 C1086 1.366 . S
C1087 C1091 1.385 . S
C1088 H1069 0.951 . S
C1088 C1086 1.388 . S
C1088 C1089 1.366 . S
C1089 C1088 1.366 . S
C1089 C1090 1.414 . S
C1089 C1092 1.499 . S
C1090 H1070 0.950 . S
C1090 C1089 1.414 . S
C1090 C1091 1.374 . S
C1091 H1071 0.950 . S
C1091 C1087 1.385 . S
C1091 C1090 1.374 . S
C1092 C1089 1.499 . S
C1092 C1093 1.373 . S
C1092 C1094 1.389 . S
C1093 H1072 0.950 . S
C1093 C1092 1.373 . S
C1093 C1109 1.377 . S
C1094 C1092 1.389 . S
C1094 C1095 1.524 . S
C1094 C1108 1.377 . S
C1095 C1094 1.524 . S
C1095 C1096 1.397 . S
C1095 C1100 1.363 . S
C1096 H1073 0.950 . S
C1096 C1095 1.397 . S
C1096 C1097 1.334 . S
C1097 H1074 0.950 1_556 S
C1097 C1096 1.334 . S
C1097 C1098 1.287 . S
C1098 C1097 1.287 . S
C1098 C1099 1.524 . S
C1098 H1117 0.913 1_556 S
C1099 H1075 0.950 . S
C1099 C1098 1.524 . S
C1099 C1100 1.415 . S
C1100 H1076 0.950 . S
C1100 C1095 1.363 . S
C1100 C1099 1.415 . S
C1101 H1077 0.951 . S
C1101 C1102 1.366 . S
C1101 C1103 1.388 . S
C1102 C1101 1.366 . S
C1102 C1106 1.385 . S
C1103 H1078 0.951 . S
C1103 C1101 1.388 . S
C1103 C1104 1.366 . S
C1104 C1103 1.366 . S
C1104 C1105 1.414 . S
C1104 C1107 1.499 . S
C1105 H1079 0.950 . S
C1105 C1104 1.414 . S
C1105 C1106 1.374 . S
C1106 H1080 0.950 . S
C1106 C1102 1.385 . S
C1106 C1105 1.374 . S
C1107 C1104 1.499 . S
C1107 C1108 1.373 . S
C1107 C1109 1.389 . S
C1108 H1081 0.950 . S
C1108 C1094 1.377 . S
C1108 C1107 1.373 . S
C1109 C1093 1.377 . S
C1109 C1107 1.389 . S
C1109 C1110 1.524 . S
C1110 C1109 1.524 . S
C1110 C1111 1.397 . S
C1110 C1115 1.363 . S
C1111 H1082 0.950 . S
C1111 C1110 1.397 . S
C1111 C1112 1.334 . S
C1112 H1083 0.950 . S
C1112 C1111 1.334 . S
C1112 C1113 1.287 . S
C1113 C1112 1.287 . S
C1113 C1114 1.524 . S
C1113 H1116 0.999 . S
C1114 H1084 0.950 . S
C1114 C1113 1.524 . S
C1114 C1115 1.415 . S
C1115 H1085 0.950 . S
C1115 C1110 1.363 . S
C1115 C1114 1.415 . S
H1116 C1113 0.999 . S
H1117 C1098 0.913 1_554 S
H1118 C1136 0.951 . S
H1119 C1138 0.951 . S
H1120 C1140 0.950 . S
H1121 C1141 0.950 . S
H1122 C1143 0.950 . S
H1123 C1146 0.950 . S
H1124 C1147 0.950 . S
H1125 C1149 0.950 . S
H1126 C1150 0.950 . S
H1127 C1151 0.951 . S
H1128 C1153 0.951 . S
H1129 C1155 0.950 . S
H1130 C1156 0.950 . S
H1131 C1158 0.950 . S
H1132 C1161 0.950 . S
H1133 C1162 0.950 . S
H1134 C1164 0.950 . S
H1135 C1165 0.943 1_556 S
C1136 H1118 0.951 . S
C1136 C1137 1.366 . S
C1136 C1138 1.388 . S
C1137 C1136 1.366 . S
C1137 C1141 1.385 . S
C1138 H1119 0.951 . S
C1138 C1136 1.388 . S
C1138 C1139 1.366 . S
C1139 C1138 1.366 . S
C1139 C1140 1.414 . S
C1139 C1142 1.499 . S
C1140 H1120 0.950 . S
C1140 C1139 1.414 . S
C1140 C1141 1.374 . S
C1141 H1121 0.950 . S
C1141 C1137 1.385 . S
C1141 C1140 1.374 . S
C1142 C1139 1.499 . S
C1142 C1143 1.373 . S
C1142 C1144 1.389 . S
C1143 H1122 0.950 . S
C1143 C1142 1.373 . S
C1143 C1159 1.377 . S
C1144 C1142 1.389 . S
C1144 C1145 1.524 . S
C1144 C1158 1.377 . S
C1145 C1144 1.524 . S
C1145 C1146 1.397 . S
C1145 C1150 1.363 . S
C1146 H1123 0.950 . S
C1146 C1145 1.397 . S
C1146 C1147 1.334 . S
C1147 H1124 0.950 . S
C1147 C1146 1.334 . S
C1147 C1148 1.287 . S
C1148 C1147 1.287 . S
C1148 C1149 1.524 . S
C1148 H1167 0.913 . S
C1149 H1125 0.950 . S
C1149 C1148 1.524 . S
C1149 C1150 1.415 . S
C1150 H1126 0.950 . S
C1150 C1145 1.363 . S
C1150 C1149 1.415 . S
C1151 H1127 0.951 . S
C1151 C1152 1.366 . S
C1151 C1153 1.388 . S
C1152 C1151 1.366 . S
C1152 C1156 1.385 . S
C1153 H1128 0.951 . S
C1153 C1151 1.388 . S
C1153 C1154 1.366 . S
C1154 C1153 1.366 . S
C1154 C1155 1.414 . S
C1154 C1157 1.499 . S
C1155 H1129 0.950 . S
C1155 C1154 1.414 . S
C1155 C1156 1.374 . S
C1156 H1130 0.950 . S
C1156 C1152 1.385 . S
C1156 C1155 1.374 . S
C1157 C1154 1.499 . S
C1157 C1158 1.373 . S
C1157 C1159 1.389 . S
C1158 H1131 0.950 . S
C1158 C1144 1.377 . S
C1158 C1157 1.373 . S
C1159 C1143 1.377 . S
C1159 C1157 1.389 . S
C1159 C1160 1.524 . S
C1160 C1159 1.524 . S
C1160 C1161 1.397 1_556 S
C1160 C1165 1.360 1_556 S
C1161 H1132 0.950 . S
C1161 C1160 1.397 1_554 S
C1161 C1162 1.334 . S
C1162 H1133 0.950 . S
C1162 C1161 1.334 . S
C1162 C1163 1.287 . S
C1163 C1162 1.287 . S
C1163 C1164 1.524 . S
C1163 H1166 0.999 . S
C1164 H1134 0.950 . S
C1164 C1163 1.524 . S
C1164 C1165 1.424 . S
C1165 H1135 0.943 1_554 S
C1165 C1160 1.360 1_554 S
C1165 C1164 1.424 . S
H1166 C1163 0.999 . S
H1167 C1148 0.913 . S
H1168 C1186 0.951 . S
H1169 C1188 0.951 . S
H1170 C1190 0.950 . S
H1171 C1191 0.950 1_554 S
H1172 C1193 0.950 . S
H1173 C1196 0.950 . S
H1174 C1197 0.950 . S
H1175 C1199 0.950 . S
H1176 C1200 0.950 . S
H1177 C1201 0.951 . S
H1178 C1203 0.951 . S
H1179 C1205 0.950 . S
H1180 C1206 0.950 . S
H1181 C1208 0.950 . S
H1182 C1211 0.950 . S
H1183 C1212 0.950 . S
H1184 C1214 0.950 1_554 S
H1185 C1215 0.950 . S
C1186 H1168 0.951 . S
C1186 C1187 1.366 . S
C1186 C1188 1.388 . S
C1187 C1186 1.366 . S
C1187 C1191 1.385 . S
C1188 H1169 0.951 . S
C1188 C1186 1.388 . S
C1188 C1189 1.366 . S
C1189 C1188 1.366 . S
C1189 C1190 1.414 . S
C1189 C1192 1.499 . S
C1190 H1170 0.950 . S
C1190 C1189 1.414 . S
C1190 C1191 1.374 . S
C1191 H1171 0.950 1_556 S
C1191 C1187 1.385 . S
C1191 C1190 1.374 . S
C1192 C1189 1.499 . S
C1192 C1193 1.373 . S
C1192 C1194 1.389 . S
C1193 H1172 0.950 . S
C1193 C1192 1.373 . S
C1193 C1209 1.377 . S
C1194 C1192 1.389 . S
C1194 C1195 1.524 . S
C1194 C1208 1.377 . S
C1195 C1194 1.524 . S
C1195 C1196 1.397 . S
C1195 C1200 1.363 . S
C1196 H1173 0.950 . S
C1196 C1195 1.397 . S
C1196 C1197 1.334 . S
C1197 H1174 0.950 . S
C1197 C1196 1.334 . S
C1197 C1198 1.287 . S
C1198 C1197 1.287 . S
C1198 C1199 1.524 . S
C1198 H1217 0.913 . S
C1199 H1175 0.950 . S
C1199 C1198 1.524 . S
C1199 C1200 1.415 . S
C1200 H1176 0.950 . S
C1200 C1195 1.363 . S
C1200 C1199 1.415 . S
C1201 H1177 0.951 . S
C1201 C1202 1.366 . S
C1201 C1203 1.388 . S
C1202 C1201 1.366 . S
C1202 C1206 1.385 . S
C1203 H1178 0.951 . S
C1203 C1201 1.388 . S
C1203 C1204 1.366 . S
C1204 C1203 1.366 . S
C1204 C1205 1.414 . S
C1204 C1207 1.499 . S
C1205 H1179 0.950 . S
C1205 C1204 1.414 . S
C1205 C1206 1.374 . S
C1206 H1180 0.950 . S
C1206 C1202 1.385 . S
C1206 C1205 1.374 . S
C1207 C1204 1.499 . S
C1207 C1208 1.373 . S
C1207 C1209 1.389 . S
C1208 H1181 0.950 . S
C1208 C1194 1.377 . S
C1208 C1207 1.373 . S
C1209 C1193 1.377 . S
C1209 C1207 1.389 . S
C1209 C1210 1.524 . S
C1210 C1209 1.524 . S
C1210 C1211 1.397 . S
C1210 C1215 1.363 . S
C1211 H1182 0.950 . S
C1211 C1210 1.397 . S
C1211 C1212 1.334 . S
C1212 H1183 0.950 . S
C1212 C1211 1.334 . S
C1212 C1213 1.287 . S
C1213 C1212 1.287 . S
C1213 C1214 1.524 . S
C1213 H1216 0.999 . S
C1214 H1184 0.950 1_556 S
C1214 C1213 1.524 . S
C1214 C1215 1.415 . S
C1215 H1185 0.950 . S
C1215 C1210 1.363 . S
C1215 C1214 1.415 . S
H1216 C1213 0.999 . S
H1217 C1198 0.913 . S
H1218 C1236 0.951 . S
H1219 C1238 0.951 . S
H1220 C1240 0.950 . S
H1221 C1241 0.950 . S
H1222 C1243 0.950 . S
H1223 C1246 0.950 . S
H1224 C1247 0.950 . S
H1225 C1249 0.950 . S
H1226 C1250 0.950 . S
H1227 C1251 0.951 . S
H1228 C1253 0.951 . S
H1229 C1255 0.950 . S
H1230 C1256 0.950 . S
H1231 C1258 0.950 . S
H1232 C1261 0.950 . S
H1233 C1262 0.950 . S
H1234 C1264 0.950 . S
H1235 C1265 0.950 . S
C1236 H1218 0.951 . S
C1236 C1237 1.366 . S
C1236 C1238 1.388 . S
C1237 C1236 1.366 . S
C1237 C1241 1.385 . S
C1238 H1219 0.951 . S
C1238 C1236 1.388 . S
C1238 C1239 1.366 . S
C1239 C1238 1.366 . S
C1239 C1240 1.414 . S
C1239 C1242 1.499 . S
C1240 H1220 0.950 . S
C1240 C1239 1.414 . S
C1240 C1241 1.374 . S
C1241 H1221 0.950 . S
C1241 C1237 1.385 . S
C1241 C1240 1.374 . S
C1242 C1239 1.499 . S
C1242 C1243 1.373 . S
C1242 C1244 1.389 . S
C1243 H1222 0.950 . S
C1243 C1242 1.373 . S
C1243 C1259 1.377 . S
C1244 C1242 1.389 . S
C1244 C1245 1.524 . S
C1244 C1258 1.377 . S
C1245 C1244 1.524 . S
C1245 C1246 1.397 . S
C1245 C1250 1.363 . S
C1246 H1223 0.950 . S
C1246 C1245 1.397 . S
C1246 C1247 1.334 . S
C1247 H1224 0.950 . S
C1247 C1246 1.334 . S
C1247 C1248 1.287 . S
C1248 C1247 1.287 . S
C1248 C1249 1.524 . S
C1248 H1267 0.913 . S
C1249 H1225 0.950 . S
C1249 C1248 1.524 . S
C1249 C1250 1.415 . S
C1250 H1226 0.950 . S
C1250 C1245 1.363 . S
C1250 C1249 1.415 . S
C1251 H1227 0.951 . S
C1251 C1252 1.366 . S
C1251 C1253 1.388 . S
C1252 C1251 1.366 . S
C1252 C1256 1.385 . S
C1253 H1228 0.951 . S
C1253 C1251 1.388 . S
C1253 C1254 1.366 . S
C1254 C1253 1.366 . S
C1254 C1255 1.414 . S
C1254 C1257 1.499 . S
C1255 H1229 0.950 . S
C1255 C1254 1.414 . S
C1255 C1256 1.374 . S
C1256 H1230 0.950 . S
C1256 C1252 1.385 . S
C1256 C1255 1.374 . S
C1257 C1254 1.499 . S
C1257 C1258 1.373 . S
C1257 C1259 1.389 . S
C1258 H1231 0.950 . S
C1258 C1244 1.377 . S
C1258 C1257 1.373 . S
C1259 C1243 1.377 . S
C1259 C1257 1.389 . S
C1259 C1260 1.524 . S
C1260 C1259 1.524 . S
C1260 C1261 1.397 . S
C1260 C1265 1.363 . S
C1261 H1232 0.950 . S
C1261 C1260 1.397 . S
C1261 C1262 1.334 . S
C1262 H1233 0.950 . S
C1262 C1261 1.334 . S
C1262 C1263 1.287 . S
C1263 C1262 1.287 . S
C1263 C1264 1.524 . S
C1263 H1266 0.999 . S
C1264 H1234 0.950 . S
C1264 C1263 1.524 . S
C1264 C1265 1.415 . S
C1265 H1235 0.950 . S
C1265 C1260 1.363 . S
C1265 C1264 1.415 . S
H1266 C1263 0.999 . S
H1267 C1248 0.913 . S
H1268 C1286 0.951 . S
H1269 C1288 0.951 . S
H1270 C1290 0.950 . S
H1271 C1291 0.950 . S
H1272 C1293 0.950 . S
H1273 C1296 0.950 . S
H1274 C1297 0.950 . S
H1275 C1299 0.950 . S
H1276 C1300 0.950 . S
H1277 C1301 0.951 . S
H1278 C1303 0.951 . S
H1279 C1305 0.950 . S
H1280 C1306 0.950 . S
H1281 C1308 0.950 . S
H1282 C1311 0.950 . S
H1283 C1312 0.950 . S
H1284 C1314 0.950 . S
H1285 C1315 0.950 . S
C1286 H1268 0.951 . S
C1286 C1287 1.366 . S
C1286 C1288 1.388 . S
C1287 C1286 1.366 . S
C1287 C1291 1.385 . S
C1288 H1269 0.951 . S
C1288 C1286 1.388 . S
C1288 C1289 1.366 . S
C1289 C1288 1.366 . S
C1289 C1290 1.414 . S
C1289 C1292 1.499 . S
C1290 H1270 0.950 . S
C1290 C1289 1.414 . S
C1290 C1291 1.374 . S
C1291 H1271 0.950 . S
C1291 C1287 1.385 . S
C1291 C1290 1.374 . S
C1292 C1289 1.499 . S
C1292 C1293 1.373 . S
C1292 C1294 1.389 . S
C1293 H1272 0.950 . S
C1293 C1292 1.373 . S
C1293 C1309 1.377 . S
C1294 C1292 1.389 . S
C1294 C1295 1.524 . S
C1294 C1308 1.377 . S
C1295 C1294 1.524 . S
C1295 C1296 1.397 . S
C1295 C1300 1.363 . S
C1296 H1273 0.950 . S
C1296 C1295 1.397 . S
C1296 C1297 1.334 . S
C1297 H1274 0.950 . S
C1297 C1296 1.334 . S
C1297 C1298 1.287 . S
C1298 C1297 1.287 . S
C1298 C1299 1.524 . S
C1298 H1317 0.913 . S
C1299 H1275 0.950 . S
C1299 C1298 1.524 . S
C1299 C1300 1.415 . S
C1300 H1276 0.950 . S
C1300 C1295 1.363 . S
C1300 C1299 1.415 . S
C1301 H1277 0.951 . S
C1301 C1302 1.366 . S
C1301 C1303 1.388 . S
C1302 C1301 1.366 . S
C1302 C1306 1.385 . S
C1303 H1278 0.951 . S
C1303 C1301 1.388 . S
C1303 C1304 1.366 . S
C1304 C1303 1.366 . S
C1304 C1305 1.414 . S
C1304 C1307 1.499 . S
C1305 H1279 0.950 . S
C1305 C1304 1.414 . S
C1305 C1306 1.374 . S
C1306 H1280 0.950 . S
C1306 C1302 1.385 . S
C1306 C1305 1.374 . S
C1307 C1304 1.499 . S
C1307 C1308 1.373 . S
C1307 C1309 1.389 . S
C1308 H1281 0.950 . S
C1308 C1294 1.377 . S
C1308 C1307 1.373 . S
C1309 C1293 1.377 . S
C1309 C1307 1.389 . S
C1309 C1310 1.524 . S
C1310 C1309 1.524 . S
C1310 C1311 1.397 . S
C1310 C1315 1.363 . S
C1311 H1282 0.950 . S
C1311 C1310 1.397 . S
C1311 C1312 1.334 . S
C1312 H1283 0.950 . S
C1312 C1311 1.334 . S
C1312 C1313 1.287 . S
C1313 C1312 1.287 . S
C1313 C1314 1.524 . S
C1313 H1316 0.999 . S
C1314 H1284 0.950 . S
C1314 C1313 1.524 . S
C1314 C1315 1.415 . S
C1315 H1285 0.950 . S
C1315 C1310 1.363 . S
C1315 C1314 1.415 . S
H1316 C1313 0.999 . S
H1317 C1298 0.913 . S
H1318 C1336 0.951 . S
H1319 C1338 0.951 . S
H1320 C1340 0.950 . S
H1321 C1341 0.950 . S
H1322 C1343 0.950 . S
H1323 C1346 0.950 . S
H1324 C1347 0.950 . S
H1325 C1349 0.950 . S
H1326 C1350 0.950 . S
H1327 C1351 0.951 . S
H1328 C1353 0.951 . S
H1329 C1355 0.950 . S
H1330 C1356 0.950 . S
H1331 C1358 0.950 . S
H1332 C1361 0.950 . S
H1333 C1362 0.950 . S
H1334 C1364 0.950 . S
H1335 C1365 0.950 . S
C1336 H1318 0.951 . S
C1336 C1337 1.366 . S
C1336 C1338 1.388 . S
C1337 C1336 1.366 . S
C1337 C1341 1.385 . S
C1338 H1319 0.951 . S
C1338 C1336 1.388 . S
C1338 C1339 1.366 . S
C1339 C1338 1.366 . S
C1339 C1340 1.414 . S
C1339 C1342 1.499 . S
C1340 H1320 0.950 . S
C1340 C1339 1.414 . S
C1340 C1341 1.374 . S
C1341 H1321 0.950 . S
C1341 C1337 1.385 . S
C1341 C1340 1.374 . S
C1342 C1339 1.499 . S
C1342 C1343 1.373 . S
C1342 C1344 1.389 . S
C1343 H1322 0.950 . S
C1343 C1342 1.373 . S
C1343 C1359 1.377 . S
C1344 C1342 1.389 . S
C1344 C1345 1.524 . S
C1344 C1358 1.377 . S
C1345 C1344 1.524 . S
C1345 C1346 1.397 . S
C1345 C1350 1.363 . S
C1346 H1323 0.950 . S
C1346 C1345 1.397 . S
C1346 C1347 1.334 . S
C1347 H1324 0.950 . S
C1347 C1346 1.334 . S
C1347 C1348 1.287 . S
C1348 C1347 1.287 . S
C1348 C1349 1.524 . S
C1348 H1367 0.913 . S
C1349 H1325 0.950 . S
C1349 C1348 1.524 . S
C1349 C1350 1.415 . S
C1350 H1326 0.950 . S
C1350 C1345 1.363 . S
C1350 C1349 1.415 . S
C1351 H1327 0.951 . S
C1351 C1352 1.366 . S
C1351 C1353 1.388 . S
C1352 C1351 1.366 . S
C1352 C1356 1.385 . S
C1353 H1328 0.951 . S
C1353 C1351 1.388 . S
C1353 C1354 1.366 . S
C1354 C1353 1.366 . S
C1354 C1355 1.414 . S
C1354 C1357 1.499 . S
C1355 H1329 0.950 . S
C1355 C1354 1.414 . S
C1355 C1356 1.374 . S
C1356 H1330 0.950 . S
C1356 C1352 1.385 . S
C1356 C1355 1.374 . S
C1357 C1354 1.499 . S
C1357 C1358 1.373 . S
C1357 C1359 1.389 . S
C1358 H1331 0.950 . S
C1358 C1344 1.377 . S
C1358 C1357 1.373 . S
C1359 C1343 1.377 . S
C1359 C1357 1.389 . S
C1359 C1360 1.524 . S
C1360 C1359 1.524 . S
C1360 C1361 1.397 . S
C1360 C1365 1.363 . S
C1361 H1332 0.950 . S
C1361 C1360 1.397 . S
C1361 C1362 1.334 . S
C1362 H1333 0.950 . S
C1362 C1361 1.334 . S
C1362 C1363 1.287 . S
C1363 C1362 1.287 . S
C1363 C1364 1.524 . S
C1363 H1366 0.999 . S
C1364 H1334 0.950 . S
C1364 C1363 1.524 . S
C1364 C1365 1.415 . S
C1365 H1335 0.950 . S
C1365 C1360 1.363 . S
C1365 C1364 1.415 . S
H1366 C1363 0.999 . S
H1367 C1348 0.913 . S
H1368 C1386 0.951 . S
H1369 C1388 0.951 . S
H1370 C1390 0.950 . S
H1371 C1391 0.950 . S
H1372 C1393 0.950 . S
H1373 C1396 0.950 . S
H1374 C1397 0.950 . S
H1375 C1399 0.950 . S
H1376 C1400 0.950 . S
H1377 C1401 0.951 . S
H1378 C1403 0.951 . S
H1379 C1405 0.950 1_556 S
H1380 C1406 0.950 . S
H1381 C1408 0.950 . S
H1382 C1411 0.950 . S
H1383 C1412 0.950 . S
H1384 C1414 0.950 . S
H1385 C1415 0.950 . S
C1386 H1368 0.951 . S
C1386 C1387 1.366 . S
C1386 C1388 1.388 . S
C1387 C1386 1.366 . S
C1387 C1391 1.385 . S
C1388 H1369 0.951 . S
C1388 C1386 1.388 . S
C1388 C1389 1.366 . S
C1389 C1388 1.366 . S
C1389 C1390 1.414 . S
C1389 C1392 1.499 . S
C1390 H1370 0.950 . S
C1390 C1389 1.414 . S
C1390 C1391 1.374 . S
C1391 H1371 0.950 . S
C1391 C1387 1.385 . S
C1391 C1390 1.374 . S
C1392 C1389 1.499 . S
C1392 C1393 1.373 . S
C1392 C1394 1.389 . S
C1393 H1372 0.950 . S
C1393 C1392 1.373 . S
C1393 C1409 1.377 . S
C1394 C1392 1.389 . S
C1394 C1395 1.524 . S
C1394 C1408 1.377 . S
C1395 C1394 1.524 . S
C1395 C1396 1.397 . S
C1395 C1400 1.363 . S
C1396 H1373 0.950 . S
C1396 C1395 1.397 . S
C1396 C1397 1.334 . S
C1397 H1374 0.950 . S
C1397 C1396 1.334 . S
C1397 C1398 1.287 . S
C1398 C1397 1.287 . S
C1398 C1399 1.524 . S
C1398 H1417 0.913 . S
C1399 H1375 0.950 . S
C1399 C1398 1.524 . S
C1399 C1400 1.415 . S
C1400 H1376 0.950 . S
C1400 C1395 1.363 . S
C1400 C1399 1.415 . S
C1401 H1377 0.951 . S
C1401 C1402 1.366 . S
C1401 C1403 1.388 . S
C1402 C1401 1.366 . S
C1402 C1406 1.385 . S
C1403 H1378 0.951 . S
C1403 C1401 1.388 . S
C1403 C1404 1.366 1_554 S
C1404 C1403 1.366 1_556 S
C1404 C1405 1.414 1_556 S
C1404 C1407 1.499 . S
C1405 H1379 0.950 1_554 S
C1405 C1404 1.414 1_554 S
C1405 C1406 1.374 . S
C1406 H1380 0.950 . S
C1406 C1402 1.385 . S
C1406 C1405 1.374 . S
C1407 C1404 1.499 . S
C1407 C1408 1.373 . S
C1407 C1409 1.389 . S
C1408 H1381 0.950 . S
C1408 C1394 1.377 . S
C1408 C1407 1.373 . S
C1409 C1393 1.377 . S
C1409 C1407 1.389 . S
C1409 C1410 1.524 . S
C1410 C1409 1.524 . S
C1410 C1411 1.397 1_556 S
C1410 C1415 1.363 . S
C1411 H1382 0.950 . S
C1411 C1410 1.397 1_554 S
C1411 C1412 1.334 . S
C1412 H1383 0.950 . S
C1412 C1411 1.334 . S
C1412 C1413 1.287 . S
C1413 C1412 1.287 . S
C1413 C1414 1.524 . S
C1413 H1416 0.999 . S
C1414 H1384 0.950 . S
C1414 C1413 1.524 . S
C1414 C1415 1.415 1_554 S
C1415 H1385 0.950 . S
C1415 C1410 1.363 . S
C1415 C1414 1.415 1_556 S
H1416 C1413 0.999 . S
H1417 C1398 0.913 . S
H1418 C1436 0.951 . S
H1419 C1438 0.951 . S
H1420 C1440 0.950 . S
H1421 C1441 0.950 . S
H1422 C1443 0.950 . S
H1423 C1446 0.950 . S
H1424 C1447 0.950 . S
H1425 C1449 0.950 . S
H1426 C1450 0.950 . S
H1427 C1451 0.951 . S
H1428 C1453 0.951 . S
H1429 C1455 0.950 . S
H1430 C1456 0.950 . S
H1431 C1458 0.950 . S
H1432 C1461 0.950 . S
H1433 C1462 0.950 . S
H1434 C1464 0.950 . S
H1435 C1465 0.950 . S
C1436 H1418 0.951 . S
C1436 C1437 1.366 . S
C1436 C1438 1.388 1_554 S
C1437 C1436 1.366 . S
C1437 C1441 1.385 . S
C1438 H1419 0.951 . S
C1438 C1436 1.388 1_556 S
C1438 C1439 1.366 . S
C1439 C1438 1.366 . S
C1439 C1440 1.414 1_556 S
C1439 C1442 1.499 . S
C1440 H1420 0.950 . S
C1440 C1439 1.414 1_554 S
C1440 C1441 1.374 . S
C1441 H1421 0.950 . S
C1441 C1437 1.385 . S
C1441 C1440 1.374 . S
C1442 C1439 1.499 . S
C1442 C1443 1.373 . S
C1442 C1444 1.389 . S
C1443 H1422 0.950 . S
C1443 C1442 1.373 . S
C1443 C1459 1.377 . S
C1444 C1442 1.389 . S
C1444 C1445 1.524 . S
C1444 C1458 1.377 . S
C1445 C1444 1.524 . S
C1445 C1446 1.397 . S
C1445 C1450 1.363 . S
C1446 H1423 0.950 . S
C1446 C1445 1.397 . S
C1446 C1447 1.334 . S
C1447 H1424 0.950 . S
C1447 C1446 1.334 . S
C1447 C1448 1.287 . S
C1448 C1447 1.287 . S
C1448 C1449 1.524 . S
C1448 H1467 0.913 . S
C1449 H1425 0.950 . S
C1449 C1448 1.524 . S
C1449 C1450 1.415 . S
C1450 H1426 0.950 . S
C1450 C1445 1.363 . S
C1450 C1449 1.415 . S
C1451 H1427 0.951 . S
C1451 C1452 1.366 . S
C1451 C1453 1.388 . S
C1452 C1451 1.366 . S
C1452 C1456 1.385 . S
C1453 H1428 0.951 . S
C1453 C1451 1.388 . S
C1453 C1454 1.366 . S
C1454 C1453 1.366 . S
C1454 C1455 1.414 . S
C1454 C1457 1.499 . S
C1455 H1429 0.950 . S
C1455 C1454 1.414 . S
C1455 C1456 1.374 . S
C1456 H1430 0.950 . S
C1456 C1452 1.385 . S
C1456 C1455 1.374 . S
C1457 C1454 1.499 . S
C1457 C1458 1.373 . S
C1457 C1459 1.389 . S
C1458 H1431 0.950 . S
C1458 C1444 1.377 . S
C1458 C1457 1.373 . S
C1459 C1443 1.377 . S
C1459 C1457 1.389 . S
C1459 C1460 1.524 . S
C1460 C1459 1.524 . S
C1460 C1461 1.397 . S
C1460 C1465 1.363 . S
C1461 H1432 0.950 . S
C1461 C1460 1.397 . S
C1461 C1462 1.334 . S
C1462 H1433 0.950 . S
C1462 C1461 1.334 . S
C1462 C1463 1.287 . S
C1463 C1462 1.287 . S
C1463 C1464 1.524 . S
C1463 H1466 0.999 . S
C1464 H1434 0.950 . S
C1464 C1463 1.524 . S
C1464 C1465 1.415 . S
C1465 H1435 0.950 . S
C1465 C1460 1.363 . S
C1465 C1464 1.415 . S
H1466 C1463 0.999 . S
H1467 C1448 0.913 . S
H1468 C1486 0.951 . S
H1469 C1488 0.951 . S
H1470 C1490 0.950 . S
H1471 C1491 0.950 . S
H1472 C1493 0.950 . S
H1473 C1496 0.950 . S
H1474 C1497 0.950 . S
H1475 C1499 0.950 . S
H1476 C1500 0.950 . S
H1477 C1501 0.951 . S
H1478 C1503 0.951 . S
H1479 C1505 0.950 . S
H1480 C1506 0.950 . S
H1481 C1508 0.950 . S
H1482 C1511 0.950 . S
H1483 C1512 0.950 . S
H1484 C1514 0.950 . S
H1485 C1515 0.950 . S
C1486 H1468 0.951 . S
C1486 C1487 1.366 . S
C1486 C1488 1.388 1_554 S
C1487 C1486 1.366 . S
C1487 C1491 1.385 . S
C1488 H1469 0.951 . S
C1488 C1486 1.388 1_556 S
C1488 C1489 1.366 . S
C1489 C1488 1.366 . S
C1489 C1490 1.414 1_556 S
C1489 C1492 1.499 . S
C1490 H1470 0.950 . S
C1490 C1489 1.414 1_554 S
C1490 C1491 1.374 . S
C1491 H1471 0.950 . S
C1491 C1487 1.385 . S
C1491 C1490 1.374 . S
C1492 C1489 1.499 . S
C1492 C1493 1.373 . S
C1492 C1494 1.389 . S
C1493 H1472 0.950 . S
C1493 C1492 1.373 . S
C1493 C1509 1.377 . S
C1494 C1492 1.389 . S
C1494 C1495 1.524 . S
C1494 C1508 1.377 . S
C1495 C1494 1.524 . S
C1495 C1496 1.397 . S
C1495 C1500 1.363 . S
C1496 H1473 0.950 . S
C1496 C1495 1.397 . S
C1496 C1497 1.334 . S
C1497 H1474 0.950 . S
C1497 C1496 1.334 . S
C1497 C1498 1.287 . S
C1498 C1497 1.287 . S
C1498 C1499 1.524 . S
C1498 H1517 0.913 . S
C1499 H1475 0.950 . S
C1499 C1498 1.524 . S
C1499 C1500 1.415 . S
C1500 H1476 0.950 . S
C1500 C1495 1.363 . S
C1500 C1499 1.415 . S
C1501 H1477 0.951 . S
C1501 C1502 1.366 . S
C1501 C1503 1.388 . S
C1502 C1501 1.366 . S
C1502 C1506 1.385 . S
C1503 H1478 0.951 . S
C1503 C1501 1.388 . S
C1503 C1504 1.366 . S
C1504 C1503 1.366 . S
C1504 C1505 1.414 . S
C1504 C1507 1.499 . S
C1505 H1479 0.950 . S
C1505 C1504 1.414 . S
C1505 C1506 1.374 . S
C1506 H1480 0.950 . S
C1506 C1502 1.385 . S
C1506 C1505 1.374 . S
C1507 C1504 1.499 . S
C1507 C1508 1.373 . S
C1507 C1509 1.389 . S
C1508 H1481 0.950 . S
C1508 C1494 1.377 . S
C1508 C1507 1.373 . S
C1509 C1493 1.377 . S
C1509 C1507 1.389 . S
C1509 C1510 1.524 . S
C1510 C1509 1.524 . S
C1510 C1511 1.397 . S
C1510 C1515 1.363 . S
C1511 H1482 0.950 . S
C1511 C1510 1.397 . S
C1511 C1512 1.334 . S
C1512 H1483 0.950 . S
C1512 C1511 1.334 . S
C1512 C1513 1.287 . S
C1513 C1512 1.287 . S
C1513 C1514 1.524 . S
C1513 H1516 0.999 . S
C1514 H1484 0.950 . S
C1514 C1513 1.524 . S
C1514 C1515 1.415 . S
C1515 H1485 0.950 . S
C1515 C1510 1.363 . S
C1515 C1514 1.415 . S
H1516 C1513 0.999 . S
H1517 C1498 0.913 . S
H1518 C1536 0.951 . S
H1519 C1538 0.951 . S
H1520 C1540 0.950 . S
H1521 C1541 0.950 . S
H1522 C1543 0.950 . S
H1523 C1546 0.950 . S
H1524 C1547 0.950 . S
H1525 C1549 0.950 . S
H1526 C1550 0.950 . S
H1527 C1551 0.951 . S
H1528 C1553 0.951 . S
H1529 C1555 0.950 . S
H1530 C1556 0.950 . S
H1531 C1558 0.950 . S
H1532 C1561 0.950 . S
H1533 C1562 0.950 . S
H1534 C1564 0.950 . S
H1535 C1565 0.950 . S
C1536 H1518 0.951 . S
C1536 C1537 1.366 . S
C1536 C1538 1.388 . S
C1537 C1536 1.366 . S
C1537 C1541 1.385 . S
C1538 H1519 0.951 . S
C1538 C1536 1.388 . S
C1538 C1539 1.366 . S
C1539 C1538 1.366 . S
C1539 C1540 1.414 . S
C1539 C1542 1.499 . S
C1540 H1520 0.950 . S
C1540 C1539 1.414 . S
C1540 C1541 1.374 . S
C1541 H1521 0.950 . S
C1541 C1537 1.385 . S
C1541 C1540 1.374 . S
C1542 C1539 1.499 . S
C1542 C1543 1.373 . S
C1542 C1544 1.389 . S
C1543 H1522 0.950 . S
C1543 C1542 1.373 . S
C1543 C1559 1.377 . S
C1544 C1542 1.389 . S
C1544 C1545 1.524 . S
C1544 C1558 1.377 . S
C1545 C1544 1.524 . S
C1545 C1546 1.397 . S
C1545 C1550 1.363 . S
C1546 H1523 0.950 . S
C1546 C1545 1.397 . S
C1546 C1547 1.334 . S
C1547 H1524 0.950 . S
C1547 C1546 1.334 . S
C1547 C1548 1.287 . S
C1548 C1547 1.287 . S
C1548 C1549 1.524 . S
C1548 H1567 0.913 . S
C1549 H1525 0.950 . S
C1549 C1548 1.524 . S
C1549 C1550 1.415 . S
C1550 H1526 0.950 . S
C1550 C1545 1.363 . S
C1550 C1549 1.415 . S
C1551 H1527 0.951 . S
C1551 C1552 1.366 . S
C1551 C1553 1.388 . S
C1552 C1551 1.366 . S
C1552 C1556 1.385 . S
C1553 H1528 0.951 . S
C1553 C1551 1.388 . S
C1553 C1554 1.366 . S
C1554 C1553 1.366 . S
C1554 C1555 1.414 . S
C1554 C1557 1.499 . S
C1555 H1529 0.950 . S
C1555 C1554 1.414 . S
C1555 C1556 1.374 . S
C1556 H1530 0.950 . S
C1556 C1552 1.385 . S
C1556 C1555 1.374 . S
C1557 C1554 1.499 . S
C1557 C1558 1.373 . S
C1557 C1559 1.389 . S
C1558 H1531 0.950 . S
C1558 C1544 1.377 . S
C1558 C1557 1.373 . S
C1559 C1543 1.377 . S
C1559 C1557 1.389 . S
C1559 C1560 1.524 . S
C1560 C1559 1.524 . S
C1560 C1561 1.397 . S
C1560 C1565 1.363 . S
C1561 H1532 0.950 . S
C1561 C1560 1.397 . S
C1561 C1562 1.334 . S
C1562 H1533 0.950 . S
C1562 C1561 1.334 . S
C1562 C1563 1.287 . S
C1563 C1562 1.287 . S
C1563 C1564 1.524 . S
C1563 H1566 0.999 . S
C1564 H1534 0.950 . S
C1564 C1563 1.524 . S
C1564 C1565 1.415 . S
C1565 H1535 0.950 . S
C1565 C1560 1.363 . S
C1565 C1564 1.415 . S
H1566 C1563 0.999 . S
H1567 C1548 0.913 . S
H1568 C1586 0.951 . S
H1569 C1588 0.951 . S
H1570 C1590 0.950 . S
H1571 C1591 0.950 . S
H1572 C1593 0.950 . S
H1573 C1596 0.950 . S
H1574 C1597 0.950 . S
H1575 C1599 0.950 . S
H1576 C1600 0.950 . S
H1577 C1601 0.951 . S
H1578 C1603 0.951 . S
H1579 C1605 0.950 . S
H1580 C1606 0.950 . S
H1581 C1608 0.950 . S
H1582 C1611 0.950 . S
H1583 C1612 0.950 . S
H1584 C1614 0.950 . S
H1585 C1615 0.950 . S
C1586 H1568 0.951 . S
C1586 C1587 1.366 . S
C1586 C1588 1.388 . S
C1587 C1586 1.366 . S
C1587 C1591 1.385 . S
C1588 H1569 0.951 . S
C1588 C1586 1.388 . S
C1588 C1589 1.366 . S
C1589 C1588 1.366 . S
C1589 C1590 1.414 . S
C1589 C1592 1.499 . S
C1590 H1570 0.950 . S
C1590 C1589 1.414 . S
C1590 C1591 1.374 . S
C1591 H1571 0.950 . S
C1591 C1587 1.385 . S
C1591 C1590 1.374 . S
C1592 C1589 1.499 . S
C1592 C1593 1.373 . S
C1592 C1594 1.389 . S
C1593 H1572 0.950 . S
C1593 C1592 1.373 . S
C1593 C1609 1.377 . S
C1594 C1592 1.389 . S
C1594 C1595 1.524 . S
C1594 C1608 1.377 . S
C1595 C1594 1.524 . S
C1595 C1596 1.397 . S
C1595 C1600 1.363 . S
C1596 H1573 0.950 . S
C1596 C1595 1.397 . S
C1596 C1597 1.334 . S
C1597 H1574 0.950 . S
C1597 C1596 1.334 . S
C1597 C1598 1.287 . S
C1598 C1597 1.287 . S
C1598 C1599 1.524 . S
C1598 H1617 0.913 . S
C1599 H1575 0.950 . S
C1599 C1598 1.524 . S
C1599 C1600 1.415 . S
C1600 H1576 0.950 . S
C1600 C1595 1.363 . S
C1600 C1599 1.415 . S
C1601 H1577 0.951 . S
C1601 C1602 1.366 . S
C1601 C1603 1.388 . S
C1602 C1601 1.366 . S
C1602 C1606 1.385 . S
C1603 H1578 0.951 . S
C1603 C1601 1.388 . S
C1603 C1604 1.366 . S
C1604 C1603 1.366 . S
C1604 C1605 1.414 . S
C1604 C1607 1.499 . S
C1605 H1579 0.950 . S
C1605 C1604 1.414 . S
C1605 C1606 1.374 . S
C1606 H1580 0.950 . S
C1606 C1602 1.385 . S
C1606 C1605 1.374 . S
C1607 C1604 1.499 . S
C1607 C1608 1.373 . S
C1607 C1609 1.389 . S
C1608 H1581 0.950 . S
C1608 C1594 1.377 . S
C1608 C1607 1.373 . S
C1609 C1593 1.377 . S
C1609 C1607 1.389 . S
C1609 C1610 1.524 . S
C1610 C1609 1.524 . S
C1610 C1611 1.397 . S
C1610 C1615 1.363 . S
C1611 H1582 0.950 . S
C1611 C1610 1.397 . S
C1611 C1612 1.334 . S
C1612 H1583 0.950 . S
C1612 C1611 1.334 . S
C1612 C1613 1.287 . S
C1613 C1612 1.287 . S
C1613 C1614 1.524 . S
C1613 H1616 0.999 . S
C1614 H1584 0.950 . S
C1614 C1613 1.524 . S
C1614 C1615 1.415 . S
C1615 H1585 0.950 . S
C1615 C1610 1.363 . S
C1615 C1614 1.415 . S
H1616 C1613 0.999 . S
H1617 C1598 0.913 . S
H1618 C1636 0.951 . S
H1619 C1638 0.951 . S
H1620 C1640 0.950 . S
H1621 C1641 0.950 . S
H1622 C1643 0.950 . S
H1623 C1646 0.950 . S
H1624 C1647 0.950 . S
H1625 C1649 0.950 . S
H1626 C1650 0.950 . S
H1627 C1651 0.951 . S
H1628 C1653 0.951 . S
H1629 C1655 0.950 . S
H1630 C1656 0.950 . S
H1631 C1658 0.950 . S
H1632 C1661 0.950 . S
H1633 C1662 0.950 . S
H1634 C1664 0.950 . S
H1635 C1665 0.950 . S
C1636 H1618 0.951 . S
C1636 C1637 1.366 . S
C1636 C1638 1.388 . S
C1637 C1636 1.366 . S
C1637 C1641 1.385 . S
C1638 H1619 0.951 . S
C1638 C1636 1.388 . S
C1638 C1639 1.366 . S
C1639 C1638 1.366 . S
C1639 C1640 1.414 . S
C1639 C1642 1.499 . S
C1640 H1620 0.950 . S
C1640 C1639 1.414 . S
C1640 C1641 1.374 . S
C1641 H1621 0.950 . S
C1641 C1637 1.385 . S
C1641 C1640 1.374 . S
C1642 C1639 1.499 . S
C1642 C1643 1.373 . S
C1642 C1644 1.389 . S
C1643 H1622 0.950 . S
C1643 C1642 1.373 . S
C1643 C1659 1.377 . S
C1644 C1642 1.389 . S
C1644 C1645 1.524 . S
C1644 C1658 1.377 . S
C1645 C1644 1.524 . S
C1645 C1646 1.397 . S
C1645 C1650 1.363 . S
C1646 H1623 0.950 . S
C1646 C1645 1.397 . S
C1646 C1647 1.334 . S
C1647 H1624 0.950 . S
C1647 C1646 1.334 . S
C1647 C1648 1.287 . S
C1648 C1647 1.287 . S
C1648 C1649 1.524 . S
C1648 H1667 0.913 . S
C1649 H1625 0.950 . S
C1649 C1648 1.524 . S
C1649 C1650 1.415 . S
C1650 H1626 0.950 . S
C1650 C1645 1.363 . S
C1650 C1649 1.415 . S
C1651 H1627 0.951 . S
C1651 C1652 1.366 . S
C1651 C1653 1.388 . S
C1652 C1651 1.366 . S
C1652 C1656 1.385 . S
C1653 H1628 0.951 . S
C1653 C1651 1.388 . S
C1653 C1654 1.366 . S
C1654 C1653 1.366 . S
C1654 C1655 1.414 . S
C1654 C1657 1.499 . S
C1655 H1629 0.950 . S
C1655 C1654 1.414 . S
C1655 C1656 1.374 . S
C1656 H1630 0.950 . S
C1656 C1652 1.385 . S
C1656 C1655 1.374 . S
C1657 C1654 1.499 . S
C1657 C1658 1.373 . S
C1657 C1659 1.389 . S
C1658 H1631 0.950 . S
C1658 C1644 1.377 . S
C1658 C1657 1.373 . S
C1659 C1643 1.377 . S
C1659 C1657 1.389 . S
C1659 C1660 1.524 . S
C1660 C1659 1.524 . S
C1660 C1661 1.397 . S
C1660 C1665 1.363 . S
C1661 H1632 0.950 . S
C1661 C1660 1.397 . S
C1661 C1662 1.334 . S
C1662 H1633 0.950 . S
C1662 C1661 1.334 . S
C1662 C1663 1.287 . S
C1663 C1662 1.287 . S
C1663 C1664 1.524 . S
C1663 H1666 0.999 . S
C1664 H1634 0.950 . S
C1664 C1663 1.524 . S
C1664 C1665 1.415 . S
C1665 H1635 0.950 . S
C1665 C1660 1.363 . S
C1665 C1664 1.415 . S
H1666 C1663 0.999 . S
H1667 C1648 0.913 . S
H1668 C1686 0.951 . S
H1669 C1688 0.951 . S
H1670 C1690 0.950 . S
H1671 C1691 0.950 . S
H1672 C1693 0.950 . S
H1673 C1696 0.950 1_556 S
H1674 C1697 0.950 . S
H1675 C1699 0.950 . S
H1676 C1700 0.950 . S
H1677 C1701 0.951 . S
H1678 C1703 0.951 . S
H1679 C1705 0.950 . S
H1680 C1706 0.950 . S
H1681 C1708 0.950 . S
H1682 C1711 0.950 . S
H1683 C1712 0.950 . S
H1684 C1714 0.950 . S
H1685 C1715 0.950 . S
C1686 H1668 0.951 . S
C1686 C1687 1.366 . S
C1686 C1688 1.388 1_556 S
C1687 C1686 1.366 . S
C1687 C1691 1.385 . S
C1688 H1669 0.951 . S
C1688 C1686 1.388 1_554 S
C1688 C1689 1.366 . S
C1689 C1688 1.366 . S
C1689 C1690 1.414 1_554 S
C1689 C1692 1.499 . S
C1690 H1670 0.950 . S
C1690 C1689 1.414 1_556 S
C1690 C1691 1.374 . S
C1691 H1671 0.950 . S
C1691 C1687 1.385 . S
C1691 C1690 1.374 . S
C1692 C1689 1.499 . S
C1692 C1693 1.373 . S
C1692 C1694 1.389 . S
C1693 H1672 0.950 . S
C1693 C1692 1.373 . S
C1693 C1709 1.377 . S
C1694 C1692 1.389 . S
C1694 C1695 1.524 . S
C1694 C1708 1.377 . S
C1695 C1694 1.524 . S
C1695 C1696 1.397 . S
C1695 C1700 1.363 . S
C1696 H1673 0.950 1_554 S
C1696 C1695 1.397 . S
C1696 C1697 1.334 1_554 S
C1697 H1674 0.950 . S
C1697 C1696 1.334 1_556 S
C1697 C1698 1.287 1_556 S
C1698 C1697 1.287 1_554 S
C1698 C1699 1.524 . S
C1698 H1717 0.913 1_554 S
C1699 H1675 0.950 . S
C1699 C1698 1.524 . S
C1699 C1700 1.415 . S
C1700 H1676 0.950 . S
C1700 C1695 1.363 . S
C1700 C1699 1.415 . S
C1701 H1677 0.951 . S
C1701 C1702 1.366 . S
C1701 C1703 1.388 . S
C1702 C1701 1.366 . S
C1702 C1706 1.385 . S
C1703 H1678 0.951 . S
C1703 C1701 1.388 . S
C1703 C1704 1.366 . S
C1704 C1703 1.366 . S
C1704 C1705 1.414 . S
C1704 C1707 1.499 . S
C1705 H1679 0.950 . S
C1705 C1704 1.414 . S
C1705 C1706 1.374 . S
C1706 H1680 0.950 . S
C1706 C1702 1.385 . S
C1706 C1705 1.374 . S
C1707 C1704 1.499 . S
C1707 C1708 1.373 . S
C1707 C1709 1.389 . S
C1708 H1681 0.950 . S
C1708 C1694 1.377 . S
C1708 C1707 1.373 . S
C1709 C1693 1.377 . S
C1709 C1707 1.389 . S
C1709 C1710 1.524 . S
C1710 C1709 1.524 . S
C1710 C1711 1.397 . S
C1710 C1715 1.363 . S
C1711 H1682 0.950 . S
C1711 C1710 1.397 . S
C1711 C1712 1.334 . S
C1712 H1683 0.950 . S
C1712 C1711 1.334 . S
C1712 C1713 1.287 . S
C1713 C1712 1.287 . S
C1713 C1714 1.524 . S
C1713 H1716 0.999 . S
C1714 H1684 0.950 . S
C1714 C1713 1.524 . S
C1714 C1715 1.415 . S
C1715 H1685 0.950 . S
C1715 C1710 1.363 . S
C1715 C1714 1.415 . S
H1716 C1713 0.999 . S
H1717 C1698 0.913 1_556 S
H1718 C1736 0.951 . S
H1719 C1738 0.951 . S
H1720 C1740 0.950 1_554 S
H1721 C1741 0.950 . S
H1722 C1743 0.950 . S
H1723 C1746 0.950 . S
H1724 C1747 0.950 . S
H1725 C1749 0.950 . S
H1726 C1750 0.950 . S
H1727 C1751 0.951 . S
H1728 C1753 0.951 . S
H1729 C1755 0.950 . S
H1730 C1756 0.950 . S
H1731 C1758 0.950 . S
H1732 C1761 0.950 . S
H1733 C1762 0.950 . S
H1734 C1764 0.950 . S
H1735 C1765 0.950 . S
C1736 H1718 0.951 . S
C1736 C1737 1.366 . S
C1736 C1738 1.388 . S
C1737 C1736 1.366 . S
C1737 C1741 1.385 . S
C1738 H1719 0.951 . S
C1738 C1736 1.388 . S
C1738 C1739 1.366 1_556 S
C1739 C1738 1.366 1_554 S
C1739 C1740 1.414 1_554 S
C1739 C1742 1.499 . S
C1740 H1720 0.950 1_556 S
C1740 C1739 1.414 1_556 S
C1740 C1741 1.374 . S
C1741 H1721 0.950 . S
C1741 C1737 1.385 . S
C1741 C1740 1.374 . S
C1742 C1739 1.499 . S
C1742 C1743 1.373 . S
C1742 C1744 1.389 . S
C1743 H1722 0.950 . S
C1743 C1742 1.373 . S
C1743 C1759 1.377 . S
C1744 C1742 1.389 . S
C1744 C1745 1.524 . S
C1744 C1758 1.377 . S
C1745 C1744 1.524 . S
C1745 C1746 1.397 1_554 S
C1745 C1750 1.363 . S
C1746 H1723 0.950 . S
C1746 C1745 1.397 1_556 S
C1746 C1747 1.334 . S
C1747 H1724 0.950 . S
C1747 C1746 1.334 . S
C1747 C1748 1.287 . S
C1748 C1747 1.287 . S
C1748 C1749 1.524 . S
C1748 H1767 0.913 . S
C1749 H1725 0.950 . S
C1749 C1748 1.524 . S
C1749 C1750 1.415 1_556 S
C1750 H1726 0.950 . S
C1750 C1745 1.363 . S
C1750 C1749 1.415 1_554 S
C1751 H1727 0.951 . S
C1751 C1752 1.366 . S
C1751 C1753 1.388 . S
C1752 C1751 1.366 . S
C1752 C1756 1.385 . S
C1753 H1728 0.951 . S
C1753 C1751 1.388 . S
C1753 C1754 1.366 . S
C1754 C1753 1.366 . S
C1754 C1755 1.414 . S
C1754 C1757 1.499 . S
C1755 H1729 0.950 . S
C1755 C1754 1.414 . S
C1755 C1756 1.374 . S
C1756 H1730 0.950 . S
C1756 C1752 1.385 . S
C1756 C1755 1.374 . S
C1757 C1754 1.499 . S
C1757 C1758 1.373 . S
C1757 C1759 1.389 . S
C1758 H1731 0.950 . S
C1758 C1744 1.377 . S
C1758 C1757 1.373 . S
C1759 C1743 1.377 . S
C1759 C1757 1.389 . S
C1759 C1760 1.524 . S
C1760 C1759 1.524 . S
C1760 C1761 1.397 . S
C1760 C1765 1.363 . S
C1761 H1732 0.950 . S
C1761 C1760 1.397 . S
C1761 C1762 1.334 . S
C1762 H1733 0.950 . S
C1762 C1761 1.334 . S
C1762 C1763 1.287 . S
C1763 C1762 1.287 . S
C1763 C1764 1.524 . S
C1763 H1766 0.999 . S
C1764 H1734 0.950 . S
C1764 C1763 1.524 . S
C1764 C1765 1.415 . S
C1765 H1735 0.950 . S
C1765 C1760 1.363 . S
C1765 C1764 1.415 . S
H1766 C1763 0.999 . S
H1767 C1748 0.913 . S
H1768 C1786 0.951 . S
H1769 C1788 0.951 . S
H1770 C1790 0.950 . S
H1771 C1791 0.950 . S
H1772 C1793 0.950 . S
H1773 C1796 0.950 . S
H1774 C1797 0.950 . S
H1775 C1799 0.950 . S
H1776 C1800 0.950 . S
H1777 C1801 0.951 . S
H1778 C1803 0.951 . S
H1779 C1805 0.950 . S
H1780 C1806 0.950 . S
H1781 C1808 0.950 . S
H1782 C1811 0.950 1_554 S
H1783 C1812 0.950 . S
H1784 C1814 0.950 . S
H1785 C1815 0.950 . S
C1786 H1768 0.951 . S
C1786 C1787 1.366 . S
C1786 C1788 1.388 . S
C1787 C1786 1.366 . S
C1787 C1791 1.385 . S
C1788 H1769 0.951 . S
C1788 C1786 1.388 . S
C1788 C1789 1.366 . S
C1789 C1788 1.366 . S
C1789 C1790 1.414 . S
C1789 C1792 1.499 . S
C1790 H1770 0.950 . S
C1790 C1789 1.414 . S
C1790 C1791 1.374 . S
C1791 H1771 0.950 . S
C1791 C1787 1.385 . S
C1791 C1790 1.374 . S
C1792 C1789 1.499 . S
C1792 C1793 1.373 . S
C1792 C1794 1.389 . S
C1793 H1772 0.950 . S
C1793 C1792 1.373 . S
C1793 C1809 1.377 . S
C1794 C1792 1.389 . S
C1794 C1795 1.524 . S
C1794 C1808 1.377 . S
C1795 C1794 1.524 . S
C1795 C1796 1.397 . S
C1795 C1800 1.363 . S
C1796 H1773 0.950 . S
C1796 C1795 1.397 . S
C1796 C1797 1.334 . S
C1797 H1774 0.950 . S
C1797 C1796 1.334 . S
C1797 C1798 1.287 . S
C1798 C1797 1.287 . S
C1798 C1799 1.524 . S
C1798 H1817 0.913 . S
C1799 H1775 0.950 . S
C1799 C1798 1.524 . S
C1799 C1800 1.415 . S
C1800 H1776 0.950 . S
C1800 C1795 1.363 . S
C1800 C1799 1.415 . S
C1801 H1777 0.951 . S
C1801 C1802 1.366 . S
C1801 C1803 1.388 . S
C1802 C1801 1.366 . S
C1802 C1806 1.385 . S
C1803 H1778 0.951 . S
C1803 C1801 1.388 . S
C1803 C1804 1.366 1_556 S
C1804 C1803 1.366 1_554 S
C1804 C1805 1.414 . S
C1804 C1807 1.499 . S
C1805 H1779 0.950 . S
C1805 C1804 1.414 . S
C1805 C1806 1.374 1_554 S
C1806 H1780 0.950 . S
C1806 C1802 1.385 . S
C1806 C1805 1.374 1_556 S
C1807 C1804 1.499 . S
C1807 C1808 1.373 . S
C1807 C1809 1.389 . S
C1808 H1781 0.950 . S
C1808 C1794 1.377 . S
C1808 C1807 1.373 . S
C1809 C1793 1.377 . S
C1809 C1807 1.389 . S
C1809 C1810 1.524 . S
C1810 C1809 1.524 . S
C1810 C1811 1.397 1_554 S
C1810 C1815 1.363 . S
C1811 H1782 0.950 1_556 S
C1811 C1810 1.397 1_556 S
C1811 C1812 1.334 . S
C1812 H1783 0.950 . S
C1812 C1811 1.334 . S
C1812 C1813 1.287 . S
C1813 C1812 1.287 . S
C1813 C1814 1.524 . S
C1813 H1816 0.999 . S
C1814 H1784 0.950 . S
C1814 C1813 1.524 . S
C1814 C1815 1.415 1_556 S
C1815 H1785 0.950 . S
C1815 C1810 1.363 . S
C1815 C1814 1.415 1_554 S
H1816 C1813 0.999 . S
H1817 C1798 0.913 . S
H1818 C1836 0.951 . S
H1819 C1838 0.951 . S
H1820 C1840 0.950 . S
H1821 C1841 0.950 . S
H1822 C1843 0.950 . S
H1823 C1846 0.950 . S
H1824 C1847 0.950 . S
H1825 C1849 0.950 . S
H1826 C1850 0.950 . S
H1827 C1851 0.951 . S
H1828 C1853 0.951 . S
H1829 C1855 0.950 . S
H1830 C1856 0.950 . S
H1831 C1858 0.950 . S
H1832 C1861 0.950 . S
H1833 C1862 0.950 . S
H1834 C1864 0.950 . S
H1835 C1865 0.950 . S
C1836 H1818 0.951 . S
C1836 C1837 1.366 . S
C1836 C1838 1.388 . S
C1837 C1836 1.366 . S
C1837 C1841 1.385 . S
C1838 H1819 0.951 . S
C1838 C1836 1.388 . S
C1838 C1839 1.366 . S
C1839 C1838 1.366 . S
C1839 C1840 1.414 . S
C1839 C1842 1.499 . S
C1840 H1820 0.950 . S
C1840 C1839 1.414 . S
C1840 C1841 1.374 . S
C1841 H1821 0.950 . S
C1841 C1837 1.385 . S
C1841 C1840 1.374 . S
C1842 C1839 1.499 . S
C1842 C1843 1.373 . S
C1842 C1844 1.389 . S
C1843 H1822 0.950 . S
C1843 C1842 1.373 . S
C1843 C1859 1.377 . S
C1844 C1842 1.389 . S
C1844 C1845 1.524 . S
C1844 C1858 1.377 . S
C1845 C1844 1.524 . S
C1845 C1846 1.397 . S
C1845 C1850 1.363 . S
C1846 H1823 0.950 . S
C1846 C1845 1.397 . S
C1846 C1847 1.334 . S
C1847 H1824 0.950 . S
C1847 C1846 1.334 . S
C1847 C1848 1.287 . S
C1848 C1847 1.287 . S
C1848 C1849 1.524 . S
C1848 H1867 0.913 . S
C1849 H1825 0.950 . S
C1849 C1848 1.524 . S
C1849 C1850 1.415 . S
C1850 H1826 0.950 . S
C1850 C1845 1.363 . S
C1850 C1849 1.415 . S
C1851 H1827 0.951 . S
C1851 C1852 1.366 . S
C1851 C1853 1.388 . S
C1852 C1851 1.366 . S
C1852 C1856 1.385 . S
C1853 H1828 0.951 . S
C1853 C1851 1.388 . S
C1853 C1854 1.366 . S
C1854 C1853 1.366 . S
C1854 C1855 1.414 . S
C1854 C1857 1.499 . S
C1855 H1829 0.950 . S
C1855 C1854 1.414 . S
C1855 C1856 1.374 . S
C1856 H1830 0.950 . S
C1856 C1852 1.385 . S
C1856 C1855 1.374 . S
C1857 C1854 1.499 . S
C1857 C1858 1.373 . S
C1857 C1859 1.389 . S
C1858 H1831 0.950 . S
C1858 C1844 1.377 . S
C1858 C1857 1.373 . S
C1859 C1843 1.377 . S
C1859 C1857 1.389 . S
C1859 C1860 1.524 . S
C1860 C1859 1.524 . S
C1860 C1861 1.397 . S
C1860 C1865 1.363 . S
C1861 H1832 0.950 . S
C1861 C1860 1.397 . S
C1861 C1862 1.334 . S
C1862 H1833 0.950 . S
C1862 C1861 1.334 . S
C1862 C1863 1.287 . S
C1863 C1862 1.287 . S
C1863 C1864 1.524 . S
C1863 H1866 0.999 . S
C1864 H1834 0.950 . S
C1864 C1863 1.524 . S
C1864 C1865 1.415 . S
C1865 H1835 0.950 . S
C1865 C1860 1.363 . S
C1865 C1864 1.415 . S
H1866 C1863 0.999 . S
H1867 C1848 0.913 . S
H1868 C1886 0.951 . S
H1869 C1888 0.951 . S
H1870 C1890 0.950 . S
H1871 C1891 0.950 . S
H1872 C1893 0.950 . S
H1873 C1896 0.950 . S
H1874 C1897 0.950 . S
H1875 C1899 0.950 . S
H1876 C1900 0.950 . S
H1877 C1901 0.951 . S
H1878 C1903 0.951 . S
H1879 C1905 0.950 . S
H1880 C1906 0.950 . S
H1881 C1908 0.950 . S
H1882 C1911 0.950 . S
H1883 C1912 0.950 . S
H1884 C1914 0.950 . S
H1885 C1915 0.950 . S
C1886 H1868 0.951 . S
C1886 C1887 1.366 . S
C1886 C1888 1.388 . S
C1887 C1886 1.366 . S
C1887 C1891 1.385 . S
C1888 H1869 0.951 . S
C1888 C1886 1.388 . S
C1888 C1889 1.366 . S
C1889 C1888 1.366 . S
C1889 C1890 1.414 . S
C1889 C1892 1.499 . S
C1890 H1870 0.950 . S
C1890 C1889 1.414 . S
C1890 C1891 1.374 . S
C1891 H1871 0.950 . S
C1891 C1887 1.385 . S
C1891 C1890 1.374 . S
C1892 C1889 1.499 . S
C1892 C1893 1.373 . S
C1892 C1894 1.389 . S
C1893 H1872 0.950 . S
C1893 C1892 1.373 . S
C1893 C1909 1.377 . S
C1894 C1892 1.389 . S
C1894 C1895 1.524 . S
C1894 C1908 1.377 . S
C1895 C1894 1.524 . S
C1895 C1896 1.397 . S
C1895 C1900 1.363 . S
C1896 H1873 0.950 . S
C1896 C1895 1.397 . S
C1896 C1897 1.334 . S
C1897 H1874 0.950 . S
C1897 C1896 1.334 . S
C1897 C1898 1.287 . S
C1898 C1897 1.287 . S
C1898 C1899 1.524 . S
C1898 H1917 0.913 . S
C1899 H1875 0.950 . S
C1899 C1898 1.524 . S
C1899 C1900 1.415 . S
C1900 H1876 0.950 . S
C1900 C1895 1.363 . S
C1900 C1899 1.415 . S
C1901 H1877 0.951 . S
C1901 C1902 1.366 . S
C1901 C1903 1.388 . S
C1902 C1901 1.366 . S
C1902 C1906 1.385 . S
C1903 H1878 0.951 . S
C1903 C1901 1.388 . S
C1903 C1904 1.366 . S
C1904 C1903 1.366 . S
C1904 C1905 1.414 . S
C1904 C1907 1.499 . S
C1905 H1879 0.950 . S
C1905 C1904 1.414 . S
C1905 C1906 1.374 . S
C1906 H1880 0.950 . S
C1906 C1902 1.385 . S
C1906 C1905 1.374 . S
C1907 C1904 1.499 . S
C1907 C1908 1.373 . S
C1907 C1909 1.389 . S
C1908 H1881 0.950 . S
C1908 C1894 1.377 . S
C1908 C1907 1.373 . S
C1909 C1893 1.377 . S
C1909 C1907 1.389 . S
C1909 C1910 1.524 . S
C1910 C1909 1.524 . S
C1910 C1911 1.397 . S
C1910 C1915 1.363 . S
C1911 H1882 0.950 . S
C1911 C1910 1.397 . S
C1911 C1912 1.334 . S
C1912 H1883 0.950 . S
C1912 C1911 1.334 . S
C1912 C1913 1.287 . S
C1913 C1912 1.287 . S
C1913 C1914 1.524 . S
C1913 H1916 0.999 . S
C1914 H1884 0.950 . S
C1914 C1913 1.524 . S
C1914 C1915 1.415 . S
C1915 H1885 0.950 . S
C1915 C1910 1.363 . S
C1915 C1914 1.415 . S
H1916 C1913 0.999 . S
H1917 C1898 0.913 . S
H1918 C1936 0.951 . S
H1919 C1938 0.951 . S
H1920 C1940 0.950 . S
H1921 C1941 0.950 . S
H1922 C1943 0.950 . S
H1923 C1946 0.950 . S
H1924 C1947 0.950 . S
H1925 C1949 0.950 . S
H1926 C1950 0.950 . S
H1927 C1951 0.951 . S
H1928 C1953 0.951 . S
H1929 C1955 0.950 . S
H1930 C1956 0.950 . S
H1931 C1958 0.950 . S
H1932 C1961 0.950 . S
H1933 C1962 0.950 . S
H1934 C1964 0.950 . S
H1935 C1965 0.950 . S
C1936 H1918 0.951 . S
C1936 C1937 1.366 . S
C1936 C1938 1.388 . S
C1937 C1936 1.366 . S
C1937 C1941 1.385 . S
C1938 H1919 0.951 . S
C1938 C1936 1.388 . S
C1938 C1939 1.366 . S
C1939 C1938 1.366 . S
C1939 C1940 1.414 . S
C1939 C1942 1.499 . S
C1940 H1920 0.950 . S
C1940 C1939 1.414 . S
C1940 C1941 1.374 . S
C1941 H1921 0.950 . S
C1941 C1937 1.385 . S
C1941 C1940 1.374 . S
C1942 C1939 1.499 . S
C1942 C1943 1.373 . S
C1942 C1944 1.389 . S
C1943 H1922 0.950 . S
C1943 C1942 1.373 . S
C1943 C1959 1.377 . S
C1944 C1942 1.389 . S
C1944 C1945 1.524 . S
C1944 C1958 1.377 . S
C1945 C1944 1.524 . S
C1945 C1946 1.397 . S
C1945 C1950 1.363 . S
C1946 H1923 0.950 . S
C1946 C1945 1.397 . S
C1946 C1947 1.334 . S
C1947 H1924 0.950 . S
C1947 C1946 1.334 . S
C1947 C1948 1.287 . S
C1948 C1947 1.287 . S
C1948 C1949 1.524 . S
C1948 H1967 0.913 . S
C1949 H1925 0.950 . S
C1949 C1948 1.524 . S
C1949 C1950 1.415 . S
C1950 H1926 0.950 . S
C1950 C1945 1.363 . S
C1950 C1949 1.415 . S
C1951 H1927 0.951 . S
C1951 C1952 1.366 . S
C1951 C1953 1.388 . S
C1952 C1951 1.366 . S
C1952 C1956 1.385 . S
C1953 H1928 0.951 . S
C1953 C1951 1.388 . S
C1953 C1954 1.366 . S
C1954 C1953 1.366 . S
C1954 C1955 1.414 . S
C1954 C1957 1.499 . S
C1955 H1929 0.950 . S
C1955 C1954 1.414 . S
C1955 C1956 1.374 . S
C1956 H1930 0.950 . S
C1956 C1952 1.385 . S
C1956 C1955 1.374 . S
C1957 C1954 1.499 . S
C1957 C1958 1.373 . S
C1957 C1959 1.389 . S
C1958 H1931 0.950 . S
C1958 C1944 1.377 . S
C1958 C1957 1.373 . S
C1959 C1943 1.377 . S
C1959 C1957 1.389 . S
C1959 C1960 1.524 . S
C1960 C1959 1.524 . S
C1960 C1961 1.397 . S
C1960 C1965 1.363 . S
C1961 H1932 0.950 . S
C1961 C1960 1.397 . S
C1961 C1962 1.334 . S
C1962 H1933 0.950 . S
C1962 C1961 1.334 . S
C1962 C1963 1.287 . S
C1963 C1962 1.287 . S
C1963 C1964 1.524 . S
C1963 H1966 0.999 . S
C1964 H1934 0.950 . S
C1964 C1963 1.524 . S
C1964 C1965 1.415 . S
C1965 H1935 0.950 . S
C1965 C1960 1.363 . S
C1965 C1964 1.415 . S
H1966 C1963 0.999 . S
H1967 C1948 0.913 . S
H1968 C1986 0.951 . S
H1969 C1988 0.951 . S
H1970 C1990 0.950 . S
H1971 C1991 0.950 . S
H1972 C1993 0.950 . S
H1973 C1996 0.950 . S
H1974 C1997 0.950 . S
H1975 C1999 0.950 . S
H1976 C2000 0.950 . S
H1977 C2001 0.951 . S
H1978 C2003 0.951 . S
H1979 C2005 0.950 . S
H1980 C2006 0.950 . S
H1981 C2008 0.950 . S
H1982 C2011 0.950 . S
H1983 C2012 0.950 . S
H1984 C2014 0.950 . S
H1985 C2015 0.950 . S
C1986 H1968 0.951 . S
C1986 C1987 1.366 . S
C1986 C1988 1.388 . S
C1987 C1986 1.366 . S
C1987 C1991 1.385 . S
C1988 H1969 0.951 . S
C1988 C1986 1.388 . S
C1988 C1989 1.366 . S
C1989 C1988 1.366 . S
C1989 C1990 1.414 . S
C1989 C1992 1.499 . S
C1990 H1970 0.950 . S
C1990 C1989 1.414 . S
C1990 C1991 1.374 . S
C1991 H1971 0.950 . S
C1991 C1987 1.385 . S
C1991 C1990 1.374 . S
C1992 C1989 1.499 . S
C1992 C1993 1.373 . S
C1992 C1994 1.389 . S
C1993 H1972 0.950 . S
C1993 C1992 1.373 . S
C1993 C2009 1.377 . S
C1994 C1992 1.389 . S
C1994 C1995 1.524 . S
C1994 C2008 1.377 . S
C1995 C1994 1.524 . S
C1995 C1996 1.397 . S
C1995 C2000 1.363 . S
C1996 H1973 0.950 . S
C1996 C1995 1.397 . S
C1996 C1997 1.334 . S
C1997 H1974 0.950 . S
C1997 C1996 1.334 . S
C1997 C1998 1.287 . S
C1998 C1997 1.287 . S
C1998 C1999 1.524 . S
C1998 H2017 0.913 . S
C1999 H1975 0.950 . S
C1999 C1998 1.524 . S
C1999 C2000 1.415 . S
C2000 H1976 0.950 . S
C2000 C1995 1.363 . S
C2000 C1999 1.415 . S
C2001 H1977 0.951 . S
C2001 C2002 1.366 . S
C2001 C2003 1.388 . S
C2002 C2001 1.366 . S
C2002 C2006 1.385 . S
C2003 H1978 0.951 . S
C2003 C2001 1.388 . S
C2003 C2004 1.366 . S
C2004 C2003 1.366 . S
C2004 C2005 1.414 . S
C2004 C2007 1.499 . S
C2005 H1979 0.950 . S
C2005 C2004 1.414 . S
C2005 C2006 1.374 . S
C2006 H1980 0.950 . S
C2006 C2002 1.385 . S
C2006 C2005 1.374 . S
C2007 C2004 1.499 . S
C2007 C2008 1.373 . S
C2007 C2009 1.389 . S
C2008 H1981 0.950 . S
C2008 C1994 1.377 . S
C2008 C2007 1.373 . S
C2009 C1993 1.377 . S
C2009 C2007 1.389 . S
C2009 C2010 1.524 . S
C2010 C2009 1.524 . S
C2010 C2011 1.397 . S
C2010 C2015 1.363 . S
C2011 H1982 0.950 . S
C2011 C2010 1.397 . S
C2011 C2012 1.334 . S
C2012 H1983 0.950 . S
C2012 C2011 1.334 . S
C2012 C2013 1.287 . S
C2013 C2012 1.287 . S
C2013 C2014 1.524 . S
C2013 H2016 0.999 . S
C2014 H1984 0.950 . S
C2014 C2013 1.524 . S
C2014 C2015 1.415 . S
C2015 H1985 0.950 . S
C2015 C2010 1.363 . S
C2015 C2014 1.415 . S
H2016 C2013 0.999 . S
H2017 C1998 0.913 . S
H2018 C2036 0.951 . S
H2019 C2038 0.951 . S
H2020 C2040 0.950 . S
H2021 C2041 0.950 . S
H2022 C2043 0.950 . S
H2023 C2046 0.950 . S
H2024 C2047 0.950 . S
H2025 C2049 0.950 . S
H2026 C2050 0.950 . S
H2027 C2051 0.951 . S
H2028 C2053 0.951 . S
H2029 C2055 0.950 . S
H2030 C2056 0.950 . S
H2031 C2058 0.950 . S
H2032 C2061 0.950 . S
H2033 C2062 0.950 . S
H2034 C2064 0.950 . S
H2035 C2065 0.950 . S
C2036 H2018 0.951 . S
C2036 C2037 1.366 . S
C2036 C2038 1.388 . S
C2037 C2036 1.366 . S
C2037 C2041 1.385 . S
C2038 H2019 0.951 . S
C2038 C2036 1.388 . S
C2038 C2039 1.366 . S
C2039 C2038 1.366 . S
C2039 C2040 1.414 . S
C2039 C2042 1.499 . S
C2040 H2020 0.950 . S
C2040 C2039 1.414 . S
C2040 C2041 1.374 . S
C2041 H2021 0.950 . S
C2041 C2037 1.385 . S
C2041 C2040 1.374 . S
C2042 C2039 1.499 . S
C2042 C2043 1.373 . S
C2042 C2044 1.389 . S
C2043 H2022 0.950 . S
C2043 C2042 1.373 . S
C2043 C2059 1.377 . S
C2044 C2042 1.389 . S
C2044 C2045 1.524 . S
C2044 C2058 1.377 . S
C2045 C2044 1.524 . S
C2045 C2046 1.397 . S
C2045 C2050 1.363 . S
C2046 H2023 0.950 . S
C2046 C2045 1.397 . S
C2046 C2047 1.334 . S
C2047 H2024 0.950 . S
C2047 C2046 1.334 . S
C2047 C2048 1.287 . S
C2048 C2047 1.287 . S
C2048 C2049 1.524 . S
C2048 H2067 0.913 . S
C2049 H2025 0.950 . S
C2049 C2048 1.524 . S
C2049 C2050 1.415 . S
C2050 H2026 0.950 . S
C2050 C2045 1.363 . S
C2050 C2049 1.415 . S
C2051 H2027 0.951 . S
C2051 C2052 1.366 . S
C2051 C2053 1.388 . S
C2052 C2051 1.366 . S
C2052 C2056 1.385 . S
C2053 H2028 0.951 . S
C2053 C2051 1.388 . S
C2053 C2054 1.366 . S
C2054 C2053 1.366 . S
C2054 C2055 1.414 . S
C2054 C2057 1.499 . S
C2055 H2029 0.950 . S
C2055 C2054 1.414 . S
C2055 C2056 1.374 . S
C2056 H2030 0.950 . S
C2056 C2052 1.385 . S
C2056 C2055 1.374 . S
C2057 C2054 1.499 . S
C2057 C2058 1.373 . S
C2057 C2059 1.389 . S
C2058 H2031 0.950 . S
C2058 C2044 1.377 . S
C2058 C2057 1.373 . S
C2059 C2043 1.377 . S
C2059 C2057 1.389 . S
C2059 C2060 1.524 . S
C2060 C2059 1.524 . S
C2060 C2061 1.397 . S
C2060 C2065 1.363 . S
C2061 H2032 0.950 . S
C2061 C2060 1.397 . S
C2061 C2062 1.334 . S
C2062 H2033 0.950 . S
C2062 C2061 1.334 . S
C2062 C2063 1.287 . S
C2063 C2062 1.287 . S
C2063 C2064 1.524 . S
C2063 H2066 0.999 . S
C2064 H2034 0.950 . S
C2064 C2063 1.524 . S
C2064 C2065 1.415 . S
C2065 H2035 0.950 . S
C2065 C2060 1.363 . S
C2065 C2064 1.415 . S
H2066 C2063 0.999 . S
H2067 C2048 0.913 . S
H2068 C2086 0.951 . S
H2069 C2088 0.951 . S
H2070 C2090 0.950 . S
H2071 C2091 0.950 . S
H2072 C2093 0.950 . S
H2073 C2096 0.950 . S
H2074 C2097 0.950 . S
H2075 C2099 0.950 . S
H2076 C2100 0.950 . S
H2077 C2101 0.951 . S
H2078 C2103 0.951 . S
H2079 C2105 0.950 . S
H2080 C2106 0.950 . S
H2081 C2108 0.950 . S
H2082 C2111 0.950 . S
H2083 C2112 0.950 . S
H2084 C2114 0.950 . S
H2085 C2115 0.950 . S
C2086 H2068 0.951 . S
C2086 C2087 1.366 . S
C2086 C2088 1.388 . S
C2087 C2086 1.366 . S
C2087 C2091 1.385 . S
C2088 H2069 0.951 . S
C2088 C2086 1.388 . S
C2088 C2089 1.366 . S
C2089 C2088 1.366 . S
C2089 C2090 1.414 . S
C2089 C2092 1.499 . S
C2090 H2070 0.950 . S
C2090 C2089 1.414 . S
C2090 C2091 1.374 . S
C2091 H2071 0.950 . S
C2091 C2087 1.385 . S
C2091 C2090 1.374 . S
C2092 C2089 1.499 . S
C2092 C2093 1.373 . S
C2092 C2094 1.389 . S
C2093 H2072 0.950 . S
C2093 C2092 1.373 . S
C2093 C2109 1.377 . S
C2094 C2092 1.389 . S
C2094 C2095 1.524 . S
C2094 C2108 1.377 . S
C2095 C2094 1.524 . S
C2095 C2096 1.397 . S
C2095 C2100 1.363 . S
C2096 H2073 0.950 . S
C2096 C2095 1.397 . S
C2096 C2097 1.334 . S
C2097 H2074 0.950 . S
C2097 C2096 1.334 . S
C2097 C2098 1.287 . S
C2098 C2097 1.287 . S
C2098 C2099 1.524 . S
C2098 H2117 0.913 . S
C2099 H2075 0.950 . S
C2099 C2098 1.524 . S
C2099 C2100 1.415 . S
C2100 H2076 0.950 . S
C2100 C2095 1.363 . S
C2100 C2099 1.415 . S
C2101 H2077 0.951 . S
C2101 C2102 1.366 . S
C2101 C2103 1.388 . S
C2102 C2101 1.366 . S
C2102 C2106 1.385 . S
C2103 H2078 0.951 . S
C2103 C2101 1.388 . S
C2103 C2104 1.366 . S
C2104 C2103 1.366 . S
C2104 C2105 1.414 . S
C2104 C2107 1.499 . S
C2105 H2079 0.950 . S
C2105 C2104 1.414 . S
C2105 C2106 1.374 . S
C2106 H2080 0.950 . S
C2106 C2102 1.385 . S
C2106 C2105 1.374 . S
C2107 C2104 1.499 . S
C2107 C2108 1.373 . S
C2107 C2109 1.389 . S
C2108 H2081 0.950 . S
C2108 C2094 1.377 . S
C2108 C2107 1.373 . S
C2109 C2093 1.377 . S
C2109 C2107 1.389 . S
C2109 C2110 1.524 . S
C2110 C2109 1.524 . S
C2110 C2111 1.397 . S
C2110 C2115 1.363 . S
C2111 H2082 0.950 . S
C2111 C2110 1.397 . S
C2111 C2112 1.334 . S
C2112 H2083 0.950 . S
C2112 C2111 1.334 . S
C2112 C2113 1.287 . S
C2113 C2112 1.287 . S
C2113 C2114 1.524 . S
C2113 H2116 0.999 . S
C2114 H2084 0.950 . S
C2114 C2113 1.524 . S
C2114 C2115 1.415 . S
C2115 H2085 0.950 . S
C2115 C2110 1.363 . S
C2115 C2114 1.415 . S
H2116 C2113 0.999 . S
H2117 C2098 0.913 . S
H2118 C2136 0.951 . S
H2119 C2138 0.951 . S
H2120 C2140 0.950 . S
H2121 C2141 0.950 . S
H2122 C2143 0.950 . S
H2123 C2146 0.950 . S
H2124 C2147 0.950 . S
H2125 C2149 0.950 . S
H2126 C2150 0.950 . S
H2127 C2151 0.951 . S
H2128 C2153 0.947 1_556 S
H2129 C2155 0.950 . S
H2130 C2156 0.950 . S
H2131 C2158 0.950 . S
H2132 C2161 0.950 . S
H2133 C2162 0.950 . S
H2134 C2164 0.950 . S
H2135 C2165 0.950 . S
C2136 H2118 0.951 . S
C2136 C2137 1.366 . S
C2136 C2138 1.388 . S
C2137 C2136 1.366 . S
C2137 C2141 1.385 . S
C2138 H2119 0.951 . S
C2138 C2136 1.388 . S
C2138 C2139 1.366 . S
C2139 C2138 1.366 . S
C2139 C2140 1.414 . S
C2139 C2142 1.499 . S
C2140 H2120 0.950 . S
C2140 C2139 1.414 . S
C2140 C2141 1.374 . S
C2141 H2121 0.950 . S
C2141 C2137 1.385 . S
C2141 C2140 1.374 . S
C2142 C2139 1.499 . S
C2142 C2143 1.373 . S
C2142 C2144 1.389 . S
C2143 H2122 0.950 . S
C2143 C2142 1.373 . S
C2143 C2159 1.377 . S
C2144 C2142 1.389 . S
C2144 C2145 1.524 . S
C2144 C2158 1.377 . S
C2145 C2144 1.524 . S
C2145 C2146 1.397 . S
C2145 C2150 1.363 . S
C2146 H2123 0.950 . S
C2146 C2145 1.397 . S
C2146 C2147 1.334 . S
C2147 H2124 0.950 . S
C2147 C2146 1.334 . S
C2147 C2148 1.287 . S
C2148 C2147 1.287 . S
C2148 C2149 1.524 . S
C2148 H2167 0.913 . S
C2149 H2125 0.950 . S
C2149 C2148 1.524 . S
C2149 C2150 1.415 . S
C2150 H2126 0.950 . S
C2150 C2145 1.363 . S
C2150 C2149 1.415 . S
C2151 H2127 0.951 . S
C2151 C2152 1.366 . S
C2151 C2153 1.394 . S
C2152 C2151 1.366 . S
C2152 C2156 1.385 . S
C2153 H2128 0.947 1_554 S
C2153 C2151 1.394 . S
C2153 C2154 1.364 1_554 S
C2154 C2153 1.364 1_556 S
C2154 C2155 1.414 1_556 S
C2154 C2157 1.499 . S
C2155 H2129 0.950 . S
C2155 C2154 1.414 1_554 S
C2155 C2156 1.374 . S
C2156 H2130 0.950 . S
C2156 C2152 1.385 . S
C2156 C2155 1.374 . S
C2157 C2154 1.499 . S
C2157 C2158 1.373 . S
C2157 C2159 1.389 . S
C2158 H2131 0.950 . S
C2158 C2144 1.377 . S
C2158 C2157 1.373 . S
C2159 C2143 1.377 . S
C2159 C2157 1.389 . S
C2159 C2160 1.524 . S
C2160 C2159 1.524 . S
C2160 C2161 1.397 . S
C2160 C2165 1.363 . S
C2161 H2132 0.950 . S
C2161 C2160 1.397 . S
C2161 C2162 1.334 . S
C2162 H2133 0.950 . S
C2162 C2161 1.334 . S
C2162 C2163 1.287 . S
C2163 C2162 1.287 . S
C2163 C2164 1.524 . S
C2163 H2166 0.999 . S
C2164 H2134 0.950 . S
C2164 C2163 1.524 . S
C2164 C2165 1.415 . S
C2165 H2135 0.950 . S
C2165 C2160 1.363 . S
C2165 C2164 1.415 . S
H2166 C2163 0.999 . S
H2167 C2148 0.913 . S
H2168 C2186 0.951 . S
H2169 C2188 0.951 . S
H2170 C2190 0.950 . S
H2171 C2191 0.950 . S
H2172 C2193 0.950 . S
H2173 C2196 0.950 . S
H2174 C2197 0.950 . S
H2175 C2199 0.950 . S
H2176 C2200 0.950 . S
H2177 C2201 0.951 . S
H2178 C2203 0.951 . S
H2179 C2205 0.950 . S
H2180 C2206 0.950 . S
H2181 C2208 0.950 . S
H2182 C2211 0.950 . S
H2183 C2212 0.950 . S
H2184 C2214 0.950 . S
H2185 C2215 0.950 . S
C2186 H2168 0.951 . S
C2186 C2187 1.366 . S
C2186 C2188 1.388 1_554 S
C2187 C2186 1.366 . S
C2187 C2191 1.385 . S
C2188 H2169 0.951 . S
C2188 C2186 1.388 1_556 S
C2188 C2189 1.366 . S
C2189 C2188 1.366 . S
C2189 C2190 1.414 1_556 S
C2189 C2192 1.499 . S
C2190 H2170 0.950 . S
C2190 C2189 1.414 1_554 S
C2190 C2191 1.374 . S
C2191 H2171 0.950 . S
C2191 C2187 1.385 . S
C2191 C2190 1.374 . S
C2192 C2189 1.499 . S
C2192 C2193 1.373 . S
C2192 C2194 1.389 . S
C2193 H2172 0.950 . S
C2193 C2192 1.373 . S
C2193 C2209 1.377 . S
C2194 C2192 1.389 . S
C2194 C2195 1.524 . S
C2194 C2208 1.377 . S
C2195 C2194 1.524 . S
C2195 C2196 1.397 . S
C2195 C2200 1.363 . S
C2196 H2173 0.950 . S
C2196 C2195 1.397 . S
C2196 C2197 1.334 . S
C2197 H2174 0.950 . S
C2197 C2196 1.334 . S
C2197 C2198 1.287 . S
C2198 C2197 1.287 . S
C2198 C2199 1.524 . S
C2198 H2217 0.913 . S
C2199 H2175 0.950 . S
C2199 C2198 1.524 . S
C2199 C2200 1.415 . S
C2200 H2176 0.950 . S
C2200 C2195 1.363 . S
C2200 C2199 1.415 . S
C2201 H2177 0.951 . S
C2201 C2202 1.366 . S
C2201 C2203 1.388 . S
C2202 C2201 1.366 . S
C2202 C2206 1.385 . S
C2203 H2178 0.951 . S
C2203 C2201 1.388 . S
C2203 C2204 1.366 . S
C2204 C2203 1.366 . S
C2204 C2205 1.414 . S
C2204 C2207 1.499 . S
C2205 H2179 0.950 . S
C2205 C2204 1.414 . S
C2205 C2206 1.374 . S
C2206 H2180 0.950 . S
C2206 C2202 1.385 . S
C2206 C2205 1.374 . S
C2207 C2204 1.499 . S
C2207 C2208 1.373 . S
C2207 C2209 1.389 . S
C2208 H2181 0.950 . S
C2208 C2194 1.377 . S
C2208 C2207 1.373 . S
C2209 C2193 1.377 . S
C2209 C2207 1.389 . S
C2209 C2210 1.524 . S
C2210 C2209 1.524 . S
C2210 C2211 1.397 . S
C2210 C2215 1.363 . S
C2211 H2182 0.950 . S
C2211 C2210 1.397 . S
C2211 C2212 1.334 . S
C2212 H2183 0.950 . S
C2212 C2211 1.334 . S
C2212 C2213 1.287 . S
C2213 C2212 1.287 . S
C2213 C2214 1.524 . S
C2213 H2216 0.999 . S
C2214 H2184 0.950 . S
C2214 C2213 1.524 . S
C2214 C2215 1.415 . S
C2215 H2185 0.950 . S
C2215 C2210 1.363 . S
C2215 C2214 1.415 . S
H2216 C2213 0.999 . S
H2217 C2198 0.913 . S
H2218 C2236 0.951 . S
H2219 C2238 0.951 . S
H2220 C2240 0.950 . S
H2221 C2241 0.950 . S
H2222 C2243 0.950 . S
H2223 C2246 0.950 . S
H2224 C2247 0.950 . S
H2225 C2249 0.950 . S
H2226 C2250 0.950 . S
H2227 C2251 0.951 . S
H2228 C2253 0.951 . S
H2229 C2255 0.952 1_556 S
H2230 C2256 0.950 . S
H2231 C2258 0.950 . S
H2232 C2261 0.950 . S
H2233 C2262 0.950 . S
H2234 C2264 0.950 . S
H2235 C2265 0.950 . S
C2236 H2218 0.951 . S
C2236 C2237 1.366 . S
C2236 C2238 1.388 . S
C2237 C2236 1.366 . S
C2237 C2241 1.385 . S
C2238 H2219 0.951 . S
C2238 C2236 1.388 . S
C2238 C2239 1.366 . S
C2239 C2238 1.366 . S
C2239 C2240 1.414 . S
C2239 C2242 1.499 . S
C2240 H2220 0.950 . S
C2240 C2239 1.414 . S
C2240 C2241 1.374 . S
C2241 H2221 0.950 . S
C2241 C2237 1.385 . S
C2241 C2240 1.374 . S
C2242 C2239 1.499 . S
C2242 C2243 1.373 . S
C2242 C2244 1.389 . S
C2243 H2222 0.950 . S
C2243 C2242 1.373 . S
C2243 C2259 1.377 . S
C2244 C2242 1.389 . S
C2244 C2245 1.524 . S
C2244 C2258 1.377 . S
C2245 C2244 1.524 . S
C2245 C2246 1.397 . S
C2245 C2250 1.363 . S
C2246 H2223 0.950 . S
C2246 C2245 1.397 . S
C2246 C2247 1.334 . S
C2247 H2224 0.950 . S
C2247 C2246 1.334 . S
C2247 C2248 1.287 . S
C2248 C2247 1.287 . S
C2248 C2249 1.524 . S
C2248 H2267 0.913 . S
C2249 H2225 0.950 . S
C2249 C2248 1.524 . S
C2249 C2250 1.415 . S
C2250 H2226 0.950 . S
C2250 C2245 1.363 . S
C2250 C2249 1.415 . S
C2251 H2227 0.951 . S
C2251 C2252 1.366 . S
C2251 C2253 1.388 . S
C2252 C2251 1.366 . S
C2252 C2256 1.385 . S
C2253 H2228 0.951 . S
C2253 C2251 1.388 . S
C2253 C2254 1.366 1_554 S
C2254 C2253 1.366 1_556 S
C2254 C2255 1.414 1_556 S
C2254 C2257 1.499 . S
C2255 H2229 0.952 1_554 S
C2255 C2254 1.414 1_554 S
C2255 C2256 1.372 . S
C2256 H2230 0.950 . S
C2256 C2252 1.385 . S
C2256 C2255 1.372 . S
C2257 C2254 1.499 . S
C2257 C2258 1.373 . S
C2257 C2259 1.389 . S
C2258 H2231 0.950 . S
C2258 C2244 1.377 . S
C2258 C2257 1.373 . S
C2259 C2243 1.377 . S
C2259 C2257 1.389 . S
C2259 C2260 1.524 . S
C2260 C2259 1.524 . S
C2260 C2261 1.397 1_556 S
C2260 C2265 1.363 . S
C2261 H2232 0.950 . S
C2261 C2260 1.397 1_554 S
C2261 C2262 1.334 . S
C2262 H2233 0.950 . S
C2262 C2261 1.334 . S
C2262 C2263 1.287 . S
C2263 C2262 1.287 . S
C2263 C2264 1.524 . S
C2263 H2266 0.999 . S
C2264 H2234 0.950 . S
C2264 C2263 1.524 . S
C2264 C2265 1.415 1_554 S
C2265 H2235 0.950 . S
C2265 C2260 1.363 . S
C2265 C2264 1.415 1_556 S
H2266 C2263 0.999 . S
H2267 C2248 0.913 . S
H2268 C2286 0.951 . S
H2269 C2288 0.951 . S
H2270 C2290 0.950 . S
H2271 C2291 0.950 . S
H2272 C2293 0.950 . S
H2273 C2296 0.950 . S
H2274 C2297 0.950 . S
H2275 C2299 0.950 . S
H2276 C2300 0.950 . S
H2277 C2301 0.951 . S
H2278 C2303 0.951 . S
H2279 C2305 0.950 . S
H2280 C2306 0.950 . S
H2281 C2308 0.950 . S
H2282 C2311 0.950 . S
H2283 C2312 0.950 . S
H2284 C2314 0.950 . S
H2285 C2315 0.950 . S
C2286 H2268 0.951 . S
C2286 C2287 1.366 . S
C2286 C2288 1.388 . S
C2287 C2286 1.366 . S
C2287 C2291 1.385 . S
C2288 H2269 0.951 . S
C2288 C2286 1.388 . S
C2288 C2289 1.366 . S
C2289 C2288 1.366 . S
C2289 C2290 1.414 . S
C2289 C2292 1.499 . S
C2290 H2270 0.950 . S
C2290 C2289 1.414 . S
C2290 C2291 1.374 . S
C2291 H2271 0.950 . S
C2291 C2287 1.385 . S
C2291 C2290 1.374 . S
C2292 C2289 1.499 . S
C2292 C2293 1.373 . S
C2292 C2294 1.389 . S
C2293 H2272 0.950 . S
C2293 C2292 1.373 . S
C2293 C2309 1.377 . S
C2294 C2292 1.389 . S
C2294 C2295 1.524 . S
C2294 C2308 1.377 . S
C2295 C2294 1.524 . S
C2295 C2296 1.397 . S
C2295 C2300 1.363 . S
C2296 H2273 0.950 . S
C2296 C2295 1.397 . S
C2296 C2297 1.334 . S
C2297 H2274 0.950 . S
C2297 C2296 1.334 . S
C2297 C2298 1.287 . S
C2298 C2297 1.287 . S
C2298 C2299 1.524 . S
C2298 H2317 0.913 . S
C2299 H2275 0.950 . S
C2299 C2298 1.524 . S
C2299 C2300 1.415 . S
C2300 H2276 0.950 . S
C2300 C2295 1.363 . S
C2300 C2299 1.415 . S
C2301 H2277 0.951 . S
C2301 C2302 1.366 . S
C2301 C2303 1.388 . S
C2302 C2301 1.366 . S
C2302 C2306 1.385 . S
C2303 H2278 0.951 . S
C2303 C2301 1.388 . S
C2303 C2304 1.366 . S
C2304 C2303 1.366 . S
C2304 C2305 1.414 . S
C2304 C2307 1.499 . S
C2305 H2279 0.950 . S
C2305 C2304 1.414 . S
C2305 C2306 1.374 . S
C2306 H2280 0.950 . S
C2306 C2302 1.385 . S
C2306 C2305 1.374 . S
C2307 C2304 1.499 . S
C2307 C2308 1.373 . S
C2307 C2309 1.389 . S
C2308 H2281 0.950 . S
C2308 C2294 1.377 . S
C2308 C2307 1.373 . S
C2309 C2293 1.377 . S
C2309 C2307 1.389 . S
C2309 C2310 1.524 . S
C2310 C2309 1.524 . S
C2310 C2311 1.397 . S
C2310 C2315 1.363 . S
C2311 H2282 0.950 . S
C2311 C2310 1.397 . S
C2311 C2312 1.334 . S
C2312 H2283 0.950 . S
C2312 C2311 1.334 . S
C2312 C2313 1.287 . S
C2313 C2312 1.287 . S
C2313 C2314 1.524 . S
C2313 H2316 0.999 . S
C2314 H2284 0.950 . S
C2314 C2313 1.524 . S
C2314 C2315 1.415 . S
C2315 H2285 0.950 . S
C2315 C2310 1.363 . S
C2315 C2314 1.415 . S
H2316 C2313 0.999 . S
H2317 C2298 0.913 . S
H2318 C2336 0.951 . S
H2319 C2338 0.951 . S
H2320 C2340 0.950 . S
H2321 C2341 0.950 . S
H2322 C2343 0.950 . S
H2323 C2346 0.950 . S
H2324 C2347 0.950 . S
H2325 C2349 0.950 . S
H2326 C2350 0.950 . S
H2327 C2351 0.951 . S
H2328 C2353 0.951 . S
H2329 C2355 0.950 . S
H2330 C2356 0.950 . S
H2331 C2358 0.950 . S
H2332 C2361 0.950 . S
H2333 C2362 0.950 . S
H2334 C2364 0.950 . S
H2335 C2365 0.950 . S
C2336 H2318 0.951 . S
C2336 C2337 1.366 . S
C2336 C2338 1.388 . S
C2337 C2336 1.366 . S
C2337 C2341 1.385 . S
C2338 H2319 0.951 . S
C2338 C2336 1.388 . S
C2338 C2339 1.366 . S
C2339 C2338 1.366 . S
C2339 C2340 1.414 . S
C2339 C2342 1.499 . S
C2340 H2320 0.950 . S
C2340 C2339 1.414 . S
C2340 C2341 1.374 . S
C2341 H2321 0.950 . S
C2341 C2337 1.385 . S
C2341 C2340 1.374 . S
C2342 C2339 1.499 . S
C2342 C2343 1.373 . S
C2342 C2344 1.389 . S
C2343 H2322 0.950 . S
C2343 C2342 1.373 . S
C2343 C2359 1.377 . S
C2344 C2342 1.389 . S
C2344 C2345 1.524 . S
C2344 C2358 1.377 . S
C2345 C2344 1.524 . S
C2345 C2346 1.397 . S
C2345 C2350 1.363 . S
C2346 H2323 0.950 . S
C2346 C2345 1.397 . S
C2346 C2347 1.334 . S
C2347 H2324 0.950 . S
C2347 C2346 1.334 . S
C2347 C2348 1.287 . S
C2348 C2347 1.287 . S
C2348 C2349 1.524 . S
C2348 H2367 0.913 . S
C2349 H2325 0.950 . S
C2349 C2348 1.524 . S
C2349 C2350 1.415 . S
C2350 H2326 0.950 . S
C2350 C2345 1.363 . S
C2350 C2349 1.415 . S
C2351 H2327 0.951 . S
C2351 C2352 1.366 . S
C2351 C2353 1.388 . S
C2352 C2351 1.366 . S
C2352 C2356 1.385 . S
C2353 H2328 0.951 . S
C2353 C2351 1.388 . S
C2353 C2354 1.366 . S
C2354 C2353 1.366 . S
C2354 C2355 1.414 . S
C2354 C2357 1.499 . S
C2355 H2329 0.950 . S
C2355 C2354 1.414 . S
C2355 C2356 1.374 . S
C2356 H2330 0.950 . S
C2356 C2352 1.385 . S
C2356 C2355 1.374 . S
C2357 C2354 1.499 . S
C2357 C2358 1.373 . S
C2357 C2359 1.389 . S
C2358 H2331 0.950 . S
C2358 C2344 1.377 . S
C2358 C2357 1.373 . S
C2359 C2343 1.377 . S
C2359 C2357 1.389 . S
C2359 C2360 1.524 . S
C2360 C2359 1.524 . S
C2360 C2361 1.397 . S
C2360 C2365 1.363 . S
C2361 H2332 0.950 . S
C2361 C2360 1.397 . S
C2361 C2362 1.334 . S
C2362 H2333 0.950 . S
C2362 C2361 1.334 . S
C2362 C2363 1.287 . S
C2363 C2362 1.287 . S
C2363 C2364 1.524 . S
C2363 H2366 0.999 . S
C2364 H2334 0.950 . S
C2364 C2363 1.524 . S
C2364 C2365 1.415 . S
C2365 H2335 0.950 . S
C2365 C2360 1.363 . S
C2365 C2364 1.415 . S
H2366 C2363 0.999 . S
H2367 C2348 0.913 . S
H2368 C2386 0.951 . S
H2369 C2388 0.951 . S
H2370 C2390 0.950 . S
H2371 C2391 0.950 . S
H2372 C2393 0.950 . S
H2373 C2396 0.950 . S
H2374 C2397 0.950 . S
H2375 C2399 0.950 . S
H2376 C2400 0.950 . S
H2377 C2401 0.951 . S
H2378 C2403 0.951 . S
H2379 C2405 0.950 . S
H2380 C2406 0.950 . S
H2381 C2408 0.950 . S
H2382 C2411 0.950 . S
H2383 C2412 0.950 . S
H2384 C2414 0.950 . S
H2385 C2415 0.950 . S
C2386 H2368 0.951 . S
C2386 C2387 1.366 . S
C2386 C2388 1.388 . S
C2387 C2386 1.366 . S
C2387 C2391 1.385 . S
C2388 H2369 0.951 . S
C2388 C2386 1.388 . S
C2388 C2389 1.366 . S
C2389 C2388 1.366 . S
C2389 C2390 1.414 . S
C2389 C2392 1.499 . S
C2390 H2370 0.950 . S
C2390 C2389 1.414 . S
C2390 C2391 1.374 . S
C2391 H2371 0.950 . S
C2391 C2387 1.385 . S
C2391 C2390 1.374 . S
C2392 C2389 1.499 . S
C2392 C2393 1.373 . S
C2392 C2394 1.389 . S
C2393 H2372 0.950 . S
C2393 C2392 1.373 . S
C2393 C2409 1.377 . S
C2394 C2392 1.389 . S
C2394 C2395 1.524 . S
C2394 C2408 1.377 . S
C2395 C2394 1.524 . S
C2395 C2396 1.397 . S
C2395 C2400 1.363 . S
C2396 H2373 0.950 . S
C2396 C2395 1.397 . S
C2396 C2397 1.334 . S
C2397 H2374 0.950 . S
C2397 C2396 1.334 . S
C2397 C2398 1.287 . S
C2398 C2397 1.287 . S
C2398 C2399 1.524 . S
C2398 H2417 0.913 . S
C2399 H2375 0.950 . S
C2399 C2398 1.524 . S
C2399 C2400 1.415 . S
C2400 H2376 0.950 . S
C2400 C2395 1.363 . S
C2400 C2399 1.415 . S
C2401 H2377 0.951 . S
C2401 C2402 1.366 . S
C2401 C2403 1.388 . S
C2402 C2401 1.366 . S
C2402 C2406 1.385 . S
C2403 H2378 0.951 . S
C2403 C2401 1.388 . S
C2403 C2404 1.366 . S
C2404 C2403 1.366 . S
C2404 C2405 1.414 . S
C2404 C2407 1.499 . S
C2405 H2379 0.950 . S
C2405 C2404 1.414 . S
C2405 C2406 1.374 . S
C2406 H2380 0.950 . S
C2406 C2402 1.385 . S
C2406 C2405 1.374 . S
C2407 C2404 1.499 . S
C2407 C2408 1.373 . S
C2407 C2409 1.389 . S
C2408 H2381 0.950 . S
C2408 C2394 1.377 . S
C2408 C2407 1.373 . S
C2409 C2393 1.377 . S
C2409 C2407 1.389 . S
C2409 C2410 1.524 . S
C2410 C2409 1.524 . S
C2410 C2411 1.397 . S
C2410 C2415 1.363 . S
C2411 H2382 0.950 . S
C2411 C2410 1.397 . S
C2411 C2412 1.334 . S
C2412 H2383 0.950 . S
C2412 C2411 1.334 . S
C2412 C2413 1.287 . S
C2413 C2412 1.287 . S
C2413 C2414 1.524 . S
C2413 H2416 0.999 . S
C2414 H2384 0.950 . S
C2414 C2413 1.524 . S
C2414 C2415 1.415 . S
C2415 H2385 0.950 . S
C2415 C2410 1.363 . S
C2415 C2414 1.415 . S
H2416 C2413 0.999 . S
H2417 C2398 0.913 . S
H2418 C2436 0.951 . S
H2419 C2438 0.951 . S
H2420 C2440 0.950 . S
H2421 C2441 0.950 . S
H2422 C2443 0.950 . S
H2423 C2446 0.950 . S
H2424 C2447 0.950 . S
H2425 C2449 0.950 . S
H2426 C2450 0.950 . S
H2427 C2451 0.951 . S
H2428 C2453 0.951 . S
H2429 C2455 0.950 . S
H2430 C2456 0.950 . S
H2431 C2458 0.950 . S
H2432 C2461 0.950 . S
H2433 C2462 0.950 . S
H2434 C2464 0.950 . S
H2435 C2465 0.950 . S
C2436 H2418 0.951 . S
C2436 C2437 1.366 . S
C2436 C2438 1.388 . S
C2437 C2436 1.366 . S
C2437 C2441 1.385 . S
C2438 H2419 0.951 . S
C2438 C2436 1.388 . S
C2438 C2439 1.366 . S
C2439 C2438 1.366 . S
C2439 C2440 1.414 . S
C2439 C2442 1.499 . S
C2440 H2420 0.950 . S
C2440 C2439 1.414 . S
C2440 C2441 1.374 . S
C2441 H2421 0.950 . S
C2441 C2437 1.385 . S
C2441 C2440 1.374 . S
C2442 C2439 1.499 . S
C2442 C2443 1.373 . S
C2442 C2444 1.389 . S
C2443 H2422 0.950 . S
C2443 C2442 1.373 . S
C2443 C2459 1.377 . S
C2444 C2442 1.389 . S
C2444 C2445 1.524 . S
C2444 C2458 1.377 . S
C2445 C2444 1.524 . S
C2445 C2446 1.397 . S
C2445 C2450 1.363 . S
C2446 H2423 0.950 . S
C2446 C2445 1.397 . S
C2446 C2447 1.334 . S
C2447 H2424 0.950 . S
C2447 C2446 1.334 . S
C2447 C2448 1.287 . S
C2448 C2447 1.287 . S
C2448 C2449 1.524 . S
C2448 H2467 0.913 . S
C2449 H2425 0.950 . S
C2449 C2448 1.524 . S
C2449 C2450 1.415 . S
C2450 H2426 0.950 . S
C2450 C2445 1.363 . S
C2450 C2449 1.415 . S
C2451 H2427 0.951 . S
C2451 C2452 1.366 . S
C2451 C2453 1.388 . S
C2452 C2451 1.366 . S
C2452 C2456 1.385 . S
C2453 H2428 0.951 . S
C2453 C2451 1.388 . S
C2453 C2454 1.366 . S
C2454 C2453 1.366 . S
C2454 C2455 1.414 . S
C2454 C2457 1.499 . S
C2455 H2429 0.950 . S
C2455 C2454 1.414 . S
C2455 C2456 1.374 . S
C2456 H2430 0.950 . S
C2456 C2452 1.385 . S
C2456 C2455 1.374 . S
C2457 C2454 1.499 . S
C2457 C2458 1.373 . S
C2457 C2459 1.389 . S
C2458 H2431 0.950 . S
C2458 C2444 1.377 . S
C2458 C2457 1.373 . S
C2459 C2443 1.377 . S
C2459 C2457 1.389 . S
C2459 C2460 1.524 . S
C2460 C2459 1.524 . S
C2460 C2461 1.397 . S
C2460 C2465 1.363 . S
C2461 H2432 0.950 . S
C2461 C2460 1.397 . S
C2461 C2462 1.334 . S
C2462 H2433 0.950 . S
C2462 C2461 1.334 . S
C2462 C2463 1.287 . S
C2463 C2462 1.287 . S
C2463 C2464 1.524 . S
C2463 H2466 0.999 . S
C2464 H2434 0.950 . S
C2464 C2463 1.524 . S
C2464 C2465 1.415 . S
C2465 H2435 0.950 . S
C2465 C2460 1.363 . S
C2465 C2464 1.415 . S
H2466 C2463 0.999 . S
H2467 C2448 0.913 . S
H2468 C2486 0.951 . S
H2469 C2488 0.951 . S
H2470 C2490 0.950 . S
H2471 C2491 0.950 . S
H2472 C2493 0.950 . S
H2473 C2496 0.950 . S
H2474 C2497 0.950 . S
H2475 C2499 0.950 . S
H2476 C2500 0.950 . S
H2477 C2501 0.951 . S
H2478 C2503 0.951 . S
H2479 C2505 0.950 . S
H2480 C2506 0.950 . S
H2481 C2508 0.950 . S
H2482 C2511 0.950 . S
H2483 C2512 0.950 . S
H2484 C2514 0.950 . S
H2485 C2515 0.950 . S
C2486 H2468 0.951 . S
C2486 C2487 1.366 . S
C2486 C2488 1.388 . S
C2487 C2486 1.366 . S
C2487 C2491 1.385 . S
C2488 H2469 0.951 . S
C2488 C2486 1.388 . S
C2488 C2489 1.366 . S
C2489 C2488 1.366 . S
C2489 C2490 1.414 . S
C2489 C2492 1.499 . S
C2490 H2470 0.950 . S
C2490 C2489 1.414 . S
C2490 C2491 1.374 . S
C2491 H2471 0.950 . S
C2491 C2487 1.385 . S
C2491 C2490 1.374 . S
C2492 C2489 1.499 . S
C2492 C2493 1.373 . S
C2492 C2494 1.389 . S
C2493 H2472 0.950 . S
C2493 C2492 1.373 . S
C2493 C2509 1.377 . S
C2494 C2492 1.389 . S
C2494 C2495 1.524 . S
C2494 C2508 1.377 . S
C2495 C2494 1.524 . S
C2495 C2496 1.397 . S
C2495 C2500 1.363 . S
C2496 H2473 0.950 . S
C2496 C2495 1.397 . S
C2496 C2497 1.334 . S
C2497 H2474 0.950 . S
C2497 C2496 1.334 . S
C2497 C2498 1.287 . S
C2498 C2497 1.287 . S
C2498 C2499 1.524 . S
C2498 H2517 0.913 . S
C2499 H2475 0.950 . S
C2499 C2498 1.524 . S
C2499 C2500 1.415 . S
C2500 H2476 0.950 . S
C2500 C2495 1.363 . S
C2500 C2499 1.415 . S
C2501 H2477 0.951 . S
C2501 C2502 1.366 . S
C2501 C2503 1.388 . S
C2502 C2501 1.366 . S
C2502 C2506 1.385 . S
C2503 H2478 0.951 . S
C2503 C2501 1.388 . S
C2503 C2504 1.366 . S
C2504 C2503 1.366 . S
C2504 C2505 1.414 . S
C2504 C2507 1.499 . S
C2505 H2479 0.950 . S
C2505 C2504 1.414 . S
C2505 C2506 1.374 . S
C2506 H2480 0.950 . S
C2506 C2502 1.385 . S
C2506 C2505 1.374 . S
C2507 C2504 1.499 . S
C2507 C2508 1.373 . S
C2507 C2509 1.389 . S
C2508 H2481 0.950 . S
C2508 C2494 1.377 . S
C2508 C2507 1.373 . S
C2509 C2493 1.377 . S
C2509 C2507 1.389 . S
C2509 C2510 1.524 . S
C2510 C2509 1.524 . S
C2510 C2511 1.397 . S
C2510 C2515 1.363 . S
C2511 H2482 0.950 . S
C2511 C2510 1.397 . S
C2511 C2512 1.334 . S
C2512 H2483 0.950 . S
C2512 C2511 1.334 . S
C2512 C2513 1.287 . S
C2513 C2512 1.287 . S
C2513 C2514 1.524 . S
C2513 H2516 0.999 . S
C2514 H2484 0.950 . S
C2514 C2513 1.524 . S
C2514 C2515 1.415 . S
C2515 H2485 0.950 . S
C2515 C2510 1.363 . S
C2515 C2514 1.415 . S
H2516 C2513 0.999 . S
H2517 C2498 0.913 . S
H2518 C2536 0.951 . S
H2519 C2538 0.951 . S
H2520 C2540 0.950 . S
H2521 C2541 0.950 . S
H2522 C2543 0.950 . S
H2523 C2546 0.950 . S
H2524 C2547 0.950 . S
H2525 C2549 0.950 . S
H2526 C2550 0.950 . S
H2527 C2551 0.951 . S
H2528 C2553 0.951 . S
H2529 C2555 0.950 . S
H2530 C2556 0.950 . S
H2531 C2558 0.950 . S
H2532 C2561 0.950 . S
H2533 C2562 0.950 . S
H2534 C2564 0.950 . S
H2535 C2565 0.950 . S
C2536 H2518 0.951 . S
C2536 C2537 1.366 . S
C2536 C2538 1.388 . S
C2537 C2536 1.366 . S
C2537 C2541 1.385 . S
C2538 H2519 0.951 . S
C2538 C2536 1.388 . S
C2538 C2539 1.366 . S
C2539 C2538 1.366 . S
C2539 C2540 1.414 . S
C2539 C2542 1.499 . S
C2540 H2520 0.950 . S
C2540 C2539 1.414 . S
C2540 C2541 1.374 . S
C2541 H2521 0.950 . S
C2541 C2537 1.385 . S
C2541 C2540 1.374 . S
C2542 C2539 1.499 . S
C2542 C2543 1.373 . S
C2542 C2544 1.389 . S
C2543 H2522 0.950 . S
C2543 C2542 1.373 . S
C2543 C2559 1.377 . S
C2544 C2542 1.389 . S
C2544 C2545 1.524 . S
C2544 C2558 1.377 . S
C2545 C2544 1.524 . S
C2545 C2546 1.397 . S
C2545 C2550 1.363 . S
C2546 H2523 0.950 . S
C2546 C2545 1.397 . S
C2546 C2547 1.334 . S
C2547 H2524 0.950 . S
C2547 C2546 1.334 . S
C2547 C2548 1.287 . S
C2548 C2547 1.287 . S
C2548 C2549 1.524 . S
C2548 H2567 0.913 . S
C2549 H2525 0.950 . S
C2549 C2548 1.524 . S
C2549 C2550 1.415 . S
C2550 H2526 0.950 . S
C2550 C2545 1.363 . S
C2550 C2549 1.415 . S
C2551 H2527 0.951 . S
C2551 C2552 1.366 . S
C2551 C2553 1.388 . S
C2552 C2551 1.366 . S
C2552 C2556 1.385 . S
C2553 H2528 0.951 . S
C2553 C2551 1.388 . S
C2553 C2554 1.366 . S
C2554 C2553 1.366 . S
C2554 C2555 1.414 . S
C2554 C2557 1.499 . S
C2555 H2529 0.950 . S
C2555 C2554 1.414 . S
C2555 C2556 1.374 . S
C2556 H2530 0.950 . S
C2556 C2552 1.385 . S
C2556 C2555 1.374 . S
C2557 C2554 1.499 . S
C2557 C2558 1.373 . S
C2557 C2559 1.389 . S
C2558 H2531 0.950 . S
C2558 C2544 1.377 . S
C2558 C2557 1.373 . S
C2559 C2543 1.377 . S
C2559 C2557 1.389 . S
C2559 C2560 1.524 . S
C2560 C2559 1.524 . S
C2560 C2561 1.397 . S
C2560 C2565 1.363 . S
C2561 H2532 0.950 . S
C2561 C2560 1.397 . S
C2561 C2562 1.334 . S
C2562 H2533 0.950 . S
C2562 C2561 1.334 . S
C2562 C2563 1.287 . S
C2563 C2562 1.287 . S
C2563 C2564 1.524 . S
C2563 H2566 0.999 . S
C2564 H2534 0.950 . S
C2564 C2563 1.524 . S
C2564 C2565 1.415 . S
C2565 H2535 0.950 . S
C2565 C2560 1.363 . S
C2565 C2564 1.415 . S
H2566 C2563 0.999 . S
H2567 C2548 0.913 . S
H2568 C2586 0.951 . S
H2569 C2588 0.951 . S
H2570 C2590 0.950 . S
H2571 C2591 0.950 . S
H2572 C2593 0.950 . S
H2573 C2596 0.950 . S
H2574 C2597 0.950 . S
H2575 C2599 0.950 . S
H2576 C2600 0.950 . S
H2577 C2601 0.951 . S
H2578 C2603 0.951 . S
H2579 C2605 0.950 . S
H2580 C2606 0.950 . S
H2581 C2608 0.950 . S
H2582 C2611 0.950 . S
H2583 C2612 0.950 . S
H2584 C2614 0.950 . S
H2585 C2615 0.950 . S
C2586 H2568 0.951 . S
C2586 C2587 1.366 . S
C2586 C2588 1.388 . S
C2587 C2586 1.366 . S
C2587 C2591 1.385 . S
C2588 H2569 0.951 . S
C2588 C2586 1.388 . S
C2588 C2589 1.366 . S
C2589 C2588 1.366 . S
C2589 C2590 1.414 . S
C2589 C2592 1.499 . S
C2590 H2570 0.950 . S
C2590 C2589 1.414 . S
C2590 C2591 1.374 . S
C2591 H2571 0.950 . S
C2591 C2587 1.385 . S
C2591 C2590 1.374 . S
C2592 C2589 1.499 . S
C2592 C2593 1.373 . S
C2592 C2594 1.389 . S
C2593 H2572 0.950 . S
C2593 C2592 1.373 . S
C2593 C2609 1.377 . S
C2594 C2592 1.389 . S
C2594 C2595 1.524 . S
C2594 C2608 1.377 . S
C2595 C2594 1.524 . S
C2595 C2596 1.397 . S
C2595 C2600 1.363 . S
C2596 H2573 0.950 . S
C2596 C2595 1.397 . S
C2596 C2597 1.334 . S
C2597 H2574 0.950 . S
C2597 C2596 1.334 . S
C2597 C2598 1.287 . S
C2598 C2597 1.287 . S
C2598 C2599 1.524 . S
C2598 H2617 0.913 . S
C2599 H2575 0.950 . S
C2599 C2598 1.524 . S
C2599 C2600 1.415 . S
C2600 H2576 0.950 . S
C2600 C2595 1.363 . S
C2600 C2599 1.415 . S
C2601 H2577 0.951 . S
C2601 C2602 1.366 . S
C2601 C2603 1.388 . S
C2602 C2601 1.366 . S
C2602 C2606 1.385 . S
C2603 H2578 0.951 . S
C2603 C2601 1.388 . S
C2603 C2604 1.366 . S
C2604 C2603 1.366 . S
C2604 C2605 1.414 . S
C2604 C2607 1.499 . S
C2605 H2579 0.950 . S
C2605 C2604 1.414 . S
C2605 C2606 1.374 . S
C2606 H2580 0.950 . S
C2606 C2602 1.385 . S
C2606 C2605 1.374 . S
C2607 C2604 1.499 . S
C2607 C2608 1.373 . S
C2607 C2609 1.389 . S
C2608 H2581 0.950 . S
C2608 C2594 1.377 . S
C2608 C2607 1.373 . S
C2609 C2593 1.377 . S
C2609 C2607 1.389 . S
C2609 C2610 1.524 . S
C2610 C2609 1.524 . S
C2610 C2611 1.397 . S
C2610 C2615 1.363 . S
C2611 H2582 0.950 . S
C2611 C2610 1.397 . S
C2611 C2612 1.334 . S
C2612 H2583 0.950 . S
C2612 C2611 1.334 . S
C2612 C2613 1.287 . S
C2613 C2612 1.287 . S
C2613 C2614 1.524 . S
C2613 H2616 0.999 . S
C2614 H2584 0.950 . S
C2614 C2613 1.524 . S
C2614 C2615 1.415 . S
C2615 H2585 0.950 . S
C2615 C2610 1.363 . S
C2615 C2614 1.415 . S
H2616 C2613 0.999 . S
H2617 C2598 0.913 . S
H2618 C2636 0.951 . S
H2619 C2638 0.951 . S
H2620 C2640 0.950 . S
H2621 C2641 0.950 . S
H2622 C2643 0.950 . S
H2623 C2646 0.950 . S
H2624 C2647 0.950 . S
H2625 C2649 0.950 . S
H2626 C2650 0.950 . S
H2627 C2651 0.951 . S
H2628 C2653 0.951 . S
H2629 C2655 0.950 . S
H2630 C2656 0.950 . S
H2631 C2658 0.950 . S
H2632 C2661 0.950 . S
H2633 C2662 0.950 . S
H2634 C2664 0.950 . S
H2635 C2665 0.950 . S
C2636 H2618 0.951 . S
C2636 C2637 1.366 . S
C2636 C2638 1.388 . S
C2637 C2636 1.366 . S
C2637 C2641 1.385 . S
C2638 H2619 0.951 . S
C2638 C2636 1.388 . S
C2638 C2639 1.366 . S
C2639 C2638 1.366 . S
C2639 C2640 1.414 . S
C2639 C2642 1.499 . S
C2640 H2620 0.950 . S
C2640 C2639 1.414 . S
C2640 C2641 1.374 . S
C2641 H2621 0.950 . S
C2641 C2637 1.385 . S
C2641 C2640 1.374 . S
C2642 C2639 1.499 . S
C2642 C2643 1.373 . S
C2642 C2644 1.389 . S
C2643 H2622 0.950 . S
C2643 C2642 1.373 . S
C2643 C2659 1.377 . S
C2644 C2642 1.389 . S
C2644 C2645 1.524 . S
C2644 C2658 1.377 . S
C2645 C2644 1.524 . S
C2645 C2646 1.397 . S
C2645 C2650 1.363 . S
C2646 H2623 0.950 . S
C2646 C2645 1.397 . S
C2646 C2647 1.334 . S
C2647 H2624 0.950 . S
C2647 C2646 1.334 . S
C2647 C2648 1.287 . S
C2648 C2647 1.287 . S
C2648 C2649 1.524 . S
C2648 H2667 0.913 . S
C2649 H2625 0.950 . S
C2649 C2648 1.524 . S
C2649 C2650 1.415 . S
C2650 H2626 0.950 . S
C2650 C2645 1.363 . S
C2650 C2649 1.415 . S
C2651 H2627 0.951 . S
C2651 C2652 1.366 . S
C2651 C2653 1.388 . S
C2652 C2651 1.366 . S
C2652 C2656 1.385 . S
C2653 H2628 0.951 . S
C2653 C2651 1.388 . S
C2653 C2654 1.366 . S
C2654 C2653 1.366 . S
C2654 C2655 1.414 . S
C2654 C2657 1.499 . S
C2655 H2629 0.950 . S
C2655 C2654 1.414 . S
C2655 C2656 1.374 . S
C2656 H2630 0.950 . S
C2656 C2652 1.385 . S
C2656 C2655 1.374 . S
C2657 C2654 1.499 . S
C2657 C2658 1.373 . S
C2657 C2659 1.389 . S
C2658 H2631 0.950 . S
C2658 C2644 1.377 . S
C2658 C2657 1.373 . S
C2659 C2643 1.377 . S
C2659 C2657 1.389 . S
C2659 C2660 1.524 . S
C2660 C2659 1.524 . S
C2660 C2661 1.397 . S
C2660 C2665 1.363 . S
C2661 H2632 0.950 . S
C2661 C2660 1.397 . S
C2661 C2662 1.334 . S
C2662 H2633 0.950 . S
C2662 C2661 1.334 . S
C2662 C2663 1.287 . S
C2663 C2662 1.287 . S
C2663 C2664 1.524 . S
C2663 H2666 0.999 . S
C2664 H2634 0.950 . S
C2664 C2663 1.524 . S
C2664 C2665 1.415 . S
C2665 H2635 0.950 . S
C2665 C2660 1.363 . S
C2665 C2664 1.415 . S
H2666 C2663 0.999 . S
H2667 C2648 0.913 . S
H2668 C2686 0.951 . S
H2669 C2688 0.951 . S
H2670 C2690 0.950 . S
H2671 C2691 0.950 . S
H2672 C2693 0.950 . S
H2673 C2696 0.950 . S
H2674 C2697 0.950 . S
H2675 C2699 0.950 . S
H2676 C2700 0.950 . S
H2677 C2701 0.951 . S
H2678 C2703 0.951 . S
H2679 C2705 0.950 . S
H2680 C2706 0.950 . S
H2681 C2708 0.950 . S
H2682 C2711 0.950 . S
H2683 C2712 0.950 . S
H2684 C2714 0.950 . S
H2685 C2715 0.950 . S
C2686 H2668 0.951 . S
C2686 C2687 1.366 . S
C2686 C2688 1.388 . S
C2687 C2686 1.366 . S
C2687 C2691 1.385 . S
C2688 H2669 0.951 . S
C2688 C2686 1.388 . S
C2688 C2689 1.366 . S
C2689 C2688 1.366 . S
C2689 C2690 1.414 . S
C2689 C2692 1.499 . S
C2690 H2670 0.950 . S
C2690 C2689 1.414 . S
C2690 C2691 1.374 . S
C2691 H2671 0.950 . S
C2691 C2687 1.385 . S
C2691 C2690 1.374 . S
C2692 C2689 1.499 . S
C2692 C2693 1.373 . S
C2692 C2694 1.389 . S
C2693 H2672 0.950 . S
C2693 C2692 1.373 . S
C2693 C2709 1.377 . S
C2694 C2692 1.389 . S
C2694 C2695 1.524 . S
C2694 C2708 1.377 . S
C2695 C2694 1.524 . S
C2695 C2696 1.397 . S
C2695 C2700 1.363 . S
C2696 H2673 0.950 . S
C2696 C2695 1.397 . S
C2696 C2697 1.334 . S
C2697 H2674 0.950 . S
C2697 C2696 1.334 . S
C2697 C2698 1.287 . S
C2698 C2697 1.287 . S
C2698 C2699 1.524 . S
C2698 H2717 0.913 . S
C2699 H2675 0.950 . S
C2699 C2698 1.524 . S
C2699 C2700 1.415 . S
C2700 H2676 0.950 . S
C2700 C2695 1.363 . S
C2700 C2699 1.415 . S
C2701 H2677 0.951 . S
C2701 C2702 1.366 . S
C2701 C2703 1.388 . S
C2702 C2701 1.366 . S
C2702 C2706 1.385 . S
C2703 H2678 0.951 . S
C2703 C2701 1.388 . S
C2703 C2704 1.366 . S
C2704 C2703 1.366 . S
C2704 C2705 1.414 . S
C2704 C2707 1.499 . S
C2705 H2679 0.950 . S
C2705 C2704 1.414 . S
C2705 C2706 1.374 . S
C2706 H2680 0.950 . S
C2706 C2702 1.385 . S
C2706 C2705 1.374 . S
C2707 C2704 1.499 . S
C2707 C2708 1.373 . S
C2707 C2709 1.389 . S
C2708 H2681 0.950 . S
C2708 C2694 1.377 . S
C2708 C2707 1.373 . S
C2709 C2693 1.377 . S
C2709 C2707 1.389 . S
C2709 C2710 1.524 . S
C2710 C2709 1.524 . S
C2710 C2711 1.397 . S
C2710 C2715 1.363 . S
C2711 H2682 0.950 . S
C2711 C2710 1.397 . S
C2711 C2712 1.334 . S
C2712 H2683 0.950 . S
C2712 C2711 1.334 . S
C2712 C2713 1.287 . S
C2713 C2712 1.287 . S
C2713 C2714 1.524 . S
C2713 H2716 0.999 . S
C2714 H2684 0.950 . S
C2714 C2713 1.524 . S
C2714 C2715 1.415 . S
C2715 H2685 0.950 . S
C2715 C2710 1.363 . S
C2715 C2714 1.415 . S
H2716 C2713 0.999 . S
H2717 C2698 0.913 . S
H2718 C2736 0.951 . S
H2719 C2738 0.951 . S
H2720 C2740 0.950 . S
H2721 C2741 0.950 . S
H2722 C2743 0.950 . S
H2723 C2746 0.950 . S
H2724 C2747 0.950 . S
H2725 C2749 0.950 . S
H2726 C2750 0.950 . S
H2727 C2751 0.951 . S
H2728 C2753 0.951 . S
H2729 C2755 0.950 . S
H2730 C2756 0.950 . S
H2731 C2758 0.950 . S
H2732 C2761 0.950 . S
H2733 C2762 0.950 . S
H2734 C2764 0.950 . S
H2735 C2765 0.950 . S
C2736 H2718 0.951 . S
C2736 C2737 1.366 . S
C2736 C2738 1.388 . S
C2737 C2736 1.366 . S
C2737 C2741 1.385 . S
C2738 H2719 0.951 . S
C2738 C2736 1.388 . S
C2738 C2739 1.366 . S
C2739 C2738 1.366 . S
C2739 C2740 1.414 . S
C2739 C2742 1.499 . S
C2740 H2720 0.950 . S
C2740 C2739 1.414 . S
C2740 C2741 1.374 . S
C2741 H2721 0.950 . S
C2741 C2737 1.385 . S
C2741 C2740 1.374 . S
C2742 C2739 1.499 . S
C2742 C2743 1.373 . S
C2742 C2744 1.389 . S
C2743 H2722 0.950 . S
C2743 C2742 1.373 . S
C2743 C2759 1.377 . S
C2744 C2742 1.389 . S
C2744 C2745 1.524 . S
C2744 C2758 1.377 . S
C2745 C2744 1.524 . S
C2745 C2746 1.397 . S
C2745 C2750 1.363 . S
C2746 H2723 0.950 . S
C2746 C2745 1.397 . S
C2746 C2747 1.334 . S
C2747 H2724 0.950 . S
C2747 C2746 1.334 . S
C2747 C2748 1.287 . S
C2748 C2747 1.287 . S
C2748 C2749 1.524 . S
C2748 H2767 0.913 . S
C2749 H2725 0.950 . S
C2749 C2748 1.524 . S
C2749 C2750 1.415 . S
C2750 H2726 0.950 . S
C2750 C2745 1.363 . S
C2750 C2749 1.415 . S
C2751 H2727 0.951 . S
C2751 C2752 1.366 . S
C2751 C2753 1.388 . S
C2752 C2751 1.366 . S
C2752 C2756 1.385 . S
C2753 H2728 0.951 . S
C2753 C2751 1.388 . S
C2753 C2754 1.366 . S
C2754 C2753 1.366 . S
C2754 C2755 1.414 . S
C2754 C2757 1.499 . S
C2755 H2729 0.950 . S
C2755 C2754 1.414 . S
C2755 C2756 1.374 . S
C2756 H2730 0.950 . S
C2756 C2752 1.385 . S
C2756 C2755 1.374 . S
C2757 C2754 1.499 . S
C2757 C2758 1.373 . S
C2757 C2759 1.389 . S
C2758 H2731 0.950 . S
C2758 C2744 1.377 . S
C2758 C2757 1.373 . S
C2759 C2743 1.377 . S
C2759 C2757 1.389 . S
C2759 C2760 1.524 . S
C2760 C2759 1.524 . S
C2760 C2761 1.397 . S
C2760 C2765 1.363 . S
C2761 H2732 0.950 . S
C2761 C2760 1.397 . S
C2761 C2762 1.334 . S
C2762 H2733 0.950 . S
C2762 C2761 1.334 . S
C2762 C2763 1.287 . S
C2763 C2762 1.287 . S
C2763 C2764 1.524 . S
C2763 H2766 0.999 . S
C2764 H2734 0.950 . S
C2764 C2763 1.524 . S
C2764 C2765 1.415 . S
C2765 H2735 0.950 . S
C2765 C2760 1.363 . S
C2765 C2764 1.415 . S
H2766 C2763 0.999 . S
H2767 C2748 0.913 . S
H2768 C2786 0.951 . S
H2769 C2788 0.951 . S
H2770 C2790 0.950 . S
H2771 C2791 0.950 . S
H2772 C2793 0.950 . S
H2773 C2796 0.950 . S
H2774 C2797 0.950 . S
H2775 C2799 0.950 . S
H2776 C2800 0.950 . S
H2777 C2801 0.951 . S
H2778 C2803 0.951 . S
H2779 C2805 0.950 . S
H2780 C2806 0.950 . S
H2781 C2808 0.950 . S
H2782 C2811 0.950 . S
H2783 C2812 0.950 . S
H2784 C2814 0.950 . S
H2785 C2815 0.950 . S
C2786 H2768 0.951 . S
C2786 C2787 1.366 . S
C2786 C2788 1.388 . S
C2787 C2786 1.366 . S
C2787 C2791 1.385 . S
C2788 H2769 0.951 . S
C2788 C2786 1.388 . S
C2788 C2789 1.366 . S
C2789 C2788 1.366 . S
C2789 C2790 1.414 . S
C2789 C2792 1.499 . S
C2790 H2770 0.950 . S
C2790 C2789 1.414 . S
C2790 C2791 1.374 . S
C2791 H2771 0.950 . S
C2791 C2787 1.385 . S
C2791 C2790 1.374 . S
C2792 C2789 1.499 . S
C2792 C2793 1.373 . S
C2792 C2794 1.389 . S
C2793 H2772 0.950 . S
C2793 C2792 1.373 . S
C2793 C2809 1.377 . S
C2794 C2792 1.389 . S
C2794 C2795 1.524 . S
C2794 C2808 1.377 . S
C2795 C2794 1.524 . S
C2795 C2796 1.397 . S
C2795 C2800 1.363 . S
C2796 H2773 0.950 . S
C2796 C2795 1.397 . S
C2796 C2797 1.334 . S
C2797 H2774 0.950 . S
C2797 C2796 1.334 . S
C2797 C2798 1.287 . S
C2798 C2797 1.287 . S
C2798 C2799 1.524 . S
C2798 H2817 0.913 . S
C2799 H2775 0.950 . S
C2799 C2798 1.524 . S
C2799 C2800 1.415 . S
C2800 H2776 0.950 . S
C2800 C2795 1.363 . S
C2800 C2799 1.415 . S
C2801 H2777 0.951 . S
C2801 C2802 1.366 . S
C2801 C2803 1.388 . S
C2802 C2801 1.366 . S
C2802 C2806 1.385 . S
C2803 H2778 0.951 . S
C2803 C2801 1.388 . S
C2803 C2804 1.366 . S
C2804 C2803 1.366 . S
C2804 C2805 1.414 . S
C2804 C2807 1.499 . S
C2805 H2779 0.950 . S
C2805 C2804 1.414 . S
C2805 C2806 1.374 . S
C2806 H2780 0.950 . S
C2806 C2802 1.385 . S
C2806 C2805 1.374 . S
C2807 C2804 1.499 . S
C2807 C2808 1.373 . S
C2807 C2809 1.389 . S
C2808 H2781 0.950 . S
C2808 C2794 1.377 . S
C2808 C2807 1.373 . S
C2809 C2793 1.377 . S
C2809 C2807 1.389 . S
C2809 C2810 1.524 . S
C2810 C2809 1.524 . S
C2810 C2811 1.397 . S
C2810 C2815 1.363 . S
C2811 H2782 0.950 . S
C2811 C2810 1.397 . S
C2811 C2812 1.334 . S
C2812 H2783 0.950 . S
C2812 C2811 1.334 . S
C2812 C2813 1.287 . S
C2813 C2812 1.287 . S
C2813 C2814 1.524 . S
C2813 H2816 0.999 . S
C2814 H2784 0.950 . S
C2814 C2813 1.524 . S
C2814 C2815 1.415 . S
C2815 H2785 0.950 . S
C2815 C2810 1.363 . S
C2815 C2814 1.415 . S
H2816 C2813 0.999 . S
H2817 C2798 0.913 . S
H2818 C2836 0.951 . S
H2819 C2838 0.951 . S
H2820 C2840 0.950 . S
H2821 C2841 0.950 . S
H2822 C2843 0.950 . S
H2823 C2846 0.950 . S
H2824 C2847 0.950 . S
H2825 C2849 0.950 . S
H2826 C2850 0.950 . S
H2827 C2851 0.951 . S
H2828 C2853 0.951 . S
H2829 C2855 0.950 . S
H2830 C2856 0.950 . S
H2831 C2858 0.950 . S
H2832 C2861 0.950 . S
H2833 C2862 0.950 . S
H2834 C2864 0.950 . S
H2835 C2865 0.950 . S
C2836 H2818 0.951 . S
C2836 C2837 1.366 . S
C2836 C2838 1.388 . S
C2837 C2836 1.366 . S
C2837 C2841 1.385 . S
C2838 H2819 0.951 . S
C2838 C2836 1.388 . S
C2838 C2839 1.366 . S
C2839 C2838 1.366 . S
C2839 C2840 1.414 . S
C2839 C2842 1.499 . S
C2840 H2820 0.950 . S
C2840 C2839 1.414 . S
C2840 C2841 1.374 . S
C2841 H2821 0.950 . S
C2841 C2837 1.385 . S
C2841 C2840 1.374 . S
C2842 C2839 1.499 . S
C2842 C2843 1.373 . S
C2842 C2844 1.389 . S
C2843 H2822 0.950 . S
C2843 C2842 1.373 . S
C2843 C2859 1.377 . S
C2844 C2842 1.389 . S
C2844 C2845 1.524 . S
C2844 C2858 1.377 . S
C2845 C2844 1.524 . S
C2845 C2846 1.397 . S
C2845 C2850 1.363 . S
C2846 H2823 0.950 . S
C2846 C2845 1.397 . S
C2846 C2847 1.334 . S
C2847 H2824 0.950 . S
C2847 C2846 1.334 . S
C2847 C2848 1.287 . S
C2848 C2847 1.287 . S
C2848 C2849 1.524 . S
C2848 H2867 0.913 . S
C2849 H2825 0.950 . S
C2849 C2848 1.524 . S
C2849 C2850 1.415 . S
C2850 H2826 0.950 . S
C2850 C2845 1.363 . S
C2850 C2849 1.415 . S
C2851 H2827 0.951 . S
C2851 C2852 1.366 . S
C2851 C2853 1.388 . S
C2852 C2851 1.366 . S
C2852 C2856 1.385 . S
C2853 H2828 0.951 . S
C2853 C2851 1.388 . S
C2853 C2854 1.366 . S
C2854 C2853 1.366 . S
C2854 C2855 1.414 . S
C2854 C2857 1.499 . S
C2855 H2829 0.950 . S
C2855 C2854 1.414 . S
C2855 C2856 1.374 . S
C2856 H2830 0.950 . S
C2856 C2852 1.385 . S
C2856 C2855 1.374 . S
C2857 C2854 1.499 . S
C2857 C2858 1.373 . S
C2857 C2859 1.389 . S
C2858 H2831 0.950 . S
C2858 C2844 1.377 . S
C2858 C2857 1.373 . S
C2859 C2843 1.377 . S
C2859 C2857 1.389 . S
C2859 C2860 1.524 . S
C2860 C2859 1.524 . S
C2860 C2861 1.397 . S
C2860 C2865 1.363 . S
C2861 H2832 0.950 . S
C2861 C2860 1.397 . S
C2861 C2862 1.334 . S
C2862 H2833 0.950 . S
C2862 C2861 1.334 . S
C2862 C2863 1.287 . S
C2863 C2862 1.287 . S
C2863 C2864 1.524 . S
C2863 H2866 0.999 . S
C2864 H2834 0.950 . S
C2864 C2863 1.524 . S
C2864 C2865 1.415 . S
C2865 H2835 0.950 . S
C2865 C2860 1.363 . S
C2865 C2864 1.415 . S
H2866 C2863 0.999 . S
H2867 C2848 0.913 . S
H2868 C2886 0.951 . S
H2869 C2888 0.951 . S
H2870 C2890 0.950 . S
H2871 C2891 0.950 . S
H2872 C2893 0.950 . S
H2873 C2896 0.950 . S
H2874 C2897 0.950 . S
H2875 C2899 0.950 . S
H2876 C2900 0.950 . S
H2877 C2901 0.951 . S
H2878 C2903 0.951 . S
H2879 C2905 0.950 . S
H2880 C2906 0.950 . S
H2881 C2908 0.950 . S
H2882 C2911 0.950 . S
H2883 C2912 0.950 . S
H2884 C2914 0.950 . S
H2885 C2915 0.950 . S
C2886 H2868 0.951 . S
C2886 C2887 1.366 . S
C2886 C2888 1.388 . S
C2887 C2886 1.366 . S
C2887 C2891 1.385 . S
C2888 H2869 0.951 . S
C2888 C2886 1.388 . S
C2888 C2889 1.366 . S
C2889 C2888 1.366 . S
C2889 C2890 1.414 . S
C2889 C2892 1.499 . S
C2890 H2870 0.950 . S
C2890 C2889 1.414 . S
C2890 C2891 1.374 . S
C2891 H2871 0.950 . S
C2891 C2887 1.385 . S
C2891 C2890 1.374 . S
C2892 C2889 1.499 . S
C2892 C2893 1.373 . S
C2892 C2894 1.389 . S
C2893 H2872 0.950 . S
C2893 C2892 1.373 . S
C2893 C2909 1.377 . S
C2894 C2892 1.389 . S
C2894 C2895 1.524 . S
C2894 C2908 1.377 . S
C2895 C2894 1.524 . S
C2895 C2896 1.397 . S
C2895 C2900 1.363 . S
C2896 H2873 0.950 . S
C2896 C2895 1.397 . S
C2896 C2897 1.334 . S
C2897 H2874 0.950 . S
C2897 C2896 1.334 . S
C2897 C2898 1.287 . S
C2898 C2897 1.287 . S
C2898 C2899 1.524 . S
C2898 H2917 0.913 . S
C2899 H2875 0.950 . S
C2899 C2898 1.524 . S
C2899 C2900 1.415 . S
C2900 H2876 0.950 . S
C2900 C2895 1.363 . S
C2900 C2899 1.415 . S
C2901 H2877 0.951 . S
C2901 C2902 1.366 . S
C2901 C2903 1.388 . S
C2902 C2901 1.366 . S
C2902 C2906 1.385 . S
C2903 H2878 0.951 . S
C2903 C2901 1.388 . S
C2903 C2904 1.366 . S
C2904 C2903 1.366 . S
C2904 C2905 1.414 . S
C2904 C2907 1.499 . S
C2905 H2879 0.950 . S
C2905 C2904 1.414 . S
C2905 C2906 1.374 . S
C2906 H2880 0.950 . S
C2906 C2902 1.385 . S
C2906 C2905 1.374 . S
C2907 C2904 1.499 . S
C2907 C2908 1.373 . S
C2907 C2909 1.389 . S
C2908 H2881 0.950 . S
C2908 C2894 1.377 . S
C2908 C2907 1.373 . S
C2909 C2893 1.377 . S
C2909 C2907 1.389 . S
C2909 C2910 1.524 . S
C2910 C2909 1.524 . S
C2910 C2911 1.397 . S
C2910 C2915 1.363 . S
C2911 H2882 0.950 . S
C2911 C2910 1.397 . S
C2911 C2912 1.334 . S
C2912 H2883 0.950 . S
C2912 C2911 1.334 . S
C2912 C2913 1.287 . S
C2913 C2912 1.287 . S
C2913 C2914 1.524 . S
C2913 H2916 0.999 . S
C2914 H2884 0.950 . S
C2914 C2913 1.524 . S
C2914 C2915 1.415 . S
C2915 H2885 0.950 . S
C2915 C2910 1.363 . S
C2915 C2914 1.415 . S
H2916 C2913 0.999 . S
H2917 C2898 0.913 . S
H2918 C2936 0.951 . S
H2919 C2938 0.951 . S
H2920 C2940 0.950 . S
H2921 C2941 0.950 . S
H2922 C2943 0.950 . S
H2923 C2946 0.950 . S
H2924 C2947 0.950 . S
H2925 C2949 0.950 . S
H2926 C2950 0.950 . S
H2927 C2951 0.951 . S
H2928 C2953 0.951 . S
H2929 C2955 0.950 . S
H2930 C2956 0.950 . S
H2931 C2958 0.950 . S
H2932 C2961 0.950 . S
H2933 C2962 0.950 . S
H2934 C2964 0.950 . S
H2935 C2965 0.950 . S
C2936 H2918 0.951 . S
C2936 C2937 1.366 . S
C2936 C2938 1.388 . S
C2937 C2936 1.366 . S
C2937 C2941 1.385 . S
C2938 H2919 0.951 . S
C2938 C2936 1.388 . S
C2938 C2939 1.366 . S
C2939 C2938 1.366 . S
C2939 C2940 1.414 . S
C2939 C2942 1.499 . S
C2940 H2920 0.950 . S
C2940 C2939 1.414 . S
C2940 C2941 1.374 . S
C2941 H2921 0.950 . S
C2941 C2937 1.385 . S
C2941 C2940 1.374 . S
C2942 C2939 1.499 . S
C2942 C2943 1.373 . S
C2942 C2944 1.389 . S
C2943 H2922 0.950 . S
C2943 C2942 1.373 . S
C2943 C2959 1.377 . S
C2944 C2942 1.389 . S
C2944 C2945 1.524 . S
C2944 C2958 1.377 . S
C2945 C2944 1.524 . S
C2945 C2946 1.397 . S
C2945 C2950 1.363 . S
C2946 H2923 0.950 . S
C2946 C2945 1.397 . S
C2946 C2947 1.334 . S
C2947 H2924 0.950 . S
C2947 C2946 1.334 . S
C2947 C2948 1.287 . S
C2948 C2947 1.287 . S
C2948 C2949 1.524 . S
C2948 H2967 0.913 . S
C2949 H2925 0.950 . S
C2949 C2948 1.524 . S
C2949 C2950 1.415 . S
C2950 H2926 0.950 . S
C2950 C2945 1.363 . S
C2950 C2949 1.415 . S
C2951 H2927 0.951 . S
C2951 C2952 1.366 . S
C2951 C2953 1.388 . S
C2952 C2951 1.366 . S
C2952 C2956 1.385 . S
C2953 H2928 0.951 . S
C2953 C2951 1.388 . S
C2953 C2954 1.366 . S
C2954 C2953 1.366 . S
C2954 C2955 1.414 . S
C2954 C2957 1.499 . S
C2955 H2929 0.950 . S
C2955 C2954 1.414 . S
C2955 C2956 1.374 . S
C2956 H2930 0.950 . S
C2956 C2952 1.385 . S
C2956 C2955 1.374 . S
C2957 C2954 1.499 . S
C2957 C2958 1.373 . S
C2957 C2959 1.389 . S
C2958 H2931 0.950 . S
C2958 C2944 1.377 . S
C2958 C2957 1.373 . S
C2959 C2943 1.377 . S
C2959 C2957 1.389 . S
C2959 C2960 1.524 . S
C2960 C2959 1.524 . S
C2960 C2961 1.397 . S
C2960 C2965 1.363 . S
C2961 H2932 0.950 . S
C2961 C2960 1.397 . S
C2961 C2962 1.334 . S
C2962 H2933 0.950 . S
C2962 C2961 1.334 . S
C2962 C2963 1.287 . S
C2963 C2962 1.287 . S
C2963 C2964 1.524 . S
C2963 H2966 0.999 . S
C2964 H2934 0.950 . S
C2964 C2963 1.524 . S
C2964 C2965 1.415 . S
C2965 H2935 0.950 . S
C2965 C2960 1.363 . S
C2965 C2964 1.415 . S
H2966 C2963 0.999 . S
H2967 C2948 0.913 . S
H2968 C2986 0.951 . S
H2969 C2988 0.951 . S
H2970 C2990 0.950 . S
H2971 C2991 0.950 . S
H2972 C2993 0.950 . S
H2973 C2996 0.950 . S
H2974 C2997 0.950 . S
H2975 C2999 0.950 . S
H2976 C3000 0.950 . S
H2977 C3001 0.951 . S
H2978 C3003 0.951 . S
H2979 C3005 0.950 . S
H2980 C3006 0.950 . S
H2981 C3008 0.950 . S
H2982 C3011 0.950 . S
H2983 C3012 0.950 . S
H2984 C3014 0.950 . S
H2985 C3015 0.950 . S
C2986 H2968 0.951 . S
C2986 C2987 1.366 . S
C2986 C2988 1.388 . S
C2987 C2986 1.366 . S
C2987 C2991 1.385 . S
C2988 H2969 0.951 . S
C2988 C2986 1.388 . S
C2988 C2989 1.366 . S
C2989 C2988 1.366 . S
C2989 C2990 1.414 . S
C2989 C2992 1.499 . S
C2990 H2970 0.950 . S
C2990 C2989 1.414 . S
C2990 C2991 1.374 . S
C2991 H2971 0.950 . S
C2991 C2987 1.385 . S
C2991 C2990 1.374 . S
C2992 C2989 1.499 . S
C2992 C2993 1.373 . S
C2992 C2994 1.389 . S
C2993 H2972 0.950 . S
C2993 C2992 1.373 . S
C2993 C3009 1.377 . S
C2994 C2992 1.389 . S
C2994 C2995 1.524 . S
C2994 C3008 1.377 . S
C2995 C2994 1.524 . S
C2995 C2996 1.397 . S
C2995 C3000 1.363 . S
C2996 H2973 0.950 . S
C2996 C2995 1.397 . S
C2996 C2997 1.334 . S
C2997 H2974 0.950 . S
C2997 C2996 1.334 . S
C2997 C2998 1.287 . S
C2998 C2997 1.287 . S
C2998 C2999 1.524 . S
C2998 H3017 0.913 . S
C2999 H2975 0.950 . S
C2999 C2998 1.524 . S
C2999 C3000 1.415 . S
C3000 H2976 0.950 . S
C3000 C2995 1.363 . S
C3000 C2999 1.415 . S
C3001 H2977 0.951 . S
C3001 C3002 1.366 . S
C3001 C3003 1.388 . S
C3002 C3001 1.366 . S
C3002 C3006 1.385 . S
C3003 H2978 0.951 . S
C3003 C3001 1.388 . S
C3003 C3004 1.366 . S
C3004 C3003 1.366 . S
C3004 C3005 1.414 . S
C3004 C3007 1.499 . S
C3005 H2979 0.950 . S
C3005 C3004 1.414 . S
C3005 C3006 1.374 . S
C3006 H2980 0.950 . S
C3006 C3002 1.385 . S
C3006 C3005 1.374 . S
C3007 C3004 1.499 . S
C3007 C3008 1.373 . S
C3007 C3009 1.389 . S
C3008 H2981 0.950 . S
C3008 C2994 1.377 . S
C3008 C3007 1.373 . S
C3009 C2993 1.377 . S
C3009 C3007 1.389 . S
C3009 C3010 1.524 . S
C3010 C3009 1.524 . S
C3010 C3011 1.397 . S
C3010 C3015 1.363 . S
C3011 H2982 0.950 . S
C3011 C3010 1.397 . S
C3011 C3012 1.334 . S
C3012 H2983 0.950 . S
C3012 C3011 1.334 . S
C3012 C3013 1.287 . S
C3013 C3012 1.287 . S
C3013 C3014 1.524 . S
C3013 H3016 0.999 . S
C3014 H2984 0.950 . S
C3014 C3013 1.524 . S
C3014 C3015 1.415 . S
C3015 H2985 0.950 . S
C3015 C3010 1.363 . S
C3015 C3014 1.415 . S
H3016 C3013 0.999 . S
H3017 C2998 0.913 . S
H3018 C3036 0.951 . S
H3019 C3038 0.951 . S
H3020 C3040 0.950 . S
H3021 C3041 0.950 . S
H3022 C3043 0.950 . S
H3023 C3046 0.950 . S
H3024 C3047 0.950 . S
H3025 C3049 0.950 . S
H3026 C3050 0.950 . S
H3027 C3051 0.951 . S
H3028 C3053 0.951 . S
H3029 C3055 0.950 . S
H3030 C3056 0.950 . S
H3031 C3058 0.950 . S
H3032 C3061 0.950 . S
H3033 C3062 0.950 . S
H3034 C3064 0.950 . S
H3035 C3065 0.950 . S
C3036 H3018 0.951 . S
C3036 C3037 1.366 . S
C3036 C3038 1.388 . S
C3037 C3036 1.366 . S
C3037 C3041 1.385 . S
C3038 H3019 0.951 . S
C3038 C3036 1.388 . S
C3038 C3039 1.366 1_556 S
C3039 C3038 1.366 1_554 S
C3039 C3040 1.414 . S
C3039 C3042 1.499 . S
C3040 H3020 0.950 . S
C3040 C3039 1.414 . S
C3040 C3041 1.374 1_554 S
C3041 H3021 0.950 . S
C3041 C3037 1.385 . S
C3041 C3040 1.374 1_556 S
C3042 C3039 1.499 . S
C3042 C3043 1.373 . S
C3042 C3044 1.389 . S
C3043 H3022 0.950 . S
C3043 C3042 1.373 . S
C3043 C3059 1.377 . S
C3044 C3042 1.389 . S
C3044 C3045 1.524 . S
C3044 C3058 1.377 . S
C3045 C3044 1.524 . S
C3045 C3046 1.397 . S
C3045 C3050 1.363 . S
C3046 H3023 0.950 . S
C3046 C3045 1.397 . S
C3046 C3047 1.334 . S
C3047 H3024 0.950 . S
C3047 C3046 1.334 . S
C3047 C3048 1.287 . S
C3048 C3047 1.287 . S
C3048 C3049 1.524 . S
C3048 H3067 0.913 . S
C3049 H3025 0.950 . S
C3049 C3048 1.524 . S
C3049 C3050 1.415 . S
C3050 H3026 0.950 . S
C3050 C3045 1.363 . S
C3050 C3049 1.415 . S
C3051 H3027 0.951 . S
C3051 C3052 1.366 . S
C3051 C3053 1.388 . S
C3052 C3051 1.366 . S
C3052 C3056 1.385 . S
C3053 H3028 0.951 . S
C3053 C3051 1.388 . S
C3053 C3054 1.366 . S
C3054 C3053 1.366 . S
C3054 C3055 1.414 . S
C3054 C3057 1.499 . S
C3055 H3029 0.950 . S
C3055 C3054 1.414 . S
C3055 C3056 1.374 . S
C3056 H3030 0.950 . S
C3056 C3052 1.385 . S
C3056 C3055 1.374 . S
C3057 C3054 1.499 . S
C3057 C3058 1.373 . S
C3057 C3059 1.389 . S
C3058 H3031 0.950 . S
C3058 C3044 1.377 . S
C3058 C3057 1.373 . S
C3059 C3043 1.377 . S
C3059 C3057 1.389 . S
C3059 C3060 1.524 . S
C3060 C3059 1.524 . S
C3060 C3061 1.397 . S
C3060 C3065 1.363 . S
C3061 H3032 0.950 . S
C3061 C3060 1.397 . S
C3061 C3062 1.334 . S
C3062 H3033 0.950 . S
C3062 C3061 1.334 . S
C3062 C3063 1.287 . S
C3063 C3062 1.287 . S
C3063 C3064 1.524 . S
C3063 H3066 0.999 . S
C3064 H3034 0.950 . S
C3064 C3063 1.524 . S
C3064 C3065 1.415 . S
C3065 H3035 0.950 . S
C3065 C3060 1.363 . S
C3065 C3064 1.415 . S
H3066 C3063 0.999 . S
H3067 C3048 0.913 . S
H3068 C3086 0.951 . S
H3069 C3088 0.951 . S
H3070 C3090 0.950 . S
H3071 C3091 0.950 . S
H3072 C3093 0.950 . S
H3073 C3096 0.946 1_554 S
H3074 C3097 0.950 . S
H3075 C3099 0.950 . S
H3076 C3100 0.950 . S
H3077 C3101 0.951 . S
H3078 C3103 0.951 . S
H3079 C3105 0.950 . S
H3080 C3106 0.950 . S
H3081 C3108 0.950 . S
H3082 C3111 0.950 . S
H3083 C3112 0.950 . S
H3084 C3114 0.950 . S
H3085 C3115 0.950 . S
C3086 H3068 0.951 . S
C3086 C3087 1.366 . S
C3086 C3088 1.388 . S
C3087 C3086 1.366 . S
C3087 C3091 1.385 . S
C3088 H3069 0.951 . S
C3088 C3086 1.388 . S
C3088 C3089 1.366 1_556 S
C3089 C3088 1.366 1_554 S
C3089 C3090 1.414 . S
C3089 C3092 1.499 . S
C3090 H3070 0.950 . S
C3090 C3089 1.414 . S
C3090 C3091 1.374 1_554 S
C3091 H3071 0.950 . S
C3091 C3087 1.385 . S
C3091 C3090 1.374 1_556 S
C3092 C3089 1.499 . S
C3092 C3093 1.373 . S
C3092 C3094 1.389 . S
C3093 H3072 0.950 . S
C3093 C3092 1.373 . S
C3093 C3109 1.377 . S
C3094 C3092 1.389 . S
C3094 C3095 1.524 . S
C3094 C3108 1.377 . S
C3095 C3094 1.524 . S
C3095 C3096 1.393 1_554 S
C3095 C3100 1.363 . S
C3096 H3073 0.946 1_556 S
C3096 C3095 1.393 1_556 S
C3096 C3097 1.341 . S
C3097 H3074 0.950 . S
C3097 C3096 1.341 . S
C3097 C3098 1.287 . S
C3098 C3097 1.287 . S
C3098 C3099 1.524 . S
C3098 H3117 0.913 . S
C3099 H3075 0.950 . S
C3099 C3098 1.524 . S
C3099 C3100 1.415 1_556 S
C3100 H3076 0.950 . S
C3100 C3095 1.363 . S
C3100 C3099 1.415 1_554 S
C3101 H3077 0.951 . S
C3101 C3102 1.366 . S
C3101 C3103 1.388 . S
C3102 C3101 1.366 . S
C3102 C3106 1.385 . S
C3103 H3078 0.951 . S
C3103 C3101 1.388 . S
C3103 C3104 1.366 . S
C3104 C3103 1.366 . S
C3104 C3105 1.414 . S
C3104 C3107 1.499 . S
C3105 H3079 0.950 . S
C3105 C3104 1.414 . S
C3105 C3106 1.374 . S
C3106 H3080 0.950 . S
C3106 C3102 1.385 . S
C3106 C3105 1.374 . S
C3107 C3104 1.499 . S
C3107 C3108 1.373 . S
C3107 C3109 1.389 . S
C3108 H3081 0.950 . S
C3108 C3094 1.377 . S
C3108 C3107 1.373 . S
C3109 C3093 1.377 . S
C3109 C3107 1.389 . S
C3109 C3110 1.524 . S
C3110 C3109 1.524 . S
C3110 C3111 1.397 . S
C3110 C3115 1.363 . S
C3111 H3082 0.950 . S
C3111 C3110 1.397 . S
C3111 C3112 1.334 . S
C3112 H3083 0.950 . S
C3112 C3111 1.334 . S
C3112 C3113 1.287 . S
C3113 C3112 1.287 . S
C3113 C3114 1.524 . S
C3113 H3116 0.999 . S
C3114 H3084 0.950 . S
C3114 C3113 1.524 . S
C3114 C3115 1.415 . S
C3115 H3085 0.950 . S
C3115 C3110 1.363 . S
C3115 C3114 1.415 . S
H3116 C3113 0.999 . S
H3117 C3098 0.913 . S
H3118 C3136 0.951 . S
H3119 C3138 0.951 . S
H3120 C3140 0.950 1_554 S
H3121 C3141 0.950 . S
H3122 C3143 0.950 . S
H3123 C3146 0.950 . S
H3124 C3147 0.950 . S
H3125 C3149 0.950 . S
H3126 C3150 0.950 . S
H3127 C3151 0.951 . S
H3128 C3153 0.951 . S
H3129 C3155 0.950 . S
H3130 C3156 0.950 . S
H3131 C3158 0.950 . S
H3132 C3161 0.950 . S
H3133 C3162 0.950 . S
H3134 C3164 0.950 . S
H3135 C3165 0.950 . S
C3136 H3118 0.951 . S
C3136 C3137 1.366 . S
C3136 C3138 1.388 . S
C3137 C3136 1.366 . S
C3137 C3141 1.385 . S
C3138 H3119 0.951 . S
C3138 C3136 1.388 . S
C3138 C3139 1.366 1_556 S
C3139 C3138 1.366 1_554 S
C3139 C3140 1.414 1_554 S
C3139 C3142 1.499 . S
C3140 H3120 0.950 1_556 S
C3140 C3139 1.414 1_556 S
C3140 C3141 1.374 . S
C3141 H3121 0.950 . S
C3141 C3137 1.385 . S
C3141 C3140 1.374 . S
C3142 C3139 1.499 . S
C3142 C3143 1.373 . S
C3142 C3144 1.389 . S
C3143 H3122 0.950 . S
C3143 C3142 1.373 . S
C3143 C3159 1.377 . S
C3144 C3142 1.389 . S
C3144 C3145 1.524 . S
C3144 C3158 1.377 . S
C3145 C3144 1.524 . S
C3145 C3146 1.397 1_554 S
C3145 C3150 1.363 . S
C3146 H3123 0.950 . S
C3146 C3145 1.397 1_556 S
C3146 C3147 1.334 . S
C3147 H3124 0.950 . S
C3147 C3146 1.334 . S
C3147 C3148 1.287 . S
C3148 C3147 1.287 . S
C3148 C3149 1.524 . S
C3148 H3167 0.913 . S
C3149 H3125 0.950 . S
C3149 C3148 1.524 . S
C3149 C3150 1.415 1_556 S
C3150 H3126 0.950 . S
C3150 C3145 1.363 . S
C3150 C3149 1.415 1_554 S
C3151 H3127 0.951 . S
C3151 C3152 1.366 . S
C3151 C3153 1.388 . S
C3152 C3151 1.366 . S
C3152 C3156 1.385 . S
C3153 H3128 0.951 . S
C3153 C3151 1.388 . S
C3153 C3154 1.366 . S
C3154 C3153 1.366 . S
C3154 C3155 1.414 . S
C3154 C3157 1.499 . S
C3155 H3129 0.950 . S
C3155 C3154 1.414 . S
C3155 C3156 1.374 . S
C3156 H3130 0.950 . S
C3156 C3152 1.385 . S
C3156 C3155 1.374 . S
C3157 C3154 1.499 . S
C3157 C3158 1.373 . S
C3157 C3159 1.389 . S
C3158 H3131 0.950 . S
C3158 C3144 1.377 . S
C3158 C3157 1.373 . S
C3159 C3143 1.377 . S
C3159 C3157 1.389 . S
C3159 C3160 1.524 . S
C3160 C3159 1.524 . S
C3160 C3161 1.397 . S
C3160 C3165 1.363 . S
C3161 H3132 0.950 . S
C3161 C3160 1.397 . S
C3161 C3162 1.334 . S
C3162 H3133 0.950 . S
C3162 C3161 1.334 . S
C3162 C3163 1.287 . S
C3163 C3162 1.287 . S
C3163 C3164 1.524 . S
C3163 H3166 0.999 . S
C3164 H3134 0.950 . S
C3164 C3163 1.524 . S
C3164 C3165 1.415 . S
C3165 H3135 0.950 . S
C3165 C3160 1.363 . S
C3165 C3164 1.415 . S
H3166 C3163 0.999 . S
H3167 C3148 0.913 . S
H3168 C3186 0.951 . S
H3169 C3188 0.951 . S
H3170 C3190 0.950 . S
H3171 C3191 0.950 . S
H3172 C3193 0.950 . S
H3173 C3196 0.950 . S
H3174 C3197 0.950 . S
H3175 C3199 0.950 . S
H3176 C3200 0.950 . S
H3177 C3201 0.951 . S
H3178 C3203 0.951 . S
H3179 C3205 0.950 . S
H3180 C3206 0.950 . S
H3181 C3208 0.950 . S
H3182 C3211 0.950 . S
H3183 C3212 0.950 . S
H3184 C3214 0.950 . S
H3185 C3215 0.950 . S
C3186 H3168 0.951 . S
C3186 C3187 1.366 . S
C3186 C3188 1.388 . S
C3187 C3186 1.366 . S
C3187 C3191 1.385 . S
C3188 H3169 0.951 . S
C3188 C3186 1.388 . S
C3188 C3189 1.366 . S
C3189 C3188 1.366 . S
C3189 C3190 1.414 . S
C3189 C3192 1.499 . S
C3190 H3170 0.950 . S
C3190 C3189 1.414 . S
C3190 C3191 1.374 . S
C3191 H3171 0.950 . S
C3191 C3187 1.385 . S
C3191 C3190 1.374 . S
C3192 C3189 1.499 . S
C3192 C3193 1.373 . S
C3192 C3194 1.389 . S
C3193 H3172 0.950 . S
C3193 C3192 1.373 . S
C3193 C3209 1.377 . S
C3194 C3192 1.389 . S
C3194 C3195 1.524 . S
C3194 C3208 1.377 . S
C3195 C3194 1.524 . S
C3195 C3196 1.397 . S
C3195 C3200 1.363 . S
C3196 H3173 0.950 . S
C3196 C3195 1.397 . S
C3196 C3197 1.334 . S
C3197 H3174 0.950 . S
C3197 C3196 1.334 . S
C3197 C3198 1.287 . S
C3198 C3197 1.287 . S
C3198 C3199 1.524 . S
C3198 H3217 0.913 . S
C3199 H3175 0.950 . S
C3199 C3198 1.524 . S
C3199 C3200 1.415 . S
C3200 H3176 0.950 . S
C3200 C3195 1.363 . S
C3200 C3199 1.415 . S
C3201 H3177 0.951 . S
C3201 C3202 1.366 . S
C3201 C3203 1.388 . S
C3202 C3201 1.366 . S
C3202 C3206 1.385 . S
C3203 H3178 0.951 . S
C3203 C3201 1.388 . S
C3203 C3204 1.366 . S
C3204 C3203 1.366 . S
C3204 C3205 1.414 . S
C3204 C3207 1.499 . S
C3205 H3179 0.950 . S
C3205 C3204 1.414 . S
C3205 C3206 1.374 . S
C3206 H3180 0.950 . S
C3206 C3202 1.385 . S
C3206 C3205 1.374 . S
C3207 C3204 1.499 . S
C3207 C3208 1.373 . S
C3207 C3209 1.389 . S
C3208 H3181 0.950 . S
C3208 C3194 1.377 . S
C3208 C3207 1.373 . S
C3209 C3193 1.377 . S
C3209 C3207 1.389 . S
C3209 C3210 1.524 . S
C3210 C3209 1.524 . S
C3210 C3211 1.397 . S
C3210 C3215 1.363 1_554 S
C3211 H3182 0.950 . S
C3211 C3210 1.397 . S
C3211 C3212 1.334 1_554 S
C3212 H3183 0.950 . S
C3212 C3211 1.334 1_556 S
C3212 C3213 1.287 . S
C3213 C3212 1.287 . S
C3213 C3214 1.524 . S
C3213 H3216 0.999 . S
C3214 H3184 0.950 . S
C3214 C3213 1.524 . S
C3214 C3215 1.415 . S
C3215 H3185 0.950 . S
C3215 C3210 1.363 1_556 S
C3215 C3214 1.415 . S
H3216 C3213 0.999 . S
H3217 C3198 0.913 . S
H3218 C3236 0.951 . S
H3219 C3238 0.951 . S
H3220 C3240 0.950 . S
H3221 C3241 0.950 . S
H3222 C3243 0.950 . S
H3223 C3246 0.950 . S
H3224 C3247 0.950 . S
H3225 C3249 0.950 . S
H3226 C3250 0.950 . S
H3227 C3251 0.951 . S
H3228 C3253 0.951 . S
H3229 C3255 0.950 . S
H3230 C3256 0.950 . S
H3231 C3258 0.950 . S
H3232 C3261 0.950 . S
H3233 C3262 0.950 . S
H3234 C3264 0.950 . S
H3235 C3265 0.950 . S
C3236 H3218 0.951 . S
C3236 C3237 1.366 . S
C3236 C3238 1.388 . S
C3237 C3236 1.366 . S
C3237 C3241 1.385 . S
C3238 H3219 0.951 . S
C3238 C3236 1.388 . S
C3238 C3239 1.366 . S
C3239 C3238 1.366 . S
C3239 C3240 1.414 . S
C3239 C3242 1.499 . S
C3240 H3220 0.950 . S
C3240 C3239 1.414 . S
C3240 C3241 1.374 . S
C3241 H3221 0.950 . S
C3241 C3237 1.385 . S
C3241 C3240 1.374 . S
C3242 C3239 1.499 . S
C3242 C3243 1.373 . S
C3242 C3244 1.389 . S
C3243 H3222 0.950 . S
C3243 C3242 1.373 . S
C3243 C3259 1.377 . S
C3244 C3242 1.389 . S
C3244 C3245 1.524 . S
C3244 C3258 1.377 . S
C3245 C3244 1.524 . S
C3245 C3246 1.397 . S
C3245 C3250 1.363 . S
C3246 H3223 0.950 . S
C3246 C3245 1.397 . S
C3246 C3247 1.334 1_554 S
C3247 H3224 0.950 . S
C3247 C3246 1.334 1_556 S
C3247 C3248 1.287 . S
C3248 C3247 1.287 . S
C3248 C3249 1.524 . S
C3248 H3267 0.913 . S
C3249 H3225 0.950 . S
C3249 C3248 1.524 . S
C3249 C3250 1.415 1_556 S
C3250 H3226 0.950 . S
C3250 C3245 1.363 . S
C3250 C3249 1.415 1_554 S
C3251 H3227 0.951 . S
C3251 C3252 1.366 . S
C3251 C3253 1.388 . S
C3252 C3251 1.366 . S
C3252 C3256 1.385 . S
C3253 H3228 0.951 . S
C3253 C3251 1.388 . S
C3253 C3254 1.366 . S
C3254 C3253 1.366 . S
C3254 C3255 1.414 . S
C3254 C3257 1.499 . S
C3255 H3229 0.950 . S
C3255 C3254 1.414 . S
C3255 C3256 1.374 . S
C3256 H3230 0.950 . S
C3256 C3252 1.385 . S
C3256 C3255 1.374 . S
C3257 C3254 1.499 . S
C3257 C3258 1.373 . S
C3257 C3259 1.389 . S
C3258 H3231 0.950 . S
C3258 C3244 1.377 . S
C3258 C3257 1.373 . S
C3259 C3243 1.377 . S
C3259 C3257 1.389 . S
C3259 C3260 1.524 . S
C3260 C3259 1.524 . S
C3260 C3261 1.397 . S
C3260 C3265 1.363 . S
C3261 H3232 0.950 . S
C3261 C3260 1.397 . S
C3261 C3262 1.334 . S
C3262 H3233 0.950 . S
C3262 C3261 1.334 . S
C3262 C3263 1.287 . S
C3263 C3262 1.287 . S
C3263 C3264 1.524 . S
C3263 H3266 0.999 . S
C3264 H3234 0.950 . S
C3264 C3263 1.524 . S
C3264 C3265 1.415 . S
C3265 H3235 0.950 . S
C3265 C3260 1.363 . S
C3265 C3264 1.415 . S
H3266 C3263 0.999 . S
H3267 C3248 0.913 . S
H3268 C3286 0.951 . S
H3269 C3288 0.951 . S
H3270 C3290 0.950 . S
H3271 C3291 0.950 . S
H3272 C3293 0.950 . S
H3273 C3296 0.950 . S
H3274 C3297 0.950 1_556 S
H3275 C3299 0.950 . S
H3276 C3300 0.950 . S
H3277 C3301 0.951 . S
H3278 C3303 0.951 . S
H3279 C3305 0.950 . S
H3280 C3306 0.950 . S
H3281 C3308 0.950 . S
H3282 C3311 0.950 . S
H3283 C3312 0.950 . S
H3284 C3314 0.950 . S
H3285 C3315 0.950 . S
C3286 H3268 0.951 . S
C3286 C3287 1.366 . S
C3286 C3288 1.388 . S
C3287 C3286 1.366 . S
C3287 C3291 1.385 . S
C3288 H3269 0.951 . S
C3288 C3286 1.388 . S
C3288 C3289 1.366 . S
C3289 C3288 1.366 . S
C3289 C3290 1.414 . S
C3289 C3292 1.499 . S
C3290 H3270 0.950 . S
C3290 C3289 1.414 . S
C3290 C3291 1.374 . S
C3291 H3271 0.950 . S
C3291 C3287 1.385 . S
C3291 C3290 1.374 . S
C3292 C3289 1.499 . S
C3292 C3293 1.373 . S
C3292 C3294 1.389 . S
C3293 H3272 0.950 . S
C3293 C3292 1.373 . S
C3293 C3309 1.377 . S
C3294 C3292 1.389 . S
C3294 C3295 1.524 . S
C3294 C3308 1.377 . S
C3295 C3294 1.524 . S
C3295 C3296 1.397 . S
C3295 C3300 1.363 . S
C3296 H3273 0.950 . S
C3296 C3295 1.397 . S
C3296 C3297 1.334 . S
C3297 H3274 0.950 1_554 S
C3297 C3296 1.334 . S
C3297 C3298 1.287 . S
C3298 C3297 1.287 . S
C3298 C3299 1.524 . S
C3298 H3317 0.913 . S
C3299 H3275 0.950 . S
C3299 C3298 1.524 . S
C3299 C3300 1.415 . S
C3300 H3276 0.950 . S
C3300 C3295 1.363 . S
C3300 C3299 1.415 . S
C3301 H3277 0.951 . S
C3301 C3302 1.366 . S
C3301 C3303 1.388 . S
C3302 C3301 1.366 . S
C3302 C3306 1.385 . S
C3303 H3278 0.951 . S
C3303 C3301 1.388 . S
C3303 C3304 1.366 . S
C3304 C3303 1.366 . S
C3304 C3305 1.414 . S
C3304 C3307 1.499 . S
C3305 H3279 0.950 . S
C3305 C3304 1.414 . S
C3305 C3306 1.374 . S
C3306 H3280 0.950 . S
C3306 C3302 1.385 . S
C3306 C3305 1.374 . S
C3307 C3304 1.499 . S
C3307 C3308 1.373 . S
C3307 C3309 1.389 . S
C3308 H3281 0.950 . S
C3308 C3294 1.377 . S
C3308 C3307 1.373 . S
C3309 C3293 1.377 . S
C3309 C3307 1.389 . S
C3309 C3310 1.524 . S
C3310 C3309 1.524 . S
C3310 C3311 1.397 . S
C3310 C3315 1.363 . S
C3311 H3282 0.950 . S
C3311 C3310 1.397 . S
C3311 C3312 1.334 . S
C3312 H3283 0.950 . S
C3312 C3311 1.334 . S
C3312 C3313 1.287 . S
C3313 C3312 1.287 . S
C3313 C3314 1.524 . S
C3313 H3316 0.999 . S
C3314 H3284 0.950 . S
C3314 C3313 1.524 . S
C3314 C3315 1.415 . S
C3315 H3285 0.950 . S
C3315 C3310 1.363 . S
C3315 C3314 1.415 . S
H3316 C3313 0.999 . S
H3317 C3298 0.913 . S
H3318 C3336 0.951 . S
H3319 C3338 0.951 . S
H3320 C3340 0.950 . S
H3321 C3341 0.950 . S
H3322 C3343 0.950 . S
H3323 C3346 0.950 . S
H3324 C3347 0.950 . S
H3325 C3349 0.950 . S
H3326 C3350 0.950 . S
H3327 C3351 0.951 . S
H3328 C3353 0.951 . S
H3329 C3355 0.950 . S
H3330 C3356 0.950 . S
H3331 C3358 0.950 . S
H3332 C3361 0.950 . S
H3333 C3362 0.950 . S
H3334 C3364 0.950 . S
H3335 C3365 0.950 . S
C3336 H3318 0.951 . S
C3336 C3337 1.366 . S
C3336 C3338 1.388 . S
C3337 C3336 1.366 . S
C3337 C3341 1.385 . S
C3338 H3319 0.951 . S
C3338 C3336 1.388 . S
C3338 C3339 1.366 . S
C3339 C3338 1.366 . S
C3339 C3340 1.414 . S
C3339 C3342 1.499 . S
C3340 H3320 0.950 . S
C3340 C3339 1.414 . S
C3340 C3341 1.374 . S
C3341 H3321 0.950 . S
C3341 C3337 1.385 . S
C3341 C3340 1.374 . S
C3342 C3339 1.499 . S
C3342 C3343 1.373 . S
C3342 C3344 1.389 . S
C3343 H3322 0.950 . S
C3343 C3342 1.373 . S
C3343 C3359 1.377 . S
C3344 C3342 1.389 . S
C3344 C3345 1.524 . S
C3344 C3358 1.377 . S
C3345 C3344 1.524 . S
C3345 C3346 1.397 . S
C3345 C3350 1.363 . S
C3346 H3323 0.950 . S
C3346 C3345 1.397 . S
C3346 C3347 1.334 . S
C3347 H3324 0.950 . S
C3347 C3346 1.334 . S
C3347 C3348 1.287 . S
C3348 C3347 1.287 . S
C3348 C3349 1.524 . S
C3348 H3367 0.913 . S
C3349 H3325 0.950 . S
C3349 C3348 1.524 . S
C3349 C3350 1.415 . S
C3350 H3326 0.950 . S
C3350 C3345 1.363 . S
C3350 C3349 1.415 . S
C3351 H3327 0.951 . S
C3351 C3352 1.366 . S
C3351 C3353 1.388 . S
C3352 C3351 1.366 . S
C3352 C3356 1.385 . S
C3353 H3328 0.951 . S
C3353 C3351 1.388 . S
C3353 C3354 1.366 . S
C3354 C3353 1.366 . S
C3354 C3355 1.414 . S
C3354 C3357 1.499 . S
C3355 H3329 0.950 . S
C3355 C3354 1.414 . S
C3355 C3356 1.374 . S
C3356 H3330 0.950 . S
C3356 C3352 1.385 . S
C3356 C3355 1.374 . S
C3357 C3354 1.499 . S
C3357 C3358 1.373 . S
C3357 C3359 1.389 . S
C3358 H3331 0.950 . S
C3358 C3344 1.377 . S
C3358 C3357 1.373 . S
C3359 C3343 1.377 . S
C3359 C3357 1.389 . S
C3359 C3360 1.524 . S
C3360 C3359 1.524 . S
C3360 C3361 1.397 . S
C3360 C3365 1.363 . S
C3361 H3332 0.950 . S
C3361 C3360 1.397 . S
C3361 C3362 1.334 . S
C3362 H3333 0.950 . S
C3362 C3361 1.334 . S
C3362 C3363 1.287 . S
C3363 C3362 1.287 . S
C3363 C3364 1.524 . S
C3363 H3366 0.999 . S
C3364 H3334 0.950 . S
C3364 C3363 1.524 . S
C3364 C3365 1.415 . S
C3365 H3335 0.950 . S
C3365 C3360 1.363 . S
C3365 C3364 1.415 . S
H3366 C3363 0.999 . S
H3367 C3348 0.913 . S
H3368 C3386 0.951 . S
H3369 C3388 0.951 . S
H3370 C3390 0.950 . S
H3371 C3391 0.950 . S
H3372 C3393 0.950 . S
H3373 C3396 0.950 . S
H3374 C3397 0.950 . S
H3375 C3399 0.950 . S
H3376 C3400 0.950 . S
H3377 C3401 0.951 . S
H3378 C3403 0.951 . S
H3379 C3405 0.950 . S
H3380 C3406 0.950 . S
H3381 C3408 0.950 . S
H3382 C3411 0.950 . S
H3383 C3412 0.950 . S
H3384 C3414 0.950 . S
H3385 C3415 0.950 . S
C3386 H3368 0.951 . S
C3386 C3387 1.366 . S
C3386 C3388 1.388 . S
C3387 C3386 1.366 . S
C3387 C3391 1.385 . S
C3388 H3369 0.951 . S
C3388 C3386 1.388 . S
C3388 C3389 1.366 . S
C3389 C3388 1.366 . S
C3389 C3390 1.414 . S
C3389 C3392 1.499 . S
C3390 H3370 0.950 . S
C3390 C3389 1.414 . S
C3390 C3391 1.374 . S
C3391 H3371 0.950 . S
C3391 C3387 1.385 . S
C3391 C3390 1.374 . S
C3392 C3389 1.499 . S
C3392 C3393 1.373 . S
C3392 C3394 1.389 . S
C3393 H3372 0.950 . S
C3393 C3392 1.373 . S
C3393 C3409 1.377 . S
C3394 C3392 1.389 . S
C3394 C3395 1.524 . S
C3394 C3408 1.377 . S
C3395 C3394 1.524 . S
C3395 C3396 1.397 . S
C3395 C3400 1.363 . S
C3396 H3373 0.950 . S
C3396 C3395 1.397 . S
C3396 C3397 1.334 . S
C3397 H3374 0.950 . S
C3397 C3396 1.334 . S
C3397 C3398 1.287 . S
C3398 C3397 1.287 . S
C3398 C3399 1.524 . S
C3398 H3417 0.913 . S
C3399 H3375 0.950 . S
C3399 C3398 1.524 . S
C3399 C3400 1.415 . S
C3400 H3376 0.950 . S
C3400 C3395 1.363 . S
C3400 C3399 1.415 . S
C3401 H3377 0.951 . S
C3401 C3402 1.366 . S
C3401 C3403 1.388 . S
C3402 C3401 1.366 . S
C3402 C3406 1.385 . S
C3403 H3378 0.951 . S
C3403 C3401 1.388 . S
C3403 C3404 1.366 . S
C3404 C3403 1.366 . S
C3404 C3405 1.414 . S
C3404 C3407 1.499 . S
C3405 H3379 0.950 . S
C3405 C3404 1.414 . S
C3405 C3406 1.374 . S
C3406 H3380 0.950 . S
C3406 C3402 1.385 . S
C3406 C3405 1.374 . S
C3407 C3404 1.499 . S
C3407 C3408 1.373 . S
C3407 C3409 1.389 . S
C3408 H3381 0.950 . S
C3408 C3394 1.377 . S
C3408 C3407 1.373 . S
C3409 C3393 1.377 . S
C3409 C3407 1.389 . S
C3409 C3410 1.524 . S
C3410 C3409 1.524 . S
C3410 C3411 1.397 . S
C3410 C3415 1.363 . S
C3411 H3382 0.950 . S
C3411 C3410 1.397 . S
C3411 C3412 1.334 . S
C3412 H3383 0.950 . S
C3412 C3411 1.334 . S
C3412 C3413 1.287 . S
C3413 C3412 1.287 . S
C3413 C3414 1.524 . S
C3413 H3416 0.999 . S
C3414 H3384 0.950 . S
C3414 C3413 1.524 . S
C3414 C3415 1.415 . S
C3415 H3385 0.950 . S
C3415 C3410 1.363 . S
C3415 C3414 1.415 . S
H3416 C3413 0.999 . S
H3417 C3398 0.913 . S
H3418 C3436 0.951 . S
H3419 C3438 0.951 . S
H3420 C3440 0.950 . S
H3421 C3441 0.950 . S
H3422 C3443 0.950 . S
H3423 C3446 0.950 . S
H3424 C3447 0.950 . S
H3425 C3449 0.950 . S
H3426 C3450 0.950 . S
H3427 C3451 0.951 . S
H3428 C3453 0.951 . S
H3429 C3455 0.950 . S
H3430 C3456 0.950 . S
H3431 C3458 0.950 . S
H3432 C3461 0.950 . S
H3433 C3462 0.950 . S
H3434 C3464 0.950 . S
H3435 C3465 0.950 . S
C3436 H3418 0.951 . S
C3436 C3437 1.366 . S
C3436 C3438 1.388 . S
C3437 C3436 1.366 . S
C3437 C3441 1.385 . S
C3438 H3419 0.951 . S
C3438 C3436 1.388 . S
C3438 C3439 1.366 . S
C3439 C3438 1.366 . S
C3439 C3440 1.414 . S
C3439 C3442 1.499 . S
C3440 H3420 0.950 . S
C3440 C3439 1.414 . S
C3440 C3441 1.374 . S
C3441 H3421 0.950 . S
C3441 C3437 1.385 . S
C3441 C3440 1.374 . S
C3442 C3439 1.499 . S
C3442 C3443 1.373 . S
C3442 C3444 1.389 . S
C3443 H3422 0.950 . S
C3443 C3442 1.373 . S
C3443 C3459 1.377 . S
C3444 C3442 1.389 . S
C3444 C3445 1.524 . S
C3444 C3458 1.377 . S
C3445 C3444 1.524 . S
C3445 C3446 1.397 . S
C3445 C3450 1.363 . S
C3446 H3423 0.950 . S
C3446 C3445 1.397 . S
C3446 C3447 1.334 . S
C3447 H3424 0.950 . S
C3447 C3446 1.334 . S
C3447 C3448 1.287 . S
C3448 C3447 1.287 . S
C3448 C3449 1.524 . S
C3448 H3467 0.913 . S
C3449 H3425 0.950 . S
C3449 C3448 1.524 . S
C3449 C3450 1.415 . S
C3450 H3426 0.950 . S
C3450 C3445 1.363 . S
C3450 C3449 1.415 . S
C3451 H3427 0.951 . S
C3451 C3452 1.366 . S
C3451 C3453 1.388 . S
C3452 C3451 1.366 . S
C3452 C3456 1.385 . S
C3453 H3428 0.951 . S
C3453 C3451 1.388 . S
C3453 C3454 1.366 . S
C3454 C3453 1.366 . S
C3454 C3455 1.414 . S
C3454 C3457 1.499 . S
C3455 H3429 0.950 . S
C3455 C3454 1.414 . S
C3455 C3456 1.374 . S
C3456 H3430 0.950 . S
C3456 C3452 1.385 . S
C3456 C3455 1.374 . S
C3457 C3454 1.499 . S
C3457 C3458 1.373 . S
C3457 C3459 1.389 . S
C3458 H3431 0.950 . S
C3458 C3444 1.377 . S
C3458 C3457 1.373 . S
C3459 C3443 1.377 . S
C3459 C3457 1.389 . S
C3459 C3460 1.524 . S
C3460 C3459 1.524 . S
C3460 C3461 1.397 . S
C3460 C3465 1.363 . S
C3461 H3432 0.950 . S
C3461 C3460 1.397 . S
C3461 C3462 1.334 . S
C3462 H3433 0.950 . S
C3462 C3461 1.334 . S
C3462 C3463 1.287 . S
C3463 C3462 1.287 . S
C3463 C3464 1.524 . S
C3463 H3466 0.999 . S
C3464 H3434 0.950 . S
C3464 C3463 1.524 . S
C3464 C3465 1.415 . S
C3465 H3435 0.950 . S
C3465 C3460 1.363 . S
C3465 C3464 1.415 . S
H3466 C3463 0.999 . S
H3467 C3448 0.913 . S
H3468 C3486 0.951 . S
H3469 C3488 0.951 . S
H3470 C3490 0.950 . S
H3471 C3491 0.950 . S
H3472 C3493 0.950 . S
H3473 C3496 0.950 . S
H3474 C3497 0.950 . S
H3475 C3499 0.950 . S
H3476 C3500 0.950 1_554 S
H3477 C3501 0.951 . S
H3478 C3503 0.951 . S
H3479 C3505 0.950 . S
H3480 C3506 0.950 1_554 S
H3481 C3508 0.950 . S
H3482 C3511 0.950 . S
H3483 C3512 0.950 . S
H3484 C3514 0.950 . S
H3485 C3515 0.950 . S
C3486 H3468 0.951 . S
C3486 C3487 1.366 . S
C3486 C3488 1.388 . S
C3487 C3486 1.366 . S
C3487 C3491 1.385 . S
C3488 H3469 0.951 . S
C3488 C3486 1.388 . S
C3488 C3489 1.366 . S
C3489 C3488 1.366 . S
C3489 C3490 1.414 . S
C3489 C3492 1.499 . S
C3490 H3470 0.950 . S
C3490 C3489 1.414 . S
C3490 C3491 1.374 . S
C3491 H3471 0.950 . S
C3491 C3487 1.385 . S
C3491 C3490 1.374 . S
C3492 C3489 1.499 . S
C3492 C3493 1.373 . S
C3492 C3494 1.389 . S
C3493 H3472 0.950 . S
C3493 C3492 1.373 . S
C3493 C3509 1.377 . S
C3494 C3492 1.389 . S
C3494 C3495 1.524 . S
C3494 C3508 1.377 . S
C3495 C3494 1.524 . S
C3495 C3496 1.397 . S
C3495 C3500 1.363 . S
C3496 H3473 0.950 . S
C3496 C3495 1.397 . S
C3496 C3497 1.334 . S
C3497 H3474 0.950 . S
C3497 C3496 1.334 . S
C3497 C3498 1.287 . S
C3498 C3497 1.287 . S
C3498 C3499 1.524 1_556 S
C3498 H3517 0.913 . S
C3499 H3475 0.950 . S
C3499 C3498 1.524 1_554 S
C3499 C3500 1.415 1_554 S
C3500 H3476 0.950 1_556 S
C3500 C3495 1.363 . S
C3500 C3499 1.415 1_556 S
C3501 H3477 0.951 . S
C3501 C3502 1.366 . S
C3501 C3503 1.388 . S
C3502 C3501 1.366 . S
C3502 C3506 1.385 . S
C3503 H3478 0.951 . S
C3503 C3501 1.388 . S
C3503 C3504 1.366 . S
C3504 C3503 1.366 . S
C3504 C3505 1.414 . S
C3504 C3507 1.499 . S
C3505 H3479 0.950 . S
C3505 C3504 1.414 . S
C3505 C3506 1.374 . S
C3506 H3480 0.950 1_556 S
C3506 C3502 1.385 . S
C3506 C3505 1.374 . S
C3507 C3504 1.499 . S
C3507 C3508 1.373 . S
C3507 C3509 1.389 . S
C3508 H3481 0.950 . S
C3508 C3494 1.377 . S
C3508 C3507 1.373 . S
C3509 C3493 1.377 . S
C3509 C3507 1.389 . S
C3509 C3510 1.524 . S
C3510 C3509 1.524 . S
C3510 C3511 1.397 . S
C3510 C3515 1.363 . S
C3511 H3482 0.950 . S
C3511 C3510 1.397 . S
C3511 C3512 1.334 . S
C3512 H3483 0.950 . S
C3512 C3511 1.334 . S
C3512 C3513 1.287 . S
C3513 C3512 1.287 . S
C3513 C3514 1.524 . S
C3513 H3516 0.999 . S
C3514 H3484 0.950 . S
C3514 C3513 1.524 . S
C3514 C3515 1.415 . S
C3515 H3485 0.950 . S
C3515 C3510 1.363 . S
C3515 C3514 1.415 . S
H3516 C3513 0.999 . S
H3517 C3498 0.913 . S
H3518 C3536 0.951 . S
H3519 C3538 0.951 . S
H3520 C3540 0.950 . S
H3521 C3541 0.950 . S
H3522 C3543 0.950 . S
H3523 C3546 0.950 1_556 S
H3524 C3547 0.950 . S
H3525 C3549 0.950 . S
H3526 C3550 0.950 . S
H3527 C3551 0.951 . S
H3528 C3553 0.951 . S
H3529 C3555 0.950 . S
H3530 C3556 0.950 . S
H3531 C3558 0.950 . S
H3532 C3561 0.950 . S
H3533 C3562 0.950 . S
H3534 C3564 0.950 . S
H3535 C3565 0.950 . S
C3536 H3518 0.951 . S
C3536 C3537 1.366 . S
C3536 C3538 1.388 . S
C3537 C3536 1.366 . S
C3537 C3541 1.385 . S
C3538 H3519 0.951 . S
C3538 C3536 1.388 . S
C3538 C3539 1.366 . S
C3539 C3538 1.366 . S
C3539 C3540 1.414 . S
C3539 C3542 1.499 . S
C3540 H3520 0.950 . S
C3540 C3539 1.414 . S
C3540 C3541 1.374 . S
C3541 H3521 0.950 . S
C3541 C3537 1.385 . S
C3541 C3540 1.374 . S
C3542 C3539 1.499 . S
C3542 C3543 1.373 . S
C3542 C3544 1.389 . S
C3543 H3522 0.950 . S
C3543 C3542 1.373 . S
C3543 C3559 1.377 . S
C3544 C3542 1.389 . S
C3544 C3545 1.524 1_556 S
C3544 C3558 1.377 . S
C3545 C3544 1.524 1_554 S
C3545 C3546 1.397 . S
C3545 C3550 1.363 . S
C3546 H3523 0.950 1_554 S
C3546 C3545 1.397 . S
C3546 C3547 1.334 . S
C3547 H3524 0.950 . S
C3547 C3546 1.334 . S
C3547 C3548 1.287 . S
C3548 C3547 1.287 . S
C3548 C3549 1.524 . S
C3548 H3567 0.913 . S
C3549 H3525 0.950 . S
C3549 C3548 1.524 . S
C3549 C3550 1.415 . S
C3550 H3526 0.950 . S
C3550 C3545 1.363 . S
C3550 C3549 1.415 . S
C3551 H3527 0.951 . S
C3551 C3552 1.366 . S
C3551 C3553 1.388 . S
C3552 C3551 1.366 . S
C3552 C3556 1.385 . S
C3553 H3528 0.951 . S
C3553 C3551 1.388 . S
C3553 C3554 1.366 . S
C3554 C3553 1.366 . S
C3554 C3555 1.414 . S
C3554 C3557 1.499 . S
C3555 H3529 0.950 . S
C3555 C3554 1.414 . S
C3555 C3556 1.374 . S
C3556 H3530 0.950 . S
C3556 C3552 1.385 . S
C3556 C3555 1.374 . S
C3557 C3554 1.499 . S
C3557 C3558 1.373 . S
C3557 C3559 1.389 . S
C3558 H3531 0.950 . S
C3558 C3544 1.377 . S
C3558 C3557 1.373 . S
C3559 C3543 1.377 . S
C3559 C3557 1.389 . S
C3559 C3560 1.524 . S
C3560 C3559 1.524 . S
C3560 C3561 1.397 . S
C3560 C3565 1.363 . S
C3561 H3532 0.950 . S
C3561 C3560 1.397 . S
C3561 C3562 1.334 . S
C3562 H3533 0.950 . S
C3562 C3561 1.334 . S
C3562 C3563 1.287 . S
C3563 C3562 1.287 . S
C3563 C3564 1.524 . S
C3563 H3566 0.999 . S
C3564 H3534 0.950 . S
C3564 C3563 1.524 . S
C3564 C3565 1.415 . S
C3565 H3535 0.950 . S
C3565 C3560 1.363 . S
C3565 C3564 1.415 . S
H3566 C3563 0.999 . S
H3567 C3548 0.913 . S
H3568 C3586 0.951 . S
H3569 C3588 0.951 . S
H3570 C3590 0.950 . S
H3571 C3591 0.950 . S
H3572 C3593 0.950 . S
H3573 C3596 0.950 . S
H3574 C3597 0.950 . S
H3575 C3599 0.950 . S
H3576 C3600 0.950 . S
H3577 C3601 0.951 . S
H3578 C3603 0.951 . S
H3579 C3605 0.950 . S
H3580 C3606 0.950 . S
H3581 C3608 0.950 . S
H3582 C3611 0.950 . S
H3583 C3612 0.950 . S
H3584 C3614 0.950 . S
H3585 C3615 0.950 . S
C3586 H3568 0.951 . S
C3586 C3587 1.366 . S
C3586 C3588 1.388 . S
C3587 C3586 1.366 . S
C3587 C3591 1.385 . S
C3588 H3569 0.951 . S
C3588 C3586 1.388 . S
C3588 C3589 1.366 . S
C3589 C3588 1.366 . S
C3589 C3590 1.414 . S
C3589 C3592 1.499 . S
C3590 H3570 0.950 . S
C3590 C3589 1.414 . S
C3590 C3591 1.374 . S
C3591 H3571 0.950 . S
C3591 C3587 1.385 . S
C3591 C3590 1.374 . S
C3592 C3589 1.499 . S
C3592 C3593 1.373 . S
C3592 C3594 1.389 . S
C3593 H3572 0.950 . S
C3593 C3592 1.373 . S
C3593 C3609 1.377 . S
C3594 C3592 1.389 . S
C3594 C3595 1.524 . S
C3594 C3608 1.377 . S
C3595 C3594 1.524 . S
C3595 C3596 1.397 . S
C3595 C3600 1.363 . S
C3596 H3573 0.950 . S
C3596 C3595 1.397 . S
C3596 C3597 1.334 . S
C3597 H3574 0.950 . S
C3597 C3596 1.334 . S
C3597 C3598 1.287 . S
C3598 C3597 1.287 . S
C3598 C3599 1.524 . S
C3598 H3617 0.913 . S
C3599 H3575 0.950 . S
C3599 C3598 1.524 . S
C3599 C3600 1.415 . S
C3600 H3576 0.950 . S
C3600 C3595 1.363 . S
C3600 C3599 1.415 . S
C3601 H3577 0.951 . S
C3601 C3602 1.366 . S
C3601 C3603 1.388 . S
C3602 C3601 1.366 . S
C3602 C3606 1.385 . S
C3603 H3578 0.951 . S
C3603 C3601 1.388 . S
C3603 C3604 1.366 . S
C3604 C3603 1.366 . S
C3604 C3605 1.414 . S
C3604 C3607 1.499 . S
C3605 H3579 0.950 . S
C3605 C3604 1.414 . S
C3605 C3606 1.374 . S
C3606 H3580 0.950 . S
C3606 C3602 1.385 . S
C3606 C3605 1.374 . S
C3607 C3604 1.499 . S
C3607 C3608 1.373 . S
C3607 C3609 1.389 . S
C3608 H3581 0.950 . S
C3608 C3594 1.377 . S
C3608 C3607 1.373 . S
C3609 C3593 1.377 . S
C3609 C3607 1.389 . S
C3609 C3610 1.524 . S
C3610 C3609 1.524 . S
C3610 C3611 1.397 . S
C3610 C3615 1.363 . S
C3611 H3582 0.950 . S
C3611 C3610 1.397 . S
C3611 C3612 1.334 . S
C3612 H3583 0.950 . S
C3612 C3611 1.334 . S
C3612 C3613 1.287 . S
C3613 C3612 1.287 . S
C3613 C3614 1.524 . S
C3613 H3616 0.999 . S
C3614 H3584 0.950 . S
C3614 C3613 1.524 . S
C3614 C3615 1.415 . S
C3615 H3585 0.950 . S
C3615 C3610 1.363 . S
C3615 C3614 1.415 . S
H3616 C3613 0.999 . S
H3617 C3598 0.913 . S
H3618 C3636 0.951 . S
H3619 C3638 0.951 . S
H3620 C3640 0.950 . S
H3621 C3641 0.950 . S
H3622 C3643 0.950 . S
H3623 C3646 0.950 . S
H3624 C3647 0.950 . S
H3625 C3649 0.950 . S
H3626 C3650 0.950 . S
H3627 C3651 0.951 . S
H3628 C3653 0.951 . S
H3629 C3655 0.950 . S
H3630 C3656 0.950 . S
H3631 C3658 0.950 . S
H3632 C3661 0.950 . S
H3633 C3662 0.950 . S
H3634 C3664 0.950 . S
H3635 C3665 0.950 . S
C3636 H3618 0.951 . S
C3636 C3637 1.366 . S
C3636 C3638 1.388 . S
C3637 C3636 1.366 . S
C3637 C3641 1.385 . S
C3638 H3619 0.951 . S
C3638 C3636 1.388 . S
C3638 C3639 1.366 . S
C3639 C3638 1.366 . S
C3639 C3640 1.414 . S
C3639 C3642 1.499 . S
C3640 H3620 0.950 . S
C3640 C3639 1.414 . S
C3640 C3641 1.374 . S
C3641 H3621 0.950 . S
C3641 C3637 1.385 . S
C3641 C3640 1.374 . S
C3642 C3639 1.499 . S
C3642 C3643 1.373 . S
C3642 C3644 1.389 . S
C3643 H3622 0.950 . S
C3643 C3642 1.373 . S
C3643 C3659 1.377 . S
C3644 C3642 1.389 . S
C3644 C3645 1.524 . S
C3644 C3658 1.377 . S
C3645 C3644 1.524 . S
C3645 C3646 1.397 . S
C3645 C3650 1.363 . S
C3646 H3623 0.950 . S
C3646 C3645 1.397 . S
C3646 C3647 1.334 . S
C3647 H3624 0.950 . S
C3647 C3646 1.334 . S
C3647 C3648 1.287 . S
C3648 C3647 1.287 . S
C3648 C3649 1.524 . S
C3648 H3667 0.913 . S
C3649 H3625 0.950 . S
C3649 C3648 1.524 . S
C3649 C3650 1.415 . S
C3650 H3626 0.950 . S
C3650 C3645 1.363 . S
C3650 C3649 1.415 . S
C3651 H3627 0.951 . S
C3651 C3652 1.366 . S
C3651 C3653 1.388 . S
C3652 C3651 1.366 . S
C3652 C3656 1.385 . S
C3653 H3628 0.951 . S
C3653 C3651 1.388 . S
C3653 C3654 1.366 . S
C3654 C3653 1.366 . S
C3654 C3655 1.414 . S
C3654 C3657 1.499 . S
C3655 H3629 0.950 . S
C3655 C3654 1.414 . S
C3655 C3656 1.374 . S
C3656 H3630 0.950 . S
C3656 C3652 1.385 . S
C3656 C3655 1.374 . S
C3657 C3654 1.499 . S
C3657 C3658 1.373 . S
C3657 C3659 1.389 . S
C3658 H3631 0.950 . S
C3658 C3644 1.377 . S
C3658 C3657 1.373 . S
C3659 C3643 1.377 . S
C3659 C3657 1.389 . S
C3659 C3660 1.524 . S
C3660 C3659 1.524 . S
C3660 C3661 1.397 . S
C3660 C3665 1.363 . S
C3661 H3632 0.950 . S
C3661 C3660 1.397 . S
C3661 C3662 1.334 . S
C3662 H3633 0.950 . S
C3662 C3661 1.334 . S
C3662 C3663 1.287 . S
C3663 C3662 1.287 . S
C3663 C3664 1.524 . S
C3663 H3666 0.999 . S
C3664 H3634 0.950 . S
C3664 C3663 1.524 . S
C3664 C3665 1.415 . S
C3665 H3635 0.950 . S
C3665 C3660 1.363 . S
C3665 C3664 1.415 . S
H3666 C3663 0.999 . S
H3667 C3648 0.913 . S
H3668 C3686 0.951 . S
H3669 C3688 0.951 . S
H3670 C3690 0.950 . S
H3671 C3691 0.950 . S
H3672 C3693 0.950 . S
H3673 C3696 0.950 . S
H3674 C3697 0.950 . S
H3675 C3699 0.950 . S
H3676 C3700 0.950 . S
H3677 C3701 0.951 . S
H3678 C3703 0.951 . S
H3679 C3705 0.950 . S
H3680 C3706 0.950 . S
H3681 C3708 0.950 . S
H3682 C3711 0.950 . S
H3683 C3712 0.950 . S
H3684 C3714 0.950 . S
H3685 C3715 0.950 . S
C3686 H3668 0.951 . S
C3686 C3687 1.366 . S
C3686 C3688 1.388 . S
C3687 C3686 1.366 . S
C3687 C3691 1.385 . S
C3688 H3669 0.951 . S
C3688 C3686 1.388 . S
C3688 C3689 1.366 . S
C3689 C3688 1.366 . S
C3689 C3690 1.414 . S
C3689 C3692 1.499 . S
C3690 H3670 0.950 . S
C3690 C3689 1.414 . S
C3690 C3691 1.374 . S
C3691 H3671 0.950 . S
C3691 C3687 1.385 . S
C3691 C3690 1.374 . S
C3692 C3689 1.499 . S
C3692 C3693 1.373 . S
C3692 C3694 1.389 . S
C3693 H3672 0.950 . S
C3693 C3692 1.373 . S
C3693 C3709 1.377 . S
C3694 C3692 1.389 . S
C3694 C3695 1.524 . S
C3694 C3708 1.377 . S
C3695 C3694 1.524 . S
C3695 C3696 1.397 . S
C3695 C3700 1.363 . S
C3696 H3673 0.950 . S
C3696 C3695 1.397 . S
C3696 C3697 1.334 . S
C3697 H3674 0.950 . S
C3697 C3696 1.334 . S
C3697 C3698 1.287 . S
C3698 C3697 1.287 . S
C3698 C3699 1.524 . S
C3698 H3717 0.913 . S
C3699 H3675 0.950 . S
C3699 C3698 1.524 . S
C3699 C3700 1.415 . S
C3700 H3676 0.950 . S
C3700 C3695 1.363 . S
C3700 C3699 1.415 . S
C3701 H3677 0.951 . S
C3701 C3702 1.366 . S
C3701 C3703 1.388 . S
C3702 C3701 1.366 . S
C3702 C3706 1.385 . S
C3703 H3678 0.951 . S
C3703 C3701 1.388 . S
C3703 C3704 1.366 . S
C3704 C3703 1.366 . S
C3704 C3705 1.414 . S
C3704 C3707 1.499 . S
C3705 H3679 0.950 . S
C3705 C3704 1.414 . S
C3705 C3706 1.374 . S
C3706 H3680 0.950 . S
C3706 C3702 1.385 . S
C3706 C3705 1.374 . S
C3707 C3704 1.499 . S
C3707 C3708 1.373 . S
C3707 C3709 1.389 . S
C3708 H3681 0.950 . S
C3708 C3694 1.377 . S
C3708 C3707 1.373 . S
C3709 C3693 1.377 . S
C3709 C3707 1.389 . S
C3709 C3710 1.524 . S
C3710 C3709 1.524 . S
C3710 C3711 1.397 . S
C3710 C3715 1.363 . S
C3711 H3682 0.950 . S
C3711 C3710 1.397 . S
C3711 C3712 1.334 . S
C3712 H3683 0.950 . S
C3712 C3711 1.334 . S
C3712 C3713 1.287 . S
C3713 C3712 1.287 . S
C3713 C3714 1.524 . S
C3713 H3716 0.999 . S
C3714 H3684 0.950 . S
C3714 C3713 1.524 . S
C3714 C3715 1.415 . S
C3715 H3685 0.950 . S
C3715 C3710 1.363 . S
C3715 C3714 1.415 . S
H3716 C3713 0.999 . S
H3717 C3698 0.913 . S
H3718 C3736 0.951 . S
H3719 C3738 0.951 . S
H3720 C3740 0.950 . S
H3721 C3741 0.950 . S
H3722 C3743 0.950 . S
H3723 C3746 0.950 . S
H3724 C3747 0.950 . S
H3725 C3749 0.950 . S
H3726 C3750 0.950 . S
H3727 C3751 0.951 . S
H3728 C3753 0.951 . S
H3729 C3755 0.950 . S
H3730 C3756 0.950 . S
H3731 C3758 0.950 . S
H3732 C3761 0.950 . S
H3733 C3762 0.950 . S
H3734 C3764 0.950 . S
H3735 C3765 0.950 . S
C3736 H3718 0.951 . S
C3736 C3737 1.366 . S
C3736 C3738 1.388 . S
C3737 C3736 1.366 . S
C3737 C3741 1.385 . S
C3738 H3719 0.951 . S
C3738 C3736 1.388 . S
C3738 C3739 1.366 . S
C3739 C3738 1.366 . S
C3739 C3740 1.414 . S
C3739 C3742 1.499 . S
C3740 H3720 0.950 . S
C3740 C3739 1.414 . S
C3740 C3741 1.374 . S
C3741 H3721 0.950 . S
C3741 C3737 1.385 . S
C3741 C3740 1.374 . S
C3742 C3739 1.499 . S
C3742 C3743 1.373 . S
C3742 C3744 1.389 . S
C3743 H3722 0.950 . S
C3743 C3742 1.373 . S
C3743 C3759 1.377 . S
C3744 C3742 1.389 . S
C3744 C3745 1.524 . S
C3744 C3758 1.377 . S
C3745 C3744 1.524 . S
C3745 C3746 1.397 . S
C3745 C3750 1.363 . S
C3746 H3723 0.950 . S
C3746 C3745 1.397 . S
C3746 C3747 1.334 . S
C3747 H3724 0.950 . S
C3747 C3746 1.334 . S
C3747 C3748 1.287 . S
C3748 C3747 1.287 . S
C3748 C3749 1.524 . S
C3748 H3767 0.913 . S
C3749 H3725 0.950 . S
C3749 C3748 1.524 . S
C3749 C3750 1.415 . S
C3750 H3726 0.950 . S
C3750 C3745 1.363 . S
C3750 C3749 1.415 . S
C3751 H3727 0.951 . S
C3751 C3752 1.366 . S
C3751 C3753 1.388 . S
C3752 C3751 1.366 . S
C3752 C3756 1.385 . S
C3753 H3728 0.951 . S
C3753 C3751 1.388 . S
C3753 C3754 1.366 . S
C3754 C3753 1.366 . S
C3754 C3755 1.414 . S
C3754 C3757 1.499 . S
C3755 H3729 0.950 . S
C3755 C3754 1.414 . S
C3755 C3756 1.374 . S
C3756 H3730 0.950 . S
C3756 C3752 1.385 . S
C3756 C3755 1.374 . S
C3757 C3754 1.499 . S
C3757 C3758 1.373 . S
C3757 C3759 1.389 . S
C3758 H3731 0.950 . S
C3758 C3744 1.377 . S
C3758 C3757 1.373 . S
C3759 C3743 1.377 . S
C3759 C3757 1.389 . S
C3759 C3760 1.524 . S
C3760 C3759 1.524 . S
C3760 C3761 1.397 . S
C3760 C3765 1.363 . S
C3761 H3732 0.950 . S
C3761 C3760 1.397 . S
C3761 C3762 1.334 . S
C3762 H3733 0.950 . S
C3762 C3761 1.334 . S
C3762 C3763 1.287 . S
C3763 C3762 1.287 . S
C3763 C3764 1.524 . S
C3763 H3766 0.999 . S
C3764 H3734 0.950 . S
C3764 C3763 1.524 . S
C3764 C3765 1.415 . S
C3765 H3735 0.950 . S
C3765 C3760 1.363 . S
C3765 C3764 1.415 . S
H3766 C3763 0.999 . S
H3767 C3748 0.913 . S
H3768 C3786 0.951 . S
H3769 C3788 0.951 . S
H3770 C3790 0.950 . S
H3771 C3791 0.950 . S
H3772 C3793 0.950 . S
H3773 C3796 0.950 . S
H3774 C3797 0.950 . S
H3775 C3799 0.950 . S
H3776 C3800 0.950 . S
H3777 C3801 0.951 . S
H3778 C3803 0.951 . S
H3779 C3805 0.950 . S
H3780 C3806 0.950 . S
H3781 C3808 0.950 . S
H3782 C3811 0.950 . S
H3783 C3812 0.950 . S
H3784 C3814 0.950 . S
H3785 C3815 0.950 . S
C3786 H3768 0.951 . S
C3786 C3787 1.366 . S
C3786 C3788 1.388 . S
C3787 C3786 1.366 . S
C3787 C3791 1.385 . S
C3788 H3769 0.951 . S
C3788 C3786 1.388 . S
C3788 C3789 1.366 . S
C3789 C3788 1.366 . S
C3789 C3790 1.414 . S
C3789 C3792 1.499 . S
C3790 H3770 0.950 . S
C3790 C3789 1.414 . S
C3790 C3791 1.374 . S
C3791 H3771 0.950 . S
C3791 C3787 1.385 . S
C3791 C3790 1.374 . S
C3792 C3789 1.499 . S
C3792 C3793 1.373 . S
C3792 C3794 1.389 . S
C3793 H3772 0.950 . S
C3793 C3792 1.373 . S
C3793 C3809 1.377 1_455 S
C3794 C3792 1.389 . S
C3794 C3795 1.524 . S
C3794 C3808 1.377 1_455 S
C3795 C3794 1.524 . S
C3795 C3796 1.397 . S
C3795 C3800 1.363 . S
C3796 H3773 0.950 . S
C3796 C3795 1.397 . S
C3796 C3797 1.334 . S
C3797 H3774 0.950 . S
C3797 C3796 1.334 . S
C3797 C3798 1.287 . S
C3798 C3797 1.287 . S
C3798 C3799 1.524 . S
C3798 H3817 0.913 . S
C3799 H3775 0.950 . S
C3799 C3798 1.524 . S
C3799 C3800 1.415 . S
C3800 H3776 0.950 . S
C3800 C3795 1.363 . S
C3800 C3799 1.415 . S
C3801 H3777 0.951 . S
C3801 C3802 1.366 . S
C3801 C3803 1.388 . S
C3802 C3801 1.366 . S
C3802 C3806 1.385 . S
C3803 H3778 0.951 . S
C3803 C3801 1.388 . S
C3803 C3804 1.366 . S
C3804 C3803 1.366 . S
C3804 C3805 1.414 . S
C3804 C3807 1.499 . S
C3805 H3779 0.950 . S
C3805 C3804 1.414 . S
C3805 C3806 1.374 . S
C3806 H3780 0.950 . S
C3806 C3802 1.385 . S
C3806 C3805 1.374 . S
C3807 C3804 1.499 . S
C3807 C3808 1.373 . S
C3807 C3809 1.389 . S
C3808 H3781 0.950 . S
C3808 C3794 1.377 1_655 S
C3808 C3807 1.373 . S
C3809 C3793 1.377 1_655 S
C3809 C3807 1.389 . S
C3809 C3810 1.524 . S
C3810 C3809 1.524 . S
C3810 C3811 1.397 . S
C3810 C3815 1.363 . S
C3811 H3782 0.950 . S
C3811 C3810 1.397 . S
C3811 C3812 1.334 . S
C3812 H3783 0.950 . S
C3812 C3811 1.334 . S
C3812 C3813 1.287 . S
C3813 C3812 1.287 . S
C3813 C3814 1.524 . S
C3813 H3816 0.999 . S
C3814 H3784 0.950 . S
C3814 C3813 1.524 . S
C3814 C3815 1.415 . S
C3815 H3785 0.950 . S
C3815 C3810 1.363 . S
C3815 C3814 1.415 . S
H3816 C3813 0.999 . S
H3817 C3798 0.913 . S
H3818 C3836 0.951 . S
H3819 C3838 0.951 . S
H3820 C3840 0.950 . S
H3821 C3841 0.950 . S
H3822 C3843 0.950 . S
H3823 C3846 0.950 . S
H3824 C3847 0.950 . S
H3825 C3849 0.950 . S
H3826 C3850 0.950 . S
H3827 C3851 0.951 . S
H3828 C3853 0.951 . S
H3829 C3855 0.950 . S
H3830 C3856 0.950 . S
H3831 C3858 0.950 . S
H3832 C3861 0.950 . S
H3833 C3862 0.950 . S
H3834 C3864 0.950 . S
H3835 C3865 0.950 . S
C3836 H3818 0.951 . S
C3836 C3837 1.366 . S
C3836 C3838 1.388 . S
C3837 C3836 1.366 . S
C3837 C3841 1.385 . S
C3838 H3819 0.951 . S
C3838 C3836 1.388 . S
C3838 C3839 1.366 . S
C3839 C3838 1.366 . S
C3839 C3840 1.414 . S
C3839 C3842 1.499 . S
C3840 H3820 0.950 . S
C3840 C3839 1.414 . S
C3840 C3841 1.374 . S
C3841 H3821 0.950 . S
C3841 C3837 1.385 . S
C3841 C3840 1.374 . S
C3842 C3839 1.499 . S
C3842 C3843 1.373 . S
C3842 C3844 1.389 . S
C3843 H3822 0.950 . S
C3843 C3842 1.373 . S
C3843 C3859 1.377 . S
C3844 C3842 1.389 . S
C3844 C3845 1.524 . S
C3844 C3858 1.377 . S
C3845 C3844 1.524 . S
C3845 C3846 1.397 . S
C3845 C3850 1.363 . S
C3846 H3823 0.950 . S
C3846 C3845 1.397 . S
C3846 C3847 1.334 . S
C3847 H3824 0.950 . S
C3847 C3846 1.334 . S
C3847 C3848 1.287 . S
C3848 C3847 1.287 . S
C3848 C3849 1.524 . S
C3848 H3867 0.913 . S
C3849 H3825 0.950 . S
C3849 C3848 1.524 . S
C3849 C3850 1.415 . S
C3850 H3826 0.950 . S
C3850 C3845 1.363 . S
C3850 C3849 1.415 . S
C3851 H3827 0.951 . S
C3851 C3852 1.366 . S
C3851 C3853 1.388 . S
C3852 C3851 1.366 . S
C3852 C3856 1.385 . S
C3853 H3828 0.951 . S
C3853 C3851 1.388 . S
C3853 C3854 1.366 . S
C3854 C3853 1.366 . S
C3854 C3855 1.414 . S
C3854 C3857 1.499 . S
C3855 H3829 0.950 . S
C3855 C3854 1.414 . S
C3855 C3856 1.374 . S
C3856 H3830 0.950 . S
C3856 C3852 1.385 . S
C3856 C3855 1.374 . S
C3857 C3854 1.499 . S
C3857 C3858 1.373 . S
C3857 C3859 1.389 . S
C3858 H3831 0.950 . S
C3858 C3844 1.377 . S
C3858 C3857 1.373 . S
C3859 C3843 1.377 . S
C3859 C3857 1.389 . S
C3859 C3860 1.524 . S
C3860 C3859 1.524 . S
C3860 C3861 1.397 . S
C3860 C3865 1.363 . S
C3861 H3832 0.950 . S
C3861 C3860 1.397 . S
C3861 C3862 1.334 . S
C3862 H3833 0.950 . S
C3862 C3861 1.334 . S
C3862 C3863 1.287 . S
C3863 C3862 1.287 . S
C3863 C3864 1.524 . S
C3863 H3866 0.999 . S
C3864 H3834 0.950 . S
C3864 C3863 1.524 . S
C3864 C3865 1.415 . S
C3865 H3835 0.950 . S
C3865 C3860 1.363 . S
C3865 C3864 1.415 . S
H3866 C3863 0.999 . S
H3867 C3848 0.913 . S
H3868 C3886 0.951 . S
H3869 C3888 0.951 . S
H3870 C3890 0.950 . S
H3871 C3891 0.950 . S
H3872 C3893 0.950 . S
H3873 C3896 0.950 . S
H3874 C3897 0.950 . S
H3875 C3899 0.950 . S
H3876 C3900 0.950 . S
H3877 C3901 0.951 . S
H3878 C3903 0.951 . S
H3879 C3905 0.950 . S
H3880 C3906 0.950 . S
H3881 C3908 0.950 . S
H3882 C3911 0.950 . S
H3883 C3912 0.950 . S
H3884 C3914 0.950 . S
H3885 C3915 0.950 . S
C3886 H3868 0.951 . S
C3886 C3887 1.366 . S
C3886 C3888 1.388 . S
C3887 C3886 1.366 . S
C3887 C3891 1.385 . S
C3888 H3869 0.951 . S
C3888 C3886 1.388 . S
C3888 C3889 1.366 . S
C3889 C3888 1.366 . S
C3889 C3890 1.414 . S
C3889 C3892 1.499 . S
C3890 H3870 0.950 . S
C3890 C3889 1.414 . S
C3890 C3891 1.374 . S
C3891 H3871 0.950 . S
C3891 C3887 1.385 . S
C3891 C3890 1.374 . S
C3892 C3889 1.499 . S
C3892 C3893 1.373 . S
C3892 C3894 1.389 . S
C3893 H3872 0.950 . S
C3893 C3892 1.373 . S
C3893 C3909 1.377 1_565 S
C3894 C3892 1.389 . S
C3894 C3895 1.524 . S
C3894 C3908 1.377 1_565 S
C3895 C3894 1.524 . S
C3895 C3896 1.397 . S
C3895 C3900 1.363 . S
C3896 H3873 0.950 . S
C3896 C3895 1.397 . S
C3896 C3897 1.334 . S
C3897 H3874 0.950 . S
C3897 C3896 1.334 . S
C3897 C3898 1.287 . S
C3898 C3897 1.287 . S
C3898 C3899 1.524 . S
C3898 H3917 0.913 . S
C3899 H3875 0.950 . S
C3899 C3898 1.524 . S
C3899 C3900 1.415 . S
C3900 H3876 0.950 . S
C3900 C3895 1.363 . S
C3900 C3899 1.415 . S
C3901 H3877 0.951 . S
C3901 C3902 1.366 . S
C3901 C3903 1.388 . S
C3902 C3901 1.366 . S
C3902 C3906 1.385 . S
C3903 H3878 0.951 . S
C3903 C3901 1.388 . S
C3903 C3904 1.366 . S
C3904 C3903 1.366 . S
C3904 C3905 1.414 . S
C3904 C3907 1.499 . S
C3905 H3879 0.950 . S
C3905 C3904 1.414 . S
C3905 C3906 1.374 . S
C3906 H3880 0.950 . S
C3906 C3902 1.385 . S
C3906 C3905 1.374 . S
C3907 C3904 1.499 . S
C3907 C3908 1.373 . S
C3907 C3909 1.389 . S
C3908 H3881 0.950 . S
C3908 C3894 1.377 1_545 S
C3908 C3907 1.373 . S
C3909 C3893 1.377 1_545 S
C3909 C3907 1.389 . S
C3909 C3910 1.524 . S
C3910 C3909 1.524 . S
C3910 C3911 1.397 . S
C3910 C3915 1.363 . S
C3911 H3882 0.950 . S
C3911 C3910 1.397 . S
C3911 C3912 1.334 . S
C3912 H3883 0.950 . S
C3912 C3911 1.334 . S
C3912 C3913 1.287 . S
C3913 C3912 1.287 . S
C3913 C3914 1.524 . S
C3913 H3916 0.999 . S
C3914 H3884 0.950 . S
C3914 C3913 1.524 . S
C3914 C3915 1.415 . S
C3915 H3885 0.950 . S
C3915 C3910 1.363 . S
C3915 C3914 1.415 . S
H3916 C3913 0.999 . S
H3917 C3898 0.913 . S
H3918 C3936 0.951 . S
H3919 C3938 0.951 . S
H3920 C3940 0.950 . S
H3921 C3941 0.950 . S
H3922 C3943 0.950 . S
H3923 C3946 0.950 . S
H3924 C3947 0.950 . S
H3925 C3949 0.950 . S
H3926 C3950 0.950 . S
H3927 C3951 0.951 . S
H3928 C3953 0.951 . S
H3929 C3955 0.950 . S
H3930 C3956 0.950 . S
H3931 C3958 0.950 . S
H3932 C3961 0.950 . S
H3933 C3962 0.950 . S
H3934 C3964 0.950 . S
H3935 C3965 0.950 . S
C3936 H3918 0.951 . S
C3936 C3937 1.366 . S
C3936 C3938 1.388 . S
C3937 C3936 1.366 . S
C3937 C3941 1.385 . S
C3938 H3919 0.951 . S
C3938 C3936 1.388 . S
C3938 C3939 1.366 . S
C3939 C3938 1.366 . S
C3939 C3940 1.414 . S
C3939 C3942 1.499 . S
C3940 H3920 0.950 . S
C3940 C3939 1.414 . S
C3940 C3941 1.374 . S
C3941 H3921 0.950 . S
C3941 C3937 1.385 . S
C3941 C3940 1.374 . S
C3942 C3939 1.499 . S
C3942 C3943 1.373 . S
C3942 C3944 1.389 . S
C3943 H3922 0.950 . S
C3943 C3942 1.373 . S
C3943 C3959 1.377 1_545 S
C3944 C3942 1.389 . S
C3944 C3945 1.524 . S
C3944 C3958 1.377 1_545 S
C3945 C3944 1.524 . S
C3945 C3946 1.397 . S
C3945 C3950 1.363 . S
C3946 H3923 0.950 . S
C3946 C3945 1.397 . S
C3946 C3947 1.334 . S
C3947 H3924 0.950 . S
C3947 C3946 1.334 . S
C3947 C3948 1.287 . S
C3948 C3947 1.287 . S
C3948 C3949 1.524 . S
C3948 H3967 0.913 . S
C3949 H3925 0.950 . S
C3949 C3948 1.524 . S
C3949 C3950 1.415 . S
C3950 H3926 0.950 . S
C3950 C3945 1.363 . S
C3950 C3949 1.415 . S
C3951 H3927 0.951 . S
C3951 C3952 1.366 . S
C3951 C3953 1.388 . S
C3952 C3951 1.366 . S
C3952 C3956 1.385 . S
C3953 H3928 0.951 . S
C3953 C3951 1.388 . S
C3953 C3954 1.366 . S
C3954 C3953 1.366 . S
C3954 C3955 1.414 . S
C3954 C3957 1.499 . S
C3955 H3929 0.950 . S
C3955 C3954 1.414 . S
C3955 C3956 1.374 . S
C3956 H3930 0.950 . S
C3956 C3952 1.385 . S
C3956 C3955 1.374 . S
C3957 C3954 1.499 . S
C3957 C3958 1.373 . S
C3957 C3959 1.389 . S
C3958 H3931 0.950 . S
C3958 C3944 1.377 1_565 S
C3958 C3957 1.373 . S
C3959 C3943 1.377 1_565 S
C3959 C3957 1.389 . S
C3959 C3960 1.524 . S
C3960 C3959 1.524 . S
C3960 C3961 1.397 . S
C3960 C3965 1.363 . S
C3961 H3932 0.950 . S
C3961 C3960 1.397 . S
C3961 C3962 1.334 . S
C3962 H3933 0.950 . S
C3962 C3961 1.334 . S
C3962 C3963 1.287 . S
C3963 C3962 1.287 . S
C3963 C3964 1.524 . S
C3963 H3966 0.999 . S
C3964 H3934 0.950 . S
C3964 C3963 1.524 . S
C3964 C3965 1.415 . S
C3965 H3935 0.950 . S
C3965 C3960 1.363 . S
C3965 C3964 1.415 . S
H3966 C3963 0.999 . S
H3967 C3948 0.913 . S
H3968 C3986 0.951 . S
H3969 C3988 0.951 . S
H3970 C3990 0.950 . S
H3971 C3991 0.950 . S
H3972 C3993 0.950 . S
H3973 C3996 0.950 . S
H3974 C3997 0.950 . S
H3975 C3999 0.950 . S
H3976 C4000 0.950 . S
H3977 C4001 0.951 . S
H3978 C4003 0.951 . S
H3979 C4005 0.950 . S
H3980 C4006 0.950 . S
H3981 C4008 0.950 . S
H3982 C4011 0.950 . S
H3983 C4012 0.950 . S
H3984 C4014 0.950 . S
H3985 C4015 0.950 . S
C3986 H3968 0.951 . S
C3986 C3987 1.366 . S
C3986 C3988 1.388 . S
C3987 C3986 1.366 . S
C3987 C3991 1.385 . S
C3988 H3969 0.951 . S
C3988 C3986 1.388 . S
C3988 C3989 1.366 . S
C3989 C3988 1.366 . S
C3989 C3990 1.414 . S
C3989 C3992 1.499 . S
C3990 H3970 0.950 . S
C3990 C3989 1.414 . S
C3990 C3991 1.374 . S
C3991 H3971 0.950 . S
C3991 C3987 1.385 . S
C3991 C3990 1.374 . S
C3992 C3989 1.499 . S
C3992 C3993 1.373 . S
C3992 C3994 1.389 . S
C3993 H3972 0.950 . S
C3993 C3992 1.373 . S
C3993 C4009 1.377 1_455 S
C3994 C3992 1.389 . S
C3994 C3995 1.524 . S
C3994 C4008 1.377 1_455 S
C3995 C3994 1.524 . S
C3995 C3996 1.397 . S
C3995 C4000 1.363 . S
C3996 H3973 0.950 . S
C3996 C3995 1.397 . S
C3996 C3997 1.334 . S
C3997 H3974 0.950 . S
C3997 C3996 1.334 . S
C3997 C3998 1.287 . S
C3998 C3997 1.287 . S
C3998 C3999 1.524 . S
C3998 H4017 0.913 . S
C3999 H3975 0.950 . S
C3999 C3998 1.524 . S
C3999 C4000 1.415 . S
C4000 H3976 0.950 . S
C4000 C3995 1.363 . S
C4000 C3999 1.415 . S
C4001 H3977 0.951 . S
C4001 C4002 1.366 . S
C4001 C4003 1.388 . S
C4002 C4001 1.366 . S
C4002 C4006 1.385 . S
C4003 H3978 0.951 . S
C4003 C4001 1.388 . S
C4003 C4004 1.366 . S
C4004 C4003 1.366 . S
C4004 C4005 1.414 . S
C4004 C4007 1.499 . S
C4005 H3979 0.950 . S
C4005 C4004 1.414 . S
C4005 C4006 1.374 . S
C4006 H3980 0.950 . S
C4006 C4002 1.385 . S
C4006 C4005 1.374 . S
C4007 C4004 1.499 . S
C4007 C4008 1.373 . S
C4007 C4009 1.389 . S
C4008 H3981 0.950 . S
C4008 C3994 1.377 1_655 S
C4008 C4007 1.373 . S
C4009 C3993 1.377 1_655 S
C4009 C4007 1.389 . S
C4009 C4010 1.524 . S
C4010 C4009 1.524 . S
C4010 C4011 1.397 . S
C4010 C4015 1.363 . S
C4011 H3982 0.950 . S
C4011 C4010 1.397 . S
C4011 C4012 1.334 . S
C4012 H3983 0.950 . S
C4012 C4011 1.334 . S
C4012 C4013 1.287 . S
C4013 C4012 1.287 . S
C4013 C4014 1.524 . S
C4013 H4016 0.999 . S
C4014 H3984 0.950 . S
C4014 C4013 1.524 . S
C4014 C4015 1.415 . S
C4015 H3985 0.950 . S
C4015 C4010 1.363 . S
C4015 C4014 1.415 . S
H4016 C4013 0.999 . S
H4017 C3998 0.913 . S
H4018 C4036 0.951 . S
H4019 C4038 0.951 . S
H4020 C4040 0.950 . S
H4021 C4041 0.950 . S
H4022 C4043 0.950 . S
H4023 C4046 0.950 . S
H4024 C4047 0.950 . S
H4025 C4049 0.950 . S
H4026 C4050 0.950 . S
H4027 C4051 0.951 . S
H4028 C4053 0.951 . S
H4029 C4055 0.950 . S
H4030 C4056 0.950 . S
H4031 C4058 0.950 . S
H4032 C4061 0.950 . S
H4033 C4062 0.950 . S
H4034 C4064 0.950 . S
H4035 C4065 0.950 . S
C4036 H4018 0.951 . S
C4036 C4037 1.366 . S
C4036 C4038 1.388 . S
C4037 C4036 1.366 . S
C4037 C4041 1.385 . S
C4038 H4019 0.951 . S
C4038 C4036 1.388 . S
C4038 C4039 1.366 . S
C4039 C4038 1.366 . S
C4039 C4040 1.414 . S
C4039 C4042 1.499 . S
C4040 H4020 0.950 . S
C4040 C4039 1.414 . S
C4040 C4041 1.374 . S
C4041 H4021 0.950 . S
C4041 C4037 1.385 . S
C4041 C4040 1.374 . S
C4042 C4039 1.499 . S
C4042 C4043 1.373 . S
C4042 C4044 1.389 . S
C4043 H4022 0.950 . S
C4043 C4042 1.373 . S
C4043 C4059 1.377 . S
C4044 C4042 1.389 . S
C4044 C4045 1.524 . S
C4044 C4058 1.377 . S
C4045 C4044 1.524 . S
C4045 C4046 1.397 . S
C4045 C4050 1.363 . S
C4046 H4023 0.950 . S
C4046 C4045 1.397 . S
C4046 C4047 1.334 . S
C4047 H4024 0.950 . S
C4047 C4046 1.334 . S
C4047 C4048 1.287 . S
C4048 C4047 1.287 . S
C4048 C4049 1.524 . S
C4048 H4067 0.913 . S
C4049 H4025 0.950 . S
C4049 C4048 1.524 . S
C4049 C4050 1.415 . S
C4050 H4026 0.950 . S
C4050 C4045 1.363 . S
C4050 C4049 1.415 . S
C4051 H4027 0.951 . S
C4051 C4052 1.366 . S
C4051 C4053 1.388 . S
C4052 C4051 1.366 . S
C4052 C4056 1.385 . S
C4053 H4028 0.951 . S
C4053 C4051 1.388 . S
C4053 C4054 1.366 . S
C4054 C4053 1.366 . S
C4054 C4055 1.414 . S
C4054 C4057 1.499 . S
C4055 H4029 0.950 . S
C4055 C4054 1.414 . S
C4055 C4056 1.374 . S
C4056 H4030 0.950 . S
C4056 C4052 1.385 . S
C4056 C4055 1.374 . S
C4057 C4054 1.499 . S
C4057 C4058 1.373 . S
C4057 C4059 1.389 . S
C4058 H4031 0.950 . S
C4058 C4044 1.377 . S
C4058 C4057 1.373 . S
C4059 C4043 1.377 . S
C4059 C4057 1.389 . S
C4059 C4060 1.524 . S
C4060 C4059 1.524 . S
C4060 C4061 1.397 . S
C4060 C4065 1.363 . S
C4061 H4032 0.950 . S
C4061 C4060 1.397 . S
C4061 C4062 1.334 . S
C4062 H4033 0.950 . S
C4062 C4061 1.334 . S
C4062 C4063 1.287 . S
C4063 C4062 1.287 . S
C4063 C4064 1.524 . S
C4063 H4066 0.999 . S
C4064 H4034 0.950 . S
C4064 C4063 1.524 . S
C4064 C4065 1.415 . S
C4065 H4035 0.950 . S
C4065 C4060 1.363 . S
C4065 C4064 1.415 . S
H4066 C4063 0.999 . S
H4067 C4048 0.913 . S
C487 C43 1.081 . S
C502 C10 1.081 . S
C537 C56 1.081 . S
C552 C17 1.081 . S
C587 C69 1.081 . S
C602 C36 1.081 . S
C637 C88 1.081 . S
C652 C121 1.081 . S
C687 C95 1.081 . S
C702 C140 1.081 . S
C737 C153 1.081 . S
C752 C114 1.081 . S
C787 C160 1.080 . S
C802 C205 1.080 . S
C837 C179 1.080 . S
C852 C212 1.080 . S
C887 C186 1.080 . S
C902 C225 1.080 . S
C937 C244 1.080 . S
C952 C277 1.079 . S
C987 C296 1.080 . S
C1002 C251 1.079 . S
C1037 C270 1.080 . S
C1052 C309 1.079 . S
C1087 C322 1.080 . S
C1102 C361 1.079 . S
C1137 C335 1.080 . S
C1152 C368 1.079 . S
C1187 C381 1.080 . S
C1202 C342 1.079 . S
C1237 C433 1.080 . S
C1252 C400 1.080 . S
C1287 C452 1.080 . S
C1302 C407 1.080 . S
C1337 C465 1.080 . S
C1352 C420 1.080 . S
C1387 C147 1.669 . S
C1402 C3 1.688 . S
C1437 C18 1.688 . S
C1452 C127 1.669 . S
C1487 C29 1.688 . S
C1502 C134 1.668 . S
C1537 C101 1.670 . S
C1552 C44 1.690 . S
C1587 C57 1.690 . S
C1602 C108 1.671 . S
C1637 C82 1.671 . S
C1652 C70 1.690 . S
C1687 C81 1.688 . S
C1702 C75 1.669 . S
C1737 C96 1.688 . S
C1752 C49 1.669 . S
C1787 C62 1.669 . S
C1802 C107 1.688 . S
C1837 C23 1.671 . S
C1852 C122 1.690 . S
C1887 C30 1.671 . S
C1902 C133 1.691 . S
C1937 C146 1.690 . S
C1952 C4 1.671 . S
C1987 C161 1.682 . S
C2002 C303 1.660 . S
C2037 C283 1.662 . S
C2052 C172 1.680 . S
C2087 C290 1.663 . S
C2102 C187 1.680 . S
C2137 C198 1.689 . S
C2152 C257 1.669 . S
C2187 C264 1.669 . S
C2202 C213 1.689 . S
C2237 C226 1.689 . S
C2252 C238 1.669 . S
C2287 C237 1.688 . S
C2302 C231 1.668 . S
C2337 C252 1.688 . S
C2352 C199 1.668 . S
C2387 C218 1.668 . S
C2402 C263 1.688 . S
C2437 C173 1.674 . S
C2452 C278 1.697 . S
C2487 C192 1.674 . S
C2502 C289 1.697 . S
C2537 C302 1.694 . S
C2552 C166 1.677 . S
C2587 C459 1.668 . S
C2602 C315 1.688 . S
C2637 C328 1.688 . S
C2652 C439 1.669 . S
C2687 C343 1.688 . S
C2702 C446 1.668 . S
C2737 C354 1.694 . S
C2752 C413 1.678 . S
C2787 C426 1.674 . S
C2802 C369 1.697 . S
C2837 C382 1.694 . S
C2852 C394 1.678 . S
C2887 C387 1.663 . S
C2902 C393 1.679 . S
C2937 C355 1.663 . S
C2952 C408 1.679 . S
C2987 C374 1.663 . S
C3002 C421 1.680 . S
C3037 C329 1.669 . S
C3052 C434 1.689 . S
C3087 C348 1.669 . S
C3102 C445 1.689 . S
C3137 C316 1.669 . S
C3152 C458 1.689 . S
C3187 C380 1.403 . S
C3202 C5 1.404 . S
C3237 C16 1.403 . S
C3252 C356 1.404 . S
C3287 C367 1.403 . S
C3302 C31 1.404 . S
C3337 C42 1.403 . S
C3352 C174 1.404 . S
C3387 C185 1.404 . S
C3402 C55 1.404 . S
C3437 C68 1.403 . S
C3452 C159 1.403 . S
C3487 C83 1.403 . S
C3502 C304 1.404 . S
C3537 C276 1.403 . S
C3552 C94 1.404 . S
C3587 C109 1.403 . S
C3602 C291 1.404 . S
C3637 C120 1.404 . S
C3652 C406 1.403 . S
C3687 C135 1.403 . S
C3702 C419 1.403 . S
C3737 C395 1.404 . S
C3752 C148 1.403 . S
C3787 C330 1.404 . S
C3802 C200 1.403 . S
C3837 C341 1.404 . S
C3852 C211 1.403 . S
C3887 C317 1.404 . S
C3902 C224 1.403 . S
C3937 C239 1.403 . S
C3952 C460 1.403 . S
C3987 C432 1.404 . S
C4002 C250 1.404 . S
C4037 C265 1.403 . S
C4052 C447 1.404 . S
