# Generated by pormake.
# Topology uot, (4)-cn, num edge types: 1
# Building blocks:
#     Node 0, Type 0, BuildingBlock: CEKHIL_clean_sbu_0, # of connection points: 4
#     Node 1, Type 0, BuildingBlock: CEKHIL_clean_sbu_0, # of connection points: 4
#     Node 2, Type 0, BuildingBlock: CEKHIL_clean_sbu_0, # of connection points: 4
#     Node 3, Type 0, BuildingBlock: CEKHIL_clean_sbu_0, # of connection points: 4
#     Node 4, Type 0, BuildingBlock: CEKHIL_clean_sbu_0, # of connection points: 4
#     Node 5, Type 0, BuildingBlock: CEKHIL_clean_sbu_0, # of connection points: 4
#     Node 6, Type 0, BuildingBlock: CEKHIL_clean_sbu_0, # of connection points: 4
#     Node 7, Type 0, BuildingBlock: CEKHIL_clean_sbu_0, # of connection points: 4
#     Node 8, Type 0, BuildingBlock: CEKHIL_clean_sbu_0, # of connection points: 4
#     Node 9, Type 0, BuildingBlock: CEKHIL_clean_sbu_0, # of connection points: 4
#     Node 10, Type 0, BuildingBlock: CEKHIL_clean_sbu_0, # of connection points: 4
#     Node 11, Type 0, BuildingBlock: CEKHIL_clean_sbu_0, # of connection points: 4
#     Node 12, Type 0, BuildingBlock: CEKHIL_clean_sbu_0, # of connection points: 4
#     Node 13, Type 0, BuildingBlock: CEKHIL_clean_sbu_0, # of connection points: 4
#     Node 14, Type 0, BuildingBlock: CEKHIL_clean_sbu_0, # of connection points: 4
#     Node 15, Type 0, BuildingBlock: CEKHIL_clean_sbu_0, # of connection points: 4
#     Edge 16, Type (0, 0), BuildingBlock: EZIPEK_clean_linker_0, # of connection points: 2
#     Edge 17, Type (0, 0), BuildingBlock: EZIPEK_clean_linker_0, # of connection points: 2
#     Edge 18, Type (0, 0), BuildingBlock: EZIPEK_clean_linker_0, # of connection points: 2
#     Edge 19, Type (0, 0), BuildingBlock: EZIPEK_clean_linker_0, # of connection points: 2
#     Edge 20, Type (0, 0), BuildingBlock: EZIPEK_clean_linker_0, # of connection points: 2
#     Edge 21, Type (0, 0), BuildingBlock: EZIPEK_clean_linker_0, # of connection points: 2
#     Edge 22, Type (0, 0), BuildingBlock: EZIPEK_clean_linker_0, # of connection points: 2
#     Edge 23, Type (0, 0), BuildingBlock: EZIPEK_clean_linker_0, # of connection points: 2
#     Edge 24, Type (0, 0), BuildingBlock: EZIPEK_clean_linker_0, # of connection points: 2
#     Edge 25, Type (0, 0), BuildingBlock: EZIPEK_clean_linker_0, # of connection points: 2
#     Edge 26, Type (0, 0), BuildingBlock: EZIPEK_clean_linker_0, # of connection points: 2
#     Edge 27, Type (0, 0), BuildingBlock: EZIPEK_clean_linker_0, # of connection points: 2
#     Edge 28, Type (0, 0), BuildingBlock: EZIPEK_clean_linker_0, # of connection points: 2
#     Edge 29, Type (0, 0), BuildingBlock: EZIPEK_clean_linker_0, # of connection points: 2
#     Edge 30, Type (0, 0), BuildingBlock: EZIPEK_clean_linker_0, # of connection points: 2
#     Edge 31, Type (0, 0), BuildingBlock: EZIPEK_clean_linker_0, # of connection points: 2
#     Edge 32, Type (0, 0), BuildingBlock: EZIPEK_clean_linker_0, # of connection points: 2
#     Edge 33, Type (0, 0), BuildingBlock: EZIPEK_clean_linker_0, # of connection points: 2
#     Edge 34, Type (0, 0), BuildingBlock: EZIPEK_clean_linker_0, # of connection points: 2
#     Edge 35, Type (0, 0), BuildingBlock: EZIPEK_clean_linker_0, # of connection points: 2
#     Edge 36, Type (0, 0), BuildingBlock: EZIPEK_clean_linker_0, # of connection points: 2
#     Edge 37, Type (0, 0), BuildingBlock: EZIPEK_clean_linker_0, # of connection points: 2
#     Edge 38, Type (0, 0), BuildingBlock: EZIPEK_clean_linker_0, # of connection points: 2
#     Edge 39, Type (0, 0), BuildingBlock: EZIPEK_clean_linker_0, # of connection points: 2
#     Edge 40, Type (0, 0), BuildingBlock: EZIPEK_clean_linker_0, # of connection points: 2
#     Edge 41, Type (0, 0), BuildingBlock: EZIPEK_clean_linker_0, # of connection points: 2
#     Edge 42, Type (0, 0), BuildingBlock: EZIPEK_clean_linker_0, # of connection points: 2
#     Edge 43, Type (0, 0), BuildingBlock: EZIPEK_clean_linker_0, # of connection points: 2
#     Edge 44, Type (0, 0), BuildingBlock: EZIPEK_clean_linker_0, # of connection points: 2
#     Edge 45, Type (0, 0), BuildingBlock: EZIPEK_clean_linker_0, # of connection points: 2
#     Edge 46, Type (0, 0), BuildingBlock: EZIPEK_clean_linker_0, # of connection points: 2
#     Edge 47, Type (0, 0), BuildingBlock: EZIPEK_clean_linker_0, # of connection points: 2
# Relax obj value: 0.066
# Max RMSD: 0.083
# Mean RMSD: 0.083
data_MOF--net-uot--node1-CEKHIL_clean_sbu_0--edge1-EZIPEK_clean_linker_0
_symmetry_space_group_name_H-M    P1
_symmetry_Int_Tables_number       1
_symmetry_cell_setting            triclinic
loop_
_symmetry_equiv_pos_as_xyz
'x, y, z'
_cell_length_a     32.408309
_cell_length_b     32.367756
_cell_length_c     29.300521
_cell_angle_alpha  90.006945
_cell_angle_beta   89.916483
_cell_angle_gamma 89.935029
loop_
_atom_site_label
_atom_site_type_symbol
_atom_site_fract_x
_atom_site_fract_y
_atom_site_fract_z
_atom_type_partial_charge
Co0 Co 0.21242 0.42204 0.31704 0.0
O1 O 0.24177 0.37216 0.3323 0.0
O2 O 0.26982 0.42707 0.29929 0.0
C3 C 0.15683 0.39121 0.28445 0.0
O4 O 0.19198 0.47851 0.29558 0.0
Co5 Co 0.12539 0.44022 0.35928 0.0
O6 O 0.1241 0.4831 0.31096 0.0
C7 C 0.20126 0.45691 0.41267 0.0
C8 C 0.27409 0.38967 0.31475 0.0
C9 C 0.15695 0.49715 0.29266 0.0
O10 O 0.22463 0.44658 0.37898 0.0
O11 O 0.16187 0.4539 0.4124 0.0
O12 O 0.19089 0.39578 0.26158 0.0
O13 O 0.15917 0.40104 0.327 0.0
Co14 Co 0.429 0.79482 0.68052 0.0
O15 O 0.38219 0.76561 0.65593 0.0
O16 O 0.43476 0.73602 0.69144 0.0
C17 C 0.39134 0.84513 0.71555 0.0
O18 O 0.48184 0.81432 0.71245 0.0
Co19 Co 0.44758 0.88584 0.65241 0.0
O20 O 0.49103 0.8824 0.69997 0.0
C21 C 0.46704 0.81767 0.58891 0.0
C22 C 0.3987 0.7323 0.67249 0.0
C23 C 0.5015 0.84847 0.71876 0.0
O24 O 0.45951 0.79065 0.62019 0.0
O25 O 0.45991 0.85637 0.5936 0.0
O26 O 0.39602 0.80915 0.73442 0.0
O27 O 0.40635 0.84802 0.67488 0.0
Co28 Co 0.79823 0.57835 0.32524 0.0
O29 O 0.77332 0.62942 0.34497 0.0
O30 O 0.73956 0.57796 0.31204 0.0
C31 C 0.85268 0.60816 0.28972 0.0
O32 O 0.81387 0.52148 0.29946 0.0
Co33 Co 0.88609 0.55301 0.35846 0.0
O34 O 0.88183 0.51051 0.31006 0.0
C35 C 0.81322 0.53901 0.41791 0.0
C36 C 0.73893 0.61515 0.32892 0.0
C37 C 0.84708 0.50009 0.2934 0.0
O38 O 0.78845 0.55246 0.38699 0.0
O39 O 0.85258 0.53914 0.41409 0.0
O40 O 0.81726 0.60531 0.26933 0.0
O41 O 0.85312 0.5963 0.33178 0.0
Co42 Co 0.5719 0.20503 0.67819 0.0
O43 O 0.62293 0.23302 0.66535 0.0
O44 O 0.56846 0.26206 0.69817 0.0
C45 C 0.60075 0.14692 0.70837 0.0
O46 O 0.51437 0.18574 0.69738 0.0
Co47 Co 0.55246 0.12325 0.62711 0.0
O48 O 0.50006 0.12572 0.6618 0.0
C49 C 0.54199 0.20236 0.57962 0.0
C50 C 0.60601 0.26569 0.68292 0.0
C51 C 0.49028 0.15503 0.68884 0.0
O52 O 0.54955 0.22197 0.61673 0.0
O53 O 0.54524 0.16317 0.57554 0.0
O54 O 0.59586 0.17983 0.73316 0.0
O55 O 0.59196 0.15133 0.66565 0.0
Co56 Co 0.20984 0.57969 0.67014 0.0
O57 O 0.241 0.62701 0.65059 0.0
O58 O 0.26714 0.57356 0.6881 0.0
C59 C 0.1558 0.61399 0.70121 0.0
O60 O 0.18571 0.52649 0.69708 0.0
Co61 Co 0.12431 0.56504 0.62381 0.0
O62 O 0.12381 0.516 0.66411 0.0
C63 C 0.19982 0.54342 0.57436 0.0
C64 C 0.27267 0.60974 0.66966 0.0
C65 C 0.15222 0.50542 0.69187 0.0
O66 O 0.22153 0.55063 0.61022 0.0
O67 O 0.16126 0.55119 0.5714 0.0
O68 O 0.19007 0.61001 0.72365 0.0
O69 O 0.15763 0.60276 0.65894 0.0
Co70 Co 0.57495 0.8002 0.3206 0.0
O71 O 0.62721 0.77767 0.3403 0.0
O72 O 0.57745 0.74165 0.30727 0.0
C73 C 0.60164 0.8573 0.28532 0.0
O74 O 0.51815 0.81203 0.29296 0.0
Co75 Co 0.54229 0.88323 0.35635 0.0
O76 O 0.48947 0.86716 0.32719 0.0
C77 C 0.54027 0.81183 0.41652 0.0
C78 C 0.61437 0.74248 0.32449 0.0
C79 C 0.48776 0.83702 0.29944 0.0
O80 O 0.54977 0.78803 0.38285 0.0
O81 O 0.54051 0.85116 0.41396 0.0
O82 O 0.60097 0.82173 0.26483 0.0
O83 O 0.58951 0.85677 0.32742 0.0
Co84 Co 0.78965 0.42304 0.67951 0.0
O85 O 0.76038 0.37375 0.66291 0.0
O86 O 0.73129 0.42991 0.69226 0.0
C87 C 0.841 0.39056 0.71766 0.0
O88 O 0.81071 0.47923 0.70137 0.0
Co89 Co 0.87984 0.43657 0.64433 0.0
O90 O 0.87959 0.48062 0.69129 0.0
C91 C 0.80866 0.45638 0.58466 0.0
C92 C 0.72746 0.39207 0.67785 0.0
C93 C 0.84624 0.49649 0.70643 0.0
O94 O 0.78269 0.44666 0.61616 0.0
O95 O 0.8478 0.45226 0.58838 0.0
O96 O 0.80575 0.39737 0.73733 0.0
O97 O 0.84244 0.39961 0.6748 0.0
Co98 Co 0.43163 0.20571 0.321 0.0
O99 O 0.3832 0.23707 0.33614 0.0
O100 O 0.43618 0.2614 0.29654 0.0
C101 C 0.39802 0.14835 0.29633 0.0
O102 O 0.4859 0.1809 0.29743 0.0
Co103 Co 0.45024 0.12876 0.37725 0.0
O104 O 0.50539 0.13265 0.34775 0.0
C105 C 0.46396 0.20782 0.41892 0.0
C106 C 0.39979 0.26756 0.31424 0.0
C107 C 0.51229 0.15423 0.31223 0.0
O108 O 0.45923 0.22471 0.37957 0.0
O109 O 0.45611 0.16994 0.42676 0.0
O110 O 0.40338 0.17996 0.26976 0.0
O111 O 0.40873 0.15405 0.33846 0.0
Co112 Co 0.7126 0.92616 0.82767 0.0
O113 O 0.74304 0.87996 0.85157 0.0
O114 O 0.76955 0.92937 0.80805 0.0
C115 C 0.6573 0.88979 0.80176 0.0
O116 O 0.68992 0.97731 0.79517 0.0
Co117 Co 0.6267 0.94772 0.87123 0.0
O118 O 0.62541 0.98891 0.82141 0.0
C119 C 0.70334 0.97003 0.91906 0.0
C120 C 0.77456 0.89456 0.82953 0.0
C121 C 0.6557 0.9977 0.7953 0.0
O122 O 0.72524 0.95979 0.88416 0.0
O123 O 0.66443 0.96408 0.92209 0.0
O124 O 0.69148 0.89102 0.7787 0.0
O125 O 0.6599 0.90601 0.84189 0.0
Co126 Co 0.92727 0.29644 0.17912 0.0
O127 O 0.88223 0.26119 0.16201 0.0
O128 O 0.9393 0.23977 0.19628 0.0
C129 C 0.88512 0.34557 0.21068 0.0
O130 O 0.97975 0.32381 0.20283 0.0
Co131 Co 0.93476 0.38562 0.14055 0.0
O132 O 0.9785 0.39187 0.18722 0.0
C133 C 0.96259 0.31369 0.08527 0.0
C134 C 0.90293 0.23113 0.18014 0.0
C135 C 0.99523 0.36035 0.20558 0.0
O136 O 0.95449 0.28838 0.11789 0.0
O137 O 0.95474 0.35247 0.08675 0.0
O138 O 0.8971 0.31348 0.23372 0.0
O139 O 0.8984 0.34614 0.16912 0.0
Co140 Co 0.28517 0.07642 0.81526 0.0
O141 O 0.25658 0.12571 0.8332 0.0
O142 O 0.22695 0.07131 0.80091 0.0
C143 C 0.3383 0.1092 0.77988 0.0
O144 O 0.3062 0.02035 0.79201 0.0
Co145 Co 0.37328 0.06046 0.85493 0.0
O146 O 0.3739 0.01538 0.80927 0.0
C147 C 0.29924 0.04212 0.91065 0.0
C148 C 0.22352 0.10858 0.81727 0.0
C149 C 0.34134 1.00147 0.79036 0.0
O150 O 0.27537 0.05137 0.87724 0.0
O151 O 0.33851 0.04635 0.90968 0.0
O152 O 0.30331 0.10381 0.75929 0.0
O153 O 0.33829 0.09847 0.82235 0.0
Co154 Co 0.0803 0.70441 0.17354 0.0
O155 O 0.12842 0.73472 0.15509 0.0
O156 O 0.07287 0.76241 0.18741 0.0
C157 C 0.11484 0.65282 0.2091 0.0
O158 O 0.0253 0.68269 0.19783 0.0
Co159 Co 0.06559 0.61453 0.13832 0.0
O160 O 0.02369 0.61383 0.18769 0.0
C161 C 0.04513 0.68632 0.07964 0.0
C162 C 0.10993 0.76716 0.17114 0.0
C163 C 0.00843 0.64709 0.20386 0.0
O164 O 0.05456 0.71196 0.11149 0.0
O165 O 0.04974 0.64713 0.08271 0.0
O166 O 0.1083 0.68771 0.22975 0.0
O167 O 0.10399 0.6518 0.16677 0.0
Co168 Co 0.71797 0.08114 0.1818 0.0
O169 O 0.75131 0.1282 0.16704 0.0
O170 O 0.77501 0.07049 0.19845 0.0
C171 C 0.6659 0.11525 0.21712 0.0
O172 O 0.69089 0.02718 0.20312 0.0
Co173 Co 0.6332 0.07447 0.13365 0.0
O174 O 0.63254 0.01908 0.16241 0.0
C175 C 0.70714 0.05399 0.08213 0.0
C176 C 0.78223 0.10766 0.18342 0.0
C177 C 0.6581 0.00665 0.19246 0.0
O178 O 0.72854 0.05702 0.11891 0.0
O179 O 0.66917 0.06424 0.07961 0.0
O180 O 0.69996 0.10737 0.2386 0.0
O181 O 0.66687 0.10801 0.17367 0.0
Co182 Co 0.07479 0.30044 0.82133 0.0
O183 O 0.12493 0.27061 0.83371 0.0
O184 O 0.06716 0.24241 0.80783 0.0
C185 C 0.10531 0.35341 0.78296 0.0
O186 O 0.01739 0.32063 0.80373 0.0
Co187 Co 0.06102 0.38882 0.86048 0.0
O188 O 0.01005 0.3874 0.82327 0.0
C189 C 0.04631 0.31595 0.91899 0.0
C190 C 0.10544 0.23787 0.82006 0.0
C191 C 0.99646 0.3544 0.80489 0.0
O192 O 0.05454 0.29127 0.88577 0.0
O193 O 0.04988 0.35525 0.91665 0.0
O194 O 0.09705 0.31894 0.76225 0.0
O195 O 0.09809 0.3537 0.82629 0.0
Co196 Co 0.29108 0.92891 0.17303 0.0
O197 O 0.26363 0.87925 0.15387 0.0
O198 O 0.23375 0.9307 0.19152 0.0
C199 C 0.34765 0.89638 0.20278 0.0
O200 O 0.3093 0.98352 0.20125 0.0
Co201 Co 0.37249 0.95465 0.12928 0.0
O202 O 0.36967 0.00319 0.17041 0.0
C203 C 0.29749 0.96551 0.07715 0.0
C204 C 0.23083 0.89424 0.17316 0.0
C205 C 0.33983 0.00863 0.1979 0.0
O206 O 0.27633 0.95665 0.11301 0.0
O207 O 0.33664 0.96233 0.07511 0.0
O208 O 0.31383 0.9006 0.2261 0.0
O209 O 0.34543 0.90905 0.16082 0.0
Co210 Co 0.92619 0.70485 0.81951 0.0
O211 O 0.87818 0.73481 0.83937 0.0
O212 O 0.93293 0.76314 0.80644 0.0
C213 C 0.89109 0.65334 0.78456 0.0
O214 O 0.98098 0.68362 0.79363 0.0
Co215 Co 0.94242 0.61488 0.8534 0.0
O216 O 0.98362 0.61472 0.80329 0.0
C217 C 0.96275 0.68627 0.91261 0.0
C218 C 0.89613 0.76761 0.82358 0.0
C219 C 0.99821 0.6482 0.78701 0.0
O220 O 0.95293 0.71207 0.88106 0.0
O221 O 0.95834 0.64708 0.90926 0.0
O222 O 0.89715 0.6883 0.76383 0.0
O223 O 0.90299 0.65213 0.82651 0.0
C224 C 0.32385 0.34631 0.26984 0.0
C225 C 0.31353 0.36671 0.31121 0.0
C226 C 0.36873 0.32981 0.35128 0.0
C227 C 0.37716 0.30729 0.31074 0.0
N228 N 0.37044 0.30003 0.22935 0.0
N229 N 0.33114 0.38592 0.38797 0.0
C230 C 0.35745 0.31785 0.26916 0.0
C231 C 0.33779 0.36108 0.35091 0.0
N232 N 0.29997 0.35247 0.23198 0.0
N233 N 0.38966 0.32022 0.39037 0.0
H234 H 0.30874 0.40911 0.38825 0.0
H235 H 0.34949 0.3859 0.41706 0.0
H236 H 0.41452 0.29969 0.39068 0.0
H237 H 0.38213 0.3316 0.42252 0.0
H238 H 0.3024 0.33515 0.20219 0.0
H239 H 0.27609 0.37408 0.23094 0.0
H240 H 0.35998 0.30872 0.1972 0.0
H241 H 0.39433 0.27847 0.22806 0.0
C242 C 0.35876 0.67807 0.71503 0.0
C243 C 0.37503 0.69297 0.67308 0.0
C244 C 0.33324 0.64236 0.63108 0.0
C245 C 0.31238 0.63236 0.67218 0.0
N246 N 0.30391 0.64067 0.75342 0.0
N247 N 0.38121 0.68773 0.59153 0.0
C248 C 0.32542 0.64942 0.71439 0.0
C249 C 0.36351 0.67428 0.63118 0.0
N250 N 0.37453 0.69191 0.7555 0.0
N251 N 0.3242 0.62082 0.5922 0.0
H252 H 0.406 0.70825 0.59126 0.0
H253 H 0.37118 0.67942 0.55911 0.0
H254 H 0.30259 0.59693 0.59163 0.0
H255 H 0.33996 0.62415 0.56149 0.0
H256 H 0.36736 0.6789 0.787 0.0
H257 H 0.3974 0.71437 0.75771 0.0
H258 H 0.30799 0.65624 0.78415 0.0
H259 H 0.27992 0.61928 0.75469 0.0
C260 C 0.65506 0.68924 0.36793 0.0
C261 C 0.64142 0.7053 0.32539 0.0
C262 C 0.68799 0.65784 0.28468 0.0
C263 C 0.70175 0.64199 0.32722 0.0
N264 N 0.69335 0.63596 0.40847 0.0
N265 N 0.6392 0.70047 0.24315 0.0
C266 C 0.68371 0.65576 0.36864 0.0
C267 C 0.65578 0.68785 0.28374 0.0
N268 N 0.6409 0.70637 0.40767 0.0
N269 N 0.70767 0.64635 0.24531 0.0
H270 H 0.61802 0.72455 0.24035 0.0
H271 H 0.64439 0.68539 0.21229 0.0
H272 H 0.73094 0.62412 0.24426 0.0
H273 H 0.70304 0.66064 0.21392 0.0
H274 H 0.65319 0.69991 0.43967 0.0
H275 H 0.61756 0.72857 0.40863 0.0
H276 H 0.67878 0.64163 0.4395 0.0
H277 H 0.71386 0.6111 0.40981 0.0
C278 C 0.6401 0.32341 0.64036 0.0
C279 C 0.62859 0.30555 0.68282 0.0
C280 C 0.67493 0.35283 0.72335 0.0
C281 C 0.68821 0.36886 0.68068 0.0
N282 N 0.67754 0.37752 0.60018 0.0
N283 N 0.62706 0.30898 0.76496 0.0
C284 C 0.66871 0.35673 0.63964 0.0
C285 C 0.6431 0.32249 0.72446 0.0
N286 N 0.62429 0.30771 0.60074 0.0
N287 N 0.69471 0.36457 0.76245 0.0
H288 H 0.60498 0.28568 0.76708 0.0
H289 H 0.63318 0.3228 0.79629 0.0
H290 H 0.71721 0.38756 0.76313 0.0
H291 H 0.69045 0.35037 0.79395 0.0
H292 H 0.63489 0.31549 0.56834 0.0
H293 H 0.60085 0.28568 0.60028 0.0
H294 H 0.66239 0.37272 0.56937 0.0
H295 H 0.69812 0.4023 0.59918 0.0
C296 C 0.83402 0.85906 0.86698 0.0
C297 C 0.81314 0.87007 0.82629 0.0
C298 C 0.85834 0.82382 0.78239 0.0
C299 C 0.87399 0.80769 0.82392 0.0
N300 N 0.87865 0.81011 0.90588 0.0
N301 N 0.80333 0.86156 0.74509 0.0
C302 C 0.86269 0.82571 0.86629 0.0
C303 C 0.82534 0.85284 0.78372 0.0
N304 N 0.82666 0.881 0.90604 0.0
N305 N 0.87426 0.81068 0.74166 0.0
H306 H 0.77896 0.88255 0.74419 0.0
H307 H 0.80715 0.84585 0.71437 0.0
H308 H 0.8972 0.78823 0.73914 0.0
H309 H 0.86733 0.82449 0.7105 0.0
H310 H 0.84316 0.87703 0.93616 0.0
H311 H 0.80629 0.90599 0.90708 0.0
H312 H 0.86807 0.81816 0.93823 0.0
H313 H 0.90179 0.78765 0.90628 0.0
C314 C 0.84416 0.13584 0.14415 0.0
C315 C 0.82331 0.12749 0.1856 0.0
C316 C 0.8689 0.17551 0.2261 0.0
C317 C 0.88398 0.18957 0.18334 0.0
N318 N 0.8902 0.18134 0.10205 0.0
N319 N 0.81622 0.13665 0.26672 0.0
C320 C 0.87337 0.16862 0.14249 0.0
C321 C 0.83657 0.14571 0.22706 0.0
N322 N 0.83554 0.11241 0.10654 0.0
N323 N 0.88468 0.1915 0.26556 0.0
H324 H 0.79349 0.11393 0.2687 0.0
H325 H 0.82047 0.15251 0.29723 0.0
H326 H 0.90758 0.21406 0.26594 0.0
H327 H 0.87765 0.18027 0.29791 0.0
H328 H 0.85127 0.11468 0.07568 0.0
H329 H 0.81446 0.08805 0.10752 0.0
H330 H 0.88069 0.17087 0.0702 0.0
H331 H 0.91351 0.20354 0.10044 0.0
C332 C 0.13782 0.17943 0.77653 0.0
C333 C 0.12668 0.19731 0.81905 0.0
C334 C 0.16767 0.14508 0.85934 0.0
C335 C 0.18439 0.13218 0.81699 0.0
N336 N 0.18612 0.13611 0.73487 0.0
N337 N 0.12818 0.19645 0.90124 0.0
C338 C 0.16893 0.14832 0.77534 0.0
C339 C 0.14042 0.17955 0.86063 0.0
N340 N 0.11939 0.19284 0.73729 0.0
N341 N 0.17788 0.12396 0.89815 0.0
H342 H 0.10606 0.21983 0.90337 0.0
H343 H 0.14074 0.18847 0.93268 0.0
H344 H 0.19737 0.09826 0.8977 0.0
H345 H 0.16456 0.12939 0.92992 0.0
H346 H 0.12295 0.17832 0.70584 0.0
H347 H 0.09782 0.21673 0.73661 0.0
H348 H 0.18028 0.15044 0.70375 0.0
H349 H 0.20817 0.11273 0.73254 0.0
C350 C 0.17328 0.8584 0.13247 0.0
C351 C 0.19227 0.86973 0.17429 0.0
C352 C 0.1495 0.81975 0.21575 0.0
C353 C 0.13219 0.80693 0.17361 0.0
N354 N 0.11953 0.81918 0.09401 0.0
N355 N 0.19279 0.86839 0.25665 0.0
C356 C 0.1415 0.82808 0.13258 0.0
C357 C 0.17814 0.85306 0.21631 0.0
N358 N 0.18647 0.87606 0.09263 0.0
N359 N 0.1407 0.79818 0.25473 0.0
H360 H 0.21533 0.89123 0.25854 0.0
H361 H 0.18062 0.86075 0.28842 0.0
H362 H 0.11896 0.77449 0.25596 0.0
H363 H 0.15625 0.8021 0.28546 0.0
H364 H 0.17773 0.86602 0.06034 0.0
H365 H 0.20746 0.90048 0.09182 0.0
H366 H 0.1222 0.83539 0.0635 0.0
H367 H 0.0959 0.79729 0.09359 0.0
C368 C 0.16915 0.54986 0.22924 0.0
C369 C 0.15456 0.53972 0.27359 0.0
C370 C 0.116 0.60457 0.27701 0.0
C371 C 0.13079 0.61545 0.23296 0.0
N372 N 0.18174 0.60419 0.174 0.0
N373 N 0.12926 0.56559 0.34563 0.0
C374 C 0.16049 0.58978 0.21104 0.0
C375 C 0.13297 0.56983 0.29939 0.0
N376 N 0.19027 0.52144 0.20391 0.0
N377 N 0.08383 0.62529 0.29659 0.0
H378 H 0.14303 0.54138 0.36358 0.0
H379 H 0.11693 0.58863 0.36648 0.0
H380 H 0.06839 0.64938 0.2807 0.0
H381 H 0.06946 0.61541 0.32652 0.0
H382 H 0.19635 0.52521 0.16923 0.0
H383 H 0.20028 0.49326 0.21685 0.0
H384 H 0.20642 0.58842 0.15924 0.0
H385 H 0.17787 0.63397 0.16113 0.0
C386 C 0.54478 0.85394 0.79061 0.0
C387 C 0.54179 0.8482 0.74292 0.0
C388 C 0.61256 0.87131 0.73354 0.0
C389 C 0.61763 0.87416 0.7818 0.0
N390 N 0.59056 0.85286 0.85561 0.0
N391 N 0.57865 0.83273 0.67406 0.0
C392 C 0.58433 0.86101 0.81042 0.0
C393 C 0.57773 0.85052 0.71612 0.0
N394 N 0.51014 0.85264 0.81693 0.0
N395 N 0.63836 0.89108 0.70383 0.0
H396 H 0.55425 0.81445 0.6626 0.0
H397 H 0.60536 0.83161 0.65417 0.0
H398 H 0.66 0.91297 0.71384 0.0
H399 H 0.63346 0.89079 0.66864 0.0
H400 H 0.50984 0.86113 0.85125 0.0
H401 H 0.48151 0.84501 0.8033 0.0
H402 H 0.56765 0.8407 0.87666 0.0
H403 H 0.61966 0.85263 0.87061 0.0
C404 C 0.85755 0.38379 0.2798 0.0
C405 C 0.86166 0.38104 0.23171 0.0
C406 C 0.83609 0.45266 0.22579 0.0
C407 C 0.84469 0.45814 0.27284 0.0
N408 N 0.86002 0.42782 0.3463 0.0
N409 N 0.84099 0.40883 0.15872 0.0
C410 C 0.85419 0.4233 0.30037 0.0
C411 C 0.84659 0.41432 0.20449 0.0
N412 N 0.85347 0.34885 0.30553 0.0
N413 N 0.81679 0.48342 0.20208 0.0
H414 H 0.83926 0.3796 0.14392 0.0
H415 H 0.83674 0.43291 0.13566 0.0
H416 H 0.80633 0.51036 0.21767 0.0
H417 H 0.80741 0.48095 0.16826 0.0
H418 H 0.84769 0.34935 0.34052 0.0
H419 H 0.84881 0.31985 0.29102 0.0
H420 H 0.87213 0.4045 0.36684 0.0
H421 H 0.85456 0.45548 0.36355 0.0
C422 C 0.4456 0.15472 0.76037 0.0
C423 C 0.44968 0.15129 0.71223 0.0
C424 C 0.38194 0.1185 0.70842 0.0
C425 C 0.37584 0.12534 0.756 0.0
N426 N 0.39752 0.16435 0.82246 0.0
N427 N 0.41498 0.14359 0.63995 0.0
C428 C 0.4063 0.14787 0.78065 0.0
C429 C 0.41546 0.13795 0.68614 0.0
N430 N 0.47909 0.16234 0.78732 0.0
N431 N 0.35817 0.09117 0.68464 0.0
H432 H 0.43863 0.15884 0.6226 0.0
H433 H 0.38905 0.13741 0.62004 0.0
H434 H 0.33617 0.0723 0.69969 0.0
H435 H 0.3643 0.08315 0.65083 0.0
H436 H 0.47777 0.16073 0.82283 0.0
H437 H 0.50885 0.16627 0.77466 0.0
H438 H 0.41803 0.18351 0.83984 0.0
H439 H 0.36811 0.16371 0.83686 0.0
C440 C 0.10215 0.46056 0.73334 0.0
C441 C 0.1437 0.46791 0.72021 0.0
C442 C 0.16186 0.40018 0.75305 0.0
C443 C 0.1193 0.39106 0.7583 0.0
N444 N 0.05004 0.40812 0.73597 0.0
N445 N 0.21281 0.4399 0.71135 0.0
C446 C 0.08968 0.41996 0.74352 0.0
C447 C 0.17381 0.43657 0.72865 0.0
N448 N 0.07444 0.49225 0.73673 0.0
N449 N 0.19078 0.3741 0.77086 0.0
H450 H 0.22284 0.4649 0.69204 0.0
H451 H 0.23422 0.4159 0.71269 0.0
H452 H 0.18298 0.34652 0.78717 0.0
H453 H 0.22209 0.38133 0.77215 0.0
H454 H 0.04453 0.48794 0.74907 0.0
H455 H 0.08281 0.52313 0.73264 0.0
H456 H 0.02773 0.42793 0.72252 0.0
H457 H 0.04184 0.37711 0.73644 0.0
C458 C 0.37889 0.84064 0.25315 0.0
C459 C 0.38447 0.87409 0.222 0.0
C460 C 0.45913 0.86288 0.22716 0.0
C461 C 0.4534 0.83834 0.26637 0.0
N462 N 0.40743 0.80343 0.31783 0.0
N463 N 0.4329 0.92238 0.18868 0.0
C464 C 0.41307 0.82686 0.27964 0.0
C465 C 0.42543 0.88613 0.21054 0.0
N466 N 0.34176 0.82093 0.2562 0.0
N467 N 0.49717 0.866 0.20744 0.0
H468 H 0.40985 0.94393 0.18411 0.0
H469 H 0.46247 0.93389 0.18276 0.0
H470 H 0.5225 0.84912 0.21901 0.0
H471 H 0.50216 0.88174 0.17687 0.0
H472 H 0.33723 0.79468 0.27617 0.0
H473 H 0.31714 0.82744 0.2345 0.0
H474 H 0.37847 0.79792 0.33209 0.0
H475 H 0.4322 0.79126 0.33617 0.0
C476 C 0.8718 0.56834 0.69683 0.0
C477 C 0.84918 0.53967 0.72353 0.0
C478 C 0.8438 0.59171 0.78412 0.0
C479 C 0.87402 0.61614 0.76142 0.0
N480 N 0.921 0.62383 0.69756 0.0
N481 N 0.81229 0.52432 0.79311 0.0
C482 C 0.88879 0.60378 0.71785 0.0
C483 C 0.83433 0.55153 0.76719 0.0
N484 N 0.87657 0.56194 0.651 0.0
N485 N 0.82298 0.60754 0.82078 0.0
H486 H 0.80202 0.496 0.78082 0.0
H487 H 0.80572 0.52916 0.82751 0.0
H488 H 0.82769 0.63749 0.8328 0.0
H489 H 0.79802 0.59278 0.83611 0.0
H490 H 0.88941 0.5839 0.62918 0.0
H491 H 0.8634 0.53686 0.63406 0.0
H492 H 0.93571 0.61285 0.66831 0.0
H493 H 0.93592 0.64886 0.71219 0.0
C494 C 0.60805 0.16541 0.2346 0.0
C495 C 0.62745 0.12661 0.24198 0.0
C496 C 0.56864 0.10491 0.28799 0.0
C497 C 0.55136 0.14539 0.28613 0.0
N498 N 0.56276 0.21733 0.26682 0.0
N499 N 0.63108 0.06462 0.28832 0.0
C500 C 0.57312 0.17667 0.26173 0.0
C501 C 0.60967 0.09832 0.27321 0.0
N502 N 0.6235 0.19205 0.20275 0.0
N503 N 0.54519 0.07185 0.30088 0.0
H504 H 0.66082 0.05726 0.2778 0.0
H505 H 0.62034 0.0458 0.31465 0.0
H506 H 0.51328 0.07341 0.3037 0.0
H507 H 0.55632 0.0417 0.30237 0.0
H508 H 0.60801 0.21877 0.19269 0.0
H509 H 0.65037 0.18603 0.18426 0.0
H510 H 0.58003 0.24132 0.25277 0.0
H511 H 0.54029 0.22761 0.28957 0.0
C512 C 0.6106 0.03364 0.74029 0.0
C513 C 0.64888 0.03271 0.76329 0.0
C514 C 0.65967 0.10538 0.74171 0.0
C515 C 0.6179 0.10774 0.72725 0.0
N516 N 0.55097 0.07582 0.7277 0.0
N517 N 0.70999 0.06912 0.78811 0.0
C518 C 0.59271 0.07217 0.72974 0.0
C519 C 0.67392 0.06882 0.76412 0.0
N520 N 0.59049 0.9977 0.73037 0.0
N521 N 0.68569 0.13779 0.7339 0.0
H522 H 0.72225 0.04292 0.80358 0.0
H523 H 0.72664 0.09597 0.7947 0.0
H524 H 0.67608 0.16506 0.71816 0.0
H525 H 0.71737 0.1363 0.73965 0.0
H526 H 0.5636 0.99688 0.71086 0.0
H527 H 0.60323 0.96879 0.73756 0.0
H528 H 0.53086 0.051 0.73198 0.0
H529 H 0.53716 0.1046 0.73051 0.0
C530 C 0.08799 0.35471 0.28598 0.0
C531 C 0.11651 0.38068 0.26264 0.0
C532 C 0.06811 0.38518 0.19862 0.0
C533 C 0.03718 0.36556 0.2252 0.0
N534 N 0.01614 0.33665 0.29745 0.0
N535 N 0.12835 0.42831 0.20001 0.0
C536 C 0.04667 0.35155 0.26982 0.0
C537 C 0.10527 0.39789 0.21973 0.0
N538 N 0.10065 0.33168 0.32245 0.0
N539 N 0.06273 0.39072 0.15275 0.0
H540 H 0.15451 0.44071 0.21495 0.0
H541 H 0.1187 0.44463 0.17126 0.0
H542 H 0.03662 0.38068 0.13524 0.0
H543 H 0.08627 0.40101 0.13129 0.0
H544 H 0.08206 0.30953 0.33804 0.0
H545 H 0.13113 0.33118 0.33379 0.0
H546 H 0.02067 0.33003 0.33188 0.0
H547 H 0.98541 0.33458 0.28717 0.0
C548 C 0.33641 0.94844 0.72674 0.0
C549 C 0.34402 0.95834 0.773 0.0
C550 C 0.37613 0.89045 0.78505 0.0
C551 C 0.37015 0.88093 0.73802 0.0
N552 N 0.33023 0.89433 0.67004 0.0
N553 N 0.35663 0.9335 0.8492 0.0
C554 C 0.34587 0.90799 0.71062 0.0
C555 C 0.35915 0.92752 0.80306 0.0
N556 N 0.32143 0.97784 0.69779 0.0
N557 N 0.39976 0.86582 0.81241 0.0
H558 H 0.34419 0.96023 0.8636 0.0
H559 H 0.36269 0.91039 0.87302 0.0
H560 H 0.41149 0.83731 0.80282 0.0
H561 H 0.41005 0.87497 0.84453 0.0
H562 H 0.32052 0.97416 0.66248 0.0
H563 H 0.31168 0.00675 0.70903 0.0
H564 H 0.30956 0.91137 0.65039 0.0
H565 H 0.3339 0.86398 0.65876 0.0
C566 C 0.90121 0.60597 0.22239 0.0
C567 C 0.89072 0.62223 0.26588 0.0
C568 C 0.95651 0.6601 0.26768 0.0
C569 C 0.96626 0.6442 0.22377 0.0
N570 N 0.94058 0.61553 0.15325 0.0
N571 N 0.90307 0.67387 0.32373 0.0
C572 C 0.93621 0.62148 0.19921 0.0
C573 C 0.91685 0.65199 0.2868 0.0
N574 N 0.87948 0.5739 0.20411 0.0
N575 N 0.98515 0.682 0.29171 0.0
H576 H 0.87364 0.6701 0.33753 0.0
H577 H 0.91902 0.69876 0.33768 0.0
H578 H 0.01311 0.69155 0.27786 0.0
H579 H 0.98187 0.68917 0.32618 0.0
H580 H 0.88887 0.55808 0.17489 0.0
H581 H 0.85468 0.56019 0.22056 0.0
H582 H 0.91752 0.60265 0.133 0.0
H583 H 0.96507 0.62784 0.13455 0.0
C584 C 0.60429 0.96686 0.23582 0.0
C585 C 0.64571 0.96939 0.21952 0.0
C586 C 0.65881 0.89887 0.24832 0.0
C587 C 0.6169 0.89577 0.26232 0.0
N588 N 0.55062 0.92762 0.27263 0.0
N589 N 0.71077 0.93558 0.20453 0.0
C590 C 0.59004 0.93004 0.2568 0.0
C591 C 0.67271 0.93495 0.22466 0.0
N592 N 0.57765 0.99921 0.22944 0.0
N593 N 0.68589 0.8681 0.25964 0.0
H594 H 0.7225 0.96125 0.18757 0.0
H595 H 0.72973 0.90974 0.20161 0.0
H596 H 0.67703 0.84135 0.27687 0.0
H597 H 0.7177 0.8704 0.25548 0.0
H598 H 0.54568 0.99675 0.23105 0.0
H599 H 0.58708 0.0291 0.22169 0.0
H600 H 0.53111 0.95269 0.27805 0.0
H601 H 0.53769 0.89962 0.28108 0.0
C602 C 0.88805 0.39228 0.78667 0.0
C603 C 0.87822 0.3762 0.74288 0.0
C604 C 0.94541 0.3411 0.74033 0.0
C605 C 0.95425 0.35596 0.78499 0.0
N606 N 0.92663 0.38169 0.8561 0.0
N607 N 0.89203 0.32415 0.68577 0.0
C608 C 0.92309 0.37691 0.80992 0.0
C609 C 0.90521 0.34713 0.72206 0.0
N610 N 0.86604 0.42414 0.80516 0.0
N611 N 0.97534 0.32294 0.71425 0.0
H612 H 0.86209 0.32603 0.67292 0.0
H613 H 0.90911 0.29983 0.67205 0.0
H614 H 0.00504 0.31674 0.72569 0.0
H615 H 0.97142 0.31666 0.67964 0.0
H616 H 0.87509 0.43942 0.83483 0.0
H617 H 0.84164 0.43848 0.78865 0.0
H618 H 0.9029 0.39353 0.87632 0.0
H619 H 0.95114 0.36933 0.87471 0.0
C620 C 0.39323 0.07036 0.28705 0.0
C621 C 0.37654 0.11047 0.27958 0.0
C622 C 0.32707 0.08125 0.22496 0.0
C623 C 0.34475 0.04183 0.23196 0.0
N624 N 0.38391 0.9963 0.28009 0.0
N625 N 0.31866 0.1511 0.25344 0.0
C626 C 0.37393 0.0356 0.26697 0.0
C627 C 0.34053 0.11499 0.25226 0.0
N628 N 0.42954 0.06552 0.3097 0.0
N629 N 0.29849 0.08664 0.19133 0.0
H630 H 0.3265 0.17559 0.27488 0.0
H631 H 0.29043 0.15508 0.23707 0.0
H632 H 0.2866 0.06189 0.1728 0.0
H633 H 0.28808 0.11552 0.18066 0.0
H634 H 0.44523 0.0375 0.31213 0.0
H635 H 0.44627 0.09037 0.32162 0.0
H636 H 0.40219 0.98972 0.30839 0.0
H637 H 0.37027 0.97027 0.2655 0.0
C638 C 0.10635 0.60916 0.76753 0.0
C639 C 0.11646 0.62594 0.72409 0.0
C640 C 0.04925 0.66154 0.72234 0.0
C641 C 0.04025 0.64581 0.7665 0.0
N642 N 0.06712 0.61799 0.8369 0.0
N643 N 0.10194 0.67676 0.66591 0.0
C644 C 0.07104 0.62389 0.79089 0.0
C645 C 0.08914 0.65462 0.70303 0.0
N646 N 0.12866 0.57731 0.78572 0.0
N647 N 0.01971 0.68228 0.69831 0.0
H648 H 0.1314 0.67393 0.65192 0.0
H649 H 0.085 0.70097 0.65187 0.0
H650 H 0.99145 0.69082 0.71229 0.0
H651 H 0.02256 0.68933 0.66377 0.0
H652 H 0.11945 0.56142 0.81494 0.0
H653 H 0.15335 0.56321 0.76923 0.0
H654 H 0.0907 0.60585 0.85702 0.0
H655 H 0.04241 0.62969 0.85577 0.0
C656 C 0.21875 0.47708 0.53627 0.0
C657 C 0.21838 0.52093 0.53556 0.0
C658 C 0.22411 0.521 0.4524 0.0
C659 C 0.21942 0.47742 0.45291 0.0
N660 N 0.22546 0.41318 0.49296 0.0
N661 N 0.23358 0.58412 0.4964 0.0
C662 C 0.22159 0.45518 0.49431 0.0
C663 C 0.2258 0.54269 0.49457 0.0
N664 N 0.21349 0.45671 0.57671 0.0
N665 N 0.22411 0.54159 0.41168 0.0
H666 H 0.235 0.60006 0.52736 0.0
H667 H 0.24199 0.60182 0.46825 0.0
H668 H 0.2245 0.52626 0.38036 0.0
H669 H 0.22246 0.57358 0.40872 0.0
H670 H 0.20873 0.42502 0.57936 0.0
H671 H 0.21264 0.47203 0.608 0.0
H672 H 0.23 0.39482 0.52168 0.0
H673 H 0.22769 0.3971 0.46214 0.0
C674 C 0.55103 0.80715 0.49896 0.0
C675 C 0.52743 0.79472 0.46113 0.0
C676 C 0.46782 0.78354 0.51146 0.0
C677 C 0.48904 0.80486 0.54673 0.0
N678 N 0.54994 0.84174 0.57166 0.0
N679 N 0.46437 0.76766 0.43032 0.0
C680 C 0.5307 0.81734 0.5402 0.0
C681 C 0.48635 0.78076 0.4673 0.0
N682 N 0.59278 0.81095 0.49438 0.0
N683 N 0.42947 0.76771 0.51965 0.0
H684 H 0.47799 0.76363 0.39835 0.0
H685 H 0.43279 0.76187 0.43086 0.0
H686 H 0.41409 0.77185 0.55059 0.0
H687 H 0.41391 0.74858 0.49691 0.0
H688 H 0.61242 0.81685 0.52174 0.0
H689 H 0.60778 0.80375 0.4638 0.0
H690 H 0.57882 0.85501 0.56634 0.0
H691 H 0.53547 0.85218 0.60121 0.0
C692 C 0.78891 0.47667 0.45973 0.0
C693 C 0.79618 0.51985 0.45963 0.0
C694 C 0.79203 0.52117 0.54299 0.0
C695 C 0.79378 0.47739 0.54305 0.0
N696 N 0.78979 0.41266 0.50326 0.0
N697 N 0.80058 0.58457 0.49941 0.0
C698 C 0.79012 0.45485 0.50187 0.0
C699 C 0.79564 0.54266 0.50083 0.0
N700 N 0.78155 0.45679 0.41942 0.0
N701 N 0.78767 0.54186 0.58337 0.0
H702 H 0.80116 0.60099 0.46874 0.0
H703 H 0.80526 0.60292 0.52809 0.0
H704 H 0.78495 0.52658 0.61458 0.0
H705 H 0.78348 0.57365 0.58588 0.0
H706 H 0.7734 0.42579 0.41697 0.0
H707 H 0.78035 0.47243 0.3883 0.0
H708 H 0.79183 0.39388 0.47452 0.0
H709 H 0.78862 0.39631 0.53396 0.0
C710 C 0.52883 0.22868 0.45706 0.0
C711 C 0.48514 0.23009 0.45596 0.0
C712 C 0.48208 0.23393 0.53905 0.0
C713 C 0.52494 0.22496 0.54014 0.0
N714 N 0.59107 0.22803 0.50364 0.0
N715 N 0.42156 0.24826 0.49225 0.0
C716 C 0.54906 0.22766 0.50005 0.0
C717 C 0.46234 0.23825 0.49602 0.0
N718 N 0.55033 0.22489 0.41714 0.0
N719 N 0.4601 0.23518 0.57885 0.0
H720 H 0.40733 0.251 0.46042 0.0
H721 H 0.40289 0.25676 0.51959 0.0
H722 H 0.47414 0.23332 0.61078 0.0
H723 H 0.42811 0.23733 0.58054 0.0
H724 H 0.58186 0.21906 0.41524 0.0
H725 H 0.53603 0.22712 0.38536 0.0
H726 H 0.61101 0.23218 0.47618 0.0
H727 H 0.60581 0.22737 0.53531 0.0
C728 C 0.73041 0.99043 0.04038 0.0
C729 C 0.72508 0.03402 0.04116 0.0
C730 C 0.72249 0.03587 0.95781 0.0
C731 C 0.72275 0.9921 0.95751 0.0
N732 N 0.74054 0.92851 0.9945 0.0
N733 N 0.73017 0.09895 0.00222 0.0
C734 C 0.73175 0.9697 0.99762 0.0
C735 C 0.72626 0.05699 0.00013 0.0
N736 N 0.73091 0.96869 0.08032 0.0
N737 N 0.71601 0.05687 0.91802 0.0
H738 H 0.73328 0.11446 0.03329 0.0
H739 H 0.73399 0.11776 0.97372 0.0
H740 H 0.71459 0.04194 0.88652 0.0
H741 H 0.71081 0.08856 0.91623 0.0
H742 H 0.72934 0.93663 0.08215 0.0
H743 H 0.73158 0.98299 0.1121 0.0
H744 H 0.75049 0.91061 0.02186 0.0
H745 H 0.74137 0.91314 0.96316 0.0
C746 C 0.98365 0.2928 0.96157 0.0
C747 C 0.02699 0.29939 0.96087 0.0
C748 C 0.02888 0.3003 0.0443 0.0
C749 C 0.98513 0.2986 0.0447 0.0
N750 N 0.92194 0.28067 0.00715 0.0
N751 N 0.09218 0.29754 -0.0006 0.0
C752 C 0.96289 0.29037 0.00428 0.0
C753 C 0.05009 0.29893 0.00176 0.0
N754 N 0.96222 0.29154 0.92143 0.0
N755 N 0.04969 0.30519 0.08448 0.0
H756 H 0.10783 0.29606 0.96825 0.0
H757 H 0.11139 0.2946 0.02762 0.0
H758 H 0.03493 0.30404 0.11613 0.0
H759 H 0.08113 0.31124 0.08674 0.0
H760 H 0.93018 0.29185 0.91933 0.0
H761 H 0.9767 0.29161 0.88963 0.0
H762 H 0.90416 0.27127 0.97951 0.0
H763 H 0.90655 0.27867 0.03841 0.0
C764 C 0.27702 0.04731 0.99215 0.0
C765 C 0.28118 0.02331 0.95203 0.0
C766 C 0.27558 0.95952 0.99626 0.0
C767 C 0.27728 0.98342 0.03659 0.0
N768 N 0.26496 0.04808 0.07417 0.0
N769 N 0.27032 0.95857 0.91349 0.0
C770 C 0.27258 0.02684 0.03481 0.0
C771 C 0.27529 0.97993 0.9533 0.0
N772 N 0.27916 0.08939 0.98934 0.0
N773 N 0.27662 0.91743 -0.00052 0.0
H774 H 0.26978 0.97317 0.88175 0.0
H775 H 0.26353 0.9272 0.91189 0.0
H776 H 0.27482 0.90232 0.03093 0.0
H777 H 0.28009 0.89769 0.97171 0.0
H778 H 0.28059 0.1089 0.0175 0.0
H779 H 0.28039 0.10483 0.95807 0.0
H780 H 0.25923 0.07968 0.07562 0.0
H781 H 0.26067 0.03288 0.10519 0.0
C782 C 0.95999 0.70566 0.99475 0.0
C783 C 0.9833 0.70162 0.95418 0.0
C784 C 0.04763 0.70629 0.99765 0.0
C785 C 0.02439 0.70176 0.03821 0.0
N786 N 0.95916 0.702 0.0776 0.0
N787 N 0.04851 0.70303 0.91477 0.0
C788 C 0.98066 0.70388 0.03749 0.0
C789 C 0.02699 0.70439 0.9549 0.0
N790 N 0.91821 0.71081 0.99197 0.0
N791 N 0.08932 0.71201 0.00048 0.0
H792 H 0.03399 0.70378 0.88301 0.0
H793 H 0.08042 0.70017 0.91262 0.0
H794 H 0.10459 0.71376 0.03178 0.0
H795 H 0.10822 0.71827 0.97261 0.0
H796 H 0.89923 0.71673 0.01987 0.0
H797 H 0.90288 0.71244 0.9607 0.0
H798 H 0.9273 0.69859 0.07972 0.0
H799 H 0.97365 0.70282 0.10937 0.0
loop_
_geom_bond_atom_site_label_1
_geom_bond_atom_site_label_2
_geom_bond_distance
_geom_bond_site_symmetry_2
_ccdc_geom_bond_type
Co0 O1 2.216 . S
Co0 O2 2.091 . S
Co0 O4 2.004 . S
Co0 O10 2.021 . S
Co0 O12 2.137 . S
Co0 O13 2.244 . S
O1 Co0 2.216 . S
O1 C8 1.247 . S
O2 Co0 2.091 . S
O2 C8 1.261 . S
C3 O12 1.247 . S
C3 O13 1.272 . S
O4 Co0 2.004 . S
O4 C9 1.259 . S
Co5 O6 2.061 . S
Co5 O11 2.052 . S
Co5 O13 2.135 . S
O6 Co5 2.061 . S
O6 C9 1.235 . S
C7 O10 1.238 . S
C7 O11 1.241 . S
C8 O1 1.247 . S
C8 O2 1.261 . S
C9 O4 1.259 . S
C9 O6 1.235 . S
O10 Co0 2.021 . S
O10 C7 1.238 . S
O11 Co5 2.052 . S
O11 C7 1.241 . S
O12 Co0 2.137 . S
O12 C3 1.247 . S
O13 Co0 2.244 . S
O13 C3 1.272 . S
O13 Co5 2.135 . S
Co14 O15 2.216 . S
Co14 O16 2.091 . S
Co14 O18 2.004 . S
Co14 O24 2.021 . S
Co14 O26 2.137 . S
Co14 O27 2.244 . S
O15 Co14 2.216 . S
O15 C22 1.247 . S
O16 Co14 2.091 . S
O16 C22 1.261 . S
C17 O26 1.247 . S
C17 O27 1.272 . S
O18 Co14 2.004 . S
O18 C23 1.259 . S
Co19 O20 2.061 . S
Co19 O25 2.052 . S
Co19 O27 2.135 . S
O20 Co19 2.061 . S
O20 C23 1.235 . S
C21 O24 1.238 . S
C21 O25 1.241 . S
C22 O15 1.247 . S
C22 O16 1.261 . S
C23 O18 1.259 . S
C23 O20 1.235 . S
O24 Co14 2.021 . S
O24 C21 1.238 . S
O25 Co19 2.052 . S
O25 C21 1.241 . S
O26 Co14 2.137 . S
O26 C17 1.247 . S
O27 Co14 2.244 . S
O27 C17 1.272 . S
O27 Co19 2.135 . S
Co28 O29 2.216 . S
Co28 O30 2.091 . S
Co28 O32 2.004 . S
Co28 O38 2.021 . S
Co28 O40 2.137 . S
Co28 O41 2.244 . S
O29 Co28 2.216 . S
O29 C36 1.247 . S
O30 Co28 2.091 . S
O30 C36 1.261 . S
C31 O40 1.247 . S
C31 O41 1.272 . S
O32 Co28 2.004 . S
O32 C37 1.259 . S
Co33 O34 2.061 . S
Co33 O39 2.052 . S
Co33 O41 2.135 . S
O34 Co33 2.061 . S
O34 C37 1.235 . S
C35 O38 1.238 . S
C35 O39 1.241 . S
C36 O29 1.247 . S
C36 O30 1.261 . S
C37 O32 1.259 . S
C37 O34 1.235 . S
O38 Co28 2.021 . S
O38 C35 1.238 . S
O39 Co33 2.052 . S
O39 C35 1.241 . S
O40 Co28 2.137 . S
O40 C31 1.247 . S
O41 Co28 2.244 . S
O41 C31 1.272 . S
O41 Co33 2.135 . S
Co42 O43 2.216 . S
Co42 O44 2.091 . S
Co42 O46 2.004 . S
Co42 O52 2.021 . S
Co42 O54 2.137 . S
Co42 O55 2.244 . S
O43 Co42 2.216 . S
O43 C50 1.247 . S
O44 Co42 2.091 . S
O44 C50 1.261 . S
C45 O54 1.247 . S
C45 O55 1.272 . S
O46 Co42 2.004 . S
O46 C51 1.259 . S
Co47 O48 2.061 . S
Co47 O53 2.052 . S
Co47 O55 2.135 . S
O48 Co47 2.061 . S
O48 C51 1.235 . S
C49 O52 1.238 . S
C49 O53 1.241 . S
C50 O43 1.247 . S
C50 O44 1.261 . S
C51 O46 1.259 . S
C51 O48 1.235 . S
O52 Co42 2.021 . S
O52 C49 1.238 . S
O53 Co47 2.052 . S
O53 C49 1.241 . S
O54 Co42 2.137 . S
O54 C45 1.247 . S
O55 Co42 2.244 . S
O55 C45 1.272 . S
O55 Co47 2.135 . S
Co56 O57 2.216 . S
Co56 O58 2.091 . S
Co56 O60 2.004 . S
Co56 O66 2.021 . S
Co56 O68 2.137 . S
Co56 O69 2.244 . S
O57 Co56 2.216 . S
O57 C64 1.247 . S
O58 Co56 2.091 . S
O58 C64 1.261 . S
C59 O68 1.247 . S
C59 O69 1.272 . S
O60 Co56 2.004 . S
O60 C65 1.259 . S
Co61 O62 2.061 . S
Co61 O67 2.052 . S
Co61 O69 2.135 . S
O62 Co61 2.061 . S
O62 C65 1.235 . S
C63 O66 1.238 . S
C63 O67 1.241 . S
C64 O57 1.247 . S
C64 O58 1.261 . S
C65 O60 1.259 . S
C65 O62 1.235 . S
O66 Co56 2.021 . S
O66 C63 1.238 . S
O67 Co61 2.052 . S
O67 C63 1.241 . S
O68 Co56 2.137 . S
O68 C59 1.247 . S
O69 Co56 2.244 . S
O69 C59 1.272 . S
O69 Co61 2.135 . S
Co70 O71 2.216 . S
Co70 O72 2.091 . S
Co70 O74 2.004 . S
Co70 O80 2.021 . S
Co70 O82 2.137 . S
Co70 O83 2.244 . S
O71 Co70 2.216 . S
O71 C78 1.247 . S
O72 Co70 2.091 . S
O72 C78 1.261 . S
C73 O82 1.247 . S
C73 O83 1.272 . S
O74 Co70 2.004 . S
O74 C79 1.259 . S
Co75 O76 2.061 . S
Co75 O81 2.052 . S
Co75 O83 2.135 . S
O76 Co75 2.061 . S
O76 C79 1.235 . S
C77 O80 1.238 . S
C77 O81 1.241 . S
C78 O71 1.247 . S
C78 O72 1.261 . S
C79 O74 1.259 . S
C79 O76 1.235 . S
O80 Co70 2.021 . S
O80 C77 1.238 . S
O81 Co75 2.052 . S
O81 C77 1.241 . S
O82 Co70 2.137 . S
O82 C73 1.247 . S
O83 Co70 2.244 . S
O83 C73 1.272 . S
O83 Co75 2.135 . S
Co84 O85 2.216 . S
Co84 O86 2.091 . S
Co84 O88 2.004 . S
Co84 O94 2.021 . S
Co84 O96 2.137 . S
Co84 O97 2.244 . S
O85 Co84 2.216 . S
O85 C92 1.247 . S
O86 Co84 2.091 . S
O86 C92 1.261 . S
C87 O96 1.247 . S
C87 O97 1.272 . S
O88 Co84 2.004 . S
O88 C93 1.259 . S
Co89 O90 2.061 . S
Co89 O95 2.052 . S
Co89 O97 2.135 . S
O90 Co89 2.061 . S
O90 C93 1.235 . S
C91 O94 1.238 . S
C91 O95 1.241 . S
C92 O85 1.247 . S
C92 O86 1.261 . S
C93 O88 1.259 . S
C93 O90 1.235 . S
O94 Co84 2.021 . S
O94 C91 1.238 . S
O95 Co89 2.052 . S
O95 C91 1.241 . S
O96 Co84 2.137 . S
O96 C87 1.247 . S
O97 Co84 2.244 . S
O97 C87 1.272 . S
O97 Co89 2.135 . S
Co98 O99 2.216 . S
Co98 O100 2.091 . S
Co98 O102 2.004 . S
Co98 O108 2.021 . S
Co98 O110 2.137 . S
Co98 O111 2.244 . S
O99 Co98 2.216 . S
O99 C106 1.247 . S
O100 Co98 2.091 . S
O100 C106 1.261 . S
C101 O110 1.247 . S
C101 O111 1.272 . S
O102 Co98 2.004 . S
O102 C107 1.259 . S
Co103 O104 2.061 . S
Co103 O109 2.052 . S
Co103 O111 2.135 . S
O104 Co103 2.061 . S
O104 C107 1.235 . S
C105 O108 1.238 . S
C105 O109 1.241 . S
C106 O99 1.247 . S
C106 O100 1.261 . S
C107 O102 1.259 . S
C107 O104 1.235 . S
O108 Co98 2.021 . S
O108 C105 1.238 . S
O109 Co103 2.052 . S
O109 C105 1.241 . S
O110 Co98 2.137 . S
O110 C101 1.247 . S
O111 Co98 2.244 . S
O111 C101 1.272 . S
O111 Co103 2.135 . S
Co112 O113 2.216 . S
Co112 O114 2.091 . S
Co112 O116 2.004 . S
Co112 O122 2.021 . S
Co112 O124 2.137 . S
Co112 O125 2.244 . S
O113 Co112 2.216 . S
O113 C120 1.247 . S
O114 Co112 2.091 . S
O114 C120 1.261 . S
C115 O124 1.247 . S
C115 O125 1.272 . S
O116 Co112 2.004 . S
O116 C121 1.259 1_565 S
Co117 O118 2.061 1_565 S
Co117 O123 2.052 . S
Co117 O125 2.135 . S
O118 Co117 2.061 1_545 S
O118 C121 1.235 . S
C119 O122 1.238 . S
C119 O123 1.241 . S
C120 O113 1.247 . S
C120 O114 1.261 . S
C121 O116 1.259 1_545 S
C121 O118 1.235 . S
O122 Co112 2.021 . S
O122 C119 1.238 . S
O123 Co117 2.052 . S
O123 C119 1.241 . S
O124 Co112 2.137 . S
O124 C115 1.247 . S
O125 Co112 2.244 . S
O125 C115 1.272 . S
O125 Co117 2.135 . S
Co126 O127 2.216 . S
Co126 O128 2.091 . S
Co126 O130 2.004 . S
Co126 O136 2.021 . S
Co126 O138 2.137 . S
Co126 O139 2.244 . S
O127 Co126 2.216 . S
O127 C134 1.247 . S
O128 Co126 2.091 . S
O128 C134 1.261 . S
C129 O138 1.247 . S
C129 O139 1.272 . S
O130 Co126 2.004 . S
O130 C135 1.259 1_655 S
Co131 O132 2.061 1_655 S
Co131 O137 2.052 . S
Co131 O139 2.135 . S
O132 Co131 2.061 1_455 S
O132 C135 1.235 . S
C133 O136 1.238 . S
C133 O137 1.241 . S
C134 O127 1.247 . S
C134 O128 1.261 . S
C135 O130 1.259 1_455 S
C135 O132 1.235 . S
O136 Co126 2.021 . S
O136 C133 1.238 . S
O137 Co131 2.052 . S
O137 C133 1.241 . S
O138 Co126 2.137 . S
O138 C129 1.247 . S
O139 Co126 2.244 . S
O139 C129 1.272 . S
O139 Co131 2.135 . S
Co140 O141 2.216 . S
Co140 O142 2.091 . S
Co140 O144 2.004 . S
Co140 O150 2.021 . S
Co140 O152 2.137 . S
Co140 O153 2.244 . S
O141 Co140 2.216 . S
O141 C148 1.247 . S
O142 Co140 2.091 . S
O142 C148 1.261 . S
C143 O152 1.247 . S
C143 O153 1.272 . S
O144 Co140 2.004 . S
O144 C149 1.259 1_545 S
Co145 O146 2.061 1_545 S
Co145 O151 2.052 . S
Co145 O153 2.135 . S
O146 Co145 2.061 1_565 S
O146 C149 1.235 . S
C147 O150 1.238 . S
C147 O151 1.241 . S
C148 O141 1.247 . S
C148 O142 1.261 . S
C149 O144 1.259 1_565 S
C149 O146 1.235 . S
O150 Co140 2.021 . S
O150 C147 1.238 . S
O151 Co145 2.052 . S
O151 C147 1.241 . S
O152 Co140 2.137 . S
O152 C143 1.247 . S
O153 Co140 2.244 . S
O153 C143 1.272 . S
O153 Co145 2.135 . S
Co154 O155 2.216 . S
Co154 O156 2.091 . S
Co154 O158 2.004 . S
Co154 O164 2.021 . S
Co154 O166 2.137 . S
Co154 O167 2.244 . S
O155 Co154 2.216 . S
O155 C162 1.247 . S
O156 Co154 2.091 . S
O156 C162 1.261 . S
C157 O166 1.247 . S
C157 O167 1.272 . S
O158 Co154 2.004 . S
O158 C163 1.259 1_455 S
Co159 O160 2.061 1_455 S
Co159 O165 2.052 . S
Co159 O167 2.135 . S
O160 Co159 2.061 1_655 S
O160 C163 1.235 . S
C161 O164 1.238 . S
C161 O165 1.241 . S
C162 O155 1.247 . S
C162 O156 1.261 . S
C163 O158 1.259 1_655 S
C163 O160 1.235 . S
O164 Co154 2.021 . S
O164 C161 1.238 . S
O165 Co159 2.052 . S
O165 C161 1.241 . S
O166 Co154 2.137 . S
O166 C157 1.247 . S
O167 Co154 2.244 . S
O167 C157 1.272 . S
O167 Co159 2.135 . S
Co168 O169 2.216 . S
Co168 O170 2.091 . S
Co168 O172 2.004 . S
Co168 O178 2.021 . S
Co168 O180 2.137 . S
Co168 O181 2.244 . S
O169 Co168 2.216 . S
O169 C176 1.247 . S
O170 Co168 2.091 . S
O170 C176 1.261 . S
C171 O180 1.247 . S
C171 O181 1.272 . S
O172 Co168 2.004 . S
O172 C177 1.259 1_545 S
Co173 O174 2.061 1_545 S
Co173 O179 2.052 . S
Co173 O181 2.135 . S
O174 Co173 2.061 1_565 S
O174 C177 1.235 . S
C175 O178 1.238 . S
C175 O179 1.241 . S
C176 O169 1.247 . S
C176 O170 1.261 . S
C177 O172 1.259 1_565 S
C177 O174 1.235 . S
O178 Co168 2.021 . S
O178 C175 1.238 . S
O179 Co173 2.052 . S
O179 C175 1.241 . S
O180 Co168 2.137 . S
O180 C171 1.247 . S
O181 Co168 2.244 . S
O181 C171 1.272 . S
O181 Co173 2.135 . S
Co182 O183 2.216 . S
Co182 O184 2.091 . S
Co182 O186 2.004 . S
Co182 O192 2.021 . S
Co182 O194 2.137 . S
Co182 O195 2.244 . S
O183 Co182 2.216 . S
O183 C190 1.247 . S
O184 Co182 2.091 . S
O184 C190 1.261 . S
C185 O194 1.247 . S
C185 O195 1.272 . S
O186 Co182 2.004 . S
O186 C191 1.259 1_455 S
Co187 O188 2.061 1_455 S
Co187 O193 2.052 . S
Co187 O195 2.135 . S
O188 Co187 2.061 1_655 S
O188 C191 1.235 . S
C189 O192 1.238 . S
C189 O193 1.241 . S
C190 O183 1.247 . S
C190 O184 1.261 . S
C191 O186 1.259 1_655 S
C191 O188 1.235 . S
O192 Co182 2.021 . S
O192 C189 1.238 . S
O193 Co187 2.052 . S
O193 C189 1.241 . S
O194 Co182 2.137 . S
O194 C185 1.247 . S
O195 Co182 2.244 . S
O195 C185 1.272 . S
O195 Co187 2.135 . S
Co196 O197 2.216 . S
Co196 O198 2.091 . S
Co196 O200 2.004 . S
Co196 O206 2.021 . S
Co196 O208 2.137 . S
Co196 O209 2.244 . S
O197 Co196 2.216 . S
O197 C204 1.247 . S
O198 Co196 2.091 . S
O198 C204 1.261 . S
C199 O208 1.247 . S
C199 O209 1.272 . S
O200 Co196 2.004 . S
O200 C205 1.259 1_565 S
Co201 O202 2.061 1_565 S
Co201 O207 2.052 . S
Co201 O209 2.135 . S
O202 Co201 2.061 1_545 S
O202 C205 1.235 . S
C203 O206 1.238 . S
C203 O207 1.241 . S
C204 O197 1.247 . S
C204 O198 1.261 . S
C205 O200 1.259 1_545 S
C205 O202 1.235 . S
O206 Co196 2.021 . S
O206 C203 1.238 . S
O207 Co201 2.052 . S
O207 C203 1.241 . S
O208 Co196 2.137 . S
O208 C199 1.247 . S
O209 Co196 2.244 . S
O209 C199 1.272 . S
O209 Co201 2.135 . S
Co210 O211 2.216 . S
Co210 O212 2.091 . S
Co210 O214 2.004 . S
Co210 O220 2.021 . S
Co210 O222 2.137 . S
Co210 O223 2.244 . S
O211 Co210 2.216 . S
O211 C218 1.247 . S
O212 Co210 2.091 . S
O212 C218 1.261 . S
C213 O222 1.247 . S
C213 O223 1.272 . S
O214 Co210 2.004 . S
O214 C219 1.259 1_655 S
Co215 O216 2.061 1_655 S
Co215 O221 2.052 . S
Co215 O223 2.135 . S
O216 Co215 2.061 1_455 S
O216 C219 1.235 . S
C217 O220 1.238 . S
C217 O221 1.241 . S
C218 O211 1.247 . S
C218 O212 1.261 . S
C219 O214 1.259 1_455 S
C219 O216 1.235 . S
O220 Co210 2.021 . S
O220 C217 1.238 . S
O221 Co215 2.052 . S
O221 C217 1.241 . S
O222 Co210 2.137 . S
O222 C213 1.247 . S
O223 Co210 2.244 . S
O223 C213 1.272 . S
O223 Co215 2.135 . S
C224 C225 1.363 . S
C224 C230 1.379 . S
C224 N232 1.356 . S
C225 C224 1.363 . S
C225 C231 1.363 . S
C226 C227 1.363 . S
C226 C231 1.379 . S
C226 N233 1.356 . S
C227 C226 1.363 . S
C227 C230 1.363 . S
N228 C230 1.356 . S
N228 H240 0.984 . S
N228 H241 0.985 . S
N229 C231 1.356 . S
N229 H234 0.984 . S
N229 H235 0.985 . S
C230 C224 1.379 . S
C230 C227 1.363 . S
C230 N228 1.356 . S
C231 C225 1.363 . S
C231 C226 1.379 . S
C231 N229 1.356 . S
N232 C224 1.356 . S
N232 H238 0.984 . S
N232 H239 0.984 . S
N233 C226 1.356 . S
N233 H236 0.984 . S
N233 H237 0.985 . S
H234 N229 0.984 . S
H235 N229 0.985 . S
H236 N233 0.984 . S
H237 N233 0.985 . S
H238 N232 0.984 . S
H239 N232 0.984 . S
H240 N228 0.984 . S
H241 N228 0.985 . S
C242 C243 1.363 . S
C242 C248 1.379 . S
C242 N250 1.356 . S
C243 C242 1.363 . S
C243 C249 1.363 . S
C244 C245 1.363 . S
C244 C249 1.379 . S
C244 N251 1.356 . S
C245 C244 1.363 . S
C245 C248 1.363 . S
N246 C248 1.356 . S
N246 H258 0.984 . S
N246 H259 0.985 . S
N247 C249 1.356 . S
N247 H252 0.984 . S
N247 H253 0.985 . S
C248 C242 1.379 . S
C248 C245 1.363 . S
C248 N246 1.356 . S
C249 C243 1.363 . S
C249 C244 1.379 . S
C249 N247 1.356 . S
N250 C242 1.356 . S
N250 H256 0.984 . S
N250 H257 0.984 . S
N251 C244 1.356 . S
N251 H254 0.984 . S
N251 H255 0.985 . S
H252 N247 0.984 . S
H253 N247 0.985 . S
H254 N251 0.984 . S
H255 N251 0.985 . S
H256 N250 0.984 . S
H257 N250 0.984 . S
H258 N246 0.984 . S
H259 N246 0.985 . S
C260 C261 1.363 . S
C260 C266 1.379 . S
C260 N268 1.356 . S
C261 C260 1.363 . S
C261 C267 1.363 . S
C262 C263 1.363 . S
C262 C267 1.379 . S
C262 N269 1.356 . S
C263 C262 1.363 . S
C263 C266 1.363 . S
N264 C266 1.356 . S
N264 H276 0.984 . S
N264 H277 0.985 . S
N265 C267 1.356 . S
N265 H270 0.984 . S
N265 H271 0.985 . S
C266 C260 1.379 . S
C266 C263 1.363 . S
C266 N264 1.356 . S
C267 C261 1.363 . S
C267 C262 1.379 . S
C267 N265 1.356 . S
N268 C260 1.356 . S
N268 H274 0.984 . S
N268 H275 0.984 . S
N269 C262 1.356 . S
N269 H272 0.984 . S
N269 H273 0.985 . S
H270 N265 0.984 . S
H271 N265 0.985 . S
H272 N269 0.984 . S
H273 N269 0.985 . S
H274 N268 0.984 . S
H275 N268 0.984 . S
H276 N264 0.984 . S
H277 N264 0.985 . S
C278 C279 1.363 . S
C278 C284 1.379 . S
C278 N286 1.356 . S
C279 C278 1.363 . S
C279 C285 1.363 . S
C280 C281 1.363 . S
C280 C285 1.379 . S
C280 N287 1.356 . S
C281 C280 1.363 . S
C281 C284 1.363 . S
N282 C284 1.356 . S
N282 H294 0.984 . S
N282 H295 0.985 . S
N283 C285 1.356 . S
N283 H288 0.984 . S
N283 H289 0.985 . S
C284 C278 1.379 . S
C284 C281 1.363 . S
C284 N282 1.356 . S
C285 C279 1.363 . S
C285 C280 1.379 . S
C285 N283 1.356 . S
N286 C278 1.356 . S
N286 H292 0.984 . S
N286 H293 0.984 . S
N287 C280 1.356 . S
N287 H290 0.984 . S
N287 H291 0.985 . S
H288 N283 0.984 . S
H289 N283 0.985 . S
H290 N287 0.984 . S
H291 N287 0.985 . S
H292 N286 0.984 . S
H293 N286 0.984 . S
H294 N282 0.984 . S
H295 N282 0.985 . S
C296 C297 1.363 . S
C296 C302 1.379 . S
C296 N304 1.356 . S
C297 C296 1.363 . S
C297 C303 1.363 . S
C298 C299 1.363 . S
C298 C303 1.379 . S
C298 N305 1.356 . S
C299 C298 1.363 . S
C299 C302 1.363 . S
N300 C302 1.356 . S
N300 H312 0.984 . S
N300 H313 0.985 . S
N301 C303 1.356 . S
N301 H306 0.984 . S
N301 H307 0.985 . S
C302 C296 1.379 . S
C302 C299 1.363 . S
C302 N300 1.356 . S
C303 C297 1.363 . S
C303 C298 1.379 . S
C303 N301 1.356 . S
N304 C296 1.356 . S
N304 H310 0.984 . S
N304 H311 0.984 . S
N305 C298 1.356 . S
N305 H308 0.984 . S
N305 H309 0.985 . S
H306 N301 0.984 . S
H307 N301 0.985 . S
H308 N305 0.984 . S
H309 N305 0.985 . S
H310 N304 0.984 . S
H311 N304 0.984 . S
H312 N300 0.984 . S
H313 N300 0.985 . S
C314 C315 1.363 . S
C314 C320 1.379 . S
C314 N322 1.356 . S
C315 C314 1.363 . S
C315 C321 1.363 . S
C316 C317 1.363 . S
C316 C321 1.379 . S
C316 N323 1.356 . S
C317 C316 1.363 . S
C317 C320 1.363 . S
N318 C320 1.356 . S
N318 H330 0.984 . S
N318 H331 0.985 . S
N319 C321 1.356 . S
N319 H324 0.984 . S
N319 H325 0.985 . S
C320 C314 1.379 . S
C320 C317 1.363 . S
C320 N318 1.356 . S
C321 C315 1.363 . S
C321 C316 1.379 . S
C321 N319 1.356 . S
N322 C314 1.356 . S
N322 H328 0.984 . S
N322 H329 0.984 . S
N323 C316 1.356 . S
N323 H326 0.984 . S
N323 H327 0.985 . S
H324 N319 0.984 . S
H325 N319 0.985 . S
H326 N323 0.984 . S
H327 N323 0.985 . S
H328 N322 0.984 . S
H329 N322 0.984 . S
H330 N318 0.984 . S
H331 N318 0.985 . S
C332 C333 1.363 . S
C332 C338 1.379 . S
C332 N340 1.356 . S
C333 C332 1.363 . S
C333 C339 1.363 . S
C334 C335 1.363 . S
C334 C339 1.379 . S
C334 N341 1.356 . S
C335 C334 1.363 . S
C335 C338 1.363 . S
N336 C338 1.356 . S
N336 H348 0.984 . S
N336 H349 0.985 . S
N337 C339 1.356 . S
N337 H342 0.984 . S
N337 H343 0.985 . S
C338 C332 1.379 . S
C338 C335 1.363 . S
C338 N336 1.356 . S
C339 C333 1.363 . S
C339 C334 1.379 . S
C339 N337 1.356 . S
N340 C332 1.356 . S
N340 H346 0.984 . S
N340 H347 0.984 . S
N341 C334 1.356 . S
N341 H344 0.984 . S
N341 H345 0.985 . S
H342 N337 0.984 . S
H343 N337 0.985 . S
H344 N341 0.984 . S
H345 N341 0.985 . S
H346 N340 0.984 . S
H347 N340 0.984 . S
H348 N336 0.984 . S
H349 N336 0.985 . S
C350 C351 1.363 . S
C350 C356 1.379 . S
C350 N358 1.356 . S
C351 C350 1.363 . S
C351 C357 1.363 . S
C352 C353 1.363 . S
C352 C357 1.379 . S
C352 N359 1.356 . S
C353 C352 1.363 . S
C353 C356 1.363 . S
N354 C356 1.356 . S
N354 H366 0.984 . S
N354 H367 0.985 . S
N355 C357 1.356 . S
N355 H360 0.984 . S
N355 H361 0.985 . S
C356 C350 1.379 . S
C356 C353 1.363 . S
C356 N354 1.356 . S
C357 C351 1.363 . S
C357 C352 1.379 . S
C357 N355 1.356 . S
N358 C350 1.356 . S
N358 H364 0.984 . S
N358 H365 0.984 . S
N359 C352 1.356 . S
N359 H362 0.984 . S
N359 H363 0.985 . S
H360 N355 0.984 . S
H361 N355 0.985 . S
H362 N359 0.984 . S
H363 N359 0.985 . S
H364 N358 0.984 . S
H365 N358 0.984 . S
H366 N354 0.984 . S
H367 N354 0.985 . S
C368 C369 1.363 . S
C368 C374 1.379 . S
C368 N376 1.356 . S
C369 C368 1.363 . S
C369 C375 1.363 . S
C370 C371 1.363 . S
C370 C375 1.379 . S
C370 N377 1.356 . S
C371 C370 1.363 . S
C371 C374 1.363 . S
N372 C374 1.356 . S
N372 H384 0.984 . S
N372 H385 0.985 . S
N373 C375 1.356 . S
N373 H378 0.984 . S
N373 H379 0.985 . S
C374 C368 1.379 . S
C374 C371 1.363 . S
C374 N372 1.356 . S
C375 C369 1.363 . S
C375 C370 1.379 . S
C375 N373 1.356 . S
N376 C368 1.356 . S
N376 H382 0.984 . S
N376 H383 0.984 . S
N377 C370 1.356 . S
N377 H380 0.984 . S
N377 H381 0.985 . S
H378 N373 0.984 . S
H379 N373 0.985 . S
H380 N377 0.984 . S
H381 N377 0.985 . S
H382 N376 0.984 . S
H383 N376 0.984 . S
H384 N372 0.984 . S
H385 N372 0.985 . S
C386 C387 1.363 . S
C386 C392 1.379 . S
C386 N394 1.356 . S
C387 C386 1.363 . S
C387 C393 1.363 . S
C388 C389 1.363 . S
C388 C393 1.379 . S
C388 N395 1.356 . S
C389 C388 1.363 . S
C389 C392 1.363 . S
N390 C392 1.356 . S
N390 H402 0.984 . S
N390 H403 0.985 . S
N391 C393 1.356 . S
N391 H396 0.984 . S
N391 H397 0.985 . S
C392 C386 1.379 . S
C392 C389 1.363 . S
C392 N390 1.356 . S
C393 C387 1.363 . S
C393 C388 1.379 . S
C393 N391 1.356 . S
N394 C386 1.356 . S
N394 H400 0.984 . S
N394 H401 0.984 . S
N395 C388 1.356 . S
N395 H398 0.984 . S
N395 H399 0.985 . S
H396 N391 0.984 . S
H397 N391 0.985 . S
H398 N395 0.984 . S
H399 N395 0.985 . S
H400 N394 0.984 . S
H401 N394 0.984 . S
H402 N390 0.984 . S
H403 N390 0.985 . S
C404 C405 1.363 . S
C404 C410 1.379 . S
C404 N412 1.356 . S
C405 C404 1.363 . S
C405 C411 1.363 . S
C406 C407 1.363 . S
C406 C411 1.379 . S
C406 N413 1.356 . S
C407 C406 1.363 . S
C407 C410 1.363 . S
N408 C410 1.356 . S
N408 H420 0.984 . S
N408 H421 0.985 . S
N409 C411 1.356 . S
N409 H414 0.984 . S
N409 H415 0.985 . S
C410 C404 1.379 . S
C410 C407 1.363 . S
C410 N408 1.356 . S
C411 C405 1.363 . S
C411 C406 1.379 . S
C411 N409 1.356 . S
N412 C404 1.356 . S
N412 H418 0.984 . S
N412 H419 0.984 . S
N413 C406 1.356 . S
N413 H416 0.984 . S
N413 H417 0.985 . S
H414 N409 0.984 . S
H415 N409 0.985 . S
H416 N413 0.984 . S
H417 N413 0.985 . S
H418 N412 0.984 . S
H419 N412 0.984 . S
H420 N408 0.984 . S
H421 N408 0.985 . S
C422 C423 1.363 . S
C422 C428 1.379 . S
C422 N430 1.356 . S
C423 C422 1.363 . S
C423 C429 1.363 . S
C424 C425 1.363 . S
C424 C429 1.379 . S
C424 N431 1.356 . S
C425 C424 1.363 . S
C425 C428 1.363 . S
N426 C428 1.356 . S
N426 H438 0.984 . S
N426 H439 0.985 . S
N427 C429 1.356 . S
N427 H432 0.984 . S
N427 H433 0.985 . S
C428 C422 1.379 . S
C428 C425 1.363 . S
C428 N426 1.356 . S
C429 C423 1.363 . S
C429 C424 1.379 . S
C429 N427 1.356 . S
N430 C422 1.356 . S
N430 H436 0.984 . S
N430 H437 0.984 . S
N431 C424 1.356 . S
N431 H434 0.984 . S
N431 H435 0.985 . S
H432 N427 0.984 . S
H433 N427 0.985 . S
H434 N431 0.984 . S
H435 N431 0.985 . S
H436 N430 0.984 . S
H437 N430 0.984 . S
H438 N426 0.984 . S
H439 N426 0.985 . S
C440 C441 1.363 . S
C440 C446 1.379 . S
C440 N448 1.356 . S
C441 C440 1.363 . S
C441 C447 1.363 . S
C442 C443 1.363 . S
C442 C447 1.379 . S
C442 N449 1.356 . S
C443 C442 1.363 . S
C443 C446 1.363 . S
N444 C446 1.356 . S
N444 H456 0.984 . S
N444 H457 0.985 . S
N445 C447 1.356 . S
N445 H450 0.984 . S
N445 H451 0.985 . S
C446 C440 1.379 . S
C446 C443 1.363 . S
C446 N444 1.356 . S
C447 C441 1.363 . S
C447 C442 1.379 . S
C447 N445 1.356 . S
N448 C440 1.356 . S
N448 H454 0.984 . S
N448 H455 0.984 . S
N449 C442 1.356 . S
N449 H452 0.984 . S
N449 H453 0.985 . S
H450 N445 0.984 . S
H451 N445 0.985 . S
H452 N449 0.984 . S
H453 N449 0.985 . S
H454 N448 0.984 . S
H455 N448 0.984 . S
H456 N444 0.984 . S
H457 N444 0.985 . S
C458 C459 1.363 . S
C458 C464 1.379 . S
C458 N466 1.356 . S
C459 C458 1.363 . S
C459 C465 1.363 . S
C460 C461 1.363 . S
C460 C465 1.379 . S
C460 N467 1.356 . S
C461 C460 1.363 . S
C461 C464 1.363 . S
N462 C464 1.356 . S
N462 H474 0.984 . S
N462 H475 0.985 . S
N463 C465 1.356 . S
N463 H468 0.984 . S
N463 H469 0.985 . S
C464 C458 1.379 . S
C464 C461 1.363 . S
C464 N462 1.356 . S
C465 C459 1.363 . S
C465 C460 1.379 . S
C465 N463 1.356 . S
N466 C458 1.356 . S
N466 H472 0.984 . S
N466 H473 0.984 . S
N467 C460 1.356 . S
N467 H470 0.984 . S
N467 H471 0.985 . S
H468 N463 0.984 . S
H469 N463 0.985 . S
H470 N467 0.984 . S
H471 N467 0.985 . S
H472 N466 0.984 . S
H473 N466 0.984 . S
H474 N462 0.984 . S
H475 N462 0.985 . S
C476 C477 1.363 . S
C476 C482 1.379 . S
C476 N484 1.356 . S
C477 C476 1.363 . S
C477 C483 1.363 . S
C478 C479 1.363 . S
C478 C483 1.379 . S
C478 N485 1.356 . S
C479 C478 1.363 . S
C479 C482 1.363 . S
N480 C482 1.356 . S
N480 H492 0.984 . S
N480 H493 0.985 . S
N481 C483 1.356 . S
N481 H486 0.984 . S
N481 H487 0.985 . S
C482 C476 1.379 . S
C482 C479 1.363 . S
C482 N480 1.356 . S
C483 C477 1.363 . S
C483 C478 1.379 . S
C483 N481 1.356 . S
N484 C476 1.356 . S
N484 H490 0.984 . S
N484 H491 0.984 . S
N485 C478 1.356 . S
N485 H488 0.984 . S
N485 H489 0.985 . S
H486 N481 0.984 . S
H487 N481 0.985 . S
H488 N485 0.984 . S
H489 N485 0.985 . S
H490 N484 0.984 . S
H491 N484 0.984 . S
H492 N480 0.984 . S
H493 N480 0.985 . S
C494 C495 1.363 . S
C494 C500 1.379 . S
C494 N502 1.356 . S
C495 C494 1.363 . S
C495 C501 1.363 . S
C496 C497 1.363 . S
C496 C501 1.379 . S
C496 N503 1.356 . S
C497 C496 1.363 . S
C497 C500 1.363 . S
N498 C500 1.356 . S
N498 H510 0.984 . S
N498 H511 0.985 . S
N499 C501 1.356 . S
N499 H504 0.984 . S
N499 H505 0.985 . S
C500 C494 1.379 . S
C500 C497 1.363 . S
C500 N498 1.356 . S
C501 C495 1.363 . S
C501 C496 1.379 . S
C501 N499 1.356 . S
N502 C494 1.356 . S
N502 H508 0.984 . S
N502 H509 0.984 . S
N503 C496 1.356 . S
N503 H506 0.984 . S
N503 H507 0.985 . S
H504 N499 0.984 . S
H505 N499 0.985 . S
H506 N503 0.984 . S
H507 N503 0.985 . S
H508 N502 0.984 . S
H509 N502 0.984 . S
H510 N498 0.984 . S
H511 N498 0.985 . S
C512 C513 1.363 . S
C512 C518 1.379 . S
C512 N520 1.356 . S
C513 C512 1.363 . S
C513 C519 1.363 . S
C514 C515 1.363 . S
C514 C519 1.379 . S
C514 N521 1.356 . S
C515 C514 1.363 . S
C515 C518 1.363 . S
N516 C518 1.356 . S
N516 H528 0.984 . S
N516 H529 0.985 . S
N517 C519 1.356 . S
N517 H522 0.984 . S
N517 H523 0.985 . S
C518 C512 1.379 . S
C518 C515 1.363 . S
C518 N516 1.356 . S
C519 C513 1.363 . S
C519 C514 1.379 . S
C519 N517 1.356 . S
N520 C512 1.356 . S
N520 H526 0.984 . S
N520 H527 0.984 . S
N521 C514 1.356 . S
N521 H524 0.984 . S
N521 H525 0.985 . S
H522 N517 0.984 . S
H523 N517 0.985 . S
H524 N521 0.984 . S
H525 N521 0.985 . S
H526 N520 0.984 . S
H527 N520 0.984 . S
H528 N516 0.984 . S
H529 N516 0.985 . S
C530 C531 1.363 . S
C530 C536 1.379 . S
C530 N538 1.356 . S
C531 C530 1.363 . S
C531 C537 1.363 . S
C532 C533 1.363 . S
C532 C537 1.379 . S
C532 N539 1.356 . S
C533 C532 1.363 . S
C533 C536 1.363 . S
N534 C536 1.356 . S
N534 H546 0.984 . S
N534 H547 0.985 . S
N535 C537 1.356 . S
N535 H540 0.984 . S
N535 H541 0.985 . S
C536 C530 1.379 . S
C536 C533 1.363 . S
C536 N534 1.356 . S
C537 C531 1.363 . S
C537 C532 1.379 . S
C537 N535 1.356 . S
N538 C530 1.356 . S
N538 H544 0.984 . S
N538 H545 0.984 . S
N539 C532 1.356 . S
N539 H542 0.984 . S
N539 H543 0.985 . S
H540 N535 0.984 . S
H541 N535 0.985 . S
H542 N539 0.984 . S
H543 N539 0.985 . S
H544 N538 0.984 . S
H545 N538 0.984 . S
H546 N534 0.984 . S
H547 N534 0.985 . S
C548 C549 1.363 . S
C548 C554 1.379 . S
C548 N556 1.356 . S
C549 C548 1.363 . S
C549 C555 1.363 . S
C550 C551 1.363 . S
C550 C555 1.379 . S
C550 N557 1.356 . S
C551 C550 1.363 . S
C551 C554 1.363 . S
N552 C554 1.356 . S
N552 H564 0.984 . S
N552 H565 0.985 . S
N553 C555 1.356 . S
N553 H558 0.984 . S
N553 H559 0.985 . S
C554 C548 1.379 . S
C554 C551 1.363 . S
C554 N552 1.356 . S
C555 C549 1.363 . S
C555 C550 1.379 . S
C555 N553 1.356 . S
N556 C548 1.356 . S
N556 H562 0.984 . S
N556 H563 0.984 . S
N557 C550 1.356 . S
N557 H560 0.984 . S
N557 H561 0.985 . S
H558 N553 0.984 . S
H559 N553 0.985 . S
H560 N557 0.984 . S
H561 N557 0.985 . S
H562 N556 0.984 . S
H563 N556 0.984 . S
H564 N552 0.984 . S
H565 N552 0.985 . S
C566 C567 1.363 . S
C566 C572 1.379 . S
C566 N574 1.356 . S
C567 C566 1.363 . S
C567 C573 1.363 . S
C568 C569 1.363 . S
C568 C573 1.379 . S
C568 N575 1.356 . S
C569 C568 1.363 . S
C569 C572 1.363 . S
N570 C572 1.356 . S
N570 H582 0.984 . S
N570 H583 0.985 . S
N571 C573 1.356 . S
N571 H576 0.984 . S
N571 H577 0.985 . S
C572 C566 1.379 . S
C572 C569 1.363 . S
C572 N570 1.356 . S
C573 C567 1.363 . S
C573 C568 1.379 . S
C573 N571 1.356 . S
N574 C566 1.356 . S
N574 H580 0.984 . S
N574 H581 0.984 . S
N575 C568 1.356 . S
N575 H578 0.984 . S
N575 H579 0.985 . S
H576 N571 0.984 . S
H577 N571 0.985 . S
H578 N575 0.984 . S
H579 N575 0.985 . S
H580 N574 0.984 . S
H581 N574 0.984 . S
H582 N570 0.984 . S
H583 N570 0.985 . S
C584 C585 1.363 . S
C584 C590 1.379 . S
C584 N592 1.356 . S
C585 C584 1.363 . S
C585 C591 1.363 . S
C586 C587 1.363 . S
C586 C591 1.379 . S
C586 N593 1.356 . S
C587 C586 1.363 . S
C587 C590 1.363 . S
N588 C590 1.356 . S
N588 H600 0.984 . S
N588 H601 0.985 . S
N589 C591 1.356 . S
N589 H594 0.984 . S
N589 H595 0.985 . S
C590 C584 1.379 . S
C590 C587 1.363 . S
C590 N588 1.356 . S
C591 C585 1.363 . S
C591 C586 1.379 . S
C591 N589 1.356 . S
N592 C584 1.356 . S
N592 H598 0.978 1_565 S
N592 H599 0.984 1_565 S
N593 C586 1.356 . S
N593 H596 0.984 . S
N593 H597 0.985 . S
H594 N589 0.984 . S
H595 N589 0.985 . S
H596 N593 0.984 . S
H597 N593 0.985 . S
H598 N592 0.978 1_545 S
H599 N592 0.984 1_545 S
H600 N588 0.984 . S
H601 N588 0.985 . S
C602 C603 1.363 . S
C602 C608 1.379 . S
C602 N610 1.356 . S
C603 C602 1.363 . S
C603 C609 1.363 . S
C604 C605 1.363 . S
C604 C609 1.379 . S
C604 N611 1.356 . S
C605 C604 1.363 . S
C605 C608 1.363 . S
N606 C608 1.356 . S
N606 H618 0.984 . S
N606 H619 0.985 . S
N607 C609 1.356 . S
N607 H612 0.984 . S
N607 H613 0.985 . S
C608 C602 1.379 . S
C608 C605 1.363 . S
C608 N606 1.356 . S
C609 C603 1.363 . S
C609 C604 1.379 . S
C609 N607 1.356 . S
N610 C602 1.356 . S
N610 H616 0.984 . S
N610 H617 0.984 . S
N611 C604 1.356 . S
N611 H614 0.984 . S
N611 H615 0.985 . S
H612 N607 0.984 . S
H613 N607 0.985 . S
H614 N611 0.984 . S
H615 N611 0.985 . S
H616 N610 0.984 . S
H617 N610 0.984 . S
H618 N606 0.984 . S
H619 N606 0.985 . S
C620 C621 1.363 . S
C620 C626 1.379 . S
C620 N628 1.356 . S
C621 C620 1.363 . S
C621 C627 1.363 . S
C622 C623 1.363 . S
C622 C627 1.379 . S
C622 N629 1.356 . S
C623 C622 1.363 . S
C623 C626 1.363 . S
N624 C626 1.356 . S
N624 H636 0.984 1_545 S
N624 H637 0.985 1_545 S
N625 C627 1.356 . S
N625 H630 0.984 . S
N625 H631 0.985 . S
C626 C620 1.379 . S
C626 C623 1.363 . S
C626 N624 1.356 . S
C627 C621 1.363 . S
C627 C622 1.379 . S
C627 N625 1.356 . S
N628 C620 1.356 . S
N628 H634 0.984 . S
N628 H635 0.984 . S
N629 C622 1.356 . S
N629 H632 0.984 . S
N629 H633 0.985 . S
H630 N625 0.984 . S
H631 N625 0.985 . S
H632 N629 0.984 . S
H633 N629 0.985 . S
H634 N628 0.984 . S
H635 N628 0.984 . S
H636 N624 0.984 1_565 S
H637 N624 0.985 1_565 S
C638 C639 1.363 . S
C638 C644 1.379 . S
C638 N646 1.356 . S
C639 C638 1.363 . S
C639 C645 1.363 . S
C640 C641 1.363 . S
C640 C645 1.379 . S
C640 N647 1.356 . S
C641 C640 1.363 . S
C641 C644 1.363 . S
N642 C644 1.356 . S
N642 H654 0.984 . S
N642 H655 0.985 . S
N643 C645 1.356 . S
N643 H648 0.984 . S
N643 H649 0.985 . S
C644 C638 1.379 . S
C644 C641 1.363 . S
C644 N642 1.356 . S
C645 C639 1.363 . S
C645 C640 1.379 . S
C645 N643 1.356 . S
N646 C638 1.356 . S
N646 H652 0.984 . S
N646 H653 0.984 . S
N647 C640 1.356 . S
N647 H650 0.984 . S
N647 H651 0.985 . S
H648 N643 0.984 . S
H649 N643 0.985 . S
H650 N647 0.984 . S
H651 N647 0.985 . S
H652 N646 0.984 . S
H653 N646 0.984 . S
H654 N642 0.984 . S
H655 N642 0.985 . S
C656 C657 1.363 . S
C656 C662 1.379 . S
C656 N664 1.356 . S
C657 C656 1.363 . S
C657 C663 1.363 . S
C658 C659 1.363 . S
C658 C663 1.379 . S
C658 N665 1.356 . S
C659 C658 1.363 . S
C659 C662 1.363 . S
N660 C662 1.356 . S
N660 H672 0.984 . S
N660 H673 0.985 . S
N661 C663 1.356 . S
N661 H666 0.984 . S
N661 H667 0.985 . S
C662 C656 1.379 . S
C662 C659 1.363 . S
C662 N660 1.356 . S
C663 C657 1.363 . S
C663 C658 1.379 . S
C663 N661 1.356 . S
N664 C656 1.356 . S
N664 H670 0.984 . S
N664 H671 0.984 . S
N665 C658 1.356 . S
N665 H668 0.984 . S
N665 H669 0.985 . S
H666 N661 0.984 . S
H667 N661 0.985 . S
H668 N665 0.984 . S
H669 N665 0.985 . S
H670 N664 0.984 . S
H671 N664 0.984 . S
H672 N660 0.984 . S
H673 N660 0.985 . S
C674 C675 1.363 . S
C674 C680 1.379 . S
C674 N682 1.356 . S
C675 C674 1.363 . S
C675 C681 1.363 . S
C676 C677 1.363 . S
C676 C681 1.379 . S
C676 N683 1.356 . S
C677 C676 1.363 . S
C677 C680 1.363 . S
N678 C680 1.356 . S
N678 H690 0.984 . S
N678 H691 0.985 . S
N679 C681 1.356 . S
N679 H684 0.984 . S
N679 H685 0.985 . S
C680 C674 1.379 . S
C680 C677 1.363 . S
C680 N678 1.356 . S
C681 C675 1.363 . S
C681 C676 1.379 . S
C681 N679 1.356 . S
N682 C674 1.356 . S
N682 H688 0.984 . S
N682 H689 0.984 . S
N683 C676 1.356 . S
N683 H686 0.984 . S
N683 H687 0.985 . S
H684 N679 0.984 . S
H685 N679 0.985 . S
H686 N683 0.984 . S
H687 N683 0.985 . S
H688 N682 0.984 . S
H689 N682 0.984 . S
H690 N678 0.984 . S
H691 N678 0.985 . S
C692 C693 1.363 . S
C692 C698 1.379 . S
C692 N700 1.356 . S
C693 C692 1.363 . S
C693 C699 1.363 . S
C694 C695 1.363 . S
C694 C699 1.379 . S
C694 N701 1.356 . S
C695 C694 1.363 . S
C695 C698 1.363 . S
N696 C698 1.356 . S
N696 H708 0.984 . S
N696 H709 0.985 . S
N697 C699 1.356 . S
N697 H702 0.984 . S
N697 H703 0.985 . S
C698 C692 1.379 . S
C698 C695 1.363 . S
C698 N696 1.356 . S
C699 C693 1.363 . S
C699 C694 1.379 . S
C699 N697 1.356 . S
N700 C692 1.356 . S
N700 H706 0.984 . S
N700 H707 0.984 . S
N701 C694 1.356 . S
N701 H704 0.984 . S
N701 H705 0.985 . S
H702 N697 0.984 . S
H703 N697 0.985 . S
H704 N701 0.984 . S
H705 N701 0.985 . S
H706 N700 0.984 . S
H707 N700 0.984 . S
H708 N696 0.984 . S
H709 N696 0.985 . S
C710 C711 1.363 . S
C710 C716 1.379 . S
C710 N718 1.356 . S
C711 C710 1.363 . S
C711 C717 1.363 . S
C712 C713 1.363 . S
C712 C717 1.379 . S
C712 N719 1.356 . S
C713 C712 1.363 . S
C713 C716 1.363 . S
N714 C716 1.356 . S
N714 H726 0.984 . S
N714 H727 0.985 . S
N715 C717 1.356 . S
N715 H720 0.984 . S
N715 H721 0.985 . S
C716 C710 1.379 . S
C716 C713 1.363 . S
C716 N714 1.356 . S
C717 C711 1.363 . S
C717 C712 1.379 . S
C717 N715 1.356 . S
N718 C710 1.356 . S
N718 H724 0.984 . S
N718 H725 0.984 . S
N719 C712 1.356 . S
N719 H722 0.984 . S
N719 H723 0.985 . S
H720 N715 0.984 . S
H721 N715 0.985 . S
H722 N719 0.984 . S
H723 N719 0.985 . S
H724 N718 0.984 . S
H725 N718 0.984 . S
H726 N714 0.984 . S
H727 N714 0.985 . S
C728 C729 1.363 1_565 S
C728 C734 1.379 1_554 S
C728 N736 1.356 . S
C729 C728 1.363 1_545 S
C729 C735 1.363 . S
C730 C731 1.363 1_545 S
C730 C735 1.379 1_556 S
C730 N737 1.356 . S
C731 C730 1.363 1_565 S
C731 C734 1.363 . S
N732 C734 1.356 . S
N732 H744 0.984 . S
N732 H745 0.985 . S
N733 C735 1.356 . S
N733 H738 0.984 . S
N733 H739 0.985 . S
C734 C728 1.379 1_556 S
C734 C731 1.363 . S
C734 N732 1.356 . S
C735 C729 1.363 . S
C735 C730 1.379 1_554 S
C735 N733 1.356 . S
N736 C728 1.356 . S
N736 H742 0.984 . S
N736 H743 0.984 . S
N737 C730 1.356 . S
N737 H740 0.984 . S
N737 H741 0.985 . S
H738 N733 0.984 . S
H739 N733 0.985 . S
H740 N737 0.984 . S
H741 N737 0.985 . S
H742 N736 0.984 . S
H743 N736 0.984 . S
H744 N732 0.984 . S
H745 N732 0.985 . S
C746 C747 1.363 1_655 S
C746 C752 1.379 1_556 S
C746 N754 1.356 . S
C747 C746 1.363 1_455 S
C747 C753 1.363 . S
C748 C749 1.363 1_455 S
C748 C753 1.379 1_554 S
C748 N755 1.356 . S
C749 C748 1.363 1_655 S
C749 C752 1.363 . S
N750 C752 1.356 . S
N750 H762 0.984 . S
N750 H763 0.985 . S
N751 C753 1.356 . S
N751 H756 0.984 . S
N751 H757 0.985 . S
C752 C746 1.379 1_554 S
C752 C749 1.363 . S
C752 N750 1.356 . S
C753 C747 1.363 . S
C753 C748 1.379 1_556 S
C753 N751 1.356 . S
N754 C746 1.356 . S
N754 H760 0.984 . S
N754 H761 0.984 . S
N755 C748 1.356 . S
N755 H758 0.984 . S
N755 H759 0.985 . S
H756 N751 0.984 . S
H757 N751 0.985 . S
H758 N755 0.984 . S
H759 N755 0.985 . S
H760 N754 0.984 . S
H761 N754 0.984 . S
H762 N750 0.984 . S
H763 N750 0.985 . S
C764 C765 1.363 . S
C764 C770 1.379 1_556 S
C764 N772 1.356 . S
C765 C764 1.363 . S
C765 C771 1.363 1_545 S
C766 C767 1.363 . S
C766 C771 1.379 1_554 S
C766 N773 1.356 . S
C767 C766 1.363 . S
C767 C770 1.363 1_565 S
N768 C770 1.356 . S
N768 H780 0.984 . S
N768 H781 0.985 . S
N769 C771 1.356 . S
N769 H774 0.984 . S
N769 H775 0.985 . S
C770 C764 1.379 1_554 S
C770 C767 1.363 1_545 S
C770 N768 1.356 . S
C771 C765 1.363 1_565 S
C771 C766 1.379 1_556 S
C771 N769 1.356 . S
N772 C764 1.356 . S
N772 H778 0.984 . S
N772 H779 0.984 . S
N773 C766 1.356 . S
N773 H776 0.984 . S
N773 H777 0.985 . S
H774 N769 0.984 . S
H775 N769 0.985 . S
H776 N773 0.984 . S
H777 N773 0.985 . S
H778 N772 0.984 . S
H779 N772 0.984 . S
H780 N768 0.984 . S
H781 N768 0.985 . S
C782 C783 1.363 . S
C782 C788 1.379 1_556 S
C782 N790 1.356 . S
C783 C782 1.363 . S
C783 C789 1.363 1_655 S
C784 C785 1.363 . S
C784 C789 1.379 1_554 S
C784 N791 1.356 . S
C785 C784 1.363 . S
C785 C788 1.363 1_455 S
N786 C788 1.356 . S
N786 H798 0.984 . S
N786 H799 0.985 . S
N787 C789 1.356 . S
N787 H792 0.984 . S
N787 H793 0.985 . S
C788 C782 1.379 1_554 S
C788 C785 1.363 1_655 S
C788 N786 1.356 . S
C789 C783 1.363 1_455 S
C789 C784 1.379 1_556 S
C789 N787 1.356 . S
N790 C782 1.356 . S
N790 H796 0.984 . S
N790 H797 0.984 . S
N791 C784 1.356 . S
N791 H794 0.984 . S
N791 H795 0.985 . S
H792 N787 0.984 . S
H793 N787 0.985 . S
H794 N791 0.984 . S
H795 N791 0.985 . S
H796 N790 0.984 . S
H797 N790 0.984 . S
H798 N786 0.984 . S
H799 N786 0.985 . S
C225 C8 1.340 . S
C227 C106 1.340 . S
C243 C22 1.340 . S
C245 C64 1.340 . S
C261 C78 1.340 . S
C263 C36 1.340 . S
C279 C50 1.340 . S
C281 C92 1.340 . S
C297 C120 1.340 . S
C299 C218 1.340 . S
C315 C176 1.340 . S
C317 C134 1.340 . S
C333 C190 1.340 . S
C335 C148 1.340 . S
C351 C204 1.340 . S
C353 C162 1.340 . S
C369 C9 1.382 . S
C371 C157 1.463 . S
C387 C23 1.382 . S
C389 C115 1.463 . S
C405 C129 1.463 . S
C407 C37 1.382 . S
C423 C51 1.382 . S
C425 C143 1.463 . S
C441 C65 1.382 . S
C443 C185 1.463 . S
C459 C199 1.463 . S
C461 C79 1.382 . S
C477 C93 1.382 . S
C479 C213 1.463 . S
C495 C171 1.463 . S
C497 C107 1.382 . S
C513 C121 1.382 . S
C515 C45 1.463 . S
C531 C3 1.463 . S
C533 C135 1.382 . S
C549 C149 1.382 . S
C551 C17 1.463 . S
C567 C31 1.463 . S
C569 C163 1.382 . S
C585 C177 1.382 . S
C587 C73 1.463 . S
C603 C87 1.463 . S
C605 C191 1.382 . S
C621 C101 1.463 . S
C623 C205 1.382 . S
C639 C59 1.463 . S
C641 C219 1.382 . S
C657 C63 1.558 . S
C659 C7 1.558 . S
C675 C77 1.558 . S
C677 C21 1.558 . S
C693 C35 1.558 . S
C695 C91 1.558 . S
C711 C105 1.558 . S
C713 C49 1.558 . S
C729 C175 1.558 . S
C731 C119 1.558 . S
C747 C189 1.558 . S
C749 C133 1.558 . S
C765 C147 1.558 . S
C767 C203 1.558 . S
C783 C217 1.558 . S
C785 C161 1.558 . S
