# Generated by pormake.
# Topology uoz, (4)-cn, num edge types: 1
# Building blocks:
#     Node 0, Type 0, BuildingBlock: NAHDIM_clean_sbu_0, # of connection points: 4
#     Node 1, Type 0, BuildingBlock: NAHDIM_clean_sbu_0, # of connection points: 4
#     Node 2, Type 0, BuildingBlock: NAHDIM_clean_sbu_0, # of connection points: 4
#     Node 3, Type 0, BuildingBlock: NAHDIM_clean_sbu_0, # of connection points: 4
#     Node 4, Type 0, BuildingBlock: NAHDIM_clean_sbu_0, # of connection points: 4
#     Node 5, Type 0, BuildingBlock: NAHDIM_clean_sbu_0, # of connection points: 4
#     Node 6, Type 0, BuildingBlock: NAHDIM_clean_sbu_0, # of connection points: 4
#     Node 7, Type 0, BuildingBlock: NAHDIM_clean_sbu_0, # of connection points: 4
#     Node 8, Type 0, BuildingBlock: NAHDIM_clean_sbu_0, # of connection points: 4
#     Node 9, Type 0, BuildingBlock: NAHDIM_clean_sbu_0, # of connection points: 4
#     Node 10, Type 0, BuildingBlock: NAHDIM_clean_sbu_0, # of connection points: 4
#     Node 11, Type 0, BuildingBlock: NAHDIM_clean_sbu_0, # of connection points: 4
#     Node 12, Type 0, BuildingBlock: NAHDIM_clean_sbu_0, # of connection points: 4
#     Node 13, Type 0, BuildingBlock: NAHDIM_clean_sbu_0, # of connection points: 4
#     Node 14, Type 0, BuildingBlock: NAHDIM_clean_sbu_0, # of connection points: 4
#     Node 15, Type 0, BuildingBlock: NAHDIM_clean_sbu_0, # of connection points: 4
#     Edge 16, Type (0, 0), BuildingBlock: XIVTED_clean_linker_0, # of connection points: 2
#     Edge 17, Type (0, 0), BuildingBlock: XIVTED_clean_linker_0, # of connection points: 2
#     Edge 18, Type (0, 0), BuildingBlock: XIVTED_clean_linker_0, # of connection points: 2
#     Edge 19, Type (0, 0), BuildingBlock: XIVTED_clean_linker_0, # of connection points: 2
#     Edge 20, Type (0, 0), BuildingBlock: XIVTED_clean_linker_0, # of connection points: 2
#     Edge 21, Type (0, 0), BuildingBlock: XIVTED_clean_linker_0, # of connection points: 2
#     Edge 22, Type (0, 0), BuildingBlock: XIVTED_clean_linker_0, # of connection points: 2
#     Edge 23, Type (0, 0), BuildingBlock: XIVTED_clean_linker_0, # of connection points: 2
#     Edge 24, Type (0, 0), BuildingBlock: XIVTED_clean_linker_0, # of connection points: 2
#     Edge 25, Type (0, 0), BuildingBlock: XIVTED_clean_linker_0, # of connection points: 2
#     Edge 26, Type (0, 0), BuildingBlock: XIVTED_clean_linker_0, # of connection points: 2
#     Edge 27, Type (0, 0), BuildingBlock: XIVTED_clean_linker_0, # of connection points: 2
#     Edge 28, Type (0, 0), BuildingBlock: XIVTED_clean_linker_0, # of connection points: 2
#     Edge 29, Type (0, 0), BuildingBlock: XIVTED_clean_linker_0, # of connection points: 2
#     Edge 30, Type (0, 0), BuildingBlock: XIVTED_clean_linker_0, # of connection points: 2
#     Edge 31, Type (0, 0), BuildingBlock: XIVTED_clean_linker_0, # of connection points: 2
#     Edge 32, Type (0, 0), BuildingBlock: XIVTED_clean_linker_0, # of connection points: 2
#     Edge 33, Type (0, 0), BuildingBlock: XIVTED_clean_linker_0, # of connection points: 2
#     Edge 34, Type (0, 0), BuildingBlock: XIVTED_clean_linker_0, # of connection points: 2
#     Edge 35, Type (0, 0), BuildingBlock: XIVTED_clean_linker_0, # of connection points: 2
#     Edge 36, Type (0, 0), BuildingBlock: XIVTED_clean_linker_0, # of connection points: 2
#     Edge 37, Type (0, 0), BuildingBlock: XIVTED_clean_linker_0, # of connection points: 2
#     Edge 38, Type (0, 0), BuildingBlock: XIVTED_clean_linker_0, # of connection points: 2
#     Edge 39, Type (0, 0), BuildingBlock: XIVTED_clean_linker_0, # of connection points: 2
#     Edge 40, Type (0, 0), BuildingBlock: XIVTED_clean_linker_0, # of connection points: 2
#     Edge 41, Type (0, 0), BuildingBlock: XIVTED_clean_linker_0, # of connection points: 2
#     Edge 42, Type (0, 0), BuildingBlock: XIVTED_clean_linker_0, # of connection points: 2
#     Edge 43, Type (0, 0), BuildingBlock: XIVTED_clean_linker_0, # of connection points: 2
#     Edge 44, Type (0, 0), BuildingBlock: XIVTED_clean_linker_0, # of connection points: 2
#     Edge 45, Type (0, 0), BuildingBlock: XIVTED_clean_linker_0, # of connection points: 2
#     Edge 46, Type (0, 0), BuildingBlock: XIVTED_clean_linker_0, # of connection points: 2
#     Edge 47, Type (0, 0), BuildingBlock: XIVTED_clean_linker_0, # of connection points: 2
# Relax obj value: 0.107
# Max RMSD: 0.095
# Mean RMSD: 0.095
data_MOF--net-uoz--node1-NAHDIM_clean_sbu_0--edge1-XIVTED_clean_linker_0
_symmetry_space_group_name_H-M    P1
_symmetry_Int_Tables_number       1
_symmetry_cell_setting            triclinic
loop_
_symmetry_equiv_pos_as_xyz
'x, y, z'
_cell_length_a     59.783946
_cell_length_b     59.804289
_cell_length_c     22.798901
_cell_angle_alpha  90.051937
_cell_angle_beta   90.041795
_cell_angle_gamma 90.072064
loop_
_atom_site_label
_atom_site_type_symbol
_atom_site_fract_x
_atom_site_fract_y
_atom_site_fract_z
_atom_type_partial_charge
C0 C 0.01065 0.54068 0.3713 0.0
O1 O 0.9965 0.53484 0.3299 0.0
O2 O 0.04989 0.59073 0.27202 0.0
Zn3 Zn 0.02045 0.57578 0.28956 0.0
O4 O 0.01289 0.55502 0.22397 0.0
C5 C 0.00168 0.61999 0.29177 0.0
O6 O 0.02219 0.62554 0.30655 0.0
O7 O 0.02217 0.55841 0.36497 0.0
C8 C 0.01129 0.56281 0.17237 0.0
O9 O 0.01539 0.5841 0.16308 0.0
C10 C 0.06477 0.58346 0.23711 0.0
O11 O 0.06216 0.56379 0.21232 0.0
O12 O 0.99655 0.59941 0.28781 0.0
C13 C 0.72137 0.76011 0.64767 0.0
O14 O 0.72232 0.77588 0.60766 0.0
O15 O 0.68364 0.76988 0.52882 0.0
Zn16 Zn 0.69653 0.74054 0.55656 0.0
O17 O 0.72208 0.73281 0.5036 0.0
C18 C 0.65228 0.72199 0.54532 0.0
O19 O 0.64626 0.74244 0.55915 0.0
O20 O 0.70959 0.7428 0.6376 0.0
C21 C 0.72058 0.71883 0.46181 0.0
O22 O 0.70151 0.70855 0.45198 0.0
C23 C 0.67786 0.77078 0.47519 0.0
O24 O 0.6811 0.75318 0.44176 0.0
O25 O 0.67288 0.71679 0.5471 0.0
C26 C 0.50886 0.44931 0.8695 0.0
O27 O 0.50167 0.45765 0.81967 0.0
O28 O 0.48922 0.3948 0.77863 0.0
Zn29 Zn 0.51717 0.41241 0.79395 0.0
O30 O 0.52173 0.43407 0.72841 0.0
C31 C 0.5456 0.3833 0.73645 0.0
O32 O 0.53237 0.39043 0.69443 0.0
O33 O 0.51611 0.42931 0.87065 0.0
C34 C 0.53979 0.44514 0.72438 0.0
O35 O 0.55519 0.44294 0.76512 0.0
C36 C 0.47341 0.40147 0.7457 0.0
O37 O 0.47396 0.42189 0.72455 0.0
O38 O 0.54263 0.39051 0.7884 0.0
C39 C 0.83123 0.23375 0.15143 0.0
O40 O 0.82223 0.22717 0.10172 0.0
O41 O 0.87444 0.21097 0.0447 0.0
Zn42 Zn 0.86561 0.24204 0.07154 0.0
O43 O 0.84225 0.25478 0.01755 0.0
C44 C 0.90735 0.25879 0.02967 0.0
O45 O 0.90581 0.24054 -0.00214 0.0
O46 O 0.85136 0.24068 0.15143 0.0
C47 C 0.84628 0.26624 0.97187 0.0
O48 O 0.86706 0.27036 0.95676 0.0
C49 C 0.86961 0.20389 0.99359 0.0
O50 O 0.85745 0.21644 0.95878 0.0
O51 O 0.89244 0.26268 0.06815 0.0
C52 C 0.03844 0.43843 0.71184 0.0
O53 O 0.05248 0.44539 0.75234 0.0
O54 O 0.05934 0.4016 0.82724 0.0
Zn55 Zn 0.02814 0.41192 0.80723 0.0
O56 O 0.02096 0.43915 0.85459 0.0
C57 C 0.0045 0.38326 0.88343 0.0
O58 O 0.01504 0.39608 0.92123 0.0
O59 O 0.02585 0.42185 0.7233 0.0
C60 C 0.00145 0.44442 0.87155 0.0
O61 O 0.98441 0.43136 0.85906 0.0
C62 C 0.06798 0.40658 0.87658 0.0
O63 O 0.05702 0.41976 0.91256 0.0
O64 O 0.00699 0.38691 0.82882 0.0
C65 C 0.83349 0.76733 0.97389 0.0
O66 O 0.83421 0.785 0.00811 0.0
O67 O 0.87287 0.78144 0.08431 0.0
Zn68 Zn 0.86075 0.75056 0.06553 0.0
O69 O 0.83795 0.74137 0.12514 0.0
C70 C 0.90446 0.73313 0.09258 0.0
O71 O 0.90885 0.75433 0.10221 0.0
O72 O 0.84483 0.75015 0.98773 0.0
C73 C 0.84379 0.733 0.174 0.0
O74 O 0.86514 0.73114 0.18669 0.0
C75 C 0.86928 0.79122 0.13298 0.0
O76 O 0.85604 0.7818 0.17165 0.0
O77 O 0.88549 0.72767 0.07166 0.0
C78 C 0.51423 0.54714 0.22648 0.0
O79 O 0.50643 0.53923 0.27617 0.0
O80 O 0.49931 0.59213 0.33847 0.0
Zn81 Zn 0.52813 0.57946 0.30706 0.0
O82 O 0.53637 0.55454 0.36142 0.0
C83 C 0.54768 0.62345 0.31878 0.0
O84 O 0.52695 0.63009 0.31107 0.0
O85 O 0.52424 0.56593 0.22664 0.0
C86 C 0.55262 0.55461 0.39733 0.0
O87 O 0.56614 0.57192 0.3995 0.0
C88 C 0.49966 0.59771 0.39232 0.0
O89 O 0.51823 0.595 0.42233 0.0
O90 O 0.55232 0.60283 0.31307 0.0
C91 C 0.73472 0.23986 0.51032 0.0
O92 O 0.74283 0.2322 0.55995 0.0
O93 O 0.68903 0.21761 0.60753 0.0
Zn94 Zn 0.69987 0.24874 0.5885 0.0
O95 O 0.72316 0.25863 0.64678 0.0
C96 C 0.6594 0.2672 0.63205 0.0
O97 O 0.66133 0.2497 0.66637 0.0
O98 O 0.71512 0.24812 0.50976 0.0
C99 C 0.71989 0.27026 0.69261 0.0
O100 O 0.69958 0.27672 0.70623 0.0
C101 C 0.69142 0.20868 0.65776 0.0
O102 O 0.702 0.21971 0.6992 0.0
O103 O 0.67386 0.27031 0.59192 0.0
C104 C 0.34625 0.24764 0.45549 0.0
O105 O 0.36368 0.26104 0.45489 0.0
O106 O 0.38111 0.26316 0.57752 0.0
Zn107 Zn 0.36286 0.23495 0.57102 0.0
O108 O 0.34201 0.23306 0.64022 0.0
C109 C 0.39478 0.20913 0.62659 0.0
O110 O 0.39081 0.22532 0.66406 0.0
O111 O 0.34356 0.2344 0.49846 0.0
C112 C 0.3438 0.24549 0.68524 0.0
O113 O 0.35976 0.26055 0.68767 0.0
C114 C 0.37372 0.28309 0.57771 0.0
O115 O 0.35231 0.28667 0.56877 0.0
O116 O 0.38436 0.20905 0.57789 0.0
C117 C 0.2199 0.75498 0.99524 0.0
O118 O 0.22518 0.77005 0.0349 0.0
O119 O 0.16901 0.71845 0.10204 0.0
Zn120 Zn 0.18731 0.74548 0.08172 0.0
O121 O 0.21058 0.74869 0.14414 0.0
C122 C 0.1602 0.77531 0.14041 0.0
O123 O 0.16683 0.76147 0.18164 0.0
O124 O 0.20295 0.74256 0.00394 0.0
C125 C 0.22372 0.73273 0.1565 0.0
O126 O 0.22242 0.714 0.12654 0.0
C127 C 0.17091 0.69863 0.08263 0.0
O128 O 0.18594 0.69414 0.04231 0.0
O129 O 0.16707 0.77223 0.08822 0.0
C130 C 0.22401 0.27229 0.1613 0.0
O131 O 0.22708 0.28778 0.12122 0.0
O132 O 0.18066 0.29016 0.05775 0.0
Zn133 Zn 0.19511 0.26012 0.07263 0.0
O134 O 0.22125 0.25683 0.01876 0.0
C135 C 0.16878 0.2329 -0.00104 0.0
O136 O 0.1801 0.24458 0.96029 0.0
O137 O 0.20861 0.25791 0.15326 0.0
C138 C 0.22972 0.23828 0.00351 0.0
O139 O 0.22102 0.21951 0.02292 0.0
C140 C 0.18428 0.30003 0.00922 0.0
O141 O 0.1983 0.29111 0.97164 0.0
O142 O 0.17236 0.2362 0.05335 0.0
C143 C 0.32695 0.72538 0.66531 0.0
O144 O 0.32181 0.71012 0.62601 0.0
O145 O 0.37961 0.70563 0.57892 0.0
Zn146 Zn 0.36063 0.73344 0.58091 0.0
O147 O 0.33793 0.73148 0.51666 0.0
C148 C 0.38716 0.76081 0.50907 0.0
O149 O 0.3804 0.74554 0.47152 0.0
O150 O 0.34415 0.7375 0.65712 0.0
C151 C 0.32577 0.748 0.50268 0.0
O152 O 0.32771 0.76684 0.53192 0.0
C153 C 0.3738 0.68874 0.54853 0.0
O154 O 0.35408 0.6886 0.52317 0.0
O155 O 0.38072 0.75951 0.56214 0.0
C156 C 0.54788 0.03573 0.88115 0.0
O157 O 0.55742 0.02756 0.83389 0.0
O158 O 0.5724 0.08832 0.79556 0.0
Zn159 Zn 0.54288 0.07214 0.80326 0.0
O160 O 0.53969 0.04948 0.73917 0.0
C161 C 0.51505 0.1009 0.73905 0.0
O162 O 0.52856 0.09355 0.69793 0.0
O163 O 0.54053 0.05569 0.88029 0.0
C164 C 0.52086 0.04058 0.72813 0.0
O165 O 0.50333 0.04628 0.75944 0.0
C166 C 0.58359 0.08703 0.74824 0.0
O167 O 0.57625 0.0742 0.70559 0.0
O168 O 0.51796 0.09434 0.79159 0.0
C169 C 0.01012 0.95043 0.40419 0.0
O170 O 0.99579 0.95663 0.36363 0.0
O171 O 0.98998 0.90493 0.30046 0.0
Zn172 Zn 0.01964 0.92043 0.3136 0.0
O173 O 0.02206 0.94653 0.259 0.0
C174 C 0.04695 0.89242 0.2429 0.0
O175 O 0.03373 0.90069 0.20235 0.0
O176 O 0.02228 0.93338 0.39472 0.0
C177 C 0.04036 0.95384 0.23827 0.0
O178 O 0.05924 0.94385 0.25166 0.0
C179 C 0.98015 0.90711 0.25127 0.0
O180 O 0.9889 0.92035 0.2115 0.0
O181 O 0.04432 0.89851 0.29592 0.0
C182 C 0.53491 0.93876 0.2373 0.0
O183 O 0.54336 0.94621 0.28678 0.0
O184 O 0.55655 0.88383 0.3171 0.0
Zn185 Zn 0.52789 0.90133 0.31084 0.0
O186 O 0.52649 0.92279 0.37811 0.0
C187 C 0.50156 0.87163 0.37296 0.0
O188 O 0.51728 0.87721 0.41058 0.0
O189 O 0.52694 0.91902 0.23534 0.0
C190 C 0.50855 0.93181 0.39604 0.0
O191 O 0.48952 0.92702 0.37003 0.0
C192 C 0.57247 0.89026 0.35012 0.0
O193 O 0.57076 0.90941 0.378 0.0
O194 O 0.50219 0.87988 0.32156 0.0
C195 C 0.03875 0.05542 0.73937 0.0
O196 O 0.05099 0.04883 0.78398 0.0
O197 O 0.99618 0.10427 0.82831 0.0
Zn198 Zn 0.02693 0.0909 0.81914 0.0
O199 O 0.03277 0.06962 0.8856 0.0
C200 C 0.04631 0.1312 0.86054 0.0
O201 O 0.02656 0.13231 0.88549 0.0
O202 O 0.02791 0.07365 0.74328 0.0
C203 C 0.028 0.07437 0.93845 0.0
O204 O 0.01849 0.09359 0.95066 0.0
C205 C 0.9801 0.09393 0.85273 0.0
O206 O 0.98299 0.07327 0.87062 0.0
O207 O 0.05041 0.11517 0.82543 0.0
H208 H 0.14183 0.70209 0.17413 0.0
H209 H 0.09623 0.5767 0.15097 0.0
H210 H 0.16754 0.65453 0.04855 0.0
H211 H 0.07505 0.62461 0.28135 0.0
H212 H 0.12374 0.60386 0.11512 0.0
H213 H 0.11822 0.67303 0.2153 0.0
C214 C 0.14251 0.6855 0.15507 0.0
C215 C 0.15663 0.68079 0.10751 0.0
C216 C 0.11318 0.60831 0.15188 0.0
C217 C 0.12948 0.64723 0.15483 0.0
C218 C 0.09753 0.5928 0.1725 0.0
C219 C 0.0832 0.59844 0.21898 0.0
C220 C 0.11444 0.62957 0.17792 0.0
C221 C 0.08561 0.61955 0.24516 0.0
C222 C 0.12903 0.66885 0.17883 0.0
C223 C 0.15685 0.65891 0.08509 0.0
N224 N 0.1008 0.63435 0.22403 0.0
N225 N 0.14338 0.64293 0.10879 0.0
H226 H 0.60451 0.89451 0.4353 0.0
H227 H 0.65941 0.77553 0.36639 0.0
H228 H 0.58336 0.85135 0.29375 0.0
H229 H 0.66847 0.81049 0.53053 0.0
H230 H 0.63663 0.80647 0.33081 0.0
H231 H 0.6331 0.86711 0.46192 0.0
C232 C 0.60604 0.87941 0.40935 0.0
C233 C 0.59138 0.8751 0.36253 0.0
C234 C 0.64371 0.80744 0.37448 0.0
C235 C 0.62402 0.84375 0.39285 0.0
C236 C 0.65677 0.7898 0.39484 0.0
C237 C 0.66569 0.79032 0.4518 0.0
C238 C 0.63957 0.82581 0.41117 0.0
C239 C 0.66177 0.80931 0.48651 0.0
C240 C 0.62231 0.86375 0.42477 0.0
C241 C 0.59417 0.85527 0.33048 0.0
N242 N 0.6489 0.82628 0.46573 0.0
N243 N 0.6101 0.84028 0.34641 0.0
H244 H 0.43626 0.40922 0.67739 0.0
H245 H 0.41644 0.27952 0.61837 0.0
H246 H 0.47275 0.35643 0.76408 0.0
H247 H 0.36477 0.3282 0.5838 0.0
H248 H 0.43957 0.30889 0.66042 0.0
H249 H 0.41137 0.38096 0.63412 0.0
C250 C 0.43892 0.39176 0.68776 0.0
C251 C 0.45667 0.38518 0.72427 0.0
C252 C 0.42318 0.31319 0.64358 0.0
C253 C 0.42862 0.35294 0.67423 0.0
C254 C 0.40999 0.29644 0.6191 0.0
C255 C 0.38855 0.30137 0.59769 0.0
C256 C 0.41505 0.33516 0.64635 0.0
C257 C 0.38117 0.32366 0.59997 0.0
C258 C 0.42475 0.37568 0.663 0.0
C259 C 0.45933 0.36232 0.73621 0.0
N260 N 0.39443 0.33979 0.62395 0.0
N261 N 0.44561 0.34705 0.71084 0.0
H262 H 0.87525 0.19236 0.87871 0.0
H263 H 0.95174 0.08604 0.94432 0.0
H264 H 0.88993 0.17005 0.05461 0.0
H265 H 0.9622 0.13003 0.79693 0.0
H266 H 0.92067 0.10987 0.97657 0.0
H267 H 0.89867 0.16226 0.84013 0.0
C268 C 0.88305 0.18089 0.90922 0.0
C269 C 0.88086 0.18385 0.97003 0.0
C270 C 0.92961 0.11405 0.93675 0.0
C271 C 0.90748 0.1494 0.92604 0.0
C272 C 0.94721 0.10045 0.91815 0.0
C273 C 0.95959 0.10623 0.86814 0.0
C274 C 0.92416 0.13322 0.90437 0.0
C275 C 0.95316 0.12514 0.83602 0.0
C276 C 0.89647 0.16381 0.88712 0.0
C277 C 0.89138 0.16849 0.00746 0.0
N278 N 0.93588 0.138 0.85473 0.0
N279 N 0.90435 0.15193 0.98485 0.0
H280 H 0.08469 0.40443 0.98809 0.0
H281 H 0.18303 0.32033 0.90208 0.0
H282 H 0.09791 0.38264 0.81088 0.0
H283 H 0.15484 0.32436 0.07612 0.0
H284 H 0.15764 0.34984 0.8702 0.0
H285 H 0.11609 0.38175 0.02229 0.0
C286 C 0.09438 0.39514 0.95623 0.0
C287 C 0.08854 0.39524 0.89657 0.0
C288 C 0.15717 0.34439 0.91548 0.0
C289 C 0.12445 0.36935 0.9355 0.0
C290 C 0.17169 0.32759 0.93385 0.0
C291 C 0.17087 0.31967 0.99175 0.0
C292 C 0.14181 0.35347 0.95536 0.0
C293 C 0.15589 0.32981 0.03095 0.0
C294 C 0.11223 0.38214 0.97588 0.0
C295 C 0.1017 0.38288 0.85732 0.0
N296 N 0.14184 0.34613 0.01193 0.0
N297 N 0.11899 0.37034 0.87753 0.0
H298 H 0.95538 0.88017 0.32397 0.0
H299 H 0.89423 0.81807 0.061 0.0
H300 H 0.96054 0.90189 0.14392 0.0
H301 H 0.87396 0.81016 0.24152 0.0
H302 H 0.9186 0.84894 0.09047 0.0
H303 H 0.92544 0.85443 0.29523 0.0
C304 C 0.95009 0.87967 0.27853 0.0
C305 C 0.9606 0.89307 0.23622 0.0
C306 C 0.90863 0.84062 0.12353 0.0
C307 C 0.92656 0.86356 0.20299 0.0
C308 C 0.89474 0.82297 0.10674 0.0
C309 C 0.88215 0.81143 0.14891 0.0
C310 C 0.9102 0.84655 0.18304 0.0
C311 C 0.8834 0.81856 0.20754 0.0
C312 C 0.93298 0.86502 0.26218 0.0
C313 C 0.95299 0.89181 0.17801 0.0
N314 N 0.8974 0.83548 0.22299 0.0
N315 N 0.93662 0.87713 0.16301 0.0
H316 H 0.37017 0.65554 0.4664 0.0
H317 H 0.49729 0.61643 0.50139 0.0
H318 H 0.41554 0.6827 0.59565 0.0
H319 H 0.45738 0.603 0.34738 0.0
H320 H 0.46541 0.63547 0.54561 0.0
H321 H 0.39983 0.63062 0.43243 0.0
C322 C 0.38626 0.65605 0.48825 0.0
C323 C 0.39045 0.6714 0.53359 0.0
C324 C 0.46359 0.62826 0.50226 0.0
C325 C 0.42444 0.643 0.49466 0.0
C326 C 0.48178 0.61736 0.47695 0.0
C327 C 0.48005 0.60826 0.42035 0.0
C328 C 0.44346 0.62998 0.47095 0.0
C329 C 0.4595 0.60993 0.39092 0.0
C330 C 0.40321 0.6419 0.46857 0.0
C331 C 0.41162 0.67127 0.56025 0.0
N332 N 0.442 0.62065 0.41652 0.0
N333 N 0.42787 0.65739 0.54014 0.0
H334 H 0.67284 0.17888 0.58084 0.0
H335 H 0.60452 0.11465 0.82736 0.0
H336 H 0.68297 0.19061 0.76582 0.0
H337 H 0.60712 0.093 0.64677 0.0
H338 H 0.63426 0.14167 0.80685 0.0
H339 H 0.64977 0.14643 0.60464 0.0
C340 C 0.67038 0.1745 0.62648 0.0
C341 C 0.67967 0.18758 0.67143 0.0
C342 C 0.62849 0.13082 0.7719 0.0
C343 C 0.65308 0.15059 0.69903 0.0
C344 C 0.61149 0.11542 0.78356 0.0
C345 C 0.60316 0.1017 0.73856 0.0
C346 C 0.63703 0.13267 0.71472 0.0
C347 C 0.61291 0.10333 0.68273 0.0
C348 C 0.65724 0.15594 0.64006 0.0
C349 C 0.67607 0.18103 0.72978 0.0
N350 N 0.62913 0.11872 0.67224 0.0
N351 N 0.6628 0.16315 0.74194 0.0
H352 H 0.98769 0.34781 0.821 0.0
H353 H 0.91697 0.29805 0.08713 0.0
H354 H 0.9892 0.37653 0.99475 0.0
H355 H 0.93447 0.2596 0.9335 0.0
H356 H 0.94117 0.32835 0.05229 0.0
H357 H 0.96522 0.31678 0.85895 0.0
C358 C 0.98322 0.34763 0.86703 0.0
C359 C 0.99033 0.36474 0.90479 0.0
C360 C 0.93981 0.31318 0.02654 0.0
C361 C 0.96466 0.32939 0.94841 0.0
C362 C 0.92605 0.29588 0.04643 0.0
C363 C 0.92366 0.27628 0.01316 0.0
C364 C 0.95098 0.31094 0.97266 0.0
C365 C 0.9358 0.27439 0.96067 0.0
C366 C 0.97052 0.32987 0.88874 0.0
C367 C 0.98414 0.36363 0.96413 0.0
N368 N 0.94876 0.29158 0.94178 0.0
N369 N 0.97157 0.34631 0.98409 0.0
H370 H 0.48701 0.12368 0.81308 0.0
H371 H 0.41417 0.17772 0.55447 0.0
H372 H 0.50064 0.1124 0.62947 0.0
H373 H 0.41291 0.20092 0.73381 0.0
H374 H 0.44277 0.15023 0.58197 0.0
H375 H 0.45656 0.14885 0.7855 0.0
C376 C 0.48358 0.12647 0.76701 0.0
C377 C 0.49646 0.11604 0.72354 0.0
C378 C 0.43616 0.16134 0.61521 0.0
C379 C 0.4616 0.14467 0.69166 0.0
C380 C 0.41981 0.17695 0.59958 0.0
C381 C 0.41126 0.1917 0.64182 0.0
C382 C 0.44377 0.16039 0.67353 0.0
C383 C 0.41915 0.19 0.69967 0.0
C384 C 0.46623 0.14085 0.75127 0.0
C385 C 0.49124 0.12022 0.66447 0.0
N386 N 0.43493 0.17465 0.7138 0.0
N387 N 0.4742 0.1342 0.65025 0.0
H388 H 0.59138 0.61462 0.34667 0.0
H389 H 0.60812 0.72972 0.52088 0.0
H390 H 0.54154 0.66674 0.35444 0.0
H391 H 0.65972 0.67971 0.50315 0.0
H392 H 0.58307 0.70625 0.46274 0.0
H393 H 0.6167 0.63819 0.40377 0.0
C394 C 0.58585 0.63113 0.35973 0.0
C395 C 0.56426 0.63868 0.34581 0.0
C396 C 0.59984 0.70036 0.47179 0.0
C397 C 0.59307 0.66562 0.41207 0.0
C398 C 0.61412 0.71368 0.50538 0.0
C399 C 0.63609 0.7067 0.51691 0.0
C400 C 0.60755 0.67986 0.44954 0.0
C401 C 0.64293 0.68578 0.4954 0.0
C402 C 0.60028 0.64453 0.39266 0.0
C403 C 0.55801 0.66021 0.36409 0.0
N404 N 0.62874 0.67315 0.46259 0.0
N405 N 0.5723 0.67286 0.39659 0.0
H406 H 0.14673 0.7884 0.24925 0.0
H407 H 0.05907 0.87875 0.1329 0.0
H408 H 0.13828 0.80401 0.06571 0.0
H409 H 0.07493 0.86916 0.31593 0.0
H410 H 0.08758 0.85124 0.10702 0.0
H411 H 0.12012 0.8177 0.274 0.0
C412 C 0.13931 0.79803 0.21406 0.0
C413 C 0.14469 0.79368 0.15524 0.0
C414 C 0.08488 0.85522 0.15281 0.0
C415 C 0.11406 0.82731 0.18344 0.0
C416 C 0.06857 0.87089 0.16768 0.0
C417 C 0.06455 0.87621 0.22674 0.0
C418 C 0.09719 0.84467 0.19732 0.0
C419 C 0.07743 0.86556 0.26986 0.0
C420 C 0.12412 0.81481 0.2283 0.0
C421 C 0.1346 0.80679 0.11162 0.0
N422 N 0.0931 0.85023 0.25429 0.0
N423 N 0.11966 0.82296 0.12659 0.0
H424 H 0.00817 0.66524 0.28687 0.0
H425 H 0.89773 0.68775 0.097 0.0
H426 H 0.96036 0.61381 0.24198 0.0
H427 H 0.94525 0.73911 0.14454 0.0
H428 H 0.92075 0.66024 0.14825 0.0
H429 H 0.98492 0.69264 0.23628 0.0
C430 C 0.99265 0.65974 0.26699 0.0
C431 C 0.98626 0.63716 0.26858 0.0
C432 C 0.92619 0.67751 0.14721 0.0
C433 C 0.95969 0.66843 0.20974 0.0
C434 C 0.91314 0.69321 0.11757 0.0
C435 C 0.91954 0.7158 0.11652 0.0
C436 C 0.94579 0.68444 0.17604 0.0
C437 C 0.93962 0.7219 0.14425 0.0
C438 C 0.97944 0.67538 0.23777 0.0
C439 C 0.96597 0.63103 0.2419 0.0
N440 N 0.95197 0.70634 0.17305 0.0
N441 N 0.95347 0.64655 0.21329 0.0
H442 H 0.04575 0.15985 0.95357 0.0
H443 H 0.16448 0.21458 0.88997 0.0
H444 H 0.0876 0.13794 0.8104 0.0
H445 H 0.13393 0.21497 0.06143 0.0
H446 H 0.13481 0.18972 0.85501 0.0
H447 H 0.07601 0.18391 0.98793 0.0
C448 C 0.06125 0.16021 0.92902 0.0
C449 C 0.06415 0.14685 0.87894 0.0
C450 C 0.13468 0.19516 0.90033 0.0
C451 C 0.09887 0.17439 0.9183 0.0
C452 C 0.15156 0.20938 0.92033 0.0
C453 C 0.15163 0.21687 0.97871 0.0
C454 C 0.11755 0.18869 0.93872 0.0
C455 C 0.13454 0.20953 0.01616 0.0
C456 C 0.07857 0.17384 0.949 0.0
C457 C 0.08467 0.14795 0.84921 0.0
N458 N 0.11805 0.19599 0.99537 0.0
N459 N 0.10125 0.16157 0.86923 0.0
H460 H 0.64624 0.30266 0.56388 0.0
H461 H 0.56904 0.35651 0.81237 0.0
H462 H 0.63415 0.271 0.73103 0.0
H463 H 0.56232 0.37285 0.62882 0.0
H464 H 0.59707 0.32827 0.78651 0.0
H465 H 0.61905 0.33169 0.58985 0.0
C466 C 0.63782 0.30178 0.60588 0.0
C467 C 0.64238 0.28435 0.64523 0.0
C468 C 0.58944 0.33808 0.752 0.0
C469 C 0.61164 0.31757 0.67548 0.0
C470 C 0.57356 0.35424 0.76675 0.0
C471 C 0.56328 0.36693 0.72265 0.0
C472 C 0.59527 0.33487 0.69288 0.0
C473 C 0.56971 0.36331 0.66418 0.0
C474 C 0.62234 0.31832 0.62066 0.0
C475 C 0.63104 0.28404 0.69917 0.0
N476 N 0.58534 0.34765 0.65099 0.0
N477 N 0.6163 0.30048 0.71285 0.0
H478 H 0.41013 0.79099 0.57691 0.0
H479 H 0.46979 0.85095 0.30446 0.0
H480 H 0.39922 0.77132 0.39689 0.0
H481 H 0.49196 0.85773 0.48387 0.0
H482 H 0.4405 0.82511 0.33745 0.0
H483 H 0.43687 0.81921 0.54332 0.0
C484 C 0.41327 0.79268 0.53033 0.0
C485 C 0.40255 0.77868 0.48968 0.0
C486 C 0.45179 0.83231 0.3695 0.0
C487 C 0.43305 0.81093 0.45095 0.0
C488 C 0.46846 0.84706 0.35072 0.0
C489 C 0.48342 0.85638 0.39141 0.0
C490 C 0.44997 0.82706 0.4294 0.0
C491 C 0.48092 0.85081 0.45086 0.0
C492 C 0.42857 0.80874 0.51119 0.0
C493 C 0.40723 0.78164 0.42981 0.0
N494 N 0.46452 0.83654 0.46804 0.0
N495 N 0.42214 0.79742 0.41225 0.0
H496 H 0.02062 0.56894 0.05626 0.0
H497 H 0.96963 0.45159 0.95551 0.0
H498 H 0.98992 0.52257 0.17692 0.0
H499 H 0.02692 0.48205 0.87257 0.0
H500 H 0.96835 0.48291 0.02521 0.0
H501 H 0.01437 0.54211 0.97651 0.0
C502 C 0.01232 0.55325 0.06578 0.0
C503 C 0.00601 0.54777 0.1232 0.0
C504 C 0.98098 0.48279 0.99118 0.0
C505 C -0.0014 0.51738 0.03261 0.0
C506 C 0.98166 0.46506 0.9514 0.0
C507 C -0.00144 0.46422 0.90889 0.0
C508 C -0.00296 0.49988 0.98737 0.0
C509 C 0.01381 0.482 0.90532 0.0
C510 C 0.00882 0.53799 0.02042 0.0
C511 C 0.9953 0.52725 0.13329 0.0
N512 N 0.01273 0.49912 0.94423 0.0
N513 N 0.99195 0.51273 0.08836 0.0
H514 H 0.84932 0.72615 0.29163 0.0
H515 H 0.71982 0.70202 0.35028 0.0
H516 H 0.79935 0.72557 0.1548 0.0
H517 H 0.76435 0.72937 0.48122 0.0
H518 H 0.75087 0.70149 0.28028 0.0
H519 H 0.81998 0.71839 0.36374 0.0
C520 C 0.83222 0.72418 0.27672 0.0
C521 C 0.82666 0.72675 0.21735 0.0
C522 C 0.75383 0.7074 0.32455 0.0
C523 C 0.79325 0.71772 0.29918 0.0
C524 C 0.73619 0.70761 0.36452 0.0
C525 C 0.73952 0.716 0.42131 0.0
C526 C 0.77492 0.71533 0.34191 0.0
C527 C 0.76104 0.72303 0.43756 0.0
C528 C 0.81553 0.71981 0.31783 0.0
C529 C 0.80428 0.72398 0.20031 0.0
N530 N 0.77795 0.72262 0.39792 0.0
N531 N 0.78835 0.71965 0.24111 0.0
H532 H 0.58093 0.55169 0.49199 0.0
H533 H 0.51445 0.448 0.62547 0.0
H534 H 0.52795 0.51635 0.40218 0.0
H535 H 0.57349 0.47564 0.70739 0.0
H536 H 0.52009 0.47271 0.54223 0.0
H537 H 0.57989 0.52344 0.5697 0.0
C538 C 0.56928 0.53787 0.48825 0.0
C539 C 0.55432 0.53651 0.44093 0.0
C540 C 0.53191 0.47335 0.5782 0.0
C541 C 0.55293 0.50438 0.52955 0.0
C542 C 0.52863 0.4593 0.62594 0.0
C543 C 0.54345 0.45989 0.67359 0.0
C544 C 0.55004 0.4883 0.57818 0.0
C545 C 0.56164 0.47472 0.67156 0.0
C546 C 0.56867 0.5218 0.53263 0.0
C547 C 0.53962 0.51824 0.43817 0.0
N548 N 0.56435 0.4885 0.6247 0.0
N549 N 0.53918 0.50302 0.48212 0.0
H550 H 0.8018 0.2678 -0.00181 0.0
H551 H 0.76439 0.26848 0.66718 0.0
H552 H 0.84848 0.27859 0.85658 0.0
H553 H 0.71831 0.28251 0.80817 0.0
H554 H 0.79551 0.27259 0.73569 0.0
H555 H 0.7709 0.27374 0.92987 0.0
C556 C 0.80554 0.27166 0.95281 0.0
C557 C 0.8277 0.27247 0.93277 0.0
C558 C 0.77861 0.27507 0.75149 0.0
C559 C 0.79249 0.27903 0.85447 0.0
C560 C 0.76085 0.27261 0.71251 0.0
C561 C 0.73876 0.27493 0.73228 0.0
C562 C 0.77423 0.27946 0.81084 0.0
C563 C 0.73511 0.2805 0.79125 0.0
C564 C 0.7879 0.27513 0.91393 0.0
C565 C 0.83163 0.27772 0.87374 0.0
N566 N 0.75268 0.28225 0.82876 0.0
N567 N 0.81415 0.28046 0.83637 0.0
H568 H 0.25742 0.27283 0.97664 0.0
H569 H 0.31306 0.21219 0.70329 0.0
H570 H 0.24428 0.20364 0.93464 0.0
H571 H 0.339 0.27303 0.77977 0.0
H572 H 0.28669 0.20906 0.78491 0.0
H573 H 0.28654 0.27356 0.90205 0.0
C574 C 0.26076 0.25774 0.95183 0.0
C575 C 0.24838 0.23816 0.96152 0.0
C576 C 0.29827 0.22299 0.78392 0.0
C577 C 0.28157 0.23894 0.87579 0.0
C578 C 0.31323 0.22486 0.73726 0.0
C579 C 0.32814 0.24298 0.73464 0.0
C580 C 0.29809 0.23949 0.82772 0.0
C581 C 0.32776 0.25882 0.77998 0.0
C582 C 0.27743 0.25815 0.90939 0.0
C583 C 0.25349 0.21905 0.92848 0.0
N584 N 0.31286 0.25679 0.82445 0.0
N585 N 0.2696 0.21997 0.88651 0.0
H586 H 0.29777 0.78004 0.45815 0.0
H587 H 0.25293 0.70143 0.19883 0.0
H588 H 0.31888 0.7117 0.43222 0.0
H589 H 0.23026 0.76912 0.22712 0.0
H590 H 0.27783 0.70519 0.28323 0.0
H591 H 0.27321 0.77658 0.37286 0.0
C592 C 0.29721 0.7643 0.43463 0.0
C593 C 0.31039 0.74614 0.45231 0.0
C594 C 0.26743 0.71923 0.2709 0.0
C595 C 0.28242 0.74209 0.35469 0.0
C596 C 0.25325 0.71711 0.22264 0.0
C597 C 0.23948 0.73497 0.20597 0.0
C598 C 0.26785 0.73937 0.30267 0.0
C599 C 0.24057 0.7549 0.23847 0.0
C600 C 0.28321 0.76234 0.38591 0.0
C601 C 0.30901 0.72615 0.42017 0.0
N602 N 0.25448 0.75655 0.28532 0.0
N603 N 0.2953 0.72467 0.3729 0.0
H604 H 0.47358 0.95229 0.45267 0.0
H605 H 0.55445 0.02292 0.66209 0.0
H606 H 0.54566 0.94749 0.4519 0.0
H607 H 0.48272 0.02127 0.68419 0.0
H608 H 0.55104 0.99641 0.58166 0.0
H609 H 0.47606 0.97876 0.53458 0.0
C610 C 0.48989 0.95679 0.46969 0.0
C611 C 0.50944 0.94769 0.44546 0.0
C612 C 0.53602 0.00177 0.60411 0.0
C613 C 0.51239 0.97785 0.53866 0.0
C614 C 0.53796 0.01696 0.65004 0.0
C615 C 0.51883 0.0243 0.6799 0.0
C616 C 0.5148 0.99391 0.58758 0.0
C617 C 0.4979 0.01599 0.66238 0.0
C618 C 0.49129 0.97184 0.51644 0.0
C619 C 0.53014 0.95405 0.46921 0.0
N620 N 0.49642 0.00123 0.61716 0.0
N621 N 0.53105 0.96876 0.51436 0.0
H622 H 0.05526 0.03774 0.93492 0.0
H623 H 0.00791 0.98544 0.22787 0.0
H624 H 0.00965 0.0734 0.04798 0.0
H625 H 0.07199 0.9659 0.15745 0.0
H626 H 0.00653 0.01623 0.15771 0.0
H627 H 0.06009 0.00952 0.01159 0.0
C628 C 0.04633 0.03966 0.97595 0.0
C629 C 0.03195 0.05785 0.98514 0.0
C630 C 0.02097 0.00531 0.15794 0.0
C631 C 0.03726 0.02565 0.07237 0.0
C632 C 0.02172 0.98769 0.1977 0.0
C633 C 0.04006 0.97309 0.19817 0.0
C634 C 0.03847 0.00809 0.11766 0.0
C635 C 0.05757 0.97683 0.15848 0.0
C636 C 0.04919 0.02363 0.01968 0.0
C637 C 0.02089 0.05963 0.03915 0.0
N638 N 0.05624 0.99386 0.11922 0.0
N639 N 0.02359 0.04357 0.08057 0.0
H640 H 0.00792 0.43198 0.62308 0.0
H641 H 0.04081 0.54609 0.46064 0.0
H642 H 0.06185 0.47536 0.67769 0.0
H643 H 0.9896 0.50117 0.39723 0.0
H644 H 0.04838 0.5203 0.54105 0.0
H645 H 0.00108 0.45664 0.53927 0.0
C646 C 0.01846 0.44655 0.61717 0.0
C647 C 0.03543 0.45165 0.65762 0.0
C648 C 0.03547 0.51607 0.5096 0.0
C649 C 0.02755 0.48004 0.56232 0.0
C650 C 0.03107 0.53085 0.46376 0.0
C651 C 0.01453 0.52581 0.4221 0.0
C652 C 0.02322 0.49607 0.51402 0.0
C653 C 0.00249 0.50576 0.42836 0.0
C654 C 0.01449 0.46066 0.56945 0.0
C655 C 0.04853 0.47078 0.64781 0.0
N656 N 0.00708 0.49162 0.47344 0.0
N657 N 0.04423 0.48431 0.6014 0.0
H658 H 0.81252 0.80256 0.92125 0.0
H659 H 0.73318 0.72623 0.72245 0.0
H660 H 0.8182 0.73066 0.91372 0.0
H661 H 0.74365 0.79658 0.69012 0.0
H662 H 0.7608 0.72796 0.80172 0.0
H663 H 0.78428 0.80102 0.84372 0.0
C664 C 0.80792 0.78646 0.90306 0.0
C665 C 0.81776 0.76671 0.92388 0.0
C666 C 0.75697 0.74301 0.77734 0.0
C667 C 0.78521 0.76482 0.83589 0.0
C668 C 0.74109 0.74209 0.73245 0.0
C669 C 0.73615 0.76129 0.69956 0.0
C670 C 0.76778 0.76333 0.78982 0.0
C671 C 0.74701 0.78135 0.71421 0.0
C672 C 0.79179 0.7856 0.85886 0.0
C673 C 0.81114 0.74631 0.89872 0.0
N674 N 0.76231 0.78186 0.75828 0.0
N675 N 0.79515 0.74587 0.85631 0.0
H676 H 0.52145 0.56003 0.11236 0.0
H677 H 0.51381 0.43616 0.98396 0.0
H678 H 0.50392 0.50285 0.21836 0.0
H679 H 0.50506 0.49472 0.87582 0.0
H680 H 0.51476 0.46027 0.07088 0.0
H681 H 0.51988 0.53618 0.02479 0.0
C682 C 0.51724 0.5425 0.11719 0.0
C683 C 0.51276 0.53342 0.17266 0.0
C684 C 0.51256 0.4678 0.02808 0.0
C685 C 0.51122 0.5061 0.07316 0.0
C686 C 0.5121 0.45407 0.97852 0.0
C687 C 0.50928 0.46345 0.92266 0.0
C688 C 0.51056 0.49107 0.02158 0.0
C689 C 0.50712 0.48677 0.91811 0.0
C690 C 0.5163 0.52894 0.06729 0.0
C691 C 0.50738 0.5106 0.17644 0.0
N692 N 0.50794 0.49981 0.9669 0.0
N693 N 0.50692 0.4977 0.12744 0.0
H694 H 0.8452 0.2395 0.26519 0.0
H695 H 0.72152 0.24607 0.39617 0.0
H696 H 0.78593 0.22959 0.15997 0.0
H697 H 0.77959 0.23226 0.50276 0.0
H698 H 0.74519 0.24456 0.30853 0.0
H699 H 0.82161 0.24121 0.35299 0.0
C700 C 0.82726 0.23766 0.26058 0.0
C701 C 0.81752 0.23433 0.20527 0.0
C702 C 0.7527 0.24183 0.35117 0.0
C703 C 0.7905 0.23651 0.30511 0.0
C704 C 0.73923 0.24277 0.40113 0.0
C705 C 0.74859 0.23921 0.45676 0.0
C706 C 0.77572 0.23763 0.35706 0.0
C707 C 0.77164 0.23497 0.46069 0.0
C708 C 0.81382 0.2386 0.31063 0.0
C709 C 0.79417 0.23206 0.20178 0.0
N710 N 0.78444 0.2344 0.41153 0.0
N711 N 0.78145 0.23331 0.25097 0.0
H712 H 0.30803 0.2226 0.44315 0.0
H713 H 0.25916 0.2997 0.18683 0.0
H714 H 0.34353 0.27836 0.3669 0.0
H715 H 0.22683 0.23895 0.24419 0.0
H716 H 0.28882 0.29336 0.25805 0.0
H717 H 0.27731 0.22896 0.37425 0.0
C718 C 0.30946 0.23608 0.41167 0.0
C719 C 0.32842 0.24998 0.41084 0.0
C720 C 0.27522 0.28143 0.25531 0.0
C721 C 0.29317 0.25749 0.3324 0.0
C722 C 0.25817 0.2851 0.2148 0.0
C723 C 0.24049 0.26978 0.20929 0.0
C724 C 0.27467 0.26229 0.29086 0.0
C725 C 0.24013 0.2512 0.2469 0.0
C726 C 0.29187 0.23973 0.37248 0.0
C727 C 0.32929 0.26719 0.36914 0.0
N728 N 0.25704 0.24792 0.28597 0.0
N729 N 0.31189 0.27051 0.33182 0.0
H730 H 0.33094 0.75713 0.75168 0.0
H731 H 0.21575 0.72345 0.90841 0.0
H732 H 0.28836 0.70318 0.69304 0.0
H733 H 0.25813 0.77762 0.96657 0.0
H734 H 0.24196 0.71603 0.82852 0.0
H735 H 0.30456 0.76478 0.83107 0.0
C736 C 0.31611 0.74682 0.75565 0.0
C737 C 0.31186 0.72949 0.71559 0.0
C738 C 0.24549 0.72958 0.85865 0.0
C739 C 0.28151 0.73826 0.80616 0.0
C740 C 0.23048 0.73388 0.90418 0.0
C741 C 0.23474 0.75118 0.94431 0.0
C742 C 0.26493 0.74266 0.85319 0.0
C743 C 0.25415 0.7641 0.93672 0.0
C744 C 0.30101 0.75124 0.8009 0.0
C745 C 0.29234 0.71671 0.72286 0.0
N746 N 0.26854 0.75954 0.89219 0.0
N747 N 0.27788 0.72138 0.76715 0.0
H748 H 0.54064 0.98393 0.23383 0.0
H749 H 0.55176 0.99039 0.88728 0.0
H750 H 0.52973 0.9267 0.12186 0.0
H751 H 0.53738 0.04838 0.99357 0.0
H752 H 0.54706 0.96669 0.97359 0.0
H753 H 0.5426 0.00777 0.14707 0.0
C754 C 0.53862 0.97638 0.19095 0.0
C755 C 0.5351 0.95328 0.18497 0.0
C756 C 0.54485 0.98459 0.97796 0.0
C757 C 0.53751 0.98047 0.0856 0.0
C758 C 0.54766 -0.00184 0.92883 0.0
C759 C 0.54503 0.02142 0.93334 0.0
C760 C 0.53971 0.99436 0.03222 0.0
C761 C 0.53955 0.03053 0.98818 0.0
C762 C 0.53965 0.99003 0.14151 0.0
C763 C 0.53244 0.94443 0.1284 0.0
N764 N 0.53723 0.01698 0.03567 0.0
N765 N 0.53391 0.95803 0.08077 0.0
H766 H 0.01185 0.06222 0.64378 0.0
H767 H 0.0398 0.94415 0.49481 0.0
H768 H 0.0581 0.01466 0.71836 0.0
H769 H 0.98908 0.98953 0.43177 0.0
H770 H 0.04745 0.96986 0.57605 0.0
H771 H 0.00461 0.03625 0.5634 0.0
C772 C 0.02062 0.04638 0.64308 0.0
C773 C 0.03559 0.04061 0.688 0.0
C774 C 0.03459 0.97412 0.54454 0.0
C775 C 0.02722 0.01066 0.59615 0.0
C776 C 0.03016 0.95942 0.49827 0.0
C777 C 0.01379 0.9647 0.45635 0.0
C778 C 0.02263 0.99428 0.54873 0.0
C779 C 0.00186 0.98474 0.46297 0.0
C780 C 0.01639 0.03149 0.59726 0.0
C781 C 0.04641 0.01981 0.68472 0.0
N782 N 0.00658 -0.00118 0.50807 0.0
N783 N 0.04198 0.00557 0.63966 0.0
loop_
_geom_bond_atom_site_label_1
_geom_bond_atom_site_label_2
_geom_bond_distance
_geom_bond_site_symmetry_2
_ccdc_geom_bond_type
C0 O1 1.160 . S
C0 O7 1.185 . S
O1 C0 1.160 . S
O2 Zn3 1.899 . S
O2 C10 1.284 . S
Zn3 O2 1.899 . S
Zn3 O4 2.032 . S
Zn3 O7 2.086 . S
Zn3 O12 1.977 . S
O4 Zn3 2.032 . S
O4 C8 1.278 . S
C5 O6 1.206 1_655 S
C5 O12 1.267 1_655 S
O6 C5 1.206 1_455 S
O7 C0 1.185 . S
O7 Zn3 2.086 . S
C8 O4 1.278 . S
C8 O9 1.211 . S
O9 C8 1.211 . S
C10 O2 1.284 . S
C10 O11 1.273 . S
O11 C10 1.273 . S
O12 Zn3 1.977 . S
O12 C5 1.267 1_455 S
C13 O14 1.160 . S
C13 O20 1.185 . S
O14 C13 1.160 . S
O15 Zn16 1.899 . S
O15 C23 1.284 . S
Zn16 O15 1.899 . S
Zn16 O17 2.032 . S
Zn16 O20 2.086 . S
Zn16 O25 1.977 . S
O17 Zn16 2.032 . S
O17 C21 1.278 . S
C18 O19 1.203 . S
C18 O25 1.267 . S
O19 C18 1.203 . S
O20 C13 1.185 . S
O20 Zn16 2.086 . S
C21 O17 1.278 . S
C21 O22 1.211 . S
O22 C21 1.211 . S
C23 O15 1.284 . S
C23 O24 1.273 . S
O24 C23 1.273 . S
O25 Zn16 1.977 . S
O25 C18 1.267 . S
C26 O27 1.160 . S
C26 O33 1.185 . S
O27 C26 1.160 . S
O28 Zn29 1.899 . S
O28 C36 1.284 . S
Zn29 O28 1.899 . S
Zn29 O30 2.032 . S
Zn29 O33 2.086 . S
Zn29 O38 1.977 . S
O30 Zn29 2.032 . S
O30 C34 1.278 . S
C31 O32 1.203 . S
C31 O38 1.267 . S
O32 C31 1.203 . S
O33 C26 1.185 . S
O33 Zn29 2.086 . S
C34 O30 1.278 . S
C34 O35 1.211 . S
O35 C34 1.211 . S
C36 O28 1.284 . S
C36 O37 1.273 . S
O37 C36 1.273 . S
O38 Zn29 1.977 . S
O38 C31 1.267 . S
C39 O40 1.160 . S
C39 O46 1.185 . S
O40 C39 1.160 . S
O41 Zn42 1.899 . S
O41 C49 1.284 1_554 S
Zn42 O41 1.899 . S
Zn42 O43 2.032 1_554 S
Zn42 O46 2.086 . S
Zn42 O51 1.977 . S
O43 Zn42 2.032 1_556 S
O43 C47 1.278 . S
C44 O45 1.203 . S
C44 O51 1.267 1_556 S
O45 C44 1.203 . S
O46 C39 1.185 . S
O46 Zn42 2.086 . S
C47 O43 1.278 . S
C47 O48 1.211 . S
O48 C47 1.211 . S
C49 O41 1.284 1_556 S
C49 O50 1.273 . S
O50 C49 1.273 . S
O51 Zn42 1.977 . S
O51 C44 1.267 1_554 S
C52 O53 1.160 . S
C52 O59 1.185 . S
O53 C52 1.160 . S
O54 Zn55 1.899 . S
O54 C62 1.284 . S
Zn55 O54 1.899 . S
Zn55 O56 2.032 . S
Zn55 O59 2.086 . S
Zn55 O64 1.977 . S
O56 Zn55 2.032 . S
O56 C60 1.278 . S
C57 O58 1.206 1_655 S
C57 O64 1.267 1_655 S
O58 C57 1.206 1_455 S
O59 C52 1.185 . S
O59 Zn55 2.086 . S
C60 O56 1.278 . S
C60 O61 1.211 . S
O61 C60 1.211 . S
C62 O54 1.284 . S
C62 O63 1.273 . S
O63 C62 1.273 . S
O64 Zn55 1.977 . S
O64 C57 1.267 1_455 S
C65 O66 1.160 1_556 S
C65 O72 1.185 1_556 S
O66 C65 1.160 1_554 S
O67 Zn68 1.899 . S
O67 C75 1.284 . S
Zn68 O67 1.899 . S
Zn68 O69 2.032 . S
Zn68 O72 2.086 . S
Zn68 O77 1.977 . S
O69 Zn68 2.032 . S
O69 C73 1.278 . S
C70 O71 1.203 . S
C70 O77 1.267 . S
O71 C70 1.203 . S
O72 C65 1.185 1_554 S
O72 Zn68 2.086 . S
C73 O69 1.278 . S
C73 O74 1.211 . S
O74 C73 1.211 . S
C75 O67 1.284 . S
C75 O76 1.273 . S
O76 C75 1.273 . S
O77 Zn68 1.977 . S
O77 C70 1.267 . S
C78 O79 1.160 . S
C78 O85 1.185 . S
O79 C78 1.160 . S
O80 Zn81 1.899 . S
O80 C88 1.284 . S
Zn81 O80 1.899 . S
Zn81 O82 2.032 . S
Zn81 O85 2.086 . S
Zn81 O90 1.977 . S
O82 Zn81 2.032 . S
O82 C86 1.278 . S
C83 O84 1.203 . S
C83 O90 1.267 . S
O84 C83 1.203 . S
O85 C78 1.185 . S
O85 Zn81 2.086 . S
C86 O82 1.278 . S
C86 O87 1.211 . S
O87 C86 1.211 . S
C88 O80 1.284 . S
C88 O89 1.273 . S
O89 C88 1.273 . S
O90 Zn81 1.977 . S
O90 C83 1.267 . S
C91 O92 1.160 . S
C91 O98 1.185 . S
O92 C91 1.160 . S
O93 Zn94 1.899 . S
O93 C101 1.284 . S
Zn94 O93 1.899 . S
Zn94 O95 2.032 . S
Zn94 O98 2.086 . S
Zn94 O103 1.977 . S
O95 Zn94 2.032 . S
O95 C99 1.278 . S
C96 O97 1.203 . S
C96 O103 1.267 . S
O97 C96 1.203 . S
O98 C91 1.185 . S
O98 Zn94 2.086 . S
C99 O95 1.278 . S
C99 O100 1.211 . S
O100 C99 1.211 . S
C101 O93 1.284 . S
C101 O102 1.273 . S
O102 C101 1.273 . S
O103 Zn94 1.977 . S
O103 C96 1.267 . S
C104 O105 1.160 . S
C104 O111 1.185 . S
O105 C104 1.160 . S
O106 Zn107 1.899 . S
O106 C114 1.284 . S
Zn107 O106 1.899 . S
Zn107 O108 2.032 . S
Zn107 O111 2.086 . S
Zn107 O116 1.977 . S
O108 Zn107 2.032 . S
O108 C112 1.278 . S
C109 O110 1.203 . S
C109 O116 1.267 . S
O110 C109 1.203 . S
O111 C104 1.185 . S
O111 Zn107 2.086 . S
C112 O108 1.278 . S
C112 O113 1.211 . S
O113 C112 1.211 . S
C114 O106 1.284 . S
C114 O115 1.273 . S
O115 C114 1.273 . S
O116 Zn107 1.977 . S
O116 C109 1.267 . S
C117 O118 1.160 1_556 S
C117 O124 1.185 1_556 S
O118 C117 1.160 1_554 S
O119 Zn120 1.899 . S
O119 C127 1.284 . S
Zn120 O119 1.899 . S
Zn120 O121 2.032 . S
Zn120 O124 2.086 . S
Zn120 O129 1.977 . S
O121 Zn120 2.032 . S
O121 C125 1.278 . S
C122 O123 1.203 . S
C122 O129 1.267 . S
O123 C122 1.203 . S
O124 C117 1.185 1_554 S
O124 Zn120 2.086 . S
C125 O121 1.278 . S
C125 O126 1.211 . S
O126 C125 1.211 . S
C127 O119 1.284 . S
C127 O128 1.273 . S
O128 C127 1.273 . S
O129 Zn120 1.977 . S
O129 C122 1.267 . S
C130 O131 1.160 . S
C130 O137 1.185 . S
O131 C130 1.160 . S
O132 Zn133 1.899 . S
O132 C140 1.284 1_554 S
Zn133 O132 1.899 . S
Zn133 O134 2.032 1_554 S
Zn133 O137 2.086 . S
Zn133 O142 1.977 . S
O134 Zn133 2.032 1_556 S
O134 C138 1.278 . S
C135 O136 1.203 . S
C135 O142 1.267 1_556 S
O136 C135 1.203 . S
O137 C130 1.185 . S
O137 Zn133 2.086 . S
C138 O134 1.278 . S
C138 O139 1.211 . S
O139 C138 1.211 . S
C140 O132 1.284 1_556 S
C140 O141 1.273 . S
O141 C140 1.273 . S
O142 Zn133 1.977 . S
O142 C135 1.267 1_554 S
C143 O144 1.160 . S
C143 O150 1.185 . S
O144 C143 1.160 . S
O145 Zn146 1.899 . S
O145 C153 1.284 . S
Zn146 O145 1.899 . S
Zn146 O147 2.032 . S
Zn146 O150 2.086 . S
Zn146 O155 1.977 . S
O147 Zn146 2.032 . S
O147 C151 1.278 . S
C148 O149 1.203 . S
C148 O155 1.267 . S
O149 C148 1.203 . S
O150 C143 1.185 . S
O150 Zn146 2.086 . S
C151 O147 1.278 . S
C151 O152 1.211 . S
O152 C151 1.211 . S
C153 O145 1.284 . S
C153 O154 1.273 . S
O154 C153 1.273 . S
O155 Zn146 1.977 . S
O155 C148 1.267 . S
C156 O157 1.160 . S
C156 O163 1.185 . S
O157 C156 1.160 . S
O158 Zn159 1.899 . S
O158 C166 1.284 . S
Zn159 O158 1.899 . S
Zn159 O160 2.032 . S
Zn159 O163 2.086 . S
Zn159 O168 1.977 . S
O160 Zn159 2.032 . S
O160 C164 1.278 . S
C161 O162 1.203 . S
C161 O168 1.267 . S
O162 C161 1.203 . S
O163 C156 1.185 . S
O163 Zn159 2.086 . S
C164 O160 1.278 . S
C164 O165 1.211 . S
O165 C164 1.211 . S
C166 O158 1.284 . S
C166 O167 1.273 . S
O167 C166 1.273 . S
O168 Zn159 1.977 . S
O168 C161 1.267 . S
C169 O170 1.160 . S
C169 O176 1.185 . S
O170 C169 1.160 . S
O171 Zn172 1.899 . S
O171 C179 1.284 1_455 S
Zn172 O171 1.899 . S
Zn172 O173 2.032 . S
Zn172 O176 2.086 . S
Zn172 O181 1.977 . S
O173 Zn172 2.032 . S
O173 C177 1.278 . S
C174 O175 1.203 . S
C174 O181 1.267 . S
O175 C174 1.203 . S
O176 C169 1.185 . S
O176 Zn172 2.086 . S
C177 O173 1.278 . S
C177 O178 1.211 . S
O178 C177 1.211 . S
C179 O171 1.284 1_655 S
C179 O180 1.273 . S
O180 C179 1.273 . S
O181 Zn172 1.977 . S
O181 C174 1.267 . S
C182 O183 1.160 . S
C182 O189 1.185 . S
O183 C182 1.160 . S
O184 Zn185 1.899 . S
O184 C192 1.284 . S
Zn185 O184 1.899 . S
Zn185 O186 2.032 . S
Zn185 O189 2.086 . S
Zn185 O194 1.977 . S
O186 Zn185 2.032 . S
O186 C190 1.278 . S
C187 O188 1.203 . S
C187 O194 1.267 . S
O188 C187 1.203 . S
O189 C182 1.185 . S
O189 Zn185 2.086 . S
C190 O186 1.278 . S
C190 O191 1.211 . S
O191 C190 1.211 . S
C192 O184 1.284 . S
C192 O193 1.273 . S
O193 C192 1.273 . S
O194 Zn185 1.977 . S
O194 C187 1.267 . S
C195 O196 1.160 . S
C195 O202 1.185 . S
O196 C195 1.160 . S
O197 Zn198 1.899 . S
O197 C205 1.284 1_455 S
Zn198 O197 1.899 . S
Zn198 O199 2.032 . S
Zn198 O202 2.086 . S
Zn198 O207 1.977 . S
O199 Zn198 2.032 . S
O199 C203 1.278 . S
C200 O201 1.203 . S
C200 O207 1.267 . S
O201 C200 1.203 . S
O202 C195 1.185 . S
O202 Zn198 2.086 . S
C203 O199 1.278 . S
C203 O204 1.211 . S
O204 C203 1.211 . S
C205 O197 1.284 1_655 S
C205 O206 1.273 . S
O206 C205 1.273 . S
O207 Zn198 1.977 . S
O207 C200 1.267 . S
H208 C214 0.930 . S
H209 C218 0.930 . S
H210 C223 0.929 . S
H211 C221 0.929 . S
H212 C216 0.929 . S
H213 C222 0.929 . S
C214 H208 0.930 . S
C214 C215 1.367 . S
C214 C222 1.378 . S
C215 C214 1.367 . S
C215 C223 1.433 . S
C216 H212 0.929 . S
C216 C218 1.378 . S
C216 C220 1.350 . S
C217 C220 1.463 . S
C217 C222 1.350 . S
C217 N225 1.427 . S
C218 H209 0.930 . S
C218 C216 1.378 . S
C218 C219 1.367 . S
C219 C218 1.367 . S
C219 C221 1.433 . S
C220 C216 1.350 . S
C220 C217 1.463 . S
C220 N224 1.427 . S
C221 H211 0.929 . S
C221 C219 1.433 . S
C221 N224 1.384 . S
C222 H213 0.929 . S
C222 C214 1.378 . S
C222 C217 1.350 . S
C223 H210 0.929 . S
C223 C215 1.433 . S
C223 N225 1.384 . S
N224 C220 1.427 . S
N224 C221 1.384 . S
N225 C217 1.427 . S
N225 C223 1.384 . S
H226 C232 0.930 . S
H227 C236 0.930 . S
H228 C241 0.929 . S
H229 C239 0.929 . S
H230 C234 0.929 . S
H231 C240 0.929 . S
C232 H226 0.930 . S
C232 C233 1.367 . S
C232 C240 1.378 . S
C233 C232 1.367 . S
C233 C241 1.433 . S
C234 H230 0.929 . S
C234 C236 1.378 . S
C234 C238 1.350 . S
C235 C238 1.463 . S
C235 C240 1.350 . S
C235 N243 1.427 . S
C236 H227 0.930 . S
C236 C234 1.378 . S
C236 C237 1.367 . S
C237 C236 1.367 . S
C237 C239 1.433 . S
C238 C234 1.350 . S
C238 C235 1.463 . S
C238 N242 1.427 . S
C239 H229 0.929 . S
C239 C237 1.433 . S
C239 N242 1.384 . S
C240 H231 0.929 . S
C240 C232 1.378 . S
C240 C235 1.350 . S
C241 H228 0.929 . S
C241 C233 1.433 . S
C241 N243 1.384 . S
N242 C238 1.427 . S
N242 C239 1.384 . S
N243 C235 1.427 . S
N243 C241 1.384 . S
H244 C250 0.930 . S
H245 C254 0.930 . S
H246 C259 0.929 . S
H247 C257 0.929 . S
H248 C252 0.929 . S
H249 C258 0.929 . S
C250 H244 0.930 . S
C250 C251 1.367 . S
C250 C258 1.378 . S
C251 C250 1.367 . S
C251 C259 1.433 . S
C252 H248 0.929 . S
C252 C254 1.378 . S
C252 C256 1.350 . S
C253 C256 1.463 . S
C253 C258 1.350 . S
C253 N261 1.427 . S
C254 H245 0.930 . S
C254 C252 1.378 . S
C254 C255 1.367 . S
C255 C254 1.367 . S
C255 C257 1.433 . S
C256 C252 1.350 . S
C256 C253 1.463 . S
C256 N260 1.427 . S
C257 H247 0.929 . S
C257 C255 1.433 . S
C257 N260 1.384 . S
C258 H249 0.929 . S
C258 C250 1.378 . S
C258 C253 1.350 . S
C259 H246 0.929 . S
C259 C251 1.433 . S
C259 N261 1.384 . S
N260 C256 1.427 . S
N260 C257 1.384 . S
N261 C253 1.427 . S
N261 C259 1.384 . S
H262 C268 0.930 . S
H263 C272 0.930 . S
H264 C277 0.929 . S
H265 C275 0.929 . S
H266 C270 0.929 1_554 S
H267 C276 0.929 . S
C268 H262 0.930 . S
C268 C269 1.367 . S
C268 C276 1.378 . S
C269 C268 1.367 . S
C269 C277 1.433 1_556 S
C270 H266 0.929 1_556 S
C270 C272 1.378 . S
C270 C274 1.350 . S
C271 C274 1.463 . S
C271 C276 1.350 . S
C271 N279 1.427 1_556 S
C272 H263 0.930 . S
C272 C270 1.378 . S
C272 C273 1.367 . S
C273 C272 1.367 . S
C273 C275 1.433 . S
C274 C270 1.350 . S
C274 C271 1.463 . S
C274 N278 1.427 . S
C275 H265 0.929 . S
C275 C273 1.433 . S
C275 N278 1.384 . S
C276 H267 0.929 . S
C276 C268 1.378 . S
C276 C271 1.350 . S
C277 H264 0.929 . S
C277 C269 1.433 1_554 S
C277 N279 1.384 . S
N278 C274 1.427 . S
N278 C275 1.384 . S
N279 C271 1.427 1_554 S
N279 C277 1.384 . S
H280 C286 0.930 . S
H281 C290 0.930 . S
H282 C295 0.929 . S
H283 C293 0.929 . S
H284 C288 0.929 . S
H285 C294 0.929 1_554 S
C286 H280 0.930 . S
C286 C287 1.367 . S
C286 C294 1.378 . S
C287 C286 1.367 . S
C287 C295 1.433 . S
C288 H284 0.929 . S
C288 C290 1.378 . S
C288 C292 1.350 . S
C289 C292 1.463 . S
C289 C294 1.350 . S
C289 N297 1.427 . S
C290 H281 0.930 . S
C290 C288 1.378 . S
C290 C291 1.367 . S
C291 C290 1.367 . S
C291 C293 1.433 1_556 S
C292 C288 1.350 . S
C292 C289 1.463 . S
C292 N296 1.427 1_556 S
C293 H283 0.929 . S
C293 C291 1.433 1_554 S
C293 N296 1.384 . S
C294 H285 0.929 1_556 S
C294 C286 1.378 . S
C294 C289 1.350 . S
C295 H282 0.929 . S
C295 C287 1.433 . S
C295 N297 1.384 . S
N296 C292 1.427 1_554 S
N296 C293 1.384 . S
N297 C289 1.427 . S
N297 C295 1.384 . S
H298 C304 0.930 . S
H299 C308 0.930 . S
H300 C313 0.929 . S
H301 C311 0.929 . S
H302 C306 0.929 . S
H303 C312 0.929 . S
C304 H298 0.930 . S
C304 C305 1.367 . S
C304 C312 1.378 . S
C305 C304 1.367 . S
C305 C313 1.433 . S
C306 H302 0.929 . S
C306 C308 1.378 . S
C306 C310 1.350 . S
C307 C310 1.463 . S
C307 C312 1.350 . S
C307 N315 1.427 . S
C308 H299 0.930 . S
C308 C306 1.378 . S
C308 C309 1.367 . S
C309 C308 1.367 . S
C309 C311 1.433 . S
C310 C306 1.350 . S
C310 C307 1.463 . S
C310 N314 1.427 . S
C311 H301 0.929 . S
C311 C309 1.433 . S
C311 N314 1.384 . S
C312 H303 0.929 . S
C312 C304 1.378 . S
C312 C307 1.350 . S
C313 H300 0.929 . S
C313 C305 1.433 . S
C313 N315 1.384 . S
N314 C310 1.427 . S
N314 C311 1.384 . S
N315 C307 1.427 . S
N315 C313 1.384 . S
H316 C322 0.930 . S
H317 C326 0.930 . S
H318 C331 0.929 . S
H319 C329 0.929 . S
H320 C324 0.929 . S
H321 C330 0.929 . S
C322 H316 0.930 . S
C322 C323 1.367 . S
C322 C330 1.378 . S
C323 C322 1.367 . S
C323 C331 1.433 . S
C324 H320 0.929 . S
C324 C326 1.378 . S
C324 C328 1.350 . S
C325 C328 1.463 . S
C325 C330 1.350 . S
C325 N333 1.427 . S
C326 H317 0.930 . S
C326 C324 1.378 . S
C326 C327 1.367 . S
C327 C326 1.367 . S
C327 C329 1.433 . S
C328 C324 1.350 . S
C328 C325 1.463 . S
C328 N332 1.427 . S
C329 H319 0.929 . S
C329 C327 1.433 . S
C329 N332 1.384 . S
C330 H321 0.929 . S
C330 C322 1.378 . S
C330 C325 1.350 . S
C331 H318 0.929 . S
C331 C323 1.433 . S
C331 N333 1.384 . S
N332 C328 1.427 . S
N332 C329 1.384 . S
N333 C325 1.427 . S
N333 C331 1.384 . S
H334 C340 0.930 . S
H335 C344 0.930 . S
H336 C349 0.929 . S
H337 C347 0.929 . S
H338 C342 0.929 . S
H339 C348 0.929 . S
C340 H334 0.930 . S
C340 C341 1.367 . S
C340 C348 1.378 . S
C341 C340 1.367 . S
C341 C349 1.433 . S
C342 H338 0.929 . S
C342 C344 1.378 . S
C342 C346 1.350 . S
C343 C346 1.463 . S
C343 C348 1.350 . S
C343 N351 1.427 . S
C344 H335 0.930 . S
C344 C342 1.378 . S
C344 C345 1.367 . S
C345 C344 1.367 . S
C345 C347 1.433 . S
C346 C342 1.350 . S
C346 C343 1.463 . S
C346 N350 1.427 . S
C347 H337 0.929 . S
C347 C345 1.433 . S
C347 N350 1.384 . S
C348 H339 0.929 . S
C348 C340 1.378 . S
C348 C343 1.350 . S
C349 H336 0.929 . S
C349 C341 1.433 . S
C349 N351 1.384 . S
N350 C346 1.427 . S
N350 C347 1.384 . S
N351 C343 1.427 . S
N351 C349 1.384 . S
H352 C358 0.930 . S
H353 C362 0.930 . S
H354 C367 0.940 . S
H355 C365 0.929 . S
H356 C360 0.929 1_554 S
H357 C366 0.929 . S
C358 H352 0.930 . S
C358 C359 1.367 . S
C358 C366 1.378 . S
C359 C358 1.367 . S
C359 C367 1.433 . S
C360 H356 0.929 1_556 S
C360 C362 1.378 1_556 S
C360 C364 1.350 . S
C361 C364 1.463 . S
C361 C366 1.350 . S
C361 N369 1.427 . S
C362 H353 0.930 . S
C362 C360 1.378 1_554 S
C362 C363 1.367 1_554 S
C363 C362 1.367 1_556 S
C363 C365 1.433 . S
C364 C360 1.350 . S
C364 C361 1.463 . S
C364 N368 1.427 . S
C365 H355 0.929 . S
C365 C363 1.433 . S
C365 N368 1.384 . S
C366 H357 0.929 . S
C366 C358 1.378 . S
C366 C361 1.350 . S
C367 H354 0.940 . S
C367 C359 1.433 . S
C367 N369 1.384 . S
N368 C364 1.427 . S
N368 C365 1.384 . S
N369 C361 1.427 . S
N369 C367 1.384 . S
H370 C376 0.930 . S
H371 C380 0.930 . S
H372 C385 0.929 . S
H373 C383 0.929 . S
H374 C378 0.929 . S
H375 C384 0.929 . S
C376 H370 0.930 . S
C376 C377 1.367 . S
C376 C384 1.378 . S
C377 C376 1.367 . S
C377 C385 1.433 . S
C378 H374 0.929 . S
C378 C380 1.378 . S
C378 C382 1.350 . S
C379 C382 1.463 . S
C379 C384 1.350 . S
C379 N387 1.427 . S
C380 H371 0.930 . S
C380 C378 1.378 . S
C380 C381 1.367 . S
C381 C380 1.367 . S
C381 C383 1.433 . S
C382 C378 1.350 . S
C382 C379 1.463 . S
C382 N386 1.427 . S
C383 H373 0.929 . S
C383 C381 1.433 . S
C383 N386 1.384 . S
C384 H375 0.929 . S
C384 C376 1.378 . S
C384 C379 1.350 . S
C385 H372 0.929 . S
C385 C377 1.433 . S
C385 N387 1.384 . S
N386 C382 1.427 . S
N386 C383 1.384 . S
N387 C379 1.427 . S
N387 C385 1.384 . S
H388 C394 0.930 . S
H389 C398 0.930 . S
H390 C403 0.929 . S
H391 C401 0.929 . S
H392 C396 0.929 . S
H393 C402 0.929 . S
C394 H388 0.930 . S
C394 C395 1.367 . S
C394 C402 1.378 . S
C395 C394 1.367 . S
C395 C403 1.433 . S
C396 H392 0.929 . S
C396 C398 1.378 . S
C396 C400 1.350 . S
C397 C400 1.463 . S
C397 C402 1.350 . S
C397 N405 1.427 . S
C398 H389 0.930 . S
C398 C396 1.378 . S
C398 C399 1.367 . S
C399 C398 1.367 . S
C399 C401 1.433 . S
C400 C396 1.350 . S
C400 C397 1.463 . S
C400 N404 1.427 . S
C401 H391 0.929 . S
C401 C399 1.433 . S
C401 N404 1.384 . S
C402 H393 0.929 . S
C402 C394 1.378 . S
C402 C397 1.350 . S
C403 H390 0.929 . S
C403 C395 1.433 . S
C403 N405 1.384 . S
N404 C400 1.427 . S
N404 C401 1.384 . S
N405 C397 1.427 . S
N405 C403 1.384 . S
H406 C412 0.930 . S
H407 C416 0.930 . S
H408 C421 0.929 . S
H409 C419 0.929 . S
H410 C414 0.929 . S
H411 C420 0.929 . S
C412 H406 0.930 . S
C412 C413 1.367 . S
C412 C420 1.378 . S
C413 C412 1.367 . S
C413 C421 1.433 . S
C414 H410 0.929 . S
C414 C416 1.378 . S
C414 C418 1.350 . S
C415 C418 1.463 . S
C415 C420 1.350 . S
C415 N423 1.427 . S
C416 H407 0.930 . S
C416 C414 1.378 . S
C416 C417 1.367 . S
C417 C416 1.367 . S
C417 C419 1.433 . S
C418 C414 1.350 . S
C418 C415 1.463 . S
C418 N422 1.427 . S
C419 H409 0.929 . S
C419 C417 1.433 . S
C419 N422 1.384 . S
C420 H411 0.929 . S
C420 C412 1.378 . S
C420 C415 1.350 . S
C421 H408 0.929 . S
C421 C413 1.433 . S
C421 N423 1.384 . S
N422 C418 1.427 . S
N422 C419 1.384 . S
N423 C415 1.427 . S
N423 C421 1.384 . S
H424 C430 0.930 1_455 S
H425 C434 0.930 . S
H426 C439 0.929 . S
H427 C437 0.929 . S
H428 C432 0.929 . S
H429 C438 0.929 . S
C430 H424 0.930 1_655 S
C430 C431 1.367 . S
C430 C438 1.378 . S
C431 C430 1.367 . S
C431 C439 1.433 . S
C432 H428 0.929 . S
C432 C434 1.378 . S
C432 C436 1.350 . S
C433 C436 1.463 . S
C433 C438 1.350 . S
C433 N441 1.427 . S
C434 H425 0.930 . S
C434 C432 1.378 . S
C434 C435 1.367 . S
C435 C434 1.367 . S
C435 C437 1.433 . S
C436 C432 1.350 . S
C436 C433 1.463 . S
C436 N440 1.427 . S
C437 H427 0.929 . S
C437 C435 1.433 . S
C437 N440 1.384 . S
C438 H429 0.929 . S
C438 C430 1.378 . S
C438 C433 1.350 . S
C439 H426 0.929 . S
C439 C431 1.433 . S
C439 N441 1.384 . S
N440 C436 1.427 . S
N440 C437 1.384 . S
N441 C433 1.427 . S
N441 C439 1.384 . S
H442 C448 0.930 . S
H443 C452 0.930 . S
H444 C457 0.929 . S
H445 C455 0.929 . S
H446 C450 0.929 . S
H447 C456 0.929 1_554 S
C448 H442 0.930 . S
C448 C449 1.367 . S
C448 C456 1.378 . S
C449 C448 1.367 . S
C449 C457 1.433 . S
C450 H446 0.929 . S
C450 C452 1.378 . S
C450 C454 1.350 . S
C451 C454 1.463 . S
C451 C456 1.350 . S
C451 N459 1.427 . S
C452 H443 0.930 . S
C452 C450 1.378 . S
C452 C453 1.367 . S
C453 C452 1.367 . S
C453 C455 1.433 1_556 S
C454 C450 1.350 . S
C454 C451 1.463 . S
C454 N458 1.427 1_556 S
C455 H445 0.929 . S
C455 C453 1.433 1_554 S
C455 N458 1.384 . S
C456 H447 0.929 1_556 S
C456 C448 1.378 . S
C456 C451 1.350 . S
C457 H444 0.929 . S
C457 C449 1.433 . S
C457 N459 1.384 . S
N458 C454 1.427 1_554 S
N458 C455 1.384 . S
N459 C451 1.427 . S
N459 C457 1.384 . S
H460 C466 0.930 . S
H461 C470 0.930 . S
H462 C475 0.929 . S
H463 C473 0.929 . S
H464 C468 0.929 . S
H465 C474 0.929 . S
C466 H460 0.930 . S
C466 C467 1.367 . S
C466 C474 1.378 . S
C467 C466 1.367 . S
C467 C475 1.433 . S
C468 H464 0.929 . S
C468 C470 1.378 . S
C468 C472 1.350 . S
C469 C472 1.463 . S
C469 C474 1.350 . S
C469 N477 1.427 . S
C470 H461 0.930 . S
C470 C468 1.378 . S
C470 C471 1.367 . S
C471 C470 1.367 . S
C471 C473 1.433 . S
C472 C468 1.350 . S
C472 C469 1.463 . S
C472 N476 1.427 . S
C473 H463 0.929 . S
C473 C471 1.433 . S
C473 N476 1.384 . S
C474 H465 0.929 . S
C474 C466 1.378 . S
C474 C469 1.350 . S
C475 H462 0.929 . S
C475 C467 1.433 . S
C475 N477 1.384 . S
N476 C472 1.427 . S
N476 C473 1.384 . S
N477 C469 1.427 . S
N477 C475 1.384 . S
H478 C484 0.930 . S
H479 C488 0.930 . S
H480 C493 0.929 . S
H481 C491 0.929 . S
H482 C486 0.929 . S
H483 C492 0.929 . S
C484 H478 0.930 . S
C484 C485 1.367 . S
C484 C492 1.378 . S
C485 C484 1.367 . S
C485 C493 1.433 . S
C486 H482 0.929 . S
C486 C488 1.378 . S
C486 C490 1.350 . S
C487 C490 1.463 . S
C487 C492 1.350 . S
C487 N495 1.427 . S
C488 H479 0.930 . S
C488 C486 1.378 . S
C488 C489 1.367 . S
C489 C488 1.367 . S
C489 C491 1.433 . S
C490 C486 1.350 . S
C490 C487 1.463 . S
C490 N494 1.427 . S
C491 H481 0.929 . S
C491 C489 1.433 . S
C491 N494 1.384 . S
C492 H483 0.929 . S
C492 C484 1.378 . S
C492 C487 1.350 . S
C493 H480 0.929 . S
C493 C485 1.433 . S
C493 N495 1.384 . S
N494 C490 1.427 . S
N494 C491 1.384 . S
N495 C487 1.427 . S
N495 C493 1.384 . S
H496 C502 0.930 . S
H497 C506 0.930 . S
H498 C511 0.929 . S
H499 C509 0.929 . S
H500 C504 0.929 . S
H501 C510 0.929 . S
C502 H496 0.930 . S
C502 C503 1.367 . S
C502 C510 1.378 . S
C503 C502 1.367 . S
C503 C511 1.433 . S
C504 H500 0.929 . S
C504 C506 1.378 1_554 S
C504 C508 1.350 . S
C505 C508 1.463 . S
C505 C510 1.350 . S
C505 N513 1.427 . S
C506 H497 0.930 . S
C506 C504 1.378 1_556 S
C506 C507 1.367 . S
C507 C506 1.367 . S
C507 C509 1.433 . S
C508 C504 1.350 . S
C508 C505 1.463 . S
C508 N512 1.427 . S
C509 H499 0.929 . S
C509 C507 1.433 . S
C509 N512 1.384 1_556 S
C510 H501 0.929 . S
C510 C502 1.378 . S
C510 C505 1.350 . S
C511 H498 0.929 . S
C511 C503 1.433 . S
C511 N513 1.384 . S
N512 C508 1.427 . S
N512 C509 1.384 1_554 S
N513 C505 1.427 . S
N513 C511 1.384 . S
H514 C520 0.930 . S
H515 C524 0.930 . S
H516 C529 0.929 . S
H517 C527 0.929 . S
H518 C522 0.929 . S
H519 C528 0.929 . S
C520 H514 0.930 . S
C520 C521 1.367 . S
C520 C528 1.378 . S
C521 C520 1.367 . S
C521 C529 1.433 . S
C522 H518 0.929 . S
C522 C524 1.378 . S
C522 C526 1.350 . S
C523 C526 1.463 . S
C523 C528 1.350 . S
C523 N531 1.427 . S
C524 H515 0.930 . S
C524 C522 1.378 . S
C524 C525 1.367 . S
C525 C524 1.367 . S
C525 C527 1.433 . S
C526 C522 1.350 . S
C526 C523 1.463 . S
C526 N530 1.427 . S
C527 H517 0.929 . S
C527 C525 1.433 . S
C527 N530 1.384 . S
C528 H519 0.929 . S
C528 C520 1.378 . S
C528 C523 1.350 . S
C529 H516 0.929 . S
C529 C521 1.433 . S
C529 N531 1.384 . S
N530 C526 1.427 . S
N530 C527 1.384 . S
N531 C523 1.427 . S
N531 C529 1.384 . S
H532 C538 0.930 . S
H533 C542 0.930 . S
H534 C547 0.929 . S
H535 C545 0.929 . S
H536 C540 0.929 . S
H537 C546 0.929 . S
C538 H532 0.930 . S
C538 C539 1.367 . S
C538 C546 1.378 . S
C539 C538 1.367 . S
C539 C547 1.433 . S
C540 H536 0.929 . S
C540 C542 1.378 . S
C540 C544 1.350 . S
C541 C544 1.463 . S
C541 C546 1.350 . S
C541 N549 1.427 . S
C542 H533 0.930 . S
C542 C540 1.378 . S
C542 C543 1.367 . S
C543 C542 1.367 . S
C543 C545 1.433 . S
C544 C540 1.350 . S
C544 C541 1.463 . S
C544 N548 1.427 . S
C545 H535 0.929 . S
C545 C543 1.433 . S
C545 N548 1.384 . S
C546 H537 0.929 . S
C546 C538 1.378 . S
C546 C541 1.350 . S
C547 H534 0.929 . S
C547 C539 1.433 . S
C547 N549 1.384 . S
N548 C544 1.427 . S
N548 C545 1.384 . S
N549 C541 1.427 . S
N549 C547 1.384 . S
H550 C556 0.930 . S
H551 C560 0.930 . S
H552 C565 0.929 . S
H553 C563 0.929 . S
H554 C558 0.929 . S
H555 C564 0.929 . S
C556 H550 0.930 . S
C556 C557 1.367 . S
C556 C564 1.378 . S
C557 C556 1.367 . S
C557 C565 1.433 . S
C558 H554 0.929 . S
C558 C560 1.378 . S
C558 C562 1.350 . S
C559 C562 1.463 . S
C559 C564 1.350 . S
C559 N567 1.427 . S
C560 H551 0.930 . S
C560 C558 1.378 . S
C560 C561 1.367 . S
C561 C560 1.367 . S
C561 C563 1.433 . S
C562 C558 1.350 . S
C562 C559 1.463 . S
C562 N566 1.427 . S
C563 H553 0.929 . S
C563 C561 1.433 . S
C563 N566 1.384 . S
C564 H555 0.929 . S
C564 C556 1.378 . S
C564 C559 1.350 . S
C565 H552 0.929 . S
C565 C557 1.433 . S
C565 N567 1.384 . S
N566 C562 1.427 . S
N566 C563 1.384 . S
N567 C559 1.427 . S
N567 C565 1.384 . S
H568 C574 0.930 . S
H569 C578 0.930 . S
H570 C583 0.929 . S
H571 C581 0.929 . S
H572 C576 0.929 . S
H573 C582 0.929 . S
C574 H568 0.930 . S
C574 C575 1.367 . S
C574 C582 1.378 . S
C575 C574 1.367 . S
C575 C583 1.433 . S
C576 H572 0.929 . S
C576 C578 1.378 . S
C576 C580 1.350 . S
C577 C580 1.463 . S
C577 C582 1.350 . S
C577 N585 1.427 . S
C578 H569 0.930 . S
C578 C576 1.378 . S
C578 C579 1.367 . S
C579 C578 1.367 . S
C579 C581 1.433 . S
C580 C576 1.350 . S
C580 C577 1.463 . S
C580 N584 1.427 . S
C581 H571 0.929 . S
C581 C579 1.433 . S
C581 N584 1.384 . S
C582 H573 0.929 . S
C582 C574 1.378 . S
C582 C577 1.350 . S
C583 H570 0.929 . S
C583 C575 1.433 . S
C583 N585 1.384 . S
N584 C580 1.427 . S
N584 C581 1.384 . S
N585 C577 1.427 . S
N585 C583 1.384 . S
H586 C592 0.930 . S
H587 C596 0.930 . S
H588 C601 0.929 . S
H589 C599 0.929 . S
H590 C594 0.929 . S
H591 C600 0.929 . S
C592 H586 0.930 . S
C592 C593 1.367 . S
C592 C600 1.378 . S
C593 C592 1.367 . S
C593 C601 1.433 . S
C594 H590 0.929 . S
C594 C596 1.378 . S
C594 C598 1.350 . S
C595 C598 1.463 . S
C595 C600 1.350 . S
C595 N603 1.427 . S
C596 H587 0.930 . S
C596 C594 1.378 . S
C596 C597 1.367 . S
C597 C596 1.367 . S
C597 C599 1.433 . S
C598 C594 1.350 . S
C598 C595 1.463 . S
C598 N602 1.427 . S
C599 H589 0.929 . S
C599 C597 1.433 . S
C599 N602 1.384 . S
C600 H591 0.929 . S
C600 C592 1.378 . S
C600 C595 1.350 . S
C601 H588 0.929 . S
C601 C593 1.433 . S
C601 N603 1.384 . S
N602 C598 1.427 . S
N602 C599 1.384 . S
N603 C595 1.427 . S
N603 C601 1.384 . S
H604 C610 0.930 . S
H605 C614 0.930 . S
H606 C619 0.929 . S
H607 C617 0.929 . S
H608 C612 0.929 . S
H609 C618 0.929 . S
C610 H604 0.930 . S
C610 C611 1.367 . S
C610 C618 1.378 . S
C611 C610 1.367 . S
C611 C619 1.433 . S
C612 H608 0.929 . S
C612 C614 1.378 . S
C612 C616 1.350 . S
C613 C616 1.463 1_565 S
C613 C618 1.350 . S
C613 N621 1.427 . S
C614 H605 0.930 . S
C614 C612 1.378 . S
C614 C615 1.367 . S
C615 C614 1.367 . S
C615 C617 1.433 . S
C616 C612 1.350 . S
C616 C613 1.463 1_545 S
C616 N620 1.427 . S
C617 H607 0.929 . S
C617 C615 1.433 . S
C617 N620 1.384 . S
C618 H609 0.929 . S
C618 C610 1.378 . S
C618 C613 1.350 . S
C619 H606 0.929 . S
C619 C611 1.433 . S
C619 N621 1.384 . S
N620 C616 1.427 . S
N620 C617 1.384 . S
N621 C613 1.427 . S
N621 C619 1.384 . S
H622 C628 0.930 . S
H623 C632 0.930 . S
H624 C637 0.929 . S
H625 C635 0.929 . S
H626 C630 0.929 1_545 S
H627 C636 0.929 1_565 S
C628 H622 0.930 . S
C628 C629 1.367 . S
C628 C636 1.378 . S
C629 C628 1.367 . S
C629 C637 1.433 1_556 S
C630 H626 0.929 1_565 S
C630 C632 1.378 . S
C630 C634 1.350 . S
C631 C634 1.463 1_545 S
C631 C636 1.350 1_554 S
C631 N639 1.427 . S
C632 H623 0.930 . S
C632 C630 1.378 . S
C632 C633 1.367 . S
C633 C632 1.367 . S
C633 C635 1.433 . S
C634 C630 1.350 . S
C634 C631 1.463 1_565 S
C634 N638 1.427 . S
C635 H625 0.929 . S
C635 C633 1.433 . S
C635 N638 1.384 . S
C636 H627 0.929 1_545 S
C636 C628 1.378 . S
C636 C631 1.350 1_556 S
C637 H624 0.929 . S
C637 C629 1.433 1_554 S
C637 N639 1.384 . S
N638 C634 1.427 . S
N638 C635 1.384 . S
N639 C631 1.427 . S
N639 C637 1.384 . S
H640 C646 0.930 . S
H641 C650 0.930 . S
H642 C655 0.929 . S
H643 C653 0.929 . S
H644 C648 0.929 . S
H645 C654 0.929 . S
C646 H640 0.930 . S
C646 C647 1.367 . S
C646 C654 1.378 . S
C647 C646 1.367 . S
C647 C655 1.433 . S
C648 H644 0.929 . S
C648 C650 1.378 . S
C648 C652 1.350 . S
C649 C652 1.463 . S
C649 C654 1.350 . S
C649 N657 1.427 . S
C650 H641 0.930 . S
C650 C648 1.378 . S
C650 C651 1.367 . S
C651 C650 1.367 . S
C651 C653 1.433 . S
C652 C648 1.350 . S
C652 C649 1.463 . S
C652 N656 1.427 . S
C653 H643 0.929 . S
C653 C651 1.433 . S
C653 N656 1.384 . S
C654 H645 0.929 . S
C654 C646 1.378 . S
C654 C649 1.350 . S
C655 H642 0.929 . S
C655 C647 1.433 . S
C655 N657 1.384 . S
N656 C652 1.427 . S
N656 C653 1.384 . S
N657 C649 1.427 . S
N657 C655 1.384 . S
H658 C664 0.930 . S
H659 C668 0.930 . S
H660 C673 0.929 . S
H661 C671 0.929 . S
H662 C666 0.929 . S
H663 C672 0.929 . S
C664 H658 0.930 . S
C664 C665 1.367 . S
C664 C672 1.378 . S
C665 C664 1.367 . S
C665 C673 1.433 . S
C666 H662 0.929 . S
C666 C668 1.378 . S
C666 C670 1.350 . S
C667 C670 1.463 . S
C667 C672 1.350 . S
C667 N675 1.427 . S
C668 H659 0.930 . S
C668 C666 1.378 . S
C668 C669 1.367 . S
C669 C668 1.367 . S
C669 C671 1.433 . S
C670 C666 1.350 . S
C670 C667 1.463 . S
C670 N674 1.427 . S
C671 H661 0.929 . S
C671 C669 1.433 . S
C671 N674 1.384 . S
C672 H663 0.929 . S
C672 C664 1.378 . S
C672 C667 1.350 . S
C673 H660 0.929 . S
C673 C665 1.433 . S
C673 N675 1.384 . S
N674 C670 1.427 . S
N674 C671 1.384 . S
N675 C667 1.427 . S
N675 C673 1.384 . S
H676 C682 0.930 . S
H677 C686 0.930 . S
H678 C691 0.929 . S
H679 C689 0.929 . S
H680 C684 0.929 . S
H681 C690 0.929 . S
C682 H676 0.930 . S
C682 C683 1.367 . S
C682 C690 1.378 . S
C683 C682 1.367 . S
C683 C691 1.433 . S
C684 H680 0.929 . S
C684 C686 1.378 1_554 S
C684 C688 1.350 . S
C685 C688 1.463 . S
C685 C690 1.350 . S
C685 N693 1.427 . S
C686 H677 0.930 . S
C686 C684 1.378 1_556 S
C686 C687 1.367 . S
C687 C686 1.367 . S
C687 C689 1.433 . S
C688 C684 1.350 . S
C688 C685 1.463 . S
C688 N692 1.427 1_554 S
C689 H679 0.929 . S
C689 C687 1.433 . S
C689 N692 1.384 . S
C690 H681 0.929 . S
C690 C682 1.378 . S
C690 C685 1.350 . S
C691 H678 0.929 . S
C691 C683 1.433 . S
C691 N693 1.384 . S
N692 C688 1.427 1_556 S
N692 C689 1.384 . S
N693 C685 1.427 . S
N693 C691 1.384 . S
H694 C700 0.930 . S
H695 C704 0.930 . S
H696 C709 0.929 . S
H697 C707 0.929 . S
H698 C702 0.929 . S
H699 C708 0.929 . S
C700 H694 0.930 . S
C700 C701 1.367 . S
C700 C708 1.378 . S
C701 C700 1.367 . S
C701 C709 1.433 . S
C702 H698 0.929 . S
C702 C704 1.378 . S
C702 C706 1.350 . S
C703 C706 1.463 . S
C703 C708 1.350 . S
C703 N711 1.427 . S
C704 H695 0.930 . S
C704 C702 1.378 . S
C704 C705 1.367 . S
C705 C704 1.367 . S
C705 C707 1.433 . S
C706 C702 1.350 . S
C706 C703 1.463 . S
C706 N710 1.427 . S
C707 H697 0.929 . S
C707 C705 1.433 . S
C707 N710 1.384 . S
C708 H699 0.929 . S
C708 C700 1.378 . S
C708 C703 1.350 . S
C709 H696 0.929 . S
C709 C701 1.433 . S
C709 N711 1.384 . S
N710 C706 1.427 . S
N710 C707 1.384 . S
N711 C703 1.427 . S
N711 C709 1.384 . S
H712 C718 0.930 . S
H713 C722 0.930 . S
H714 C727 0.929 . S
H715 C725 0.929 . S
H716 C720 0.929 . S
H717 C726 0.929 . S
C718 H712 0.930 . S
C718 C719 1.367 . S
C718 C726 1.378 . S
C719 C718 1.367 . S
C719 C727 1.433 . S
C720 H716 0.929 . S
C720 C722 1.378 . S
C720 C724 1.350 . S
C721 C724 1.463 . S
C721 C726 1.350 . S
C721 N729 1.427 . S
C722 H713 0.930 . S
C722 C720 1.378 . S
C722 C723 1.367 . S
C723 C722 1.367 . S
C723 C725 1.433 . S
C724 C720 1.350 . S
C724 C721 1.463 . S
C724 N728 1.427 . S
C725 H715 0.929 . S
C725 C723 1.433 . S
C725 N728 1.384 . S
C726 H717 0.929 . S
C726 C718 1.378 . S
C726 C721 1.350 . S
C727 H714 0.929 . S
C727 C719 1.433 . S
C727 N729 1.384 . S
N728 C724 1.427 . S
N728 C725 1.384 . S
N729 C721 1.427 . S
N729 C727 1.384 . S
H730 C736 0.930 . S
H731 C740 0.930 . S
H732 C745 0.929 . S
H733 C743 0.929 . S
H734 C738 0.929 . S
H735 C744 0.929 . S
C736 H730 0.930 . S
C736 C737 1.367 . S
C736 C744 1.378 . S
C737 C736 1.367 . S
C737 C745 1.433 . S
C738 H734 0.929 . S
C738 C740 1.378 . S
C738 C742 1.350 . S
C739 C742 1.463 . S
C739 C744 1.350 . S
C739 N747 1.427 . S
C740 H731 0.930 . S
C740 C738 1.378 . S
C740 C741 1.367 . S
C741 C740 1.367 . S
C741 C743 1.433 . S
C742 C738 1.350 . S
C742 C739 1.463 . S
C742 N746 1.427 . S
C743 H733 0.929 . S
C743 C741 1.433 . S
C743 N746 1.384 . S
C744 H735 0.929 . S
C744 C736 1.378 . S
C744 C739 1.350 . S
C745 H732 0.929 . S
C745 C737 1.433 . S
C745 N747 1.384 . S
N746 C742 1.427 . S
N746 C743 1.384 . S
N747 C739 1.427 . S
N747 C745 1.384 . S
H748 C754 0.930 . S
H749 C758 0.930 . S
H750 C763 0.929 . S
H751 C761 0.929 . S
H752 C756 0.929 1_565 S
H753 C762 0.929 1_545 S
C754 H748 0.930 . S
C754 C755 1.367 . S
C754 C762 1.378 . S
C755 C754 1.367 . S
C755 C763 1.433 . S
C756 H752 0.929 1_545 S
C756 C758 1.378 . S
C756 C760 1.350 1_556 S
C757 C760 1.463 1_565 S
C757 C762 1.350 . S
C757 N765 1.427 . S
C758 H749 0.930 . S
C758 C756 1.378 . S
C758 C759 1.367 . S
C759 C758 1.367 . S
C759 C761 1.433 . S
C760 C756 1.350 1_554 S
C760 C757 1.463 1_545 S
C760 N764 1.427 . S
C761 H751 0.929 . S
C761 C759 1.433 . S
C761 N764 1.384 1_556 S
C762 H753 0.929 1_565 S
C762 C754 1.378 . S
C762 C757 1.350 . S
C763 H750 0.929 . S
C763 C755 1.433 . S
C763 N765 1.384 . S
N764 C760 1.427 . S
N764 C761 1.384 1_554 S
N765 C757 1.427 . S
N765 C763 1.384 . S
H766 C772 0.930 . S
H767 C776 0.930 . S
H768 C781 0.929 . S
H769 C779 0.929 . S
H770 C774 0.929 . S
H771 C780 0.929 . S
C772 H766 0.930 . S
C772 C773 1.367 . S
C772 C780 1.378 . S
C773 C772 1.367 . S
C773 C781 1.433 . S
C774 H770 0.929 . S
C774 C776 1.378 . S
C774 C778 1.350 . S
C775 C778 1.463 1_545 S
C775 C780 1.350 . S
C775 N783 1.427 1_545 S
C776 H767 0.930 . S
C776 C774 1.378 . S
C776 C777 1.367 . S
C777 C776 1.367 . S
C777 C779 1.433 . S
C778 C774 1.350 . S
C778 C775 1.463 1_565 S
C778 N782 1.427 1_565 S
C779 H769 0.929 . S
C779 C777 1.433 . S
C779 N782 1.384 1_565 S
C780 H771 0.929 . S
C780 C772 1.378 . S
C780 C775 1.350 . S
C781 H768 0.929 . S
C781 C773 1.433 . S
C781 N783 1.384 1_545 S
N782 C778 1.427 1_545 S
N782 C779 1.384 1_545 S
N783 C775 1.427 1_565 S
N783 C781 1.384 1_565 S
C215 C127 1.413 . S
C219 C10 1.413 . S
C233 C192 1.412 . S
C237 C23 1.412 . S
C251 C36 1.416 . S
C255 C114 1.416 . S
C269 C49 1.412 . S
C273 C205 1.412 . S
C287 C62 1.412 . S
C291 C140 1.412 . S
C305 C179 1.424 . S
C309 C75 1.424 . S
C323 C153 1.412 . S
C327 C88 1.412 . S
C341 C101 1.423 . S
C345 C166 1.424 . S
C359 C57 1.429 . S
C363 C44 1.424 . S
C377 C161 1.430 . S
C381 C109 1.430 . S
C395 C83 1.429 . S
C399 C18 1.418 . S
C413 C122 1.418 . S
C417 C174 1.428 . S
C431 C5 1.415 . S
C435 C70 1.429 . S
C449 C200 1.420 . S
C453 C135 1.423 . S
C467 C96 1.429 . S
C471 C31 1.431 . S
C485 C148 1.427 . S
C489 C187 1.432 . S
C503 C8 0.492 . S
C507 C60 0.472 . S
C521 C73 0.489 . S
C525 C21 0.471 . S
C539 C86 0.478 . S
C543 C34 0.500 . S
C557 C47 0.505 . S
C561 C99 0.495 . S
C575 C138 0.504 . S
C579 C112 0.487 . S
C593 C151 0.471 . S
C597 C125 0.488 . S
C611 C190 0.474 . S
C615 C164 0.495 . S
C629 C203 0.494 . S
C633 C177 0.505 . S
C647 C52 1.691 . S
C651 C0 1.689 . S
C665 C65 1.688 . S
C669 C13 1.693 . S
C683 C78 1.692 . S
C687 C26 1.688 . S
C701 C39 1.691 . S
C705 C91 1.689 . S
C719 C104 1.694 . S
C723 C130 1.688 . S
C737 C143 1.692 . S
C741 C117 1.688 . S
C755 C182 1.689 . S
C759 C156 1.693 . S
C773 C195 1.691 . S
C777 C169 1.689 . S
