# Generated by pormake.
# Topology ttw, (5)-cn, num edge types: 1
# Building blocks:
#     Node 0, Type 0, BuildingBlock: BEQFEK_clean_sbu_0, # of connection points: 5
#     Node 1, Type 0, BuildingBlock: BEQFEK_clean_sbu_0, # of connection points: 5
#     Node 2, Type 0, BuildingBlock: BEQFEK_clean_sbu_0, # of connection points: 5
#     Node 3, Type 0, BuildingBlock: BEQFEK_clean_sbu_0, # of connection points: 5
#     Node 4, Type 0, BuildingBlock: BEQFEK_clean_sbu_0, # of connection points: 5
#     Node 5, Type 0, BuildingBlock: BEQFEK_clean_sbu_0, # of connection points: 5
#     Edge 6, Type (0, 0), BuildingBlock: UVAHIK_clean_linker_0, # of connection points: 2
#     Edge 7, Type (0, 0), BuildingBlock: UVAHIK_clean_linker_0, # of connection points: 2
#     Edge 8, Type (0, 0), BuildingBlock: UVAHIK_clean_linker_0, # of connection points: 2
#     Edge 9, Type (0, 0), BuildingBlock: UVAHIK_clean_linker_0, # of connection points: 2
#     Edge 10, Type (0, 0), BuildingBlock: UVAHIK_clean_linker_0, # of connection points: 2
#     Edge 11, Type (0, 0), BuildingBlock: UVAHIK_clean_linker_0, # of connection points: 2
#     Edge 12, Type (0, 0), BuildingBlock: UVAHIK_clean_linker_0, # of connection points: 2
#     Edge 13, Type (0, 0), BuildingBlock: UVAHIK_clean_linker_0, # of connection points: 2
#     Edge 14, Type (0, 0), BuildingBlock: UVAHIK_clean_linker_0, # of connection points: 2
#     Edge 15, Type (0, 0), BuildingBlock: UVAHIK_clean_linker_0, # of connection points: 2
#     Edge 16, Type (0, 0), BuildingBlock: UVAHIK_clean_linker_0, # of connection points: 2
#     Edge 17, Type (0, 0), BuildingBlock: UVAHIK_clean_linker_0, # of connection points: 2
#     Edge 18, Type (0, 0), BuildingBlock: UVAHIK_clean_linker_0, # of connection points: 2
#     Edge 19, Type (0, 0), BuildingBlock: UVAHIK_clean_linker_0, # of connection points: 2
#     Edge 20, Type (0, 0), BuildingBlock: UVAHIK_clean_linker_0, # of connection points: 2
# Relax obj value: 0.117
# Max RMSD: 0.171
# Mean RMSD: 0.158
data_MOF--net-ttw--node1-BEQFEK_clean_sbu_0--edge1-UVAHIK_clean_linker_0
_symmetry_space_group_name_H-M    P1
_symmetry_Int_Tables_number       1
_symmetry_cell_setting            triclinic
loop_
_symmetry_equiv_pos_as_xyz
'x, y, z'
_cell_length_a     70.567675
_cell_length_b     73.687691
_cell_length_c     23.980276
_cell_angle_alpha  91.313353
_cell_angle_beta   90.019047
_cell_angle_gamma 125.80304
loop_
_atom_site_label
_atom_site_type_symbol
_atom_site_fract_x
_atom_site_fract_y
_atom_site_fract_z
_atom_type_partial_charge
Co0 Co 0.17183 0.52756 0.01999 0.0
Co1 Co 0.17394 0.5302 0.15088 0.0
C2 C 0.20486 0.52261 0.08728 0.0
O3 O 0.19613 0.52333 0.04152 0.0
O4 O 0.19776 0.5247 0.13428 0.0
C5 C 0.16597 0.5069 0.91149 0.0
O6 O 0.16899 0.49336 0.93808 0.0
C7 C 0.17311 0.52352 0.2739 0.0
C8 C 0.1566 0.54006 0.30098 0.0
C9 C 0.16532 0.52874 0.32077 0.0
N10 N 0.16882 0.5312 0.2287 0.0
N11 N 0.15908 0.54114 0.24543 0.0
C12 C 0.18534 0.51243 0.27209 0.0
H13 H 0.19752 0.51855 0.23678 0.0
H14 H 0.17218 0.4941 0.26603 0.0
H15 H 0.19525 0.51573 0.3115 0.0
C16 C 0.12169 0.49286 0.04218 0.0
N17 N 0.14398 0.50814 0.05927 0.0
N18 N 0.14509 0.50858 0.11409 0.0
C19 C 0.12361 0.49326 0.13363 0.0
C20 C 0.10803 0.48291 0.08881 0.0
C21 C 0.11352 0.48912 0.98268 0.0
H22 H 0.123 0.5053 0.96121 0.0
H23 H 0.1174 0.47816 0.96124 0.0
H24 H 0.09446 0.48105 0.97954 0.0
O25 O 0.18436 0.55926 0.03445 0.0
O26 O 0.1864 0.56074 0.12674 0.0
H27 H 0.11707 0.50083 0.21479 0.0
H28 H 0.1015 0.47128 0.19908 0.0
C29 C 0.11827 0.48795 0.19394 0.0
H30 H 0.13245 0.48812 0.21442 0.0
H31 H 0.15398 0.54858 0.21867 0.0
O32 O 0.16624 0.52205 0.93877 0.0
C33 C 0.18962 0.57021 0.08052 0.0
Co34 Co 0.47027 0.16221 0.12092 0.0
Co35 Co 0.47091 0.15903 0.99068 0.0
C36 C 0.4663 0.19255 0.04764 0.0
O37 O 0.46703 0.18548 0.09496 0.0
O38 O 0.46735 0.18374 0.00246 0.0
C39 C 0.46592 0.17362 0.23406 0.0
O40 O 0.47141 0.19246 0.21342 0.0
C41 C 0.45959 0.15473 0.87044 0.0
C42 C 0.4785 0.14123 0.83816 0.0
C43 C 0.46448 0.14769 0.82186 0.0
N44 N 0.47021 0.15244 0.91338 0.0
N45 N 0.48158 0.1445 0.89372 0.0
C46 C 0.44426 0.16247 0.87678 0.0
H47 H 0.4357 0.15768 0.91797 0.0
H48 H 0.43081 0.15525 0.84292 0.0
H49 H 0.45517 0.18099 0.87482 0.0
C50 C 0.43567 0.11373 0.1052 0.0
N51 N 0.44865 0.13436 0.08427 0.0
N52 N 0.44857 0.13271 0.02955 0.0
C53 C 0.43548 0.11082 0.01397 0.0
C54 C 0.42719 0.09802 0.06154 0.0
C55 C 0.43391 0.10925 0.16624 0.0
H56 H 0.42774 0.11827 0.18816 0.0
H57 H 0.42159 0.09111 0.17427 0.0
H58 H 0.45147 0.11569 0.18338 0.0
O59 O 0.50278 0.17186 0.10834 0.0
O60 O 0.50255 0.16988 0.01594 0.0
H61 H 0.45153 0.10524 0.94687 0.0
H62 H 0.42051 0.08433 0.95043 0.0
C63 C 0.43461 0.10244 0.9559 0.0
H64 H 0.43164 0.11172 0.92565 0.0
H65 H 0.49142 0.14125 0.91837 0.0
O66 O 0.46477 0.15902 0.20202 0.0
C67 C 0.5131 0.17416 0.06266 0.0
Co68 Co 0.48932 0.65078 0.01925 0.0
Co69 Co 0.48665 0.65054 0.14983 0.0
C70 C 0.49859 0.69028 0.08764 0.0
O71 O 0.49629 0.68011 0.04167 0.0
O72 O 0.49581 0.68112 0.13433 0.0
C73 C 0.51084 0.66856 0.9134 0.0
O74 O 0.5251 0.6873 0.9422 0.0
C75 C 0.49612 0.65815 0.27309 0.0
C76 C 0.47012 0.62355 0.29998 0.0
C77 C 0.48732 0.64495 0.32011 0.0
N78 N 0.48465 0.64493 0.2277 0.0
N79 N 0.46915 0.62434 0.24433 0.0
C80 C 0.51432 0.68287 0.27107 0.0
H81 H 0.51273 0.68956 0.23189 0.0
H82 H 0.53189 0.68636 0.27255 0.0
H83 H 0.51276 0.69155 0.30727 0.0
C84 C 0.52208 0.63921 0.04417 0.0
N85 N 0.50805 0.64505 0.06049 0.0
N86 N 0.50715 0.64506 0.1153 0.0
C87 C 0.52061 0.63919 0.13569 0.0
C88 C 0.5305 0.63524 0.09123 0.0
C89 C 0.52714 0.63741 0.98448 0.0
H90 H 0.53507 0.6538 0.96491 0.0
H91 H 0.53939 0.63268 0.98028 0.0
H92 H 0.51054 0.62492 0.96175 0.0
O93 O 0.4557 0.62698 0.02986 0.0
O94 O 0.45431 0.62838 0.12195 0.0
H95 H 0.50419 0.62162 0.21015 0.0
H96 H 0.53371 0.63018 0.20385 0.0
C97 C 0.52189 0.63517 0.19604 0.0
H98 H 0.52802 0.65057 0.22101 0.0
H99 H 0.45788 0.61073 0.21748 0.0
O100 O 0.49495 0.65117 0.93847 0.0
C101 C 0.44422 0.62021 0.07477 0.0
Co102 Co 0.79924 0.34178 0.15568 0.0
Co103 Co 0.80317 0.34615 0.02615 0.0
C104 C 0.76069 0.30708 0.0776 0.0
O105 O 0.76947 0.31482 0.12618 0.0
O106 O 0.77191 0.31728 0.03398 0.0
C107 C 0.78363 0.32694 0.26699 0.0
O108 O 0.76259 0.31622 0.24459 0.0
C109 C 0.8038 0.3382 0.90529 0.0
C110 C 0.8284 0.37294 0.87749 0.0
C111 C 0.81455 0.35085 0.85847 0.0
N112 N 0.81106 0.35224 0.94989 0.0
N113 N 0.82563 0.37296 0.93291 0.0
C114 C 0.78794 0.31326 0.90846 0.0
H115 H 0.79051 0.30796 0.94903 0.0
H116 H 0.79115 0.30521 0.87372 0.0
H117 H 0.76954 0.30764 0.90559 0.0
C118 C 0.84456 0.34851 0.14178 0.0
N119 N 0.82512 0.34525 0.12048 0.0
N120 N 0.82676 0.34675 0.06593 0.0
C121 C 0.84736 0.351 0.05068 0.0
C122 C 0.85941 0.35237 0.09836 0.0
C123 C 0.8491 0.34874 0.20286 0.0
H124 H 0.8342 0.33311 0.22113 0.0
H125 H 0.86536 0.35006 0.21085 0.0
H126 H 0.85043 0.36304 0.22378 0.0
O127 O 0.79898 0.36829 0.14536 0.0
O128 O 0.80144 0.37059 0.05335 0.0
H129 H 0.85996 0.37275 0.98167 0.0
H130 H 0.8729 0.35793 0.98794 0.0
C131 C 0.85648 0.35653 0.99257 0.0
H132 H 0.84315 0.34343 0.96289 0.0
H133 H 0.83379 0.38714 0.95934 0.0
O134 O 0.80135 0.33871 0.23647 0.0
C135 C 0.79986 0.37773 0.10065 0.0
Co136 Co 0.40866 0.84394 0.12471 0.0
Co137 Co 0.40369 0.83967 0.99446 0.0
C138 C 0.44049 0.83901 0.05179 0.0
O139 O 0.43351 0.84131 0.09859 0.0
O140 O 0.43069 0.83817 0.00617 0.0
C141 C 0.42351 0.84531 0.23637 0.0
O142 O 0.43023 0.83349 0.21432 0.0
C143 C 0.4121 0.84677 0.87369 0.0
C144 C 0.37716 0.83577 0.84364 0.0
C145 C 0.39958 0.84449 0.82611 0.0
N146 N 0.39767 0.83978 0.9173 0.0
N147 N 0.37679 0.83307 0.89895 0.0
C148 C 0.43767 0.85711 0.87879 0.0
H149 H 0.44034 0.84371 0.87546 0.0
H150 H 0.44452 0.86576 0.9201 0.0
H151 H 0.4475 0.86917 0.84519 0.0
C152 C 0.41012 0.88403 0.10458 0.0
N153 N 0.40933 0.86622 0.08611 0.0
N154 N 0.40809 0.86506 0.03129 0.0
C155 C 0.40836 0.88238 0.01299 0.0
C156 C 0.40953 0.8949 0.05883 0.0
C157 C 0.40942 0.88921 0.16496 0.0
H158 H 0.39613 0.87358 0.18627 0.0
H159 H 0.42667 0.89611 0.1848 0.0
H160 H 0.40516 0.90142 0.17071 0.0
O161 O 0.37796 0.81476 0.11437 0.0
O162 O 0.37515 0.81178 0.02201 0.0
H163 H 0.39003 0.87527 0.9355 0.0
H164 H 0.41346 0.90449 0.94743 0.0
C165 C 0.40799 0.88714 0.95282 0.0
H166 H 0.41993 0.8848 0.92917 0.0
H167 H 0.3624 0.82702 0.92445 0.0
O168 O 0.41388 0.85161 0.20536 0.0
C169 C 0.36691 0.80394 0.06976 0.0
Co170 Co 0.63522 0.46399 0.16213 0.0
Co171 Co 0.63617 0.46602 0.03124 0.0
C172 C 0.67394 0.46869 0.09291 0.0
O173 O 0.66374 0.46662 0.13869 0.0
O174 O 0.6655 0.46914 0.0464 0.0
C175 C 0.65489 0.48369 0.27021 0.0
O176 O 0.67263 0.49927 0.24114 0.0
C177 C 0.64702 0.47648 0.9113 0.0
C178 C 0.61205 0.46432 0.87856 0.0
C179 C 0.63492 0.47422 0.86277 0.0
N180 N 0.63189 0.46829 0.95369 0.0
N181 N 0.61103 0.46094 0.93363 0.0
C182 C 0.67264 0.48737 0.91821 0.0
H183 H 0.6758 0.47429 0.91593 0.0
H184 H 0.67886 0.49602 0.95969 0.0
H185 H 0.68265 0.49954 0.88495 0.0
C186 C 0.62958 0.50063 0.14898 0.0
N187 N 0.63352 0.48597 0.12829 0.0
N188 N 0.63511 0.48749 0.07366 0.0
C189 C 0.63289 0.5036 0.05807 0.0
C190 C 0.62902 0.51228 0.10507 0.0
C191 C 0.6239 0.50164 0.20858 0.0
H192 H 0.61421 0.48475 0.22645 0.0
H193 H 0.64041 0.51287 0.23284 0.0
H194 H 0.61331 0.50828 0.21256 0.0
O195 O 0.60724 0.43373 0.14162 0.0
O196 O 0.60928 0.43529 0.0494 0.0
H197 H 0.61744 0.49872 0.97742 0.0
H198 H 0.63855 0.52766 -0.00204 0.0
C199 C 0.63443 0.51065 -0.00078 0.0
H200 H 0.64819 0.51062 0.97705 0.0
H201 H 0.59609 0.45375 0.9578 0.0
O202 O 0.63687 0.46734 0.24468 0.0
C203 C 0.59937 0.4246 0.09347 0.0
C204 C 0.06957 0.47091 0.12655 0.0
C205 C 0.08239 0.46662 0.09106 0.0
C206 C 0.04537 0.45564 0.12941 0.0
C207 C 0.99398 0.40977 0.05056 0.0
H208 H 0.9638 0.39977 0.19312 0.0
C209 C 0.89343 0.35175 0.07267 0.0
C210 C 0.88439 0.36154 0.10292 0.0
C211 C 0.91746 0.36172 0.07369 0.0
C212 C 0.97199 0.40241 0.15303 0.0
H213 H 0.08023 0.44317 0.0307 0.0
H214 H 0.03766 0.41623 0.0356 0.0
H215 H 0.00633 0.42264 0.18946 0.0
H216 H 0.89297 0.38898 0.15868 0.0
H217 H 0.93483 0.40625 0.16121 0.0
H218 H 0.95955 0.3898 0.01413 0.0
C219 C 0.04632 0.43149 0.06096 0.0
C220 C 0.99633 0.41554 0.15088 0.0
C221 C 0.07061 0.44684 0.05813 0.0
C222 C 0.89955 0.38099 0.13555 0.0
C223 C 0.92347 0.39084 0.13699 0.0
C224 C 0.96959 0.39654 0.05275 0.0
C225 C 0.03344 0.43571 0.0968 0.0
C226 C 0.00761 0.41982 0.09949 0.0
C227 C 0.93274 0.38149 0.1055 0.0
C228 C 0.95838 0.39316 0.10388 0.0
H229 H 0.07826 0.48626 0.15164 0.0
H230 H 0.03595 0.45966 0.15648 0.0
H231 H 0.00213 0.41289 0.01028 0.0
H232 H 0.88195 0.33662 0.0476 0.0
H233 H 0.92411 0.35406 0.04941 0.0
C234 C 0.42527 0.93385 0.09029 0.0
C235 C 0.40869 0.91444 0.0592 0.0
C236 C 0.42414 0.95214 0.0921 0.0
C237 C 0.40056 0.97808 0.01676 0.0
H238 H 0.4147 0.0115 0.15655 0.0
C239 C 0.40054 0.05673 0.0393 0.0
C240 C 0.42073 0.07509 0.06578 0.0
C241 C 0.39575 0.03542 0.04061 0.0
C242 C 0.41071 0.00233 0.11722 0.0
H243 H 0.37792 0.89867 0.00574 0.0
H244 H 0.37588 0.93071 0.00873 0.0
H245 H 0.41296 0.97748 0.15395 0.0
H246 H 0.45181 0.08583 0.11389 0.0
H247 H 0.44334 0.04878 0.11707 0.0
H248 H 0.39871 0.00326 0.97997 0.0
C249 C 0.38989 0.93191 0.03128 0.0
C250 C 0.40981 0.98291 0.11567 0.0
C251 C 0.39105 0.91361 0.02952 0.0
C252 C 0.43586 0.07183 0.09416 0.0
C253 C 0.431 0.05062 0.09594 0.0
C254 C 0.40141 0.99753 0.01836 0.0
C255 C 0.40636 0.95134 0.06288 0.0
C256 C 0.40526 0.97084 0.06519 0.0
C257 C 0.41102 0.03222 0.06886 0.0
C258 C 0.40702 0.01011 0.06838 0.0
H259 H 0.43916 0.9349 0.11303 0.0
H260 H 0.43736 0.96701 0.11593 0.0
H261 H 0.39715 0.96924 0.97716 0.0
H262 H 0.38867 0.05895 0.01715 0.0
H263 H 0.38018 0.02149 0.01953 0.0
C264 C 0.60305 0.52221 0.07076 0.0
C265 C 0.6214 0.52713 0.10613 0.0
C266 C 0.59587 0.53623 0.07018 0.0
C267 C 0.59644 0.57929 0.15248 0.0
H268 H 0.57884 0.58958 0.00973 0.0
C269 C 0.56416 0.63542 0.12528 0.0
C270 C 0.54357 0.62533 0.09305 0.0
C271 C 0.57609 0.62556 0.12762 0.0
C272 C 0.58367 0.58682 0.04988 0.0
H273 H 0.6464 0.55013 0.16957 0.0
H274 H 0.63392 0.57503 0.16845 0.0
H275 H 0.59563 0.56866 0.01291 0.0
H276 H 0.51905 0.59709 0.03869 0.0
H277 H 0.54005 0.58006 0.04178 0.0
H278 H 0.58425 0.59744 0.18925 0.0
C279 C 0.62504 0.56025 0.14127 0.0
C280 C 0.59322 0.5748 0.05177 0.0
C281 C 0.63221 0.5461 0.14189 0.0
C282 C 0.53511 0.60534 0.06309 0.0
C283 C 0.54712 0.59563 0.0649 0.0
C284 C 0.587 0.59148 0.15053 0.0
C285 C 0.60692 0.55554 0.10495 0.0
C286 C 0.59917 0.5704 0.10314 0.0
C287 C 0.56771 0.60562 0.09719 0.0
C288 C 0.58002 0.59489 0.09927 0.0
H289 H 0.59408 0.50736 0.04377 0.0
H290 H 0.58143 0.53177 0.04284 0.0
H291 H 0.60073 0.57607 0.19271 0.0
H292 H 0.57099 0.65092 0.14853 0.0
H293 H 0.59197 0.63363 0.15262 0.0
C294 C 0.16239 0.50413 0.39689 0.0
C295 C 0.16554 0.5239 0.38026 0.0
C296 C 0.161 0.49934 0.45356 0.0
C297 C 0.14456 0.51102 0.58675 0.0
H298 H 0.18376 0.49681 0.65676 0.0
C299 C 0.16085 0.52053 0.82237 0.0
C300 C 0.16303 0.50524 0.85009 0.0
C301 C 0.15901 0.51976 0.76439 0.0
C302 C 0.17236 0.50032 0.63769 0.0
H303 H 0.16964 0.55406 0.40997 0.0
H304 H 0.16688 0.54555 0.50829 0.0
H305 H 0.18491 0.50106 0.55562 0.0
H306 H 0.16457 0.47684 0.83864 0.0
H307 H 0.16102 0.4753 0.73688 0.0
H308 H 0.13201 0.5104 0.6682 0.0
C309 C 0.16556 0.53381 0.47765 0.0
C310 C 0.17309 0.50282 0.57988 0.0
C311 C 0.16722 0.5387 0.42135 0.0
C312 C 0.16297 0.4889 0.81848 0.0
C313 C 0.16106 0.48809 0.76021 0.0
C314 C 0.14367 0.50834 0.64425 0.0
C315 C 0.16223 0.51401 0.49431 0.0
C316 C 0.15965 0.50878 0.55421 0.0
C317 C 0.15915 0.50359 0.73253 0.0
C318 C 0.15803 0.50358 0.67066 0.0
H319 H 0.16015 0.49195 0.36639 0.0
H320 H 0.15819 0.48385 0.46544 0.0
H321 H 0.13369 0.51519 0.56776 0.0
H322 H 0.16092 0.53339 0.84536 0.0
H323 H 0.15803 0.53224 0.74448 0.0
C324 C 0.45555 0.14916 0.31578 0.0
C325 C 0.46163 0.16948 0.29432 0.0
C326 C 0.45247 0.14549 0.37288 0.0
C327 C 0.44237 0.16495 0.50529 0.0
H328 H 0.47258 0.14003 0.56998 0.0
C329 C 0.45903 0.16599 0.74282 0.0
C330 C 0.45784 0.14769 0.76357 0.0
C331 C 0.45616 0.16725 0.68564 0.0
C332 C 0.46367 0.14663 0.55258 0.0
H333 H 0.46854 0.20163 0.31581 0.0
H334 H 0.46338 0.19526 0.41593 0.0
H335 H 0.47398 0.14499 0.47001 0.0
H336 H 0.45157 0.1159 0.74183 0.0
H337 H 0.44597 0.11776 0.64244 0.0
H338 H 0.43228 0.16677 0.58841 0.0
C339 C 0.46083 0.18213 0.38836 0.0
C340 C 0.46453 0.14952 0.49522 0.0
C341 C 0.46394 0.18582 0.33108 0.0
C342 C 0.45269 0.13024 0.72675 0.0
C343 C 0.44963 0.13139 0.66985 0.0
C344 C 0.44145 0.16199 0.56292 0.0
C345 C 0.4554 0.16205 0.40989 0.0
C346 C 0.45391 0.1587 0.47089 0.0
C347 C 0.45203 0.15022 0.64839 0.0
C348 C 0.4521 0.15279 0.58716 0.0
H349 H 0.45342 0.13612 0.28858 0.0
H350 H 0.44791 0.1297 0.38814 0.0
H351 H 0.43388 0.17192 0.48759 0.0
H352 H 0.46349 0.17991 0.77013 0.0
H353 H 0.45836 0.18209 0.67037 0.0
C354 C 0.49561 0.64834 0.82129 0.0
C355 C 0.51273 0.66765 0.85215 0.0
C356 C 0.49665 0.64757 0.76333 0.0
C357 C 0.52157 0.68385 0.64156 0.0
H358 H 0.49855 0.62736 0.56534 0.0
C359 C 0.51615 0.66844 0.39878 0.0
C360 C 0.4935 0.65089 0.38014 0.0
C361 C 0.52162 0.67243 0.45596 0.0
C362 C 0.50512 0.64326 0.58616 0.0
H363 H 0.54468 0.70118 0.84642 0.0
H364 H 0.54677 0.69966 0.74485 0.0
H365 H 0.50335 0.63051 0.66649 0.0
H366 H 0.4589 0.62388 0.40722 0.0
H367 H 0.46868 0.63053 0.50622 0.0
H368 H 0.52329 0.69644 0.56038 0.0
C369 C 0.5323 0.68525 0.76556 0.0
C370 C 0.50774 0.64506 0.64405 0.0
C371 C 0.53117 0.68608 0.82376 0.0
C372 C 0.47654 0.63751 0.41992 0.0
C373 C 0.48209 0.64126 0.47666 0.0
C374 C 0.51924 0.68211 0.58334 0.0
C375 C 0.51497 0.666 0.73465 0.0
C376 C 0.51529 0.66516 0.67267 0.0
C377 C 0.5047 0.6586 0.49518 0.0
C378 C 0.51035 0.6616 0.55546 0.0
H379 H 0.48109 0.63389 0.84178 0.0
H380 H 0.4827 0.63264 0.74095 0.0
H381 H 0.52728 0.69953 0.66222 0.0
H382 H 0.52993 0.67858 0.36965 0.0
H383 H 0.53924 0.6858 0.46948 0.0
C384 C 0.83127 0.35452 0.76486 0.0
C385 C 0.81178 0.34354 0.79949 0.0
C386 C 0.82861 0.34994 0.70756 0.0
C387 C 0.78706 0.31096 0.59591 0.0
H388 H 0.82287 0.36394 0.50673 0.0
C389 C 0.76747 0.31357 0.36232 0.0
C390 C 0.78684 0.32601 0.32748 0.0
C391 C 0.77067 0.31367 0.41989 0.0
C392 C 0.81297 0.34894 0.53095 0.0
H393 H 0.77422 0.31902 0.80175 0.0
H394 H 0.76944 0.31116 0.70129 0.0
H395 H 0.82829 0.36746 0.60736 0.0
H396 H 0.82476 0.34766 0.32547 0.0
H397 H 0.83026 0.34778 0.42567 0.0
H398 H 0.77134 0.29259 0.51888 0.0
C399 C 0.78689 0.3229 0.71855 0.0
C400 C 0.81612 0.35093 0.58868 0.0
C401 C 0.78961 0.32736 0.77611 0.0
C402 C 0.80945 0.33805 0.35116 0.0
C403 C 0.81262 0.33819 0.40859 0.0
C404 C 0.78382 0.30898 0.53794 0.0
C405 C 0.80631 0.33455 0.68349 0.0
C406 C 0.80325 0.33198 0.6219 0.0
C407 C 0.79329 0.32627 0.44364 0.0
C408 C 0.79679 0.32798 0.50494 0.0
H409 H 0.84857 0.36701 0.78202 0.0
H410 H 0.844 0.35884 0.68191 0.0
H411 H 0.77701 0.29602 0.6203 0.0
H412 H 0.74983 0.30407 0.3453 0.0
H413 H 0.75545 0.30446 0.44599 0.0
C414 C 0.41719 0.86145 0.32113 0.0
C415 C 0.42585 0.85013 0.29712 0.0
C416 C 0.41776 0.86451 0.3789 0.0
C417 C 0.44418 0.86349 0.51066 0.0
H418 H 0.38542 0.84652 0.57322 0.0
C419 C 0.42164 0.84455 0.74415 0.0
C420 C 0.40749 0.85015 0.76814 0.0
C421 C 0.42672 0.84768 0.68732 0.0
C422 C 0.40213 0.85175 0.55659 0.0
H423 H 0.44285 0.83404 0.31473 0.0
H424 H 0.44369 0.83929 0.41577 0.0
H425 H 0.38945 0.84672 0.47271 0.0
H426 H 0.3884 0.86425 0.75272 0.0
H427 H 0.39774 0.87032 0.65412 0.0
H428 H 0.45677 0.86833 0.59491 0.0
C429 C 0.43656 0.84587 0.38981 0.0
C430 C 0.4044 0.85181 0.49888 0.0
C431 C 0.43593 0.84273 0.33196 0.0
C432 C 0.39922 0.85966 0.73503 0.0
C433 C 0.40448 0.86301 0.67853 0.0
C434 C 0.44195 0.86355 0.56863 0.0
C435 C 0.42706 0.85639 0.41388 0.0
C436 C 0.42538 0.85756 0.47527 0.0
C437 C 0.41777 0.85653 0.65364 0.0
C438 C 0.42083 0.85756 0.59223 0.0
H439 H 0.4095 0.86754 0.29542 0.0
H440 H 0.41061 0.87297 0.3963 0.0
H441 H 0.46062 0.86814 0.49352 0.0
H442 H 0.42785 0.83678 0.76859 0.0
H443 H 0.43675 0.84224 0.66936 0.0
C444 C 0.63894 0.46641 0.36277 0.0
C445 C 0.65601 0.48486 0.33196 0.0
C446 C 0.64019 0.46725 0.421 0.0
C447 C 0.66325 0.50603 0.5417 0.0
H448 H 0.65077 0.45487 0.62099 0.0
C449 C 0.63429 0.48866 0.77051 0.0
C450 C 0.64328 0.48013 0.80499 0.0
C451 C 0.6398 0.49196 0.71405 0.0
C452 C 0.6546 0.46941 0.59951 0.0
H453 H 0.68766 0.51876 0.33823 0.0
H454 H 0.68964 0.52029 0.44021 0.0
H455 H 0.6525 0.45489 0.51927 0.0
H456 H 0.66507 0.46832 0.80753 0.0
H457 H 0.67475 0.47409 0.70847 0.0
H458 H 0.66483 0.52033 0.62195 0.0
C459 C 0.67536 0.50517 0.4191 0.0
C460 C 0.65534 0.46931 0.54127 0.0
C461 C 0.67425 0.50425 0.36074 0.0
C462 C 0.65829 0.47536 0.7822 0.0
C463 C 0.6636 0.47842 0.72541 0.0
C464 C 0.66229 0.50603 0.59995 0.0
C465 C 0.6584 0.48662 0.44981 0.0
C466 C 0.65933 0.48748 0.51172 0.0
C467 C 0.65414 0.48646 0.69062 0.0
C468 C 0.65764 0.48759 0.62942 0.0
H469 H 0.62466 0.45121 0.34193 0.0
H470 H 0.62669 0.4528 0.44356 0.0
H471 H 0.66627 0.52022 0.52003 0.0
H472 H 0.62258 0.49237 0.78701 0.0
H473 H 0.632 0.49791 0.68823 0.0
C474 C 0.23935 0.52704 0.13315 0.0
C475 C 0.22556 0.52217 0.08507 0.0
C476 C 0.26124 0.531 0.129 0.0
C477 C 0.30787 0.55314 0.0277 0.0
H478 H 0.33793 0.54069 0.14033 0.0
C479 C 0.40654 0.59387 0.02141 0.0
C480 C 0.41855 0.60318 0.0726 0.0
C481 C 0.38214 0.57905 0.0196 0.0
C482 C 0.32979 0.54434 0.10856 0.0
H483 H 0.22298 0.5155 0.99568 0.0
H484 H 0.261 0.52219 0.9887 0.0
H485 H 0.29585 0.52252 0.1439 0.0
H486 H 0.41431 0.60346 0.16226 0.0
H487 H 0.37197 0.57817 0.15893 0.0
H488 H 0.34175 0.57565 0.99367 0.0
C489 C 0.25514 0.52347 0.02938 0.0
C490 C 0.30569 0.53389 0.11058 0.0
C491 C 0.2333 0.51955 0.03348 0.0
C492 C 0.40566 0.59669 0.12203 0.0
C493 C 0.38132 0.58198 0.12019 0.0
C494 C 0.33192 0.56362 0.0258 0.0
C495 C 0.26973 0.53009 0.07673 0.0
C496 C 0.29456 0.53855 0.07082 0.0
C497 C 0.36922 0.57327 0.06892 0.0
C498 C 0.34327 0.55976 0.06692 0.0
H499 H 0.2339 0.52913 0.17357 0.0
H500 H 0.27209 0.53617 0.16627 0.0
H501 H 0.29993 0.55741 0.99693 0.0
H502 H 0.41593 0.59834 0.98259 0.0
H503 H 0.37337 0.57239 0.97947 0.0
C504 C 0.54929 0.18529 0.01225 0.0
C505 C 0.53803 0.18272 0.06295 0.0
C506 C 0.57314 0.19479 0.01147 0.0
C507 C 0.62374 0.20938 0.09805 0.0
H508 H 0.6591 0.25657 0.99201 0.0
C509 C 0.72273 0.27748 0.12056 0.0
C510 C 0.73605 0.28719 0.07243 0.0
C511 C 0.69867 0.26111 0.11641 0.0
C512 C 0.64953 0.24312 0.02108 0.0
H513 H 0.54293 0.18736 0.15281 0.0
H514 H 0.58476 0.20412 0.15131 0.0
H515 H 0.61674 0.23485 0.99127 0.0
H516 H 0.73471 0.28599 0.98194 0.0
H517 H 0.69273 0.257 0.97465 0.0
H518 H 0.65664 0.21788 0.12832 0.0
C519 C 0.57499 0.19864 0.11223 0.0
C520 C 0.62521 0.23072 0.02078 0.0
C521 C 0.55106 0.18915 0.11305 0.0
C522 C 0.72496 0.27905 0.01988 0.0
C523 C 0.70085 0.26254 0.01573 0.0
C524 C 0.64813 0.22171 0.09812 0.0
C525 C 0.58634 0.20192 0.06131 0.0
C526 C 0.61206 0.21393 0.05973 0.0
C527 C 0.68731 0.25388 0.064 0.0
C528 C 0.66134 0.23898 0.06018 0.0
H529 H 0.5398 0.18033 0.97283 0.0
H530 H 0.58133 0.1968 0.97166 0.0
H531 H 0.61403 0.19634 0.12808 0.0
H532 H 0.73067 0.28324 0.16177 0.0
H533 H 0.68884 0.255 0.15451 0.0
C534 C 0.50655 0.72495 0.13508 0.0
C535 C 0.50288 0.71249 0.08588 0.0
C536 C 0.508 0.74469 0.13318 0.0
C537 C 0.51153 0.78552 0.03505 0.0
H538 H 0.47463 0.78927 0.14804 0.0
C539 C 0.46095 0.82422 0.00522 0.0
C540 C 0.45823 0.83432 0.05197 0.0
C541 C 0.47367 0.81521 0.00985 0.0
C542 C 0.48541 0.78882 0.11672 0.0
H543 H 0.49906 0.71166 0.99578 0.0
H544 H 0.50074 0.74537 0.99274 0.0
H545 H 0.48352 0.76231 0.15689 0.0
H546 H 0.46892 0.84514 0.13837 0.0
H547 H 0.49109 0.82953 0.14614 0.0
H548 H 0.51207 0.81128 0.99335 0.0
C549 C 0.50301 0.74032 0.03277 0.0
C550 C 0.49059 0.77334 0.12188 0.0
C551 C 0.50182 0.72077 0.0346 0.0
C552 C 0.47029 0.83709 0.1018 0.0
C553 C 0.48297 0.82812 0.10637 0.0
C554 C 0.50612 0.80089 0.0296 0.0
C555 C 0.50555 0.75227 0.08212 0.0
C556 C 0.50325 0.77109 0.08048 0.0
C557 C 0.48391 0.81621 0.06123 0.0
C558 C 0.4926 0.80236 0.06988 0.0
H559 H 0.50773 0.71918 0.17521 0.0
H560 H 0.51045 0.75371 0.17194 0.0
H561 H 0.5217 0.78456 0.00289 0.0
H562 H 0.45197 0.82191 0.96617 0.0
H563 H 0.47405 0.80609 0.97433 0.0
C564 C 0.79957 0.4075 0.05366 0.0
C565 C 0.79684 0.396 0.10243 0.0
C566 C 0.79313 0.42215 0.05234 0.0
C567 C 0.77526 0.45209 0.13871 0.0
H568 H 0.73375 0.43774 0.01283 0.0
C569 C 0.70228 0.46472 0.14361 0.0
C570 C 0.69496 0.46874 0.09378 0.0
C571 C 0.72007 0.46173 0.14345 0.0
C572 C 0.74571 0.44246 0.04762 0.0
H573 H 0.78682 0.39213 0.18923 0.0
H574 H 0.77529 0.41751 0.18668 0.0
H575 H 0.75588 0.42214 0.01554 0.0
H576 H 0.70183 0.47446 0.0054 0.0
H577 H 0.73322 0.46967 0.00533 0.0
H578 H 0.76448 0.47196 0.17146 0.0
C579 C 0.78256 0.4153 0.14957 0.0
C580 C 0.75841 0.43344 0.04923 0.0
C581 C 0.78907 0.40066 0.15095 0.0
C582 C 0.70684 0.4711 0.04439 0.0
C583 C 0.72477 0.46826 0.04431 0.0
C584 C 0.76262 0.46124 0.13698 0.0
C585 C 0.78378 0.42559 0.09968 0.0
C586 C 0.77292 0.43773 0.09533 0.0
C587 C 0.7311 0.46284 0.09353 0.0
C588 C 0.74724 0.45607 0.09201 0.0
H589 H 0.80584 0.40457 0.01572 0.0
H590 H 0.79469 0.43017 0.0136 0.0
H591 H 0.78653 0.45591 0.17447 0.0
H592 H 0.6936 0.46289 0.18252 0.0
H593 H 0.72427 0.45736 0.18203 0.0
C594 C 0.20937 0.60647 0.03068 0.0
C595 C 0.20165 0.59475 0.08067 0.0
C596 C 0.22353 0.62988 0.03173 0.0
C597 C 0.26618 0.6768 0.12424 0.0
H598 H 0.26436 0.71309 0.01287 0.0
C599 C 0.33489 0.77222 0.12517 0.0
C600 C 0.34457 0.78139 0.07318 0.0
C601 C 0.31473 0.75033 0.12832 0.0
C602 C 0.26514 0.70316 0.04412 0.0
H603 H 0.20145 0.59845 0.17073 0.0
H604 H 0.22592 0.63919 0.17236 0.0
H605 H 0.23334 0.67293 0.01403 0.0
H606 H 0.34011 0.77495 0.98361 0.0
H607 H 0.30529 0.73672 0.98924 0.0
H608 H 0.29824 0.70671 0.1534 0.0
C609 C 0.22142 0.63029 0.13246 0.0
C610 C 0.24737 0.68018 0.0448 0.0
C611 C 0.2073 0.60693 0.13145 0.0
C612 C 0.33317 0.76842 0.02439 0.0
C613 C 0.31307 0.74652 0.02757 0.0
C614 C 0.28393 0.6997 0.12349 0.0
C615 C 0.23024 0.64203 0.08276 0.0
C616 C 0.24785 0.66671 0.08449 0.0
C617 C 0.30382 0.73709 0.0796 0.0
C618 C 0.28381 0.71312 0.083 0.0
H619 H 0.20531 0.59763 0.99083 0.0
H620 H 0.23015 0.63843 0.99272 0.0
H621 H 0.26732 0.66684 0.15474 0.0
H622 H 0.3431 0.7818 0.16357 0.0
H623 H 0.30784 0.74368 0.16903 0.0
C624 C 0.47695 0.22714 -0.00037 0.0
C625 C 0.46796 0.21351 0.0464 0.0
C626 C 0.48426 0.24935 0.00368 0.0
C627 C 0.50907 0.29333 0.11152 0.0
H628 H 0.50995 0.32921 0.99448 0.0
C629 C 0.56592 0.38917 0.13525 0.0
C630 C 0.57889 0.40088 0.08824 0.0
C631 C 0.54759 0.36639 0.1306 0.0
C632 C 0.50992 0.31942 0.02751 0.0
H633 H 0.45691 0.21156 0.13182 0.0
H634 H 0.46932 0.25009 0.1385 0.0
H635 H 0.48495 0.28838 0.98387 0.0
H636 H 0.58221 0.39796 -0.00095 0.0
H637 H 0.55085 0.35823 0.99133 0.0
H638 H 0.53475 0.32408 0.15408 0.0
C639 C 0.47137 0.24387 0.09927 0.0
C640 C 0.49554 0.29605 0.02147 0.0
C641 C 0.46418 0.22177 0.09533 0.0
C642 C 0.57261 0.38946 0.03618 0.0
C643 C 0.55444 0.36666 0.03163 0.0
C644 C 0.52351 0.31661 0.1174 0.0
C645 C 0.48257 0.25822 0.05445 0.0
C646 C 0.49526 0.28278 0.06306 0.0
C647 C 0.54195 0.35473 0.07894 0.0
C648 C 0.52447 0.32999 0.07506 0.0
H649 H 0.48003 0.22126 0.96126 0.0
H650 H 0.49284 0.25998 0.96837 0.0
H651 H 0.50965 0.28365 0.14389 0.0
H652 H 0.57011 0.39751 0.17586 0.0
H653 H 0.53806 0.35782 0.16773 0.0
loop_
_geom_bond_atom_site_label_1
_geom_bond_atom_site_label_2
_geom_bond_distance
_geom_bond_site_symmetry_2
_ccdc_geom_bond_type
Co0 O3 1.970 . S
Co0 N17 1.989 . S
Co0 O25 1.967 . S
Co0 O32 1.920 1_554 S
Co1 O4 1.966 . S
Co1 N10 2.022 . S
Co1 N18 1.993 . S
Co1 O26 1.941 . S
C2 O3 1.258 . S
C2 O4 1.263 . S
O3 Co0 1.970 . S
O3 C2 1.258 . S
O4 Co1 1.966 . S
O4 C2 1.263 . S
C5 O6 1.235 . S
C5 O32 1.289 . S
O6 C5 1.235 . S
C7 C9 1.400 . S
C7 N10 1.351 . S
C7 C12 1.501 . S
C8 C9 1.387 . S
C8 N11 1.341 . S
C9 C7 1.400 . S
C9 C8 1.387 . S
N10 Co1 2.022 . S
N10 C7 1.351 . S
N10 N11 1.365 . S
N11 C8 1.341 . S
N11 N10 1.365 . S
N11 H31 0.862 . S
C12 C7 1.501 . S
C12 H13 0.961 . S
C12 H14 0.961 . S
C12 H15 0.960 . S
H13 C12 0.961 . S
H14 C12 0.961 . S
H15 C12 0.960 . S
C16 N17 1.342 . S
C16 C20 1.401 . S
C16 C21 1.499 1_554 S
N17 Co0 1.989 . S
N17 C16 1.342 . S
N17 N18 1.388 . S
N18 Co1 1.993 . S
N18 N17 1.388 . S
N18 C19 1.346 . S
C19 N18 1.346 . S
C19 C20 1.396 . S
C19 C29 1.510 . S
C20 C16 1.401 . S
C20 C19 1.396 . S
C21 C16 1.499 1_556 S
C21 H22 0.959 . S
C21 H23 0.960 . S
C21 H24 0.961 . S
H22 C21 0.959 . S
H23 C21 0.960 . S
H24 C21 0.961 . S
O25 Co0 1.967 . S
O25 C33 1.258 . S
O26 Co1 1.941 . S
O26 C33 1.266 . S
H27 C29 0.959 . S
H28 C29 0.961 . S
C29 C19 1.510 . S
C29 H27 0.959 . S
C29 H28 0.961 . S
C29 H30 0.960 . S
H30 C29 0.960 . S
H31 N11 0.862 . S
O32 Co0 1.920 1_556 S
O32 C5 1.289 . S
C33 O25 1.258 . S
C33 O26 1.266 . S
Co34 O37 1.970 . S
Co34 N51 1.989 . S
Co34 O59 1.967 . S
Co34 O66 1.920 . S
Co35 O38 1.966 . S
Co35 N44 2.022 1_554 S
Co35 N52 1.993 . S
Co35 O60 1.941 . S
C36 O37 1.258 . S
C36 O38 1.263 . S
O37 Co34 1.970 . S
O37 C36 1.258 . S
O38 Co35 1.966 . S
O38 C36 1.263 . S
C39 O40 1.235 . S
C39 O66 1.289 . S
O40 C39 1.235 . S
C41 C43 1.400 . S
C41 N44 1.351 . S
C41 C46 1.501 . S
C42 C43 1.387 . S
C42 N45 1.341 . S
C43 C41 1.400 . S
C43 C42 1.387 . S
N44 Co35 2.022 1_556 S
N44 C41 1.351 . S
N44 N45 1.365 . S
N45 C42 1.341 . S
N45 N44 1.365 . S
N45 H65 0.862 . S
C46 C41 1.501 . S
C46 H47 0.961 . S
C46 H48 0.961 . S
C46 H49 0.960 . S
H47 C46 0.961 . S
H48 C46 0.961 . S
H49 C46 0.960 . S
C50 N51 1.342 . S
C50 C54 1.401 . S
C50 C55 1.499 . S
N51 Co34 1.989 . S
N51 C50 1.342 . S
N51 N52 1.388 . S
N52 Co35 1.993 . S
N52 N51 1.388 . S
N52 C53 1.346 . S
C53 N52 1.346 . S
C53 C54 1.396 . S
C53 C63 1.510 1_554 S
C54 C50 1.401 . S
C54 C53 1.396 . S
C55 C50 1.499 . S
C55 H56 0.959 . S
C55 H57 0.960 . S
C55 H58 0.961 . S
H56 C55 0.959 . S
H57 C55 0.960 . S
H58 C55 0.961 . S
O59 Co34 1.967 . S
O59 C67 1.258 . S
O60 Co35 1.941 . S
O60 C67 1.266 . S
H61 C63 0.959 . S
H62 C63 0.961 . S
C63 C53 1.510 1_556 S
C63 H61 0.959 . S
C63 H62 0.961 . S
C63 H64 0.960 . S
H64 C63 0.960 . S
H65 N45 0.862 . S
O66 Co34 1.920 . S
O66 C39 1.289 . S
C67 O59 1.258 . S
C67 O60 1.266 . S
Co68 O71 1.970 . S
Co68 N85 1.989 . S
Co68 O93 1.967 . S
Co68 O100 1.920 1_554 S
Co69 O72 1.966 . S
Co69 N78 2.022 . S
Co69 N86 1.993 . S
Co69 O94 1.941 . S
C70 O71 1.258 . S
C70 O72 1.263 . S
O71 Co68 1.970 . S
O71 C70 1.258 . S
O72 Co69 1.966 . S
O72 C70 1.263 . S
C73 O74 1.235 . S
C73 O100 1.289 . S
O74 C73 1.235 . S
C75 C77 1.400 . S
C75 N78 1.351 . S
C75 C80 1.501 . S
C76 C77 1.387 . S
C76 N79 1.341 . S
C77 C75 1.400 . S
C77 C76 1.387 . S
N78 Co69 2.022 . S
N78 C75 1.351 . S
N78 N79 1.365 . S
N79 C76 1.341 . S
N79 N78 1.365 . S
N79 H99 0.862 . S
C80 C75 1.501 . S
C80 H81 0.961 . S
C80 H82 0.961 . S
C80 H83 0.960 . S
H81 C80 0.961 . S
H82 C80 0.961 . S
H83 C80 0.960 . S
C84 N85 1.342 . S
C84 C88 1.401 . S
C84 C89 1.499 1_554 S
N85 Co68 1.989 . S
N85 C84 1.342 . S
N85 N86 1.388 . S
N86 Co69 1.993 . S
N86 N85 1.388 . S
N86 C87 1.346 . S
C87 N86 1.346 . S
C87 C88 1.396 . S
C87 C97 1.510 . S
C88 C84 1.401 . S
C88 C87 1.396 . S
C89 C84 1.499 1_556 S
C89 H90 0.959 . S
C89 H91 0.960 . S
C89 H92 0.961 . S
H90 C89 0.959 . S
H91 C89 0.960 . S
H92 C89 0.961 . S
O93 Co68 1.967 . S
O93 C101 1.258 . S
O94 Co69 1.941 . S
O94 C101 1.266 . S
H95 C97 0.959 . S
H96 C97 0.961 . S
C97 C87 1.510 . S
C97 H95 0.959 . S
C97 H96 0.961 . S
C97 H98 0.960 . S
H98 C97 0.960 . S
H99 N79 0.862 . S
O100 Co68 1.920 1_556 S
O100 C73 1.289 . S
C101 O93 1.258 . S
C101 O94 1.266 . S
Co102 O105 1.970 . S
Co102 N119 1.989 . S
Co102 O127 1.967 . S
Co102 O134 1.920 . S
Co103 O106 1.966 . S
Co103 N112 2.022 1_554 S
Co103 N120 1.993 . S
Co103 O128 1.941 . S
C104 O105 1.258 . S
C104 O106 1.263 . S
O105 Co102 1.970 . S
O105 C104 1.258 . S
O106 Co103 1.966 . S
O106 C104 1.263 . S
C107 O108 1.235 . S
C107 O134 1.289 . S
O108 C107 1.235 . S
C109 C111 1.400 . S
C109 N112 1.351 . S
C109 C114 1.501 . S
C110 C111 1.387 . S
C110 N113 1.341 . S
C111 C109 1.400 . S
C111 C110 1.387 . S
N112 Co103 2.022 1_556 S
N112 C109 1.351 . S
N112 N113 1.365 . S
N113 C110 1.341 . S
N113 N112 1.365 . S
N113 H133 0.862 . S
C114 C109 1.501 . S
C114 H115 0.961 . S
C114 H116 0.961 . S
C114 H117 0.960 . S
H115 C114 0.961 . S
H116 C114 0.961 . S
H117 C114 0.960 . S
C118 N119 1.342 . S
C118 C122 1.401 . S
C118 C123 1.499 . S
N119 Co102 1.989 . S
N119 C118 1.342 . S
N119 N120 1.388 . S
N120 Co103 1.993 . S
N120 N119 1.388 . S
N120 C121 1.346 . S
C121 N120 1.346 . S
C121 C122 1.396 . S
C121 C131 1.510 1_554 S
C122 C118 1.401 . S
C122 C121 1.396 . S
C123 C118 1.499 . S
C123 H124 0.959 . S
C123 H125 0.960 . S
C123 H126 0.961 . S
H124 C123 0.959 . S
H125 C123 0.960 . S
H126 C123 0.961 . S
O127 Co102 1.967 . S
O127 C135 1.258 . S
O128 Co103 1.941 . S
O128 C135 1.266 . S
H129 C131 0.959 . S
H130 C131 0.961 . S
C131 C121 1.510 1_556 S
C131 H129 0.959 . S
C131 H130 0.961 . S
C131 H132 0.960 . S
H132 C131 0.960 . S
H133 N113 0.862 . S
O134 Co102 1.920 . S
O134 C107 1.289 . S
C135 O127 1.258 . S
C135 O128 1.266 . S
Co136 O139 1.970 . S
Co136 N153 1.989 . S
Co136 O161 1.967 . S
Co136 O168 1.920 . S
Co137 O140 1.965 1_556 S
Co137 N146 2.022 . S
Co137 N154 1.993 1_556 S
Co137 O162 1.941 . S
C138 O139 1.258 . S
C138 O140 1.267 . S
O139 Co136 1.970 . S
O139 C138 1.258 . S
O140 Co137 1.965 1_554 S
O140 C138 1.267 . S
C141 O142 1.235 . S
C141 O168 1.289 . S
O142 C141 1.235 . S
C143 C145 1.400 . S
C143 N146 1.351 . S
C143 C148 1.501 . S
C144 C145 1.387 . S
C144 N147 1.341 . S
C145 C143 1.400 . S
C145 C144 1.387 . S
N146 Co137 2.022 . S
N146 C143 1.351 . S
N146 N147 1.365 . S
N147 C144 1.341 . S
N147 N146 1.365 . S
N147 H167 0.862 . S
C148 C143 1.501 . S
C148 H149 0.961 . S
C148 H150 0.961 . S
C148 H151 0.960 . S
H149 C148 0.961 . S
H150 C148 0.961 . S
H151 C148 0.960 . S
C152 N153 1.342 . S
C152 C156 1.401 . S
C152 C157 1.499 . S
N153 Co136 1.989 . S
N153 C152 1.342 . S
N153 N154 1.388 . S
N154 Co137 1.993 1_554 S
N154 N153 1.388 . S
N154 C155 1.346 1_554 S
C155 N154 1.346 1_556 S
C155 C156 1.396 1_556 S
C155 C165 1.510 . S
C156 C152 1.401 . S
C156 C155 1.396 1_554 S
C157 C152 1.499 . S
C157 H158 0.959 . S
C157 H159 0.960 . S
C157 H160 0.961 . S
H158 C157 0.959 . S
H159 C157 0.960 . S
H160 C157 0.961 . S
O161 Co136 1.967 . S
O161 C169 1.258 . S
O162 Co137 1.941 . S
O162 C169 1.266 1_556 S
H163 C165 0.959 . S
H164 C165 0.961 . S
C165 C155 1.510 . S
C165 H163 0.959 . S
C165 H164 0.961 . S
C165 H166 0.960 . S
H166 C165 0.960 . S
H167 N147 0.862 . S
O168 Co136 1.920 . S
O168 C141 1.289 . S
C169 O161 1.258 . S
C169 O162 1.266 1_554 S
Co170 O173 1.970 . S
Co170 N187 1.989 . S
Co170 O195 1.967 . S
Co170 O202 1.920 . S
Co171 O174 1.966 . S
Co171 N180 2.022 1_554 S
Co171 N188 1.993 . S
Co171 O196 1.941 . S
C172 O173 1.258 . S
C172 O174 1.263 . S
O173 Co170 1.970 . S
O173 C172 1.258 . S
O174 Co171 1.966 . S
O174 C172 1.263 . S
C175 O176 1.235 . S
C175 O202 1.289 . S
O176 C175 1.235 . S
C177 C179 1.400 . S
C177 N180 1.351 . S
C177 C182 1.501 . S
C178 C179 1.387 . S
C178 N181 1.341 . S
C179 C177 1.400 . S
C179 C178 1.387 . S
N180 Co171 2.022 1_556 S
N180 C177 1.351 . S
N180 N181 1.365 . S
N181 C178 1.341 . S
N181 N180 1.365 . S
N181 H201 0.862 . S
C182 C177 1.501 . S
C182 H183 0.961 . S
C182 H184 0.961 . S
C182 H185 0.960 . S
H183 C182 0.961 . S
H184 C182 0.961 . S
H185 C182 0.960 . S
C186 N187 1.342 . S
C186 C190 1.401 . S
C186 C191 1.499 . S
N187 Co170 1.989 . S
N187 C186 1.342 . S
N187 N188 1.388 . S
N188 Co171 1.993 . S
N188 N187 1.388 . S
N188 C189 1.346 . S
C189 N188 1.346 . S
C189 C190 1.396 . S
C189 C199 1.510 1_554 S
C190 C186 1.401 . S
C190 C189 1.396 . S
C191 C186 1.499 . S
C191 H192 0.959 . S
C191 H193 0.960 . S
C191 H194 0.961 . S
H192 C191 0.959 . S
H193 C191 0.960 . S
H194 C191 0.961 . S
O195 Co170 1.967 . S
O195 C203 1.258 . S
O196 Co171 1.941 . S
O196 C203 1.266 . S
H197 C199 0.959 . S
H198 C199 0.961 . S
C199 C189 1.510 1_556 S
C199 H197 0.959 . S
C199 H198 0.961 . S
C199 H200 0.960 . S
H200 C199 0.960 . S
H201 N181 0.862 . S
O202 Co170 1.920 . S
O202 C175 1.289 . S
C203 O195 1.258 . S
C203 O196 1.266 . S
C204 C205 1.349 . S
C204 C206 1.327 . S
C204 H229 0.950 . S
C205 C204 1.349 . S
C205 C221 1.349 . S
C206 C204 1.327 . S
C206 C225 1.429 . S
C206 H230 0.950 . S
C207 C224 1.574 1_455 S
C207 C226 1.368 . S
C207 H231 0.949 . S
H208 C212 0.949 . S
C209 C210 1.349 . S
C209 C211 1.327 . S
C209 H232 0.950 . S
C210 C209 1.349 . S
C210 C222 1.349 . S
C211 C209 1.327 . S
C211 C227 1.429 . S
C211 H233 0.950 . S
C212 H208 0.949 . S
C212 C220 1.574 1_655 S
C212 C228 1.368 . S
H213 C221 0.950 . S
H214 C219 0.950 . S
H215 C220 0.949 . S
H216 C222 0.950 . S
H217 C223 0.950 . S
H218 C224 0.949 . S
C219 H214 0.950 . S
C219 C221 1.327 . S
C219 C225 1.429 . S
C220 C212 1.574 1_455 S
C220 H215 0.949 . S
C220 C226 1.368 . S
C221 C205 1.349 . S
C221 H213 0.950 . S
C221 C219 1.327 . S
C222 C210 1.349 . S
C222 H216 0.950 . S
C222 C223 1.327 . S
C223 H217 0.950 . S
C223 C222 1.327 . S
C223 C227 1.429 . S
C224 C207 1.574 1_655 S
C224 H218 0.949 . S
C224 C228 1.368 . S
C225 C206 1.429 . S
C225 C219 1.429 . S
C225 C226 1.523 . S
C226 C207 1.368 . S
C226 C220 1.368 . S
C226 C225 1.523 . S
C227 C211 1.429 . S
C227 C223 1.429 . S
C227 C228 1.523 . S
C228 C212 1.368 . S
C228 C224 1.368 . S
C228 C227 1.523 . S
H229 C204 0.950 . S
H230 C206 0.950 . S
H231 C207 0.949 . S
H232 C209 0.950 . S
H233 C211 0.950 . S
C234 C235 1.349 . S
C234 C236 1.327 . S
C234 H259 0.950 . S
C235 C234 1.349 . S
C235 C251 1.349 . S
C236 C234 1.327 . S
C236 C255 1.429 . S
C236 H260 0.950 . S
C237 C254 1.618 . S
C237 C256 1.368 . S
C237 H261 0.949 1_554 S
H238 C242 0.949 . S
C239 C240 1.349 . S
C239 C241 1.327 . S
C239 H262 0.950 1_554 S
C240 C239 1.349 . S
C240 C252 1.349 . S
C241 C239 1.327 . S
C241 C257 1.429 . S
C241 H263 0.950 1_554 S
C242 H238 0.949 . S
C242 C250 1.574 1_545 S
C242 C258 1.368 . S
H243 C251 0.950 1_556 S
H244 C249 0.950 1_556 S
H245 C250 0.949 . S
H246 C252 0.950 . S
H247 C253 0.950 . S
H248 C254 0.920 1_546 S
C249 H244 0.950 1_554 S
C249 C251 1.327 . S
C249 C255 1.429 . S
C250 C242 1.574 1_565 S
C250 H245 0.949 . S
C250 C256 1.368 . S
C251 C235 1.349 . S
C251 H243 0.950 1_554 S
C251 C249 1.327 . S
C252 C240 1.349 . S
C252 H246 0.950 . S
C252 C253 1.327 . S
C253 H247 0.950 . S
C253 C252 1.327 . S
C253 C257 1.429 . S
C254 C237 1.618 . S
C254 H248 0.920 1_564 S
C254 C258 1.357 1_565 S
C255 C236 1.429 . S
C255 C249 1.429 . S
C255 C256 1.523 . S
C256 C237 1.368 . S
C256 C250 1.368 . S
C256 C255 1.523 . S
C257 C241 1.429 . S
C257 C253 1.429 . S
C257 C258 1.523 . S
C258 C242 1.368 . S
C258 C254 1.357 1_545 S
C258 C257 1.523 . S
H259 C234 0.950 . S
H260 C236 0.950 . S
H261 C237 0.949 1_556 S
H262 C239 0.950 1_556 S
H263 C241 0.950 1_556 S
C264 C265 1.349 . S
C264 C266 1.327 . S
C264 H289 0.950 . S
C265 C264 1.349 . S
C265 C281 1.349 . S
C266 C264 1.327 . S
C266 C285 1.429 . S
C266 H290 0.950 . S
C267 C284 1.574 . S
C267 C286 1.368 . S
C267 H291 0.949 . S
H268 C272 0.949 . S
C269 C270 1.349 . S
C269 C271 1.327 . S
C269 H292 0.950 . S
C270 C269 1.349 . S
C270 C282 1.349 . S
C271 C269 1.327 . S
C271 C287 1.429 . S
C271 H293 0.950 . S
C272 H268 0.949 . S
C272 C280 1.574 . S
C272 C288 1.368 . S
H273 C281 0.950 . S
H274 C279 0.950 . S
H275 C280 0.949 . S
H276 C282 0.950 . S
H277 C283 0.950 . S
H278 C284 0.949 . S
C279 H274 0.950 . S
C279 C281 1.327 . S
C279 C285 1.429 . S
C280 C272 1.574 . S
C280 H275 0.949 . S
C280 C286 1.368 . S
C281 C265 1.349 . S
C281 H273 0.950 . S
C281 C279 1.327 . S
C282 C270 1.349 . S
C282 H276 0.950 . S
C282 C283 1.327 . S
C283 H277 0.950 . S
C283 C282 1.327 . S
C283 C287 1.429 . S
C284 C267 1.574 . S
C284 H278 0.949 . S
C284 C288 1.368 . S
C285 C266 1.429 . S
C285 C279 1.429 . S
C285 C286 1.523 . S
C286 C267 1.368 . S
C286 C280 1.368 . S
C286 C285 1.523 . S
C287 C271 1.429 . S
C287 C283 1.429 . S
C287 C288 1.523 . S
C288 C272 1.368 . S
C288 C284 1.368 . S
C288 C287 1.523 . S
H289 C264 0.950 . S
H290 C266 0.950 . S
H291 C267 0.949 . S
H292 C269 0.950 . S
H293 C271 0.950 . S
C294 C295 1.349 . S
C294 C296 1.327 . S
C294 H319 0.950 . S
C295 C294 1.349 . S
C295 C311 1.349 . S
C296 C294 1.327 . S
C296 C315 1.429 . S
C296 H320 0.950 . S
C297 C314 1.574 . S
C297 C316 1.368 . S
C297 H321 0.949 . S
H298 C302 0.949 . S
C299 C300 1.349 . S
C299 C301 1.327 . S
C299 H322 0.950 . S
C300 C299 1.349 . S
C300 C312 1.349 . S
C301 C299 1.327 . S
C301 C317 1.429 . S
C301 H323 0.950 . S
C302 H298 0.949 . S
C302 C310 1.574 . S
C302 C318 1.368 . S
H303 C311 0.950 . S
H304 C309 0.950 . S
H305 C310 0.949 . S
H306 C312 0.950 . S
H307 C313 0.950 . S
H308 C314 0.949 . S
C309 H304 0.950 . S
C309 C311 1.327 . S
C309 C315 1.429 . S
C310 C302 1.574 . S
C310 H305 0.949 . S
C310 C316 1.368 . S
C311 C295 1.349 . S
C311 H303 0.950 . S
C311 C309 1.327 . S
C312 C300 1.349 . S
C312 H306 0.950 . S
C312 C313 1.327 . S
C313 H307 0.950 . S
C313 C312 1.327 . S
C313 C317 1.429 . S
C314 C297 1.574 . S
C314 H308 0.949 . S
C314 C318 1.368 . S
C315 C296 1.429 . S
C315 C309 1.429 . S
C315 C316 1.523 . S
C316 C297 1.368 . S
C316 C310 1.368 . S
C316 C315 1.523 . S
C317 C301 1.429 . S
C317 C313 1.429 . S
C317 C318 1.523 . S
C318 C302 1.368 . S
C318 C314 1.368 . S
C318 C317 1.523 . S
H319 C294 0.950 . S
H320 C296 0.950 . S
H321 C297 0.949 . S
H322 C299 0.950 . S
H323 C301 0.950 . S
C324 C325 1.349 . S
C324 C326 1.327 . S
C324 H349 0.950 . S
C325 C324 1.349 . S
C325 C341 1.349 . S
C326 C324 1.327 . S
C326 C345 1.429 . S
C326 H350 0.950 . S
C327 C344 1.574 . S
C327 C346 1.368 . S
C327 H351 0.949 . S
H328 C332 0.949 . S
C329 C330 1.349 . S
C329 C331 1.327 . S
C329 H352 0.950 . S
C330 C329 1.349 . S
C330 C342 1.349 . S
C331 C329 1.327 . S
C331 C347 1.429 . S
C331 H353 0.950 . S
C332 H328 0.949 . S
C332 C340 1.574 . S
C332 C348 1.368 . S
H333 C341 0.950 . S
H334 C339 0.950 . S
H335 C340 0.949 . S
H336 C342 0.950 . S
H337 C343 0.950 . S
H338 C344 0.949 . S
C339 H334 0.950 . S
C339 C341 1.327 . S
C339 C345 1.429 . S
C340 C332 1.574 . S
C340 H335 0.949 . S
C340 C346 1.368 . S
C341 C325 1.349 . S
C341 H333 0.950 . S
C341 C339 1.327 . S
C342 C330 1.349 . S
C342 H336 0.950 . S
C342 C343 1.327 . S
C343 H337 0.950 . S
C343 C342 1.327 . S
C343 C347 1.429 . S
C344 C327 1.574 . S
C344 H338 0.949 . S
C344 C348 1.368 . S
C345 C326 1.429 . S
C345 C339 1.429 . S
C345 C346 1.523 . S
C346 C327 1.368 . S
C346 C340 1.368 . S
C346 C345 1.523 . S
C347 C331 1.429 . S
C347 C343 1.429 . S
C347 C348 1.523 . S
C348 C332 1.368 . S
C348 C344 1.368 . S
C348 C347 1.523 . S
H349 C324 0.950 . S
H350 C326 0.950 . S
H351 C327 0.949 . S
H352 C329 0.950 . S
H353 C331 0.950 . S
C354 C355 1.349 . S
C354 C356 1.327 . S
C354 H379 0.950 . S
C355 C354 1.349 . S
C355 C371 1.349 . S
C356 C354 1.327 . S
C356 C375 1.429 . S
C356 H380 0.950 . S
C357 C374 1.574 . S
C357 C376 1.368 . S
C357 H381 0.949 . S
H358 C362 0.949 . S
C359 C360 1.349 . S
C359 C361 1.327 . S
C359 H382 0.950 . S
C360 C359 1.349 . S
C360 C372 1.349 . S
C361 C359 1.327 . S
C361 C377 1.429 . S
C361 H383 0.950 . S
C362 H358 0.949 . S
C362 C370 1.574 . S
C362 C378 1.368 . S
H363 C371 0.950 . S
H364 C369 0.950 . S
H365 C370 0.949 . S
H366 C372 0.950 . S
H367 C373 0.950 . S
H368 C374 0.949 . S
C369 H364 0.950 . S
C369 C371 1.327 . S
C369 C375 1.429 . S
C370 C362 1.574 . S
C370 H365 0.949 . S
C370 C376 1.368 . S
C371 C355 1.349 . S
C371 H363 0.950 . S
C371 C369 1.327 . S
C372 C360 1.349 . S
C372 H366 0.950 . S
C372 C373 1.327 . S
C373 H367 0.950 . S
C373 C372 1.327 . S
C373 C377 1.429 . S
C374 C357 1.574 . S
C374 H368 0.949 . S
C374 C378 1.368 . S
C375 C356 1.429 . S
C375 C369 1.429 . S
C375 C376 1.523 . S
C376 C357 1.368 . S
C376 C370 1.368 . S
C376 C375 1.523 . S
C377 C361 1.429 . S
C377 C373 1.429 . S
C377 C378 1.523 . S
C378 C362 1.368 . S
C378 C374 1.368 . S
C378 C377 1.523 . S
H379 C354 0.950 . S
H380 C356 0.950 . S
H381 C357 0.949 . S
H382 C359 0.950 . S
H383 C361 0.950 . S
C384 C385 1.349 . S
C384 C386 1.327 . S
C384 H409 0.950 . S
C385 C384 1.349 . S
C385 C401 1.349 . S
C386 C384 1.327 . S
C386 C405 1.429 . S
C386 H410 0.950 . S
C387 C404 1.574 . S
C387 C406 1.368 . S
C387 H411 0.949 . S
H388 C392 0.949 . S
C389 C390 1.349 . S
C389 C391 1.327 . S
C389 H412 0.950 . S
C390 C389 1.349 . S
C390 C402 1.349 . S
C391 C389 1.327 . S
C391 C407 1.429 . S
C391 H413 0.950 . S
C392 H388 0.949 . S
C392 C400 1.574 . S
C392 C408 1.368 . S
H393 C401 0.950 . S
H394 C399 0.950 . S
H395 C400 0.949 . S
H396 C402 0.950 . S
H397 C403 0.950 . S
H398 C404 0.949 . S
C399 H394 0.950 . S
C399 C401 1.327 . S
C399 C405 1.429 . S
C400 C392 1.574 . S
C400 H395 0.949 . S
C400 C406 1.368 . S
C401 C385 1.349 . S
C401 H393 0.950 . S
C401 C399 1.327 . S
C402 C390 1.349 . S
C402 H396 0.950 . S
C402 C403 1.327 . S
C403 H397 0.950 . S
C403 C402 1.327 . S
C403 C407 1.429 . S
C404 C387 1.574 . S
C404 H398 0.949 . S
C404 C408 1.368 . S
C405 C386 1.429 . S
C405 C399 1.429 . S
C405 C406 1.523 . S
C406 C387 1.368 . S
C406 C400 1.368 . S
C406 C405 1.523 . S
C407 C391 1.429 . S
C407 C403 1.429 . S
C407 C408 1.523 . S
C408 C392 1.368 . S
C408 C404 1.368 . S
C408 C407 1.523 . S
H409 C384 0.950 . S
H410 C386 0.950 . S
H411 C387 0.949 . S
H412 C389 0.950 . S
H413 C391 0.950 . S
C414 C415 1.349 . S
C414 C416 1.327 . S
C414 H439 0.950 . S
C415 C414 1.349 . S
C415 C431 1.349 . S
C416 C414 1.327 . S
C416 C435 1.429 . S
C416 H440 0.950 . S
C417 C434 1.574 . S
C417 C436 1.368 . S
C417 H441 0.949 . S
H418 C422 0.949 . S
C419 C420 1.349 . S
C419 C421 1.327 . S
C419 H442 0.950 . S
C420 C419 1.349 . S
C420 C432 1.349 . S
C421 C419 1.327 . S
C421 C437 1.429 . S
C421 H443 0.950 . S
C422 H418 0.949 . S
C422 C430 1.574 . S
C422 C438 1.368 . S
H423 C431 0.950 . S
H424 C429 0.950 . S
H425 C430 0.949 . S
H426 C432 0.950 . S
H427 C433 0.950 . S
H428 C434 0.949 . S
C429 H424 0.950 . S
C429 C431 1.327 . S
C429 C435 1.429 . S
C430 C422 1.574 . S
C430 H425 0.949 . S
C430 C436 1.368 . S
C431 C415 1.349 . S
C431 H423 0.950 . S
C431 C429 1.327 . S
C432 C420 1.349 . S
C432 H426 0.950 . S
C432 C433 1.327 . S
C433 H427 0.950 . S
C433 C432 1.327 . S
C433 C437 1.429 . S
C434 C417 1.574 . S
C434 H428 0.949 . S
C434 C438 1.368 . S
C435 C416 1.429 . S
C435 C429 1.429 . S
C435 C436 1.523 . S
C436 C417 1.368 . S
C436 C430 1.368 . S
C436 C435 1.523 . S
C437 C421 1.429 . S
C437 C433 1.429 . S
C437 C438 1.523 . S
C438 C422 1.368 . S
C438 C434 1.368 . S
C438 C437 1.523 . S
H439 C414 0.950 . S
H440 C416 0.950 . S
H441 C417 0.949 . S
H442 C419 0.950 . S
H443 C421 0.950 . S
C444 C445 1.349 . S
C444 C446 1.327 . S
C444 H469 0.950 . S
C445 C444 1.349 . S
C445 C461 1.349 . S
C446 C444 1.327 . S
C446 C465 1.429 . S
C446 H470 0.950 . S
C447 C464 1.574 . S
C447 C466 1.368 . S
C447 H471 0.949 . S
H448 C452 0.949 . S
C449 C450 1.349 . S
C449 C451 1.327 . S
C449 H472 0.950 . S
C450 C449 1.349 . S
C450 C462 1.349 . S
C451 C449 1.327 . S
C451 C467 1.429 . S
C451 H473 0.950 . S
C452 H448 0.949 . S
C452 C460 1.574 . S
C452 C468 1.368 . S
H453 C461 0.950 . S
H454 C459 0.950 . S
H455 C460 0.949 . S
H456 C462 0.950 . S
H457 C463 0.950 . S
H458 C464 0.949 . S
C459 H454 0.950 . S
C459 C461 1.327 . S
C459 C465 1.429 . S
C460 C452 1.574 . S
C460 H455 0.949 . S
C460 C466 1.368 . S
C461 C445 1.349 . S
C461 H453 0.950 . S
C461 C459 1.327 . S
C462 C450 1.349 . S
C462 H456 0.950 . S
C462 C463 1.327 . S
C463 H457 0.950 . S
C463 C462 1.327 . S
C463 C467 1.429 . S
C464 C447 1.574 . S
C464 H458 0.949 . S
C464 C468 1.368 . S
C465 C446 1.429 . S
C465 C459 1.429 . S
C465 C466 1.523 . S
C466 C447 1.368 . S
C466 C460 1.368 . S
C466 C465 1.523 . S
C467 C451 1.429 . S
C467 C463 1.429 . S
C467 C468 1.523 . S
C468 C452 1.368 . S
C468 C464 1.368 . S
C468 C467 1.523 . S
H469 C444 0.950 . S
H470 C446 0.950 . S
H471 C447 0.949 . S
H472 C449 0.950 . S
H473 C451 0.950 . S
C474 C475 1.349 . S
C474 C476 1.327 . S
C474 H499 0.950 . S
C475 C474 1.349 . S
C475 C491 1.349 . S
C476 C474 1.327 . S
C476 C495 1.429 . S
C476 H500 0.950 . S
C477 C494 1.574 . S
C477 C496 1.368 . S
C477 H501 0.949 . S
H478 C482 0.949 . S
C479 C480 1.349 . S
C479 C481 1.327 . S
C479 H502 0.950 . S
C480 C479 1.349 . S
C480 C492 1.349 . S
C481 C479 1.327 . S
C481 C497 1.429 . S
C481 H503 0.950 . S
C482 H478 0.949 . S
C482 C490 1.574 . S
C482 C498 1.368 . S
H483 C491 0.950 . S
H484 C489 0.950 . S
H485 C490 0.949 . S
H486 C492 0.950 . S
H487 C493 0.950 . S
H488 C494 0.949 . S
C489 H484 0.950 . S
C489 C491 1.327 . S
C489 C495 1.429 . S
C490 C482 1.574 . S
C490 H485 0.949 . S
C490 C496 1.368 . S
C491 C475 1.349 . S
C491 H483 0.950 . S
C491 C489 1.327 . S
C492 C480 1.349 . S
C492 H486 0.950 . S
C492 C493 1.327 . S
C493 H487 0.950 . S
C493 C492 1.327 . S
C493 C497 1.429 . S
C494 C477 1.574 . S
C494 H488 0.949 . S
C494 C498 1.368 . S
C495 C476 1.429 . S
C495 C489 1.429 . S
C495 C496 1.523 . S
C496 C477 1.368 . S
C496 C490 1.368 . S
C496 C495 1.523 . S
C497 C481 1.429 . S
C497 C493 1.429 . S
C497 C498 1.523 . S
C498 C482 1.368 . S
C498 C494 1.368 . S
C498 C497 1.523 . S
H499 C474 0.950 . S
H500 C476 0.950 . S
H501 C477 0.949 . S
H502 C479 0.950 . S
H503 C481 0.950 . S
C504 C505 1.349 . S
C504 C506 1.327 . S
C504 H529 0.950 . S
C505 C504 1.349 . S
C505 C521 1.349 . S
C506 C504 1.327 . S
C506 C525 1.429 . S
C506 H530 0.950 . S
C507 C524 1.574 . S
C507 C526 1.368 . S
C507 H531 0.949 . S
H508 C512 0.949 . S
C509 C510 1.349 . S
C509 C511 1.327 . S
C509 H532 0.950 . S
C510 C509 1.349 . S
C510 C522 1.349 . S
C511 C509 1.327 . S
C511 C527 1.429 . S
C511 H533 0.950 . S
C512 H508 0.949 . S
C512 C520 1.574 . S
C512 C528 1.368 . S
H513 C521 0.950 . S
H514 C519 0.950 . S
H515 C520 0.949 . S
H516 C522 0.950 . S
H517 C523 0.950 . S
H518 C524 0.949 . S
C519 H514 0.950 . S
C519 C521 1.327 . S
C519 C525 1.429 . S
C520 C512 1.574 . S
C520 H515 0.949 . S
C520 C526 1.368 . S
C521 C505 1.349 . S
C521 H513 0.950 . S
C521 C519 1.327 . S
C522 C510 1.349 . S
C522 H516 0.950 . S
C522 C523 1.327 . S
C523 H517 0.950 . S
C523 C522 1.327 . S
C523 C527 1.429 . S
C524 C507 1.574 . S
C524 H518 0.949 . S
C524 C528 1.368 . S
C525 C506 1.429 . S
C525 C519 1.429 . S
C525 C526 1.523 . S
C526 C507 1.368 . S
C526 C520 1.368 . S
C526 C525 1.523 . S
C527 C511 1.429 . S
C527 C523 1.429 . S
C527 C528 1.523 . S
C528 C512 1.368 . S
C528 C524 1.368 . S
C528 C527 1.523 . S
H529 C504 0.950 . S
H530 C506 0.950 . S
H531 C507 0.949 . S
H532 C509 0.950 . S
H533 C511 0.950 . S
C534 C535 1.349 . S
C534 C536 1.327 . S
C534 H559 0.950 . S
C535 C534 1.349 . S
C535 C551 1.349 . S
C536 C534 1.327 . S
C536 C555 1.429 . S
C536 H560 0.950 . S
C537 C554 1.574 . S
C537 C556 1.368 . S
C537 H561 0.949 . S
H538 C542 0.949 . S
C539 C540 1.349 . S
C539 C541 1.327 . S
C539 H562 0.950 1_554 S
C540 C539 1.349 . S
C540 C552 1.349 . S
C541 C539 1.327 . S
C541 C557 1.429 . S
C541 H563 0.950 1_554 S
C542 H538 0.949 . S
C542 C550 1.574 . S
C542 C558 1.368 . S
H543 C551 0.950 . S
H544 C549 0.950 . S
H545 C550 0.949 . S
H546 C552 0.950 . S
H547 C553 0.950 . S
H548 C554 0.949 1_556 S
C549 H544 0.950 . S
C549 C551 1.327 . S
C549 C555 1.429 . S
C550 C542 1.574 . S
C550 H545 0.949 . S
C550 C556 1.368 . S
C551 C535 1.349 . S
C551 H543 0.950 . S
C551 C549 1.327 . S
C552 C540 1.349 . S
C552 H546 0.950 . S
C552 C553 1.327 . S
C553 H547 0.950 . S
C553 C552 1.327 . S
C553 C557 1.429 . S
C554 C537 1.574 . S
C554 H548 0.949 1_554 S
C554 C558 1.368 . S
C555 C536 1.429 . S
C555 C549 1.429 . S
C555 C556 1.523 . S
C556 C537 1.368 . S
C556 C550 1.368 . S
C556 C555 1.523 . S
C557 C541 1.429 . S
C557 C553 1.429 . S
C557 C558 1.523 . S
C558 C542 1.368 . S
C558 C554 1.368 . S
C558 C557 1.523 . S
H559 C534 0.950 . S
H560 C536 0.950 . S
H561 C537 0.949 . S
H562 C539 0.950 1_556 S
H563 C541 0.950 1_556 S
C564 C565 1.349 . S
C564 C566 1.327 . S
C564 H589 0.950 . S
C565 C564 1.349 . S
C565 C581 1.349 . S
C566 C564 1.327 . S
C566 C585 1.429 . S
C566 H590 0.950 . S
C567 C584 1.574 . S
C567 C586 1.368 . S
C567 H591 0.949 . S
H568 C572 0.949 . S
C569 C570 1.349 . S
C569 C571 1.327 . S
C569 H592 0.950 . S
C570 C569 1.349 . S
C570 C582 1.349 . S
C571 C569 1.327 . S
C571 C587 1.429 . S
C571 H593 0.950 . S
C572 H568 0.949 . S
C572 C580 1.574 . S
C572 C588 1.368 . S
H573 C581 0.950 . S
H574 C579 0.950 . S
H575 C580 0.949 . S
H576 C582 0.950 . S
H577 C583 0.950 . S
H578 C584 0.949 . S
C579 H574 0.950 . S
C579 C581 1.327 . S
C579 C585 1.429 . S
C580 C572 1.574 . S
C580 H575 0.949 . S
C580 C586 1.368 . S
C581 C565 1.349 . S
C581 H573 0.950 . S
C581 C579 1.327 . S
C582 C570 1.349 . S
C582 H576 0.950 . S
C582 C583 1.327 . S
C583 H577 0.950 . S
C583 C582 1.327 . S
C583 C587 1.429 . S
C584 C567 1.574 . S
C584 H578 0.949 . S
C584 C588 1.368 . S
C585 C566 1.429 . S
C585 C579 1.429 . S
C585 C586 1.523 . S
C586 C567 1.368 . S
C586 C580 1.368 . S
C586 C585 1.523 . S
C587 C571 1.429 . S
C587 C583 1.429 . S
C587 C588 1.523 . S
C588 C572 1.368 . S
C588 C584 1.368 . S
C588 C587 1.523 . S
H589 C564 0.950 . S
H590 C566 0.950 . S
H591 C567 0.949 . S
H592 C569 0.950 . S
H593 C571 0.950 . S
C594 C595 1.349 . S
C594 C596 1.327 . S
C594 H619 0.950 . S
C595 C594 1.349 . S
C595 C611 1.349 . S
C596 C594 1.327 . S
C596 C615 1.429 . S
C596 H620 0.950 . S
C597 C614 1.574 . S
C597 C616 1.368 . S
C597 H621 0.949 . S
H598 C602 0.949 1_556 S
C599 C600 1.349 . S
C599 C601 1.327 . S
C599 H622 0.950 . S
C600 C599 1.349 . S
C600 C612 1.349 . S
C601 C599 1.327 . S
C601 C617 1.429 . S
C601 H623 0.950 . S
C602 H598 0.949 1_554 S
C602 C610 1.574 . S
C602 C618 1.368 . S
H603 C611 0.950 . S
H604 C609 0.950 . S
H605 C610 0.949 . S
H606 C612 0.950 1_556 S
H607 C613 0.950 1_556 S
H608 C614 0.949 . S
C609 H604 0.950 . S
C609 C611 1.327 . S
C609 C615 1.429 . S
C610 C602 1.574 . S
C610 H605 0.949 . S
C610 C616 1.368 . S
C611 C595 1.349 . S
C611 H603 0.950 . S
C611 C609 1.327 . S
C612 C600 1.349 . S
C612 H606 0.950 1_554 S
C612 C613 1.327 . S
C613 H607 0.950 1_554 S
C613 C612 1.327 . S
C613 C617 1.429 . S
C614 C597 1.574 . S
C614 H608 0.949 . S
C614 C618 1.368 . S
C615 C596 1.429 . S
C615 C609 1.429 . S
C615 C616 1.523 . S
C616 C597 1.368 . S
C616 C610 1.368 . S
C616 C615 1.523 . S
C617 C601 1.429 . S
C617 C613 1.429 . S
C617 C618 1.523 . S
C618 C602 1.368 . S
C618 C614 1.368 . S
C618 C617 1.523 . S
H619 C594 0.950 . S
H620 C596 0.950 . S
H621 C597 0.949 . S
H622 C599 0.950 . S
H623 C601 0.950 . S
C624 C625 1.349 . S
C624 C626 1.327 . S
C624 H649 0.950 . S
C625 C624 1.349 . S
C625 C641 1.349 . S
C626 C624 1.327 . S
C626 C645 1.429 . S
C626 H650 0.950 . S
C627 C644 1.574 . S
C627 C646 1.368 . S
C627 H651 0.949 . S
H628 C632 0.949 . S
C629 C630 1.349 . S
C629 C631 1.327 . S
C629 H652 0.950 . S
C630 C629 1.349 . S
C630 C642 1.349 . S
C631 C629 1.327 . S
C631 C647 1.429 . S
C631 H653 0.950 . S
C632 H628 0.949 . S
C632 C640 1.574 . S
C632 C648 1.368 . S
H633 C641 0.950 . S
H634 C639 0.950 . S
H635 C640 0.949 . S
H636 C642 0.950 . S
H637 C643 0.950 . S
H638 C644 0.949 . S
C639 H634 0.950 . S
C639 C641 1.327 . S
C639 C645 1.429 . S
C640 C632 1.574 . S
C640 H635 0.949 . S
C640 C646 1.368 . S
C641 C625 1.349 . S
C641 H633 0.950 . S
C641 C639 1.327 . S
C642 C630 1.349 . S
C642 H636 0.950 . S
C642 C643 1.327 . S
C643 H637 0.950 . S
C643 C642 1.327 . S
C643 C647 1.429 . S
C644 C627 1.574 . S
C644 H638 0.949 . S
C644 C648 1.368 . S
C645 C626 1.429 . S
C645 C639 1.429 . S
C645 C646 1.523 . S
C646 C627 1.368 . S
C646 C640 1.368 . S
C646 C645 1.523 . S
C647 C631 1.429 . S
C647 C643 1.429 . S
C647 C648 1.523 . S
C648 C632 1.368 . S
C648 C644 1.368 . S
C648 C647 1.523 . S
H649 C624 0.950 . S
H650 C626 0.950 . S
H651 C627 0.949 . S
H652 C629 0.950 . S
H653 C631 0.950 . S
C205 C20 1.251 . S
C210 C122 1.250 . S
C235 C156 1.420 . S
C240 C54 1.410 . S
C265 C190 1.274 . S
C270 C88 1.273 . S
C295 C9 1.402 . S
C300 C5 1.480 . S
C325 C39 1.486 . S
C330 C43 1.392 . S
C355 C73 1.490 . S
C360 C77 1.388 . S
C385 C111 1.394 . S
C390 C107 1.487 . S
C415 C141 1.477 . S
C420 C145 1.390 . S
C445 C175 1.486 . S
C450 C179 1.394 . S
C475 C2 0.886 . S
C480 C101 0.890 . S
C505 C67 0.987 . S
C510 C104 0.974 . S
C535 C70 0.914 . S
C540 C138 0.921 . S
C565 C135 0.734 . S
C570 C172 0.735 . S
C595 C33 0.715 . S
C600 C169 0.716 . S
C625 C36 1.096 . S
C630 C203 1.135 . S
