# Generated by pormake.
# Topology unm, (4)-cn, num edge types: 1
# Building blocks:
#     Node 0, Type 0, BuildingBlock: UXUYUI_clean_sbu_0, # of connection points: 4
#     Node 1, Type 0, BuildingBlock: UXUYUI_clean_sbu_0, # of connection points: 4
#     Node 2, Type 0, BuildingBlock: UXUYUI_clean_sbu_0, # of connection points: 4
#     Node 3, Type 0, BuildingBlock: UXUYUI_clean_sbu_0, # of connection points: 4
#     Node 4, Type 0, BuildingBlock: UXUYUI_clean_sbu_0, # of connection points: 4
#     Node 5, Type 0, BuildingBlock: UXUYUI_clean_sbu_0, # of connection points: 4
#     Node 6, Type 0, BuildingBlock: UXUYUI_clean_sbu_0, # of connection points: 4
#     Node 7, Type 0, BuildingBlock: UXUYUI_clean_sbu_0, # of connection points: 4
#     Edge 8, Type (0, 0), BuildingBlock: AJUNOK_clean_linker_0, # of connection points: 2
#     Edge 9, Type (0, 0), BuildingBlock: AJUNOK_clean_linker_0, # of connection points: 2
#     Edge 10, Type (0, 0), BuildingBlock: AJUNOK_clean_linker_0, # of connection points: 2
#     Edge 11, Type (0, 0), BuildingBlock: AJUNOK_clean_linker_0, # of connection points: 2
#     Edge 12, Type (0, 0), BuildingBlock: AJUNOK_clean_linker_0, # of connection points: 2
#     Edge 13, Type (0, 0), BuildingBlock: AJUNOK_clean_linker_0, # of connection points: 2
#     Edge 14, Type (0, 0), BuildingBlock: AJUNOK_clean_linker_0, # of connection points: 2
#     Edge 15, Type (0, 0), BuildingBlock: AJUNOK_clean_linker_0, # of connection points: 2
#     Edge 16, Type (0, 0), BuildingBlock: AJUNOK_clean_linker_0, # of connection points: 2
#     Edge 17, Type (0, 0), BuildingBlock: AJUNOK_clean_linker_0, # of connection points: 2
#     Edge 18, Type (0, 0), BuildingBlock: AJUNOK_clean_linker_0, # of connection points: 2
#     Edge 19, Type (0, 0), BuildingBlock: AJUNOK_clean_linker_0, # of connection points: 2
#     Edge 20, Type (0, 0), BuildingBlock: AJUNOK_clean_linker_0, # of connection points: 2
#     Edge 21, Type (0, 0), BuildingBlock: AJUNOK_clean_linker_0, # of connection points: 2
#     Edge 22, Type (0, 0), BuildingBlock: AJUNOK_clean_linker_0, # of connection points: 2
#     Edge 23, Type (0, 0), BuildingBlock: AJUNOK_clean_linker_0, # of connection points: 2
# Relax obj value: 0.260
# Max RMSD: 0.186
# Mean RMSD: 0.185
data_MOF--net-unm--node1-UXUYUI_clean_sbu_0--edge1-AJUNOK_clean_linker_0
_symmetry_space_group_name_H-M    P1
_symmetry_Int_Tables_number       1
_symmetry_cell_setting            triclinic
loop_
_symmetry_equiv_pos_as_xyz
'x, y, z'
_cell_length_a     31.284829
_cell_length_b     31.173914
_cell_length_c     50.802924
_cell_angle_alpha  89.990956
_cell_angle_beta   90.037822
_cell_angle_gamma 89.995134
loop_
_atom_site_label
_atom_site_type_symbol
_atom_site_fract_x
_atom_site_fract_y
_atom_site_fract_z
_atom_type_partial_charge
Li0 Li 0.07975 0.28186 0.15497 0.0
Li1 Li 0.12589 0.23863 0.18474 0.0
Li2 Li 0.09106 0.20641 0.14469 0.0
Li3 Li 0.04942 0.22826 0.18186 0.0
C4 C 0.16779 0.28212 0.14442 0.0
N5 N 0.23462 0.33983 0.14086 0.0
C6 C 0.16947 0.31765 0.1612 0.0
C7 C 0.20001 0.27611 0.12574 0.0
C8 C 0.20354 0.34639 0.15912 0.0
C9 C 0.23354 0.30561 0.12426 0.0
C10 C 0.06474 0.28524 0.21871 0.0
C11 C 0.06041 0.26286 0.2641 0.0
N12 N 0.03042 0.2936 0.26857 0.0
C13 C 0.03407 0.31677 0.2238 0.0
C14 C 0.07808 0.25809 0.23903 0.0
C15 C 0.01701 0.32039 0.24911 0.0
C16 C 0.02951 0.35193 0.14966 0.0
N17 N 0.06721 0.33624 0.1407 0.0
C18 C 0.0779 0.39834 0.11397 0.0
C19 C 0.09102 0.35786 0.12265 0.0
C20 C 0.04007 0.41628 0.12406 0.0
C21 C 0.01541 0.39215 0.14175 0.0
H22 H 0.01057 0.3331 0.16317 0.0
H23 H 0.12009 0.34386 0.11504 0.0
C24 C 0.21023 0.21357 0.19975 0.0
N25 N 0.1781 0.24176 0.20483 0.0
C26 C 0.25003 0.21816 0.21211 0.0
C27 C 0.22294 0.28056 0.23476 0.0
C28 C 0.18383 0.27493 0.22188 0.0
C29 C 0.2568 0.25203 0.22994 0.0
H30 H 0.20529 0.18817 0.18556 0.0
H31 H 0.15834 0.29775 0.22504 0.0
C32 C 0.02506 0.24604 0.11885 0.0
N33 N 1.00107 0.2589 0.06705 0.0
C34 C 0.98254 0.24018 0.1112 0.0
C35 C 0.05536 0.25858 0.10011 0.0
C36 C 0.97105 0.24683 0.08493 0.0
C37 C 0.0426 0.26487 0.07405 0.0
C38 C 0.07497 0.14946 0.19323 0.0
C39 C 0.04047 0.1293 0.1809 0.0
C40 C 0.08855 0.13548 0.21799 0.0
C41 C 0.01969 0.09562 0.19376 0.0
C42 C 0.06698 0.10164 0.23018 0.0
N43 N 0.03326 0.08262 0.21793 0.0
C44 C 0.13827 0.16554 0.10483 0.0
C45 C 0.06362 0.15288 0.10244 0.0
C46 C 0.14402 0.14811 0.07975 0.0
N47 N 0.09839 0.16888 0.11524 0.0
C48 C 0.06781 0.13596 0.07708 0.0
C49 C 0.10828 0.13459 0.0653 0.0
H50 H 0.16526 0.17871 0.11538 0.0
H51 H 0.03222 0.15602 0.1111 0.0
C52 C 0.96356 0.24349 0.18976 0.0
N53 N 0.99622 0.22124 0.201 0.0
C54 C 0.92417 0.24713 0.2024 0.0
C55 C 0.95207 0.20466 0.23822 0.0
C56 C 0.99112 0.20165 0.22477 0.0
C57 C 0.91805 0.22802 0.22711 0.0
H58 H 0.96855 0.25987 0.17129 0.0
H59 H 0.01771 0.18534 0.23389 0.0
O60 O 0.13496 0.25321 0.14622 0.0
O61 O 0.08102 0.28025 0.19389 0.0
O62 O 0.03666 0.23906 0.14452 0.0
O63 O 0.09568 0.18243 0.18097 0.0
H64 H 0.14471 0.32318 0.17562 0.0
H65 H 0.19915 0.24896 0.11249 0.0
H66 H 0.20525 0.37395 0.17202 0.0
H67 H 0.25871 0.30131 0.10991 0.0
H68 H 0.07028 0.24191 0.27995 0.0
H69 H 0.02343 0.33821 0.20843 0.0
H70 H 0.10135 0.23313 0.23537 0.0
H71 H 0.9931 0.34451 0.25329 0.0
H72 H 0.09723 0.41552 0.0998 0.0
H73 H 0.98612 0.40478 0.15006 0.0
H74 H 0.27552 0.19606 0.20722 0.0
H75 H 0.22669 0.30713 0.2483 0.0
H76 H 0.95868 0.2303 0.12538 0.0
H77 H 0.08846 0.26309 0.10548 0.0
H78 H 0.93827 0.24229 0.07874 0.0
H79 H 0.06576 0.27439 0.05936 0.0
H80 H 0.02966 0.13982 0.16171 0.0
H81 H 0.11538 0.15071 0.2277 0.0
H82 H 0.99277 0.07984 0.18455 0.0
H83 H 0.077 0.09053 0.24939 0.0
H84 H 0.17563 0.14768 0.07106 0.0
H85 H 0.03963 0.1259 0.06633 0.0
H86 H 0.89889 0.26537 0.19307 0.0
H87 H 0.94915 0.19028 0.25754 0.0
Li88 Li 0.28798 0.59423 0.64218 0.0
Li89 Li 0.26296 0.63325 0.68327 0.0
Li90 Li 0.27144 0.55263 0.68267 0.0
Li91 Li 0.21461 0.58745 0.65817 0.0
C92 C 0.3573 0.58007 0.67736 0.0
N93 N 0.43774 0.54352 0.67613 0.0
C94 C 0.39123 0.59948 0.6907 0.0
C95 C 0.36424 0.54208 0.66342 0.0
C96 C 0.43169 0.58051 0.68984 0.0
C97 C 0.40513 0.52409 0.66302 0.0
C98 C 0.21084 0.66503 0.63771 0.0
C99 C 0.14868 0.70828 0.6469 0.0
N100 N 0.14193 0.71299 0.62061 0.0
C101 C 0.20333 0.67033 0.61079 0.0
C102 C 0.18333 0.68416 0.65594 0.0
C103 C 0.1683 0.69468 0.60254 0.0
C104 C 0.29113 0.59142 0.58868 0.0
N105 N 0.31773 0.59709 0.60951 0.0
C106 C 0.37715 0.60736 0.58053 0.0
C107 C 0.36017 0.6047 0.60603 0.0
C108 C 0.34997 0.60297 0.55856 0.0
C109 C 0.30648 0.59451 0.56302 0.0
H110 H 0.25761 0.58501 0.59209 0.0
H111 H 0.38076 0.60901 0.62292 0.0
C112 C 0.25365 0.68582 0.72879 0.0
N113 N 0.265 0.68557 0.70297 0.0
C114 C 0.2471 0.72472 0.74195 0.0
C115 C 0.26666 0.7623 0.70216 0.0
C116 C 0.27246 0.72271 0.68971 0.0
C117 C 0.25247 0.7637 0.7284 0.0
H118 H 0.24789 0.65582 0.73888 0.0
H119 H 0.28131 0.7216 0.66914 0.0
C120 C 0.24754 0.5023 0.63632 0.0
N121 N 0.23613 0.42027 0.61691 0.0
C122 C 0.2126 0.47768 0.64444 0.0
C123 C 0.27642 0.48532 0.61809 0.0
C124 C 0.20744 0.43626 0.63445 0.0
C125 C 0.27018 0.44374 0.60858 0.0
C126 C 0.18849 0.5768 0.71064 0.0
C127 C 0.17559 0.5339 0.71141 0.0
C128 C 0.1649 0.60768 0.72433 0.0
C129 C 0.13914 0.52261 0.72568 0.0
C130 C 0.12857 0.59513 0.73834 0.0
N131 N 0.11655 0.55321 0.73872 0.0
C132 C 0.27301 0.50419 0.72966 0.0
C133 C 0.29218 0.46399 0.69194 0.0
C134 C 0.26972 0.46666 0.74463 0.0
N135 N 0.28238 0.50209 0.70355 0.0
C136 C 0.28904 0.42568 0.70613 0.0
C137 C 0.276 0.42656 0.73258 0.0
H138 H 0.26552 0.53483 0.73852 0.0
H139 H 0.30033 0.46288 0.67133 0.0
C140 C 0.15329 0.5579 0.62245 0.0
N141 N 0.15795 0.58005 0.64533 0.0
C142 C 0.11286 0.5448 0.61417 0.0
C143 C 0.08246 0.58148 0.65167 0.0
C144 C 0.12348 0.59368 0.65926 0.0
C145 C 0.07702 0.55556 0.62934 0.0
H146 H 0.18118 0.54875 0.61123 0.0
H147 H 0.12777 0.61277 0.67673 0.0
O148 O 0.31755 0.59831 0.67802 0.0
O149 O 0.24444 0.6406 0.64624 0.0
O150 O 0.25337 0.54295 0.64591 0.0
O151 O 0.22432 0.58853 0.69693 0.0
H152 H 0.38635 0.62892 0.70159 0.0
H153 H 0.33843 0.52679 0.65292 0.0
H154 H 0.45827 0.59519 0.70006 0.0
H155 H 0.41094 0.49471 0.65227 0.0
H156 H 0.12703 0.72308 0.66079 0.0
H157 H 0.22428 0.65586 0.5964 0.0
H158 H 0.18823 0.67985 0.67685 0.0
H159 H 0.16207 0.69902 0.58176 0.0
H160 H 0.41108 0.61283 0.5781 0.0
H161 H 0.28418 0.59124 0.54683 0.0
H162 H 0.23632 0.72424 0.7622 0.0
H163 H 0.27249 0.79148 0.69117 0.0
H164 H 0.18939 0.49052 0.65804 0.0
H165 H 0.30353 0.50393 0.61144 0.0
H166 H 0.18055 0.41688 0.64058 0.0
H167 H 0.2924 0.43015 0.59458 0.0
H168 H 0.19366 0.50945 0.70131 0.0
H169 H 0.17405 0.64111 0.72379 0.0
H170 H 0.12889 0.48949 0.72644 0.0
H171 H 0.10987 0.61875 0.74886 0.0
H172 H 0.26092 0.46895 0.7652 0.0
H173 H 0.29459 0.39555 0.69609 0.0
H174 H 0.10975 0.52512 0.5967 0.0
H175 H 0.05561 0.59017 0.66402 0.0
Li176 Li 0.88394 0.76053 0.18594 0.0
Li177 Li 0.93117 0.72101 0.15817 0.0
Li178 Li 0.96116 0.77497 0.18575 0.0
Li179 Li 0.91684 0.79492 0.14694 0.0
C180 C 0.93264 0.71943 0.22374 0.0
N181 N 0.93633 0.71403 0.27799 0.0
C182 C 0.94239 0.68043 0.23591 0.0
C183 C 0.92489 0.75575 0.23918 0.0
C184 C 0.94405 0.67834 0.26336 0.0
C185 C 0.92689 0.75234 0.26657 0.0
C186 C 0.84797 0.71598 0.14043 0.0
C187 C 0.79928 0.68716 0.10817 0.0
N188 N 0.79189 0.65293 0.12414 0.0
C189 C 0.84014 0.68042 0.15646 0.0
C190 C 0.8276 0.71935 0.11603 0.0
C191 C 0.81157 0.64893 0.1479 0.0
C192 C 0.80026 0.78569 0.20185 0.0
N193 N 0.83125 0.75567 0.2055 0.0
C194 C 0.78497 0.71508 0.23363 0.0
C195 C 0.82419 0.72069 0.22094 0.0
C196 C 0.75228 0.74547 0.23027 0.0
C197 C 0.76032 0.78114 0.21403 0.0
H198 H 0.80625 0.81271 0.189 0.0
H199 H 0.84862 0.69647 0.22303 0.0
C200 C 0.9749 0.64607 0.16011 0.0
N201 N 0.94572 0.66643 0.14482 0.0
C202 C 0.99214 0.60715 0.15219 0.0
C203 C 0.94866 0.61034 0.11283 0.0
C204 C 0.93206 0.64946 0.12161 0.0
C205 C 0.9796 0.58917 0.12809 0.0
H206 H 0.98518 0.66045 0.17839 0.0
H207 H 0.90916 0.66666 0.10966 0.0
C208 C 0.92925 0.85926 0.18465 0.0
N209 N 0.96246 0.94138 0.18593 0.0
C210 C 0.96638 0.86906 0.17057 0.0
C211 C 0.90906 0.89121 0.19939 0.0
C212 C 0.98264 0.91077 0.17146 0.0
C213 C 0.92634 0.93254 0.19979 0.0
C214 C 0.99296 0.74813 0.1267 0.0
C215 C 0.03577 0.73563 0.12846 0.0
C216 C 0.97051 0.74141 0.10324 0.0
C217 C 0.05533 0.7163 0.10678 0.0
C218 C 0.99123 0.72208 0.08198 0.0
N219 N 0.03284 0.70997 0.08419 0.0
C220 C 0.03882 0.74861 0.20242 0.0
C221 C 0.02296 0.81544 0.22236 0.0
C222 C 0.07796 0.7465 0.21539 0.0
N223 N 0.01244 0.78277 0.20579 0.0
C224 C 0.06199 0.81442 0.23608 0.0
C225 C 0.09006 0.77959 0.23249 0.0
H226 H 0.02911 0.72264 0.18967 0.0
H227 H 1.00113 0.84197 0.22507 0.0
C228 C 0.86565 0.83719 0.11022 0.0
N229 N 0.90708 0.83131 0.11736 0.0
C230 C 0.85569 0.85276 0.08519 0.0
C231 C 0.93122 0.85865 0.07593 0.0
C232 C 0.93977 0.84331 0.1013 0.0
C233 C 0.88869 0.86162 0.06723 0.0
H234 H 0.84034 0.82706 0.12332 0.0
H235 H 0.97246 0.83792 0.10738 0.0
O236 O 0.93148 0.72186 0.19685 0.0
O237 O 0.87646 0.74675 0.14813 0.0
O238 O 0.91263 0.81867 0.1843 0.0
O239 O 0.97284 0.76617 0.14791 0.0
H240 H 0.94857 0.65205 0.22424 0.0
H241 H 0.91744 0.78627 0.23023 0.0
H242 H 0.95151 0.64834 0.27303 0.0
H243 H 0.92095 0.78017 0.27875 0.0
H244 H 0.78327 0.68933 0.08933 0.0
H245 H 0.85651 0.67682 0.17508 0.0
H246 H 0.83379 0.74642 0.10324 0.0
H247 H 0.80523 0.62119 0.16008 0.0
H248 H 0.78027 0.68711 0.24594 0.0
H249 H 0.73575 0.80481 0.21026 0.0
H250 H 0.01482 0.59109 0.16494 0.0
H251 H 0.93795 0.59707 0.09426 0.0
H252 H 0.98268 0.84485 0.15917 0.0
H253 H 0.88034 0.88409 0.21044 0.0
H254 H 0.01136 0.91879 0.16068 0.0
H255 H 0.91103 0.95758 0.21112 0.0
H256 H 0.05383 0.74088 0.14632 0.0
H257 H 0.93715 0.75018 0.10164 0.0
H258 H 0.08841 0.70635 0.1079 0.0
H259 H 0.97413 0.71643 0.0638 0.0
H260 H 0.09837 0.71886 0.21237 0.0
H261 H 0.07032 0.84062 0.2491 0.0
H262 H 0.82246 0.85568 0.07947 0.0
H263 H 0.95755 0.86529 0.06272 0.0
Li264 Li 0.72294 0.46216 0.68512 0.0
Li265 Li 0.77913 0.42945 0.65916 0.0
Li266 Li 0.70776 0.42208 0.64436 0.0
Li267 Li 0.73328 0.37965 0.68322 0.0
C268 C 0.75706 0.51632 0.64803 0.0
N269 N 0.79182 0.59788 0.64771 0.0
C270 C 0.79082 0.52661 0.6649 0.0
C271 C 0.74088 0.54765 0.63103 0.0
C272 C 0.80803 0.56794 0.66442 0.0
C273 C 0.75888 0.58868 0.63116 0.0
C274 C 0.80718 0.42047 0.71282 0.0
C275 C 0.86095 0.37519 0.73265 0.0
N276 N 0.8793 0.41033 0.74377 0.0
C277 C 0.82647 0.45608 0.72467 0.0
C278 C 0.82449 0.37963 0.717 0.0
C279 C 0.86296 0.4503 0.74013 0.0
C280 C 0.72694 0.51118 0.73208 0.0
N281 N 0.71167 0.51142 0.70702 0.0
C282 C 0.69932 0.58716 0.70942 0.0
C283 C 0.69614 0.54806 0.69601 0.0
C284 C 0.71831 0.58847 0.73448 0.0
C285 C 0.73043 0.54949 0.74626 0.0
H286 H 0.73869 0.48161 0.74053 0.0
H287 H 0.68385 0.5475 0.67613 0.0
C288 C 0.83807 0.46326 0.62333 0.0
N289 N 0.83556 0.43971 0.64584 0.0
C290 C 0.87729 0.47932 0.61484 0.0
C291 C 0.91125 0.44252 0.65113 0.0
C292 C 0.87136 0.42746 0.659 0.0
C293 C 0.91416 0.47026 0.62948 0.0
H294 H 0.80926 0.47136 0.61266 0.0
H295 H 0.8691 0.40728 0.67609 0.0
C296 C 0.63704 0.41585 0.67347 0.0
N297 N 0.55204 0.41647 0.65882 0.0
C298 C 0.61269 0.37841 0.67535 0.0
C299 C 0.61822 0.45366 0.66429 0.0
C300 C 0.56974 0.37938 0.66781 0.0
C301 C 0.57518 0.45329 0.65693 0.0
C302 C 0.78335 0.36117 0.63051 0.0
C303 C 0.78452 0.37168 0.60378 0.0
C304 C 0.81607 0.33632 0.64141 0.0
C305 C 0.81865 0.35732 0.5884 0.0
C306 C 0.84964 0.3226 0.62538 0.0
N307 N 0.85024 0.33332 0.59943 0.0
C308 C 0.68602 0.44713 0.59325 0.0
C309 C 0.64802 0.38572 0.60757 0.0
C310 C 0.67033 0.44216 0.5677 0.0
N311 N 0.67521 0.4188 0.61247 0.0
C312 C 0.63116 0.3798 0.5823 0.0
C313 C 0.64303 0.40771 0.56179 0.0
H314 H 0.70914 0.47197 0.59732 0.0
H315 H 0.64112 0.36266 0.62287 0.0
C316 C 0.72838 0.32538 0.72855 0.0
N317 N 0.73172 0.326 0.70186 0.0
C318 C 0.7341 0.28698 0.74243 0.0
C319 C 0.74514 0.25035 0.70111 0.0
C320 C 0.73895 0.28935 0.68802 0.0
C321 C 0.74383 0.24895 0.72874 0.0
H322 H 0.72284 0.35499 0.7391 0.0
H323 H 0.74151 0.29067 0.66681 0.0
O324 O 0.73937 0.47608 0.64834 0.0
O325 O 0.77087 0.42532 0.69797 0.0
O326 O 0.67919 0.41549 0.68049 0.0
O327 O 0.75085 0.37598 0.64604 0.0
H328 H 0.80378 0.50284 0.67806 0.0
H329 H 0.71436 0.54057 0.61806 0.0
H330 H 0.83427 0.57619 0.67734 0.0
H331 H 0.74658 0.61323 0.61815 0.0
H332 H 0.87475 0.3438 0.73587 0.0
H333 H 0.8135 0.48792 0.72211 0.0
H334 H 0.81054 0.35168 0.70791 0.0
H335 H 0.87821 0.47763 0.74931 0.0
H336 H 0.68925 0.61634 0.69965 0.0
H337 H 0.74392 0.54879 0.76589 0.0
H338 H 0.87859 0.49991 0.59768 0.0
H339 H 0.93919 0.43453 0.66276 0.0
H340 H 0.62693 0.34891 0.68241 0.0
H341 H 0.63678 0.48284 0.66267 0.0
H342 H 0.55048 0.35063 0.66907 0.0
H343 H 0.56019 0.48225 0.64968 0.0
H344 H 0.75958 0.39103 0.59504 0.0
H345 H 0.81584 0.32815 0.6621 0.0
H346 H 0.82007 0.36538 0.5677 0.0
H347 H 0.87531 0.30356 0.63359 0.0
H348 H 0.68165 0.46355 0.55243 0.0
H349 H 0.61042 0.35265 0.5786 0.0
H350 H 0.73159 0.28723 0.76368 0.0
H351 H 0.75245 0.22189 0.68974 0.0
Li352 Li 0.54856 0.2831 0.33168 0.0
Li353 Li 0.59231 0.30061 0.36927 0.0
Li354 Li 0.62609 0.27254 0.32649 0.0
Li355 Li 0.58147 0.22657 0.35692 0.0
C356 C 0.57719 0.35991 0.31858 0.0
N357 N 0.54074 0.42412 0.28862 0.0
C358 C 0.54354 0.38425 0.32875 0.0
C359 C 0.59258 0.36834 0.29329 0.0
C360 C 0.52542 0.4165 0.31324 0.0
C361 C 0.57367 0.40097 0.27843 0.0
C362 C 0.51633 0.28126 0.39019 0.0
C363 C 0.50372 0.27969 0.43702 0.0
N364 N 0.47248 0.30966 0.43407 0.0
C365 C 0.48401 0.31196 0.38761 0.0
C366 C 0.52615 0.26483 0.41508 0.0
C367 C 0.46221 0.32589 0.41003 0.0
C368 C 0.46169 0.26977 0.3241 0.0
N369 N 0.49508 0.29063 0.31267 0.0
C370 C 0.4527 0.30392 0.27412 0.0
C371 C 0.49112 0.30805 0.28818 0.0
C372 C 0.41836 0.28115 0.28523 0.0
C373 C 0.42292 0.26506 0.31085 0.0
H374 H 0.46575 0.25475 0.34309 0.0
H375 H 0.51834 0.32294 0.27888 0.0
C376 C 0.63893 0.3243 0.4139 0.0
N377 N 0.60293 0.33464 0.40032 0.0
C378 C 0.64543 0.33982 0.43932 0.0
C379 C 0.5791 0.37901 0.43594 0.0
C380 C 0.57414 0.36305 0.41032 0.0
C381 C 0.61461 0.36637 0.45106 0.0
H382 H 0.66197 0.30257 0.40542 0.0
H383 H 0.54619 0.37164 0.39901 0.0
C384 C 0.55521 0.21735 0.29828 0.0
N385 N 0.50195 0.1904 0.25818 0.0
C386 C 0.52258 0.1879 0.30343 0.0
C387 C 0.561 0.23285 0.27272 0.0
C388 C 0.49591 0.17476 0.2829 0.0
C389 C 0.5337 0.21884 0.25271 0.0
C390 C 0.66027 0.22394 0.37603 0.0
C391 C 0.69385 0.20406 0.36259 0.0
C392 C 0.65048 0.21109 0.4017 0.0
C393 C 0.71675 0.17127 0.37496 0.0
C394 C 0.6741 0.17815 0.41337 0.0
N395 N 0.70645 0.15907 0.39987 0.0
C396 C 0.70957 0.29732 0.30999 0.0
C397 C 0.6802 0.23755 0.28756 0.0
C398 C 0.74888 0.29138 0.29732 0.0
N399 N 0.6764 0.27026 0.30512 0.0
C400 C 0.71882 0.23055 0.27441 0.0
C401 C 0.75415 0.25705 0.27965 0.0
H402 H 0.70596 0.32254 0.32444 0.0
H403 H 0.65368 0.21592 0.28444 0.0
C404 C 0.53645 0.16005 0.38147 0.0
N405 N 0.57276 0.16961 0.36802 0.0
C406 C 0.52516 0.11742 0.3859 0.0
C407 C 0.58977 0.09546 0.3635 0.0
C408 C 0.59956 0.13848 0.35924 0.0
C409 C 0.55137 0.0846 0.37615 0.0
H410 H 0.51499 0.18539 0.38741 0.0
H411 H 0.62745 0.147 0.34784 0.0
O412 O 0.59549 0.32838 0.33346 0.0
O413 O 0.53815 0.26727 0.36847 0.0
O414 O 0.58079 0.23164 0.31828 0.0
O415 O 0.63717 0.25586 0.36417 0.0
H416 H 0.53147 0.37815 0.34835 0.0
H417 H 0.61873 0.34978 0.28523 0.0
H418 H 0.49921 0.4355 0.32078 0.0
H419 H 0.58512 0.40781 0.25879 0.0
H420 H 0.51116 0.26742 0.45641 0.0
H421 H 0.47617 0.32533 0.36856 0.0
H422 H 0.55094 0.24099 0.41745 0.0
H423 H 0.43728 0.34978 0.40833 0.0
H424 H 0.45054 0.31661 0.25432 0.0
H425 H 0.39707 0.24794 0.32037 0.0
H426 H 0.67376 0.33003 0.45003 0.0
H427 H 0.55437 0.39921 0.4442 0.0
H428 H 0.51752 0.17579 0.32314 0.0
H429 H 0.58587 0.25598 0.26848 0.0
H430 H 0.47029 0.15226 0.28663 0.0
H431 H 0.53758 0.2308 0.23287 0.0
H432 H 0.70204 0.21359 0.34278 0.0
H433 H 0.62481 0.22628 0.41244 0.0
H434 H 0.74267 0.15548 0.36474 0.0
H435 H 0.66671 0.16776 0.43317 0.0
H436 H 0.7753 0.31252 0.30196 0.0
H437 H 0.72112 0.20432 0.26051 0.0
H438 H 0.49505 0.11021 0.39546 0.0
H439 H 0.61101 0.07093 0.35596 0.0
Li440 Li 0.23377 0.13331 0.83102 0.0
Li441 Li 0.20814 0.09265 0.87164 0.0
Li442 Li 0.28089 0.08563 0.85547 0.0
Li443 Li 0.22438 0.05272 0.83046 0.0
C444 C 0.28675 0.15958 0.87864 0.0
N445 N 0.35838 0.19904 0.8993 0.0
C446 C 0.29537 0.15699 0.90559 0.0
C447 C 0.31446 0.18238 0.86222 0.0
C448 C 0.33178 0.17712 0.91565 0.0
C449 C 0.35052 0.20209 0.87303 0.0
C450 C 0.1393 0.07989 0.83538 0.0
C451 C 0.08976 0.02603 0.85052 0.0
N452 N 0.05954 0.04195 0.83392 0.0
C453 C 0.10781 0.09572 0.81845 0.0
C454 C 0.13027 0.04477 0.85154 0.0
C455 C 0.06765 0.0761 0.81801 0.0
C456 C 0.23872 0.18648 0.78543 0.0
N457 N 0.23141 0.18616 0.81182 0.0
C458 C 0.23141 0.26292 0.81295 0.0
C459 C 0.22697 0.22331 0.82559 0.0
C460 C 0.24064 0.26426 0.78591 0.0
C461 C 0.2438 0.2254 0.77205 0.0
H462 H 0.24233 0.15647 0.77497 0.0
H463 H 0.22163 0.22214 0.84661 0.0
C464 C 0.20282 0.08259 0.92495 0.0
N465 N 0.17815 0.09476 0.90425 0.0
C466 C 0.18756 0.08599 0.95062 0.0
C467 C 0.12054 0.11224 0.9333 0.0
C468 C 0.13747 0.10898 0.90781 0.0
C469 C 0.14612 0.10162 0.9552 0.0
H470 H 0.23502 0.07128 0.92149 0.0
H471 H 0.11845 0.11843 0.891 0.0
C472 C 0.30929 0.08369 0.80326 0.0
N473 N 0.38489 0.07403 0.77572 0.0
C474 C 0.32625 0.04281 0.79891 0.0
C475 C 0.33058 0.11963 0.79328 0.0
C476 C 0.36457 0.0386 0.78505 0.0
C477 C 0.36881 0.11409 0.77948 0.0
C478 C 0.2485 0.99878 0.87335 0.0
C479 C 0.28238 0.9762 0.86199 0.0
C480 C 0.22165 0.97811 0.89131 0.0
C481 C 0.28847 0.93309 0.86847 0.0
C482 C 0.22878 0.93495 0.89729 0.0
N483 N 0.26174 0.91351 0.88582 0.0
C484 C 0.33997 0.05162 0.89087 0.0
C485 C 0.37275 0.09021 0.85616 0.0
C486 C 0.37954 0.03674 0.89955 0.0
N487 N 0.33714 0.076 0.86873 0.0
C488 C 0.413 0.07632 0.8642 0.0
C489 C 0.41647 0.04812 0.88563 0.0
H490 H 0.3113 0.04222 0.90121 0.0
H491 H 0.37004 0.11122 0.83943 0.0
C492 C 0.22673 0.00331 0.78382 0.0
N493 N 0.2127 0.00288 0.80916 0.0
C494 C 0.22878 0.96524 0.76929 0.0
C495 C 0.19932 0.92738 0.80657 0.0
C496 C 0.1974 0.96624 0.82027 0.0
C497 C 0.21622 0.92643 0.78098 0.0
H498 H 0.23872 0.03279 0.77538 0.0
H499 H 0.1857 0.96658 0.84024 0.0
O500 O 0.25197 0.13905 0.86824 0.0
O501 O 0.17883 0.09859 0.8359 0.0
O502 O 0.27158 0.0885 0.81663 0.0
O503 O 0.24169 0.04097 0.86714 0.0
H504 H 0.27433 0.13952 0.9186 0.0
H505 H 0.30859 0.18431 0.84128 0.0
H506 H 0.33893 0.17526 0.93645 0.0
H507 H 0.37236 0.21961 0.86052 0.0
H508 H 0.08235 0.99883 0.86293 0.0
H509 H 0.11437 0.12285 0.80578 0.0
H510 H 0.15425 0.03215 0.86473 0.0
H511 H 0.04295 0.08801 0.80501 0.0
H512 H 0.22927 0.29215 0.8244 0.0
H513 H 0.25072 0.22514 0.75116 0.0
H514 H 0.20865 0.07774 0.96676 0.0
H515 H 0.08802 0.12336 0.9358 0.0
H516 H 0.30994 0.01455 0.80597 0.0
H517 H 0.31823 0.15155 0.79653 0.0
H518 H 0.37807 0.00715 0.78163 0.0
H519 H 0.38576 0.14166 0.77185 0.0
H520 H 0.30395 0.99187 0.8485 0.0
H521 H 0.1954 0.99513 0.90043 0.0
H522 H 0.31452 0.91523 0.85976 0.0
H523 H 0.20811 0.9185 0.91105 0.0
H524 H 0.38116 0.01541 0.91635 0.0
H525 H 0.44082 0.08566 0.85289 0.0
H526 H 0.24226 0.96582 0.74966 0.0
H527 H 0.18889 0.89815 0.81614 0.0
Li528 Li 0.46096 0.7189 0.3316 0.0
Li529 Li 0.418 0.70136 0.36894 0.0
Li530 Li 0.38541 0.73397 0.32809 0.0
Li531 Li 0.43477 0.77565 0.35743 0.0
C532 C 0.43033 0.64327 0.31937 0.0
N533 N 0.46732 0.57648 0.29194 0.0
C534 C 0.46336 0.61949 0.33078 0.0
C535 C 0.41581 0.63296 0.29415 0.0
C536 C 0.48176 0.5859 0.31653 0.0
C537 C 0.43499 0.59906 0.28057 0.0
C538 C 0.48549 0.73719 0.39466 0.0
C539 C 0.46794 0.76052 0.43866 0.0
N540 N 0.50786 0.74946 0.44679 0.0
C541 C 0.52639 0.72618 0.40348 0.0
C542 C 0.45604 0.75467 0.4124 0.0
C543 C 0.53707 0.73261 0.42989 0.0
C544 C 0.54817 0.7261 0.3246 0.0
N545 N 0.51376 0.70809 0.31252 0.0
C546 C 0.55564 0.69518 0.27376 0.0
C547 C 0.51712 0.69163 0.28775 0.0
C548 C 0.5908 0.71597 0.28538 0.0
C549 C 0.58709 0.73003 0.31149 0.0
H550 H 0.54491 0.73961 0.34404 0.0
H551 H 0.48938 0.67826 0.27814 0.0
C552 C 0.367 0.66536 0.40877 0.0
N553 N 0.40735 0.66574 0.39887 0.0
C554 C 0.35921 0.64872 0.43385 0.0
C555 C 0.43432 0.63148 0.4376 0.0
C556 C 0.44051 0.64763 0.41221 0.0
C557 C 0.39345 0.63302 0.44885 0.0
H558 H 0.3413 0.68006 0.39776 0.0
H559 H 0.47227 0.64818 0.40385 0.0
C560 C 0.45258 0.77852 0.29501 0.0
N561 N 0.49367 0.78972 0.24735 0.0
C562 C 0.48676 0.80722 0.29292 0.0
C563 C 0.43917 0.7557 0.2728 0.0
C564 C 0.50723 0.81227 0.26869 0.0
C565 C 0.46028 0.76188 0.24887 0.0
C566 C 0.34657 0.78182 0.36858 0.0
C567 C 0.34306 0.81437 0.34976 0.0
C568 C 0.31769 0.78036 0.38953 0.0
C569 C 0.31043 0.84472 0.3521 0.0
C570 C 0.28556 0.81138 0.39122 0.0
N571 N 0.2826 0.84261 0.37261 0.0
C572 C 0.29863 0.71608 0.3159 0.0
C573 C 0.33001 0.76959 0.28901 0.0
C574 C 0.2587 0.72311 0.3042 0.0
N575 N 0.33325 0.73932 0.30822 0.0
C576 C 0.29086 0.77734 0.27663 0.0
C577 C 0.25443 0.75437 0.28443 0.0
H578 H 0.30184 0.69285 0.3316 0.0
H579 H 0.35746 0.78888 0.2839 0.0
C580 C 0.49436 0.83664 0.36448 0.0
N581 N 0.4523 0.8301 0.36967 0.0
C582 C 0.51262 0.87669 0.3685 0.0
C583 C 0.44473 0.90197 0.38519 0.0
C584 C 0.42768 0.86111 0.38085 0.0
C585 C 0.48724 0.91025 0.37799 0.0
H586 H 0.51327 0.81102 0.35614 0.0
H587 H 0.39466 0.8548 0.3856 0.0
O588 O 0.41184 0.67611 0.33301 0.0
O589 O 0.4745 0.73004 0.36889 0.0
O590 O 0.43264 0.77237 0.3187 0.0
O591 O 0.37757 0.75103 0.36636 0.0
H592 H 0.47479 0.62711 0.35035 0.0
H593 H 0.39011 0.65104 0.28515 0.0
H594 H 0.50752 0.56732 0.32503 0.0
H595 H 0.42423 0.59076 0.26098 0.0
H596 H 0.44538 0.77377 0.45259 0.0
H597 H 0.54953 0.71238 0.39011 0.0
H598 H 0.42422 0.76337 0.40615 0.0
H599 H 0.56856 0.72407 0.43697 0.0
H600 H 0.55723 0.6838 0.25365 0.0
H601 H 0.6137 0.74519 0.32147 0.0
H602 H 0.32731 0.65048 0.44206 0.0
H603 H 0.46136 0.61948 0.44871 0.0
H604 H 0.49754 0.8253 0.30979 0.0
H605 H 0.41324 0.73284 0.27414 0.0
H606 H 0.53392 0.83414 0.26685 0.0
H607 H 0.45039 0.74424 0.23158 0.0
H608 H 0.36544 0.81646 0.33362 0.0
H609 H 0.32003 0.75554 0.40435 0.0
H610 H 0.30733 0.87002 0.33765 0.0
H611 H 0.26296 0.8106 0.40732 0.0
H612 H 0.23144 0.70437 0.31055 0.0
H613 H 0.28879 0.80192 0.26161 0.0
H614 H 0.54576 0.88191 0.36318 0.0
H615 H 0.42445 0.92728 0.39276 0.0
Li616 Li 0.76877 0.96131 0.83581 0.0
Li617 Li 0.71404 0.9255 0.85999 0.0
Li618 Li 0.78713 0.91625 0.874 0.0
Li619 Li 0.76083 0.88254 0.83299 0.0
C620 C 0.77764 1.00102 0.88491 0.0
N621 N 0.82671 0.06429 0.90815 0.0
C622 C 0.75959 0.02853 0.90357 0.0
C623 C 0.82073 0.00563 0.87813 0.0
C624 C 0.78491 0.06034 0.91507 0.0
C625 C 0.84497 0.03782 0.89009 0.0
C626 C 0.69139 0.95509 0.81001 0.0
C627 C 0.64615 0.97566 0.77367 0.0
N628 N 0.63386 0.01123 0.78719 0.0
C629 C 0.67825 0.99186 0.82355 0.0
C630 C 0.67518 0.94688 0.78488 0.0
C631 C 0.64917 0.01983 0.81169 0.0
C632 C 0.78815 0.01314 0.7902 0.0
N633 N 0.77701 0.01433 0.81611 0.0
C634 C 0.76387 0.08997 0.8132 0.0
C635 C 0.76486 0.0519 0.82759 0.0
C636 C 0.77456 0.08968 0.78645 0.0
C637 C 0.78692 0.05064 0.77487 0.0
H638 H 0.79632 0.98279 0.78118 0.0
H639 H 0.7535 0.05234 0.84758 0.0
C640 C 0.65371 0.95344 0.89623 0.0
N641 N 0.65815 0.93213 0.87308 0.0
C642 C 0.61362 0.96816 0.90405 0.0
C643 C 0.58323 0.93548 0.86508 0.0
C644 C 0.6239 0.9215 0.85799 0.0
C645 C 0.57819 0.96064 0.88778 0.0
H646 H 0.68165 0.96104 0.90785 0.0
H647 H 0.62854 0.90471 0.83959 0.0
C648 C 0.84978 0.88947 0.83724 0.0
N649 N 0.91869 0.83411 0.83548 0.0
C650 C 0.85084 0.85333 0.8535 0.0
C651 C 0.88377 0.8975 0.82011 0.0
C652 C 0.88594 0.82571 0.85231 0.0
C653 C 0.91833 0.86913 0.81951 0.0
C654 C 0.71156 0.84317 0.87598 0.0
C655 C 0.70786 0.82793 0.90175 0.0
C656 C 0.68247 0.82957 0.85682 0.0
C657 C 0.67498 0.79933 0.90794 0.0
C658 C 0.65006 0.80094 0.86379 0.0
N659 N 0.647 0.78655 0.889 0.0
C660 C 0.78816 0.90945 0.92667 0.0
C661 C 0.85964 0.90676 0.91129 0.0
C662 C 0.80154 0.90289 0.95247 0.0
N663 N 0.81689 0.91018 0.90665 0.0
C664 C 0.87459 0.90026 0.93707 0.0
C665 C 0.8451 0.89726 0.95787 0.0
H666 H 0.75451 0.91339 0.92242 0.0
H667 H 0.88199 0.90842 0.89509 0.0
C668 C 0.7479 0.83112 0.7868 0.0
N669 N 0.76189 0.83082 0.81217 0.0
C670 C 0.74259 0.79253 0.77301 0.0
C671 C 0.76723 0.75417 0.81143 0.0
C672 C 0.77167 0.79334 0.82452 0.0
C673 C 0.7521 0.75336 0.78541 0.0
H674 H 0.73962 0.86122 0.77754 0.0
H675 H 0.78128 0.79361 0.84495 0.0
O676 O 0.75324 0.96943 0.87372 0.0
O677 O 0.72001 0.9272 0.82115 0.0
O678 O 0.81576 0.91701 0.83792 0.0
O679 O 0.74312 0.87172 0.86962 0.0
H680 H 0.72632 0.02548 0.90905 0.0
H681 H 0.83539 0.98469 0.86381 0.0
H682 H 0.77132 0.0819 0.92949 0.0
H683 H 0.87831 0.04176 0.88501 0.0
H684 H 0.63338 0.9697 0.75422 0.0
H685 H 0.69031 0.9988 0.84303 0.0
H686 H 0.68492 0.91858 0.77412 0.0
H687 H 0.63877 0.04837 0.82196 0.0
H688 H 0.75291 0.1191 0.82267 0.0
H689 H 0.79495 0.04908 0.75416 0.0
H690 H 0.61065 0.98698 0.92188 0.0
H691 H 0.55655 0.92928 0.85202 0.0
H692 H 0.82499 0.84675 0.86701 0.0
H693 H 0.88341 0.92539 0.8074 0.0
H694 H 0.88718 0.79763 0.8648 0.0
H695 H 0.94487 0.87495 0.80634 0.0
H696 H 0.73017 0.83793 0.91681 0.0
H697 H 0.68453 0.84142 0.83685 0.0
H698 H 0.67172 0.7873 0.92781 0.0
H699 H 0.62724 0.79029 0.84919 0.0
H700 H 0.77796 0.90165 0.96806 0.0
H701 H 0.9085 0.89637 0.94061 0.0
H702 H 0.73076 0.79323 0.75298 0.0
H703 H 0.77404 0.72467 0.8219 0.0
C704 C 0.13271 0.08595 0.02916 0.0
C705 C 0.1129 0.12418 0.03708 0.0
C706 C 0.14135 0.078 1.00249 0.0
C707 C 0.13123 0.10838 0.98282 0.0
H708 H 0.14226 0.06244 0.04373 0.0
H709 H 0.15697 0.04817 0.9973 0.0
S710 S 0.07948 0.21408 0.99412 0.0
N711 N 0.08271 0.19238 0.0237 0.0
N712 N 0.10034 0.17858 0.9737 0.0
C713 C 0.11061 0.14649 0.99067 0.0
C714 C 0.10125 0.15416 0.01778 0.0
C715 C 0.35041 0.58109 0.5109 0.0
C716 C 0.36578 0.60828 0.53101 0.0
C717 C 0.36046 0.5884 0.48436 0.0
C718 C 0.38698 0.62262 0.47698 0.0
H719 H 0.32965 0.55438 0.51564 0.0
H720 H 0.34686 0.56759 0.46947 0.0
S721 S 0.43589 0.70317 0.52131 0.0
N722 N 0.40886 0.67123 0.54119 0.0
N723 N 0.42895 0.68365 0.4914 0.0
C724 C 0.4038 0.64918 0.49673 0.0
C725 C 0.39304 0.64227 0.52373 0.0
C726 C 0.89791 0.90417 0.02535 0.0
C727 C 0.87876 0.86985 0.03902 0.0
C728 C 0.88799 0.91236 0.99878 0.0
C729 C 0.85864 0.88647 0.98507 0.0
H730 H 0.92 0.92533 0.03541 0.0
H731 H 0.90245 0.93973 0.98913 0.0
S732 S 0.80437 0.78933 0.01069 0.0
N733 N 0.83246 0.80735 0.03588 0.0
N734 N 0.81355 0.82312 0.98632 0.0
C735 C 0.84063 0.85119 0.99822 0.0
C736 C 0.85074 0.8428 0.02508 0.0
C737 C 0.63001 0.34609 0.49778 0.0
C738 C 0.6187 0.37798 0.47941 0.0
C739 C 0.6363 0.35583 0.52441 0.0
C740 C 0.63147 0.39793 0.53394 0.0
H741 H 0.63443 0.31318 0.49147 0.0
H742 H 0.6464 0.33029 0.53746 0.0
S743 S 0.59952 0.49287 0.4944 0.0
N744 N 0.6015 0.45328 0.47283 0.0
N745 N 0.61216 0.47145 0.52311 0.0
C746 C 0.6188 0.42998 0.51598 0.0
C747 C 0.61254 0.42003 0.48873 0.0
C748 C 0.31759 0.29948 0.24445 0.0
C749 C 0.29898 0.25831 0.2432 0.0
C750 C 0.35661 0.30652 0.25751 0.0
C751 C 0.3784 0.27275 0.27006 0.0
H752 H 0.30186 0.32655 0.23523 0.0
H753 H 0.36933 0.33881 0.25828 0.0
S754 S 0.3445 0.15865 0.27177 0.0
N755 N 0.30604 0.1832 0.25537 0.0
N756 N 0.37961 0.19624 0.2793 0.0
C757 C 0.36065 0.23131 0.2685 0.0
C758 C 0.32099 0.22413 0.25521 0.0
C759 C 0.25625 0.81333 0.76739 0.0
C760 C 0.24241 0.8054 0.74146 0.0
C761 C 0.24703 0.85224 0.78011 0.0
C762 C 0.22376 0.88486 0.76739 0.0
H763 H 0.27491 0.78953 0.77785 0.0
H764 H 0.25895 0.85716 0.79991 0.0
S765 S 0.17685 0.87905 0.70048 0.0
N766 N 0.20154 0.83262 0.70423 0.0
N767 N 0.18516 0.90595 0.72801 0.0
C768 C 0.20919 0.87724 0.74166 0.0
C769 C 0.21826 0.83751 0.72874 0.0
C770 C 0.65112 0.69154 0.25625 0.0
C771 C 0.63071 0.7246 0.27026 0.0
C772 C 0.69008 0.69869 0.24319 0.0
C773 C 0.71004 0.73927 0.24344 0.0
H774 H 0.63738 0.65966 0.25586 0.0
H775 H 0.70471 0.67214 0.2328 0.0
S776 S 0.66831 0.83718 0.27614 0.0
N777 N 0.63211 0.80005 0.2824 0.0
N778 N 0.70569 0.81314 0.25858 0.0
C779 C 0.68939 0.77282 0.25691 0.0
C780 C 0.64974 0.76556 0.27015 0.0
C781 C 0.73547 0.16907 0.73477 0.0
C782 C 0.75351 0.20824 0.74311 0.0
C783 C 0.74362 0.13055 0.74829 0.0
C784 C 0.77003 0.12971 0.77071 0.0
H785 H 0.71407 0.16831 0.718 0.0
H786 H 0.72807 0.10145 0.74164 0.0
S787 S 0.82903 0.2221 0.79889 0.0
N788 N 0.80214 0.24271 0.77393 0.0
N789 N 0.81664 0.17062 0.79952 0.0
C790 C 0.78927 0.16828 0.77878 0.0
C791 C 0.78121 0.20741 0.76497 0.0
C792 C 0.81925 0.28275 0.25537 0.0
C793 C 0.79637 0.24879 0.26695 0.0
C794 C 0.85858 0.27571 0.2428 0.0
C795 C 0.87687 0.23445 0.2414 0.0
H796 H 0.80634 0.31499 0.25564 0.0
H797 H 0.87488 0.30293 0.23415 0.0
S798 S 0.83078 0.13484 0.26952 0.0
N799 N 0.79581 0.17253 0.27713 0.0
N800 N 0.8692 0.15922 0.25302 0.0
C801 C 0.85468 0.2003 0.25325 0.0
C802 C 0.81456 0.20746 0.26604 0.0
C803 C 0.29529 0.3509 0.74518 0.0
C804 C 0.26685 0.38581 0.74692 0.0
C805 C 0.28643 0.3117 0.75768 0.0
C806 C 0.24885 0.30589 0.77249 0.0
H807 H 0.32479 0.35396 0.73419 0.0
H808 H 0.30945 0.28588 0.75601 0.0
S809 S 0.16224 0.38574 0.78145 0.0
N810 N 0.19821 0.41088 0.76336 0.0
N811 N 0.18208 0.33753 0.78716 0.0
C812 C 0.21999 0.34031 0.77422 0.0
C813 C 0.22885 0.38013 0.76138 0.0
C814 C 0.20882 0.76219 0.24416 0.0
C815 C 0.21238 0.7629 0.27176 0.0
C816 C 0.16934 0.76869 0.23167 0.0
C817 C 0.13195 0.77683 0.24626 0.0
H818 H 0.23663 0.75555 0.23213 0.0
H819 H 0.16795 0.76694 0.21039 0.0
S820 S 0.12444 0.78418 0.31895 0.0
N821 N 0.17543 0.77395 0.31329 0.0
N822 N 0.10119 0.78627 0.28977 0.0
C823 C 0.13523 0.77877 0.27383 0.0
C824 C 0.1754 0.77167 0.28658 0.0
C825 C 0.69629 0.66295 0.74831 0.0
C826 C 0.72751 0.63039 0.74754 0.0
C827 C 0.70468 0.70281 0.76019 0.0
C828 C 0.74458 0.71168 0.77182 0.0
H829 H 0.66492 0.65739 0.73994 0.0
H830 H 0.67945 0.7266 0.76072 0.0
S831 S 0.83866 0.63931 0.77271 0.0
N832 N 0.80108 0.61123 0.75774 0.0
N833 N 0.81644 0.68572 0.78034 0.0
C834 C 0.77631 0.67981 0.77074 0.0
C835 C 0.76789 0.63934 0.75856 0.0
C836 C 0.96913 0.51308 0.11452 0.0
C837 C 0.99711 0.54703 0.12025 0.0
C838 C 0.98403 0.47077 0.11351 0.0
C839 C 0.02733 0.46107 0.11827 0.0
H840 H 0.9351 0.51881 0.1127 0.0
H841 H 0.96104 0.44522 0.11055 0.0
S842 S 0.11444 0.53976 0.1295 0.0
N843 N 0.07084 0.56925 0.12668 0.0
N844 N 0.09873 0.48956 0.12581 0.0
C845 C 0.05618 0.4952 0.12161 0.0
C846 C 0.04104 0.53827 0.12241 0.0
C847 C 0.99305 0.46943 0.62251 0.0
C848 C 0.95476 0.49279 0.62421 0.0
C849 C 0.03261 0.49036 0.62231 0.0
C850 C 0.03515 0.53533 0.62411 0.0
H851 H 0.99243 0.43467 0.62242 0.0
H852 H 0.06141 0.47106 0.62237 0.0
S853 S 0.94408 0.61122 0.62674 0.0
N854 N 0.9216 0.56331 0.62606 0.0
N855 N 0.99614 0.60269 0.62547 0.0
C856 C 0.99706 0.55914 0.62436 0.0
C857 C 0.95677 0.53785 0.62442 0.0
C858 C 0.52029 0.02161 0.40013 0.0
C859 C 0.53646 0.0396 0.37675 0.0
C860 C 0.50422 0.9796 0.40056 0.0
C861 C 0.50405 0.95441 0.37765 0.0
H862 H 0.52014 0.04011 0.41818 0.0
H863 H 0.49217 0.96663 0.4189 0.0
S864 S 0.53866 0.98792 0.31096 0.0
N865 N 0.54831 0.02997 0.32978 0.0
N866 N 0.51876 0.95098 0.33074 0.0
C867 C 0.5195 0.97222 0.35412 0.0
C868 C 0.53559 0.01484 0.35363 0.0
C869 C 0.45944 0.98161 0.89126 0.0
C870 C 0.45757 0.0267 0.89122 0.0
C871 C 0.49873 0.96016 0.89164 0.0
C872 C 0.53734 0.98312 0.89231 0.0
H873 H 0.43046 0.9628 0.88944 0.0
H874 H 0.49899 0.92546 0.89036 0.0
S875 S 0.54944 0.10144 0.89484 0.0
N876 N 0.49726 0.09351 0.89391 0.0
N877 N 0.57133 0.05324 0.89441 0.0
C878 C 0.53581 0.02814 0.89378 0.0
C879 C 0.49583 0.04995 0.89325 0.0
loop_
_geom_bond_atom_site_label_1
_geom_bond_atom_site_label_2
_geom_bond_distance
_geom_bond_site_symmetry_2
_ccdc_geom_bond_type
Li0 N17 1.990 . S
Li0 O60 1.956 . S
Li0 O61 1.970 . S
Li0 O62 1.961 . S
Li1 N25 1.990 . S
Li1 O60 1.970 . S
Li1 O61 1.956 . S
Li1 O63 1.961 . S
Li2 N47 1.990 . S
Li2 O60 1.961 . S
Li2 O62 1.956 . S
Li2 O63 1.970 . S
Li3 N53 1.990 1_455 S
Li3 O61 1.961 . S
Li3 O62 1.970 . S
Li3 O63 1.956 . S
C4 C6 1.348 . S
C4 C7 1.356 . S
C4 O60 1.325 . S
N5 C8 1.314 . S
N5 C9 1.279 . S
C6 C4 1.348 . S
C6 C8 1.353 . S
C6 H64 0.929 . S
C7 C4 1.356 . S
C7 C9 1.358 . S
C7 H65 0.930 . S
C8 N5 1.314 . S
C8 C6 1.353 . S
C8 H66 0.930 . S
C9 N5 1.279 . S
C9 C7 1.358 . S
C9 H67 0.930 . S
C10 C13 1.348 . S
C10 C14 1.356 . S
C10 O61 1.325 . S
C11 N12 1.279 . S
C11 C14 1.358 . S
C11 H68 0.930 . S
N12 C11 1.279 . S
N12 C15 1.314 . S
C13 C10 1.348 . S
C13 C15 1.353 . S
C13 H69 0.929 . S
C14 C10 1.356 . S
C14 C11 1.358 . S
C14 H70 0.930 . S
C15 N12 1.314 . S
C15 C13 1.353 . S
C15 H71 0.930 . S
C16 N17 1.314 . S
C16 C21 1.353 . S
C16 H22 0.930 1_455 S
N17 Li0 1.990 . S
N17 C16 1.314 . S
N17 C19 1.279 . S
C18 C19 1.358 . S
C18 C20 1.356 . S
C18 H72 0.930 . S
C19 N17 1.279 . S
C19 C18 1.358 . S
C19 H23 0.930 . S
C20 C18 1.356 . S
C20 C21 1.348 . S
C21 C16 1.353 . S
C21 C20 1.348 . S
C21 H73 0.929 1_455 S
H22 C16 0.930 1_655 S
H23 C19 0.930 . S
C24 N25 1.314 . S
C24 C26 1.353 . S
C24 H30 0.930 . S
N25 Li1 1.990 . S
N25 C24 1.314 . S
N25 C28 1.279 . S
C26 C24 1.353 . S
C26 C29 1.348 . S
C26 H74 0.929 . S
C27 C28 1.358 . S
C27 C29 1.356 . S
C27 H75 0.930 . S
C28 N25 1.279 . S
C28 C27 1.358 . S
C28 H31 0.930 . S
C29 C26 1.348 . S
C29 C27 1.356 . S
H30 C24 0.930 . S
H31 C28 0.930 . S
C32 C34 1.348 . S
C32 C35 1.356 . S
C32 O62 1.325 1_655 S
N33 C36 1.314 . S
N33 C37 1.279 . S
C34 C32 1.348 . S
C34 C36 1.353 . S
C34 H76 0.929 . S
C35 C32 1.356 . S
C35 C37 1.358 . S
C35 H77 0.930 1_655 S
C36 N33 1.314 . S
C36 C34 1.353 . S
C36 H78 0.930 . S
C37 N33 1.279 . S
C37 C35 1.358 . S
C37 H79 0.930 . S
C38 C39 1.348 . S
C38 C40 1.356 . S
C38 O63 1.325 . S
C39 C38 1.348 . S
C39 C41 1.353 . S
C39 H80 0.929 . S
C40 C38 1.356 . S
C40 C42 1.358 . S
C40 H81 0.930 . S
C41 C39 1.353 . S
C41 N43 1.314 . S
C41 H82 0.930 . S
C42 C40 1.358 . S
C42 N43 1.279 . S
C42 H83 0.930 . S
N43 C41 1.314 . S
N43 C42 1.279 . S
C44 C46 1.353 . S
C44 N47 1.314 . S
C44 H50 0.930 . S
C45 N47 1.279 . S
C45 C48 1.358 . S
C45 H51 0.930 . S
C46 C44 1.353 . S
C46 C49 1.348 . S
C46 H84 0.929 . S
N47 Li2 1.990 . S
N47 C44 1.314 . S
N47 C45 1.279 . S
C48 C45 1.358 . S
C48 C49 1.356 . S
C48 H85 0.930 . S
C49 C46 1.348 . S
C49 C48 1.356 . S
H50 C44 0.930 . S
H51 C45 0.930 . S
C52 N53 1.314 . S
C52 C54 1.353 . S
C52 H58 0.930 . S
N53 Li3 1.990 1_655 S
N53 C52 1.314 . S
N53 C56 1.279 . S
C54 C52 1.353 . S
C54 C57 1.348 . S
C54 H86 0.929 . S
C55 C56 1.358 . S
C55 C57 1.356 . S
C55 H87 0.930 . S
C56 N53 1.279 . S
C56 C55 1.358 . S
C56 H59 0.930 . S
C57 C54 1.348 . S
C57 C55 1.356 . S
H58 C52 0.930 . S
H59 C56 0.930 . S
O60 Li0 1.956 . S
O60 Li1 1.970 . S
O60 Li2 1.961 . S
O60 C4 1.325 . S
O61 Li0 1.970 . S
O61 Li1 1.956 . S
O61 Li3 1.961 . S
O61 C10 1.325 . S
O62 Li0 1.961 . S
O62 Li2 1.956 . S
O62 Li3 1.970 . S
O62 C32 1.325 1_455 S
O63 Li1 1.961 . S
O63 Li2 1.970 . S
O63 Li3 1.956 . S
O63 C38 1.325 . S
H64 C6 0.929 . S
H65 C7 0.930 . S
H66 C8 0.930 . S
H67 C9 0.930 . S
H68 C11 0.930 . S
H69 C13 0.929 . S
H70 C14 0.930 . S
H71 C15 0.930 . S
H72 C18 0.930 . S
H73 C21 0.929 1_655 S
H74 C26 0.929 . S
H75 C27 0.930 . S
H76 C34 0.929 . S
H77 C35 0.930 1_455 S
H78 C36 0.930 . S
H79 C37 0.930 . S
H80 C39 0.929 . S
H81 C40 0.930 . S
H82 C41 0.930 . S
H83 C42 0.930 . S
H84 C46 0.929 . S
H85 C48 0.930 . S
H86 C54 0.929 . S
H87 C55 0.930 . S
Li88 N105 1.990 . S
Li88 O148 1.956 . S
Li88 O149 1.970 . S
Li88 O150 1.961 . S
Li89 N113 1.990 . S
Li89 O148 1.970 . S
Li89 O149 1.956 . S
Li89 O151 1.961 . S
Li90 N135 1.990 . S
Li90 O148 1.961 . S
Li90 O150 1.956 . S
Li90 O151 1.970 . S
Li91 N141 1.990 . S
Li91 O149 1.961 . S
Li91 O150 1.970 . S
Li91 O151 1.956 . S
C92 C94 1.348 . S
C92 C95 1.356 . S
C92 O148 1.325 . S
N93 C96 1.314 . S
N93 C97 1.279 . S
C94 C92 1.348 . S
C94 C96 1.353 . S
C94 H152 0.929 . S
C95 C92 1.356 . S
C95 C97 1.358 . S
C95 H153 0.930 . S
C96 N93 1.314 . S
C96 C94 1.353 . S
C96 H154 0.930 . S
C97 N93 1.279 . S
C97 C95 1.358 . S
C97 H155 0.930 . S
C98 C101 1.348 . S
C98 C102 1.356 . S
C98 O149 1.325 . S
C99 N100 1.279 . S
C99 C102 1.358 . S
C99 H156 0.930 . S
N100 C99 1.279 . S
N100 C103 1.314 . S
C101 C98 1.348 . S
C101 C103 1.353 . S
C101 H157 0.929 . S
C102 C98 1.356 . S
C102 C99 1.358 . S
C102 H158 0.930 . S
C103 N100 1.314 . S
C103 C101 1.353 . S
C103 H159 0.930 . S
C104 N105 1.314 . S
C104 C109 1.353 . S
C104 H110 0.930 . S
N105 Li88 1.990 . S
N105 C104 1.314 . S
N105 C107 1.279 . S
C106 C107 1.358 . S
C106 C108 1.356 . S
C106 H160 0.930 . S
C107 N105 1.279 . S
C107 C106 1.358 . S
C107 H111 0.930 . S
C108 C106 1.356 . S
C108 C109 1.348 . S
C109 C104 1.353 . S
C109 C108 1.348 . S
C109 H161 0.929 . S
H110 C104 0.930 . S
H111 C107 0.930 . S
C112 N113 1.314 . S
C112 C114 1.353 . S
C112 H118 0.930 . S
N113 Li89 1.990 . S
N113 C112 1.314 . S
N113 C116 1.279 . S
C114 C112 1.353 . S
C114 C117 1.348 . S
C114 H162 0.929 . S
C115 C116 1.358 . S
C115 C117 1.356 . S
C115 H163 0.930 . S
C116 N113 1.279 . S
C116 C115 1.358 . S
C116 H119 0.930 . S
C117 C114 1.348 . S
C117 C115 1.356 . S
H118 C112 0.930 . S
H119 C116 0.930 . S
C120 C122 1.348 . S
C120 C123 1.356 . S
C120 O150 1.325 . S
N121 C124 1.314 . S
N121 C125 1.279 . S
C122 C120 1.348 . S
C122 C124 1.353 . S
C122 H164 0.929 . S
C123 C120 1.356 . S
C123 C125 1.358 . S
C123 H165 0.930 . S
C124 N121 1.314 . S
C124 C122 1.353 . S
C124 H166 0.930 . S
C125 N121 1.279 . S
C125 C123 1.358 . S
C125 H167 0.930 . S
C126 C127 1.348 . S
C126 C128 1.356 . S
C126 O151 1.325 . S
C127 C126 1.348 . S
C127 C129 1.353 . S
C127 H168 0.929 . S
C128 C126 1.356 . S
C128 C130 1.358 . S
C128 H169 0.930 . S
C129 C127 1.353 . S
C129 N131 1.314 . S
C129 H170 0.930 . S
C130 C128 1.358 . S
C130 N131 1.279 . S
C130 H171 0.930 . S
N131 C129 1.314 . S
N131 C130 1.279 . S
C132 C134 1.353 . S
C132 N135 1.314 . S
C132 H138 0.930 . S
C133 N135 1.279 . S
C133 C136 1.358 . S
C133 H139 0.930 . S
C134 C132 1.353 . S
C134 C137 1.348 . S
C134 H172 0.929 . S
N135 Li90 1.990 . S
N135 C132 1.314 . S
N135 C133 1.279 . S
C136 C133 1.358 . S
C136 C137 1.356 . S
C136 H173 0.930 . S
C137 C134 1.348 . S
C137 C136 1.356 . S
H138 C132 0.930 . S
H139 C133 0.930 . S
C140 N141 1.314 . S
C140 C142 1.353 . S
C140 H146 0.930 . S
N141 Li91 1.990 . S
N141 C140 1.314 . S
N141 C144 1.279 . S
C142 C140 1.353 . S
C142 C145 1.348 . S
C142 H174 0.929 . S
C143 C144 1.358 . S
C143 C145 1.356 . S
C143 H175 0.930 . S
C144 N141 1.279 . S
C144 C143 1.358 . S
C144 H147 0.930 . S
C145 C142 1.348 . S
C145 C143 1.356 . S
H146 C140 0.930 . S
H147 C144 0.930 . S
O148 Li88 1.956 . S
O148 Li89 1.970 . S
O148 Li90 1.961 . S
O148 C92 1.325 . S
O149 Li88 1.970 . S
O149 Li89 1.956 . S
O149 Li91 1.961 . S
O149 C98 1.325 . S
O150 Li88 1.961 . S
O150 Li90 1.956 . S
O150 Li91 1.970 . S
O150 C120 1.325 . S
O151 Li89 1.961 . S
O151 Li90 1.970 . S
O151 Li91 1.956 . S
O151 C126 1.325 . S
H152 C94 0.929 . S
H153 C95 0.930 . S
H154 C96 0.930 . S
H155 C97 0.930 . S
H156 C99 0.930 . S
H157 C101 0.929 . S
H158 C102 0.930 . S
H159 C103 0.930 . S
H160 C106 0.930 . S
H161 C109 0.929 . S
H162 C114 0.929 . S
H163 C115 0.930 . S
H164 C122 0.929 . S
H165 C123 0.930 . S
H166 C124 0.930 . S
H167 C125 0.930 . S
H168 C127 0.929 . S
H169 C128 0.930 . S
H170 C129 0.930 . S
H171 C130 0.930 . S
H172 C134 0.929 . S
H173 C136 0.930 . S
H174 C142 0.929 . S
H175 C143 0.930 . S
Li176 N193 1.990 . S
Li176 O236 1.956 . S
Li176 O237 1.970 . S
Li176 O238 1.961 . S
Li177 N201 1.990 . S
Li177 O236 1.970 . S
Li177 O237 1.956 . S
Li177 O239 1.961 . S
Li178 N223 1.990 1_655 S
Li178 O236 1.961 . S
Li178 O238 1.956 . S
Li178 O239 1.970 . S
Li179 N229 1.990 . S
Li179 O237 1.961 . S
Li179 O238 1.970 . S
Li179 O239 1.956 . S
C180 C182 1.348 . S
C180 C183 1.356 . S
C180 O236 1.325 . S
N181 C184 1.314 . S
N181 C185 1.279 . S
C182 C180 1.348 . S
C182 C184 1.353 . S
C182 H240 0.929 . S
C183 C180 1.356 . S
C183 C185 1.358 . S
C183 H241 0.930 . S
C184 N181 1.314 . S
C184 C182 1.353 . S
C184 H242 0.930 . S
C185 N181 1.279 . S
C185 C183 1.358 . S
C185 H243 0.930 . S
C186 C189 1.348 . S
C186 C190 1.356 . S
C186 O237 1.325 . S
C187 N188 1.279 . S
C187 C190 1.358 . S
C187 H244 0.930 . S
N188 C187 1.279 . S
N188 C191 1.314 . S
C189 C186 1.348 . S
C189 C191 1.353 . S
C189 H245 0.929 . S
C190 C186 1.356 . S
C190 C187 1.358 . S
C190 H246 0.930 . S
C191 N188 1.314 . S
C191 C189 1.353 . S
C191 H247 0.930 . S
C192 N193 1.314 . S
C192 C197 1.353 . S
C192 H198 0.930 . S
N193 Li176 1.990 . S
N193 C192 1.314 . S
N193 C195 1.279 . S
C194 C195 1.358 . S
C194 C196 1.356 . S
C194 H248 0.930 . S
C195 N193 1.279 . S
C195 C194 1.358 . S
C195 H199 0.930 . S
C196 C194 1.356 . S
C196 C197 1.348 . S
C197 C192 1.353 . S
C197 C196 1.348 . S
C197 H249 0.929 . S
H198 C192 0.930 . S
H199 C195 0.930 . S
C200 N201 1.314 . S
C200 C202 1.353 . S
C200 H206 0.930 1_655 S
N201 Li177 1.990 . S
N201 C200 1.314 . S
N201 C204 1.279 . S
C202 C200 1.353 . S
C202 C205 1.348 . S
C202 H250 0.929 1_655 S
C203 C204 1.358 . S
C203 C205 1.356 . S
C203 H251 0.930 . S
C204 N201 1.279 . S
C204 C203 1.358 . S
C204 H207 0.930 . S
C205 C202 1.348 . S
C205 C203 1.356 . S
H206 C200 0.930 1_455 S
H207 C204 0.930 . S
C208 C210 1.348 . S
C208 C211 1.356 . S
C208 O238 1.325 . S
N209 C212 1.314 . S
N209 C213 1.279 . S
C210 C208 1.348 . S
C210 C212 1.353 . S
C210 H252 0.929 . S
C211 C208 1.356 . S
C211 C213 1.358 . S
C211 H253 0.930 . S
C212 N209 1.314 . S
C212 C210 1.353 . S
C212 H254 0.930 . S
C213 N209 1.279 . S
C213 C211 1.358 . S
C213 H255 0.930 . S
C214 C215 1.348 . S
C214 C216 1.356 . S
C214 O239 1.325 1_455 S
C215 C214 1.348 . S
C215 C217 1.353 . S
C215 H256 0.929 . S
C216 C214 1.356 . S
C216 C218 1.358 . S
C216 H257 0.930 1_455 S
C217 C215 1.353 . S
C217 N219 1.314 . S
C217 H258 0.930 . S
C218 C216 1.358 . S
C218 N219 1.279 . S
C218 H259 0.930 . S
N219 C217 1.314 . S
N219 C218 1.279 . S
C220 C222 1.353 . S
C220 N223 1.314 . S
C220 H226 0.930 . S
C221 N223 1.279 . S
C221 C224 1.358 . S
C221 H227 0.930 . S
C222 C220 1.353 . S
C222 C225 1.348 . S
C222 H260 0.929 . S
N223 Li178 1.990 1_455 S
N223 C220 1.314 . S
N223 C221 1.279 . S
C224 C221 1.358 . S
C224 C225 1.356 . S
C224 H261 0.930 . S
C225 C222 1.348 . S
C225 C224 1.356 . S
H226 C220 0.930 . S
H227 C221 0.930 . S
C228 N229 1.314 . S
C228 C230 1.353 . S
C228 H234 0.930 . S
N229 Li179 1.990 . S
N229 C228 1.314 . S
N229 C232 1.279 . S
C230 C228 1.353 . S
C230 C233 1.348 . S
C230 H262 0.929 . S
C231 C232 1.358 . S
C231 C233 1.356 . S
C231 H263 0.930 . S
C232 N229 1.279 . S
C232 C231 1.358 . S
C232 H235 0.930 . S
C233 C230 1.348 . S
C233 C231 1.356 . S
H234 C228 0.930 . S
H235 C232 0.930 . S
O236 Li176 1.956 . S
O236 Li177 1.970 . S
O236 Li178 1.961 . S
O236 C180 1.325 . S
O237 Li176 1.970 . S
O237 Li177 1.956 . S
O237 Li179 1.961 . S
O237 C186 1.325 . S
O238 Li176 1.961 . S
O238 Li178 1.956 . S
O238 Li179 1.970 . S
O238 C208 1.325 . S
O239 Li177 1.961 . S
O239 Li178 1.970 . S
O239 Li179 1.956 . S
O239 C214 1.325 1_655 S
H240 C182 0.929 . S
H241 C183 0.930 . S
H242 C184 0.930 . S
H243 C185 0.930 . S
H244 C187 0.930 . S
H245 C189 0.929 . S
H246 C190 0.930 . S
H247 C191 0.930 . S
H248 C194 0.930 . S
H249 C197 0.929 . S
H250 C202 0.929 1_455 S
H251 C203 0.930 . S
H252 C210 0.929 . S
H253 C211 0.930 . S
H254 C212 0.930 . S
H255 C213 0.930 . S
H256 C215 0.929 . S
H257 C216 0.930 1_655 S
H258 C217 0.930 . S
H259 C218 0.930 . S
H260 C222 0.929 . S
H261 C224 0.930 . S
H262 C230 0.929 . S
H263 C231 0.930 . S
Li264 N281 1.990 . S
Li264 O324 1.956 . S
Li264 O325 1.970 . S
Li264 O326 1.961 . S
Li265 N289 1.990 . S
Li265 O324 1.970 . S
Li265 O325 1.956 . S
Li265 O327 1.961 . S
Li266 N311 1.990 . S
Li266 O324 1.961 . S
Li266 O326 1.956 . S
Li266 O327 1.970 . S
Li267 N317 1.990 . S
Li267 O325 1.961 . S
Li267 O326 1.970 . S
Li267 O327 1.956 . S
C268 C270 1.348 . S
C268 C271 1.356 . S
C268 O324 1.325 . S
N269 C272 1.314 . S
N269 C273 1.279 . S
C270 C268 1.348 . S
C270 C272 1.353 . S
C270 H328 0.929 . S
C271 C268 1.356 . S
C271 C273 1.358 . S
C271 H329 0.930 . S
C272 N269 1.314 . S
C272 C270 1.353 . S
C272 H330 0.930 . S
C273 N269 1.279 . S
C273 C271 1.358 . S
C273 H331 0.930 . S
C274 C277 1.348 . S
C274 C278 1.356 . S
C274 O325 1.325 . S
C275 N276 1.279 . S
C275 C278 1.358 . S
C275 H332 0.930 . S
N276 C275 1.279 . S
N276 C279 1.314 . S
C277 C274 1.348 . S
C277 C279 1.353 . S
C277 H333 0.929 . S
C278 C274 1.356 . S
C278 C275 1.358 . S
C278 H334 0.930 . S
C279 N276 1.314 . S
C279 C277 1.353 . S
C279 H335 0.930 . S
C280 N281 1.314 . S
C280 C285 1.353 . S
C280 H286 0.930 . S
N281 Li264 1.990 . S
N281 C280 1.314 . S
N281 C283 1.279 . S
C282 C283 1.358 . S
C282 C284 1.356 . S
C282 H336 0.930 . S
C283 N281 1.279 . S
C283 C282 1.358 . S
C283 H287 0.930 . S
C284 C282 1.356 . S
C284 C285 1.348 . S
C285 C280 1.353 . S
C285 C284 1.348 . S
C285 H337 0.929 . S
H286 C280 0.930 . S
H287 C283 0.930 . S
C288 N289 1.314 . S
C288 C290 1.353 . S
C288 H294 0.930 . S
N289 Li265 1.990 . S
N289 C288 1.314 . S
N289 C292 1.279 . S
C290 C288 1.353 . S
C290 C293 1.348 . S
C290 H338 0.929 . S
C291 C292 1.358 . S
C291 C293 1.356 . S
C291 H339 0.930 . S
C292 N289 1.279 . S
C292 C291 1.358 . S
C292 H295 0.930 . S
C293 C290 1.348 . S
C293 C291 1.356 . S
H294 C288 0.930 . S
H295 C292 0.930 . S
C296 C298 1.348 . S
C296 C299 1.356 . S
C296 O326 1.325 . S
N297 C300 1.314 . S
N297 C301 1.279 . S
C298 C296 1.348 . S
C298 C300 1.353 . S
C298 H340 0.929 . S
C299 C296 1.356 . S
C299 C301 1.358 . S
C299 H341 0.930 . S
C300 N297 1.314 . S
C300 C298 1.353 . S
C300 H342 0.930 . S
C301 N297 1.279 . S
C301 C299 1.358 . S
C301 H343 0.930 . S
C302 C303 1.348 . S
C302 C304 1.356 . S
C302 O327 1.325 . S
C303 C302 1.348 . S
C303 C305 1.353 . S
C303 H344 0.929 . S
C304 C302 1.356 . S
C304 C306 1.358 . S
C304 H345 0.930 . S
C305 C303 1.353 . S
C305 N307 1.314 . S
C305 H346 0.930 . S
C306 C304 1.358 . S
C306 N307 1.279 . S
C306 H347 0.930 . S
N307 C305 1.314 . S
N307 C306 1.279 . S
C308 C310 1.353 . S
C308 N311 1.314 . S
C308 H314 0.930 . S
C309 N311 1.279 . S
C309 C312 1.358 . S
C309 H315 0.930 . S
C310 C308 1.353 . S
C310 C313 1.348 . S
C310 H348 0.929 . S
N311 Li266 1.990 . S
N311 C308 1.314 . S
N311 C309 1.279 . S
C312 C309 1.358 . S
C312 C313 1.356 . S
C312 H349 0.930 . S
C313 C310 1.348 . S
C313 C312 1.356 . S
H314 C308 0.930 . S
H315 C309 0.930 . S
C316 N317 1.314 . S
C316 C318 1.353 . S
C316 H322 0.930 . S
N317 Li267 1.990 . S
N317 C316 1.314 . S
N317 C320 1.279 . S
C318 C316 1.353 . S
C318 C321 1.348 . S
C318 H350 0.929 . S
C319 C320 1.358 . S
C319 C321 1.356 . S
C319 H351 0.930 . S
C320 N317 1.279 . S
C320 C319 1.358 . S
C320 H323 0.930 . S
C321 C318 1.348 . S
C321 C319 1.356 . S
H322 C316 0.930 . S
H323 C320 0.930 . S
O324 Li264 1.956 . S
O324 Li265 1.970 . S
O324 Li266 1.961 . S
O324 C268 1.325 . S
O325 Li264 1.970 . S
O325 Li265 1.956 . S
O325 Li267 1.961 . S
O325 C274 1.325 . S
O326 Li264 1.961 . S
O326 Li266 1.956 . S
O326 Li267 1.970 . S
O326 C296 1.325 . S
O327 Li265 1.961 . S
O327 Li266 1.970 . S
O327 Li267 1.956 . S
O327 C302 1.325 . S
H328 C270 0.929 . S
H329 C271 0.930 . S
H330 C272 0.930 . S
H331 C273 0.930 . S
H332 C275 0.930 . S
H333 C277 0.929 . S
H334 C278 0.930 . S
H335 C279 0.930 . S
H336 C282 0.930 . S
H337 C285 0.929 . S
H338 C290 0.929 . S
H339 C291 0.930 . S
H340 C298 0.929 . S
H341 C299 0.930 . S
H342 C300 0.930 . S
H343 C301 0.930 . S
H344 C303 0.929 . S
H345 C304 0.930 . S
H346 C305 0.930 . S
H347 C306 0.930 . S
H348 C310 0.929 . S
H349 C312 0.930 . S
H350 C318 0.929 . S
H351 C319 0.930 . S
Li352 N369 1.990 . S
Li352 O412 1.956 . S
Li352 O413 1.970 . S
Li352 O414 1.961 . S
Li353 N377 1.990 . S
Li353 O412 1.970 . S
Li353 O413 1.956 . S
Li353 O415 1.961 . S
Li354 N399 1.990 . S
Li354 O412 1.961 . S
Li354 O414 1.956 . S
Li354 O415 1.970 . S
Li355 N405 1.990 . S
Li355 O413 1.961 . S
Li355 O414 1.970 . S
Li355 O415 1.956 . S
C356 C358 1.348 . S
C356 C359 1.356 . S
C356 O412 1.325 . S
N357 C360 1.314 . S
N357 C361 1.279 . S
C358 C356 1.348 . S
C358 C360 1.353 . S
C358 H416 0.929 . S
C359 C356 1.356 . S
C359 C361 1.358 . S
C359 H417 0.930 . S
C360 N357 1.314 . S
C360 C358 1.353 . S
C360 H418 0.930 . S
C361 N357 1.279 . S
C361 C359 1.358 . S
C361 H419 0.930 . S
C362 C365 1.348 . S
C362 C366 1.356 . S
C362 O413 1.325 . S
C363 N364 1.279 . S
C363 C366 1.358 . S
C363 H420 0.930 . S
N364 C363 1.279 . S
N364 C367 1.314 . S
C365 C362 1.348 . S
C365 C367 1.353 . S
C365 H421 0.929 . S
C366 C362 1.356 . S
C366 C363 1.358 . S
C366 H422 0.930 . S
C367 N364 1.314 . S
C367 C365 1.353 . S
C367 H423 0.930 . S
C368 N369 1.314 . S
C368 C373 1.353 . S
C368 H374 0.930 . S
N369 Li352 1.990 . S
N369 C368 1.314 . S
N369 C371 1.279 . S
C370 C371 1.358 . S
C370 C372 1.356 . S
C370 H424 0.930 . S
C371 N369 1.279 . S
C371 C370 1.358 . S
C371 H375 0.930 . S
C372 C370 1.356 . S
C372 C373 1.348 . S
C373 C368 1.353 . S
C373 C372 1.348 . S
C373 H425 0.929 . S
H374 C368 0.930 . S
H375 C371 0.930 . S
C376 N377 1.314 . S
C376 C378 1.353 . S
C376 H382 0.930 . S
N377 Li353 1.990 . S
N377 C376 1.314 . S
N377 C380 1.279 . S
C378 C376 1.353 . S
C378 C381 1.348 . S
C378 H426 0.929 . S
C379 C380 1.358 . S
C379 C381 1.356 . S
C379 H427 0.930 . S
C380 N377 1.279 . S
C380 C379 1.358 . S
C380 H383 0.930 . S
C381 C378 1.348 . S
C381 C379 1.356 . S
H382 C376 0.930 . S
H383 C380 0.930 . S
C384 C386 1.348 . S
C384 C387 1.356 . S
C384 O414 1.325 . S
N385 C388 1.314 . S
N385 C389 1.279 . S
C386 C384 1.348 . S
C386 C388 1.353 . S
C386 H428 0.929 . S
C387 C384 1.356 . S
C387 C389 1.358 . S
C387 H429 0.930 . S
C388 N385 1.314 . S
C388 C386 1.353 . S
C388 H430 0.930 . S
C389 N385 1.279 . S
C389 C387 1.358 . S
C389 H431 0.930 . S
C390 C391 1.348 . S
C390 C392 1.356 . S
C390 O415 1.325 . S
C391 C390 1.348 . S
C391 C393 1.353 . S
C391 H432 0.929 . S
C392 C390 1.356 . S
C392 C394 1.358 . S
C392 H433 0.930 . S
C393 C391 1.353 . S
C393 N395 1.314 . S
C393 H434 0.930 . S
C394 C392 1.358 . S
C394 N395 1.279 . S
C394 H435 0.930 . S
N395 C393 1.314 . S
N395 C394 1.279 . S
C396 C398 1.353 . S
C396 N399 1.314 . S
C396 H402 0.930 . S
C397 N399 1.279 . S
C397 C400 1.358 . S
C397 H403 0.930 . S
C398 C396 1.353 . S
C398 C401 1.348 . S
C398 H436 0.929 . S
N399 Li354 1.990 . S
N399 C396 1.314 . S
N399 C397 1.279 . S
C400 C397 1.358 . S
C400 C401 1.356 . S
C400 H437 0.930 . S
C401 C398 1.348 . S
C401 C400 1.356 . S
H402 C396 0.930 . S
H403 C397 0.930 . S
C404 N405 1.314 . S
C404 C406 1.353 . S
C404 H410 0.930 . S
N405 Li355 1.990 . S
N405 C404 1.314 . S
N405 C408 1.279 . S
C406 C404 1.353 . S
C406 C409 1.348 . S
C406 H438 0.929 . S
C407 C408 1.358 . S
C407 C409 1.356 . S
C407 H439 0.930 . S
C408 N405 1.279 . S
C408 C407 1.358 . S
C408 H411 0.930 . S
C409 C406 1.348 . S
C409 C407 1.356 . S
H410 C404 0.930 . S
H411 C408 0.930 . S
O412 Li352 1.956 . S
O412 Li353 1.970 . S
O412 Li354 1.961 . S
O412 C356 1.325 . S
O413 Li352 1.970 . S
O413 Li353 1.956 . S
O413 Li355 1.961 . S
O413 C362 1.325 . S
O414 Li352 1.961 . S
O414 Li354 1.956 . S
O414 Li355 1.970 . S
O414 C384 1.325 . S
O415 Li353 1.961 . S
O415 Li354 1.970 . S
O415 Li355 1.956 . S
O415 C390 1.325 . S
H416 C358 0.929 . S
H417 C359 0.930 . S
H418 C360 0.930 . S
H419 C361 0.930 . S
H420 C363 0.930 . S
H421 C365 0.929 . S
H422 C366 0.930 . S
H423 C367 0.930 . S
H424 C370 0.930 . S
H425 C373 0.929 . S
H426 C378 0.929 . S
H427 C379 0.930 . S
H428 C386 0.929 . S
H429 C387 0.930 . S
H430 C388 0.930 . S
H431 C389 0.930 . S
H432 C391 0.929 . S
H433 C392 0.930 . S
H434 C393 0.930 . S
H435 C394 0.930 . S
H436 C398 0.929 . S
H437 C400 0.930 . S
H438 C406 0.929 . S
H439 C407 0.930 . S
Li440 N457 1.990 . S
Li440 O500 1.956 . S
Li440 O501 1.970 . S
Li440 O502 1.961 . S
Li441 N465 1.990 . S
Li441 O500 1.970 . S
Li441 O501 1.956 . S
Li441 O503 1.961 . S
Li442 N487 1.990 . S
Li442 O500 1.961 . S
Li442 O502 1.956 . S
Li442 O503 1.970 . S
Li443 N493 1.990 1_545 S
Li443 O501 1.961 . S
Li443 O502 1.970 . S
Li443 O503 1.956 . S
C444 C446 1.348 . S
C444 C447 1.356 . S
C444 O500 1.325 . S
N445 C448 1.314 . S
N445 C449 1.279 . S
C446 C444 1.348 . S
C446 C448 1.353 . S
C446 H504 0.929 . S
C447 C444 1.356 . S
C447 C449 1.358 . S
C447 H505 0.930 . S
C448 N445 1.314 . S
C448 C446 1.353 . S
C448 H506 0.930 . S
C449 N445 1.279 . S
C449 C447 1.358 . S
C449 H507 0.930 . S
C450 C453 1.348 . S
C450 C454 1.356 . S
C450 O501 1.325 . S
C451 N452 1.279 . S
C451 C454 1.358 . S
C451 H508 0.930 . S
N452 C451 1.279 . S
N452 C455 1.314 . S
C453 C450 1.348 . S
C453 C455 1.353 . S
C453 H509 0.929 . S
C454 C450 1.356 . S
C454 C451 1.358 . S
C454 H510 0.930 . S
C455 N452 1.314 . S
C455 C453 1.353 . S
C455 H511 0.930 . S
C456 N457 1.314 . S
C456 C461 1.353 . S
C456 H462 0.930 . S
N457 Li440 1.990 . S
N457 C456 1.314 . S
N457 C459 1.279 . S
C458 C459 1.358 . S
C458 C460 1.356 . S
C458 H512 0.930 . S
C459 N457 1.279 . S
C459 C458 1.358 . S
C459 H463 0.930 . S
C460 C458 1.356 . S
C460 C461 1.348 . S
C461 C456 1.353 . S
C461 C460 1.348 . S
C461 H513 0.929 . S
H462 C456 0.930 . S
H463 C459 0.930 . S
C464 N465 1.314 . S
C464 C466 1.353 . S
C464 H470 0.930 . S
N465 Li441 1.990 . S
N465 C464 1.314 . S
N465 C468 1.279 . S
C466 C464 1.353 . S
C466 C469 1.348 . S
C466 H514 0.929 . S
C467 C468 1.358 . S
C467 C469 1.356 . S
C467 H515 0.930 . S
C468 N465 1.279 . S
C468 C467 1.358 . S
C468 H471 0.930 . S
C469 C466 1.348 . S
C469 C467 1.356 . S
H470 C464 0.930 . S
H471 C468 0.930 . S
C472 C474 1.348 . S
C472 C475 1.356 . S
C472 O502 1.325 . S
N473 C476 1.314 . S
N473 C477 1.279 . S
C474 C472 1.348 . S
C474 C476 1.353 . S
C474 H516 0.929 1_545 S
C475 C472 1.356 . S
C475 C477 1.358 . S
C475 H517 0.930 . S
C476 N473 1.314 . S
C476 C474 1.353 . S
C476 H518 0.930 1_545 S
C477 N473 1.279 . S
C477 C475 1.358 . S
C477 H519 0.930 . S
C478 C479 1.348 . S
C478 C480 1.356 . S
C478 O503 1.325 1_565 S
C479 C478 1.348 . S
C479 C481 1.353 . S
C479 H520 0.929 . S
C480 C478 1.356 . S
C480 C482 1.358 . S
C480 H521 0.930 . S
C481 C479 1.353 . S
C481 N483 1.314 . S
C481 H522 0.930 . S
C482 C480 1.358 . S
C482 N483 1.279 . S
C482 H523 0.930 . S
N483 C481 1.314 . S
N483 C482 1.279 . S
C484 C486 1.353 . S
C484 N487 1.314 . S
C484 H490 0.930 . S
C485 N487 1.279 . S
C485 C488 1.358 . S
C485 H491 0.930 . S
C486 C484 1.353 . S
C486 C489 1.348 . S
C486 H524 0.929 . S
N487 Li442 1.990 . S
N487 C484 1.314 . S
N487 C485 1.279 . S
C488 C485 1.358 . S
C488 C489 1.356 . S
C488 H525 0.930 . S
C489 C486 1.348 . S
C489 C488 1.356 . S
H490 C484 0.930 . S
H491 C485 0.930 . S
C492 N493 1.314 . S
C492 C494 1.353 . S
C492 H498 0.930 . S
N493 Li443 1.990 1_565 S
N493 C492 1.314 . S
N493 C496 1.279 . S
C494 C492 1.353 . S
C494 C497 1.348 . S
C494 H526 0.929 . S
C495 C496 1.358 . S
C495 C497 1.356 . S
C495 H527 0.930 . S
C496 N493 1.279 . S
C496 C495 1.358 . S
C496 H499 0.930 . S
C497 C494 1.348 . S
C497 C495 1.356 . S
H498 C492 0.930 . S
H499 C496 0.930 . S
O500 Li440 1.956 . S
O500 Li441 1.970 . S
O500 Li442 1.961 . S
O500 C444 1.325 . S
O501 Li440 1.970 . S
O501 Li441 1.956 . S
O501 Li443 1.961 . S
O501 C450 1.325 . S
O502 Li440 1.961 . S
O502 Li442 1.956 . S
O502 Li443 1.970 . S
O502 C472 1.325 . S
O503 Li441 1.961 . S
O503 Li442 1.970 . S
O503 Li443 1.956 . S
O503 C478 1.325 1_545 S
H504 C446 0.929 . S
H505 C447 0.930 . S
H506 C448 0.930 . S
H507 C449 0.930 . S
H508 C451 0.930 . S
H509 C453 0.929 . S
H510 C454 0.930 . S
H511 C455 0.930 . S
H512 C458 0.930 . S
H513 C461 0.929 . S
H514 C466 0.929 . S
H515 C467 0.930 . S
H516 C474 0.929 1_565 S
H517 C475 0.930 . S
H518 C476 0.930 1_565 S
H519 C477 0.930 . S
H520 C479 0.929 . S
H521 C480 0.930 . S
H522 C481 0.930 . S
H523 C482 0.930 . S
H524 C486 0.929 . S
H525 C488 0.930 . S
H526 C494 0.929 . S
H527 C495 0.930 . S
Li528 N545 1.990 . S
Li528 O588 1.956 . S
Li528 O589 1.970 . S
Li528 O590 1.961 . S
Li529 N553 1.990 . S
Li529 O588 1.970 . S
Li529 O589 1.956 . S
Li529 O591 1.961 . S
Li530 N575 1.990 . S
Li530 O588 1.961 . S
Li530 O590 1.956 . S
Li530 O591 1.970 . S
Li531 N581 1.990 . S
Li531 O589 1.961 . S
Li531 O590 1.970 . S
Li531 O591 1.956 . S
C532 C534 1.348 . S
C532 C535 1.356 . S
C532 O588 1.325 . S
N533 C536 1.314 . S
N533 C537 1.279 . S
C534 C532 1.348 . S
C534 C536 1.353 . S
C534 H592 0.929 . S
C535 C532 1.356 . S
C535 C537 1.358 . S
C535 H593 0.930 . S
C536 N533 1.314 . S
C536 C534 1.353 . S
C536 H594 0.930 . S
C537 N533 1.279 . S
C537 C535 1.358 . S
C537 H595 0.930 . S
C538 C541 1.348 . S
C538 C542 1.356 . S
C538 O589 1.325 . S
C539 N540 1.279 . S
C539 C542 1.358 . S
C539 H596 0.930 . S
N540 C539 1.279 . S
N540 C543 1.314 . S
C541 C538 1.348 . S
C541 C543 1.353 . S
C541 H597 0.929 . S
C542 C538 1.356 . S
C542 C539 1.358 . S
C542 H598 0.930 . S
C543 N540 1.314 . S
C543 C541 1.353 . S
C543 H599 0.930 . S
C544 N545 1.314 . S
C544 C549 1.353 . S
C544 H550 0.930 . S
N545 Li528 1.990 . S
N545 C544 1.314 . S
N545 C547 1.279 . S
C546 C547 1.358 . S
C546 C548 1.356 . S
C546 H600 0.930 . S
C547 N545 1.279 . S
C547 C546 1.358 . S
C547 H551 0.930 . S
C548 C546 1.356 . S
C548 C549 1.348 . S
C549 C544 1.353 . S
C549 C548 1.348 . S
C549 H601 0.929 . S
H550 C544 0.930 . S
H551 C547 0.930 . S
C552 N553 1.314 . S
C552 C554 1.353 . S
C552 H558 0.930 . S
N553 Li529 1.990 . S
N553 C552 1.314 . S
N553 C556 1.279 . S
C554 C552 1.353 . S
C554 C557 1.348 . S
C554 H602 0.929 . S
C555 C556 1.358 . S
C555 C557 1.356 . S
C555 H603 0.930 . S
C556 N553 1.279 . S
C556 C555 1.358 . S
C556 H559 0.930 . S
C557 C554 1.348 . S
C557 C555 1.356 . S
H558 C552 0.930 . S
H559 C556 0.930 . S
C560 C562 1.348 . S
C560 C563 1.356 . S
C560 O590 1.325 . S
N561 C564 1.314 . S
N561 C565 1.279 . S
C562 C560 1.348 . S
C562 C564 1.353 . S
C562 H604 0.929 . S
C563 C560 1.356 . S
C563 C565 1.358 . S
C563 H605 0.930 . S
C564 N561 1.314 . S
C564 C562 1.353 . S
C564 H606 0.930 . S
C565 N561 1.279 . S
C565 C563 1.358 . S
C565 H607 0.930 . S
C566 C567 1.348 . S
C566 C568 1.356 . S
C566 O591 1.325 . S
C567 C566 1.348 . S
C567 C569 1.353 . S
C567 H608 0.929 . S
C568 C566 1.356 . S
C568 C570 1.358 . S
C568 H609 0.930 . S
C569 C567 1.353 . S
C569 N571 1.314 . S
C569 H610 0.930 . S
C570 C568 1.358 . S
C570 N571 1.279 . S
C570 H611 0.930 . S
N571 C569 1.314 . S
N571 C570 1.279 . S
C572 C574 1.353 . S
C572 N575 1.314 . S
C572 H578 0.930 . S
C573 N575 1.279 . S
C573 C576 1.358 . S
C573 H579 0.930 . S
C574 C572 1.353 . S
C574 C577 1.348 . S
C574 H612 0.929 . S
N575 Li530 1.990 . S
N575 C572 1.314 . S
N575 C573 1.279 . S
C576 C573 1.358 . S
C576 C577 1.356 . S
C576 H613 0.930 . S
C577 C574 1.348 . S
C577 C576 1.356 . S
H578 C572 0.930 . S
H579 C573 0.930 . S
C580 N581 1.314 . S
C580 C582 1.353 . S
C580 H586 0.930 . S
N581 Li531 1.990 . S
N581 C580 1.314 . S
N581 C584 1.279 . S
C582 C580 1.353 . S
C582 C585 1.348 . S
C582 H614 0.929 . S
C583 C584 1.358 . S
C583 C585 1.356 . S
C583 H615 0.930 . S
C584 N581 1.279 . S
C584 C583 1.358 . S
C584 H587 0.930 . S
C585 C582 1.348 . S
C585 C583 1.356 . S
H586 C580 0.930 . S
H587 C584 0.930 . S
O588 Li528 1.956 . S
O588 Li529 1.970 . S
O588 Li530 1.961 . S
O588 C532 1.325 . S
O589 Li528 1.970 . S
O589 Li529 1.956 . S
O589 Li531 1.961 . S
O589 C538 1.325 . S
O590 Li528 1.961 . S
O590 Li530 1.956 . S
O590 Li531 1.970 . S
O590 C560 1.325 . S
O591 Li529 1.961 . S
O591 Li530 1.970 . S
O591 Li531 1.956 . S
O591 C566 1.325 . S
H592 C534 0.929 . S
H593 C535 0.930 . S
H594 C536 0.930 . S
H595 C537 0.930 . S
H596 C539 0.930 . S
H597 C541 0.929 . S
H598 C542 0.930 . S
H599 C543 0.930 . S
H600 C546 0.930 . S
H601 C549 0.929 . S
H602 C554 0.929 . S
H603 C555 0.930 . S
H604 C562 0.929 . S
H605 C563 0.930 . S
H606 C564 0.930 . S
H607 C565 0.930 . S
H608 C567 0.929 . S
H609 C568 0.930 . S
H610 C569 0.930 . S
H611 C570 0.930 . S
H612 C574 0.929 . S
H613 C576 0.930 . S
H614 C582 0.929 . S
H615 C583 0.930 . S
Li616 N633 1.990 1_565 S
Li616 O676 1.956 . S
Li616 O677 1.970 . S
Li616 O678 1.961 . S
Li617 N641 1.990 . S
Li617 O676 1.970 . S
Li617 O677 1.956 . S
Li617 O679 1.961 . S
Li618 N663 1.990 . S
Li618 O676 1.961 . S
Li618 O678 1.956 . S
Li618 O679 1.970 . S
Li619 N669 1.990 . S
Li619 O677 1.961 . S
Li619 O678 1.970 . S
Li619 O679 1.956 . S
C620 C622 1.348 . S
C620 C623 1.356 . S
C620 O676 1.325 1_545 S
N621 C624 1.314 . S
N621 C625 1.279 . S
C622 C620 1.348 . S
C622 C624 1.353 . S
C622 H680 0.929 . S
C623 C620 1.356 . S
C623 C625 1.358 . S
C623 H681 0.930 . S
C624 N621 1.314 . S
C624 C622 1.353 . S
C624 H682 0.930 . S
C625 N621 1.279 . S
C625 C623 1.358 . S
C625 H683 0.930 . S
C626 C629 1.348 . S
C626 C630 1.356 . S
C626 O677 1.325 . S
C627 N628 1.279 . S
C627 C630 1.358 . S
C627 H684 0.930 . S
N628 C627 1.279 . S
N628 C631 1.314 . S
C629 C626 1.348 . S
C629 C631 1.353 . S
C629 H685 0.929 1_565 S
C630 C626 1.356 . S
C630 C627 1.358 . S
C630 H686 0.930 . S
C631 N628 1.314 . S
C631 C629 1.353 . S
C631 H687 0.930 1_565 S
C632 N633 1.314 . S
C632 C637 1.353 . S
C632 H638 0.930 . S
N633 Li616 1.990 1_545 S
N633 C632 1.314 . S
N633 C635 1.279 . S
C634 C635 1.358 . S
C634 C636 1.356 . S
C634 H688 0.930 . S
C635 N633 1.279 . S
C635 C634 1.358 . S
C635 H639 0.930 . S
C636 C634 1.356 . S
C636 C637 1.348 . S
C637 C632 1.353 . S
C637 C636 1.348 . S
C637 H689 0.929 . S
H638 C632 0.930 . S
H639 C635 0.930 . S
C640 N641 1.314 . S
C640 C642 1.353 . S
C640 H646 0.930 . S
N641 Li617 1.990 . S
N641 C640 1.314 . S
N641 C644 1.279 . S
C642 C640 1.353 . S
C642 C645 1.348 . S
C642 H690 0.929 . S
C643 C644 1.358 . S
C643 C645 1.356 . S
C643 H691 0.930 . S
C644 N641 1.279 . S
C644 C643 1.358 . S
C644 H647 0.930 . S
C645 C642 1.348 . S
C645 C643 1.356 . S
H646 C640 0.930 . S
H647 C644 0.930 . S
C648 C650 1.348 . S
C648 C651 1.356 . S
C648 O678 1.325 . S
N649 C652 1.314 . S
N649 C653 1.279 . S
C650 C648 1.348 . S
C650 C652 1.353 . S
C650 H692 0.929 . S
C651 C648 1.356 . S
C651 C653 1.358 . S
C651 H693 0.930 . S
C652 N649 1.314 . S
C652 C650 1.353 . S
C652 H694 0.930 . S
C653 N649 1.279 . S
C653 C651 1.358 . S
C653 H695 0.930 . S
C654 C655 1.348 . S
C654 C656 1.356 . S
C654 O679 1.325 . S
C655 C654 1.348 . S
C655 C657 1.353 . S
C655 H696 0.929 . S
C656 C654 1.356 . S
C656 C658 1.358 . S
C656 H697 0.930 . S
C657 C655 1.353 . S
C657 N659 1.314 . S
C657 H698 0.930 . S
C658 C656 1.358 . S
C658 N659 1.279 . S
C658 H699 0.930 . S
N659 C657 1.314 . S
N659 C658 1.279 . S
C660 C662 1.353 . S
C660 N663 1.314 . S
C660 H666 0.930 . S
C661 N663 1.279 . S
C661 C664 1.358 . S
C661 H667 0.930 . S
C662 C660 1.353 . S
C662 C665 1.348 . S
C662 H700 0.929 . S
N663 Li618 1.990 . S
N663 C660 1.314 . S
N663 C661 1.279 . S
C664 C661 1.358 . S
C664 C665 1.356 . S
C664 H701 0.930 . S
C665 C662 1.348 . S
C665 C664 1.356 . S
H666 C660 0.930 . S
H667 C661 0.930 . S
C668 N669 1.314 . S
C668 C670 1.353 . S
C668 H674 0.930 . S
N669 Li619 1.990 . S
N669 C668 1.314 . S
N669 C672 1.279 . S
C670 C668 1.353 . S
C670 C673 1.348 . S
C670 H702 0.929 . S
C671 C672 1.358 . S
C671 C673 1.356 . S
C671 H703 0.930 . S
C672 N669 1.279 . S
C672 C671 1.358 . S
C672 H675 0.930 . S
C673 C670 1.348 . S
C673 C671 1.356 . S
H674 C668 0.930 . S
H675 C672 0.930 . S
O676 Li616 1.956 . S
O676 Li617 1.970 . S
O676 Li618 1.961 . S
O676 C620 1.325 1_565 S
O677 Li616 1.970 . S
O677 Li617 1.956 . S
O677 Li619 1.961 . S
O677 C626 1.325 . S
O678 Li616 1.961 . S
O678 Li618 1.956 . S
O678 Li619 1.970 . S
O678 C648 1.325 . S
O679 Li617 1.961 . S
O679 Li618 1.970 . S
O679 Li619 1.956 . S
O679 C654 1.325 . S
H680 C622 0.929 . S
H681 C623 0.930 . S
H682 C624 0.930 . S
H683 C625 0.930 . S
H684 C627 0.930 . S
H685 C629 0.929 1_545 S
H686 C630 0.930 . S
H687 C631 0.930 1_545 S
H688 C634 0.930 . S
H689 C637 0.929 . S
H690 C642 0.929 . S
H691 C643 0.930 . S
H692 C650 0.929 . S
H693 C651 0.930 . S
H694 C652 0.930 . S
H695 C653 0.930 . S
H696 C655 0.929 . S
H697 C656 0.930 . S
H698 C657 0.930 . S
H699 C658 0.930 . S
H700 C662 0.929 . S
H701 C664 0.930 . S
H702 C670 0.929 . S
H703 C671 0.930 . S
C704 C705 1.369 . S
C704 C706 1.448 . S
C704 H708 0.930 . S
C705 C704 1.369 . S
C705 C714 1.424 1_554 S
C706 C704 1.448 . S
C706 C707 1.332 1_554 S
C706 H709 0.932 . S
C707 C706 1.332 1_556 S
C707 C713 1.428 . S
H708 C704 0.930 . S
H709 C706 0.932 . S
S710 N711 1.613 . S
S710 N712 1.610 . S
N711 S710 1.613 . S
N711 C714 1.351 . S
N712 S710 1.610 . S
N712 C713 1.351 . S
C713 C707 1.428 . S
C713 N712 1.351 . S
C713 C714 1.438 . S
C714 C705 1.424 1_556 S
C714 N711 1.351 . S
C714 C713 1.438 . S
C715 C716 1.369 . S
C715 C717 1.419 . S
C715 H719 0.930 . S
C716 C715 1.369 . S
C716 C725 1.429 . S
C717 C715 1.419 . S
C717 C718 1.363 . S
C717 H720 0.929 . S
C718 C717 1.363 . S
C718 C724 1.428 . S
H719 C715 0.930 . S
H720 C717 0.929 . S
S721 N722 1.613 . S
S721 N723 1.610 . S
N722 S721 1.613 . S
N722 C725 1.350 . S
N723 S721 1.610 . S
N723 C724 1.351 . S
C724 C718 1.428 . S
C724 N723 1.351 . S
C724 C725 1.434 . S
C725 C716 1.429 . S
C725 N722 1.350 . S
C725 C724 1.434 . S
C726 C727 1.369 . S
C726 C728 1.419 1_554 S
C726 H730 0.930 . S
C727 C726 1.369 . S
C727 C736 1.429 . S
C728 C726 1.419 1_556 S
C728 C729 1.363 . S
C728 H731 0.929 . S
C729 C728 1.363 . S
C729 C735 1.428 . S
H730 C726 0.930 . S
H731 C728 0.929 . S
S732 N733 1.613 . S
S732 N734 1.610 1_554 S
N733 S732 1.613 . S
N733 C736 1.350 . S
N734 S732 1.610 1_556 S
N734 C735 1.351 . S
C735 C729 1.428 . S
C735 N734 1.351 . S
C735 C736 1.434 1_556 S
C736 C727 1.429 . S
C736 N733 1.350 . S
C736 C735 1.434 1_554 S
C737 C738 1.369 . S
C737 C739 1.419 . S
C737 H741 0.930 . S
C738 C737 1.369 . S
C738 C747 1.429 . S
C739 C737 1.419 . S
C739 C740 1.363 . S
C739 H742 0.929 . S
C740 C739 1.363 . S
C740 C746 1.428 . S
H741 C737 0.930 . S
H742 C739 0.929 . S
S743 N744 1.613 . S
S743 N745 1.610 . S
N744 S743 1.613 . S
N744 C747 1.350 . S
N745 S743 1.610 . S
N745 C746 1.351 . S
C746 C740 1.428 . S
C746 N745 1.351 . S
C746 C747 1.434 . S
C747 C738 1.429 . S
C747 N744 1.350 . S
C747 C746 1.434 . S
C748 C749 1.369 . S
C748 C750 1.419 . S
C748 H752 0.930 . S
C749 C748 1.369 . S
C749 C758 1.429 . S
C750 C748 1.419 . S
C750 C751 1.363 . S
C750 H753 0.929 . S
C751 C750 1.363 . S
C751 C757 1.428 . S
H752 C748 0.930 . S
H753 C750 0.929 . S
S754 N755 1.613 . S
S754 N756 1.610 . S
N755 S754 1.613 . S
N755 C758 1.350 . S
N756 S754 1.610 . S
N756 C757 1.351 . S
C757 C751 1.428 . S
C757 N756 1.351 . S
C757 C758 1.434 . S
C758 C749 1.429 . S
C758 N755 1.350 . S
C758 C757 1.434 . S
C759 C760 1.369 . S
C759 C761 1.419 . S
C759 H763 0.930 . S
C760 C759 1.369 . S
C760 C769 1.429 . S
C761 C759 1.419 . S
C761 C762 1.363 . S
C761 H764 0.929 . S
C762 C761 1.363 . S
C762 C768 1.428 . S
H763 C759 0.930 . S
H764 C761 0.929 . S
S765 N766 1.613 . S
S765 N767 1.610 . S
N766 S765 1.613 . S
N766 C769 1.350 . S
N767 S765 1.610 . S
N767 C768 1.351 . S
C768 C762 1.428 . S
C768 N767 1.351 . S
C768 C769 1.434 . S
C769 C760 1.429 . S
C769 N766 1.350 . S
C769 C768 1.434 . S
C770 C771 1.369 . S
C770 C772 1.419 . S
C770 H774 0.930 . S
C771 C770 1.369 . S
C771 C780 1.429 . S
C772 C770 1.419 . S
C772 C773 1.363 . S
C772 H775 0.929 . S
C773 C772 1.363 . S
C773 C779 1.428 . S
H774 C770 0.930 . S
H775 C772 0.929 . S
S776 N777 1.613 . S
S776 N778 1.610 . S
N777 S776 1.613 . S
N777 C780 1.350 . S
N778 S776 1.610 . S
N778 C779 1.351 . S
C779 C773 1.428 . S
C779 N778 1.351 . S
C779 C780 1.434 . S
C780 C771 1.429 . S
C780 N777 1.350 . S
C780 C779 1.434 . S
C781 C782 1.369 . S
C781 C783 1.419 . S
C781 H785 0.930 . S
C782 C781 1.369 . S
C782 C791 1.429 . S
C783 C781 1.419 . S
C783 C784 1.363 . S
C783 H786 0.929 . S
C784 C783 1.363 . S
C784 C790 1.428 . S
H785 C781 0.930 . S
H786 C783 0.929 . S
S787 N788 1.613 . S
S787 N789 1.610 . S
N788 S787 1.613 . S
N788 C791 1.350 . S
N789 S787 1.610 . S
N789 C790 1.351 . S
C790 C784 1.428 . S
C790 N789 1.351 . S
C790 C791 1.434 . S
C791 C782 1.429 . S
C791 N788 1.350 . S
C791 C790 1.434 . S
C792 C793 1.369 . S
C792 C794 1.419 . S
C792 H796 0.930 . S
C793 C792 1.369 . S
C793 C802 1.429 . S
C794 C792 1.419 . S
C794 C795 1.363 . S
C794 H797 0.929 . S
C795 C794 1.363 . S
C795 C801 1.428 . S
H796 C792 0.930 . S
H797 C794 0.929 . S
S798 N799 1.613 . S
S798 N800 1.610 . S
N799 S798 1.613 . S
N799 C802 1.350 . S
N800 S798 1.610 . S
N800 C801 1.351 . S
C801 C795 1.428 . S
C801 N800 1.351 . S
C801 C802 1.434 . S
C802 C793 1.429 . S
C802 N799 1.350 . S
C802 C801 1.434 . S
C803 C804 1.369 . S
C803 C805 1.419 . S
C803 H807 0.930 . S
C804 C803 1.369 . S
C804 C813 1.429 . S
C805 C803 1.419 . S
C805 C806 1.363 . S
C805 H808 0.929 . S
C806 C805 1.363 . S
C806 C812 1.428 . S
H807 C803 0.930 . S
H808 C805 0.929 . S
S809 N810 1.613 . S
S809 N811 1.610 . S
N810 S809 1.613 . S
N810 C813 1.350 . S
N811 S809 1.610 . S
N811 C812 1.351 . S
C812 C806 1.428 . S
C812 N811 1.351 . S
C812 C813 1.434 . S
C813 C804 1.429 . S
C813 N810 1.350 . S
C813 C812 1.434 . S
C814 C815 1.369 . S
C814 C816 1.419 . S
C814 H818 0.930 . S
C815 C814 1.369 . S
C815 C824 1.429 . S
C816 C814 1.419 . S
C816 C817 1.363 . S
C816 H819 0.929 . S
C817 C816 1.363 . S
C817 C823 1.428 . S
H818 C814 0.930 . S
H819 C816 0.929 . S
S820 N821 1.613 . S
S820 N822 1.610 . S
N821 S820 1.613 . S
N821 C824 1.350 . S
N822 S820 1.610 . S
N822 C823 1.351 . S
C823 C817 1.428 . S
C823 N822 1.351 . S
C823 C824 1.434 . S
C824 C815 1.429 . S
C824 N821 1.350 . S
C824 C823 1.434 . S
C825 C826 1.369 . S
C825 C827 1.419 . S
C825 H829 0.930 . S
C826 C825 1.369 . S
C826 C835 1.429 . S
C827 C825 1.419 . S
C827 C828 1.363 . S
C827 H830 0.929 . S
C828 C827 1.363 . S
C828 C834 1.428 . S
H829 C825 0.930 . S
H830 C827 0.929 . S
S831 N832 1.613 . S
S831 N833 1.610 . S
N832 S831 1.613 . S
N832 C835 1.350 . S
N833 S831 1.610 . S
N833 C834 1.351 . S
C834 C828 1.428 . S
C834 N833 1.351 . S
C834 C835 1.434 . S
C835 C826 1.429 . S
C835 N832 1.350 . S
C835 C834 1.434 . S
C836 C837 1.369 . S
C836 C838 1.419 . S
C836 H840 0.930 . S
C837 C836 1.369 . S
C837 C846 1.429 1_655 S
C838 C836 1.419 . S
C838 C839 1.363 1_655 S
C838 H841 0.929 . S
C839 C838 1.363 1_455 S
C839 C845 1.428 . S
H840 C836 0.930 . S
H841 C838 0.929 . S
S842 N843 1.613 . S
S842 N844 1.610 . S
N843 S842 1.613 . S
N843 C846 1.350 . S
N844 S842 1.610 . S
N844 C845 1.351 . S
C845 C839 1.428 . S
C845 N844 1.351 . S
C845 C846 1.434 . S
C846 C837 1.429 1_455 S
C846 N843 1.350 . S
C846 C845 1.434 . S
C847 C848 1.374 . S
C847 C849 1.414 1_655 S
C847 H851 0.930 1_655 S
C848 C847 1.374 . S
C848 C857 1.429 . S
C849 C847 1.414 1_455 S
C849 C850 1.363 . S
C849 H852 0.929 . S
C850 C849 1.363 . S
C850 C856 1.422 1_455 S
H851 C847 0.930 1_455 S
H852 C849 0.929 . S
S853 N854 1.613 . S
S853 N855 1.610 . S
N854 S853 1.613 . S
N854 C857 1.350 . S
N855 S853 1.610 . S
N855 C856 1.352 . S
C856 C850 1.422 1_655 S
C856 N855 1.352 . S
C856 C857 1.440 . S
C857 C848 1.429 . S
C857 N854 1.350 . S
C857 C856 1.440 . S
C858 C859 1.369 . S
C858 C860 1.419 . S
C858 H862 0.930 . S
C859 C858 1.369 . S
C859 C868 1.429 1_545 S
C860 C858 1.419 . S
C860 C861 1.363 1_545 S
C860 H863 0.929 . S
C861 C860 1.363 1_565 S
C861 C867 1.428 . S
H862 C858 0.930 . S
H863 C860 0.929 . S
S864 N865 1.613 . S
S864 N866 1.610 . S
N865 S864 1.613 . S
N865 C868 1.350 . S
N866 S864 1.610 . S
N866 C867 1.351 . S
C867 C861 1.428 . S
C867 N866 1.351 . S
C867 C868 1.434 . S
C868 C859 1.429 1_565 S
C868 N865 1.350 . S
C868 C867 1.434 . S
C869 C870 1.347 1_565 S
C869 C871 1.439 . S
C869 H873 0.933 . S
C870 C869 1.347 1_545 S
C870 C879 1.429 . S
C871 C869 1.439 . S
C871 C872 1.363 . S
C871 H874 0.929 . S
C872 C871 1.363 . S
C872 C878 1.428 1_565 S
H873 C869 0.933 . S
H874 C871 0.929 . S
S875 N876 1.613 . S
S875 N877 1.610 . S
N876 S875 1.613 . S
N876 C879 1.350 . S
N877 S875 1.610 . S
N877 C878 1.351 . S
C878 C872 1.428 1_545 S
C878 N877 1.351 . S
C878 C879 1.434 . S
C879 C870 1.429 . S
C879 N876 1.350 . S
C879 C878 1.434 . S
C705 C49 1.375 . S
C707 C469 1.375 . S
C716 C108 1.374 . S
C718 C557 1.373 . S
C727 C233 1.371 . S
C729 C665 1.375 . S
C738 C381 1.374 . S
C740 C313 1.378 . S
C749 C29 2.121 . S
C751 C372 2.003 . S
C760 C117 2.103 . S
C762 C497 2.016 . S
C771 C548 2.002 . S
C773 C196 2.119 . S
C782 C321 2.107 . S
C784 C636 2.013 . S
C793 C401 2.112 . S
C795 C57 2.011 . S
C804 C137 2.010 . S
C806 C460 2.108 . S
C815 C577 2.115 . S
C817 C225 2.008 . S
C826 C284 2.015 . S
C828 C673 2.105 . S
C837 C205 0.566 . S
C839 C20 0.588 . S
C848 C293 0.563 . S
C850 C145 0.567 . S
C859 C409 0.579 . S
C861 C585 0.571 . S
C870 C489 0.576 . S
C872 C645 0.553 . S
