# Generated by pormake.
# Topology unj, (4)-cn, num edge types: 1
# Building blocks:
#     Node 0, Type 0, BuildingBlock: UXUYUI_clean_sbu_0, # of connection points: 4
#     Node 1, Type 0, BuildingBlock: UXUYUI_clean_sbu_0, # of connection points: 4
#     Node 2, Type 0, BuildingBlock: UXUYUI_clean_sbu_0, # of connection points: 4
#     Node 3, Type 0, BuildingBlock: UXUYUI_clean_sbu_0, # of connection points: 4
#     Node 4, Type 0, BuildingBlock: UXUYUI_clean_sbu_0, # of connection points: 4
#     Node 5, Type 0, BuildingBlock: UXUYUI_clean_sbu_0, # of connection points: 4
#     Edge 6, Type (0, 0), None
#     Edge 7, Type (0, 0), None
#     Edge 8, Type (0, 0), None
#     Edge 9, Type (0, 0), None
#     Edge 10, Type (0, 0), None
#     Edge 11, Type (0, 0), None
#     Edge 12, Type (0, 0), None
#     Edge 13, Type (0, 0), None
#     Edge 14, Type (0, 0), None
#     Edge 15, Type (0, 0), None
#     Edge 16, Type (0, 0), None
#     Edge 17, Type (0, 0), None
# Relax obj value: 0.030
# Max RMSD: 0.052
# Mean RMSD: 0.052
data_MOF--net-unj--node1-UXUYUI_clean_sbu_0--edge1-none
_symmetry_space_group_name_H-M    P1
_symmetry_Int_Tables_number       1
_symmetry_cell_setting            triclinic
loop_
_symmetry_equiv_pos_as_xyz
'x, y, z'
_cell_length_a     31.608772
_cell_length_b     31.611597
_cell_length_c     30.923146
_cell_angle_alpha  90.042048
_cell_angle_beta   89.968206
_cell_angle_gamma 119.99578
loop_
_atom_site_label
_atom_site_type_symbol
_atom_site_fract_x
_atom_site_fract_y
_atom_site_fract_z
_atom_type_partial_charge
Li0 Li 0.46308 0.20507 0.57344 0.0
Li1 Li 0.52553 0.25254 0.62237 0.0
Li2 Li 0.46017 0.2726 0.60893 0.0
Li3 Li 0.52728 0.28815 0.55196 0.0
C4 C 0.41934 0.16951 0.64954 0.0
N5 N 0.3462 0.07865 0.67602 0.0
C6 C 0.42977 0.13214 0.65732 0.0
C7 C 0.37188 0.16092 0.65572 0.0
C8 C 0.39223 0.08637 0.6705 0.0
C9 C 0.33536 0.11467 0.66904 0.0
C10 C 0.57115 0.22173 0.56714 0.0
C11 C 0.65472 0.24427 0.55219 0.0
N12 N 0.64779 0.20351 0.57323 0.0
C13 C 0.5647 0.17982 0.58822 0.0
C14 C 0.61638 0.25407 0.54865 0.0
C15 C 0.60396 0.17136 0.59112 0.0
C16 C 0.44874 0.12229 0.52696 0.0
N17 N 0.424 0.1399 0.54967 0.0
C18 C 0.34861 0.06551 0.53738 0.0
C19 C 0.37466 0.11271 0.55465 0.0
C20 C 0.37346 0.04612 0.51439 0.0
C21 C 0.42425 0.07543 0.50918 0.0
H22 H 0.48773 0.14461 0.52262 0.0
H23 H 0.35532 0.12756 0.57185 0.0
C24 C 0.54617 0.23288 0.70681 0.0
N25 N 0.56702 0.2522 0.66795 0.0
C26 C 0.57479 0.23312 0.74139 0.0
C27 C 0.64584 0.27293 0.69536 0.0
C28 C 0.61598 0.2724 0.66191 0.0
C29 C 0.62547 0.25335 0.73597 0.0
H30 H 0.50733 0.21792 0.7112 0.0
H31 H 0.63217 0.28881 0.63128 0.0
C32 C 0.41477 0.23029 0.51991 0.0
N33 N 0.33491 0.17227 0.46856 0.0
C34 C 0.42134 0.21517 0.47922 0.0
C35 C 0.36766 0.21614 0.53443 0.0
C36 C 0.38047 0.18573 0.45378 0.0
C37 C 0.32774 0.18679 0.50797 0.0
C38 C 0.56653 0.34613 0.64051 0.0
C39 C 0.55118 0.34822 0.68245 0.0
C40 C 0.61636 0.3713 0.63062 0.0
C41 C 0.58604 0.37537 0.71392 0.0
C42 C 0.65008 0.39809 0.66298 0.0
N43 N 0.63435 0.39952 0.70362 0.0
C44 C 0.40962 0.29325 0.6743 0.0
C45 C 0.41113 0.32648 0.60529 0.0
C46 C 0.38461 0.31536 0.69175 0.0
N47 N 0.42256 0.29943 0.63186 0.0
C48 C 0.38598 0.34907 0.62132 0.0
C49 C 0.37276 0.34413 0.66526 0.0
H50 H 0.41952 0.27183 0.69479 0.0
H51 H 0.42199 0.33085 0.57167 0.0
C52 C 0.56815 0.31055 0.46798 0.0
N53 N 0.56624 0.33033 0.50648 0.0
C54 C 0.5972 0.34058 0.43436 0.0
C55 C 0.62242 0.41067 0.48088 0.0
C56 C 0.59217 0.37937 0.51332 0.0
C57 C 0.62507 0.39129 0.44078 0.0
H58 H 0.54746 0.27139 0.46357 0.0
H59 H 0.58946 0.39422 0.54403 0.0
O60 O 0.45558 0.21454 0.63663 0.0
O61 O 0.53312 0.23057 0.56379 0.0
O62 O 0.4542 0.25819 0.5457 0.0
O63 O 0.53298 0.31865 0.60961 0.0
H64 H 0.46644 0.13843 0.65317 0.0
H65 H 0.36319 0.18945 0.64979 0.0
H66 H 0.39971 0.05701 0.67641 0.0
H67 H 0.29839 0.10736 0.67368 0.0
H68 H 0.69002 0.26913 0.5383 0.0
H69 H 0.52979 0.15416 0.60224 0.0
H70 H 0.62201 0.28665 0.53216 0.0
H71 H 0.59958 0.13921 0.60756 0.0
H72 H 0.30938 0.04466 0.54164 0.0
H73 H 0.44517 0.06205 0.49216 0.0
H74 H 0.55742 0.21847 0.77224 0.0
H75 H 0.68453 0.28845 0.68923 0.0
H76 H 0.45755 0.22559 0.46765 0.0
H77 H 0.36192 0.22715 0.56602 0.0
H78 H 0.38496 0.17348 0.42233 0.0
H79 H 0.29104 0.17533 0.51887 0.0
H80 H 0.51282 0.32862 0.69073 0.0
H81 H 0.62898 0.36935 0.59855 0.0
H82 H 0.57469 0.37709 0.74657 0.0
H83 H 0.68877 0.41746 0.65587 0.0
H84 H 0.37586 0.31101 0.7259 0.0
H85 H 0.37704 0.37019 0.59945 0.0
H86 H 0.59858 0.32429 0.40394 0.0
H87 H 0.64301 0.44964 0.48684 0.0
Li88 Li 0.2915 0.52131 0.79331 0.0
Li89 Li 0.27813 0.45873 0.74366 0.0
Li90 Li 0.26024 0.5222 0.72099 0.0
Li91 Li 0.20726 0.45629 0.77751 0.0
C92 C 0.37243 0.54631 0.74239 0.0
N93 N 0.47073 0.57975 0.75443 0.0
C94 C 0.38751 0.52154 0.77012 0.0
C95 C 0.40728 0.58809 0.72075 0.0
C96 C 0.43737 0.539 0.77579 0.0
C97 C 0.45684 0.60443 0.72727 0.0
C98 C 0.2561 0.41054 0.82558 0.0
C99 C 0.20913 0.32484 0.84328 0.0
N100 N 0.24763 0.32882 0.86627 0.0
C101 C 0.29497 0.41388 0.84984 0.0
C102 C 0.21262 0.36576 0.82264 0.0
C103 C 0.29007 0.37211 0.86996 0.0
C104 C 0.32523 0.54478 0.87943 0.0
N105 N 0.33227 0.56291 0.83858 0.0
C106 C 0.3966 0.64047 0.86274 0.0
C107 C 0.36707 0.60974 0.8297 0.0
C108 C 0.39043 0.6227 0.90528 0.0
C109 C 0.35415 0.57412 0.91341 0.0
H110 H 0.29693 0.50755 0.88563 0.0
H111 H 0.37174 0.62332 0.79695 0.0
C112 C 0.33863 0.44139 0.68797 0.0
N113 N 0.3048 0.41997 0.71988 0.0
C114 C 0.36103 0.41719 0.66955 0.0
C115 C 0.31206 0.34815 0.71569 0.0
C116 C 0.2907 0.3738 0.73333 0.0
C117 C 0.34816 0.36998 0.68359 0.0
H118 H 0.34843 0.47753 0.67676 0.0
H119 H 0.26259 0.35641 0.75739 0.0
C120 C 0.24363 0.56813 0.80312 0.0
N121 N 0.26631 0.64743 0.85562 0.0
C122 C 0.22594 0.56098 0.84548 0.0
C123 C 0.2727 0.61558 0.78739 0.0
C124 C 0.23788 0.60156 0.87154 0.0
C125 C 0.28375 0.6552 0.81444 0.0
C126 C 0.21114 0.41465 0.6852 0.0
C127 C 0.23405 0.42818 0.64487 0.0
C128 C 0.18325 0.36523 0.69596 0.0
C129 C 0.22914 0.3919 0.61609 0.0
C130 C 0.17919 0.33005 0.66627 0.0
N131 N 0.20209 0.34401 0.62731 0.0
C132 C 0.29081 0.57265 0.64138 0.0
C133 C 0.22788 0.57923 0.67698 0.0
C134 C 0.29097 0.60191 0.60743 0.0
N135 N 0.25943 0.56183 0.67509 0.0
C136 C 0.22728 0.60917 0.64404 0.0
C137 C 0.259 0.6207 0.60859 0.0
H138 H 0.31575 0.55857 0.64092 0.0
H139 H 0.20333 0.56999 0.70422 0.0
C140 C 0.13565 0.41702 0.84337 0.0
N141 N 0.14256 0.41893 0.79988 0.0
C142 C 0.08849 0.39197 0.86064 0.0
C143 C 0.0565 0.37002 0.78807 0.0
C144 C 0.10428 0.39586 0.7722 0.0
C145 C 0.04793 0.36826 0.8329 0.0
H146 H 0.16684 0.43551 0.86464 0.0
H147 H 0.11086 0.39789 0.73773 0.0
O148 O 0.3238 0.53013 0.73662 0.0
O149 O 0.25994 0.45133 0.80642 0.0
O150 O 0.23367 0.52891 0.77755 0.0
O151 O 0.21696 0.44969 0.71437 0.0
H152 H 0.36096 0.4891 0.78691 0.0
H153 H 0.39611 0.60772 0.69923 0.0
H154 H 0.44955 0.52013 0.79715 0.0
H155 H 0.48425 0.63674 0.71076 0.0
H156 H 0.17584 0.2899 0.84097 0.0
H157 H 0.3285 0.44842 0.85339 0.0
H158 H 0.18207 0.36235 0.80421 0.0
H159 H 0.31993 0.37415 0.88869 0.0
H160 H 0.4244 0.67751 0.85495 0.0
H161 H 0.34773 0.55914 0.94579 0.0
H162 H 0.3888 0.43578 0.64509 0.0
H163 H 0.30002 0.31139 0.72685 0.0
H164 H 0.20368 0.52452 0.85824 0.0
H165 H 0.28727 0.62177 0.75488 0.0
H166 H 0.22466 0.59658 0.90447 0.0
H167 H 0.30646 0.69213 0.80279 0.0
H168 H 0.25593 0.46628 0.63614 0.0
H169 H 0.16526 0.35415 0.72702 0.0
H170 H 0.247 0.40184 0.5849 0.0
H171 H 0.15797 0.29166 0.67426 0.0
H172 H 0.3163 0.61034 0.58086 0.0
H173 H 0.20181 0.62259 0.64596 0.0
H174 H 0.08394 0.39232 0.89531 0.0
H175 H 0.02665 0.35169 0.76538 0.0
Li176 Li 0.83842 0.27515 0.90768 0.0
Li177 Li 0.78725 0.28974 0.96127 0.0
Li178 Li 0.76939 0.2068 0.94255 0.0
Li179 Li 0.75651 0.25865 0.88708 0.0
C180 C 0.84019 0.23754 1.00258 0.0
N181 N 0.86015 0.18996 0.06742 0.0
C182 C 0.83488 0.24652 0.04594 0.0
C183 C 0.85619 0.20479 0.99221 0.0
C184 C 0.84503 0.222 0.07825 0.0
C185 C 0.86593 0.18097 0.02544 0.0
C186 C 0.81175 0.36281 0.89257 0.0
C187 C 0.77182 0.41084 0.89508 0.0
N188 N 0.80684 0.4445 0.86863 0.0
C189 C 0.84767 0.39818 0.86581 0.0
C190 C 0.77377 0.36942 0.90763 0.0
C191 C 0.84442 0.43909 0.85391 0.0
C192 C 0.91249 0.3235 0.84571 0.0
N193 N 0.90303 0.30087 0.88476 0.0
C194 C 0.98594 0.319 0.89054 0.0
C195 C 0.93853 0.29811 0.90723 0.0
C196 C 0.9971 0.3434 0.85048 0.0
C197 C 0.95935 0.34513 0.82795 0.0
H198 H 0.88364 0.32527 0.82853 0.0
H199 H 0.93026 0.28021 0.93833 0.0
C200 C 0.75775 0.30991 0.04197 0.0
N201 N 0.78781 0.33055 1.00744 0.0
C202 C 0.7574 0.33897 0.07585 0.0
C203 C 0.81972 0.41008 0.03858 0.0
C204 C 0.81913 0.37957 1.00558 0.0
C205 C 0.78847 0.38984 0.0743 0.0
H206 H 0.73449 0.27079 0.04355 0.0
H207 H 0.84384 0.39507 0.97851 0.0
C208 C 0.80989 0.20779 0.84715 0.0
N209 N 0.86257 0.19539 0.78203 0.0
C210 C 0.81069 0.22566 0.80566 0.0
C211 C 0.83539 0.18312 0.85543 0.0
C212 C 0.83766 0.21914 0.77319 0.0
C213 C 0.86196 0.17737 0.8221 0.0
C214 C 0.6819 0.22892 0.96095 0.0
C215 C 0.66008 0.19939 0.99712 0.0
C216 C 0.65973 0.25295 0.94169 0.0
C217 C 0.61739 0.1956 0.01419 0.0
C218 C 0.617 0.24818 0.95965 0.0
N219 N 0.59694 0.21992 0.99529 0.0
C220 C 0.73274 0.13431 1.00835 0.0
C221 C 0.73083 0.10387 0.93795 0.0
C222 C 0.7108 0.0872 0.02553 0.0
N223 N 0.7422 0.14181 0.96527 0.0
C224 C 0.70862 0.056 0.95375 0.0
C225 C 0.69804 0.04712 0.99812 0.0
H226 H 0.74144 0.16489 0.02938 0.0
H227 H 0.73841 0.1107 0.90377 0.0
C228 C 0.73407 0.2948 0.8112 0.0
N229 N 0.7164 0.25765 0.84032 0.0
C230 C 0.70481 0.29434 0.77721 0.0
C231 C 0.64007 0.21647 0.80273 0.0
C232 C 0.67051 0.2187 0.83654 0.0
C233 C 0.65704 0.25474 0.77244 0.0
H234 H 0.77104 0.32475 0.81403 0.0
H235 H 0.65758 0.18929 0.85982 0.0
O236 O 0.82987 0.2608 0.97052 0.0
O237 O 0.81412 0.32223 0.90411 0.0
O238 O 0.78456 0.21475 0.87957 0.0
O239 O 0.72354 0.23263 0.94356 0.0
H240 H 0.82289 0.27202 0.05457 0.0
H241 H 0.8606 0.19751 0.95886 0.0
H242 H 0.84084 0.22842 0.11194 0.0
H243 H 0.87801 0.15527 0.01786 0.0
H244 H 0.74259 0.41635 0.90656 0.0
H245 H 0.87772 0.39412 0.85425 0.0
H246 H 0.74665 0.34336 0.92943 0.0
H247 H 0.87182 0.46658 0.83302 0.0
H248 H 1.0135 0.31606 0.90891 0.0
H249 H 0.96606 0.36409 0.79737 0.0
H250 H 0.73275 0.32181 0.1028 0.0
H251 H 0.84497 0.449 0.03652 0.0
H252 H 0.79116 0.24484 0.79871 0.0
H253 H 0.83479 0.1687 0.88725 0.0
H254 H 0.8389 0.23308 0.741 0.0
H255 H 0.88208 0.15857 0.8281 0.0
H256 H 0.67613 0.17995 0.01218 0.0
H257 H 0.6749 0.27467 0.91288 0.0
H258 H 0.60048 0.17326 0.04243 0.0
H259 H 0.59966 0.26677 0.94513 0.0
H260 H 0.70268 0.08217 0.05979 0.0
H261 H 0.69983 0.02629 0.93146 0.0
H262 H 0.71951 0.32501 0.75514 0.0
H263 H 0.60394 0.18474 0.80007 0.0
Li264 Li 0.58437 0.838 0.0735 0.0
Li265 Li 0.51887 0.78866 0.1273 0.0
Li266 Li 0.58509 0.77134 0.1086 0.0
Li267 Li 0.5208 0.75533 0.05407 0.0
C268 C 0.62292 0.83676 0.16871 0.0
N269 N 0.68707 0.84386 0.23282 0.0
C270 C 0.60613 0.82166 0.21083 0.0
C271 C 0.67246 0.85592 0.15931 0.0
C272 C 0.6391 0.82546 0.24277 0.0
C273 C 0.70427 0.85907 0.19212 0.0
C274 C 0.46687 0.80471 0.06115 0.0
C275 C 0.37935 0.75277 0.06325 0.0
N276 N 0.37417 0.78967 0.04642 0.0
C277 C 0.46075 0.84211 0.04382 0.0
C278 C 0.42593 0.75966 0.07091 0.0
C279 C 0.41355 0.83379 0.03664 0.0
C280 C 0.60832 0.91159 0.0109 0.0
N281 N 0.62156 0.90259 0.05015 0.0
C282 C 0.68526 0.98589 0.05611 0.0
C283 C 0.65917 0.93855 0.07287 0.0
C284 C 0.67241 0.99642 0.01564 0.0
C285 C 0.63351 0.95834 0.99285 0.0
H286 H 0.57782 0.88244 0.99379 0.0
H287 H 0.66861 0.93067 0.10422 0.0
C288 C 0.46674 0.75719 0.20602 0.0
N289 N 0.47691 0.78832 0.17221 0.0
C290 C 0.43712 0.75632 0.23998 0.0
C291 C 0.42775 0.81858 0.20322 0.0
C292 C 0.45833 0.81892 0.17034 0.0
C293 C 0.41717 0.78727 0.23877 0.0
H294 H 0.4821 0.73335 0.2068 0.0
H295 H 0.46748 0.84387 0.14349 0.0
C296 C 0.62257 0.81106 0.0122 0.0
N297 N 0.68268 0.86586 0.94499 0.0
C298 C 0.60387 0.80551 0.97033 0.0
C299 C 0.67199 0.84412 0.01979 0.0
C300 C 0.63482 0.83361 0.93681 0.0
C301 C 0.70172 0.87162 0.98542 0.0
C302 C 0.48695 0.67669 0.1189 0.0
C303 C 0.50759 0.64748 0.11001 0.0
C304 C 0.43928 0.65516 0.13495 0.0
C305 C 0.48001 0.59714 0.11699 0.0
C306 C 0.41289 0.60469 0.14148 0.0
N307 N 0.43362 0.57697 0.13244 0.0
C308 C 0.60694 0.71807 0.16942 0.0
C309 C 0.66511 0.75321 0.11312 0.0
C310 C 0.63209 0.69624 0.18696 0.0
N311 N 0.62335 0.74536 0.13283 0.0
C312 C 0.69197 0.73283 0.13002 0.0
C313 C 0.67528 0.70319 0.1672 0.0
H314 H 0.57358 0.71237 0.18447 0.0
H315 H 0.67747 0.77508 0.0841 0.0
C316 C 0.46301 0.73262 0.97778 0.0
N317 N 0.48035 0.71377 1.00793 0.0
C318 C 0.43349 0.70352 0.94393 0.0
C319 C 0.44082 0.63625 0.97208 0.0
C320 C 0.47043 0.66674 1.00519 0.0
C321 C 0.42179 0.6545 0.94092 0.0
H322 H 0.47242 0.77047 0.97974 0.0
H323 H 0.48594 0.65289 0.02829 0.0
O324 O 0.59091 0.83197 0.1367 0.0
O325 O 0.51286 0.81237 0.06836 0.0
O326 O 0.59256 0.78461 0.04561 0.0
O327 O 0.51368 0.72621 0.11309 0.0
H328 H 0.56804 0.80695 0.21877 0.0
H329 H 0.68609 0.86749 0.12688 0.0
H330 H 0.62653 0.81367 0.27545 0.0
H331 H 0.74261 0.87343 0.18518 0.0
H332 H 0.34732 0.71806 0.07062 0.0
H333 H 0.49216 0.87718 0.03605 0.0
H334 H 0.43012 0.73031 0.08399 0.0
H335 H 0.40824 0.86241 0.02327 0.0
H336 H 0.71519 1.01396 0.07469 0.0
H337 H 0.62175 0.96485 0.96192 0.0
H338 H 0.42959 0.73148 0.26677 0.0
H339 H 0.41345 0.84333 0.20137 0.0
H340 H 0.56585 0.77999 0.96377 0.0
H341 H 0.68708 0.84911 0.05196 0.0
H342 H 0.62076 0.82984 0.90429 0.0
H343 H 0.73992 0.89765 0.99093 0.0
H344 H 0.54426 0.66338 0.09722 0.0
H345 H 0.42279 0.67714 0.14245 0.0
H346 H 0.49546 0.57411 0.11004 0.0
H347 H 0.37594 0.58758 0.15383 0.0
H348 H 0.6169 0.67312 0.21509 0.0
H349 H 0.72542 0.7403 0.11396 0.0
H350 H 0.4196 0.71913 0.92063 0.0
H351 H 0.43365 0.59901 0.97045 0.0
Li352 Li 0.77028 0.58678 0.23728 0.0
Li353 Li 0.75697 0.5219 0.29316 0.0
Li354 Li 0.83946 0.58576 0.27327 0.0
Li355 Li 0.7884 0.52143 0.22247 0.0
C356 C 0.81315 0.63659 0.32261 0.0
N357 N 0.86984 0.72254 0.36723 0.0
C358 C 0.81746 0.63591 0.36753 0.0
C359 C 0.83749 0.68093 0.30035 0.0
C360 C 0.84634 0.67978 0.38951 0.0
C361 C 0.86602 0.72401 0.32351 0.0
C362 C 0.69642 0.48232 0.20439 0.0
C363 C 0.65205 0.40026 0.17598 0.0
N364 N 0.64533 0.41801 0.13815 0.0
C365 C 0.68873 0.49964 0.16532 0.0
C366 C 0.67762 0.43214 0.20988 0.0
C367 C 0.66291 0.4666 0.13221 0.0
C368 C 0.7486 0.63756 0.17294 0.0
N369 N 0.74526 0.62659 0.21573 0.0
C370 C 0.7007 0.66816 0.22884 0.0
C371 C 0.72242 0.64175 0.24376 0.0
C372 C 0.70159 0.67839 0.18441 0.0
C373 C 0.72654 0.66303 0.15646 0.0
H374 H 0.76712 0.62515 0.15136 0.0
H375 H 0.72057 0.63279 0.27772 0.0
C376 C 0.73512 0.48786 0.37993 0.0
N377 N 0.71603 0.48333 0.33965 0.0
C378 C 0.70577 0.45851 0.41377 0.0
C379 C 0.63798 0.42001 0.36391 0.0
C380 C 0.66835 0.45067 0.33126 0.0
C381 C 0.65666 0.42375 0.40577 0.0
H382 H 0.7733 0.51377 0.38557 0.0
H383 H 0.65395 0.44815 0.2991 0.0
C384 C 0.86932 0.60192 0.18566 0.0
N385 N 0.9486 0.61886 0.13547 0.0
C386 C 0.89571 0.5784 0.1952 0.0
C387 C 0.88314 0.63388 0.15053 0.0
C388 C 0.93571 0.5875 0.16946 0.0
C389 C 0.92337 0.64201 0.12557 0.0
C390 C 0.8149 0.4792 0.30285 0.0
C391 C 0.85772 0.48804 0.32385 0.0
C392 C 0.77291 0.43333 0.30664 0.0
C393 C 0.85746 0.45129 0.34911 0.0
C394 C 0.77404 0.39754 0.33225 0.0
N395 N 0.81594 0.4072 0.35284 0.0
C396 C 0.91163 0.61668 0.33805 0.0
C397 C 0.94055 0.6633 0.27386 0.0
C398 C 0.95808 0.64226 0.35662 0.0
N399 N 0.90395 0.62662 0.29698 0.0
C400 C 0.98772 0.68966 0.29108 0.0
C401 C 0.99718 0.6788 0.3328 0.0
H402 H 0.88172 0.58806 0.35614 0.0
H403 H 0.93345 0.67192 0.24186 0.0
C404 C 0.7906 0.49501 0.13518 0.0
N405 N 0.78895 0.48049 0.17684 0.0
C406 C 0.79068 0.46602 0.10109 0.0
C407 C 0.78696 0.40745 0.15332 0.0
C408 C 0.78732 0.43774 0.18638 0.0
C409 C 0.78871 0.42149 0.10998 0.0
H410 H 0.79152 0.52903 0.12843 0.0
H411 H 0.78615 0.42697 0.21962 0.0
O412 O 0.78633 0.59395 0.3003 0.0
O413 O 0.72309 0.51441 0.23664 0.0
O414 O 0.82954 0.59313 0.20992 0.0
O415 O 0.81448 0.51514 0.27838 0.0
H416 H 0.79896 0.60186 0.38519 0.0
H417 H 0.8349 0.68197 0.26551 0.0
H418 H 0.85018 0.67981 0.42427 0.0
H419 H 0.88528 0.75857 0.3067 0.0
H420 H 0.63767 0.36141 0.17972 0.0
H421 H 0.70292 0.53818 0.16039 0.0
H422 H 0.68305 0.41786 0.23974 0.0
H423 H 0.65702 0.47963 0.10173 0.0
H424 H 0.68317 0.68009 0.25202 0.0
H425 H 0.72786 0.66915 0.12194 0.0
H426 H 0.72154 0.46217 0.4456 0.0
H427 H 0.60016 0.39395 0.35664 0.0
H428 H 0.8855 0.55339 0.22214 0.0
H429 H 0.86291 0.65217 0.14263 0.0
H430 H 0.95649 0.56961 0.17648 0.0
H431 H 0.9345 0.66669 0.09829 0.0
H432 H 0.89104 0.52267 0.32024 0.0
H433 H 0.73969 0.42547 0.29016 0.0
H434 H 0.89035 0.45776 0.36561 0.0
H435 H 0.74162 0.36206 0.33572 0.0
H436 H 0.96354 0.63242 0.38882 0.0
H437 H 1.01646 0.71823 0.2719 0.0
H438 H 0.79151 0.47797 0.06813 0.0
H439 H 0.78598 0.37369 0.16164 0.0
Li440 Li 0.20551 0.76521 0.40972 0.0
Li441 Li 0.25802 0.75165 0.46024 0.0
Li442 Li 0.27614 0.83471 0.4445 0.0
Li443 Li 0.28822 0.78405 0.39049 0.0
C444 C 0.17764 0.75139 0.49778 0.0
N445 N 0.09855 0.68864 0.54802 0.0
C446 C 0.15309 0.7011 0.48965 0.0
C447 C 0.162 0.76966 0.53156 0.0
C448 C 0.11319 0.67003 0.5154 0.0
C449 C 0.12191 0.73737 0.55654 0.0
C450 C 0.23568 0.68926 0.37495 0.0
C451 C 0.28189 0.65402 0.3455 0.0
N452 N 0.24713 0.63112 0.3146 0.0
C453 C 0.20009 0.66475 0.34329 0.0
C454 C 0.27655 0.68321 0.37645 0.0
C455 C 0.20664 0.63573 0.31296 0.0
C456 C 0.13442 0.73336 0.34362 0.0
N457 N 0.14078 0.74305 0.38674 0.0
C458 C 0.05582 0.71702 0.39487 0.0
C459 C 0.10287 0.73696 0.41205 0.0
C460 C 0.04763 0.70396 0.35096 0.0
C461 C 0.08799 0.71347 0.32501 0.0
H462 H 0.16538 0.74012 0.32378 0.0
H463 H 0.10869 0.74717 0.44569 0.0
C464 C 0.25772 0.72405 0.54769 0.0
N465 N 0.2578 0.71029 0.506 0.0
C466 C 0.25786 0.69516 0.58182 0.0
C467 C 0.25864 0.63866 0.5296 0.0
C468 C 0.25783 0.6683 0.4965 0.0
C469 C 0.25858 0.65194 0.57293 0.0
H470 H 0.25772 0.75763 0.55442 0.0
H471 H 0.25717 0.65768 0.46327 0.0
C472 C 0.23892 0.85431 0.37009 0.0
N473 N 0.20057 0.91241 0.34596 0.0
C474 C 0.24848 0.8754 0.32898 0.0
C475 C 0.20977 0.86264 0.39893 0.0
C476 C 0.22877 0.9047 0.31739 0.0
C477 C 0.19077 0.89217 0.38612 0.0
C478 C 0.34912 0.80793 0.48046 0.0
C479 C 0.3561 0.83674 0.51702 0.0
C480 C 0.36798 0.77624 0.47987 0.0
C481 C 0.38151 0.83314 0.55246 0.0
C482 C 0.39309 0.7736 0.51599 0.0
N483 N 0.39927 0.80186 0.55125 0.0
C484 C 0.28726 0.90933 0.50367 0.0
C485 C 0.33777 0.93663 0.44149 0.0
C486 C 0.30929 0.95701 0.51991 0.0
N487 N 0.3022 0.90007 0.46536 0.0
C488 C 0.36068 0.9848 0.45641 0.0
C489 C 0.34706 0.99552 0.49647 0.0
H490 H 0.25923 0.8795 0.52219 0.0
H491 H 0.34883 0.92817 0.41108 0.0
C492 C 0.31267 0.78401 0.30186 0.0
N493 N 0.32883 0.78707 0.34313 0.0
C494 C 0.34125 0.78457 0.26703 0.0
C495 C 0.40225 0.79102 0.31787 0.0
C496 C 0.37297 0.79123 0.3516 0.0
C497 C 0.38645 0.7876 0.27494 0.0
H498 H 0.27739 0.78071 0.29607 0.0
H499 H 0.38524 0.79419 0.3846 0.0
O500 O 0.21737 0.78259 0.47353 0.0
O501 O 0.23021 0.71843 0.40461 0.0
O502 O 0.25756 0.82511 0.38162 0.0
O503 O 0.32306 0.80996 0.44591 0.0
H504 H 0.16456 0.68612 0.46377 0.0
H505 H 0.18057 0.8084 0.53839 0.0
H506 H 0.09387 0.63109 0.50945 0.0
H507 H 0.10939 0.75105 0.58274 0.0
H508 H 0.31372 0.64965 0.346 0.0
H509 H 0.16744 0.66754 0.34237 0.0
H510 H 0.30432 0.70158 0.40083 0.0
H511 H 0.17942 0.61674 0.2882 0.0
H512 H 0.02612 0.71172 0.41584 0.0
H513 H 0.08357 0.70417 0.29098 0.0
H514 H 0.25813 0.70686 0.61479 0.0
H515 H 0.25856 0.60531 0.52139 0.0
H516 H 0.27082 0.86909 0.30626 0.0
H517 H 0.20174 0.8464 0.4308 0.0
H518 H 0.23584 0.92126 0.28566 0.0
H519 H 0.16816 0.89894 0.40809 0.0
H520 H 0.34166 0.86127 0.51832 0.0
H521 H 0.36265 0.75325 0.45218 0.0
H522 H 0.38693 0.85507 0.58102 0.0
H523 H 0.40747 0.74892 0.51607 0.0
H524 H 0.29794 0.96333 0.55114 0.0
H525 H 0.38898 1.01328 0.43683 0.0
H526 H 0.32777 0.7817 0.23434 0.0
H527 H 0.43715 0.79401 0.32523 0.0
loop_
_geom_bond_atom_site_label_1
_geom_bond_atom_site_label_2
_geom_bond_distance
_geom_bond_site_symmetry_2
_ccdc_geom_bond_type
Li0 N17 1.990 . S
Li0 O60 1.956 . S
Li0 O61 1.970 . S
Li0 O62 1.961 . S
Li1 N25 1.990 . S
Li1 O60 1.970 . S
Li1 O61 1.956 . S
Li1 O63 1.961 . S
Li2 N47 1.990 . S
Li2 O60 1.961 . S
Li2 O62 1.956 . S
Li2 O63 1.970 . S
Li3 N53 1.990 . S
Li3 O61 1.961 . S
Li3 O62 1.970 . S
Li3 O63 1.956 . S
C4 C6 1.348 . S
C4 C7 1.356 . S
C4 O60 1.325 . S
N5 C8 1.314 . S
N5 C9 1.279 . S
C6 C4 1.348 . S
C6 C8 1.353 . S
C6 H64 0.929 . S
C7 C4 1.356 . S
C7 C9 1.358 . S
C7 H65 0.930 . S
C8 N5 1.314 . S
C8 C6 1.353 . S
C8 H66 0.930 . S
C9 N5 1.279 . S
C9 C7 1.358 . S
C9 H67 0.930 . S
C10 C13 1.348 . S
C10 C14 1.356 . S
C10 O61 1.325 . S
C11 N12 1.279 . S
C11 C14 1.358 . S
C11 H68 0.930 . S
N12 C11 1.279 . S
N12 C15 1.314 . S
C13 C10 1.348 . S
C13 C15 1.353 . S
C13 H69 0.929 . S
C14 C10 1.356 . S
C14 C11 1.358 . S
C14 H70 0.930 . S
C15 N12 1.314 . S
C15 C13 1.353 . S
C15 H71 0.930 . S
C16 N17 1.314 . S
C16 C21 1.353 . S
C16 H22 0.930 . S
N17 Li0 1.990 . S
N17 C16 1.314 . S
N17 C19 1.279 . S
C18 C19 1.358 . S
C18 C20 1.356 . S
C18 H72 0.930 . S
C19 N17 1.279 . S
C19 C18 1.358 . S
C19 H23 0.930 . S
C20 C18 1.356 . S
C20 C21 1.348 . S
C21 C16 1.353 . S
C21 C20 1.348 . S
C21 H73 0.929 . S
H22 C16 0.930 . S
H23 C19 0.930 . S
C24 N25 1.314 . S
C24 C26 1.353 . S
C24 H30 0.930 . S
N25 Li1 1.990 . S
N25 C24 1.314 . S
N25 C28 1.279 . S
C26 C24 1.353 . S
C26 C29 1.348 . S
C26 H74 0.929 . S
C27 C28 1.358 . S
C27 C29 1.356 . S
C27 H75 0.930 . S
C28 N25 1.279 . S
C28 C27 1.358 . S
C28 H31 0.930 . S
C29 C26 1.348 . S
C29 C27 1.356 . S
H30 C24 0.930 . S
H31 C28 0.930 . S
C32 C34 1.348 . S
C32 C35 1.356 . S
C32 O62 1.325 . S
N33 C36 1.314 . S
N33 C37 1.279 . S
C34 C32 1.348 . S
C34 C36 1.353 . S
C34 H76 0.929 . S
C35 C32 1.356 . S
C35 C37 1.358 . S
C35 H77 0.930 . S
C36 N33 1.314 . S
C36 C34 1.353 . S
C36 H78 0.930 . S
C37 N33 1.279 . S
C37 C35 1.358 . S
C37 H79 0.930 . S
C38 C39 1.348 . S
C38 C40 1.356 . S
C38 O63 1.325 . S
C39 C38 1.348 . S
C39 C41 1.353 . S
C39 H80 0.929 . S
C40 C38 1.356 . S
C40 C42 1.358 . S
C40 H81 0.930 . S
C41 C39 1.353 . S
C41 N43 1.314 . S
C41 H82 0.930 . S
C42 C40 1.358 . S
C42 N43 1.279 . S
C42 H83 0.930 . S
N43 C41 1.314 . S
N43 C42 1.279 . S
C44 C46 1.353 . S
C44 N47 1.314 . S
C44 H50 0.930 . S
C45 N47 1.279 . S
C45 C48 1.358 . S
C45 H51 0.930 . S
C46 C44 1.353 . S
C46 C49 1.348 . S
C46 H84 0.929 . S
N47 Li2 1.990 . S
N47 C44 1.314 . S
N47 C45 1.279 . S
C48 C45 1.358 . S
C48 C49 1.356 . S
C48 H85 0.930 . S
C49 C46 1.348 . S
C49 C48 1.356 . S
H50 C44 0.930 . S
H51 C45 0.930 . S
C52 N53 1.314 . S
C52 C54 1.353 . S
C52 H58 0.930 . S
N53 Li3 1.990 . S
N53 C52 1.314 . S
N53 C56 1.279 . S
C54 C52 1.353 . S
C54 C57 1.348 . S
C54 H86 0.929 . S
C55 C56 1.358 . S
C55 C57 1.356 . S
C55 H87 0.930 . S
C56 N53 1.279 . S
C56 C55 1.358 . S
C56 H59 0.930 . S
C57 C54 1.348 . S
C57 C55 1.356 . S
H58 C52 0.930 . S
H59 C56 0.930 . S
O60 Li0 1.956 . S
O60 Li1 1.970 . S
O60 Li2 1.961 . S
O60 C4 1.325 . S
O61 Li0 1.970 . S
O61 Li1 1.956 . S
O61 Li3 1.961 . S
O61 C10 1.325 . S
O62 Li0 1.961 . S
O62 Li2 1.956 . S
O62 Li3 1.970 . S
O62 C32 1.325 . S
O63 Li1 1.961 . S
O63 Li2 1.970 . S
O63 Li3 1.956 . S
O63 C38 1.325 . S
H64 C6 0.929 . S
H65 C7 0.930 . S
H66 C8 0.930 . S
H67 C9 0.930 . S
H68 C11 0.930 . S
H69 C13 0.929 . S
H70 C14 0.930 . S
H71 C15 0.930 . S
H72 C18 0.930 . S
H73 C21 0.929 . S
H74 C26 0.929 . S
H75 C27 0.930 . S
H76 C34 0.929 . S
H77 C35 0.930 . S
H78 C36 0.930 . S
H79 C37 0.930 . S
H80 C39 0.929 . S
H81 C40 0.930 . S
H82 C41 0.930 . S
H83 C42 0.930 . S
H84 C46 0.929 . S
H85 C48 0.930 . S
H86 C54 0.929 . S
H87 C55 0.930 . S
Li88 N105 1.990 . S
Li88 O148 1.956 . S
Li88 O149 1.970 . S
Li88 O150 1.961 . S
Li89 N113 1.990 . S
Li89 O148 1.970 . S
Li89 O149 1.956 . S
Li89 O151 1.961 . S
Li90 N135 1.990 . S
Li90 O148 1.961 . S
Li90 O150 1.956 . S
Li90 O151 1.970 . S
Li91 N141 1.990 . S
Li91 O149 1.961 . S
Li91 O150 1.970 . S
Li91 O151 1.956 . S
C92 C94 1.348 . S
C92 C95 1.356 . S
C92 O148 1.325 . S
N93 C96 1.314 . S
N93 C97 1.279 . S
C94 C92 1.348 . S
C94 C96 1.353 . S
C94 H152 0.929 . S
C95 C92 1.356 . S
C95 C97 1.358 . S
C95 H153 0.930 . S
C96 N93 1.314 . S
C96 C94 1.353 . S
C96 H154 0.930 . S
C97 N93 1.279 . S
C97 C95 1.358 . S
C97 H155 0.930 . S
C98 C101 1.348 . S
C98 C102 1.356 . S
C98 O149 1.325 . S
C99 N100 1.279 . S
C99 C102 1.358 . S
C99 H156 0.930 . S
N100 C99 1.279 . S
N100 C103 1.314 . S
C101 C98 1.348 . S
C101 C103 1.353 . S
C101 H157 0.929 . S
C102 C98 1.356 . S
C102 C99 1.358 . S
C102 H158 0.930 . S
C103 N100 1.314 . S
C103 C101 1.353 . S
C103 H159 0.930 . S
C104 N105 1.314 . S
C104 C109 1.353 . S
C104 H110 0.930 . S
N105 Li88 1.990 . S
N105 C104 1.314 . S
N105 C107 1.279 . S
C106 C107 1.358 . S
C106 C108 1.356 . S
C106 H160 0.930 . S
C107 N105 1.279 . S
C107 C106 1.358 . S
C107 H111 0.930 . S
C108 C106 1.356 . S
C108 C109 1.348 . S
C109 C104 1.353 . S
C109 C108 1.348 . S
C109 H161 0.929 . S
H110 C104 0.930 . S
H111 C107 0.930 . S
C112 N113 1.314 . S
C112 C114 1.353 . S
C112 H118 0.930 . S
N113 Li89 1.990 . S
N113 C112 1.314 . S
N113 C116 1.279 . S
C114 C112 1.353 . S
C114 C117 1.348 . S
C114 H162 0.929 . S
C115 C116 1.358 . S
C115 C117 1.356 . S
C115 H163 0.930 . S
C116 N113 1.279 . S
C116 C115 1.358 . S
C116 H119 0.930 . S
C117 C114 1.348 . S
C117 C115 1.356 . S
H118 C112 0.930 . S
H119 C116 0.930 . S
C120 C122 1.348 . S
C120 C123 1.356 . S
C120 O150 1.325 . S
N121 C124 1.314 . S
N121 C125 1.279 . S
C122 C120 1.348 . S
C122 C124 1.353 . S
C122 H164 0.929 . S
C123 C120 1.356 . S
C123 C125 1.358 . S
C123 H165 0.930 . S
C124 N121 1.314 . S
C124 C122 1.353 . S
C124 H166 0.930 . S
C125 N121 1.279 . S
C125 C123 1.358 . S
C125 H167 0.930 . S
C126 C127 1.348 . S
C126 C128 1.356 . S
C126 O151 1.325 . S
C127 C126 1.348 . S
C127 C129 1.353 . S
C127 H168 0.929 . S
C128 C126 1.356 . S
C128 C130 1.358 . S
C128 H169 0.930 . S
C129 C127 1.353 . S
C129 N131 1.314 . S
C129 H170 0.930 . S
C130 C128 1.358 . S
C130 N131 1.279 . S
C130 H171 0.930 . S
N131 C129 1.314 . S
N131 C130 1.279 . S
C132 C134 1.353 . S
C132 N135 1.314 . S
C132 H138 0.930 . S
C133 N135 1.279 . S
C133 C136 1.358 . S
C133 H139 0.930 . S
C134 C132 1.353 . S
C134 C137 1.348 . S
C134 H172 0.929 . S
N135 Li90 1.990 . S
N135 C132 1.314 . S
N135 C133 1.279 . S
C136 C133 1.358 . S
C136 C137 1.356 . S
C136 H173 0.930 . S
C137 C134 1.348 . S
C137 C136 1.356 . S
H138 C132 0.930 . S
H139 C133 0.930 . S
C140 N141 1.314 . S
C140 C142 1.353 . S
C140 H146 0.930 . S
N141 Li91 1.990 . S
N141 C140 1.314 . S
N141 C144 1.279 . S
C142 C140 1.353 . S
C142 C145 1.348 . S
C142 H174 0.929 . S
C143 C144 1.358 . S
C143 C145 1.356 . S
C143 H175 0.930 . S
C144 N141 1.279 . S
C144 C143 1.358 . S
C144 H147 0.930 . S
C145 C142 1.348 . S
C145 C143 1.356 . S
H146 C140 0.930 . S
H147 C144 0.930 . S
O148 Li88 1.956 . S
O148 Li89 1.970 . S
O148 Li90 1.961 . S
O148 C92 1.325 . S
O149 Li88 1.970 . S
O149 Li89 1.956 . S
O149 Li91 1.961 . S
O149 C98 1.325 . S
O150 Li88 1.961 . S
O150 Li90 1.956 . S
O150 Li91 1.970 . S
O150 C120 1.325 . S
O151 Li89 1.961 . S
O151 Li90 1.970 . S
O151 Li91 1.956 . S
O151 C126 1.325 . S
H152 C94 0.929 . S
H153 C95 0.930 . S
H154 C96 0.930 . S
H155 C97 0.930 . S
H156 C99 0.930 . S
H157 C101 0.929 . S
H158 C102 0.930 . S
H159 C103 0.930 . S
H160 C106 0.930 . S
H161 C109 0.929 . S
H162 C114 0.929 . S
H163 C115 0.930 . S
H164 C122 0.929 . S
H165 C123 0.930 . S
H166 C124 0.930 . S
H167 C125 0.930 . S
H168 C127 0.929 . S
H169 C128 0.930 . S
H170 C129 0.930 . S
H171 C130 0.930 . S
H172 C134 0.929 . S
H173 C136 0.930 . S
H174 C142 0.929 . S
H175 C143 0.930 . S
Li176 N193 1.990 . S
Li176 O236 1.956 . S
Li176 O237 1.970 . S
Li176 O238 1.961 . S
Li177 N201 1.990 . S
Li177 O236 1.970 . S
Li177 O237 1.956 . S
Li177 O239 1.961 . S
Li178 N223 1.990 . S
Li178 O236 1.961 . S
Li178 O238 1.956 . S
Li178 O239 1.970 . S
Li179 N229 1.990 . S
Li179 O237 1.961 . S
Li179 O238 1.970 . S
Li179 O239 1.956 . S
C180 C182 1.348 1_556 S
C180 C183 1.356 . S
C180 O236 1.325 . S
N181 C184 1.314 . S
N181 C185 1.279 . S
C182 C180 1.348 1_554 S
C182 C184 1.353 . S
C182 H240 0.929 . S
C183 C180 1.356 . S
C183 C185 1.358 1_556 S
C183 H241 0.930 . S
C184 N181 1.314 . S
C184 C182 1.353 . S
C184 H242 0.930 . S
C185 N181 1.279 . S
C185 C183 1.358 1_554 S
C185 H243 0.930 . S
C186 C189 1.348 . S
C186 C190 1.356 . S
C186 O237 1.325 . S
C187 N188 1.279 . S
C187 C190 1.358 . S
C187 H244 0.930 . S
N188 C187 1.279 . S
N188 C191 1.314 . S
C189 C186 1.348 . S
C189 C191 1.353 . S
C189 H245 0.929 . S
C190 C186 1.356 . S
C190 C187 1.358 . S
C190 H246 0.930 . S
C191 N188 1.314 . S
C191 C189 1.353 . S
C191 H247 0.930 . S
C192 N193 1.314 . S
C192 C197 1.353 . S
C192 H198 0.930 . S
N193 Li176 1.990 . S
N193 C192 1.314 . S
N193 C195 1.279 . S
C194 C195 1.358 . S
C194 C196 1.356 . S
C194 H248 0.930 . S
C195 N193 1.279 . S
C195 C194 1.358 . S
C195 H199 0.930 . S
C196 C194 1.356 . S
C196 C197 1.348 . S
C197 C192 1.353 . S
C197 C196 1.348 . S
C197 H249 0.929 . S
H198 C192 0.930 . S
H199 C195 0.930 . S
C200 N201 1.314 1_554 S
C200 C202 1.353 . S
C200 H206 0.930 . S
N201 Li177 1.990 . S
N201 C200 1.314 1_556 S
N201 C204 1.279 . S
C202 C200 1.353 . S
C202 C205 1.348 . S
C202 H250 0.929 . S
C203 C204 1.358 1_554 S
C203 C205 1.356 . S
C203 H251 0.930 . S
C204 N201 1.279 . S
C204 C203 1.358 1_556 S
C204 H207 0.930 . S
C205 C202 1.348 . S
C205 C203 1.356 . S
H206 C200 0.930 . S
H207 C204 0.930 . S
C208 C210 1.348 . S
C208 C211 1.356 . S
C208 O238 1.325 . S
N209 C212 1.314 . S
N209 C213 1.279 . S
C210 C208 1.348 . S
C210 C212 1.353 . S
C210 H252 0.929 . S
C211 C208 1.356 . S
C211 C213 1.358 . S
C211 H253 0.930 . S
C212 N209 1.314 . S
C212 C210 1.353 . S
C212 H254 0.930 . S
C213 N209 1.279 . S
C213 C211 1.358 . S
C213 H255 0.930 . S
C214 C215 1.348 . S
C214 C216 1.356 . S
C214 O239 1.325 . S
C215 C214 1.348 . S
C215 C217 1.353 . S
C215 H256 0.929 . S
C216 C214 1.356 . S
C216 C218 1.358 . S
C216 H257 0.930 . S
C217 C215 1.353 . S
C217 N219 1.314 . S
C217 H258 0.930 . S
C218 C216 1.358 . S
C218 N219 1.279 . S
C218 H259 0.930 . S
N219 C217 1.314 . S
N219 C218 1.279 . S
C220 C222 1.353 1_556 S
C220 N223 1.314 . S
C220 H226 0.930 1_556 S
C221 N223 1.279 . S
C221 C224 1.358 . S
C221 H227 0.930 . S
C222 C220 1.353 1_554 S
C222 C225 1.348 1_554 S
C222 H260 0.929 . S
N223 Li178 1.990 . S
N223 C220 1.314 . S
N223 C221 1.279 . S
C224 C221 1.358 . S
C224 C225 1.356 . S
C224 H261 0.930 . S
C225 C222 1.348 1_556 S
C225 C224 1.356 . S
H226 C220 0.930 1_554 S
H227 C221 0.930 . S
C228 N229 1.314 . S
C228 C230 1.353 . S
C228 H234 0.930 . S
N229 Li179 1.990 . S
N229 C228 1.314 . S
N229 C232 1.279 . S
C230 C228 1.353 . S
C230 C233 1.348 . S
C230 H262 0.929 . S
C231 C232 1.358 . S
C231 C233 1.356 . S
C231 H263 0.930 . S
C232 N229 1.279 . S
C232 C231 1.358 . S
C232 H235 0.930 . S
C233 C230 1.348 . S
C233 C231 1.356 . S
H234 C228 0.930 . S
H235 C232 0.930 . S
O236 Li176 1.956 . S
O236 Li177 1.970 . S
O236 Li178 1.961 . S
O236 C180 1.325 . S
O237 Li176 1.970 . S
O237 Li177 1.956 . S
O237 Li179 1.961 . S
O237 C186 1.325 . S
O238 Li176 1.961 . S
O238 Li178 1.956 . S
O238 Li179 1.970 . S
O238 C208 1.325 . S
O239 Li177 1.961 . S
O239 Li178 1.970 . S
O239 Li179 1.956 . S
O239 C214 1.325 . S
H240 C182 0.929 . S
H241 C183 0.930 . S
H242 C184 0.930 . S
H243 C185 0.930 . S
H244 C187 0.930 . S
H245 C189 0.929 . S
H246 C190 0.930 . S
H247 C191 0.930 . S
H248 C194 0.930 . S
H249 C197 0.929 . S
H250 C202 0.929 . S
H251 C203 0.930 . S
H252 C210 0.929 . S
H253 C211 0.930 . S
H254 C212 0.930 . S
H255 C213 0.930 . S
H256 C215 0.929 . S
H257 C216 0.930 . S
H258 C217 0.930 . S
H259 C218 0.930 . S
H260 C222 0.929 . S
H261 C224 0.930 . S
H262 C230 0.929 . S
H263 C231 0.930 . S
Li264 N281 1.990 . S
Li264 O324 1.956 . S
Li264 O325 1.970 . S
Li264 O326 1.961 . S
Li265 N289 1.990 . S
Li265 O324 1.970 . S
Li265 O325 1.956 . S
Li265 O327 1.961 . S
Li266 N311 1.990 . S
Li266 O324 1.961 . S
Li266 O326 1.956 . S
Li266 O327 1.970 . S
Li267 N317 1.990 . S
Li267 O325 1.961 . S
Li267 O326 1.970 . S
Li267 O327 1.956 . S
C268 C270 1.348 . S
C268 C271 1.356 . S
C268 O324 1.325 . S
N269 C272 1.314 . S
N269 C273 1.279 . S
C270 C268 1.348 . S
C270 C272 1.353 . S
C270 H328 0.929 . S
C271 C268 1.356 . S
C271 C273 1.358 . S
C271 H329 0.930 . S
C272 N269 1.314 . S
C272 C270 1.353 . S
C272 H330 0.930 . S
C273 N269 1.279 . S
C273 C271 1.358 . S
C273 H331 0.930 . S
C274 C277 1.348 . S
C274 C278 1.356 . S
C274 O325 1.325 . S
C275 N276 1.279 . S
C275 C278 1.358 . S
C275 H332 0.930 . S
N276 C275 1.279 . S
N276 C279 1.314 . S
C277 C274 1.348 . S
C277 C279 1.353 . S
C277 H333 0.929 . S
C278 C274 1.356 . S
C278 C275 1.358 . S
C278 H334 0.930 . S
C279 N276 1.314 . S
C279 C277 1.353 . S
C279 H335 0.930 . S
C280 N281 1.314 . S
C280 C285 1.353 1_554 S
C280 H286 0.930 1_554 S
N281 Li264 1.990 . S
N281 C280 1.314 . S
N281 C283 1.279 . S
C282 C283 1.358 . S
C282 C284 1.356 . S
C282 H336 0.930 . S
C283 N281 1.279 . S
C283 C282 1.358 . S
C283 H287 0.930 . S
C284 C282 1.356 . S
C284 C285 1.348 1_554 S
C285 C280 1.353 1_556 S
C285 C284 1.348 1_556 S
C285 H337 0.929 . S
H286 C280 0.930 1_556 S
H287 C283 0.930 . S
C288 N289 1.314 . S
C288 C290 1.353 . S
C288 H294 0.930 . S
N289 Li265 1.990 . S
N289 C288 1.314 . S
N289 C292 1.279 . S
C290 C288 1.353 . S
C290 C293 1.348 . S
C290 H338 0.929 . S
C291 C292 1.358 . S
C291 C293 1.356 . S
C291 H339 0.930 . S
C292 N289 1.279 . S
C292 C291 1.358 . S
C292 H295 0.930 . S
C293 C290 1.348 . S
C293 C291 1.356 . S
H294 C288 0.930 . S
H295 C292 0.930 . S
C296 C298 1.348 1_554 S
C296 C299 1.356 . S
C296 O326 1.325 . S
N297 C300 1.314 . S
N297 C301 1.279 . S
C298 C296 1.348 1_556 S
C298 C300 1.353 . S
C298 H340 0.929 . S
C299 C296 1.356 . S
C299 C301 1.358 1_554 S
C299 H341 0.930 . S
C300 N297 1.314 . S
C300 C298 1.353 . S
C300 H342 0.930 . S
C301 N297 1.279 . S
C301 C299 1.358 1_556 S
C301 H343 0.930 . S
C302 C303 1.348 . S
C302 C304 1.356 . S
C302 O327 1.325 . S
C303 C302 1.348 . S
C303 C305 1.353 . S
C303 H344 0.929 . S
C304 C302 1.356 . S
C304 C306 1.358 . S
C304 H345 0.930 . S
C305 C303 1.353 . S
C305 N307 1.314 . S
C305 H346 0.930 . S
C306 C304 1.358 . S
C306 N307 1.279 . S
C306 H347 0.930 . S
N307 C305 1.314 . S
N307 C306 1.279 . S
C308 C310 1.353 . S
C308 N311 1.314 . S
C308 H314 0.930 . S
C309 N311 1.279 . S
C309 C312 1.358 . S
C309 H315 0.930 . S
C310 C308 1.353 . S
C310 C313 1.348 . S
C310 H348 0.929 . S
N311 Li266 1.990 . S
N311 C308 1.314 . S
N311 C309 1.279 . S
C312 C309 1.358 . S
C312 C313 1.356 . S
C312 H349 0.930 . S
C313 C310 1.348 . S
C313 C312 1.356 . S
H314 C308 0.930 . S
H315 C309 0.930 . S
C316 N317 1.314 1_556 S
C316 C318 1.353 . S
C316 H322 0.930 . S
N317 Li267 1.990 . S
N317 C316 1.314 1_554 S
N317 C320 1.279 . S
C318 C316 1.353 . S
C318 C321 1.348 . S
C318 H350 0.929 . S
C319 C320 1.358 1_556 S
C319 C321 1.356 . S
C319 H351 0.930 . S
C320 N317 1.279 . S
C320 C319 1.358 1_554 S
C320 H323 0.930 . S
C321 C318 1.348 . S
C321 C319 1.356 . S
H322 C316 0.930 . S
H323 C320 0.930 . S
O324 Li264 1.956 . S
O324 Li265 1.970 . S
O324 Li266 1.961 . S
O324 C268 1.325 . S
O325 Li264 1.970 . S
O325 Li265 1.956 . S
O325 Li267 1.961 . S
O325 C274 1.325 . S
O326 Li264 1.961 . S
O326 Li266 1.956 . S
O326 Li267 1.970 . S
O326 C296 1.325 . S
O327 Li265 1.961 . S
O327 Li266 1.970 . S
O327 Li267 1.956 . S
O327 C302 1.325 . S
H328 C270 0.929 . S
H329 C271 0.930 . S
H330 C272 0.930 . S
H331 C273 0.930 . S
H332 C275 0.930 . S
H333 C277 0.929 . S
H334 C278 0.930 . S
H335 C279 0.930 . S
H336 C282 0.930 . S
H337 C285 0.929 . S
H338 C290 0.929 . S
H339 C291 0.930 . S
H340 C298 0.929 . S
H341 C299 0.930 . S
H342 C300 0.930 . S
H343 C301 0.930 . S
H344 C303 0.929 . S
H345 C304 0.930 . S
H346 C305 0.930 . S
H347 C306 0.930 . S
H348 C310 0.929 . S
H349 C312 0.930 . S
H350 C318 0.929 . S
H351 C319 0.930 . S
Li352 N369 1.990 . S
Li352 O412 1.956 . S
Li352 O413 1.970 . S
Li352 O414 1.961 . S
Li353 N377 1.990 . S
Li353 O412 1.970 . S
Li353 O413 1.956 . S
Li353 O415 1.961 . S
Li354 N399 1.990 . S
Li354 O412 1.961 . S
Li354 O414 1.956 . S
Li354 O415 1.970 . S
Li355 N405 1.990 . S
Li355 O413 1.961 . S
Li355 O414 1.970 . S
Li355 O415 1.956 . S
C356 C358 1.348 . S
C356 C359 1.356 . S
C356 O412 1.325 . S
N357 C360 1.314 . S
N357 C361 1.279 . S
C358 C356 1.348 . S
C358 C360 1.353 . S
C358 H416 0.929 . S
C359 C356 1.356 . S
C359 C361 1.358 . S
C359 H417 0.930 . S
C360 N357 1.314 . S
C360 C358 1.353 . S
C360 H418 0.930 . S
C361 N357 1.279 . S
C361 C359 1.358 . S
C361 H419 0.930 . S
C362 C365 1.348 . S
C362 C366 1.356 . S
C362 O413 1.325 . S
C363 N364 1.279 . S
C363 C366 1.358 . S
C363 H420 0.930 . S
N364 C363 1.279 . S
N364 C367 1.314 . S
C365 C362 1.348 . S
C365 C367 1.353 . S
C365 H421 0.929 . S
C366 C362 1.356 . S
C366 C363 1.358 . S
C366 H422 0.930 . S
C367 N364 1.314 . S
C367 C365 1.353 . S
C367 H423 0.930 . S
C368 N369 1.314 . S
C368 C373 1.353 . S
C368 H374 0.930 . S
N369 Li352 1.990 . S
N369 C368 1.314 . S
N369 C371 1.279 . S
C370 C371 1.358 . S
C370 C372 1.356 . S
C370 H424 0.930 . S
C371 N369 1.279 . S
C371 C370 1.358 . S
C371 H375 0.930 . S
C372 C370 1.356 . S
C372 C373 1.348 . S
C373 C368 1.353 . S
C373 C372 1.348 . S
C373 H425 0.929 . S
H374 C368 0.930 . S
H375 C371 0.930 . S
C376 N377 1.314 . S
C376 C378 1.353 . S
C376 H382 0.930 . S
N377 Li353 1.990 . S
N377 C376 1.314 . S
N377 C380 1.279 . S
C378 C376 1.353 . S
C378 C381 1.348 . S
C378 H426 0.929 . S
C379 C380 1.358 . S
C379 C381 1.356 . S
C379 H427 0.930 . S
C380 N377 1.279 . S
C380 C379 1.358 . S
C380 H383 0.930 . S
C381 C378 1.348 . S
C381 C379 1.356 . S
H382 C376 0.930 . S
H383 C380 0.930 . S
C384 C386 1.348 . S
C384 C387 1.356 . S
C384 O414 1.325 . S
N385 C388 1.314 . S
N385 C389 1.279 . S
C386 C384 1.348 . S
C386 C388 1.353 . S
C386 H428 0.929 . S
C387 C384 1.356 . S
C387 C389 1.358 . S
C387 H429 0.930 . S
C388 N385 1.314 . S
C388 C386 1.353 . S
C388 H430 0.930 . S
C389 N385 1.279 . S
C389 C387 1.358 . S
C389 H431 0.930 . S
C390 C391 1.348 . S
C390 C392 1.356 . S
C390 O415 1.325 . S
C391 C390 1.348 . S
C391 C393 1.353 . S
C391 H432 0.929 . S
C392 C390 1.356 . S
C392 C394 1.358 . S
C392 H433 0.930 . S
C393 C391 1.353 . S
C393 N395 1.314 . S
C393 H434 0.930 . S
C394 C392 1.358 . S
C394 N395 1.279 . S
C394 H435 0.930 . S
N395 C393 1.314 . S
N395 C394 1.279 . S
C396 C398 1.353 . S
C396 N399 1.314 . S
C396 H402 0.930 . S
C397 N399 1.279 . S
C397 C400 1.358 . S
C397 H403 0.930 . S
C398 C396 1.353 . S
C398 C401 1.348 . S
C398 H436 0.929 . S
N399 Li354 1.990 . S
N399 C396 1.314 . S
N399 C397 1.279 . S
C400 C397 1.358 . S
C400 C401 1.356 . S
C400 H437 0.930 . S
C401 C398 1.348 . S
C401 C400 1.356 . S
H402 C396 0.930 . S
H403 C397 0.930 . S
C404 N405 1.314 . S
C404 C406 1.353 . S
C404 H410 0.930 . S
N405 Li355 1.990 . S
N405 C404 1.314 . S
N405 C408 1.279 . S
C406 C404 1.353 . S
C406 C409 1.348 . S
C406 H438 0.929 . S
C407 C408 1.358 . S
C407 C409 1.356 . S
C407 H439 0.930 . S
C408 N405 1.279 . S
C408 C407 1.358 . S
C408 H411 0.930 . S
C409 C406 1.348 . S
C409 C407 1.356 . S
H410 C404 0.930 . S
H411 C408 0.930 . S
O412 Li352 1.956 . S
O412 Li353 1.970 . S
O412 Li354 1.961 . S
O412 C356 1.325 . S
O413 Li352 1.970 . S
O413 Li353 1.956 . S
O413 Li355 1.961 . S
O413 C362 1.325 . S
O414 Li352 1.961 . S
O414 Li354 1.956 . S
O414 Li355 1.970 . S
O414 C384 1.325 . S
O415 Li353 1.961 . S
O415 Li354 1.970 . S
O415 Li355 1.956 . S
O415 C390 1.325 . S
H416 C358 0.929 . S
H417 C359 0.930 . S
H418 C360 0.930 . S
H419 C361 0.930 . S
H420 C363 0.930 . S
H421 C365 0.929 . S
H422 C366 0.930 . S
H423 C367 0.930 . S
H424 C370 0.930 . S
H425 C373 0.929 . S
H426 C378 0.929 . S
H427 C379 0.930 . S
H428 C386 0.929 . S
H429 C387 0.930 . S
H430 C388 0.930 . S
H431 C389 0.930 . S
H432 C391 0.929 . S
H433 C392 0.930 . S
H434 C393 0.930 . S
H435 C394 0.930 . S
H436 C398 0.929 . S
H437 C400 0.930 . S
H438 C406 0.929 . S
H439 C407 0.930 . S
Li440 N457 1.990 . S
Li440 O500 1.956 . S
Li440 O501 1.970 . S
Li440 O502 1.961 . S
Li441 N465 1.990 . S
Li441 O500 1.970 . S
Li441 O501 1.956 . S
Li441 O503 1.961 . S
Li442 N487 1.990 . S
Li442 O500 1.961 . S
Li442 O502 1.956 . S
Li442 O503 1.970 . S
Li443 N493 1.990 . S
Li443 O501 1.961 . S
Li443 O502 1.970 . S
Li443 O503 1.956 . S
C444 C446 1.348 . S
C444 C447 1.356 . S
C444 O500 1.325 . S
N445 C448 1.314 . S
N445 C449 1.279 . S
C446 C444 1.348 . S
C446 C448 1.353 . S
C446 H504 0.929 . S
C447 C444 1.356 . S
C447 C449 1.358 . S
C447 H505 0.930 . S
C448 N445 1.314 . S
C448 C446 1.353 . S
C448 H506 0.930 . S
C449 N445 1.279 . S
C449 C447 1.358 . S
C449 H507 0.930 . S
C450 C453 1.348 . S
C450 C454 1.356 . S
C450 O501 1.325 . S
C451 N452 1.279 . S
C451 C454 1.358 . S
C451 H508 0.930 . S
N452 C451 1.279 . S
N452 C455 1.314 . S
C453 C450 1.348 . S
C453 C455 1.353 . S
C453 H509 0.929 . S
C454 C450 1.356 . S
C454 C451 1.358 . S
C454 H510 0.930 . S
C455 N452 1.314 . S
C455 C453 1.353 . S
C455 H511 0.930 . S
C456 N457 1.314 . S
C456 C461 1.353 . S
C456 H462 0.930 . S
N457 Li440 1.990 . S
N457 C456 1.314 . S
N457 C459 1.279 . S
C458 C459 1.358 . S
C458 C460 1.356 . S
C458 H512 0.930 . S
C459 N457 1.279 . S
C459 C458 1.358 . S
C459 H463 0.930 . S
C460 C458 1.356 . S
C460 C461 1.348 . S
C461 C456 1.353 . S
C461 C460 1.348 . S
C461 H513 0.929 . S
H462 C456 0.930 . S
H463 C459 0.930 . S
C464 N465 1.314 . S
C464 C466 1.353 . S
C464 H470 0.930 . S
N465 Li441 1.990 . S
N465 C464 1.314 . S
N465 C468 1.279 . S
C466 C464 1.353 . S
C466 C469 1.348 . S
C466 H514 0.929 . S
C467 C468 1.358 . S
C467 C469 1.356 . S
C467 H515 0.930 . S
C468 N465 1.279 . S
C468 C467 1.358 . S
C468 H471 0.930 . S
C469 C466 1.348 . S
C469 C467 1.356 . S
H470 C464 0.930 . S
H471 C468 0.930 . S
C472 C474 1.348 . S
C472 C475 1.356 . S
C472 O502 1.325 . S
N473 C476 1.314 . S
N473 C477 1.279 . S
C474 C472 1.348 . S
C474 C476 1.353 . S
C474 H516 0.929 . S
C475 C472 1.356 . S
C475 C477 1.358 . S
C475 H517 0.930 . S
C476 N473 1.314 . S
C476 C474 1.353 . S
C476 H518 0.930 . S
C477 N473 1.279 . S
C477 C475 1.358 . S
C477 H519 0.930 . S
C478 C479 1.348 . S
C478 C480 1.356 . S
C478 O503 1.325 . S
C479 C478 1.348 . S
C479 C481 1.353 . S
C479 H520 0.929 . S
C480 C478 1.356 . S
C480 C482 1.358 . S
C480 H521 0.930 . S
C481 C479 1.353 . S
C481 N483 1.314 . S
C481 H522 0.930 . S
C482 C480 1.358 . S
C482 N483 1.279 . S
C482 H523 0.930 . S
N483 C481 1.314 . S
N483 C482 1.279 . S
C484 C486 1.353 . S
C484 N487 1.314 . S
C484 H490 0.930 . S
C485 N487 1.279 . S
C485 C488 1.358 . S
C485 H491 0.930 . S
C486 C484 1.353 . S
C486 C489 1.348 . S
C486 H524 0.929 . S
N487 Li442 1.990 . S
N487 C484 1.314 . S
N487 C485 1.279 . S
C488 C485 1.358 . S
C488 C489 1.356 . S
C488 H525 0.930 . S
C489 C486 1.348 . S
C489 C488 1.356 . S
H490 C484 0.930 . S
H491 C485 0.930 . S
C492 N493 1.314 . S
C492 C494 1.353 . S
C492 H498 0.930 . S
N493 Li443 1.990 . S
N493 C492 1.314 . S
N493 C496 1.279 . S
C494 C492 1.353 . S
C494 C497 1.348 . S
C494 H526 0.929 . S
C495 C496 1.358 . S
C495 C497 1.356 . S
C495 H527 0.930 . S
C496 N493 1.279 . S
C496 C495 1.358 . S
C496 H499 0.930 . S
C497 C494 1.348 . S
C497 C495 1.356 . S
H498 C492 0.930 . S
H499 C496 0.930 . S
O500 Li440 1.956 . S
O500 Li441 1.970 . S
O500 Li442 1.961 . S
O500 C444 1.325 . S
O501 Li440 1.970 . S
O501 Li441 1.956 . S
O501 Li443 1.961 . S
O501 C450 1.325 . S
O502 Li440 1.961 . S
O502 Li442 1.956 . S
O502 Li443 1.970 . S
O502 C472 1.325 . S
O503 Li441 1.961 . S
O503 Li442 1.970 . S
O503 Li443 1.956 . S
O503 C478 1.325 . S
H504 C446 0.929 . S
H505 C447 0.930 . S
H506 C448 0.930 . S
H507 C449 0.930 . S
H508 C451 0.930 . S
H509 C453 0.929 . S
H510 C454 0.930 . S
H511 C455 0.930 . S
H512 C458 0.930 . S
H513 C461 0.929 . S
H514 C466 0.929 . S
H515 C467 0.930 . S
H516 C474 0.929 . S
H517 C475 0.930 . S
H518 C476 0.930 . S
H519 C477 0.930 . S
H520 C479 0.929 . S
H521 C480 0.930 . S
H522 C481 0.930 . S
H523 C482 0.930 . S
H524 C486 0.929 . S
H525 C488 0.930 . S
H526 C494 0.929 . S
H527 C495 0.930 . S
C20 C489 1.386 1_545 S
C49 C117 1.387 . S
C196 C145 1.386 1_655 S
C284 C225 1.386 1_564 S
C372 C313 1.387 . S
C460 C401 1.386 1_455 S
C57 C381 1.632 . S
C469 C137 1.632 . S
C233 C29 1.632 . S
C108 C321 1.632 . S
C205 C409 1.632 . S
C497 C293 1.632 . S
