# Generated by pormake.
# Topology tzs, (4)-cn, num edge types: 1
# Building blocks:
#     Node 0, Type 0, BuildingBlock: QUQFOY_clean_sbu_1, # of connection points: 4
#     Node 1, Type 0, BuildingBlock: QUQFOY_clean_sbu_1, # of connection points: 4
#     Node 2, Type 0, BuildingBlock: QUQFOY_clean_sbu_1, # of connection points: 4
#     Node 3, Type 0, BuildingBlock: QUQFOY_clean_sbu_1, # of connection points: 4
#     Node 4, Type 0, BuildingBlock: QUQFOY_clean_sbu_1, # of connection points: 4
#     Node 5, Type 0, BuildingBlock: QUQFOY_clean_sbu_1, # of connection points: 4
#     Node 6, Type 0, BuildingBlock: QUQFOY_clean_sbu_1, # of connection points: 4
#     Node 7, Type 0, BuildingBlock: QUQFOY_clean_sbu_1, # of connection points: 4
#     Node 8, Type 0, BuildingBlock: QUQFOY_clean_sbu_1, # of connection points: 4
#     Node 9, Type 0, BuildingBlock: QUQFOY_clean_sbu_1, # of connection points: 4
#     Node 10, Type 0, BuildingBlock: QUQFOY_clean_sbu_1, # of connection points: 4
#     Node 11, Type 0, BuildingBlock: QUQFOY_clean_sbu_1, # of connection points: 4
#     Node 12, Type 0, BuildingBlock: QUQFOY_clean_sbu_1, # of connection points: 4
#     Node 13, Type 0, BuildingBlock: QUQFOY_clean_sbu_1, # of connection points: 4
#     Node 14, Type 0, BuildingBlock: QUQFOY_clean_sbu_1, # of connection points: 4
#     Node 15, Type 0, BuildingBlock: QUQFOY_clean_sbu_1, # of connection points: 4
#     Edge 16, Type (0, 0), BuildingBlock: KIFKEQ_clean_linker_1, # of connection points: 2
#     Edge 17, Type (0, 0), BuildingBlock: KIFKEQ_clean_linker_1, # of connection points: 2
#     Edge 18, Type (0, 0), BuildingBlock: KIFKEQ_clean_linker_1, # of connection points: 2
#     Edge 19, Type (0, 0), BuildingBlock: KIFKEQ_clean_linker_1, # of connection points: 2
#     Edge 20, Type (0, 0), BuildingBlock: KIFKEQ_clean_linker_1, # of connection points: 2
#     Edge 21, Type (0, 0), BuildingBlock: KIFKEQ_clean_linker_1, # of connection points: 2
#     Edge 22, Type (0, 0), BuildingBlock: KIFKEQ_clean_linker_1, # of connection points: 2
#     Edge 23, Type (0, 0), BuildingBlock: KIFKEQ_clean_linker_1, # of connection points: 2
#     Edge 24, Type (0, 0), BuildingBlock: KIFKEQ_clean_linker_1, # of connection points: 2
#     Edge 25, Type (0, 0), BuildingBlock: KIFKEQ_clean_linker_1, # of connection points: 2
#     Edge 26, Type (0, 0), BuildingBlock: KIFKEQ_clean_linker_1, # of connection points: 2
#     Edge 27, Type (0, 0), BuildingBlock: KIFKEQ_clean_linker_1, # of connection points: 2
#     Edge 28, Type (0, 0), BuildingBlock: KIFKEQ_clean_linker_1, # of connection points: 2
#     Edge 29, Type (0, 0), BuildingBlock: KIFKEQ_clean_linker_1, # of connection points: 2
#     Edge 30, Type (0, 0), BuildingBlock: KIFKEQ_clean_linker_1, # of connection points: 2
#     Edge 31, Type (0, 0), BuildingBlock: KIFKEQ_clean_linker_1, # of connection points: 2
#     Edge 32, Type (0, 0), BuildingBlock: KIFKEQ_clean_linker_1, # of connection points: 2
#     Edge 33, Type (0, 0), BuildingBlock: KIFKEQ_clean_linker_1, # of connection points: 2
#     Edge 34, Type (0, 0), BuildingBlock: KIFKEQ_clean_linker_1, # of connection points: 2
#     Edge 35, Type (0, 0), BuildingBlock: KIFKEQ_clean_linker_1, # of connection points: 2
#     Edge 36, Type (0, 0), BuildingBlock: KIFKEQ_clean_linker_1, # of connection points: 2
#     Edge 37, Type (0, 0), BuildingBlock: KIFKEQ_clean_linker_1, # of connection points: 2
#     Edge 38, Type (0, 0), BuildingBlock: KIFKEQ_clean_linker_1, # of connection points: 2
#     Edge 39, Type (0, 0), BuildingBlock: KIFKEQ_clean_linker_1, # of connection points: 2
#     Edge 40, Type (0, 0), BuildingBlock: KIFKEQ_clean_linker_1, # of connection points: 2
#     Edge 41, Type (0, 0), BuildingBlock: KIFKEQ_clean_linker_1, # of connection points: 2
#     Edge 42, Type (0, 0), BuildingBlock: KIFKEQ_clean_linker_1, # of connection points: 2
#     Edge 43, Type (0, 0), BuildingBlock: KIFKEQ_clean_linker_1, # of connection points: 2
#     Edge 44, Type (0, 0), BuildingBlock: KIFKEQ_clean_linker_1, # of connection points: 2
#     Edge 45, Type (0, 0), BuildingBlock: KIFKEQ_clean_linker_1, # of connection points: 2
#     Edge 46, Type (0, 0), BuildingBlock: KIFKEQ_clean_linker_1, # of connection points: 2
#     Edge 47, Type (0, 0), BuildingBlock: KIFKEQ_clean_linker_1, # of connection points: 2
# Relax obj value: 0.147
# Max RMSD: 0.160
# Mean RMSD: 0.160
data_MOF--net-tzs--node1-QUQFOY_clean_sbu_1--edge1-KIFKEQ_clean_linker_1
_symmetry_space_group_name_H-M    P1
_symmetry_Int_Tables_number       1
_symmetry_cell_setting            triclinic
loop_
_symmetry_equiv_pos_as_xyz
'x, y, z'
_cell_length_a     49.69208
_cell_length_b     49.74702
_cell_length_c     45.758592
_cell_angle_alpha  89.987464
_cell_angle_beta   90.002714
_cell_angle_gamma 89.943095
loop_
_atom_site_label
_atom_site_type_symbol
_atom_site_fract_x
_atom_site_fract_y
_atom_site_fract_z
_atom_type_partial_charge
O0 O 0.16207 0.38334 0.22652 0.0
Cd1 Cd 0.14632 0.34631 0.21615 0.0
Cd2 Cd 0.12659 0.37617 0.16853 0.0
O3 O 0.14986 0.40585 0.18716 0.0
O4 O 0.16125 0.32365 0.24796 0.0
O5 O 0.17045 0.31666 0.20137 0.0
C6 C 0.17358 0.30982 0.22838 0.0
C7 C 0.12783 0.37137 0.11758 0.0
C8 C 0.16182 0.40491 0.21169 0.0
C9 C 0.08632 0.35234 0.21029 0.0
O10 O 0.09032 0.36807 0.18884 0.0
O11 O 0.10588 0.3406 0.22275 0.0
O12 O 0.11602 0.39142 0.12995 0.0
O13 O 0.13932 0.35381 0.13424 0.0
O14 O 0.59904 0.15793 0.22324 0.0
Cd15 Cd 0.63662 0.14329 0.2139 0.0
Cd16 Cd 0.6095 0.12305 0.16471 0.0
O17 O 0.57817 0.14474 0.18315 0.0
O18 O 0.65888 0.15937 0.24536 0.0
O19 O 0.66592 0.16741 0.19849 0.0
C20 C 0.67267 0.17128 0.22542 0.0
C21 C 0.61443 0.12564 0.11377 0.0
C22 C 0.57793 0.15671 0.2077 0.0
C23 C 0.63351 0.08325 0.20738 0.0
O24 O 0.61968 0.08674 0.18429 0.0
O25 O 0.64268 0.10324 0.22139 0.0
O26 O 0.59505 0.11247 0.12575 0.0
O27 O 0.63133 0.1376 0.13081 0.0
O28 O 0.82708 0.59902 0.22593 0.0
Cd29 Cd 0.84079 0.63723 0.21835 0.0
Cd30 Cd 0.86148 0.61259 0.1677 0.0
O31 O 0.84087 0.58009 0.18491 0.0
O32 O 0.82334 0.6587 0.24959 0.0
O33 O 0.81605 0.66576 0.20252 0.0
C34 C 0.8114 0.6722 0.2294 0.0
C35 C 0.8601 0.61744 0.11678 0.0
C36 C 0.82881 0.57863 0.20936 0.0
C37 C 0.9007 0.6366 0.21138 0.0
O38 O 0.89727 0.62378 0.18764 0.0
O39 O 0.88064 0.64434 0.2263 0.0
O40 O 0.87453 0.59925 0.12923 0.0
O41 O 0.846 0.63311 0.13328 0.0
O42 O 0.38197 0.82611 0.21857 0.0
Cd43 Cd 0.34422 0.84211 0.21228 0.0
Cd44 Cd 0.37135 0.8654 0.16476 0.0
O45 O 0.40344 0.84382 0.18104 0.0
O46 O 0.32426 0.82379 0.2441 0.0
O47 O 0.31333 0.81954 0.19757 0.0
C48 C 0.30884 0.81346 0.22456 0.0
C49 C 0.36457 0.86462 0.11412 0.0
C50 C 0.40339 0.82921 0.20383 0.0
C51 C 0.34804 0.90238 0.21063 0.0
O52 O 0.36156 0.90016 0.18716 0.0
O53 O 0.33865 0.88173 0.22329 0.0
O54 O 0.38334 0.87882 0.12587 0.0
O55 O 0.34933 0.85064 0.13119 0.0
O56 O 0.16256 0.60096 0.293 0.0
Cd57 Cd 0.14551 0.63824 0.29792 0.0
Cd58 Cd 0.12273 0.61273 0.34757 0.0
O59 O 0.14397 0.58052 0.33069 0.0
O60 O 0.1633 0.65826 0.26579 0.0
O61 O 0.16704 0.66994 0.31219 0.0
C62 C 0.17307 0.67425 0.28514 0.0
C63 C 0.12364 0.6177 0.39854 0.0
C64 C 0.15906 0.57996 0.30826 0.0
C65 C 0.08501 0.63528 0.30183 0.0
O66 O 0.08755 0.62373 0.32648 0.0
O67 O 0.10559 0.64242 0.28738 0.0
O68 O 0.11007 0.59891 0.38602 0.0
O69 O 0.13688 0.63407 0.38201 0.0
O70 O 0.37769 0.15076 0.28602 0.0
Cd71 Cd 0.34094 0.13861 0.302 0.0
Cd72 Cd 0.37272 0.12495 0.34852 0.0
O73 O 0.40037 0.14906 0.32738 0.0
O74 O 0.31587 0.1521 0.2716 0.0
O75 O 0.31479 0.1661 0.31742 0.0
C76 C 0.30533 0.16739 0.29117 0.0
C77 C 0.36854 0.12887 0.39936 0.0
C78 C 0.39899 0.1553 0.3005 0.0
C79 C 0.34786 0.08041 0.31309 0.0
O80 O 0.36633 0.08701 0.33093 0.0
O81 O 0.33306 0.09825 0.30151 0.0
O82 O 0.38923 0.11779 0.38741 0.0
O83 O 0.35 0.13817 0.38231 0.0
O84 O 0.83267 0.37543 0.27703 0.0
Cd85 Cd 0.84559 0.33872 0.29231 0.0
Cd86 Cd 0.8584 0.36937 0.33974 0.0
O87 O 0.83373 0.39686 0.31917 0.0
O88 O 0.83151 0.31326 0.26271 0.0
O89 O 0.81884 0.31263 0.30905 0.0
C90 C 0.81686 0.30288 0.28297 0.0
C91 C 0.85523 0.36582 0.3907 0.0
C92 C 0.82761 0.39617 0.29223 0.0
C93 C 0.90359 0.34634 0.30346 0.0
O94 O 0.89648 0.36393 0.32209 0.0
O95 O 0.88613 0.33163 0.29114 0.0
O96 O 0.86586 0.38643 0.37821 0.0
O97 O 0.84596 0.34696 0.37413 0.0
O98 O 0.60036 0.82406 0.28655 0.0
Cd99 Cd 0.63755 0.83972 0.29554 0.0
Cd100 Cd 0.61018 0.86123 0.34362 0.0
O101 O 0.57877 0.83999 0.32494 0.0
O102 O 0.66041 0.8229 0.26506 0.0
O103 O 0.66668 0.81612 0.31232 0.0
C104 C 0.67378 0.81143 0.28565 0.0
C105 C 0.61486 0.85888 0.3946 0.0
C106 C 0.57888 0.82655 0.3013 0.0
C107 C 0.6342 0.90002 0.30022 0.0
O108 O 0.62081 0.89709 0.32369 0.0
O109 O 0.64303 0.87969 0.28649 0.0
O110 O 0.59566 0.87222 0.38243 0.0
O111 O 0.63172 0.84662 0.37772 0.0
O112 O 0.88614 0.6574 0.79068 0.0
Cd113 Cd 0.84825 0.64224 0.79778 0.0
Cd114 Cd 0.87505 0.62083 0.84596 0.0
O115 O 0.90662 0.64381 0.83083 0.0
O116 O 0.82811 0.66039 0.766 0.0
O117 O 0.81795 0.66542 0.81269 0.0
C118 C 0.81316 0.67122 0.78568 0.0
C119 C 0.86723 0.6209 0.89636 0.0
C120 C 0.90696 0.65646 0.80671 0.0
C121 C 0.85273 0.58249 0.80064 0.0
O122 O 0.867 0.58559 0.82345 0.0
O123 O 0.84212 0.60257 0.78803 0.0
O124 O 0.88683 0.60761 0.88494 0.0
O125 O 0.85176 0.63446 0.87909 0.0
O126 O 0.32822 0.87856 0.78314 0.0
Cd127 Cd 0.34253 0.84097 0.7925 0.0
Cd128 Cd 0.36242 0.86804 0.84219 0.0
O129 O 0.34099 0.89939 0.82347 0.0
O130 O 0.32634 0.81892 0.76101 0.0
O131 O 0.31819 0.81191 0.80788 0.0
C132 C 0.3143 0.80523 0.78093 0.0
C133 C 0.3606 0.86439 0.89328 0.0
C134 C 0.32926 0.89959 0.79876 0.0
C135 C 0.40233 0.84359 0.79946 0.0
O136 O 0.39859 0.85717 0.82267 0.0
O137 O 0.38249 0.83467 0.78504 0.0
O138 O 0.37467 0.88265 0.88049 0.0
O139 O 0.34716 0.84797 0.87703 0.0
O140 O 0.09865 0.32566 0.78858 0.0
Cd141 Cd 0.1353 0.34033 0.80187 0.0
Cd142 Cd 0.10401 0.35831 0.84747 0.0
O143 O 0.07553 0.33346 0.82883 0.0
O144 O 0.15948 0.32568 0.77131 0.0
O145 O 0.1635 0.31524 0.81804 0.0
C146 C 0.17181 0.31254 0.79147 0.0
C147 C 0.1099 0.35676 0.89821 0.0
C148 C 0.07708 0.32364 0.80326 0.0
C149 C 0.12802 0.39962 0.80721 0.0
O150 O 0.11063 0.39492 0.82694 0.0
O151 O 0.14179 0.3806 0.7964 0.0
O152 O 0.08906 0.36779 0.88649 0.0
O153 O 0.12763 0.34625 0.88098 0.0
O154 O 0.65919 0.1051 0.78343 0.0
Cd155 Cd 0.64401 0.14223 0.79322 0.0
Cd156 Cd 0.62478 0.11382 0.8423 0.0
O157 O 0.64717 0.08326 0.82333 0.0
O158 O 0.66022 0.16371 0.76128 0.0
O159 O 0.66716 0.17256 0.80799 0.0
C160 C 0.6716 0.17827 0.7809 0.0
C161 C 0.62679 0.11759 0.89341 0.0
C162 C 0.65874 0.08376 0.79856 0.0
C163 C 0.58428 0.13763 0.79985 0.0
O164 O 0.5883 0.12366 0.82275 0.0
O165 O 0.6039 0.14748 0.78576 0.0
O166 O 0.61414 0.09826 0.88074 0.0
O167 O 0.63858 0.13511 0.87698 0.0
O168 O 0.88006 0.32944 0.72115 0.0
Cd169 Cd 0.84348 0.34466 0.70817 0.0
Cd170 Cd 0.87489 0.36008 0.66124 0.0
O171 O 0.90312 0.33537 0.68053 0.0
O172 O 0.82033 0.33044 0.73986 0.0
O173 O 0.81404 0.32042 0.6933 0.0
C174 C 0.80699 0.31756 0.72029 0.0
C175 C 0.86944 0.3572 0.61053 0.0
C176 C 0.90148 0.32638 0.70644 0.0
C177 C 0.85172 0.4034 0.69996 0.0
O178 O 0.86878 0.39745 0.68027 0.0
O179 O 0.8378 0.38521 0.71212 0.0
O180 O 0.89024 0.36836 0.62212 0.0
O181 O 0.85145 0.34735 0.62788 0.0
O182 O 0.66065 0.8822 0.7243 0.0
Cd183 Cd 0.64653 0.84462 0.71482 0.0
Cd184 Cd 0.62568 0.87236 0.66605 0.0
O185 O 0.64746 0.90358 0.68452 0.0
O186 O 0.66383 0.82356 0.74645 0.0
O187 O 0.67057 0.81512 0.69961 0.0
C188 C 0.6755 0.80944 0.72662 0.0
C189 C 0.62724 0.86826 0.61496 0.0
C190 C 0.65939 0.90346 0.7091 0.0
C191 C 0.58657 0.84736 0.70916 0.0
O192 O 0.5898 0.8615 0.68624 0.0
O193 O 0.6067 0.83809 0.72289 0.0
O194 O 0.61414 0.88733 0.62762 0.0
O195 O 0.63973 0.8512 0.63139 0.0
O196 O 0.10678 0.65143 0.73138 0.0
Cd197 Cd 0.14247 0.637 0.71497 0.0
Cd198 Cd 0.10975 0.62363 0.66969 0.0
O199 O 0.08339 0.64935 0.69053 0.0
O200 O 0.16883 0.65019 0.74409 0.0
O201 O 0.16943 0.66263 0.6977 0.0
C202 C 0.17956 0.66431 0.72363 0.0
C203 C 0.11371 0.62701 0.61883 0.0
C204 C 0.08546 0.65642 0.7171 0.0
C205 C 0.13277 0.57889 0.70624 0.0
O206 O 0.11465 0.58575 0.68808 0.0
O207 O 0.14831 0.5964 0.71717 0.0
O208 O 0.0927 0.61682 0.63103 0.0
O209 O 0.13278 0.63554 0.63563 0.0
O210 O 0.3255 0.10287 0.7302 0.0
Cd211 Cd 0.33909 0.14048 0.71987 0.0
Cd212 Cd 0.3582 0.11327 0.67041 0.0
O213 O 0.33629 0.08228 0.68909 0.0
O214 O 0.32315 0.16277 0.75134 0.0
O215 O 0.31383 0.16883 0.70456 0.0
C216 C 0.31032 0.17582 0.73147 0.0
C217 C 0.3561 0.11777 0.61939 0.0
C218 C 0.32565 0.08195 0.71436 0.0
C219 C 0.39878 0.1374 0.71228 0.0
O220 O 0.39476 0.12306 0.68969 0.0
O221 O 0.37912 0.14723 0.72635 0.0
O222 O 0.36894 0.09835 0.63172 0.0
O223 O 0.34405 0.13488 0.63612 0.0
H224 H 0.28593 0.20962 0.32311 0.0
H225 H 0.27637 0.16827 0.24074 0.0
H226 H 0.25309 0.24318 0.3076 0.0
H227 H 0.24293 0.20118 0.22563 0.0
H228 H 0.21007 0.28253 0.19477 0.0
H229 H 0.24081 0.24711 0.21058 0.0
H230 H 0.20656 0.25027 0.29737 0.0
H231 H 0.17662 0.28619 0.28184 0.0
C232 C 0.27651 0.20749 0.30189 0.0
C233 C 0.28381 0.18644 0.2831 0.0
C234 C 0.25761 0.22665 0.29301 0.0
C235 C 0.24547 0.22496 0.26527 0.0
C236 C 0.25227 0.2034 0.24687 0.0
C237 C 0.27131 0.18443 0.25564 0.0
C238 C 0.20906 0.27553 0.21716 0.0
C239 C 0.19108 0.28722 0.23709 0.0
C240 C 0.22657 0.25515 0.22622 0.0
C241 C 0.22623 0.24591 0.25531 0.0
C242 C 0.20774 0.25724 0.27499 0.0
C243 C 0.19045 0.27773 0.26601 0.0
H244 H 0.81523 0.27269 0.23346 0.0
H245 H 0.775 0.28453 0.31617 0.0
H246 H 0.78182 0.23929 0.21978 0.0
H247 H 0.74091 0.25179 0.30207 0.0
H248 H 0.69641 0.17559 0.27875 0.0
H249 H 0.7328 0.20539 0.29315 0.0
H250 H 0.73579 0.23742 0.20535 0.0
H251 H 0.69995 0.20679 0.1907 0.0
C252 C 0.79921 0.26813 0.24874 0.0
C253 C 0.79765 0.28127 0.27586 0.0
C254 C 0.77994 0.24912 0.24079 0.0
C255 C 0.75851 0.24301 0.25967 0.0
C256 C 0.75731 0.25576 0.28712 0.0
C257 C 0.77678 0.2746 0.29519 0.0
C258 C 0.70491 0.18892 0.26247 0.0
C259 C 0.69528 0.18893 0.23359 0.0
C260 C 0.72568 0.20613 0.27079 0.0
C261 C 0.73715 0.22393 0.25049 0.0
C262 C 0.72769 0.22371 0.22147 0.0
C263 C 0.70705 0.20627 0.21308 0.0
H264 H 0.80756 0.69787 0.28165 0.0
H265 H 0.77326 0.69595 0.19494 0.0
H266 H 0.7762 0.73316 0.29554 0.0
H267 H 0.74093 0.73044 0.20916 0.0
H268 H 0.70111 0.80824 0.23439 0.0
H269 H 0.73594 0.77623 0.2209 0.0
H270 H 0.73039 0.73987 0.30657 0.0
H271 H 0.69637 0.77285 0.32043 0.0
C272 C 0.79317 0.70493 0.26559 0.0
C273 C 0.79279 0.69415 0.23722 0.0
C274 C 0.77506 0.72504 0.27362 0.0
C275 C 0.75587 0.73459 0.25357 0.0
C276 C 0.75569 0.72391 0.22506 0.0
C277 C 0.7741 0.70403 0.21691 0.0
C278 C 0.70751 0.79352 0.25041 0.0
C279 C 0.696 0.79295 0.27844 0.0
C280 C 0.72733 0.77502 0.2426 0.0
C281 C 0.73584 0.75524 0.2625 0.0
C282 C 0.72462 0.75502 0.29078 0.0
C283 C 0.70503 0.77383 0.29873 0.0
H284 H 0.30137 0.79063 0.27785 0.0
H285 H 0.26744 0.79424 0.191 0.0
H286 H 0.26714 0.75857 0.2923 0.0
H287 H 0.23226 0.76283 0.20583 0.0
H288 H 0.19613 0.68171 0.23193 0.0
H289 H 0.22731 0.7167 0.21728 0.0
H290 H 0.22101 0.7526 0.30308 0.0
H291 H 0.19055 0.7167 0.31813 0.0
C292 C 0.28635 0.78481 0.26191 0.0
C293 C 0.28717 0.79484 0.23322 0.0
C294 C 0.26654 0.76656 0.2703 0.0
C295 C 0.24686 0.7581 0.25029 0.0
C296 C 0.24736 0.76859 0.22169 0.0
C297 C 0.26742 0.78667 0.21319 0.0
C298 C 0.20132 0.69712 0.24767 0.0
C299 C 0.19104 0.69638 0.27626 0.0
C300 C 0.21905 0.71736 0.23916 0.0
C301 C 0.22672 0.73753 0.25896 0.0
C302 C 0.2159 0.73712 0.28741 0.0
C303 C 0.19836 0.71664 0.29603 0.0
H304 H 0.69536 0.76888 0.69242 0.0
H305 H 0.698 0.80132 0.77994 0.0
H306 H 0.72666 0.73346 0.70693 0.0
H307 H 0.73009 0.76693 0.7941 0.0
H308 H 0.80666 0.69545 0.733 0.0
H309 H 0.77241 0.72765 0.71873 0.0
H310 H 0.73593 0.7209 0.80425 0.0
H311 H 0.77118 0.68947 0.81894 0.0
C312 C 0.70275 0.76851 0.71468 0.0
C313 C 0.69428 0.78784 0.73502 0.0
C314 C 0.72078 0.74832 0.723 0.0
C315 C 0.73097 0.74733 0.75172 0.0
C316 C 0.7223 0.76669 0.772 0.0
C317 C 0.70405 0.78658 0.76379 0.0
C318 C 0.79128 0.70078 0.74875 0.0
C319 C 0.79164 0.69005 0.77715 0.0
C320 C 0.77148 0.71911 0.74048 0.0
C321 C 0.75132 0.72689 0.76028 0.0
C322 C 0.75141 0.71572 0.78857 0.0
C323 C 0.7715 0.69762 0.79699 0.0
H324 H 0.19885 0.70562 0.6903 0.0
H325 H 0.2105 0.66463 0.7726 0.0
H326 H 0.23264 0.73874 0.70426 0.0
H327 H 0.24489 0.69705 0.78613 0.0
H328 H 0.27848 0.77834 0.8156 0.0
H329 H 0.24732 0.74301 0.80084 0.0
H330 H 0.27942 0.74576 0.71306 0.0
H331 H 0.30978 0.78165 0.72757 0.0
C332 C 0.20898 0.70344 0.71113 0.0
C333 C 0.20193 0.68269 0.73043 0.0
C334 C 0.2284 0.72234 0.71913 0.0
C335 C 0.24133 0.72067 0.74646 0.0
C336 C 0.23492 0.69928 0.76523 0.0
C337 C 0.21534 0.68058 0.75737 0.0
C338 C 0.27891 0.77128 0.79321 0.0
C339 C 0.29642 0.78284 0.77272 0.0
C340 C 0.26118 0.75094 0.78475 0.0
C341 C 0.26083 0.74159 0.75571 0.0
C342 C 0.27881 0.75282 0.73544 0.0
C343 C 0.29632 0.77329 0.74382 0.0
H344 H 0.19977 0.3114 0.74049 0.0
H345 H 0.19424 0.27281 0.82486 0.0
H346 H 0.23488 0.28006 0.72607 0.0
H347 H 0.22875 0.24065 0.81005 0.0
H348 H 0.30688 0.20083 0.78414 0.0
H349 H 0.27524 0.23553 0.799 0.0
H350 H 0.2395 0.23409 0.71284 0.0
H351 H 0.27194 0.20003 0.69768 0.0
C352 C 0.20606 0.29615 0.75596 0.0
C353 C 0.19422 0.29445 0.78377 0.0
C354 C 0.22606 0.27806 0.7476 0.0
C355 C 0.23448 0.25766 0.76676 0.0
C356 C 0.22298 0.25632 0.79486 0.0
C357 C 0.20314 0.27465 0.80334 0.0
C358 C 0.29235 0.20804 0.76831 0.0
C359 C 0.29181 0.19769 0.73975 0.0
C360 C 0.2741 0.22782 0.77691 0.0
C361 C 0.2547 0.2375 0.75721 0.0
C362 C 0.25442 0.22737 0.72848 0.0
C363 C 0.2729 0.20776 0.71979 0.0
H364 H 0.6955 0.18518 0.72818 0.0
H365 H 0.68825 0.22109 0.81375 0.0
H366 H 0.72653 0.22028 0.71358 0.0
H367 H 0.7183 0.25731 0.79867 0.0
H368 H 0.79778 0.29724 0.77434 0.0
H369 H 0.76373 0.26507 0.7889 0.0
H370 H 0.73168 0.26546 0.70097 0.0
H371 H 0.76695 0.2967 0.68609 0.0
C372 C 0.70028 0.20087 0.74375 0.0
C373 C 0.68961 0.20036 0.77216 0.0
C374 C 0.71791 0.22118 0.73528 0.0
C375 C 0.72495 0.24176 0.75487 0.0
C376 C 0.71374 0.24154 0.78315 0.0
C377 C 0.69643 0.22088 0.7918 0.0
C378 C 0.78337 0.29055 0.75814 0.0
C379 C 0.78509 0.29933 0.72903 0.0
C380 C 0.76366 0.27222 0.76655 0.0
C381 C 0.74486 0.26257 0.74616 0.0
C382 C 0.74613 0.27203 0.71716 0.0
C383 C 0.76622 0.29004 0.70862 0.0
H384 H 0.15332 0.33945 0.9305 0.0
H385 H 0.07401 0.37429 0.93882 0.0
H386 H 0.15914 0.34229 0.9836 0.0
H387 H 0.07957 0.37658 0.99145 0.0
H388 H 0.1462 0.32929 0.08399 0.0
H389 H 0.14269 0.32441 0.03082 0.0
H390 H 0.1056 0.40283 0.02543 0.0
H391 H 0.10856 0.40743 0.07812 0.0
C392 C 0.13708 0.3475 0.94364 0.0
C393 C 0.1133 0.35685 0.9304 0.0
C394 C 0.14036 0.34902 0.97405 0.0
C395 C 0.11994 0.35996 0.99176 0.0
C396 C 0.09595 0.3686 0.97846 0.0
C397 C 0.0927 0.36713 0.94822 0.0
C398 C 0.13741 0.34549 0.07137 0.0
C399 C 0.12744 0.36864 0.08532 0.0
C400 C 0.1355 0.34275 0.04092 0.0
C401 C 0.12356 0.36309 0.02389 0.0
C402 C 0.11435 0.3865 0.03789 0.0
C403 C 0.1162 0.38921 0.06816 0.0
H404 H 0.60935 0.0801 0.93221 0.0
H405 H 0.64515 0.15909 0.92785 0.0
H406 H 0.60783 0.08307 0.98508 0.0
H407 H 0.64294 0.16242 0.98124 0.0
H408 H 0.57836 0.10751 0.07375 0.0
H409 H 0.58247 0.10692 0.02095 0.0
H410 H 0.66063 0.14445 0.02737 0.0
H411 H 0.65613 0.1457 0.0807 0.0
C412 C 0.61684 0.09819 0.94255 0.0
C413 C 0.62717 0.11945 0.92575 0.0
C414 C 0.61582 0.09997 0.97294 0.0
C415 C 0.62488 0.12315 0.98748 0.0
C416 C 0.63589 0.14422 0.97077 0.0
C417 C 0.63705 0.14237 0.94018 0.0
C418 C 0.59644 0.11572 0.064 0.0
C419 C 0.61701 0.12647 0.0815 0.0
C420 C 0.59887 0.11523 0.03364 0.0
C421 C 0.62206 0.12527 0.01984 0.0
C422 C 0.64245 0.13665 0.03727 0.0
C423 C 0.63993 0.13726 0.06781 0.0
H424 H 0.84243 0.65876 0.93078 0.0
H425 H 0.88282 0.58198 0.93407 0.0
H426 H 0.83992 0.65932 0.98423 0.0
H427 H 0.87905 0.58164 0.98688 0.0
H428 H 0.89873 0.60012 0.07958 0.0
H429 H 0.89906 0.60215 0.02671 0.0
H430 H 0.82125 0.64121 0.02778 0.0
H431 H 0.82177 0.64039 0.08131 0.0
C432 C 0.85036 0.64183 0.94294 0.0
C433 C 0.86314 0.6205 0.92835 0.0
C434 C 0.84884 0.64206 0.97356 0.0
C435 C 0.85971 0.62074 0.99009 0.0
C436 C 0.87128 0.59887 0.97513 0.0
C437 C 0.87325 0.59892 0.94475 0.0
C438 C 0.8817 0.60923 0.06856 0.0
C439 C 0.86013 0.61991 0.08458 0.0
C440 C 0.88175 0.6102 0.03813 0.0
C441 C 0.85991 0.62135 0.02272 0.0
C442 C 0.83849 0.63258 0.03881 0.0
C443 C 0.83869 0.63204 0.06948 0.0
H444 H 0.34156 0.82567 0.07975 0.0
H445 H 0.37999 0.90333 0.076 0.0
H446 H 0.33998 0.8243 0.02631 0.0
H447 H 0.37712 0.90286 0.02311 0.0
H448 H 0.39805 0.8839 0.93067 0.0
H449 H 0.39783 0.88279 0.98359 0.0
H450 H 0.32154 0.84102 0.98228 0.0
H451 H 0.32268 0.8409 0.92878 0.0
C452 C 0.34927 0.84261 0.06748 0.0
C453 C 0.36119 0.86445 0.08199 0.0
C454 C 0.34828 0.84192 0.03684 0.0
C455 C 0.35882 0.86328 0.02014 0.0
C456 C 0.36961 0.8856 0.03498 0.0
C457 C 0.37106 0.88602 0.06542 0.0
C458 C 0.38124 0.8744 0.94166 0.0
C459 C 0.36029 0.86265 0.92557 0.0
C460 C 0.38096 0.87396 0.97212 0.0
C461 C 0.3594 0.86227 0.98749 0.0
C462 C 0.33858 0.85006 0.97132 0.0
C463 C 0.33914 0.85008 0.94065 0.0
H464 H 0.07449 0.61554 0.57936 0.0
H465 H 0.15735 0.64121 0.58519 0.0
H466 H 0.07766 0.61502 0.52645 0.0
H467 H 0.16074 0.64006 0.53178 0.0
H468 H 0.14682 0.65699 0.4326 0.0
H469 H 0.14498 0.66102 0.48596 0.0
H470 H 0.0992 0.58735 0.49041 0.0
H471 H 0.10049 0.58368 0.43759 0.0
C472 C 0.09345 0.62105 0.56934 0.0
C473 C 0.11574 0.62819 0.58654 0.0
C474 C 0.09531 0.62061 0.53893 0.0
C475 C 0.11957 0.62712 0.52483 0.0
C476 C 0.14172 0.63504 0.54195 0.0
C477 C 0.13982 0.63558 0.57254 0.0
C478 C 0.1364 0.64169 0.44506 0.0
C479 C 0.12362 0.62014 0.43082 0.0
C480 C 0.13545 0.64393 0.47561 0.0
C481 C 0.12169 0.62466 0.49247 0.0
C482 C 0.10945 0.60288 0.47813 0.0
C483 C 0.11034 0.6007 0.44777 0.0
H484 H 0.37692 0.08257 0.57998 0.0
H485 H 0.33493 0.15848 0.58565 0.0
H486 H 0.37876 0.08676 0.52721 0.0
H487 H 0.33728 0.16297 0.53235 0.0
H488 H 0.3252 0.14506 0.43245 0.0
H489 H 0.32091 0.1434 0.48579 0.0
H490 H 0.40254 0.11402 0.49219 0.0
H491 H 0.40659 0.11513 0.43936 0.0
C492 C 0.3681 0.10023 0.56997 0.0
C493 C 0.35593 0.12028 0.5871 0.0
C494 C 0.36931 0.10271 0.53964 0.0
C495 C 0.35851 0.12538 0.52552 0.0
C496 C 0.34571 0.14521 0.54253 0.0
C497 C 0.34446 0.14269 0.57306 0.0
C498 C 0.34223 0.1384 0.44533 0.0
C499 C 0.36614 0.12997 0.43163 0.0
C500 C 0.33982 0.13755 0.47587 0.0
C501 C 0.36126 0.12823 0.49325 0.0
C502 C 0.3854 0.12071 0.47948 0.0
C503 C 0.38778 0.12149 0.44912 0.0
H504 H 0.87076 0.40399 0.42967 0.0
H505 H 0.8384 0.32351 0.42491 0.0
H506 H 0.87265 0.40072 0.48253 0.0
H507 H 0.84073 0.32009 0.47832 0.0
H508 H 0.90516 0.37497 0.56993 0.0
H509 H 0.90017 0.37581 0.5172 0.0
H510 H 0.82186 0.33889 0.5249 0.0
H511 H 0.82704 0.33763 0.57819 0.0
C512 C 0.864 0.38556 0.4399 0.0
C513 C 0.85464 0.36392 0.42301 0.0
C514 C 0.86523 0.38364 0.47027 0.0
C515 C 0.8572 0.36001 0.48463 0.0
C516 C 0.84699 0.3386 0.46789 0.0
C517 C 0.84576 0.34052 0.43732 0.0
C518 C 0.88686 0.36693 0.5605 0.0
C519 C 0.8664 0.35641 0.57833 0.0
C520 C 0.88395 0.36756 0.53021 0.0
C521 C 0.86047 0.35775 0.51685 0.0
C522 C 0.84023 0.34653 0.53455 0.0
C523 C 0.84314 0.34592 0.56504 0.0
H524 H 0.60861 0.9051 0.57601 0.0
H525 H 0.64629 0.82693 0.5807 0.0
H526 H 0.60697 0.90182 0.52317 0.0
H527 H 0.64391 0.82324 0.52736 0.0
H528 H 0.65667 0.83939 0.42793 0.0
H529 H 0.66103 0.84099 0.48123 0.0
H530 H 0.58237 0.87769 0.4872 0.0
H531 H 0.57843 0.87682 0.43438 0.0
C532 C 0.61647 0.88711 0.56575 0.0
C533 C 0.62741 0.86619 0.58263 0.0
C534 C 0.61537 0.88515 0.53537 0.0
C535 C 0.62494 0.86209 0.52093 0.0
C536 C 0.63647 0.84135 0.53773 0.0
C537 C 0.63773 0.8434 0.5683 0.0
C538 C 0.64033 0.84772 0.44071 0.0
C539 C 0.61732 0.85822 0.42689 0.0
C540 C 0.64276 0.84854 0.47126 0.0
C541 C 0.6222 0.85978 0.48856 0.0
C542 C 0.59892 0.86951 0.47462 0.0
C543 C 0.59657 0.86885 0.44425 0.0
H544 H 0.15139 0.5299 0.33158 0.0
H545 H 0.19119 0.57128 0.26063 0.0
H546 H 0.16117 0.48704 0.30841 0.0
H547 H 0.20137 0.52825 0.23771 0.0
H548 H 0.16253 0.45527 0.18776 0.0
H549 H 0.17074 0.49735 0.21311 0.0
H550 H 0.19341 0.45357 0.29087 0.0
H551 H 0.18477 0.4113 0.26564 0.0
C552 C 0.16285 0.52985 0.31144 0.0
C553 C 0.17 0.55405 0.29767 0.0
C554 C 0.16863 0.50522 0.29822 0.0
C555 C 0.18173 0.50428 0.27099 0.0
C556 C 0.19083 0.52838 0.25843 0.0
C557 C 0.18505 0.55302 0.27165 0.0
C558 C 0.16986 0.45454 0.21004 0.0
C559 C 0.17246 0.42992 0.22483 0.0
C560 C 0.17475 0.47872 0.22456 0.0
C561 C 0.18238 0.4788 0.25415 0.0
C562 C 0.1871 0.45414 0.26822 0.0
C563 C 0.18224 0.42993 0.25369 0.0
H564 H 0.56547 0.16274 0.26503 0.0
H565 H 0.53218 0.17161 0.17842 0.0
H566 H 0.52147 0.16955 0.28612 0.0
H567 H 0.48803 0.18061 0.19954 0.0
H568 H 0.41142 0.14816 0.24332 0.0
H569 H 0.45433 0.15584 0.21987 0.0
H570 H 0.48412 0.1932 0.29898 0.0
H571 H 0.4415 0.18336 0.32307 0.0
C572 C 0.54881 0.16706 0.2505 0.0
C573 C 0.55218 0.16621 0.22006 0.0
C574 C 0.52341 0.17122 0.26264 0.0
C575 C 0.50078 0.1753 0.24465 0.0
C576 C 0.5047 0.17668 0.21417 0.0
C577 C 0.53005 0.17177 0.20198 0.0
C578 C 0.42702 0.15838 0.25555 0.0
C579 C 0.4233 0.16477 0.28515 0.0
C580 C 0.45172 0.16305 0.242 0.0
C581 C 0.47315 0.17484 0.25752 0.0
C582 C 0.46852 0.18326 0.28651 0.0
C583 C 0.44401 0.17787 0.30032 0.0
H584 H 0.82238 0.56328 0.26582 0.0
H585 H 0.81405 0.53464 0.17723 0.0
H586 H 0.81459 0.51841 0.28413 0.0
H587 H 0.80414 0.48968 0.19553 0.0
H588 H 0.8353 0.41067 0.23571 0.0
H589 H 0.82825 0.45459 0.21436 0.0
H590 H 0.78959 0.48112 0.29414 0.0
H591 H 0.79874 0.43744 0.31616 0.0
C592 C 0.81802 0.54745 0.25026 0.0
C593 C 0.81925 0.55235 0.22009 0.0
C594 C 0.81327 0.52159 0.26078 0.0
C595 C 0.809 0.50003 0.2414 0.0
C596 C 0.80815 0.50549 0.21118 0.0
C597 C 0.81361 0.5313 0.20062 0.0
C598 C 0.82486 0.42576 0.24849 0.0
C599 C 0.81798 0.42084 0.27774 0.0
C600 C 0.82059 0.45105 0.23616 0.0
C601 C 0.80872 0.47185 0.25259 0.0
C602 C 0.79962 0.466 0.28107 0.0
C603 C 0.80461 0.44089 0.29367 0.0
H604 H 0.52843 0.83045 0.32489 0.0
H605 H 0.57123 0.80041 0.24936 0.0
H606 H 0.48589 0.8225 0.30011 0.0
H607 H 0.52855 0.79219 0.22474 0.0
H608 H 0.45381 0.83426 0.18041 0.0
H609 H 0.49638 0.825 0.20461 0.0
H610 H 0.45384 0.79074 0.27801 0.0
H611 H 0.41112 0.80027 0.25398 0.0
C612 C 0.52877 0.82152 0.30331 0.0
C613 C 0.55326 0.81655 0.28892 0.0
C614 C 0.50435 0.8168 0.28914 0.0
C615 C 0.5039 0.80702 0.26031 0.0
C616 C 0.5283 0.80013 0.24678 0.0
C617 C 0.55274 0.80477 0.26097 0.0
C618 C 0.4535 0.82419 0.2014 0.0
C619 C 0.42904 0.81849 0.21548 0.0
C620 C 0.47795 0.81873 0.21522 0.0
C621 C 0.47843 0.80745 0.24341 0.0
C622 C 0.45405 0.79983 0.2565 0.0
C623 C 0.42959 0.80523 0.24264 0.0
H624 H 0.81393 0.56517 0.76288 0.0
H625 H 0.88651 0.53965 0.80698 0.0
H626 H 0.81249 0.52233 0.7366 0.0
H627 H 0.88524 0.49712 0.78022 0.0
H628 H 0.89023 0.44239 0.69819 0.0
H629 H 0.88928 0.48598 0.72298 0.0
H630 H 0.80814 0.4705 0.75202 0.0
H631 H 0.80917 0.42668 0.72777 0.0
C632 C 0.82944 0.55035 0.7671 0.0
C633 C 0.85031 0.55571 0.78701 0.0
C634 C 0.82859 0.52593 0.75207 0.0
C635 C 0.84891 0.50671 0.75624 0.0
C636 C 0.86953 0.51183 0.77645 0.0
C637 C 0.87009 0.53602 0.79193 0.0
C638 C 0.87205 0.44847 0.70946 0.0
C639 C 0.8498 0.43115 0.71113 0.0
C640 C 0.87161 0.47325 0.72383 0.0
C641 C 0.84872 0.48133 0.73954 0.0
C642 C 0.826 0.46463 0.74002 0.0
C643 C 0.82663 0.43963 0.72618 0.0
H644 H 0.57367 0.82547 0.762 0.0
H645 H 0.5379 0.86014 0.68448 0.0
H646 H 0.52933 0.82189 0.78428 0.0
H647 H 0.49345 0.85645 0.70697 0.0
H648 H 0.41633 0.82234 0.74663 0.0
H649 H 0.46086 0.82078 0.72451 0.0
H650 H 0.49504 0.85566 0.80249 0.0
H651 H 0.4504 0.85733 0.82483 0.0
C652 C 0.55634 0.8321 0.74956 0.0
C653 C 0.55934 0.84318 0.72144 0.0
C654 C 0.53098 0.83018 0.76246 0.0
C655 C 0.50803 0.839 0.74742 0.0
C656 C 0.51084 0.84932 0.71897 0.0
C657 C 0.53628 0.85152 0.70614 0.0
C658 C 0.43334 0.82943 0.75927 0.0
C659 C 0.42978 0.84008 0.78751 0.0
C660 C 0.4588 0.82868 0.74646 0.0
C661 C 0.48131 0.83826 0.7617 0.0
C662 C 0.478 0.84799 0.79032 0.0
C663 C 0.45245 0.84901 0.80307 0.0
H664 H 0.09215 0.44125 0.81038 0.0
H665 H 0.16943 0.419 0.77433 0.0
H666 H 0.09416 0.48396 0.78401 0.0
H667 H 0.17138 0.46169 0.74816 0.0
H668 H 0.17447 0.55488 0.73486 0.0
H669 H 0.17415 0.51162 0.76 0.0
H670 H 0.09319 0.49726 0.72961 0.0
H671 H 0.09345 0.54054 0.70426 0.0
C672 C 0.10972 0.44563 0.7972 0.0
C673 C 0.13062 0.42677 0.79442 0.0
C674 C 0.11071 0.46991 0.78186 0.0
C675 C 0.13279 0.47593 0.76384 0.0
C676 C 0.15414 0.45753 0.76193 0.0
C677 C 0.153 0.43312 0.77692 0.0
C678 C 0.15674 0.54233 0.73317 0.0
C679 C 0.13397 0.55112 0.71761 0.0
C680 C 0.15658 0.51759 0.74756 0.0
C681 C 0.13353 0.50131 0.74701 0.0
C682 C 0.11107 0.50966 0.73069 0.0
C683 C 0.11135 0.53426 0.71593 0.0
H684 H 0.41312 0.15891 0.76484 0.0
H685 H 0.44666 0.12347 0.68658 0.0
H686 H 0.45787 0.16107 0.78635 0.0
H687 H 0.49155 0.12578 0.70829 0.0
H688 H 0.56998 0.1587 0.74705 0.0
H689 H 0.52525 0.16084 0.72548 0.0
H690 H 0.49151 0.12591 0.80368 0.0
H691 H 0.53639 0.12362 0.82546 0.0
C692 C 0.43005 0.15184 0.75206 0.0
C693 C 0.4263 0.14094 0.72397 0.0
C694 C 0.45564 0.15292 0.76453 0.0
C695 C 0.47808 0.14346 0.74906 0.0
C696 C 0.47455 0.13336 0.72062 0.0
C697 C 0.44887 0.13198 0.70823 0.0
C698 C 0.55305 0.15168 0.75983 0.0
C699 C 0.55677 0.14092 0.788 0.0
C700 C 0.52747 0.15276 0.74734 0.0
C701 C 0.50501 0.14342 0.76285 0.0
C702 C 0.50853 0.1334 0.79133 0.0
C703 C 0.5342 0.13202 0.80375 0.0
H704 H 0.68015 0.03963 0.82584 0.0
H705 H 0.65835 0.07101 0.74117 0.0
H706 H 0.69002 -0.00389 0.80379 0.0
H707 H 0.66558 0.02742 0.71948 0.0
H708 H 0.67907 0.94799 0.68113 0.0
H709 H 0.68869 -0.0083 0.70283 0.0
H710 H 0.667 0.9601 0.78788 0.0
H711 H 0.66002 0.91638 0.76645 0.0
C712 C 0.67759 0.03716 0.80248 0.0
C713 C 0.66831 0.05854 0.78525 0.0
C714 C 0.68294 0.01214 0.78978 0.0
C715 C 0.67807 0.00771 0.75977 0.0
C716 C 0.67008 0.02973 0.74246 0.0
C717 C 0.66565 0.05487 0.75499 0.0
C718 C 0.67704 0.95045 0.70455 0.0
C719 C 0.66863 0.92894 0.72208 0.0
C720 C 0.68226 0.97557 0.71706 0.0
C721 C 0.67811 0.97996 0.74721 0.0
C722 C 0.67093 0.95784 0.76476 0.0
C723 C 0.66664 0.93261 0.7524 0.0
H724 H 0.95169 0.67174 0.83753 0.0
H725 H 0.92012 0.66481 0.74996 0.0
H726 H -0.00404 0.68234 0.81767 0.0
H727 H 0.96425 0.67316 0.73007 0.0
H728 H 0.04417 0.68632 0.69466 0.0
H729 H 0.00165 0.697 0.71856 0.0
H730 H 0.03021 0.65832 0.79752 0.0
H731 H 0.07307 0.6499 0.77431 0.0
C732 C 0.95421 0.6727 0.81403 0.0
C733 C 0.93258 0.66712 0.7953 0.0
C734 C 0.97964 0.67854 0.80257 0.0
C735 C 0.98411 0.67806 0.77214 0.0
C736 C 0.96188 0.67414 0.75354 0.0
C737 C 0.93641 0.66907 0.76499 0.0
C738 C 0.04143 0.68081 0.71737 0.0
C739 C 0.0617 0.66701 0.73254 0.0
C740 C 0.01698 0.68667 0.73107 0.0
C741 C 0.01195 0.67794 0.75988 0.0
C742 C 0.0331 0.66572 0.77551 0.0
C743 C 0.05777 0.66064 0.7621 0.0
H744 H 0.30497 0.03814 0.68603 0.0
H745 H 0.32669 0.0678 0.77143 0.0
H746 H 0.29636 -0.00615 0.70682 0.0
H747 H 0.32057 0.02351 0.79186 0.0
H748 H 0.30837 0.94291 0.82781 0.0
H749 H 0.29783 0.98694 0.80736 0.0
H750 H 0.32089 0.95811 0.72159 0.0
H751 H 0.32892 0.91397 0.74178 0.0
C752 C 0.30776 0.03514 0.70928 0.0
C753 C 0.3167 0.05626 0.72708 0.0
C754 C 0.30311 0.00969 0.72125 0.0
C755 C 0.3083 0.00461 0.75106 0.0
C756 C 0.31589 0.02633 0.76898 0.0
C757 C 0.31967 0.05188 0.75719 0.0
C758 C 0.31054 0.94603 0.8045 0.0
C759 C 0.31964 0.92519 0.7864 0.0
C760 C 0.30476 0.97133 0.79272 0.0
C761 C 0.30898 0.97658 0.76276 0.0
C762 C 0.31689 0.95512 0.7446 0.0
C763 C 0.32178 0.92969 0.75623 0.0
H764 H 0.06655 0.32232 0.74514 0.0
H765 H 0.03236 0.30187 0.82895 0.0
H766 H 0.02363 0.31465 0.72192 0.0
H767 H 0.98948 0.29195 0.80543 0.0
H768 H 0.91229 0.32626 0.76451 0.0
H769 H 0.95488 0.31714 0.78784 0.0
H770 H 0.98777 0.29099 0.70492 0.0
H771 H 0.9453 0.30234 0.68121 0.0
C772 C 0.05 0.31523 0.75848 0.0
C773 C 0.05264 0.31319 0.78893 0.0
C774 C 0.02525 0.31056 0.74508 0.0
C775 C 0.00263 0.30309 0.76173 0.0
C776 C 0.00608 0.29858 0.79193 0.0
C777 C 0.03072 0.30402 0.80546 0.0
C778 C 0.92848 0.31813 0.75133 0.0
C779 C 0.92565 0.31548 0.72095 0.0
C780 C 0.95303 0.31262 0.76481 0.0
C781 C 0.97523 0.30367 0.74834 0.0
C782 C 0.97152 0.2987 0.71826 0.0
C783 C 0.94712 0.30497 0.70463 0.0
H784 H 0.30409 0.05622 0.28856 0.0
H785 H 0.38682 0.04178 0.31318 0.0
H786 H 0.30263 0.0124 0.26431 0.0
H787 H 0.38539 -0.00176 0.2884 0.0
H788 H 0.38001 0.94636 0.20335 0.0
H789 H 0.37878 0.98828 0.23115 0.0
H790 H 0.30909 0.96015 0.2783 0.0
H791 H 0.31053 0.91785 0.25094 0.0
C792 C 0.3218 0.04352 0.28916 0.0
C793 C 0.34559 0.05241 0.30271 0.0
C794 C 0.32093 0.01851 0.27531 0.0
C795 C 0.34398 0.00224 0.27428 0.0
C796 C 0.36745 0.01064 0.28872 0.0
C797 C 0.36817 0.0354 0.30309 0.0
C798 C 0.36424 0.94921 0.2194 0.0
C799 C 0.34536 0.92884 0.22497 0.0
C800 C 0.36372 0.97305 0.23547 0.0
C801 C 0.34401 0.97718 0.25699 0.0
C802 C 0.3245 0.95731 0.26185 0.0
C803 C 0.32534 0.9332 0.24618 0.0
H804 H 0.94202 0.38525 0.30776 0.0
H805 H 0.92853 0.3047 0.27558 0.0
H806 H 0.98639 0.3855 0.2847 0.0
H807 H 0.97313 0.30492 0.25295 0.0
H808 H 0.06772 0.31181 0.24503 0.0
H809 H 0.02398 0.30907 0.26939 0.0
H810 H 5e-05 0.3837 0.22885 0.0
H811 H 0.04356 0.38633 0.20408 0.0
C812 C 0.94872 0.36743 0.29627 0.0
C813 C 0.93179 0.34498 0.2934 0.0
C814 C 0.97398 0.36769 0.28287 0.0
C815 C 0.98293 0.34533 0.26686 0.0
C816 C 0.96661 0.32239 0.26519 0.0
C817 C 0.94115 0.3223 0.27812 0.0
C818 C 0.05301 0.32748 0.24107 0.0
C819 C 0.05904 0.34928 0.22264 0.0
C820 C 0.02805 0.32588 0.255 0.0
C821 C 0.00889 0.34632 0.25118 0.0
C822 C 0.01468 0.36786 0.23237 0.0
C823 C 0.03945 0.36922 0.21801 0.0
H824 H 0.654 0.91243 0.24622 0.0
H825 H 0.62212 0.94882 0.32476 0.0
H826 H 0.65631 0.95652 0.22315 0.0
H827 H 0.62449 -0.00704 0.30151 0.0
H828 H 0.65623 0.06987 0.25969 0.0
H829 H 0.6589 0.02562 0.28218 0.0
H830 H 0.62189 0.99048 0.20588 0.0
H831 H 0.61914 0.03487 0.18315 0.0
C832 C 0.64774 0.92984 0.2587 0.0
C833 C 0.63782 0.92709 0.28736 0.0
C834 C 0.6489 0.95506 0.24536 0.0
C835 C 0.64047 0.9781 0.26048 0.0
C836 C 0.63131 0.97552 0.28942 0.0
C837 C 0.62988 0.95025 0.30269 0.0
C838 C 0.64887 0.05272 0.2475 0.0
C839 C 0.63735 0.05595 0.21961 0.0
C840 C 0.65028 0.0274 0.26052 0.0
C841 C 0.64045 0.00468 0.24587 0.0
C842 C 0.62977 0.00767 0.2176 0.0
C843 C 0.62812 0.03309 0.20463 0.0
H844 H 0.07266 0.65421 0.24736 0.0
H845 H 0.03608 0.6249 0.32697 0.0
H846 H 0.02836 0.65771 0.22485 0.0
H847 H 0.99181 0.62825 0.30425 0.0
H848 H 0.91475 0.65942 0.26348 0.0
H849 H 0.9594 0.66203 0.2852 0.0
H850 H -0.00652 0.62528 0.20812 0.0
H851 H 0.94881 0.62279 0.18615 0.0
C852 C 0.05518 0.64869 0.26016 0.0
C853 C 0.05794 0.63918 0.28898 0.0
C854 C 0.02983 0.65057 0.24716 0.0
C855 C 0.00665 0.64317 0.26274 0.0
C856 C 0.00931 0.63434 0.29179 0.0
C857 C 0.03469 0.6323 0.30475 0.0
C858 C 0.93177 0.65215 0.25096 0.0
C859 C 0.92816 0.64074 0.2231 0.0
C860 C 0.95732 0.65352 0.26353 0.0
C861 C 0.97987 0.64367 0.24847 0.0
C862 C 0.97647 0.6332 0.22017 0.0
C863 C 0.95086 0.63169 0.20763 0.0
loop_
_geom_bond_atom_site_label_1
_geom_bond_atom_site_label_2
_geom_bond_distance
_geom_bond_site_symmetry_2
_ccdc_geom_bond_type
O0 Cd1 2.223 . S
O0 C8 1.315 . S
Cd1 O0 2.223 . S
Cd1 O4 2.297 . S
Cd1 O5 2.439 . S
Cd1 O11 2.240 . S
Cd2 O3 2.240 . S
Cd2 O10 2.223 . S
Cd2 O12 2.297 . S
Cd2 O13 2.439 . S
O3 Cd2 2.240 . S
O3 C8 1.279 . S
O4 Cd1 2.297 . S
O4 C6 1.247 . S
O5 Cd1 2.439 . S
O5 C6 1.208 . S
C6 O4 1.247 . S
C6 O5 1.208 . S
C7 O12 1.247 . S
C7 O13 1.208 . S
C8 O0 1.315 . S
C8 O3 1.279 . S
C9 O10 1.315 . S
C9 O11 1.279 . S
O10 Cd2 2.223 . S
O10 C9 1.315 . S
O11 Cd1 2.240 . S
O11 C9 1.279 . S
O12 Cd2 2.297 . S
O12 C7 1.247 . S
O13 Cd2 2.439 . S
O13 C7 1.208 . S
O14 Cd15 2.223 . S
O14 C22 1.315 . S
Cd15 O14 2.223 . S
Cd15 O18 2.297 . S
Cd15 O19 2.439 . S
Cd15 O25 2.240 . S
Cd16 O17 2.240 . S
Cd16 O24 2.223 . S
Cd16 O26 2.297 . S
Cd16 O27 2.439 . S
O17 Cd16 2.240 . S
O17 C22 1.279 . S
O18 Cd15 2.297 . S
O18 C20 1.247 . S
O19 Cd15 2.439 . S
O19 C20 1.208 . S
C20 O18 1.247 . S
C20 O19 1.208 . S
C21 O26 1.247 . S
C21 O27 1.208 . S
C22 O14 1.315 . S
C22 O17 1.279 . S
C23 O24 1.315 . S
C23 O25 1.279 . S
O24 Cd16 2.223 . S
O24 C23 1.315 . S
O25 Cd15 2.240 . S
O25 C23 1.279 . S
O26 Cd16 2.297 . S
O26 C21 1.247 . S
O27 Cd16 2.439 . S
O27 C21 1.208 . S
O28 Cd29 2.223 . S
O28 C36 1.315 . S
Cd29 O28 2.223 . S
Cd29 O32 2.297 . S
Cd29 O33 2.439 . S
Cd29 O39 2.240 . S
Cd30 O31 2.240 . S
Cd30 O38 2.223 . S
Cd30 O40 2.297 . S
Cd30 O41 2.439 . S
O31 Cd30 2.240 . S
O31 C36 1.279 . S
O32 Cd29 2.297 . S
O32 C34 1.247 . S
O33 Cd29 2.439 . S
O33 C34 1.208 . S
C34 O32 1.247 . S
C34 O33 1.208 . S
C35 O40 1.247 . S
C35 O41 1.208 . S
C36 O28 1.315 . S
C36 O31 1.279 . S
C37 O38 1.315 . S
C37 O39 1.279 . S
O38 Cd30 2.223 . S
O38 C37 1.315 . S
O39 Cd29 2.240 . S
O39 C37 1.279 . S
O40 Cd30 2.297 . S
O40 C35 1.247 . S
O41 Cd30 2.439 . S
O41 C35 1.208 . S
O42 Cd43 2.223 . S
O42 C50 1.315 . S
Cd43 O42 2.223 . S
Cd43 O46 2.297 . S
Cd43 O47 2.439 . S
Cd43 O53 2.240 . S
Cd44 O45 2.240 . S
Cd44 O52 2.223 . S
Cd44 O54 2.297 . S
Cd44 O55 2.439 . S
O45 Cd44 2.240 . S
O45 C50 1.279 . S
O46 Cd43 2.297 . S
O46 C48 1.247 . S
O47 Cd43 2.439 . S
O47 C48 1.208 . S
C48 O46 1.247 . S
C48 O47 1.208 . S
C49 O54 1.247 . S
C49 O55 1.208 . S
C50 O42 1.315 . S
C50 O45 1.279 . S
C51 O52 1.315 . S
C51 O53 1.279 . S
O52 Cd44 2.223 . S
O52 C51 1.315 . S
O53 Cd43 2.240 . S
O53 C51 1.279 . S
O54 Cd44 2.297 . S
O54 C49 1.247 . S
O55 Cd44 2.439 . S
O55 C49 1.208 . S
O56 Cd57 2.223 . S
O56 C64 1.315 . S
Cd57 O56 2.223 . S
Cd57 O60 2.297 . S
Cd57 O61 2.439 . S
Cd57 O67 2.240 . S
Cd58 O59 2.240 . S
Cd58 O66 2.223 . S
Cd58 O68 2.297 . S
Cd58 O69 2.439 . S
O59 Cd58 2.240 . S
O59 C64 1.279 . S
O60 Cd57 2.297 . S
O60 C62 1.247 . S
O61 Cd57 2.439 . S
O61 C62 1.208 . S
C62 O60 1.247 . S
C62 O61 1.208 . S
C63 O68 1.247 . S
C63 O69 1.208 . S
C64 O56 1.315 . S
C64 O59 1.279 . S
C65 O66 1.315 . S
C65 O67 1.279 . S
O66 Cd58 2.223 . S
O66 C65 1.315 . S
O67 Cd57 2.240 . S
O67 C65 1.279 . S
O68 Cd58 2.297 . S
O68 C63 1.247 . S
O69 Cd58 2.439 . S
O69 C63 1.208 . S
O70 Cd71 2.223 . S
O70 C78 1.315 . S
Cd71 O70 2.223 . S
Cd71 O74 2.297 . S
Cd71 O75 2.439 . S
Cd71 O81 2.240 . S
Cd72 O73 2.240 . S
Cd72 O80 2.223 . S
Cd72 O82 2.297 . S
Cd72 O83 2.439 . S
O73 Cd72 2.240 . S
O73 C78 1.279 . S
O74 Cd71 2.297 . S
O74 C76 1.247 . S
O75 Cd71 2.439 . S
O75 C76 1.208 . S
C76 O74 1.247 . S
C76 O75 1.208 . S
C77 O82 1.247 . S
C77 O83 1.208 . S
C78 O70 1.315 . S
C78 O73 1.279 . S
C79 O80 1.315 . S
C79 O81 1.279 . S
O80 Cd72 2.223 . S
O80 C79 1.315 . S
O81 Cd71 2.240 . S
O81 C79 1.279 . S
O82 Cd72 2.297 . S
O82 C77 1.247 . S
O83 Cd72 2.439 . S
O83 C77 1.208 . S
O84 Cd85 2.223 . S
O84 C92 1.315 . S
Cd85 O84 2.223 . S
Cd85 O88 2.297 . S
Cd85 O89 2.439 . S
Cd85 O95 2.240 . S
Cd86 O87 2.240 . S
Cd86 O94 2.223 . S
Cd86 O96 2.297 . S
Cd86 O97 2.439 . S
O87 Cd86 2.240 . S
O87 C92 1.279 . S
O88 Cd85 2.297 . S
O88 C90 1.247 . S
O89 Cd85 2.439 . S
O89 C90 1.208 . S
C90 O88 1.247 . S
C90 O89 1.208 . S
C91 O96 1.247 . S
C91 O97 1.208 . S
C92 O84 1.315 . S
C92 O87 1.279 . S
C93 O94 1.315 . S
C93 O95 1.279 . S
O94 Cd86 2.223 . S
O94 C93 1.315 . S
O95 Cd85 2.240 . S
O95 C93 1.279 . S
O96 Cd86 2.297 . S
O96 C91 1.247 . S
O97 Cd86 2.439 . S
O97 C91 1.208 . S
O98 Cd99 2.223 . S
O98 C106 1.315 . S
Cd99 O98 2.223 . S
Cd99 O102 2.297 . S
Cd99 O103 2.439 . S
Cd99 O109 2.240 . S
Cd100 O101 2.240 . S
Cd100 O108 2.223 . S
Cd100 O110 2.297 . S
Cd100 O111 2.439 . S
O101 Cd100 2.240 . S
O101 C106 1.279 . S
O102 Cd99 2.297 . S
O102 C104 1.247 . S
O103 Cd99 2.439 . S
O103 C104 1.208 . S
C104 O102 1.247 . S
C104 O103 1.208 . S
C105 O110 1.247 . S
C105 O111 1.208 . S
C106 O98 1.315 . S
C106 O101 1.279 . S
C107 O108 1.315 . S
C107 O109 1.279 . S
O108 Cd100 2.223 . S
O108 C107 1.315 . S
O109 Cd99 2.240 . S
O109 C107 1.279 . S
O110 Cd100 2.297 . S
O110 C105 1.247 . S
O111 Cd100 2.439 . S
O111 C105 1.208 . S
O112 Cd113 2.223 . S
O112 C120 1.315 . S
Cd113 O112 2.223 . S
Cd113 O116 2.297 . S
Cd113 O117 2.439 . S
Cd113 O123 2.240 . S
Cd114 O115 2.240 . S
Cd114 O122 2.223 . S
Cd114 O124 2.297 . S
Cd114 O125 2.439 . S
O115 Cd114 2.240 . S
O115 C120 1.279 . S
O116 Cd113 2.297 . S
O116 C118 1.247 . S
O117 Cd113 2.439 . S
O117 C118 1.208 . S
C118 O116 1.247 . S
C118 O117 1.208 . S
C119 O124 1.247 . S
C119 O125 1.208 . S
C120 O112 1.315 . S
C120 O115 1.279 . S
C121 O122 1.315 . S
C121 O123 1.279 . S
O122 Cd114 2.223 . S
O122 C121 1.315 . S
O123 Cd113 2.240 . S
O123 C121 1.279 . S
O124 Cd114 2.297 . S
O124 C119 1.247 . S
O125 Cd114 2.439 . S
O125 C119 1.208 . S
O126 Cd127 2.223 . S
O126 C134 1.315 . S
Cd127 O126 2.223 . S
Cd127 O130 2.297 . S
Cd127 O131 2.439 . S
Cd127 O137 2.240 . S
Cd128 O129 2.240 . S
Cd128 O136 2.223 . S
Cd128 O138 2.297 . S
Cd128 O139 2.439 . S
O129 Cd128 2.240 . S
O129 C134 1.279 . S
O130 Cd127 2.297 . S
O130 C132 1.247 . S
O131 Cd127 2.439 . S
O131 C132 1.208 . S
C132 O130 1.247 . S
C132 O131 1.208 . S
C133 O138 1.247 . S
C133 O139 1.208 . S
C134 O126 1.315 . S
C134 O129 1.279 . S
C135 O136 1.315 . S
C135 O137 1.279 . S
O136 Cd128 2.223 . S
O136 C135 1.315 . S
O137 Cd127 2.240 . S
O137 C135 1.279 . S
O138 Cd128 2.297 . S
O138 C133 1.247 . S
O139 Cd128 2.439 . S
O139 C133 1.208 . S
O140 Cd141 2.223 . S
O140 C148 1.315 . S
Cd141 O140 2.223 . S
Cd141 O144 2.297 . S
Cd141 O145 2.439 . S
Cd141 O151 2.240 . S
Cd142 O143 2.240 . S
Cd142 O150 2.223 . S
Cd142 O152 2.297 . S
Cd142 O153 2.439 . S
O143 Cd142 2.240 . S
O143 C148 1.279 . S
O144 Cd141 2.297 . S
O144 C146 1.247 . S
O145 Cd141 2.439 . S
O145 C146 1.208 . S
C146 O144 1.247 . S
C146 O145 1.208 . S
C147 O152 1.247 . S
C147 O153 1.208 . S
C148 O140 1.315 . S
C148 O143 1.279 . S
C149 O150 1.315 . S
C149 O151 1.279 . S
O150 Cd142 2.223 . S
O150 C149 1.315 . S
O151 Cd141 2.240 . S
O151 C149 1.279 . S
O152 Cd142 2.297 . S
O152 C147 1.247 . S
O153 Cd142 2.439 . S
O153 C147 1.208 . S
O154 Cd155 2.223 . S
O154 C162 1.315 . S
Cd155 O154 2.223 . S
Cd155 O158 2.297 . S
Cd155 O159 2.439 . S
Cd155 O165 2.240 . S
Cd156 O157 2.240 . S
Cd156 O164 2.223 . S
Cd156 O166 2.297 . S
Cd156 O167 2.439 . S
O157 Cd156 2.240 . S
O157 C162 1.279 . S
O158 Cd155 2.297 . S
O158 C160 1.247 . S
O159 Cd155 2.439 . S
O159 C160 1.208 . S
C160 O158 1.247 . S
C160 O159 1.208 . S
C161 O166 1.247 . S
C161 O167 1.208 . S
C162 O154 1.315 . S
C162 O157 1.279 . S
C163 O164 1.315 . S
C163 O165 1.279 . S
O164 Cd156 2.223 . S
O164 C163 1.315 . S
O165 Cd155 2.240 . S
O165 C163 1.279 . S
O166 Cd156 2.297 . S
O166 C161 1.247 . S
O167 Cd156 2.439 . S
O167 C161 1.208 . S
O168 Cd169 2.223 . S
O168 C176 1.315 . S
Cd169 O168 2.223 . S
Cd169 O172 2.297 . S
Cd169 O173 2.439 . S
Cd169 O179 2.240 . S
Cd170 O171 2.240 . S
Cd170 O178 2.223 . S
Cd170 O180 2.297 . S
Cd170 O181 2.439 . S
O171 Cd170 2.240 . S
O171 C176 1.279 . S
O172 Cd169 2.297 . S
O172 C174 1.247 . S
O173 Cd169 2.439 . S
O173 C174 1.208 . S
C174 O172 1.247 . S
C174 O173 1.208 . S
C175 O180 1.247 . S
C175 O181 1.208 . S
C176 O168 1.315 . S
C176 O171 1.279 . S
C177 O178 1.315 . S
C177 O179 1.279 . S
O178 Cd170 2.223 . S
O178 C177 1.315 . S
O179 Cd169 2.240 . S
O179 C177 1.279 . S
O180 Cd170 2.297 . S
O180 C175 1.247 . S
O181 Cd170 2.439 . S
O181 C175 1.208 . S
O182 Cd183 2.223 . S
O182 C190 1.315 . S
Cd183 O182 2.223 . S
Cd183 O186 2.297 . S
Cd183 O187 2.439 . S
Cd183 O193 2.240 . S
Cd184 O185 2.240 . S
Cd184 O192 2.223 . S
Cd184 O194 2.297 . S
Cd184 O195 2.439 . S
O185 Cd184 2.240 . S
O185 C190 1.279 . S
O186 Cd183 2.297 . S
O186 C188 1.247 . S
O187 Cd183 2.439 . S
O187 C188 1.208 . S
C188 O186 1.247 . S
C188 O187 1.208 . S
C189 O194 1.247 . S
C189 O195 1.208 . S
C190 O182 1.315 . S
C190 O185 1.279 . S
C191 O192 1.315 . S
C191 O193 1.279 . S
O192 Cd184 2.223 . S
O192 C191 1.315 . S
O193 Cd183 2.240 . S
O193 C191 1.279 . S
O194 Cd184 2.297 . S
O194 C189 1.247 . S
O195 Cd184 2.439 . S
O195 C189 1.208 . S
O196 Cd197 2.223 . S
O196 C204 1.315 . S
Cd197 O196 2.223 . S
Cd197 O200 2.297 . S
Cd197 O201 2.439 . S
Cd197 O207 2.240 . S
Cd198 O199 2.240 . S
Cd198 O206 2.223 . S
Cd198 O208 2.297 . S
Cd198 O209 2.439 . S
O199 Cd198 2.240 . S
O199 C204 1.279 . S
O200 Cd197 2.297 . S
O200 C202 1.247 . S
O201 Cd197 2.439 . S
O201 C202 1.208 . S
C202 O200 1.247 . S
C202 O201 1.208 . S
C203 O208 1.247 . S
C203 O209 1.208 . S
C204 O196 1.315 . S
C204 O199 1.279 . S
C205 O206 1.315 . S
C205 O207 1.279 . S
O206 Cd198 2.223 . S
O206 C205 1.315 . S
O207 Cd197 2.240 . S
O207 C205 1.279 . S
O208 Cd198 2.297 . S
O208 C203 1.247 . S
O209 Cd198 2.439 . S
O209 C203 1.208 . S
O210 Cd211 2.223 . S
O210 C218 1.315 . S
Cd211 O210 2.223 . S
Cd211 O214 2.297 . S
Cd211 O215 2.439 . S
Cd211 O221 2.240 . S
Cd212 O213 2.240 . S
Cd212 O220 2.223 . S
Cd212 O222 2.297 . S
Cd212 O223 2.439 . S
O213 Cd212 2.240 . S
O213 C218 1.279 . S
O214 Cd211 2.297 . S
O214 C216 1.247 . S
O215 Cd211 2.439 . S
O215 C216 1.208 . S
C216 O214 1.247 . S
C216 O215 1.208 . S
C217 O222 1.247 . S
C217 O223 1.208 . S
C218 O210 1.315 . S
C218 O213 1.279 . S
C219 O220 1.315 . S
C219 O221 1.279 . S
O220 Cd212 2.223 . S
O220 C219 1.315 . S
O221 Cd211 2.240 . S
O221 C219 1.279 . S
O222 Cd212 2.297 . S
O222 C217 1.247 . S
O223 Cd212 2.439 . S
O223 C217 1.208 . S
H224 C232 0.950 . S
H225 C237 0.950 . S
H226 C234 0.950 . S
H227 C236 0.950 . S
H228 C238 0.950 . S
H229 C240 0.950 . S
H230 C242 0.950 . S
H231 C243 0.950 . S
C232 H224 0.950 . S
C232 C233 1.386 . S
C232 C234 1.391 . S
C233 C232 1.386 . S
C233 C237 1.393 . S
C234 H226 0.950 . S
C234 C232 1.391 . S
C234 C235 1.400 . S
C235 C234 1.400 . S
C235 C236 1.398 . S
C235 C241 1.491 . S
C236 H227 0.950 . S
C236 C235 1.398 . S
C236 C237 1.391 . S
C237 H225 0.950 . S
C237 C233 1.393 . S
C237 C236 1.391 . S
C238 H228 0.950 . S
C238 C239 1.386 . S
C238 C240 1.391 . S
C239 C238 1.386 . S
C239 C243 1.393 . S
C240 H229 0.950 . S
C240 C238 1.391 . S
C240 C241 1.400 . S
C241 C235 1.491 . S
C241 C240 1.400 . S
C241 C242 1.398 . S
C242 H230 0.950 . S
C242 C241 1.398 . S
C242 C243 1.391 . S
C243 H231 0.950 . S
C243 C239 1.393 . S
C243 C242 1.391 . S
H244 C252 0.950 . S
H245 C257 0.950 . S
H246 C254 0.950 . S
H247 C256 0.950 . S
H248 C258 0.950 . S
H249 C260 0.950 . S
H250 C262 0.950 . S
H251 C263 0.950 . S
C252 H244 0.950 . S
C252 C253 1.386 . S
C252 C254 1.391 . S
C253 C252 1.386 . S
C253 C257 1.393 . S
C254 H246 0.950 . S
C254 C252 1.391 . S
C254 C255 1.400 . S
C255 C254 1.400 . S
C255 C256 1.398 . S
C255 C261 1.491 . S
C256 H247 0.950 . S
C256 C255 1.398 . S
C256 C257 1.391 . S
C257 H245 0.950 . S
C257 C253 1.393 . S
C257 C256 1.391 . S
C258 H248 0.950 . S
C258 C259 1.386 . S
C258 C260 1.391 . S
C259 C258 1.386 . S
C259 C263 1.393 . S
C260 H249 0.950 . S
C260 C258 1.391 . S
C260 C261 1.400 . S
C261 C255 1.491 . S
C261 C260 1.400 . S
C261 C262 1.398 . S
C262 H250 0.950 . S
C262 C261 1.398 . S
C262 C263 1.391 . S
C263 H251 0.950 . S
C263 C259 1.393 . S
C263 C262 1.391 . S
H264 C272 0.950 . S
H265 C277 0.950 . S
H266 C274 0.950 . S
H267 C276 0.950 . S
H268 C278 0.950 . S
H269 C280 0.950 . S
H270 C282 0.950 . S
H271 C283 0.950 . S
C272 H264 0.950 . S
C272 C273 1.386 . S
C272 C274 1.391 . S
C273 C272 1.386 . S
C273 C277 1.393 . S
C274 H266 0.950 . S
C274 C272 1.391 . S
C274 C275 1.400 . S
C275 C274 1.400 . S
C275 C276 1.398 . S
C275 C281 1.491 . S
C276 H267 0.950 . S
C276 C275 1.398 . S
C276 C277 1.391 . S
C277 H265 0.950 . S
C277 C273 1.393 . S
C277 C276 1.391 . S
C278 H268 0.950 . S
C278 C279 1.386 . S
C278 C280 1.391 . S
C279 C278 1.386 . S
C279 C283 1.393 . S
C280 H269 0.950 . S
C280 C278 1.391 . S
C280 C281 1.400 . S
C281 C275 1.491 . S
C281 C280 1.400 . S
C281 C282 1.398 . S
C282 H270 0.950 . S
C282 C281 1.398 . S
C282 C283 1.391 . S
C283 H271 0.950 . S
C283 C279 1.393 . S
C283 C282 1.391 . S
H284 C292 0.950 . S
H285 C297 0.950 . S
H286 C294 0.950 . S
H287 C296 0.950 . S
H288 C298 0.950 . S
H289 C300 0.950 . S
H290 C302 0.950 . S
H291 C303 0.950 . S
C292 H284 0.950 . S
C292 C293 1.386 . S
C292 C294 1.391 . S
C293 C292 1.386 . S
C293 C297 1.393 . S
C294 H286 0.950 . S
C294 C292 1.391 . S
C294 C295 1.400 . S
C295 C294 1.400 . S
C295 C296 1.398 . S
C295 C301 1.491 . S
C296 H287 0.950 . S
C296 C295 1.398 . S
C296 C297 1.391 . S
C297 H285 0.950 . S
C297 C293 1.393 . S
C297 C296 1.391 . S
C298 H288 0.950 . S
C298 C299 1.386 . S
C298 C300 1.391 . S
C299 C298 1.386 . S
C299 C303 1.393 . S
C300 H289 0.950 . S
C300 C298 1.391 . S
C300 C301 1.400 . S
C301 C295 1.491 . S
C301 C300 1.400 . S
C301 C302 1.398 . S
C302 H290 0.950 . S
C302 C301 1.398 . S
C302 C303 1.391 . S
C303 H291 0.950 . S
C303 C299 1.393 . S
C303 C302 1.391 . S
H304 C312 0.950 . S
H305 C317 0.950 . S
H306 C314 0.950 . S
H307 C316 0.950 . S
H308 C318 0.950 . S
H309 C320 0.950 . S
H310 C322 0.950 . S
H311 C323 0.950 . S
C312 H304 0.950 . S
C312 C313 1.386 . S
C312 C314 1.391 . S
C313 C312 1.386 . S
C313 C317 1.393 . S
C314 H306 0.950 . S
C314 C312 1.391 . S
C314 C315 1.400 . S
C315 C314 1.400 . S
C315 C316 1.398 . S
C315 C321 1.491 . S
C316 H307 0.950 . S
C316 C315 1.398 . S
C316 C317 1.391 . S
C317 H305 0.950 . S
C317 C313 1.393 . S
C317 C316 1.391 . S
C318 H308 0.950 . S
C318 C319 1.386 . S
C318 C320 1.391 . S
C319 C318 1.386 . S
C319 C323 1.393 . S
C320 H309 0.950 . S
C320 C318 1.391 . S
C320 C321 1.400 . S
C321 C315 1.491 . S
C321 C320 1.400 . S
C321 C322 1.398 . S
C322 H310 0.950 . S
C322 C321 1.398 . S
C322 C323 1.391 . S
C323 H311 0.950 . S
C323 C319 1.393 . S
C323 C322 1.391 . S
H324 C332 0.950 . S
H325 C337 0.950 . S
H326 C334 0.950 . S
H327 C336 0.950 . S
H328 C338 0.950 . S
H329 C340 0.950 . S
H330 C342 0.950 . S
H331 C343 0.950 . S
C332 H324 0.950 . S
C332 C333 1.386 . S
C332 C334 1.391 . S
C333 C332 1.386 . S
C333 C337 1.393 . S
C334 H326 0.950 . S
C334 C332 1.391 . S
C334 C335 1.400 . S
C335 C334 1.400 . S
C335 C336 1.398 . S
C335 C341 1.491 . S
C336 H327 0.950 . S
C336 C335 1.398 . S
C336 C337 1.391 . S
C337 H325 0.950 . S
C337 C333 1.393 . S
C337 C336 1.391 . S
C338 H328 0.950 . S
C338 C339 1.386 . S
C338 C340 1.391 . S
C339 C338 1.386 . S
C339 C343 1.393 . S
C340 H329 0.950 . S
C340 C338 1.391 . S
C340 C341 1.400 . S
C341 C335 1.491 . S
C341 C340 1.400 . S
C341 C342 1.398 . S
C342 H330 0.950 . S
C342 C341 1.398 . S
C342 C343 1.391 . S
C343 H331 0.950 . S
C343 C339 1.393 . S
C343 C342 1.391 . S
H344 C352 0.950 . S
H345 C357 0.950 . S
H346 C354 0.950 . S
H347 C356 0.950 . S
H348 C358 0.950 . S
H349 C360 0.950 . S
H350 C362 0.950 . S
H351 C363 0.950 . S
C352 H344 0.950 . S
C352 C353 1.386 . S
C352 C354 1.391 . S
C353 C352 1.386 . S
C353 C357 1.393 . S
C354 H346 0.950 . S
C354 C352 1.391 . S
C354 C355 1.400 . S
C355 C354 1.400 . S
C355 C356 1.398 . S
C355 C361 1.491 . S
C356 H347 0.950 . S
C356 C355 1.398 . S
C356 C357 1.391 . S
C357 H345 0.950 . S
C357 C353 1.393 . S
C357 C356 1.391 . S
C358 H348 0.950 . S
C358 C359 1.386 . S
C358 C360 1.391 . S
C359 C358 1.386 . S
C359 C363 1.393 . S
C360 H349 0.950 . S
C360 C358 1.391 . S
C360 C361 1.400 . S
C361 C355 1.491 . S
C361 C360 1.400 . S
C361 C362 1.398 . S
C362 H350 0.950 . S
C362 C361 1.398 . S
C362 C363 1.391 . S
C363 H351 0.950 . S
C363 C359 1.393 . S
C363 C362 1.391 . S
H364 C372 0.950 . S
H365 C377 0.950 . S
H366 C374 0.950 . S
H367 C376 0.950 . S
H368 C378 0.950 . S
H369 C380 0.950 . S
H370 C382 0.950 . S
H371 C383 0.950 . S
C372 H364 0.950 . S
C372 C373 1.386 . S
C372 C374 1.391 . S
C373 C372 1.386 . S
C373 C377 1.393 . S
C374 H366 0.950 . S
C374 C372 1.391 . S
C374 C375 1.400 . S
C375 C374 1.400 . S
C375 C376 1.398 . S
C375 C381 1.491 . S
C376 H367 0.950 . S
C376 C375 1.398 . S
C376 C377 1.391 . S
C377 H365 0.950 . S
C377 C373 1.393 . S
C377 C376 1.391 . S
C378 H368 0.950 . S
C378 C379 1.386 . S
C378 C380 1.391 . S
C379 C378 1.386 . S
C379 C383 1.393 . S
C380 H369 0.950 . S
C380 C378 1.391 . S
C380 C381 1.400 . S
C381 C375 1.491 . S
C381 C380 1.400 . S
C381 C382 1.398 . S
C382 H370 0.950 . S
C382 C381 1.398 . S
C382 C383 1.391 . S
C383 H371 0.950 . S
C383 C379 1.393 . S
C383 C382 1.391 . S
H384 C392 0.950 . S
H385 C397 0.950 . S
H386 C394 0.950 . S
H387 C396 0.950 . S
H388 C398 0.950 . S
H389 C400 0.950 . S
H390 C402 0.950 . S
H391 C403 0.950 . S
C392 H384 0.950 . S
C392 C393 1.386 . S
C392 C394 1.391 . S
C393 C392 1.386 . S
C393 C397 1.393 . S
C394 H386 0.950 . S
C394 C392 1.391 . S
C394 C395 1.400 . S
C395 C394 1.400 . S
C395 C396 1.398 . S
C395 C401 1.491 1_556 S
C396 H387 0.950 . S
C396 C395 1.398 . S
C396 C397 1.391 . S
C397 H385 0.950 . S
C397 C393 1.393 . S
C397 C396 1.391 . S
C398 H388 0.950 . S
C398 C399 1.386 . S
C398 C400 1.391 . S
C399 C398 1.386 . S
C399 C403 1.393 . S
C400 H389 0.950 . S
C400 C398 1.391 . S
C400 C401 1.400 . S
C401 C395 1.491 1_554 S
C401 C400 1.400 . S
C401 C402 1.398 . S
C402 H390 0.950 . S
C402 C401 1.398 . S
C402 C403 1.391 . S
C403 H391 0.950 . S
C403 C399 1.393 . S
C403 C402 1.391 . S
H404 C412 0.950 . S
H405 C417 0.950 . S
H406 C414 0.950 . S
H407 C416 0.950 . S
H408 C418 0.950 . S
H409 C420 0.950 . S
H410 C422 0.950 . S
H411 C423 0.950 . S
C412 H404 0.950 . S
C412 C413 1.386 . S
C412 C414 1.391 . S
C413 C412 1.386 . S
C413 C417 1.393 . S
C414 H406 0.950 . S
C414 C412 1.391 . S
C414 C415 1.400 . S
C415 C414 1.400 . S
C415 C416 1.398 . S
C415 C421 1.491 1_556 S
C416 H407 0.950 . S
C416 C415 1.398 . S
C416 C417 1.391 . S
C417 H405 0.950 . S
C417 C413 1.393 . S
C417 C416 1.391 . S
C418 H408 0.950 . S
C418 C419 1.386 . S
C418 C420 1.391 . S
C419 C418 1.386 . S
C419 C423 1.393 . S
C420 H409 0.950 . S
C420 C418 1.391 . S
C420 C421 1.400 . S
C421 C415 1.491 1_554 S
C421 C420 1.400 . S
C421 C422 1.398 . S
C422 H410 0.950 . S
C422 C421 1.398 . S
C422 C423 1.391 . S
C423 H411 0.950 . S
C423 C419 1.393 . S
C423 C422 1.391 . S
H424 C432 0.950 . S
H425 C437 0.950 . S
H426 C434 0.950 . S
H427 C436 0.950 . S
H428 C438 0.950 . S
H429 C440 0.950 . S
H430 C442 0.950 . S
H431 C443 0.950 . S
C432 H424 0.950 . S
C432 C433 1.386 . S
C432 C434 1.391 . S
C433 C432 1.386 . S
C433 C437 1.393 . S
C434 H426 0.950 . S
C434 C432 1.391 . S
C434 C435 1.400 . S
C435 C434 1.400 . S
C435 C436 1.398 . S
C435 C441 1.491 1_556 S
C436 H427 0.950 . S
C436 C435 1.398 . S
C436 C437 1.391 . S
C437 H425 0.950 . S
C437 C433 1.393 . S
C437 C436 1.391 . S
C438 H428 0.950 . S
C438 C439 1.386 . S
C438 C440 1.391 . S
C439 C438 1.386 . S
C439 C443 1.393 . S
C440 H429 0.950 . S
C440 C438 1.391 . S
C440 C441 1.400 . S
C441 C435 1.491 1_554 S
C441 C440 1.400 . S
C441 C442 1.398 . S
C442 H430 0.950 . S
C442 C441 1.398 . S
C442 C443 1.391 . S
C443 H431 0.950 . S
C443 C439 1.393 . S
C443 C442 1.391 . S
H444 C452 0.950 . S
H445 C457 0.950 . S
H446 C454 0.950 . S
H447 C456 0.950 . S
H448 C458 0.950 . S
H449 C460 0.950 . S
H450 C462 0.950 . S
H451 C463 0.950 . S
C452 H444 0.950 . S
C452 C453 1.386 . S
C452 C454 1.391 . S
C453 C452 1.386 . S
C453 C457 1.393 . S
C454 H446 0.950 . S
C454 C452 1.391 . S
C454 C455 1.400 . S
C455 C454 1.400 . S
C455 C456 1.398 . S
C455 C461 1.491 1_554 S
C456 H447 0.950 . S
C456 C455 1.398 . S
C456 C457 1.391 . S
C457 H445 0.950 . S
C457 C453 1.393 . S
C457 C456 1.391 . S
C458 H448 0.950 . S
C458 C459 1.386 . S
C458 C460 1.391 . S
C459 C458 1.386 . S
C459 C463 1.393 . S
C460 H449 0.950 . S
C460 C458 1.391 . S
C460 C461 1.400 . S
C461 C455 1.491 1_556 S
C461 C460 1.400 . S
C461 C462 1.398 . S
C462 H450 0.950 . S
C462 C461 1.398 . S
C462 C463 1.391 . S
C463 H451 0.950 . S
C463 C459 1.393 . S
C463 C462 1.391 . S
H464 C472 0.950 . S
H465 C477 0.950 . S
H466 C474 0.950 . S
H467 C476 0.950 . S
H468 C478 0.950 . S
H469 C480 0.950 . S
H470 C482 0.950 . S
H471 C483 0.950 . S
C472 H464 0.950 . S
C472 C473 1.386 . S
C472 C474 1.391 . S
C473 C472 1.386 . S
C473 C477 1.393 . S
C474 H466 0.950 . S
C474 C472 1.391 . S
C474 C475 1.400 . S
C475 C474 1.400 . S
C475 C476 1.398 . S
C475 C481 1.491 . S
C476 H467 0.950 . S
C476 C475 1.398 . S
C476 C477 1.391 . S
C477 H465 0.950 . S
C477 C473 1.393 . S
C477 C476 1.391 . S
C478 H468 0.950 . S
C478 C479 1.386 . S
C478 C480 1.391 . S
C479 C478 1.386 . S
C479 C483 1.393 . S
C480 H469 0.950 . S
C480 C478 1.391 . S
C480 C481 1.400 . S
C481 C475 1.491 . S
C481 C480 1.400 . S
C481 C482 1.398 . S
C482 H470 0.950 . S
C482 C481 1.398 . S
C482 C483 1.391 . S
C483 H471 0.950 . S
C483 C479 1.393 . S
C483 C482 1.391 . S
H484 C492 0.950 . S
H485 C497 0.950 . S
H486 C494 0.950 . S
H487 C496 0.950 . S
H488 C498 0.950 . S
H489 C500 0.950 . S
H490 C502 0.950 . S
H491 C503 0.950 . S
C492 H484 0.950 . S
C492 C493 1.386 . S
C492 C494 1.391 . S
C493 C492 1.386 . S
C493 C497 1.393 . S
C494 H486 0.950 . S
C494 C492 1.391 . S
C494 C495 1.400 . S
C495 C494 1.400 . S
C495 C496 1.398 . S
C495 C501 1.491 . S
C496 H487 0.950 . S
C496 C495 1.398 . S
C496 C497 1.391 . S
C497 H485 0.950 . S
C497 C493 1.393 . S
C497 C496 1.391 . S
C498 H488 0.950 . S
C498 C499 1.386 . S
C498 C500 1.391 . S
C499 C498 1.386 . S
C499 C503 1.393 . S
C500 H489 0.950 . S
C500 C498 1.391 . S
C500 C501 1.400 . S
C501 C495 1.491 . S
C501 C500 1.400 . S
C501 C502 1.398 . S
C502 H490 0.950 . S
C502 C501 1.398 . S
C502 C503 1.391 . S
C503 H491 0.950 . S
C503 C499 1.393 . S
C503 C502 1.391 . S
H504 C512 0.950 . S
H505 C517 0.950 . S
H506 C514 0.950 . S
H507 C516 0.950 . S
H508 C518 0.950 . S
H509 C520 0.950 . S
H510 C522 0.950 . S
H511 C523 0.950 . S
C512 H504 0.950 . S
C512 C513 1.386 . S
C512 C514 1.391 . S
C513 C512 1.386 . S
C513 C517 1.393 . S
C514 H506 0.950 . S
C514 C512 1.391 . S
C514 C515 1.400 . S
C515 C514 1.400 . S
C515 C516 1.398 . S
C515 C521 1.491 . S
C516 H507 0.950 . S
C516 C515 1.398 . S
C516 C517 1.391 . S
C517 H505 0.950 . S
C517 C513 1.393 . S
C517 C516 1.391 . S
C518 H508 0.950 . S
C518 C519 1.386 . S
C518 C520 1.391 . S
C519 C518 1.386 . S
C519 C523 1.393 . S
C520 H509 0.950 . S
C520 C518 1.391 . S
C520 C521 1.400 . S
C521 C515 1.491 . S
C521 C520 1.400 . S
C521 C522 1.398 . S
C522 H510 0.950 . S
C522 C521 1.398 . S
C522 C523 1.391 . S
C523 H511 0.950 . S
C523 C519 1.393 . S
C523 C522 1.391 . S
H524 C532 0.950 . S
H525 C537 0.950 . S
H526 C534 0.950 . S
H527 C536 0.950 . S
H528 C538 0.950 . S
H529 C540 0.950 . S
H530 C542 0.950 . S
H531 C543 0.950 . S
C532 H524 0.950 . S
C532 C533 1.386 . S
C532 C534 1.391 . S
C533 C532 1.386 . S
C533 C537 1.393 . S
C534 H526 0.950 . S
C534 C532 1.391 . S
C534 C535 1.400 . S
C535 C534 1.400 . S
C535 C536 1.398 . S
C535 C541 1.491 . S
C536 H527 0.950 . S
C536 C535 1.398 . S
C536 C537 1.391 . S
C537 H525 0.950 . S
C537 C533 1.393 . S
C537 C536 1.391 . S
C538 H528 0.950 . S
C538 C539 1.386 . S
C538 C540 1.391 . S
C539 C538 1.386 . S
C539 C543 1.393 . S
C540 H529 0.950 . S
C540 C538 1.391 . S
C540 C541 1.400 . S
C541 C535 1.491 . S
C541 C540 1.400 . S
C541 C542 1.398 . S
C542 H530 0.950 . S
C542 C541 1.398 . S
C542 C543 1.391 . S
C543 H531 0.950 . S
C543 C539 1.393 . S
C543 C542 1.391 . S
H544 C552 0.950 . S
H545 C557 0.950 . S
H546 C554 0.950 . S
H547 C556 0.950 . S
H548 C558 0.950 . S
H549 C560 0.950 . S
H550 C562 0.950 . S
H551 C563 0.950 . S
C552 H544 0.950 . S
C552 C553 1.386 . S
C552 C554 1.391 . S
C553 C552 1.386 . S
C553 C557 1.393 . S
C554 H546 0.950 . S
C554 C552 1.391 . S
C554 C555 1.400 . S
C555 C554 1.400 . S
C555 C556 1.398 . S
C555 C561 1.491 . S
C556 H547 0.950 . S
C556 C555 1.398 . S
C556 C557 1.391 . S
C557 H545 0.950 . S
C557 C553 1.393 . S
C557 C556 1.391 . S
C558 H548 0.950 . S
C558 C559 1.386 . S
C558 C560 1.391 . S
C559 C558 1.386 . S
C559 C563 1.393 . S
C560 H549 0.950 . S
C560 C558 1.391 . S
C560 C561 1.400 . S
C561 C555 1.491 . S
C561 C560 1.400 . S
C561 C562 1.398 . S
C562 H550 0.950 . S
C562 C561 1.398 . S
C562 C563 1.391 . S
C563 H551 0.950 . S
C563 C559 1.393 . S
C563 C562 1.391 . S
H564 C572 0.950 . S
H565 C577 0.950 . S
H566 C574 0.950 . S
H567 C576 0.950 . S
H568 C578 0.950 . S
H569 C580 0.950 . S
H570 C582 0.950 . S
H571 C583 0.950 . S
C572 H564 0.950 . S
C572 C573 1.386 . S
C572 C574 1.391 . S
C573 C572 1.386 . S
C573 C577 1.393 . S
C574 H566 0.950 . S
C574 C572 1.391 . S
C574 C575 1.400 . S
C575 C574 1.400 . S
C575 C576 1.398 . S
C575 C581 1.491 . S
C576 H567 0.950 . S
C576 C575 1.398 . S
C576 C577 1.391 . S
C577 H565 0.950 . S
C577 C573 1.393 . S
C577 C576 1.391 . S
C578 H568 0.950 . S
C578 C579 1.386 . S
C578 C580 1.391 . S
C579 C578 1.386 . S
C579 C583 1.393 . S
C580 H569 0.950 . S
C580 C578 1.391 . S
C580 C581 1.400 . S
C581 C575 1.491 . S
C581 C580 1.400 . S
C581 C582 1.398 . S
C582 H570 0.950 . S
C582 C581 1.398 . S
C582 C583 1.391 . S
C583 H571 0.950 . S
C583 C579 1.393 . S
C583 C582 1.391 . S
H584 C592 0.950 . S
H585 C597 0.950 . S
H586 C594 0.950 . S
H587 C596 0.950 . S
H588 C598 0.950 . S
H589 C600 0.950 . S
H590 C602 0.950 . S
H591 C603 0.950 . S
C592 H584 0.950 . S
C592 C593 1.386 . S
C592 C594 1.391 . S
C593 C592 1.386 . S
C593 C597 1.393 . S
C594 H586 0.950 . S
C594 C592 1.391 . S
C594 C595 1.400 . S
C595 C594 1.400 . S
C595 C596 1.398 . S
C595 C601 1.491 . S
C596 H587 0.950 . S
C596 C595 1.398 . S
C596 C597 1.391 . S
C597 H585 0.950 . S
C597 C593 1.393 . S
C597 C596 1.391 . S
C598 H588 0.950 . S
C598 C599 1.386 . S
C598 C600 1.391 . S
C599 C598 1.386 . S
C599 C603 1.393 . S
C600 H589 0.950 . S
C600 C598 1.391 . S
C600 C601 1.400 . S
C601 C595 1.491 . S
C601 C600 1.400 . S
C601 C602 1.398 . S
C602 H590 0.950 . S
C602 C601 1.398 . S
C602 C603 1.391 . S
C603 H591 0.950 . S
C603 C599 1.393 . S
C603 C602 1.391 . S
H604 C612 0.950 . S
H605 C617 0.950 . S
H606 C614 0.950 . S
H607 C616 0.950 . S
H608 C618 0.950 . S
H609 C620 0.950 . S
H610 C622 0.950 . S
H611 C623 0.950 . S
C612 H604 0.950 . S
C612 C613 1.386 . S
C612 C614 1.391 . S
C613 C612 1.386 . S
C613 C617 1.393 . S
C614 H606 0.950 . S
C614 C612 1.391 . S
C614 C615 1.400 . S
C615 C614 1.400 . S
C615 C616 1.398 . S
C615 C621 1.491 . S
C616 H607 0.950 . S
C616 C615 1.398 . S
C616 C617 1.391 . S
C617 H605 0.950 . S
C617 C613 1.393 . S
C617 C616 1.391 . S
C618 H608 0.950 . S
C618 C619 1.386 . S
C618 C620 1.391 . S
C619 C618 1.386 . S
C619 C623 1.393 . S
C620 H609 0.950 . S
C620 C618 1.391 . S
C620 C621 1.400 . S
C621 C615 1.491 . S
C621 C620 1.400 . S
C621 C622 1.398 . S
C622 H610 0.950 . S
C622 C621 1.398 . S
C622 C623 1.391 . S
C623 H611 0.950 . S
C623 C619 1.393 . S
C623 C622 1.391 . S
H624 C632 0.950 . S
H625 C637 0.950 . S
H626 C634 0.950 . S
H627 C636 0.950 . S
H628 C638 0.950 . S
H629 C640 0.950 . S
H630 C642 0.950 . S
H631 C643 0.950 . S
C632 H624 0.950 . S
C632 C633 1.386 . S
C632 C634 1.391 . S
C633 C632 1.386 . S
C633 C637 1.393 . S
C634 H626 0.950 . S
C634 C632 1.391 . S
C634 C635 1.400 . S
C635 C634 1.400 . S
C635 C636 1.398 . S
C635 C641 1.491 . S
C636 H627 0.950 . S
C636 C635 1.398 . S
C636 C637 1.391 . S
C637 H625 0.950 . S
C637 C633 1.393 . S
C637 C636 1.391 . S
C638 H628 0.950 . S
C638 C639 1.386 . S
C638 C640 1.391 . S
C639 C638 1.386 . S
C639 C643 1.393 . S
C640 H629 0.950 . S
C640 C638 1.391 . S
C640 C641 1.400 . S
C641 C635 1.491 . S
C641 C640 1.400 . S
C641 C642 1.398 . S
C642 H630 0.950 . S
C642 C641 1.398 . S
C642 C643 1.391 . S
C643 H631 0.950 . S
C643 C639 1.393 . S
C643 C642 1.391 . S
H644 C652 0.950 . S
H645 C657 0.950 . S
H646 C654 0.950 . S
H647 C656 0.950 . S
H648 C658 0.950 . S
H649 C660 0.950 . S
H650 C662 0.950 . S
H651 C663 0.950 . S
C652 H644 0.950 . S
C652 C653 1.386 . S
C652 C654 1.391 . S
C653 C652 1.386 . S
C653 C657 1.393 . S
C654 H646 0.950 . S
C654 C652 1.391 . S
C654 C655 1.400 . S
C655 C654 1.400 . S
C655 C656 1.398 . S
C655 C661 1.491 . S
C656 H647 0.950 . S
C656 C655 1.398 . S
C656 C657 1.391 . S
C657 H645 0.950 . S
C657 C653 1.393 . S
C657 C656 1.391 . S
C658 H648 0.950 . S
C658 C659 1.386 . S
C658 C660 1.391 . S
C659 C658 1.386 . S
C659 C663 1.393 . S
C660 H649 0.950 . S
C660 C658 1.391 . S
C660 C661 1.400 . S
C661 C655 1.491 . S
C661 C660 1.400 . S
C661 C662 1.398 . S
C662 H650 0.950 . S
C662 C661 1.398 . S
C662 C663 1.391 . S
C663 H651 0.950 . S
C663 C659 1.393 . S
C663 C662 1.391 . S
H664 C672 0.950 . S
H665 C677 0.950 . S
H666 C674 0.950 . S
H667 C676 0.950 . S
H668 C678 0.950 . S
H669 C680 0.950 . S
H670 C682 0.950 . S
H671 C683 0.950 . S
C672 H664 0.950 . S
C672 C673 1.386 . S
C672 C674 1.391 . S
C673 C672 1.386 . S
C673 C677 1.393 . S
C674 H666 0.950 . S
C674 C672 1.391 . S
C674 C675 1.400 . S
C675 C674 1.400 . S
C675 C676 1.398 . S
C675 C681 1.491 . S
C676 H667 0.950 . S
C676 C675 1.398 . S
C676 C677 1.391 . S
C677 H665 0.950 . S
C677 C673 1.393 . S
C677 C676 1.391 . S
C678 H668 0.950 . S
C678 C679 1.386 . S
C678 C680 1.391 . S
C679 C678 1.386 . S
C679 C683 1.393 . S
C680 H669 0.950 . S
C680 C678 1.391 . S
C680 C681 1.400 . S
C681 C675 1.491 . S
C681 C680 1.400 . S
C681 C682 1.398 . S
C682 H670 0.950 . S
C682 C681 1.398 . S
C682 C683 1.391 . S
C683 H671 0.950 . S
C683 C679 1.393 . S
C683 C682 1.391 . S
H684 C692 0.950 . S
H685 C697 0.950 . S
H686 C694 0.950 . S
H687 C696 0.950 . S
H688 C698 0.950 . S
H689 C700 0.950 . S
H690 C702 0.950 . S
H691 C703 0.950 . S
C692 H684 0.950 . S
C692 C693 1.386 . S
C692 C694 1.391 . S
C693 C692 1.386 . S
C693 C697 1.393 . S
C694 H686 0.950 . S
C694 C692 1.391 . S
C694 C695 1.400 . S
C695 C694 1.400 . S
C695 C696 1.398 . S
C695 C701 1.491 . S
C696 H687 0.950 . S
C696 C695 1.398 . S
C696 C697 1.391 . S
C697 H685 0.950 . S
C697 C693 1.393 . S
C697 C696 1.391 . S
C698 H688 0.950 . S
C698 C699 1.386 . S
C698 C700 1.391 . S
C699 C698 1.386 . S
C699 C703 1.393 . S
C700 H689 0.950 . S
C700 C698 1.391 . S
C700 C701 1.400 . S
C701 C695 1.491 . S
C701 C700 1.400 . S
C701 C702 1.398 . S
C702 H690 0.950 . S
C702 C701 1.398 . S
C702 C703 1.391 . S
C703 H691 0.950 . S
C703 C699 1.393 . S
C703 C702 1.391 . S
H704 C712 0.950 . S
H705 C717 0.950 . S
H706 C714 0.950 . S
H707 C716 0.950 . S
H708 C718 0.950 . S
H709 C720 0.950 . S
H710 C722 0.950 . S
H711 C723 0.950 . S
C712 H704 0.950 . S
C712 C713 1.386 . S
C712 C714 1.391 . S
C713 C712 1.386 . S
C713 C717 1.393 . S
C714 H706 0.950 . S
C714 C712 1.391 . S
C714 C715 1.400 . S
C715 C714 1.400 . S
C715 C716 1.398 . S
C715 C721 1.491 1_545 S
C716 H707 0.950 . S
C716 C715 1.398 . S
C716 C717 1.391 . S
C717 H705 0.950 . S
C717 C713 1.393 . S
C717 C716 1.391 . S
C718 H708 0.950 . S
C718 C719 1.386 . S
C718 C720 1.391 . S
C719 C718 1.386 . S
C719 C723 1.393 . S
C720 H709 0.950 . S
C720 C718 1.391 . S
C720 C721 1.400 . S
C721 C715 1.491 1_565 S
C721 C720 1.400 . S
C721 C722 1.398 . S
C722 H710 0.950 . S
C722 C721 1.398 . S
C722 C723 1.391 . S
C723 H711 0.950 . S
C723 C719 1.393 . S
C723 C722 1.391 . S
H724 C732 0.950 . S
H725 C737 0.950 . S
H726 C734 0.950 . S
H727 C736 0.950 . S
H728 C738 0.950 . S
H729 C740 0.950 . S
H730 C742 0.950 . S
H731 C743 0.950 . S
C732 H724 0.950 . S
C732 C733 1.386 . S
C732 C734 1.391 . S
C733 C732 1.386 . S
C733 C737 1.393 . S
C734 H726 0.950 . S
C734 C732 1.391 . S
C734 C735 1.400 . S
C735 C734 1.400 . S
C735 C736 1.398 . S
C735 C741 1.491 1_655 S
C736 H727 0.950 . S
C736 C735 1.398 . S
C736 C737 1.391 . S
C737 H725 0.950 . S
C737 C733 1.393 . S
C737 C736 1.391 . S
C738 H728 0.950 . S
C738 C739 1.386 . S
C738 C740 1.391 . S
C739 C738 1.386 . S
C739 C743 1.393 . S
C740 H729 0.950 . S
C740 C738 1.391 . S
C740 C741 1.400 . S
C741 C735 1.491 1_455 S
C741 C740 1.400 . S
C741 C742 1.398 . S
C742 H730 0.950 . S
C742 C741 1.398 . S
C742 C743 1.391 . S
C743 H731 0.950 . S
C743 C739 1.393 . S
C743 C742 1.391 . S
H744 C752 0.950 . S
H745 C757 0.950 . S
H746 C754 0.950 . S
H747 C756 0.950 . S
H748 C758 0.950 . S
H749 C760 0.950 . S
H750 C762 0.950 . S
H751 C763 0.950 . S
C752 H744 0.950 . S
C752 C753 1.386 . S
C752 C754 1.391 . S
C753 C752 1.386 . S
C753 C757 1.393 . S
C754 H746 0.950 . S
C754 C752 1.391 . S
C754 C755 1.400 . S
C755 C754 1.400 . S
C755 C756 1.398 . S
C755 C761 1.491 1_545 S
C756 H747 0.950 . S
C756 C755 1.398 . S
C756 C757 1.391 . S
C757 H745 0.950 . S
C757 C753 1.393 . S
C757 C756 1.391 . S
C758 H748 0.950 . S
C758 C759 1.386 . S
C758 C760 1.391 . S
C759 C758 1.386 . S
C759 C763 1.393 . S
C760 H749 0.950 . S
C760 C758 1.391 . S
C760 C761 1.400 . S
C761 C755 1.491 1_565 S
C761 C760 1.400 . S
C761 C762 1.398 . S
C762 H750 0.950 . S
C762 C761 1.398 . S
C762 C763 1.391 . S
C763 H751 0.950 . S
C763 C759 1.393 . S
C763 C762 1.391 . S
H764 C772 0.950 . S
H765 C777 0.950 . S
H766 C774 0.950 . S
H767 C776 0.950 . S
H768 C778 0.950 . S
H769 C780 0.950 . S
H770 C782 0.950 . S
H771 C783 0.950 . S
C772 H764 0.950 . S
C772 C773 1.386 . S
C772 C774 1.391 . S
C773 C772 1.386 . S
C773 C777 1.393 . S
C774 H766 0.950 . S
C774 C772 1.391 . S
C774 C775 1.400 . S
C775 C774 1.400 . S
C775 C776 1.398 . S
C775 C781 1.491 1_455 S
C776 H767 0.950 . S
C776 C775 1.398 . S
C776 C777 1.391 . S
C777 H765 0.950 . S
C777 C773 1.393 . S
C777 C776 1.391 . S
C778 H768 0.950 . S
C778 C779 1.386 . S
C778 C780 1.391 . S
C779 C778 1.386 . S
C779 C783 1.393 . S
C780 H769 0.950 . S
C780 C778 1.391 . S
C780 C781 1.400 . S
C781 C775 1.491 1_655 S
C781 C780 1.400 . S
C781 C782 1.398 . S
C782 H770 0.950 . S
C782 C781 1.398 . S
C782 C783 1.391 . S
C783 H771 0.950 . S
C783 C779 1.393 . S
C783 C782 1.391 . S
H784 C792 0.950 . S
H785 C797 0.950 . S
H786 C794 0.950 . S
H787 C796 0.950 . S
H788 C798 0.950 . S
H789 C800 0.950 . S
H790 C802 0.950 . S
H791 C803 0.950 . S
C792 H784 0.950 . S
C792 C793 1.386 . S
C792 C794 1.391 . S
C793 C792 1.386 . S
C793 C797 1.393 . S
C794 H786 0.950 . S
C794 C792 1.391 . S
C794 C795 1.400 . S
C795 C794 1.400 . S
C795 C796 1.398 . S
C795 C801 1.491 1_545 S
C796 H787 0.950 . S
C796 C795 1.398 . S
C796 C797 1.391 . S
C797 H785 0.950 . S
C797 C793 1.393 . S
C797 C796 1.391 . S
C798 H788 0.950 . S
C798 C799 1.386 . S
C798 C800 1.391 . S
C799 C798 1.386 . S
C799 C803 1.393 . S
C800 H789 0.950 . S
C800 C798 1.391 . S
C800 C801 1.400 . S
C801 C795 1.491 1_565 S
C801 C800 1.400 . S
C801 C802 1.398 . S
C802 H790 0.950 . S
C802 C801 1.398 . S
C802 C803 1.391 . S
C803 H791 0.950 . S
C803 C799 1.393 . S
C803 C802 1.391 . S
H804 C812 0.950 . S
H805 C817 0.950 . S
H806 C814 0.950 . S
H807 C816 0.950 . S
H808 C818 0.950 . S
H809 C820 0.950 . S
H810 C822 0.950 . S
H811 C823 0.950 . S
C812 H804 0.950 . S
C812 C813 1.386 . S
C812 C814 1.391 . S
C813 C812 1.386 . S
C813 C817 1.393 . S
C814 H806 0.950 . S
C814 C812 1.391 . S
C814 C815 1.400 . S
C815 C814 1.400 . S
C815 C816 1.398 . S
C815 C821 1.491 1_655 S
C816 H807 0.950 . S
C816 C815 1.398 . S
C816 C817 1.391 . S
C817 H805 0.950 . S
C817 C813 1.393 . S
C817 C816 1.391 . S
C818 H808 0.950 . S
C818 C819 1.386 . S
C818 C820 1.391 . S
C819 C818 1.386 . S
C819 C823 1.393 . S
C820 H809 0.950 . S
C820 C818 1.391 . S
C820 C821 1.400 . S
C821 C815 1.491 1_455 S
C821 C820 1.400 . S
C821 C822 1.398 . S
C822 H810 0.950 . S
C822 C821 1.398 . S
C822 C823 1.391 . S
C823 H811 0.950 . S
C823 C819 1.393 . S
C823 C822 1.391 . S
H824 C832 0.950 . S
H825 C837 0.950 . S
H826 C834 0.950 . S
H827 C836 0.950 . S
H828 C838 0.950 . S
H829 C840 0.950 . S
H830 C842 0.950 . S
H831 C843 0.950 . S
C832 H824 0.950 . S
C832 C833 1.386 . S
C832 C834 1.391 . S
C833 C832 1.386 . S
C833 C837 1.393 . S
C834 H826 0.950 . S
C834 C832 1.391 . S
C834 C835 1.400 . S
C835 C834 1.400 . S
C835 C836 1.398 . S
C835 C841 1.491 1_565 S
C836 H827 0.950 . S
C836 C835 1.398 . S
C836 C837 1.391 . S
C837 H825 0.950 . S
C837 C833 1.393 . S
C837 C836 1.391 . S
C838 H828 0.950 . S
C838 C839 1.386 . S
C838 C840 1.391 . S
C839 C838 1.386 . S
C839 C843 1.393 . S
C840 H829 0.950 . S
C840 C838 1.391 . S
C840 C841 1.400 . S
C841 C835 1.491 1_545 S
C841 C840 1.400 . S
C841 C842 1.398 . S
C842 H830 0.950 . S
C842 C841 1.398 . S
C842 C843 1.391 . S
C843 H831 0.950 . S
C843 C839 1.393 . S
C843 C842 1.391 . S
H844 C852 0.950 . S
H845 C857 0.950 . S
H846 C854 0.950 . S
H847 C856 0.945 1_655 S
H848 C858 0.950 . S
H849 C860 0.950 . S
H850 C862 0.945 1_455 S
H851 C863 0.950 . S
C852 H844 0.950 . S
C852 C853 1.386 . S
C852 C854 1.391 . S
C853 C852 1.386 . S
C853 C857 1.393 . S
C854 H846 0.950 . S
C854 C852 1.391 . S
C854 C855 1.400 . S
C855 C854 1.400 . S
C855 C856 1.398 . S
C855 C861 1.491 1_455 S
C856 H847 0.945 1_455 S
C856 C855 1.398 . S
C856 C857 1.391 . S
C857 H845 0.950 . S
C857 C853 1.393 . S
C857 C856 1.391 . S
C858 H848 0.950 . S
C858 C859 1.386 . S
C858 C860 1.391 . S
C859 C858 1.386 . S
C859 C863 1.393 . S
C860 H849 0.950 . S
C860 C858 1.391 . S
C860 C861 1.400 . S
C861 C855 1.491 1_655 S
C861 C860 1.400 . S
C861 C862 1.398 . S
C862 H850 0.945 1_655 S
C862 C861 1.398 . S
C862 C863 1.391 . S
C863 H851 0.950 . S
C863 C859 1.393 . S
C863 C862 1.391 . S
C233 C76 1.561 . S
C239 C6 1.561 . S
C253 C90 1.567 . S
C259 C20 1.581 . S
C273 C34 1.558 . S
C279 C104 1.568 . S
C293 C48 1.559 . S
C299 C62 1.575 . S
C313 C188 1.578 . S
C319 C118 1.578 . S
C333 C202 1.581 . S
C339 C132 1.566 . S
C353 C146 1.557 . S
C359 C216 1.569 . S
C373 C160 1.559 . S
C379 C174 1.574 . S
C393 C147 1.491 . S
C399 C7 1.507 . S
C413 C161 1.508 . S
C419 C21 1.493 . S
C433 C119 1.505 . S
C439 C35 1.506 . S
C453 C49 1.500 . S
C459 C133 1.508 . S
C473 C203 1.491 . S
C479 C63 1.488 . S
C493 C217 1.490 . S
C499 C77 1.488 . S
C513 C91 1.507 . S
C519 C175 1.491 . S
C533 C189 1.488 . S
C539 C105 1.491 . S
C553 C64 0.493 . S
C559 C8 0.504 . S
C573 C22 0.502 . S
C579 C78 0.492 . S
C593 C36 0.516 . S
C599 C92 0.511 . S
C613 C106 0.495 . S
C619 C50 0.507 . S
C633 C121 2.333 . S
C639 C177 2.335 . S
C653 C191 2.332 . S
C659 C135 2.334 . S
C673 C149 2.333 . S
C679 C205 2.332 . S
C693 C219 2.332 . S
C699 C163 2.334 . S
C713 C162 0.503 . S
C719 C190 0.514 . S
C733 C120 0.492 . S
C739 C204 0.497 . S
C753 C218 0.492 . S
C759 C134 0.499 . S
C773 C148 0.516 . S
C779 C176 0.508 . S
C793 C79 2.333 . S
C799 C51 2.335 . S
C813 C93 2.332 . S
C819 C9 2.333 . S
C833 C107 2.332 . S
C839 C23 2.334 . S
C853 C65 2.331 . S
C859 C37 2.335 . S
