# Generated by pormake.
# Topology uog, (4)-cn, num edge types: 1
# Building blocks:
#     Node 0, Type 0, BuildingBlock: ESEHIV_clean_sbu_0, # of connection points: 4
#     Node 1, Type 0, BuildingBlock: ESEHIV_clean_sbu_0, # of connection points: 4
#     Node 2, Type 0, BuildingBlock: ESEHIV_clean_sbu_0, # of connection points: 4
#     Node 3, Type 0, BuildingBlock: ESEHIV_clean_sbu_0, # of connection points: 4
#     Node 4, Type 0, BuildingBlock: ESEHIV_clean_sbu_0, # of connection points: 4
#     Node 5, Type 0, BuildingBlock: ESEHIV_clean_sbu_0, # of connection points: 4
#     Edge 6, Type (0, 0), BuildingBlock: AJUNOK_clean_linker_0, # of connection points: 2
#     Edge 7, Type (0, 0), BuildingBlock: AJUNOK_clean_linker_0, # of connection points: 2
#     Edge 8, Type (0, 0), BuildingBlock: AJUNOK_clean_linker_0, # of connection points: 2
#     Edge 9, Type (0, 0), BuildingBlock: AJUNOK_clean_linker_0, # of connection points: 2
#     Edge 10, Type (0, 0), BuildingBlock: AJUNOK_clean_linker_0, # of connection points: 2
#     Edge 11, Type (0, 0), BuildingBlock: AJUNOK_clean_linker_0, # of connection points: 2
#     Edge 12, Type (0, 0), BuildingBlock: AJUNOK_clean_linker_0, # of connection points: 2
#     Edge 13, Type (0, 0), BuildingBlock: AJUNOK_clean_linker_0, # of connection points: 2
#     Edge 14, Type (0, 0), BuildingBlock: AJUNOK_clean_linker_0, # of connection points: 2
#     Edge 15, Type (0, 0), BuildingBlock: AJUNOK_clean_linker_0, # of connection points: 2
#     Edge 16, Type (0, 0), BuildingBlock: AJUNOK_clean_linker_0, # of connection points: 2
#     Edge 17, Type (0, 0), BuildingBlock: AJUNOK_clean_linker_0, # of connection points: 2
# Relax obj value: 0.019
# Max RMSD: 0.224
# Mean RMSD: 0.152
data_MOF--net-uog--node1-ESEHIV_clean_sbu_0--edge1-AJUNOK_clean_linker_0
_symmetry_space_group_name_H-M    P1
_symmetry_Int_Tables_number       1
_symmetry_cell_setting            triclinic
loop_
_symmetry_equiv_pos_as_xyz
'x, y, z'
_cell_length_a     21.196453
_cell_length_b     26.24392
_cell_length_c     33.484816
_cell_angle_alpha  90.022327
_cell_angle_beta   90.105566
_cell_angle_gamma 113.59592
loop_
_atom_site_label
_atom_site_type_symbol
_atom_site_fract_x
_atom_site_fract_y
_atom_site_fract_z
_atom_type_partial_charge
Cu0 Cu 0.59611 0.29958 0.17476 0.0
N1 N 0.53961 0.33847 0.1771 0.0
N2 N 0.51317 0.41262 0.17881 0.0
C3 C 0.56071 0.39288 0.16883 0.0
C4 C 0.45922 0.36844 0.19318 0.0
C5 C 0.47592 0.32272 0.19231 0.0
O6 O 0.64721 0.31281 0.2244 0.0
C7 C 0.62362 0.32067 0.09469 0.0
O8 O 0.55661 0.30594 0.0946 0.0
H9 H 0.61168 0.41822 0.15783 0.0
H10 H 0.44506 0.2816 0.20352 0.0
N11 N 0.54665 0.22321 0.16994 0.0
N12 N 0.52884 0.13356 0.1663 0.0
C13 C 0.57415 0.18554 0.17502 0.0
C14 C 0.48151 0.19425 0.15768 0.0
C15 C 0.47015 0.13868 0.15576 0.0
C16 C 0.68109 0.36107 0.23866 0.0
O17 O 0.68883 0.40481 0.21697 0.0
H18 H 0.6266 0.19631 0.18485 0.0
H19 H 0.44548 0.21234 0.14972 0.0
O20 O 0.65384 0.32295 0.12795 0.0
H21 H 0.4117 0.3692 0.20429 0.0
H22 H 0.42312 0.10489 0.14628 0.0
Cu23 Cu 0.33839 0.60157 0.52223 0.0
N24 N 0.35127 0.64877 0.47839 0.0
N25 N 0.36056 0.68133 0.41597 0.0
C26 C 0.35405 0.63739 0.43931 0.0
C27 C 0.36232 0.72169 0.4415 0.0
C28 C 0.35641 0.7015 0.47982 0.0
O29 O 0.39083 0.55517 0.51498 0.0
C30 C 0.20015 0.5855 0.53316 0.0
O31 O 0.22935 0.63997 0.53549 0.0
H32 H 0.35251 0.59808 0.42845 0.0
H33 H 0.35524 0.72354 0.50692 0.0
N34 N 0.37321 0.6449 0.56792 0.0
N35 N 0.38474 0.67753 0.63036 0.0
C36 C 0.34403 0.639 0.6043 0.0
C37 C 0.43398 0.6889 0.57108 0.0
C38 C 0.44121 0.70913 0.60951 0.0
C39 C 0.45474 0.57795 0.50611 0.0
O40 O 0.48249 0.63173 0.49944 0.0
H41 H 0.29388 0.60734 0.61147 0.0
H42 H 0.46997 0.70591 0.54688 0.0
O43 O 0.23874 0.55901 0.52829 0.0
H44 H 0.36681 0.76281 0.43303 0.0
H45 H 0.48348 0.74555 0.62079 0.0
Cu46 Cu 0.7558 0.29513 0.86222 0.0
N47 N 0.7299 0.21847 0.86679 0.0
N48 N 0.66011 0.12835 0.87043 0.0
C49 C 0.66579 0.17985 0.86054 0.0
C50 C 0.72339 0.13478 0.88306 0.0
C51 C 0.76625 0.19051 0.881 0.0
O52 O 0.72067 0.31814 0.90914 0.0
C53 C 0.73704 0.2906 0.78118 0.0
O54 O 0.7694 0.25746 0.78562 0.0
H55 H 0.62342 0.18971 0.85046 0.0
H56 H 0.81948 0.20941 0.89039 0.0
N57 N 0.85067 0.33555 0.86096 0.0
N58 N 0.94894 0.41131 0.86006 0.0
C59 C 0.88061 0.39082 0.86668 0.0
C60 C 0.90173 0.3202 0.85035 0.0
C61 C 0.96273 0.36698 0.84999 0.0
C62 C 0.75125 0.31803 0.94192 0.0
O63 O 0.80427 0.30412 0.9413 0.0
H64 H 0.85218 0.41586 0.87399 0.0
H65 H 0.89491 0.27842 0.84227 0.0
O66 O 0.72172 0.31135 0.81215 0.0
H67 H 0.73765 0.10173 0.89329 0.0
H68 H 1.01302 0.36825 0.84262 0.0
Cu69 Cu 0.49442 0.7654 0.18129 0.0
N70 N 0.54528 0.7218 0.17769 0.0
N71 N 0.56458 0.64429 0.17629 0.0
C72 C 0.51859 0.66657 0.18365 0.0
C73 C 0.62256 0.68705 0.16466 0.0
C74 C 0.61057 0.73506 0.16571 0.0
O75 O 0.44949 0.75132 0.23298 0.0
C76 C 0.46412 0.75594 0.10146 0.0
O77 O 0.53124 0.7715 0.10094 0.0
H78 H 0.46543 0.64267 0.19139 0.0
H79 H 0.64612 0.77621 0.15702 0.0
N80 N 0.54918 0.84122 0.17985 0.0
N81 N 0.57323 0.93204 0.17612 0.0
C82 C 0.52528 0.88008 0.17052 0.0
C83 C 0.61452 0.86938 0.19209 0.0
C84 C 0.62963 0.9256 0.18967 0.0
C85 C 0.40074 0.70694 0.24476 0.0
O86 O 0.36984 0.66683 0.21904 0.0
H87 H 0.47289 0.87028 0.16094 0.0
H88 H 0.64764 0.85049 0.20374 0.0
O89 O 0.43396 0.74914 0.13516 0.0
H90 H 0.66973 0.68367 0.15558 0.0
H91 H 0.67703 0.95892 0.19921 0.0
Cu92 Cu 0.7599 0.4426 0.51871 0.0
N93 N 0.756 0.40362 0.47144 0.0
N94 N 0.74651 0.3783 0.40726 0.0
C95 C 0.7431 0.41576 0.43401 0.0
C96 C 0.76169 0.34125 0.42879 0.0
C97 C 0.7677 0.35704 0.46822 0.0
O98 O 0.70203 0.48504 0.5139 0.0
C99 C 0.89933 0.46545 0.53522 0.0
O100 O 0.87423 0.41103 0.53816 0.0
H101 H 0.73008 0.45057 0.4268 0.0
H102 H 0.77949 0.3358 0.49293 0.0
N103 N 0.72347 0.39044 0.55952 0.0
N104 N 0.70255 0.34732 0.61853 0.0
C105 C 0.7393 0.3949 0.59875 0.0
C106 C 0.6752 0.33858 0.55455 0.0
C107 C 0.66247 0.31183 0.59077 0.0
C108 C 0.63761 0.45889 0.50723 0.0
O109 O 0.61339 0.40487 0.5018 0.0
H110 H 0.77847 0.43143 0.61218 0.0
H111 H 0.65158 0.32111 0.52631 0.0
O112 O 0.85767 0.48877 0.52871 0.0
H113 H 0.76826 0.30536 0.41683 0.0
H114 H 0.62702 0.26934 0.59629 0.0
Cu115 Cu 0.32089 0.76106 0.8664 0.0
N116 N 0.34491 0.83737 0.86225 0.0
N117 N 0.4135 0.92794 0.8624 0.0
C118 C 0.40766 0.8761 0.87131 0.0
C119 C 0.35199 0.92144 0.84673 0.0
C120 C 0.30965 0.86542 0.84674 0.0
O121 O 0.36092 0.7482 0.91554 0.0
C122 C 0.31872 0.73425 0.7868 0.0
O123 O 0.26603 0.74853 0.78846 0.0
H124 H 0.44919 0.86597 0.88245 0.0
H125 H 0.25775 0.84642 0.83513 0.0
N126 N 0.22636 0.71908 0.86914 0.0
N127 N 0.12928 0.64237 0.86764 0.0
C128 C 0.19811 0.66387 0.86305 0.0
C129 C 0.17371 0.73329 0.87826 0.0
C130 C 0.1135 0.68572 0.87759 0.0
C131 C 0.33467 0.75588 0.94803 0.0
O132 O 0.28367 0.77215 0.94614 0.0
H133 H 0.22802 0.6398 0.85641 0.0
H134 H 0.17884 0.77492 0.88553 0.0
O135 O 0.35313 0.73697 0.81858 0.0
H136 H 0.33893 0.95468 0.83553 0.0
H137 H 0.06225 0.68315 0.88391 0.0
C138 C 0.48865 0.0335 0.18132 0.0
C139 C 0.54068 0.08319 0.16773 0.0
C140 C 0.49959 0.98432 0.18384 0.0
C141 C 0.56296 0.98296 0.17279 0.0
H142 H 0.43956 0.03292 0.1908 0.0
H143 H 0.45852 0.94731 0.19525 0.0
S144 S 0.71317 0.10029 0.13112 0.0
N145 N 0.65613 0.12702 0.14023 0.0
N146 N 0.67665 0.03458 0.14517 0.0
C147 C 0.61491 0.03204 0.15836 0.0
C148 C 0.60377 0.08213 0.15575 0.0
C149 C 0.57169 0.57468 0.50366 0.0
C150 C 0.49942 0.54597 0.50556 0.0
C151 C 0.61581 0.54645 0.5043 0.0
C152 C 0.58977 0.4881 0.50642 0.0
H153 H 0.59484 0.61965 0.50212 0.0
H154 H 0.67083 0.57071 0.50297 0.0
S155 S 0.40446 0.39282 0.51169 0.0
N156 N 0.40402 0.45551 0.50957 0.0
N157 N 0.48628 0.4024 0.51041 0.0
C158 C 0.51751 0.45874 0.50802 0.0
C159 C 0.4726 0.4876 0.50771 0.0
C160 C 0.98669 0.50427 0.89087 0.0
C161 C 0.99546 0.46908 0.86164 0.0
C162 C 1.02987 0.56101 0.89234 0.0
C163 C 0.08345 0.5846 0.86466 0.0
H164 H 0.94653 0.48759 0.91306 0.0
H165 H 1.02218 0.58642 0.91574 0.0
S166 S 0.12354 0.51198 0.77965 0.0
N167 N 0.0587 0.46292 0.80265 0.0
N168 N 0.13994 0.5695 0.80549 0.0
C169 C 0.09197 0.55019 0.83481 0.0
C170 C 0.04802 0.49244 0.8333 0.0
C171 C 0.09185 0.49769 0.53628 0.0
C172 C 0.12338 0.55611 0.53505 0.0
C173 C 1.0198 0.46921 0.53711 0.0
C174 C 0.97567 0.49771 0.53646 0.0
H175 H 0.12299 0.47352 0.53645 0.0
H176 H 0.99867 0.4242 0.53769 0.0
S177 S 1.03161 0.65099 0.53405 0.0
N178 N 0.10415 0.64169 0.53397 0.0
N179 N 0.96936 0.58811 0.53524 0.0
C180 C 1.00642 0.55617 0.53564 0.0
C181 C 0.0799 0.58529 0.53502 0.0
C182 C 0.49029 1.01988 0.83587 0.0
C183 C 0.47468 0.97873 0.86557 0.0
C184 C 0.55089 0.06855 0.83766 0.0
C185 C 0.59828 0.0779 0.86917 0.0
H186 H 0.45609 1.01389 0.81061 0.0
H187 H 0.56136 0.09875 0.81388 0.0
S188 S 0.5777 0.98614 0.95678 0.0
N189 N 0.509 0.95265 0.92903 0.0
N190 N 0.6228 0.0439 0.93231 0.0
C191 C 0.58254 0.0377 0.89953 0.0
C192 C 0.5208 0.98822 0.89775 0.0
C193 C 0.57681 0.56232 0.14734 0.0
C194 C 0.55171 0.58619 0.17762 0.0
C195 C 0.56258 0.50536 0.14751 0.0
C196 C 0.52303 0.47024 0.17805 0.0
H197 H 0.6067 0.58773 0.12304 0.0
H198 H 0.5825 0.48856 0.12344 0.0
S199 S 0.4505 0.51382 0.26608 0.0
N200 N 0.48846 0.57137 0.23995 0.0
N201 N 0.46244 0.46449 0.24065 0.0
C202 C 0.49834 0.49387 0.20879 0.0
C203 C 0.5126 0.55181 0.2085 0.0
C204 C 0.65529 0.32274 0.98307 0.0
C205 C 0.72325 0.32661 0.98071 0.0
C206 C 0.62464 0.32319 0.02003 0.0
C207 C 0.66075 0.32776 0.05616 0.0
H208 H 0.62442 0.31706 0.9563 0.0
H209 H 0.57136 0.31814 0.02018 0.0
S210 S 0.84324 0.3465 0.06602 0.0
N211 N 0.82815 0.34069 1.0175 0.0
N212 N 0.77052 0.34149 0.08689 0.0
C213 C 0.73009 0.33495 0.0541 0.0
C214 C 0.76128 0.33433 1.01643 0.0
C215 C 0.41836 0.74395 0.3146 0.0
C216 C 0.38526 0.69924 0.28825 0.0
C217 C 0.40972 0.73761 0.35598 0.0
C218 C 0.36769 0.68629 0.37308 0.0
H219 H 0.45227 0.78431 0.3033 0.0
H220 H 0.43748 0.7731 0.37483 0.0
S221 S 0.2662 0.55658 0.31767 0.0
N222 N 0.30671 0.60189 0.28248 0.0
N223 N 0.28973 0.59043 0.3604 0.0
C224 C 0.33312 0.64135 0.34724 0.0
C225 C 0.3419 0.64777 0.30486 0.0
C226 C 0.71786 0.26847 0.70878 0.0
C227 C 0.72335 0.30536 0.74037 0.0
C228 C 0.71033 0.28236 0.66925 0.0
C229 C 0.70919 0.33407 0.65961 0.0
H230 H 0.7198 0.2285 0.71457 0.0
H231 H 0.70694 0.25285 0.64587 0.0
S232 S 0.72033 0.44525 0.73105 0.0
N233 N 0.72572 0.39561 0.75939 0.0
N234 N 0.71233 0.42188 0.68468 0.0
C235 C 0.71405 0.3713 0.69079 0.0
C236 C 0.7207 0.35683 0.73128 0.0
C237 C 0.43025 0.7514 0.98987 0.0
C238 C 0.36371 0.75062 0.98742 0.0
C239 C 0.4612 0.75157 0.0269 0.0
C240 C 0.42674 0.75049 0.06308 0.0
H241 H 0.45966 0.75362 0.96301 0.0
H242 H 0.51323 0.75354 0.02704 0.0
S243 S 0.24898 0.74309 0.07306 0.0
N244 N 0.26232 0.74505 0.02442 0.0
N245 N 0.32057 0.74518 0.09396 0.0
C246 C 0.35905 0.74736 0.06108 0.0
C247 C 0.3276 0.74755 0.0233 0.0
C248 C 0.7 0.32363 0.34619 0.0
C249 C 0.73309 0.37558 0.36491 0.0
C250 C 0.68536 0.31949 0.30527 0.0
C251 C 0.70319 0.3672 0.28119 0.0
H252 H 0.68382 0.28572 0.36352 0.0
H253 H 0.6585 0.27837 0.29267 0.0
S254 S 0.79602 0.51324 0.31522 0.0
N255 N 0.7874 0.47572 0.356 0.0
N256 N 0.75925 0.46833 0.27901 0.0
C257 C 0.73796 0.41954 0.29937 0.0
C258 C 0.75288 0.42366 0.34122 0.0
C259 C 0.28642 0.69791 0.71755 0.0
C260 C 0.33636 0.71571 0.74813 0.0
C261 C 0.30192 0.6836 0.67963 0.0
C262 C 0.36822 0.68723 0.67058 0.0
H263 H 0.23489 0.69555 0.72273 0.0
H264 H 0.26241 0.67151 0.65677 0.0
S265 S 0.51621 0.72735 0.74049 0.0
N266 N 0.45395 0.73302 0.76727 0.0
N267 N 0.48309 0.70644 0.69572 0.0
C268 C 0.41814 0.7033 0.70107 0.0
C269 C 0.40217 0.71732 0.73993 0.0
loop_
_geom_bond_atom_site_label_1
_geom_bond_atom_site_label_2
_geom_bond_distance
_geom_bond_site_symmetry_2
_ccdc_geom_bond_type
Cu0 N1 1.999 . S
Cu0 O6 1.974 . S
Cu0 N11 1.985 . S
Cu0 O20 1.959 . S
N1 Cu0 1.999 . S
N1 C3 1.263 . S
N1 C5 1.389 . S
N2 C3 1.358 . S
N2 C4 1.400 . S
C3 N1 1.263 . S
C3 N2 1.358 . S
C3 H9 0.930 . S
C4 N2 1.400 . S
C4 C5 1.351 . S
C4 H21 0.930 . S
C5 N1 1.389 . S
C5 C4 1.351 . S
C5 H10 0.930 . S
O6 Cu0 1.974 . S
O6 C16 1.282 . S
C7 O8 1.261 . S
C7 O20 1.251 . S
O8 C7 1.261 . S
H9 C3 0.930 . S
H10 C5 0.930 . S
N11 Cu0 1.985 . S
N11 C13 1.335 . S
N11 C14 1.390 . S
N12 C13 1.345 . S
N12 C15 1.336 . S
C13 N11 1.335 . S
C13 N12 1.345 . S
C13 H18 0.930 . S
C14 N11 1.390 . S
C14 C15 1.346 . S
C14 H19 0.930 . S
C15 N12 1.336 . S
C15 C14 1.346 . S
C15 H22 0.929 . S
C16 O6 1.282 . S
C16 O17 1.216 . S
O17 C16 1.216 . S
H18 C13 0.930 . S
H19 C14 0.930 . S
O20 Cu0 1.959 . S
O20 C7 1.251 . S
H21 C4 0.930 . S
H22 C15 0.929 . S
Cu23 N24 1.999 . S
Cu23 O29 1.974 . S
Cu23 N34 1.985 . S
Cu23 O43 1.959 . S
N24 Cu23 1.999 . S
N24 C26 1.263 . S
N24 C28 1.389 . S
N25 C26 1.358 . S
N25 C27 1.400 . S
C26 N24 1.263 . S
C26 N25 1.358 . S
C26 H32 0.930 . S
C27 N25 1.400 . S
C27 C28 1.351 . S
C27 H44 0.930 . S
C28 N24 1.389 . S
C28 C27 1.351 . S
C28 H33 0.930 . S
O29 Cu23 1.974 . S
O29 C39 1.282 . S
C30 O31 1.261 . S
C30 O43 1.251 . S
O31 C30 1.261 . S
H32 C26 0.930 . S
H33 C28 0.930 . S
N34 Cu23 1.985 . S
N34 C36 1.335 . S
N34 C37 1.390 . S
N35 C36 1.345 . S
N35 C38 1.336 . S
C36 N34 1.335 . S
C36 N35 1.345 . S
C36 H41 0.930 . S
C37 N34 1.390 . S
C37 C38 1.346 . S
C37 H42 0.930 . S
C38 N35 1.336 . S
C38 C37 1.346 . S
C38 H45 0.929 . S
C39 O29 1.282 . S
C39 O40 1.216 . S
O40 C39 1.216 . S
H41 C36 0.930 . S
H42 C37 0.930 . S
O43 Cu23 1.959 . S
O43 C30 1.251 . S
H44 C27 0.930 . S
H45 C38 0.929 . S
Cu46 N47 1.999 . S
Cu46 O52 1.974 . S
Cu46 N57 1.985 . S
Cu46 O66 1.959 . S
N47 Cu46 1.999 . S
N47 C49 1.263 . S
N47 C51 1.389 . S
N48 C49 1.358 . S
N48 C50 1.400 . S
C49 N47 1.263 . S
C49 N48 1.358 . S
C49 H55 0.930 . S
C50 N48 1.400 . S
C50 C51 1.351 . S
C50 H67 0.930 . S
C51 N47 1.389 . S
C51 C50 1.351 . S
C51 H56 0.930 . S
O52 Cu46 1.974 . S
O52 C62 1.282 . S
C53 O54 1.261 . S
C53 O66 1.251 . S
O54 C53 1.261 . S
H55 C49 0.930 . S
H56 C51 0.930 . S
N57 Cu46 1.985 . S
N57 C59 1.335 . S
N57 C60 1.390 . S
N58 C59 1.345 . S
N58 C61 1.336 . S
C59 N57 1.335 . S
C59 N58 1.345 . S
C59 H64 0.930 . S
C60 N57 1.390 . S
C60 C61 1.346 . S
C60 H65 0.930 . S
C61 N58 1.336 . S
C61 C60 1.346 . S
C61 H68 0.929 . S
C62 O52 1.282 . S
C62 O63 1.216 . S
O63 C62 1.216 . S
H64 C59 0.930 . S
H65 C60 0.930 . S
O66 Cu46 1.959 . S
O66 C53 1.251 . S
H67 C50 0.930 . S
H68 C61 0.929 . S
Cu69 N70 1.999 . S
Cu69 O75 1.974 . S
Cu69 N80 1.985 . S
Cu69 O89 1.959 . S
N70 Cu69 1.999 . S
N70 C72 1.263 . S
N70 C74 1.389 . S
N71 C72 1.358 . S
N71 C73 1.400 . S
C72 N70 1.263 . S
C72 N71 1.358 . S
C72 H78 0.930 . S
C73 N71 1.400 . S
C73 C74 1.351 . S
C73 H90 0.930 . S
C74 N70 1.389 . S
C74 C73 1.351 . S
C74 H79 0.930 . S
O75 Cu69 1.974 . S
O75 C85 1.282 . S
C76 O77 1.261 . S
C76 O89 1.251 . S
O77 C76 1.261 . S
H78 C72 0.930 . S
H79 C74 0.930 . S
N80 Cu69 1.985 . S
N80 C82 1.335 . S
N80 C83 1.390 . S
N81 C82 1.345 . S
N81 C84 1.336 . S
C82 N80 1.335 . S
C82 N81 1.345 . S
C82 H87 0.930 . S
C83 N80 1.390 . S
C83 C84 1.346 . S
C83 H88 0.930 . S
C84 N81 1.336 . S
C84 C83 1.346 . S
C84 H91 0.929 . S
C85 O75 1.282 . S
C85 O86 1.216 . S
O86 C85 1.216 . S
H87 C82 0.930 . S
H88 C83 0.930 . S
O89 Cu69 1.959 . S
O89 C76 1.251 . S
H90 C73 0.930 . S
H91 C84 0.929 . S
Cu92 N93 1.999 . S
Cu92 O98 1.974 . S
Cu92 N103 1.985 . S
Cu92 O112 1.959 . S
N93 Cu92 1.999 . S
N93 C95 1.263 . S
N93 C97 1.389 . S
N94 C95 1.358 . S
N94 C96 1.400 . S
C95 N93 1.263 . S
C95 N94 1.358 . S
C95 H101 0.930 . S
C96 N94 1.400 . S
C96 C97 1.351 . S
C96 H113 0.930 . S
C97 N93 1.389 . S
C97 C96 1.351 . S
C97 H102 0.930 . S
O98 Cu92 1.974 . S
O98 C108 1.282 . S
C99 O100 1.261 . S
C99 O112 1.251 . S
O100 C99 1.261 . S
H101 C95 0.930 . S
H102 C97 0.930 . S
N103 Cu92 1.985 . S
N103 C105 1.335 . S
N103 C106 1.390 . S
N104 C105 1.345 . S
N104 C107 1.336 . S
C105 N103 1.335 . S
C105 N104 1.345 . S
C105 H110 0.930 . S
C106 N103 1.390 . S
C106 C107 1.346 . S
C106 H111 0.930 . S
C107 N104 1.336 . S
C107 C106 1.346 . S
C107 H114 0.929 . S
C108 O98 1.282 . S
C108 O109 1.216 . S
O109 C108 1.216 . S
H110 C105 0.930 . S
H111 C106 0.930 . S
O112 Cu92 1.959 . S
O112 C99 1.251 . S
H113 C96 0.930 . S
H114 C107 0.929 . S
Cu115 N116 1.999 . S
Cu115 O121 1.974 . S
Cu115 N126 1.985 . S
Cu115 O135 1.959 . S
N116 Cu115 1.999 . S
N116 C118 1.263 . S
N116 C120 1.389 . S
N117 C118 1.358 . S
N117 C119 1.400 . S
C118 N116 1.263 . S
C118 N117 1.358 . S
C118 H124 0.930 . S
C119 N117 1.400 . S
C119 C120 1.351 . S
C119 H136 0.930 . S
C120 N116 1.389 . S
C120 C119 1.351 . S
C120 H125 0.930 . S
O121 Cu115 1.974 . S
O121 C131 1.282 . S
C122 O123 1.261 . S
C122 O135 1.251 . S
O123 C122 1.261 . S
H124 C118 0.930 . S
H125 C120 0.930 . S
N126 Cu115 1.985 . S
N126 C128 1.335 . S
N126 C129 1.390 . S
N127 C128 1.345 . S
N127 C130 1.336 . S
C128 N126 1.335 . S
C128 N127 1.345 . S
C128 H133 0.930 . S
C129 N126 1.390 . S
C129 C130 1.346 . S
C129 H134 0.930 . S
C130 N127 1.336 . S
C130 C129 1.346 . S
C130 H137 0.929 . S
C131 O121 1.282 . S
C131 O132 1.216 . S
O132 C131 1.216 . S
H133 C128 0.930 . S
H134 C129 0.930 . S
O135 Cu115 1.959 . S
O135 C122 1.251 . S
H136 C119 0.930 . S
H137 C130 0.929 . S
C138 C139 1.369 . S
C138 C140 1.419 1_545 S
C138 H142 0.930 . S
C139 C138 1.369 . S
C139 C148 1.429 . S
C140 C138 1.419 1_565 S
C140 C141 1.363 . S
C140 H143 0.929 . S
C141 C140 1.363 . S
C141 C147 1.428 . S
H142 C138 0.930 . S
H143 C140 0.929 . S
S144 N145 1.613 . S
S144 N146 1.610 1_545 S
N145 S144 1.613 . S
N145 C148 1.350 . S
N146 S144 1.610 1_565 S
N146 C147 1.351 . S
C147 C141 1.428 . S
C147 N146 1.351 . S
C147 C148 1.434 1_565 S
C148 C139 1.429 . S
C148 N145 1.350 . S
C148 C147 1.434 1_545 S
C149 C150 1.369 . S
C149 C151 1.419 . S
C149 H153 0.930 . S
C150 C149 1.369 . S
C150 C159 1.429 . S
C151 C149 1.419 . S
C151 C152 1.363 . S
C151 H154 0.929 . S
C152 C151 1.363 . S
C152 C158 1.428 . S
H153 C149 0.930 . S
H154 C151 0.929 . S
S155 N156 1.613 . S
S155 N157 1.610 . S
N156 S155 1.613 . S
N156 C159 1.350 . S
N157 S155 1.610 . S
N157 C158 1.351 . S
C158 C152 1.428 . S
C158 N157 1.351 . S
C158 C159 1.434 . S
C159 C150 1.429 . S
C159 N156 1.350 . S
C159 C158 1.434 . S
C160 C161 1.369 . S
C160 C162 1.419 . S
C160 H164 0.930 . S
C161 C160 1.369 . S
C161 C170 1.429 1_655 S
C162 C160 1.419 . S
C162 C163 1.363 1_655 S
C162 H165 0.929 . S
C163 C162 1.363 1_455 S
C163 C169 1.428 . S
H164 C160 0.930 . S
H165 C162 0.929 . S
S166 N167 1.613 . S
S166 N168 1.610 . S
N167 S166 1.613 . S
N167 C170 1.350 . S
N168 S166 1.610 . S
N168 C169 1.351 . S
C169 C163 1.428 . S
C169 N168 1.351 . S
C169 C170 1.434 . S
C170 C161 1.429 1_455 S
C170 N167 1.350 . S
C170 C169 1.434 . S
C171 C172 1.369 . S
C171 C173 1.419 1_455 S
C171 H175 0.930 . S
C172 C171 1.369 . S
C172 C181 1.429 . S
C173 C171 1.419 1_655 S
C173 C174 1.363 . S
C173 H176 0.929 . S
C174 C173 1.363 . S
C174 C180 1.428 . S
H175 C171 0.930 . S
H176 C173 0.929 . S
S177 N178 1.613 . S
S177 N179 1.610 1_455 S
N178 S177 1.613 . S
N178 C181 1.350 . S
N179 S177 1.610 1_655 S
N179 C180 1.351 . S
C180 C174 1.428 . S
C180 N179 1.351 . S
C180 C181 1.434 1_655 S
C181 C172 1.429 . S
C181 N178 1.350 . S
C181 C180 1.434 1_455 S
C182 C183 1.369 . S
C182 C184 1.419 1_565 S
C182 H186 0.930 . S
C183 C182 1.369 . S
C183 C192 1.429 . S
C184 C182 1.419 1_545 S
C184 C185 1.363 . S
C184 H187 0.929 . S
C185 C184 1.363 . S
C185 C191 1.428 . S
H186 C182 0.930 . S
H187 C184 0.929 . S
S188 N189 1.613 . S
S188 N190 1.610 1_565 S
N189 S188 1.613 . S
N189 C192 1.350 . S
N190 S188 1.610 1_545 S
N190 C191 1.351 . S
C191 C185 1.428 . S
C191 N190 1.351 . S
C191 C192 1.434 1_545 S
C192 C183 1.429 . S
C192 N189 1.350 . S
C192 C191 1.434 1_565 S
C193 C194 1.369 . S
C193 C195 1.419 . S
C193 H197 0.930 . S
C194 C193 1.369 . S
C194 C203 1.429 . S
C195 C193 1.419 . S
C195 C196 1.363 . S
C195 H198 0.929 . S
C196 C195 1.363 . S
C196 C202 1.428 . S
H197 C193 0.930 . S
H198 C195 0.929 . S
S199 N200 1.613 . S
S199 N201 1.610 . S
N200 S199 1.613 . S
N200 C203 1.350 . S
N201 S199 1.610 . S
N201 C202 1.351 . S
C202 C196 1.428 . S
C202 N201 1.351 . S
C202 C203 1.434 . S
C203 C194 1.429 . S
C203 N200 1.350 . S
C203 C202 1.434 . S
C204 C205 1.369 1_554 S
C204 C206 1.419 . S
C204 H208 0.930 . S
C205 C204 1.369 1_556 S
C205 C214 1.429 . S
C206 C204 1.419 . S
C206 C207 1.363 . S
C206 H209 0.929 . S
C207 C206 1.363 . S
C207 C213 1.428 1_554 S
H208 C204 0.930 . S
H209 C206 0.929 . S
S210 N211 1.613 . S
S210 N212 1.610 . S
N211 S210 1.613 . S
N211 C214 1.350 . S
N212 S210 1.610 . S
N212 C213 1.351 . S
C213 C207 1.428 1_556 S
C213 N212 1.351 . S
C213 C214 1.434 . S
C214 C205 1.429 . S
C214 N211 1.350 . S
C214 C213 1.434 . S
C215 C216 1.369 . S
C215 C217 1.419 . S
C215 H219 0.930 . S
C216 C215 1.369 . S
C216 C225 1.429 . S
C217 C215 1.419 . S
C217 C218 1.363 . S
C217 H220 0.929 . S
C218 C217 1.363 . S
C218 C224 1.428 . S
H219 C215 0.930 . S
H220 C217 0.929 . S
S221 N222 1.613 . S
S221 N223 1.610 . S
N222 S221 1.613 . S
N222 C225 1.350 . S
N223 S221 1.610 . S
N223 C224 1.351 . S
C224 C218 1.428 . S
C224 N223 1.351 . S
C224 C225 1.434 . S
C225 C216 1.429 . S
C225 N222 1.350 . S
C225 C224 1.434 . S
C226 C227 1.369 . S
C226 C228 1.419 . S
C226 H230 0.930 . S
C227 C226 1.369 . S
C227 C236 1.429 . S
C228 C226 1.419 . S
C228 C229 1.363 . S
C228 H231 0.929 . S
C229 C228 1.363 . S
C229 C235 1.428 . S
H230 C226 0.930 . S
H231 C228 0.929 . S
S232 N233 1.613 . S
S232 N234 1.610 . S
N233 S232 1.613 . S
N233 C236 1.350 . S
N234 S232 1.610 . S
N234 C235 1.351 . S
C235 C229 1.428 . S
C235 N234 1.351 . S
C235 C236 1.434 . S
C236 C227 1.429 . S
C236 N233 1.350 . S
C236 C235 1.434 . S
C237 C238 1.369 . S
C237 C239 1.419 1_556 S
C237 H241 0.930 . S
C238 C237 1.369 . S
C238 C247 1.429 . S
C239 C237 1.419 1_554 S
C239 C240 1.363 . S
C239 H242 0.929 . S
C240 C239 1.363 . S
C240 C246 1.428 . S
H241 C237 0.930 . S
H242 C239 0.929 . S
S243 N244 1.613 . S
S243 N245 1.610 1_556 S
N244 S243 1.613 . S
N244 C247 1.350 . S
N245 S243 1.610 1_554 S
N245 C246 1.351 . S
C246 C240 1.428 . S
C246 N245 1.351 . S
C246 C247 1.434 1_554 S
C247 C238 1.429 . S
C247 N244 1.350 . S
C247 C246 1.434 1_556 S
C248 C249 1.369 . S
C248 C250 1.419 . S
C248 H252 0.930 . S
C249 C248 1.369 . S
C249 C258 1.429 . S
C250 C248 1.419 . S
C250 C251 1.363 . S
C250 H253 0.929 . S
C251 C250 1.363 . S
C251 C257 1.428 . S
H252 C248 0.930 . S
H253 C250 0.929 . S
S254 N255 1.613 . S
S254 N256 1.610 . S
N255 S254 1.613 . S
N255 C258 1.350 . S
N256 S254 1.610 . S
N256 C257 1.351 . S
C257 C251 1.428 . S
C257 N256 1.351 . S
C257 C258 1.434 . S
C258 C249 1.429 . S
C258 N255 1.350 . S
C258 C257 1.434 . S
C259 C260 1.369 . S
C259 C261 1.419 . S
C259 H263 0.930 . S
C260 C259 1.369 . S
C260 C269 1.429 . S
C261 C259 1.419 . S
C261 C262 1.363 . S
C261 H264 0.929 . S
C262 C261 1.363 . S
C262 C268 1.428 . S
H263 C259 0.930 . S
H264 C261 0.929 . S
S265 N266 1.613 . S
S265 N267 1.610 . S
N266 S265 1.613 . S
N266 C269 1.350 . S
N267 S265 1.610 . S
N267 C268 1.351 . S
C268 C262 1.428 . S
C268 N267 1.351 . S
C268 C269 1.434 . S
C269 C260 1.429 . S
C269 N266 1.350 . S
C269 C268 1.434 . S
C139 N12 1.468 . S
C141 N81 1.467 . S
C150 C39 1.718 . S
C152 C108 1.713 . S
C161 N58 1.345 . S
C163 N127 1.344 . S
C172 C30 1.809 . S
C174 C99 1.812 . S
C183 N117 1.479 . S
C185 N48 1.473 . S
C194 N71 1.367 . S
C196 N2 1.364 . S
C205 C62 1.790 . S
C207 C7 1.856 . S
C216 C85 1.862 . S
C218 N25 1.766 . S
C227 C53 1.920 . S
C229 N104 1.906 . S
C238 C131 1.793 . S
C240 C76 1.856 . S
C249 N94 1.767 . S
C251 C16 1.868 . S
C260 C122 1.919 . S
C262 N35 1.905 . S
