# Generated by pormake.
# Topology vmc, (5)-cn, num edge types: 1
# Building blocks:
#     Node 0, Type 0, BuildingBlock: XOMCOT_clean_sbu_0, # of connection points: 5
#     Node 1, Type 0, BuildingBlock: XOMCOT_clean_sbu_0, # of connection points: 5
#     Node 2, Type 0, BuildingBlock: XOMCOT_clean_sbu_0, # of connection points: 5
#     Node 3, Type 0, BuildingBlock: XOMCOT_clean_sbu_0, # of connection points: 5
#     Node 4, Type 0, BuildingBlock: XOMCOT_clean_sbu_0, # of connection points: 5
#     Node 5, Type 0, BuildingBlock: XOMCOT_clean_sbu_0, # of connection points: 5
#     Node 6, Type 0, BuildingBlock: XOMCOT_clean_sbu_0, # of connection points: 5
#     Node 7, Type 0, BuildingBlock: XOMCOT_clean_sbu_0, # of connection points: 5
#     Edge 8, Type (0, 0), BuildingBlock: XUDNAN_clean_linker_2, # of connection points: 2
#     Edge 9, Type (0, 0), BuildingBlock: XUDNAN_clean_linker_2, # of connection points: 2
#     Edge 10, Type (0, 0), BuildingBlock: XUDNAN_clean_linker_2, # of connection points: 2
#     Edge 11, Type (0, 0), BuildingBlock: XUDNAN_clean_linker_2, # of connection points: 2
#     Edge 12, Type (0, 0), BuildingBlock: XUDNAN_clean_linker_2, # of connection points: 2
#     Edge 13, Type (0, 0), BuildingBlock: XUDNAN_clean_linker_2, # of connection points: 2
#     Edge 14, Type (0, 0), BuildingBlock: XUDNAN_clean_linker_2, # of connection points: 2
#     Edge 15, Type (0, 0), BuildingBlock: XUDNAN_clean_linker_2, # of connection points: 2
#     Edge 16, Type (0, 0), BuildingBlock: XUDNAN_clean_linker_2, # of connection points: 2
#     Edge 17, Type (0, 0), BuildingBlock: XUDNAN_clean_linker_2, # of connection points: 2
#     Edge 18, Type (0, 0), BuildingBlock: XUDNAN_clean_linker_2, # of connection points: 2
#     Edge 19, Type (0, 0), BuildingBlock: XUDNAN_clean_linker_2, # of connection points: 2
#     Edge 20, Type (0, 0), BuildingBlock: XUDNAN_clean_linker_2, # of connection points: 2
#     Edge 21, Type (0, 0), BuildingBlock: XUDNAN_clean_linker_2, # of connection points: 2
#     Edge 22, Type (0, 0), BuildingBlock: XUDNAN_clean_linker_2, # of connection points: 2
#     Edge 23, Type (0, 0), BuildingBlock: XUDNAN_clean_linker_2, # of connection points: 2
#     Edge 24, Type (0, 0), BuildingBlock: XUDNAN_clean_linker_2, # of connection points: 2
#     Edge 25, Type (0, 0), BuildingBlock: XUDNAN_clean_linker_2, # of connection points: 2
#     Edge 26, Type (0, 0), BuildingBlock: XUDNAN_clean_linker_2, # of connection points: 2
#     Edge 27, Type (0, 0), BuildingBlock: XUDNAN_clean_linker_2, # of connection points: 2
# Relax obj value: 0.325
# Max RMSD: 0.194
# Mean RMSD: 0.194
data_MOF--net-vmc--node1-XOMCOT_clean_sbu_0--edge1-XUDNAN_clean_linker_2
_symmetry_space_group_name_H-M    P1
_symmetry_Int_Tables_number       1
_symmetry_cell_setting            triclinic
loop_
_symmetry_equiv_pos_as_xyz
'x, y, z'
_cell_length_a     29.120369
_cell_length_b     48.466211
_cell_length_c     29.083057
_cell_angle_alpha  89.78585
_cell_angle_beta   89.056446
_cell_angle_gamma 89.792615
loop_
_atom_site_label
_atom_site_type_symbol
_atom_site_fract_x
_atom_site_fract_y
_atom_site_fract_z
_atom_type_partial_charge
Co0 Co 0.26819 0.45062 0.07806 0.0
C1 C 0.24551 0.48719 0.99868 0.0
C2 C 0.18512 0.47249 0.03393 0.0
C3 C 0.17189 0.4871 0.99545 0.0
N4 N 0.23134 0.47243 0.0359 0.0
N5 N 0.20995 0.49636 0.97342 0.0
H6 H 0.28106 0.49017 0.98873 0.0
H7 H 0.16262 0.4617 0.05781 0.0
C8 C 0.22215 0.45161 0.17247 0.0
O9 O 0.2413 0.42778 0.18221 0.0
N10 N 0.30613 0.42885 0.11874 0.0
C11 C 0.31805 0.40203 0.11512 0.0
C12 C 0.34921 0.39587 0.14887 0.0
C13 C 0.33132 0.43878 0.15344 0.0
N14 N 0.35737 0.41903 0.17304 0.0
C15 C 0.24142 0.40909 1.01626 0.0
C16 C 0.19723 0.37446 0.07801 0.0
C17 C 0.20929 0.36438 0.03432 0.0
C18 C 0.22964 0.38254 1.00258 0.0
C19 C 0.20881 0.40153 0.09 0.0
N20 N 0.23378 0.41778 0.06037 0.0
H21 H 0.2591 0.42225 0.99177 0.0
H22 H 0.1987 0.40863 0.12338 0.0
H23 H 0.3059 0.38799 0.08927 0.0
H24 H 0.33072 0.4602 0.16367 0.0
O25 O 0.31715 0.44736 0.03309 0.0
O26 O 0.3111 0.4809 0.08439 0.0
O27 O 0.22506 0.4616 0.13145 0.0
C28 C 0.33518 0.46893 0.05199 0.0
H29 H 0.13702 0.49035 0.98422 0.0
H30 H 0.36461 0.37587 0.15491 0.0
H31 H 0.17986 0.36135 0.10299 0.0
H32 H 0.23896 0.3758 0.96819 0.0
Co33 Co 0.69809 0.44509 0.4855 0.0
C34 C 0.73935 0.46705 0.57045 0.0
C35 C 0.76116 0.48978 0.51065 0.0
C36 C 0.77627 0.50332 0.54922 0.0
N37 N 0.738 0.46698 0.5239 0.0
N38 N 0.76251 0.48896 0.58672 0.0
H39 H 0.72065 0.45278 0.59229 0.0
H40 H 0.76432 0.49717 0.47562 0.0
C41 C 0.73388 0.44672 0.38716 0.0
O42 O 0.71267 0.42349 0.37864 0.0
N43 N 0.65617 0.42376 0.44856 0.0
C44 C 0.64688 0.39647 0.45044 0.0
C45 C 0.61068 0.39103 0.42185 0.0
C46 C 0.62482 0.43449 0.41982 0.0
N47 N 0.59685 0.41504 0.40309 0.0
C48 C 0.72522 0.39958 0.54099 0.0
C49 C 0.77374 0.37062 0.47449 0.0
C50 C 0.76211 0.35748 0.516 0.0
C51 C 0.73935 0.37266 0.55015 0.0
C52 C 0.76017 0.3981 0.4672 0.0
N53 N 0.7337 0.41174 0.4992 0.0
H54 H 0.70475 0.40984 0.5669 0.0
H55 H 0.76963 0.40757 0.4351 0.0
H56 H 0.66383 0.38158 0.4721 0.0
H57 H 0.62228 0.45621 0.41142 0.0
O58 O 0.65314 0.44253 0.53481 0.0
O59 O 0.6558 0.47594 0.48283 0.0
O60 O 0.73652 0.45572 0.42856 0.0
C61 C 0.63449 0.46458 0.51765 0.0
H62 H 0.79443 0.52277 0.54973 0.0
H63 H 0.59444 0.37123 0.41688 0.0
H64 H 0.79232 0.35961 0.44767 0.0
H65 H 0.72998 0.36323 0.5828 0.0
Co66 Co 0.69984 0.57169 0.98431 0.0
C67 C 0.7378 0.54628 0.06872 0.0
C68 C 0.79125 0.56284 0.02538 0.0
C69 C 0.81059 0.55297 0.06535 0.0
N70 N 0.74549 0.55873 0.02757 0.0
N71 N 0.77682 0.54248 0.09237 0.0
H72 H 0.70422 0.54096 0.08229 0.0
H73 H 0.8093 0.5729 0.99724 0.0
C74 C 0.74279 0.57561 0.88982 0.0
O75 O 0.72091 0.59901 0.88299 0.0
N76 N 0.65298 0.58451 0.94267 0.0
C77 C 0.62434 0.6062 0.9488 0.0
C78 C 0.59126 0.60555 0.91574 0.0
C79 C 0.63617 0.57063 0.90649 0.0
N80 N 0.59885 0.58323 0.88925 0.0
C81 C 0.6965 0.62465 0.02834 0.0
C82 C 0.75921 0.65079 0.97103 0.0
C83 C 0.7314 0.66682 1.00029 0.0
C84 C 0.70158 0.65331 0.03107 0.0
C85 C 0.7536 0.62216 0.97007 0.0
N86 N 0.71946 0.60974 0.99536 0.0
H87 H 0.67135 0.61486 0.05055 0.0
H88 H 0.77611 0.61041 0.94792 0.0
H89 H 0.62567 0.62094 0.97634 0.0
H90 H 0.6502 0.55132 0.89388 0.0
O91 O 0.65106 0.56812 0.03064 0.0
O92 O 0.67362 0.53553 0.98202 0.0
O93 O 0.74398 0.56505 0.93035 0.0
C94 C 0.64496 0.54349 1.01392 0.0
H95 H 0.8466 0.55355 0.07393 0.0
H96 H 0.56356 0.62027 0.91164 0.0
H97 H 0.78419 0.6604 0.94813 0.0
H98 H 0.6801 0.6649 0.0549 0.0
Co99 Co 0.27135 0.5661 0.57127 0.0
C100 C 0.21007 0.55132 0.49667 0.0
C101 C 0.20397 0.5227 0.55245 0.0
C102 C 0.18351 0.51148 0.51455 0.0
N103 N 0.22013 0.54801 0.54173 0.0
N104 N 0.1881 0.52928 0.47903 0.0
H105 H 0.22413 0.56769 0.47557 0.0
H106 H 0.21128 0.51163 0.58388 0.0
C107 C 0.20458 0.56095 0.65424 0.0
O108 O 0.17205 0.54852 0.63169 0.0
N109 N 0.32403 0.58345 0.59823 0.0
C110 C 0.35568 0.59886 0.57554 0.0
C111 C 0.39477 0.59997 0.60116 0.0
C112 C 0.34437 0.57547 0.63747 0.0
N113 N 0.38754 0.5852 0.63982 0.0
C114 C 0.26997 0.6113 0.50758 0.0
C115 C 0.21654 0.64672 0.56011 0.0
C116 C 0.2383 0.65706 0.5202 0.0
C117 C 0.2644 0.6386 0.49332 0.0
C118 C 0.22351 0.61923 0.57351 0.0
N119 N 0.25137 0.60209 0.54817 0.0
H120 H 0.29157 0.59795 0.48691 0.0
H121 H 0.2072 0.61231 0.60495 0.0
H122 H 0.35284 0.60643 0.54082 0.0
H123 H 0.32978 0.56056 0.66131 0.0
O124 O 0.31122 0.55382 0.52099 0.0
O125 O 0.29748 0.53081 0.58562 0.0
O126 O 0.23942 0.57115 0.63308 0.0
C127 C 0.32018 0.53259 0.54702 0.0
H128 H 0.17007 0.49075 0.51246 0.0
H129 H 0.42708 0.60929 0.59084 0.0
H130 H 0.19486 0.65982 0.58139 0.0
H131 H 0.28241 0.64534 0.46245 0.0
Co132 Co 0.75591 0.9608 0.06851 0.0
C133 C 0.71871 0.99073 0.98737 0.0
C134 C 0.66547 0.97587 0.03276 0.0
C135 C 0.64545 0.9875 0.99475 0.0
N136 N 0.71142 0.97808 0.02843 0.0
N137 N 0.67891 0.9968 0.96604 0.0
H138 H 0.75238 0.99482 0.9728 0.0
H139 H 0.64767 0.96537 0.06061 0.0
C140 C 0.7005 0.98552 0.14148 0.0
O141 O 0.70802 1.00874 0.11924 0.0
N142 N 0.80023 0.94303 0.1076 0.0
C143 C 0.82193 0.91897 0.09889 0.0
C144 C 0.85655 0.91562 0.12978 0.0
C145 C 0.82233 0.95417 0.14341 0.0
N146 N 0.85732 0.93793 0.15739 0.0
C147 C 0.74279 0.91657 1.00608 0.0
C148 C 0.70711 0.87929 0.06934 0.0
C149 C 0.71908 0.86983 0.02508 0.0
C150 C 0.73615 0.88918 0.99301 0.0
C151 C 0.71494 0.90681 0.08123 0.0
N152 N 0.73371 0.92484 0.05003 0.0
H153 H 0.75759 0.9309 0.9815 0.0
H154 H 0.70829 0.91307 0.11629 0.0
H155 H 0.81492 0.90536 0.07054 0.0
H156 H 0.8149 0.97454 0.15675 0.0
O157 O 0.80561 0.96627 1.02353 0.0
O158 O 0.78545 0.9955 0.07847 0.0
O159 O 0.71219 0.96268 0.12276 0.0
C160 C 0.81397 0.98905 0.04561 0.0
H161 H 0.60905 0.98778 0.9879 0.0
H162 H 0.88022 0.89839 0.13061 0.0
H163 H 0.69289 0.86545 0.09512 0.0
H164 H 0.74653 0.88311 0.95861 0.0
Co165 Co 0.20176 0.95342 0.47137 0.0
C166 C 0.22525 0.98188 0.55815 0.0
C167 C 0.28576 0.96794 0.52225 0.0
C168 C 0.29873 0.9804 0.5627 0.0
N169 N 0.23957 0.96885 0.51943 0.0
N170 N 0.26054 0.98926 0.58498 0.0
H171 H 0.18967 0.98565 0.56723 0.0
H172 H 0.3086 0.9589 0.49676 0.0
C173 C 0.25706 0.94939 0.38412 0.0
O174 O 0.24078 0.92451 0.37767 0.0
N175 N 0.1629 0.93802 0.42375 0.0
C176 C 0.15273 0.91129 0.41533 0.0
C177 C 0.12058 0.91013 0.38131 0.0
C178 C 0.13639 0.95259 0.39454 0.0
N179 N 0.11017 0.9361 0.36882 0.0
C180 C 0.19676 0.90059 0.5157 0.0
C181 C 0.27315 0.8775 0.47329 0.0
C182 C 0.24216 0.86021 0.49681 0.0
C183 C 0.20503 0.87229 0.52046 0.0
C184 C 0.26406 0.9058 0.47017 0.0
N185 N 0.22405 0.91656 0.48771 0.0
H186 H 0.16611 0.90904 0.53155 0.0
H187 H 0.28843 0.91857 0.45188 0.0
H188 H 0.16715 0.89354 0.43227 0.0
H189 H 0.13529 0.97486 0.39254 0.0
O190 O 0.147 0.95545 0.51068 0.0
O191 O 0.17172 0.98849 0.46395 0.0
O192 O 0.25152 0.96117 0.42324 0.0
C193 C 0.13985 0.97949 0.49182 0.0
H194 H 0.33351 0.98318 0.57437 0.0
H195 H 0.10456 0.8917 0.3682 0.0
H196 H 0.30328 0.86905 0.45603 0.0
H197 H 0.1806 0.85973 0.53957 0.0
Co198 Co 0.19004 0.07058 0.98341 0.0
C199 C 0.24667 0.05259 0.06151 0.0
C200 C 0.25457 0.02583 1.00352 0.0
C201 C 0.27498 0.01355 0.04076 0.0
N202 N 0.23729 0.05056 1.01619 0.0
N203 N 0.2696 0.03027 0.07741 0.0
H204 H 0.2325 0.06837 0.0837 0.0
H205 H 0.2488 0.01607 0.97077 0.0
C206 C 0.25657 0.05692 0.90176 0.0
O207 O 0.29467 0.05613 0.92525 0.0
N208 N 0.14202 0.08964 0.95137 0.0
C209 C 0.12195 0.11403 0.96159 0.0
C210 C 0.08481 0.11764 0.93338 0.0
C211 C 0.11679 0.07864 0.91784 0.0
N212 N 0.08155 0.0952 0.90638 0.0
C213 C 0.21815 0.11954 0.02969 0.0
C214 C 0.24274 0.14821 0.95095 0.0
C215 C 0.23324 0.16314 0.99125 0.0
C216 C 0.22336 0.14822 0.0316 0.0
C217 C 0.23651 0.11965 0.95033 0.0
N218 N 0.22223 0.1057 0.98893 0.0
H219 H 0.20552 0.10916 0.06013 0.0
H220 H 0.23854 0.10968 0.9174 0.0
H221 H 0.13218 0.12766 0.98886 0.0
H222 H 0.12335 0.05848 0.90318 0.0
O223 O 0.15202 0.07197 0.03853 0.0
O224 O 0.15132 0.03849 0.98695 0.0
O225 O 0.21796 0.06216 0.92123 0.0
C226 C 0.1331 0.04945 1.02368 0.0
H227 H 0.28971 0.99302 0.04148 0.0
H228 H 0.06077 0.13472 0.93423 0.0
H229 H 0.25162 0.15868 0.91909 0.0
H230 H 0.21546 0.15871 0.06358 0.0
Co231 Co 0.76447 0.06359 0.56853 0.0
C232 C 0.71567 0.04394 0.48575 0.0
C233 C 0.69015 0.02472 0.54734 0.0
C234 C 0.67072 0.01198 0.51036 0.0
N235 N 0.71788 0.04521 0.53227 0.0
N236 N 0.68719 0.02378 0.47146 0.0
H237 H 0.73766 0.05568 0.46272 0.0
H238 H 0.68712 0.01755 0.5824 0.0
C239 C 0.69086 0.05761 0.64326 0.0
O240 O 0.65999 0.06914 0.61682 0.0
N241 N 0.81148 0.0809 0.60399 0.0
C242 C 0.83608 0.10348 0.59267 0.0
C243 C 0.86769 0.10791 0.62649 0.0
C244 C 0.82855 0.07169 0.64388 0.0
N245 N 0.86291 0.08785 0.65856 0.0
C246 C 0.73401 0.11219 0.52166 0.0
C247 C 0.72562 0.14362 0.60041 0.0
C248 C 0.73123 0.15717 0.55804 0.0
C249 C 0.73267 0.14106 0.51803 0.0
C250 C 0.72802 0.11491 0.6026 0.0
N251 N 0.73431 0.09949 0.56369 0.0
H252 H 0.74022 0.10038 0.49084 0.0
H253 H 0.73086 0.10565 0.63619 0.0
H254 H 0.83176 0.11557 0.56171 0.0
H255 H 0.81625 0.05339 0.66148 0.0
O256 O 0.80459 0.06624 0.51534 0.0
O257 O 0.80265 0.03103 0.56424 0.0
O258 O 0.73182 0.05384 0.62823 0.0
C259 C 0.8221 0.04286 0.52871 0.0
H260 H 0.64826 0.99427 0.51217 0.0
H261 H 0.89313 0.12412 0.62666 0.0
H262 H 0.7235 0.15514 0.63222 0.0
H263 H 0.73709 0.15056 0.4845 0.0
H264 H 0.14896 0.53028 0.71293 0.0
H265 H 0.26419 0.58693 0.71157 0.0
H266 H 0.27523 0.57833 0.79416 0.0
H267 H 0.10576 0.54769 0.83045 0.0
H268 H 0.09035 0.51244 0.843 0.0
H269 H 0.08848 0.52515 0.78474 0.0
H270 H 0.1426 0.4855 0.75858 0.0
H271 H 0.14504 0.47283 0.81673 0.0
H272 H 0.19734 0.48121 0.78584 0.0
H273 H 0.27951 0.55975 0.87478 0.0
H274 H 0.27276 0.53504 0.94914 0.0
H275 H 0.15384 0.49131 0.89973 0.0
C276 C 0.17567 0.54151 0.73023 0.0
C277 C 0.20555 0.5594 0.70544 0.0
C278 C 0.24068 0.57319 0.72951 0.0
C279 C 0.24731 0.56842 0.77657 0.0
C280 C 0.21825 0.55002 0.79956 0.0
C281 C 0.18269 0.53706 0.77741 0.0
C282 C 0.15783 0.51719 0.8097 0.0
C283 C 0.10763 0.52616 0.81743 0.0
C284 C 0.16091 0.48743 0.79162 0.0
C285 C 0.18549 0.52063 0.85311 0.0
C286 C 0.22022 0.53966 0.84646 0.0
C287 C 0.252 0.54513 0.88059 0.0
C288 C 0.24811 0.53087 0.92261 0.0
C289 C 0.2126 0.51143 0.93045 0.0
C290 C 0.18076 0.50646 0.89515 0.0
H291 H 0.75295 0.5406 0.6218 0.0
H292 H 0.77943 0.45555 0.65928 0.0
H293 H 0.78454 0.46912 0.7412 0.0
H294 H 0.82566 0.57357 0.70595 0.0
H295 H 0.78535 0.60111 0.71737 0.0
H296 H 0.78732 0.58498 0.66164 0.0
H297 H 0.70048 0.57371 0.6689 0.0
H298 H 0.69822 0.58992 0.72448 0.0
H299 H 0.67955 0.55475 0.71835 0.0
H300 H 0.7849 0.49226 0.81966 0.0
H301 H 0.77316 0.52176 0.88805 0.0
H302 H 0.74354 0.59143 0.79901 0.0
C303 C 0.76061 0.52496 0.64722 0.0
C304 C 0.76651 0.49706 0.63423 0.0
C305 C 0.77503 0.47701 0.66861 0.0
C306 C 0.77819 0.48458 0.7151 0.0
C307 C 0.77217 0.51228 0.72681 0.0
C308 C 0.76301 0.5321 0.69384 0.0
C309 C 0.75438 0.56004 0.7157 0.0
C310 C 0.79033 0.58117 0.69917 0.0
C311 C 0.70525 0.57019 0.7063 0.0
C312 C 0.76031 0.55294 0.76608 0.0
C313 C 0.77099 0.52536 0.77182 0.0
C314 C 0.77674 0.51391 0.81547 0.0
C315 C 0.77025 0.53091 0.85419 0.0
C316 C 0.75771 0.55904 0.84916 0.0
C317 C 0.75358 0.57014 0.80428 0.0
H318 H 0.70402 0.44424 0.29933 0.0
H319 H 0.80019 0.48756 0.38526 0.0
H320 H 0.82472 0.51587 0.31781 0.0
H321 H 0.7718 0.44306 0.19445 0.0
H322 H 0.72288 0.44896 0.15849 0.0
H323 H 0.71572 0.43128 0.21271 0.0
H324 H 0.65392 0.467 0.23785 0.0
H325 H 0.6609 0.48482 0.18379 0.0
H326 H 0.66779 0.50322 0.23696 0.0
H327 H 0.83831 0.53933 0.23899 0.0
H328 H 0.8352 0.55798 0.15953 0.0
H329 H 0.72661 0.50046 0.12843 0.0
C330 C 0.73082 0.45936 0.304 0.0
C331 C 0.75083 0.46336 0.34744 0.0
C332 C 0.78473 0.48398 0.35221 0.0
C333 C 0.79886 0.50009 0.31407 0.0
C334 C 0.77821 0.49558 0.27167 0.0
C335 C 0.74455 0.47584 0.26676 0.0
C336 C 0.7255 0.47593 0.21863 0.0
C337 C 0.73454 0.44816 0.19466 0.0
C338 C 0.67398 0.48318 0.21938 0.0
C339 C 0.75373 0.49877 0.19685 0.0
C340 C 0.78437 0.50971 0.22766 0.0
C341 C 0.81434 0.5309 0.21477 0.0
C342 C 0.81253 0.54128 0.16952 0.0
C343 C 0.78053 0.53076 0.1379 0.0
C344 C 0.75105 0.50913 0.15197 0.0
H345 H 0.20498 0.43362 0.2599 0.0
H346 H 0.1993 0.50712 0.17459 0.0
H347 H 0.18213 0.53515 0.24404 0.0
H348 H 0.11564 0.45371 0.34536 0.0
H349 H 0.14711 0.43832 0.3918 0.0
H350 H 0.15188 0.42411 0.33474 0.0
H351 H 0.24036 0.42942 0.337 0.0
H352 H 0.23592 0.44384 0.39376 0.0
H353 H 0.26462 0.46283 0.34836 0.0
H354 H 0.17502 0.55563 0.32555 0.0
H355 H 0.1765 0.56601 0.40884 0.0
H356 H 0.18899 0.47856 0.4385 0.0
C357 C 0.19896 0.45552 0.25539 0.0
C358 C 0.20322 0.4681 0.21154 0.0
C359 C 0.19562 0.49691 0.20762 0.0
C360 C 0.18605 0.513 0.24699 0.0
C361 C 0.18384 0.49995 0.28995 0.0
C362 C 0.18964 0.47175 0.29408 0.0
C363 C 0.18942 0.46271 0.34397 0.0
C364 C 0.14857 0.44358 0.35458 0.0
C365 C 0.2353 0.4489 0.35648 0.0
C366 C 0.18356 0.49027 0.36763 0.0
C367 C 0.18005 0.51156 0.33611 0.0
C368 C 0.17715 0.539 0.35037 0.0
C369 C 0.17826 0.54473 0.39781 0.0
C370 C 0.18247 0.52318 0.43066 0.0
C371 C 0.18455 0.4956 0.41489 0.0
H372 H 0.74111 0.99779 0.89424 0.0
H373 H 0.6028 0.02284 0.93411 0.0
H374 H 0.59041 0.04066 0.85587 0.0
H375 H 0.76522 0.05718 0.82065 0.0
H376 H 0.79775 0.03725 0.7792 0.0
H377 H 0.79599 0.02678 0.8387 0.0
H378 H 0.76669 0.97855 0.81491 0.0
H379 H 0.76811 0.98897 0.7554 0.0
H380 H 0.71564 0.97597 0.78096 0.0
H381 H 0.5922 0.05493 0.7722 0.0
H382 H 0.60947 0.06597 0.69064 0.0
H383 H 0.7469 0.03247 0.70602 0.0
C384 C 0.70841 1.00734 0.88692 0.0
C385 C 0.67286 1.00865 0.92071 0.0
C386 C 0.63041 0.02108 0.90894 0.0
C387 C 0.62306 0.03145 0.86453 0.0
C388 C 0.65856 0.02947 0.83203 0.0
C389 C 0.70053 0.01792 0.84274 0.0
C390 C 0.7329 0.01817 0.80134 0.0
C391 C 0.77547 0.03591 0.81053 0.0
C392 C 0.74662 0.98866 0.78734 0.0
C393 C 0.70245 0.03151 0.76571 0.0
C394 C 0.65969 0.03787 0.78404 0.0
C395 C 0.62565 0.05013 0.75752 0.0
C396 C 0.63573 0.05625 0.71115 0.0
C397 C 0.67951 0.05015 0.69174 0.0
C398 C 0.71308 0.03749 0.71963 0.0
H399 H 0.31457 0.02457 0.84724 0.0
H400 H 0.19754 0.08019 0.84207 0.0
H401 H 0.18979 0.07097 0.75959 0.0
H402 H 0.36107 0.04072 0.73011 0.0
H403 H 0.37729 1.00543 0.71884 0.0
H404 H 0.37722 0.01837 0.77688 0.0
H405 H 0.32275 0.97887 0.80241 0.0
H406 H 0.32244 0.96592 0.74448 0.0
H407 H 0.26905 0.97439 0.77341 0.0
H408 H 0.18957 0.05336 0.68024 0.0
H409 H 0.19838 0.02875 0.60665 0.0
H410 H 0.31517 0.98387 0.66017 0.0
C411 C 0.28811 0.03526 0.82837 0.0
C412 C 0.25677 0.05319 0.85114 0.0
C413 C 0.22189 0.06633 0.8255 0.0
C414 C 0.21724 0.06131 0.77851 0.0
C415 C 0.24775 0.04306 0.75727 0.0
C416 C 0.2827 0.03029 0.78105 0.0
C417 C 0.30881 1.01028 0.74996 0.0
C418 C 0.35908 0.01924 0.74357 0.0
C419 C 0.30555 0.98061 0.76869 0.0
C420 C 0.28245 0.01352 0.70552 0.0
C421 C 0.24755 0.03269 0.71069 0.0
C422 C 0.21702 0.03847 0.67556 0.0
C423 C 0.22207 0.02424 0.63398 0.0
C424 C 0.25737 1.00438 0.62761 0.0
C425 C 0.28827 0.99921 0.66383 0.0
H426 H 0.26696 0.97911 0.11621 0.0
H427 H 0.288 0.06551 0.14715 0.0
H428 H 0.29588 0.05371 0.22965 0.0
H429 H 0.19778 0.96459 0.21257 0.0
H430 H 0.21989 0.93019 0.22095 0.0
H431 H 0.22068 0.94535 0.16441 0.0
H432 H 0.30852 0.93678 0.15789 0.0
H433 H 0.30798 0.92167 0.21461 0.0
H434 H 0.34559 0.95019 0.20148 0.0
H435 H 0.29565 0.03231 0.31006 0.0
H436 H 0.28359 1.00397 0.38017 0.0
H437 H 0.26361 0.93178 0.29502 0.0
C438 C 0.27448 0.99551 0.14002 0.0
C439 C 0.27744 0.02326 0.12502 0.0
C440 C 0.28565 0.04414 0.15783 0.0
C441 C 0.29042 0.03759 0.2047 0.0
C442 C 0.28689 1.01002 0.21831 0.0
C443 C 0.27904 0.98935 0.1868 0.0
C444 C 0.27305 0.96164 0.21033 0.0
C445 C 0.22501 0.94976 0.20155 0.0
C446 C 0.31106 0.94138 0.19517 0.0
C447 C 0.27823 0.96992 0.26011 0.0
C448 C 0.28656 0.99784 0.26417 0.0
C449 C 0.28971 1.01036 0.30717 0.0
C450 C 0.28299 0.99406 0.34687 0.0
C451 C 0.27301 0.96554 0.34334 0.0
C452 C 0.27183 0.95339 0.29921 0.0
H453 H 0.69763 0.05279 0.39124 0.0
H454 H 0.6657 0.97143 0.44566 0.0
H455 H 0.65915 0.95367 0.36704 0.0
H456 H 0.62212 0.04985 0.29234 0.0
H457 H 0.66211 0.06762 0.25479 0.0
H458 H 0.66153 0.07455 0.31563 0.0
H459 H 0.74818 0.06241 0.31924 0.0
H460 H 0.74903 0.05562 0.25843 0.0
H461 H 0.76798 0.02946 0.29809 0.0
H462 H 0.66184 0.94359 0.28205 0.0
H463 H 0.6732 0.94258 0.19753 0.0
H464 H 0.70163 0.03043 0.1982 0.0
C465 C 0.68904 0.03128 0.38667 0.0
C466 C 0.68179 0.0137 0.42504 0.0
C467 C 0.67054 0.98562 0.41725 0.0
C468 C 0.66695 0.97521 0.37252 0.0
C469 C 0.67446 0.99306 0.33559 0.0
C470 C 0.68514 0.02053 0.34215 0.0
C471 C 0.69321 0.03508 0.29652 0.0
C472 C 0.65761 0.05814 0.28941 0.0
C473 C 0.74252 0.04629 0.29287 0.0
C474 C 0.686 0.01143 0.26343 0.0
C475 C 0.67517 0.98735 0.2866 0.0
C476 C 0.66968 0.96242 0.26346 0.0
C477 C 0.67611 0.96203 0.21545 0.0
C478 C 0.68764 0.98645 0.19105 0.0
C479 C 0.69185 0.01148 0.21556 0.0
H480 H 0.38052 0.51669 0.0752 0.0
H481 H 0.39864 0.43784 1.00667 0.0
H482 H 0.48119 0.44702 0.99689 0.0
H483 H 0.46077 0.55373 1.00069 0.0
H484 H 0.48154 0.57531 0.04615 0.0
H485 H 0.42376 0.56222 0.04894 0.0
H486 H 0.44028 0.54087 0.12889 0.0
H487 H 0.49843 0.55343 0.12587 0.0
H488 H 0.48772 0.5172 0.13495 0.0
H489 H 0.56103 0.46342 0.99607 0.0
H490 H 0.63309 0.48966 0.99268 0.0
H491 H 0.56479 0.55926 0.05836 0.0
C492 C 0.40191 0.50152 0.05785 0.0
C493 C 0.38322 0.47654 0.04173 0.0
C494 C 0.41213 0.45719 1.01904 0.0
C495 C 0.45918 0.46207 1.01371 0.0
C496 C 0.47674 0.48655 0.0308 0.0
C497 C 0.44906 0.50627 0.0515 0.0
C498 C 0.47676 0.53148 0.06433 0.0
C499 C 0.4597 0.55721 0.03848 0.0
C500 C 0.47572 0.536 0.11663 0.0
C501 C 0.52421 0.52275 0.04751 0.0
C502 C 0.52329 0.49654 0.02901 0.0
C503 C 0.56229 0.48399 1.01034 0.0
C504 C 0.6031 0.49904 1.00874 0.0
C505 C 0.60451 0.52646 0.02531 0.0
C506 C 0.56484 0.5382 0.04608 0.0
H507 H 0.58234 0.5063 0.48109 0.0
H508 H 0.57921 0.44011 0.58218 0.0
H509 H 0.49626 0.4478 0.59458 0.0
H510 H 0.50145 0.55087 0.5415 0.0
H511 H 0.47511 0.56326 0.48969 0.0
H512 H 0.53446 0.55268 0.48863 0.0
H513 H 0.51784 0.5178 0.42325 0.0
H514 H 0.45858 0.52869 0.42406 0.0
H515 H 0.47276 0.49278 0.43166 0.0
H516 H 0.41381 0.46082 0.59352 0.0
H517 H 0.33852 0.48394 0.58943 0.0
H518 H 0.39468 0.54258 0.49051 0.0
C519 C 0.56436 0.49375 0.50641 0.0
C520 C 0.58721 0.47261 0.53071 0.0
C521 C 0.56244 0.4565 0.56331 0.0
C522 C 0.51524 0.46052 0.57029 0.0
C523 C 0.49343 0.48082 0.54458 0.0
C524 C 0.5172 0.49758 0.51402 0.0
C525 C 0.48554 0.51846 0.49186 0.0
C526 C 0.49998 0.54807 0.50364 0.0
C527 C 0.48361 0.51418 0.43959 0.0
C528 C 0.44031 0.51086 0.51498 0.0
C529 C 0.44564 0.48878 0.54465 0.0
C530 C 0.40915 0.47817 0.5705 0.0
C531 C 0.36646 0.49131 0.56766 0.0
C532 C 0.36077 0.51492 0.53947 0.0
C533 C 0.39782 0.52425 0.51167 0.0
H534 H 0.08224 1.00586 0.99348 0.0
H535 H 0.07842 0.07524 0.08753 0.0
H536 H -0.00476 0.06835 0.09971 0.0
H537 H 0.97788 0.01945 0.93982 0.0
H538 H 0.96063 0.98393 0.93478 0.0
H539 H 0.0207 0.99256 0.9361 0.0
H540 H 0.03207 0.95971 1.00583 0.0
H541 H 0.97223 0.95057 1.00387 0.0
H542 H -0.0041 0.96365 0.05632 0.0
H543 H 0.91211 0.05739 0.09519 0.0
H544 H 0.83529 0.03741 0.08659 0.0
H545 H 0.89241 0.97397 0.99716 0.0
C546 C 0.06419 0.0191 1.0177 0.0
C547 C 0.08686 0.04106 0.0397 0.0
C548 C 0.0619 0.05815 0.07063 0.0
C549 C 0.01454 0.05457 0.0774 0.0
C550 C -0.00713 0.03366 0.05333 0.0
C551 C 0.01694 0.01573 0.02504 0.0
C552 C -0.01487 0.99507 1.00302 0.0
C553 C -0.01382 0.99794 0.95031 0.0
C554 C -0.00296 0.9655 1.01818 0.0
C555 C 0.93931 1.00437 1.02308 0.0
C556 C 0.94467 0.02688 0.05152 0.0
C557 C 0.90752 0.03956 0.07348 0.0
C558 C 0.86394 0.02814 0.06803 0.0
C559 C 0.85783 1.00409 0.04124 0.0
C560 C 0.89591 0.9925 1.01748 0.0
H561 H 0.87458 0.99957 0.55944 0.0
H562 H 0.87231 0.06591 0.45871 0.0
H563 H 0.95365 0.05685 0.43938 0.0
H564 H -0.01677 0.01258 0.60172 0.0
H565 H 0.00038 0.97705 0.60862 0.0
H566 H 0.94048 0.98632 0.61165 0.0
H567 H 0.92234 0.9518 0.54662 0.0
H568 H -0.01798 0.94186 0.5442 0.0
H569 H 0.95404 0.95374 0.49293 0.0
H570 H 0.03649 0.04461 0.43747 0.0
H571 H 0.1141 0.02501 0.4438 0.0
H572 H 0.06339 0.96532 0.54401 0.0
C573 C 0.89081 0.01164 0.53236 0.0
C574 C 0.86707 0.03342 0.51049 0.0
C575 C 0.88972 0.04904 0.47575 0.0
C576 C 0.93601 0.04416 0.46471 0.0
C577 C 0.95899 0.02341 0.48838 0.0
C578 C 0.93703 1.00695 0.52071 0.0
C579 C 0.9702 0.98649 0.54187 0.0
C580 C 0.97377 0.99089 0.59405 0.0
C581 C 0.95633 0.95671 0.53072 0.0
C582 C 0.01438 0.99445 0.51704 0.0
C583 C 0.00703 0.01591 0.48657 0.0
C584 C 0.04261 0.02757 0.46074 0.0
C585 C 0.08671 0.01642 0.46496 0.0
C586 C 0.09487 0.99363 0.49445 0.0
C587 C 0.05825 0.98279 0.52132 0.0
H588 H 0.23497 0.31904 0.08465 0.0
H589 H 0.17291 0.34318 0.95597 0.0
H590 H 0.1722 0.2944 0.93155 0.0
H591 H 0.30926 0.26817 0.03752 0.0
H592 H 0.30386 0.24446 0.08518 0.0
H593 H 0.2964 0.28093 0.09446 0.0
H594 H 0.2159 0.27231 0.13079 0.0
H595 H 0.22331 0.23576 0.12212 0.0
H596 H 0.17396 0.25321 0.09907 0.0
H597 H 0.18089 0.24365 0.9198 0.0
H598 H 0.19564 0.19375 0.92201 0.0
H599 H 0.25503 0.20203 0.05735 0.0
C600 C 0.22024 0.31393 0.05182 0.0
C601 C 0.20362 0.33485 1.02229 0.0
C602 C 0.18574 0.32747 0.97907 0.0
C603 C 0.18521 0.29984 0.96495 0.0
C604 C 0.20285 0.27981 0.99436 0.0
C605 C 0.21981 0.28642 0.03699 0.0
C606 C 0.23836 0.26097 0.06112 0.0
C607 C 0.29004 0.26381 0.07008 0.0
C608 C 0.21126 0.25523 0.10593 0.0
C609 C 0.22935 0.23907 0.02526 0.0
C610 C 0.20879 0.25045 0.98712 0.0
C611 C 0.19716 0.23451 0.94941 0.0
C612 C 0.20628 0.20613 0.95082 0.0
C613 C 0.22725 0.19377 0.98956 0.0
C614 C 0.23896 0.21068 0.02722 0.0
H615 H 0.72715 0.31425 0.46772 0.0
H616 H 0.81287 0.33398 0.58336 0.0
H617 H 0.81705 0.28448 0.60399 0.0
H618 H 0.66073 0.26448 0.52551 0.0
H619 H 0.65504 0.24152 0.47733 0.0
H620 H 0.66346 0.27787 0.46761 0.0
H621 H 0.73502 0.26754 0.41643 0.0
H622 H 0.72651 0.23109 0.4255 0.0
H623 H 0.78082 0.2466 0.43891 0.0
H624 H 0.80753 0.234 0.61537 0.0
H625 H 0.78653 0.18498 0.61667 0.0
H626 H 0.70345 0.19722 0.4955 0.0
C627 C 0.74797 0.30791 0.49645 0.0
C628 C 0.77056 0.3277 0.52352 0.0
C629 C 0.79604 0.31897 0.56193 0.0
C630 C 0.79846 0.29097 0.57389 0.0
C631 C 0.77487 0.272 0.54727 0.0
C632 C 0.75026 0.27999 0.50921 0.0
C633 C 0.72537 0.25558 0.48861 0.0
C634 C 0.67305 0.26015 0.48986 0.0
C635 C 0.743 0.24986 0.43944 0.0
C636 C 0.73937 0.23272 0.52141 0.0
C637 C 0.76815 0.24273 0.55474 0.0
C638 C 0.785 0.22592 0.58947 0.0
C639 C 0.77231 0.1981 0.5902 0.0
C640 C 0.74256 0.18718 0.55668 0.0
C641 C 0.72619 0.20484 0.52162 0.0
H642 H 0.73233 0.82447 0.08173 0.0
H643 H 0.69959 0.84676 0.94104 0.0
H644 H 0.70191 0.7977 0.91966 0.0
H645 H 0.80786 0.76888 0.05714 0.0
H646 H 0.78762 0.74731 0.10378 0.0
H647 H 0.78389 0.78429 0.10855 0.0
H648 H 0.69637 0.78096 0.12489 0.0
H649 H 0.69989 0.74393 0.1207 0.0
H650 H 0.66058 0.76286 0.08507 0.0
H651 H 0.71168 0.74646 0.91234 0.0
H652 H 0.71955 0.69597 0.92151 0.0
H653 H 0.7392 0.70629 0.06792 0.0
C654 C 0.72473 0.81919 0.04656 0.0
C655 C 0.71631 0.83987 1.01305 0.0
C656 C 0.70731 0.83164 0.96729 0.0
C657 C 0.70824 0.80371 0.95478 0.0
C658 C 0.71745 0.78406 0.98847 0.0
C659 C 0.72472 0.79135 0.03359 0.0
C660 C 0.73285 0.76604 0.06331 0.0
C661 C 0.78092 0.76668 0.08443 0.0
C662 C 0.69517 0.76329 0.1007 0.0
C663 C 0.72934 0.74339 0.02773 0.0
C664 C 0.72098 0.75431 0.98467 0.0
C665 C 0.71785 0.73766 0.94594 0.0
C666 C 0.72271 0.70905 0.95141 0.0
C667 C 0.73005 0.6973 0.99536 0.0
C668 C 0.73341 0.71476 0.03398 0.0
H669 H 0.23691 0.82057 0.56517 0.0
H670 H 0.25294 0.83121 0.41763 0.0
H671 H 0.251 0.78068 0.40747 0.0
H672 H 0.30945 0.75925 0.57248 0.0
H673 H 0.27452 0.74337 0.61687 0.0
H674 H 0.27716 0.78041 0.61242 0.0
H675 H 0.18847 0.78245 0.60713 0.0
H676 H 0.18563 0.74538 0.61096 0.0
H677 H 0.16021 0.7631 0.56303 0.0
H678 H 0.24243 0.72939 0.41275 0.0
H679 H 0.23774 0.68022 0.43347 0.0
H680 H 0.23355 0.70222 0.57828 0.0
C681 C 0.24033 0.81218 0.53082 0.0
C682 C 0.24529 0.82976 0.49216 0.0
C683 C 0.24976 0.81808 0.44773 0.0
C684 C 0.24829 0.78943 0.44159 0.0
C685 C 0.24282 0.77267 0.48028 0.0
C686 C 0.23972 0.78352 0.52411 0.0
C687 C 0.23543 0.76076 0.55987 0.0
C688 C 0.2766 0.76096 0.59232 0.0
C689 C 0.18971 0.76307 0.58683 0.0
C690 C 0.23624 0.73548 0.52922 0.0
C691 C 0.23996 0.74289 0.48343 0.0
C692 C 0.24028 0.7233 0.44856 0.0
C693 C 0.23788 0.69532 0.46079 0.0
C694 C 0.23599 0.68699 0.50763 0.0
C695 C 0.23455 0.7076 0.54214 0.0
H696 H 0.56867 0.38264 0.33335 0.0
H697 H 0.5377 0.45794 0.40772 0.0
H698 H 0.47138 0.46656 0.3575 0.0
H699 H 0.54185 0.40964 0.22182 0.0
H700 H 0.51764 0.37788 0.20136 0.0
H701 H 0.56148 0.37703 0.2443 0.0
H702 H 0.50776 0.3487 0.29833 0.0
H703 H 0.46372 0.34948 0.25555 0.0
H704 H 0.45143 0.36195 0.31277 0.0
H705 H 0.40825 0.46659 0.30058 0.0
H706 H 0.3547 0.45978 0.23726 0.0
H707 H 0.42925 0.38571 0.19661 0.0
C708 C 0.54753 0.40075 0.3392 0.0
C709 C 0.55797 0.41962 0.3743 0.0
C710 C 0.53025 0.4434 0.3807 0.0
C711 C 0.49248 0.44835 0.35262 0.0
C712 C 0.48317 0.42942 0.31816 0.0
C713 C 0.51003 0.40621 0.31104 0.0
C714 C 0.49362 0.38982 0.27026 0.0
C715 C 0.53086 0.38853 0.23219 0.0
C716 C 0.47821 0.36077 0.28514 0.0
C717 C 0.45319 0.40738 0.25579 0.0
C718 C 0.44763 0.43 0.28409 0.0
C719 C 0.41248 0.44909 0.27788 0.0
C720 C 0.38239 0.44512 0.24146 0.0
C721 C 0.38784 0.42236 0.21126 0.0
C722 C 0.42372 0.40321 0.21897 0.0
H723 H 0.381 0.58838 0.73208 0.0
H724 H 0.47139 0.56484 0.6193 0.0
H725 H 0.53364 0.55501 0.674 0.0
H726 H 0.46194 0.62539 0.79054 0.0
H727 H 0.44255 0.61602 0.84765 0.0
H728 H 0.4028 0.61604 0.80103 0.0
H729 H 0.38243 0.56503 0.81846 0.0
H730 H 0.42215 0.56484 0.86538 0.0
H731 H 0.42758 0.53952 0.82037 0.0
H732 H 0.58797 0.55278 0.7394 0.0
H733 H 0.63188 0.56109 0.81016 0.0
H734 H 0.50703 0.5879 0.88004 0.0
C735 C 0.4136 0.58042 0.71941 0.0
C736 C 0.42182 0.57716 0.67194 0.0
C737 C 0.46496 0.56744 0.65579 0.0
C738 C 0.5002 0.56162 0.68656 0.0
C739 C 0.49159 0.56575 0.73328 0.0
C740 C 0.44936 0.57498 0.74969 0.0
C741 C 0.45074 0.581 0.80065 0.0
C742 C 0.43883 0.61141 0.81051 0.0
C743 C 0.41883 0.56142 0.82781 0.0
C744 C 0.50072 0.57478 0.80987 0.0
C745 C 0.52343 0.56533 0.77088 0.0
C746 C 0.57046 0.55974 0.77037 0.0
C747 C 0.59508 0.56444 0.8106 0.0
C748 C 0.57267 0.57511 0.85026 0.0
C749 C 0.52484 0.57978 0.85003 0.0
H750 H 0.09113 0.91452 0.28633 0.0
H751 H 0.04631 0.97549 0.38591 0.0
H752 H 0.9776 0.98548 0.33936 0.0
H753 H 0.0497 0.95276 0.18343 0.0
H754 H 0.03392 0.92127 0.15507 0.0
H755 H 0.08137 0.92141 0.19408 0.0
H756 H 0.04291 0.88193 0.2411 0.0
H757 H -0.00483 0.8819 0.20267 0.0
H758 H -0.01469 0.88661 0.26349 0.0
H759 H 0.90928 0.98423 0.28622 0.0
H760 H 0.85016 0.97432 0.22858 0.0
H761 H 0.94333 0.9161 0.16217 0.0
C762 C 0.06716 0.93031 0.29766 0.0
C763 C 0.07366 0.94432 0.3393 0.0
C764 C 0.04189 0.96486 0.3536 0.0
C765 C 0.00283 0.97056 0.32753 0.0
C766 C -0.00319 0.95588 0.28693 0.0
C767 C 0.02862 0.93656 0.27167 0.0
C768 C 0.01361 0.92292 0.22786 0.0
C769 C 0.04661 0.93002 0.18774 0.0
C770 C 0.00896 0.89149 0.2342 0.0
C771 C 0.96739 0.93659 0.22195 0.0
C772 C 0.9583 0.9557 0.25602 0.0
C773 C 0.91641 0.96968 0.25885 0.0
C774 C 0.88303 0.96392 0.22593 0.0
C775 C 0.89178 0.94433 0.19074 0.0
C776 C 0.93489 0.93088 0.18875 0.0
H777 H 0.03744 0.13138 0.8514 0.0
H778 H 0.04537 0.04496 0.88956 0.0
H779 H -0.01377 0.03391 0.83265 0.0
H780 H 0.91358 0.13329 0.83068 0.0
H781 H 0.91966 0.1564 0.78229 0.0
H782 H 0.96016 0.15768 0.82841 0.0
H783 H 0.02716 0.15037 0.76984 0.0
H784 H -0.01309 0.14897 0.72362 0.0
H785 H 0.02651 0.12084 0.73235 0.0
H786 H 0.92935 0.03206 0.76915 0.0
H787 H 0.8799 0.03925 0.70221 0.0
H788 H 0.90863 0.12705 0.70584 0.0
C789 C 0.02613 0.11024 0.84816 0.0
C790 C 0.04589 0.08901 0.87461 0.0
C791 C 0.03096 0.06145 0.86908 0.0
C792 C -0.0028 0.05503 0.83716 0.0
C793 C 0.97884 0.07641 0.8111 0.0
C794 C -0.00727 0.10346 0.81624 0.0
C795 C 0.96929 0.12236 0.78234 0.0
C796 C 0.93886 0.14369 0.80744 0.0
C797 C 0.00458 0.13645 0.75014 0.0
C798 C 0.94067 0.10163 0.75683 0.0
C799 C 0.94628 0.0753 0.77425 0.0
C800 C 0.92432 0.05262 0.75545 0.0
C801 C 0.89611 0.05695 0.71754 0.0
C802 C 0.89031 0.08374 0.69873 0.0
C803 C 0.91267 0.10631 0.71909 0.0
loop_
_geom_bond_atom_site_label_1
_geom_bond_atom_site_label_2
_geom_bond_distance
_geom_bond_site_symmetry_2
_ccdc_geom_bond_type
Co0 N4 2.148 . S
Co0 N10 2.128 . S
Co0 N20 2.194 . S
Co0 O25 2.351 . S
Co0 O26 2.155 . S
Co0 O27 2.096 . S
C1 N4 1.301 1_556 S
C1 N5 1.328 . S
C1 H6 0.930 . S
C2 C3 1.333 1_554 S
C2 N4 1.317 . S
C2 H7 0.930 . S
C3 C2 1.333 1_556 S
C3 N5 1.350 . S
C3 H29 0.931 . S
N4 Co0 2.148 . S
N4 C1 1.301 1_554 S
N4 C2 1.317 . S
N5 C1 1.328 . S
N5 C3 1.350 . S
H6 C1 0.930 . S
H7 C2 0.930 . S
C8 O9 1.224 . S
C8 O27 1.247 . S
O9 C8 1.224 . S
N10 Co0 2.128 . S
N10 C11 1.355 . S
N10 C13 1.311 . S
C11 N10 1.355 . S
C11 C12 1.363 . S
C11 H23 0.929 . S
C12 C11 1.363 . S
C12 N14 1.375 . S
C12 H30 0.931 . S
C13 N10 1.311 . S
C13 N14 1.347 . S
C13 H24 0.929 . S
N14 C12 1.375 . S
N14 C13 1.347 . S
C15 C18 1.365 . S
C15 N20 1.328 . S
C15 H21 0.929 1_554 S
C16 C17 1.362 . S
C16 C19 1.378 . S
C16 H31 0.929 . S
C17 C16 1.362 . S
C17 C18 1.366 . S
C18 C15 1.365 . S
C18 C17 1.366 . S
C18 H32 0.930 1_554 S
C19 C16 1.378 . S
C19 N20 1.315 . S
C19 H22 0.930 . S
N20 Co0 2.194 . S
N20 C15 1.328 . S
N20 C19 1.315 . S
H21 C15 0.929 1_556 S
H22 C19 0.930 . S
H23 C11 0.929 . S
H24 C13 0.929 . S
O25 Co0 2.351 . S
O25 C28 1.244 . S
O26 Co0 2.155 . S
O26 C28 1.240 . S
O27 Co0 2.096 . S
O27 C8 1.247 . S
C28 O25 1.244 . S
C28 O26 1.240 . S
H29 C3 0.931 . S
H30 C12 0.931 . S
H31 C16 0.929 . S
H32 C18 0.930 1_556 S
Co33 N37 2.148 . S
Co33 N43 2.128 . S
Co33 N53 2.194 . S
Co33 O58 2.351 . S
Co33 O59 2.155 . S
Co33 O60 2.096 . S
C34 N37 1.301 . S
C34 N38 1.328 . S
C34 H39 0.930 . S
C35 C36 1.333 . S
C35 N37 1.317 . S
C35 H40 0.930 . S
C36 C35 1.333 . S
C36 N38 1.350 . S
C36 H62 0.931 . S
N37 Co33 2.148 . S
N37 C34 1.301 . S
N37 C35 1.317 . S
N38 C34 1.328 . S
N38 C36 1.350 . S
H39 C34 0.930 . S
H40 C35 0.930 . S
C41 O42 1.224 . S
C41 O60 1.247 . S
O42 C41 1.224 . S
N43 Co33 2.128 . S
N43 C44 1.355 . S
N43 C46 1.311 . S
C44 N43 1.355 . S
C44 C45 1.363 . S
C44 H56 0.929 . S
C45 C44 1.363 . S
C45 N47 1.375 . S
C45 H63 0.931 . S
C46 N43 1.311 . S
C46 N47 1.347 . S
C46 H57 0.929 . S
N47 C45 1.375 . S
N47 C46 1.347 . S
C48 C51 1.365 . S
C48 N53 1.328 . S
C48 H54 0.929 . S
C49 C50 1.362 . S
C49 C52 1.378 . S
C49 H64 0.929 . S
C50 C49 1.362 . S
C50 C51 1.366 . S
C51 C48 1.365 . S
C51 C50 1.366 . S
C51 H65 0.930 . S
C52 C49 1.378 . S
C52 N53 1.315 . S
C52 H55 0.930 . S
N53 Co33 2.194 . S
N53 C48 1.328 . S
N53 C52 1.315 . S
H54 C48 0.929 . S
H55 C52 0.930 . S
H56 C44 0.929 . S
H57 C46 0.929 . S
O58 Co33 2.351 . S
O58 C61 1.244 . S
O59 Co33 2.155 . S
O59 C61 1.240 . S
O60 Co33 2.096 . S
O60 C41 1.247 . S
C61 O58 1.244 . S
C61 O59 1.240 . S
H62 C36 0.931 . S
H63 C45 0.931 . S
H64 C49 0.929 . S
H65 C51 0.930 . S
Co66 N70 2.148 . S
Co66 N76 2.128 . S
Co66 N86 2.194 . S
Co66 O91 2.351 . S
Co66 O92 2.155 . S
Co66 O93 2.096 . S
C67 N70 1.301 1_554 S
C67 N71 1.328 . S
C67 H72 0.930 . S
C68 C69 1.333 1_556 S
C68 N70 1.317 . S
C68 H73 0.930 . S
C69 C68 1.333 1_554 S
C69 N71 1.350 . S
C69 H95 0.931 . S
N70 Co66 2.148 . S
N70 C67 1.301 1_556 S
N70 C68 1.317 . S
N71 C67 1.328 . S
N71 C69 1.350 . S
H72 C67 0.930 . S
H73 C68 0.930 . S
C74 O75 1.224 . S
C74 O93 1.247 . S
O75 C74 1.224 . S
N76 Co66 2.128 . S
N76 C77 1.355 . S
N76 C79 1.311 . S
C77 N76 1.355 . S
C77 C78 1.363 . S
C77 H89 0.929 . S
C78 C77 1.363 . S
C78 N80 1.375 . S
C78 H96 0.931 . S
C79 N76 1.311 . S
C79 N80 1.347 . S
C79 H90 0.929 . S
N80 C78 1.375 . S
N80 C79 1.347 . S
C81 C84 1.365 . S
C81 N86 1.328 . S
C81 H87 0.929 1_556 S
C82 C83 1.362 . S
C82 C85 1.378 . S
C82 H97 0.929 . S
C83 C82 1.362 . S
C83 C84 1.366 . S
C84 C81 1.365 . S
C84 C83 1.366 . S
C84 H98 0.930 1_556 S
C85 C82 1.378 . S
C85 N86 1.315 . S
C85 H88 0.930 . S
N86 Co66 2.194 . S
N86 C81 1.328 . S
N86 C85 1.315 . S
H87 C81 0.929 1_554 S
H88 C85 0.930 . S
H89 C77 0.929 . S
H90 C79 0.929 . S
O91 Co66 2.351 . S
O91 C94 1.244 . S
O92 Co66 2.155 . S
O92 C94 1.240 . S
O93 Co66 2.096 . S
O93 C74 1.247 . S
C94 O91 1.244 . S
C94 O92 1.240 . S
H95 C69 0.931 . S
H96 C78 0.931 . S
H97 C82 0.929 . S
H98 C84 0.930 1_554 S
Co99 N103 2.148 . S
Co99 N109 2.128 . S
Co99 N119 2.194 . S
Co99 O124 2.351 . S
Co99 O125 2.155 . S
Co99 O126 2.096 . S
C100 N103 1.301 . S
C100 N104 1.328 . S
C100 H105 0.930 . S
C101 C102 1.333 . S
C101 N103 1.317 . S
C101 H106 0.930 . S
C102 C101 1.333 . S
C102 N104 1.350 . S
C102 H128 0.931 . S
N103 Co99 2.148 . S
N103 C100 1.301 . S
N103 C101 1.317 . S
N104 C100 1.328 . S
N104 C102 1.350 . S
H105 C100 0.930 . S
H106 C101 0.930 . S
C107 O108 1.224 . S
C107 O126 1.247 . S
O108 C107 1.224 . S
N109 Co99 2.128 . S
N109 C110 1.355 . S
N109 C112 1.311 . S
C110 N109 1.355 . S
C110 C111 1.363 . S
C110 H122 0.929 . S
C111 C110 1.363 . S
C111 N113 1.375 . S
C111 H129 0.931 . S
C112 N109 1.311 . S
C112 N113 1.347 . S
C112 H123 0.929 . S
N113 C111 1.375 . S
N113 C112 1.347 . S
C114 C117 1.365 . S
C114 N119 1.328 . S
C114 H120 0.929 . S
C115 C116 1.362 . S
C115 C118 1.378 . S
C115 H130 0.929 . S
C116 C115 1.362 . S
C116 C117 1.366 . S
C117 C114 1.365 . S
C117 C116 1.366 . S
C117 H131 0.930 . S
C118 C115 1.378 . S
C118 N119 1.315 . S
C118 H121 0.930 . S
N119 Co99 2.194 . S
N119 C114 1.328 . S
N119 C118 1.315 . S
H120 C114 0.929 . S
H121 C118 0.930 . S
H122 C110 0.929 . S
H123 C112 0.929 . S
O124 Co99 2.351 . S
O124 C127 1.244 . S
O125 Co99 2.155 . S
O125 C127 1.240 . S
O126 Co99 2.096 . S
O126 C107 1.247 . S
C127 O124 1.244 . S
C127 O125 1.240 . S
H128 C102 0.931 . S
H129 C111 0.931 . S
H130 C115 0.929 . S
H131 C117 0.930 . S
Co132 N136 2.148 . S
Co132 N142 2.128 . S
Co132 N152 2.194 . S
Co132 O157 2.351 . S
Co132 O158 2.155 . S
Co132 O159 2.096 . S
C133 N136 1.301 1_556 S
C133 N137 1.328 . S
C133 H138 0.930 . S
C134 C135 1.333 1_554 S
C134 N136 1.317 . S
C134 H139 0.930 . S
C135 C134 1.333 1_556 S
C135 N137 1.350 . S
C135 H161 0.931 . S
N136 Co132 2.148 . S
N136 C133 1.301 1_554 S
N136 C134 1.317 . S
N137 C133 1.328 . S
N137 C135 1.350 . S
H138 C133 0.930 . S
H139 C134 0.930 . S
C140 O141 1.224 . S
C140 O159 1.247 . S
O141 C140 1.224 . S
N142 Co132 2.128 . S
N142 C143 1.355 . S
N142 C145 1.311 . S
C143 N142 1.355 . S
C143 C144 1.363 . S
C143 H155 0.929 . S
C144 C143 1.363 . S
C144 N146 1.375 . S
C144 H162 0.931 . S
C145 N142 1.311 . S
C145 N146 1.347 . S
C145 H156 0.929 . S
N146 C144 1.375 . S
N146 C145 1.347 . S
C147 C150 1.365 . S
C147 N152 1.328 . S
C147 H153 0.929 1_554 S
C148 C149 1.362 . S
C148 C151 1.378 . S
C148 H163 0.929 . S
C149 C148 1.362 . S
C149 C150 1.366 . S
C150 C147 1.365 . S
C150 C149 1.366 . S
C150 H164 0.930 1_554 S
C151 C148 1.378 . S
C151 N152 1.315 . S
C151 H154 0.930 . S
N152 Co132 2.194 . S
N152 C147 1.328 . S
N152 C151 1.315 . S
H153 C147 0.929 1_556 S
H154 C151 0.930 . S
H155 C143 0.929 . S
H156 C145 0.929 . S
O157 Co132 2.351 . S
O157 C160 1.244 . S
O158 Co132 2.155 . S
O158 C160 1.240 . S
O159 Co132 2.096 . S
O159 C140 1.247 . S
C160 O157 1.244 . S
C160 O158 1.240 . S
H161 C135 0.931 . S
H162 C144 0.931 . S
H163 C148 0.929 . S
H164 C150 0.930 1_556 S
Co165 N169 2.148 . S
Co165 N175 2.128 . S
Co165 N185 2.194 . S
Co165 O190 2.351 . S
Co165 O191 2.155 . S
Co165 O192 2.096 . S
C166 N169 1.301 . S
C166 N170 1.328 . S
C166 H171 0.930 . S
C167 C168 1.333 . S
C167 N169 1.317 . S
C167 H172 0.930 . S
C168 C167 1.333 . S
C168 N170 1.350 . S
C168 H194 0.931 . S
N169 Co165 2.148 . S
N169 C166 1.301 . S
N169 C167 1.317 . S
N170 C166 1.328 . S
N170 C168 1.350 . S
H171 C166 0.930 . S
H172 C167 0.930 . S
C173 O174 1.224 . S
C173 O192 1.247 . S
O174 C173 1.224 . S
N175 Co165 2.128 . S
N175 C176 1.355 . S
N175 C178 1.311 . S
C176 N175 1.355 . S
C176 C177 1.363 . S
C176 H188 0.929 . S
C177 C176 1.363 . S
C177 N179 1.375 . S
C177 H195 0.931 . S
C178 N175 1.311 . S
C178 N179 1.347 . S
C178 H189 0.929 . S
N179 C177 1.375 . S
N179 C178 1.347 . S
C180 C183 1.365 . S
C180 N185 1.328 . S
C180 H186 0.929 . S
C181 C182 1.362 . S
C181 C184 1.378 . S
C181 H196 0.929 . S
C182 C181 1.362 . S
C182 C183 1.366 . S
C183 C180 1.365 . S
C183 C182 1.366 . S
C183 H197 0.930 . S
C184 C181 1.378 . S
C184 N185 1.315 . S
C184 H187 0.930 . S
N185 Co165 2.194 . S
N185 C180 1.328 . S
N185 C184 1.315 . S
H186 C180 0.929 . S
H187 C184 0.930 . S
H188 C176 0.929 . S
H189 C178 0.929 . S
O190 Co165 2.351 . S
O190 C193 1.244 . S
O191 Co165 2.155 . S
O191 C193 1.240 . S
O192 Co165 2.096 . S
O192 C173 1.247 . S
C193 O190 1.244 . S
C193 O191 1.240 . S
H194 C168 0.931 . S
H195 C177 0.931 . S
H196 C181 0.929 . S
H197 C183 0.930 . S
Co198 N202 2.148 . S
Co198 N208 2.128 . S
Co198 N218 2.194 . S
Co198 O223 2.351 . S
Co198 O224 2.155 . S
Co198 O225 2.096 . S
C199 N202 1.301 1_554 S
C199 N203 1.328 . S
C199 H204 0.930 . S
C200 C201 1.333 1_556 S
C200 N202 1.317 . S
C200 H205 0.930 . S
C201 C200 1.333 1_554 S
C201 N203 1.350 . S
C201 H227 0.931 . S
N202 Co198 2.148 . S
N202 C199 1.301 1_556 S
N202 C200 1.317 . S
N203 C199 1.328 . S
N203 C201 1.350 . S
H204 C199 0.930 . S
H205 C200 0.930 . S
C206 O207 1.224 . S
C206 O225 1.247 . S
O207 C206 1.224 . S
N208 Co198 2.128 . S
N208 C209 1.355 . S
N208 C211 1.311 . S
C209 N208 1.355 . S
C209 C210 1.363 . S
C209 H221 0.929 . S
C210 C209 1.363 . S
C210 N212 1.375 . S
C210 H228 0.931 . S
C211 N208 1.311 . S
C211 N212 1.347 . S
C211 H222 0.929 . S
N212 C210 1.375 . S
N212 C211 1.347 . S
C213 C216 1.365 . S
C213 N218 1.328 . S
C213 H219 0.929 1_556 S
C214 C215 1.362 . S
C214 C217 1.378 . S
C214 H229 0.929 . S
C215 C214 1.362 . S
C215 C216 1.366 . S
C216 C213 1.365 . S
C216 C215 1.366 . S
C216 H230 0.930 1_556 S
C217 C214 1.378 . S
C217 N218 1.315 . S
C217 H220 0.930 . S
N218 Co198 2.194 . S
N218 C213 1.328 . S
N218 C217 1.315 . S
H219 C213 0.929 1_554 S
H220 C217 0.930 . S
H221 C209 0.929 . S
H222 C211 0.929 . S
O223 Co198 2.351 . S
O223 C226 1.244 . S
O224 Co198 2.155 . S
O224 C226 1.240 . S
O225 Co198 2.096 . S
O225 C206 1.247 . S
C226 O223 1.244 . S
C226 O224 1.240 . S
H227 C201 0.931 . S
H228 C210 0.931 . S
H229 C214 0.929 . S
H230 C216 0.930 1_554 S
Co231 N235 2.148 . S
Co231 N241 2.128 . S
Co231 N251 2.194 . S
Co231 O256 2.351 . S
Co231 O257 2.155 . S
Co231 O258 2.096 . S
C232 N235 1.301 . S
C232 N236 1.328 . S
C232 H237 0.930 . S
C233 C234 1.333 . S
C233 N235 1.317 . S
C233 H238 0.930 . S
C234 C233 1.333 . S
C234 N236 1.350 . S
C234 H260 0.931 . S
N235 Co231 2.148 . S
N235 C232 1.301 . S
N235 C233 1.317 . S
N236 C232 1.328 . S
N236 C234 1.350 . S
H237 C232 0.930 . S
H238 C233 0.930 . S
C239 O240 1.224 . S
C239 O258 1.247 . S
O240 C239 1.224 . S
N241 Co231 2.128 . S
N241 C242 1.355 . S
N241 C244 1.311 . S
C242 N241 1.355 . S
C242 C243 1.363 . S
C242 H254 0.929 . S
C243 C242 1.363 . S
C243 N245 1.375 . S
C243 H261 0.931 . S
C244 N241 1.311 . S
C244 N245 1.347 . S
C244 H255 0.929 . S
N245 C243 1.375 . S
N245 C244 1.347 . S
C246 C249 1.365 . S
C246 N251 1.328 . S
C246 H252 0.929 . S
C247 C248 1.362 . S
C247 C250 1.378 . S
C247 H262 0.929 . S
C248 C247 1.362 . S
C248 C249 1.366 . S
C249 C246 1.365 . S
C249 C248 1.366 . S
C249 H263 0.930 . S
C250 C247 1.378 . S
C250 N251 1.315 . S
C250 H253 0.930 . S
N251 Co231 2.194 . S
N251 C246 1.328 . S
N251 C250 1.315 . S
H252 C246 0.929 . S
H253 C250 0.930 . S
H254 C242 0.929 . S
H255 C244 0.929 . S
O256 Co231 2.351 . S
O256 C259 1.244 . S
O257 Co231 2.155 . S
O257 C259 1.240 . S
O258 Co231 2.096 . S
O258 C239 1.247 . S
C259 O256 1.244 . S
C259 O257 1.240 . S
H260 C234 0.931 . S
H261 C243 0.931 . S
H262 C247 0.929 . S
H263 C249 0.930 . S
H264 C276 0.930 . S
H265 C278 0.930 . S
H266 C279 0.930 . S
H267 C283 0.959 . S
H268 C283 0.959 . S
H269 C283 0.961 . S
H270 C284 0.960 . S
H271 C284 0.961 . S
H272 C284 0.959 . S
H273 C287 0.929 . S
H274 C288 0.931 . S
H275 C290 0.930 . S
C276 H264 0.930 . S
C276 C277 1.399 . S
C276 C281 1.399 . S
C277 C276 1.399 . S
C277 C278 1.376 . S
C278 H265 0.930 . S
C278 C277 1.376 . S
C278 C279 1.388 . S
C279 H266 0.930 . S
C279 C278 1.388 . S
C279 C280 1.390 . S
C280 C279 1.390 . S
C280 C281 1.394 . S
C280 C286 1.465 . S
C281 C276 1.399 . S
C281 C280 1.394 . S
C281 C282 1.516 . S
C282 C281 1.516 . S
C282 C283 1.502 . S
C282 C284 1.561 . S
C282 C285 1.526 . S
C283 H267 0.959 . S
C283 H268 0.959 . S
C283 H269 0.961 . S
C283 C282 1.502 . S
C284 H270 0.960 . S
C284 H271 0.961 . S
C284 H272 0.959 . S
C284 C282 1.561 . S
C285 C282 1.526 . S
C285 C286 1.396 . S
C285 C290 1.390 . S
C286 C280 1.465 . S
C286 C285 1.396 . S
C286 C287 1.399 . S
C287 H273 0.929 . S
C287 C286 1.399 . S
C287 C288 1.385 . S
C288 H274 0.931 . S
C288 C287 1.385 . S
C288 C289 1.389 . S
C289 C288 1.389 . S
C289 C290 1.387 . S
C290 H275 0.930 . S
C290 C285 1.390 . S
C290 C289 1.387 . S
H291 C303 0.930 . S
H292 C305 0.930 . S
H293 C306 0.930 . S
H294 C310 0.959 . S
H295 C310 0.959 . S
H296 C310 0.961 . S
H297 C311 0.960 . S
H298 C311 0.961 . S
H299 C311 0.959 . S
H300 C314 0.929 . S
H301 C315 0.931 . S
H302 C317 0.930 . S
C303 H291 0.930 . S
C303 C304 1.399 . S
C303 C308 1.399 . S
C304 C303 1.399 . S
C304 C305 1.376 . S
C305 H292 0.930 . S
C305 C304 1.376 . S
C305 C306 1.388 . S
C306 H293 0.930 . S
C306 C305 1.388 . S
C306 C307 1.390 . S
C307 C306 1.390 . S
C307 C308 1.394 . S
C307 C313 1.465 . S
C308 C303 1.399 . S
C308 C307 1.394 . S
C308 C309 1.516 . S
C309 C308 1.516 . S
C309 C310 1.502 . S
C309 C311 1.561 . S
C309 C312 1.526 . S
C310 H294 0.959 . S
C310 H295 0.959 . S
C310 H296 0.961 . S
C310 C309 1.502 . S
C311 H297 0.960 . S
C311 H298 0.961 . S
C311 H299 0.959 . S
C311 C309 1.561 . S
C312 C309 1.526 . S
C312 C313 1.396 . S
C312 C317 1.390 . S
C313 C307 1.465 . S
C313 C312 1.396 . S
C313 C314 1.399 . S
C314 H300 0.929 . S
C314 C313 1.399 . S
C314 C315 1.385 . S
C315 H301 0.931 . S
C315 C314 1.385 . S
C315 C316 1.389 . S
C316 C315 1.389 . S
C316 C317 1.387 . S
C317 H302 0.930 . S
C317 C312 1.390 . S
C317 C316 1.387 . S
H318 C330 0.930 . S
H319 C332 0.930 . S
H320 C333 0.930 . S
H321 C337 0.959 . S
H322 C337 0.959 . S
H323 C337 0.961 . S
H324 C338 0.960 . S
H325 C338 0.961 . S
H326 C338 0.959 . S
H327 C341 0.929 . S
H328 C342 0.931 . S
H329 C344 0.930 . S
C330 H318 0.930 . S
C330 C331 1.399 . S
C330 C335 1.399 . S
C331 C330 1.399 . S
C331 C332 1.376 . S
C332 H319 0.930 . S
C332 C331 1.376 . S
C332 C333 1.388 . S
C333 H320 0.930 . S
C333 C332 1.388 . S
C333 C334 1.390 . S
C334 C333 1.390 . S
C334 C335 1.394 . S
C334 C340 1.465 . S
C335 C330 1.399 . S
C335 C334 1.394 . S
C335 C336 1.516 . S
C336 C335 1.516 . S
C336 C337 1.502 . S
C336 C338 1.561 . S
C336 C339 1.526 . S
C337 H321 0.959 . S
C337 H322 0.959 . S
C337 H323 0.961 . S
C337 C336 1.502 . S
C338 H324 0.960 . S
C338 H325 0.961 . S
C338 H326 0.959 . S
C338 C336 1.561 . S
C339 C336 1.526 . S
C339 C340 1.396 . S
C339 C344 1.390 . S
C340 C334 1.465 . S
C340 C339 1.396 . S
C340 C341 1.399 . S
C341 H327 0.929 . S
C341 C340 1.399 . S
C341 C342 1.385 . S
C342 H328 0.931 . S
C342 C341 1.385 . S
C342 C343 1.389 . S
C343 C342 1.389 . S
C343 C344 1.387 . S
C344 H329 0.930 . S
C344 C339 1.390 . S
C344 C343 1.387 . S
H345 C357 0.930 . S
H346 C359 0.930 . S
H347 C360 0.930 . S
H348 C364 0.959 . S
H349 C364 0.959 . S
H350 C364 0.961 . S
H351 C365 0.960 . S
H352 C365 0.961 . S
H353 C365 0.959 . S
H354 C368 0.929 . S
H355 C369 0.931 . S
H356 C371 0.930 . S
C357 H345 0.930 . S
C357 C358 1.399 . S
C357 C362 1.399 . S
C358 C357 1.399 . S
C358 C359 1.376 . S
C359 H346 0.930 . S
C359 C358 1.376 . S
C359 C360 1.388 . S
C360 H347 0.930 . S
C360 C359 1.388 . S
C360 C361 1.390 . S
C361 C360 1.390 . S
C361 C362 1.394 . S
C361 C367 1.465 . S
C362 C357 1.399 . S
C362 C361 1.394 . S
C362 C363 1.516 . S
C363 C362 1.516 . S
C363 C364 1.502 . S
C363 C365 1.561 . S
C363 C366 1.526 . S
C364 H348 0.959 . S
C364 H349 0.959 . S
C364 H350 0.961 . S
C364 C363 1.502 . S
C365 H351 0.960 . S
C365 H352 0.961 . S
C365 H353 0.959 . S
C365 C363 1.561 . S
C366 C363 1.526 . S
C366 C367 1.396 . S
C366 C371 1.390 . S
C367 C361 1.465 . S
C367 C366 1.396 . S
C367 C368 1.399 . S
C368 H354 0.929 . S
C368 C367 1.399 . S
C368 C369 1.385 . S
C369 H355 0.931 . S
C369 C368 1.385 . S
C369 C370 1.389 . S
C370 C369 1.389 . S
C370 C371 1.387 . S
C371 H356 0.930 . S
C371 C366 1.390 . S
C371 C370 1.387 . S
H372 C384 0.930 . S
H373 C386 0.930 . S
H374 C387 0.930 . S
H375 C391 0.959 . S
H376 C391 0.959 . S
H377 C391 0.961 . S
H378 C392 0.960 . S
H379 C392 0.961 . S
H380 C392 0.959 . S
H381 C395 0.929 . S
H382 C396 0.931 . S
H383 C398 0.930 1_565 S
C384 H372 0.930 . S
C384 C385 1.399 . S
C384 C389 1.399 . S
C385 C384 1.399 . S
C385 C386 1.376 1_565 S
C386 H373 0.930 . S
C386 C385 1.376 1_545 S
C386 C387 1.388 . S
C387 H374 0.930 . S
C387 C386 1.388 . S
C387 C388 1.390 . S
C388 C387 1.390 . S
C388 C389 1.394 1_545 S
C388 C394 1.465 . S
C389 C384 1.399 . S
C389 C388 1.394 1_565 S
C389 C390 1.516 . S
C390 C389 1.516 . S
C390 C391 1.502 . S
C390 C392 1.561 . S
C390 C393 1.554 . S
C391 H375 0.959 . S
C391 H376 0.959 . S
C391 H377 0.961 . S
C391 C390 1.502 . S
C392 H378 0.960 . S
C392 H379 0.961 . S
C392 H380 0.959 . S
C392 C390 1.561 . S
C393 C390 1.554 . S
C393 C394 1.373 1_565 S
C393 C398 1.384 1_565 S
C394 C388 1.465 . S
C394 C393 1.373 1_545 S
C394 C395 1.399 . S
C395 H381 0.929 . S
C395 C394 1.399 . S
C395 C396 1.385 . S
C396 H382 0.931 . S
C396 C395 1.385 . S
C396 C397 1.389 . S
C397 C396 1.389 . S
C397 C398 1.387 . S
C398 H383 0.930 1_545 S
C398 C393 1.384 1_545 S
C398 C397 1.387 . S
H399 C411 0.930 1_565 S
H400 C413 0.930 . S
H401 C414 0.930 . S
H402 C418 0.959 . S
H403 C418 0.959 . S
H404 C418 0.961 . S
H405 C419 0.960 . S
H406 C419 0.961 . S
H407 C419 0.959 . S
H408 C422 0.929 . S
H409 C423 0.931 . S
H410 C425 0.930 . S
C411 H399 0.930 1_545 S
C411 C412 1.399 . S
C411 C416 1.399 1_545 S
C412 C411 1.399 . S
C412 C413 1.376 . S
C413 H400 0.930 . S
C413 C412 1.376 . S
C413 C414 1.388 . S
C414 H401 0.930 . S
C414 C413 1.388 . S
C414 C415 1.390 . S
C415 C414 1.390 . S
C415 C416 1.394 1_545 S
C415 C421 1.465 . S
C416 C411 1.399 1_565 S
C416 C415 1.394 1_565 S
C416 C417 1.516 . S
C417 C416 1.516 . S
C417 C418 1.502 . S
C417 C419 1.561 . S
C417 C420 1.526 . S
C418 H402 0.959 . S
C418 H403 0.959 . S
C418 H404 0.961 . S
C418 C417 1.502 . S
C419 H405 0.960 . S
C419 H406 0.961 . S
C419 H407 0.959 . S
C419 C417 1.561 . S
C420 C417 1.526 . S
C420 C421 1.396 1_565 S
C420 C425 1.390 . S
C421 C415 1.465 . S
C421 C420 1.396 1_545 S
C421 C422 1.399 . S
C422 H408 0.929 . S
C422 C421 1.399 . S
C422 C423 1.385 . S
C423 H409 0.931 . S
C423 C422 1.385 . S
C423 C424 1.389 1_545 S
C424 C423 1.389 1_565 S
C424 C425 1.387 . S
C425 H410 0.930 . S
C425 C420 1.390 . S
C425 C424 1.387 . S
H426 C438 0.939 . S
H427 C440 0.930 . S
H428 C441 0.930 . S
H429 C445 0.959 . S
H430 C445 0.959 . S
H431 C445 0.961 . S
H432 C446 0.960 . S
H433 C446 0.961 . S
H434 C446 0.959 . S
H435 C449 0.929 . S
H436 C450 0.917 1_545 S
H437 C452 0.930 . S
C438 H426 0.939 . S
C438 C439 1.387 1_565 S
C438 C443 1.402 . S
C439 C438 1.387 1_545 S
C439 C440 1.376 . S
C440 H427 0.930 . S
C440 C439 1.376 . S
C440 C441 1.388 . S
C441 H428 0.930 . S
C441 C440 1.388 . S
C441 C442 1.390 . S
C442 C441 1.390 . S
C442 C443 1.394 1_545 S
C442 C448 1.465 . S
C443 C438 1.402 . S
C443 C442 1.394 1_565 S
C443 C444 1.516 . S
C444 C443 1.516 . S
C444 C445 1.502 . S
C444 C446 1.561 . S
C444 C447 1.526 . S
C445 H429 0.959 . S
C445 H430 0.959 . S
C445 H431 0.961 . S
C445 C444 1.502 . S
C446 H432 0.960 . S
C446 H433 0.961 . S
C446 H434 0.959 . S
C446 C444 1.561 . S
C447 C444 1.526 . S
C447 C448 1.396 1_565 S
C447 C452 1.390 . S
C448 C442 1.465 . S
C448 C447 1.396 1_545 S
C448 C449 1.399 . S
C449 H435 0.929 . S
C449 C448 1.399 . S
C449 C450 1.367 1_545 S
C450 H436 0.917 1_565 S
C450 C449 1.367 1_565 S
C450 C451 1.422 . S
C451 C450 1.422 . S
C451 C452 1.387 . S
C452 H437 0.930 . S
C452 C447 1.390 . S
C452 C451 1.387 . S
H453 C465 0.930 . S
H454 C467 0.930 . S
H455 C468 0.930 . S
H456 C472 0.959 . S
H457 C472 0.959 . S
H458 C472 0.961 . S
H459 C473 0.960 . S
H460 C473 0.961 . S
H461 C473 0.959 . S
H462 C476 0.929 . S
H463 C477 0.931 . S
H464 C479 0.930 1_545 S
C465 H453 0.930 . S
C465 C466 1.399 . S
C465 C470 1.399 . S
C466 C465 1.399 . S
C466 C467 1.376 1_545 S
C467 H454 0.930 . S
C467 C466 1.376 1_565 S
C467 C468 1.388 . S
C468 H455 0.930 . S
C468 C467 1.388 . S
C468 C469 1.390 . S
C469 C468 1.390 . S
C469 C470 1.394 1_565 S
C469 C475 1.465 . S
C470 C465 1.399 . S
C470 C469 1.394 1_545 S
C470 C471 1.516 . S
C471 C470 1.516 . S
C471 C472 1.502 . S
C471 C473 1.561 . S
C471 C474 1.543 . S
C472 H456 0.959 . S
C472 H457 0.959 . S
C472 H458 0.961 . S
C472 C471 1.502 . S
C473 H459 0.960 . S
C473 H460 0.961 . S
C473 H461 0.959 . S
C473 C471 1.561 . S
C474 C471 1.543 . S
C474 C475 1.382 1_545 S
C474 C479 1.385 1_545 S
C475 C469 1.465 . S
C475 C474 1.382 1_565 S
C475 C476 1.399 . S
C476 H462 0.929 . S
C476 C475 1.399 . S
C476 C477 1.385 . S
C477 H463 0.931 . S
C477 C476 1.385 . S
C477 C478 1.389 . S
C478 C477 1.389 . S
C478 C479 1.387 . S
C479 H464 0.930 1_565 S
C479 C474 1.385 1_565 S
C479 C478 1.387 . S
H480 C492 0.930 . S
H481 C494 0.930 . S
H482 C495 0.930 . S
H483 C499 0.959 1_556 S
H484 C499 0.959 . S
H485 C499 0.961 . S
H486 C500 0.960 . S
H487 C500 0.961 . S
H488 C500 0.959 . S
H489 C503 0.929 . S
H490 C504 0.931 . S
H491 C506 0.930 . S
C492 H480 0.930 . S
C492 C493 1.399 . S
C492 C497 1.399 . S
C493 C492 1.399 . S
C493 C494 1.376 1_554 S
C494 H481 0.930 . S
C494 C493 1.376 1_556 S
C494 C495 1.388 . S
C495 H482 0.930 . S
C495 C494 1.388 . S
C495 C496 1.390 . S
C496 C495 1.390 . S
C496 C497 1.394 1_556 S
C496 C502 1.465 . S
C497 C492 1.399 . S
C497 C496 1.394 1_554 S
C497 C498 1.516 . S
C498 C497 1.516 . S
C498 C499 1.502 . S
C498 C500 1.561 . S
C498 C501 1.526 . S
C499 H483 0.959 1_554 S
C499 H484 0.959 . S
C499 H485 0.961 . S
C499 C498 1.502 . S
C500 H486 0.960 . S
C500 H487 0.961 . S
C500 H488 0.959 . S
C500 C498 1.561 . S
C501 C498 1.526 . S
C501 C502 1.396 1_554 S
C501 C506 1.390 . S
C502 C496 1.465 . S
C502 C501 1.396 1_556 S
C502 C503 1.399 . S
C503 H489 0.929 . S
C503 C502 1.399 . S
C503 C504 1.385 . S
C504 H490 0.931 . S
C504 C503 1.385 . S
C504 C505 1.389 . S
C505 C504 1.389 . S
C505 C506 1.387 1_556 S
C506 H491 0.930 . S
C506 C501 1.390 . S
C506 C505 1.387 1_554 S
H507 C519 0.930 . S
H508 C521 0.930 . S
H509 C522 0.930 . S
H510 C526 0.959 . S
H511 C526 0.959 . S
H512 C526 0.961 . S
H513 C527 0.960 . S
H514 C527 0.961 . S
H515 C527 0.959 . S
H516 C530 0.929 . S
H517 C531 0.931 . S
H518 C533 0.930 . S
C519 H507 0.930 . S
C519 C520 1.399 . S
C519 C524 1.399 . S
C520 C519 1.399 . S
C520 C521 1.376 . S
C521 H508 0.930 . S
C521 C520 1.376 . S
C521 C522 1.388 . S
C522 H509 0.930 . S
C522 C521 1.388 . S
C522 C523 1.390 . S
C523 C522 1.390 . S
C523 C524 1.394 . S
C523 C529 1.465 . S
C524 C519 1.399 . S
C524 C523 1.394 . S
C524 C525 1.516 . S
C525 C524 1.516 . S
C525 C526 1.502 . S
C525 C527 1.561 . S
C525 C528 1.526 . S
C526 H510 0.959 . S
C526 H511 0.959 . S
C526 H512 0.961 . S
C526 C525 1.502 . S
C527 H513 0.960 . S
C527 H514 0.961 . S
C527 H515 0.959 . S
C527 C525 1.561 . S
C528 C525 1.526 . S
C528 C529 1.396 . S
C528 C533 1.390 . S
C529 C523 1.465 . S
C529 C528 1.396 . S
C529 C530 1.399 . S
C530 H516 0.929 . S
C530 C529 1.399 . S
C530 C531 1.385 . S
C531 H517 0.931 . S
C531 C530 1.385 . S
C531 C532 1.389 . S
C532 C531 1.389 . S
C532 C533 1.387 . S
C533 H518 0.930 . S
C533 C528 1.390 . S
C533 C532 1.387 . S
H534 C546 0.930 . S
H535 C548 0.930 . S
H536 C549 0.930 . S
H537 C553 0.959 1_655 S
H538 C553 0.959 1_655 S
H539 C553 0.961 . S
H540 C554 0.960 . S
H541 C554 0.961 . S
H542 C554 0.959 1_554 S
H543 C557 0.929 . S
H544 C558 0.931 . S
H545 C560 0.930 . S
C546 H534 0.930 . S
C546 C547 1.392 1_556 S
C546 C551 1.399 . S
C547 C546 1.392 1_554 S
C547 C548 1.387 . S
C548 H535 0.930 . S
C548 C547 1.387 . S
C548 C549 1.388 . S
C549 H536 0.930 . S
C549 C548 1.388 . S
C549 C550 1.390 . S
C550 C549 1.390 . S
C550 C551 1.394 1_554 S
C550 C556 1.451 1_445 S
C551 C546 1.399 . S
C551 C550 1.394 1_556 S
C551 C552 1.516 1_545 S
C552 C551 1.516 1_565 S
C552 C553 1.502 . S
C552 C554 1.561 . S
C552 C555 1.526 1_455 S
C553 H537 0.959 1_455 S
C553 H538 0.959 1_455 S
C553 H539 0.961 . S
C553 C552 1.502 . S
C554 H540 0.960 . S
C554 H541 0.961 . S
C554 H542 0.959 1_556 S
C554 C552 1.561 . S
C555 C552 1.526 1_655 S
C555 C556 1.417 1_556 S
C555 C560 1.390 . S
C556 C550 1.451 1_665 S
C556 C555 1.417 1_554 S
C556 C557 1.395 1_565 S
C557 H543 0.929 . S
C557 C556 1.395 1_545 S
C557 C558 1.385 1_545 S
C558 H544 0.931 . S
C558 C557 1.385 1_565 S
C558 C559 1.389 . S
C559 C558 1.389 . S
C559 C560 1.387 1_554 S
C560 H545 0.930 . S
C560 C555 1.390 . S
C560 C559 1.387 1_556 S
H561 C573 0.930 . S
H562 C575 0.930 . S
H563 C576 0.930 . S
H564 C580 0.959 . S
H565 C580 0.959 . S
H566 C580 0.961 . S
H567 C581 0.959 1_655 S
H568 C581 0.961 1_565 S
H569 C581 0.960 1_665 S
H570 C584 0.929 . S
H571 C585 0.931 . S
H572 C587 0.930 . S
C573 H561 0.930 . S
C573 C574 1.399 . S
C573 C578 1.399 . S
C574 C573 1.399 . S
C574 C575 1.376 . S
C575 H562 0.930 . S
C575 C574 1.376 . S
C575 C576 1.388 1_545 S
C576 H563 0.930 . S
C576 C575 1.388 1_565 S
C576 C577 1.390 . S
C577 C576 1.390 . S
C577 C578 1.394 1_565 S
C577 C583 1.465 1_655 S
C578 C573 1.399 . S
C578 C577 1.394 1_545 S
C578 C579 1.516 1_655 S
C579 C578 1.516 1_455 S
C579 C580 1.502 . S
C579 C581 1.561 . S
C579 C582 1.526 1_545 S
C580 H564 0.959 . S
C580 H565 0.959 . S
C580 H566 0.961 . S
C580 C579 1.502 . S
C581 H567 0.959 1_455 S
C581 H568 0.961 1_545 S
C581 H569 0.960 1_445 S
C581 C579 1.561 . S
C582 C579 1.526 1_565 S
C582 C583 1.396 . S
C582 C587 1.390 . S
C583 C577 1.465 1_455 S
C583 C582 1.396 . S
C583 C584 1.399 . S
C584 H570 0.929 . S
C584 C583 1.399 . S
C584 C585 1.385 . S
C585 H571 0.931 . S
C585 C584 1.385 . S
C585 C586 1.389 . S
C586 C585 1.389 . S
C586 C587 1.387 . S
C587 H572 0.930 . S
C587 C582 1.390 . S
C587 C586 1.387 . S
H588 C600 0.930 . S
H589 C602 0.930 . S
H590 C603 0.930 . S
H591 C607 0.959 . S
H592 C607 0.959 . S
H593 C607 0.961 . S
H594 C608 0.960 . S
H595 C608 0.961 . S
H596 C608 0.959 . S
H597 C611 0.929 . S
H598 C612 0.931 . S
H599 C614 0.930 . S
C600 H588 0.930 . S
C600 C601 1.399 . S
C600 C605 1.399 . S
C601 C600 1.399 . S
C601 C602 1.376 1_554 S
C602 H589 0.930 . S
C602 C601 1.376 1_556 S
C602 C603 1.388 . S
C603 H590 0.930 . S
C603 C602 1.388 . S
C603 C604 1.390 . S
C604 C603 1.390 . S
C604 C605 1.394 1_556 S
C604 C610 1.465 . S
C605 C600 1.399 . S
C605 C604 1.394 1_554 S
C605 C606 1.516 . S
C606 C605 1.516 . S
C606 C607 1.502 . S
C606 C608 1.561 . S
C606 C609 1.526 . S
C607 H591 0.959 . S
C607 H592 0.959 . S
C607 H593 0.961 . S
C607 C606 1.502 . S
C608 H594 0.960 . S
C608 H595 0.961 . S
C608 H596 0.959 . S
C608 C606 1.561 . S
C609 C606 1.526 . S
C609 C610 1.396 1_554 S
C609 C614 1.390 . S
C610 C604 1.465 . S
C610 C609 1.396 1_556 S
C610 C611 1.399 . S
C611 H597 0.929 . S
C611 C610 1.399 . S
C611 C612 1.385 . S
C612 H598 0.931 . S
C612 C611 1.385 . S
C612 C613 1.389 . S
C613 C612 1.389 . S
C613 C614 1.387 1_556 S
C614 H599 0.930 . S
C614 C609 1.390 . S
C614 C613 1.387 1_554 S
H615 C627 0.930 . S
H616 C629 0.930 . S
H617 C630 0.930 . S
H618 C634 0.959 . S
H619 C634 0.959 . S
H620 C634 0.961 . S
H621 C635 0.960 . S
H622 C635 0.961 . S
H623 C635 0.959 . S
H624 C638 0.929 . S
H625 C639 0.931 . S
H626 C641 0.930 . S
C627 H615 0.930 . S
C627 C628 1.399 . S
C627 C632 1.399 . S
C628 C627 1.399 . S
C628 C629 1.376 . S
C629 H616 0.930 . S
C629 C628 1.376 . S
C629 C630 1.388 . S
C630 H617 0.930 . S
C630 C629 1.388 . S
C630 C631 1.390 . S
C631 C630 1.390 . S
C631 C632 1.394 . S
C631 C637 1.465 . S
C632 C627 1.399 . S
C632 C631 1.394 . S
C632 C633 1.516 . S
C633 C632 1.516 . S
C633 C634 1.502 . S
C633 C635 1.561 . S
C633 C636 1.526 . S
C634 H618 0.959 . S
C634 H619 0.959 . S
C634 H620 0.961 . S
C634 C633 1.502 . S
C635 H621 0.960 . S
C635 H622 0.961 . S
C635 H623 0.959 . S
C635 C633 1.561 . S
C636 C633 1.526 . S
C636 C637 1.396 . S
C636 C641 1.390 . S
C637 C631 1.465 . S
C637 C636 1.396 . S
C637 C638 1.399 . S
C638 H624 0.929 . S
C638 C637 1.399 . S
C638 C639 1.385 . S
C639 H625 0.931 . S
C639 C638 1.385 . S
C639 C640 1.389 . S
C640 C639 1.389 . S
C640 C641 1.387 . S
C641 H626 0.930 . S
C641 C636 1.390 . S
C641 C640 1.387 . S
H642 C654 0.930 . S
H643 C656 0.930 . S
H644 C657 0.930 . S
H645 C661 0.959 . S
H646 C661 0.959 . S
H647 C661 0.961 . S
H648 C662 0.960 . S
H649 C662 0.961 . S
H650 C662 0.959 . S
H651 C665 0.929 . S
H652 C666 0.931 . S
H653 C668 0.930 . S
C654 H642 0.930 . S
C654 C655 1.399 . S
C654 C659 1.399 . S
C655 C654 1.399 . S
C655 C656 1.376 1_554 S
C656 H643 0.930 . S
C656 C655 1.376 1_556 S
C656 C657 1.388 . S
C657 H644 0.930 . S
C657 C656 1.388 . S
C657 C658 1.390 . S
C658 C657 1.390 . S
C658 C659 1.394 1_556 S
C658 C664 1.465 . S
C659 C654 1.399 . S
C659 C658 1.394 1_554 S
C659 C660 1.516 . S
C660 C659 1.516 . S
C660 C661 1.502 . S
C660 C662 1.561 . S
C660 C663 1.526 . S
C661 H645 0.959 . S
C661 H646 0.959 . S
C661 H647 0.961 . S
C661 C660 1.502 . S
C662 H648 0.960 . S
C662 H649 0.961 . S
C662 H650 0.959 . S
C662 C660 1.561 . S
C663 C660 1.526 . S
C663 C664 1.396 1_554 S
C663 C668 1.390 . S
C664 C658 1.465 . S
C664 C663 1.396 1_556 S
C664 C665 1.399 . S
C665 H651 0.929 . S
C665 C664 1.399 . S
C665 C666 1.385 . S
C666 H652 0.931 . S
C666 C665 1.385 . S
C666 C667 1.389 . S
C667 C666 1.389 . S
C667 C668 1.387 1_556 S
C668 H653 0.930 . S
C668 C663 1.390 . S
C668 C667 1.387 1_554 S
H669 C681 0.930 . S
H670 C683 0.930 . S
H671 C684 0.930 . S
H672 C688 0.959 . S
H673 C688 0.959 . S
H674 C688 0.961 . S
H675 C689 0.960 . S
H676 C689 0.961 . S
H677 C689 0.959 . S
H678 C692 0.929 . S
H679 C693 0.931 . S
H680 C695 0.930 . S
C681 H669 0.930 . S
C681 C682 1.399 . S
C681 C686 1.399 . S
C682 C681 1.399 . S
C682 C683 1.376 . S
C683 H670 0.930 . S
C683 C682 1.376 . S
C683 C684 1.388 . S
C684 H671 0.930 . S
C684 C683 1.388 . S
C684 C685 1.390 . S
C685 C684 1.390 . S
C685 C686 1.394 . S
C685 C691 1.465 . S
C686 C681 1.399 . S
C686 C685 1.394 . S
C686 C687 1.516 . S
C687 C686 1.516 . S
C687 C688 1.502 . S
C687 C689 1.561 . S
C687 C690 1.526 . S
C688 H672 0.959 . S
C688 H673 0.959 . S
C688 H674 0.961 . S
C688 C687 1.502 . S
C689 H675 0.960 . S
C689 H676 0.961 . S
C689 H677 0.959 . S
C689 C687 1.561 . S
C690 C687 1.526 . S
C690 C691 1.396 . S
C690 C695 1.390 . S
C691 C685 1.465 . S
C691 C690 1.396 . S
C691 C692 1.399 . S
C692 H678 0.929 . S
C692 C691 1.399 . S
C692 C693 1.385 . S
C693 H679 0.931 . S
C693 C692 1.385 . S
C693 C694 1.389 . S
C694 C693 1.389 . S
C694 C695 1.387 . S
C695 H680 0.930 . S
C695 C690 1.390 . S
C695 C694 1.387 . S
H696 C708 0.930 . S
H697 C710 0.930 . S
H698 C711 0.930 . S
H699 C715 0.959 . S
H700 C715 0.959 . S
H701 C715 0.961 . S
H702 C716 0.960 . S
H703 C716 0.961 . S
H704 C716 0.959 . S
H705 C719 0.929 . S
H706 C720 0.931 . S
H707 C722 0.930 . S
C708 H696 0.930 . S
C708 C709 1.399 . S
C708 C713 1.399 . S
C709 C708 1.399 . S
C709 C710 1.376 . S
C710 H697 0.930 . S
C710 C709 1.376 . S
C710 C711 1.388 . S
C711 H698 0.930 . S
C711 C710 1.388 . S
C711 C712 1.390 . S
C712 C711 1.390 . S
C712 C713 1.394 . S
C712 C718 1.465 . S
C713 C708 1.399 . S
C713 C712 1.394 . S
C713 C714 1.516 . S
C714 C713 1.516 . S
C714 C715 1.502 . S
C714 C716 1.561 . S
C714 C717 1.526 . S
C715 H699 0.959 . S
C715 H700 0.959 . S
C715 H701 0.961 . S
C715 C714 1.502 . S
C716 H702 0.960 . S
C716 H703 0.961 . S
C716 H704 0.959 . S
C716 C714 1.561 . S
C717 C714 1.526 . S
C717 C718 1.396 . S
C717 C722 1.390 . S
C718 C712 1.465 . S
C718 C717 1.396 . S
C718 C719 1.399 . S
C719 H705 0.929 . S
C719 C718 1.399 . S
C719 C720 1.385 . S
C720 H706 0.931 . S
C720 C719 1.385 . S
C720 C721 1.389 . S
C721 C720 1.389 . S
C721 C722 1.387 . S
C722 H707 0.930 . S
C722 C717 1.390 . S
C722 C721 1.387 . S
H723 C735 0.930 . S
H724 C737 0.930 . S
H725 C738 0.930 . S
H726 C742 0.959 . S
H727 C742 0.959 . S
H728 C742 0.961 . S
H729 C743 0.960 . S
H730 C743 0.961 . S
H731 C743 0.959 . S
H732 C746 0.929 . S
H733 C747 0.931 . S
H734 C749 0.930 . S
C735 H723 0.930 . S
C735 C736 1.399 . S
C735 C740 1.399 . S
C736 C735 1.399 . S
C736 C737 1.376 . S
C737 H724 0.930 . S
C737 C736 1.376 . S
C737 C738 1.388 . S
C738 H725 0.930 . S
C738 C737 1.388 . S
C738 C739 1.390 . S
C739 C738 1.390 . S
C739 C740 1.394 . S
C739 C745 1.465 . S
C740 C735 1.399 . S
C740 C739 1.394 . S
C740 C741 1.516 . S
C741 C740 1.516 . S
C741 C742 1.502 . S
C741 C743 1.561 . S
C741 C744 1.526 . S
C742 H726 0.959 . S
C742 H727 0.959 . S
C742 H728 0.961 . S
C742 C741 1.502 . S
C743 H729 0.960 . S
C743 H730 0.961 . S
C743 H731 0.959 . S
C743 C741 1.561 . S
C744 C741 1.526 . S
C744 C745 1.396 . S
C744 C749 1.390 . S
C745 C739 1.465 . S
C745 C744 1.396 . S
C745 C746 1.399 . S
C746 H732 0.929 . S
C746 C745 1.399 . S
C746 C747 1.385 . S
C747 H733 0.931 . S
C747 C746 1.385 . S
C747 C748 1.389 . S
C748 C747 1.389 . S
C748 C749 1.387 . S
C749 H734 0.930 . S
C749 C744 1.390 . S
C749 C748 1.387 . S
H750 C762 0.930 . S
H751 C764 0.930 . S
H752 C765 0.930 . S
H753 C769 0.959 . S
H754 C769 0.959 . S
H755 C769 0.961 . S
H756 C770 0.960 1_455 S
H757 C770 0.961 . S
H758 C770 0.959 1_455 S
H759 C773 0.929 . S
H760 C774 0.931 . S
H761 C776 0.930 . S
C762 H750 0.930 . S
C762 C763 1.399 . S
C762 C767 1.399 . S
C763 C762 1.399 . S
C763 C764 1.376 . S
C764 H751 0.930 . S
C764 C763 1.376 . S
C764 C765 1.388 . S
C765 H752 0.930 . S
C765 C764 1.388 . S
C765 C766 1.390 . S
C766 C765 1.390 . S
C766 C767 1.394 . S
C766 C772 1.465 1_455 S
C767 C762 1.399 . S
C767 C766 1.394 . S
C767 C768 1.516 1_455 S
C768 C767 1.516 1_655 S
C768 C769 1.502 . S
C768 C770 1.561 . S
C768 C771 1.526 . S
C769 H753 0.959 . S
C769 H754 0.959 . S
C769 H755 0.961 . S
C769 C768 1.502 . S
C770 H756 0.960 1_655 S
C770 H757 0.961 . S
C770 H758 0.959 1_655 S
C770 C768 1.561 . S
C771 C768 1.526 . S
C771 C772 1.396 . S
C771 C776 1.390 . S
C772 C766 1.465 1_655 S
C772 C771 1.396 . S
C772 C773 1.399 . S
C773 H759 0.929 . S
C773 C772 1.399 . S
C773 C774 1.385 . S
C774 H760 0.931 . S
C774 C773 1.385 . S
C774 C775 1.389 . S
C775 C774 1.389 . S
C775 C776 1.387 . S
C776 H761 0.930 . S
C776 C771 1.390 . S
C776 C775 1.387 . S
H777 C789 0.930 . S
H778 C791 0.930 . S
H779 C792 0.930 . S
H780 C796 0.959 . S
H781 C796 0.959 . S
H782 C796 0.961 . S
H783 C797 0.960 1_455 S
H784 C797 0.961 . S
H785 C797 0.959 1_455 S
H786 C800 0.929 . S
H787 C801 0.931 . S
H788 C803 0.930 . S
C789 H777 0.930 . S
C789 C790 1.399 . S
C789 C794 1.399 . S
C790 C789 1.399 . S
C790 C791 1.376 . S
C791 H778 0.930 . S
C791 C790 1.376 . S
C791 C792 1.388 . S
C792 H779 0.930 . S
C792 C791 1.388 . S
C792 C793 1.390 . S
C793 C792 1.390 . S
C793 C794 1.394 . S
C793 C799 1.465 1_455 S
C794 C789 1.399 . S
C794 C793 1.394 . S
C794 C795 1.516 1_455 S
C795 C794 1.516 1_655 S
C795 C796 1.502 . S
C795 C797 1.561 . S
C795 C798 1.526 . S
C796 H780 0.959 . S
C796 H781 0.959 . S
C796 H782 0.961 . S
C796 C795 1.502 . S
C797 H783 0.960 1_655 S
C797 H784 0.961 . S
C797 H785 0.959 1_655 S
C797 C795 1.561 . S
C798 C795 1.526 . S
C798 C799 1.396 . S
C798 C803 1.390 . S
C799 C793 1.465 1_655 S
C799 C798 1.396 . S
C799 C800 1.399 . S
C800 H786 0.929 . S
C800 C799 1.399 . S
C800 C801 1.385 . S
C801 H787 0.931 . S
C801 C800 1.385 . S
C801 C802 1.389 . S
C802 C801 1.389 . S
C802 C803 1.387 . S
C803 H788 0.930 . S
C803 C798 1.390 . S
C803 C802 1.387 . S
C277 C107 1.814 . S
C289 N5 1.836 . S
C304 N38 1.855 . S
C316 C74 1.843 . S
C331 C41 1.867 . S
C343 N71 1.881 . S
C358 C8 1.840 . S
C370 N104 1.867 . S
C385 N137 1.865 . S
C397 C239 1.844 . S
C412 C206 1.814 . S
C424 N170 1.838 . S
C439 N203 1.881 . S
C451 C173 1.867 . S
C466 N236 1.836 . S
C478 C140 1.816 . S
C493 C28 0.812 . S
C505 C94 0.797 . S
C520 C61 0.850 . S
C532 C127 0.762 . S
C547 C226 0.873 1_554 S
C559 C160 0.756 . S
C574 C259 0.853 . S
C586 C193 0.759 . S
C601 C17 1.489 . S
C613 C215 1.488 . S
C628 C50 1.497 . S
C640 C248 1.475 . S
C655 C149 1.497 . S
C667 C83 1.479 . S
C682 C182 1.465 . S
C694 C116 1.501 . S
C709 N47 0.765 . S
C721 N14 0.877 . S
C736 N113 0.796 . S
C748 N80 0.870 . S
C763 N179 0.936 . S
C775 N146 0.760 . S
C790 N212 0.923 . S
C802 N245 0.766 . S
