# Generated by pormake.
# Topology umy, (4)-cn, num edge types: 1
# Building blocks:
#     Node 0, Type 0, BuildingBlock: CEKHIL_clean_sbu_0, # of connection points: 4
#     Node 1, Type 0, BuildingBlock: CEKHIL_clean_sbu_0, # of connection points: 4
#     Node 2, Type 0, BuildingBlock: CEKHIL_clean_sbu_0, # of connection points: 4
#     Node 3, Type 0, BuildingBlock: CEKHIL_clean_sbu_0, # of connection points: 4
#     Node 4, Type 0, BuildingBlock: CEKHIL_clean_sbu_0, # of connection points: 4
#     Node 5, Type 0, BuildingBlock: CEKHIL_clean_sbu_0, # of connection points: 4
#     Node 6, Type 0, BuildingBlock: CEKHIL_clean_sbu_0, # of connection points: 4
#     Node 7, Type 0, BuildingBlock: CEKHIL_clean_sbu_0, # of connection points: 4
#     Node 8, Type 0, BuildingBlock: CEKHIL_clean_sbu_0, # of connection points: 4
#     Node 9, Type 0, BuildingBlock: CEKHIL_clean_sbu_0, # of connection points: 4
#     Node 10, Type 0, BuildingBlock: CEKHIL_clean_sbu_0, # of connection points: 4
#     Node 11, Type 0, BuildingBlock: CEKHIL_clean_sbu_0, # of connection points: 4
#     Edge 12, Type (0, 0), BuildingBlock: EYOCIG_clean_linker_4, # of connection points: 2
#     Edge 13, Type (0, 0), BuildingBlock: EYOCIG_clean_linker_4, # of connection points: 2
#     Edge 14, Type (0, 0), BuildingBlock: EYOCIG_clean_linker_4, # of connection points: 2
#     Edge 15, Type (0, 0), BuildingBlock: EYOCIG_clean_linker_4, # of connection points: 2
#     Edge 16, Type (0, 0), BuildingBlock: EYOCIG_clean_linker_4, # of connection points: 2
#     Edge 17, Type (0, 0), BuildingBlock: EYOCIG_clean_linker_4, # of connection points: 2
#     Edge 18, Type (0, 0), BuildingBlock: EYOCIG_clean_linker_4, # of connection points: 2
#     Edge 19, Type (0, 0), BuildingBlock: EYOCIG_clean_linker_4, # of connection points: 2
#     Edge 20, Type (0, 0), BuildingBlock: EYOCIG_clean_linker_4, # of connection points: 2
#     Edge 21, Type (0, 0), BuildingBlock: EYOCIG_clean_linker_4, # of connection points: 2
#     Edge 22, Type (0, 0), BuildingBlock: EYOCIG_clean_linker_4, # of connection points: 2
#     Edge 23, Type (0, 0), BuildingBlock: EYOCIG_clean_linker_4, # of connection points: 2
#     Edge 24, Type (0, 0), BuildingBlock: EYOCIG_clean_linker_4, # of connection points: 2
#     Edge 25, Type (0, 0), BuildingBlock: EYOCIG_clean_linker_4, # of connection points: 2
#     Edge 26, Type (0, 0), BuildingBlock: EYOCIG_clean_linker_4, # of connection points: 2
#     Edge 27, Type (0, 0), BuildingBlock: EYOCIG_clean_linker_4, # of connection points: 2
#     Edge 28, Type (0, 0), BuildingBlock: EYOCIG_clean_linker_4, # of connection points: 2
#     Edge 29, Type (0, 0), BuildingBlock: EYOCIG_clean_linker_4, # of connection points: 2
#     Edge 30, Type (0, 0), BuildingBlock: EYOCIG_clean_linker_4, # of connection points: 2
#     Edge 31, Type (0, 0), BuildingBlock: EYOCIG_clean_linker_4, # of connection points: 2
#     Edge 32, Type (0, 0), BuildingBlock: EYOCIG_clean_linker_4, # of connection points: 2
#     Edge 33, Type (0, 0), BuildingBlock: EYOCIG_clean_linker_4, # of connection points: 2
#     Edge 34, Type (0, 0), BuildingBlock: EYOCIG_clean_linker_4, # of connection points: 2
#     Edge 35, Type (0, 0), BuildingBlock: EYOCIG_clean_linker_4, # of connection points: 2
# Relax obj value: 0.119
# Max RMSD: 0.082
# Mean RMSD: 0.082
data_MOF--net-umy--node1-CEKHIL_clean_sbu_0--edge1-EYOCIG_clean_linker_4
_symmetry_space_group_name_H-M    P1
_symmetry_Int_Tables_number       1
_symmetry_cell_setting            triclinic
loop_
_symmetry_equiv_pos_as_xyz
'x, y, z'
_cell_length_a     28.922679
_cell_length_b     28.911891
_cell_length_c     42.211697
_cell_angle_alpha  89.965253
_cell_angle_beta   90.020017
_cell_angle_gamma 120.03867
loop_
_atom_site_label
_atom_site_type_symbol
_atom_site_fract_x
_atom_site_fract_y
_atom_site_fract_z
_atom_type_partial_charge
Co0 Co 0.06802 0.36086 0.11804 0.0
O1 O 0.0364 0.38534 0.08681 0.0
O2 O 0.10614 0.43775 0.11711 0.0
C3 C 0.99124 0.29977 0.14098 0.0
O4 O 0.11027 0.35174 0.15369 0.0
Co5 Co 0.04597 0.24408 0.11908 0.0
O6 O 0.08246 0.26449 0.16077 0.0
C7 C 0.12211 0.32046 0.07267 0.0
C8 C 0.0721 0.43316 0.09556 0.0
C9 C 0.11004 0.31323 0.16901 0.0
O10 O 0.11781 0.35873 0.08514 0.0
O11 O 0.09462 0.27164 0.08135 0.0
O12 O 1.01267 0.34985 0.14849 0.0
O13 O 1.01353 0.2887 0.11798 0.0
Co14 Co 0.72558 0.05885 0.28479 0.0
O15 O 0.66961 0.02756 0.25346 0.0
O16 O 0.68722 0.09732 0.28379 0.0
C17 C 0.70924 0.98183 0.3077 0.0
O18 O 0.77688 0.10081 0.32053 0.0
Co19 Co 0.81982 0.03615 0.28603 0.0
O20 O 0.83584 0.0725 0.32776 0.0
C21 C 0.82045 0.1127 0.2396 0.0
C22 C 0.65773 0.06341 0.26219 0.0
C23 C 0.81492 0.10029 0.33594 0.0
O24 O 0.7779 0.1086 0.25198 0.0
O25 O 0.84144 0.08496 0.24832 0.0
O26 O 0.6808 1.00346 0.31516 0.0
O27 O 0.74279 1.00409 0.28476 0.0
Co28 Co 0.68487 0.71616 0.45146 0.0
O29 O 0.66049 0.66024 0.42012 0.0
O30 O 0.60802 0.67733 0.45047 0.0
C31 C 0.74584 0.70031 0.47434 0.0
O32 O 0.69386 0.76729 0.48721 0.0
Co33 Co 0.80159 0.81099 0.45272 0.0
O34 O 0.78104 0.82678 0.49443 0.0
C35 C 0.72543 0.81109 0.40631 0.0
C36 C 0.61267 0.64801 0.42887 0.0
C37 C 0.73228 0.80551 0.50261 0.0
O38 O 0.68713 0.76835 0.41867 0.0
O39 O 0.77419 0.8324 0.41504 0.0
O40 O 0.69576 0.67158 0.48182 0.0
O41 O 0.757 0.73388 0.45142 0.0
Co42 Co 0.98707 0.67602 0.61803 0.0
O43 O 1.01837 0.65143 0.58669 0.0
O44 O 0.94885 0.59912 0.61718 0.0
C45 C 0.06407 0.73706 0.64075 0.0
O46 O 0.94518 0.6853 0.65382 0.0
Co47 Co 1.00937 0.7929 0.61907 0.0
O48 O 0.97328 0.77261 0.66088 0.0
C49 C 0.93283 0.71656 0.57282 0.0
C50 C 0.9827 0.60363 0.59552 0.0
C51 C 0.94566 0.72389 0.66918 0.0
O52 O 0.93708 0.67823 0.58528 0.0
O53 O 0.96048 0.76537 0.58144 0.0
O54 O 0.04265 0.68699 0.64832 0.0
O55 O 0.04163 0.74814 0.61783 0.0
Co56 Co 0.32906 0.97823 0.78465 0.0
O57 O 0.38514 1.00983 0.75341 0.0
O58 O 0.36765 0.94 0.78369 0.0
C59 C 0.34498 0.05502 0.80762 0.0
O60 O 0.27766 0.93596 0.8203 0.0
Co61 Co 0.2345 1.00044 0.78571 0.0
O62 O 0.21834 0.96383 0.82738 0.0
C63 C 0.23447 0.92429 0.73928 0.0
C64 C 0.39713 0.97404 0.76213 0.0
C65 C 0.23941 0.93619 0.83561 0.0
O66 O 0.277 0.92851 0.75175 0.0
O67 O 0.21326 0.95184 0.74795 0.0
O68 O 0.37355 0.03353 0.81511 0.0
O69 O 0.31157 0.03279 0.78461 0.0
Co70 Co 0.3696 0.32065 0.95123 0.0
O71 O 0.39409 0.37646 0.91978 0.0
O72 O 0.44645 0.35926 0.95019 0.0
C73 C 0.30884 0.33683 0.97405 0.0
O74 O 0.3605 0.26959 -0.01291 0.0
Co75 Co 0.25274 0.22608 0.95265 0.0
O76 O 0.27328 0.21037 -0.00558 0.0
C77 C 0.32864 0.22556 0.90624 0.0
C78 C 0.44189 0.38856 0.92851 0.0
C79 C 0.32204 0.23152 0.00257 0.0
O80 O 0.36708 0.26825 0.91855 0.0
O81 O 0.27992 0.20444 0.915 0.0
O82 O 0.35895 0.36548 0.98148 0.0
O83 O 0.29755 0.30316 0.9512 0.0
Co84 Co 0.68447 0.97798 0.68208 0.0
O85 O 0.6601 1.0095 0.7134 0.0
O86 O 0.60762 0.93975 0.68313 0.0
C87 C 0.74534 0.05487 0.65912 0.0
O88 O 0.69349 0.93582 0.64635 0.0
Co89 Co 0.80131 1.00029 0.68078 0.0
O90 O 0.7807 0.96384 0.6391 0.0
C91 C 0.7253 0.92401 0.72729 0.0
C92 C 0.61227 0.97375 0.70471 0.0
C93 C 0.73195 0.93616 0.63094 0.0
O94 O 0.6869 0.9282 0.71491 0.0
O95 O 0.77404 0.95161 0.71853 0.0
O96 O 0.69524 0.03338 0.65167 0.0
O97 O 0.75656 0.03255 0.68206 0.0
Co98 Co 0.72572 0.67643 0.84875 0.0
O99 O 0.66964 0.65179 0.88 0.0
O100 O 0.6871 0.59954 0.84968 0.0
C101 C 0.70973 0.73731 0.82584 0.0
O102 O 0.77708 0.68571 0.81307 0.0
Co103 Co 0.82026 0.79333 0.84764 0.0
O104 O 0.83637 0.773 0.80595 0.0
C105 C 0.82032 0.71717 0.89411 0.0
C106 C 0.65761 0.60401 0.87124 0.0
C107 C 0.81529 0.72427 0.79773 0.0
O108 O 0.77779 0.67878 0.88163 0.0
O109 O 0.84151 0.76596 0.88542 0.0
O110 O 0.68119 0.68722 0.81832 0.0
O111 O 0.74319 0.74851 0.84882 0.0
Co112 Co 0.0675 0.71649 0.01558 0.0
O113 O 0.03619 0.6607 0.04704 0.0
O114 O 0.10557 0.67773 0.01652 0.0
C115 C 0.99051 0.70051 -0.00713 0.0
O116 O 0.10937 0.76749 0.97968 0.0
Co117 Co 0.04556 0.81125 0.01432 0.0
O118 O 0.08149 0.82681 0.97248 0.0
C119 C 0.12217 0.81157 0.06055 0.0
C120 C 0.07176 0.6485 0.03824 0.0
C121 C 0.10897 0.80558 0.96423 0.0
O122 O 0.11768 0.76883 0.04821 0.0
O123 O 0.09463 0.8328 0.05189 0.0
O124 O 1.01179 0.67175 -0.01461 0.0
O125 O 1.01308 0.73415 0.01572 0.0
Co126 Co 0.37007 0.05902 0.1821 0.0
O127 O 0.39461 0.02756 0.21341 0.0
O128 O 0.44693 0.09748 0.18317 0.0
C129 C 0.3094 0.98213 0.15909 0.0
O130 O 0.36089 0.10118 0.1464 0.0
Co131 Co 0.25311 0.03632 0.18081 0.0
O132 O 0.27362 0.07292 0.13914 0.0
C133 C 0.32895 0.1126 0.22735 0.0
C134 C 0.4424 0.06346 0.20475 0.0
C135 C 0.32236 0.10075 0.13099 0.0
O136 O 0.36743 0.10859 0.21496 0.0
O137 O 0.28023 0.08491 0.21859 0.0
O138 O 0.35952 1.00379 0.15166 0.0
O139 O 0.29806 1.00426 0.18205 0.0
Co140 Co 0.32919 0.36012 0.34898 0.0
O141 O 0.38499 0.38443 0.3804 0.0
O142 O 0.36801 0.43699 0.35001 0.0
C143 C 0.34506 0.29916 0.32613 0.0
O144 O 0.27821 0.35121 0.31314 0.0
Co145 Co 0.23436 0.24337 0.34762 0.0
O146 O 0.21889 0.264 0.30581 0.0
C147 C 0.23423 0.31945 0.39405 0.0
C148 C 0.39725 0.43229 0.37166 0.0
C149 C 0.24015 0.31279 0.29765 0.0
O150 O 0.27694 0.35779 0.3817 0.0
O151 O 0.21294 0.27069 0.3853 0.0
O152 O 0.37384 0.34928 0.3187 0.0
O153 O 0.31145 0.28796 0.34901 0.0
Co154 Co 0.9873 0.32039 0.51558 0.0
O155 O 1.01868 0.3763 0.54694 0.0
O156 O 0.94915 0.35907 0.51649 0.0
C157 C 0.06422 0.33637 0.49278 0.0
O158 O 0.94532 0.26921 0.47979 0.0
Co159 Co 1.00942 0.22573 0.5145 0.0
O160 O 0.9732 0.20987 0.47273 0.0
C161 C 0.93289 0.22545 0.56072 0.0
C162 C 0.983 0.38839 0.53816 0.0
C163 C 0.94566 0.23103 0.46445 0.0
O164 O 0.9373 0.26813 0.54832 0.0
O165 O 0.96045 0.20424 0.55209 0.0
O166 O 0.04286 0.36506 0.48528 0.0
O167 O 0.0418 0.30282 0.51572 0.0
C168 C 0.07289 0.56425 0.06123 0.0
C169 C 0.07207 0.60264 0.05087 0.0
C170 C 0.07298 0.51852 0.07274 0.0
C171 C 0.07231 0.47934 0.08304 0.0
C172 C 0.57357 0.06474 0.23927 0.0
C173 C 0.61194 0.06389 0.24963 0.0
C174 C 0.52783 0.06474 0.22772 0.0
C175 C 0.48862 0.06389 0.21734 0.0
C176 C 0.52737 0.56348 0.40606 0.0
C177 C 0.56654 0.602 0.41635 0.0
C178 C 0.48161 0.51763 0.39459 0.0
C179 C 0.44316 0.47842 0.38426 0.0
C180 C 0.98163 0.51823 0.57268 0.0
C181 C 0.98236 0.55741 0.583 0.0
C182 C 0.98173 0.47254 0.56114 0.0
C183 C 0.9826 0.43418 0.55077 0.0
C184 C 0.52701 0.97278 0.72767 0.0
C185 C 0.56614 0.97349 0.7173 0.0
C186 C 0.48133 0.97287 0.73922 0.0
C187 C 0.44295 0.97369 0.74955 0.0
C188 C 0.52732 0.47279 0.90552 0.0
C189 C 0.48808 0.4344 0.91588 0.0
C190 C 0.57316 0.51854 0.89402 0.0
C191 C 0.61166 0.55776 0.88373 0.0
C192 C 0.19523 0.33805 0.02959 0.0
C193 C 0.16273 0.33303 0.04924 0.0
C194 C 0.23422 0.33946 0.00881 0.0
C195 C 0.26796 0.33794 -0.00721 0.0
C196 C 0.87647 0.18584 0.19656 0.0
C197 C 0.84883 0.15333 0.21618 0.0
C198 C 0.91411 0.22487 0.17577 0.0
C199 C 0.94932 0.25871 0.15971 0.0
C200 C 0.70798 0.8669 0.3633 0.0
C201 C 0.71297 0.83932 0.38291 0.0
C202 C 0.70658 0.90454 0.34253 0.0
C203 C 0.7081 0.93982 0.32648 0.0
C204 C 0.82058 0.69779 0.50907 0.0
C205 C 0.78681 0.69928 0.49305 0.0
C206 C 0.85959 0.69913 0.52984 0.0
C207 C 0.89213 0.70408 0.54944 0.0
C208 C 0.14128 0.81203 0.67543 0.0
C209 C 0.10603 0.77814 0.65944 0.0
C210 C 0.17883 0.85114 0.6962 0.0
C211 C 0.2063 0.88367 0.71585 0.0
C212 C 0.34729 0.13204 0.84248 0.0
C213 C 0.3459 0.09688 0.8264 0.0
C214 C 0.34585 0.16961 0.86327 0.0
C215 C 0.34092 0.19721 0.88286 0.0
C216 C 0.707 0.81201 0.79114 0.0
C217 C 0.7086 0.77827 0.80716 0.0
C218 C 0.70819 0.85095 0.77037 0.0
C219 C 0.71299 0.8834 0.75073 0.0
C220 C 0.87591 0.69975 0.93726 0.0
C221 C 0.84846 0.70475 0.91758 0.0
C222 C 0.91341 0.69825 0.95809 0.0
C223 C 0.94861 0.69963 0.97414 0.0
C224 C 0.23476 0.90501 0.12419 0.0
C225 C 0.26855 0.94021 0.14026 0.0
C226 C 0.19565 0.86743 0.10343 0.0
C227 C 0.16298 0.83984 0.08387 0.0
C228 C 0.34604 0.18551 0.27048 0.0
C229 C 0.34117 0.15311 0.25081 0.0
C230 C 0.34741 0.22444 0.29131 0.0
C231 C 0.34599 0.2582 0.30738 0.0
C232 C 0.1786 0.33693 0.43711 0.0
C233 C 0.20606 0.33187 0.41747 0.0
C234 C 0.14115 0.3385 0.45793 0.0
C235 C 0.10603 0.33719 0.47401 0.0
C236 C 0.85937 0.16959 0.60359 0.0
C237 C 0.89207 0.19716 0.58404 0.0
C238 C 0.82017 0.13201 0.62431 0.0
C239 C 0.78629 0.09679 0.64034 0.0
C240 C 0.1982 0.33057 0.24689 0.0
C241 C 0.21911 0.32515 0.2702 0.0
C242 C 0.16997 0.33067 0.21964 0.0
C243 C 0.14356 0.32541 0.1964 0.0
C244 C 0.88585 0.18859 0.41377 0.0
C245 C 0.91222 0.20972 0.43703 0.0
C246 C 0.85749 0.16022 0.38656 0.0
C247 C 0.83634 0.1338 0.36332 0.0
C248 C 0.7144 0.87613 0.58037 0.0
C249 C 0.71967 0.90257 0.60359 0.0
C250 C 0.71452 0.84779 0.5532 0.0
C251 C 0.71995 0.82674 0.52997 0.0
C252 C 0.88603 0.70665 0.71991 0.0
C253 C 0.9123 0.71181 0.69662 0.0
C254 C 0.85777 0.70679 0.74713 0.0
C255 C 0.83666 0.71213 0.77036 0.0
C256 C 0.19684 0.87609 0.8862 0.0
C257 C 0.21801 0.90259 0.86298 0.0
C258 C 0.16854 0.84774 0.91343 0.0
C259 C 0.14229 0.82673 0.93675 0.0
C260 C 0.33979 0.16087 0.08043 0.0
C261 C 0.33455 0.13438 0.10365 0.0
C262 C 0.3397 0.18924 0.05324 0.0
C263 C 0.33432 0.21029 0.02997 0.0
loop_
_geom_bond_atom_site_label_1
_geom_bond_atom_site_label_2
_geom_bond_distance
_geom_bond_site_symmetry_2
_ccdc_geom_bond_type
Co0 O1 2.216 . S
Co0 O2 2.091 . S
Co0 O4 2.004 . S
Co0 O10 2.021 . S
Co0 O12 2.137 1_455 S
Co0 O13 2.244 1_455 S
O1 Co0 2.216 . S
O1 C8 1.247 . S
O2 Co0 2.091 . S
O2 C8 1.261 . S
C3 O12 1.247 . S
C3 O13 1.272 . S
O4 Co0 2.004 . S
O4 C9 1.259 . S
Co5 O6 2.061 . S
Co5 O11 2.052 . S
Co5 O13 2.135 1_455 S
O6 Co5 2.061 . S
O6 C9 1.235 . S
C7 O10 1.238 . S
C7 O11 1.241 . S
C8 O1 1.247 . S
C8 O2 1.261 . S
C9 O4 1.259 . S
C9 O6 1.235 . S
O10 Co0 2.021 . S
O10 C7 1.238 . S
O11 Co5 2.052 . S
O11 C7 1.241 . S
O12 Co0 2.137 1_655 S
O12 C3 1.247 . S
O13 Co0 2.244 1_655 S
O13 C3 1.272 . S
O13 Co5 2.135 1_655 S
Co14 O15 2.216 . S
Co14 O16 2.091 . S
Co14 O18 2.004 . S
Co14 O24 2.021 . S
Co14 O26 2.137 1_545 S
Co14 O27 2.244 1_545 S
O15 Co14 2.216 . S
O15 C22 1.247 . S
O16 Co14 2.091 . S
O16 C22 1.261 . S
C17 O26 1.247 . S
C17 O27 1.272 . S
O18 Co14 2.004 . S
O18 C23 1.259 . S
Co19 O20 2.061 . S
Co19 O25 2.052 . S
Co19 O27 2.135 1_545 S
O20 Co19 2.061 . S
O20 C23 1.235 . S
C21 O24 1.238 . S
C21 O25 1.241 . S
C22 O15 1.247 . S
C22 O16 1.261 . S
C23 O18 1.259 . S
C23 O20 1.235 . S
O24 Co14 2.021 . S
O24 C21 1.238 . S
O25 Co19 2.052 . S
O25 C21 1.241 . S
O26 Co14 2.137 1_565 S
O26 C17 1.247 . S
O27 Co14 2.244 1_565 S
O27 C17 1.272 . S
O27 Co19 2.135 1_565 S
Co28 O29 2.216 . S
Co28 O30 2.091 . S
Co28 O32 2.004 . S
Co28 O38 2.021 . S
Co28 O40 2.137 . S
Co28 O41 2.244 . S
O29 Co28 2.216 . S
O29 C36 1.247 . S
O30 Co28 2.091 . S
O30 C36 1.261 . S
C31 O40 1.247 . S
C31 O41 1.272 . S
O32 Co28 2.004 . S
O32 C37 1.259 . S
Co33 O34 2.061 . S
Co33 O39 2.052 . S
Co33 O41 2.135 . S
O34 Co33 2.061 . S
O34 C37 1.235 . S
C35 O38 1.238 . S
C35 O39 1.241 . S
C36 O29 1.247 . S
C36 O30 1.261 . S
C37 O32 1.259 . S
C37 O34 1.235 . S
O38 Co28 2.021 . S
O38 C35 1.238 . S
O39 Co33 2.052 . S
O39 C35 1.241 . S
O40 Co28 2.137 . S
O40 C31 1.247 . S
O41 Co28 2.244 . S
O41 C31 1.272 . S
O41 Co33 2.135 . S
Co42 O43 2.216 . S
Co42 O44 2.091 . S
Co42 O46 2.004 . S
Co42 O52 2.021 . S
Co42 O54 2.137 1_655 S
Co42 O55 2.244 1_655 S
O43 Co42 2.216 . S
O43 C50 1.247 . S
O44 Co42 2.091 . S
O44 C50 1.261 . S
C45 O54 1.247 . S
C45 O55 1.272 . S
O46 Co42 2.004 . S
O46 C51 1.259 . S
Co47 O48 2.061 . S
Co47 O53 2.052 . S
Co47 O55 2.135 1_655 S
O48 Co47 2.061 . S
O48 C51 1.235 . S
C49 O52 1.238 . S
C49 O53 1.241 . S
C50 O43 1.247 . S
C50 O44 1.261 . S
C51 O46 1.259 . S
C51 O48 1.235 . S
O52 Co42 2.021 . S
O52 C49 1.238 . S
O53 Co47 2.052 . S
O53 C49 1.241 . S
O54 Co42 2.137 1_455 S
O54 C45 1.247 . S
O55 Co42 2.244 1_455 S
O55 C45 1.272 . S
O55 Co47 2.135 1_455 S
Co56 O57 2.216 . S
Co56 O58 2.091 . S
Co56 O60 2.004 . S
Co56 O66 2.021 . S
Co56 O68 2.137 1_565 S
Co56 O69 2.244 1_565 S
O57 Co56 2.216 . S
O57 C64 1.247 . S
O58 Co56 2.091 . S
O58 C64 1.261 . S
C59 O68 1.247 . S
C59 O69 1.272 . S
O60 Co56 2.004 . S
O60 C65 1.259 . S
Co61 O62 2.061 . S
Co61 O67 2.052 . S
Co61 O69 2.135 1_565 S
O62 Co61 2.061 . S
O62 C65 1.235 . S
C63 O66 1.238 . S
C63 O67 1.241 . S
C64 O57 1.247 . S
C64 O58 1.261 . S
C65 O60 1.259 . S
C65 O62 1.235 . S
O66 Co56 2.021 . S
O66 C63 1.238 . S
O67 Co61 2.052 . S
O67 C63 1.241 . S
O68 Co56 2.137 1_545 S
O68 C59 1.247 . S
O69 Co56 2.244 1_545 S
O69 C59 1.272 . S
O69 Co61 2.135 1_545 S
Co70 O71 2.216 . S
Co70 O72 2.091 . S
Co70 O74 2.004 1_556 S
Co70 O80 2.021 . S
Co70 O82 2.137 . S
Co70 O83 2.244 . S
O71 Co70 2.216 . S
O71 C78 1.247 . S
O72 Co70 2.091 . S
O72 C78 1.261 . S
C73 O82 1.247 . S
C73 O83 1.272 . S
O74 Co70 2.004 1_554 S
O74 C79 1.259 . S
Co75 O76 2.061 1_556 S
Co75 O81 2.052 . S
Co75 O83 2.135 . S
O76 Co75 2.061 1_554 S
O76 C79 1.235 . S
C77 O80 1.238 . S
C77 O81 1.241 . S
C78 O71 1.247 . S
C78 O72 1.261 . S
C79 O74 1.259 . S
C79 O76 1.235 . S
O80 Co70 2.021 . S
O80 C77 1.238 . S
O81 Co75 2.052 . S
O81 C77 1.241 . S
O82 Co70 2.137 . S
O82 C73 1.247 . S
O83 Co70 2.244 . S
O83 C73 1.272 . S
O83 Co75 2.135 . S
Co84 O85 2.216 . S
Co84 O86 2.091 . S
Co84 O88 2.004 . S
Co84 O94 2.021 . S
Co84 O96 2.137 1_565 S
Co84 O97 2.244 1_565 S
O85 Co84 2.216 . S
O85 C92 1.247 . S
O86 Co84 2.091 . S
O86 C92 1.261 . S
C87 O96 1.247 . S
C87 O97 1.272 . S
O88 Co84 2.004 . S
O88 C93 1.259 . S
Co89 O90 2.061 . S
Co89 O95 2.052 . S
Co89 O97 2.135 1_565 S
O90 Co89 2.061 . S
O90 C93 1.235 . S
C91 O94 1.238 . S
C91 O95 1.241 . S
C92 O85 1.247 . S
C92 O86 1.261 . S
C93 O88 1.259 . S
C93 O90 1.235 . S
O94 Co84 2.021 . S
O94 C91 1.238 . S
O95 Co89 2.052 . S
O95 C91 1.241 . S
O96 Co84 2.137 1_545 S
O96 C87 1.247 . S
O97 Co84 2.244 1_545 S
O97 C87 1.272 . S
O97 Co89 2.135 1_545 S
Co98 O99 2.216 . S
Co98 O100 2.091 . S
Co98 O102 2.004 . S
Co98 O108 2.021 . S
Co98 O110 2.137 . S
Co98 O111 2.244 . S
O99 Co98 2.216 . S
O99 C106 1.247 . S
O100 Co98 2.091 . S
O100 C106 1.261 . S
C101 O110 1.247 . S
C101 O111 1.272 . S
O102 Co98 2.004 . S
O102 C107 1.259 . S
Co103 O104 2.061 . S
Co103 O109 2.052 . S
Co103 O111 2.135 . S
O104 Co103 2.061 . S
O104 C107 1.235 . S
C105 O108 1.238 . S
C105 O109 1.241 . S
C106 O99 1.247 . S
C106 O100 1.261 . S
C107 O102 1.259 . S
C107 O104 1.235 . S
O108 Co98 2.021 . S
O108 C105 1.238 . S
O109 Co103 2.052 . S
O109 C105 1.241 . S
O110 Co98 2.137 . S
O110 C101 1.247 . S
O111 Co98 2.244 . S
O111 C101 1.272 . S
O111 Co103 2.135 . S
Co112 O113 2.216 . S
Co112 O114 2.091 . S
Co112 O116 2.004 1_554 S
Co112 O122 2.021 . S
Co112 O124 2.137 1_455 S
Co112 O125 2.244 1_455 S
O113 Co112 2.216 . S
O113 C120 1.247 . S
O114 Co112 2.091 . S
O114 C120 1.261 . S
C115 O124 1.247 . S
C115 O125 1.272 . S
O116 Co112 2.004 1_556 S
O116 C121 1.259 . S
Co117 O118 2.061 1_554 S
Co117 O123 2.052 . S
Co117 O125 2.135 1_455 S
O118 Co117 2.061 1_556 S
O118 C121 1.235 . S
C119 O122 1.238 . S
C119 O123 1.241 . S
C120 O113 1.247 . S
C120 O114 1.261 . S
C121 O116 1.259 . S
C121 O118 1.235 . S
O122 Co112 2.021 . S
O122 C119 1.238 . S
O123 Co117 2.052 . S
O123 C119 1.241 . S
O124 Co112 2.137 1_655 S
O124 C115 1.247 . S
O125 Co112 2.244 1_655 S
O125 C115 1.272 . S
O125 Co117 2.135 1_655 S
Co126 O127 2.216 . S
Co126 O128 2.091 . S
Co126 O130 2.004 . S
Co126 O136 2.021 . S
Co126 O138 2.137 1_545 S
Co126 O139 2.244 1_545 S
O127 Co126 2.216 . S
O127 C134 1.247 . S
O128 Co126 2.091 . S
O128 C134 1.261 . S
C129 O138 1.247 . S
C129 O139 1.272 . S
O130 Co126 2.004 . S
O130 C135 1.259 . S
Co131 O132 2.061 . S
Co131 O137 2.052 . S
Co131 O139 2.135 1_545 S
O132 Co131 2.061 . S
O132 C135 1.235 . S
C133 O136 1.238 . S
C133 O137 1.241 . S
C134 O127 1.247 . S
C134 O128 1.261 . S
C135 O130 1.259 . S
C135 O132 1.235 . S
O136 Co126 2.021 . S
O136 C133 1.238 . S
O137 Co131 2.052 . S
O137 C133 1.241 . S
O138 Co126 2.137 1_565 S
O138 C129 1.247 . S
O139 Co126 2.244 1_565 S
O139 C129 1.272 . S
O139 Co131 2.135 1_565 S
Co140 O141 2.216 . S
Co140 O142 2.091 . S
Co140 O144 2.004 . S
Co140 O150 2.021 . S
Co140 O152 2.137 . S
Co140 O153 2.244 . S
O141 Co140 2.216 . S
O141 C148 1.247 . S
O142 Co140 2.091 . S
O142 C148 1.261 . S
C143 O152 1.247 . S
C143 O153 1.272 . S
O144 Co140 2.004 . S
O144 C149 1.259 . S
Co145 O146 2.061 . S
Co145 O151 2.052 . S
Co145 O153 2.135 . S
O146 Co145 2.061 . S
O146 C149 1.235 . S
C147 O150 1.238 . S
C147 O151 1.241 . S
C148 O141 1.247 . S
C148 O142 1.261 . S
C149 O144 1.259 . S
C149 O146 1.235 . S
O150 Co140 2.021 . S
O150 C147 1.238 . S
O151 Co145 2.052 . S
O151 C147 1.241 . S
O152 Co140 2.137 . S
O152 C143 1.247 . S
O153 Co140 2.244 . S
O153 C143 1.272 . S
O153 Co145 2.135 . S
Co154 O155 2.216 . S
Co154 O156 2.091 . S
Co154 O158 2.004 . S
Co154 O164 2.021 . S
Co154 O166 2.137 1_655 S
Co154 O167 2.244 1_655 S
O155 Co154 2.216 . S
O155 C162 1.247 . S
O156 Co154 2.091 . S
O156 C162 1.261 . S
C157 O166 1.247 . S
C157 O167 1.272 . S
O158 Co154 2.004 . S
O158 C163 1.259 . S
Co159 O160 2.061 . S
Co159 O165 2.052 . S
Co159 O167 2.135 1_655 S
O160 Co159 2.061 . S
O160 C163 1.235 . S
C161 O164 1.238 . S
C161 O165 1.241 . S
C162 O155 1.247 . S
C162 O156 1.261 . S
C163 O158 1.259 . S
C163 O160 1.235 . S
O164 Co154 2.021 . S
O164 C161 1.238 . S
O165 Co159 2.052 . S
O165 C161 1.241 . S
O166 Co154 2.137 1_455 S
O166 C157 1.247 . S
O167 Co154 2.244 1_455 S
O167 C157 1.272 . S
O167 Co159 2.135 1_455 S
C168 C169 1.170 . S
C168 C170 1.380 . S
C169 C168 1.170 . S
C170 C168 1.380 . S
C170 C171 1.170 . S
C171 C170 1.170 . S
C172 C173 1.170 . S
C172 C174 1.380 . S
C173 C172 1.170 . S
C174 C172 1.380 . S
C174 C175 1.170 . S
C175 C174 1.170 . S
C176 C177 1.170 . S
C176 C178 1.380 . S
C177 C176 1.170 . S
C178 C176 1.380 . S
C178 C179 1.170 . S
C179 C178 1.170 . S
C180 C181 1.170 . S
C180 C182 1.380 . S
C181 C180 1.170 . S
C182 C180 1.380 . S
C182 C183 1.170 . S
C183 C182 1.170 . S
C184 C185 1.170 . S
C184 C186 1.380 . S
C185 C184 1.170 . S
C186 C184 1.380 . S
C186 C187 1.170 . S
C187 C186 1.170 . S
C188 C189 1.170 . S
C188 C190 1.380 . S
C189 C188 1.170 . S
C190 C188 1.380 . S
C190 C191 1.170 . S
C191 C190 1.170 . S
C192 C193 1.170 . S
C192 C194 1.380 . S
C193 C192 1.170 . S
C194 C192 1.380 . S
C194 C195 1.170 . S
C195 C194 1.170 . S
C196 C197 1.170 . S
C196 C198 1.380 . S
C197 C196 1.170 . S
C198 C196 1.380 . S
C198 C199 1.170 . S
C199 C198 1.170 . S
C200 C201 1.170 . S
C200 C202 1.380 . S
C201 C200 1.170 . S
C202 C200 1.380 . S
C202 C203 1.170 . S
C203 C202 1.170 . S
C204 C205 1.170 . S
C204 C206 1.380 . S
C205 C204 1.170 . S
C206 C204 1.380 . S
C206 C207 1.170 . S
C207 C206 1.170 . S
C208 C209 1.170 . S
C208 C210 1.380 . S
C209 C208 1.170 . S
C210 C208 1.380 . S
C210 C211 1.170 . S
C211 C210 1.170 . S
C212 C213 1.170 . S
C212 C214 1.380 . S
C213 C212 1.170 . S
C214 C212 1.380 . S
C214 C215 1.170 . S
C215 C214 1.170 . S
C216 C217 1.170 . S
C216 C218 1.380 . S
C217 C216 1.170 . S
C218 C216 1.380 . S
C218 C219 1.170 . S
C219 C218 1.170 . S
C220 C221 1.170 . S
C220 C222 1.380 . S
C221 C220 1.170 . S
C222 C220 1.380 . S
C222 C223 1.170 . S
C223 C222 1.170 . S
C224 C225 1.170 . S
C224 C226 1.380 . S
C225 C224 1.170 . S
C226 C224 1.380 . S
C226 C227 1.170 . S
C227 C226 1.170 . S
C228 C229 1.170 . S
C228 C230 1.380 . S
C229 C228 1.170 . S
C230 C228 1.380 . S
C230 C231 1.170 . S
C231 C230 1.170 . S
C232 C233 1.170 . S
C232 C234 1.380 . S
C233 C232 1.170 . S
C234 C232 1.380 . S
C234 C235 1.170 . S
C235 C234 1.170 . S
C236 C237 1.170 . S
C236 C238 1.380 . S
C237 C236 1.170 . S
C238 C236 1.380 . S
C238 C239 1.170 . S
C239 C238 1.170 . S
C240 C241 1.170 . S
C240 C242 1.380 . S
C241 C240 1.170 . S
C242 C240 1.380 . S
C242 C243 1.170 . S
C243 C242 1.170 . S
C244 C245 1.170 . S
C244 C246 1.380 . S
C245 C244 1.170 . S
C246 C244 1.380 . S
C246 C247 1.170 . S
C247 C246 1.170 . S
C248 C249 1.170 . S
C248 C250 1.380 . S
C249 C248 1.170 . S
C250 C248 1.380 . S
C250 C251 1.170 . S
C251 C250 1.170 . S
C252 C253 1.170 . S
C252 C254 1.380 . S
C253 C252 1.170 . S
C254 C252 1.380 . S
C254 C255 1.170 . S
C255 C254 1.170 . S
C256 C257 1.170 . S
C256 C258 1.380 . S
C257 C256 1.170 . S
C258 C256 1.380 . S
C258 C259 1.170 . S
C259 C258 1.170 . S
C260 C261 1.170 . S
C260 C262 1.380 . S
C261 C260 1.170 . S
C262 C260 1.380 . S
C262 C263 1.170 . S
C263 C262 1.170 . S
C169 C120 1.455 . S
C171 C8 1.431 . S
C173 C22 1.434 . S
C175 C134 1.452 . S
C177 C36 1.434 . S
C179 C148 1.455 . S
C181 C50 1.437 . S
C183 C162 1.452 . S
C185 C92 1.431 . S
C187 C64 1.456 . S
C189 C78 1.434 . S
C191 C106 1.455 . S
C193 C7 1.544 . S
C195 C73 1.554 1_554 S
C197 C21 1.530 . S
C199 C3 1.530 . S
C201 C35 1.522 . S
C203 C17 1.537 . S
C205 C31 1.551 . S
C207 C49 1.536 . S
C209 C45 1.554 . S
C211 C63 1.545 . S
C213 C59 1.528 . S
C215 C77 1.524 . S
C217 C101 1.553 . S
C219 C91 1.541 . S
C221 C105 1.546 . S
C223 C115 1.554 1_556 S
C225 C129 1.552 . S
C227 C119 1.539 . S
C229 C133 1.529 . S
C231 C143 1.529 . S
C233 C147 1.532 . S
C235 C157 1.531 . S
C237 C161 1.521 . S
C239 C87 1.535 . S
C241 C149 1.308 . S
C243 C9 1.318 . S
C245 C163 1.307 . S
C247 C23 1.299 . S
C249 C93 1.320 . S
C251 C37 1.323 . S
C253 C51 1.298 . S
C255 C107 1.304 . S
C257 C65 1.309 . S
C259 C121 1.300 . S
C261 C135 1.321 . S
C263 C79 1.313 . S
