# Generated by pormake.
# Topology wjo, (5)-cn, num edge types: 1
# Building blocks:
#     Node 0, Type 0, BuildingBlock: XOMCOT_clean_sbu_1, # of connection points: 5
#     Node 1, Type 0, BuildingBlock: XOMCOT_clean_sbu_1, # of connection points: 5
#     Node 2, Type 0, BuildingBlock: XOMCOT_clean_sbu_1, # of connection points: 5
#     Node 3, Type 0, BuildingBlock: XOMCOT_clean_sbu_1, # of connection points: 5
#     Node 4, Type 0, BuildingBlock: XOMCOT_clean_sbu_1, # of connection points: 5
#     Node 5, Type 0, BuildingBlock: XOMCOT_clean_sbu_1, # of connection points: 5
#     Node 6, Type 0, BuildingBlock: XOMCOT_clean_sbu_1, # of connection points: 5
#     Node 7, Type 0, BuildingBlock: XOMCOT_clean_sbu_1, # of connection points: 5
#     Node 8, Type 0, BuildingBlock: XOMCOT_clean_sbu_1, # of connection points: 5
#     Node 9, Type 0, BuildingBlock: XOMCOT_clean_sbu_1, # of connection points: 5
#     Node 10, Type 0, BuildingBlock: XOMCOT_clean_sbu_1, # of connection points: 5
#     Node 11, Type 0, BuildingBlock: XOMCOT_clean_sbu_1, # of connection points: 5
#     Edge 12, Type (0, 0), BuildingBlock: AJUNOK_clean_linker_0, # of connection points: 2
#     Edge 13, Type (0, 0), BuildingBlock: AJUNOK_clean_linker_0, # of connection points: 2
#     Edge 14, Type (0, 0), BuildingBlock: AJUNOK_clean_linker_0, # of connection points: 2
#     Edge 15, Type (0, 0), BuildingBlock: AJUNOK_clean_linker_0, # of connection points: 2
#     Edge 16, Type (0, 0), BuildingBlock: AJUNOK_clean_linker_0, # of connection points: 2
#     Edge 17, Type (0, 0), BuildingBlock: AJUNOK_clean_linker_0, # of connection points: 2
#     Edge 18, Type (0, 0), BuildingBlock: AJUNOK_clean_linker_0, # of connection points: 2
#     Edge 19, Type (0, 0), BuildingBlock: AJUNOK_clean_linker_0, # of connection points: 2
#     Edge 20, Type (0, 0), BuildingBlock: AJUNOK_clean_linker_0, # of connection points: 2
#     Edge 21, Type (0, 0), BuildingBlock: AJUNOK_clean_linker_0, # of connection points: 2
#     Edge 22, Type (0, 0), BuildingBlock: AJUNOK_clean_linker_0, # of connection points: 2
#     Edge 23, Type (0, 0), BuildingBlock: AJUNOK_clean_linker_0, # of connection points: 2
#     Edge 24, Type (0, 0), BuildingBlock: AJUNOK_clean_linker_0, # of connection points: 2
#     Edge 25, Type (0, 0), BuildingBlock: AJUNOK_clean_linker_0, # of connection points: 2
#     Edge 26, Type (0, 0), BuildingBlock: AJUNOK_clean_linker_0, # of connection points: 2
#     Edge 27, Type (0, 0), BuildingBlock: AJUNOK_clean_linker_0, # of connection points: 2
#     Edge 28, Type (0, 0), BuildingBlock: AJUNOK_clean_linker_0, # of connection points: 2
#     Edge 29, Type (0, 0), BuildingBlock: AJUNOK_clean_linker_0, # of connection points: 2
#     Edge 30, Type (0, 0), BuildingBlock: AJUNOK_clean_linker_0, # of connection points: 2
#     Edge 31, Type (0, 0), BuildingBlock: AJUNOK_clean_linker_0, # of connection points: 2
#     Edge 32, Type (0, 0), BuildingBlock: AJUNOK_clean_linker_0, # of connection points: 2
#     Edge 33, Type (0, 0), BuildingBlock: AJUNOK_clean_linker_0, # of connection points: 2
#     Edge 34, Type (0, 0), BuildingBlock: AJUNOK_clean_linker_0, # of connection points: 2
#     Edge 35, Type (0, 0), BuildingBlock: AJUNOK_clean_linker_0, # of connection points: 2
#     Edge 36, Type (0, 0), BuildingBlock: AJUNOK_clean_linker_0, # of connection points: 2
#     Edge 37, Type (0, 0), BuildingBlock: AJUNOK_clean_linker_0, # of connection points: 2
#     Edge 38, Type (0, 0), BuildingBlock: AJUNOK_clean_linker_0, # of connection points: 2
#     Edge 39, Type (0, 0), BuildingBlock: AJUNOK_clean_linker_0, # of connection points: 2
#     Edge 40, Type (0, 0), BuildingBlock: AJUNOK_clean_linker_0, # of connection points: 2
#     Edge 41, Type (0, 0), BuildingBlock: AJUNOK_clean_linker_0, # of connection points: 2
# Relax obj value: 0.387
# Max RMSD: 0.207
# Mean RMSD: 0.204
data_MOF--net-wjo--node1-XOMCOT_clean_sbu_1--edge1-AJUNOK_clean_linker_0
_symmetry_space_group_name_H-M    P1
_symmetry_Int_Tables_number       1
_symmetry_cell_setting            triclinic
loop_
_symmetry_equiv_pos_as_xyz
'x, y, z'
_cell_length_a     36.334574
_cell_length_b     36.271511
_cell_length_c     22.027668
_cell_angle_alpha  90.111995
_cell_angle_beta   90.160138
_cell_angle_gamma 119.86022
loop_
_atom_site_label
_atom_site_type_symbol
_atom_site_fract_x
_atom_site_fract_y
_atom_site_fract_z
_atom_type_partial_charge
C0 C 0.23565 0.32221 0.8646 0.0
C1 C 0.24316 0.294 0.83294 0.0
N2 N 0.26647 0.28307 0.86829 0.0
N3 N 0.25385 0.32898 0.91989 0.0
C4 C 0.27207 0.30425 0.92121 0.0
H5 H 0.21897 0.33782 0.8477 0.0
Co6 Co 0.25361 0.36854 0.97341 0.0
C7 C 0.30072 0.37096 0.08249 0.0
O8 O 0.32145 0.41251 0.07661 0.0
N9 N 0.25131 0.40823 0.02797 0.0
C10 C 0.26165 0.46383 0.08408 0.0
C11 C 0.26806 0.45092 0.02818 0.0
C12 C 0.23304 0.39619 0.0833 0.0
N13 N 0.23977 0.42922 0.11903 0.0
O14 O 0.19611 0.32881 0.99443 0.0
H15 H 0.28586 0.47226 0.99203 0.0
H16 H 0.21744 0.3636 0.09858 0.0
O17 O 0.27381 0.34771 0.0416 0.0
C18 C 0.1681 0.3341 0.96733 0.0
O19 O 0.18045 0.36383 0.92577 0.0
N20 N 0.30943 0.40796 0.94841 0.0
C21 C 0.38937 0.4748 0.91998 0.0
C22 C 0.38505 0.43816 0.94764 0.0
C23 C 0.34454 0.40431 0.95959 0.0
C24 C 0.31298 0.44025 0.91285 0.0
C25 C 0.35286 0.47472 0.89918 0.0
H26 H 0.3418 0.37633 0.98096 0.0
H27 H 0.28466 0.44058 0.89844 0.0
H28 H 0.29064 0.30317 0.95895 0.0
H29 H 0.23296 0.28302 0.78695 0.0
H30 H 0.27486 0.49649 0.09873 0.0
H31 H 0.41269 0.43622 0.96132 0.0
H32 H 0.35504 0.50185 0.87543 0.0
C33 C 0.92233 0.22899 0.0303 0.0
C34 C 0.95761 0.2348 -0.0008 0.0
N35 N 0.99177 0.25609 0.03555 0.0
N36 N 0.93423 0.24683 0.08573 0.0
C37 C 0.97672 0.26303 0.08776 0.0
H38 H 0.89009 0.21352 0.01326 0.0
Co39 Co 0.8969 0.24844 0.14124 0.0
C40 C 0.94989 0.29784 0.24594 0.0
O41 O 0.92811 0.31791 0.24783 0.0
N42 N 0.85733 0.24812 0.19727 0.0
C43 C 0.80205 0.24638 0.24354 0.0
C44 C 0.82295 0.2527 0.18919 0.0
C45 C 0.85506 0.23689 0.25615 0.0
N46 N 0.82292 0.23722 0.28615 0.0
O47 O 0.87906 0.19102 0.16442 0.0
H48 H 0.81212 0.25832 0.14646 0.0
H49 H 0.87713 0.22884 0.27678 0.0
O50 O 0.9412 0.26942 0.20513 0.0
C51 C 0.84191 0.16375 0.14661 0.0
O52 O 0.82058 0.17625 0.1123 0.0
N53 N 0.91295 0.30428 0.11507 0.0
C54 C 0.92446 0.38419 0.08784 0.0
C55 C 0.95753 0.3802 0.11365 0.0
C56 C 0.95165 0.3397 0.12483 0.0
C57 C 0.88311 0.30762 0.08169 0.0
C58 C 0.8878 0.34742 0.06853 0.0
H59 H 0.97777 0.33725 0.14369 0.0
H60 H 0.85484 0.2792 0.06688 0.0
H61 H 0.99655 0.2812 0.12559 0.0
H62 H 0.95824 0.2248 0.95305 0.0
H63 H 0.77283 0.24689 0.24998 0.0
H64 H 0.98723 0.40807 0.12616 0.0
H65 H 0.86233 0.34937 0.04588 0.0
C66 C 0.70495 0.91933 0.20535 0.0
C67 C 0.73479 0.95682 0.17915 0.0
N68 N 0.74392 0.98874 0.21848 0.0
N69 N 0.69552 0.92751 0.2611 0.0
C70 C 0.71996 0.97009 0.26796 0.0
H71 H 0.69042 0.88814 0.18461 0.0
Co72 Co 0.65573 0.88664 0.31271 0.0
C73 C 0.65653 0.93266 0.42376 0.0
O74 O 0.61494 0.90907 0.42532 0.0
N75 N 0.61612 0.84415 0.36496 0.0
C76 C 0.55967 0.79432 0.41392 0.0
C77 C 0.57416 0.81586 0.35999 0.0
C78 C 0.62651 0.8373 0.42118 0.0
N79 N 0.59273 0.80827 0.45251 0.0
O80 O 0.69517 0.86757 0.33228 0.0
H81 H 0.55447 0.81136 0.32092 0.0
H82 H 0.65821 0.85506 0.44008 0.0
O83 O 0.67734 0.92725 0.38117 0.0
C84 C 0.68977 0.83533 0.30179 0.0
O85 O 0.65986 0.81983 0.26005 0.0
N86 N 0.61616 0.90413 0.2894 0.0
C87 C 0.54932 0.91825 0.26113 0.0
C88 C 0.58474 0.94882 0.29322 0.0
C89 C 0.61865 0.94189 0.30483 0.0
C90 C 0.58466 0.87696 0.25116 0.0
C91 C 0.55033 0.88289 0.23739 0.0
H92 H 0.64616 0.96663 0.32772 0.0
H93 H 0.58512 0.8493 0.23367 0.0
H94 H 0.72011 0.98728 0.30821 0.0
H95 H 0.74762 0.96057 0.13384 0.0
H96 H 0.52697 0.77186 0.42476 0.0
H97 H 0.58598 0.97758 0.30969 0.0
H98 H 0.52409 0.85922 0.21063 0.0
C99 C 0.80476 0.70105 0.36088 0.0
C100 C 0.79732 0.72966 0.3299 0.0
N101 N 0.7706 0.7372 0.36299 0.0
N102 N 0.78297 0.69065 0.41333 0.0
C103 C 0.76265 0.7134 0.41354 0.0
H104 H 0.82454 0.6883 0.34598 0.0
Co105 Co 0.7822 0.65151 0.46853 0.0
C106 C 0.743 0.66071 0.58074 0.0
O107 O 0.72373 0.61935 0.5885 0.0
N108 N 0.78287 0.61188 0.52469 0.0
C109 C 0.77094 0.555 0.57831 0.0
C110 C 0.7637 0.56897 0.52405 0.0
C111 C 0.80326 0.62295 0.57895 0.0
N112 N 0.79581 0.58905 0.61318 0.0
O113 O 0.84112 0.68957 0.48708 0.0
H114 H 0.7442 0.54826 0.48813 0.0
H115 H 0.8215 0.65556 0.59431 0.0
O116 O 0.7659 0.67758 0.53376 0.0
C117 C 0.86654 0.67722 0.4691 0.0
O118 O 0.85146 0.64213 0.4368 0.0
N119 N 0.7251 0.61329 0.44659 0.0
C120 C 0.64498 0.54488 0.42158 0.0
C121 C 0.6492 0.58031 0.45309 0.0
C122 C 0.68977 0.61477 0.4643 0.0
C123 C 0.72096 0.58208 0.40792 0.0
C124 C 0.68116 0.54673 0.39631 0.0
H125 H 0.69234 0.64169 0.48878 0.0
H126 H 0.74912 0.58283 0.39039 0.0
H127 H 0.74143 0.71171 0.44907 0.0
H128 H 0.81061 0.74383 0.28643 0.0
H129 H 0.7564 0.52211 0.59206 0.0
H130 H 0.62164 0.58049 0.47134 0.0
H131 H 0.67884 0.52032 0.37017 0.0
C132 C 0.11112 0.78611 0.5403 0.0
C133 C 0.07431 0.77878 0.51155 0.0
N134 N 0.04117 0.75187 0.5459 0.0
N135 N 0.10119 0.76412 0.59266 0.0
C136 C 0.05833 0.74378 0.595 0.0
H137 H 0.14313 0.80599 0.52399 0.0
Co138 Co 0.14049 0.76419 0.64701 0.0
C139 C 0.09233 0.71972 0.75625 0.0
O140 O 0.11567 0.70143 0.76055 0.0
N141 N 0.18141 0.76592 0.70265 0.0
C142 C 0.22852 0.75676 0.75598 0.0
C143 C 0.2078 0.74962 0.70106 0.0
C144 C 0.18856 0.78461 0.75803 0.0
N145 N 0.21605 0.77857 0.7916 0.0
O146 O 0.15897 0.82247 0.66706 0.0
H147 H 0.21163 0.73274 0.6636 0.0
H148 H 0.17163 0.79997 0.77513 0.0
O149 O 0.09841 0.74538 0.7126 0.0
C150 C 0.19606 0.84922 0.64884 0.0
O151 O 0.21729 0.83566 0.61643 0.0
N152 N 0.12357 0.70739 0.62325 0.0
C153 C 0.11197 0.62723 0.59573 0.0
C154 C 0.08057 0.63127 0.62667 0.0
C155 C 0.08635 0.67171 0.63823 0.0
C156 C 0.15136 0.70376 0.58566 0.0
C157 C 0.14664 0.6639 0.57217 0.0
H158 H 0.06122 0.67382 0.66083 0.0
H159 H 0.17892 0.73219 0.56932 0.0
H160 H 0.03992 0.72361 0.63211 0.0
H161 H 0.072 0.79131 0.46803 0.0
H162 H 0.25032 0.74599 0.76923 0.0
H163 H 0.05221 0.60344 0.64274 0.0
H164 H 0.17088 0.66193 0.54621 0.0
C165 C 0.32175 0.09619 0.7021 0.0
C166 C 0.29253 0.05777 0.67677 0.0
N167 N 0.28786 0.02659 0.71453 0.0
N168 N 0.33516 0.08921 0.75571 0.0
C169 C 0.31369 0.04649 0.76221 0.0
H170 H 0.33321 0.1272 0.68209 0.0
Co171 Co 0.37628 0.1309 0.80555 0.0
C172 C 0.37692 0.08796 0.91878 0.0
O173 O 0.41848 0.11177 0.92014 0.0
N174 N 0.41745 0.17401 0.85647 0.0
C175 C 0.47527 0.21942 0.90831 0.0
C176 C 0.4603 0.19742 0.85456 0.0
C177 C 0.40743 0.18417 0.91071 0.0
N178 N 0.44183 0.21072 0.94384 0.0
O179 O 0.33762 0.15062 0.82585 0.0
H180 H 0.4802 0.19742 0.81846 0.0
H181 H 0.37523 0.17011 0.92723 0.0
O182 O 0.35583 0.09183 0.87502 0.0
C183 C 0.34448 0.184 0.79748 0.0
O184 O 0.37465 0.19942 0.75649 0.0
N185 N 0.41488 0.11282 0.78138 0.0
C186 C 0.48242 0.10068 0.75134 0.0
C187 C 0.44916 0.07092 0.7871 0.0
C188 C 0.41481 0.07679 0.79986 0.0
C189 C 0.44394 0.13869 0.73974 0.0
C190 C 0.47862 0.13371 0.72486 0.0
H191 H 0.38913 0.05285 0.82618 0.0
H192 H 0.44195 0.16535 0.72164 0.0
H193 H 0.31711 0.0301 0.80086 0.0
H194 H 0.27721 0.05299 0.63295 0.0
H195 H 0.50832 0.23815 0.92118 0.0
H196 H 0.45019 0.0439 0.80604 0.0
H197 H 0.50331 0.15679 0.69578 0.0
C198 C 0.70299 0.79174 0.96246 0.0
C199 C 0.73302 0.78612 0.99294 0.0
N200 N 0.7437 0.76253 0.95768 0.0
N201 N 0.69456 0.77147 0.90855 0.0
C202 C 0.71966 0.75384 0.90714 0.0
H203 H 0.68792 0.80914 0.97868 0.0
Co204 Co 0.65559 0.76924 0.85189 0.0
C205 C 0.6712 0.73425 0.73666 0.0
O206 O 0.63128 0.71678 0.71987 0.0
N207 N 0.61589 0.76822 0.7953 0.0
C208 C 0.55715 0.75294 0.74372 0.0
C209 C 0.57301 0.74753 0.79762 0.0
C210 C 0.62516 0.78796 0.74081 0.0
N211 N 0.5901 0.77785 0.70782 0.0
O212 O 0.69291 0.82788 0.83329 0.0
H213 H 0.55391 0.72854 0.83493 0.0
H214 H 0.65712 0.80639 0.72343 0.0
O215 O 0.68347 0.75342 0.78789 0.0
C216 C 0.68078 0.8537 0.85003 0.0
O217 O 0.64503 0.83919 0.88002 0.0
N218 N 0.61798 0.71221 0.87381 0.0
C219 C 0.54988 0.6325 0.90175 0.0
C220 C 0.58095 0.63647 0.86084 0.0
C221 C 0.61525 0.67656 0.84843 0.0
C222 C 0.59054 0.70842 0.9187 0.0
C223 C 0.55576 0.66877 0.93295 0.0
H224 H 0.63854 0.67825 0.81743 0.0
H225 H 0.59387 0.73677 0.94023 0.0
H226 H 0.71935 0.73385 0.87081 0.0
H227 H 0.74586 0.79825 0.03764 0.0
H228 H 0.524 0.73853 0.73111 0.0
H229 H 0.57817 0.60887 0.83748 0.0
H230 H 0.53253 0.66688 0.96537 0.0
C231 C 0.92758 0.69996 0.12304 0.0
C232 C 0.96506 0.72993 0.14963 0.0
N233 N 0.99679 0.73931 0.11029 0.0
N234 N 0.93563 0.69075 0.06704 0.0
C235 C 0.97809 0.71545 0.06046 0.0
H236 H 0.89654 0.68515 0.14372 0.0
Co237 Co 0.89512 0.65082 0.01446 0.0
C238 C 0.9424 0.64924 0.90701 0.0
O239 O 0.91855 0.60759 0.90636 0.0
N240 N 0.85317 0.61118 0.96074 0.0
C241 C 0.80428 0.55487 0.90943 0.0
C242 C 0.82401 0.56938 0.96488 0.0
C243 C 0.84843 0.62156 0.90341 0.0
N244 N 0.82037 0.58778 0.87065 0.0
O245 O 0.87746 0.69072 0.9923 0.0
H246 H 0.81749 0.54987 0.00461 0.0
H247 H 0.86772 0.65298 0.88451 0.0
O248 O 0.93664 0.67107 0.94779 0.0
C249 C 0.8456 0.68675 0.02185 0.0
O250 O 0.83031 0.65867 0.0658 0.0
N251 N 0.91118 0.61081 0.04027 0.0
C252 C 0.92357 0.5433 0.0703 0.0
C253 C 0.9554 0.57891 0.04066 0.0
C254 C 0.94926 0.61321 0.0282 0.0
C255 C 0.88271 0.57914 0.07668 0.0
C256 C 0.88779 0.54441 0.09127 0.0
H257 H 0.97473 0.64083 0.00689 0.0
H258 H 0.85481 0.57983 0.09202 0.0
H259 H 0.99522 0.71579 0.02021 0.0
H260 H 0.96894 0.74264 0.19519 0.0
H261 H 0.78046 0.52253 0.89835 0.0
H262 H 0.98439 0.5799 0.02639 0.0
H263 H 0.86323 0.51796 0.11631 0.0
C264 C 0.2316 0.92325 0.28938 0.0
C265 C 0.23645 0.95924 0.31775 0.0
N266 N 0.26292 0.9933 0.28432 0.0
N267 N 0.25471 0.93436 0.23814 0.0
C268 C 0.2732 0.97728 0.23591 0.0
H269 H 0.21236 0.8909 0.30499 0.0
Co270 Co 0.25662 0.89491 0.18597 0.0
C271 C 0.30414 0.94273 0.07873 0.0
O272 O 0.3233 0.92009 0.07809 0.0
N273 N 0.2567 0.85365 0.1326 0.0
C274 C 0.26372 0.80299 0.08567 0.0
C275 C 0.26989 0.82496 0.13923 0.0
C276 C 0.2409 0.84682 0.07534 0.0
N277 N 0.24561 0.817 0.04542 0.0
O278 O 0.19899 0.87567 0.16198 0.0
H279 H 0.28346 0.81989 0.17966 0.0
H280 H 0.22709 0.86439 0.05528 0.0
O281 O 0.27691 0.93659 0.11992 0.0
C282 C 0.17219 0.83861 0.18046 0.0
O283 O 0.18529 0.81799 0.21518 0.0
N284 N 0.31274 0.91245 0.21349 0.0
C285 C 0.39236 0.92365 0.24234 0.0
C286 C 0.38873 0.95555 0.21192 0.0
C287 C 0.34847 0.94999 0.19988 0.0
C288 C 0.31592 0.88449 0.25138 0.0
C289 C 0.35554 0.88896 0.26545 0.0
H290 H 0.34647 0.97526 0.17727 0.0
H291 H 0.28737 0.85694 0.2674 0.0
H292 H 0.29445 0.9966 0.20027 0.0
H293 H 0.22145 0.96019 0.35964 0.0
H294 H 0.27336 0.7797 0.07659 0.0
H295 H 0.41668 0.98396 0.19626 0.0
H296 H 0.35718 0.86442 0.29123 0.0
C297 C 0.35498 0.24904 0.47409 0.0
C298 C 0.32696 0.25054 0.51455 0.0
N299 N 0.29329 0.24701 0.48339 0.0
N300 N 0.3391 0.24447 0.41755 0.0
C301 C 0.30024 0.24006 0.4254 0.0
H302 H 0.3866 0.25502 0.48456 0.0
Co303 Co 0.37027 0.2549 0.34562 0.0
C304 C 0.31837 0.29894 0.30768 0.0
O305 O 0.3089 0.30973 0.35982 0.0
N306 N 0.40095 0.26626 0.27285 0.0
C307 C 0.435 0.30313 0.19108 0.0
C308 C 0.41794 0.30458 0.24547 0.0
C309 C 0.40799 0.24177 0.23343 0.0
N310 N 0.42909 0.26376 0.18338 0.0
O311 O 0.32983 0.19893 0.31657 0.0
H312 H 0.41632 0.33168 0.26264 0.0
H313 H 0.39657 0.20825 0.24009 0.0
O314 O 0.33964 0.27963 0.30539 0.0
C315 C 0.33808 0.17214 0.34164 0.0
O316 O 0.37021 0.18652 0.3798 0.0
N317 N 0.41289 0.30792 0.3766 0.0
C318 C 0.48597 0.38446 0.4058 0.0
C319 C 0.44587 0.38131 0.40668 0.0
C320 C 0.40958 0.34254 0.39252 0.0
C321 C 0.45118 0.30964 0.38022 0.0
C322 C 0.48815 0.34767 0.39336 0.0
H323 H 0.37939 0.3409 0.39386 0.0
H324 H 0.45332 0.28166 0.36931 0.0
H325 H 0.27893 0.23587 0.38838 0.0
H326 H 0.33297 0.25783 0.56243 0.0
H327 H 0.44803 0.32838 0.15785 0.0
H328 H 0.44261 0.40868 0.41755 0.0
H329 H 0.51831 0.34847 0.39127 0.0
C330 C 0.11203 0.31097 0.62765 0.0
C331 C 0.07611 0.28327 0.65878 0.0
N332 N 0.04207 0.27507 0.62458 0.0
N333 N 0.10094 0.32006 0.57369 0.0
C334 C 0.05798 0.29734 0.5728 0.0
H335 H 0.14425 0.32439 0.64401 0.0
Co336 Co 0.1406 0.35916 0.51992 0.0
C337 C 0.09313 0.35906 0.41126 0.0
O338 O 0.11711 0.40069 0.411 0.0
N339 N 0.18233 0.39847 0.4659 0.0
C340 C 0.23169 0.45566 0.41753 0.0
C341 C 0.21148 0.44018 0.47205 0.0
C342 C 0.18777 0.38899 0.40829 0.0
N343 N 0.2161 0.42346 0.3773 0.0
O344 O 0.1595 0.31922 0.5004 0.0
H345 H 0.21774 0.45898 0.51265 0.0
H346 H 0.16883 0.35785 0.38794 0.0
O347 O 0.09835 0.33718 0.45265 0.0
C348 C 0.19336 0.32879 0.53002 0.0
O349 O 0.20771 0.36123 0.56768 0.0
N350 N 0.12409 0.39938 0.54426 0.0
C351 C 0.11252 0.46766 0.57422 0.0
C352 C 0.08094 0.43253 0.54278 0.0
C353 C 0.08657 0.39783 0.53045 0.0
C354 C 0.15218 0.43055 0.58216 0.0
C355 C 0.14754 0.46559 0.59672 0.0
H356 H 0.06114 0.37057 0.50807 0.0
H357 H 0.17952 0.42921 0.59883 0.0
H358 H 0.03861 0.29828 0.5361 0.0
H359 H 0.07515 0.27052 0.70351 0.0
H360 H 0.25539 0.48825 0.40792 0.0
H361 H 0.0524 0.43211 0.52733 0.0
H362 H 0.17193 0.49153 0.62312 0.0
C363 C 0.79579 0.09973 0.7941 0.0
C364 C 0.787 0.06214 0.82166 0.0
N365 N 0.76415 0.03014 0.78258 0.0
N366 N 0.77874 0.09136 0.73788 0.0
C367 C 0.76004 0.04868 0.73198 0.0
H368 H 0.81257 0.13107 0.81433 0.0
Co369 Co 0.78011 0.1318 0.6848 0.0
C370 C 0.73079 0.08251 0.57769 0.0
O371 O 0.7125 0.10598 0.5762 0.0
N372 N 0.78353 0.17403 0.63134 0.0
C373 C 0.78838 0.23144 0.58705 0.0
C374 C 0.78079 0.2094 0.64071 0.0
C375 C 0.79524 0.17693 0.57263 0.0
N376 N 0.79668 0.21034 0.54372 0.0
O377 O 0.83747 0.14857 0.66359 0.0
H378 H 0.77534 0.21994 0.68379 0.0
H379 H 0.80214 0.15426 0.55121 0.0
O380 O 0.75885 0.08954 0.61831 0.0
C381 C 0.86493 0.18131 0.69239 0.0
O382 O 0.85151 0.19799 0.73374 0.0
N383 N 0.72405 0.11664 0.70906 0.0
C384 C 0.64385 0.10486 0.73429 0.0
C385 C 0.64818 0.07206 0.70822 0.0
C386 C 0.68869 0.07806 0.69794 0.0
C387 C 0.72026 0.14624 0.74251 0.0
C388 C 0.68033 0.14142 0.75466 0.0
H389 H 0.69111 0.05204 0.67869 0.0
H390 H 0.74839 0.17421 0.75871 0.0
H391 H 0.74304 0.03119 0.69187 0.0
H392 H 0.79509 0.05841 0.86771 0.0
H393 H 0.78913 0.26141 0.58153 0.0
H394 H 0.62053 0.04239 0.69492 0.0
H395 H 0.67807 0.16664 0.77768 0.0
C396 C 0.226 0.39373 0.28226 0.0
C397 C 0.22264 0.42591 0.3127 0.0
C398 C 0.23074 0.39462 0.21913 0.0
C399 C 0.23228 0.42777 0.18371 0.0
H400 H 0.22547 0.36794 0.30767 0.0
H401 H 0.23418 0.36949 0.19841 0.0
S402 S 0.21826 0.5162 0.24147 0.0
N403 N 0.21693 0.48955 0.30288 0.0
N404 N 0.22548 0.49118 0.18406 0.0
C405 C 0.22739 0.45937 0.21367 0.0
C406 C 0.22274 0.4585 0.27813 0.0
C407 C 0.83002 0.20742 0.38325 0.0
C408 C 0.81467 0.23032 0.35055 0.0
C409 C 0.82535 0.20257 0.44606 0.0
C410 C 0.80383 0.21912 0.47945 0.0
H411 H 0.84584 0.19282 0.36039 0.0
H412 H 0.83894 0.18557 0.46835 0.0
S413 S 0.75664 0.28123 0.41597 0.0
N414 N 0.77802 0.27102 0.35696 0.0
N415 N 0.76587 0.25859 0.47442 0.0
C416 C 0.78769 0.24167 0.44744 0.0
C417 C 0.79362 0.24777 0.38325 0.0
C418 C 0.61716 0.83292 0.55723 0.0
C419 C 0.59146 0.79988 0.51657 0.0
C420 C 0.61609 0.82566 0.61982 0.0
C421 C 0.58897 0.78527 0.644 0.0
H422 H 0.63793 0.86476 0.54065 0.0
H423 H 0.63641 0.85177 0.64967 0.0
S424 S 0.51812 0.68742 0.55689 0.0
N425 N 0.54001 0.72485 0.50482 0.0
N426 N 0.53772 0.71129 0.6226 0.0
C427 C 0.56338 0.75191 0.60397 0.0
C428 C 0.56465 0.75922 0.54022 0.0
C429 C 0.81006 0.62303 0.71465 0.0
C430 C 0.80493 0.58923 0.6772 0.0
C431 C 0.81423 0.62187 0.77768 0.0
C432 C 0.81406 0.58716 0.80601 0.0
H433 H 0.81 0.65039 0.69556 0.0
H434 H 0.81722 0.64822 0.80464 0.0
S435 S 0.81067 0.49471 0.72836 0.0
N436 N 0.80601 0.52272 0.67296 0.0
N437 N 0.81412 0.52079 0.79157 0.0
C438 C 0.81128 0.55416 0.7692 0.0
C439 C 0.80686 0.55523 0.70483 0.0
C440 C 0.2372 0.82889 0.87706 0.0
C441 C 0.22466 0.78795 0.85509 0.0
C442 C 0.24392 0.83812 0.93929 0.0
C443 C 0.2377 0.80652 0.98178 0.0
H444 H 0.24214 0.8539 0.84572 0.0
H445 H 0.25457 0.87037 0.95413 0.0
S446 S 0.19995 0.69308 0.94707 0.0
N447 N 0.20354 0.71498 0.88009 0.0
N448 N 0.21511 0.73189 0.99732 0.0
C449 C 0.22416 0.76518 0.96021 0.0
C450 C 0.21785 0.75599 0.89679 0.0
C451 C 0.40887 0.19549 0.04561 0.0
C452 C 0.44192 0.22276 0.00639 0.0
C453 C 0.40617 0.20787 0.10498 0.0
C454 C 0.43658 0.24787 0.12755 0.0
H455 H 0.38437 0.16455 0.03009 0.0
H456 H 0.379 0.18685 0.13225 0.0
S457 S 0.53236 0.3288 0.04689 0.0
N458 N 0.50733 0.29043 0.99652 0.0
N459 N 0.50345 0.31256 0.1091 0.0
C460 C 0.47133 0.27415 0.09046 0.0
C461 C 0.47375 0.26189 0.02971 0.0
C462 C 0.28506 0.22718 0.88906 0.0
C463 C 0.28542 0.25805 0.85014 0.0
C464 C 0.30298 0.20225 0.87115 0.0
C465 C 0.3225 0.20788 0.81404 0.0
H466 H 0.27052 0.22211 0.93338 0.0
H467 H 0.30232 0.1791 0.90276 0.0
S468 S 0.33298 0.28585 0.69661 0.0
N469 N 0.30773 0.29364 0.75287 0.0
N470 N 0.34109 0.24708 0.71898 0.0
C471 C 0.32307 0.23883 0.77495 0.0
C472 C 0.30464 0.26384 0.79303 0.0
C473 C 0.09187 0.30777 0.9438 0.0
C474 C 0.12277 0.31032 0.98494 0.0
C475 C 0.04913 0.2891 0.96029 0.0
C476 C 0.03555 0.27271 0.01884 0.0
H477 H 0.10082 0.32084 0.89855 0.0
H478 H 0.02672 0.28877 0.92753 0.0
S479 S 0.10321 0.26987 0.14306 0.0
N480 N 0.13644 0.29338 0.08643 0.0
N481 N 0.05594 0.2586 0.11747 0.0
C482 C 0.06584 0.27423 0.06019 0.0
C483 C 0.10944 0.29281 0.04316 0.0
C484 C 0.83359 0.09142 0.15852 0.0
C485 C 0.81978 0.12044 0.17168 0.0
C486 C 0.80908 0.04848 0.17529 0.0
C487 C 0.77054 0.03353 0.20678 0.0
H488 H 0.86249 0.10155 0.13299 0.0
H489 H 0.81996 0.02662 0.16281 0.0
S490 S 0.72244 0.0982 0.25498 0.0
N491 N 0.76651 0.1322 0.2199 0.0
N492 N 0.72082 0.0519 0.25219 0.0
C493 C 0.75749 0.06288 0.22226 0.0
C494 C 0.78203 0.10626 0.2044 0.0
C495 C 0.74763 0.78901 0.39005 0.0
C496 C 0.75236 0.76323 0.34646 0.0
C497 C 0.72897 0.81375 0.37488 0.0
C498 C 0.7136 0.8129 0.31582 0.0
H499 H 0.75846 0.79001 0.43619 0.0
H500 H 0.72536 0.83259 0.4101 0.0
S501 S 0.71817 0.75041 0.18527 0.0
N502 N 0.74017 0.73846 0.24189 0.0
N503 N 0.7051 0.78452 0.2134 0.0
C504 C 0.71852 0.7875 0.27181 0.0
C505 C 0.7379 0.7628 0.28707 0.0
C506 C 0.98138 0.75858 0.50437 0.0
C507 C 0.9968 0.73351 0.53077 0.0
C508 C 0.93864 0.74067 0.48643 0.0
C509 C 0.91034 0.69691 0.49287 0.0
H510 H 1.00261 0.79224 0.49746 0.0
H511 H 0.92804 0.76083 0.46565 0.0
S512 S 0.93427 0.61771 0.5609 0.0
N513 N 0.97979 0.66292 0.56397 0.0
N514 N 0.89996 0.62926 0.52939 0.0
C515 C 0.92514 0.67169 0.52001 0.0
C516 C 0.96826 0.68998 0.53923 0.0
C517 C 0.22282 0.96318 0.67712 0.0
C518 C 0.26377 0.98151 0.70283 0.0
C519 C 0.19995 0.91971 0.66199 0.0
C520 C 0.21787 0.89359 0.67068 0.0
H521 H 0.20858 0.98272 0.66837 0.0
H522 H 0.16881 0.90685 0.64143 0.0
S523 S 0.32323 0.92551 0.73798 0.0
N524 N 0.3205 0.96961 0.73783 0.0
N525 N 0.27794 0.88837 0.70853 0.0
C526 C 0.25835 0.9113 0.69726 0.0
C527 C 0.28123 0.95517 0.71362 0.0
C528 C 0.79746 0.71492 0.04812 0.0
C529 C 0.82325 0.7101 0.00489 0.0
C530 C 0.77254 0.73308 0.03267 0.0
C531 C 0.77185 0.74662 0.97318 0.0
H532 H 0.796 0.70401 0.09427 0.0
H533 H 0.75251 0.73521 0.06709 0.0
S534 S 0.83484 0.74289 0.84338 0.0
N535 N 0.8477 0.72183 0.90028 0.0
N536 N 0.80059 0.7558 0.87126 0.0
C537 C 0.79813 0.74287 0.92968 0.0
C538 C 0.82398 0.72479 0.94558 0.0
C539 C 0.05671 0.80498 0.15299 0.0
C540 C 0.04153 0.76598 0.12208 0.0
C541 C 0.09975 0.82981 0.1692 0.0
C542 C 0.12864 0.81587 0.15613 0.0
H543 H 0.03498 0.81601 0.16529 0.0
H544 H 0.11011 0.85914 0.19418 0.0
S545 S 0.10563 0.71715 0.07461 0.0
N546 N 0.05943 0.71555 0.07749 0.0
N547 N 0.13992 0.7618 0.10893 0.0
C548 C 0.11417 0.77754 0.12421 0.0
C549 C 0.07068 0.75269 0.10683 0.0
C550 C 0.28431 0.0673 0.2543 0.0
C551 C 0.27906 0.03755 0.29943 0.0
C552 C 0.30123 0.11075 0.26843 0.0
C553 C 0.31418 0.12593 0.32798 0.0
H554 H 0.27544 0.05689 0.20778 0.0
H555 H 0.30578 0.13275 0.23219 0.0
S556 S 0.30685 0.06121 0.46259 0.0
N557 N 0.28792 0.02666 0.40608 0.0
N558 N 0.31951 0.10765 0.43249 0.0
C559 C 0.30842 0.09637 0.37348 0.0
C560 C 0.29092 0.05237 0.3593 0.0
C561 C 0.22533 0.24779 0.47767 0.0
C562 C 0.26693 0.26486 0.5007 0.0
C563 C 0.20129 0.26807 0.4877 0.0
C564 C 0.21802 0.30633 0.521 0.0
H565 H 0.2116 0.2189 0.45082 0.0
H566 H 0.16959 0.25389 0.4687 0.0
S567 S 0.3268 0.36615 0.58683 0.0
N568 N 0.32455 0.32391 0.55502 0.0
N569 N 0.27967 0.36108 0.57527 0.0
C570 C 0.25962 0.32362 0.54428 0.0
C571 C 0.28398 0.30319 0.53381 0.0
C572 C 0.96683 0.22344 0.60079 0.0
C573 C 0.9981 0.25081 0.64232 0.0
C574 C 0.92388 0.19968 0.61775 0.0
C575 C 0.91067 0.20309 0.67657 0.0
H576 H 0.97572 0.22029 0.55501 0.0
H577 H 0.90077 0.17945 0.58411 0.0
S578 S 0.98017 0.27096 0.80179 0.0
N579 N 1.01276 0.28028 0.74445 0.0
N580 N 0.9326 0.23583 0.77638 0.0
C581 C 0.94177 0.23027 0.71844 0.0
C582 C 0.98532 0.25407 0.70134 0.0
C583 C 0.76623 0.96824 0.82519 0.0
C584 C 0.74382 0.98537 0.79541 0.0
C585 C 0.74613 0.92499 0.8409 0.0
C586 C 0.70276 0.89801 0.82881 0.0
H587 H 0.79944 0.98851 0.83646 0.0
H588 H 0.7642 0.91294 0.86433 0.0
S589 S 0.63023 0.92689 0.75071 0.0
N590 N 0.67624 0.9716 0.75318 0.0
N591 N 0.63838 0.89075 0.78384 0.0
C592 C 0.6802 0.91458 0.79847 0.0
C593 C 0.70077 0.95821 0.78143 0.0
C594 C 0.2956 0.30993 0.14268 0.0
C595 C 0.30505 0.3525 0.13994 0.0
C596 C 0.29978 0.29249 0.19737 0.0
C597 C 0.31203 0.31664 0.25124 0.0
H598 H 0.28566 0.29027 0.10219 0.0
H599 H 0.29317 0.25987 0.19765 0.0
S600 S 0.34048 0.42943 0.26856 0.0
N601 N 0.32816 0.41855 0.1961 0.0
N602 N 0.33404 0.38502 0.29869 0.0
C603 C 0.32104 0.35894 0.24928 0.0
C604 C 0.31811 0.37708 0.1936 0.0
C605 C 1.0 0.34867 0.3221 0.0
C606 C 0.98571 0.31074 0.28895 0.0
C607 C 0.03423 0.36317 0.36213 0.0
C608 C 0.05542 0.34018 0.37155 0.0
H609 H 0.98515 0.36799 0.31654 0.0
H610 H 0.04425 0.39289 0.38593 0.0
S611 S 0.03058 0.23859 0.2975 0.0
N612 N 0.99538 0.25003 0.26881 0.0
N613 N 0.0598 0.27741 0.34563 0.0
C614 C 0.04122 0.30176 0.34005 0.0
C615 C 1.00644 0.28708 0.2982 0.0
C616 C 0.65343 0.98939 0.48226 0.0
C617 C 0.67714 0.97046 0.46344 0.0
C618 C 0.67148 0.0258 0.51855 0.0
C619 C 0.7138 0.04447 0.53844 0.0
H620 H 0.62069 0.9764 0.46808 0.0
H621 H 0.65173 0.03906 0.53172 0.0
S622 S 0.7894 1.00694 0.50263 0.0
N623 N 0.74518 0.97292 0.46709 0.0
N624 N 0.77908 0.04127 0.53717 0.0
C625 C 0.73792 0.02573 0.5206 0.0
C626 C 0.71963 0.98884 0.48246 0.0
C627 C 0.72269 0.71601 0.60064 0.0
C628 C 0.73318 0.6861 0.62285 0.0
C629 C 0.70495 0.73388 0.63911 0.0
C630 C 0.69884 0.72362 0.70115 0.0
H631 H 0.72533 0.72335 0.5527 0.0
H632 H 0.69424 0.75438 0.61975 0.0
S633 S 0.7251 0.6501 0.78212 0.0
N634 N 0.73802 0.64852 0.71081 0.0
N635 N 0.70759 0.6842 0.78357 0.0
C636 C 0.71216 0.69621 0.7245 0.0
C637 C 0.72865 0.67689 0.68511 0.0
C638 C 0.03484 0.66143 0.81459 0.0
C639 C 0.05429 0.70372 0.79453 0.0
C640 C 0.99841 0.6443 0.85018 0.0
C641 C 0.98029 0.66894 0.86809 0.0
H642 H 0.04749 0.64102 0.80207 0.0
H643 H 0.98477 0.61152 0.8645 0.0
S644 S 0.01919 0.7816 0.82814 0.0
N645 N 0.05283 0.77001 0.79462 0.0
N646 N 0.98442 0.73787 0.86347 0.0
C647 C 0.99948 0.71144 0.84887 0.0
C648 C 0.03639 0.72877 0.81141 0.0
C649 C 0.36473 1.00401 0.03044 0.0
C650 C 0.3208 0.98035 0.03975 0.0
C651 C 0.38231 0.03934 0.99253 0.0
C652 C 0.35658 0.05201 0.96145 0.0
H653 H 0.38586 0.99524 0.05284 0.0
H654 H 0.41642 0.05617 0.98664 0.0
S655 S 0.23932 1.00045 0.97117 0.0
N656 N 0.25167 0.97195 0.01651 0.0
N657 N 0.28468 0.03825 0.94329 0.0
C658 C 0.31243 0.02874 0.97072 0.0
C659 C 0.29455 0.99298 0.01051 0.0
C660 C 0.48558 0.57152 0.85548 0.0
C661 C 0.51004 0.59136 0.90766 0.0
C662 C 0.44671 0.53353 0.85957 0.0
C663 C 0.4314 0.51372 0.91584 0.0
H664 H 0.49617 0.58601 0.8113 0.0
H665 H 0.42846 0.5196 0.81852 0.0
S666 S 0.48369 0.55236 0.06567 0.0
N667 N 0.51644 0.58828 0.01704 0.0
N668 N 0.44354 0.5165 0.02479 0.0
C669 C 0.45584 0.53287 0.96822 0.0
C670 C 0.49511 0.57185 0.96414 0.0
C671 C 0.9237 0.44218 0.02729 0.0
C672 C 0.92716 0.42619 0.08378 0.0
C673 C 0.92383 0.48085 0.02335 0.0
C674 C 0.92644 0.50421 0.07584 0.0
H675 H 0.9207 0.42457 0.98603 0.0
H676 H 0.9208 0.49209 0.97908 0.0
S677 S 0.93575 0.4759 0.23428 0.0
N678 N 0.93372 0.43679 0.19312 0.0
N679 N 0.9328 0.50896 0.18561 0.0
C680 C 0.93 0.48866 0.13244 0.0
C681 C 0.9307 0.44975 0.13642 0.0
C682 C 0.48894 0.92272 0.30756 0.0
C683 C 0.51077 0.92219 0.25515 0.0
C684 C 0.45081 0.92364 0.30334 0.0
C685 C 0.43381 0.92508 0.24658 0.0
H686 H 0.50088 0.92129 0.35211 0.0
H687 H 0.43444 0.92308 0.34466 0.0
S688 S 0.47937 0.9254 0.09597 0.0
N689 N 0.51293 0.92362 0.14503 0.0
N690 N 0.44185 0.92637 0.13697 0.0
C691 C 0.45583 0.92548 0.19393 0.0
C692 C 0.49416 0.92373 0.19823 0.0
C693 C 0.53085 0.46255 0.38369 0.0
C694 C 0.52556 0.42614 0.41443 0.0
C695 C 0.56935 0.50127 0.38671 0.0
C696 C 0.60393 0.50469 0.42 0.0
H697 H 0.5055 0.46083 0.35565 0.0
H698 H 0.57245 0.52838 0.36176 0.0
S699 S 0.60537 0.42095 0.51425 0.0
N700 N 0.55732 0.39772 0.48404 0.0
N701 N 0.62985 0.47001 0.48785 0.0
C702 C 0.59876 0.46916 0.45237 0.0
C703 C 0.55955 0.43 0.45003 0.0
C704 C 0.11041 0.56832 0.53377 0.0
C705 C 0.10975 0.58537 0.59086 0.0
C706 C 0.11003 0.5295 0.52888 0.0
C707 C 0.10996 0.50699 0.5809 0.0
H708 H 0.11127 0.58513 0.49272 0.0
H709 H 0.11085 0.51751 0.48411 0.0
S710 S 0.10845 0.53823 0.74066 0.0
N711 N 0.10861 0.57667 0.70034 0.0
N712 N 0.10892 0.50428 0.69099 0.0
C713 C 0.10925 0.52367 0.63813 0.0
C714 C 0.10884 0.56271 0.64312 0.0
C715 C 0.58528 0.10439 0.7945 0.0
C716 C 0.60168 0.10159 0.73809 0.0
C717 C 0.54596 0.10276 0.79835 0.0
C718 C 0.52224 0.0992 0.74582 0.0
H719 H 0.603 0.10788 0.83582 0.0
H720 H 0.53449 0.10537 0.8426 0.0
S721 S 0.55143 0.09097 0.58746 0.0
N722 N 0.59117 0.09464 0.62874 0.0
N723 N 0.51768 0.0926 0.63601 0.0
C724 C 0.53826 0.09633 0.68924 0.0
C725 C 0.57788 0.09721 0.68539 0.0
loop_
_geom_bond_atom_site_label_1
_geom_bond_atom_site_label_2
_geom_bond_distance
_geom_bond_site_symmetry_2
_ccdc_geom_bond_type
C0 C1 1.351 . S
C0 N3 1.368 . S
C0 H5 0.931 . S
C1 C0 1.351 . S
C1 N2 1.373 . S
C1 H29 0.930 . S
N2 C1 1.373 . S
N2 C4 1.340 . S
N3 C0 1.368 . S
N3 C4 1.321 . S
N3 Co6 2.135 1_556 S
C4 N2 1.340 . S
C4 N3 1.321 . S
C4 H28 0.930 . S
H5 C0 0.931 . S
Co6 N3 2.135 1_554 S
Co6 N9 2.121 . S
Co6 O14 2.055 . S
Co6 O17 2.039 . S
Co6 N20 2.140 1_554 S
C7 O8 1.227 . S
C7 O17 1.265 . S
O8 C7 1.227 . S
N9 Co6 2.121 . S
N9 C11 1.375 . S
N9 C12 1.313 . S
C10 C11 1.338 . S
C10 N13 1.377 . S
C10 H30 0.930 . S
C11 N9 1.375 . S
C11 C10 1.338 . S
C11 H15 0.931 . S
C12 N9 1.313 . S
C12 N13 1.344 . S
C12 H16 0.930 . S
N13 C10 1.377 . S
N13 C12 1.344 . S
O14 Co6 2.055 . S
O14 C18 1.253 1_554 S
H15 C11 0.931 . S
H16 C12 0.930 . S
O17 Co6 2.039 . S
O17 C7 1.265 . S
C18 O14 1.253 1_556 S
C18 O19 1.227 . S
O19 C18 1.227 . S
N20 Co6 2.140 1_556 S
N20 C23 1.346 . S
N20 C24 1.345 . S
C21 C22 1.387 . S
C21 C25 1.391 . S
C22 C21 1.387 . S
C22 C23 1.369 . S
C22 H31 0.929 . S
C23 N20 1.346 . S
C23 C22 1.369 . S
C23 H26 0.928 . S
C24 N20 1.345 . S
C24 C25 1.371 . S
C24 H27 0.931 . S
C25 C21 1.391 . S
C25 C24 1.371 . S
C25 H32 0.930 . S
H26 C23 0.928 . S
H27 C24 0.931 . S
H28 C4 0.930 . S
H29 C1 0.930 . S
H30 C10 0.930 . S
H31 C22 0.929 . S
H32 C25 0.930 . S
C33 C34 1.351 1_554 S
C33 N36 1.368 . S
C33 H38 0.931 . S
C34 C33 1.351 1_556 S
C34 N35 1.373 1_556 S
C34 H62 0.930 . S
N35 C34 1.373 1_554 S
N35 C37 1.340 . S
N36 C33 1.368 . S
N36 C37 1.321 . S
N36 Co39 2.135 . S
C37 N35 1.340 . S
C37 N36 1.321 . S
C37 H61 0.930 . S
H38 C33 0.931 . S
Co39 N36 2.135 . S
Co39 N42 2.121 . S
Co39 O47 2.055 . S
Co39 O50 2.039 . S
Co39 N53 2.140 . S
C40 O41 1.227 . S
C40 O50 1.265 . S
O41 C40 1.227 . S
N42 Co39 2.121 . S
N42 C44 1.375 . S
N42 C45 1.313 . S
C43 C44 1.338 . S
C43 N46 1.377 . S
C43 H63 0.930 . S
C44 N42 1.375 . S
C44 C43 1.338 . S
C44 H48 0.931 . S
C45 N42 1.313 . S
C45 N46 1.344 . S
C45 H49 0.930 . S
N46 C43 1.377 . S
N46 C45 1.344 . S
O47 Co39 2.055 . S
O47 C51 1.253 . S
H48 C44 0.931 . S
H49 C45 0.930 . S
O50 Co39 2.039 . S
O50 C40 1.265 . S
C51 O47 1.253 . S
C51 O52 1.227 . S
O52 C51 1.227 . S
N53 Co39 2.140 . S
N53 C56 1.346 . S
N53 C57 1.345 . S
C54 C55 1.387 . S
C54 C58 1.391 . S
C55 C54 1.387 . S
C55 C56 1.369 . S
C55 H64 0.929 . S
C56 N53 1.346 . S
C56 C55 1.369 . S
C56 H59 0.928 . S
C57 N53 1.345 . S
C57 C58 1.371 . S
C57 H60 0.931 . S
C58 C54 1.391 . S
C58 C57 1.371 . S
C58 H65 0.930 . S
H59 C56 0.928 . S
H60 C57 0.931 . S
H61 C37 0.930 . S
H62 C34 0.930 . S
H63 C43 0.930 . S
H64 C55 0.929 . S
H65 C58 0.930 . S
C66 C67 1.351 . S
C66 N69 1.368 . S
C66 H71 0.931 . S
C67 C66 1.351 . S
C67 N68 1.373 . S
C67 H95 0.930 . S
N68 C67 1.373 . S
N68 C70 1.340 . S
N69 C66 1.368 . S
N69 C70 1.321 . S
N69 Co72 2.135 . S
C70 N68 1.340 . S
C70 N69 1.321 . S
C70 H94 0.930 . S
H71 C66 0.931 . S
Co72 N69 2.135 . S
Co72 N75 2.121 . S
Co72 O80 2.055 . S
Co72 O83 2.039 . S
Co72 N86 2.140 . S
C73 O74 1.227 . S
C73 O83 1.265 . S
O74 C73 1.227 . S
N75 Co72 2.121 . S
N75 C77 1.375 . S
N75 C78 1.313 . S
C76 C77 1.338 . S
C76 N79 1.377 . S
C76 H96 0.930 . S
C77 N75 1.375 . S
C77 C76 1.338 . S
C77 H81 0.931 . S
C78 N75 1.313 . S
C78 N79 1.344 . S
C78 H82 0.930 . S
N79 C76 1.377 . S
N79 C78 1.344 . S
O80 Co72 2.055 . S
O80 C84 1.253 . S
H81 C77 0.931 . S
H82 C78 0.930 . S
O83 Co72 2.039 . S
O83 C73 1.265 . S
C84 O80 1.253 . S
C84 O85 1.227 . S
O85 C84 1.227 . S
N86 Co72 2.140 . S
N86 C89 1.346 . S
N86 C90 1.345 . S
C87 C88 1.387 . S
C87 C91 1.391 . S
C88 C87 1.387 . S
C88 C89 1.369 . S
C88 H97 0.929 . S
C89 N86 1.346 . S
C89 C88 1.369 . S
C89 H92 0.928 . S
C90 N86 1.345 . S
C90 C91 1.371 . S
C90 H93 0.931 . S
C91 C87 1.391 . S
C91 C90 1.371 . S
C91 H98 0.930 . S
H92 C89 0.928 . S
H93 C90 0.931 . S
H94 C70 0.930 . S
H95 C67 0.930 . S
H96 C76 0.930 . S
H97 C88 0.929 . S
H98 C91 0.930 . S
C99 C100 1.351 . S
C99 N102 1.368 . S
C99 H104 0.931 . S
C100 C99 1.351 . S
C100 N101 1.373 . S
C100 H128 0.930 . S
N101 C100 1.373 . S
N101 C103 1.340 . S
N102 C99 1.368 . S
N102 C103 1.321 . S
N102 Co105 2.135 . S
C103 N101 1.340 . S
C103 N102 1.321 . S
C103 H127 0.930 . S
H104 C99 0.931 . S
Co105 N102 2.135 . S
Co105 N108 2.121 . S
Co105 O113 2.055 . S
Co105 O116 2.039 . S
Co105 N119 2.140 . S
C106 O107 1.227 . S
C106 O116 1.265 . S
O107 C106 1.227 . S
N108 Co105 2.121 . S
N108 C110 1.375 . S
N108 C111 1.313 . S
C109 C110 1.338 . S
C109 N112 1.377 . S
C109 H129 0.930 . S
C110 N108 1.375 . S
C110 C109 1.338 . S
C110 H114 0.931 . S
C111 N108 1.313 . S
C111 N112 1.344 . S
C111 H115 0.930 . S
N112 C109 1.377 . S
N112 C111 1.344 . S
O113 Co105 2.055 . S
O113 C117 1.253 . S
H114 C110 0.931 . S
H115 C111 0.930 . S
O116 Co105 2.039 . S
O116 C106 1.265 . S
C117 O113 1.253 . S
C117 O118 1.227 . S
O118 C117 1.227 . S
N119 Co105 2.140 . S
N119 C122 1.346 . S
N119 C123 1.345 . S
C120 C121 1.387 . S
C120 C124 1.391 . S
C121 C120 1.387 . S
C121 C122 1.369 . S
C121 H130 0.929 . S
C122 N119 1.346 . S
C122 C121 1.369 . S
C122 H125 0.928 . S
C123 N119 1.345 . S
C123 C124 1.371 . S
C123 H126 0.931 . S
C124 C120 1.391 . S
C124 C123 1.371 . S
C124 H131 0.930 . S
H125 C122 0.928 . S
H126 C123 0.931 . S
H127 C103 0.930 . S
H128 C100 0.930 . S
H129 C109 0.930 . S
H130 C121 0.929 . S
H131 C124 0.930 . S
C132 C133 1.351 . S
C132 N135 1.368 . S
C132 H137 0.931 . S
C133 C132 1.351 . S
C133 N134 1.373 . S
C133 H161 0.930 . S
N134 C133 1.373 . S
N134 C136 1.340 . S
N135 C132 1.368 . S
N135 C136 1.321 . S
N135 Co138 2.135 . S
C136 N134 1.340 . S
C136 N135 1.321 . S
C136 H160 0.930 . S
H137 C132 0.931 . S
Co138 N135 2.135 . S
Co138 N141 2.121 . S
Co138 O146 2.055 . S
Co138 O149 2.039 . S
Co138 N152 2.140 . S
C139 O140 1.227 . S
C139 O149 1.265 . S
O140 C139 1.227 . S
N141 Co138 2.121 . S
N141 C143 1.375 . S
N141 C144 1.313 . S
C142 C143 1.338 . S
C142 N145 1.377 . S
C142 H162 0.930 . S
C143 N141 1.375 . S
C143 C142 1.338 . S
C143 H147 0.931 . S
C144 N141 1.313 . S
C144 N145 1.344 . S
C144 H148 0.930 . S
N145 C142 1.377 . S
N145 C144 1.344 . S
O146 Co138 2.055 . S
O146 C150 1.253 . S
H147 C143 0.931 . S
H148 C144 0.930 . S
O149 Co138 2.039 . S
O149 C139 1.265 . S
C150 O146 1.253 . S
C150 O151 1.227 . S
O151 C150 1.227 . S
N152 Co138 2.140 . S
N152 C155 1.346 . S
N152 C156 1.345 . S
C153 C154 1.387 . S
C153 C157 1.391 . S
C154 C153 1.387 . S
C154 C155 1.369 . S
C154 H163 0.929 . S
C155 N152 1.346 . S
C155 C154 1.369 . S
C155 H158 0.928 . S
C156 N152 1.345 . S
C156 C157 1.371 . S
C156 H159 0.931 . S
C157 C153 1.391 . S
C157 C156 1.371 . S
C157 H164 0.930 . S
H158 C155 0.928 . S
H159 C156 0.931 . S
H160 C136 0.930 . S
H161 C133 0.930 . S
H162 C142 0.930 . S
H163 C154 0.929 . S
H164 C157 0.930 . S
C165 C166 1.351 . S
C165 N168 1.368 . S
C165 H170 0.931 . S
C166 C165 1.351 . S
C166 N167 1.373 . S
C166 H194 0.930 . S
N167 C166 1.373 . S
N167 C169 1.340 . S
N168 C165 1.368 . S
N168 C169 1.321 . S
N168 Co171 2.135 . S
C169 N167 1.340 . S
C169 N168 1.321 . S
C169 H193 0.930 . S
H170 C165 0.931 . S
Co171 N168 2.135 . S
Co171 N174 2.121 . S
Co171 O179 2.055 . S
Co171 O182 2.039 . S
Co171 N185 2.140 . S
C172 O173 1.227 . S
C172 O182 1.265 . S
O173 C172 1.227 . S
N174 Co171 2.121 . S
N174 C176 1.375 . S
N174 C177 1.313 . S
C175 C176 1.338 . S
C175 N178 1.377 . S
C175 H195 0.930 1_556 S
C176 N174 1.375 . S
C176 C175 1.338 . S
C176 H180 0.931 . S
C177 N174 1.313 . S
C177 N178 1.344 . S
C177 H181 0.930 . S
N178 C175 1.377 . S
N178 C177 1.344 . S
O179 Co171 2.055 . S
O179 C183 1.253 . S
H180 C176 0.931 . S
H181 C177 0.930 . S
O182 Co171 2.039 . S
O182 C172 1.265 . S
C183 O179 1.253 . S
C183 O184 1.227 . S
O184 C183 1.227 . S
N185 Co171 2.140 . S
N185 C188 1.346 . S
N185 C189 1.345 . S
C186 C187 1.387 . S
C186 C190 1.391 . S
C187 C186 1.387 . S
C187 C188 1.369 . S
C187 H196 0.929 . S
C188 N185 1.346 . S
C188 C187 1.369 . S
C188 H191 0.928 . S
C189 N185 1.345 . S
C189 C190 1.371 . S
C189 H192 0.931 . S
C190 C186 1.391 . S
C190 C189 1.371 . S
C190 H197 0.930 . S
H191 C188 0.928 . S
H192 C189 0.931 . S
H193 C169 0.930 . S
H194 C166 0.930 . S
H195 C175 0.930 1_554 S
H196 C187 0.929 . S
H197 C190 0.930 . S
C198 C199 1.351 1_556 S
C198 N201 1.368 . S
C198 H203 0.931 . S
C199 C198 1.351 1_554 S
C199 N200 1.373 1_554 S
C199 H227 0.930 . S
N200 C199 1.373 1_556 S
N200 C202 1.340 . S
N201 C198 1.368 . S
N201 C202 1.321 . S
N201 Co204 2.135 . S
C202 N200 1.340 . S
C202 N201 1.321 . S
C202 H226 0.930 . S
H203 C198 0.931 . S
Co204 N201 2.135 . S
Co204 N207 2.121 . S
Co204 O212 2.055 . S
Co204 O215 2.039 . S
Co204 N218 2.140 . S
C205 O206 1.227 . S
C205 O215 1.265 . S
O206 C205 1.227 . S
N207 Co204 2.121 . S
N207 C209 1.375 . S
N207 C210 1.313 . S
C208 C209 1.338 . S
C208 N211 1.377 . S
C208 H228 0.930 . S
C209 N207 1.375 . S
C209 C208 1.338 . S
C209 H213 0.931 . S
C210 N207 1.313 . S
C210 N211 1.344 . S
C210 H214 0.930 . S
N211 C208 1.377 . S
N211 C210 1.344 . S
O212 Co204 2.055 . S
O212 C216 1.253 . S
H213 C209 0.931 . S
H214 C210 0.930 . S
O215 Co204 2.039 . S
O215 C205 1.265 . S
C216 O212 1.253 . S
C216 O217 1.227 . S
O217 C216 1.227 . S
N218 Co204 2.140 . S
N218 C221 1.346 . S
N218 C222 1.345 . S
C219 C220 1.387 . S
C219 C223 1.391 . S
C220 C219 1.387 . S
C220 C221 1.369 . S
C220 H229 0.929 . S
C221 N218 1.346 . S
C221 C220 1.369 . S
C221 H224 0.928 . S
C222 N218 1.345 . S
C222 C223 1.371 . S
C222 H225 0.931 . S
C223 C219 1.391 . S
C223 C222 1.371 . S
C223 H230 0.930 . S
H224 C221 0.928 . S
H225 C222 0.931 . S
H226 C202 0.930 . S
H227 C199 0.930 . S
H228 C208 0.930 . S
H229 C220 0.929 . S
H230 C223 0.930 . S
C231 C232 1.351 . S
C231 N234 1.368 . S
C231 H236 0.931 . S
C232 C231 1.351 . S
C232 N233 1.373 . S
C232 H260 0.930 . S
N233 C232 1.373 . S
N233 C235 1.340 . S
N234 C231 1.368 . S
N234 C235 1.321 . S
N234 Co237 2.135 1_554 S
C235 N233 1.340 . S
C235 N234 1.321 . S
C235 H259 0.930 . S
H236 C231 0.931 . S
Co237 N234 2.135 1_556 S
Co237 N240 2.121 . S
Co237 O245 2.055 . S
Co237 O248 2.039 . S
Co237 N251 2.140 1_556 S
C238 O239 1.227 . S
C238 O248 1.265 . S
O239 C238 1.227 . S
N240 Co237 2.121 . S
N240 C242 1.375 . S
N240 C243 1.313 . S
C241 C242 1.338 . S
C241 N244 1.377 . S
C241 H261 0.930 . S
C242 N240 1.375 . S
C242 C241 1.338 . S
C242 H246 0.931 . S
C243 N240 1.313 . S
C243 N244 1.344 . S
C243 H247 0.930 . S
N244 C241 1.377 . S
N244 C243 1.344 . S
O245 Co237 2.055 . S
O245 C249 1.253 1_556 S
H246 C242 0.931 . S
H247 C243 0.930 . S
O248 Co237 2.039 . S
O248 C238 1.265 . S
C249 O245 1.253 1_554 S
C249 O250 1.227 . S
O250 C249 1.227 . S
N251 Co237 2.140 1_554 S
N251 C254 1.346 . S
N251 C255 1.345 . S
C252 C253 1.387 . S
C252 C256 1.391 . S
C253 C252 1.387 . S
C253 C254 1.369 . S
C253 H262 0.929 . S
C254 N251 1.346 . S
C254 C253 1.369 . S
C254 H257 0.928 . S
C255 N251 1.345 . S
C255 C256 1.371 . S
C255 H258 0.931 . S
C256 C252 1.391 . S
C256 C255 1.371 . S
C256 H263 0.930 . S
H257 C254 0.928 . S
H258 C255 0.931 . S
H259 C235 0.930 . S
H260 C232 0.930 . S
H261 C241 0.930 . S
H262 C253 0.929 . S
H263 C256 0.930 . S
C264 C265 1.351 . S
C264 N267 1.368 . S
C264 H269 0.931 . S
C265 C264 1.351 . S
C265 N266 1.373 . S
C265 H293 0.930 . S
N266 C265 1.373 . S
N266 C268 1.340 . S
N267 C264 1.368 . S
N267 C268 1.321 . S
N267 Co270 2.135 . S
C268 N266 1.340 . S
C268 N267 1.321 . S
C268 H292 0.930 . S
H269 C264 0.931 . S
Co270 N267 2.135 . S
Co270 N273 2.121 . S
Co270 O278 2.055 . S
Co270 O281 2.039 . S
Co270 N284 2.140 . S
C271 O272 1.227 . S
C271 O281 1.265 . S
O272 C271 1.227 . S
N273 Co270 2.121 . S
N273 C275 1.375 . S
N273 C276 1.313 . S
C274 C275 1.338 . S
C274 N277 1.377 . S
C274 H294 0.930 1_554 S
C275 N273 1.375 . S
C275 C274 1.338 . S
C275 H279 0.931 . S
C276 N273 1.313 . S
C276 N277 1.344 . S
C276 H280 0.930 . S
N277 C274 1.377 . S
N277 C276 1.344 . S
O278 Co270 2.055 . S
O278 C282 1.253 . S
H279 C275 0.931 . S
H280 C276 0.930 . S
O281 Co270 2.039 . S
O281 C271 1.265 . S
C282 O278 1.253 . S
C282 O283 1.227 . S
O283 C282 1.227 . S
N284 Co270 2.140 . S
N284 C287 1.346 . S
N284 C288 1.345 . S
C285 C286 1.387 . S
C285 C289 1.391 . S
C286 C285 1.387 . S
C286 C287 1.369 . S
C286 H295 0.929 . S
C287 N284 1.346 . S
C287 C286 1.369 . S
C287 H290 0.928 . S
C288 N284 1.345 . S
C288 C289 1.371 . S
C288 H291 0.931 . S
C289 C285 1.391 . S
C289 C288 1.371 . S
C289 H296 0.930 . S
H290 C287 0.928 . S
H291 C288 0.931 . S
H292 C268 0.930 . S
H293 C265 0.930 . S
H294 C274 0.930 1_556 S
H295 C286 0.929 . S
H296 C289 0.930 . S
C297 C298 1.351 . S
C297 N300 1.368 . S
C297 H302 0.931 . S
C298 C297 1.351 . S
C298 N299 1.373 . S
C298 H326 0.930 . S
N299 C298 1.373 . S
N299 C301 1.340 . S
N300 C297 1.368 . S
N300 C301 1.321 . S
N300 Co303 2.135 . S
C301 N299 1.340 . S
C301 N300 1.321 . S
C301 H325 0.930 . S
H302 C297 0.931 . S
Co303 N300 2.135 . S
Co303 N306 2.121 . S
Co303 O311 2.055 . S
Co303 O314 2.039 . S
Co303 N317 2.140 . S
C304 O305 1.227 . S
C304 O314 1.265 . S
O305 C304 1.227 . S
N306 Co303 2.121 . S
N306 C308 1.375 . S
N306 C309 1.313 . S
C307 C308 1.338 . S
C307 N310 1.377 . S
C307 H327 0.930 . S
C308 N306 1.375 . S
C308 C307 1.338 . S
C308 H312 0.931 . S
C309 N306 1.313 . S
C309 N310 1.344 . S
C309 H313 0.930 . S
N310 C307 1.377 . S
N310 C309 1.344 . S
O311 Co303 2.055 . S
O311 C315 1.253 . S
H312 C308 0.931 . S
H313 C309 0.930 . S
O314 Co303 2.039 . S
O314 C304 1.265 . S
C315 O311 1.253 . S
C315 O316 1.227 . S
O316 C315 1.227 . S
N317 Co303 2.140 . S
N317 C320 1.346 . S
N317 C321 1.345 . S
C318 C319 1.387 . S
C318 C322 1.391 . S
C319 C318 1.387 . S
C319 C320 1.369 . S
C319 H328 0.929 . S
C320 N317 1.346 . S
C320 C319 1.369 . S
C320 H323 0.928 . S
C321 N317 1.345 . S
C321 C322 1.371 . S
C321 H324 0.931 . S
C322 C318 1.391 . S
C322 C321 1.371 . S
C322 H329 0.930 . S
H323 C320 0.928 . S
H324 C321 0.931 . S
H325 C301 0.930 . S
H326 C298 0.930 . S
H327 C307 0.930 . S
H328 C319 0.929 . S
H329 C322 0.930 . S
C330 C331 1.351 . S
C330 N333 1.368 . S
C330 H335 0.931 . S
C331 C330 1.351 . S
C331 N332 1.373 . S
C331 H359 0.930 . S
N332 C331 1.373 . S
N332 C334 1.340 . S
N333 C330 1.368 . S
N333 C334 1.321 . S
N333 Co336 2.135 . S
C334 N332 1.340 . S
C334 N333 1.321 . S
C334 H358 0.930 . S
H335 C330 0.931 . S
Co336 N333 2.135 . S
Co336 N339 2.121 . S
Co336 O344 2.055 . S
Co336 O347 2.039 . S
Co336 N350 2.140 . S
C337 O338 1.227 . S
C337 O347 1.265 . S
O338 C337 1.227 . S
N339 Co336 2.121 . S
N339 C341 1.375 . S
N339 C342 1.313 . S
C340 C341 1.338 . S
C340 N343 1.377 . S
C340 H360 0.930 . S
C341 N339 1.375 . S
C341 C340 1.338 . S
C341 H345 0.931 . S
C342 N339 1.313 . S
C342 N343 1.344 . S
C342 H346 0.930 . S
N343 C340 1.377 . S
N343 C342 1.344 . S
O344 Co336 2.055 . S
O344 C348 1.253 . S
H345 C341 0.931 . S
H346 C342 0.930 . S
O347 Co336 2.039 . S
O347 C337 1.265 . S
C348 O344 1.253 . S
C348 O349 1.227 . S
O349 C348 1.227 . S
N350 Co336 2.140 . S
N350 C353 1.346 . S
N350 C354 1.345 . S
C351 C352 1.387 . S
C351 C355 1.391 . S
C352 C351 1.387 . S
C352 C353 1.369 . S
C352 H361 0.929 . S
C353 N350 1.346 . S
C353 C352 1.369 . S
C353 H356 0.928 . S
C354 N350 1.345 . S
C354 C355 1.371 . S
C354 H357 0.931 . S
C355 C351 1.391 . S
C355 C354 1.371 . S
C355 H362 0.930 . S
H356 C353 0.928 . S
H357 C354 0.931 . S
H358 C334 0.930 . S
H359 C331 0.930 . S
H360 C340 0.930 . S
H361 C352 0.929 . S
H362 C355 0.930 . S
C363 C364 1.351 . S
C363 N366 1.368 . S
C363 H368 0.931 . S
C364 C363 1.351 . S
C364 N365 1.373 . S
C364 H392 0.930 . S
N365 C364 1.373 . S
N365 C367 1.340 . S
N366 C363 1.368 . S
N366 C367 1.321 . S
N366 Co369 2.135 . S
C367 N365 1.340 . S
C367 N366 1.321 . S
C367 H391 0.930 . S
H368 C363 0.931 . S
Co369 N366 2.135 . S
Co369 N372 2.121 . S
Co369 O377 2.055 . S
Co369 O380 2.039 . S
Co369 N383 2.140 . S
C370 O371 1.227 . S
C370 O380 1.265 . S
O371 C370 1.227 . S
N372 Co369 2.121 . S
N372 C374 1.375 . S
N372 C375 1.313 . S
C373 C374 1.338 . S
C373 N376 1.377 . S
C373 H393 0.930 . S
C374 N372 1.375 . S
C374 C373 1.338 . S
C374 H378 0.931 . S
C375 N372 1.313 . S
C375 N376 1.344 . S
C375 H379 0.930 . S
N376 C373 1.377 . S
N376 C375 1.344 . S
O377 Co369 2.055 . S
O377 C381 1.253 . S
H378 C374 0.931 . S
H379 C375 0.930 . S
O380 Co369 2.039 . S
O380 C370 1.265 . S
C381 O377 1.253 . S
C381 O382 1.227 . S
O382 C381 1.227 . S
N383 Co369 2.140 . S
N383 C386 1.346 . S
N383 C387 1.345 . S
C384 C385 1.387 . S
C384 C388 1.391 . S
C385 C384 1.387 . S
C385 C386 1.369 . S
C385 H394 0.929 . S
C386 N383 1.346 . S
C386 C385 1.369 . S
C386 H389 0.928 . S
C387 N383 1.345 . S
C387 C388 1.371 . S
C387 H390 0.931 . S
C388 C384 1.391 . S
C388 C387 1.371 . S
C388 H395 0.930 . S
H389 C386 0.928 . S
H390 C387 0.931 . S
H391 C367 0.930 . S
H392 C364 0.930 . S
H393 C373 0.930 . S
H394 C385 0.929 . S
H395 C388 0.930 . S
C396 C397 1.369 . S
C396 C398 1.419 . S
C396 H400 0.930 . S
C397 C396 1.369 . S
C397 C406 1.429 . S
C398 C396 1.419 . S
C398 C399 1.363 . S
C398 H401 0.929 . S
C399 C398 1.363 . S
C399 C405 1.428 . S
H400 C396 0.930 . S
H401 C398 0.929 . S
S402 N403 1.613 . S
S402 N404 1.610 . S
N403 S402 1.613 . S
N403 C406 1.350 . S
N404 S402 1.610 . S
N404 C405 1.351 . S
C405 C399 1.428 . S
C405 N404 1.351 . S
C405 C406 1.434 . S
C406 C397 1.429 . S
C406 N403 1.350 . S
C406 C405 1.434 . S
C407 C408 1.369 . S
C407 C409 1.419 . S
C407 H411 0.930 . S
C408 C407 1.369 . S
C408 C417 1.429 . S
C409 C407 1.419 . S
C409 C410 1.363 . S
C409 H412 0.929 . S
C410 C409 1.363 . S
C410 C416 1.428 . S
H411 C407 0.930 . S
H412 C409 0.929 . S
S413 N414 1.613 . S
S413 N415 1.610 . S
N414 S413 1.613 . S
N414 C417 1.350 . S
N415 S413 1.610 . S
N415 C416 1.351 . S
C416 C410 1.428 . S
C416 N415 1.351 . S
C416 C417 1.434 . S
C417 C408 1.429 . S
C417 N414 1.350 . S
C417 C416 1.434 . S
C418 C419 1.369 . S
C418 C420 1.419 . S
C418 H422 0.930 . S
C419 C418 1.369 . S
C419 C428 1.429 . S
C420 C418 1.419 . S
C420 C421 1.363 . S
C420 H423 0.929 . S
C421 C420 1.363 . S
C421 C427 1.428 . S
H422 C418 0.930 . S
H423 C420 0.929 . S
S424 N425 1.613 . S
S424 N426 1.610 . S
N425 S424 1.613 . S
N425 C428 1.350 . S
N426 S424 1.610 . S
N426 C427 1.351 . S
C427 C421 1.428 . S
C427 N426 1.351 . S
C427 C428 1.434 . S
C428 C419 1.429 . S
C428 N425 1.350 . S
C428 C427 1.434 . S
C429 C430 1.369 . S
C429 C431 1.419 . S
C429 H433 0.930 . S
C430 C429 1.369 . S
C430 C439 1.429 . S
C431 C429 1.419 . S
C431 C432 1.363 . S
C431 H434 0.929 . S
C432 C431 1.363 . S
C432 C438 1.428 . S
H433 C429 0.930 . S
H434 C431 0.929 . S
S435 N436 1.613 . S
S435 N437 1.610 . S
N436 S435 1.613 . S
N436 C439 1.350 . S
N437 S435 1.610 . S
N437 C438 1.351 . S
C438 C432 1.428 . S
C438 N437 1.351 . S
C438 C439 1.434 . S
C439 C430 1.429 . S
C439 N436 1.350 . S
C439 C438 1.434 . S
C440 C441 1.369 . S
C440 C442 1.419 . S
C440 H444 0.930 . S
C441 C440 1.369 . S
C441 C450 1.429 . S
C442 C440 1.419 . S
C442 C443 1.363 . S
C442 H445 0.929 . S
C443 C442 1.363 . S
C443 C449 1.428 . S
H444 C440 0.930 . S
H445 C442 0.929 . S
S446 N447 1.613 . S
S446 N448 1.610 . S
N447 S446 1.613 . S
N447 C450 1.350 . S
N448 S446 1.610 . S
N448 C449 1.351 . S
C449 C443 1.428 . S
C449 N448 1.351 . S
C449 C450 1.434 . S
C450 C441 1.429 . S
C450 N447 1.350 . S
C450 C449 1.434 . S
C451 C452 1.369 . S
C451 C453 1.419 . S
C451 H455 0.930 . S
C452 C451 1.369 . S
C452 C461 1.429 . S
C453 C451 1.419 . S
C453 C454 1.363 . S
C453 H456 0.929 . S
C454 C453 1.363 . S
C454 C460 1.428 . S
H455 C451 0.930 . S
H456 C453 0.929 . S
S457 N458 1.613 . S
S457 N459 1.610 . S
N458 S457 1.613 . S
N458 C461 1.350 . S
N459 S457 1.610 . S
N459 C460 1.351 . S
C460 C454 1.428 . S
C460 N459 1.351 . S
C460 C461 1.434 . S
C461 C452 1.429 . S
C461 N458 1.350 . S
C461 C460 1.434 . S
C462 C463 1.369 . S
C462 C464 1.419 . S
C462 H466 0.930 . S
C463 C462 1.369 . S
C463 C472 1.429 . S
C464 C462 1.419 . S
C464 C465 1.363 . S
C464 H467 0.929 . S
C465 C464 1.363 . S
C465 C471 1.428 . S
H466 C462 0.930 . S
H467 C464 0.929 . S
S468 N469 1.613 . S
S468 N470 1.610 . S
N469 S468 1.613 . S
N469 C472 1.350 . S
N470 S468 1.610 . S
N470 C471 1.351 . S
C471 C465 1.428 . S
C471 N470 1.351 . S
C471 C472 1.434 . S
C472 C463 1.429 . S
C472 N469 1.350 . S
C472 C471 1.434 . S
C473 C474 1.369 . S
C473 C475 1.419 . S
C473 H477 0.930 . S
C474 C473 1.369 . S
C474 C483 1.429 1_556 S
C475 C473 1.419 . S
C475 C476 1.363 . S
C475 H478 0.929 . S
C476 C475 1.363 . S
C476 C482 1.428 1_556 S
H477 C473 0.930 . S
H478 C475 0.929 . S
S479 N480 1.613 . S
S479 N481 1.610 . S
N480 S479 1.613 . S
N480 C483 1.350 . S
N481 S479 1.610 . S
N481 C482 1.351 . S
C482 C476 1.428 1_554 S
C482 N481 1.351 . S
C482 C483 1.434 . S
C483 C474 1.429 1_554 S
C483 N480 1.350 . S
C483 C482 1.434 . S
C484 C485 1.369 . S
C484 C486 1.419 . S
C484 H488 0.930 . S
C485 C484 1.369 . S
C485 C494 1.429 . S
C486 C484 1.419 . S
C486 C487 1.363 . S
C486 H489 0.929 . S
C487 C486 1.363 . S
C487 C493 1.428 . S
H488 C484 0.930 . S
H489 C486 0.929 . S
S490 N491 1.613 . S
S490 N492 1.610 . S
N491 S490 1.613 . S
N491 C494 1.350 . S
N492 S490 1.610 . S
N492 C493 1.351 . S
C493 C487 1.428 . S
C493 N492 1.351 . S
C493 C494 1.434 . S
C494 C485 1.429 . S
C494 N491 1.350 . S
C494 C493 1.434 . S
C495 C496 1.369 . S
C495 C497 1.419 . S
C495 H499 0.930 . S
C496 C495 1.369 . S
C496 C505 1.429 . S
C497 C495 1.419 . S
C497 C498 1.363 . S
C497 H500 0.929 . S
C498 C497 1.363 . S
C498 C504 1.428 . S
H499 C495 0.930 . S
H500 C497 0.929 . S
S501 N502 1.613 . S
S501 N503 1.610 . S
N502 S501 1.613 . S
N502 C505 1.350 . S
N503 S501 1.610 . S
N503 C504 1.351 . S
C504 C498 1.428 . S
C504 N503 1.351 . S
C504 C505 1.434 . S
C505 C496 1.429 . S
C505 N502 1.350 . S
C505 C504 1.434 . S
C506 C507 1.369 . S
C506 C508 1.419 . S
C506 H510 0.930 . S
C507 C506 1.369 . S
C507 C516 1.429 . S
C508 C506 1.419 . S
C508 C509 1.363 . S
C508 H511 0.929 . S
C509 C508 1.363 . S
C509 C515 1.428 . S
H510 C506 0.930 . S
H511 C508 0.929 . S
S512 N513 1.613 . S
S512 N514 1.610 . S
N513 S512 1.613 . S
N513 C516 1.350 . S
N514 S512 1.610 . S
N514 C515 1.351 . S
C515 C509 1.428 . S
C515 N514 1.351 . S
C515 C516 1.434 . S
C516 C507 1.429 . S
C516 N513 1.350 . S
C516 C515 1.434 . S
C517 C518 1.369 . S
C517 C519 1.419 . S
C517 H521 0.930 . S
C518 C517 1.369 . S
C518 C527 1.429 . S
C519 C517 1.419 . S
C519 C520 1.363 . S
C519 H522 0.929 . S
C520 C519 1.363 . S
C520 C526 1.428 . S
H521 C517 0.930 . S
H522 C519 0.929 . S
S523 N524 1.613 . S
S523 N525 1.610 . S
N524 S523 1.613 . S
N524 C527 1.350 . S
N525 S523 1.610 . S
N525 C526 1.351 . S
C526 C520 1.428 . S
C526 N525 1.351 . S
C526 C527 1.434 . S
C527 C518 1.429 . S
C527 N524 1.350 . S
C527 C526 1.434 . S
C528 C529 1.369 . S
C528 C530 1.419 . S
C528 H532 0.930 . S
C529 C528 1.369 . S
C529 C538 1.429 1_554 S
C530 C528 1.419 . S
C530 C531 1.363 . S
C530 H533 0.929 . S
C531 C530 1.363 . S
C531 C537 1.428 1_554 S
H532 C528 0.930 . S
H533 C530 0.929 . S
S534 N535 1.613 . S
S534 N536 1.610 . S
N535 S534 1.613 . S
N535 C538 1.350 . S
N536 S534 1.610 . S
N536 C537 1.351 . S
C537 C531 1.428 1_556 S
C537 N536 1.351 . S
C537 C538 1.434 . S
C538 C529 1.429 1_556 S
C538 N535 1.350 . S
C538 C537 1.434 . S
C539 C540 1.369 . S
C539 C541 1.419 . S
C539 H543 0.930 . S
C540 C539 1.369 . S
C540 C549 1.429 . S
C541 C539 1.419 . S
C541 C542 1.363 . S
C541 H544 0.929 . S
C542 C541 1.363 . S
C542 C548 1.428 . S
H543 C539 0.930 . S
H544 C541 0.929 . S
S545 N546 1.613 . S
S545 N547 1.610 . S
N546 S545 1.613 . S
N546 C549 1.350 . S
N547 S545 1.610 . S
N547 C548 1.351 . S
C548 C542 1.428 . S
C548 N547 1.351 . S
C548 C549 1.434 . S
C549 C540 1.429 . S
C549 N546 1.350 . S
C549 C548 1.434 . S
C550 C551 1.369 . S
C550 C552 1.419 . S
C550 H554 0.930 . S
C551 C550 1.369 . S
C551 C560 1.429 . S
C552 C550 1.419 . S
C552 C553 1.363 . S
C552 H555 0.929 . S
C553 C552 1.363 . S
C553 C559 1.428 . S
H554 C550 0.930 . S
H555 C552 0.929 . S
S556 N557 1.613 . S
S556 N558 1.610 . S
N557 S556 1.613 . S
N557 C560 1.350 . S
N558 S556 1.610 . S
N558 C559 1.351 . S
C559 C553 1.428 . S
C559 N558 1.351 . S
C559 C560 1.434 . S
C560 C551 1.429 . S
C560 N557 1.350 . S
C560 C559 1.434 . S
C561 C562 1.369 . S
C561 C563 1.419 . S
C561 H565 0.930 . S
C562 C561 1.369 . S
C562 C571 1.429 . S
C563 C561 1.419 . S
C563 C564 1.363 . S
C563 H566 0.929 . S
C564 C563 1.363 . S
C564 C570 1.428 . S
H565 C561 0.930 . S
H566 C563 0.929 . S
S567 N568 1.613 . S
S567 N569 1.610 . S
N568 S567 1.613 . S
N568 C571 1.350 . S
N569 S567 1.610 . S
N569 C570 1.351 . S
C570 C564 1.428 . S
C570 N569 1.351 . S
C570 C571 1.434 . S
C571 C562 1.429 . S
C571 N568 1.350 . S
C571 C570 1.434 . S
C572 C573 1.369 . S
C572 C574 1.419 . S
C572 H576 0.930 . S
C573 C572 1.369 . S
C573 C582 1.429 . S
C574 C572 1.419 . S
C574 C575 1.363 . S
C574 H577 0.929 . S
C575 C574 1.363 . S
C575 C581 1.428 . S
H576 C572 0.930 . S
H577 C574 0.929 . S
S578 N579 1.613 . S
S578 N580 1.610 . S
N579 S578 1.613 . S
N579 C582 1.350 . S
N580 S578 1.610 . S
N580 C581 1.351 . S
C581 C575 1.428 . S
C581 N580 1.351 . S
C581 C582 1.434 . S
C582 C573 1.429 . S
C582 N579 1.350 . S
C582 C581 1.434 . S
C583 C584 1.369 . S
C583 C585 1.419 . S
C583 H587 0.930 . S
C584 C583 1.369 . S
C584 C593 1.429 . S
C585 C583 1.419 . S
C585 C586 1.363 . S
C585 H588 0.929 . S
C586 C585 1.363 . S
C586 C592 1.428 . S
H587 C583 0.930 . S
H588 C585 0.929 . S
S589 N590 1.613 . S
S589 N591 1.610 . S
N590 S589 1.613 . S
N590 C593 1.350 . S
N591 S589 1.610 . S
N591 C592 1.351 . S
C592 C586 1.428 . S
C592 N591 1.351 . S
C592 C593 1.434 . S
C593 C584 1.429 . S
C593 N590 1.350 . S
C593 C592 1.434 . S
C594 C595 1.369 . S
C594 C596 1.419 . S
C594 H598 0.930 . S
C595 C594 1.369 . S
C595 C604 1.429 . S
C596 C594 1.419 . S
C596 C597 1.363 . S
C596 H599 0.929 . S
C597 C596 1.363 . S
C597 C603 1.428 . S
H598 C594 0.930 . S
H599 C596 0.929 . S
S600 N601 1.613 . S
S600 N602 1.610 . S
N601 S600 1.613 . S
N601 C604 1.350 . S
N602 S600 1.610 . S
N602 C603 1.351 . S
C603 C597 1.428 . S
C603 N602 1.351 . S
C603 C604 1.434 . S
C604 C595 1.429 . S
C604 N601 1.350 . S
C604 C603 1.434 . S
C605 C606 1.369 . S
C605 C607 1.419 . S
C605 H609 0.930 . S
C606 C605 1.369 . S
C606 C615 1.429 1_655 S
C607 C605 1.419 . S
C607 C608 1.363 1_655 S
C607 H610 0.929 . S
C608 C607 1.363 1_455 S
C608 C614 1.428 . S
H609 C605 0.930 . S
H610 C607 0.929 . S
S611 N612 1.613 . S
S611 N613 1.610 . S
N612 S611 1.613 . S
N612 C615 1.350 . S
N613 S611 1.610 . S
N613 C614 1.351 . S
C614 C608 1.428 . S
C614 N613 1.351 . S
C614 C615 1.434 . S
C615 C606 1.429 1_455 S
C615 N612 1.350 . S
C615 C614 1.434 . S
C616 C617 1.369 1_545 S
C616 C618 1.419 . S
C616 H620 0.930 . S
C617 C616 1.369 1_565 S
C617 C626 1.429 . S
C618 C616 1.419 . S
C618 C619 1.363 . S
C618 H621 0.929 . S
C619 C618 1.363 . S
C619 C625 1.428 1_545 S
H620 C616 0.930 . S
H621 C618 0.929 . S
S622 N623 1.613 . S
S622 N624 1.610 . S
N623 S622 1.613 . S
N623 C626 1.350 . S
N624 S622 1.610 . S
N624 C625 1.351 . S
C625 C619 1.428 1_565 S
C625 N624 1.351 . S
C625 C626 1.434 . S
C626 C617 1.429 . S
C626 N623 1.350 . S
C626 C625 1.434 . S
C627 C628 1.369 . S
C627 C629 1.419 . S
C627 H631 0.930 . S
C628 C627 1.369 . S
C628 C637 1.429 . S
C629 C627 1.419 . S
C629 C630 1.363 . S
C629 H632 0.929 . S
C630 C629 1.363 . S
C630 C636 1.428 . S
H631 C627 0.930 . S
H632 C629 0.929 . S
S633 N634 1.613 . S
S633 N635 1.610 . S
N634 S633 1.613 . S
N634 C637 1.350 . S
N635 S633 1.610 . S
N635 C636 1.351 . S
C636 C630 1.428 . S
C636 N635 1.351 . S
C636 C637 1.434 . S
C637 C628 1.429 . S
C637 N634 1.350 . S
C637 C636 1.434 . S
C638 C639 1.369 . S
C638 C640 1.419 1_455 S
C638 H642 0.930 . S
C639 C638 1.369 . S
C639 C648 1.429 . S
C640 C638 1.419 1_655 S
C640 C641 1.363 . S
C640 H643 0.929 . S
C641 C640 1.363 . S
C641 C647 1.429 1_655 S
H642 C638 0.930 . S
H643 C640 0.929 . S
S644 N645 1.613 . S
S644 N646 1.610 . S
N645 S644 1.613 . S
N645 C648 1.350 . S
N646 S644 1.610 . S
N646 C647 1.350 . S
C647 C641 1.429 1_455 S
C647 N646 1.350 . S
C647 C648 1.435 . S
C648 C639 1.429 . S
C648 N645 1.350 . S
C648 C647 1.435 . S
C649 C650 1.369 1_545 S
C649 C651 1.419 1_554 S
C649 H653 0.930 . S
C650 C649 1.369 1_565 S
C650 C659 1.429 . S
C651 C649 1.419 1_556 S
C651 C652 1.363 . S
C651 H654 0.929 . S
C652 C651 1.363 . S
C652 C658 1.428 1_545 S
H653 C649 0.930 . S
H654 C651 0.929 . S
S655 N656 1.613 1_556 S
S655 N657 1.610 . S
N656 S655 1.613 1_554 S
N656 C659 1.350 . S
N657 S655 1.610 . S
N657 C658 1.351 . S
C658 C652 1.428 1_565 S
C658 N657 1.351 . S
C658 C659 1.434 1_556 S
C659 C650 1.429 . S
C659 N656 1.350 . S
C659 C658 1.434 1_554 S
C660 C661 1.369 . S
C660 C662 1.419 . S
C660 H664 0.930 . S
C661 C660 1.369 . S
C661 C670 1.429 . S
C662 C660 1.419 . S
C662 C663 1.363 . S
C662 H665 0.929 . S
C663 C662 1.363 . S
C663 C669 1.428 . S
H664 C660 0.930 . S
H665 C662 0.929 . S
S666 N667 1.613 . S
S666 N668 1.610 . S
N667 S666 1.613 . S
N667 C670 1.350 . S
N668 S666 1.610 . S
N668 C669 1.351 . S
C669 C663 1.428 . S
C669 N668 1.351 . S
C669 C670 1.434 . S
C670 C661 1.429 . S
C670 N667 1.350 . S
C670 C669 1.434 . S
C671 C672 1.369 . S
C671 C673 1.419 . S
C671 H675 0.930 . S
C672 C671 1.369 . S
C672 C681 1.429 . S
C673 C671 1.419 . S
C673 C674 1.363 . S
C673 H676 0.929 . S
C674 C673 1.363 . S
C674 C680 1.428 . S
H675 C671 0.930 . S
H676 C673 0.929 . S
S677 N678 1.613 . S
S677 N679 1.610 . S
N678 S677 1.613 . S
N678 C681 1.350 . S
N679 S677 1.610 . S
N679 C680 1.351 . S
C680 C674 1.428 . S
C680 N679 1.351 . S
C680 C681 1.434 . S
C681 C672 1.429 . S
C681 N678 1.350 . S
C681 C680 1.434 . S
C682 C683 1.369 . S
C682 C684 1.419 . S
C682 H686 0.930 . S
C683 C682 1.369 . S
C683 C692 1.429 . S
C684 C682 1.419 . S
C684 C685 1.363 . S
C684 H687 0.929 . S
C685 C684 1.363 . S
C685 C691 1.428 . S
H686 C682 0.930 . S
H687 C684 0.929 . S
S688 N689 1.613 . S
S688 N690 1.610 . S
N689 S688 1.613 . S
N689 C692 1.350 . S
N690 S688 1.610 . S
N690 C691 1.351 . S
C691 C685 1.428 . S
C691 N690 1.351 . S
C691 C692 1.434 . S
C692 C683 1.429 . S
C692 N689 1.350 . S
C692 C691 1.434 . S
C693 C694 1.369 . S
C693 C695 1.419 . S
C693 H697 0.930 . S
C694 C693 1.369 . S
C694 C703 1.429 . S
C695 C693 1.419 . S
C695 C696 1.363 . S
C695 H698 0.929 . S
C696 C695 1.363 . S
C696 C702 1.428 . S
H697 C693 0.930 . S
H698 C695 0.929 . S
S699 N700 1.613 . S
S699 N701 1.610 . S
N700 S699 1.613 . S
N700 C703 1.350 . S
N701 S699 1.610 . S
N701 C702 1.351 . S
C702 C696 1.428 . S
C702 N701 1.351 . S
C702 C703 1.434 . S
C703 C694 1.429 . S
C703 N700 1.350 . S
C703 C702 1.434 . S
C704 C705 1.369 . S
C704 C706 1.419 . S
C704 H708 0.930 . S
C705 C704 1.369 . S
C705 C714 1.429 . S
C706 C704 1.419 . S
C706 C707 1.363 . S
C706 H709 0.929 . S
C707 C706 1.363 . S
C707 C713 1.428 . S
H708 C704 0.930 . S
H709 C706 0.929 . S
S710 N711 1.613 . S
S710 N712 1.610 . S
N711 S710 1.613 . S
N711 C714 1.350 . S
N712 S710 1.610 . S
N712 C713 1.351 . S
C713 C707 1.428 . S
C713 N712 1.351 . S
C713 C714 1.434 . S
C714 C705 1.429 . S
C714 N711 1.350 . S
C714 C713 1.434 . S
C715 C716 1.369 . S
C715 C717 1.419 . S
C715 H719 0.930 . S
C716 C715 1.369 . S
C716 C725 1.429 . S
C717 C715 1.419 . S
C717 C718 1.363 . S
C717 H720 0.929 . S
C718 C717 1.363 . S
C718 C724 1.428 . S
H719 C715 0.930 . S
H720 C717 0.929 . S
S721 N722 1.613 . S
S721 N723 1.610 . S
N722 S721 1.613 . S
N722 C725 1.350 . S
N723 S721 1.610 . S
N723 C724 1.351 . S
C724 C718 1.428 . S
C724 N723 1.351 . S
C724 C725 1.434 . S
C725 C716 1.429 . S
C725 N722 1.350 . S
C725 C724 1.434 . S
C397 N343 1.108 . S
C399 N13 1.094 . S
C408 N46 1.166 . S
C410 N376 1.181 . S
C419 N79 1.183 . S
C421 N211 1.166 . S
C430 N112 1.105 . S
C432 N244 1.097 . S
C441 N145 1.160 . S
C443 N277 1.172 1_556 S
C452 N178 1.175 1_554 S
C454 N310 1.161 . S
C463 N2 1.763 . S
C465 C183 1.744 . S
C474 C18 1.776 . S
C476 N35 1.766 1_456 S
C485 C51 1.779 . S
C487 N68 1.783 1_545 S
C496 N101 1.782 . S
C498 C84 1.782 . S
C507 N134 1.837 1_655 S
C509 C117 1.829 . S
C518 N167 1.798 1_565 S
C520 C150 1.783 . S
C529 C249 1.775 . S
C531 N200 1.765 1_554 S
C540 N233 1.763 1_455 S
C542 C282 1.743 . S
C551 N266 1.799 1_545 S
C553 C315 1.785 . S
C562 N299 1.837 . S
C564 C348 1.831 . S
C573 N332 1.779 1_655 S
C575 C381 1.783 . S
C584 N365 1.784 1_565 S
C586 C216 1.780 . S
C595 C7 1.084 . S
C597 C304 1.084 . S
C606 C40 1.191 . S
C608 C337 1.186 . S
C617 C73 1.158 . S
C619 C370 1.165 . S
C628 C106 1.183 . S
C630 C205 1.191 . S
C639 C139 1.083 . S
C641 C238 1.088 . S
C650 C271 1.138 . S
C652 C172 1.146 . S
C661 C219 1.499 . S
C663 C21 1.506 . S
C672 C54 1.497 . S
C674 C252 1.507 . S
C683 C87 1.536 . S
C685 C285 1.530 . S
C694 C318 1.577 . S
C696 C120 1.576 . S
C705 C153 1.567 . S
C707 C351 1.579 . S
C716 C384 1.529 . S
C718 C186 1.537 . S
