# Generated by pormake.
# Topology lcy-e, (6)-cn, num edge types: 1
# Building blocks:
#     Node 0, Type 0, BuildingBlock: CIFDUS_clean_sbu_1, # of connection points: 6
#     Node 1, Type 0, BuildingBlock: CIFDUS_clean_sbu_1, # of connection points: 6
#     Node 2, Type 0, BuildingBlock: CIFDUS_clean_sbu_1, # of connection points: 6
#     Node 3, Type 0, BuildingBlock: CIFDUS_clean_sbu_1, # of connection points: 6
#     Node 4, Type 0, BuildingBlock: CIFDUS_clean_sbu_1, # of connection points: 6
#     Node 5, Type 0, BuildingBlock: CIFDUS_clean_sbu_1, # of connection points: 6
#     Node 6, Type 0, BuildingBlock: CIFDUS_clean_sbu_1, # of connection points: 6
#     Node 7, Type 0, BuildingBlock: CIFDUS_clean_sbu_1, # of connection points: 6
#     Node 8, Type 0, BuildingBlock: CIFDUS_clean_sbu_1, # of connection points: 6
#     Node 9, Type 0, BuildingBlock: CIFDUS_clean_sbu_1, # of connection points: 6
#     Node 10, Type 0, BuildingBlock: CIFDUS_clean_sbu_1, # of connection points: 6
#     Node 11, Type 0, BuildingBlock: CIFDUS_clean_sbu_1, # of connection points: 6
#     Edge 12, Type (0, 0), BuildingBlock: AJUNOK_clean_linker_0, # of connection points: 2
#     Edge 13, Type (0, 0), BuildingBlock: AJUNOK_clean_linker_0, # of connection points: 2
#     Edge 14, Type (0, 0), BuildingBlock: AJUNOK_clean_linker_0, # of connection points: 2
#     Edge 15, Type (0, 0), BuildingBlock: AJUNOK_clean_linker_0, # of connection points: 2
#     Edge 16, Type (0, 0), BuildingBlock: AJUNOK_clean_linker_0, # of connection points: 2
#     Edge 17, Type (0, 0), BuildingBlock: AJUNOK_clean_linker_0, # of connection points: 2
#     Edge 18, Type (0, 0), BuildingBlock: AJUNOK_clean_linker_0, # of connection points: 2
#     Edge 19, Type (0, 0), BuildingBlock: AJUNOK_clean_linker_0, # of connection points: 2
#     Edge 20, Type (0, 0), BuildingBlock: AJUNOK_clean_linker_0, # of connection points: 2
#     Edge 21, Type (0, 0), BuildingBlock: AJUNOK_clean_linker_0, # of connection points: 2
#     Edge 22, Type (0, 0), BuildingBlock: AJUNOK_clean_linker_0, # of connection points: 2
#     Edge 23, Type (0, 0), BuildingBlock: AJUNOK_clean_linker_0, # of connection points: 2
#     Edge 24, Type (0, 0), BuildingBlock: AJUNOK_clean_linker_0, # of connection points: 2
#     Edge 25, Type (0, 0), BuildingBlock: AJUNOK_clean_linker_0, # of connection points: 2
#     Edge 26, Type (0, 0), BuildingBlock: AJUNOK_clean_linker_0, # of connection points: 2
#     Edge 27, Type (0, 0), BuildingBlock: AJUNOK_clean_linker_0, # of connection points: 2
#     Edge 28, Type (0, 0), BuildingBlock: AJUNOK_clean_linker_0, # of connection points: 2
#     Edge 29, Type (0, 0), BuildingBlock: AJUNOK_clean_linker_0, # of connection points: 2
#     Edge 30, Type (0, 0), BuildingBlock: AJUNOK_clean_linker_0, # of connection points: 2
#     Edge 31, Type (0, 0), BuildingBlock: AJUNOK_clean_linker_0, # of connection points: 2
#     Edge 32, Type (0, 0), BuildingBlock: AJUNOK_clean_linker_0, # of connection points: 2
#     Edge 33, Type (0, 0), BuildingBlock: AJUNOK_clean_linker_0, # of connection points: 2
#     Edge 34, Type (0, 0), BuildingBlock: AJUNOK_clean_linker_0, # of connection points: 2
#     Edge 35, Type (0, 0), BuildingBlock: AJUNOK_clean_linker_0, # of connection points: 2
#     Edge 36, Type (0, 0), BuildingBlock: AJUNOK_clean_linker_0, # of connection points: 2
#     Edge 37, Type (0, 0), BuildingBlock: AJUNOK_clean_linker_0, # of connection points: 2
#     Edge 38, Type (0, 0), BuildingBlock: AJUNOK_clean_linker_0, # of connection points: 2
#     Edge 39, Type (0, 0), BuildingBlock: AJUNOK_clean_linker_0, # of connection points: 2
#     Edge 40, Type (0, 0), BuildingBlock: AJUNOK_clean_linker_0, # of connection points: 2
#     Edge 41, Type (0, 0), BuildingBlock: AJUNOK_clean_linker_0, # of connection points: 2
#     Edge 42, Type (0, 0), BuildingBlock: AJUNOK_clean_linker_0, # of connection points: 2
#     Edge 43, Type (0, 0), BuildingBlock: AJUNOK_clean_linker_0, # of connection points: 2
#     Edge 44, Type (0, 0), BuildingBlock: AJUNOK_clean_linker_0, # of connection points: 2
#     Edge 45, Type (0, 0), BuildingBlock: AJUNOK_clean_linker_0, # of connection points: 2
#     Edge 46, Type (0, 0), BuildingBlock: AJUNOK_clean_linker_0, # of connection points: 2
#     Edge 47, Type (0, 0), BuildingBlock: AJUNOK_clean_linker_0, # of connection points: 2
# Relax obj value: 0.277
# Max RMSD: 0.264
# Mean RMSD: 0.264
data_MOF--net-lcy-e--node1-CIFDUS_clean_sbu_1--edge1-AJUNOK_clean_linker_0
_symmetry_space_group_name_H-M    P1
_symmetry_Int_Tables_number       1
_symmetry_cell_setting            triclinic
loop_
_symmetry_equiv_pos_as_xyz
'x, y, z'
_cell_length_a     26.820151
_cell_length_b     26.809062
_cell_length_c     26.752723
_cell_angle_alpha  89.979697
_cell_angle_beta   90.025481
_cell_angle_gamma 89.701844
loop_
_atom_site_label
_atom_site_type_symbol
_atom_site_fract_x
_atom_site_fract_y
_atom_site_fract_z
_atom_type_partial_charge
O0 O 0.0831 0.14813 0.42729 0.0
Mn1 Mn 0.12844 0.20445 0.45491 0.0
O2 O 0.01044 0.18523 0.44168 0.0
Mn3 Mn 0.03205 0.2501 0.43315 0.0
O4 O 0.17092 0.26378 0.48061 0.0
O5 O 0.16303 0.15376 0.49964 0.0
Mn6 Mn 0.22615 0.17236 0.50494 0.0
O7 O 0.18074 0.18931 0.39791 0.0
O8 O 0.23115 0.23639 0.53124 0.0
O9 O 0.08002 0.21982 0.51592 0.0
O10 O 0.03222 0.28389 0.49239 0.0
O11 O 0.22073 0.11534 0.54262 0.0
O12 O 0.25002 0.1668 0.44087 0.0
C13 C 0.07502 0.26686 0.36759 0.0
C14 C 0.03556 0.14706 0.4297 0.0
C15 C 0.20623 0.27176 0.51155 0.0
C16 C 0.17498 0.11549 0.52707 0.0
C17 C 0.22701 0.17576 0.40007 0.0
C18 C 0.05191 0.25755 0.52658 0.0
O19 O 0.09488 0.25739 0.41105 0.0
O20 O 0.02684 0.26965 0.36846 0.0
O21 O 0.1138 0.82737 0.68573 0.0
Mn22 Mn 0.05289 0.87516 0.70366 0.0
O23 O 0.07673 0.75304 0.67283 0.0
Mn24 Mn 0.01166 0.77312 0.68164 0.0
O25 O 0.9897 0.91809 0.72081 0.0
O26 O 0.09816 0.91527 0.74831 0.0
Mn27 Mn 0.07602 0.97763 0.74913 0.0
O28 O 0.07085 0.92374 0.64396 0.0
O29 O 0.01137 0.97801 0.77411 0.0
O30 O 0.03572 0.83331 0.76785 0.0
O31 O 0.98879 0.76856 0.74635 0.0
O32 O 0.1324 0.97573 0.78907 0.0
O33 O 0.08099 0.99816 0.68311 0.0
C34 C 0.97577 0.81625 0.62545 0.0
C35 C 0.11553 0.78008 0.67599 0.0
C36 C 0.97811 0.95219 0.75237 0.0
C37 C 0.1348 0.92916 0.77652 0.0
C38 C 0.07899 0.97141 0.64358 0.0
C39 C 0.00784 0.79638 0.77937 0.0
O40 O 0.00656 0.83508 0.6582 0.0
O41 O 0.96809 0.76881 0.63002 0.0
O42 O 0.32798 0.8227 0.89479 0.0
Mn43 Mn 0.37548 0.80146 0.95453 0.0
O44 O 0.25354 0.82757 0.93199 0.0
Mn45 Mn 0.27668 0.82788 0.99685 0.0
O46 O 0.42082 0.78329 0.01648 0.0
O47 O 0.40715 0.75102 0.90823 0.0
Mn48 Mn 0.4671 0.74015 0.93225 0.0
O49 O 0.42993 0.85419 0.93156 0.0
O50 O 0.46394 0.71544 0.99603 0.0
O51 O 0.32952 0.74161 0.97546 0.0
O52 O 0.26983 0.76676 0.0275 0.0
O53 O 0.46303 0.69998 0.87731 0.0
O54 O 0.49623 0.80175 0.92749 0.0
C55 C 0.32046 0.89093 0.01927 0.0
C56 C 0.28025 0.8283 0.89305 0.0
C57 C 0.44813 0.74581 0.02853 0.0
C58 C 0.41911 0.71989 0.87309 0.0
C59 C 0.47688 0.84508 0.92289 0.0
C60 C 0.29474 0.73208 0.00684 0.0
O61 O 0.34023 0.84881 0.00412 0.0
O62 O 0.27243 0.88936 0.02407 0.0
O63 O 0.43276 0.07842 0.1461 0.0
Mn64 Mn 0.45308 0.12914 0.20337 0.0
O65 O 0.42145 0.00631 0.18915 0.0
Mn66 Mn 0.42393 0.03051 0.25399 0.0
O67 O 0.47264 0.17498 0.26455 0.0
O68 O 0.5023 0.16462 0.16038 0.0
Mn69 Mn 0.5048 0.22812 0.1779 0.0
O70 O 0.39693 0.18031 0.17978 0.0
O71 O 0.53508 0.22458 0.2399 0.0
O72 O 0.51314 0.08297 0.22415 0.0
O73 O 0.4867 0.03045 0.28277 0.0
O74 O 0.52914 0.22181 0.11284 0.0
O75 O 0.44031 0.25185 0.1835 0.0
C76 C 0.36738 0.0832 0.27631 0.0
C77 C 0.42299 0.03104 0.14829 0.0
C78 C 0.50964 0.20389 0.2743 0.0
C79 C 0.51656 0.17545 0.11586 0.0
C80 C 0.40004 0.22832 0.17553 0.0
C81 C 0.52187 0.05192 0.25959 0.0
O82 O 0.40495 0.09344 0.24814 0.0
O83 O 0.36599 0.03733 0.29117 0.0
O84 O 0.67538 0.32687 0.6086 0.0
Mn85 Mn 0.62697 0.30443 0.55114 0.0
O86 O 0.74792 0.34364 0.56809 0.0
Mn87 Mn 0.72817 0.33328 0.50249 0.0
O88 O 0.58284 0.28364 0.49045 0.0
O89 O 0.59035 0.26034 0.59784 0.0
Mn90 Mn 0.52687 0.25517 0.58217 0.0
O91 O 0.57642 0.36235 0.56851 0.0
O92 O 0.52527 0.2296 0.51727 0.0
O93 O 0.67228 0.24301 0.53423 0.0
O94 O 0.73174 0.26723 0.48093 0.0
O95 O 0.53814 0.21727 0.64001 0.0
O96 O 0.50493 0.32075 0.58653 0.0
C97 C 0.67194 0.38576 0.4763 0.0
C98 C 0.72152 0.34062 0.60777 0.0
C99 C 0.54893 0.25124 0.48215 0.0
C100 C 0.58353 0.23274 0.63632 0.0
C101 C 0.52953 0.36107 0.5801 0.0
C102 C 0.70737 0.23302 0.50315 0.0
O103 O 0.66422 0.34816 0.50471 0.0
O104 O 0.71768 0.3889 0.46152 0.0
O105 O 0.92742 0.42562 0.85982 0.0
Mn106 Mn 0.95365 0.3765 0.80428 0.0
O107 O 0.93925 0.49513 0.81631 0.0
Mn108 Mn 0.93305 0.46789 0.75316 0.0
O109 O 0.97619 0.33293 0.74411 0.0
O110 O 1.00127 0.34516 0.85569 0.0
Mn111 Mn 0.00896 0.28442 0.82997 0.0
O112 O 0.8991 0.32354 0.82305 0.0
O113 O 0.0376 0.28307 0.76757 0.0
O114 O 0.01462 0.42263 0.7861 0.0
O115 O 0.99264 0.46729 0.71993 0.0
O116 O 0.0479 0.28306 0.88457 0.0
O117 O 0.9475 0.25519 0.83282 0.0
C118 C 0.86572 0.42932 0.73777 0.0
C119 C 0.92803 0.47342 0.85675 0.0
C120 C 0.01207 0.30357 0.73364 0.0
C121 C 0.03139 0.32825 0.89037 0.0
C122 C 0.90482 0.27612 0.83003 0.0
C123 C 0.02624 0.44794 0.7471 0.0
O124 O 0.90707 0.40615 0.75012 0.0
O125 O 0.87065 0.47671 0.7295 0.0
O126 O 0.92942 0.64331 0.07637 0.0
Mn127 Mn 0.88044 0.70138 0.05594 0.0
O128 O 0.00241 0.68423 0.08897 0.0
Mn129 Mn 0.98106 0.74999 0.08533 0.0
O130 O 0.8374 0.76437 0.03597 0.0
O131 O 0.84293 0.65402 0.01004 0.0
Mn132 Mn 0.78044 0.67641 0.01062 0.0
O133 O 0.83079 0.68433 0.1149 0.0
O134 O 0.77699 0.74003 0.9846 0.0
O135 O 0.92668 0.71851 0.99495 0.0
O136 O 0.98071 0.77635 0.02106 0.0
O137 O 0.77936 0.62256 0.96936 0.0
O138 O 0.75769 0.67121 0.07513 0.0
C139 C 0.92661 0.77379 0.14023 0.0
C140 C 0.97686 0.64418 0.08543 0.0
C141 C 0.80202 0.77436 0.00515 0.0
C142 C 0.82658 0.62003 0.97945 0.0
C143 C 0.78338 0.67577 0.11489 0.0
C144 C 0.95888 0.75272 0.98616 0.0
O145 O 0.91801 0.74576 0.10229 0.0
O146 O 0.97236 0.78842 0.14278 0.0
O147 O 0.61197 0.67367 0.32825 0.0
Mn148 Mn 0.55272 0.6285 0.30465 0.0
O149 O 0.57805 0.74984 0.32769 0.0
Mn150 Mn 0.51228 0.72994 0.32985 0.0
O151 O 0.49236 0.58505 0.28215 0.0
O152 O 0.60099 0.593 0.25925 0.0
Mn153 Mn 0.58214 0.5307 0.25163 0.0
O154 O 0.56873 0.5759 0.36112 0.0
O155 O 0.51906 0.5322 0.22342 0.0
O156 O 0.53528 0.6749 0.24372 0.0
O157 O 0.48241 0.73491 0.26833 0.0
O158 O 0.64045 0.53776 0.21532 0.0
O159 O 0.58352 0.50559 0.316 0.0
C160 C 0.48956 0.68314 0.39182 0.0
C161 C 0.61564 0.72134 0.33087 0.0
C162 C 0.48388 0.55385 0.24692 0.0
C163 C 0.6392 0.58322 0.23146 0.0
C164 C 0.5777 0.52845 0.35759 0.0
C165 C 0.50346 0.70962 0.23409 0.0
O166 O 0.50253 0.66605 0.34817 0.0
O167 O 0.48689 0.73136 0.39302 0.0
O168 O 0.18491 0.39744 0.18238 0.0
Mn169 Mn 0.20313 0.45432 0.13069 0.0
O170 O 0.17529 0.44035 0.25501 0.0
Mn171 Mn 0.17883 0.5052 0.2317 0.0
O172 O 0.21946 0.51512 0.08321 0.0
O173 O 0.25023 0.41011 0.0919 0.0
Mn174 Mn 0.24389 0.42769 0.02787 0.0
O175 O 0.14309 0.43307 0.08578 0.0
O176 O 0.27535 0.48903 0.02664 0.0
O177 O 0.26555 0.47455 0.17239 0.0
O178 O 0.24279 0.53089 0.22959 0.0
O179 O 0.26701 0.36262 0.03023 0.0
O180 O 0.17753 0.43252 0.00935 0.0
C181 C 0.12033 0.52684 0.18003 0.0
C182 C 0.17517 0.3998 0.22983 0.0
C183 C 0.2529 0.52404 0.04988 0.0
C184 C 0.26182 0.36535 0.07822 0.0
C185 C 0.13985 0.4302 0.03793 0.0
C186 C 0.27628 0.5081 0.20468 0.0
O187 O 0.15845 0.49969 0.16932 0.0
O188 O 0.12042 0.54268 0.22567 0.0
O189 O 0.6841 0.11276 0.82615 0.0
Mn190 Mn 0.70238 0.05429 0.87759 0.0
O191 O 0.67171 0.0683 0.75551 0.0
Mn192 Mn 0.67175 0.00524 0.78175 0.0
O193 O 0.72095 0.99254 0.92331 0.0
O194 O 0.75188 0.09815 0.91047 0.0
Mn195 Mn 0.7629 0.08036 0.97214 0.0
O196 O 0.6494 0.07734 0.93265 0.0
O197 O 0.7858 0.01517 0.97036 0.0
O198 O 0.76118 0.03232 0.83024 0.0
O199 O 0.73324 0.97337 0.77974 0.0
O200 O 0.80224 0.13584 0.96065 0.0
O201 O 0.70052 0.0876 0.99922 0.0
C202 C 0.61449 0.98183 0.83044 0.0
C203 C 0.67659 0.10976 0.77817 0.0
C204 C 0.75764 0.98159 0.95245 0.0
C205 C 0.78181 0.13467 0.91689 0.0
C206 C 0.65705 0.08646 0.9799 0.0
C207 C 0.76929 0.99646 0.79958 0.0
O208 O 0.65063 0.01076 0.84429 0.0
O209 O 0.61424 0.96976 0.78352 0.0
O210 O 0.82067 0.89533 0.32763 0.0
Mn211 Mn 0.80259 0.95125 0.38265 0.0
O212 O 0.83458 0.94449 0.26139 0.0
Mn213 Mn 0.82602 0.00452 0.2907 0.0
O214 O 0.786 0.01138 0.43063 0.0
O215 O 0.75624 0.90194 0.41711 0.0
Mn216 Mn 0.75072 0.92757 0.47843 0.0
O217 O 0.85793 0.92619 0.43246 0.0
O218 O 0.72125 0.98994 0.47643 0.0
O219 O 0.74019 0.97358 0.34041 0.0
O220 O 0.76281 0.03045 0.28531 0.0
O221 O 0.7127 0.87152 0.47923 0.0
O222 O 0.8146 0.92552 0.50514 0.0
C223 C 0.884 0.03322 0.33159 0.0
C224 C 0.83038 0.90156 0.2804 0.0
C225 C 0.74854 0.02344 0.45781 0.0
C226 C 0.72728 0.86659 0.43333 0.0
C227 C 0.85525 0.92148 0.48063 0.0
C228 C 0.72912 0.00684 0.30788 0.0
O229 O 0.85243 1.00139 0.3515 0.0
O230 O 0.87697 0.04599 0.28529 0.0
O231 O 0.35775 0.57419 0.57597 0.0
Mn232 Mn 0.3015 0.55208 0.62654 0.0
O233 O 0.31428 0.5792 0.5032 0.0
Mn234 Mn 0.24906 0.57762 0.52686 0.0
O235 O 0.24074 0.53175 0.67229 0.0
O236 O 0.34905 0.5079 0.66401 0.0
Mn237 Mn 0.33056 0.50336 0.72713 0.0
O238 O 0.31906 0.60983 0.67616 0.0
O239 O 0.26772 0.47489 0.72727 0.0
O240 O 0.28468 0.49057 0.58111 0.0
O241 O 0.22213 0.51401 0.531 0.0
O242 O 0.38933 0.46702 0.72085 0.0
O243 O 0.33174 0.56891 0.74946 0.0
C244 C 0.23051 0.63722 0.57907 0.0
C245 C 0.35504 0.58151 0.52809 0.0
C246 C 0.23241 0.4979 0.70529 0.0
C247 C 0.38769 0.4812 0.67467 0.0
C248 C 0.32733 0.60893 0.72376 0.0
C249 C 0.24836 0.48014 0.55174 0.0
O250 O 0.25546 0.59739 0.5892 0.0
O251 O 0.2141 0.63784 0.53365 0.0
C252 C 0.18068 0.35685 0.53946 0.0
C253 C 0.21847 0.32415 0.52304 0.0
C254 C 0.19047 0.40753 0.54813 0.0
C255 C 0.23825 0.42725 0.54014 0.0
H256 H 0.14335 0.34301 0.54591 0.0
H257 H 0.16065 0.4313 0.56177 0.0
S258 S 0.34706 0.35937 0.48768 0.0
N259 N 0.30372 0.31618 0.49351 0.0
N260 N 0.32181 0.41172 0.50858 0.0
C261 C 0.27575 0.39542 0.52162 0.0
C262 C 0.26592 0.34374 0.51332 0.0
C263 C 0.85897 0.02079 0.78958 0.0
C264 C 0.8217 0.98433 0.785 0.0
C265 C 0.90925 0.01023 0.7792 0.0
C266 C 0.9244 0.96277 0.76247 0.0
H267 H 0.84896 0.05813 0.80051 0.0
H268 H 0.93631 0.03976 0.78372 0.0
S269 S 0.84125 0.85454 0.74075 0.0
N270 N 0.8034 0.89906 0.76066 0.0
N271 N 0.89747 0.8793 0.73968 0.0
C272 C 0.88727 0.92632 0.75579 0.0
C273 C 0.8361 0.93704 0.76717 0.0
C274 C 0.32116 0.64646 0.03218 0.0
C275 C 0.28294 0.67932 0.01725 0.0
C276 C 0.3114 0.59592 0.04168 0.0
C277 C 0.26316 0.57648 0.03625 0.0
H278 H 0.35877 0.66012 0.03715 0.0
H279 H 0.34163 0.57215 0.05403 0.0
S280 S 0.15298 0.64446 0.98684 0.0
N281 N 0.19671 0.68747 0.99071 0.0
N282 N 0.17864 0.59217 0.00747 0.0
C283 C 0.22524 0.60833 0.01862 0.0
C284 C 0.23506 0.65989 0.00939 0.0
C285 C 0.61155 0.04036 0.23528 0.0
C286 C 0.57432 0.03923 0.27231 0.0
C287 C 0.66168 0.02993 0.24687 0.0
C288 C 0.67616 0.01715 0.29583 0.0
H289 H 0.60164 0.04854 0.19694 0.0
H290 H 0.68913 0.0311 0.21719 0.0
S291 S 0.5934 0.00901 0.40628 0.0
N292 N 0.55575 0.02471 0.35997 0.0
N293 N 0.64945 0.00392 0.38136 0.0
C294 C 0.63923 0.01501 0.33288 0.0
C295 C 0.58843 0.02623 0.32124 0.0
C296 C 0.68167 0.14337 0.49602 0.0
C297 C 0.71933 0.1797 0.49283 0.0
C298 C 0.69148 0.09297 0.48516 0.0
C299 C 0.73941 0.07675 0.47077 0.0
H300 H 0.64399 0.15406 0.50618 0.0
H301 H 0.66104 0.06668 0.48734 0.0
S302 S 0.85263 0.15566 0.46375 0.0
N303 N 0.80744 0.19501 0.4787 0.0
N304 N 0.82598 0.10053 0.4586 0.0
C305 C 0.77778 0.11242 0.46912 0.0
C306 C 0.76773 0.16375 0.48004 0.0
C307 C 0.11495 0.42361 0.73186 0.0
C308 C 0.07877 0.46112 0.73854 0.0
C309 C 0.1649 0.43581 0.7219 0.0
C310 C 0.18024 0.48586 0.71892 0.0
H311 H 0.10432 0.3847 0.73315 0.0
H312 H 0.19146 0.40592 0.71543 0.0
S313 S 0.10156 0.59679 0.74623 0.0
N314 N 0.06246 0.54953 0.74856 0.0
N315 N 0.15663 0.57234 0.73282 0.0
C316 C 0.14484 0.52337 0.72916 0.0
C317 C 0.09396 0.51101 0.73826 0.0
C318 C 0.81552 0.91378 0.98189 0.0
C319 C 0.76724 0.9287 0.96701 0.0
C320 C 0.82636 0.86405 0.99466 0.0
C321 C 0.78929 0.8272 0.99362 0.0
H322 H 0.84558 0.94058 0.98289 0.0
H323 H 0.86435 0.85426 0.00452 0.0
S324 S 0.6551 0.84819 0.96683 0.0
N325 N 0.68079 0.90332 0.9578 0.0
N326 N 0.70114 0.81012 0.98221 0.0
C327 C 0.74041 0.84191 0.98092 0.0
C328 C 0.72938 0.89252 0.96762 0.0
C329 C 0.39466 0.54545 0.27259 0.0
C330 C 0.43149 0.54107 0.2353 0.0
C331 C 0.34457 0.53469 0.26243 0.0
C332 C 0.32943 0.51897 0.21464 0.0
H333 H 0.4046 0.55703 0.31008 0.0
H334 H 0.31761 0.53827 0.29238 0.0
S335 S 0.41113 0.5022 0.10388 0.0
N336 N 0.44925 0.52047 0.14865 0.0
N337 N 0.35526 0.4997 0.12963 0.0
C338 C 0.36595 0.5139 0.17719 0.0
C339 C 0.41691 0.52506 0.1875 0.0
C340 C 0.55469 0.18967 0.3547 0.0
C341 C 0.51975 0.21726 0.32681 0.0
C342 C 0.56354 0.20062 0.40532 0.0
C343 C 0.53732 0.23911 0.42966 0.0
H344 H 0.5752 0.15938 0.33729 0.0
H345 H 0.59115 0.17894 0.42553 0.0
S346 S 0.4439 0.324 0.37237 0.0
N347 N 0.46055 0.28622 0.32636 0.0
N348 N 0.4764 0.30603 0.4218 0.0
C349 C 0.50291 0.2675 0.40195 0.0
C350 C 0.49433 0.25675 0.35033 0.0
C351 C 0.03697 0.31797 0.59563 0.0
C352 C 0.03899 0.26825 0.57903 0.0
C353 C 0.02778 0.32916 0.64594 0.0
C354 C 0.02091 0.29094 0.68112 0.0
H355 H 0.04362 0.34835 0.5698 0.0
H356 H 0.02709 0.36786 0.65761 0.0
S357 S 0.00999 0.15605 0.65453 0.0
N358 N 0.02393 0.18145 0.60005 0.0
N359 N 0.00863 0.20245 0.69509 0.0
C360 C 0.01983 0.24139 0.66462 0.0
C361 C 0.02844 0.23003 0.61334 0.0
C362 C 0.98089 0.82287 0.86487 0.0
C363 C 0.99801 0.78516 0.83253 0.0
C364 C 0.96857 0.81215 0.91481 0.0
C365 C 0.97295 0.76341 0.93387 0.0
H366 H 0.97588 0.86061 0.85115 0.0
H367 H 0.95462 0.84195 0.9384 0.0
S368 S 0.02261 0.65315 0.86635 0.0
N369 N 0.023 0.6983 0.82427 0.0
N370 N 0.9998 0.67821 0.918 0.0
C371 C 0.99146 0.72576 0.90233 0.0
C372 C 0.00402 0.73665 0.85164 0.0
C373 C 0.47212 0.6817 0.15175 0.0
C374 C 0.49125 0.72008 0.18166 0.0
C375 C 0.45842 0.69067 0.1021 0.0
C376 C 0.46333 0.73829 0.08084 0.0
H377 H 0.46689 0.64469 0.16713 0.0
H378 H 0.4432 0.66025 0.08036 0.0
S379 S 0.52148 0.84843 0.14083 0.0
N380 N 0.52084 0.80547 0.18517 0.0
N381 N 0.49533 0.82253 0.09127 0.0
C382 C 0.48483 0.77649 0.10965 0.0
C383 C 0.49872 0.76729 0.16035 0.0
C384 C 0.14925 0.28593 0.31102 0.0
C385 C 0.10102 0.29743 0.32902 0.0
C386 C 0.17288 0.31658 0.27499 0.0
C387 C 0.14855 0.3591 0.25565 0.0
H388 H 0.16906 0.2537 0.32524 0.0
H389 H 0.21087 0.30826 0.26394 0.0
S390 S 0.02424 0.40778 0.2927 0.0
N391 N 0.03188 0.35682 0.32634 0.0
N392 N 0.07463 0.41155 0.25774 0.0
C393 C 0.10022 0.37012 0.2727 0.0
C394 C 0.07695 0.34018 0.30966 0.0
C395 C 0.94923 0.897 0.58357 0.0
C396 C 0.95048 0.8445 0.58452 0.0
C397 C 0.92086 0.92281 0.54735 0.0
C398 C 0.89563 0.89719 0.50898 0.0
H399 H 0.96788 0.91816 0.61247 0.0
H400 H 0.91691 0.9629 0.55061 0.0
S401 S 0.88161 0.7605 0.49783 0.0
N402 N 0.91937 0.76816 0.54586 0.0
N403 N 0.86953 0.81716 0.47699 0.0
C404 C 0.89693 0.84508 0.5093 0.0
C405 C 0.92371 0.81868 0.54704 0.0
C406 C 0.31516 0.6661 0.79558 0.0
C407 C 0.34065 0.65457 0.75087 0.0
C408 C 0.33854 0.69306 0.83411 0.0
C409 C 0.38832 0.7082 0.829 0.0
H410 H 0.27886 0.65 0.80268 0.0
H411 H 0.31948 0.69739 0.86956 0.0
S412 S 0.46902 0.69176 0.71769 0.0
N413 N 0.41611 0.66457 0.70226 0.0
N414 N 0.46017 0.71474 0.77423 0.0
C415 C 0.4122 0.70096 0.78276 0.0
C416 C 0.38827 0.67428 0.74362 0.0
C417 C 0.53177 0.13007 0.03475 0.0
C418 C 0.54466 0.13975 0.0849 0.0
C419 C 0.56685 0.10939 1.00098 0.0
C420 C 0.61616 0.09901 0.01626 0.0
H421 H 0.49542 0.14118 0.02091 0.0
H422 H 0.5562 0.10442 0.96226 0.0
S423 S 0.66729 0.11961 0.14488 0.0
N424 N 0.60871 0.13789 0.14825 0.0
N425 N 0.67414 0.09863 0.0875 0.0
C426 C 0.62792 0.10639 0.06772 0.0
C427 C 0.59235 0.12697 0.10131 0.0
C428 C 0.65316 0.17584 0.65664 0.0
C429 C 0.62273 0.21572 0.67118 0.0
C430 C 0.67671 0.1459 0.69253 0.0
C431 C 0.66953 0.15372 0.7445 0.0
H432 H 0.65498 0.16475 0.61771 0.0
H433 H 0.69662 0.11322 0.67924 0.0
S434 S 0.60717 0.26389 0.80009 0.0
N435 N 0.59683 0.26958 0.7394 0.0
N436 N 0.6404 0.21226 0.80736 0.0
C437 C 0.64531 0.19785 0.759 0.0
C438 C 0.62161 0.22883 0.72213 0.0
C439 C 0.07296 0.4348 0.97387 0.0
C440 C 0.09564 0.40901 0.01387 0.0
C441 C 0.04807 0.40899 0.93547 0.0
C442 C 0.04649 0.35657 0.93544 0.0
H443 H 0.07824 0.47466 0.97005 0.0
H444 H 0.0338 0.42984 0.90381 0.0
S445 S 0.09831 0.27238 0.03332 0.0
N446 N 0.11236 0.32902 0.05258 0.0
N447 N 0.06646 0.28027 0.98113 0.0
C448 C 0.06602 0.33088 0.97723 0.0
C449 C 0.09031 0.35719 0.01639 0.0
C450 C 0.85843 0.81316 0.25783 0.0
C451 C 0.84068 0.86058 0.24352 0.0
C452 C 0.88207 0.7815 0.22261 0.0
C453 C 0.88818 0.79631 0.17236 0.0
H454 H 0.85774 0.80219 0.29678 0.0
H455 H 0.89888 0.74699 0.2355 0.0
S456 S 0.8453 0.91395 0.11438 0.0
N457 N 0.82572 0.91702 0.17261 0.0
N458 N 0.87363 0.85949 0.10981 0.0
C459 C 0.86747 0.8414 0.15694 0.0
C460 C 0.84249 0.87285 0.19164 0.0
C461 C 0.43848 0.58397 0.48267 0.0
C462 C 0.39512 0.60784 0.50082 0.0
C463 C 0.46945 0.60764 0.44682 0.0
C464 C 0.45731 0.65531 0.4277 0.0
H465 H 0.44756 0.5465 0.49492 0.0
H466 H 0.50274 0.58858 0.43409 0.0
S467 S 0.34475 0.73042 0.46036 0.0
N468 N 0.34125 0.68054 0.49614 0.0
N469 N 0.39632 0.72308 0.42766 0.0
C470 C 0.41341 0.67854 0.44538 0.0
C471 C 0.38327 0.65538 0.48225 0.0
C472 C 0.24302 0.13367 0.3182 0.0
C473 C 0.25763 0.16817 0.35482 0.0
C474 C 0.27902 0.10949 0.28836 0.0
C475 C 0.33024 0.11966 0.29399 0.0
H476 H 0.20468 0.12128 0.3164 0.0
H477 H 0.26715 0.07976 0.2637 0.0
S478 S 0.38637 0.20672 0.38453 0.0
N479 N 0.32589 0.21344 0.39272 0.0
N480 N 0.39306 0.1664 0.33845 0.0
C481 C 0.34459 0.15677 0.3276 0.0
C482 C 0.30821 0.18172 0.35733 0.0
C483 C 0.09434 0.08234 0.5599 0.0
C484 C 0.14177 0.07334 0.54002 0.0
C485 C 0.07008 0.04574 0.58861 0.0
C486 C 0.09198 0.99846 0.5971 0.0
H487 H 0.07833 0.11916 0.5571 0.0
H488 H 0.03606 0.05589 0.60796 0.0
S489 S 0.20986 0.95251 0.54152 0.0
N490 N 0.2055 0.011 0.52249 0.0
N491 N 0.1595 0.94205 0.57541 0.0
C492 C 0.13611 0.98694 0.57149 0.0
C493 C 0.16118 0.02449 0.54318 0.0
C494 C 0.17075 0.84762 0.80753 0.0
C495 C 0.17762 0.89743 0.79279 0.0
C496 C 0.20791 0.8221 0.83491 0.0
C497 C 0.25362 0.84499 0.8474 0.0
H498 H 0.13504 0.82981 0.80188 0.0
H499 H 0.19914 0.78573 0.85016 0.0
S500 S 0.29258 0.97208 0.81081 0.0
N501 N 0.23582 0.96655 0.78758 0.0
N502 N 0.30523 0.91828 0.83821 0.0
C503 C 0.26266 0.89279 0.82841 0.0
C504 C 0.2247 0.9191 0.80142 0.0
C505 C 0.42339 0.97749 0.07013 0.0
C506 C 0.39743 0.00521 0.10672 0.0
C507 C 0.39878 0.94095 0.04082 0.0
C508 C 0.34773 0.93042 0.048 0.0
H509 H 0.46321 0.9824 0.06576 0.0
H510 H 0.42003 0.92011 0.01342 0.0
S511 S 0.26571 0.98874 0.14471 0.0
N512 N 0.31945 0.01761 0.15054 0.0
N513 N 0.27388 0.94903 0.09841 0.0
C514 C 0.32205 0.95799 0.08523 0.0
C515 C 0.34667 0.9953 0.11373 0.0
C516 C 0.78861 0.43368 0.68541 0.0
C517 C 0.82212 0.404 0.71359 0.0
C518 C 0.7518 0.4125 0.65519 0.0
C519 C 0.7456 0.36074 0.6527 0.0
H520 H 0.7925 0.47383 0.68394 0.0
H521 H 0.73031 0.43676 0.6308 0.0
S522 S 0.8174 0.2657 0.72242 0.0
N523 N 0.84297 0.3192 0.73901 0.0
N524 N 0.77185 0.28004 0.68345 0.0
C525 C 0.77566 0.33053 0.68305 0.0
C526 C 0.81428 0.35196 0.71323 0.0
C527 C 0.86686 0.53941 0.87282 0.0
C528 C 0.90232 0.50626 0.89305 0.0
C529 C 0.84534 0.57707 0.90125 0.0
C530 C 0.85751 0.58351 0.95176 0.0
H531 H 0.85593 0.5367 0.83389 0.0
H532 H 0.81825 0.60132 0.88329 0.0
S533 S 0.94628 0.50512 0.02426 0.0
N534 N 0.94841 0.48139 0.96723 0.0
N535 N 0.90589 0.55199 0.02221 0.0
C536 C 0.89242 0.55034 0.97338 0.0
C537 C 0.91505 0.51153 0.94373 0.0
C538 C 0.76643 0.62455 0.19013 0.0
C539 C 0.75512 0.66679 0.16129 0.0
C540 C 0.72903 0.60056 0.21783 0.0
C541 C 0.67943 0.61836 0.21803 0.0
H542 H 0.80254 0.60657 0.18661 0.0
H543 H 0.73802 0.56535 0.23566 0.0
S544 S 0.63308 0.73206 0.15411 0.0
N545 N 0.69286 0.72927 0.13964 0.0
N546 N 0.62281 0.68388 0.19112 0.0
C547 C 0.6692 0.66367 0.19389 0.0
C548 C 0.70718 0.68809 0.16579 0.0
C549 C 0.59721 0.40919 0.42731 0.0
C550 C 0.63417 0.42287 0.4615 0.0
C551 C 0.57323 0.4455 0.39817 0.0
C552 C 0.58574 0.49655 0.40209 0.0
H553 H 0.59049 0.37016 0.4193 0.0
H554 H 0.54849 0.43297 0.36873 0.0
S555 S 0.6698 0.55153 0.49667 0.0
N556 N 0.6746 0.49067 0.50563 0.0
N557 N 0.62947 0.55918 0.45053 0.0
C558 C 0.61732 0.51097 0.44118 0.0
C559 C 0.6419 0.47388 0.47079 0.0
C560 C 0.27776 0.29718 0.14305 0.0
C561 C 0.29512 0.33277 0.10826 0.0
C562 C 0.31071 0.26127 0.16431 0.0
C563 C 0.3614 0.25958 0.15025 0.0
H564 H 0.2387 0.29671 0.15329 0.0
H565 H 0.29677 0.23546 0.19208 0.0
S566 S 0.42373 0.34376 0.05901 0.0
N567 N 0.36583 0.36435 0.06187 0.0
N568 N 0.42583 0.29551 0.09714 0.0
C569 C 0.3781 0.29456 0.11454 0.0
C570 C 0.34558 0.33158 0.09496 0.0
C571 C 0.87264 0.1901 0.83155 0.0
C572 C 0.86246 0.24157 0.83699 0.0
C573 C 0.84208 0.15445 0.85305 0.0
C574 C 0.79846 0.16828 0.87764 0.0
H575 H 0.90733 0.17706 0.81528 0.0
H576 H 0.85601 0.11669 0.85601 0.0
S577 S 0.74562 0.29568 0.8877 0.0
N578 N 0.79999 0.30373 0.85974 0.0
N579 N 0.74027 0.23503 0.89746 0.0
C580 C 0.78351 0.21855 0.87675 0.0
C581 C 0.81582 0.25568 0.8564 0.0
C582 C 0.09097 0.56596 0.10122 0.0
C583 C 0.07978 0.54016 0.14523 0.0
C584 C 0.05428 0.59459 0.07704 0.0
C585 C 0.0054 0.5982 0.09616 0.0
H586 H 0.12919 0.56849 0.08873 0.0
H587 H 0.06539 0.61827 0.04628 0.0
S588 S 0.955 0.52693 0.203 0.0
N589 N 0.01481 0.51186 0.20152 0.0
N590 N 0.94577 0.56582 0.15591 0.0
C591 C 0.99235 0.56714 0.1361 0.0
C592 C 0.02978 0.53822 0.1609 0.0
C593 C 0.70847 0.82313 0.35189 0.0
C594 C 0.71253 0.8217 0.40429 0.0
C595 C 0.68208 0.78582 0.326 0.0
C596 C 0.66034 0.74535 0.35157 0.0
H597 H 0.72163 0.85531 0.33137 0.0
H598 H 0.67491 0.79091 0.28645 0.0
S599 S 0.6655 0.7213 0.4876 0.0
N600 N 0.69736 0.77325 0.47989 0.0
N601 N 0.64775 0.70436 0.43109 0.0
C602 C 0.66847 0.74115 0.40303 0.0
C603 C 0.69467 0.77903 0.42944 0.0
C604 C 0.45124 0.40963 0.57265 0.0
C605 C 0.50075 0.40708 0.59034 0.0
C606 C 0.41509 0.43905 0.59672 0.0
C607 C 0.42735 0.46667 0.63932 0.0
H608 H 0.43934 0.38473 0.54317 0.0
H609 H 0.37655 0.43588 0.58545 0.0
S610 S 0.55329 0.48102 0.69435 0.0
N611 N 0.56154 0.441 0.64806 0.0
N612 N 0.49352 0.49626 0.6935 0.0
C613 C 0.4777 0.46896 0.65383 0.0
C614 C 0.51461 0.43932 0.62908 0.0
C615 C 0.1952 0.66744 0.65921 0.0
C616 C 0.21934 0.67836 0.61436 0.0
C617 C 0.16727 0.70406 0.68435 0.0
C618 C 0.16272 0.75301 0.66537 0.0
H619 H 0.19365 0.62933 0.67167 0.0
H620 H 0.14462 0.69274 0.71581 0.0
S621 S 0.2339 0.8041 0.55871 0.0
N622 N 0.24785 0.74395 0.55881 0.0
N623 N 0.19536 0.81312 0.60612 0.0
C624 C 0.1933 0.76618 0.62503 0.0
C625 C 0.22145 0.72861 0.59922 0.0
C626 C 0.50504 0.93496 0.9071 0.0
C627 C 0.51265 0.88298 0.90311 0.0
C628 C 0.54037 0.96889 0.88743 0.0
C629 C 0.5846 0.95149 0.86469 0.0
H630 H 0.4714 0.94934 0.92437 0.0
H631 H 0.53212 0.00847 0.88807 0.0
S632 S 0.62205 0.82076 0.84154 0.0
N633 N 0.56773 0.81726 0.86996 0.0
N634 N 0.63433 0.88074 0.83915 0.0
C635 C 0.59323 0.90034 0.862 0.0
C636 C 0.55716 0.86615 0.87936 0.0
C637 C 0.94376 0.10216 0.33747 0.0
C638 C 0.92596 0.05736 0.35819 0.0
C639 C 0.98348 0.1276 0.35848 0.0
C640 C 0.00694 0.11013 0.40184 0.0
H641 H 0.92613 0.11892 0.30507 0.0
H642 H 0.99395 0.16316 0.34233 0.0
S643 S 0.98129 0.99201 0.46725 0.0
N644 N 0.93963 0.99354 0.42162 0.0
N645 N 0.01372 0.04397 0.46294 0.0
C646 C 0.99165 0.06469 0.42227 0.0
C647 C 0.95111 0.03778 0.40017 0.0
loop_
_geom_bond_atom_site_label_1
_geom_bond_atom_site_label_2
_geom_bond_distance
_geom_bond_site_symmetry_2
_ccdc_geom_bond_type
O0 Mn1 2.163 . S
O0 C14 1.244 . S
Mn1 O0 2.163 . S
Mn1 O4 2.160 . S
Mn1 O5 2.221 . S
Mn1 O7 2.163 . S
Mn1 O9 2.160 . S
Mn1 O19 2.221 . S
O2 Mn3 2.087 . S
O2 C14 1.256 . S
Mn3 O2 2.087 . S
Mn3 O10 2.089 1_455 S
Mn3 O19 2.290 . S
Mn3 O20 2.251 . S
O4 Mn1 2.160 . S
O4 C15 1.239 . S
O5 Mn1 2.221 . S
O5 Mn6 2.290 . S
O5 C16 1.278 . S
Mn6 O5 2.290 . S
Mn6 O8 2.089 . S
Mn6 O11 2.251 . S
Mn6 O12 2.087 . S
O7 Mn1 2.163 . S
O7 C17 1.244 . S
O8 Mn6 2.089 . S
O8 C15 1.256 . S
O9 Mn1 2.160 . S
O9 C18 1.239 . S
O10 Mn3 2.089 1_655 S
O10 C18 1.256 1_655 S
O11 Mn6 2.251 . S
O11 C16 1.241 . S
O12 Mn6 2.087 . S
O12 C17 1.256 . S
C13 O19 1.278 . S
C13 O20 1.241 . S
C14 O0 1.244 . S
C14 O2 1.256 . S
C15 O4 1.239 . S
C15 O8 1.256 . S
C16 O5 1.278 . S
C16 O11 1.241 . S
C17 O7 1.244 . S
C17 O12 1.256 . S
C18 O9 1.239 . S
C18 O10 1.256 1_455 S
O19 Mn1 2.221 . S
O19 Mn3 2.290 . S
O19 C13 1.278 . S
O20 Mn3 2.251 . S
O20 C13 1.241 . S
O21 Mn22 2.163 . S
O21 C35 1.244 . S
Mn22 O21 2.163 . S
Mn22 O25 2.160 1_455 S
Mn22 O26 2.221 . S
Mn22 O28 2.163 . S
Mn22 O30 2.160 . S
Mn22 O40 2.221 1_455 S
O23 Mn24 2.087 1_455 S
O23 C35 1.256 . S
Mn24 O23 2.087 1_655 S
Mn24 O31 2.089 1_655 S
Mn24 O40 2.290 . S
Mn24 O41 2.251 . S
O25 Mn22 2.160 1_655 S
O25 C36 1.239 . S
O26 Mn22 2.221 . S
O26 Mn27 2.290 . S
O26 C37 1.278 . S
Mn27 O26 2.290 . S
Mn27 O29 2.089 1_565 S
Mn27 O32 2.251 . S
Mn27 O33 2.087 . S
O28 Mn22 2.163 . S
O28 C38 1.244 . S
O29 Mn27 2.089 1_545 S
O29 C36 1.256 1_445 S
O30 Mn22 2.160 . S
O30 C39 1.239 . S
O31 Mn24 2.089 1_455 S
O31 C39 1.256 . S
O32 Mn27 2.251 . S
O32 C37 1.241 . S
O33 Mn27 2.087 . S
O33 C38 1.256 . S
C34 O40 1.278 . S
C34 O41 1.241 . S
C35 O21 1.244 . S
C35 O23 1.256 . S
C36 O25 1.239 . S
C36 O29 1.256 1_665 S
C37 O26 1.278 . S
C37 O32 1.241 . S
C38 O28 1.244 . S
C38 O33 1.256 . S
C39 O30 1.239 . S
C39 O31 1.256 . S
O40 Mn22 2.221 1_655 S
O40 Mn24 2.290 . S
O40 C34 1.278 . S
O41 Mn24 2.251 . S
O41 C34 1.241 . S
O42 Mn43 2.163 . S
O42 C56 1.244 . S
Mn43 O42 2.163 . S
Mn43 O46 2.160 1_556 S
Mn43 O47 2.221 . S
Mn43 O49 2.163 . S
Mn43 O51 2.160 . S
Mn43 O61 2.221 1_556 S
O44 Mn45 2.087 1_556 S
O44 C56 1.256 . S
Mn45 O44 2.087 1_554 S
Mn45 O52 2.089 1_554 S
Mn45 O61 2.290 . S
Mn45 O62 2.251 . S
O46 Mn43 2.160 1_554 S
O46 C57 1.239 . S
O47 Mn43 2.221 . S
O47 Mn48 2.290 . S
O47 C58 1.278 . S
Mn48 O47 2.290 . S
Mn48 O50 2.089 . S
Mn48 O53 2.251 . S
Mn48 O54 2.087 . S
O49 Mn43 2.163 . S
O49 C59 1.244 . S
O50 Mn48 2.089 . S
O50 C57 1.256 1_556 S
O51 Mn43 2.160 . S
O51 C60 1.239 . S
O52 Mn45 2.089 1_556 S
O52 C60 1.256 . S
O53 Mn48 2.251 . S
O53 C58 1.241 . S
O54 Mn48 2.087 . S
O54 C59 1.256 . S
C55 O61 1.278 . S
C55 O62 1.241 . S
C56 O42 1.244 . S
C56 O44 1.256 . S
C57 O46 1.239 . S
C57 O50 1.256 1_554 S
C58 O47 1.278 . S
C58 O53 1.241 . S
C59 O49 1.244 . S
C59 O54 1.256 . S
C60 O51 1.239 . S
C60 O52 1.256 . S
O61 Mn43 2.221 1_554 S
O61 Mn45 2.290 . S
O61 C55 1.278 . S
O62 Mn45 2.251 . S
O62 C55 1.241 . S
O63 Mn64 2.163 . S
O63 C77 1.244 . S
Mn64 O63 2.163 . S
Mn64 O67 2.160 . S
Mn64 O68 2.221 . S
Mn64 O70 2.163 . S
Mn64 O72 2.160 . S
Mn64 O82 2.221 . S
O65 Mn66 2.087 . S
O65 C77 1.256 . S
Mn66 O65 2.087 . S
Mn66 O73 2.089 1_545 S
Mn66 O82 2.290 . S
Mn66 O83 2.251 . S
O67 Mn64 2.160 . S
O67 C78 1.239 . S
O68 Mn64 2.221 . S
O68 Mn69 2.290 . S
O68 C79 1.278 . S
Mn69 O68 2.290 . S
Mn69 O71 2.089 . S
Mn69 O74 2.251 . S
Mn69 O75 2.087 . S
O70 Mn64 2.163 . S
O70 C80 1.244 . S
O71 Mn69 2.089 . S
O71 C78 1.256 . S
O72 Mn64 2.160 . S
O72 C81 1.239 . S
O73 Mn66 2.089 1_565 S
O73 C81 1.256 1_565 S
O74 Mn69 2.251 . S
O74 C79 1.241 . S
O75 Mn69 2.087 . S
O75 C80 1.256 . S
C76 O82 1.278 . S
C76 O83 1.241 . S
C77 O63 1.244 . S
C77 O65 1.256 . S
C78 O67 1.239 . S
C78 O71 1.256 . S
C79 O68 1.278 . S
C79 O74 1.241 . S
C80 O70 1.244 . S
C80 O75 1.256 . S
C81 O72 1.239 . S
C81 O73 1.256 1_545 S
O82 Mn64 2.221 . S
O82 Mn66 2.290 . S
O82 C76 1.278 . S
O83 Mn66 2.251 . S
O83 C76 1.241 . S
O84 Mn85 2.163 . S
O84 C98 1.244 . S
Mn85 O84 2.163 . S
Mn85 O88 2.160 . S
Mn85 O89 2.221 . S
Mn85 O91 2.163 . S
Mn85 O93 2.160 . S
Mn85 O103 2.221 . S
O86 Mn87 2.087 . S
O86 C98 1.256 . S
Mn87 O86 2.087 . S
Mn87 O94 2.089 . S
Mn87 O103 2.290 . S
Mn87 O104 2.251 . S
O88 Mn85 2.160 . S
O88 C99 1.239 . S
O89 Mn85 2.221 . S
O89 Mn90 2.290 . S
O89 C100 1.278 . S
Mn90 O89 2.290 . S
Mn90 O92 2.089 . S
Mn90 O95 2.251 . S
Mn90 O96 2.087 . S
O91 Mn85 2.163 . S
O91 C101 1.244 . S
O92 Mn90 2.089 . S
O92 C99 1.256 . S
O93 Mn85 2.160 . S
O93 C102 1.239 . S
O94 Mn87 2.089 . S
O94 C102 1.256 . S
O95 Mn90 2.251 . S
O95 C100 1.241 . S
O96 Mn90 2.087 . S
O96 C101 1.256 . S
C97 O103 1.278 . S
C97 O104 1.241 . S
C98 O84 1.244 . S
C98 O86 1.256 . S
C99 O88 1.239 . S
C99 O92 1.256 . S
C100 O89 1.278 . S
C100 O95 1.241 . S
C101 O91 1.244 . S
C101 O96 1.256 . S
C102 O93 1.239 . S
C102 O94 1.256 . S
O103 Mn85 2.221 . S
O103 Mn87 2.290 . S
O103 C97 1.278 . S
O104 Mn87 2.251 . S
O104 C97 1.241 . S
O105 Mn106 2.163 . S
O105 C119 1.244 . S
Mn106 O105 2.163 . S
Mn106 O109 2.160 . S
Mn106 O110 2.221 1_655 S
Mn106 O112 2.163 . S
Mn106 O114 2.160 1_655 S
Mn106 O124 2.221 . S
O107 Mn108 2.087 . S
O107 C119 1.256 . S
Mn108 O107 2.087 . S
Mn108 O115 2.089 . S
Mn108 O124 2.290 . S
Mn108 O125 2.251 . S
O109 Mn106 2.160 . S
O109 C120 1.239 . S
O110 Mn106 2.221 1_455 S
O110 Mn111 2.290 . S
O110 C121 1.278 . S
Mn111 O110 2.290 . S
Mn111 O113 2.089 1_455 S
Mn111 O116 2.251 . S
Mn111 O117 2.087 1_455 S
O112 Mn106 2.163 . S
O112 C122 1.244 . S
O113 Mn111 2.089 1_655 S
O113 C120 1.256 . S
O114 Mn106 2.160 1_455 S
O114 C123 1.239 . S
O115 Mn108 2.089 . S
O115 C123 1.256 1_655 S
O116 Mn111 2.251 . S
O116 C121 1.241 . S
O117 Mn111 2.087 1_655 S
O117 C122 1.256 . S
C118 O124 1.278 . S
C118 O125 1.241 . S
C119 O105 1.244 . S
C119 O107 1.256 . S
C120 O109 1.239 . S
C120 O113 1.256 . S
C121 O110 1.278 . S
C121 O116 1.241 . S
C122 O112 1.244 . S
C122 O117 1.256 . S
C123 O114 1.239 . S
C123 O115 1.256 1_455 S
O124 Mn106 2.221 . S
O124 Mn108 2.290 . S
O124 C118 1.278 . S
O125 Mn108 2.251 . S
O125 C118 1.241 . S
O126 Mn127 2.163 . S
O126 C140 1.244 . S
Mn127 O126 2.163 . S
Mn127 O130 2.160 . S
Mn127 O131 2.221 1_554 S
Mn127 O133 2.163 . S
Mn127 O135 2.160 1_554 S
Mn127 O145 2.221 . S
O128 Mn129 2.087 . S
O128 C140 1.256 . S
Mn129 O128 2.087 . S
Mn129 O136 2.089 1_655 S
Mn129 O145 2.290 . S
Mn129 O146 2.251 . S
O130 Mn127 2.160 . S
O130 C141 1.239 . S
O131 Mn127 2.221 1_556 S
O131 Mn132 2.290 . S
O131 C142 1.278 . S
Mn132 O131 2.290 . S
Mn132 O134 2.089 1_556 S
Mn132 O137 2.251 . S
Mn132 O138 2.087 1_556 S
O133 Mn127 2.163 . S
O133 C143 1.244 . S
O134 Mn132 2.089 1_554 S
O134 C141 1.256 . S
O135 Mn127 2.160 1_556 S
O135 C144 1.239 . S
O136 Mn129 2.089 1_455 S
O136 C144 1.256 1_454 S
O137 Mn132 2.251 . S
O137 C142 1.241 . S
O138 Mn132 2.087 1_554 S
O138 C143 1.256 . S
C139 O145 1.278 . S
C139 O146 1.241 . S
C140 O126 1.244 . S
C140 O128 1.256 . S
C141 O130 1.239 . S
C141 O134 1.256 . S
C142 O131 1.278 . S
C142 O137 1.241 . S
C143 O133 1.244 . S
C143 O138 1.256 . S
C144 O135 1.239 . S
C144 O136 1.256 1_656 S
O145 Mn127 2.221 . S
O145 Mn129 2.290 . S
O145 C139 1.278 . S
O146 Mn129 2.251 . S
O146 C139 1.241 . S
O147 Mn148 2.163 . S
O147 C161 1.244 . S
Mn148 O147 2.163 . S
Mn148 O151 2.160 . S
Mn148 O152 2.221 . S
Mn148 O154 2.163 . S
Mn148 O156 2.160 . S
Mn148 O166 2.221 . S
O149 Mn150 2.087 . S
O149 C161 1.256 . S
Mn150 O149 2.087 . S
Mn150 O157 2.089 . S
Mn150 O166 2.290 . S
Mn150 O167 2.251 . S
O151 Mn148 2.160 . S
O151 C162 1.239 . S
O152 Mn148 2.221 . S
O152 Mn153 2.290 . S
O152 C163 1.278 . S
Mn153 O152 2.290 . S
Mn153 O155 2.089 . S
Mn153 O158 2.251 . S
Mn153 O159 2.087 . S
O154 Mn148 2.163 . S
O154 C164 1.244 . S
O155 Mn153 2.089 . S
O155 C162 1.256 . S
O156 Mn148 2.160 . S
O156 C165 1.239 . S
O157 Mn150 2.089 . S
O157 C165 1.256 . S
O158 Mn153 2.251 . S
O158 C163 1.241 . S
O159 Mn153 2.087 . S
O159 C164 1.256 . S
C160 O166 1.278 . S
C160 O167 1.241 . S
C161 O147 1.244 . S
C161 O149 1.256 . S
C162 O151 1.239 . S
C162 O155 1.256 . S
C163 O152 1.278 . S
C163 O158 1.241 . S
C164 O154 1.244 . S
C164 O159 1.256 . S
C165 O156 1.239 . S
C165 O157 1.256 . S
O166 Mn148 2.221 . S
O166 Mn150 2.290 . S
O166 C160 1.278 . S
O167 Mn150 2.251 . S
O167 C160 1.241 . S
O168 Mn169 2.163 . S
O168 C182 1.244 . S
Mn169 O168 2.163 . S
Mn169 O172 2.160 . S
Mn169 O173 2.221 . S
Mn169 O175 2.163 . S
Mn169 O177 2.160 . S
Mn169 O187 2.221 . S
O170 Mn171 2.087 . S
O170 C182 1.256 . S
Mn171 O170 2.087 . S
Mn171 O178 2.089 . S
Mn171 O187 2.290 . S
Mn171 O188 2.251 . S
O172 Mn169 2.160 . S
O172 C183 1.239 . S
O173 Mn169 2.221 . S
O173 Mn174 2.290 . S
O173 C184 1.278 . S
Mn174 O173 2.290 . S
Mn174 O176 2.089 1_554 S
Mn174 O179 2.251 . S
Mn174 O180 2.087 . S
O175 Mn169 2.163 . S
O175 C185 1.244 . S
O176 Mn174 2.089 1_556 S
O176 C183 1.256 1_556 S
O177 Mn169 2.160 . S
O177 C186 1.239 . S
O178 Mn171 2.089 . S
O178 C186 1.256 . S
O179 Mn174 2.251 . S
O179 C184 1.241 . S
O180 Mn174 2.087 . S
O180 C185 1.256 . S
C181 O187 1.278 . S
C181 O188 1.241 . S
C182 O168 1.244 . S
C182 O170 1.256 . S
C183 O172 1.239 . S
C183 O176 1.256 1_554 S
C184 O173 1.278 . S
C184 O179 1.241 . S
C185 O175 1.244 . S
C185 O180 1.256 . S
C186 O177 1.239 . S
C186 O178 1.256 . S
O187 Mn169 2.221 . S
O187 Mn171 2.290 . S
O187 C181 1.278 . S
O188 Mn171 2.251 . S
O188 C181 1.241 . S
O189 Mn190 2.163 . S
O189 C203 1.244 . S
Mn190 O189 2.163 . S
Mn190 O193 2.160 1_545 S
Mn190 O194 2.221 . S
Mn190 O196 2.163 . S
Mn190 O198 2.160 . S
Mn190 O208 2.221 1_545 S
O191 Mn192 2.087 1_545 S
O191 C203 1.256 . S
Mn192 O191 2.087 1_565 S
Mn192 O199 2.089 1_565 S
Mn192 O208 2.290 . S
Mn192 O209 2.251 . S
O193 Mn190 2.160 1_565 S
O193 C204 1.239 . S
O194 Mn190 2.221 . S
O194 Mn195 2.290 . S
O194 C205 1.278 . S
Mn195 O194 2.290 . S
Mn195 O197 2.089 1_556 S
Mn195 O200 2.251 . S
Mn195 O201 2.087 . S
O196 Mn190 2.163 . S
O196 C206 1.244 . S
O197 Mn195 2.089 1_554 S
O197 C204 1.256 1_544 S
O198 Mn190 2.160 . S
O198 C207 1.239 . S
O199 Mn192 2.089 1_545 S
O199 C207 1.256 . S
O200 Mn195 2.251 . S
O200 C205 1.241 . S
O201 Mn195 2.087 . S
O201 C206 1.256 . S
C202 O208 1.278 . S
C202 O209 1.241 . S
C203 O189 1.244 . S
C203 O191 1.256 . S
C204 O193 1.239 . S
C204 O197 1.256 1_566 S
C205 O194 1.278 . S
C205 O200 1.241 . S
C206 O196 1.244 . S
C206 O201 1.256 . S
C207 O198 1.239 . S
C207 O199 1.256 . S
O208 Mn190 2.221 1_565 S
O208 Mn192 2.290 . S
O208 C202 1.278 . S
O209 Mn192 2.251 . S
O209 C202 1.241 . S
O210 Mn211 2.163 . S
O210 C224 1.244 . S
Mn211 O210 2.163 . S
Mn211 O214 2.160 1_565 S
Mn211 O215 2.221 . S
Mn211 O217 2.163 . S
Mn211 O219 2.160 . S
Mn211 O229 2.221 1_565 S
O212 Mn213 2.087 1_565 S
O212 C224 1.256 . S
Mn213 O212 2.087 1_545 S
Mn213 O220 2.089 1_545 S
Mn213 O229 2.290 . S
Mn213 O230 2.251 . S
O214 Mn211 2.160 1_545 S
O214 C225 1.239 . S
O215 Mn211 2.221 . S
O215 Mn216 2.290 . S
O215 C226 1.278 . S
Mn216 O215 2.290 . S
Mn216 O218 2.089 . S
Mn216 O221 2.251 . S
Mn216 O222 2.087 . S
O217 Mn211 2.163 . S
O217 C227 1.244 . S
O218 Mn216 2.089 . S
O218 C225 1.256 1_565 S
O219 Mn211 2.160 . S
O219 C228 1.239 . S
O220 Mn213 2.089 1_565 S
O220 C228 1.256 . S
O221 Mn216 2.251 . S
O221 C226 1.241 . S
O222 Mn216 2.087 . S
O222 C227 1.256 . S
C223 O229 1.278 . S
C223 O230 1.241 . S
C224 O210 1.244 . S
C224 O212 1.256 . S
C225 O214 1.239 . S
C225 O218 1.256 1_545 S
C226 O215 1.278 . S
C226 O221 1.241 . S
C227 O217 1.244 . S
C227 O222 1.256 . S
C228 O219 1.239 . S
C228 O220 1.256 . S
O229 Mn211 2.221 1_545 S
O229 Mn213 2.290 . S
O229 C223 1.278 . S
O230 Mn213 2.251 . S
O230 C223 1.241 . S
O231 Mn232 2.163 . S
O231 C245 1.244 . S
Mn232 O231 2.163 . S
Mn232 O235 2.160 . S
Mn232 O236 2.221 . S
Mn232 O238 2.163 . S
Mn232 O240 2.160 . S
Mn232 O250 2.221 . S
O233 Mn234 2.087 . S
O233 C245 1.256 . S
Mn234 O233 2.087 . S
Mn234 O241 2.089 . S
Mn234 O250 2.290 . S
Mn234 O251 2.251 . S
O235 Mn232 2.160 . S
O235 C246 1.239 . S
O236 Mn232 2.221 . S
O236 Mn237 2.290 . S
O236 C247 1.278 . S
Mn237 O236 2.290 . S
Mn237 O239 2.089 . S
Mn237 O242 2.251 . S
Mn237 O243 2.087 . S
O238 Mn232 2.163 . S
O238 C248 1.244 . S
O239 Mn237 2.089 . S
O239 C246 1.256 . S
O240 Mn232 2.160 . S
O240 C249 1.239 . S
O241 Mn234 2.089 . S
O241 C249 1.256 . S
O242 Mn237 2.251 . S
O242 C247 1.241 . S
O243 Mn237 2.087 . S
O243 C248 1.256 . S
C244 O250 1.278 . S
C244 O251 1.241 . S
C245 O231 1.244 . S
C245 O233 1.256 . S
C246 O235 1.239 . S
C246 O239 1.256 . S
C247 O236 1.278 . S
C247 O242 1.241 . S
C248 O238 1.244 . S
C248 O243 1.256 . S
C249 O240 1.239 . S
C249 O241 1.256 . S
O250 Mn232 2.221 . S
O250 Mn234 2.290 . S
O250 C244 1.278 . S
O251 Mn234 2.251 . S
O251 C244 1.241 . S
C252 C253 1.369 . S
C252 C254 1.419 . S
C252 H256 0.930 . S
C253 C252 1.369 . S
C253 C262 1.429 . S
C254 C252 1.419 . S
C254 C255 1.363 . S
C254 H257 0.929 . S
C255 C254 1.363 . S
C255 C261 1.428 . S
H256 C252 0.930 . S
H257 C254 0.929 . S
S258 N259 1.613 . S
S258 N260 1.610 . S
N259 S258 1.613 . S
N259 C262 1.350 . S
N260 S258 1.610 . S
N260 C261 1.351 . S
C261 C255 1.428 . S
C261 N260 1.351 . S
C261 C262 1.434 . S
C262 C253 1.429 . S
C262 N259 1.350 . S
C262 C261 1.434 . S
C263 C264 1.369 1_545 S
C263 C265 1.419 . S
C263 H267 0.930 . S
C264 C263 1.369 1_565 S
C264 C273 1.429 . S
C265 C263 1.419 . S
C265 C266 1.363 1_545 S
C265 H268 0.929 . S
C266 C265 1.363 1_565 S
C266 C272 1.428 . S
H267 C263 0.930 . S
H268 C265 0.929 . S
S269 N270 1.613 . S
S269 N271 1.610 . S
N270 S269 1.613 . S
N270 C273 1.350 . S
N271 S269 1.610 . S
N271 C272 1.351 . S
C272 C266 1.428 . S
C272 N271 1.351 . S
C272 C273 1.434 . S
C273 C264 1.429 . S
C273 N270 1.350 . S
C273 C272 1.434 . S
C274 C275 1.369 . S
C274 C276 1.419 . S
C274 H278 0.930 . S
C275 C274 1.369 . S
C275 C284 1.429 1_554 S
C276 C274 1.419 . S
C276 C277 1.363 . S
C276 H279 0.929 . S
C277 C276 1.363 . S
C277 C283 1.428 1_554 S
H278 C274 0.930 . S
H279 C276 0.929 . S
S280 N281 1.613 . S
S280 N282 1.610 . S
N281 S280 1.613 . S
N281 C284 1.350 . S
N282 S280 1.610 . S
N282 C283 1.351 . S
C283 C277 1.428 1_556 S
C283 N282 1.351 . S
C283 C284 1.434 . S
C284 C275 1.429 1_556 S
C284 N281 1.350 . S
C284 C283 1.434 . S
C285 C286 1.369 . S
C285 C287 1.419 . S
C285 H289 0.930 . S
C286 C285 1.369 . S
C286 C295 1.429 . S
C287 C285 1.419 . S
C287 C288 1.363 . S
C287 H290 0.929 . S
C288 C287 1.363 . S
C288 C294 1.428 . S
H289 C285 0.930 . S
H290 C287 0.929 . S
S291 N292 1.613 . S
S291 N293 1.610 1_545 S
N292 S291 1.613 . S
N292 C295 1.350 . S
N293 S291 1.610 1_565 S
N293 C294 1.351 1_565 S
C294 C288 1.428 . S
C294 N293 1.351 1_545 S
C294 C295 1.434 . S
C295 C286 1.429 . S
C295 N292 1.350 . S
C295 C294 1.434 . S
C296 C297 1.369 . S
C296 C298 1.419 . S
C296 H300 0.930 . S
C297 C296 1.369 . S
C297 C306 1.429 . S
C298 C296 1.419 . S
C298 C299 1.363 . S
C298 H301 0.929 . S
C299 C298 1.363 . S
C299 C305 1.428 . S
H300 C296 0.930 . S
H301 C298 0.929 . S
S302 N303 1.613 . S
S302 N304 1.610 . S
N303 S302 1.613 . S
N303 C306 1.350 . S
N304 S302 1.610 . S
N304 C305 1.351 . S
C305 C299 1.428 . S
C305 N304 1.351 . S
C305 C306 1.434 . S
C306 C297 1.429 . S
C306 N303 1.350 . S
C306 C305 1.434 . S
C307 C308 1.369 . S
C307 C309 1.419 . S
C307 H311 0.930 . S
C308 C307 1.369 . S
C308 C317 1.429 . S
C309 C307 1.419 . S
C309 C310 1.363 . S
C309 H312 0.929 . S
C310 C309 1.363 . S
C310 C316 1.428 . S
H311 C307 0.930 . S
H312 C309 0.929 . S
S313 N314 1.613 . S
S313 N315 1.610 . S
N314 S313 1.613 . S
N314 C317 1.350 . S
N315 S313 1.610 . S
N315 C316 1.351 . S
C316 C310 1.428 . S
C316 N315 1.351 . S
C316 C317 1.434 . S
C317 C308 1.429 . S
C317 N314 1.350 . S
C317 C316 1.434 . S
C318 C319 1.369 1_554 S
C318 C320 1.419 . S
C318 H322 0.930 . S
C319 C318 1.369 1_556 S
C319 C328 1.429 . S
C320 C318 1.419 . S
C320 C321 1.363 1_554 S
C320 H323 0.929 . S
C321 C320 1.363 1_556 S
C321 C327 1.428 . S
H322 C318 0.930 . S
H323 C320 0.929 . S
S324 N325 1.613 . S
S324 N326 1.610 . S
N325 S324 1.613 . S
N325 C328 1.350 . S
N326 S324 1.610 . S
N326 C327 1.351 . S
C327 C321 1.428 . S
C327 N326 1.351 . S
C327 C328 1.434 . S
C328 C319 1.429 . S
C328 N325 1.350 . S
C328 C327 1.434 . S
C329 C330 1.369 . S
C329 C331 1.419 . S
C329 H333 0.930 . S
C330 C329 1.369 . S
C330 C339 1.429 . S
C331 C329 1.419 . S
C331 C332 1.363 . S
C331 H334 0.929 . S
C332 C331 1.363 . S
C332 C338 1.428 . S
H333 C329 0.930 . S
H334 C331 0.929 . S
S335 N336 1.613 . S
S335 N337 1.610 . S
N336 S335 1.613 . S
N336 C339 1.350 . S
N337 S335 1.610 . S
N337 C338 1.351 . S
C338 C332 1.428 . S
C338 N337 1.351 . S
C338 C339 1.434 . S
C339 C330 1.429 . S
C339 N336 1.350 . S
C339 C338 1.434 . S
C340 C341 1.369 . S
C340 C342 1.419 . S
C340 H344 0.930 . S
C341 C340 1.369 . S
C341 C350 1.429 . S
C342 C340 1.419 . S
C342 C343 1.363 . S
C342 H345 0.929 . S
C343 C342 1.363 . S
C343 C349 1.428 . S
H344 C340 0.930 . S
H345 C342 0.929 . S
S346 N347 1.613 . S
S346 N348 1.610 . S
N347 S346 1.613 . S
N347 C350 1.350 . S
N348 S346 1.610 . S
N348 C349 1.351 . S
C349 C343 1.428 . S
C349 N348 1.351 . S
C349 C350 1.434 . S
C350 C341 1.429 . S
C350 N347 1.350 . S
C350 C349 1.434 . S
C351 C352 1.369 . S
C351 C353 1.418 1_455 S
C351 H355 0.930 . S
C352 C351 1.369 . S
C352 C361 1.429 . S
C353 C351 1.418 1_655 S
C353 C354 1.363 1_655 S
C353 H356 0.931 . S
C354 C353 1.363 1_455 S
C354 C360 1.428 . S
H355 C351 0.930 . S
H356 C353 0.931 . S
S357 N358 1.613 . S
S357 N359 1.610 . S
N358 S357 1.613 . S
N358 C361 1.350 . S
N359 S357 1.610 . S
N359 C360 1.351 . S
C360 C354 1.428 . S
C360 N359 1.351 . S
C360 C361 1.434 . S
C361 C352 1.429 . S
C361 N358 1.350 . S
C361 C360 1.434 . S
C362 C363 1.369 . S
C362 C364 1.419 . S
C362 H366 0.930 . S
C363 C362 1.369 . S
C363 C372 1.429 1_655 S
C364 C362 1.419 . S
C364 C365 1.363 . S
C364 H367 0.929 . S
C365 C364 1.363 . S
C365 C371 1.428 1_655 S
H366 C362 0.930 . S
H367 C364 0.929 . S
S368 N369 1.613 . S
S368 N370 1.610 . S
N369 S368 1.613 . S
N369 C372 1.350 . S
N370 S368 1.610 . S
N370 C371 1.351 . S
C371 C365 1.428 1_455 S
C371 N370 1.351 . S
C371 C372 1.434 . S
C372 C363 1.429 1_455 S
C372 N369 1.350 . S
C372 C371 1.434 . S
C373 C374 1.369 . S
C373 C375 1.419 . S
C373 H377 0.930 . S
C374 C373 1.369 . S
C374 C383 1.429 . S
C375 C373 1.419 . S
C375 C376 1.363 . S
C375 H378 0.929 . S
C376 C375 1.363 . S
C376 C382 1.428 . S
H377 C373 0.930 . S
H378 C375 0.929 . S
S379 N380 1.613 . S
S379 N381 1.610 . S
N380 S379 1.613 . S
N380 C383 1.350 . S
N381 S379 1.610 . S
N381 C382 1.351 . S
C382 C376 1.428 . S
C382 N381 1.351 . S
C382 C383 1.434 . S
C383 C374 1.429 . S
C383 N380 1.350 . S
C383 C382 1.434 . S
C384 C385 1.369 . S
C384 C386 1.419 . S
C384 H388 0.930 . S
C385 C384 1.369 . S
C385 C394 1.429 . S
C386 C384 1.419 . S
C386 C387 1.363 . S
C386 H389 0.929 . S
C387 C386 1.363 . S
C387 C393 1.428 . S
H388 C384 0.930 . S
H389 C386 0.929 . S
S390 N391 1.613 . S
S390 N392 1.610 . S
N391 S390 1.613 . S
N391 C394 1.350 . S
N392 S390 1.610 . S
N392 C393 1.351 . S
C393 C387 1.428 . S
C393 N392 1.351 . S
C393 C394 1.434 . S
C394 C385 1.429 . S
C394 N391 1.350 . S
C394 C393 1.434 . S
C395 C396 1.369 . S
C395 C397 1.419 . S
C395 H399 0.930 . S
C396 C395 1.369 . S
C396 C405 1.429 . S
C397 C395 1.419 . S
C397 C398 1.363 . S
C397 H400 0.929 . S
C398 C397 1.363 . S
C398 C404 1.428 . S
H399 C395 0.930 . S
H400 C397 0.929 . S
S401 N402 1.613 . S
S401 N403 1.610 . S
N402 S401 1.613 . S
N402 C405 1.350 . S
N403 S401 1.610 . S
N403 C404 1.351 . S
C404 C398 1.428 . S
C404 N403 1.351 . S
C404 C405 1.434 . S
C405 C396 1.429 . S
C405 N402 1.350 . S
C405 C404 1.434 . S
C406 C407 1.369 . S
C406 C408 1.419 . S
C406 H410 0.930 . S
C407 C406 1.369 . S
C407 C416 1.429 . S
C408 C406 1.419 . S
C408 C409 1.363 . S
C408 H411 0.929 . S
C409 C408 1.363 . S
C409 C415 1.428 . S
H410 C406 0.930 . S
H411 C408 0.929 . S
S412 N413 1.613 . S
S412 N414 1.610 . S
N413 S412 1.613 . S
N413 C416 1.350 . S
N414 S412 1.610 . S
N414 C415 1.351 . S
C415 C409 1.428 . S
C415 N414 1.351 . S
C415 C416 1.434 . S
C416 C407 1.429 . S
C416 N413 1.350 . S
C416 C415 1.434 . S
C417 C418 1.369 . S
C417 C419 1.419 1_554 S
C417 H421 0.930 . S
C418 C417 1.369 . S
C418 C427 1.429 . S
C419 C417 1.419 1_556 S
C419 C420 1.363 . S
C419 H422 0.929 . S
C420 C419 1.363 . S
C420 C426 1.428 1_556 S
H421 C417 0.930 . S
H422 C419 0.929 . S
S423 N424 1.613 . S
S423 N425 1.610 . S
N424 S423 1.613 . S
N424 C427 1.350 . S
N425 S423 1.610 . S
N425 C426 1.351 . S
C426 C420 1.428 1_554 S
C426 N425 1.351 . S
C426 C427 1.434 . S
C427 C418 1.429 . S
C427 N424 1.350 . S
C427 C426 1.434 . S
C428 C429 1.369 . S
C428 C430 1.419 . S
C428 H432 0.930 . S
C429 C428 1.369 . S
C429 C438 1.429 . S
C430 C428 1.419 . S
C430 C431 1.363 . S
C430 H433 0.929 . S
C431 C430 1.363 . S
C431 C437 1.428 . S
H432 C428 0.930 . S
H433 C430 0.929 . S
S434 N435 1.613 . S
S434 N436 1.610 . S
N435 S434 1.613 . S
N435 C438 1.350 . S
N436 S434 1.610 . S
N436 C437 1.351 . S
C437 C431 1.428 . S
C437 N436 1.351 . S
C437 C438 1.434 . S
C438 C429 1.429 . S
C438 N435 1.350 . S
C438 C437 1.434 . S
C439 C440 1.369 1_556 S
C439 C441 1.419 . S
C439 H443 0.930 . S
C440 C439 1.369 1_554 S
C440 C449 1.429 1_554 S
C441 C439 1.419 . S
C441 C442 1.363 . S
C441 H444 0.929 . S
C442 C441 1.363 . S
C442 C448 1.428 . S
H443 C439 0.930 . S
H444 C441 0.929 . S
S445 N446 1.613 1_556 S
S445 N447 1.610 . S
N446 S445 1.613 1_554 S
N446 C449 1.350 1_554 S
N447 S445 1.610 . S
N447 C448 1.351 . S
C448 C442 1.428 . S
C448 N447 1.351 . S
C448 C449 1.434 . S
C449 C440 1.429 1_556 S
C449 N446 1.350 1_556 S
C449 C448 1.434 . S
C450 C451 1.369 . S
C450 C452 1.419 . S
C450 H454 0.930 . S
C451 C450 1.369 . S
C451 C460 1.429 . S
C452 C450 1.419 . S
C452 C453 1.363 . S
C452 H455 0.929 . S
C453 C452 1.363 . S
C453 C459 1.428 . S
H454 C450 0.930 . S
H455 C452 0.929 . S
S456 N457 1.613 . S
S456 N458 1.610 . S
N457 S456 1.613 . S
N457 C460 1.350 . S
N458 S456 1.610 . S
N458 C459 1.351 . S
C459 C453 1.428 . S
C459 N458 1.351 . S
C459 C460 1.434 . S
C460 C451 1.429 . S
C460 N457 1.350 . S
C460 C459 1.434 . S
C461 C462 1.369 . S
C461 C463 1.419 . S
C461 H465 0.930 . S
C462 C461 1.369 . S
C462 C471 1.429 . S
C463 C461 1.419 . S
C463 C464 1.363 . S
C463 H466 0.929 . S
C464 C463 1.363 . S
C464 C470 1.428 . S
H465 C461 0.930 . S
H466 C463 0.929 . S
S467 N468 1.613 . S
S467 N469 1.610 . S
N468 S467 1.613 . S
N468 C471 1.350 . S
N469 S467 1.610 . S
N469 C470 1.351 . S
C470 C464 1.428 . S
C470 N469 1.351 . S
C470 C471 1.434 . S
C471 C462 1.429 . S
C471 N468 1.350 . S
C471 C470 1.434 . S
C472 C473 1.369 . S
C472 C474 1.419 . S
C472 H476 0.930 . S
C473 C472 1.369 . S
C473 C482 1.429 . S
C474 C472 1.419 . S
C474 C475 1.363 . S
C474 H477 0.929 . S
C475 C474 1.363 . S
C475 C481 1.428 . S
H476 C472 0.930 . S
H477 C474 0.929 . S
S478 N479 1.613 . S
S478 N480 1.610 . S
N479 S478 1.613 . S
N479 C482 1.350 . S
N480 S478 1.610 . S
N480 C481 1.351 . S
C481 C475 1.428 . S
C481 N480 1.351 . S
C481 C482 1.434 . S
C482 C473 1.429 . S
C482 N479 1.350 . S
C482 C481 1.434 . S
C483 C484 1.369 . S
C483 C485 1.419 . S
C483 H487 0.930 . S
C484 C483 1.369 . S
C484 C493 1.429 . S
C485 C483 1.419 . S
C485 C486 1.363 1_545 S
C485 H488 0.929 . S
C486 C485 1.363 1_565 S
C486 C492 1.428 . S
H487 C483 0.930 . S
H488 C485 0.929 . S
S489 N490 1.613 1_565 S
S489 N491 1.610 . S
N490 S489 1.613 1_545 S
N490 C493 1.350 . S
N491 S489 1.610 . S
N491 C492 1.351 . S
C492 C486 1.428 . S
C492 N491 1.351 . S
C492 C493 1.434 1_565 S
C493 C484 1.429 . S
C493 N490 1.350 . S
C493 C492 1.434 1_545 S
C494 C495 1.369 . S
C494 C496 1.419 . S
C494 H498 0.930 . S
C495 C494 1.369 . S
C495 C504 1.429 . S
C496 C494 1.419 . S
C496 C497 1.363 . S
C496 H499 0.929 . S
C497 C496 1.363 . S
C497 C503 1.428 . S
H498 C494 0.930 . S
H499 C496 0.929 . S
S500 N501 1.613 . S
S500 N502 1.610 . S
N501 S500 1.613 . S
N501 C504 1.350 . S
N502 S500 1.610 . S
N502 C503 1.351 . S
C503 C497 1.428 . S
C503 N502 1.351 . S
C503 C504 1.434 . S
C504 C495 1.429 . S
C504 N501 1.350 . S
C504 C503 1.434 . S
C505 C506 1.369 1_565 S
C505 C507 1.419 . S
C505 H509 0.930 . S
C506 C505 1.369 1_545 S
C506 C515 1.429 1_545 S
C507 C505 1.419 . S
C507 C508 1.363 . S
C507 H510 0.929 . S
C508 C507 1.363 . S
C508 C514 1.428 . S
H509 C505 0.930 . S
H510 C507 0.929 . S
S511 N512 1.617 . S
S511 N513 1.610 . S
N512 S511 1.617 . S
N512 C515 1.352 . S
N513 S511 1.610 . S
N513 C514 1.351 . S
C514 C508 1.428 . S
C514 N513 1.351 . S
C514 C515 1.434 . S
C515 C506 1.429 1_565 S
C515 N512 1.352 . S
C515 C514 1.434 . S
C516 C517 1.369 . S
C516 C518 1.419 . S
C516 H520 0.930 . S
C517 C516 1.369 . S
C517 C526 1.429 . S
C518 C516 1.419 . S
C518 C519 1.363 . S
C518 H521 0.929 . S
C519 C518 1.363 . S
C519 C525 1.428 . S
H520 C516 0.930 . S
H521 C518 0.929 . S
S522 N523 1.613 . S
S522 N524 1.610 . S
N523 S522 1.613 . S
N523 C526 1.350 . S
N524 S522 1.610 . S
N524 C525 1.351 . S
C525 C519 1.428 . S
C525 N524 1.351 . S
C525 C526 1.434 . S
C526 C517 1.429 . S
C526 N523 1.350 . S
C526 C525 1.434 . S
C527 C528 1.369 . S
C527 C529 1.419 . S
C527 H531 0.930 . S
C528 C527 1.369 . S
C528 C537 1.429 . S
C529 C527 1.419 . S
C529 C530 1.363 . S
C529 H532 0.929 . S
C530 C529 1.363 . S
C530 C536 1.428 . S
H531 C527 0.930 . S
H532 C529 0.929 . S
S533 N534 1.613 1_554 S
S533 N535 1.610 . S
N534 S533 1.613 1_556 S
N534 C537 1.350 . S
N535 S533 1.610 . S
N535 C536 1.351 1_554 S
C536 C530 1.428 . S
C536 N535 1.351 1_556 S
C536 C537 1.434 . S
C537 C528 1.429 . S
C537 N534 1.350 . S
C537 C536 1.434 . S
C538 C539 1.369 . S
C538 C540 1.419 . S
C538 H542 0.930 . S
C539 C538 1.369 . S
C539 C548 1.429 . S
C540 C538 1.419 . S
C540 C541 1.363 . S
C540 H543 0.929 . S
C541 C540 1.363 . S
C541 C547 1.428 . S
H542 C538 0.930 . S
H543 C540 0.929 . S
S544 N545 1.613 . S
S544 N546 1.610 . S
N545 S544 1.613 . S
N545 C548 1.350 . S
N546 S544 1.610 . S
N546 C547 1.351 . S
C547 C541 1.428 . S
C547 N546 1.351 . S
C547 C548 1.434 . S
C548 C539 1.429 . S
C548 N545 1.350 . S
C548 C547 1.434 . S
C549 C550 1.369 . S
C549 C551 1.419 . S
C549 H553 0.930 . S
C550 C549 1.369 . S
C550 C559 1.429 . S
C551 C549 1.419 . S
C551 C552 1.363 . S
C551 H554 0.929 . S
C552 C551 1.363 . S
C552 C558 1.428 . S
H553 C549 0.930 . S
H554 C551 0.929 . S
S555 N556 1.613 . S
S555 N557 1.610 . S
N556 S555 1.613 . S
N556 C559 1.350 . S
N557 S555 1.610 . S
N557 C558 1.351 . S
C558 C552 1.428 . S
C558 N557 1.351 . S
C558 C559 1.434 . S
C559 C550 1.429 . S
C559 N556 1.350 . S
C559 C558 1.434 . S
C560 C561 1.369 . S
C560 C562 1.419 . S
C560 H564 0.930 . S
C561 C560 1.369 . S
C561 C570 1.429 . S
C562 C560 1.419 . S
C562 C563 1.363 . S
C562 H565 0.929 . S
C563 C562 1.363 . S
C563 C569 1.428 . S
H564 C560 0.930 . S
H565 C562 0.929 . S
S566 N567 1.613 . S
S566 N568 1.610 . S
N567 S566 1.613 . S
N567 C570 1.350 . S
N568 S566 1.610 . S
N568 C569 1.351 . S
C569 C563 1.428 . S
C569 N568 1.351 . S
C569 C570 1.434 . S
C570 C561 1.429 . S
C570 N567 1.350 . S
C570 C569 1.434 . S
C571 C572 1.369 . S
C571 C573 1.419 . S
C571 H575 0.930 . S
C572 C571 1.369 . S
C572 C581 1.429 . S
C573 C571 1.419 . S
C573 C574 1.363 . S
C573 H576 0.929 . S
C574 C573 1.363 . S
C574 C580 1.428 . S
H575 C571 0.930 . S
H576 C573 0.929 . S
S577 N578 1.613 . S
S577 N579 1.610 . S
N578 S577 1.613 . S
N578 C581 1.350 . S
N579 S577 1.610 . S
N579 C580 1.351 . S
C580 C574 1.428 . S
C580 N579 1.351 . S
C580 C581 1.434 . S
C581 C572 1.429 . S
C581 N578 1.350 . S
C581 C580 1.434 . S
C582 C583 1.369 . S
C582 C584 1.419 . S
C582 H586 0.930 . S
C583 C582 1.369 . S
C583 C592 1.429 . S
C584 C582 1.419 . S
C584 C585 1.363 1_455 S
C584 H587 0.929 . S
C585 C584 1.363 1_655 S
C585 C591 1.428 . S
H586 C582 0.930 . S
H587 C584 0.929 . S
S588 N589 1.613 1_655 S
S588 N590 1.610 . S
N589 S588 1.613 1_455 S
N589 C592 1.350 . S
N590 S588 1.610 . S
N590 C591 1.351 . S
C591 C585 1.428 . S
C591 N590 1.351 . S
C591 C592 1.434 1_655 S
C592 C583 1.429 . S
C592 N589 1.350 . S
C592 C591 1.434 1_455 S
C593 C594 1.369 . S
C593 C595 1.419 . S
C593 H597 0.930 . S
C594 C593 1.369 . S
C594 C603 1.429 . S
C595 C593 1.419 . S
C595 C596 1.363 . S
C595 H598 0.929 . S
C596 C595 1.363 . S
C596 C602 1.428 . S
H597 C593 0.930 . S
H598 C595 0.929 . S
S599 N600 1.613 . S
S599 N601 1.610 . S
N600 S599 1.613 . S
N600 C603 1.350 . S
N601 S599 1.610 . S
N601 C602 1.351 . S
C602 C596 1.428 . S
C602 N601 1.351 . S
C602 C603 1.434 . S
C603 C594 1.429 . S
C603 N600 1.350 . S
C603 C602 1.434 . S
C604 C605 1.369 . S
C604 C606 1.419 . S
C604 H608 0.930 . S
C605 C604 1.369 . S
C605 C614 1.429 . S
C606 C604 1.419 . S
C606 C607 1.363 . S
C606 H609 0.929 . S
C607 C606 1.363 . S
C607 C613 1.428 . S
H608 C604 0.930 . S
H609 C606 0.929 . S
S610 N611 1.613 . S
S610 N612 1.610 . S
N611 S610 1.613 . S
N611 C614 1.350 . S
N612 S610 1.610 . S
N612 C613 1.351 . S
C613 C607 1.428 . S
C613 N612 1.351 . S
C613 C614 1.434 . S
C614 C605 1.429 . S
C614 N611 1.350 . S
C614 C613 1.434 . S
C615 C616 1.369 . S
C615 C617 1.419 . S
C615 H619 0.930 . S
C616 C615 1.369 . S
C616 C625 1.429 . S
C617 C615 1.419 . S
C617 C618 1.363 . S
C617 H620 0.929 . S
C618 C617 1.363 . S
C618 C624 1.428 . S
H619 C615 0.930 . S
H620 C617 0.929 . S
S621 N622 1.613 . S
S621 N623 1.610 . S
N622 S621 1.613 . S
N622 C625 1.350 . S
N623 S621 1.610 . S
N623 C624 1.351 . S
C624 C618 1.428 . S
C624 N623 1.351 . S
C624 C625 1.434 . S
C625 C616 1.429 . S
C625 N622 1.350 . S
C625 C624 1.434 . S
C626 C627 1.369 . S
C626 C628 1.419 . S
C626 H630 0.930 . S
C627 C626 1.369 . S
C627 C636 1.429 . S
C628 C626 1.419 . S
C628 C629 1.363 . S
C628 H631 0.929 1_565 S
C629 C628 1.363 . S
C629 C635 1.428 . S
H630 C626 0.930 . S
H631 C628 0.929 1_545 S
S632 N633 1.613 . S
S632 N634 1.610 . S
N633 S632 1.613 . S
N633 C636 1.350 . S
N634 S632 1.610 . S
N634 C635 1.351 . S
C635 C629 1.428 . S
C635 N634 1.351 . S
C635 C636 1.434 . S
C636 C627 1.429 . S
C636 N633 1.350 . S
C636 C635 1.434 . S
C637 C638 1.369 . S
C637 C639 1.419 . S
C637 H641 0.930 . S
C638 C637 1.369 . S
C638 C647 1.429 . S
C639 C637 1.419 . S
C639 C640 1.363 1_655 S
C639 H642 0.929 . S
C640 C639 1.363 1_455 S
C640 C646 1.428 1_455 S
H641 C637 0.930 . S
H642 C639 0.929 . S
S643 N644 1.613 . S
S643 N645 1.610 1_655 S
N644 S643 1.613 . S
N644 C647 1.350 . S
N645 S643 1.610 1_455 S
N645 C646 1.351 1_455 S
C646 C640 1.428 1_655 S
C646 N645 1.351 1_655 S
C646 C647 1.434 . S
C647 C638 1.429 . S
C647 N644 1.350 . S
C647 C646 1.434 . S
C253 C15 1.694 . S
C255 C249 1.692 . S
C264 C207 1.692 1_565 S
C266 C36 1.690 . S
C275 C60 1.694 1_554 S
C277 C183 1.691 . S
C286 C81 1.692 . S
C288 C228 1.690 1_545 S
C297 C102 1.694 . S
C299 C225 1.691 . S
C308 C123 1.694 . S
C310 C246 1.691 . S
C319 C204 1.691 . S
C321 C141 1.694 1_556 S
C330 C162 1.691 . S
C332 C186 1.690 . S
C341 C78 1.693 . S
C343 C99 1.693 . S
C352 C18 1.692 . S
C354 C120 1.694 1_455 S
C363 C39 1.694 1_655 S
C365 C144 1.692 . S
C374 C165 1.694 . S
C376 C57 1.692 . S
C385 C13 1.231 . S
C387 C182 1.277 . S
C396 C34 1.231 . S
C398 C227 1.278 . S
C407 C248 1.277 . S
C409 C58 1.232 . S
C418 C79 1.233 . S
C420 C206 1.276 . S
C429 C100 1.239 . S
C431 C203 1.284 . S
C440 C185 1.276 . S
C442 C121 1.233 . S
C451 C224 1.276 . S
C453 C139 1.239 . S
C462 C245 1.275 . S
C464 C160 1.234 . S
C473 C17 1.280 . S
C475 C76 1.243 . S
C484 C16 1.233 . S
C486 C38 1.282 . S
C495 C37 1.232 . S
C497 C56 1.281 . S
C506 C77 1.275 . S
C508 C55 1.234 . S
C517 C118 1.245 . S
C519 C98 1.282 . S
C528 C119 1.285 . S
C530 C142 1.239 . S
C539 C143 1.281 . S
C541 C163 1.243 . S
C550 C97 1.236 . S
C552 C164 1.283 . S
C561 C184 1.232 . S
C563 C80 1.276 . S
C572 C122 1.283 . S
C574 C205 1.236 . S
C583 C181 1.234 . S
C585 C140 1.282 . S
C594 C226 1.231 . S
C596 C161 1.280 . S
C605 C101 1.280 . S
C607 C247 1.233 . S
C616 C244 1.235 . S
C618 C35 1.283 . S
C627 C59 1.276 . S
C629 C202 1.239 . S
C638 C223 1.245 . S
C640 C14 1.283 . S
