# Generated by pormake.
# Topology sra, (4)-cn, num edge types: 1
# Building blocks:
#     Node 0, Type 0, BuildingBlock: GALJAG_clean_sbu_0, # of connection points: 4
#     Node 1, Type 0, BuildingBlock: GALJAG_clean_sbu_0, # of connection points: 4
#     Node 2, Type 0, BuildingBlock: GALJAG_clean_sbu_0, # of connection points: 4
#     Node 3, Type 0, BuildingBlock: GALJAG_clean_sbu_0, # of connection points: 4
#     Node 4, Type 0, BuildingBlock: GALJAG_clean_sbu_0, # of connection points: 4
#     Node 5, Type 0, BuildingBlock: GALJAG_clean_sbu_0, # of connection points: 4
#     Node 6, Type 0, BuildingBlock: GALJAG_clean_sbu_0, # of connection points: 4
#     Node 7, Type 0, BuildingBlock: GALJAG_clean_sbu_0, # of connection points: 4
#     Edge 8, Type (0, 0), BuildingBlock: TEMPAE_clean_linker_10, # of connection points: 2
#     Edge 9, Type (0, 0), BuildingBlock: TEMPAE_clean_linker_10, # of connection points: 2
#     Edge 10, Type (0, 0), BuildingBlock: TEMPAE_clean_linker_10, # of connection points: 2
#     Edge 11, Type (0, 0), BuildingBlock: TEMPAE_clean_linker_10, # of connection points: 2
#     Edge 12, Type (0, 0), BuildingBlock: TEMPAE_clean_linker_10, # of connection points: 2
#     Edge 13, Type (0, 0), BuildingBlock: TEMPAE_clean_linker_10, # of connection points: 2
#     Edge 14, Type (0, 0), BuildingBlock: TEMPAE_clean_linker_10, # of connection points: 2
#     Edge 15, Type (0, 0), BuildingBlock: TEMPAE_clean_linker_10, # of connection points: 2
#     Edge 16, Type (0, 0), BuildingBlock: TEMPAE_clean_linker_10, # of connection points: 2
#     Edge 17, Type (0, 0), BuildingBlock: TEMPAE_clean_linker_10, # of connection points: 2
#     Edge 18, Type (0, 0), BuildingBlock: TEMPAE_clean_linker_10, # of connection points: 2
#     Edge 19, Type (0, 0), BuildingBlock: TEMPAE_clean_linker_10, # of connection points: 2
#     Edge 20, Type (0, 0), BuildingBlock: TEMPAE_clean_linker_10, # of connection points: 2
#     Edge 21, Type (0, 0), BuildingBlock: TEMPAE_clean_linker_10, # of connection points: 2
#     Edge 22, Type (0, 0), BuildingBlock: TEMPAE_clean_linker_10, # of connection points: 2
#     Edge 23, Type (0, 0), BuildingBlock: TEMPAE_clean_linker_10, # of connection points: 2
# Relax obj value: 0.076
# Max RMSD: 0.110
# Mean RMSD: 0.110
data_MOF--net-sra--node1-GALJAG_clean_sbu_0--edge1-TEMPAE_clean_linker_10
_symmetry_space_group_name_H-M    P1
_symmetry_Int_Tables_number       1
_symmetry_cell_setting            triclinic
loop_
_symmetry_equiv_pos_as_xyz
'x, y, z'
_cell_length_a     28.649549
_cell_length_b     54.851428
_cell_length_c     29.126856
_cell_angle_alpha  89.919636
_cell_angle_beta   89.928116
_cell_angle_gamma 90.10096
loop_
_atom_site_label
_atom_site_type_symbol
_atom_site_fract_x
_atom_site_fract_y
_atom_site_fract_z
_atom_type_partial_charge
In0 In 0.01153 0.09846 0.14611 0.0
O1 O 0.00819 0.07877 0.07732 0.0
O2 O 0.02935 0.05865 0.13628 0.0
C3 C 0.00237 0.14542 0.12284 0.0
C4 C 0.92535 0.09121 0.18051 0.0
C5 C 0.09721 0.10238 0.18349 0.0
O6 O 0.01464 0.12943 0.09396 0.0
O7 O 0.99493 0.1376 0.16302 0.0
O8 O 0.06296 0.09396 0.20609 0.0
O9 O 0.08781 0.10878 0.14296 0.0
C10 C 0.02131 0.0586 0.09376 0.0
O11 O 0.96138 0.0892 0.2054 0.0
O12 O 0.93328 0.09632 0.13902 0.0
In13 In 0.03819 0.37267 0.14462 0.0
O14 O 0.07383 0.39496 0.08881 0.0
O15 O 0.00013 0.39201 0.08618 0.0
C16 C 0.03234 0.32545 0.121 0.0
C17 C 0.12244 0.3804 0.18368 0.0
C18 C 0.96364 0.38133 0.19964 0.0
O19 O 0.01673 0.34211 0.09527 0.0
O20 O 0.05032 0.33272 0.15803 0.0
O21 O 0.98672 0.39828 0.18105 0.0
O22 O 0.98019 0.36037 0.19315 0.0
C23 C 0.03664 0.40106 0.06899 0.0
O24 O 0.08719 0.39301 0.19455 0.0
O25 O 0.11455 0.36403 0.15446 0.0
In26 In 0.05425 0.87189 0.83804 0.0
O27 O 0.00952 0.8894 0.78095 0.0
O28 O 0.97652 0.8662 0.8297 0.0
C29 C 0.14169 0.87113 0.80339 0.0
C30 C 0.05272 0.90898 0.8983 0.0
C31 C 0.04879 0.82447 0.85917 0.0
O32 O 0.10676 0.87659 0.77886 0.0
O33 O 0.13213 0.8659 0.84449 0.0
O34 O 0.05803 0.84046 0.88911 0.0
O35 O 0.04313 0.83246 0.81882 0.0
C36 C 0.97207 0.87971 0.79505 0.0
O37 O 0.0355 0.88839 0.90768 0.0
O38 O 0.0709 0.91066 0.85908 0.0
In39 In 0.04082 0.59732 0.84 0.0
O40 O 0.03986 0.57494 0.90574 0.0
O41 O 0.03826 0.55631 0.84134 0.0
C42 C 0.04563 0.64398 0.86642 0.0
C43 C 0.12855 0.59259 0.80931 0.0
C44 C 0.95551 0.59772 0.80178 0.0
O45 O 0.03313 0.62743 0.89419 0.0
O46 O 0.05466 0.63691 0.82623 0.0
O47 O 0.99202 0.60053 0.77779 0.0
O48 O 0.96239 0.59475 0.84412 0.0
C49 C 0.03832 0.55478 0.88461 0.0
O50 O 0.09377 0.58927 0.78313 0.0
O51 O 0.11861 0.59786 0.85036 0.0
In52 In 0.54016 0.61259 0.64823 0.0
O53 O 0.4931 0.59765 0.70571 0.0
O54 O 0.46219 0.61819 0.65168 0.0
C55 C 0.62566 0.60824 0.68543 0.0
C56 C 0.53399 0.57507 0.59007 0.0
C57 C 0.54543 0.65985 0.62496 0.0
O58 O 0.59066 0.61425 0.70937 0.0
O59 O 0.61727 0.60452 0.6436 0.0
O60 O 0.55499 0.64317 0.59659 0.0
O61 O 0.53362 0.65258 0.66439 0.0
C62 C 0.45628 0.60639 0.68837 0.0
O63 O 0.52368 0.59653 0.57784 0.0
O64 O 0.5468 0.57274 0.63124 0.0
In65 In 0.55699 0.88595 0.64713 0.0
O66 O 0.60952 0.89307 0.70532 0.0
O67 O 0.63378 0.89332 0.63621 0.0
C68 C 0.47414 0.8798 0.68982 0.0
C69 C 0.53967 0.92543 0.59543 0.0
C70 C 0.56989 0.83975 0.62039 0.0
O71 O 0.50731 0.89143 0.70846 0.0
O72 O 0.48334 0.87118 0.65077 0.0
O73 O 0.55235 0.85558 0.59393 0.0
O74 O 0.58079 0.84733 0.65988 0.0
C75 C 0.64388 0.89519 0.67817 0.0
O76 O 0.55547 0.90593 0.57851 0.0
O77 O 0.53266 0.92493 0.63813 0.0
In78 In 0.53959 0.3897 0.32981 0.0
O79 O 0.48835 0.39873 0.27137 0.0
O80 O 0.46172 0.38936 0.33756 0.0
C81 C 0.62833 0.39311 0.30013 0.0
C82 C 0.53646 0.42871 0.38425 0.0
C83 C 0.537 0.34156 0.34509 0.0
O84 O 0.5942 0.39464 0.27254 0.0
O85 O 0.6172 0.38982 0.3416 0.0
O86 O 0.54578 0.35653 0.37696 0.0
O87 O 0.53028 0.35092 0.30605 0.0
C88 C 0.4528 0.39529 0.29666 0.0
O89 O 0.52941 0.40739 0.39949 0.0
O90 O 0.54544 0.43017 0.34186 0.0
In91 In 0.51339 0.11123 0.33934 0.0
O92 O 0.56189 0.09636 0.28288 0.0
O93 O 0.59199 0.11059 0.34409 0.0
C94 C 0.42818 0.11158 0.30029 0.0
C95 C 0.50629 0.07547 0.40212 0.0
C96 C 0.52233 0.15937 0.35179 0.0
O97 O 0.46332 0.10266 0.27998 0.0
O98 O 0.43651 0.12047 0.33933 0.0
O99 O 0.50758 0.14543 0.38328 0.0
O100 O 0.5319 0.14903 0.31422 0.0
C101 C 0.59865 0.10112 0.30526 0.0
O102 O 0.52172 0.09635 0.4122 0.0
O103 O 0.49412 0.07286 0.36091 0.0
C104 C 0.05807 0.28282 0.13266 0.0
C105 C 0.02861 0.29931 0.11027 0.0
C106 C 0.05242 0.25767 0.12709 0.0
C107 C 0.01583 0.24882 0.09904 0.0
C108 C 0.98713 0.26541 0.07476 0.0
C109 C 0.99413 0.29059 0.08041 0.0
C110 C 0.0843 0.24059 0.153 0.0
C111 C 0.94754 0.2566 0.04493 0.0
C112 C 0.0246 0.1812 0.07443 0.0
C113 C 0.99983 0.17157 0.1118 0.0
C114 C 0.02792 0.20652 0.06794 0.0
C115 C 0.00534 0.22234 0.09923 0.0
C116 C 0.97745 0.21255 0.13496 0.0
C117 C 0.9754 0.18727 0.14105 0.0
C118 C 0.05819 0.2163 0.02965 0.0
C119 C 0.95218 0.22881 0.1686 0.0
H120 H 0.08511 0.28959 0.15536 0.0
H121 H 0.97129 0.30339 0.06315 0.0
H122 H 0.06411 0.23084 0.17989 0.0
H123 H 0.09891 0.22666 0.12948 0.0
H124 H 0.11366 0.25037 0.16977 0.0
H125 H 0.93239 0.27154 0.02394 0.0
H126 H 0.95951 0.24187 0.02169 0.0
H127 H 0.91957 0.24885 0.06696 0.0
H128 H 0.04348 0.16904 0.05174 0.0
H129 H 0.9557 0.17979 0.16962 0.0
H130 H 0.0909 0.22381 0.04436 0.0
H131 H 0.04036 0.23137 0.01134 0.0
H132 H 0.06753 0.20192 0.00445 0.0
H133 H 0.97795 0.23796 0.1912 0.0
H134 H 0.92738 0.21843 0.19055 0.0
H135 H 0.93264 0.24325 0.15016 0.0
C136 C 0.067 0.78849 0.90874 0.0
C137 C 0.04496 0.79832 0.87 0.0
C138 C 0.06677 0.76323 0.91672 0.0
C139 C 0.0432 0.74768 0.88562 0.0
C140 C 0.0186 0.75777 0.848 0.0
C141 C 0.02024 0.78295 0.84037 0.0
C142 C 0.09387 0.7531 0.95681 0.0
C143 C 0.9923 0.74186 0.8145 0.0
C144 C 0.08339 0.68415 0.85706 0.0
C145 C 0.0493 0.66988 0.87865 0.0
C146 C 0.0839 0.70948 0.86218 0.0
C147 C 0.04861 0.72083 0.88857 0.0
C148 C 0.01555 0.70636 0.91258 0.0
C149 C 0.01662 0.68087 0.90771 0.0
C150 C 0.12045 0.72417 0.83685 0.0
C151 C 0.97711 0.71784 0.94059 0.0
H152 H 0.08606 0.80043 0.93171 0.0
H153 H 0.00259 0.79059 0.81077 0.0
H154 H 0.07272 0.73947 0.97585 0.0
H155 H 0.12545 0.74361 0.9439 0.0
H156 H 0.10506 0.76762 0.98098 0.0
H157 H 0.97076 0.75272 0.79028 0.0
H158 H 0.0174 0.73086 0.79424 0.0
H159 H 0.96916 0.72898 0.83317 0.0
H160 H 0.109 0.67551 0.83499 0.0
H161 H 0.99017 0.66972 0.92423 0.0
H162 H 0.13618 0.73801 0.85987 0.0
H163 H 0.10391 0.73403 0.80784 0.0
H164 H 0.14875 0.7125 0.82288 0.0
H165 H 0.99109 0.73261 0.96262 0.0
H166 H 0.9589 0.70427 0.96261 0.0
H167 H 0.95112 0.72616 0.91712 0.0
C168 C 0.52359 0.70267 0.64083 0.0
C169 C 0.5484 0.686 0.61394 0.0
C170 C 0.52843 0.72778 0.63391 0.0
C171 C 0.55962 0.73641 0.59981 0.0
C172 C 0.58369 0.71965 0.57146 0.0
C173 C 0.57745 0.69451 0.57863 0.0
C174 C 0.50145 0.74504 0.66436 0.0
C175 C 0.61761 0.72823 0.53519 0.0
C176 C 0.54372 0.80363 0.57527 0.0
C177 C 0.57352 0.8138 0.6082 0.0
C178 C 0.541 0.77825 0.56961 0.0
C179 C 0.56934 0.76295 0.59706 0.0
C180 C 0.60236 0.77334 0.62743 0.0
C181 C 0.60369 0.79867 0.63299 0.0
C182 C 0.50517 0.76784 0.53712 0.0
C183 C 0.63388 0.75766 0.65663 0.0
H184 H 0.5007 0.69607 0.66781 0.0
H185 H 0.59672 0.68156 0.55791 0.0
H186 H 0.52598 0.75516 0.68683 0.0
H187 H 0.48257 0.75867 0.64322 0.0
H188 H 0.47575 0.73538 0.68647 0.0
H189 H 0.62924 0.71312 0.51257 0.0
H190 H 0.60169 0.7427 0.51369 0.0
H191 H 0.64877 0.73627 0.55199 0.0
H192 H 0.52039 0.81536 0.55605 0.0
H193 H 0.62721 0.80659 0.65804 0.0
H194 H 0.47547 0.76037 0.55723 0.0
H195 H 0.52013 0.75264 0.51685 0.0
H196 H 0.49149 0.78187 0.51313 0.0
H197 H 0.61297 0.74871 0.68399 0.0
H198 H 0.66203 0.76847 0.67316 0.0
H199 H 0.65005 0.74306 0.63567 0.0
C200 C 0.50603 0.301 0.32329 0.0
C201 C 0.53409 0.31506 0.35235 0.0
C202 C 0.50389 0.27563 0.32798 0.0
C203 C 0.53158 0.26402 0.36172 0.0
C204 C 0.55963 0.27817 0.39159 0.0
C205 C 0.56004 0.30367 0.38695 0.0
C206 C 0.47269 0.26124 0.29616 0.0
C207 C 0.59045 0.26634 0.42718 0.0
C208 C 0.49931 0.19846 0.38907 0.0
C209 C 0.52747 0.18587 0.35779 0.0
C210 C 0.50119 0.224 0.39186 0.0
C211 C 0.53288 0.23699 0.36356 0.0
C212 C 0.56312 0.22415 0.33372 0.0
C213 C 0.55954 0.19874 0.3307 0.0
C214 C 0.46768 0.2371 0.42329 0.0
C215 C 0.59816 0.23731 0.3038 0.0
H216 H 0.48558 0.30989 0.29682 0.0
H217 H 0.5819 0.31461 0.40926 0.0
H218 H 0.49428 0.24968 0.27328 0.0
H219 H 0.44969 0.2489 0.31626 0.0
H220 H 0.45051 0.2732 0.27447 0.0
H221 H 0.6083 0.27996 0.44927 0.0
H222 H 0.56965 0.25394 0.44933 0.0
H223 H 0.61735 0.25508 0.40985 0.0
H224 H 0.47441 0.18845 0.40991 0.0
H225 H 0.58173 0.18891 0.3069 0.0
H226 H 0.4425 0.24774 0.40242 0.0
H227 H 0.48669 0.25023 0.44539 0.0
H228 H 0.4478 0.22431 0.44557 0.0
H229 H 0.5796 0.24796 0.27708 0.0
H230 H 0.62251 0.22453 0.28646 0.0
H231 H 0.61884 0.25037 0.32457 0.0
C232 C 0.34571 0.1259 0.30026 0.0
C233 C 0.38035 0.11092 0.28135 0.0
C234 C 0.29948 0.12483 0.28461 0.0
C235 C 0.28736 0.10802 0.24976 0.0
C236 C 0.32224 0.09287 0.23041 0.0
C237 C 0.3685 0.09467 0.24616 0.0
C238 C 0.26359 0.14168 0.30541 0.0
C239 C 0.31054 0.07454 0.19356 0.0
C240 C 0.15916 0.09035 0.23978 0.0
C241 C 0.14515 0.10426 0.20188 0.0
C242 C 0.20556 0.09115 0.25545 0.0
C243 C 0.23828 0.1066 0.2332 0.0
C244 C 0.22395 0.12101 0.19546 0.0
C245 C 0.17771 0.11947 0.18 0.0
C246 C 0.21974 0.07526 0.29541 0.0
C247 C 0.25743 0.1381 0.17145 0.0
H248 H 0.35479 0.13857 0.32737 0.0
H249 H 0.39514 0.08294 0.23172 0.0
H250 H 0.24714 0.15286 0.27811 0.0
H251 H 0.23546 0.13086 0.32196 0.0
H252 H 0.27895 0.1541 0.33145 0.0
H253 H 0.3415 0.06386 0.18256 0.0
H254 H 0.28343 0.06172 0.20631 0.0
H255 H 0.29588 0.08397 0.16313 0.0
H256 H 0.13415 0.07844 0.25653 0.0
H257 H 0.16693 0.13035 0.15078 0.0
H258 H 0.23278 0.08676 0.32397 0.0
H259 H 0.24874 0.06307 0.28498 0.0
H260 H 0.19039 0.0639 0.30834 0.0
H261 H 0.27207 0.15131 0.19643 0.0
H262 H 0.24048 0.14843 0.14319 0.0
H263 H 0.28713 0.12767 0.15699 0.0
C264 C 0.71273 0.39697 0.31937 0.0
C265 C 0.67787 0.3945 0.28587 0.0
C266 C 0.76018 0.3968 0.30751 0.0
C267 C 0.77321 0.39379 0.26102 0.0
C268 C 0.73818 0.39192 0.22683 0.0
C269 C 0.69082 0.39244 0.23966 0.0
C270 C 0.79636 0.39915 0.34493 0.0
C271 C 0.75074 0.38855 0.1769 0.0
C272 C 0.89712 0.40842 0.2222 0.0
C273 C 0.91721 0.38513 0.22083 0.0
C274 C 0.85051 0.41163 0.23608 0.0
C275 C 0.82338 0.39105 0.24858 0.0
C276 C 0.84403 0.36762 0.24872 0.0
C277 C 0.8907 0.36496 0.23501 0.0
C278 C 0.82992 0.43695 0.23613 0.0
C279 C 0.81637 0.3452 0.26196 0.0
H280 H 0.70294 0.39879 0.35517 0.0
H281 H 0.66401 0.39052 0.21368 0.0
H282 H 0.81637 0.38192 0.34781 0.0
H283 H 0.82163 0.41381 0.3363 0.0
H284 H 0.7805 0.40324 0.37888 0.0
H285 H 0.71952 0.3886 0.15431 0.0
H286 H 0.77478 0.40325 0.16553 0.0
H287 H 0.76933 0.37099 0.17238 0.0
H288 H 0.91739 0.42407 0.21114 0.0
H289 H 0.90594 0.34689 0.23392 0.0
H290 H 0.81414 0.44099 0.27007 0.0
H291 H 0.80161 0.43807 0.21027 0.0
H292 H 0.85637 0.45118 0.22819 0.0
H293 H 0.80165 0.34738 0.29695 0.0
H294 H 0.83787 0.32837 0.26124 0.0
H295 H 0.78658 0.34285 0.23806 0.0
C296 C 0.20223 0.88381 0.74588 0.0
C297 C 0.19039 0.87149 0.78642 0.0
C298 C 0.24894 0.8853 0.73121 0.0
C299 C 0.2844 0.87379 0.75729 0.0
C300 C 0.27241 0.86095 0.7978 0.0
C301 C 0.22564 0.86015 0.81208 0.0
C302 C 0.26043 0.8994 0.68809 0.0
C303 C 0.30897 0.84799 0.82602 0.0
C304 C 0.39724 0.85877 0.69495 0.0
C305 C 0.42707 0.87738 0.71015 0.0
C306 C 0.35109 0.85711 0.71078 0.0
C307 C 0.33396 0.87481 0.74179 0.0
C308 C 0.36411 0.89351 0.75768 0.0
C309 C 0.41055 0.89441 0.74203 0.0
C310 C 0.3205 0.83654 0.69388 0.0
C311 C 0.34693 0.91291 0.79026 0.0
H312 H 0.17512 0.89273 0.72613 0.0
H313 H 0.21662 0.85051 0.84338 0.0
H314 H 0.28595 0.91404 0.69598 0.0
H315 H 0.27696 0.88717 0.66252 0.0
H316 H 0.22901 0.90777 0.67231 0.0
H317 H 0.29376 0.83844 0.8562 0.0
H318 H 0.32753 0.83444 0.80447 0.0
H319 H 0.33539 0.86125 0.83835 0.0
H320 H 0.41001 0.8455 0.67042 0.0
H321 H 0.43344 0.90893 0.75348 0.0
H322 H 0.29066 0.84402 0.67418 0.0
H323 H 0.30583 0.8263 0.72345 0.0
H324 H 0.33982 0.82361 0.67154 0.0
H325 H 0.31761 0.92303 0.77431 0.0
H326 H 0.37478 0.92611 0.79957 0.0
H327 H 0.33335 0.90439 0.82215 0.0
C328 C 0.70437 0.58944 0.6837 0.0
C329 C 0.6732 0.60586 0.70402 0.0
C330 C 0.75046 0.58744 0.69928 0.0
C331 C 0.76611 0.60286 0.73502 0.0
C332 C 0.73476 0.6196 0.75554 0.0
C333 C 0.68831 0.62062 0.74025 0.0
C334 C 0.78231 0.56879 0.67761 0.0
C335 C 0.75053 0.63672 0.793 0.0
C336 C 0.87244 0.5849 0.80458 0.0
C337 C 0.90792 0.59818 0.78275 0.0
C338 C 0.82629 0.58591 0.78884 0.0
C339 C 0.81517 0.6012 0.75128 0.0
C340 C 0.85093 0.61471 0.72912 0.0
C341 C 0.89717 0.61273 0.74472 0.0
C342 C 0.78948 0.57059 0.8124 0.0
C343 C 0.84017 0.63165 0.68964 0.0
H344 H 0.69249 0.57793 0.6558 0.0
H345 H 0.66423 0.63349 0.75558 0.0
H346 H 0.81239 0.57803 0.66101 0.0
H347 H 0.79657 0.5565 0.70443 0.0
H348 H 0.76412 0.55755 0.65143 0.0
H349 H 0.72222 0.64915 0.80437 0.0
H350 H 0.76288 0.62616 0.82311 0.0
H351 H 0.78039 0.64787 0.78065 0.0
H352 H 0.8809 0.57354 0.83391 0.0
H353 H 0.92462 0.62318 0.7282 0.0
H354 H 0.77161 0.55881 0.78694 0.0
H355 H 0.76257 0.58254 0.82793 0.0
H356 H 0.80434 0.55884 0.8398 0.0
H357 H 0.82461 0.62125 0.66082 0.0
H358 H 0.87175 0.6413 0.67688 0.0
H359 H 0.81407 0.6454 0.70057 0.0
C360 C 0.72916 0.89212 0.66277 0.0
C361 C 0.69288 0.89725 0.69367 0.0
C362 C 0.77575 0.89127 0.67734 0.0
C363 C 0.78652 0.89619 0.7238 0.0
C364 C 0.75029 0.90268 0.75466 0.0
C365 C 0.70374 0.90283 0.73935 0.0
C366 C 0.81307 0.88374 0.64356 0.0
C367 C 0.76054 0.90862 0.80421 0.0
C368 C 0.89227 0.86536 0.77609 0.0
C369 C 0.92599 0.88384 0.77395 0.0
C370 C 0.84708 0.86909 0.75917 0.0
C371 C 0.83484 0.89215 0.74096 0.0
C372 C 0.86882 0.91094 0.73873 0.0
C373 C 0.91437 0.90643 0.75466 0.0
C374 C 0.81243 0.84831 0.76087 0.0
C375 C 0.85672 0.93593 0.7206 0.0
H376 H 0.72099 0.88772 0.6274 0.0
H377 H 0.67584 0.90696 0.76325 0.0
H378 H 0.84224 0.89705 0.64366 0.0
H379 H 0.82766 0.86583 0.6539 0.0
H380 H 0.79944 0.88218 0.60799 0.0
H381 H 0.72957 0.91617 0.82222 0.0
H382 H 0.77179 0.89187 0.82247 0.0
H383 H 0.78956 0.92198 0.80651 0.0
H384 H 0.90137 0.84785 0.7909 0.0
H385 H 0.94036 0.9208 0.75359 0.0
H386 H 0.79842 0.84472 0.72602 0.0
H387 H 0.78248 0.85326 0.78312 0.0
H388 H 0.82815 0.83122 0.77427 0.0
H389 H 0.84373 0.93458 0.68484 0.0
H390 H 0.88708 0.94855 0.72121 0.0
H391 H 0.8282 0.9439 0.74154 0.0
C392 C 0.37398 0.61962 0.69748 0.0
C393 C 0.40945 0.60307 0.70848 0.0
C394 C 0.3287 0.61664 0.71478 0.0
C395 C 0.31836 0.59625 0.74285 0.0
C396 C 0.35399 0.57934 0.75384 0.0
C397 C 0.39943 0.58314 0.73696 0.0
C398 C 0.29202 0.63543 0.70326 0.0
C399 C 0.34397 0.55715 0.78296 0.0
C400 C 0.21251 0.6026 0.81994 0.0
C401 C 0.17741 0.59184 0.79322 0.0
C402 C 0.25878 0.60362 0.80443 0.0
C403 C 0.27041 0.59318 0.76154 0.0
C404 C 0.23543 0.58146 0.73517 0.0
C405 C 0.18911 0.58118 0.7511 0.0
C406 C 0.29479 0.61676 0.83311 0.0
C407 C 0.24677 0.56971 0.68967 0.0
H408 H 0.38178 0.63512 0.67561 0.0
H409 H 0.4268 0.57022 0.74509 0.0
H410 H 0.26268 0.62671 0.68463 0.0
H411 H 0.27753 0.64332 0.7353 0.0
H412 H 0.30607 0.65049 0.68173 0.0
H413 H 0.37521 0.54541 0.78732 0.0
H414 H 0.33147 0.56281 0.81738 0.0
H415 H 0.31573 0.54618 0.76703 0.0
H416 H 0.20357 0.61096 0.85248 0.0
H417 H 0.16207 0.5727 0.73056 0.0
H418 H 0.30797 0.63291 0.81407 0.0
H419 H 0.32509 0.60472 0.83976 0.0
H420 H 0.28047 0.62297 0.86657 0.0
H421 H 0.25708 0.58392 0.66448 0.0
H422 H 0.21667 0.55939 0.67551 0.0
H423 H 0.2768 0.55713 0.69349 0.0
C424 C 0.65569 0.07871 0.25552 0.0
C425 C 0.6462 0.09721 0.28726 0.0
C426 C 0.70133 0.07505 0.23904 0.0
C427 C 0.73769 0.09083 0.25349 0.0
C428 C 0.72803 0.10957 0.28546 0.0
C429 C 0.68258 0.11226 0.30247 0.0
C430 C 0.71062 0.05444 0.20601 0.0
C431 C 0.76537 0.12728 0.30066 0.0
C432 C 0.86694 0.07681 0.23885 0.0
C433 C 0.87721 0.08961 0.19843 0.0
C434 C 0.82106 0.076 0.2561 0.0
C435 C 0.78522 0.08897 0.23313 0.0
C436 C 0.79556 0.10176 0.19213 0.0
C437 C 0.84125 0.10161 0.17496 0.0
C438 C 0.81107 0.06161 0.29921 0.0
C439 C 0.7588 0.11643 0.16731 0.0
H440 H 0.6276 0.06692 0.24414 0.0
H441 H 0.67519 0.12668 0.32686 0.0
H442 H 0.72101 0.06189 0.17209 0.0
H443 H 0.74004 0.04313 0.2186 0.0
H444 H 0.67955 0.04256 0.20127 0.0
H445 H 0.75209 0.14079 0.32587 0.0
H446 H 0.79492 0.11731 0.31642 0.0
H447 H 0.77931 0.13728 0.27044 0.0
H448 H 0.89468 0.06737 0.25681 0.0
H449 H 0.84917 0.11166 0.14382 0.0
H450 H 0.78081 0.04929 0.29373 0.0
H451 H 0.80169 0.0742 0.3275 0.0
H452 H 0.84151 0.05053 0.3102 0.0
H453 H 0.72867 0.10467 0.15831 0.0
H454 H 0.77239 0.12497 0.13536 0.0
H455 H 0.74557 0.13105 0.19018 0.0
C456 C 0.204 0.36657 0.19608 0.0
C457 C 0.16996 0.38466 0.20167 0.0
C458 C 0.24995 0.37024 0.21093 0.0
C459 C 0.26248 0.39273 0.23126 0.0
C460 C 0.22837 0.4112 0.23669 0.0
C461 C 0.18226 0.40685 0.22217 0.0
C462 C 0.28496 0.34988 0.20535 0.0
C463 C 0.24064 0.4355 0.25772 0.0
C464 C 0.36764 0.38959 0.30958 0.0
C465 C 0.40403 0.39677 0.28019 0.0
C466 C 0.32126 0.38905 0.29453 0.0
C467 C 0.31074 0.39614 0.24902 0.0
C468 C 0.34702 0.40436 0.21963 0.0
C469 C 0.39342 0.40442 0.2355 0.0
C470 C 0.2838 0.37984 0.32678 0.0
C471 C 0.33699 0.41237 0.17106 0.0
H472 H 0.19462 0.34936 0.18028 0.0
H473 H 0.15611 0.42095 0.22607 0.0
H474 H 0.31511 0.35625 0.18462 0.0
H475 H 0.29859 0.34437 0.23946 0.0
H476 H 0.26965 0.33358 0.18845 0.0
H477 H 0.21064 0.44831 0.25767 0.0
H478 H 0.25243 0.43288 0.29364 0.0
H479 H 0.27002 0.44397 0.23858 0.0
H480 H 0.37551 0.38368 0.34425 0.0
H481 H 0.42137 0.41013 0.21276 0.0
H482 H 0.26894 0.36259 0.31329 0.0
H483 H 0.25485 0.39318 0.32905 0.0
H484 H 0.29734 0.3764 0.36192 0.0
H485 H 0.32549 0.39646 0.15046 0.0
H486 H 0.36809 0.42058 0.15423 0.0
H487 H 0.30815 0.42584 0.17065 0.0
C488 C 0.05419 0.01719 0.08179 0.0
C489 C 0.02674 0.03652 0.06573 0.0
C490 C 0.05973 -0.00404 0.05571 0.0
C491 C 0.03636 -0.00611 0.01314 0.0
C492 C 0.00822 0.01327 -0.00303 0.0
C493 C 0.00418 0.03454 0.0233 0.0
C494 C 0.09088 0.97587 0.07347 0.0
C495 C 0.98217 0.01148 0.95205 0.0
C496 C 0.08039 0.94978 0.92327 0.0
C497 C 0.05024 0.92993 0.92961 0.0
C498 C 0.07697 0.97052 0.95103 0.0
C499 C 0.04185 0.97155 0.98515 0.0
C500 C 0.01154 0.95145 -0.00803 0.0
C501 C 0.01646 0.93069 0.96435 0.0
C502 C 0.11058 0.9914 0.94352 0.0
C503 C 0.97321 0.95213 0.02757 0.0
H504 H 0.07188 0.01881 0.11453 0.0
H505 H 0.98271 0.04945 0.01107 0.0
H506 H 0.07051 0.9588 0.07768 0.0
H507 H 0.11902 0.97211 0.04825 0.0
H508 H 0.10714 0.98055 0.10694 0.0
H509 H 0.96061 0.02788 0.94511 0.0
H510 H 0.00722 0.00912 0.92333 0.0
H511 H 0.95906 -0.00478 0.95238 0.0
H512 H 0.10671 0.94911 0.89652 0.0
H513 H 0.99295 0.91537 0.96898 0.0
H514 H 0.12852 -0.00403 0.97614 0.0
H515 H 0.09119 0.00787 0.93245 0.0
H516 H 0.13738 0.98715 0.91713 0.0
H517 H 0.98822 0.9555 0.06207 0.0
H518 H 0.95281 0.9349 0.02872 0.0
H519 H 0.94904 0.9674 0.02001 0.0
C520 C 0.03687 0.52991 0.95635 0.0
C521 C 0.03661 0.53105 0.90834 0.0
C522 C 0.03568 0.5074 0.97913 0.0
C523 C 0.03421 0.4856 0.95316 0.0
C524 C 0.03355 0.48665 0.90468 0.0
C525 C 0.03477 0.5094 0.88281 0.0
C526 C 0.03639 0.50693 0.03098 0.0
C527 C 0.03199 0.46375 0.87597 0.0
C528 C 0.07756 0.43001 0.01686 0.0
C529 C 0.03565 0.41998 0.03308 0.0
C530 C 0.0775 0.45078 0.98888 0.0
C531 C 0.03449 0.46173 0.97704 0.0
C532 C 0.99197 0.45084 0.99105 0.0
C533 C 0.99306 0.43 0.01893 0.0
C534 C 0.12353 0.46177 0.97415 0.0
C535 C 0.94544 0.46197 0.97881 0.0
H536 H 0.0382 0.54662 0.97616 0.0
H537 H 0.03447 0.51022 0.84562 0.0
H538 H 0.00538 0.49699 0.04417 0.0
H539 H 0.06777 0.49702 0.04316 0.0
H540 H 0.03667 0.52553 0.04604 0.0
H541 H 0.0305 0.46776 0.83861 0.0
H542 H 0.06334 0.45249 0.88286 0.0
H543 H 0.00107 0.45262 0.88545 0.0
H544 H 0.11056 0.42222 0.02757 0.0
H545 H 0.96058 0.42225 0.03139 0.0
H546 H 0.12863 0.47955 0.9916 0.0
H547 H 0.1236 0.46532 0.93665 0.0
H548 H 0.15357 0.4498 0.98259 0.0
H549 H 0.94139 0.47961 -0.00304 0.0
H550 H 0.91572 0.44995 0.98839 0.0
H551 H 0.94365 0.4658 0.94145 0.0
C552 C 0.5594 0.47138 0.40138 0.0
C553 C 0.5342 0.45045 0.41351 0.0
C554 C 0.55831 0.49219 0.42915 0.0
C555 C 0.53023 0.49218 0.46915 0.0
C556 C 0.50367 0.47128 0.48083 0.0
C557 C 0.50656 0.45045 0.45315 0.0
C558 C 0.58812 0.5139 0.41635 0.0
C559 C 0.47246 0.47088 0.52265 0.0
C560 C 0.56262 0.53443 0.56647 0.0
C561 C 0.53275 0.55417 0.55869 0.0
C562 C 0.56249 0.51426 0.53716 0.0
C563 C 0.53069 0.51357 0.50008 0.0
C564 C 0.49994 0.53335 0.49242 0.0
C565 C 0.50187 0.55369 0.52153 0.0
C566 C 0.59671 0.49381 0.54563 0.0
C567 C 0.46477 0.53289 0.45387 0.0
H568 H 0.58091 0.47127 0.37072 0.0
H569 H 0.48667 0.43429 0.46212 0.0
H570 H 0.5661 0.53039 0.41259 0.0
H571 H 0.61359 0.51764 0.44416 0.0
H572 H 0.60761 0.51102 0.38382 0.0
H573 H 0.45149 0.45387 0.52496 0.0
H574 H 0.49388 0.47252 0.55419 0.0
H575 H 0.44836 0.48669 0.52194 0.0
H576 H 0.58677 0.53496 0.59509 0.0
H577 H 0.47857 0.56895 0.51587 0.0
H578 H 0.61847 0.49086 0.51459 0.0
H579 H 0.57762 0.47657 0.55247 0.0
H580 H 0.62013 0.49758 0.57516 0.0
H581 H 0.48298 0.53155 0.42035 0.0
H582 H 0.44236 0.5494 0.45353 0.0
H583 H 0.44211 0.51655 0.45718 0.0
C584 C 0.50079 0.96549 0.58405 0.0
C585 C 0.53116 0.94744 0.56785 0.0
C586 C 0.49325 0.98689 0.55879 0.0
C587 C 0.51764 0.99047 0.51707 0.0
C588 C 0.54839 0.97227 0.5006 0.0
C589 C 0.55433 0.95078 0.52599 0.0
C590 C 0.45926 0.00563 0.57671 0.0
C591 C 0.5756 0.97567 0.4566 0.0
C592 C 0.47628 0.03499 0.42662 0.0
C593 C 0.50556 0.055 0.43471 0.0
C594 C 0.47836 0.01423 0.45456 0.0
C595 C 0.51139 0.01331 0.49058 0.0
C596 C 0.5402 0.03374 0.49964 0.0
C597 C 0.53651 0.05454 0.47183 0.0
C598 C 0.44621 -0.00697 0.44468 0.0
C599 C 0.57637 0.03322 0.5373 0.0
H600 H 0.48262 0.96279 0.61634 0.0
H601 H 0.57803 0.93685 0.51366 0.0
H602 H 0.47775 0.02302 0.5836 0.0
H603 H 0.43222 0.00946 0.55044 0.0
H604 H 0.4417 -0.00042 0.6088 0.0
H605 H 0.59872 0.95994 0.44905 0.0
H606 H 0.55129 0.97815 0.42737 0.0
H607 H 0.59734 -0.00761 0.45884 0.0
H608 H 0.45208 0.03547 0.39803 0.0
H609 H 0.55935 0.06998 0.47784 0.0
H610 H 0.42807 0.98718 0.47654 0.0
H611 H 0.46688 0.97727 0.43226 0.0
H612 H 0.41959 -0.00243 0.41833 0.0
H613 H 0.55986 0.02846 0.57058 0.0
H614 H 0.5947 0.05097 0.54105 0.0
H615 H 0.60265 0.01893 0.52972 0.0
loop_
_geom_bond_atom_site_label_1
_geom_bond_atom_site_label_2
_geom_bond_distance
_geom_bond_site_symmetry_2
_ccdc_geom_bond_type
In0 O1 2.294 . S
In0 O2 2.326 . S
In0 O6 2.266 . S
In0 O7 2.326 . S
In0 O8 2.266 . S
In0 O9 2.326 . S
In0 O11 2.294 1_455 S
In0 O12 2.326 1_455 S
O1 In0 2.294 . S
O1 C10 1.240 . S
O2 In0 2.326 . S
O2 C10 1.252 . S
C3 O6 1.252 . S
C3 O7 1.260 . S
C4 O11 1.240 . S
C4 O12 1.252 . S
C5 O8 1.252 . S
C5 O9 1.260 . S
O6 In0 2.266 . S
O6 C3 1.252 . S
O7 In0 2.326 . S
O7 C3 1.260 . S
O8 In0 2.266 . S
O8 C5 1.252 . S
O9 In0 2.326 . S
O9 C5 1.260 . S
C10 O1 1.240 . S
C10 O2 1.252 . S
O11 In0 2.294 1_655 S
O11 C4 1.240 . S
O12 In0 2.326 1_655 S
O12 C4 1.252 . S
In13 O14 2.294 . S
In13 O15 2.326 . S
In13 O19 2.266 . S
In13 O20 2.326 . S
In13 O21 2.266 1_455 S
In13 O22 2.326 1_455 S
In13 O24 2.294 . S
In13 O25 2.326 . S
O14 In13 2.294 . S
O14 C23 1.240 . S
O15 In13 2.326 . S
O15 C23 1.252 . S
C16 O19 1.252 . S
C16 O20 1.260 . S
C17 O24 1.240 . S
C17 O25 1.252 . S
C18 O21 1.252 . S
C18 O22 1.260 . S
O19 In13 2.266 . S
O19 C16 1.252 . S
O20 In13 2.326 . S
O20 C16 1.260 . S
O21 In13 2.266 1_655 S
O21 C18 1.252 . S
O22 In13 2.326 1_655 S
O22 C18 1.260 . S
C23 O14 1.240 . S
C23 O15 1.252 . S
O24 In13 2.294 . S
O24 C17 1.240 . S
O25 In13 2.326 . S
O25 C17 1.252 . S
In26 O27 2.294 1_455 S
In26 O28 2.326 1_455 S
In26 O32 2.266 . S
In26 O33 2.326 . S
In26 O34 2.266 . S
In26 O35 2.326 . S
In26 O37 2.294 . S
In26 O38 2.326 . S
O27 In26 2.294 1_655 S
O27 C36 1.240 . S
O28 In26 2.326 1_655 S
O28 C36 1.252 . S
C29 O32 1.252 . S
C29 O33 1.260 . S
C30 O37 1.240 . S
C30 O38 1.252 . S
C31 O34 1.252 . S
C31 O35 1.260 . S
O32 In26 2.266 . S
O32 C29 1.252 . S
O33 In26 2.326 . S
O33 C29 1.260 . S
O34 In26 2.266 . S
O34 C31 1.252 . S
O35 In26 2.326 . S
O35 C31 1.260 . S
C36 O27 1.240 . S
C36 O28 1.252 . S
O37 In26 2.294 . S
O37 C30 1.240 . S
O38 In26 2.326 . S
O38 C30 1.252 . S
In39 O40 2.294 . S
In39 O41 2.326 . S
In39 O45 2.266 . S
In39 O46 2.326 . S
In39 O47 2.266 1_455 S
In39 O48 2.326 1_455 S
In39 O50 2.294 . S
In39 O51 2.326 . S
O40 In39 2.294 . S
O40 C49 1.240 . S
O41 In39 2.326 . S
O41 C49 1.252 . S
C42 O45 1.252 . S
C42 O46 1.260 . S
C43 O50 1.240 . S
C43 O51 1.252 . S
C44 O47 1.252 . S
C44 O48 1.260 . S
O45 In39 2.266 . S
O45 C42 1.252 . S
O46 In39 2.326 . S
O46 C42 1.260 . S
O47 In39 2.266 1_655 S
O47 C44 1.252 . S
O48 In39 2.326 1_655 S
O48 C44 1.260 . S
C49 O40 1.240 . S
C49 O41 1.252 . S
O50 In39 2.294 . S
O50 C43 1.240 . S
O51 In39 2.326 . S
O51 C43 1.252 . S
In52 O53 2.294 . S
In52 O54 2.326 . S
In52 O58 2.266 . S
In52 O59 2.326 . S
In52 O60 2.266 . S
In52 O61 2.326 . S
In52 O63 2.294 . S
In52 O64 2.326 . S
O53 In52 2.294 . S
O53 C62 1.240 . S
O54 In52 2.326 . S
O54 C62 1.252 . S
C55 O58 1.252 . S
C55 O59 1.260 . S
C56 O63 1.240 . S
C56 O64 1.252 . S
C57 O60 1.252 . S
C57 O61 1.260 . S
O58 In52 2.266 . S
O58 C55 1.252 . S
O59 In52 2.326 . S
O59 C55 1.260 . S
O60 In52 2.266 . S
O60 C57 1.252 . S
O61 In52 2.326 . S
O61 C57 1.260 . S
C62 O53 1.240 . S
C62 O54 1.252 . S
O63 In52 2.294 . S
O63 C56 1.240 . S
O64 In52 2.326 . S
O64 C56 1.252 . S
In65 O66 2.294 . S
In65 O67 2.326 . S
In65 O71 2.266 . S
In65 O72 2.326 . S
In65 O73 2.266 . S
In65 O74 2.326 . S
In65 O76 2.294 . S
In65 O77 2.326 . S
O66 In65 2.294 . S
O66 C75 1.240 . S
O67 In65 2.326 . S
O67 C75 1.252 . S
C68 O71 1.252 . S
C68 O72 1.260 . S
C69 O76 1.240 . S
C69 O77 1.252 . S
C70 O73 1.252 . S
C70 O74 1.260 . S
O71 In65 2.266 . S
O71 C68 1.252 . S
O72 In65 2.326 . S
O72 C68 1.260 . S
O73 In65 2.266 . S
O73 C70 1.252 . S
O74 In65 2.326 . S
O74 C70 1.260 . S
C75 O66 1.240 . S
C75 O67 1.252 . S
O76 In65 2.294 . S
O76 C69 1.240 . S
O77 In65 2.326 . S
O77 C69 1.252 . S
In78 O79 2.294 . S
In78 O80 2.326 . S
In78 O84 2.266 . S
In78 O85 2.326 . S
In78 O86 2.266 . S
In78 O87 2.326 . S
In78 O89 2.294 . S
In78 O90 2.326 . S
O79 In78 2.294 . S
O79 C88 1.240 . S
O80 In78 2.326 . S
O80 C88 1.252 . S
C81 O84 1.252 . S
C81 O85 1.260 . S
C82 O89 1.240 . S
C82 O90 1.252 . S
C83 O86 1.252 . S
C83 O87 1.260 . S
O84 In78 2.266 . S
O84 C81 1.252 . S
O85 In78 2.326 . S
O85 C81 1.260 . S
O86 In78 2.266 . S
O86 C83 1.252 . S
O87 In78 2.326 . S
O87 C83 1.260 . S
C88 O79 1.240 . S
C88 O80 1.252 . S
O89 In78 2.294 . S
O89 C82 1.240 . S
O90 In78 2.326 . S
O90 C82 1.252 . S
In91 O92 2.294 . S
In91 O93 2.326 . S
In91 O97 2.266 . S
In91 O98 2.326 . S
In91 O99 2.266 . S
In91 O100 2.326 . S
In91 O102 2.294 . S
In91 O103 2.326 . S
O92 In91 2.294 . S
O92 C101 1.240 . S
O93 In91 2.326 . S
O93 C101 1.252 . S
C94 O97 1.252 . S
C94 O98 1.260 . S
C95 O102 1.240 . S
C95 O103 1.252 . S
C96 O99 1.252 . S
C96 O100 1.260 . S
O97 In91 2.266 . S
O97 C94 1.252 . S
O98 In91 2.326 . S
O98 C94 1.260 . S
O99 In91 2.266 . S
O99 C96 1.252 . S
O100 In91 2.326 . S
O100 C96 1.260 . S
C101 O92 1.240 . S
C101 O93 1.252 . S
O102 In91 2.294 . S
O102 C95 1.240 . S
O103 In91 2.326 . S
O103 C95 1.252 . S
C104 C105 1.391 . S
C104 C106 1.394 . S
C104 H120 0.931 . S
C105 C104 1.391 . S
C105 C109 1.376 1_455 S
C106 C104 1.394 . S
C106 C107 1.369 . S
C106 C110 1.531 . S
C107 C106 1.369 . S
C107 C108 1.410 1_455 S
C107 C115 1.503 . S
C108 C107 1.410 1_655 S
C108 C109 1.392 . S
C108 C111 1.511 . S
C109 C105 1.376 1_655 S
C109 C108 1.392 . S
C109 H121 0.929 . S
C110 C106 1.531 . S
C110 H122 0.960 . S
C110 H123 0.962 . S
C110 H124 0.960 . S
C111 C108 1.511 . S
C111 H125 0.961 . S
C111 H126 0.961 . S
C111 H127 0.961 . S
C112 C113 1.370 . S
C112 C114 1.363 . S
C112 H128 0.931 . S
C113 C112 1.370 . S
C113 C117 1.408 . S
C114 C112 1.363 . S
C114 C115 1.370 . S
C114 C118 1.524 . S
C115 C107 1.503 . S
C115 C114 1.370 . S
C115 C116 1.403 . S
C116 C115 1.403 . S
C116 C117 1.404 . S
C116 C119 1.539 1_455 S
C117 C113 1.408 . S
C117 C116 1.404 . S
C117 H129 0.930 1_455 S
C118 C114 1.524 . S
C118 H130 0.956 . S
C118 H131 0.961 . S
C118 H132 0.961 . S
C119 C116 1.539 1_655 S
C119 H133 0.958 . S
C119 H134 0.961 . S
C119 H135 0.960 . S
H120 C104 0.931 . S
H121 C109 0.929 . S
H122 C110 0.960 . S
H123 C110 0.962 . S
H124 C110 0.960 . S
H125 C111 0.961 . S
H126 C111 0.961 . S
H127 C111 0.961 . S
H128 C112 0.931 . S
H129 C117 0.930 1_655 S
H130 C118 0.956 . S
H131 C118 0.961 . S
H132 C118 0.961 . S
H133 C119 0.958 . S
H134 C119 0.961 . S
H135 C119 0.960 . S
C136 C137 1.391 . S
C136 C138 1.394 . S
C136 H152 0.931 . S
C137 C136 1.391 . S
C137 C141 1.376 . S
C138 C136 1.394 . S
C138 C139 1.369 . S
C138 C142 1.531 . S
C139 C138 1.369 . S
C139 C140 1.393 1_455 S
C139 C147 1.503 . S
C140 C139 1.393 1_655 S
C140 C141 1.390 1_655 S
C140 C143 1.529 . S
C141 C137 1.376 . S
C141 C140 1.390 1_455 S
C141 H153 0.929 1_455 S
C142 C138 1.531 . S
C142 H154 0.960 . S
C142 H155 0.962 . S
C142 H156 0.960 . S
C143 C140 1.529 . S
C143 H157 0.961 . S
C143 H158 0.961 . S
C143 H159 0.961 . S
C144 C145 1.370 . S
C144 C146 1.363 . S
C144 H160 0.931 . S
C145 C144 1.370 . S
C145 C149 1.408 . S
C146 C144 1.363 . S
C146 C147 1.370 . S
C146 C150 1.524 . S
C147 C139 1.503 . S
C147 C146 1.370 . S
C147 C148 1.403 . S
C148 C147 1.403 . S
C148 C149 1.404 . S
C148 C151 1.539 1_455 S
C149 C145 1.408 . S
C149 C148 1.404 . S
C149 H161 0.930 1_455 S
C150 C146 1.524 . S
C150 H162 0.956 . S
C150 H163 0.961 . S
C150 H164 0.961 . S
C151 C148 1.539 1_655 S
C151 H165 0.958 . S
C151 H166 0.961 . S
C151 H167 0.960 . S
H152 C136 0.931 . S
H153 C141 0.929 1_655 S
H154 C142 0.960 . S
H155 C142 0.962 . S
H156 C142 0.960 . S
H157 C143 0.961 . S
H158 C143 0.961 . S
H159 C143 0.961 . S
H160 C144 0.931 . S
H161 C149 0.930 1_655 S
H162 C150 0.956 . S
H163 C150 0.961 . S
H164 C150 0.961 . S
H165 C151 0.958 . S
H166 C151 0.961 . S
H167 C151 0.960 . S
C168 C169 1.391 . S
C168 C170 1.394 . S
C168 H184 0.931 . S
C169 C168 1.391 . S
C169 C173 1.376 . S
C170 C168 1.394 . S
C170 C171 1.369 . S
C170 C174 1.531 . S
C171 C170 1.369 . S
C171 C172 1.410 . S
C171 C179 1.503 . S
C172 C171 1.410 . S
C172 C173 1.392 . S
C172 C175 1.511 . S
C173 C169 1.376 . S
C173 C172 1.392 . S
C173 H185 0.929 . S
C174 C170 1.531 . S
C174 H186 0.960 . S
C174 H187 0.962 . S
C174 H188 0.960 . S
C175 C172 1.511 . S
C175 H189 0.961 . S
C175 H190 0.961 . S
C175 H191 0.961 . S
C176 C177 1.370 . S
C176 C178 1.363 . S
C176 H192 0.931 . S
C177 C176 1.370 . S
C177 C181 1.408 . S
C178 C176 1.363 . S
C178 C179 1.370 . S
C178 C182 1.524 . S
C179 C171 1.503 . S
C179 C178 1.370 . S
C179 C180 1.403 . S
C180 C179 1.403 . S
C180 C181 1.404 . S
C180 C183 1.539 . S
C181 C177 1.408 . S
C181 C180 1.404 . S
C181 H193 0.930 . S
C182 C178 1.524 . S
C182 H194 0.956 . S
C182 H195 0.961 . S
C182 H196 0.961 . S
C183 C180 1.539 . S
C183 H197 0.958 . S
C183 H198 0.961 . S
C183 H199 0.960 . S
H184 C168 0.931 . S
H185 C173 0.929 . S
H186 C174 0.960 . S
H187 C174 0.962 . S
H188 C174 0.960 . S
H189 C175 0.961 . S
H190 C175 0.961 . S
H191 C175 0.961 . S
H192 C176 0.931 . S
H193 C181 0.930 . S
H194 C182 0.956 . S
H195 C182 0.961 . S
H196 C182 0.961 . S
H197 C183 0.958 . S
H198 C183 0.961 . S
H199 C183 0.960 . S
C200 C201 1.391 . S
C200 C202 1.394 . S
C200 H216 0.931 . S
C201 C200 1.391 . S
C201 C205 1.376 . S
C202 C200 1.394 . S
C202 C203 1.369 . S
C202 C206 1.531 . S
C203 C202 1.369 . S
C203 C204 1.410 . S
C203 C211 1.503 . S
C204 C203 1.410 . S
C204 C205 1.392 . S
C204 C207 1.511 . S
C205 C201 1.376 . S
C205 C204 1.392 . S
C205 H217 0.929 . S
C206 C202 1.531 . S
C206 H218 0.960 . S
C206 H219 0.962 . S
C206 H220 0.960 . S
C207 C204 1.511 . S
C207 H221 0.961 . S
C207 H222 0.961 . S
C207 H223 0.961 . S
C208 C209 1.370 . S
C208 C210 1.363 . S
C208 H224 0.931 . S
C209 C208 1.370 . S
C209 C213 1.408 . S
C210 C208 1.363 . S
C210 C211 1.370 . S
C210 C214 1.524 . S
C211 C203 1.503 . S
C211 C210 1.370 . S
C211 C212 1.403 . S
C212 C211 1.403 . S
C212 C213 1.404 . S
C212 C215 1.539 . S
C213 C209 1.408 . S
C213 C212 1.404 . S
C213 H225 0.930 . S
C214 C210 1.524 . S
C214 H226 0.956 . S
C214 H227 0.961 . S
C214 H228 0.961 . S
C215 C212 1.539 . S
C215 H229 0.958 . S
C215 H230 0.961 . S
C215 H231 0.960 . S
H216 C200 0.931 . S
H217 C205 0.929 . S
H218 C206 0.960 . S
H219 C206 0.962 . S
H220 C206 0.960 . S
H221 C207 0.961 . S
H222 C207 0.961 . S
H223 C207 0.961 . S
H224 C208 0.931 . S
H225 C213 0.930 . S
H226 C214 0.956 . S
H227 C214 0.961 . S
H228 C214 0.961 . S
H229 C215 0.958 . S
H230 C215 0.961 . S
H231 C215 0.960 . S
C232 C233 1.391 . S
C232 C234 1.394 . S
C232 H248 0.931 . S
C233 C232 1.391 . S
C233 C237 1.376 . S
C234 C232 1.394 . S
C234 C235 1.369 . S
C234 C238 1.531 . S
C235 C234 1.369 . S
C235 C236 1.410 . S
C235 C243 1.503 . S
C236 C235 1.410 . S
C236 C237 1.392 . S
C236 C239 1.511 . S
C237 C233 1.376 . S
C237 C236 1.392 . S
C237 H249 0.929 . S
C238 C234 1.531 . S
C238 H250 0.960 . S
C238 H251 0.962 . S
C238 H252 0.960 . S
C239 C236 1.511 . S
C239 H253 0.961 . S
C239 H254 0.961 . S
C239 H255 0.961 . S
C240 C241 1.370 . S
C240 C242 1.363 . S
C240 H256 0.931 . S
C241 C240 1.370 . S
C241 C245 1.408 . S
C242 C240 1.363 . S
C242 C243 1.370 . S
C242 C246 1.524 . S
C243 C235 1.503 . S
C243 C242 1.370 . S
C243 C244 1.403 . S
C244 C243 1.403 . S
C244 C245 1.404 . S
C244 C247 1.539 . S
C245 C241 1.408 . S
C245 C244 1.404 . S
C245 H257 0.930 . S
C246 C242 1.524 . S
C246 H258 0.956 . S
C246 H259 0.961 . S
C246 H260 0.961 . S
C247 C244 1.539 . S
C247 H261 0.958 . S
C247 H262 0.961 . S
C247 H263 0.960 . S
H248 C232 0.931 . S
H249 C237 0.929 . S
H250 C238 0.960 . S
H251 C238 0.962 . S
H252 C238 0.960 . S
H253 C239 0.961 . S
H254 C239 0.961 . S
H255 C239 0.961 . S
H256 C240 0.931 . S
H257 C245 0.930 . S
H258 C246 0.956 . S
H259 C246 0.961 . S
H260 C246 0.961 . S
H261 C247 0.958 . S
H262 C247 0.961 . S
H263 C247 0.960 . S
C264 C265 1.391 . S
C264 C266 1.394 . S
C264 H280 0.931 . S
C265 C264 1.391 . S
C265 C269 1.376 . S
C266 C264 1.394 . S
C266 C267 1.369 . S
C266 C270 1.531 . S
C267 C266 1.369 . S
C267 C268 1.410 . S
C267 C275 1.503 . S
C268 C267 1.410 . S
C268 C269 1.392 . S
C268 C271 1.511 . S
C269 C265 1.376 . S
C269 C268 1.392 . S
C269 H281 0.929 . S
C270 C266 1.531 . S
C270 H282 0.960 . S
C270 H283 0.962 . S
C270 H284 0.960 . S
C271 C268 1.511 . S
C271 H285 0.961 . S
C271 H286 0.961 . S
C271 H287 0.961 . S
C272 C273 1.370 . S
C272 C274 1.363 . S
C272 H288 0.931 . S
C273 C272 1.370 . S
C273 C277 1.408 . S
C274 C272 1.363 . S
C274 C275 1.370 . S
C274 C278 1.524 . S
C275 C267 1.503 . S
C275 C274 1.370 . S
C275 C276 1.403 . S
C276 C275 1.403 . S
C276 C277 1.404 . S
C276 C279 1.539 . S
C277 C273 1.408 . S
C277 C276 1.404 . S
C277 H289 0.930 . S
C278 C274 1.524 . S
C278 H290 0.956 . S
C278 H291 0.961 . S
C278 H292 0.961 . S
C279 C276 1.539 . S
C279 H293 0.958 . S
C279 H294 0.961 . S
C279 H295 0.960 . S
H280 C264 0.931 . S
H281 C269 0.929 . S
H282 C270 0.960 . S
H283 C270 0.962 . S
H284 C270 0.960 . S
H285 C271 0.961 . S
H286 C271 0.961 . S
H287 C271 0.961 . S
H288 C272 0.931 . S
H289 C277 0.930 . S
H290 C278 0.956 . S
H291 C278 0.961 . S
H292 C278 0.961 . S
H293 C279 0.958 . S
H294 C279 0.961 . S
H295 C279 0.960 . S
C296 C297 1.391 . S
C296 C298 1.394 . S
C296 H312 0.931 . S
C297 C296 1.391 . S
C297 C301 1.376 . S
C298 C296 1.394 . S
C298 C299 1.369 . S
C298 C302 1.531 . S
C299 C298 1.369 . S
C299 C300 1.410 . S
C299 C307 1.503 . S
C300 C299 1.410 . S
C300 C301 1.392 . S
C300 C303 1.511 . S
C301 C297 1.376 . S
C301 C300 1.392 . S
C301 H313 0.929 . S
C302 C298 1.531 . S
C302 H314 0.960 . S
C302 H315 0.962 . S
C302 H316 0.960 . S
C303 C300 1.511 . S
C303 H317 0.961 . S
C303 H318 0.961 . S
C303 H319 0.961 . S
C304 C305 1.370 . S
C304 C306 1.363 . S
C304 H320 0.931 . S
C305 C304 1.370 . S
C305 C309 1.408 . S
C306 C304 1.363 . S
C306 C307 1.370 . S
C306 C310 1.524 . S
C307 C299 1.503 . S
C307 C306 1.370 . S
C307 C308 1.403 . S
C308 C307 1.403 . S
C308 C309 1.404 . S
C308 C311 1.539 . S
C309 C305 1.408 . S
C309 C308 1.404 . S
C309 H321 0.930 . S
C310 C306 1.524 . S
C310 H322 0.956 . S
C310 H323 0.961 . S
C310 H324 0.961 . S
C311 C308 1.539 . S
C311 H325 0.958 . S
C311 H326 0.961 . S
C311 H327 0.960 . S
H312 C296 0.931 . S
H313 C301 0.929 . S
H314 C302 0.960 . S
H315 C302 0.962 . S
H316 C302 0.960 . S
H317 C303 0.961 . S
H318 C303 0.961 . S
H319 C303 0.961 . S
H320 C304 0.931 . S
H321 C309 0.930 . S
H322 C310 0.956 . S
H323 C310 0.961 . S
H324 C310 0.961 . S
H325 C311 0.958 . S
H326 C311 0.961 . S
H327 C311 0.960 . S
C328 C329 1.391 . S
C328 C330 1.394 . S
C328 H344 0.931 . S
C329 C328 1.391 . S
C329 C333 1.376 . S
C330 C328 1.394 . S
C330 C331 1.369 . S
C330 C334 1.531 . S
C331 C330 1.369 . S
C331 C332 1.410 . S
C331 C339 1.503 . S
C332 C331 1.410 . S
C332 C333 1.392 . S
C332 C335 1.511 . S
C333 C329 1.376 . S
C333 C332 1.392 . S
C333 H345 0.929 . S
C334 C330 1.531 . S
C334 H346 0.960 . S
C334 H347 0.962 . S
C334 H348 0.960 . S
C335 C332 1.511 . S
C335 H349 0.961 . S
C335 H350 0.961 . S
C335 H351 0.961 . S
C336 C337 1.370 . S
C336 C338 1.363 . S
C336 H352 0.931 . S
C337 C336 1.370 . S
C337 C341 1.408 . S
C338 C336 1.363 . S
C338 C339 1.370 . S
C338 C342 1.524 . S
C339 C331 1.503 . S
C339 C338 1.370 . S
C339 C340 1.403 . S
C340 C339 1.403 . S
C340 C341 1.404 . S
C340 C343 1.539 . S
C341 C337 1.408 . S
C341 C340 1.404 . S
C341 H353 0.930 . S
C342 C338 1.524 . S
C342 H354 0.956 . S
C342 H355 0.961 . S
C342 H356 0.961 . S
C343 C340 1.539 . S
C343 H357 0.958 . S
C343 H358 0.961 . S
C343 H359 0.960 . S
H344 C328 0.931 . S
H345 C333 0.929 . S
H346 C334 0.960 . S
H347 C334 0.962 . S
H348 C334 0.960 . S
H349 C335 0.961 . S
H350 C335 0.961 . S
H351 C335 0.961 . S
H352 C336 0.931 . S
H353 C341 0.930 . S
H354 C342 0.956 . S
H355 C342 0.961 . S
H356 C342 0.961 . S
H357 C343 0.958 . S
H358 C343 0.961 . S
H359 C343 0.960 . S
C360 C361 1.391 . S
C360 C362 1.394 . S
C360 H376 0.931 . S
C361 C360 1.391 . S
C361 C365 1.376 . S
C362 C360 1.394 . S
C362 C363 1.369 . S
C362 C366 1.531 . S
C363 C362 1.369 . S
C363 C364 1.410 . S
C363 C371 1.503 . S
C364 C363 1.410 . S
C364 C365 1.392 . S
C364 C367 1.511 . S
C365 C361 1.376 . S
C365 C364 1.392 . S
C365 H377 0.929 . S
C366 C362 1.531 . S
C366 H378 0.960 . S
C366 H379 0.962 . S
C366 H380 0.960 . S
C367 C364 1.511 . S
C367 H381 0.961 . S
C367 H382 0.961 . S
C367 H383 0.961 . S
C368 C369 1.370 . S
C368 C370 1.363 . S
C368 H384 0.931 . S
C369 C368 1.370 . S
C369 C373 1.408 . S
C370 C368 1.363 . S
C370 C371 1.370 . S
C370 C374 1.524 . S
C371 C363 1.503 . S
C371 C370 1.370 . S
C371 C372 1.403 . S
C372 C371 1.403 . S
C372 C373 1.404 . S
C372 C375 1.539 . S
C373 C369 1.408 . S
C373 C372 1.404 . S
C373 H385 0.930 . S
C374 C370 1.524 . S
C374 H386 0.956 . S
C374 H387 0.961 . S
C374 H388 0.961 . S
C375 C372 1.539 . S
C375 H389 0.958 . S
C375 H390 0.961 . S
C375 H391 0.960 . S
H376 C360 0.931 . S
H377 C365 0.929 . S
H378 C366 0.960 . S
H379 C366 0.962 . S
H380 C366 0.960 . S
H381 C367 0.961 . S
H382 C367 0.961 . S
H383 C367 0.961 . S
H384 C368 0.931 . S
H385 C373 0.930 . S
H386 C374 0.956 . S
H387 C374 0.961 . S
H388 C374 0.961 . S
H389 C375 0.958 . S
H390 C375 0.961 . S
H391 C375 0.960 . S
C392 C393 1.391 . S
C392 C394 1.394 . S
C392 H408 0.931 . S
C393 C392 1.391 . S
C393 C397 1.376 . S
C394 C392 1.394 . S
C394 C395 1.369 . S
C394 C398 1.531 . S
C395 C394 1.369 . S
C395 C396 1.410 . S
C395 C403 1.503 . S
C396 C395 1.410 . S
C396 C397 1.392 . S
C396 C399 1.511 . S
C397 C393 1.376 . S
C397 C396 1.392 . S
C397 H409 0.929 . S
C398 C394 1.531 . S
C398 H410 0.960 . S
C398 H411 0.962 . S
C398 H412 0.960 . S
C399 C396 1.511 . S
C399 H413 0.961 . S
C399 H414 0.961 . S
C399 H415 0.961 . S
C400 C401 1.370 . S
C400 C402 1.363 . S
C400 H416 0.931 . S
C401 C400 1.370 . S
C401 C405 1.408 . S
C402 C400 1.363 . S
C402 C403 1.370 . S
C402 C406 1.524 . S
C403 C395 1.503 . S
C403 C402 1.370 . S
C403 C404 1.403 . S
C404 C403 1.403 . S
C404 C405 1.404 . S
C404 C407 1.539 . S
C405 C401 1.408 . S
C405 C404 1.404 . S
C405 H417 0.930 . S
C406 C402 1.524 . S
C406 H418 0.956 . S
C406 H419 0.961 . S
C406 H420 0.961 . S
C407 C404 1.539 . S
C407 H421 0.958 . S
C407 H422 0.961 . S
C407 H423 0.960 . S
H408 C392 0.931 . S
H409 C397 0.929 . S
H410 C398 0.960 . S
H411 C398 0.962 . S
H412 C398 0.960 . S
H413 C399 0.961 . S
H414 C399 0.961 . S
H415 C399 0.961 . S
H416 C400 0.931 . S
H417 C405 0.930 . S
H418 C406 0.956 . S
H419 C406 0.961 . S
H420 C406 0.961 . S
H421 C407 0.958 . S
H422 C407 0.961 . S
H423 C407 0.960 . S
C424 C425 1.391 . S
C424 C426 1.394 . S
C424 H440 0.931 . S
C425 C424 1.391 . S
C425 C429 1.376 . S
C426 C424 1.394 . S
C426 C427 1.369 . S
C426 C430 1.531 . S
C427 C426 1.369 . S
C427 C428 1.410 . S
C427 C435 1.503 . S
C428 C427 1.410 . S
C428 C429 1.392 . S
C428 C431 1.511 . S
C429 C425 1.376 . S
C429 C428 1.392 . S
C429 H441 0.929 . S
C430 C426 1.531 . S
C430 H442 0.960 . S
C430 H443 0.962 . S
C430 H444 0.960 . S
C431 C428 1.511 . S
C431 H445 0.961 . S
C431 H446 0.961 . S
C431 H447 0.961 . S
C432 C433 1.370 . S
C432 C434 1.363 . S
C432 H448 0.931 . S
C433 C432 1.370 . S
C433 C437 1.408 . S
C434 C432 1.363 . S
C434 C435 1.370 . S
C434 C438 1.524 . S
C435 C427 1.503 . S
C435 C434 1.370 . S
C435 C436 1.403 . S
C436 C435 1.403 . S
C436 C437 1.404 . S
C436 C439 1.539 . S
C437 C433 1.408 . S
C437 C436 1.404 . S
C437 H449 0.930 . S
C438 C434 1.524 . S
C438 H450 0.956 . S
C438 H451 0.961 . S
C438 H452 0.961 . S
C439 C436 1.539 . S
C439 H453 0.958 . S
C439 H454 0.961 . S
C439 H455 0.960 . S
H440 C424 0.931 . S
H441 C429 0.929 . S
H442 C430 0.960 . S
H443 C430 0.962 . S
H444 C430 0.960 . S
H445 C431 0.961 . S
H446 C431 0.961 . S
H447 C431 0.961 . S
H448 C432 0.931 . S
H449 C437 0.930 . S
H450 C438 0.956 . S
H451 C438 0.961 . S
H452 C438 0.961 . S
H453 C439 0.958 . S
H454 C439 0.961 . S
H455 C439 0.960 . S
C456 C457 1.391 . S
C456 C458 1.394 . S
C456 H472 0.931 . S
C457 C456 1.391 . S
C457 C461 1.376 . S
C458 C456 1.394 . S
C458 C459 1.369 . S
C458 C462 1.531 . S
C459 C458 1.369 . S
C459 C460 1.410 . S
C459 C467 1.503 . S
C460 C459 1.410 . S
C460 C461 1.392 . S
C460 C463 1.511 . S
C461 C457 1.376 . S
C461 C460 1.392 . S
C461 H473 0.929 . S
C462 C458 1.531 . S
C462 H474 0.960 . S
C462 H475 0.962 . S
C462 H476 0.960 . S
C463 C460 1.511 . S
C463 H477 0.961 . S
C463 H478 0.961 . S
C463 H479 0.961 . S
C464 C465 1.370 . S
C464 C466 1.363 . S
C464 H480 0.931 . S
C465 C464 1.370 . S
C465 C469 1.408 . S
C466 C464 1.363 . S
C466 C467 1.370 . S
C466 C470 1.524 . S
C467 C459 1.503 . S
C467 C466 1.370 . S
C467 C468 1.403 . S
C468 C467 1.403 . S
C468 C469 1.404 . S
C468 C471 1.539 . S
C469 C465 1.408 . S
C469 C468 1.404 . S
C469 H481 0.930 . S
C470 C466 1.524 . S
C470 H482 0.956 . S
C470 H483 0.961 . S
C470 H484 0.961 . S
C471 C468 1.539 . S
C471 H485 0.958 . S
C471 H486 0.961 . S
C471 H487 0.960 . S
H472 C456 0.931 . S
H473 C461 0.929 . S
H474 C462 0.960 . S
H475 C462 0.962 . S
H476 C462 0.960 . S
H477 C463 0.961 . S
H478 C463 0.961 . S
H479 C463 0.961 . S
H480 C464 0.931 . S
H481 C469 0.930 . S
H482 C470 0.956 . S
H483 C470 0.961 . S
H484 C470 0.961 . S
H485 C471 0.958 . S
H486 C471 0.961 . S
H487 C471 0.960 . S
C488 C489 1.391 . S
C488 C490 1.394 . S
C488 H504 0.931 . S
C489 C488 1.391 . S
C489 C493 1.376 1_455 S
C490 C488 1.394 . S
C490 C491 1.369 . S
C490 C494 1.531 1_545 S
C491 C490 1.369 . S
C491 C492 1.410 1_455 S
C491 C499 1.503 1_544 S
C492 C491 1.410 1_655 S
C492 C493 1.392 . S
C492 C495 1.511 1_554 S
C493 C489 1.376 1_655 S
C493 C492 1.392 . S
C493 H505 0.929 . S
C494 C490 1.531 1_565 S
C494 H506 0.960 . S
C494 H507 0.962 . S
C494 H508 0.960 . S
C495 C492 1.511 1_556 S
C495 H509 0.961 . S
C495 H510 0.961 . S
C495 H511 0.961 1_556 S
C496 C497 1.370 . S
C496 C498 1.363 . S
C496 H512 0.931 . S
C497 C496 1.370 . S
C497 C501 1.408 1_455 S
C498 C496 1.363 . S
C498 C499 1.370 . S
C498 C502 1.524 1_565 S
C499 C491 1.503 1_566 S
C499 C498 1.370 . S
C499 C500 1.400 1_456 S
C500 C499 1.400 1_654 S
C500 C501 1.396 1_554 S
C500 C503 1.549 . S
C501 C497 1.408 1_655 S
C501 C500 1.396 1_556 S
C501 H513 0.930 . S
C502 C498 1.524 1_545 S
C502 H514 0.956 . S
C502 H515 0.961 . S
C502 H516 0.961 . S
C503 C500 1.549 . S
C503 H517 0.958 . S
C503 H518 0.961 . S
C503 H519 0.960 . S
H504 C488 0.931 . S
H505 C493 0.929 . S
H506 C494 0.960 . S
H507 C494 0.962 . S
H508 C494 0.960 . S
H509 C495 0.961 . S
H510 C495 0.961 . S
H511 C495 0.961 1_554 S
H512 C496 0.931 . S
H513 C501 0.930 . S
H514 C502 0.956 . S
H515 C502 0.961 . S
H516 C502 0.961 . S
H517 C503 0.958 . S
H518 C503 0.961 . S
H519 C503 0.960 . S
C520 C521 1.391 . S
C520 C522 1.394 1_556 S
C520 H536 0.931 . S
C521 C520 1.391 . S
C521 C525 1.376 . S
C522 C520 1.394 1_554 S
C522 C523 1.369 1_554 S
C522 C526 1.531 . S
C523 C522 1.369 1_556 S
C523 C524 1.410 . S
C523 C531 1.503 1_556 S
C524 C523 1.410 . S
C524 C525 1.392 . S
C524 C527 1.511 . S
C525 C521 1.376 . S
C525 C524 1.392 . S
C525 H537 0.929 . S
C526 C522 1.531 . S
C526 H538 0.960 . S
C526 H539 0.962 . S
C526 H540 0.960 . S
C527 C524 1.511 . S
C527 H541 0.961 . S
C527 H542 0.961 . S
C527 H543 0.961 1_455 S
C528 C529 1.370 . S
C528 C530 1.363 . S
C528 H544 0.931 . S
C529 C528 1.370 . S
C529 C533 1.408 . S
C530 C528 1.363 . S
C530 C531 1.370 . S
C530 C534 1.524 1_554 S
C531 C523 1.503 1_554 S
C531 C530 1.370 . S
C531 C532 1.403 . S
C532 C531 1.403 . S
C532 C533 1.404 . S
C532 C535 1.539 1_455 S
C533 C529 1.408 . S
C533 C532 1.404 . S
C533 H545 0.930 1_455 S
C534 C530 1.524 1_556 S
C534 H546 0.956 1_556 S
C534 H547 0.961 . S
C534 H548 0.961 1_556 S
C535 C532 1.539 1_655 S
C535 H549 0.958 . S
C535 H550 0.961 . S
C535 H551 0.960 . S
H536 C520 0.931 . S
H537 C525 0.929 . S
H538 C526 0.960 . S
H539 C526 0.962 . S
H540 C526 0.960 . S
H541 C527 0.961 . S
H542 C527 0.961 . S
H543 C527 0.961 1_655 S
H544 C528 0.931 . S
H545 C533 0.930 1_655 S
H546 C534 0.956 1_554 S
H547 C534 0.961 . S
H548 C534 0.961 1_554 S
H549 C535 0.958 . S
H550 C535 0.961 . S
H551 C535 0.960 . S
C552 C553 1.391 . S
C552 C554 1.394 . S
C552 H568 0.931 . S
C553 C552 1.391 . S
C553 C557 1.376 . S
C554 C552 1.394 . S
C554 C555 1.369 . S
C554 C558 1.531 . S
C555 C554 1.369 . S
C555 C556 1.410 . S
C555 C563 1.503 . S
C556 C555 1.410 . S
C556 C557 1.392 . S
C556 C559 1.511 . S
C557 C553 1.376 . S
C557 C556 1.392 . S
C557 H569 0.929 . S
C558 C554 1.531 . S
C558 H570 0.960 . S
C558 H571 0.962 . S
C558 H572 0.960 . S
C559 C556 1.511 . S
C559 H573 0.961 . S
C559 H574 0.961 . S
C559 H575 0.961 . S
C560 C561 1.370 . S
C560 C562 1.363 . S
C560 H576 0.931 . S
C561 C560 1.370 . S
C561 C565 1.408 . S
C562 C560 1.363 . S
C562 C563 1.370 . S
C562 C566 1.524 . S
C563 C555 1.503 . S
C563 C562 1.370 . S
C563 C564 1.403 . S
C564 C563 1.403 . S
C564 C565 1.404 . S
C564 C567 1.539 . S
C565 C561 1.408 . S
C565 C564 1.404 . S
C565 H577 0.930 . S
C566 C562 1.524 . S
C566 H578 0.956 . S
C566 H579 0.961 . S
C566 H580 0.961 . S
C567 C564 1.539 . S
C567 H581 0.958 . S
C567 H582 0.961 . S
C567 H583 0.960 . S
H568 C552 0.931 . S
H569 C557 0.929 . S
H570 C558 0.960 . S
H571 C558 0.962 . S
H572 C558 0.960 . S
H573 C559 0.961 . S
H574 C559 0.961 . S
H575 C559 0.961 . S
H576 C560 0.931 . S
H577 C565 0.930 . S
H578 C566 0.956 . S
H579 C566 0.961 . S
H580 C566 0.961 . S
H581 C567 0.958 . S
H582 C567 0.961 . S
H583 C567 0.960 . S
C584 C585 1.391 . S
C584 C586 1.394 . S
C584 H600 0.931 . S
C585 C584 1.391 . S
C585 C589 1.376 . S
C586 C584 1.394 . S
C586 C587 1.369 . S
C586 C590 1.531 1_565 S
C587 C586 1.369 . S
C587 C588 1.410 . S
C587 C595 1.503 1_565 S
C588 C587 1.410 . S
C588 C589 1.392 . S
C588 C591 1.511 . S
C589 C585 1.376 . S
C589 C588 1.392 . S
C589 H601 0.929 . S
C590 C586 1.531 1_545 S
C590 H602 0.960 . S
C590 H603 0.962 . S
C590 H604 0.960 . S
C591 C588 1.511 . S
C591 H605 0.961 . S
C591 H606 0.961 . S
C591 H607 0.961 . S
C592 C593 1.370 . S
C592 C594 1.363 . S
C592 H608 0.931 . S
C593 C592 1.370 . S
C593 C597 1.408 . S
C594 C592 1.363 . S
C594 C595 1.370 . S
C594 C598 1.524 1_545 S
C595 C587 1.503 1_545 S
C595 C594 1.370 . S
C595 C596 1.403 . S
C596 C595 1.403 . S
C596 C597 1.404 . S
C596 C599 1.539 . S
C597 C593 1.408 . S
C597 C596 1.404 . S
C597 H609 0.930 . S
C598 C594 1.524 1_565 S
C598 H610 0.956 . S
C598 H611 0.961 . S
C598 H612 0.961 . S
C599 C596 1.539 . S
C599 H613 0.958 . S
C599 H614 0.961 . S
C599 H615 0.960 . S
H600 C584 0.931 . S
H601 C589 0.929 . S
H602 C590 0.960 . S
H603 C590 0.962 . S
H604 C590 0.960 . S
H605 C591 0.961 . S
H606 C591 0.961 . S
H607 C591 0.961 . S
H608 C592 0.931 . S
H609 C597 0.930 . S
H610 C598 0.956 . S
H611 C598 0.961 . S
H612 C598 0.961 . S
H613 C599 0.958 . S
H614 C599 0.961 . S
H615 C599 0.960 . S
C105 C16 1.453 . S
C113 C3 1.453 . S
C137 C31 1.455 . S
C145 C42 1.461 . S
C169 C57 1.453 . S
C177 C70 1.453 . S
C201 C83 1.450 . S
C209 C96 1.453 . S
C233 C94 1.675 . S
C241 C5 1.674 . S
C265 C81 1.669 . S
C273 C18 1.676 . S
C297 C29 1.673 . S
C305 C68 1.680 . S
C329 C55 1.664 . S
C337 C44 1.680 . S
C361 C75 1.195 . S
C369 C36 1.191 . S
C393 C62 1.186 . S
C401 C43 1.191 . S
C425 C101 1.184 . S
C433 C4 1.183 . S
C457 C17 1.181 . S
C465 C88 1.190 . S
C489 C10 1.409 . S
C497 C30 1.415 . S
C521 C49 1.408 . S
C529 C23 1.412 . S
C553 C82 1.413 . S
C561 C56 1.415 . S
C585 C69 1.411 . S
C593 C95 1.415 . S
