# Generated by pormake.
# Topology afw, (4)-cn, num edge types: 1
# Building blocks:
#     Node 0, Type 0, BuildingBlock: ESEHIV_clean_sbu_0, # of connection points: 4
#     Node 1, Type 0, BuildingBlock: ESEHIV_clean_sbu_0, # of connection points: 4
#     Node 2, Type 0, BuildingBlock: ESEHIV_clean_sbu_0, # of connection points: 4
#     Node 3, Type 0, BuildingBlock: ESEHIV_clean_sbu_0, # of connection points: 4
#     Node 4, Type 0, BuildingBlock: ESEHIV_clean_sbu_0, # of connection points: 4
#     Node 5, Type 0, BuildingBlock: ESEHIV_clean_sbu_0, # of connection points: 4
#     Node 6, Type 0, BuildingBlock: ESEHIV_clean_sbu_0, # of connection points: 4
#     Node 7, Type 0, BuildingBlock: ESEHIV_clean_sbu_0, # of connection points: 4
#     Node 8, Type 0, BuildingBlock: ESEHIV_clean_sbu_0, # of connection points: 4
#     Edge 9, Type (0, 0), BuildingBlock: ZUJKAS_clean_linker_0, # of connection points: 2
#     Edge 10, Type (0, 0), BuildingBlock: ZUJKAS_clean_linker_0, # of connection points: 2
#     Edge 11, Type (0, 0), BuildingBlock: ZUJKAS_clean_linker_0, # of connection points: 2
#     Edge 12, Type (0, 0), BuildingBlock: ZUJKAS_clean_linker_0, # of connection points: 2
#     Edge 13, Type (0, 0), BuildingBlock: ZUJKAS_clean_linker_0, # of connection points: 2
#     Edge 14, Type (0, 0), BuildingBlock: ZUJKAS_clean_linker_0, # of connection points: 2
#     Edge 15, Type (0, 0), BuildingBlock: ZUJKAS_clean_linker_0, # of connection points: 2
#     Edge 16, Type (0, 0), BuildingBlock: ZUJKAS_clean_linker_0, # of connection points: 2
#     Edge 17, Type (0, 0), BuildingBlock: ZUJKAS_clean_linker_0, # of connection points: 2
#     Edge 18, Type (0, 0), BuildingBlock: ZUJKAS_clean_linker_0, # of connection points: 2
#     Edge 19, Type (0, 0), BuildingBlock: ZUJKAS_clean_linker_0, # of connection points: 2
#     Edge 20, Type (0, 0), BuildingBlock: ZUJKAS_clean_linker_0, # of connection points: 2
#     Edge 21, Type (0, 0), BuildingBlock: ZUJKAS_clean_linker_0, # of connection points: 2
#     Edge 22, Type (0, 0), BuildingBlock: ZUJKAS_clean_linker_0, # of connection points: 2
#     Edge 23, Type (0, 0), BuildingBlock: ZUJKAS_clean_linker_0, # of connection points: 2
#     Edge 24, Type (0, 0), BuildingBlock: ZUJKAS_clean_linker_0, # of connection points: 2
#     Edge 25, Type (0, 0), BuildingBlock: ZUJKAS_clean_linker_0, # of connection points: 2
#     Edge 26, Type (0, 0), BuildingBlock: ZUJKAS_clean_linker_0, # of connection points: 2
# Relax obj value: 0.051
# Max RMSD: 0.167
# Mean RMSD: 0.157
data_MOF--net-afw--node1-ESEHIV_clean_sbu_0--edge1-ZUJKAS_clean_linker_0
_symmetry_space_group_name_H-M    P1
_symmetry_Int_Tables_number       1
_symmetry_cell_setting            triclinic
loop_
_symmetry_equiv_pos_as_xyz
'x, y, z'
_cell_length_a     63.000728
_cell_length_b     67.555561
_cell_length_c     25.983615
_cell_angle_alpha  95.656497
_cell_angle_beta   90.656163
_cell_angle_gamma 118.79137
loop_
_atom_site_label
_atom_site_type_symbol
_atom_site_fract_x
_atom_site_fract_y
_atom_site_fract_z
_atom_type_partial_charge
Cu0 Cu 0.05421 0.22004 0.06124 0.0
N1 N 0.05363 0.20488 0.11856 0.0
N2 N 0.04387 0.17077 0.14378 0.0
C3 C 0.05735 0.18673 0.11312 0.0
C4 C 1.03192 0.17972 0.17151 0.0
C5 C 0.03801 0.20071 0.15616 0.0
O6 O 0.05126 0.19759 0.00345 0.0
C7 C 1.0313 0.24396 0.09986 0.0
O8 O 0.05188 0.25405 0.12852 0.0
H9 H 0.0666 0.18356 0.08149 0.0
H10 H 1.02852 0.21019 0.16549 0.0
N11 N 0.08312 0.24751 0.05883 0.0
N12 N 0.10937 0.28071 0.03169 0.0
C13 C 0.08713 0.26216 0.02369 0.0
C14 C 0.10346 0.25713 0.09049 0.0
C15 C 0.11967 0.27765 0.07392 0.0
C16 C 0.07003 0.19952 0.98113 0.0
O17 O 0.08823 0.22 0.97885 0.0
H18 H 0.07382 0.25928 0.99305 0.0
H19 H 0.10627 0.24977 0.12329 0.0
O20 O 1.02763 0.22751 0.06558 0.0
H21 H 1.01708 0.17033 0.19517 0.0
H22 H 0.13776 0.28922 0.09116 0.0
Cu23 Cu 0.89369 0.86819 0.04992 0.0
N24 N 0.91408 0.89225 0.01345 0.0
N25 N 0.93565 0.92919 0.00259 0.0
C26 C 0.91732 0.91335 0.02655 0.0
C27 C 0.94372 0.91731 0.97153 0.0
C28 C 0.93046 0.89452 0.97851 0.0
O29 O 0.90099 0.88045 0.12269 0.0
C30 C 0.8529 0.85326 0.98051 0.0
O31 O 0.86902 0.85557 0.94659 0.0
H32 H 0.90716 0.91702 0.05562 0.0
H33 H 0.93358 0.88095 0.96169 0.0
N34 N 0.89681 0.84186 0.04423 0.0
N35 N 0.88883 0.80739 0.06394 0.0
C36 C 0.88659 0.82612 0.07728 0.0
C37 C 0.90603 0.83291 0.00836 0.0
C38 C 0.90125 0.8117 0.0206 0.0
C39 C 0.9218 0.89436 0.14544 0.0
O40 O 0.92283 0.90209 0.19431 0.0
H41 H 0.87733 0.8284 0.11024 0.0
H42 H 0.91487 0.84084 0.97491 0.0
O43 O 0.85986 0.85843 0.02856 0.0
H44 H 0.95907 0.92468 0.94791 0.0
H45 H 0.9058 0.80007 0.99815 0.0
Cu46 Cu 0.20179 0.02635 0.05923 0.0
N47 N 0.20774 1.00388 0.08194 0.0
N48 N 0.22436 0.98095 0.07613 0.0
C49 C 0.22533 1.00008 0.06224 0.0
C50 C 0.20538 0.97241 0.10644 0.0
C51 C 0.19517 0.98664 0.11006 0.0
O52 O 0.23453 0.0519 0.05463 0.0
C53 C 0.1662 0.99167 0.98734 0.0
O54 O 0.17582 0.9787 0.99549 0.0
H55 H 0.23751 1.01039 0.03496 0.0
H56 H 0.17898 0.9839 0.12924 0.0
N57 N 0.18446 0.03695 0.10135 0.0
N58 N 0.16197 0.05417 0.11599 0.0
C59 C 0.17224 0.04628 0.08032 0.0
C60 C 0.18171 0.03887 0.15267 0.0
C61 C 0.16801 0.04979 0.16188 0.0
C62 C 0.2459 0.06118 0.0989 0.0
O63 O 0.23429 0.05406 0.14061 0.0
H64 H 0.1716 0.04799 0.03943 0.0
H65 H 0.18948 0.03321 0.18138 0.0
O66 O 0.17949 1.01321 0.99701 0.0
H67 H 0.1988 0.95665 0.1234 0.0
H68 H 0.16292 0.05417 0.19917 0.0
Cu69 Cu 0.73466 0.54558 0.35886 0.0
N70 N 0.73874 0.52597 0.39903 0.0
N71 N 0.72823 0.49003 0.41149 0.0
C72 C 0.72036 0.50478 0.4014 0.0
C73 C 0.75266 0.5027 0.41688 0.0
C74 C 0.75909 0.52474 0.40856 0.0
O75 O 0.72786 0.52758 0.29135 0.0
C76 C 0.70935 0.5562 0.43367 0.0
O77 O 0.72686 0.55678 0.46282 0.0
H78 H 0.70174 0.49985 0.39016 0.0
H79 H 0.77723 0.53797 0.40323 0.0
N80 N 0.76247 0.57424 0.3588 0.0
N81 N 0.78781 0.60874 0.33555 0.0
C82 C 0.76624 0.58943 0.32503 0.0
C83 C 0.78208 0.58443 0.39258 0.0
C84 C 0.79772 0.60557 0.3783 0.0
C85 C 0.74596 0.52921 0.2668 0.0
O86 O 0.7644 0.54959 0.26484 0.0
H87 H 0.75347 0.58608 0.29286 0.0
H88 H 0.78469 0.57716 0.42575 0.0
O89 O 0.70843 0.55085 0.38485 0.0
H90 H 0.76508 0.49603 0.42073 0.0
H91 H 0.81488 0.61778 0.39863 0.0
Cu92 Cu 0.52933 0.18771 0.38356 0.0
N93 N 0.55431 0.21064 0.35075 0.0
N94 N 0.58188 0.24591 0.33603 0.0
C95 C 0.56359 0.23316 0.36502 0.0
C96 C 0.58362 0.23069 0.30093 0.0
C97 C 0.56666 0.20902 0.31011 0.0
O98 O 0.53012 0.19983 0.45528 0.0
C99 C 0.49293 0.16911 0.30147 0.0
O100 O 0.50934 0.16545 0.27821 0.0
H101 H 0.55702 0.24 0.39644 0.0
H102 H 0.56368 0.19326 0.28872 0.0
N103 N 0.53105 0.16076 0.38574 0.0
N104 N 0.5221 0.12671 0.4099 0.0
C105 C 0.51798 0.14467 0.41648 0.0
C106 C 0.54397 0.15278 0.35868 0.0
C107 C 0.53849 0.13182 0.37344 0.0
C108 C 0.54795 0.21304 0.48787 0.0
O109 O 0.54304 0.21954 0.53341 0.0
H110 H 0.50531 0.14599 0.44248 0.0
H111 H 0.55652 0.1615 0.33031 0.0
O112 O 0.49801 0.17912 0.34774 0.0
H113 H 0.59672 0.23481 0.27169 0.0
H114 H 0.54621 0.12131 0.35873 0.0
Cu115 Cu 0.86815 0.35938 0.37153 0.0
N116 N 0.89013 0.37583 0.42918 0.0
N117 N 0.92471 0.39686 0.47922 0.0
C118 C 0.91455 0.38852 0.43024 0.0
C119 C 0.90585 0.38895 0.50988 0.0
C120 C 0.88469 0.37596 0.47906 0.0
O121 O 0.8852 0.34898 0.32246 0.0
C122 C 0.85176 0.39179 0.3711 0.0
O123 O 0.85804 0.39511 0.42084 0.0
H124 H 0.92461 0.39141 0.39576 0.0
H125 H 0.86657 0.36688 0.49213 0.0
N126 N 0.84136 0.33416 0.39325 0.0
N127 N 0.80331 0.31017 0.41117 0.0
C128 C 0.81837 0.33053 0.39511 0.0
C129 C 0.84089 0.31558 0.40896 0.0
C130 C 0.81748 0.30074 0.41987 0.0
C131 C 0.87497 0.33069 0.29115 0.0
O132 O 0.85118 0.31857 0.28761 0.0
H133 H 0.81273 0.34238 0.38388 0.0
H134 H 0.85649 0.31297 0.41182 0.0
O135 O 0.85558 0.37767 0.34175 0.0
H136 H 0.90724 0.3917 0.5518 0.0
H137 H 0.81142 0.28436 0.4336 0.0
Cu138 Cu 0.38396 0.87094 0.74301 0.0
N139 N 0.35963 0.84468 0.70396 0.0
N140 N 0.33898 0.80861 0.66658 0.0
C141 C 0.35945 0.82463 0.6941 0.0
C142 C 0.3259 0.81918 0.65838 0.0
C143 C 0.33873 0.84142 0.68126 0.0
O144 O 0.40404 0.86121 0.7798 0.0
C145 C 0.34973 0.87459 0.80984 0.0
O146 O 0.33819 0.85229 0.80101 0.0
H147 H 0.37383 0.8217 0.70801 0.0
H148 H 0.33308 0.85423 0.68197 0.0
N149 N 0.40348 0.89084 0.6967 0.0
N150 N 0.42197 0.91975 0.64876 0.0
C151 C 0.40619 0.91112 0.68608 0.0
C152 C 0.41803 0.88664 0.66541 0.0
C153 C 0.42941 0.90431 0.63599 0.0
C154 C 0.39515 0.84503 0.80808 0.0
O155 O 0.37222 0.83639 0.81831 0.0
H156 H 0.39655 0.91916 0.70472 0.0
H157 H 0.42018 0.87165 0.66416 0.0
O158 O 0.36986 0.8857 0.78942 0.0
H159 H 0.30832 0.81145 0.63734 0.0
H160 H 0.44245 0.90575 0.60783 0.0
Cu161 Cu 0.22523 0.52547 0.67774 0.0
N162 N 0.23944 0.53837 0.61855 0.0
N163 N 0.25897 0.57039 0.581 0.0
C164 C 0.24005 0.55781 0.60858 0.0
C165 C 0.27051 0.55803 0.57231 0.0
C166 C 0.25853 0.53838 0.59585 0.0
O167 O 0.2486 0.54919 0.73008 0.0
C168 C 0.17977 0.50758 0.63136 0.0
O169 O 0.19118 0.50089 0.5979 0.0
H170 H 0.22902 0.56413 0.62803 0.0
H171 H 0.26515 0.52663 0.60168 0.0
N172 N 0.2231 0.49706 0.6838 0.0
N173 N 0.21247 0.46401 0.71525 0.0
C174 C 0.21468 0.48501 0.72439 0.0
C175 C 0.22634 0.48324 0.64768 0.0
C176 C 0.21985 0.46289 0.66696 0.0
C177 C 0.26805 0.54845 0.74054 0.0
O178 O 0.26812 0.52911 0.72918 0.0
H179 H 0.20924 0.49119 0.75901 0.0
H180 H 0.23216 0.48732 0.60933 0.0
O181 O 0.19169 0.52003 0.67297 0.0
H182 H 0.28762 0.5637 0.55451 0.0
H183 H 0.22021 0.44829 0.64664 0.0
Cu184 Cu 0.55564 0.69495 0.76158 0.0
N185 N 0.56054 0.66948 0.75426 0.0
N186 N 0.57437 0.64605 0.72217 0.0
C187 C 0.57172 0.66435 0.71525 0.0
C188 C 0.5645 0.63949 0.76753 0.0
C189 C 0.55603 0.65395 0.7872 0.0
O190 O 0.58802 0.72173 0.77201 0.0
C191 C 0.51637 0.67375 0.68811 0.0
O192 O 0.51961 0.65603 0.68985 0.0
H193 H 0.57844 0.67435 0.68322 0.0
H194 H 0.54769 0.65349 0.82353 0.0
N195 N 0.53768 0.6963 0.81718 0.0
N196 N 0.51345 0.71009 0.84712 0.0
C197 C 0.53504 0.7149 0.82773 0.0
C198 C 0.51722 0.67902 0.83149 0.0
C199 C 0.5024 0.68748 0.85046 0.0
C200 C 0.59902 0.72448 0.81592 0.0
O201 O 0.58744 0.71024 0.84957 0.0
H202 H 0.5475 0.73103 0.81495 0.0
H203 H 0.51185 0.66123 0.82181 0.0
O204 O 0.53366 0.69335 0.70574 0.0
H205 H 0.56353 0.62531 0.78546 0.0
H206 H 0.4838 0.67727 0.85991 0.0
H207 H 0.16856 0.09418 0.16481 0.0
H208 H 0.14981 0.11646 0.13846 0.0
H209 H 0.10607 0.06241 0.01762 0.0
H210 H 0.12592 0.04091 0.0423 0.0
H211 H 0.12424 0.09992 0.97867 0.0
H212 H 0.08749 0.11495 0.16193 0.0
H213 H 0.11944 0.12496 0.16975 0.0
H214 H 0.09882 0.09497 0.15364 0.0
C215 C 0.15459 0.08698 0.13334 0.0
C216 C 0.14858 0.06583 0.10568 0.0
C217 C 0.14374 0.09964 0.11836 0.0
C218 C 0.1261 0.09108 0.0764 0.0
C219 C 0.11958 0.06953 0.05001 0.0
H220 H 0.03925 0.15468 0.99425 0.0
H221 H 0.05145 0.12656 0.01297 0.0
C222 C 0.13083 0.05717 0.06419 0.0
C223 C 0.11571 0.10507 0.05734 0.0
H224 H 0.0891 0.1375 0.09526 0.0
C225 C 0.1163 0.10786 0.00427 0.0
C226 C 0.10528 0.11559 0.09035 0.0
C227 C 0.10248 0.11228 0.14695 0.0
C228 C 0.10716 0.12096 0.98364 0.0
C229 C 0.09746 0.13196 0.01689 0.0
C230 C 0.09663 0.12911 0.06979 0.0
C231 C 0.08914 0.14739 0.99812 0.0
C232 C 0.10793 0.12293 0.9263 0.0
C233 C 0.106 0.16804 0.98139 0.0
C234 C 0.09911 0.18415 0.97085 0.0
C235 C 0.0752 0.18007 0.97721 0.0
C236 C 0.05784 0.15851 0.98949 0.0
C237 C 0.06484 0.14247 1.00063 0.0
H238 H 0.11041 0.10931 0.90432 0.0
H239 H 0.09101 0.12211 0.91065 0.0
H240 H 0.1234 0.13959 0.91966 0.0
H241 H 0.12485 0.17226 0.97922 0.0
H242 H 0.11302 0.20043 0.96112 0.0
H243 H 0.93246 0.95297 0.09038 0.0
H244 H 0.95167 0.99391 0.11134 0.0
H245 H 0.98305 1.00291 0.96317 0.0
H246 H 0.96413 0.96152 0.94199 0.0
H247 H 1.01578 0.03161 0.0396 0.0
H248 H 0.93108 0.03646 0.05978 0.0
H249 H 0.93303 1.01765 0.10132 0.0
H250 H 0.93116 1.01095 0.03201 0.0
C251 C 0.94315 0.96345 0.06168 0.0
C252 C 0.94648 0.95368 0.01409 0.0
C253 C 0.95414 0.98703 0.07385 0.0
C254 C 0.96839 1.00161 0.03847 0.0
C255 C 0.97199 0.99204 0.99106 0.0
H256 H 1.00874 0.14499 0.07011 0.0
H257 H 0.99203 0.10424 0.04252 0.0
C258 C 0.96117 0.96833 0.97899 0.0
C259 C 0.97994 0.02677 0.05179 0.0
H260 H 0.96771 0.06958 0.09354 0.0
C261 C 1.00525 0.03994 0.05102 0.0
C262 C 0.96624 0.03777 0.06612 0.0
C263 C 0.93886 0.02501 0.06436 0.0
C264 C 1.01723 0.06366 0.06499 0.0
C265 C 1.00366 0.07455 0.0816 0.0
C266 C 0.97828 0.06135 0.08155 0.0
C267 C 1.01503 0.09964 0.09726 0.0
C268 C 0.04423 0.0768 0.06059 0.0
C269 C 1.03359 0.11086 0.13732 0.0
C270 C 0.04328 0.1343 0.15274 0.0
C271 C 1.03434 0.14677 0.12878 0.0
C272 C 1.0158 0.13559 0.08906 0.0
C273 C 1.00628 0.11234 0.07341 0.0
H274 H 0.05077 0.06723 0.03416 0.0
H275 H 0.04938 0.09329 0.04607 0.0
H276 H 0.05354 0.08009 0.09941 0.0
H277 H 0.04029 0.10145 0.15733 0.0
H278 H 0.05756 0.14266 0.18349 0.0
H279 H 0.95441 0.93851 0.14126 0.0
H280 H 0.99323 0.95439 0.10121 0.0
H281 H 0.98146 0.88646 0.05554 0.0
H282 H 0.94165 0.8707 0.09225 0.0
H283 H 1.03139 0.95416 0.12608 0.0
H284 H 1.00611 0.91074 0.92573 0.0
H285 H 0.98351 0.90763 0.97072 0.0
H286 H 0.99834 0.8906 0.97171 0.0
C287 C 0.95984 0.927 0.12127 0.0
C288 C 0.94462 0.90339 0.11818 0.0
C289 C 0.98217 0.93607 0.09868 0.0
C290 C 0.99044 0.92177 0.07414 0.0
C291 C 0.97537 0.89803 0.07215 0.0
H292 H 0.13241 0.94655 0.98258 0.0
H293 H 0.08951 0.93027 0.99929 0.0
C294 C 0.95257 0.88895 0.09335 0.0
C295 C 1.01551 0.93193 0.05477 0.0
H296 H 0.04862 0.93011 0.95232 0.0
C297 C 0.03495 0.94903 0.08771 0.0
C298 C 1.02061 0.92523 0.00491 0.0
C299 C 1.00098 0.9077 0.96613 0.0
C300 C 0.05899 0.95933 0.07277 0.0
C301 C 0.06401 0.95256 0.02317 0.0
C302 C 0.04476 0.93543 0.9902 0.0
C303 C 0.08932 0.96233 0.00619 0.0
C304 C 0.07897 0.97695 0.11095 0.0
C305 C 0.10337 0.98571 0.00201 0.0
C306 C 0.12802 0.99514 0.99218 0.0
C307 C 0.13921 0.9814 0.98649 0.0
C308 C 0.1246 0.95776 0.98713 0.0
C309 C 0.09997 0.94836 0.99678 0.0
H310 H 0.07293 0.97661 0.15101 0.0
H311 H 0.09504 0.97428 0.11106 0.0
H312 H 0.0847 0.99412 0.09954 0.0
H313 H 0.09543 0.99679 0.00787 0.0
H314 H 0.1385 1.01331 0.99114 0.0
H315 H 0.85221 0.43021 0.41526 0.0
H316 H 0.82869 0.4477 0.38762 0.0
H317 H 0.79694 0.39612 0.25611 0.0
H318 H 0.82139 0.37898 0.28269 0.0
H319 H 0.80702 0.4355 0.22736 0.0
H320 H 0.7593 0.42818 0.40711 0.0
H321 H 0.79145 0.44278 0.4214 0.0
H322 H 0.77644 0.41348 0.3928 0.0
C323 C 0.84028 0.42258 0.38034 0.0
C324 C 0.83862 0.40312 0.35133 0.0
C325 C 0.82655 0.43246 0.36489 0.0
C326 C 0.81028 0.42284 0.32072 0.0
C327 C 0.80908 0.40375 0.29073 0.0
H328 H 0.71622 0.48483 0.28572 0.0
H329 H 0.72783 0.45518 0.29088 0.0
C330 C 0.82316 0.39401 0.3058 0.0
C331 C 0.79538 0.43337 0.30523 0.0
H332 H 0.7604 0.45589 0.35414 0.0
C333 C 0.79654 0.43963 0.25493 0.0
C334 C 0.78095 0.43823 0.34034 0.0
C335 C 0.77671 0.43005 0.39317 0.0
C336 C 0.78508 0.45185 0.24001 0.0
C337 C 0.77274 0.4587 0.27685 0.0
C338 C 0.7702 0.45111 0.326 0.0
C339 C 0.76425 0.47528 0.26701 0.0
C340 C 0.78645 0.4573 0.18482 0.0
C341 C 0.78056 0.49634 0.251 0.0
C342 C 0.77387 0.51312 0.24737 0.0
C343 C 0.75082 0.50959 0.26086 0.0
C344 C 0.7341 0.48818 0.27505 0.0
C345 C 0.74078 0.47123 0.27825 0.0
H346 H 0.78727 0.44386 0.15796 0.0
H347 H 0.77063 0.45906 0.17199 0.0
H348 H 0.80331 0.4735 0.18172 0.0
H349 H 0.79897 0.50029 0.24352 0.0
H350 H 0.78734 0.52935 0.23647 0.0
H351 H 0.59012 0.27462 0.42421 0.0
H352 H 0.61639 0.31562 0.43744 0.0
H353 H 0.63507 0.31464 0.2785 0.0
H354 H 0.60917 0.27328 0.26523 0.0
H355 H 0.67475 0.34288 0.34264 0.0
H356 H 0.60026 0.3617 0.3889 0.0
H357 H 0.60257 0.34325 0.43104 0.0
H358 H 0.59466 0.33374 0.36289 0.0
C359 C 0.59964 0.28298 0.39183 0.0
C360 C 0.59724 0.27042 0.34346 0.0
C361 C 0.61468 0.30658 0.39949 0.0
C362 C 0.62738 0.31842 0.35872 0.0
C363 C 0.6254 0.30597 0.31058 0.0
H364 H 0.68581 0.46337 0.35306 0.0
H365 H 0.66293 0.4221 0.34014 0.0
C366 C 0.61054 0.28225 0.30303 0.0
C367 C 0.64253 0.34374 0.36635 0.0
H368 H 0.6404 0.39254 0.40533 0.0
C369 C 0.66722 0.35375 0.35612 0.0
C370 C 0.63271 0.35804 0.38331 0.0
C371 C 0.60606 0.34867 0.39166 0.0
C372 C 0.68234 0.37755 0.36296 0.0
C373 C 0.67268 0.39177 0.38177 0.0
C374 C 0.64795 0.38172 0.39149 0.0
C375 C 0.68742 0.41714 0.38959 0.0
C376 C 0.70835 0.38716 0.34883 0.0
C377 C 0.70888 0.42838 0.42215 0.0
C378 C 0.7222 0.45225 0.42963 0.0
C379 C 0.71415 0.46541 0.40538 0.0
C380 C 0.69248 0.45402 0.37333 0.0
C381 C 0.67937 0.43027 0.36551 0.0
H382 H 0.71077 0.37501 0.32074 0.0
H383 H 0.71467 0.40338 0.33185 0.0
H384 H 0.72009 0.39049 0.38432 0.0
H385 H 0.71524 0.41874 0.44226 0.0
H386 H 0.73867 0.4604 0.45479 0.0
H387 H 0.58445 0.25581 0.51639 0.0
H388 H 0.62742 0.272 0.49986 0.0
H389 H 0.61344 0.20757 0.41905 0.0
H390 H 0.57039 0.19141 0.43576 0.0
H391 H 0.66001 0.25952 0.53119 0.0
H392 H 0.65249 0.25076 0.3159 0.0
H393 H 0.62896 0.25037 0.35527 0.0
H394 H 0.63256 0.22551 0.34422 0.0
C395 C 0.59049 0.24513 0.49469 0.0
C396 C 0.57381 0.22248 0.47581 0.0
C397 C 0.61509 0.25442 0.48525 0.0
C398 C 0.62371 0.24122 0.45716 0.0
C399 C 0.60718 0.21839 0.43922 0.0
H400 H 0.76984 0.26535 0.40093 0.0
H401 H 0.72627 0.24872 0.41252 0.0
C402 C 0.58249 0.20912 0.44858 0.0
C403 C 0.65016 0.25114 0.44916 0.0
H404 H 0.6912 0.26257 0.35605 0.0
C405 C 0.66678 0.26022 0.49285 0.0
C406 C 0.65913 0.25222 0.39916 0.0
C407 C 0.64245 0.24437 0.35077 0.0
C408 C 0.69195 0.27004 0.48787 0.0
C409 C 0.70079 0.27083 0.43798 0.0
C410 C 0.6843 0.26177 0.39428 0.0
C411 C 0.72718 0.28105 0.43056 0.0
C412 C 0.70903 0.27938 0.5359 0.0
C413 C 0.74208 0.30475 0.43645 0.0
C414 C 0.767 0.31434 0.42966 0.0
C415 C 0.77753 0.30037 0.41723 0.0
C416 C 0.76243 0.2766 0.41116 0.0
C417 C 0.7375 0.26705 0.41747 0.0
H418 H 0.69923 0.27525 0.57193 0.0
H419 H 0.72187 0.27247 0.53452 0.0
H420 H 0.71991 0.29815 0.53749 0.0
H421 H 0.73441 0.31584 0.44638 0.0
H422 H 0.77809 0.33266 0.43501 0.0
H423 H 0.38104 0.80961 0.86625 0.0
H424 H 0.40178 0.78783 0.88112 0.0
H425 H 0.46088 0.83146 0.7942 0.0
H426 H 0.44043 0.85358 0.77977 0.0
H427 H 0.41361 0.76354 0.80809 0.0
H428 H 0.49709 0.82942 0.92168 0.0
H429 H 0.47086 0.83305 0.91124 0.0
H430 H 0.49191 0.83789 0.86155 0.0
C431 C 0.39865 0.81486 0.85098 0.0
C432 C 0.40909 0.83348 0.82198 0.0
C433 C 0.41046 0.80229 0.8594 0.0
C434 C 0.43305 0.80808 0.83931 0.0
C435 C 0.44373 0.82691 0.81111 0.0
H436 H 0.52689 0.74897 0.80171 0.0
H437 H 0.5068 0.7719 0.80383 0.0
C438 C 0.43195 0.83953 0.80274 0.0
C439 C 0.44469 0.79364 0.84527 0.0
H440 H 0.49713 0.79527 0.88794 0.0
C441 C 0.43177 0.77043 0.82605 0.0
C442 C 0.46841 0.80259 0.86869 0.0
C443 C 0.48281 0.82705 0.89243 0.0
C444 C 0.44218 0.75615 0.8281 0.0
C445 C 0.46605 0.7652 0.85073 0.0
C446 C 0.47883 0.78832 0.87061 0.0
C447 C 0.47853 0.75127 0.85177 0.0
C448 C 0.42786 0.73166 0.80437 0.0
C449 C 0.46962 0.73211 0.87886 0.0
C450 C 0.48129 0.71887 0.87824 0.0
C451 C 0.5022 0.72452 0.85059 0.0
C452 C 0.5112 0.74403 0.82427 0.0
C453 C 0.49959 0.75722 0.82508 0.0
H454 H 0.41209 0.72866 0.77879 0.0
H455 H 0.43953 0.72649 0.78146 0.0
H456 H 0.42089 0.72055 0.83572 0.0
H457 H 0.45363 0.72738 0.90054 0.0
H458 H 0.4739 0.70421 0.89944 0.0
H459 H 0.29333 0.77285 0.64714 0.0
H460 H 0.28185 0.73279 0.62508 0.0
H461 H 0.35737 0.75036 0.62978 0.0
H462 H 0.36903 0.79046 0.65171 0.0
H463 H 0.29289 0.71079 0.54198 0.0
H464 H 0.32973 0.70172 0.72814 0.0
H465 H 0.32578 0.72593 0.71925 0.0
H466 H 0.35134 0.72409 0.69423 0.0
C467 C 0.30754 0.76829 0.64308 0.0
C468 C 0.33214 0.78499 0.65164 0.0
C469 C 0.30093 0.74531 0.63065 0.0
C470 C 0.31871 0.73848 0.62664 0.0
C471 C 0.34329 0.75513 0.6339 0.0
H472 H 0.30614 0.60303 0.57948 0.0
H473 H 0.32169 0.64413 0.58461 0.0
C474 C 0.34993 0.7781 0.64645 0.0
C475 C 0.31147 0.71395 0.6149 0.0
H476 H 0.3143 0.67003 0.66373 0.0
C477 C 0.29758 0.70188 0.56859 0.0
C478 C 0.31768 0.70232 0.64951 0.0
C479 C 0.33177 0.71408 0.70079 0.0
C480 C 0.28977 0.67857 0.55592 0.0
C481 C 0.29564 0.66687 0.59092 0.0
C482 C 0.30987 0.67901 0.63682 0.0
C483 C 0.28623 0.64184 0.58216 0.0
C484 C 0.27551 0.66674 0.50489 0.0
C485 C 0.26113 0.62681 0.57839 0.0
C486 C 0.25223 0.60331 0.57527 0.0
C487 C 0.26819 0.59427 0.57627 0.0
C488 C 0.29333 0.60933 0.57819 0.0
C489 C 0.30225 0.63287 0.58147 0.0
H490 H 0.27893 0.67899 0.47636 0.0
H491 H 0.28008 0.65361 0.48806 0.0
H492 H 0.25584 0.65824 0.51124 0.0
H493 H 0.24839 0.63328 0.57976 0.0
H494 H 0.23279 0.59221 0.57353 0.0
H495 H 0.28105 0.59111 0.71337 0.0
H496 H 0.32259 0.62215 0.70848 0.0
H497 H 0.35086 0.5836 0.77861 0.0
H498 H 0.30964 0.55298 0.78461 0.0
H499 H 0.37811 0.62866 0.81147 0.0
H500 H 0.36317 0.61519 0.59656 0.0
H501 H 0.34467 0.62475 0.63117 0.0
H502 H 0.3408 0.59693 0.63733 0.0
C503 C 0.2961 0.58963 0.72945 0.0
C504 C 0.292 0.56953 0.74946 0.0
C505 C 0.3199 0.60726 0.72589 0.0
C506 C 0.34002 0.60507 0.74206 0.0
C507 C 0.33578 0.58575 0.76558 0.0
H508 H 0.4769 0.6362 0.64067 0.0
H509 H 0.43435 0.62447 0.65289 0.0
C510 C 0.31212 0.56821 0.76909 0.0
C511 C 0.36544 0.62156 0.73105 0.0
H512 H 0.40279 0.63989 0.63154 0.0
C513 C 0.38347 0.63144 0.77218 0.0
C514 C 0.37257 0.62515 0.67973 0.0
C515 C 0.35437 0.61482 0.63352 0.0
C516 C 0.40833 0.6438 0.76333 0.0
C517 C 0.41545 0.64663 0.71183 0.0
C518 C 0.39737 0.63776 0.67097 0.0
C519 C 0.44134 0.65573 0.69902 0.0
C520 C 0.4268 0.6525 0.809 0.0
C521 C 0.4596 0.67772 0.71871 0.0
C522 C 0.48416 0.68457 0.71145 0.0
C523 C 0.49088 0.66952 0.68442 0.0
C524 C 0.47242 0.64821 0.66172 0.0
C525 C 0.44801 0.64144 0.66883 0.0
H526 H 0.41849 0.64549 0.84502 0.0
H527 H 0.44138 0.64807 0.80102 0.0
H528 H 0.43531 0.67131 0.81606 0.0
H529 H 0.45496 0.6893 0.7412 0.0
H530 H 0.49788 0.70107 0.72969 0.0
H531 H 0.14264 0.32458 0.06455 0.0
H532 H 0.16002 0.3565 0.01258 0.0
H533 H 0.11804 0.31143 0.87696 0.0
H534 H 0.10031 0.27967 0.92889 0.0
H535 H 0.18733 0.36441 0.93153 0.0
H536 H 0.10123 0.36117 0.86995 0.0
H537 H 0.10304 0.34519 0.91986 0.0
H538 H 0.10073 0.33461 0.85247 0.0
C539 C 0.13711 0.32149 0.02367 0.0
C540 C 0.11988 0.29957 0.00106 0.0
C541 C 0.14702 0.33977 0.99396 0.0
C542 C 0.13999 0.33658 0.94092 0.0
C543 C 0.1232 0.3146 0.91806 0.0
H544 H 0.18805 0.41845 0.68574 0.0
H545 H 0.17114 0.38812 0.74207 0.0
C546 C 0.11311 0.29638 0.94782 0.0
C547 C 0.15066 0.35607 0.90926 0.0
H548 H 0.13596 0.38416 0.82494 0.0
C549 C 0.17607 0.36882 0.90864 0.0
C550 C 0.13605 0.36202 0.87939 0.0
C551 C 0.10877 0.35018 0.8808 0.0
C552 C 0.18714 0.38684 0.8781 0.0
C553 C 0.17249 0.39234 0.84737 0.0
C554 C 0.14715 0.37981 0.84827 0.0
C555 C 0.18315 0.4109 0.81355 0.0
C556 C 0.21444 0.39964 0.87793 0.0
C557 C 0.1954 0.43381 0.83501 0.0
C558 C 0.20502 0.45123 0.80285 0.0
C559 C 0.20273 0.44607 0.74855 0.0
C560 C 0.19047 0.42306 0.7273 0.0
C561 C 0.18065 0.40568 0.75945 0.0
H562 H 0.22307 0.39125 0.89789 0.0
H563 H 0.22008 0.40116 0.83753 0.0
H564 H 0.22134 0.4171 0.89798 0.0
H565 H 0.19738 0.43823 0.87666 0.0
H566 H 0.21446 0.46872 0.82051 0.0
H567 H 0.83379 0.84554 0.88099 0.0
H568 H 0.79113 0.82778 0.85011 0.0
H569 H 0.77018 0.82021 0.00742 0.0
H570 H 0.81298 0.83855 0.03879 0.0
H571 H 0.75568 0.78578 0.85686 0.0
H572 H 0.72955 0.8463 0.95653 0.0
H573 H 0.76081 0.85281 0.9531 0.0
H574 H 0.74246 0.83555 1.00067 0.0
C575 C 0.82016 0.84035 0.9092 0.0
C576 C 0.8269 0.84358 0.96249 0.0
C577 C 0.7957 0.83015 0.89139 0.0
C578 C 0.7773 0.82288 0.92632 0.0
C579 C 0.78396 0.82616 0.97964 0.0
H580 H 0.62289 0.73862 0.91129 0.0
H581 H 0.666 0.76399 0.93364 0.0
C582 C 0.80849 0.83655 0.99757 0.0
C583 C 0.75121 0.81079 0.90657 0.0
H584 H 0.697 0.81036 0.9194 0.0
C585 C 0.74294 0.79135 0.87009 0.0
C586 C 0.73448 0.81801 0.92356 0.0
C587 C 0.7423 0.83944 0.96021 0.0
C588 C 0.71838 0.77854 0.85171 0.0
C589 C 0.70157 0.78544 0.86975 0.0
C590 C 0.70988 0.80509 0.90546 0.0
C591 C 0.67502 0.77144 0.85531 0.0
C592 C 0.71043 0.75719 0.81463 0.0
C593 C 0.66547 0.76757 0.8038 0.0
C594 C 0.64056 0.75301 0.79074 0.0
C595 C 0.62484 0.74201 0.82899 0.0
C596 C 0.63443 0.74664 0.88069 0.0
C597 C 0.65914 0.76122 0.89367 0.0
H598 H 0.72469 0.75202 0.81178 0.0
H599 H 0.69368 0.74292 0.82692 0.0
H600 H 0.70631 0.7602 0.77545 0.0
H601 H 0.67732 0.77554 0.77361 0.0
H602 H 0.63379 0.74982 0.75061 0.0
H603 H 0.36659 0.92069 0.83233 0.0
H604 H 0.3473 0.93958 0.88284 0.0
H605 H 0.28837 0.87423 0.90875 0.0
H606 H 0.30755 0.85532 0.8592 0.0
H607 H 0.30214 0.93601 0.86406 0.0
H608 H 0.30644 0.90749 0.05474 0.0
H609 H 0.32391 0.90519 0.00219 0.0
H610 H 0.29237 0.8845 0.00335 0.0
C611 C 0.34964 0.91034 0.84921 0.0
C612 C 0.33874 0.88645 0.8418 0.0
C613 C 0.3386 0.92117 0.87803 0.0
C614 C 0.31654 0.90838 0.90047 0.0
C615 C 0.30565 0.88455 0.89302 0.0
H616 H 0.21152 0.93592 0.06289 0.0
H617 H 0.23464 0.91881 0.02183 0.0
C618 C 0.31662 0.87373 0.86425 0.0
C619 C 0.30429 0.91978 0.92963 0.0
H620 H 0.28087 0.9241 0.04586 0.0
C621 C 0.29771 0.93357 0.90396 0.0
C622 C 0.29833 0.91654 0.9817 0.0
C623 C 0.30582 0.9028 0.01233 0.0
C624 C 0.28485 0.94369 0.92832 0.0
C625 C 0.27874 0.94032 0.98026 0.0
C626 C 0.28546 0.92666 0.00607 0.0
C627 C 0.26535 0.95082 0.00823 0.0
C628 C 0.27729 0.95736 0.89759 0.0
C629 C 0.27517 0.97455 0.01589 0.0
C630 C 0.26203 0.98438 0.03949 0.0
C631 C 0.23875 0.97074 0.05639 0.0
C632 C 0.22938 0.94699 0.05068 0.0
C633 C 0.24255 0.93715 0.02692 0.0
H634 H 0.27765 0.95339 0.85519 0.0
H635 H 0.25874 0.95414 0.90615 0.0
H636 H 0.29005 0.97574 0.90829 0.0
H637 H 0.29297 0.98553 0.00318 0.0
H638 H 0.27009 1.00272 0.04422 0.0
H639 H 0.45306 0.17092 0.33896 0.0
H640 H 0.41262 0.15523 0.2948 0.0
H641 H 0.43732 0.13289 0.15849 0.0
H642 H 0.47752 0.14817 0.20232 0.0
H643 H 0.39736 0.16442 0.20212 0.0
H644 H 0.37752 0.07447 0.18692 0.0
H645 H 0.40235 0.09691 0.2283 0.0
H646 H 0.40517 0.09331 0.15969 0.0
C647 C 0.44991 0.16269 0.29957 0.0
C648 C 0.46858 0.16068 0.27445 0.0
C649 C 0.42676 0.15375 0.27431 0.0
C650 C 0.42174 0.14249 0.22355 0.0
C651 C 0.44052 0.14101 0.19799 0.0
H652 H 0.28232 0.06473 0.03594 0.0
H653 H 0.32634 0.08671 0.05908 0.0
C654 C 0.4636 0.14991 0.22314 0.0
C655 C 0.39686 0.13221 0.19748 0.0
H656 H 0.34869 0.08159 0.1458 0.0
C657 C 0.38675 0.14631 0.18973 0.0
C658 C 0.38301 0.10858 0.18084 0.0
C659 C 0.39241 0.09236 0.18967 0.0
C660 C 0.36321 0.13746 0.16615 0.0
C661 C 0.34915 0.11377 0.15061 0.0
C662 C 0.35948 0.09975 0.15726 0.0
C663 C 0.32295 0.10286 0.13243 0.0
C664 C 0.35366 0.15362 0.158 0.0
C665 C 0.30642 0.10484 0.16535 0.0
C666 C 0.28148 0.09239 0.15222 0.0
C667 C 0.27231 0.07757 0.1058 0.0
C668 C 0.28883 0.07629 0.07152 0.0
C669 C 0.31396 0.08869 0.08497 0.0
H670 H 0.36869 0.17107 0.15524 0.0
H671 H 0.34136 0.1478 0.12231 0.0
H672 H 0.34332 0.15456 0.19158 0.0
H673 H 0.31271 0.11519 0.20259 0.0
H674 H 0.26924 0.09365 0.17967 0.0
H675 H 0.03824 0.28208 0.16008 0.0
H676 H 1.00892 0.29482 0.18111 0.0
H677 H 0.95364 0.23696 0.08341 0.0
H678 H 0.98318 0.22382 0.06212 0.0
H679 H 0.98121 0.30595 0.11554 0.0
H680 H 0.9227 0.2338 0.22434 0.0
H681 H 0.95288 0.23979 0.20844 0.0
H682 H 0.92833 0.22664 0.15928 0.0
C683 C 1.01987 0.27195 0.14284 0.0
C684 C 1.01309 0.25178 0.10957 0.0
C685 C 1.00311 0.27936 0.1549 0.0
C686 C 0.97898 0.26678 0.13444 0.0
C687 C 0.97209 0.24681 0.10034 0.0
H688 H 0.85892 0.29219 0.22185 0.0
H689 H 0.88303 0.27675 0.17868 0.0
C690 C 0.98902 0.23938 0.08793 0.0
C691 C 0.96139 0.27483 0.14975 0.0
H692 H 0.9123 0.26275 0.22144 0.0
C693 C 0.96601 0.2964 0.13832 0.0
C694 C 0.94152 0.26241 0.17943 0.0
C695 C 0.93602 0.23943 0.19406 0.0
C696 C 0.95158 0.306 0.15627 0.0
C697 C 0.93225 0.29396 0.18763 0.0
C698 C 0.92715 0.27207 0.19766 0.0
C699 C 0.91769 0.30405 0.21194 0.0
C700 C 0.95714 0.32893 0.14118 0.0
C701 C 0.92902 0.32459 0.24526 0.0
C702 C 0.91527 0.33354 0.26989 0.0
C703 C 0.88978 0.32207 0.26221 0.0
C704 C 0.87849 0.30157 0.22861 0.0
C705 C 0.89227 0.29265 0.20392 0.0
H706 H 0.96683 0.33241 0.10489 0.0
H707 H 0.94032 0.33014 0.13564 0.0
H708 H 0.9691 0.34238 0.17237 0.0
H709 H 0.94853 0.33348 0.25321 0.0
H710 H 0.92461 0.34923 0.29583 0.0
H711 H 0.83529 0.64158 0.33816 0.0
H712 H 0.85259 0.67488 0.29118 0.0
H713 H 0.78187 0.65428 0.21981 0.0
H714 H 0.7642 0.62104 0.26727 0.0
H715 H 0.81956 0.66791 0.14935 0.0
H716 H 0.84435 0.73185 0.32241 0.0
H717 H 0.8555 0.71202 0.32613 0.0
H718 H 0.82338 0.70202 0.32384 0.0
C719 C 0.82323 0.64414 0.31307 0.0
C720 C 0.79817 0.62846 0.30715 0.0
C721 C 0.83324 0.66326 0.28603 0.0
C722 C 0.81852 0.66728 0.25236 0.0
C723 C 0.79361 0.65157 0.24561 0.0
H724 H 0.85125 0.79246 0.12709 0.0
H725 H 0.83485 0.75837 0.17103 0.0
C726 C 0.78354 0.63246 0.27279 0.0
C727 C 0.8291 0.68783 0.22416 0.0
H728 H 0.85823 0.746 0.24261 0.0
C729 C 0.82802 0.68499 0.16971 0.0
C730 C 0.83994 0.71014 0.25067 0.0
C731 C 0.84074 0.71431 0.30896 0.0
C732 C 0.83771 0.7038 0.14117 0.0
C733 C 0.84898 0.72612 0.16774 0.0
C734 C 0.84982 0.72893 0.22218 0.0
C735 C 0.85918 0.7468 0.13993 0.0
C736 C 0.8353 0.69963 0.08276 0.0
C737 C 0.87854 0.75189 0.10784 0.0
C738 C 0.8882 0.77163 0.08272 0.0
C739 C 0.8788 0.78682 0.08931 0.0
C740 C 0.85937 0.78156 0.12152 0.0
C741 C 0.84979 0.7619 0.1466 0.0
H742 H 0.82142 0.68189 0.06842 0.0
H743 H 0.83036 0.71149 0.06609 0.0
H744 H 0.85297 0.70258 0.06828 0.0
H745 H 0.88643 0.74075 0.10279 0.0
H746 H 0.9033 0.77515 0.05886 0.0
H747 H 0.14647 0.51105 0.69559 0.0
H748 H 0.10231 0.49411 0.67599 0.0
H749 H 0.10972 0.46879 0.52223 0.0
H750 H 0.15318 0.48535 0.54109 0.0
H751 H 0.07474 0.49955 0.58993 0.0
H752 H 0.05946 0.41139 0.58487 0.0
H753 H 0.08665 0.43578 0.61515 0.0
H754 H 0.08328 0.42873 0.54591 0.0
C755 C 0.13866 0.50202 0.65755 0.0
C756 C 0.15341 0.49939 0.62019 0.0
C757 C 0.11345 0.49233 0.6464 0.0
C758 C 0.10265 0.4798 0.59791 0.0
C759 C 0.11752 0.47796 0.56021 0.0
H760 H 0.96328 0.39915 0.42842 0.0
H761 H 1.00616 0.42057 0.45918 0.0
C762 C 0.14248 0.48755 0.57117 0.0
C763 C 0.07588 0.46813 0.58597 0.0
H764 H 1.02731 0.41566 0.54805 0.0
C765 C 0.06425 0.48119 0.58148 0.0
C766 C 0.06222 0.44417 0.57468 0.0
C767 C 0.07345 0.42914 0.58081 0.0
C768 C 0.03956 0.47099 0.56398 0.0
C769 C 1.02607 0.44705 0.55141 0.0
C770 C 0.03763 0.434 0.55721 0.0
C771 C 1.00003 0.4351 0.53173 0.0
C772 C 1.02839 0.48601 0.55721 0.0
C773 C 0.98221 0.43607 0.56213 0.0
C774 C 0.95765 0.42389 0.5445 0.0
C775 C 0.95024 0.41032 0.4961 0.0
C776 C 0.96821 0.40957 0.46551 0.0
C777 C 0.99278 0.42173 0.48325 0.0
H778 H 0.04243 0.504 0.55585 0.0
H779 H 1.01631 0.47998 0.52114 0.0
H780 H 1.01732 0.48547 0.59047 0.0
H781 H 0.98722 0.4459 0.60002 0.0
H782 H 0.94445 0.42511 0.56899 0.0
H783 H 0.67862 0.5688 0.38727 0.0
H784 H 0.6542 0.58409 0.43097 0.0
H785 H 0.67696 0.57423 0.57894 0.0
H786 H 0.70159 0.55957 0.5361 0.0
H787 H 0.61646 0.56724 0.49626 0.0
H788 H 0.69664 0.64099 0.60168 0.0
H789 H 0.69929 0.62299 0.54898 0.0
H790 H 0.69483 0.61452 0.61331 0.0
C791 C 0.67827 0.56977 0.42908 0.0
C792 C 0.69234 0.56321 0.45816 0.0
C793 C 0.66433 0.57856 0.45405 0.0
C794 C 0.66422 0.58093 0.50848 0.0
C795 C 0.6773 0.57329 0.53712 0.0
H796 H 0.59753 0.62347 0.75153 0.0
H797 H 0.6182 0.60756 0.69645 0.0
C798 C 0.6913 0.56474 0.51241 0.0
C799 C 0.6508 0.59156 0.53594 0.0
H800 H 0.65802 0.63316 0.63221 0.0
C801 C 0.62559 0.58181 0.52553 0.0
C802 C 0.66267 0.61071 0.57404 0.0
C803 C 0.68988 0.62306 0.58481 0.0
C804 C 0.61189 0.5901 0.55362 0.0
C805 C 0.62369 0.6087 0.59294 0.0
C806 C 0.64893 0.61876 0.60245 0.0
C807 C 0.6102 0.61771 0.62559 0.0
C808 C 0.58476 0.57847 0.54228 0.0
C809 C 0.5989 0.62887 0.60424 0.0
C810 C 0.5871 0.63809 0.63578 0.0
C811 C 0.58625 0.63627 0.68937 0.0
C812 C 0.5975 0.62496 0.71045 0.0
C813 C 0.60946 0.61593 0.67901 0.0
H814 H 0.57788 0.56201 0.51726 0.0
H815 H 0.57534 0.57538 0.57889 0.0
H816 H 0.58001 0.58968 0.52207 0.0
H817 H 0.59948 0.63072 0.56327 0.0
H818 H 0.57851 0.64652 0.61811 0.0
H819 H 0.43834 0.92904 0.55319 0.0
H820 H 0.45373 0.96506 0.51722 0.0
H821 H 0.43775 0.9946 0.6559 0.0
H822 H 0.42291 0.95855 0.6931 0.0
H823 H 0.43129 0.98977 0.49554 0.0
H824 H 0.50878 0.04041 0.64165 0.0
H825 H 0.49191 1.00975 0.63553 0.0
H826 H 0.47953 0.0263 0.66772 0.0
C827 C 0.43829 0.94319 0.57649 0.0
C828 C 0.42965 0.94086 0.62653 0.0
C829 C 0.44697 0.96381 0.55558 0.0
C830 C 0.44735 0.98275 0.58406 0.0
C831 C 0.43814 0.9804 0.6335 0.0
H832 H 0.50287 0.12186 0.50419 0.0
H833 H 0.48361 0.08718 0.54683 0.0
C834 C 0.42939 0.95967 0.65454 0.0
C835 C 0.45732 1.00475 0.56135 0.0
H836 H 0.50292 0.06008 0.57751 0.0
C837 C 0.44692 1.00514 0.51358 0.0
C838 C 0.47773 0.02489 0.58479 0.0
C839 C 0.49033 0.0254 0.63503 0.0
C840 C 0.45632 0.02499 0.48867 0.0
C841 C 0.477 0.04499 0.51158 0.0
C842 C 0.48711 0.04476 0.55986 0.0
C843 C 0.4887 0.06611 0.48545 0.0
C844 C 0.44384 0.0244 0.43817 0.0
C845 C 0.49833 0.06599 0.43698 0.0
C846 C 0.50931 0.0858 0.41237 0.0
C847 C 0.51101 0.10629 0.43568 0.0
C848 C 0.50159 0.10639 0.48459 0.0
C849 C 0.49068 0.08657 0.50926 0.0
H850 H 0.42482 1.01025 0.43328 0.0
H851 H 0.44374 0.04067 0.43569 0.0
H852 H 0.45376 1.02176 0.40551 0.0
H853 H 0.49745 0.05056 0.41818 0.0
H854 H 0.51617 0.08494 0.37473 0.0
loop_
_geom_bond_atom_site_label_1
_geom_bond_atom_site_label_2
_geom_bond_distance
_geom_bond_site_symmetry_2
_ccdc_geom_bond_type
Cu0 N1 1.999 1_455 S
Cu0 O6 1.974 . S
Cu0 N11 1.985 . S
Cu0 O20 1.959 1_455 S
N1 Cu0 1.999 1_655 S
N1 C3 1.263 . S
N1 C5 1.389 . S
N2 C3 1.358 . S
N2 C4 1.400 . S
C3 N1 1.263 . S
C3 N2 1.358 . S
C3 H9 0.930 . S
C4 N2 1.400 . S
C4 C5 1.351 . S
C4 H21 0.930 . S
C5 N1 1.389 . S
C5 C4 1.351 . S
C5 H10 0.930 . S
O6 Cu0 1.974 . S
O6 C16 1.282 . S
C7 O8 1.261 . S
C7 O20 1.251 . S
O8 C7 1.261 . S
H9 C3 0.930 . S
H10 C5 0.930 . S
N11 Cu0 1.985 . S
N11 C13 1.335 . S
N11 C14 1.390 . S
N12 C13 1.345 . S
N12 C15 1.336 . S
C13 N11 1.335 . S
C13 N12 1.345 . S
C13 H18 0.930 . S
C14 N11 1.390 . S
C14 C15 1.346 . S
C14 H19 0.930 . S
C15 N12 1.336 . S
C15 C14 1.346 . S
C15 H22 0.929 . S
C16 O6 1.282 . S
C16 O17 1.216 . S
O17 C16 1.216 . S
H18 C13 0.930 . S
H19 C14 0.930 . S
O20 Cu0 1.959 1_655 S
O20 C7 1.251 . S
H21 C4 0.930 . S
H22 C15 0.929 . S
Cu23 N24 1.999 . S
Cu23 O29 1.974 . S
Cu23 N34 1.985 . S
Cu23 O43 1.959 . S
N24 Cu23 1.999 . S
N24 C26 1.263 . S
N24 C28 1.389 . S
N25 C26 1.358 . S
N25 C27 1.400 . S
C26 N24 1.263 . S
C26 N25 1.358 . S
C26 H32 0.930 . S
C27 N25 1.400 . S
C27 C28 1.351 . S
C27 H44 0.930 . S
C28 N24 1.389 . S
C28 C27 1.351 . S
C28 H33 0.930 . S
O29 Cu23 1.974 . S
O29 C39 1.282 . S
C30 O31 1.261 1_554 S
C30 O43 1.251 . S
O31 C30 1.261 1_556 S
H32 C26 0.930 . S
H33 C28 0.930 . S
N34 Cu23 1.985 . S
N34 C36 1.335 . S
N34 C37 1.390 . S
N35 C36 1.345 . S
N35 C38 1.336 . S
C36 N34 1.335 . S
C36 N35 1.345 . S
C36 H41 0.930 . S
C37 N34 1.390 . S
C37 C38 1.346 . S
C37 H42 0.930 . S
C38 N35 1.336 . S
C38 C37 1.346 . S
C38 H45 0.929 . S
C39 O29 1.282 . S
C39 O40 1.216 . S
O40 C39 1.216 . S
H41 C36 0.930 . S
H42 C37 0.930 . S
O43 Cu23 1.959 . S
O43 C30 1.251 . S
H44 C27 0.930 . S
H45 C38 0.929 . S
Cu46 N47 1.999 1_545 S
Cu46 O52 1.974 . S
Cu46 N57 1.985 . S
Cu46 O66 1.959 1_545 S
N47 Cu46 1.999 1_565 S
N47 C49 1.263 . S
N47 C51 1.389 1_554 S
N48 C49 1.358 . S
N48 C50 1.400 1_554 S
C49 N47 1.263 . S
C49 N48 1.358 . S
C49 H55 0.930 . S
C50 N48 1.400 1_556 S
C50 C51 1.351 . S
C50 H67 0.930 . S
C51 N47 1.389 1_556 S
C51 C50 1.351 . S
C51 H56 0.930 . S
O52 Cu46 1.974 . S
O52 C62 1.282 . S
C53 O54 1.261 . S
C53 O66 1.251 . S
O54 C53 1.261 . S
H55 C49 0.930 . S
H56 C51 0.930 . S
N57 Cu46 1.985 . S
N57 C59 1.335 . S
N57 C60 1.390 . S
N58 C59 1.345 . S
N58 C61 1.336 . S
C59 N57 1.335 . S
C59 N58 1.345 . S
C59 H64 0.930 . S
C60 N57 1.390 . S
C60 C61 1.346 . S
C60 H65 0.930 . S
C61 N58 1.336 . S
C61 C60 1.346 . S
C61 H68 0.929 . S
C62 O52 1.282 . S
C62 O63 1.216 . S
O63 C62 1.216 . S
H64 C59 0.930 . S
H65 C60 0.930 . S
O66 Cu46 1.959 1_565 S
O66 C53 1.251 . S
H67 C50 0.930 . S
H68 C61 0.929 . S
Cu69 N70 1.999 . S
Cu69 O75 1.974 . S
Cu69 N80 1.985 . S
Cu69 O89 1.959 . S
N70 Cu69 1.999 . S
N70 C72 1.263 . S
N70 C74 1.389 . S
N71 C72 1.358 . S
N71 C73 1.400 . S
C72 N70 1.263 . S
C72 N71 1.358 . S
C72 H78 0.930 . S
C73 N71 1.400 . S
C73 C74 1.351 . S
C73 H90 0.930 . S
C74 N70 1.389 . S
C74 C73 1.351 . S
C74 H79 0.930 . S
O75 Cu69 1.974 . S
O75 C85 1.282 . S
C76 O77 1.261 . S
C76 O89 1.251 . S
O77 C76 1.261 . S
H78 C72 0.930 . S
H79 C74 0.930 . S
N80 Cu69 1.985 . S
N80 C82 1.335 . S
N80 C83 1.390 . S
N81 C82 1.345 . S
N81 C84 1.336 . S
C82 N80 1.335 . S
C82 N81 1.345 . S
C82 H87 0.930 . S
C83 N80 1.390 . S
C83 C84 1.346 . S
C83 H88 0.930 . S
C84 N81 1.336 . S
C84 C83 1.346 . S
C84 H91 0.929 . S
C85 O75 1.282 . S
C85 O86 1.216 . S
O86 C85 1.216 . S
H87 C82 0.930 . S
H88 C83 0.930 . S
O89 Cu69 1.959 . S
O89 C76 1.251 . S
H90 C73 0.930 . S
H91 C84 0.929 . S
Cu92 N93 1.999 . S
Cu92 O98 1.974 . S
Cu92 N103 1.985 . S
Cu92 O112 1.959 . S
N93 Cu92 1.999 . S
N93 C95 1.263 . S
N93 C97 1.389 . S
N94 C95 1.358 . S
N94 C96 1.400 . S
C95 N93 1.263 . S
C95 N94 1.358 . S
C95 H101 0.930 . S
C96 N94 1.400 . S
C96 C97 1.351 . S
C96 H113 0.930 . S
C97 N93 1.389 . S
C97 C96 1.351 . S
C97 H102 0.930 . S
O98 Cu92 1.974 . S
O98 C108 1.282 . S
C99 O100 1.261 . S
C99 O112 1.251 . S
O100 C99 1.261 . S
H101 C95 0.930 . S
H102 C97 0.930 . S
N103 Cu92 1.985 . S
N103 C105 1.335 . S
N103 C106 1.390 . S
N104 C105 1.345 . S
N104 C107 1.336 . S
C105 N103 1.335 . S
C105 N104 1.345 . S
C105 H110 0.930 . S
C106 N103 1.390 . S
C106 C107 1.346 . S
C106 H111 0.930 . S
C107 N104 1.336 . S
C107 C106 1.346 . S
C107 H114 0.929 . S
C108 O98 1.282 . S
C108 O109 1.216 . S
O109 C108 1.216 . S
H110 C105 0.930 . S
H111 C106 0.930 . S
O112 Cu92 1.959 . S
O112 C99 1.251 . S
H113 C96 0.930 . S
H114 C107 0.929 . S
Cu115 N116 1.999 . S
Cu115 O121 1.974 . S
Cu115 N126 1.985 . S
Cu115 O135 1.959 . S
N116 Cu115 1.999 . S
N116 C118 1.263 . S
N116 C120 1.389 . S
N117 C118 1.358 . S
N117 C119 1.400 . S
C118 N116 1.263 . S
C118 N117 1.358 . S
C118 H124 0.930 . S
C119 N117 1.400 . S
C119 C120 1.351 . S
C119 H136 0.930 . S
C120 N116 1.389 . S
C120 C119 1.351 . S
C120 H125 0.930 . S
O121 Cu115 1.974 . S
O121 C131 1.282 . S
C122 O123 1.261 . S
C122 O135 1.251 . S
O123 C122 1.261 . S
H124 C118 0.930 . S
H125 C120 0.930 . S
N126 Cu115 1.985 . S
N126 C128 1.335 . S
N126 C129 1.390 . S
N127 C128 1.345 . S
N127 C130 1.336 . S
C128 N126 1.335 . S
C128 N127 1.345 . S
C128 H133 0.930 . S
C129 N126 1.390 . S
C129 C130 1.346 . S
C129 H134 0.930 . S
C130 N127 1.336 . S
C130 C129 1.346 . S
C130 H137 0.929 . S
C131 O121 1.282 . S
C131 O132 1.216 . S
O132 C131 1.216 . S
H133 C128 0.930 . S
H134 C129 0.930 . S
O135 Cu115 1.959 . S
O135 C122 1.251 . S
H136 C119 0.930 . S
H137 C130 0.929 . S
Cu138 N139 1.999 . S
Cu138 O144 1.974 . S
Cu138 N149 1.985 . S
Cu138 O158 1.959 . S
N139 Cu138 1.999 . S
N139 C141 1.263 . S
N139 C143 1.389 . S
N140 C141 1.358 . S
N140 C142 1.400 . S
C141 N139 1.263 . S
C141 N140 1.358 . S
C141 H147 0.930 . S
C142 N140 1.400 . S
C142 C143 1.351 . S
C142 H159 0.930 . S
C143 N139 1.389 . S
C143 C142 1.351 . S
C143 H148 0.930 . S
O144 Cu138 1.974 . S
O144 C154 1.282 . S
C145 O146 1.261 . S
C145 O158 1.251 . S
O146 C145 1.261 . S
H147 C141 0.930 . S
H148 C143 0.930 . S
N149 Cu138 1.985 . S
N149 C151 1.335 . S
N149 C152 1.390 . S
N150 C151 1.345 . S
N150 C153 1.336 . S
C151 N149 1.335 . S
C151 N150 1.345 . S
C151 H156 0.930 . S
C152 N149 1.390 . S
C152 C153 1.346 . S
C152 H157 0.930 . S
C153 N150 1.336 . S
C153 C152 1.346 . S
C153 H160 0.929 . S
C154 O144 1.282 . S
C154 O155 1.216 . S
O155 C154 1.216 . S
H156 C151 0.930 . S
H157 C152 0.930 . S
O158 Cu138 1.959 . S
O158 C145 1.251 . S
H159 C142 0.930 . S
H160 C153 0.929 . S
Cu161 N162 1.999 . S
Cu161 O167 1.974 . S
Cu161 N172 1.985 . S
Cu161 O181 1.959 . S
N162 Cu161 1.999 . S
N162 C164 1.263 . S
N162 C166 1.389 . S
N163 C164 1.358 . S
N163 C165 1.400 . S
C164 N162 1.263 . S
C164 N163 1.358 . S
C164 H170 0.930 . S
C165 N163 1.400 . S
C165 C166 1.351 . S
C165 H182 0.930 . S
C166 N162 1.389 . S
C166 C165 1.351 . S
C166 H171 0.930 . S
O167 Cu161 1.974 . S
O167 C177 1.282 . S
C168 O169 1.261 . S
C168 O181 1.251 . S
O169 C168 1.261 . S
H170 C164 0.930 . S
H171 C166 0.930 . S
N172 Cu161 1.985 . S
N172 C174 1.335 . S
N172 C175 1.390 . S
N173 C174 1.345 . S
N173 C176 1.336 . S
C174 N172 1.335 . S
C174 N173 1.345 . S
C174 H179 0.930 . S
C175 N172 1.390 . S
C175 C176 1.346 . S
C175 H180 0.930 . S
C176 N173 1.336 . S
C176 C175 1.346 . S
C176 H183 0.929 . S
C177 O167 1.282 . S
C177 O178 1.216 . S
O178 C177 1.216 . S
H179 C174 0.930 . S
H180 C175 0.930 . S
O181 Cu161 1.959 . S
O181 C168 1.251 . S
H182 C165 0.930 . S
H183 C176 0.929 . S
Cu184 N185 1.999 . S
Cu184 O190 1.974 . S
Cu184 N195 1.985 . S
Cu184 O204 1.959 . S
N185 Cu184 1.999 . S
N185 C187 1.263 . S
N185 C189 1.389 . S
N186 C187 1.358 . S
N186 C188 1.400 . S
C187 N185 1.263 . S
C187 N186 1.358 . S
C187 H193 0.930 . S
C188 N186 1.400 . S
C188 C189 1.351 . S
C188 H205 0.930 . S
C189 N185 1.389 . S
C189 C188 1.351 . S
C189 H194 0.930 . S
O190 Cu184 1.974 . S
O190 C200 1.282 . S
C191 O192 1.261 . S
C191 O204 1.251 . S
O192 C191 1.261 . S
H193 C187 0.930 . S
H194 C189 0.930 . S
N195 Cu184 1.985 . S
N195 C197 1.335 . S
N195 C198 1.390 . S
N196 C197 1.345 . S
N196 C199 1.336 . S
C197 N195 1.335 . S
C197 N196 1.345 . S
C197 H202 0.930 . S
C198 N195 1.390 . S
C198 C199 1.346 . S
C198 H203 0.930 . S
C199 N196 1.336 . S
C199 C198 1.346 . S
C199 H206 0.929 . S
C200 O190 1.282 . S
C200 O201 1.216 . S
O201 C200 1.216 . S
H202 C197 0.930 . S
H203 C198 0.930 . S
O204 Cu184 1.959 . S
O204 C191 1.251 . S
H205 C188 0.930 . S
H206 C199 0.929 . S
H207 C215 0.929 . S
H208 C217 0.930 . S
H209 C219 0.930 . S
H210 C222 0.929 . S
H211 C225 0.930 . S
H212 C227 0.960 . S
H213 C227 0.960 . S
H214 C227 0.960 . S
C215 H207 0.929 . S
C215 C216 1.377 . S
C215 C217 1.384 . S
C216 C215 1.377 . S
C216 C222 1.390 . S
C217 H208 0.930 . S
C217 C215 1.384 . S
C217 C218 1.372 . S
C218 C217 1.372 . S
C218 C219 1.400 . S
C218 C223 1.490 . S
C219 H209 0.930 . S
C219 C218 1.400 . S
C219 C222 1.386 . S
H220 C236 0.930 1_556 S
H221 C237 0.931 1_556 S
C222 H210 0.929 . S
C222 C216 1.390 . S
C222 C219 1.386 . S
C223 C218 1.490 . S
C223 C225 1.395 . S
C223 C226 1.403 . S
H224 C230 0.930 . S
C225 H211 0.930 . S
C225 C223 1.395 . S
C225 C228 1.403 . S
C226 C223 1.403 . S
C226 C227 1.524 . S
C226 C230 1.400 . S
C227 H212 0.960 . S
C227 H213 0.960 . S
C227 H214 0.960 . S
C227 C226 1.524 . S
C228 C225 1.403 . S
C228 C229 1.392 . S
C228 C232 1.495 . S
C229 C228 1.392 . S
C229 C230 1.385 . S
C229 C231 1.478 . S
C230 H224 0.930 . S
C230 C226 1.400 . S
C230 C229 1.385 . S
C231 C229 1.478 . S
C231 C233 1.381 . S
C231 C237 1.383 . S
C232 C228 1.495 . S
C232 H238 0.959 . S
C232 H239 0.961 . S
C232 H240 0.960 . S
C233 C231 1.381 . S
C233 C234 1.394 . S
C233 H241 0.930 . S
C234 C233 1.394 . S
C234 C235 1.383 . S
C234 H242 0.929 . S
C235 C234 1.383 . S
C235 C236 1.377 . S
C236 H220 0.930 1_554 S
C236 C235 1.377 . S
C236 C237 1.379 . S
C237 H221 0.931 1_554 S
C237 C231 1.383 . S
C237 C236 1.379 . S
H238 C232 0.959 . S
H239 C232 0.961 . S
H240 C232 0.960 . S
H241 C233 0.930 . S
H242 C234 0.929 . S
H243 C251 0.929 . S
H244 C253 0.930 . S
H245 C255 0.930 . S
H246 C258 0.929 . S
H247 C261 0.928 1_565 S
H248 C263 0.960 1_545 S
H249 C263 0.960 . S
H250 C263 0.960 . S
C251 H243 0.929 . S
C251 C252 1.377 . S
C251 C253 1.384 . S
C252 C251 1.377 . S
C252 C258 1.390 . S
C253 H244 0.930 . S
C253 C251 1.384 . S
C253 C254 1.372 . S
C254 C253 1.372 . S
C254 C255 1.400 . S
C254 C259 1.490 . S
C255 H245 0.930 . S
C255 C254 1.400 . S
C255 C258 1.386 . S
H256 C272 0.930 . S
H257 C273 0.931 . S
C258 H246 0.929 . S
C258 C252 1.390 . S
C258 C255 1.386 . S
C259 C254 1.490 . S
C259 C261 1.394 1_565 S
C259 C262 1.369 1_565 S
H260 C266 0.930 . S
C261 H247 0.928 1_545 S
C261 C259 1.394 1_545 S
C261 C264 1.406 . S
C262 C259 1.369 1_545 S
C262 C263 1.518 1_545 S
C262 C266 1.442 . S
C263 H248 0.960 1_565 S
C263 H249 0.960 . S
C263 H250 0.960 . S
C263 C262 1.518 1_565 S
C264 C261 1.406 . S
C264 C265 1.392 . S
C264 C268 1.495 1_554 S
C265 C264 1.392 . S
C265 C266 1.385 . S
C265 C267 1.478 . S
C266 H260 0.930 . S
C266 C262 1.442 . S
C266 C265 1.385 . S
C267 C265 1.478 . S
C267 C269 1.381 . S
C267 C273 1.383 . S
C268 C264 1.495 1_556 S
C268 H274 0.959 . S
C268 H275 0.961 . S
C268 H276 0.960 1_556 S
C269 C267 1.381 . S
C269 C270 1.394 . S
C269 H277 0.930 . S
C270 C269 1.394 . S
C270 C271 1.383 . S
C270 H278 0.929 . S
C271 C270 1.383 . S
C271 C272 1.377 . S
C272 H256 0.930 . S
C272 C271 1.377 . S
C272 C273 1.379 . S
C273 H257 0.931 . S
C273 C267 1.383 . S
C273 C272 1.379 . S
H274 C268 0.959 . S
H275 C268 0.961 . S
H276 C268 0.960 1_554 S
H277 C269 0.930 . S
H278 C270 0.929 . S
H279 C287 0.929 . S
H280 C289 0.930 1_556 S
H281 C291 0.930 . S
H282 C294 0.929 . S
H283 C297 0.930 . S
H284 C299 0.960 1_455 S
H285 C299 0.960 . S
H286 C299 0.960 . S
C287 H279 0.929 . S
C287 C288 1.377 . S
C287 C289 1.384 . S
C288 C287 1.377 . S
C288 C294 1.390 . S
C289 H280 0.930 1_554 S
C289 C287 1.384 . S
C289 C290 1.372 . S
C290 C289 1.372 . S
C290 C291 1.400 . S
C290 C295 1.490 . S
C291 H281 0.930 . S
C291 C290 1.400 . S
C291 C294 1.386 . S
H292 C308 0.930 . S
H293 C309 0.931 . S
C294 H282 0.929 . S
C294 C288 1.390 . S
C294 C291 1.386 . S
C295 C290 1.490 . S
C295 C297 1.395 . S
C295 C298 1.403 1_655 S
H296 C302 0.930 . S
C297 H283 0.930 . S
C297 C295 1.395 . S
C297 C300 1.404 1_655 S
C298 C295 1.403 1_455 S
C298 C299 1.524 1_455 S
C298 C302 1.400 . S
C299 H284 0.960 1_655 S
C299 H285 0.960 . S
C299 H286 0.960 . S
C299 C298 1.524 1_655 S
C300 C297 1.404 1_455 S
C300 C301 1.392 . S
C300 C304 1.495 . S
C301 C300 1.392 . S
C301 C302 1.385 . S
C301 C303 1.478 . S
C302 H296 0.930 . S
C302 C298 1.400 . S
C302 C301 1.385 . S
C303 C301 1.478 . S
C303 C305 1.381 . S
C303 C309 1.383 . S
C304 C300 1.495 . S
C304 H310 0.959 . S
C304 H311 0.961 . S
C304 H312 0.960 . S
C305 C303 1.381 . S
C305 C306 1.394 . S
C305 H313 0.930 1_554 S
C306 C305 1.394 . S
C306 C307 1.383 . S
C306 H314 0.929 1_554 S
C307 C306 1.383 . S
C307 C308 1.377 . S
C308 H292 0.930 . S
C308 C307 1.377 . S
C308 C309 1.379 . S
C309 H293 0.931 . S
C309 C303 1.383 . S
C309 C308 1.379 . S
H310 C304 0.959 . S
H311 C304 0.961 . S
H312 C304 0.960 . S
H313 C305 0.930 1_556 S
H314 C306 0.929 1_556 S
H315 C323 0.929 . S
H316 C325 0.930 . S
H317 C327 0.930 . S
H318 C330 0.929 . S
H319 C333 0.930 . S
H320 C335 0.960 . S
H321 C335 0.960 . S
H322 C335 0.960 . S
C323 H315 0.929 . S
C323 C324 1.377 . S
C323 C325 1.384 . S
C324 C323 1.377 . S
C324 C330 1.390 . S
C325 H316 0.930 . S
C325 C323 1.384 . S
C325 C326 1.372 . S
C326 C325 1.372 . S
C326 C327 1.400 . S
C326 C331 1.490 . S
C327 H317 0.930 . S
C327 C326 1.400 . S
C327 C330 1.386 . S
H328 C344 0.930 . S
H329 C345 0.931 . S
C330 H318 0.929 . S
C330 C324 1.390 . S
C330 C327 1.386 . S
C331 C326 1.490 . S
C331 C333 1.395 . S
C331 C334 1.403 . S
H332 C338 0.930 . S
C333 H319 0.930 . S
C333 C331 1.395 . S
C333 C336 1.403 . S
C334 C331 1.403 . S
C334 C335 1.524 . S
C334 C338 1.400 . S
C335 H320 0.960 . S
C335 H321 0.960 . S
C335 H322 0.960 . S
C335 C334 1.524 . S
C336 C333 1.403 . S
C336 C337 1.392 . S
C336 C340 1.495 . S
C337 C336 1.392 . S
C337 C338 1.385 . S
C337 C339 1.478 . S
C338 H332 0.930 . S
C338 C334 1.400 . S
C338 C337 1.385 . S
C339 C337 1.478 . S
C339 C341 1.381 . S
C339 C345 1.383 . S
C340 C336 1.495 . S
C340 H346 0.959 . S
C340 H347 0.961 . S
C340 H348 0.960 . S
C341 C339 1.381 . S
C341 C342 1.394 . S
C341 H349 0.930 . S
C342 C341 1.394 . S
C342 C343 1.383 . S
C342 H350 0.929 . S
C343 C342 1.383 . S
C343 C344 1.377 . S
C344 H328 0.930 . S
C344 C343 1.377 . S
C344 C345 1.379 . S
C345 H329 0.931 . S
C345 C339 1.383 . S
C345 C344 1.379 . S
H346 C340 0.959 . S
H347 C340 0.961 . S
H348 C340 0.960 . S
H349 C341 0.930 . S
H350 C342 0.929 . S
H351 C359 0.929 . S
H352 C361 0.930 . S
H353 C363 0.930 . S
H354 C366 0.929 . S
H355 C369 0.930 . S
H356 C371 0.960 . S
H357 C371 0.960 . S
H358 C371 0.960 . S
C359 H351 0.929 . S
C359 C360 1.377 . S
C359 C361 1.384 . S
C360 C359 1.377 . S
C360 C366 1.390 . S
C361 H352 0.930 . S
C361 C359 1.384 . S
C361 C362 1.372 . S
C362 C361 1.372 . S
C362 C363 1.400 . S
C362 C367 1.490 . S
C363 H353 0.930 . S
C363 C362 1.400 . S
C363 C366 1.386 . S
H364 C380 0.930 . S
H365 C381 0.931 . S
C366 H354 0.929 . S
C366 C360 1.390 . S
C366 C363 1.386 . S
C367 C362 1.490 . S
C367 C369 1.395 . S
C367 C370 1.403 . S
H368 C374 0.930 . S
C369 H355 0.930 . S
C369 C367 1.395 . S
C369 C372 1.403 . S
C370 C367 1.403 . S
C370 C371 1.524 . S
C370 C374 1.400 . S
C371 H356 0.960 . S
C371 H357 0.960 . S
C371 H358 0.960 . S
C371 C370 1.524 . S
C372 C369 1.403 . S
C372 C373 1.392 . S
C372 C376 1.495 . S
C373 C372 1.392 . S
C373 C374 1.385 . S
C373 C375 1.478 . S
C374 H368 0.930 . S
C374 C370 1.400 . S
C374 C373 1.385 . S
C375 C373 1.478 . S
C375 C377 1.381 . S
C375 C381 1.383 . S
C376 C372 1.495 . S
C376 H382 0.959 . S
C376 H383 0.961 . S
C376 H384 0.960 . S
C377 C375 1.381 . S
C377 C378 1.394 . S
C377 H385 0.930 . S
C378 C377 1.394 . S
C378 C379 1.383 . S
C378 H386 0.929 . S
C379 C378 1.383 . S
C379 C380 1.377 . S
C380 H364 0.930 . S
C380 C379 1.377 . S
C380 C381 1.379 . S
C381 H365 0.931 . S
C381 C375 1.383 . S
C381 C380 1.379 . S
H382 C376 0.959 . S
H383 C376 0.961 . S
H384 C376 0.960 . S
H385 C377 0.930 . S
H386 C378 0.929 . S
H387 C395 0.929 . S
H388 C397 0.930 . S
H389 C399 0.930 . S
H390 C402 0.929 . S
H391 C405 0.930 . S
H392 C407 0.960 . S
H393 C407 0.960 . S
H394 C407 0.960 . S
C395 H387 0.929 . S
C395 C396 1.377 . S
C395 C397 1.384 . S
C396 C395 1.377 . S
C396 C402 1.390 . S
C397 H388 0.930 . S
C397 C395 1.384 . S
C397 C398 1.372 . S
C398 C397 1.372 . S
C398 C399 1.400 . S
C398 C403 1.490 . S
C399 H389 0.930 . S
C399 C398 1.400 . S
C399 C402 1.386 . S
H400 C416 0.930 . S
H401 C417 0.931 . S
C402 H390 0.929 . S
C402 C396 1.390 . S
C402 C399 1.386 . S
C403 C398 1.490 . S
C403 C405 1.395 . S
C403 C406 1.403 . S
H404 C410 0.930 . S
C405 H391 0.930 . S
C405 C403 1.395 . S
C405 C408 1.403 . S
C406 C403 1.403 . S
C406 C407 1.524 . S
C406 C410 1.400 . S
C407 H392 0.960 . S
C407 H393 0.960 . S
C407 H394 0.960 . S
C407 C406 1.524 . S
C408 C405 1.403 . S
C408 C409 1.392 . S
C408 C412 1.495 . S
C409 C408 1.392 . S
C409 C410 1.385 . S
C409 C411 1.478 . S
C410 H404 0.930 . S
C410 C406 1.400 . S
C410 C409 1.385 . S
C411 C409 1.478 . S
C411 C413 1.381 . S
C411 C417 1.383 . S
C412 C408 1.495 . S
C412 H418 0.959 . S
C412 H419 0.961 . S
C412 H420 0.960 . S
C413 C411 1.381 . S
C413 C414 1.394 . S
C413 H421 0.930 . S
C414 C413 1.394 . S
C414 C415 1.383 . S
C414 H422 0.929 . S
C415 C414 1.383 . S
C415 C416 1.377 . S
C416 H400 0.930 . S
C416 C415 1.377 . S
C416 C417 1.379 . S
C417 H401 0.931 . S
C417 C411 1.383 . S
C417 C416 1.379 . S
H418 C412 0.959 . S
H419 C412 0.961 . S
H420 C412 0.960 . S
H421 C413 0.930 . S
H422 C414 0.929 . S
H423 C431 0.929 . S
H424 C433 0.930 . S
H425 C435 0.930 . S
H426 C438 0.929 . S
H427 C441 0.930 . S
H428 C443 0.960 . S
H429 C443 0.960 . S
H430 C443 0.960 . S
C431 H423 0.929 . S
C431 C432 1.377 . S
C431 C433 1.384 . S
C432 C431 1.377 . S
C432 C438 1.390 . S
C433 H424 0.930 . S
C433 C431 1.384 . S
C433 C434 1.372 . S
C434 C433 1.372 . S
C434 C435 1.400 . S
C434 C439 1.490 . S
C435 H425 0.930 . S
C435 C434 1.400 . S
C435 C438 1.386 . S
H436 C452 0.930 . S
H437 C453 0.931 . S
C438 H426 0.929 . S
C438 C432 1.390 . S
C438 C435 1.386 . S
C439 C434 1.490 . S
C439 C441 1.395 . S
C439 C442 1.403 . S
H440 C446 0.930 . S
C441 H427 0.930 . S
C441 C439 1.395 . S
C441 C444 1.403 . S
C442 C439 1.403 . S
C442 C443 1.524 . S
C442 C446 1.400 . S
C443 H428 0.960 . S
C443 H429 0.960 . S
C443 H430 0.960 . S
C443 C442 1.524 . S
C444 C441 1.403 . S
C444 C445 1.392 . S
C444 C448 1.495 . S
C445 C444 1.392 . S
C445 C446 1.385 . S
C445 C447 1.478 . S
C446 H440 0.930 . S
C446 C442 1.400 . S
C446 C445 1.385 . S
C447 C445 1.478 . S
C447 C449 1.381 . S
C447 C453 1.383 . S
C448 C444 1.495 . S
C448 H454 0.959 . S
C448 H455 0.961 . S
C448 H456 0.960 . S
C449 C447 1.381 . S
C449 C450 1.394 . S
C449 H457 0.930 . S
C450 C449 1.394 . S
C450 C451 1.383 . S
C450 H458 0.929 . S
C451 C450 1.383 . S
C451 C452 1.377 . S
C452 H436 0.930 . S
C452 C451 1.377 . S
C452 C453 1.379 . S
C453 H437 0.931 . S
C453 C447 1.383 . S
C453 C452 1.379 . S
H454 C448 0.959 . S
H455 C448 0.961 . S
H456 C448 0.960 . S
H457 C449 0.930 . S
H458 C450 0.929 . S
H459 C467 0.929 . S
H460 C469 0.930 . S
H461 C471 0.930 . S
H462 C474 0.929 . S
H463 C477 0.930 . S
H464 C479 0.960 . S
H465 C479 0.960 . S
H466 C479 0.960 . S
C467 H459 0.929 . S
C467 C468 1.377 . S
C467 C469 1.384 . S
C468 C467 1.377 . S
C468 C474 1.390 . S
C469 H460 0.930 . S
C469 C467 1.384 . S
C469 C470 1.372 . S
C470 C469 1.372 . S
C470 C471 1.400 . S
C470 C475 1.490 . S
C471 H461 0.930 . S
C471 C470 1.400 . S
C471 C474 1.386 . S
H472 C488 0.930 . S
H473 C489 0.931 . S
C474 H462 0.929 . S
C474 C468 1.390 . S
C474 C471 1.386 . S
C475 C470 1.490 . S
C475 C477 1.395 . S
C475 C478 1.403 . S
H476 C482 0.930 . S
C477 H463 0.930 . S
C477 C475 1.395 . S
C477 C480 1.403 . S
C478 C475 1.403 . S
C478 C479 1.524 . S
C478 C482 1.400 . S
C479 H464 0.960 . S
C479 H465 0.960 . S
C479 H466 0.960 . S
C479 C478 1.524 . S
C480 C477 1.403 . S
C480 C481 1.392 . S
C480 C484 1.495 . S
C481 C480 1.392 . S
C481 C482 1.385 . S
C481 C483 1.478 . S
C482 H476 0.930 . S
C482 C478 1.400 . S
C482 C481 1.385 . S
C483 C481 1.478 . S
C483 C485 1.381 . S
C483 C489 1.383 . S
C484 C480 1.495 . S
C484 H490 0.959 . S
C484 H491 0.961 . S
C484 H492 0.960 . S
C485 C483 1.381 . S
C485 C486 1.394 . S
C485 H493 0.930 . S
C486 C485 1.394 . S
C486 C487 1.383 . S
C486 H494 0.929 . S
C487 C486 1.383 . S
C487 C488 1.377 . S
C488 H472 0.930 . S
C488 C487 1.377 . S
C488 C489 1.379 . S
C489 H473 0.931 . S
C489 C483 1.383 . S
C489 C488 1.379 . S
H490 C484 0.959 . S
H491 C484 0.961 . S
H492 C484 0.960 . S
H493 C485 0.930 . S
H494 C486 0.929 . S
H495 C503 0.929 . S
H496 C505 0.930 . S
H497 C507 0.930 . S
H498 C510 0.929 . S
H499 C513 0.930 . S
H500 C515 0.960 . S
H501 C515 0.960 . S
H502 C515 0.960 . S
C503 H495 0.929 . S
C503 C504 1.377 . S
C503 C505 1.384 . S
C504 C503 1.377 . S
C504 C510 1.390 . S
C505 H496 0.930 . S
C505 C503 1.384 . S
C505 C506 1.372 . S
C506 C505 1.372 . S
C506 C507 1.400 . S
C506 C511 1.490 . S
C507 H497 0.930 . S
C507 C506 1.400 . S
C507 C510 1.386 . S
H508 C524 0.930 . S
H509 C525 0.931 . S
C510 H498 0.929 . S
C510 C504 1.390 . S
C510 C507 1.386 . S
C511 C506 1.490 . S
C511 C513 1.395 . S
C511 C514 1.403 . S
H512 C518 0.930 . S
C513 H499 0.930 . S
C513 C511 1.395 . S
C513 C516 1.403 . S
C514 C511 1.403 . S
C514 C515 1.524 . S
C514 C518 1.400 . S
C515 H500 0.960 . S
C515 H501 0.960 . S
C515 H502 0.960 . S
C515 C514 1.524 . S
C516 C513 1.403 . S
C516 C517 1.392 . S
C516 C520 1.495 . S
C517 C516 1.392 . S
C517 C518 1.385 . S
C517 C519 1.478 . S
C518 H512 0.930 . S
C518 C514 1.400 . S
C518 C517 1.385 . S
C519 C517 1.478 . S
C519 C521 1.381 . S
C519 C525 1.383 . S
C520 C516 1.495 . S
C520 H526 0.959 . S
C520 H527 0.961 . S
C520 H528 0.960 . S
C521 C519 1.381 . S
C521 C522 1.394 . S
C521 H529 0.930 . S
C522 C521 1.394 . S
C522 C523 1.383 . S
C522 H530 0.929 . S
C523 C522 1.383 . S
C523 C524 1.377 . S
C524 H508 0.930 . S
C524 C523 1.377 . S
C524 C525 1.379 . S
C525 H509 0.931 . S
C525 C519 1.383 . S
C525 C524 1.379 . S
H526 C520 0.959 . S
H527 C520 0.961 . S
H528 C520 0.960 . S
H529 C521 0.930 . S
H530 C522 0.929 . S
H531 C539 0.929 . S
H532 C541 0.930 1_554 S
H533 C543 0.930 . S
H534 C546 0.929 . S
H535 C549 0.930 . S
H536 C551 0.960 . S
H537 C551 0.960 . S
H538 C551 0.960 . S
C539 H531 0.929 . S
C539 C540 1.377 1_554 S
C539 C541 1.384 1_554 S
C540 C539 1.377 1_556 S
C540 C546 1.390 . S
C541 H532 0.930 1_556 S
C541 C539 1.384 1_556 S
C541 C542 1.372 . S
C542 C541 1.372 . S
C542 C543 1.400 . S
C542 C547 1.490 . S
C543 H533 0.930 . S
C543 C542 1.400 . S
C543 C546 1.386 . S
H544 C560 0.930 . S
H545 C561 0.931 . S
C546 H534 0.929 . S
C546 C540 1.390 . S
C546 C543 1.386 . S
C547 C542 1.490 . S
C547 C549 1.395 . S
C547 C550 1.403 . S
H548 C554 0.930 . S
C549 H535 0.930 . S
C549 C547 1.395 . S
C549 C552 1.403 . S
C550 C547 1.403 . S
C550 C551 1.524 . S
C550 C554 1.400 . S
C551 H536 0.960 . S
C551 H537 0.960 . S
C551 H538 0.960 . S
C551 C550 1.524 . S
C552 C549 1.403 . S
C552 C553 1.392 . S
C552 C556 1.495 . S
C553 C552 1.392 . S
C553 C554 1.385 . S
C553 C555 1.478 . S
C554 H548 0.930 . S
C554 C550 1.400 . S
C554 C553 1.385 . S
C555 C553 1.478 . S
C555 C557 1.381 . S
C555 C561 1.383 . S
C556 C552 1.495 . S
C556 H562 0.959 . S
C556 H563 0.961 . S
C556 H564 0.960 . S
C557 C555 1.381 . S
C557 C558 1.394 . S
C557 H565 0.930 . S
C558 C557 1.394 . S
C558 C559 1.383 . S
C558 H566 0.929 . S
C559 C558 1.383 . S
C559 C560 1.377 . S
C560 H544 0.930 . S
C560 C559 1.377 . S
C560 C561 1.379 . S
C561 H545 0.931 . S
C561 C555 1.383 . S
C561 C560 1.379 . S
H562 C556 0.959 . S
H563 C556 0.961 . S
H564 C556 0.960 . S
H565 C557 0.930 . S
H566 C558 0.929 . S
H567 C575 0.929 . S
H568 C577 0.930 . S
H569 C579 0.930 . S
H570 C582 0.929 . S
H571 C585 0.930 . S
H572 C587 0.960 . S
H573 C587 0.960 1_554 S
H574 C587 0.960 . S
C575 H567 0.929 . S
C575 C576 1.377 . S
C575 C577 1.384 . S
C576 C575 1.377 . S
C576 C582 1.390 . S
C577 H568 0.930 . S
C577 C575 1.384 . S
C577 C578 1.372 . S
C578 C577 1.372 . S
C578 C579 1.400 . S
C578 C583 1.490 . S
C579 H569 0.930 . S
C579 C578 1.400 . S
C579 C582 1.386 . S
H580 C596 0.930 . S
H581 C597 0.931 . S
C582 H570 0.929 . S
C582 C576 1.390 . S
C582 C579 1.386 . S
C583 C578 1.490 . S
C583 C585 1.395 . S
C583 C586 1.403 . S
H584 C590 0.930 . S
C585 H571 0.930 . S
C585 C583 1.395 . S
C585 C588 1.403 . S
C586 C583 1.403 . S
C586 C587 1.524 . S
C586 C590 1.400 . S
C587 H572 0.960 . S
C587 H573 0.960 1_556 S
C587 H574 0.960 . S
C587 C586 1.524 . S
C588 C585 1.403 . S
C588 C589 1.392 . S
C588 C592 1.495 . S
C589 C588 1.392 . S
C589 C590 1.385 . S
C589 C591 1.478 . S
C590 H584 0.930 . S
C590 C586 1.400 . S
C590 C589 1.385 . S
C591 C589 1.478 . S
C591 C593 1.381 . S
C591 C597 1.383 . S
C592 C588 1.495 . S
C592 H598 0.959 . S
C592 H599 0.961 . S
C592 H600 0.960 . S
C593 C591 1.381 . S
C593 C594 1.394 . S
C593 H601 0.930 . S
C594 C593 1.394 . S
C594 C595 1.383 . S
C594 H602 0.929 . S
C595 C594 1.383 . S
C595 C596 1.377 . S
C596 H580 0.930 . S
C596 C595 1.377 . S
C596 C597 1.379 . S
C597 H581 0.931 . S
C597 C591 1.383 . S
C597 C596 1.379 . S
H598 C592 0.959 . S
H599 C592 0.961 . S
H600 C592 0.960 . S
H601 C593 0.930 . S
H602 C594 0.929 . S
H603 C611 0.929 . S
H604 C613 0.930 . S
H605 C615 0.930 . S
H606 C618 0.929 . S
H607 C621 0.930 . S
H608 C623 0.960 . S
H609 C623 0.960 . S
H610 C623 0.960 . S
C611 H603 0.929 . S
C611 C612 1.377 . S
C611 C613 1.384 . S
C612 C611 1.377 . S
C612 C618 1.390 . S
C613 H604 0.930 . S
C613 C611 1.384 . S
C613 C614 1.372 . S
C614 C613 1.372 . S
C614 C615 1.400 . S
C614 C619 1.490 . S
C615 H605 0.930 . S
C615 C614 1.400 . S
C615 C618 1.386 . S
H616 C632 0.930 . S
H617 C633 0.931 . S
C618 H606 0.929 . S
C618 C612 1.390 . S
C618 C615 1.386 . S
C619 C614 1.490 . S
C619 C621 1.395 . S
C619 C622 1.403 . S
H620 C626 0.930 . S
C621 H607 0.930 . S
C621 C619 1.395 . S
C621 C624 1.403 . S
C622 C619 1.403 . S
C622 C623 1.524 . S
C622 C626 1.400 . S
C623 H608 0.960 . S
C623 H609 0.960 . S
C623 H610 0.960 . S
C623 C622 1.524 . S
C624 C621 1.403 . S
C624 C625 1.392 . S
C624 C628 1.495 . S
C625 C624 1.392 . S
C625 C626 1.385 . S
C625 C627 1.478 . S
C626 H620 0.930 . S
C626 C622 1.400 . S
C626 C625 1.385 . S
C627 C625 1.478 . S
C627 C629 1.381 . S
C627 C633 1.383 . S
C628 C624 1.495 . S
C628 H634 0.959 . S
C628 H635 0.961 . S
C628 H636 0.960 . S
C629 C627 1.381 . S
C629 C630 1.394 . S
C629 H637 0.930 . S
C630 C629 1.394 . S
C630 C631 1.383 . S
C630 H638 0.929 . S
C631 C630 1.383 . S
C631 C632 1.377 1_556 S
C632 H616 0.930 . S
C632 C631 1.377 1_554 S
C632 C633 1.379 1_554 S
C633 H617 0.931 . S
C633 C627 1.383 . S
C633 C632 1.379 1_556 S
H634 C628 0.959 . S
H635 C628 0.961 . S
H636 C628 0.960 . S
H637 C629 0.930 . S
H638 C630 0.929 . S
H639 C647 0.929 . S
H640 C649 0.930 . S
H641 C651 0.930 . S
H642 C654 0.929 . S
H643 C657 0.930 . S
H644 C659 0.960 . S
H645 C659 0.960 . S
H646 C659 0.960 . S
C647 H639 0.929 . S
C647 C648 1.377 . S
C647 C649 1.384 . S
C648 C647 1.377 . S
C648 C654 1.390 . S
C649 H640 0.930 . S
C649 C647 1.384 . S
C649 C650 1.372 . S
C650 C649 1.372 . S
C650 C651 1.400 . S
C650 C655 1.490 . S
C651 H641 0.930 . S
C651 C650 1.400 . S
C651 C654 1.386 . S
H652 C668 0.930 . S
H653 C669 0.931 . S
C654 H642 0.929 . S
C654 C648 1.390 . S
C654 C651 1.386 . S
C655 C650 1.490 . S
C655 C657 1.395 . S
C655 C658 1.403 . S
H656 C662 0.930 . S
C657 H643 0.930 . S
C657 C655 1.395 . S
C657 C660 1.403 . S
C658 C655 1.403 . S
C658 C659 1.524 . S
C658 C662 1.400 . S
C659 H644 0.960 . S
C659 H645 0.960 . S
C659 H646 0.960 . S
C659 C658 1.524 . S
C660 C657 1.403 . S
C660 C661 1.392 . S
C660 C664 1.495 . S
C661 C660 1.392 . S
C661 C662 1.385 . S
C661 C663 1.478 . S
C662 H656 0.930 . S
C662 C658 1.400 . S
C662 C661 1.385 . S
C663 C661 1.478 . S
C663 C665 1.381 . S
C663 C669 1.383 . S
C664 C660 1.495 . S
C664 H670 0.959 . S
C664 H671 0.961 . S
C664 H672 0.960 . S
C665 C663 1.381 . S
C665 C666 1.394 . S
C665 H673 0.930 . S
C666 C665 1.394 . S
C666 C667 1.383 . S
C666 H674 0.929 . S
C667 C666 1.383 . S
C667 C668 1.377 . S
C668 H652 0.930 . S
C668 C667 1.377 . S
C668 C669 1.379 . S
C669 H653 0.931 . S
C669 C663 1.383 . S
C669 C668 1.379 . S
H670 C664 0.959 . S
H671 C664 0.961 . S
H672 C664 0.960 . S
H673 C665 0.930 . S
H674 C666 0.929 . S
H675 C683 0.979 . S
H676 C685 0.930 . S
H677 C687 0.930 . S
H678 C690 0.929 . S
H679 C693 0.930 . S
H680 C695 0.960 . S
H681 C695 0.960 . S
H682 C695 0.960 . S
C683 H675 0.979 . S
C683 C684 1.377 . S
C683 C685 1.384 . S
C684 C683 1.377 . S
C684 C690 1.390 . S
C685 H676 0.930 . S
C685 C683 1.384 . S
C685 C686 1.372 . S
C686 C685 1.372 . S
C686 C687 1.400 . S
C686 C691 1.490 . S
C687 H677 0.930 . S
C687 C686 1.400 . S
C687 C690 1.386 . S
H688 C704 0.930 . S
H689 C705 0.931 . S
C690 H678 0.929 . S
C690 C684 1.390 . S
C690 C687 1.386 . S
C691 C686 1.490 . S
C691 C693 1.395 . S
C691 C694 1.403 . S
H692 C698 0.930 . S
C693 H679 0.930 . S
C693 C691 1.395 . S
C693 C696 1.403 . S
C694 C691 1.403 . S
C694 C695 1.524 . S
C694 C698 1.400 . S
C695 H680 0.960 . S
C695 H681 0.960 . S
C695 H682 0.960 . S
C695 C694 1.524 . S
C696 C693 1.403 . S
C696 C697 1.392 . S
C696 C700 1.495 . S
C697 C696 1.392 . S
C697 C698 1.385 . S
C697 C699 1.478 . S
C698 H692 0.930 . S
C698 C694 1.400 . S
C698 C697 1.385 . S
C699 C697 1.478 . S
C699 C701 1.381 . S
C699 C705 1.383 . S
C700 C696 1.495 . S
C700 H706 0.959 . S
C700 H707 0.961 . S
C700 H708 0.960 . S
C701 C699 1.381 . S
C701 C702 1.394 . S
C701 H709 0.930 . S
C702 C701 1.394 . S
C702 C703 1.383 . S
C702 H710 0.929 . S
C703 C702 1.383 . S
C703 C704 1.377 . S
C704 H688 0.930 . S
C704 C703 1.377 . S
C704 C705 1.379 . S
C705 H689 0.931 . S
C705 C699 1.383 . S
C705 C704 1.379 . S
H706 C700 0.959 . S
H707 C700 0.961 . S
H708 C700 0.960 . S
H709 C701 0.930 . S
H710 C702 0.929 . S
H711 C719 0.929 . S
H712 C721 0.930 . S
H713 C723 0.930 . S
H714 C726 0.929 . S
H715 C729 0.930 . S
H716 C731 0.960 . S
H717 C731 0.960 . S
H718 C731 0.960 . S
C719 H711 0.929 . S
C719 C720 1.377 . S
C719 C721 1.384 . S
C720 C719 1.377 . S
C720 C726 1.390 . S
C721 H712 0.930 . S
C721 C719 1.384 . S
C721 C722 1.372 . S
C722 C721 1.372 . S
C722 C723 1.400 . S
C722 C727 1.490 . S
C723 H713 0.930 . S
C723 C722 1.400 . S
C723 C726 1.386 . S
H724 C740 0.930 . S
H725 C741 0.931 . S
C726 H714 0.929 . S
C726 C720 1.390 . S
C726 C723 1.386 . S
C727 C722 1.490 . S
C727 C729 1.395 . S
C727 C730 1.403 . S
H728 C734 0.930 . S
C729 H715 0.930 . S
C729 C727 1.395 . S
C729 C732 1.403 . S
C730 C727 1.403 . S
C730 C731 1.524 . S
C730 C734 1.400 . S
C731 H716 0.960 . S
C731 H717 0.960 . S
C731 H718 0.960 . S
C731 C730 1.524 . S
C732 C729 1.403 . S
C732 C733 1.392 . S
C732 C736 1.495 . S
C733 C732 1.392 . S
C733 C734 1.385 . S
C733 C735 1.478 . S
C734 H728 0.930 . S
C734 C730 1.400 . S
C734 C733 1.385 . S
C735 C733 1.478 . S
C735 C737 1.381 . S
C735 C741 1.383 . S
C736 C732 1.495 . S
C736 H742 0.959 . S
C736 H743 0.961 . S
C736 H744 0.960 . S
C737 C735 1.381 . S
C737 C738 1.394 . S
C737 H745 0.930 . S
C738 C737 1.394 . S
C738 C739 1.383 . S
C738 H746 0.929 . S
C739 C738 1.383 . S
C739 C740 1.377 . S
C740 H724 0.930 . S
C740 C739 1.377 . S
C740 C741 1.379 . S
C741 H725 0.931 . S
C741 C735 1.383 . S
C741 C740 1.379 . S
H742 C736 0.959 . S
H743 C736 0.961 . S
H744 C736 0.960 . S
H745 C737 0.930 . S
H746 C738 0.929 . S
H747 C755 0.929 . S
H748 C757 0.930 . S
H749 C759 0.930 . S
H750 C762 0.929 . S
H751 C765 0.930 . S
H752 C767 0.960 . S
H753 C767 0.960 . S
H754 C767 0.960 . S
C755 H747 0.929 . S
C755 C756 1.377 . S
C755 C757 1.384 . S
C756 C755 1.377 . S
C756 C762 1.390 . S
C757 H748 0.930 . S
C757 C755 1.384 . S
C757 C758 1.372 . S
C758 C757 1.372 . S
C758 C759 1.400 . S
C758 C763 1.490 . S
C759 H749 0.930 . S
C759 C758 1.400 . S
C759 C762 1.386 . S
H760 C776 0.930 . S
H761 C777 0.931 . S
C762 H750 0.929 . S
C762 C756 1.390 . S
C762 C759 1.386 . S
C763 C758 1.490 . S
C763 C765 1.395 . S
C763 C766 1.403 . S
H764 C770 0.930 . S
C765 H751 0.930 . S
C765 C763 1.395 . S
C765 C768 1.403 . S
C766 C763 1.403 . S
C766 C767 1.524 . S
C766 C770 1.400 . S
C767 H752 0.960 . S
C767 H753 0.960 . S
C767 H754 0.960 . S
C767 C766 1.524 . S
C768 C765 1.403 . S
C768 C769 1.392 . S
C768 C772 1.495 . S
C769 C768 1.392 . S
C769 C770 1.385 . S
C769 C771 1.478 1_455 S
C770 H764 0.930 . S
C770 C766 1.400 . S
C770 C769 1.385 . S
C771 C769 1.478 1_655 S
C771 C773 1.381 . S
C771 C777 1.383 . S
C772 C768 1.495 . S
C772 H778 0.959 . S
C772 H779 0.961 . S
C772 H780 0.960 . S
C773 C771 1.381 . S
C773 C774 1.394 . S
C773 H781 0.930 . S
C774 C773 1.394 . S
C774 C775 1.383 . S
C774 H782 0.929 . S
C775 C774 1.383 . S
C775 C776 1.377 . S
C776 H760 0.930 . S
C776 C775 1.377 . S
C776 C777 1.379 . S
C777 H761 0.931 . S
C777 C771 1.383 . S
C777 C776 1.379 . S
H778 C772 0.959 . S
H779 C772 0.961 . S
H780 C772 0.960 . S
H781 C773 0.930 . S
H782 C774 0.929 . S
H783 C791 0.929 . S
H784 C793 0.930 . S
H785 C795 0.930 . S
H786 C798 0.929 . S
H787 C801 0.930 . S
H788 C803 0.960 . S
H789 C803 0.960 . S
H790 C803 0.960 . S
C791 H783 0.929 . S
C791 C792 1.377 . S
C791 C793 1.384 . S
C792 C791 1.377 . S
C792 C798 1.390 . S
C793 H784 0.930 . S
C793 C791 1.384 . S
C793 C794 1.372 . S
C794 C793 1.372 . S
C794 C795 1.400 . S
C794 C799 1.490 . S
C795 H785 0.930 . S
C795 C794 1.400 . S
C795 C798 1.386 . S
H796 C812 0.930 . S
H797 C813 0.931 . S
C798 H786 0.929 . S
C798 C792 1.390 . S
C798 C795 1.386 . S
C799 C794 1.490 . S
C799 C801 1.395 . S
C799 C802 1.403 . S
H800 C806 0.930 . S
C801 H787 0.930 . S
C801 C799 1.395 . S
C801 C804 1.403 . S
C802 C799 1.403 . S
C802 C803 1.524 . S
C802 C806 1.400 . S
C803 H788 0.960 . S
C803 H789 0.960 . S
C803 H790 0.960 . S
C803 C802 1.524 . S
C804 C801 1.403 . S
C804 C805 1.392 . S
C804 C808 1.495 . S
C805 C804 1.392 . S
C805 C806 1.385 . S
C805 C807 1.478 . S
C806 H800 0.930 . S
C806 C802 1.400 . S
C806 C805 1.385 . S
C807 C805 1.478 . S
C807 C809 1.381 . S
C807 C813 1.383 . S
C808 C804 1.495 . S
C808 H814 0.959 . S
C808 H815 0.961 . S
C808 H816 0.960 . S
C809 C807 1.381 . S
C809 C810 1.394 . S
C809 H817 0.930 . S
C810 C809 1.394 . S
C810 C811 1.383 . S
C810 H818 0.929 . S
C811 C810 1.383 . S
C811 C812 1.377 . S
C812 H796 0.930 . S
C812 C811 1.377 . S
C812 C813 1.379 . S
C813 H797 0.931 . S
C813 C807 1.383 . S
C813 C812 1.379 . S
H814 C808 0.959 . S
H815 C808 0.961 . S
H816 C808 0.960 . S
H817 C809 0.930 . S
H818 C810 0.929 . S
H819 C827 0.929 . S
H820 C829 0.930 . S
H821 C831 0.930 . S
H822 C834 0.929 . S
H823 C837 0.930 . S
H824 C839 0.960 . S
H825 C839 0.960 1_565 S
H826 C839 0.960 . S
C827 H819 0.929 . S
C827 C828 1.377 . S
C827 C829 1.384 . S
C828 C827 1.377 . S
C828 C834 1.390 . S
C829 H820 0.930 . S
C829 C827 1.384 . S
C829 C830 1.372 . S
C830 C829 1.372 . S
C830 C831 1.400 . S
C830 C835 1.490 . S
C831 H821 0.930 . S
C831 C830 1.400 . S
C831 C834 1.386 . S
H832 C848 0.930 . S
H833 C849 0.931 . S
C834 H822 0.929 . S
C834 C828 1.390 . S
C834 C831 1.386 . S
C835 C830 1.490 . S
C835 C837 1.395 . S
C835 C838 1.403 1_565 S
H836 C842 0.930 . S
C837 H823 0.930 . S
C837 C835 1.395 . S
C837 C840 1.403 1_565 S
C838 C835 1.403 1_545 S
C838 C839 1.524 . S
C838 C842 1.400 . S
C839 H824 0.960 . S
C839 H825 0.960 1_545 S
C839 H826 0.960 . S
C839 C838 1.524 . S
C840 C837 1.403 1_545 S
C840 C841 1.392 . S
C840 C844 1.495 . S
C841 C840 1.392 . S
C841 C842 1.385 . S
C841 C843 1.478 . S
C842 H836 0.930 . S
C842 C838 1.400 . S
C842 C841 1.385 . S
C843 C841 1.478 . S
C843 C845 1.381 . S
C843 C849 1.383 . S
C844 C840 1.495 . S
C844 H850 0.959 1_545 S
C844 H851 0.961 . S
C844 H852 0.960 . S
C845 C843 1.381 . S
C845 C846 1.394 . S
C845 H853 0.930 . S
C846 C845 1.394 . S
C846 C847 1.383 . S
C846 H854 0.929 . S
C847 C846 1.383 . S
C847 C848 1.377 . S
C848 H832 0.930 . S
C848 C847 1.377 . S
C848 C849 1.379 . S
C849 H833 0.931 . S
C849 C843 1.383 . S
C849 C848 1.379 . S
H850 C844 0.959 1_565 S
H851 C844 0.961 . S
H852 C844 0.960 . S
H853 C845 0.930 . S
H854 C846 0.929 . S
C216 N58 1.260 . S
C235 C16 1.248 . S
C252 N25 1.168 . S
C271 N2 1.167 . S
C288 C39 1.438 . S
C307 C53 1.462 . S
C324 C122 1.516 . S
C343 C85 1.506 . S
C360 N94 1.094 . S
C379 N71 1.129 . S
C396 C108 1.266 . S
C415 N127 1.307 . S
C432 C154 1.291 . S
C451 N196 1.335 . S
C468 N140 1.023 . S
C487 N163 1.009 . S
C504 C177 1.500 . S
C523 C191 1.514 . S
C540 N12 1.525 1_556 S
C559 N173 1.516 . S
C576 C30 1.573 1_556 S
C595 C200 1.561 . S
C612 C145 1.522 . S
C631 N48 1.419 1_556 S
C648 C99 1.494 . S
C667 C62 1.478 . S
C684 C7 1.534 . S
C703 C131 1.500 . S
C720 N81 1.566 . S
C739 N35 1.566 . S
C756 C168 1.568 . S
C775 N117 1.494 . S
C792 C76 1.589 . S
C811 N186 1.486 . S
C828 N150 1.477 . S
C847 N104 1.493 . S
