# Generated by pormake.
# Topology lcs, (4)-cn, num edge types: 1
# Building blocks:
#     Node 0, Type 0, BuildingBlock: GALJAG_clean_sbu_0, # of connection points: 4
#     Node 1, Type 0, BuildingBlock: GALJAG_clean_sbu_0, # of connection points: 4
#     Node 2, Type 0, BuildingBlock: GALJAG_clean_sbu_0, # of connection points: 4
#     Node 3, Type 0, BuildingBlock: GALJAG_clean_sbu_0, # of connection points: 4
#     Node 4, Type 0, BuildingBlock: GALJAG_clean_sbu_0, # of connection points: 4
#     Node 5, Type 0, BuildingBlock: GALJAG_clean_sbu_0, # of connection points: 4
#     Node 6, Type 0, BuildingBlock: GALJAG_clean_sbu_0, # of connection points: 4
#     Node 7, Type 0, BuildingBlock: GALJAG_clean_sbu_0, # of connection points: 4
#     Node 8, Type 0, BuildingBlock: GALJAG_clean_sbu_0, # of connection points: 4
#     Node 9, Type 0, BuildingBlock: GALJAG_clean_sbu_0, # of connection points: 4
#     Node 10, Type 0, BuildingBlock: GALJAG_clean_sbu_0, # of connection points: 4
#     Node 11, Type 0, BuildingBlock: GALJAG_clean_sbu_0, # of connection points: 4
#     Node 12, Type 0, BuildingBlock: GALJAG_clean_sbu_0, # of connection points: 4
#     Node 13, Type 0, BuildingBlock: GALJAG_clean_sbu_0, # of connection points: 4
#     Node 14, Type 0, BuildingBlock: GALJAG_clean_sbu_0, # of connection points: 4
#     Node 15, Type 0, BuildingBlock: GALJAG_clean_sbu_0, # of connection points: 4
#     Node 16, Type 0, BuildingBlock: GALJAG_clean_sbu_0, # of connection points: 4
#     Node 17, Type 0, BuildingBlock: GALJAG_clean_sbu_0, # of connection points: 4
#     Node 18, Type 0, BuildingBlock: GALJAG_clean_sbu_0, # of connection points: 4
#     Node 19, Type 0, BuildingBlock: GALJAG_clean_sbu_0, # of connection points: 4
#     Node 20, Type 0, BuildingBlock: GALJAG_clean_sbu_0, # of connection points: 4
#     Node 21, Type 0, BuildingBlock: GALJAG_clean_sbu_0, # of connection points: 4
#     Node 22, Type 0, BuildingBlock: GALJAG_clean_sbu_0, # of connection points: 4
#     Node 23, Type 0, BuildingBlock: GALJAG_clean_sbu_0, # of connection points: 4
#     Edge 24, Type (0, 0), BuildingBlock: CIFDUS_clean_linker_0, # of connection points: 2
#     Edge 25, Type (0, 0), BuildingBlock: CIFDUS_clean_linker_0, # of connection points: 2
#     Edge 26, Type (0, 0), BuildingBlock: CIFDUS_clean_linker_0, # of connection points: 2
#     Edge 27, Type (0, 0), BuildingBlock: CIFDUS_clean_linker_0, # of connection points: 2
#     Edge 28, Type (0, 0), BuildingBlock: CIFDUS_clean_linker_0, # of connection points: 2
#     Edge 29, Type (0, 0), BuildingBlock: CIFDUS_clean_linker_0, # of connection points: 2
#     Edge 30, Type (0, 0), BuildingBlock: CIFDUS_clean_linker_0, # of connection points: 2
#     Edge 31, Type (0, 0), BuildingBlock: CIFDUS_clean_linker_0, # of connection points: 2
#     Edge 32, Type (0, 0), BuildingBlock: CIFDUS_clean_linker_0, # of connection points: 2
#     Edge 33, Type (0, 0), BuildingBlock: CIFDUS_clean_linker_0, # of connection points: 2
#     Edge 34, Type (0, 0), BuildingBlock: CIFDUS_clean_linker_0, # of connection points: 2
#     Edge 35, Type (0, 0), BuildingBlock: CIFDUS_clean_linker_0, # of connection points: 2
#     Edge 36, Type (0, 0), BuildingBlock: CIFDUS_clean_linker_0, # of connection points: 2
#     Edge 37, Type (0, 0), BuildingBlock: CIFDUS_clean_linker_0, # of connection points: 2
#     Edge 38, Type (0, 0), BuildingBlock: CIFDUS_clean_linker_0, # of connection points: 2
#     Edge 39, Type (0, 0), BuildingBlock: CIFDUS_clean_linker_0, # of connection points: 2
#     Edge 40, Type (0, 0), BuildingBlock: CIFDUS_clean_linker_0, # of connection points: 2
#     Edge 41, Type (0, 0), BuildingBlock: CIFDUS_clean_linker_0, # of connection points: 2
#     Edge 42, Type (0, 0), BuildingBlock: CIFDUS_clean_linker_0, # of connection points: 2
#     Edge 43, Type (0, 0), BuildingBlock: CIFDUS_clean_linker_0, # of connection points: 2
#     Edge 44, Type (0, 0), BuildingBlock: CIFDUS_clean_linker_0, # of connection points: 2
#     Edge 45, Type (0, 0), BuildingBlock: CIFDUS_clean_linker_0, # of connection points: 2
#     Edge 46, Type (0, 0), BuildingBlock: CIFDUS_clean_linker_0, # of connection points: 2
#     Edge 47, Type (0, 0), BuildingBlock: CIFDUS_clean_linker_0, # of connection points: 2
#     Edge 48, Type (0, 0), BuildingBlock: CIFDUS_clean_linker_0, # of connection points: 2
#     Edge 49, Type (0, 0), BuildingBlock: CIFDUS_clean_linker_0, # of connection points: 2
#     Edge 50, Type (0, 0), BuildingBlock: CIFDUS_clean_linker_0, # of connection points: 2
#     Edge 51, Type (0, 0), BuildingBlock: CIFDUS_clean_linker_0, # of connection points: 2
#     Edge 52, Type (0, 0), BuildingBlock: CIFDUS_clean_linker_0, # of connection points: 2
#     Edge 53, Type (0, 0), BuildingBlock: CIFDUS_clean_linker_0, # of connection points: 2
#     Edge 54, Type (0, 0), BuildingBlock: CIFDUS_clean_linker_0, # of connection points: 2
#     Edge 55, Type (0, 0), BuildingBlock: CIFDUS_clean_linker_0, # of connection points: 2
#     Edge 56, Type (0, 0), BuildingBlock: CIFDUS_clean_linker_0, # of connection points: 2
#     Edge 57, Type (0, 0), BuildingBlock: CIFDUS_clean_linker_0, # of connection points: 2
#     Edge 58, Type (0, 0), BuildingBlock: CIFDUS_clean_linker_0, # of connection points: 2
#     Edge 59, Type (0, 0), BuildingBlock: CIFDUS_clean_linker_0, # of connection points: 2
#     Edge 60, Type (0, 0), BuildingBlock: CIFDUS_clean_linker_0, # of connection points: 2
#     Edge 61, Type (0, 0), BuildingBlock: CIFDUS_clean_linker_0, # of connection points: 2
#     Edge 62, Type (0, 0), BuildingBlock: CIFDUS_clean_linker_0, # of connection points: 2
#     Edge 63, Type (0, 0), BuildingBlock: CIFDUS_clean_linker_0, # of connection points: 2
#     Edge 64, Type (0, 0), BuildingBlock: CIFDUS_clean_linker_0, # of connection points: 2
#     Edge 65, Type (0, 0), BuildingBlock: CIFDUS_clean_linker_0, # of connection points: 2
#     Edge 66, Type (0, 0), BuildingBlock: CIFDUS_clean_linker_0, # of connection points: 2
#     Edge 67, Type (0, 0), BuildingBlock: CIFDUS_clean_linker_0, # of connection points: 2
#     Edge 68, Type (0, 0), BuildingBlock: CIFDUS_clean_linker_0, # of connection points: 2
#     Edge 69, Type (0, 0), BuildingBlock: CIFDUS_clean_linker_0, # of connection points: 2
#     Edge 70, Type (0, 0), BuildingBlock: CIFDUS_clean_linker_0, # of connection points: 2
#     Edge 71, Type (0, 0), BuildingBlock: CIFDUS_clean_linker_0, # of connection points: 2
# Relax obj value: 0.033
# Max RMSD: 0.061
# Mean RMSD: 0.060
data_MOF--net-lcs--node1-GALJAG_clean_sbu_0--edge1-CIFDUS_clean_linker_0
_symmetry_space_group_name_H-M    P1
_symmetry_Int_Tables_number       1
_symmetry_cell_setting            triclinic
loop_
_symmetry_equiv_pos_as_xyz
'x, y, z'
_cell_length_a     43.417628
_cell_length_b     43.397513
_cell_length_c     43.408628
_cell_angle_alpha  90.033103
_cell_angle_beta   90.068634
_cell_angle_gamma 90.104039
loop_
_atom_site_label
_atom_site_type_symbol
_atom_site_fract_x
_atom_site_fract_y
_atom_site_fract_z
_atom_type_partial_charge
In0 In 0.00449 0.25256 0.38155 0.0
O1 O 0.02376 0.2242 0.42163 0.0
O2 O 0.05525 0.25115 0.39581 0.0
C3 C 0.95862 0.27539 0.41724 0.0
C4 C 0.02481 0.29801 0.34397 0.0
C5 C 0.98378 0.20556 0.34588 0.0
O6 O 0.98634 0.28374 0.42002 0.0
O7 O 0.95418 0.25484 0.39717 0.0
O8 O 0.97706 0.23334 0.34068 0.0
O9 O 1.00109 0.20154 0.36882 0.0
C10 C 0.0514 0.23216 0.41743 0.0
O11 O 0.03501 0.27084 0.3426 0.0
O12 O 0.00419 0.30211 0.36396 0.0
In13 In 0.00602 0.75444 0.62091 0.0
O14 O 0.03953 0.75325 0.58015 0.0
O15 O 0.05115 0.72782 0.62031 0.0
C16 C 0.95773 0.77674 0.58833 0.0
C17 C 0.98308 0.70178 0.6456 0.0
C18 C 0.0247 0.80371 0.65439 0.0
O19 O 0.97622 0.75727 0.5773 0.0
O20 O 0.96384 0.78521 0.61544 0.0
O21 O 0.00495 0.78474 0.66436 0.0
O22 O 0.03508 0.79754 0.62797 0.0
C23 C 0.05858 0.73568 0.59334 0.0
O24 O 0.9984 0.72082 0.66149 0.0
O25 O 0.97921 0.70963 0.61795 0.0
In26 In 0.50692 0.75849 0.86325 0.0
O27 O 0.53888 0.75929 0.90559 0.0
O28 O 0.54371 0.72264 0.87356 0.0
C29 C 0.45907 0.78639 0.89187 0.0
C30 C 0.53271 0.80385 0.82902 0.0
C31 C 0.48245 0.70936 0.83356 0.0
O32 O 0.47235 0.76315 0.90324 0.0
O33 O 0.47029 0.79561 0.86677 0.0
O34 O 0.50553 0.72382 0.82327 0.0
O35 O 0.4715 0.72016 0.85817 0.0
C36 C 0.55307 0.73502 0.89811 0.0
O37 O 0.50903 0.78933 0.82027 0.0
O38 O 0.54377 0.79479 0.85431 0.0
In39 In 0.49787 0.2489 0.13342 0.0
O40 O 0.52067 0.23438 0.08791 0.0
O41 O 0.54869 0.23731 0.12776 0.0
C42 C 0.44893 0.26722 0.09947 0.0
C43 C 0.47426 0.204 0.16983 0.0
C44 C 0.51954 0.29775 0.16534 0.0
O45 O 0.45636 0.23922 0.10187 0.0
O46 O 0.46634 0.28561 0.1137 0.0
O47 O 0.51654 0.27144 0.17746 0.0
O48 O 0.51134 0.2993 0.13752 0.0
C49 C 0.54722 0.23164 0.09938 0.0
O50 O 0.46489 0.2315 0.17072 0.0
O51 O 0.49598 0.19935 0.15115 0.0
In52 In 0.99977 0.75169 0.11225 0.0
O53 O 0.01659 0.7264 0.15573 0.0
O54 O 0.00524 0.69968 0.11642 0.0
C55 C 0.98058 0.80582 0.13578 0.0
C56 C 0.05251 0.76855 0.08323 0.0
C57 C 0.94585 0.73437 0.08656 0.0
O58 O 0.98923 0.78379 0.15276 0.0
O59 O 0.98184 0.80051 0.1072 0.0
O60 O 0.97116 0.73245 0.07228 0.0
O61 O 0.9478 0.74499 0.11357 0.0
C62 C 0.01466 0.69994 0.14384 0.0
O63 O 0.02934 0.7587 0.06864 0.0
O64 O 0.04904 0.76951 0.11199 0.0
In65 In 0.50323 0.75156 0.38346 0.0
O66 O 0.48219 0.73071 0.42717 0.0
O67 O 0.45336 0.73589 0.3879 0.0
C68 C 0.54949 0.77134 0.42071 0.0
C69 C 0.52655 0.70756 0.34566 0.0
C70 C 0.48077 0.80059 0.35214 0.0
O71 O 0.54388 0.74319 0.41625 0.0
O72 O 0.53099 0.78939 0.40755 0.0
O73 O 0.50075 0.78279 0.34079 0.0
O74 O 0.47224 0.79362 0.379 0.0
C75 C 0.45571 0.72724 0.41554 0.0
O76 O 0.50117 0.7045 0.35936 0.0
O77 O 0.53949 0.7332 0.35002 0.0
In78 In 0.50715 0.25445 0.63047 0.0
O79 O 0.53909 0.23176 0.66637 0.0
O80 O 0.50078 0.20617 0.65058 0.0
C81 C 0.48188 0.3055 0.65547 0.0
C82 C 0.55767 0.27332 0.59897 0.0
C83 C 0.45873 0.2353 0.59644 0.0
O84 O 0.49506 0.28545 0.672 0.0
O85 O 0.48197 0.29976 0.62702 0.0
O86 O 0.48533 0.23842 0.58489 0.0
O87 O 0.45701 0.24154 0.62478 0.0
C88 C 0.52436 0.20673 0.66738 0.0
O89 O 0.54534 0.28869 0.62023 0.0
O90 O 0.54439 0.24806 0.59309 0.0
In91 In 0.99915 0.25262 0.88835 0.0
O92 O 0.9781 0.23216 0.93211 0.0
O93 O 0.94768 0.25093 0.89873 0.0
C94 C 0.04628 0.27356 0.92351 0.0
C95 C 0.01665 0.20029 0.85886 0.0
C96 C 0.98214 0.29916 0.85007 0.0
O97 O 0.01855 0.28067 0.92845 0.0
O98 O 0.05023 0.25527 0.90126 0.0
O99 O 0.97504 0.27141 0.84512 0.0
O100 O 0.99843 0.30328 0.87371 0.0
C101 C 0.9506 0.23756 0.92435 0.0
O102 O 0.0291 0.22609 0.85373 0.0
O103 O 0.99535 0.20096 0.8785 0.0
In104 In 0.3714 0.99997 0.25918 0.0
O105 O 0.32726 0.01307 0.28443 0.0
O106 O 0.36982 0.01913 0.3081 0.0
C107 C 0.34398 0.98044 0.20632 0.0
C108 C 0.40603 0.04858 0.24021 0.0
C109 C 0.39393 0.94821 0.2854 0.0
O110 O 0.33131 0.9992 0.22445 0.0
O111 O 0.37015 0.97147 0.21493 0.0
O112 O 0.41107 0.96792 0.27257 0.0
O113 O 0.36558 0.95457 0.28493 0.0
C114 C 0.34082 0.02151 0.30879 0.0
O115 O 0.41704 0.02196 0.24371 0.0
O116 O 0.37783 0.05071 0.24652 0.0
In117 In 0.25533 0.13195 0.50972 0.0
O118 O 0.25513 0.08898 0.541 0.0
O119 O 0.22338 0.12475 0.55054 0.0
C120 C 0.27846 0.09445 0.46546 0.0
C121 C 0.20876 0.1643 0.48392 0.0
C122 C 0.29943 0.17006 0.53257 0.0
O123 O 0.29148 0.09861 0.4911 0.0
O124 O 0.25314 0.10832 0.46248 0.0
O125 O 0.30006 0.15993 0.50538 0.0
O126 O 0.27603 0.16204 0.5477 0.0
C127 C 0.23378 0.09877 0.55808 0.0
O128 O 0.23582 0.17495 0.48582 0.0
O129 O 0.20553 0.13742 0.49448 0.0
In130 In 0.1247 0.00418 0.75678 0.0
O131 O 0.08348 0.03344 0.7729 0.0
O132 O 0.12888 0.05107 0.77909 0.0
C133 C 0.10088 0.95522 0.72664 0.0
C134 C 0.14916 0.03123 0.7067 0.0
C135 C 0.14942 0.97674 0.80688 0.0
O136 O 0.08412 0.97275 0.74284 0.0
O137 O 0.129 0.96253 0.72588 0.0
O138 O 0.16545 0.99322 0.78899 0.0
O139 O 0.12148 0.97429 0.79939 0.0
C140 C 0.10034 0.05547 0.78212 0.0
O141 O 0.16549 0.0156 0.72518 0.0
O142 O 0.12096 0.03297 0.71363 0.0
In143 In 0.25862 0.8746 1.00159 0.0
O144 O 0.22252 0.83571 0.00409 0.0
O145 O 0.22196 0.87036 0.03866 0.0
C146 C 0.30528 0.84315 0.9749 0.0
C147 C 0.23436 0.90866 0.95525 0.0
C148 C 0.2871 0.90085 0.05039 0.0
O149 O 0.28682 0.8305 0.99351 0.0
O150 O 0.29962 0.87108 0.96938 0.0
O151 O 0.2657 0.91431 0.03593 0.0
O152 O 0.29409 0.87463 0.04004 0.0
C153 C 0.20991 0.84609 0.02817 0.0
O154 O 0.25562 0.91871 0.97241 0.0
O155 O 0.22508 0.88195 0.96191 0.0
In156 In 0.25034 0.37906 0.00919 0.0
O157 O 0.22502 0.41677 0.036 0.0
O158 O 0.2424 0.37855 0.06113 0.0
C159 C 0.26746 0.41379 0.96013 0.0
C160 C 0.30464 0.35455 0.02718 0.0
C161 C 0.20291 0.34382 0.9893 0.0
O162 O 0.26771 0.42385 0.98737 0.0
O163 O 0.25775 0.38656 0.95746 0.0
O164 O 0.23057 0.33494 0.98802 0.0
O165 O 0.19924 0.37028 1.00079 0.0
C166 C 0.22837 0.40396 0.06192 0.0
O167 O 0.28105 0.33807 0.02263 0.0
O168 O 0.30073 0.3829 0.02234 0.0
In169 In 0.7493 0.13094 0.00982 0.0
O170 O 0.74235 0.10329 0.0541 0.0
O171 O 0.78563 0.09988 0.03183 0.0
C172 C 0.72981 0.0932 0.9639 0.0
C173 C 0.70581 0.16911 0.03274 0.0
C174 C 0.79323 0.17034 0.98972 0.0
O175 O 0.75415 0.1089 0.9621 0.0
O176 O 0.7159 0.09568 0.98922 0.0
O177 O 0.79727 0.15224 0.01205 0.0
O178 O 0.76662 0.1693 0.978 0.0
C179 C 0.76918 0.0923 0.05451 0.0
O180 O 0.70266 0.15499 0.00755 0.0
O181 O 0.73143 0.16496 0.0458 0.0
In182 In 0.11509 0.5061 0.25382 0.0
O183 O 0.15659 0.48497 0.2286 0.0
O184 O 0.11924 0.5017 0.2018 0.0
C185 C 0.14109 0.52221 0.30817 0.0
C186 C 0.09003 0.55975 0.23504 0.0
C187 C 0.08204 0.45562 0.26979 0.0
O188 O 0.15707 0.51773 0.28424 0.0
O189 O 0.11253 0.51846 0.30446 0.0
O190 O 0.0704 0.48222 0.26876 0.0
O191 O 0.10999 0.45447 0.26215 0.0
C192 C 0.14524 0.48889 0.20207 0.0
O193 O 0.07618 0.53423 0.23248 0.0
O194 O 0.1164 0.55823 0.24724 0.0
In195 In 0.75524 0.88167 0.49763 0.0
O196 O 0.74099 0.92442 0.5251 0.0
O197 O 0.74311 0.88101 0.54818 0.0
C198 C 0.7774 0.90244 0.44344 0.0
C199 C 0.80797 0.85869 0.52047 0.0
C200 C 0.70009 0.85774 0.48137 0.0
O201 O 0.76865 0.92063 0.46446 0.0
O202 O 0.7748 0.87422 0.44989 0.0
O203 O 0.72199 0.84078 0.49045 0.0
O204 O 0.70631 0.88611 0.48054 0.0
C205 C 0.73794 0.90956 0.55002 0.0
O206 O 0.78742 0.84129 0.50905 0.0
O207 O 0.80196 0.88713 0.51968 0.0
In208 In 0.888 1.00196 0.24897 0.0
O209 O 0.84646 0.01201 0.21796 0.0
O210 O 0.89125 0.02352 0.20157 0.0
C211 C 0.85012 0.9831 0.29521 0.0
C212 C 0.91936 0.95327 0.22638 0.0
C213 C 0.92218 0.04882 0.27223 0.0
O214 O 0.85216 0.01082 0.28699 0.0
O215 O 0.8663 0.96491 0.27956 0.0
O216 O 0.92966 0.02096 0.27579 0.0
O217 O 0.89803 0.05283 0.25671 0.0
C218 C 0.86264 0.02303 0.19636 0.0
O219 O 0.92922 0.96872 0.24905 0.0
O220 O 0.89409 0.9624 0.21543 0.0
In221 In 0.25435 0.61845 0.50306 0.0
O222 O 0.26113 0.57368 0.53032 0.0
O223 O 0.28317 0.61457 0.54635 0.0
C224 C 0.2331 0.58426 0.45495 0.0
C225 C 0.20893 0.6497 0.5324 0.0
C226 C 0.29985 0.65461 0.48022 0.0
O227 O 0.26135 0.58664 0.46115 0.0
O228 O 0.21573 0.59818 0.47347 0.0
O229 O 0.27174 0.65981 0.47488 0.0
O230 O 0.3048 0.63168 0.49727 0.0
C231 C 0.27799 0.58626 0.55056 0.0
O232 O 0.22214 0.66044 0.50883 0.0
O233 O 0.21875 0.62383 0.54092 0.0
In234 In 0.37597 0.50087 0.75892 0.0
O235 O 0.33713 0.50985 0.72403 0.0
O236 O 0.38082 0.5308 0.71645 0.0
C237 C 0.34032 0.47757 0.80442 0.0
C238 C 0.40982 0.45173 0.74035 0.0
C239 C 0.39879 0.55351 0.78272 0.0
O240 O 0.33123 0.47884 0.77681 0.0
O241 O 0.36711 0.48785 0.80889 0.0
O242 O 0.41567 0.53414 0.76897 0.0
O243 O 0.37072 0.54606 0.78467 0.0
C244 C 0.35358 0.52693 0.70712 0.0
O245 O 0.41735 0.46763 0.76351 0.0
O246 O 0.38579 0.46073 0.72696 0.0
In247 In 0.64241 0.00997 0.75109 0.0
O248 O 0.6817 0.99215 0.72086 0.0
O249 O 0.63952 0.00372 0.69899 0.0
C250 C 0.67276 0.02829 0.80203 0.0
C251 C 0.61492 0.06437 0.73901 0.0
C252 C 0.61842 0.95565 0.77017 0.0
O253 O 0.68594 0.02555 0.77621 0.0
O254 O 0.64435 0.02192 0.802 0.0
O255 O 0.6015 0.97689 0.75962 0.0
O256 O 0.64674 0.96191 0.77067 0.0
C257 C 0.66661 0.99384 0.69607 0.0
O258 O 0.59949 0.03999 0.74353 0.0
O259 O 0.64373 0.06109 0.74085 0.0
In260 In 0.74736 0.62114 0.99664 0.0
O261 O 0.73742 0.58256 0.03195 0.0
O262 O 0.72485 0.62834 0.04327 0.0
C263 C 0.76687 0.58844 0.94762 0.0
C264 C 0.69633 0.64516 0.97033 0.0
C265 C 0.80081 0.6495 0.01232 0.0
O266 O 0.7601 0.57583 0.97303 0.0
O267 O 0.76349 0.61736 0.94701 0.0
O268 O 0.77575 0.66403 0.01007 0.0
O269 O 0.7988 0.62109 0.00684 0.0
C270 C 0.72545 0.60052 0.05142 0.0
O271 O 0.71813 0.66193 0.98001 0.0
O272 O 0.70037 0.6166 0.97392 0.0
In273 In 0.88808 0.5032 0.75311 0.0
O274 O 0.90599 0.53458 0.71512 0.0
O275 O 0.9234 0.54241 0.76003 0.0
C276 C 0.92038 0.45656 0.77869 0.0
C277 C 0.84744 0.52581 0.79511 0.0
C278 C 0.86244 0.47584 0.70337 0.0
O279 O 0.93127 0.48354 0.77668 0.0
O280 O 0.89345 0.45347 0.76822 0.0
O281 O 0.84723 0.49365 0.72067 0.0
O282 O 0.89018 0.47216 0.71112 0.0
C283 C 0.92295 0.55081 0.73221 0.0
O284 O 0.85227 0.53841 0.76945 0.0
O285 O 0.86234 0.50131 0.79927 0.0
In286 In 0.75568 0.38339 0.50245 0.0
O287 O 0.72478 0.34238 0.51607 0.0
O288 O 0.71169 0.38734 0.53029 0.0
C289 C 0.80263 0.34822 0.48125 0.0
C290 C 0.73602 0.41348 0.45117 0.0
C291 C 0.77799 0.41284 0.55254 0.0
O292 O 0.77553 0.33796 0.48391 0.0
O293 O 0.80588 0.376 0.4891 0.0
O294 O 0.76207 0.4264 0.53231 0.0
O295 O 0.78277 0.38462 0.54739 0.0
C296 C 0.70548 0.35895 0.53019 0.0
O297 O 0.75912 0.42232 0.46641 0.0
O298 O 0.7232 0.38968 0.46165 0.0
In299 In 0.62307 0.50279 0.25159 0.0
O300 O 0.57826 0.52654 0.26577 0.0
O301 O 0.62026 0.55111 0.27191 0.0
C302 C 0.59144 0.45588 0.22527 0.0
C303 C 0.65804 0.52191 0.20344 0.0
C304 C 0.64772 0.48127 0.3046 0.0
O305 O 0.5844 0.48373 0.22081 0.0
O306 O 0.61436 0.45187 0.24257 0.0
O307 O 0.66388 0.49549 0.28496 0.0
O308 O 0.61967 0.4787 0.2976 0.0
C309 C 0.5913 0.5511 0.27447 0.0
O310 O 0.66425 0.49772 0.21833 0.0
O311 O 0.63489 0.53632 0.21318 0.0
H312 H 0.10054 0.39598 0.26818 0.0
H313 H 0.02593 0.45434 0.29797 0.0
H314 H 1.00075 0.41022 0.32233 0.0
H315 H 1.00176 0.35581 0.33813 0.0
H316 H 0.07606 0.29735 0.30777 0.0
H317 H 0.09946 0.34072 0.2805 0.0
C318 C 0.07862 0.39897 0.27976 0.0
C319 C 0.06523 0.4284 0.28149 0.0
C320 C 0.06432 0.37353 0.29374 0.0
C321 C 0.03672 0.43191 0.29635 0.0
C322 C 0.02237 0.40672 0.31038 0.0
C323 C 0.02295 0.35252 0.32533 0.0
C324 C 0.03732 0.3235 0.32518 0.0
C325 C 0.03624 0.37755 0.30969 0.0
C326 C 0.0646 0.31949 0.30829 0.0
C327 C 0.07803 0.34429 0.29276 0.0
H328 H 0.92626 0.82922 0.59911 0.0
H329 H 0.9282 0.74958 0.53977 0.0
H330 H 0.88129 0.76723 0.51379 0.0
H331 H 0.83909 0.80532 0.50859 0.0
H332 H 0.84008 0.88653 0.56593 0.0
H333 H 0.88632 0.8683 0.59208 0.0
C334 C 0.91643 0.81578 0.58043 0.0
C335 C 0.93048 0.7881 0.57145 0.0
C336 C 0.8899 0.82634 0.56532 0.0
C337 C 0.91776 0.77104 0.54701 0.0
C338 C 0.8909 0.78106 0.53225 0.0
C339 C 0.84951 0.81891 0.52682 0.0
C340 C 0.83618 0.84711 0.53546 0.0
C341 C 0.87665 0.80863 0.54131 0.0
C342 C 0.85002 0.86477 0.55884 0.0
C343 C 0.87642 0.85436 0.57385 0.0
H344 H 0.45192 0.58316 0.76737 0.0
H345 H 0.37157 0.59022 0.82531 0.0
H346 H 0.39007 0.63937 0.84561 0.0
H347 H 0.42921 0.68004 0.84737 0.0
H348 H 0.50873 0.67453 0.78817 0.0
H349 H 0.4903 0.62527 0.76762 0.0
C350 C 0.43858 0.59545 0.78452 0.0
C351 C 0.41056 0.58301 0.79502 0.0
C352 C 0.44909 0.62404 0.79569 0.0
C353 C 0.39324 0.59933 0.81692 0.0
C354 C 0.40378 0.62743 0.82852 0.0
C355 C 0.44244 0.66814 0.82985 0.0
C356 C 0.47032 0.68084 0.81936 0.0
C357 C 0.43166 0.63999 0.8181 0.0
C358 C 0.48713 0.66525 0.79655 0.0
C359 C 0.47668 0.63702 0.7849 0.0
H360 H 0.60649 0.22995 0.11871 0.0
H361 H 0.5489 0.21179 0.03967 0.0
H362 H 0.59362 0.19301 0.01105 0.0
H363 H 0.64844 0.17883 0.00975 0.0
H364 H 0.70576 0.19684 0.08907 0.0
H365 H 0.66181 0.21898 0.11622 0.0
C366 C 0.60374 0.22202 0.09517 0.0
C367 C 0.57441 0.22195 0.08141 0.0
C368 C 0.62949 0.21127 0.07892 0.0
C369 C 0.57124 0.2119 0.05081 0.0
C370 C 0.59679 0.20116 0.03445 0.0
C371 C 0.65139 0.18796 0.03283 0.0
C372 C 0.68027 0.18607 0.04744 0.0
C373 C 0.62594 0.20034 0.04844 0.0
C374 C 0.68376 0.19802 0.07732 0.0
C375 C 0.65862 0.21056 0.09292 0.0
H376 H 0.04469 0.5666 0.19272 0.0
H377 H 0.10697 0.61824 0.25054 0.0
H378 H 0.08746 0.66658 0.2291 0.0
H379 H 0.05429 0.69406 0.19203 0.0
H380 H 0.99519 0.64184 0.13142 0.0
H381 H 0.01165 0.5939 0.15586 0.0
C382 C 0.05376 0.58847 0.2008 0.0
C383 C 0.07712 0.58892 0.22322 0.0
C384 C 0.04306 0.61606 0.18777 0.0
C385 C 0.08899 0.61736 0.23325 0.0
C386 C 0.07784 0.64498 0.22101 0.0
C387 C 0.04484 0.67217 0.18445 0.0
C388 C 0.02352 0.67141 0.16007 0.0
C389 C 0.05511 0.64461 0.198 0.0
C390 C 0.01171 0.64294 0.15012 0.0
C391 C 0.0211 0.61554 0.16407 0.0
H392 H 0.56706 0.83051 0.42987 0.0
H393 H 0.59485 0.73681 0.44754 0.0
H394 H 0.64372 0.75511 0.46905 0.0
H395 H 0.67993 0.79789 0.47996 0.0
H396 H 0.6515 0.8913 0.46121 0.0
H397 H 0.6017 0.87296 0.44303 0.0
C398 C 0.58365 0.81408 0.43875 0.0
C399 C 0.57736 0.78237 0.43704 0.0
C400 C 0.61179 0.82472 0.45066 0.0
C401 C 0.59913 0.76138 0.44862 0.0
C402 C 0.62714 0.77182 0.4608 0.0
C403 C 0.66275 0.81418 0.47204 0.0
C404 C 0.66955 0.84589 0.47176 0.0
C405 C 0.63397 0.80345 0.46145 0.0
C406 C 0.64699 0.86675 0.46154 0.0
C407 C 0.61843 0.8563 0.45114 0.0
H408 H 0.48949 0.33283 0.71199 0.0
H409 H 0.43957 0.34034 0.62625 0.0
H410 H 0.4132 0.38602 0.64503 0.0
H411 H 0.40391 0.42369 0.68544 0.0
H412 H 0.45457 0.41892 0.77077 0.0
H413 H 0.48122 0.37251 0.75253 0.0
C414 C 0.4728 0.34452 0.69755 0.0
C415 C 0.46642 0.33317 0.66782 0.0
C416 C 0.45794 0.37128 0.70834 0.0
C417 C 0.44496 0.34864 0.64918 0.0
C418 C 0.42982 0.37477 0.65989 0.0
C419 C 0.4208 0.41253 0.70009 0.0
C420 C 0.42717 0.42456 0.72944 0.0
C421 C 0.43611 0.38626 0.68937 0.0
C422 C 0.44933 0.41005 0.74803 0.0
C423 C 0.46447 0.38349 0.73764 0.0
H424 H 0.89 0.24328 0.90988 0.0
H425 H 0.95126 0.20786 0.9797 0.0
H426 H 0.90745 0.18606 0.00751 0.0
H427 H 0.85228 0.17378 0.00992 0.0
H428 H 0.79113 0.20806 0.93945 0.0
H429 H 0.83432 0.23382 0.91411 0.0
C430 C 0.89373 0.23106 0.93135 0.0
C431 C 0.92385 0.227 0.94261 0.0
C432 C 0.86847 0.21828 0.94703 0.0
C433 C 0.92831 0.21118 0.97048 0.0
C434 C 0.90328 0.19866 0.98637 0.0
C435 C 0.84834 0.1872 0.98922 0.0
C436 C 0.81858 0.18887 0.97649 0.0
C437 C 0.87333 0.20158 0.97455 0.0
C438 C 0.81383 0.20638 0.94969 0.0
C439 C 0.83854 0.22103 0.93513 0.0
H440 H 0.25405 0.08064 0.40933 0.0
H441 H 0.3361 0.06985 0.46445 0.0
H442 H 0.3625 0.04587 0.421 0.0
H443 H 0.36314 0.03021 0.36658 0.0
H444 H 0.28086 0.03985 0.31166 0.0
H445 H 0.25371 0.06199 0.35573 0.0
C446 C 0.27761 0.07277 0.4119 0.0
C447 C 0.29313 0.07715 0.44003 0.0
C448 C 0.29269 0.059 0.38678 0.0
C449 C 0.32362 0.06675 0.44304 0.0
C450 C 0.33879 0.05313 0.41816 0.0
C451 C 0.33924 0.03709 0.36431 0.0
C452 C 0.32411 0.03366 0.33586 0.0
C453 C 0.32371 0.04955 0.3898 0.0
C454 C 0.29305 0.04234 0.33332 0.0
C455 C 0.27751 0.05503 0.3585 0.0
H456 H 0.2025 0.01855 0.67581 0.0
H457 H 0.1233 0.07849 0.67546 0.0
H458 H 0.14251 0.10445 0.62955 0.0
H459 H 0.18158 0.11038 0.58959 0.0
H460 H 0.25986 0.04942 0.58754 0.0
H461 H 0.2412 0.02344 0.6341 0.0
C462 C 0.18959 0.03736 0.66568 0.0
C463 C 0.16162 0.04671 0.67908 0.0
C464 C 0.2005 0.05189 0.63879 0.0
C465 C 0.14488 0.07085 0.66555 0.0
C466 C 0.15583 0.08574 0.6393 0.0
C467 C 0.19456 0.09137 0.59929 0.0
C468 C 0.2221 0.0819 0.58526 0.0
C469 C 0.18356 0.07645 0.62573 0.0
C470 C 0.23853 0.05707 0.59793 0.0
C471 C 0.22792 0.0423 0.62459 0.0
H472 H 0.20179 0.99061 0.8391 0.0
H473 H 0.12461 0.92788 0.83661 0.0
H474 H 0.14391 0.90158 0.88231 0.0
H475 H 0.18266 0.89604 0.92285 0.0
H476 H 0.25879 0.95981 0.9276 0.0
H477 H 0.2399 0.98622 0.88143 0.0
C478 C 0.18934 0.97112 0.84857 0.0
C479 C 0.16193 0.96108 0.83441 0.0
C480 C 0.20027 0.9564 0.87535 0.0
C481 C 0.14576 0.93605 0.8471 0.0
C482 C 0.15677 0.92098 0.87324 0.0
C483 C 0.19508 0.91579 0.91384 0.0
C484 C 0.22212 0.9259 0.92853 0.0
C485 C 0.18395 0.93094 0.88755 0.0
C486 C 0.23784 0.95164 0.91673 0.0
C487 C 0.22712 0.96666 0.89027 0.0
H488 H 0.2675 0.94858 0.08625 0.0
H489 H 0.34036 0.88176 0.07683 0.0
H490 H 0.36461 0.90091 0.12382 0.0
H491 H 0.36463 0.93567 0.16821 0.0
H492 H 0.29104 1.00136 0.17933 0.0
H493 H 0.26752 0.98362 0.13117 0.0
C494 C 0.2888 0.93842 0.09441 0.0
C495 C 0.30217 0.91386 0.07806 0.0
C496 C 0.30239 0.9492 0.12184 0.0
C497 C 0.3296 0.90067 0.08903 0.0
C498 C 0.34349 0.91158 0.11591 0.0
C499 C 0.34347 0.94616 0.16008 0.0
C500 C 0.3296 0.96979 0.17729 0.0
C501 C 0.32998 0.93566 0.13261 0.0
C502 C 0.30212 0.98306 0.16652 0.0
C503 C 0.2887 0.97297 0.13896 0.0
H504 H 0.3211 0.29433 0.03525 0.0
H505 H 0.35449 0.38756 0.04537 0.0
H506 H 0.40239 0.36859 0.06749 0.0
H507 H 0.434 0.32597 0.08592 0.0
H508 H 0.40194 0.23242 0.07556 0.0
H509 H 0.35447 0.25101 0.05132 0.0
C510 C 0.33896 0.31042 0.04216 0.0
C511 C 0.33417 0.3423 0.03884 0.0
C512 C 0.36666 0.29933 0.05483 0.0
C513 C 0.35757 0.36291 0.04771 0.0
C514 C 0.38498 0.3521 0.06041 0.0
C515 C 0.4167 0.30961 0.07821 0.0
C516 C 0.42134 0.27791 0.08268 0.0
C517 C 0.38964 0.32043 0.06436 0.0
C518 C 0.39885 0.25697 0.07237 0.0
C519 C 0.37169 0.26759 0.05861 0.0
H520 H 0.99028 0.83075 0.19266 0.0
H521 H 0.94338 0.84631 0.10639 0.0
H522 H 0.9207 0.89349 0.12677 0.0
H523 H 0.91291 0.92948 0.16942 0.0
H524 H 0.96174 0.91638 0.25493 0.0
H525 H 0.98522 0.86922 0.23454 0.0
C526 C 0.97516 0.84458 0.17838 0.0
C527 C 0.96831 0.835 0.14817 0.0
C528 C 0.9626 0.87207 0.19009 0.0
C529 C 0.949 0.85324 0.12971 0.0
C530 C 0.93597 0.88018 0.14136 0.0
C531 C 0.92879 0.91635 0.18355 0.0
C532 C 0.93542 0.92614 0.21368 0.0
C533 C 0.94243 0.88967 0.17154 0.0
C534 C 0.95633 0.90922 0.23163 0.0
C535 C 0.96963 0.88223 0.22002 0.0
H536 H 0.17263 0.69667 0.51148 0.0
H537 H 0.18743 0.63684 0.58946 0.0
H538 H 0.14308 0.65908 0.6156 0.0
H539 H 0.09886 0.69378 0.61563 0.0
H540 H 0.08204 0.75246 0.53727 0.0
H541 H 0.1283 0.7325 0.512 0.0
C542 C 0.16625 0.68877 0.53431 0.0
C543 C 0.18326 0.66515 0.54851 0.0
C544 C 0.14025 0.7013 0.54907 0.0
C545 C 0.17464 0.65493 0.57798 0.0
C546 C 0.14927 0.66761 0.59297 0.0
C547 C 0.10538 0.70234 0.59308 0.0
C548 C 0.08704 0.72452 0.57833 0.0
C549 C 0.1317 0.69052 0.5786 0.0
C550 C 0.09576 0.73531 0.54908 0.0
C551 C 0.12221 0.72391 0.53463 0.0
H552 H 0.98913 0.67784 0.70376 0.0
H553 H 0.94971 0.65925 0.61427 0.0
H554 H 0.92922 0.61046 0.63281 0.0
H555 H 0.92129 0.57354 0.67435 0.0
H556 H 0.95943 0.59132 0.76441 0.0
H557 H 0.98186 0.6397 0.7457 0.0
C558 C 0.97606 0.66307 0.68838 0.0
C559 C 0.97088 0.67228 0.6577 0.0
C560 C 0.9642 0.63483 0.69923 0.0
C561 C 0.95398 0.65283 0.63801 0.0
C562 C 0.94226 0.62485 0.64856 0.0
C563 C 0.9347 0.58785 0.68988 0.0
C564 C 0.9387 0.57883 0.72071 0.0
C565 C 0.94712 0.61568 0.6791 0.0
C566 C 0.95608 0.59771 0.74053 0.0
C567 C 0.9688 0.62543 0.72986 0.0
H568 H 0.14801 0.15174 0.49009 0.0
H569 H 0.21107 0.21609 0.44815 0.0
H570 H 0.16778 0.24367 0.42477 0.0
H571 H 0.11201 0.24823 0.41478 0.0
H572 H 0.04918 0.18449 0.45813 0.0
H573 H 0.09235 0.15812 0.48268 0.0
C574 C 0.15227 0.17183 0.47585 0.0
C575 C 0.18269 0.1817 0.47059 0.0
C576 C 0.12731 0.18771 0.46282 0.0
C577 C 0.18785 0.208 0.45245 0.0
C578 C 0.16312 0.22374 0.43907 0.0
C579 C 0.10777 0.22873 0.42981 0.0
C580 C 0.07743 0.21826 0.43452 0.0
C581 C 0.13275 0.21366 0.44391 0.0
C582 C 0.07229 0.19304 0.45415 0.0
C583 C 0.09698 0.17786 0.4681 0.0
H584 H 0.59179 0.39643 0.24399 0.0
H585 H 0.55286 0.45712 0.17565 0.0
H586 H 0.52654 0.41344 0.1514 0.0
H587 H 0.51607 0.35778 0.14874 0.0
H588 H 0.55314 0.29748 0.21846 0.0
H589 H 0.5786 0.34131 0.24328 0.0
C590 C 0.57749 0.40007 0.22381 0.0
C591 C 0.57445 0.42984 0.2114 0.0
C592 C 0.56212 0.37497 0.21032 0.0
C593 C 0.55555 0.43437 0.18554 0.0
C594 C 0.54057 0.40942 0.17167 0.0
C595 C 0.52961 0.35428 0.16947 0.0
C596 C 0.53293 0.32446 0.18168 0.0
C597 C 0.5439 0.3796 0.18372 0.0
C598 C 0.55024 0.32025 0.20868 0.0
C599 C 0.56488 0.34527 0.22279 0.0
H600 H 0.34473 0.86564 0.93239 0.0
H601 H 0.32722 0.78557 0.98857 0.0
H602 H 0.37409 0.76118 0.96882 0.0
H603 H 0.42034 0.76291 0.93552 0.0
H604 H 0.4362 0.84286 0.8786 0.0
H605 H 0.38987 0.8671 0.89893 0.0
C606 C 0.35108 0.84279 0.94026 0.0
C607 C 0.33254 0.82743 0.96189 0.0
C608 C 0.37792 0.82899 0.92883 0.0
C609 C 0.34107 0.79783 0.97182 0.0
C610 C 0.36792 0.78394 0.96064 0.0
C611 C 0.41371 0.78572 0.92779 0.0
C612 C 0.43175 0.80115 0.90572 0.0
C613 C 0.38663 0.79937 0.93922 0.0
C614 C 0.42272 0.83053 0.89559 0.0
C615 C 0.3962 0.8444 0.90716 0.0
H616 H 0.90829 0.39591 0.77114 0.0
H617 H 0.97051 0.45864 0.81684 0.0
H618 H 0.99624 0.41517 0.842 0.0
H619 H 0.99915 0.35946 0.85293 0.0
H620 H 0.93771 0.29693 0.80578 0.0
H621 H 0.91374 0.3402 0.77899 0.0
C622 C 0.92757 0.40005 0.78654 0.0
C623 C 0.93731 0.43042 0.79243 0.0
C624 C 0.94236 0.37499 0.8006 0.0
C625 C 0.96257 0.43545 0.81204 0.0
C626 C 0.97722 0.41062 0.82645 0.0
C627 C 0.98071 0.3553 0.83657 0.0
C628 C 0.97007 0.32505 0.83149 0.0
C629 C 0.96706 0.38031 0.82118 0.0
C630 C 0.94631 0.31998 0.81009 0.0
C631 C 0.9325 0.34472 0.79486 0.0
H632 H 0.35638 0.18042 0.50833 0.0
H633 H 0.30079 0.19727 0.58895 0.0
H634 H 0.34502 0.22011 0.61517 0.0
H635 H 0.39996 0.23231 0.6165 0.0
H636 H 0.45642 0.21488 0.53669 0.0
H637 H 0.41136 0.19525 0.50879 0.0
C638 C 0.35389 0.18948 0.53148 0.0
C639 C 0.32536 0.1871 0.54671 0.0
C640 C 0.3796 0.20217 0.54665 0.0
C641 C 0.32249 0.19879 0.57675 0.0
C642 C 0.3478 0.21176 0.5918 0.0
C643 C 0.40243 0.22433 0.59294 0.0
C644 C 0.43153 0.22481 0.57875 0.0
C645 C 0.37655 0.21304 0.5772 0.0
C646 C 0.43428 0.21463 0.54815 0.0
C647 C 0.40853 0.20341 0.53222 0.0
H648 H 0.50299 0.65079 0.33285 0.0
H649 H 0.58396 0.70725 0.32054 0.0
H650 H 0.61098 0.66391 0.29713 0.0
H651 H 0.61253 0.60932 0.28239 0.0
H652 H 0.53143 0.55289 0.2935 0.0
H653 H 0.50355 0.5968 0.31516 0.0
C654 C 0.52644 0.65366 0.32475 0.0
C655 C 0.54147 0.68217 0.32854 0.0
C656 C 0.54191 0.62858 0.31135 0.0
C657 C 0.57184 0.68557 0.31788 0.0
C658 C 0.58738 0.66075 0.30461 0.0
C659 C 0.58873 0.60666 0.28953 0.0
C660 C 0.57413 0.57786 0.28663 0.0
C661 C 0.5728 0.63204 0.30164 0.0
C662 C 0.54319 0.57482 0.2956 0.0
C663 C 0.52725 0.59991 0.30798 0.0
H664 H 0.09827 0.80169 0.10928 0.0
H665 H 0.07089 0.75967 0.02345 0.0
H666 H 0.11828 0.77836 0.99902 0.0
H667 H 0.16705 0.80807 1.00196 0.0
H668 H 0.19182 0.85251 0.08742 0.0
H669 H 0.14603 0.83133 0.11215 0.0
C670 C 0.10271 0.79647 0.08525 0.0
C671 C 0.08118 0.77924 0.06822 0.0
C672 C 0.12958 0.80775 0.07132 0.0
C673 C 0.08713 0.77293 0.03704 0.0
C674 C 0.11422 0.78358 0.02309 0.0
C675 C 0.16247 0.81284 0.02605 0.0
C676 C 0.18281 0.8317 0.0429 0.0
C677 C 0.13557 0.80118 0.03998 0.0
C678 C 0.17647 0.83808 0.07398 0.0
C679 C 0.1503 0.82599 0.08814 0.0
H680 H 0.70029 0.9587 0.55907 0.0
H681 H 0.75662 0.89238 0.60684 0.0
H682 H 0.74154 0.91439 0.65639 0.0
H683 H 0.71042 0.95084 0.68626 0.0
H684 H 0.64983 0.01367 0.63903 0.0
H685 H 0.66843 0.99491 0.5892 0.0
C686 C 0.70939 0.94935 0.58038 0.0
C687 C 0.72955 0.92411 0.57947 0.0
C688 C 0.69975 0.96142 0.60884 0.0
C689 C 0.74094 0.91178 0.60712 0.0
C690 C 0.73237 0.92435 0.63541 0.0
C691 C 0.70157 0.96059 0.66502 0.0
C692 C 0.679 0.98366 0.66617 0.0
C693 C 0.71153 0.94893 0.63657 0.0
C694 C 0.66726 0.99584 0.63859 0.0
C695 C 0.67786 0.98513 0.61014 0.0
H696 H 0.84251 0.92469 0.31569 0.0
H697 H 0.8184 0.01887 0.33618 0.0
H698 H 0.79315 1.00233 0.38378 0.0
H699 H 0.77993 0.96111 0.42078 0.0
H700 H 0.80411 0.86707 0.39943 0.0
H701 H 0.82735 0.88357 0.3511 0.0
C702 C 0.83151 0.94159 0.33044 0.0
C703 C 0.83241 0.97295 0.32248 0.0
C704 C 0.81723 0.93195 0.35777 0.0
C705 C 0.818 0.99456 0.34179 0.0
C706 C 0.80367 0.98513 0.36908 0.0
C707 C 0.79021 0.94427 0.40547 0.0
C708 C 0.79043 0.91294 0.41378 0.0
C709 C 0.80349 0.95391 0.37751 0.0
C710 C 0.80366 0.89134 0.39363 0.0
C711 C 0.81698 0.90073 0.36595 0.0
H712 H 0.82886 0.07928 0.06687 0.0
H713 H 0.73681 0.06707 0.10212 0.0
H714 H 0.75748 0.04317 0.14879 0.0
H715 H 0.80202 0.02853 0.18088 0.0
H716 H 0.89398 0.04303 0.14606 0.0
H717 H 0.87307 0.06332 0.09804 0.0
C718 C 0.8133 0.07102 0.08459 0.0
C719 C 0.78138 0.07489 0.08107 0.0
C720 C 0.82537 0.05802 0.11161 0.0
C721 C 0.76151 0.06434 0.10433 0.0
C722 C 0.77331 0.05078 0.13106 0.0
C723 C 0.81743 0.03601 0.16271 0.0
C724 C 0.84948 0.03442 0.16709 0.0
C725 C 0.80524 0.04798 0.13518 0.0
C726 C 0.8692 0.04416 0.14334 0.0
C727 C 0.85728 0.05573 0.11583 0.0
H728 H 0.65092 0.02878 0.86048 0.0
H729 H 0.73112 0.0514 0.80638 0.0
H730 H 0.75684 0.07166 0.8523 0.0
H731 H 0.75528 0.08561 0.90724 0.0
H732 H 0.67499 0.06273 0.96116 0.0
H733 H 0.6507 0.03959 0.91595 0.0
C734 C 0.67408 0.03802 0.85877 0.0
C735 C 0.68899 0.03887 0.83005 0.0
C736 C 0.68871 0.04955 0.88523 0.0
C737 C 0.71911 0.05062 0.82822 0.0
C738 C 0.73381 0.06222 0.85446 0.0
C739 C 0.73261 0.07524 0.90915 0.0
C740 C 0.71689 0.07603 0.93746 0.0
C741 C 0.71867 0.06217 0.883 0.0
C742 C 0.68758 0.06244 0.93963 0.0
C743 C 0.67361 0.04931 0.91376 0.0
H744 H 0.57653 0.67748 0.89481 0.0
H745 H 0.58895 0.76484 0.94056 0.0
H746 H 0.63491 0.74506 0.96669 0.0
H747 H 0.67237 0.703 0.97549 0.0
H748 H 0.6576 0.61496 0.93167 0.0
H749 H 0.61187 0.6349 0.90577 0.0
C750 C 0.58924 0.69215 0.9106 0.0
C751 C 0.5795 0.7226 0.91564 0.0
C752 C 0.61532 0.68051 0.92576 0.0
C753 C 0.59598 0.74127 0.93638 0.0
C754 C 0.62232 0.73001 0.95121 0.0
C755 C 0.65909 0.68827 0.96024 0.0
C756 C 0.66845 0.65764 0.95529 0.0
C757 C 0.63236 0.69972 0.94589 0.0
C758 C 0.65086 0.63862 0.93583 0.0
C759 C 0.62472 0.65 0.92099 0.0
H760 H 0.04339 0.06683 0.80646 0.0
H761 H 0.13032 0.11013 0.78523 0.0
H762 H 0.11161 0.15906 0.80542 0.0
H763 H 0.07109 0.18951 0.83028 0.0
H764 H 0.98531 0.14592 0.85495 0.0
H765 H 0.00285 0.09738 0.83229 0.0
C766 C 0.05812 0.08704 0.80621 0.0
C767 C 0.08817 0.08485 0.79437 0.0
C768 C 0.04742 0.1151 0.8185 0.0
C769 C 0.10714 0.11115 0.79438 0.0
C770 C 0.09645 0.1392 0.80586 0.0
C771 C 0.05618 0.16944 0.83048 0.0
C772 C 0.02691 0.17133 0.8441 0.0
C773 C 0.06671 0.14143 0.81812 0.0
C774 C 0.00796 0.14503 0.84457 0.0
C775 C 0.01798 0.11726 0.83163 0.0
H776 H 0.89818 0.25853 0.41816 0.0
H777 H 0.96169 0.32651 0.45355 0.0
H778 H 0.91906 0.35467 0.47698 0.0
H779 H 0.86353 0.36144 0.48522 0.0
H780 H 0.7999 0.29298 0.45113 0.0
H781 H 0.84275 0.26352 0.42943 0.0
C782 C 0.9027 0.27936 0.43124 0.0
C783 C 0.93306 0.29049 0.43398 0.0
C784 C 0.87804 0.29545 0.4447 0.0
C785 C 0.93856 0.31743 0.45112 0.0
C786 C 0.91417 0.33362 0.46442 0.0
C787 C 0.85906 0.34001 0.47312 0.0
C788 C 0.82858 0.32954 0.46952 0.0
C789 C 0.88379 0.3231 0.46098 0.0
C790 C 0.82316 0.30156 0.45412 0.0
C791 C 0.84765 0.28474 0.44169 0.0
H792 H 0.56299 0.92773 0.75834 0.0
H793 H 0.64769 0.91719 0.80935 0.0
H794 H 0.62913 0.86891 0.83111 0.0
H795 H 0.58849 0.83034 0.83702 0.0
H796 H 0.50444 0.83865 0.78473 0.0
H797 H 0.52315 0.88678 0.76183 0.0
C798 C 0.57729 0.91479 0.7742 0.0
C799 C 0.60656 0.92613 0.78239 0.0
C800 C 0.56668 0.88656 0.7863 0.0
C801 C 0.62506 0.90897 0.80267 0.0
C802 C 0.61449 0.88134 0.81517 0.0
C803 C 0.57436 0.84256 0.82042 0.0
C804 C 0.54511 0.83106 0.81267 0.0
C805 C 0.58531 0.87 0.80729 0.0
C806 C 0.52713 0.84701 0.79097 0.0
C807 C 0.53774 0.87461 0.77802 0.0
H808 H 0.99894 0.14497 0.35007 0.0
H809 H 0.94036 0.2082 0.30062 0.0
H810 H 0.91711 0.16526 0.27253 0.0
H811 H 0.91177 0.1097 0.26372 0.0
H812 H 0.97038 0.04623 0.31276 0.0
H813 H 0.99548 0.08936 0.33916 0.0
C814 C 0.9812 0.14934 0.33301 0.0
C815 C 0.97125 0.1797 0.32755 0.0
C816 C 0.96794 0.12453 0.31693 0.0
C817 C 0.94839 0.18505 0.30526 0.0
C818 C 0.93505 0.1605 0.28923 0.0
C819 C 0.93018 0.1053 0.28004 0.0
C820 C 0.9391 0.07482 0.28642 0.0
C821 C 0.9444 0.13015 0.29513 0.0
C822 C 0.96309 0.06949 0.30748 0.0
C823 C 0.97738 0.09413 0.32263 0.0
H824 H 0.55553 0.07568 0.72189 0.0
H825 H 0.64324 0.12018 0.73675 0.0
H826 H 0.6222 0.16895 0.71849 0.0
H827 H 0.58003 0.19818 0.69473 0.0
H828 H 0.49296 0.15331 0.67756 0.0
H829 H 0.51241 0.10575 0.70049 0.0
C830 C 0.56989 0.09615 0.72145 0.0
C831 C 0.60092 0.09426 0.73052 0.0
C832 C 0.55778 0.1241 0.71037 0.0
C833 C 0.6193 0.12096 0.72973 0.0
C834 C 0.6073 0.14889 0.71927 0.0
C835 C 0.56519 0.17811 0.6964 0.0
C836 C 0.53515 0.17925 0.6844 0.0
C837 C 0.57674 0.15062 0.70901 0.0
C838 C 0.51624 0.153 0.68656 0.0
C839 C 0.52736 0.12576 0.69961 0.0
H840 H 0.14192 0.35402 0.99781 0.0
H841 H 0.20571 0.29239 0.95321 0.0
H842 H 0.16276 0.2642 0.92988 0.0
H843 H 0.10709 0.25879 0.92007 0.0
H844 H 0.04347 0.31997 0.96563 0.0
H845 H 0.08629 0.34644 0.99083 0.0
C846 C 0.1464 0.33431 0.98311 0.0
C847 C 0.17693 0.32545 0.97704 0.0
C848 C 0.12162 0.31816 0.96991 0.0
C849 C 0.1824 0.29969 0.9582 0.0
C850 C 0.15785 0.28361 0.9448 0.0
C851 C 0.10261 0.27775 0.93572 0.0
C852 C 0.07216 0.28752 0.94082 0.0
C853 C 0.12738 0.29288 0.95018 0.0
C854 C 0.06669 0.31201 0.96128 0.0
C855 C 0.09118 0.32723 0.97564 0.0
H856 H 0.39504 0.73083 0.40111 0.0
H857 H 0.45789 0.69303 0.46814 0.0
H858 H 0.41496 0.6679 0.49466 0.0
H859 H 0.35985 0.65502 0.49751 0.0
H860 H 0.29669 0.69448 0.43174 0.0
H861 H 0.33942 0.72086 0.40611 0.0
C862 C 0.39929 0.71716 0.42159 0.0
C863 C 0.42959 0.71352 0.43252 0.0
C864 C 0.37447 0.70312 0.4369 0.0
C865 C 0.43476 0.69611 0.45928 0.0
C866 C 0.41025 0.6817 0.4744 0.0
C867 C 0.35543 0.66956 0.47767 0.0
C868 C 0.32521 0.67265 0.46637 0.0
C869 C 0.38006 0.68481 0.46324 0.0
C870 C 0.31976 0.69177 0.44086 0.0
C871 C 0.34419 0.70675 0.42614 0.0
H872 H 0.83212 0.50173 0.85093 0.0
H873 H 0.81981 0.58208 0.79375 0.0
H874 H 0.79257 0.60805 0.83551 0.0
H875 H 0.77509 0.60918 0.88928 0.0
H876 H 0.78673 0.52877 0.94647 0.0
H877 H 0.81122 0.50153 0.90369 0.0
C878 C 0.82319 0.5248 0.84752 0.0
C879 C 0.82815 0.54002 0.81934 0.0
C880 C 0.80759 0.53966 0.8717 0.0
C881 C 0.81634 0.56986 0.81522 0.0
C882 C 0.80084 0.58478 0.83913 0.0
C883 C 0.7828 0.58562 0.89232 0.0
C884 C 0.77934 0.5711 0.92107 0.0
C885 C 0.7968 0.5701 0.86763 0.0
C886 C 0.78918 0.54048 0.92458 0.0
C887 C 0.80326 0.52491 0.90014 0.0
H888 H 0.65481 0.57754 0.17598 0.0
H889 H 0.69972 0.48928 0.16902 0.0
H890 H 0.72485 0.50563 0.12114 0.0
H891 H 0.73252 0.54479 0.08019 0.0
H892 H 0.68832 0.63336 0.08916 0.0
H893 H 0.66445 0.61708 0.13721 0.0
C894 C 0.67022 0.5619 0.16408 0.0
C895 C 0.67527 0.5322 0.1759 0.0
C896 C 0.6846 0.57148 0.1368 0.0
C897 C 0.6955 0.5123 0.16037 0.0
C898 C 0.70976 0.5216 0.13294 0.0
C899 C 0.7177 0.56047 0.09275 0.0
C900 C 0.71206 0.59018 0.08101 0.0
C901 C 0.70423 0.55107 0.12075 0.0
C902 C 0.69304 0.61038 0.09765 0.0
C903 C 0.67933 0.6011 0.12515 0.0
H904 H 0.68056 0.40604 0.42418 0.0
H905 H 0.76532 0.45732 0.41638 0.0
H906 H 0.74579 0.48301 0.36999 0.0
H907 H 0.70436 0.49033 0.3312 0.0
H908 H 0.61912 0.44003 0.34151 0.0
H909 H 0.63906 0.41462 0.38729 0.0
C910 C 0.6948 0.42282 0.41232 0.0
C911 C 0.72439 0.42963 0.42353 0.0
C912 C 0.68329 0.43771 0.38608 0.0
C913 C 0.74244 0.45168 0.40814 0.0
C914 C 0.73129 0.46633 0.38161 0.0
C915 C 0.69022 0.47385 0.34355 0.0
C916 C 0.66034 0.46704 0.33289 0.0
C917 C 0.70173 0.45946 0.3703 0.0
C918 C 0.64216 0.44577 0.34923 0.0
C919 C 0.65355 0.43114 0.37541 0.0
H920 H 0.8135 0.49392 0.66846 0.0
H921 H 0.8822 0.4228 0.67731 0.0
H922 H 0.86163 0.3966 0.63194 0.0
H923 H 0.82462 0.39414 0.58934 0.0
H924 H 0.75809 0.46688 0.5778 0.0
H925 H 0.77729 0.4923 0.62444 0.0
C926 C 0.82379 0.47261 0.66046 0.0
C927 C 0.84918 0.46018 0.67623 0.0
C928 C 0.81233 0.45806 0.63381 0.0
C929 C 0.86264 0.4328 0.66548 0.0
C930 C 0.8509 0.4178 0.63956 0.0
C931 C 0.8143 0.41554 0.59709 0.0
C932 C 0.78992 0.42857 0.5803 0.0
C933 C 0.82585 0.43027 0.62348 0.0
C934 C 0.77697 0.45646 0.59035 0.0
C935 C 0.78787 0.47095 0.61704 0.0
H936 H 0.38992 0.10894 0.24029 0.0
H937 H 0.46282 0.04715 0.2134 0.0
H938 H 0.49112 0.0901 0.19034 0.0
H939 H 0.49383 0.1448 0.17552 0.0
H940 H 0.42135 0.20668 0.20343 0.0
H941 H 0.39433 0.16418 0.22861 0.0
C942 C 0.41209 0.10492 0.22953 0.0
C943 C 0.42416 0.07489 0.22833 0.0
C944 C 0.42828 0.12973 0.21648 0.0
C945 C 0.45303 0.07006 0.21459 0.0
C946 C 0.46919 0.09459 0.20134 0.0
C947 C 0.47224 0.14901 0.18733 0.0
C948 C 0.45951 0.17881 0.18744 0.0
C949 C 0.45685 0.12446 0.2018 0.0
C950 C 0.43163 0.18396 0.203 0.0
C951 C 0.41611 0.15965 0.21731 0.0
H952 H 0.0735 0.84038 0.64205 0.0
H953 H 0.99794 0.82932 0.70548 0.0
H954 H 0.01373 0.87624 0.7328 0.0
H955 H 0.04959 0.92049 0.73873 0.0
H956 H 0.12649 0.92895 0.67644 0.0
H957 H 0.10951 0.88322 0.64851 0.0
C958 C 0.06046 0.84822 0.66186 0.0
C959 C 0.03457 0.83145 0.67169 0.0
C960 C 0.06988 0.87488 0.6776 0.0
C961 C 0.01805 0.84179 0.69752 0.0
C962 C 0.027 0.86867 0.71308 0.0
C963 C 0.06242 0.91236 0.71891 0.0
C964 C 0.08916 0.92813 0.70956 0.0
C965 C 0.0529 0.88546 0.70331 0.0
C966 C 0.10585 0.91717 0.68411 0.0
C967 C 0.09618 0.89101 0.66812 0.0
H968 H 0.42708 0.83006 0.36314 0.0
H969 H 0.507 0.83187 0.30431 0.0
H970 H 0.4876 0.8783 0.27877 0.0
H971 H 0.44801 0.91886 0.27375 0.0
H972 H 0.36655 0.91452 0.33037 0.0
H973 H 0.38639 0.86864 0.35621 0.0
C974 C 0.44022 0.84063 0.3447 0.0
C975 C 0.46851 0.82776 0.33573 0.0
C976 C 0.42864 0.86688 0.32979 0.0
C977 C 0.48513 0.84139 0.31156 0.0
C978 C 0.47409 0.86796 0.29703 0.0
C979 C 0.43468 0.90782 0.29177 0.0
C980 C 0.40598 0.92012 0.30033 0.0
C981 C 0.44593 0.881 0.30606 0.0
C982 C 0.3887 0.90543 0.32339 0.0
C983 C 0.40004 0.87924 0.33821 0.0
H984 H 0.80954 0.6994 0.04921 0.0
H985 H 0.85809 0.63162 0.99538 0.0
H986 H 0.90745 0.65353 0.01157 0.0
H987 H 0.9369 0.69038 0.04309 0.0
H988 H 0.88851 0.75478 0.10104 0.0
H989 H 0.83911 0.736 0.08125 0.0
C990 C 0.83097 0.6897 0.04085 0.0
C991 C 0.83029 0.66409 0.02105 0.0
C992 C 0.85929 0.70175 0.05113 0.0
C993 C 0.85813 0.65135 0.0107 0.0
C994 C 0.88633 0.66385 0.01993 0.0
C995 C 0.91551 0.70045 0.05111 0.0
C996 C 0.91625 0.72399 0.07332 0.0
C997 C 0.88721 0.68882 0.04043 0.0
C998 C 0.88843 0.73658 0.08394 0.0
C999 C 0.86021 0.72587 0.07264 0.0
H1000 H 0.58428 0.3293 0.60412 0.0
H1001 H 0.59396 0.24189 0.55786 0.0
H1002 H 0.64117 0.26025 0.53283 0.0
H1003 H 0.67989 0.30151 0.52436 0.0
H1004 H 0.66827 0.38906 0.5701 0.0
H1005 H 0.62174 0.37023 0.59513 0.0
C1006 C 0.59668 0.31422 0.58854 0.0
C1007 C 0.58569 0.28426 0.58291 0.0
C1008 C 0.62355 0.32496 0.5742 0.0
C1009 C 0.60194 0.26509 0.56253 0.0
C1010 C 0.62896 0.27556 0.54829 0.0
C1011 C 0.66718 0.31636 0.53989 0.0
C1012 C 0.67759 0.34661 0.54543 0.0
C1013 C 0.64005 0.30547 0.55401 0.0
C1014 C 0.66076 0.3657 0.5654 0.0
C1015 C 0.63413 0.35497 0.57976 0.0
H1016 H 0.18886 0.45199 0.0685 0.0
H1017 H 0.24201 0.38617 0.12054 0.0
H1018 H 0.22267 0.40795 0.1687 0.0
H1019 H 0.18929 0.44477 0.1961 0.0
H1020 H 0.13391 0.50846 0.14378 0.0
H1021 H 0.1556 0.4887 0.09579 0.0
C1022 C 0.19628 0.44251 0.0904 0.0
C1023 C 0.21682 0.41752 0.09096 0.0
C1024 C 0.18469 0.45482 0.11799 0.0
C1025 C 0.22611 0.40535 0.11949 0.0
C1026 C 0.21511 0.41782 0.14705 0.0
C1027 C 0.18225 0.45449 0.17419 0.0
C1028 C 0.16015 0.4781 0.17345 0.0
C1029 C 0.19424 0.44246 0.1466 0.0
C1030 C 0.15089 0.49024 0.14491 0.0
C1031 C 0.16325 0.47894 0.11746 0.0
H1032 H 0.34415 0.49176 0.86487 0.0
H1033 H 0.2945 0.4346 0.80043 0.0
H1034 H 0.26648 0.41032 0.84301 0.0
H1035 H 0.25833 0.40352 0.89894 0.0
H1036 H 0.30606 0.46305 0.9628 0.0
H1037 H 0.3324 0.48848 0.92009 0.0
C1038 C 0.32706 0.47409 0.86018 0.0
C1039 C 0.32159 0.46466 0.82969 0.0
C1040 C 0.31074 0.4607 0.88467 0.0
C1041 C 0.29909 0.44215 0.82378 0.0
C1042 C 0.28315 0.42823 0.84811 0.0
C1043 C 0.27427 0.42227 0.90341 0.0
C1044 C 0.28044 0.43126 0.93396 0.0
C1045 C 0.28909 0.43705 0.87869 0.0
C1046 C 0.30091 0.45575 0.93948 0.0
C1047 C 0.31609 0.4702 0.91509 0.0
H1048 H 0.32386 0.60453 0.58834 0.0
H1049 H 0.25755 0.5317 0.57473 0.0
H1050 H 0.27421 0.50721 0.62281 0.0
H1051 H 0.3073 0.50723 0.66938 0.0
H1052 H 0.37535 0.57892 0.68063 0.0
H1053 H 0.35821 0.60329 0.63297 0.0
C1054 C 0.31314 0.58322 0.59584 0.0
C1055 C 0.28945 0.56998 0.57815 0.0
C1056 C 0.32301 0.56922 0.62321 0.0
C1057 C 0.27593 0.54224 0.58795 0.0
C1058 C 0.28534 0.52834 0.6155 0.0
C1059 C 0.31819 0.52825 0.66137 0.0
C1060 C 0.34234 0.54145 0.67854 0.0
C1061 C 0.30872 0.54177 0.63346 0.0
C1062 C 0.35668 0.56839 0.66777 0.0
C1063 C 0.34692 0.58233 0.64054 0.0
H1064 H 0.2018 0.5274 0.32444 0.0
H1065 H 0.10947 0.53937 0.35918 0.0
H1066 H 0.12982 0.55807 0.40804 0.0
H1067 H 0.17354 0.57314 0.44027 0.0
H1068 H 0.26615 0.56099 0.40662 0.0
H1069 H 0.24606 0.53997 0.35822 0.0
C1070 C 0.1862 0.534 0.34278 0.0
C1071 C 0.15417 0.53218 0.33807 0.0
C1072 C 0.19808 0.54467 0.37105 0.0
C1073 C 0.13422 0.5406 0.36212 0.0
C1074 C 0.14582 0.55133 0.39012 0.0
C1075 C 0.18935 0.56566 0.42245 0.0
C1076 C 0.22126 0.56874 0.42697 0.0
C1077 C 0.17766 0.55374 0.39474 0.0
C1078 C 0.24146 0.55881 0.40371 0.0
C1079 C 0.22998 0.54692 0.37598 0.0
loop_
_geom_bond_atom_site_label_1
_geom_bond_atom_site_label_2
_geom_bond_distance
_geom_bond_site_symmetry_2
_ccdc_geom_bond_type
In0 O1 2.308 . S
In0 O2 2.347 . S
In0 O6 2.252 1_455 S
In0 O7 2.305 1_455 S
In0 O8 2.257 1_455 S
In0 O9 2.315 1_455 S
In0 O11 2.303 . S
In0 O12 2.338 . S
O1 In0 2.308 . S
O1 C10 1.240 . S
O2 In0 2.347 . S
O2 C10 1.252 . S
C3 O6 1.252 . S
C3 O7 1.260 . S
C4 O11 1.240 . S
C4 O12 1.252 . S
C5 O8 1.252 . S
C5 O9 1.260 . S
O6 In0 2.252 1_655 S
O6 C3 1.252 . S
O7 In0 2.305 1_655 S
O7 C3 1.260 . S
O8 In0 2.257 1_655 S
O8 C5 1.252 . S
O9 In0 2.315 1_655 S
O9 C5 1.260 . S
C10 O1 1.240 . S
C10 O2 1.252 . S
O11 In0 2.303 . S
O11 C4 1.240 . S
O12 In0 2.338 . S
O12 C4 1.252 . S
In13 O14 2.309 . S
In13 O15 2.350 . S
In13 O19 2.252 1_455 S
In13 O20 2.301 1_455 S
In13 O21 2.271 . S
In13 O22 2.337 . S
In13 O24 2.289 1_455 S
In13 O25 2.316 1_455 S
O14 In13 2.309 . S
O14 C23 1.240 . S
O15 In13 2.350 . S
O15 C23 1.252 . S
C16 O19 1.252 . S
C16 O20 1.260 . S
C17 O24 1.240 . S
C17 O25 1.252 . S
C18 O21 1.252 . S
C18 O22 1.260 . S
O19 In13 2.252 1_655 S
O19 C16 1.252 . S
O20 In13 2.301 1_655 S
O20 C16 1.260 . S
O21 In13 2.271 . S
O21 C18 1.252 . S
O22 In13 2.337 . S
O22 C18 1.260 . S
C23 O14 1.240 . S
C23 O15 1.252 . S
O24 In13 2.289 1_655 S
O24 C17 1.240 . S
O25 In13 2.316 1_655 S
O25 C17 1.252 . S
In26 O27 2.294 . S
In26 O28 2.326 . S
In26 O32 2.266 . S
In26 O33 2.326 . S
In26 O34 2.266 . S
In26 O35 2.326 . S
In26 O37 2.294 . S
In26 O38 2.326 . S
O27 In26 2.294 . S
O27 C36 1.240 . S
O28 In26 2.326 . S
O28 C36 1.252 . S
C29 O32 1.252 . S
C29 O33 1.260 . S
C30 O37 1.240 . S
C30 O38 1.252 . S
C31 O34 1.252 . S
C31 O35 1.260 . S
O32 In26 2.266 . S
O32 C29 1.252 . S
O33 In26 2.326 . S
O33 C29 1.260 . S
O34 In26 2.266 . S
O34 C31 1.252 . S
O35 In26 2.326 . S
O35 C31 1.260 . S
C36 O27 1.240 . S
C36 O28 1.252 . S
O37 In26 2.294 . S
O37 C30 1.240 . S
O38 In26 2.326 . S
O38 C30 1.252 . S
In39 O40 2.294 . S
In39 O41 2.326 . S
In39 O45 2.266 . S
In39 O46 2.326 . S
In39 O47 2.266 . S
In39 O48 2.326 . S
In39 O50 2.294 . S
In39 O51 2.326 . S
O40 In39 2.294 . S
O40 C49 1.240 . S
O41 In39 2.326 . S
O41 C49 1.252 . S
C42 O45 1.252 . S
C42 O46 1.260 . S
C43 O50 1.240 . S
C43 O51 1.252 . S
C44 O47 1.252 . S
C44 O48 1.260 . S
O45 In39 2.266 . S
O45 C42 1.252 . S
O46 In39 2.326 . S
O46 C42 1.260 . S
O47 In39 2.266 . S
O47 C44 1.252 . S
O48 In39 2.326 . S
O48 C44 1.260 . S
C49 O40 1.240 . S
C49 O41 1.252 . S
O50 In39 2.294 . S
O50 C43 1.240 . S
O51 In39 2.326 . S
O51 C43 1.252 . S
In52 O53 2.303 . S
In52 O54 2.339 . S
In52 O58 2.257 1_455 S
In52 O59 2.314 1_455 S
In52 O60 2.251 1_455 S
In52 O61 2.304 1_455 S
In52 O63 2.309 . S
In52 O64 2.348 . S
O53 In52 2.303 . S
O53 C62 1.240 . S
O54 In52 2.339 . S
O54 C62 1.252 . S
C55 O58 1.252 . S
C55 O59 1.260 . S
C56 O63 1.240 . S
C56 O64 1.252 . S
C57 O60 1.252 . S
C57 O61 1.260 . S
O58 In52 2.257 1_655 S
O58 C55 1.252 . S
O59 In52 2.314 1_655 S
O59 C55 1.260 . S
O60 In52 2.251 1_655 S
O60 C57 1.252 . S
O61 In52 2.304 1_655 S
O61 C57 1.260 . S
C62 O53 1.240 . S
C62 O54 1.252 . S
O63 In52 2.309 . S
O63 C56 1.240 . S
O64 In52 2.348 . S
O64 C56 1.252 . S
In65 O66 2.294 . S
In65 O67 2.326 . S
In65 O71 2.266 . S
In65 O72 2.326 . S
In65 O73 2.266 . S
In65 O74 2.326 . S
In65 O76 2.294 . S
In65 O77 2.326 . S
O66 In65 2.294 . S
O66 C75 1.240 . S
O67 In65 2.326 . S
O67 C75 1.252 . S
C68 O71 1.252 . S
C68 O72 1.260 . S
C69 O76 1.240 . S
C69 O77 1.252 . S
C70 O73 1.252 . S
C70 O74 1.260 . S
O71 In65 2.266 . S
O71 C68 1.252 . S
O72 In65 2.326 . S
O72 C68 1.260 . S
O73 In65 2.266 . S
O73 C70 1.252 . S
O74 In65 2.326 . S
O74 C70 1.260 . S
C75 O66 1.240 . S
C75 O67 1.252 . S
O76 In65 2.294 . S
O76 C69 1.240 . S
O77 In65 2.326 . S
O77 C69 1.252 . S
In78 O79 2.294 . S
In78 O80 2.326 . S
In78 O84 2.266 . S
In78 O85 2.326 . S
In78 O86 2.266 . S
In78 O87 2.326 . S
In78 O89 2.294 . S
In78 O90 2.326 . S
O79 In78 2.294 . S
O79 C88 1.240 . S
O80 In78 2.326 . S
O80 C88 1.252 . S
C81 O84 1.252 . S
C81 O85 1.260 . S
C82 O89 1.240 . S
C82 O90 1.252 . S
C83 O86 1.252 . S
C83 O87 1.260 . S
O84 In78 2.266 . S
O84 C81 1.252 . S
O85 In78 2.326 . S
O85 C81 1.260 . S
O86 In78 2.266 . S
O86 C83 1.252 . S
O87 In78 2.326 . S
O87 C83 1.260 . S
C88 O79 1.240 . S
C88 O80 1.252 . S
O89 In78 2.294 . S
O89 C82 1.240 . S
O90 In78 2.326 . S
O90 C82 1.252 . S
In91 O92 2.290 1_455 S
In91 O93 2.320 1_455 S
In91 O97 2.270 . S
In91 O98 2.332 . S
In91 O99 2.265 1_455 S
In91 O100 2.323 1_455 S
In91 O102 2.295 . S
In91 O103 2.329 . S
O92 In91 2.290 1_655 S
O92 C101 1.240 . S
O93 In91 2.320 1_655 S
O93 C101 1.252 . S
C94 O97 1.252 . S
C94 O98 1.260 . S
C95 O102 1.240 . S
C95 O103 1.252 . S
C96 O99 1.252 . S
C96 O100 1.260 . S
O97 In91 2.270 . S
O97 C94 1.252 . S
O98 In91 2.332 . S
O98 C94 1.260 . S
O99 In91 2.265 1_655 S
O99 C96 1.252 . S
O100 In91 2.323 1_655 S
O100 C96 1.260 . S
C101 O92 1.240 . S
C101 O93 1.252 . S
O102 In91 2.295 . S
O102 C95 1.240 . S
O103 In91 2.329 . S
O103 C95 1.252 . S
In104 O105 2.303 . S
In104 O106 2.338 . S
In104 O110 2.257 1_545 S
In104 O111 2.315 1_545 S
In104 O112 2.252 1_545 S
In104 O113 2.305 1_545 S
In104 O115 2.308 . S
In104 O116 2.347 . S
O105 In104 2.303 . S
O105 C114 1.240 . S
O106 In104 2.338 . S
O106 C114 1.252 . S
C107 O110 1.252 . S
C107 O111 1.260 . S
C108 O115 1.240 . S
C108 O116 1.252 . S
C109 O112 1.252 . S
C109 O113 1.260 . S
O110 In104 2.257 1_565 S
O110 C107 1.252 . S
O111 In104 2.315 1_565 S
O111 C107 1.260 . S
O112 In104 2.252 1_565 S
O112 C109 1.252 . S
O113 In104 2.305 1_565 S
O113 C109 1.260 . S
C114 O105 1.240 . S
C114 O106 1.252 . S
O115 In104 2.308 . S
O115 C108 1.240 . S
O116 In104 2.347 . S
O116 C108 1.252 . S
In117 O118 2.294 . S
In117 O119 2.326 . S
In117 O123 2.266 . S
In117 O124 2.326 . S
In117 O125 2.266 . S
In117 O126 2.326 . S
In117 O128 2.294 . S
In117 O129 2.326 . S
O118 In117 2.294 . S
O118 C127 1.240 . S
O119 In117 2.326 . S
O119 C127 1.252 . S
C120 O123 1.252 . S
C120 O124 1.260 . S
C121 O128 1.240 . S
C121 O129 1.252 . S
C122 O125 1.252 . S
C122 O126 1.260 . S
O123 In117 2.266 . S
O123 C120 1.252 . S
O124 In117 2.326 . S
O124 C120 1.260 . S
O125 In117 2.266 . S
O125 C122 1.252 . S
O126 In117 2.326 . S
O126 C122 1.260 . S
C127 O118 1.240 . S
C127 O119 1.252 . S
O128 In117 2.294 . S
O128 C121 1.240 . S
O129 In117 2.326 . S
O129 C121 1.252 . S
In130 O131 2.309 . S
In130 O132 2.348 . S
In130 O136 2.251 1_545 S
In130 O137 2.304 1_545 S
In130 O138 2.257 1_545 S
In130 O139 2.314 1_545 S
In130 O141 2.303 . S
In130 O142 2.339 . S
O131 In130 2.309 . S
O131 C140 1.240 . S
O132 In130 2.348 . S
O132 C140 1.252 . S
C133 O136 1.252 . S
C133 O137 1.260 . S
C134 O141 1.240 . S
C134 O142 1.252 . S
C135 O138 1.252 . S
C135 O139 1.260 . S
O136 In130 2.251 1_565 S
O136 C133 1.252 . S
O137 In130 2.304 1_565 S
O137 C133 1.260 . S
O138 In130 2.257 1_565 S
O138 C135 1.252 . S
O139 In130 2.314 1_565 S
O139 C135 1.260 . S
C140 O131 1.240 . S
C140 O132 1.252 . S
O141 In130 2.303 . S
O141 C134 1.240 . S
O142 In130 2.339 . S
O142 C134 1.252 . S
In143 O144 2.295 . S
In143 O145 2.329 . S
In143 O149 2.265 1_554 S
In143 O150 2.323 1_554 S
In143 O151 2.270 . S
In143 O152 2.332 . S
In143 O154 2.290 1_554 S
In143 O155 2.320 1_554 S
O144 In143 2.295 . S
O144 C153 1.240 . S
O145 In143 2.329 . S
O145 C153 1.252 . S
C146 O149 1.252 . S
C146 O150 1.260 . S
C147 O154 1.240 . S
C147 O155 1.252 . S
C148 O151 1.252 . S
C148 O152 1.260 . S
O149 In143 2.265 1_556 S
O149 C146 1.252 . S
O150 In143 2.323 1_556 S
O150 C146 1.260 . S
O151 In143 2.270 . S
O151 C148 1.252 . S
O152 In143 2.332 . S
O152 C148 1.260 . S
C153 O144 1.240 . S
C153 O145 1.252 . S
O154 In143 2.290 1_556 S
O154 C147 1.240 . S
O155 In143 2.320 1_556 S
O155 C147 1.252 . S
In156 O157 2.308 . S
In156 O158 2.347 . S
In156 O162 2.252 1_554 S
In156 O163 2.305 1_554 S
In156 O164 2.257 1_554 S
In156 O165 2.315 1_554 S
In156 O167 2.303 . S
In156 O168 2.338 . S
O157 In156 2.308 . S
O157 C166 1.240 . S
O158 In156 2.347 . S
O158 C166 1.252 . S
C159 O162 1.252 . S
C159 O163 1.260 . S
C160 O167 1.240 . S
C160 O168 1.252 . S
C161 O164 1.252 . S
C161 O165 1.260 . S
O162 In156 2.252 1_556 S
O162 C159 1.252 . S
O163 In156 2.305 1_556 S
O163 C159 1.260 . S
O164 In156 2.257 1_556 S
O164 C161 1.252 . S
O165 In156 2.315 1_556 S
O165 C161 1.260 . S
C166 O157 1.240 . S
C166 O158 1.252 . S
O167 In156 2.303 . S
O167 C160 1.240 . S
O168 In156 2.338 . S
O168 C160 1.252 . S
In169 O170 2.309 . S
In169 O171 2.348 . S
In169 O175 2.251 1_554 S
In169 O176 2.304 1_554 S
In169 O177 2.257 1_554 S
In169 O178 2.314 1_554 S
In169 O180 2.303 . S
In169 O181 2.339 . S
O170 In169 2.309 . S
O170 C179 1.240 . S
O171 In169 2.348 . S
O171 C179 1.252 . S
C172 O175 1.252 . S
C172 O176 1.260 . S
C173 O180 1.240 . S
C173 O181 1.252 . S
C174 O177 1.252 . S
C174 O178 1.260 . S
O175 In169 2.251 1_556 S
O175 C172 1.252 . S
O176 In169 2.304 1_556 S
O176 C172 1.260 . S
O177 In169 2.257 1_556 S
O177 C174 1.252 . S
O178 In169 2.314 1_556 S
O178 C174 1.260 . S
C179 O170 1.240 . S
C179 O171 1.252 . S
O180 In169 2.303 . S
O180 C173 1.240 . S
O181 In169 2.339 . S
O181 C173 1.252 . S
In182 O183 2.294 . S
In182 O184 2.326 . S
In182 O188 2.266 . S
In182 O189 2.326 . S
In182 O190 2.266 . S
In182 O191 2.326 . S
In182 O193 2.294 . S
In182 O194 2.326 . S
O183 In182 2.294 . S
O183 C192 1.240 . S
O184 In182 2.326 . S
O184 C192 1.252 . S
C185 O188 1.252 . S
C185 O189 1.260 . S
C186 O193 1.240 . S
C186 O194 1.252 . S
C187 O190 1.252 . S
C187 O191 1.260 . S
O188 In182 2.266 . S
O188 C185 1.252 . S
O189 In182 2.326 . S
O189 C185 1.260 . S
O190 In182 2.266 . S
O190 C187 1.252 . S
O191 In182 2.326 . S
O191 C187 1.260 . S
C192 O183 1.240 . S
C192 O184 1.252 . S
O193 In182 2.294 . S
O193 C186 1.240 . S
O194 In182 2.326 . S
O194 C186 1.252 . S
In195 O196 2.294 . S
In195 O197 2.326 . S
In195 O201 2.266 . S
In195 O202 2.326 . S
In195 O203 2.266 . S
In195 O204 2.326 . S
In195 O206 2.294 . S
In195 O207 2.326 . S
O196 In195 2.294 . S
O196 C205 1.240 . S
O197 In195 2.326 . S
O197 C205 1.252 . S
C198 O201 1.252 . S
C198 O202 1.260 . S
C199 O206 1.240 . S
C199 O207 1.252 . S
C200 O203 1.252 . S
C200 O204 1.260 . S
O201 In195 2.266 . S
O201 C198 1.252 . S
O202 In195 2.326 . S
O202 C198 1.260 . S
O203 In195 2.266 . S
O203 C200 1.252 . S
O204 In195 2.326 . S
O204 C200 1.260 . S
C205 O196 1.240 . S
C205 O197 1.252 . S
O206 In195 2.294 . S
O206 C199 1.240 . S
O207 In195 2.326 . S
O207 C199 1.252 . S
In208 O209 2.295 . S
In208 O210 2.329 . S
In208 O214 2.265 1_545 S
In208 O215 2.323 1_545 S
In208 O216 2.270 . S
In208 O217 2.332 . S
In208 O219 2.290 1_545 S
In208 O220 2.320 1_545 S
O209 In208 2.295 . S
O209 C218 1.240 . S
O210 In208 2.329 . S
O210 C218 1.252 . S
C211 O214 1.252 . S
C211 O215 1.260 . S
C212 O219 1.240 . S
C212 O220 1.252 . S
C213 O216 1.252 . S
C213 O217 1.260 . S
O214 In208 2.265 1_565 S
O214 C211 1.252 . S
O215 In208 2.323 1_565 S
O215 C211 1.260 . S
O216 In208 2.270 . S
O216 C213 1.252 . S
O217 In208 2.332 . S
O217 C213 1.260 . S
C218 O209 1.240 . S
C218 O210 1.252 . S
O219 In208 2.290 1_565 S
O219 C212 1.240 . S
O220 In208 2.320 1_565 S
O220 C212 1.252 . S
In221 O222 2.294 . S
In221 O223 2.326 . S
In221 O227 2.266 . S
In221 O228 2.326 . S
In221 O229 2.266 . S
In221 O230 2.326 . S
In221 O232 2.294 . S
In221 O233 2.326 . S
O222 In221 2.294 . S
O222 C231 1.240 . S
O223 In221 2.326 . S
O223 C231 1.252 . S
C224 O227 1.252 . S
C224 O228 1.260 . S
C225 O232 1.240 . S
C225 O233 1.252 . S
C226 O229 1.252 . S
C226 O230 1.260 . S
O227 In221 2.266 . S
O227 C224 1.252 . S
O228 In221 2.326 . S
O228 C224 1.260 . S
O229 In221 2.266 . S
O229 C226 1.252 . S
O230 In221 2.326 . S
O230 C226 1.260 . S
C231 O222 1.240 . S
C231 O223 1.252 . S
O232 In221 2.294 . S
O232 C225 1.240 . S
O233 In221 2.326 . S
O233 C225 1.252 . S
In234 O235 2.294 . S
In234 O236 2.326 . S
In234 O240 2.266 . S
In234 O241 2.326 . S
In234 O242 2.266 . S
In234 O243 2.326 . S
In234 O245 2.294 . S
In234 O246 2.326 . S
O235 In234 2.294 . S
O235 C244 1.240 . S
O236 In234 2.326 . S
O236 C244 1.252 . S
C237 O240 1.252 . S
C237 O241 1.260 . S
C238 O245 1.240 . S
C238 O246 1.252 . S
C239 O242 1.252 . S
C239 O243 1.260 . S
O240 In234 2.266 . S
O240 C237 1.252 . S
O241 In234 2.326 . S
O241 C237 1.260 . S
O242 In234 2.266 . S
O242 C239 1.252 . S
O243 In234 2.326 . S
O243 C239 1.260 . S
C244 O235 1.240 . S
C244 O236 1.252 . S
O245 In234 2.294 . S
O245 C238 1.240 . S
O246 In234 2.326 . S
O246 C238 1.252 . S
In247 O248 2.289 1_545 S
In247 O249 2.316 1_545 S
In247 O253 2.271 . S
In247 O254 2.337 . S
In247 O255 2.252 1_545 S
In247 O256 2.301 1_545 S
In247 O258 2.309 . S
In247 O259 2.350 . S
O248 In247 2.289 1_565 S
O248 C257 1.240 . S
O249 In247 2.316 1_565 S
O249 C257 1.252 . S
C250 O253 1.252 . S
C250 O254 1.260 . S
C251 O258 1.240 . S
C251 O259 1.252 . S
C252 O255 1.252 . S
C252 O256 1.260 . S
O253 In247 2.271 . S
O253 C250 1.252 . S
O254 In247 2.337 . S
O254 C250 1.260 . S
O255 In247 2.252 1_565 S
O255 C252 1.252 . S
O256 In247 2.301 1_565 S
O256 C252 1.260 . S
C257 O248 1.240 . S
C257 O249 1.252 . S
O258 In247 2.309 . S
O258 C251 1.240 . S
O259 In247 2.350 . S
O259 C251 1.252 . S
In260 O261 2.309 . S
In260 O262 2.350 . S
In260 O266 2.252 1_554 S
In260 O267 2.301 1_554 S
In260 O268 2.271 . S
In260 O269 2.337 . S
In260 O271 2.289 1_554 S
In260 O272 2.316 1_554 S
O261 In260 2.309 . S
O261 C270 1.240 . S
O262 In260 2.350 . S
O262 C270 1.252 . S
C263 O266 1.252 . S
C263 O267 1.260 . S
C264 O271 1.240 . S
C264 O272 1.252 . S
C265 O268 1.252 . S
C265 O269 1.260 . S
O266 In260 2.252 1_556 S
O266 C263 1.252 . S
O267 In260 2.301 1_556 S
O267 C263 1.260 . S
O268 In260 2.271 . S
O268 C265 1.252 . S
O269 In260 2.337 . S
O269 C265 1.260 . S
C270 O261 1.240 . S
C270 O262 1.252 . S
O271 In260 2.289 1_556 S
O271 C264 1.240 . S
O272 In260 2.316 1_556 S
O272 C264 1.252 . S
In273 O274 2.294 . S
In273 O275 2.326 . S
In273 O279 2.266 . S
In273 O280 2.326 . S
In273 O281 2.266 . S
In273 O282 2.326 . S
In273 O284 2.294 . S
In273 O285 2.326 . S
O274 In273 2.294 . S
O274 C283 1.240 . S
O275 In273 2.326 . S
O275 C283 1.252 . S
C276 O279 1.252 . S
C276 O280 1.260 . S
C277 O284 1.240 . S
C277 O285 1.252 . S
C278 O281 1.252 . S
C278 O282 1.260 . S
O279 In273 2.266 . S
O279 C276 1.252 . S
O280 In273 2.326 . S
O280 C276 1.260 . S
O281 In273 2.266 . S
O281 C278 1.252 . S
O282 In273 2.326 . S
O282 C278 1.260 . S
C283 O274 1.240 . S
C283 O275 1.252 . S
O284 In273 2.294 . S
O284 C277 1.240 . S
O285 In273 2.326 . S
O285 C277 1.252 . S
In286 O287 2.294 . S
In286 O288 2.326 . S
In286 O292 2.266 . S
In286 O293 2.326 . S
In286 O294 2.266 . S
In286 O295 2.326 . S
In286 O297 2.294 . S
In286 O298 2.326 . S
O287 In286 2.294 . S
O287 C296 1.240 . S
O288 In286 2.326 . S
O288 C296 1.252 . S
C289 O292 1.252 . S
C289 O293 1.260 . S
C290 O297 1.240 . S
C290 O298 1.252 . S
C291 O294 1.252 . S
C291 O295 1.260 . S
O292 In286 2.266 . S
O292 C289 1.252 . S
O293 In286 2.326 . S
O293 C289 1.260 . S
O294 In286 2.266 . S
O294 C291 1.252 . S
O295 In286 2.326 . S
O295 C291 1.260 . S
C296 O287 1.240 . S
C296 O288 1.252 . S
O297 In286 2.294 . S
O297 C290 1.240 . S
O298 In286 2.326 . S
O298 C290 1.252 . S
In299 O300 2.294 . S
In299 O301 2.326 . S
In299 O305 2.266 . S
In299 O306 2.326 . S
In299 O307 2.266 . S
In299 O308 2.326 . S
In299 O310 2.294 . S
In299 O311 2.326 . S
O300 In299 2.294 . S
O300 C309 1.240 . S
O301 In299 2.326 . S
O301 C309 1.252 . S
C302 O305 1.252 . S
C302 O306 1.260 . S
C303 O310 1.240 . S
C303 O311 1.252 . S
C304 O307 1.252 . S
C304 O308 1.260 . S
O305 In299 2.266 . S
O305 C302 1.252 . S
O306 In299 2.326 . S
O306 C302 1.260 . S
O307 In299 2.266 . S
O307 C304 1.252 . S
O308 In299 2.326 . S
O308 C304 1.260 . S
C309 O300 1.240 . S
C309 O301 1.252 . S
O310 In299 2.294 . S
O310 C303 1.240 . S
O311 In299 2.326 . S
O311 C303 1.252 . S
H312 C318 0.930 . S
H313 C321 0.930 . S
H314 C322 0.930 . S
H315 C323 0.930 . S
H316 C326 0.930 . S
H317 C327 0.930 . S
C318 H312 0.930 . S
C318 C319 1.355 . S
C318 C320 1.415 . S
C319 C318 1.355 . S
C319 C321 1.419 . S
C320 C318 1.415 . S
C320 C325 1.425 . S
C320 C327 1.409 . S
C321 H313 0.930 . S
C321 C319 1.419 . S
C321 C322 1.362 . S
C322 H314 0.930 . S
C322 C321 1.362 . S
C322 C325 1.409 . S
C323 H315 0.930 . S
C323 C324 1.355 . S
C323 C325 1.415 . S
C324 C323 1.355 . S
C324 C326 1.419 . S
C325 C320 1.425 . S
C325 C322 1.409 . S
C325 C323 1.415 . S
C326 H316 0.930 . S
C326 C324 1.419 . S
C326 C327 1.362 . S
C327 H317 0.930 . S
C327 C320 1.409 . S
C327 C326 1.362 . S
H328 C334 0.930 . S
H329 C337 0.930 . S
H330 C338 0.930 . S
H331 C339 0.930 . S
H332 C342 0.930 . S
H333 C343 0.930 . S
C334 H328 0.930 . S
C334 C335 1.355 . S
C334 C336 1.415 . S
C335 C334 1.355 . S
C335 C337 1.419 . S
C336 C334 1.415 . S
C336 C341 1.425 . S
C336 C343 1.409 . S
C337 H329 0.930 . S
C337 C335 1.419 . S
C337 C338 1.362 . S
C338 H330 0.930 . S
C338 C337 1.362 . S
C338 C341 1.409 . S
C339 H331 0.930 . S
C339 C340 1.355 . S
C339 C341 1.415 . S
C340 C339 1.355 . S
C340 C342 1.419 . S
C341 C336 1.425 . S
C341 C338 1.409 . S
C341 C339 1.415 . S
C342 H332 0.930 . S
C342 C340 1.419 . S
C342 C343 1.362 . S
C343 H333 0.930 . S
C343 C336 1.409 . S
C343 C342 1.362 . S
H344 C350 0.930 . S
H345 C353 0.930 . S
H346 C354 0.930 . S
H347 C355 0.930 . S
H348 C358 0.930 . S
H349 C359 0.930 . S
C350 H344 0.930 . S
C350 C351 1.355 . S
C350 C352 1.415 . S
C351 C350 1.355 . S
C351 C353 1.419 . S
C352 C350 1.415 . S
C352 C357 1.425 . S
C352 C359 1.409 . S
C353 H345 0.930 . S
C353 C351 1.419 . S
C353 C354 1.362 . S
C354 H346 0.930 . S
C354 C353 1.362 . S
C354 C357 1.409 . S
C355 H347 0.930 . S
C355 C356 1.355 . S
C355 C357 1.415 . S
C356 C355 1.355 . S
C356 C358 1.419 . S
C357 C352 1.425 . S
C357 C354 1.409 . S
C357 C355 1.415 . S
C358 H348 0.930 . S
C358 C356 1.419 . S
C358 C359 1.362 . S
C359 H349 0.930 . S
C359 C352 1.409 . S
C359 C358 1.362 . S
H360 C366 0.930 . S
H361 C369 0.930 . S
H362 C370 0.930 . S
H363 C371 0.930 . S
H364 C374 0.930 . S
H365 C375 0.930 . S
C366 H360 0.930 . S
C366 C367 1.355 . S
C366 C368 1.415 . S
C367 C366 1.355 . S
C367 C369 1.419 . S
C368 C366 1.415 . S
C368 C373 1.425 . S
C368 C375 1.409 . S
C369 H361 0.930 . S
C369 C367 1.419 . S
C369 C370 1.362 . S
C370 H362 0.930 . S
C370 C369 1.362 . S
C370 C373 1.409 . S
C371 H363 0.930 . S
C371 C372 1.355 . S
C371 C373 1.415 . S
C372 C371 1.355 . S
C372 C374 1.419 . S
C373 C368 1.425 . S
C373 C370 1.409 . S
C373 C371 1.415 . S
C374 H364 0.930 . S
C374 C372 1.419 . S
C374 C375 1.362 . S
C375 H365 0.930 . S
C375 C368 1.409 . S
C375 C374 1.362 . S
H376 C382 0.930 . S
H377 C385 0.930 . S
H378 C386 0.930 . S
H379 C387 0.930 . S
H380 C390 0.930 . S
H381 C391 0.930 . S
C382 H376 0.930 . S
C382 C383 1.355 . S
C382 C384 1.415 . S
C383 C382 1.355 . S
C383 C385 1.419 . S
C384 C382 1.415 . S
C384 C389 1.425 . S
C384 C391 1.409 . S
C385 H377 0.930 . S
C385 C383 1.419 . S
C385 C386 1.362 . S
C386 H378 0.930 . S
C386 C385 1.362 . S
C386 C389 1.409 . S
C387 H379 0.930 . S
C387 C388 1.355 . S
C387 C389 1.415 . S
C388 C387 1.355 . S
C388 C390 1.419 . S
C389 C384 1.425 . S
C389 C386 1.409 . S
C389 C387 1.415 . S
C390 H380 0.930 . S
C390 C388 1.419 . S
C390 C391 1.362 . S
C391 H381 0.930 . S
C391 C384 1.409 . S
C391 C390 1.362 . S
H392 C398 0.930 . S
H393 C401 0.930 . S
H394 C402 0.930 . S
H395 C403 0.930 . S
H396 C406 0.930 . S
H397 C407 0.930 . S
C398 H392 0.930 . S
C398 C399 1.355 . S
C398 C400 1.415 . S
C399 C398 1.355 . S
C399 C401 1.419 . S
C400 C398 1.415 . S
C400 C405 1.425 . S
C400 C407 1.409 . S
C401 H393 0.930 . S
C401 C399 1.419 . S
C401 C402 1.362 . S
C402 H394 0.930 . S
C402 C401 1.362 . S
C402 C405 1.409 . S
C403 H395 0.930 . S
C403 C404 1.355 . S
C403 C405 1.415 . S
C404 C403 1.355 . S
C404 C406 1.419 . S
C405 C400 1.425 . S
C405 C402 1.409 . S
C405 C403 1.415 . S
C406 H396 0.930 . S
C406 C404 1.419 . S
C406 C407 1.362 . S
C407 H397 0.930 . S
C407 C400 1.409 . S
C407 C406 1.362 . S
H408 C414 0.930 . S
H409 C417 0.930 . S
H410 C418 0.930 . S
H411 C419 0.930 . S
H412 C422 0.930 . S
H413 C423 0.930 . S
C414 H408 0.930 . S
C414 C415 1.355 . S
C414 C416 1.415 . S
C415 C414 1.355 . S
C415 C417 1.419 . S
C416 C414 1.415 . S
C416 C421 1.425 . S
C416 C423 1.409 . S
C417 H409 0.930 . S
C417 C415 1.419 . S
C417 C418 1.362 . S
C418 H410 0.930 . S
C418 C417 1.362 . S
C418 C421 1.409 . S
C419 H411 0.930 . S
C419 C420 1.355 . S
C419 C421 1.415 . S
C420 C419 1.355 . S
C420 C422 1.419 . S
C421 C416 1.425 . S
C421 C418 1.409 . S
C421 C419 1.415 . S
C422 H412 0.930 . S
C422 C420 1.419 . S
C422 C423 1.362 . S
C423 H413 0.930 . S
C423 C416 1.409 . S
C423 C422 1.362 . S
H424 C430 0.930 . S
H425 C433 0.930 . S
H426 C434 0.930 . S
H427 C435 0.930 . S
H428 C438 0.930 . S
H429 C439 0.930 . S
C430 H424 0.930 . S
C430 C431 1.355 . S
C430 C432 1.415 . S
C431 C430 1.355 . S
C431 C433 1.419 . S
C432 C430 1.415 . S
C432 C437 1.425 . S
C432 C439 1.409 . S
C433 H425 0.930 . S
C433 C431 1.419 . S
C433 C434 1.362 . S
C434 H426 0.930 . S
C434 C433 1.362 . S
C434 C437 1.409 . S
C435 H427 0.930 . S
C435 C436 1.355 . S
C435 C437 1.415 . S
C436 C435 1.355 . S
C436 C438 1.419 . S
C437 C432 1.425 . S
C437 C434 1.409 . S
C437 C435 1.415 . S
C438 H428 0.930 . S
C438 C436 1.419 . S
C438 C439 1.362 . S
C439 H429 0.930 . S
C439 C432 1.409 . S
C439 C438 1.362 . S
H440 C446 0.930 . S
H441 C449 0.930 . S
H442 C450 0.930 . S
H443 C451 0.930 . S
H444 C454 0.930 . S
H445 C455 0.930 . S
C446 H440 0.930 . S
C446 C447 1.355 . S
C446 C448 1.415 . S
C447 C446 1.355 . S
C447 C449 1.419 . S
C448 C446 1.415 . S
C448 C453 1.425 . S
C448 C455 1.409 . S
C449 H441 0.930 . S
C449 C447 1.419 . S
C449 C450 1.362 . S
C450 H442 0.930 . S
C450 C449 1.362 . S
C450 C453 1.409 . S
C451 H443 0.930 . S
C451 C452 1.355 . S
C451 C453 1.415 . S
C452 C451 1.355 . S
C452 C454 1.419 . S
C453 C448 1.425 . S
C453 C450 1.409 . S
C453 C451 1.415 . S
C454 H444 0.930 . S
C454 C452 1.419 . S
C454 C455 1.362 . S
C455 H445 0.930 . S
C455 C448 1.409 . S
C455 C454 1.362 . S
H456 C462 0.930 . S
H457 C465 0.930 . S
H458 C466 0.930 . S
H459 C467 0.930 . S
H460 C470 0.930 . S
H461 C471 0.930 . S
C462 H456 0.930 . S
C462 C463 1.355 . S
C462 C464 1.415 . S
C463 C462 1.355 . S
C463 C465 1.419 . S
C464 C462 1.415 . S
C464 C469 1.425 . S
C464 C471 1.409 . S
C465 H457 0.930 . S
C465 C463 1.419 . S
C465 C466 1.362 . S
C466 H458 0.930 . S
C466 C465 1.362 . S
C466 C469 1.409 . S
C467 H459 0.930 . S
C467 C468 1.355 . S
C467 C469 1.415 . S
C468 C467 1.355 . S
C468 C470 1.419 . S
C469 C464 1.425 . S
C469 C466 1.409 . S
C469 C467 1.415 . S
C470 H460 0.930 . S
C470 C468 1.419 . S
C470 C471 1.362 . S
C471 H461 0.930 . S
C471 C464 1.409 . S
C471 C470 1.362 . S
H472 C478 0.930 . S
H473 C481 0.930 . S
H474 C482 0.930 . S
H475 C483 0.930 . S
H476 C486 0.930 . S
H477 C487 0.930 . S
C478 H472 0.930 . S
C478 C479 1.355 . S
C478 C480 1.415 . S
C479 C478 1.355 . S
C479 C481 1.419 . S
C480 C478 1.415 . S
C480 C485 1.425 . S
C480 C487 1.409 . S
C481 H473 0.930 . S
C481 C479 1.419 . S
C481 C482 1.362 . S
C482 H474 0.930 . S
C482 C481 1.362 . S
C482 C485 1.409 . S
C483 H475 0.930 . S
C483 C484 1.355 . S
C483 C485 1.415 . S
C484 C483 1.355 . S
C484 C486 1.419 . S
C485 C480 1.425 . S
C485 C482 1.409 . S
C485 C483 1.415 . S
C486 H476 0.930 . S
C486 C484 1.419 . S
C486 C487 1.362 . S
C487 H477 0.930 . S
C487 C480 1.409 . S
C487 C486 1.362 . S
H488 C494 0.930 . S
H489 C497 0.930 . S
H490 C498 0.930 . S
H491 C499 0.930 . S
H492 C502 0.930 . S
H493 C503 0.930 . S
C494 H488 0.930 . S
C494 C495 1.355 . S
C494 C496 1.415 . S
C495 C494 1.355 . S
C495 C497 1.419 . S
C496 C494 1.415 . S
C496 C501 1.425 . S
C496 C503 1.409 . S
C497 H489 0.930 . S
C497 C495 1.419 . S
C497 C498 1.362 . S
C498 H490 0.930 . S
C498 C497 1.362 . S
C498 C501 1.409 . S
C499 H491 0.930 . S
C499 C500 1.355 . S
C499 C501 1.415 . S
C500 C499 1.355 . S
C500 C502 1.419 . S
C501 C496 1.425 . S
C501 C498 1.409 . S
C501 C499 1.415 . S
C502 H492 0.930 . S
C502 C500 1.419 . S
C502 C503 1.362 . S
C503 H493 0.930 . S
C503 C496 1.409 . S
C503 C502 1.362 . S
H504 C510 0.930 . S
H505 C513 0.930 . S
H506 C514 0.930 . S
H507 C515 0.930 . S
H508 C518 0.930 . S
H509 C519 0.930 . S
C510 H504 0.930 . S
C510 C511 1.355 . S
C510 C512 1.415 . S
C511 C510 1.355 . S
C511 C513 1.419 . S
C512 C510 1.415 . S
C512 C517 1.425 . S
C512 C519 1.409 . S
C513 H505 0.930 . S
C513 C511 1.419 . S
C513 C514 1.362 . S
C514 H506 0.930 . S
C514 C513 1.362 . S
C514 C517 1.409 . S
C515 H507 0.930 . S
C515 C516 1.355 . S
C515 C517 1.415 . S
C516 C515 1.355 . S
C516 C518 1.419 . S
C517 C512 1.425 . S
C517 C514 1.409 . S
C517 C515 1.415 . S
C518 H508 0.930 . S
C518 C516 1.419 . S
C518 C519 1.362 . S
C519 H509 0.930 . S
C519 C512 1.409 . S
C519 C518 1.362 . S
H520 C526 0.930 . S
H521 C529 0.930 . S
H522 C530 0.930 . S
H523 C531 0.930 . S
H524 C534 0.930 . S
H525 C535 0.930 . S
C526 H520 0.930 . S
C526 C527 1.355 . S
C526 C528 1.415 . S
C527 C526 1.355 . S
C527 C529 1.419 . S
C528 C526 1.415 . S
C528 C533 1.425 . S
C528 C535 1.409 . S
C529 H521 0.930 . S
C529 C527 1.419 . S
C529 C530 1.362 . S
C530 H522 0.930 . S
C530 C529 1.362 . S
C530 C533 1.409 . S
C531 H523 0.930 . S
C531 C532 1.355 . S
C531 C533 1.415 . S
C532 C531 1.355 . S
C532 C534 1.419 . S
C533 C528 1.425 . S
C533 C530 1.409 . S
C533 C531 1.415 . S
C534 H524 0.930 . S
C534 C532 1.419 . S
C534 C535 1.362 . S
C535 H525 0.930 . S
C535 C528 1.409 . S
C535 C534 1.362 . S
H536 C542 0.930 . S
H537 C545 0.930 . S
H538 C546 0.930 . S
H539 C547 0.930 . S
H540 C550 0.930 . S
H541 C551 0.930 . S
C542 H536 0.930 . S
C542 C543 1.355 . S
C542 C544 1.415 . S
C543 C542 1.355 . S
C543 C545 1.419 . S
C544 C542 1.415 . S
C544 C549 1.425 . S
C544 C551 1.409 . S
C545 H537 0.930 . S
C545 C543 1.419 . S
C545 C546 1.362 . S
C546 H538 0.930 . S
C546 C545 1.362 . S
C546 C549 1.409 . S
C547 H539 0.930 . S
C547 C548 1.355 . S
C547 C549 1.415 . S
C548 C547 1.355 . S
C548 C550 1.419 . S
C549 C544 1.425 . S
C549 C546 1.409 . S
C549 C547 1.415 . S
C550 H540 0.930 . S
C550 C548 1.419 . S
C550 C551 1.362 . S
C551 H541 0.930 . S
C551 C544 1.409 . S
C551 C550 1.362 . S
H552 C558 0.930 . S
H553 C561 0.930 1_455 S
H554 C562 0.930 . S
H555 C563 0.930 . S
H556 C566 0.930 . S
H557 C567 0.930 . S
C558 H552 0.930 . S
C558 C559 1.355 . S
C558 C560 1.415 . S
C559 C558 1.355 . S
C559 C561 1.419 . S
C560 C558 1.415 . S
C560 C565 1.425 . S
C560 C567 1.409 . S
C561 H553 0.930 1_655 S
C561 C559 1.419 . S
C561 C562 1.362 . S
C562 H554 0.930 . S
C562 C561 1.362 . S
C562 C565 1.409 . S
C563 H555 0.930 . S
C563 C564 1.355 . S
C563 C565 1.415 . S
C564 C563 1.355 . S
C564 C566 1.419 . S
C565 C560 1.425 . S
C565 C562 1.409 . S
C565 C563 1.415 . S
C566 H556 0.930 . S
C566 C564 1.419 . S
C566 C567 1.362 . S
C567 H557 0.930 . S
C567 C560 1.409 . S
C567 C566 1.362 . S
H568 C574 0.930 . S
H569 C577 0.930 . S
H570 C578 0.930 . S
H571 C579 0.930 . S
H572 C582 0.930 . S
H573 C583 0.930 . S
C574 H568 0.930 . S
C574 C575 1.355 . S
C574 C576 1.415 . S
C575 C574 1.355 . S
C575 C577 1.419 . S
C576 C574 1.415 . S
C576 C581 1.425 . S
C576 C583 1.409 . S
C577 H569 0.930 . S
C577 C575 1.419 . S
C577 C578 1.362 . S
C578 H570 0.930 . S
C578 C577 1.362 . S
C578 C581 1.409 . S
C579 H571 0.930 . S
C579 C580 1.355 . S
C579 C581 1.415 . S
C580 C579 1.355 . S
C580 C582 1.419 . S
C581 C576 1.425 . S
C581 C578 1.409 . S
C581 C579 1.415 . S
C582 H572 0.930 . S
C582 C580 1.419 . S
C582 C583 1.362 . S
C583 H573 0.930 . S
C583 C576 1.409 . S
C583 C582 1.362 . S
H584 C590 0.930 . S
H585 C593 0.930 . S
H586 C594 0.930 . S
H587 C595 0.930 . S
H588 C598 0.930 . S
H589 C599 0.930 . S
C590 H584 0.930 . S
C590 C591 1.355 . S
C590 C592 1.415 . S
C591 C590 1.355 . S
C591 C593 1.419 . S
C592 C590 1.415 . S
C592 C597 1.425 . S
C592 C599 1.409 . S
C593 H585 0.930 . S
C593 C591 1.419 . S
C593 C594 1.362 . S
C594 H586 0.930 . S
C594 C593 1.362 . S
C594 C597 1.409 . S
C595 H587 0.930 . S
C595 C596 1.355 . S
C595 C597 1.415 . S
C596 C595 1.355 . S
C596 C598 1.419 . S
C597 C592 1.425 . S
C597 C594 1.409 . S
C597 C595 1.415 . S
C598 H588 0.930 . S
C598 C596 1.419 . S
C598 C599 1.362 . S
C599 H589 0.930 . S
C599 C592 1.409 . S
C599 C598 1.362 . S
H600 C606 0.930 . S
H601 C609 0.930 1_554 S
H602 C610 0.930 1_554 S
H603 C611 0.930 . S
H604 C614 0.930 . S
H605 C615 0.930 . S
C606 H600 0.930 . S
C606 C607 1.355 . S
C606 C608 1.415 . S
C607 C606 1.355 . S
C607 C609 1.419 . S
C608 C606 1.415 . S
C608 C613 1.425 . S
C608 C615 1.409 . S
C609 H601 0.930 1_556 S
C609 C607 1.419 . S
C609 C610 1.362 . S
C610 H602 0.930 1_556 S
C610 C609 1.362 . S
C610 C613 1.409 . S
C611 H603 0.930 . S
C611 C612 1.355 . S
C611 C613 1.415 . S
C612 C611 1.355 . S
C612 C614 1.419 . S
C613 C608 1.425 . S
C613 C610 1.409 . S
C613 C611 1.415 . S
C614 H604 0.930 . S
C614 C612 1.419 . S
C614 C615 1.362 . S
C615 H605 0.930 . S
C615 C608 1.409 . S
C615 C614 1.362 . S
H616 C622 0.930 . S
H617 C625 0.930 . S
H618 C626 0.930 . S
H619 C627 0.930 . S
H620 C630 0.930 . S
H621 C631 0.930 . S
C622 H616 0.930 . S
C622 C623 1.355 . S
C622 C624 1.415 . S
C623 C622 1.355 . S
C623 C625 1.419 . S
C624 C622 1.415 . S
C624 C629 1.425 . S
C624 C631 1.409 . S
C625 H617 0.930 . S
C625 C623 1.419 . S
C625 C626 1.362 . S
C626 H618 0.930 . S
C626 C625 1.362 . S
C626 C629 1.409 . S
C627 H619 0.930 . S
C627 C628 1.355 . S
C627 C629 1.415 . S
C628 C627 1.355 . S
C628 C630 1.419 . S
C629 C624 1.425 . S
C629 C626 1.409 . S
C629 C627 1.415 . S
C630 H620 0.930 . S
C630 C628 1.419 . S
C630 C631 1.362 . S
C631 H621 0.930 . S
C631 C624 1.409 . S
C631 C630 1.362 . S
H632 C638 0.930 . S
H633 C641 0.930 . S
H634 C642 0.930 . S
H635 C643 0.930 . S
H636 C646 0.930 . S
H637 C647 0.930 . S
C638 H632 0.930 . S
C638 C639 1.355 . S
C638 C640 1.415 . S
C639 C638 1.355 . S
C639 C641 1.419 . S
C640 C638 1.415 . S
C640 C645 1.425 . S
C640 C647 1.409 . S
C641 H633 0.930 . S
C641 C639 1.419 . S
C641 C642 1.362 . S
C642 H634 0.930 . S
C642 C641 1.362 . S
C642 C645 1.409 . S
C643 H635 0.930 . S
C643 C644 1.355 . S
C643 C645 1.415 . S
C644 C643 1.355 . S
C644 C646 1.419 . S
C645 C640 1.425 . S
C645 C642 1.409 . S
C645 C643 1.415 . S
C646 H636 0.930 . S
C646 C644 1.419 . S
C646 C647 1.362 . S
C647 H637 0.930 . S
C647 C640 1.409 . S
C647 C646 1.362 . S
H648 C654 0.930 . S
H649 C657 0.930 . S
H650 C658 0.930 . S
H651 C659 0.930 . S
H652 C662 0.930 . S
H653 C663 0.930 . S
C654 H648 0.930 . S
C654 C655 1.355 . S
C654 C656 1.415 . S
C655 C654 1.355 . S
C655 C657 1.419 . S
C656 C654 1.415 . S
C656 C661 1.425 . S
C656 C663 1.409 . S
C657 H649 0.930 . S
C657 C655 1.419 . S
C657 C658 1.362 . S
C658 H650 0.930 . S
C658 C657 1.362 . S
C658 C661 1.409 . S
C659 H651 0.930 . S
C659 C660 1.355 . S
C659 C661 1.415 . S
C660 C659 1.355 . S
C660 C662 1.419 . S
C661 C656 1.425 . S
C661 C658 1.409 . S
C661 C659 1.415 . S
C662 H652 0.930 . S
C662 C660 1.419 . S
C662 C663 1.362 . S
C663 H653 0.930 . S
C663 C656 1.409 . S
C663 C662 1.362 . S
H664 C670 0.930 . S
H665 C673 0.930 . S
H666 C674 0.930 . S
H667 C675 0.940 . S
H668 C678 0.930 . S
H669 C679 0.930 . S
C670 H664 0.930 . S
C670 C671 1.355 . S
C670 C672 1.415 . S
C671 C670 1.355 . S
C671 C673 1.419 . S
C672 C670 1.415 . S
C672 C677 1.425 . S
C672 C679 1.409 . S
C673 H665 0.930 . S
C673 C671 1.419 . S
C673 C674 1.362 . S
C674 H666 0.930 . S
C674 C673 1.362 . S
C674 C677 1.409 . S
C675 H667 0.940 . S
C675 C676 1.355 . S
C675 C677 1.415 . S
C676 C675 1.355 . S
C676 C678 1.419 . S
C677 C672 1.425 . S
C677 C674 1.409 . S
C677 C675 1.415 . S
C678 H668 0.930 . S
C678 C676 1.419 . S
C678 C679 1.362 . S
C679 H669 0.930 . S
C679 C672 1.409 . S
C679 C678 1.362 . S
H680 C686 0.930 . S
H681 C689 0.930 . S
H682 C690 0.930 . S
H683 C691 0.930 . S
H684 C694 0.930 . S
H685 C695 0.930 . S
C686 H680 0.930 . S
C686 C687 1.355 . S
C686 C688 1.415 . S
C687 C686 1.355 . S
C687 C689 1.419 . S
C688 C686 1.415 . S
C688 C693 1.425 . S
C688 C695 1.409 . S
C689 H681 0.930 . S
C689 C687 1.419 . S
C689 C690 1.362 . S
C690 H682 0.930 . S
C690 C689 1.362 . S
C690 C693 1.409 . S
C691 H683 0.930 . S
C691 C692 1.355 . S
C691 C693 1.415 . S
C692 C691 1.355 . S
C692 C694 1.419 . S
C693 C688 1.425 . S
C693 C690 1.409 . S
C693 C691 1.415 . S
C694 H684 0.930 . S
C694 C692 1.419 . S
C694 C695 1.362 . S
C695 H685 0.930 . S
C695 C688 1.409 . S
C695 C694 1.362 . S
H696 C702 0.930 . S
H697 C705 0.930 1_545 S
H698 C706 0.930 1_545 S
H699 C707 0.930 . S
H700 C710 0.930 . S
H701 C711 0.930 . S
C702 H696 0.930 . S
C702 C703 1.355 . S
C702 C704 1.415 . S
C703 C702 1.355 . S
C703 C705 1.419 . S
C704 C702 1.415 . S
C704 C709 1.425 . S
C704 C711 1.409 . S
C705 H697 0.930 1_565 S
C705 C703 1.419 . S
C705 C706 1.362 . S
C706 H698 0.930 1_565 S
C706 C705 1.362 . S
C706 C709 1.409 . S
C707 H699 0.930 . S
C707 C708 1.355 . S
C707 C709 1.415 . S
C708 C707 1.355 . S
C708 C710 1.419 . S
C709 C704 1.425 . S
C709 C706 1.409 . S
C709 C707 1.415 . S
C710 H700 0.930 . S
C710 C708 1.419 . S
C710 C711 1.362 . S
C711 H701 0.930 . S
C711 C704 1.409 . S
C711 C710 1.362 . S
H712 C718 0.930 . S
H713 C721 0.930 . S
H714 C722 0.930 . S
H715 C723 0.930 1_565 S
H716 C726 0.930 . S
H717 C727 0.930 . S
C718 H712 0.930 . S
C718 C719 1.355 . S
C718 C720 1.415 . S
C719 C718 1.355 . S
C719 C721 1.419 . S
C720 C718 1.415 . S
C720 C725 1.425 . S
C720 C727 1.409 . S
C721 H713 0.930 . S
C721 C719 1.419 . S
C721 C722 1.362 . S
C722 H714 0.930 . S
C722 C721 1.362 . S
C722 C725 1.409 . S
C723 H715 0.930 1_545 S
C723 C724 1.355 . S
C723 C725 1.415 . S
C724 C723 1.355 . S
C724 C726 1.419 . S
C725 C720 1.425 . S
C725 C722 1.409 . S
C725 C723 1.415 . S
C726 H716 0.930 . S
C726 C724 1.419 . S
C726 C727 1.362 . S
C727 H717 0.930 . S
C727 C720 1.409 . S
C727 C726 1.362 . S
H728 C734 0.930 . S
H729 C737 0.930 . S
H730 C738 0.930 . S
H731 C739 0.930 . S
H732 C742 0.930 . S
H733 C743 0.930 . S
C734 H728 0.930 . S
C734 C735 1.355 . S
C734 C736 1.415 . S
C735 C734 1.355 . S
C735 C737 1.419 . S
C736 C734 1.415 . S
C736 C741 1.425 . S
C736 C743 1.409 . S
C737 H729 0.930 . S
C737 C735 1.419 . S
C737 C738 1.362 . S
C738 H730 0.930 . S
C738 C737 1.362 . S
C738 C741 1.409 . S
C739 H731 0.930 . S
C739 C740 1.355 . S
C739 C741 1.415 . S
C740 C739 1.355 . S
C740 C742 1.419 . S
C741 C736 1.425 . S
C741 C738 1.409 . S
C741 C739 1.415 . S
C742 H732 0.930 . S
C742 C740 1.419 . S
C742 C743 1.362 . S
C743 H733 0.930 . S
C743 C736 1.409 . S
C743 C742 1.362 . S
H744 C750 0.930 . S
H745 C753 0.930 . S
H746 C754 0.930 . S
H747 C755 0.930 . S
H748 C758 0.930 . S
H749 C759 0.930 . S
C750 H744 0.930 . S
C750 C751 1.355 . S
C750 C752 1.415 . S
C751 C750 1.355 . S
C751 C753 1.419 . S
C752 C750 1.415 . S
C752 C757 1.425 . S
C752 C759 1.409 . S
C753 H745 0.930 . S
C753 C751 1.419 . S
C753 C754 1.362 . S
C754 H746 0.930 . S
C754 C753 1.362 . S
C754 C757 1.409 . S
C755 H747 0.930 . S
C755 C756 1.355 . S
C755 C757 1.415 . S
C756 C755 1.355 . S
C756 C758 1.419 . S
C757 C752 1.425 . S
C757 C754 1.409 . S
C757 C755 1.415 . S
C758 H748 0.930 . S
C758 C756 1.419 . S
C758 C759 1.362 . S
C759 H749 0.930 . S
C759 C752 1.409 . S
C759 C758 1.362 . S
H760 C766 0.930 . S
H761 C769 0.930 . S
H762 C770 0.930 . S
H763 C771 0.930 . S
H764 C774 0.930 1_655 S
H765 C775 0.930 . S
C766 H760 0.930 . S
C766 C767 1.355 . S
C766 C768 1.415 . S
C767 C766 1.355 . S
C767 C769 1.419 . S
C768 C766 1.415 . S
C768 C773 1.425 . S
C768 C775 1.409 . S
C769 H761 0.930 . S
C769 C767 1.419 . S
C769 C770 1.362 . S
C770 H762 0.930 . S
C770 C769 1.362 . S
C770 C773 1.409 . S
C771 H763 0.930 . S
C771 C772 1.355 . S
C771 C773 1.415 . S
C772 C771 1.355 . S
C772 C774 1.419 . S
C773 C768 1.425 . S
C773 C770 1.409 . S
C773 C771 1.415 . S
C774 H764 0.930 1_455 S
C774 C772 1.419 . S
C774 C775 1.362 . S
C775 H765 0.930 . S
C775 C768 1.409 . S
C775 C774 1.362 . S
H776 C782 0.930 . S
H777 C785 0.930 . S
H778 C786 0.930 . S
H779 C787 0.930 . S
H780 C790 0.930 . S
H781 C791 0.930 . S
C782 H776 0.930 . S
C782 C783 1.355 . S
C782 C784 1.415 . S
C783 C782 1.355 . S
C783 C785 1.419 . S
C784 C782 1.415 . S
C784 C789 1.425 . S
C784 C791 1.409 . S
C785 H777 0.930 . S
C785 C783 1.419 . S
C785 C786 1.362 . S
C786 H778 0.930 . S
C786 C785 1.362 . S
C786 C789 1.409 . S
C787 H779 0.930 . S
C787 C788 1.355 . S
C787 C789 1.415 . S
C788 C787 1.355 . S
C788 C790 1.419 . S
C789 C784 1.425 . S
C789 C786 1.409 . S
C789 C787 1.415 . S
C790 H780 0.930 . S
C790 C788 1.419 . S
C790 C791 1.362 . S
C791 H781 0.930 . S
C791 C784 1.409 . S
C791 C790 1.362 . S
H792 C798 0.930 . S
H793 C801 0.930 . S
H794 C802 0.930 . S
H795 C803 0.930 . S
H796 C806 0.930 . S
H797 C807 0.930 . S
C798 H792 0.930 . S
C798 C799 1.355 . S
C798 C800 1.415 . S
C799 C798 1.355 . S
C799 C801 1.419 . S
C800 C798 1.415 . S
C800 C805 1.425 . S
C800 C807 1.409 . S
C801 H793 0.930 . S
C801 C799 1.419 . S
C801 C802 1.362 . S
C802 H794 0.930 . S
C802 C801 1.362 . S
C802 C805 1.409 . S
C803 H795 0.930 . S
C803 C804 1.355 . S
C803 C805 1.415 . S
C804 C803 1.355 . S
C804 C806 1.419 . S
C805 C800 1.425 . S
C805 C802 1.409 . S
C805 C803 1.415 . S
C806 H796 0.930 . S
C806 C804 1.419 . S
C806 C807 1.362 . S
C807 H797 0.930 . S
C807 C800 1.409 . S
C807 C806 1.362 . S
H808 C814 0.930 . S
H809 C817 0.930 . S
H810 C818 0.930 . S
H811 C819 0.930 . S
H812 C822 0.930 . S
H813 C823 0.930 . S
C814 H808 0.930 . S
C814 C815 1.355 . S
C814 C816 1.415 . S
C815 C814 1.355 . S
C815 C817 1.419 . S
C816 C814 1.415 . S
C816 C821 1.425 . S
C816 C823 1.409 . S
C817 H809 0.930 . S
C817 C815 1.419 . S
C817 C818 1.362 . S
C818 H810 0.930 . S
C818 C817 1.362 . S
C818 C821 1.409 . S
C819 H811 0.930 . S
C819 C820 1.355 . S
C819 C821 1.415 . S
C820 C819 1.355 . S
C820 C822 1.419 . S
C821 C816 1.425 . S
C821 C818 1.409 . S
C821 C819 1.415 . S
C822 H812 0.930 . S
C822 C820 1.419 . S
C822 C823 1.362 . S
C823 H813 0.930 . S
C823 C816 1.409 . S
C823 C822 1.362 . S
H824 C830 0.930 . S
H825 C833 0.930 . S
H826 C834 0.930 . S
H827 C835 0.930 . S
H828 C838 0.930 . S
H829 C839 0.930 . S
C830 H824 0.930 . S
C830 C831 1.355 . S
C830 C832 1.415 . S
C831 C830 1.355 . S
C831 C833 1.419 . S
C832 C830 1.415 . S
C832 C837 1.425 . S
C832 C839 1.409 . S
C833 H825 0.930 . S
C833 C831 1.419 . S
C833 C834 1.362 . S
C834 H826 0.930 . S
C834 C833 1.362 . S
C834 C837 1.409 . S
C835 H827 0.930 . S
C835 C836 1.355 . S
C835 C837 1.415 . S
C836 C835 1.355 . S
C836 C838 1.419 . S
C837 C832 1.425 . S
C837 C834 1.409 . S
C837 C835 1.415 . S
C838 H828 0.930 . S
C838 C836 1.419 . S
C838 C839 1.362 . S
C839 H829 0.930 . S
C839 C832 1.409 . S
C839 C838 1.362 . S
H840 C846 0.930 . S
H841 C849 0.930 . S
H842 C850 0.930 . S
H843 C851 0.930 . S
H844 C854 0.930 . S
H845 C855 0.930 . S
C846 H840 0.930 . S
C846 C847 1.355 . S
C846 C848 1.415 . S
C847 C846 1.355 . S
C847 C849 1.419 . S
C848 C846 1.415 . S
C848 C853 1.425 . S
C848 C855 1.409 . S
C849 H841 0.930 . S
C849 C847 1.419 . S
C849 C850 1.362 . S
C850 H842 0.930 . S
C850 C849 1.362 . S
C850 C853 1.409 . S
C851 H843 0.930 . S
C851 C852 1.355 . S
C851 C853 1.415 . S
C852 C851 1.355 . S
C852 C854 1.419 . S
C853 C848 1.425 . S
C853 C850 1.409 . S
C853 C851 1.415 . S
C854 H844 0.930 . S
C854 C852 1.419 . S
C854 C855 1.362 . S
C855 H845 0.930 . S
C855 C848 1.409 . S
C855 C854 1.362 . S
H856 C862 0.930 . S
H857 C865 0.930 . S
H858 C866 0.930 . S
H859 C867 0.930 . S
H860 C870 0.930 . S
H861 C871 0.930 . S
C862 H856 0.930 . S
C862 C863 1.355 . S
C862 C864 1.415 . S
C863 C862 1.355 . S
C863 C865 1.419 . S
C864 C862 1.415 . S
C864 C869 1.425 . S
C864 C871 1.409 . S
C865 H857 0.930 . S
C865 C863 1.419 . S
C865 C866 1.362 . S
C866 H858 0.930 . S
C866 C865 1.362 . S
C866 C869 1.409 . S
C867 H859 0.930 . S
C867 C868 1.355 . S
C867 C869 1.415 . S
C868 C867 1.355 . S
C868 C870 1.419 . S
C869 C864 1.425 . S
C869 C866 1.409 . S
C869 C867 1.415 . S
C870 H860 0.930 . S
C870 C868 1.419 . S
C870 C871 1.362 . S
C871 H861 0.930 . S
C871 C864 1.409 . S
C871 C870 1.362 . S
H872 C878 0.930 . S
H873 C881 0.930 . S
H874 C882 0.930 . S
H875 C883 0.930 . S
H876 C886 0.930 . S
H877 C887 0.930 . S
C878 H872 0.930 . S
C878 C879 1.355 . S
C878 C880 1.415 . S
C879 C878 1.355 . S
C879 C881 1.419 . S
C880 C878 1.415 . S
C880 C885 1.425 . S
C880 C887 1.409 . S
C881 H873 0.930 . S
C881 C879 1.419 . S
C881 C882 1.362 . S
C882 H874 0.930 . S
C882 C881 1.362 . S
C882 C885 1.409 . S
C883 H875 0.930 . S
C883 C884 1.355 . S
C883 C885 1.415 . S
C884 C883 1.355 . S
C884 C886 1.419 . S
C885 C880 1.425 . S
C885 C882 1.409 . S
C885 C883 1.415 . S
C886 H876 0.930 . S
C886 C884 1.419 . S
C886 C887 1.362 . S
C887 H877 0.930 . S
C887 C880 1.409 . S
C887 C886 1.362 . S
H888 C894 0.930 . S
H889 C897 0.930 . S
H890 C898 0.930 . S
H891 C899 0.930 . S
H892 C902 0.930 . S
H893 C903 0.930 . S
C894 H888 0.930 . S
C894 C895 1.355 . S
C894 C896 1.415 . S
C895 C894 1.355 . S
C895 C897 1.419 . S
C896 C894 1.415 . S
C896 C901 1.425 . S
C896 C903 1.409 . S
C897 H889 0.930 . S
C897 C895 1.419 . S
C897 C898 1.362 . S
C898 H890 0.930 . S
C898 C897 1.362 . S
C898 C901 1.409 . S
C899 H891 0.930 . S
C899 C900 1.355 . S
C899 C901 1.415 . S
C900 C899 1.355 . S
C900 C902 1.419 . S
C901 C896 1.425 . S
C901 C898 1.409 . S
C901 C899 1.415 . S
C902 H892 0.930 . S
C902 C900 1.419 . S
C902 C903 1.362 . S
C903 H893 0.930 . S
C903 C896 1.409 . S
C903 C902 1.362 . S
H904 C910 0.930 . S
H905 C913 0.930 . S
H906 C914 0.930 . S
H907 C915 0.930 . S
H908 C918 0.930 . S
H909 C919 0.930 . S
C910 H904 0.930 . S
C910 C911 1.355 . S
C910 C912 1.415 . S
C911 C910 1.355 . S
C911 C913 1.419 . S
C912 C910 1.415 . S
C912 C917 1.425 . S
C912 C919 1.409 . S
C913 H905 0.930 . S
C913 C911 1.419 . S
C913 C914 1.362 . S
C914 H906 0.930 . S
C914 C913 1.362 . S
C914 C917 1.409 . S
C915 H907 0.930 . S
C915 C916 1.355 . S
C915 C917 1.415 . S
C916 C915 1.355 . S
C916 C918 1.419 . S
C917 C912 1.425 . S
C917 C914 1.409 . S
C917 C915 1.415 . S
C918 H908 0.930 . S
C918 C916 1.419 . S
C918 C919 1.362 . S
C919 H909 0.930 . S
C919 C912 1.409 . S
C919 C918 1.362 . S
H920 C926 0.930 . S
H921 C929 0.930 . S
H922 C930 0.930 . S
H923 C931 0.930 . S
H924 C934 0.930 . S
H925 C935 0.930 . S
C926 H920 0.930 . S
C926 C927 1.355 . S
C926 C928 1.415 . S
C927 C926 1.355 . S
C927 C929 1.419 . S
C928 C926 1.415 . S
C928 C933 1.425 . S
C928 C935 1.409 . S
C929 H921 0.930 . S
C929 C927 1.419 . S
C929 C930 1.362 . S
C930 H922 0.930 . S
C930 C929 1.362 . S
C930 C933 1.409 . S
C931 H923 0.930 . S
C931 C932 1.355 . S
C931 C933 1.415 . S
C932 C931 1.355 . S
C932 C934 1.419 . S
C933 C928 1.425 . S
C933 C930 1.409 . S
C933 C931 1.415 . S
C934 H924 0.930 . S
C934 C932 1.419 . S
C934 C935 1.362 . S
C935 H925 0.930 . S
C935 C928 1.409 . S
C935 C934 1.362 . S
H936 C942 0.930 . S
H937 C945 0.930 . S
H938 C946 0.930 . S
H939 C947 0.930 . S
H940 C950 0.930 . S
H941 C951 0.930 . S
C942 H936 0.930 . S
C942 C943 1.355 . S
C942 C944 1.415 . S
C943 C942 1.355 . S
C943 C945 1.419 . S
C944 C942 1.415 . S
C944 C949 1.425 . S
C944 C951 1.409 . S
C945 H937 0.930 . S
C945 C943 1.419 . S
C945 C946 1.362 . S
C946 H938 0.930 . S
C946 C945 1.362 . S
C946 C949 1.409 . S
C947 H939 0.930 . S
C947 C948 1.355 . S
C947 C949 1.415 . S
C948 C947 1.355 . S
C948 C950 1.419 . S
C949 C944 1.425 . S
C949 C946 1.409 . S
C949 C947 1.415 . S
C950 H940 0.930 . S
C950 C948 1.419 . S
C950 C951 1.362 . S
C951 H941 0.930 . S
C951 C944 1.409 . S
C951 C950 1.362 . S
H952 C958 0.930 . S
H953 C961 0.930 . S
H954 C962 0.930 . S
H955 C963 0.930 . S
H956 C966 0.930 . S
H957 C967 0.930 . S
C958 H952 0.930 . S
C958 C959 1.355 . S
C958 C960 1.415 . S
C959 C958 1.355 . S
C959 C961 1.419 . S
C960 C958 1.415 . S
C960 C965 1.425 . S
C960 C967 1.409 . S
C961 H953 0.930 . S
C961 C959 1.419 . S
C961 C962 1.362 . S
C962 H954 0.930 . S
C962 C961 1.362 . S
C962 C965 1.409 . S
C963 H955 0.930 . S
C963 C964 1.355 . S
C963 C965 1.415 . S
C964 C963 1.355 . S
C964 C966 1.419 . S
C965 C960 1.425 . S
C965 C962 1.409 . S
C965 C963 1.415 . S
C966 H956 0.930 . S
C966 C964 1.419 . S
C966 C967 1.362 . S
C967 H957 0.930 . S
C967 C960 1.409 . S
C967 C966 1.362 . S
H968 C974 0.930 . S
H969 C977 0.930 . S
H970 C978 0.930 . S
H971 C979 0.930 . S
H972 C982 0.930 . S
H973 C983 0.930 . S
C974 H968 0.930 . S
C974 C975 1.355 . S
C974 C976 1.415 . S
C975 C974 1.355 . S
C975 C977 1.419 . S
C976 C974 1.415 . S
C976 C981 1.425 . S
C976 C983 1.409 . S
C977 H969 0.930 . S
C977 C975 1.419 . S
C977 C978 1.362 . S
C978 H970 0.930 . S
C978 C977 1.362 . S
C978 C981 1.409 . S
C979 H971 0.930 . S
C979 C980 1.355 . S
C979 C981 1.415 . S
C980 C979 1.355 . S
C980 C982 1.419 . S
C981 C976 1.425 . S
C981 C978 1.409 . S
C981 C979 1.415 . S
C982 H972 0.930 . S
C982 C980 1.419 . S
C982 C983 1.362 . S
C983 H973 0.930 . S
C983 C976 1.409 . S
C983 C982 1.362 . S
H984 C990 0.930 . S
H985 C993 0.930 . S
H986 C994 0.930 . S
H987 C995 0.930 . S
H988 C998 0.930 . S
H989 C999 0.930 . S
C990 H984 0.930 . S
C990 C991 1.355 . S
C990 C992 1.415 . S
C991 C990 1.355 . S
C991 C993 1.419 . S
C992 C990 1.415 . S
C992 C997 1.425 . S
C992 C999 1.409 . S
C993 H985 0.930 . S
C993 C991 1.419 . S
C993 C994 1.362 . S
C994 H986 0.930 . S
C994 C993 1.362 . S
C994 C997 1.409 . S
C995 H987 0.930 . S
C995 C996 1.355 . S
C995 C997 1.415 . S
C996 C995 1.355 . S
C996 C998 1.419 . S
C997 C992 1.425 . S
C997 C994 1.409 . S
C997 C995 1.415 . S
C998 H988 0.930 . S
C998 C996 1.419 . S
C998 C999 1.362 . S
C999 H989 0.930 . S
C999 C992 1.409 . S
C999 C998 1.362 . S
H1000 C1006 0.930 . S
H1001 C1009 0.930 . S
H1002 C1010 0.930 . S
H1003 C1011 0.930 . S
H1004 C1014 0.930 . S
H1005 C1015 0.930 . S
C1006 H1000 0.930 . S
C1006 C1007 1.355 . S
C1006 C1008 1.415 . S
C1007 C1006 1.355 . S
C1007 C1009 1.419 . S
C1008 C1006 1.415 . S
C1008 C1013 1.425 . S
C1008 C1015 1.409 . S
C1009 H1001 0.930 . S
C1009 C1007 1.419 . S
C1009 C1010 1.362 . S
C1010 H1002 0.930 . S
C1010 C1009 1.362 . S
C1010 C1013 1.409 . S
C1011 H1003 0.930 . S
C1011 C1012 1.355 . S
C1011 C1013 1.415 . S
C1012 C1011 1.355 . S
C1012 C1014 1.419 . S
C1013 C1008 1.425 . S
C1013 C1010 1.409 . S
C1013 C1011 1.415 . S
C1014 H1004 0.930 . S
C1014 C1012 1.419 . S
C1014 C1015 1.362 . S
C1015 H1005 0.930 . S
C1015 C1008 1.409 . S
C1015 C1014 1.362 . S
H1016 C1022 0.930 . S
H1017 C1025 0.930 . S
H1018 C1026 0.930 . S
H1019 C1027 0.930 . S
H1020 C1030 0.930 . S
H1021 C1031 0.930 . S
C1022 H1016 0.930 . S
C1022 C1023 1.355 . S
C1022 C1024 1.415 . S
C1023 C1022 1.355 . S
C1023 C1025 1.419 . S
C1024 C1022 1.415 . S
C1024 C1029 1.425 . S
C1024 C1031 1.409 . S
C1025 H1017 0.930 . S
C1025 C1023 1.419 . S
C1025 C1026 1.362 . S
C1026 H1018 0.930 . S
C1026 C1025 1.362 . S
C1026 C1029 1.409 . S
C1027 H1019 0.930 . S
C1027 C1028 1.355 . S
C1027 C1029 1.415 . S
C1028 C1027 1.355 . S
C1028 C1030 1.419 . S
C1029 C1024 1.425 . S
C1029 C1026 1.409 . S
C1029 C1027 1.415 . S
C1030 H1020 0.930 . S
C1030 C1028 1.419 . S
C1030 C1031 1.362 . S
C1031 H1021 0.930 . S
C1031 C1024 1.409 . S
C1031 C1030 1.362 . S
H1032 C1038 0.930 . S
H1033 C1041 0.930 . S
H1034 C1042 0.930 . S
H1035 C1043 0.930 . S
H1036 C1046 0.930 . S
H1037 C1047 0.930 . S
C1038 H1032 0.930 . S
C1038 C1039 1.355 . S
C1038 C1040 1.415 . S
C1039 C1038 1.355 . S
C1039 C1041 1.419 . S
C1040 C1038 1.415 . S
C1040 C1045 1.425 . S
C1040 C1047 1.409 . S
C1041 H1033 0.930 . S
C1041 C1039 1.419 . S
C1041 C1042 1.362 . S
C1042 H1034 0.930 . S
C1042 C1041 1.362 . S
C1042 C1045 1.409 . S
C1043 H1035 0.930 . S
C1043 C1044 1.355 . S
C1043 C1045 1.415 . S
C1044 C1043 1.355 . S
C1044 C1046 1.419 . S
C1045 C1040 1.425 . S
C1045 C1042 1.409 . S
C1045 C1043 1.415 . S
C1046 H1036 0.930 . S
C1046 C1044 1.419 . S
C1046 C1047 1.362 . S
C1047 H1037 0.930 . S
C1047 C1040 1.409 . S
C1047 C1046 1.362 . S
H1048 C1054 0.930 . S
H1049 C1057 0.930 . S
H1050 C1058 0.930 . S
H1051 C1059 0.930 . S
H1052 C1062 0.930 . S
H1053 C1063 0.930 . S
C1054 H1048 0.930 . S
C1054 C1055 1.355 . S
C1054 C1056 1.415 . S
C1055 C1054 1.355 . S
C1055 C1057 1.419 . S
C1056 C1054 1.415 . S
C1056 C1061 1.425 . S
C1056 C1063 1.409 . S
C1057 H1049 0.930 . S
C1057 C1055 1.419 . S
C1057 C1058 1.362 . S
C1058 H1050 0.930 . S
C1058 C1057 1.362 . S
C1058 C1061 1.409 . S
C1059 H1051 0.930 . S
C1059 C1060 1.355 . S
C1059 C1061 1.415 . S
C1060 C1059 1.355 . S
C1060 C1062 1.419 . S
C1061 C1056 1.425 . S
C1061 C1058 1.409 . S
C1061 C1059 1.415 . S
C1062 H1052 0.930 . S
C1062 C1060 1.419 . S
C1062 C1063 1.362 . S
C1063 H1053 0.930 . S
C1063 C1056 1.409 . S
C1063 C1062 1.362 . S
H1064 C1070 0.930 . S
H1065 C1073 0.930 . S
H1066 C1074 0.930 . S
H1067 C1075 0.930 . S
H1068 C1078 0.930 . S
H1069 C1079 0.930 . S
C1070 H1064 0.930 . S
C1070 C1071 1.355 . S
C1070 C1072 1.415 . S
C1071 C1070 1.355 . S
C1071 C1073 1.419 . S
C1072 C1070 1.415 . S
C1072 C1077 1.425 . S
C1072 C1079 1.409 . S
C1073 H1065 0.930 . S
C1073 C1071 1.419 . S
C1073 C1074 1.362 . S
C1074 H1066 0.930 . S
C1074 C1073 1.362 . S
C1074 C1077 1.409 . S
C1075 H1067 0.930 . S
C1075 C1076 1.355 . S
C1075 C1077 1.415 . S
C1076 C1075 1.355 . S
C1076 C1078 1.419 . S
C1077 C1072 1.425 . S
C1077 C1074 1.409 . S
C1077 C1075 1.415 . S
C1078 H1068 0.930 . S
C1078 C1076 1.419 . S
C1078 C1079 1.362 . S
C1079 H1069 0.930 . S
C1079 C1072 1.409 . S
C1079 C1078 1.362 . S
C319 C187 1.832 . S
C324 C4 1.832 . S
C335 C16 1.831 . S
C340 C199 1.835 . S
C351 C239 1.841 . S
C356 C31 1.836 . S
C367 C49 1.821 . S
C372 C173 1.823 . S
C383 C186 1.823 . S
C388 C62 1.820 . S
C399 C68 1.836 . S
C404 C200 1.841 . S
C415 C81 1.835 . S
C420 C238 1.830 . S
C431 C101 1.833 . S
C436 C174 1.836 . S
C447 C120 1.833 . S
C452 C114 1.831 . S
C463 C134 1.821 . S
C468 C127 1.818 . S
C479 C135 1.836 . S
C484 C147 1.831 . S
C495 C148 1.841 . S
C500 C107 1.836 . S
C511 C160 1.834 . S
C516 C42 1.832 . S
C527 C55 1.836 . S
C532 C212 1.832 . S
C543 C225 1.820 . S
C548 C23 1.817 . S
C559 C17 1.241 . S
C564 C283 1.240 . S
C575 C121 1.239 . S
C580 C10 1.239 . S
C591 C302 1.237 . S
C596 C44 1.244 . S
C607 C146 1.258 . S
C612 C29 1.250 . S
C623 C276 1.250 . S
C628 C96 1.250 . S
C639 C122 1.239 . S
C644 C83 1.248 . S
C655 C69 1.238 . S
C660 C309 1.240 . S
C671 C56 1.239 . S
C676 C153 1.238 . S
C687 C205 1.241 . S
C692 C257 1.240 . S
C703 C211 1.258 . S
C708 C198 1.250 . S
C719 C179 1.239 . S
C724 C218 1.238 . S
C735 C250 1.244 . S
C740 C172 1.238 . S
C751 C36 1.241 . S
C756 C264 1.239 . S
C767 C140 1.241 . S
C772 C95 1.241 . S
C783 C3 1.248 . S
C788 C289 1.254 . S
C799 C252 1.836 . S
C804 C30 1.830 . S
C815 C5 1.839 . S
C820 C213 1.838 . S
C831 C251 1.823 . S
C836 C88 1.819 . S
C847 C161 1.838 . S
C852 C94 1.839 . S
C863 C75 1.830 . S
C868 C226 1.834 . S
C879 C277 1.830 . S
C884 C263 1.834 . S
C895 C303 1.817 . S
C900 C270 1.821 . S
C911 C290 1.832 . S
C916 C304 1.836 . S
C927 C278 1.841 . S
C932 C291 1.836 . S
C943 C108 1.239 . S
C948 C43 1.239 . S
C959 C18 1.244 . S
C964 C133 1.237 . S
C975 C70 1.258 . S
C980 C109 1.250 . S
C991 C265 1.246 . S
C996 C57 1.245 . S
C1007 C82 1.241 . S
C1012 C296 1.240 . S
C1023 C166 1.241 . S
C1028 C192 1.240 . S
C1039 C237 1.251 . S
C1044 C159 1.250 . S
C1055 C231 1.240 . S
C1060 C244 1.238 . S
C1071 C185 1.238 . S
C1076 C224 1.246 . S
