# Generated by pormake.
# Topology wkf, (6)-cn, num edge types: 1
# Building blocks:
#     Node 0, Type 0, BuildingBlock: KUMBOL_clean_sbu_1, # of connection points: 6
#     Node 1, Type 0, BuildingBlock: KUMBOL_clean_sbu_1, # of connection points: 6
#     Node 2, Type 0, BuildingBlock: KUMBOL_clean_sbu_1, # of connection points: 6
#     Node 3, Type 0, BuildingBlock: KUMBOL_clean_sbu_1, # of connection points: 6
#     Node 4, Type 0, BuildingBlock: KUMBOL_clean_sbu_1, # of connection points: 6
#     Node 5, Type 0, BuildingBlock: KUMBOL_clean_sbu_1, # of connection points: 6
#     Node 6, Type 0, BuildingBlock: KUMBOL_clean_sbu_1, # of connection points: 6
#     Node 7, Type 0, BuildingBlock: KUMBOL_clean_sbu_1, # of connection points: 6
#     Node 8, Type 0, BuildingBlock: KUMBOL_clean_sbu_1, # of connection points: 6
#     Node 9, Type 0, BuildingBlock: KUMBOL_clean_sbu_1, # of connection points: 6
#     Node 10, Type 0, BuildingBlock: KUMBOL_clean_sbu_1, # of connection points: 6
#     Node 11, Type 0, BuildingBlock: KUMBOL_clean_sbu_1, # of connection points: 6
#     Edge 12, Type (0, 0), BuildingBlock: AJUNOK_clean_linker_0, # of connection points: 2
#     Edge 13, Type (0, 0), BuildingBlock: AJUNOK_clean_linker_0, # of connection points: 2
#     Edge 14, Type (0, 0), BuildingBlock: AJUNOK_clean_linker_0, # of connection points: 2
#     Edge 15, Type (0, 0), BuildingBlock: AJUNOK_clean_linker_0, # of connection points: 2
#     Edge 16, Type (0, 0), BuildingBlock: AJUNOK_clean_linker_0, # of connection points: 2
#     Edge 17, Type (0, 0), BuildingBlock: AJUNOK_clean_linker_0, # of connection points: 2
#     Edge 18, Type (0, 0), BuildingBlock: AJUNOK_clean_linker_0, # of connection points: 2
#     Edge 19, Type (0, 0), BuildingBlock: AJUNOK_clean_linker_0, # of connection points: 2
#     Edge 20, Type (0, 0), BuildingBlock: AJUNOK_clean_linker_0, # of connection points: 2
#     Edge 21, Type (0, 0), BuildingBlock: AJUNOK_clean_linker_0, # of connection points: 2
#     Edge 22, Type (0, 0), BuildingBlock: AJUNOK_clean_linker_0, # of connection points: 2
#     Edge 23, Type (0, 0), BuildingBlock: AJUNOK_clean_linker_0, # of connection points: 2
#     Edge 24, Type (0, 0), BuildingBlock: AJUNOK_clean_linker_0, # of connection points: 2
#     Edge 25, Type (0, 0), BuildingBlock: AJUNOK_clean_linker_0, # of connection points: 2
#     Edge 26, Type (0, 0), BuildingBlock: AJUNOK_clean_linker_0, # of connection points: 2
#     Edge 27, Type (0, 0), BuildingBlock: AJUNOK_clean_linker_0, # of connection points: 2
#     Edge 28, Type (0, 0), BuildingBlock: AJUNOK_clean_linker_0, # of connection points: 2
#     Edge 29, Type (0, 0), BuildingBlock: AJUNOK_clean_linker_0, # of connection points: 2
#     Edge 30, Type (0, 0), BuildingBlock: AJUNOK_clean_linker_0, # of connection points: 2
#     Edge 31, Type (0, 0), BuildingBlock: AJUNOK_clean_linker_0, # of connection points: 2
#     Edge 32, Type (0, 0), BuildingBlock: AJUNOK_clean_linker_0, # of connection points: 2
#     Edge 33, Type (0, 0), BuildingBlock: AJUNOK_clean_linker_0, # of connection points: 2
#     Edge 34, Type (0, 0), BuildingBlock: AJUNOK_clean_linker_0, # of connection points: 2
#     Edge 35, Type (0, 0), BuildingBlock: AJUNOK_clean_linker_0, # of connection points: 2
#     Edge 36, Type (0, 0), BuildingBlock: AJUNOK_clean_linker_0, # of connection points: 2
#     Edge 37, Type (0, 0), BuildingBlock: AJUNOK_clean_linker_0, # of connection points: 2
#     Edge 38, Type (0, 0), BuildingBlock: AJUNOK_clean_linker_0, # of connection points: 2
#     Edge 39, Type (0, 0), BuildingBlock: AJUNOK_clean_linker_0, # of connection points: 2
#     Edge 40, Type (0, 0), BuildingBlock: AJUNOK_clean_linker_0, # of connection points: 2
#     Edge 41, Type (0, 0), BuildingBlock: AJUNOK_clean_linker_0, # of connection points: 2
#     Edge 42, Type (0, 0), BuildingBlock: AJUNOK_clean_linker_0, # of connection points: 2
#     Edge 43, Type (0, 0), BuildingBlock: AJUNOK_clean_linker_0, # of connection points: 2
#     Edge 44, Type (0, 0), BuildingBlock: AJUNOK_clean_linker_0, # of connection points: 2
#     Edge 45, Type (0, 0), BuildingBlock: AJUNOK_clean_linker_0, # of connection points: 2
#     Edge 46, Type (0, 0), BuildingBlock: AJUNOK_clean_linker_0, # of connection points: 2
#     Edge 47, Type (0, 0), BuildingBlock: AJUNOK_clean_linker_0, # of connection points: 2
# Relax obj value: 0.323
# Max RMSD: 0.290
# Mean RMSD: 0.279
data_MOF--net-wkf--node1-KUMBOL_clean_sbu_1--edge1-AJUNOK_clean_linker_0
_symmetry_space_group_name_H-M    P1
_symmetry_Int_Tables_number       1
_symmetry_cell_setting            triclinic
loop_
_symmetry_equiv_pos_as_xyz
'x, y, z'
_cell_length_a     23.18358
_cell_length_b     23.142767
_cell_length_c     70.346325
_cell_angle_alpha  89.928434
_cell_angle_beta   89.939655
_cell_angle_gamma 119.26143
loop_
_atom_site_label
_atom_site_type_symbol
_atom_site_fract_x
_atom_site_fract_y
_atom_site_fract_z
_atom_type_partial_charge
C0 C 0.70401 0.96673 0.36196 0.0
C1 C 0.70347 0.98888 0.32841 0.0
C2 C 0.675 0.97981 0.34667 0.0
C3 C 0.76396 0.98939 0.32615 0.0
C4 C 0.76268 0.96332 0.35964 0.0
C5 C 0.79365 0.9768 0.34177 0.0
N6 N 0.6719 0.95222 0.37882 0.0
C7 C 0.69238 0.92835 0.3936 0.0
C8 C 0.78708 0.94426 0.37522 0.0
C9 C 0.75087 0.92509 0.39214 0.0
Gd10 Gd 0.42182 0.91211 0.35572 0.0
Gd11 Gd 0.58096 0.97015 0.38142 0.0
N12 N 0.61571 0.97719 0.34937 0.0
C13 C 0.6687 0.99387 0.31286 0.0
C14 C 0.57936 0.97596 0.33405 0.0
C15 C 0.60561 0.98573 0.31565 0.0
H16 H 0.52928 0.9647 0.33593 0.0
H17 H 0.57679 0.9857 0.30356 0.0
H18 H 0.3015 0.87345 0.38867 0.0
H19 H 0.66447 0.91364 0.40671 0.0
H20 H 0.22457 0.91335 0.39826 0.0
H21 H 0.6886 1.00057 0.29858 0.0
H22 H 0.78693 0.9971 0.31227 0.0
H23 H 0.4694 0.96914 0.31081 0.0
H24 H 0.83271 0.94239 0.37421 0.0
H25 H 0.7681 0.9081 0.40406 0.0
H26 H 0.25267 0.073 0.35073 0.0
H27 H 0.83922 0.97529 0.33973 0.0
H28 H 0.3847 0.09124 0.29653 0.0
H29 H 0.45286 1.04004 0.28778 0.0
N30 N 0.41524 0.98376 0.33297 0.0
C31 C 0.3736 1.00767 0.3376 0.0
C32 C 0.44127 0.99278 0.31501 0.0
C33 C 0.39244 0.06076 0.3068 0.0
C34 C 0.43119 1.03219 0.30183 0.0
C35 C 0.36257 1.04819 0.32476 0.0
H36 H 0.31206 0.10477 0.32027 0.0
N37 N 0.34277 0.9417 0.36567 0.0
C38 C 0.33872 0.98828 0.35475 0.0
C39 C 0.25393 0.98485 0.37561 0.0
C40 C 0.29363 1.01063 0.35942 0.0
C41 C 0.30026 0.91266 0.38062 0.0
C42 C 0.2566 0.935 0.38608 0.0
O43 O 0.54941 0.86231 0.37377 0.0
O44 O 0.47915 0.84796 0.34899 0.0
O45 O 0.31964 0.83335 0.35152 0.0
O46 O 0.38623 0.85943 0.32814 0.0
O47 O 0.59125 0.06799 0.36652 0.0
O48 O 0.49324 1.03087 0.35012 0.0
O49 O 0.42808 0.9581 0.38625 0.0
O50 O 0.537 1.03359 0.38855 0.0
O51 O 0.67255 1.03817 0.3953 0.0
O52 O 0.58811 0.9695 0.41213 0.0
O53 O 0.39591 0.84569 0.3823 0.0
O54 O 0.49454 0.88697 0.39873 0.0
C55 C 0.51837 0.82843 0.35844 0.0
C56 C 0.55253 0.08218 0.3553 0.0
C57 C 0.26912 0.81929 0.32045 0.0
C58 C 0.18634 0.77149 0.29361 0.0
C59 C 0.18695 0.8546 0.31505 0.0
C60 C 0.23803 0.85586 0.32566 0.0
C61 C 0.162 0.81382 0.29928 0.0
C62 C 0.24208 0.77571 0.30417 0.0
C63 C 0.32459 0.82409 0.33343 0.0
C64 C 0.28659 0.05493 0.34726 0.0
C65 C 0.32044 0.0731 0.32991 0.0
H66 H 0.21903 1.00107 0.37967 0.0
C67 C 0.47682 1.01248 0.39412 0.0
C68 C 0.42974 0.84573 0.39751 0.0
C69 C 0.64943 0.0783 0.42369 0.0
C70 C 0.70221 0.19708 0.4292 0.0
C71 C 0.62439 0.12045 0.45232 0.0
C72 C 0.61597 0.06692 0.44113 0.0
C73 C 0.66862 0.18536 0.44665 0.0
C74 C 0.68842 0.14333 0.41736 0.0
C75 C 0.64528 1.02326 0.41216 0.0
H76 H 0.16541 0.88481 0.31938 0.0
H77 H 0.25171 0.88465 0.33842 0.0
H78 H 0.12226 0.81509 0.29154 0.0
H79 H 0.26257 0.74424 0.30023 0.0
H80 H 0.59886 0.1115 0.4658 0.0
H81 H 0.58402 1.01695 0.44618 0.0
H82 H 0.67888 0.22551 0.45634 0.0
H83 H 0.71245 0.15254 0.4036 0.0
C84 C 0.78264 0.67986 0.52941 0.0
C85 C 0.75519 0.68188 0.49644 0.0
C86 C 0.73857 0.65254 0.51466 0.0
C87 C 0.81411 0.742 0.49385 0.0
C88 C 0.84367 0.73804 0.52672 0.0
C89 C 0.85825 0.77022 0.50902 0.0
N90 N 0.76782 0.64648 0.54607 0.0
C91 C 0.81394 0.66526 0.56018 0.0
C92 C 0.88888 0.76081 0.54174 0.0
C93 C 0.87474 0.72321 0.55836 0.0
Gd94 Gd 0.56097 0.40247 0.52321 0.0
Gd95 Gd 0.65877 0.56044 0.55013 0.0
N96 N 0.68294 0.59361 0.5177 0.0
C97 C 0.71397 0.64812 0.48119 0.0
C98 C 0.64708 0.55777 0.50249 0.0
C99 C 0.66076 0.58488 0.48414 0.0
H100 H 0.61042 0.50726 0.50426 0.0
H101 H 0.63137 0.55658 0.47217 0.0
H102 H 0.48648 0.27781 0.55544 0.0
H103 H 0.80305 0.63656 0.57312 0.0
H104 H 0.3724 0.19919 0.56574 0.0
H105 H 0.72502 0.66864 0.46695 0.0
H106 H 0.82716 0.76566 0.48002 0.0
H107 H 0.54575 0.45054 0.47868 0.0
H108 H 0.93538 0.80633 0.54051 0.0
H109 H 0.91034 0.73911 0.56982 0.0
H110 H 0.23517 0.23008 0.52089 0.0
H111 H 0.90453 0.81542 0.5067 0.0
H112 H 0.33953 0.36409 0.46646 0.0
H113 H 0.45614 0.433 0.45664 0.0
N114 N 0.48087 0.39532 0.50127 0.0
C115 C 0.41692 0.35326 0.50648 0.0
C116 C 0.49518 0.42184 0.48333 0.0
C117 C 0.37871 0.37209 0.47628 0.0
C118 C 0.44447 0.4112 0.4707 0.0
C119 C 0.36422 0.34215 0.49425 0.0
H120 H 0.25801 0.29072 0.49072 0.0
N121 N 0.45586 0.32075 0.53361 0.0
C122 C 0.40417 0.31732 0.52345 0.0
C123 C 0.32724 0.23034 0.54432 0.0
C124 C 0.33839 0.2714 0.52854 0.0
C125 C 0.44513 0.27665 0.54801 0.0
C126 C 0.38079 0.23226 0.5539 0.0
O127 O 0.73129 0.52233 0.54328 0.0
O128 O 0.68143 0.46159 0.51671 0.0
O129 O 0.54239 0.30125 0.51829 0.0
O130 O 0.57585 0.36858 0.49495 0.0
O131 O 0.56865 0.56962 0.53667 0.0
O132 O 0.5122 0.47405 0.51886 0.0
O133 O 0.51247 0.40537 0.55248 0.0
O134 O 0.55472 0.51535 0.55998 0.0
O135 O 0.6838 0.65571 0.56244 0.0
O136 O 0.67881 0.57713 0.58032 0.0
O137 O 0.60396 0.37701 0.5493 0.0
O138 O 0.64846 0.47147 0.56791 0.0
C139 C 0.73759 0.49615 0.52726 0.0
C140 C 0.51718 0.53149 0.52523 0.0
C141 C 0.50341 0.25095 0.48737 0.0
C142 C 0.46828 0.16733 0.4608 0.0
C143 C 0.38737 0.1687 0.48264 0.0
C144 C 0.43689 0.2198 0.49302 0.0
C145 C 0.4026 0.14341 0.46672 0.0
C146 C 0.51936 0.22345 0.47097 0.0
C147 C 0.55369 0.30699 0.50002 0.0
C148 C 0.28592 0.26466 0.51708 0.0
C149 C 0.29885 0.29931 0.4999 0.0
H150 H 0.27743 0.19484 0.5487 0.0
C151 C 0.51134 0.45341 0.56269 0.0
C152 C 0.63007 0.40784 0.56552 0.0
C153 C 0.64572 0.6483 0.59409 0.0
C154 C 0.56929 0.68833 0.60175 0.0
C155 C 0.62973 0.66912 0.62692 0.0
C156 C 0.66172 0.65055 0.61339 0.0
C157 C 0.58441 0.68895 0.62114 0.0
C158 C 0.59647 0.66303 0.58856 0.0
C159 C 0.68406 0.6356 0.57977 0.0
H160 H 0.33647 0.14717 0.48731 0.0
H161 H 0.42255 0.2333 0.50598 0.0
H162 H 0.36222 0.10307 0.4592 0.0
H163 H 0.57046 0.24368 0.46664 0.0
H164 H 0.64246 0.67122 0.64179 0.0
H165 H 0.69939 0.63872 0.61794 0.0
H166 H 0.56544 0.70952 0.63166 0.0
H167 H 0.5844 0.66175 0.57362 0.0
C168 C 0.14776 0.75976 0.69452 0.0
C169 C 0.12852 0.73662 0.66097 0.0
C170 C 0.13529 0.71712 0.67949 0.0
C171 C 0.12908 0.79705 0.65819 0.0
C172 C 0.1523 0.8222 0.69172 0.0
C173 C 0.14076 0.83974 0.67358 0.0
N174 N 0.16113 0.74237 0.71163 0.0
C175 C 0.18442 0.78692 0.72623 0.0
C176 C 0.17078 0.866 0.70708 0.0
C177 C 0.18848 0.84891 0.72429 0.0
Gd178 Gd 0.20035 0.53287 0.68923 0.0
Gd179 Gd 0.1409 0.6331 0.71504 0.0
N180 N 0.13687 0.65993 0.68269 0.0
C181 C 0.12525 0.69668 0.64569 0.0
C182 C 0.13974 0.62446 0.66769 0.0
C183 C 0.13282 0.64141 0.64902 0.0
H184 H 0.15051 0.58528 0.6701 0.0
H185 H 0.13482 0.61302 0.6371 0.0
H186 H 0.26643 0.46519 0.71917 0.0
H187 H 0.19831 0.7739 0.73955 0.0
H188 H 0.24597 0.3529 0.72742 0.0
H189 H 0.12066 0.71009 0.63123 0.0
H190 H 0.12314 0.81236 0.6441 0.0
H191 H 0.12861 0.51582 0.64575 0.0
H192 H 0.17336 0.91375 0.70569 0.0
H193 H 0.20507 0.88336 0.73606 0.0
H194 H 0.08314 0.21057 0.68297 0.0
H195 H 0.1434 0.88722 0.67115 0.0
H196 H 1.0253 0.30989 0.63238 0.0
H197 H 1.05973 0.42587 0.62378 0.0
N198 N 0.13078 0.45214 0.66717 0.0
C199 C 0.11799 0.38932 0.67133 0.0
C200 C 0.1136 0.4658 0.64979 0.0
C201 C 1.05559 0.34941 0.64213 0.0
C202 C 0.07476 0.41475 0.63724 0.0
C203 C 0.07804 0.33605 0.65915 0.0
H204 H 1.03254 0.23009 0.65483 0.0
N205 N 0.19394 0.43147 0.69724 0.0
C206 C 0.14895 0.3786 0.68696 0.0
C207 C 0.17184 0.30504 0.70602 0.0
C208 C 0.13724 0.31398 0.69108 0.0
C209 C 0.22997 0.42324 0.7113 0.0
C210 C 0.2188 0.35985 0.71601 0.0
O211 O 0.24793 0.711 0.7079 0.0
O212 O 0.26869 0.65424 0.68461 0.0
O213 O 0.26447 0.49915 0.67483 0.0
O214 O 0.26499 0.58821 0.66583 0.0
O215 O 1.04267 0.54521 0.70075 0.0
O216 O 0.08151 0.48491 0.68435 0.0
O217 O 0.15674 0.48727 0.71948 0.0
O218 O 0.0846 0.52662 0.72269 0.0
O219 O 0.07026 0.6589 0.72678 0.0
O220 O 0.13675 0.64537 0.74553 0.0
O221 O 0.26541 0.56949 0.71617 0.0
O222 O 0.22267 0.62684 0.73274 0.0
C223 C 0.28533 0.71299 0.69347 0.0
C224 C 1.02934 0.49206 0.68978 0.0
C225 C 0.28902 0.5308 0.64095 0.0
C226 C 0.33247 0.49525 0.61289 0.0
C227 C 0.26526 0.54922 0.60841 0.0
C228 C 0.25944 0.55438 0.62788 0.0
C229 C 0.30145 0.52112 0.60106 0.0
C230 C 0.32625 0.50096 0.63324 0.0
C231 C 0.28577 0.54597 0.66201 0.0
C232 C 0.09313 0.26049 0.67984 0.0
C233 C 1.0641 0.27156 0.66384 0.0
H234 H 0.16383 0.25615 0.70967 0.0
C235 C 0.1055 0.48662 0.72839 0.0
C236 C 0.26427 0.6026 0.73149 0.0
C237 C 1.0292 0.61082 0.75697 0.0
C238 C 0.91045 0.54408 0.7621 0.0
C239 C 0.98689 0.5646 0.78817 0.0
C240 C 1.04027 0.60255 0.77614 0.0
C241 C 0.92217 0.53649 0.78132 0.0
C242 C 0.96449 0.5794 0.74997 0.0
C243 C 0.08468 0.65268 0.74432 0.0
H244 H 0.24267 0.56894 0.5988 0.0
H245 H 0.23299 0.5794 0.63262 0.0
H246 H 0.30644 0.52172 0.58576 0.0
H247 H 0.35008 0.48303 0.64296 0.0
H248 H 0.99559 0.55883 0.80299 0.0
H249 H 0.09001 0.62575 0.78182 0.0
H250 H 0.88169 0.51147 0.79127 0.0
H251 H 0.95574 0.58399 0.73506 0.0
C252 C 0.44017 0.12519 0.86638 0.0
C253 C 0.43943 0.10531 0.83264 0.0
C254 C 0.46821 0.11244 0.85076 0.0
C255 C 0.37941 0.10601 0.83083 0.0
C256 C 0.38199 0.12979 0.86453 0.0
C257 C 0.35056 0.11794 0.84678 0.0
N258 N 0.47285 0.13839 0.88312 0.0
C259 C 0.45314 0.16152 0.89824 0.0
C260 C 0.3586 0.14849 0.88041 0.0
C261 C 0.39518 0.1659 0.89722 0.0
Gd262 Gd 0.71744 0.17671 0.85622 0.0
Gd263 Gd 0.56366 0.11994 0.88469 0.0
N264 N 0.52698 0.11356 0.853 0.0
C265 C 0.47356 0.10122 0.81677 0.0
C266 C 0.56246 0.11484 0.83746 0.0
C267 C 0.53619 0.10782 0.81916 0.0
H268 H 0.61191 0.12404 0.83922 0.0
H269 H 0.56462 0.10881 0.80684 0.0
H270 H 0.85088 0.24344 0.88521 0.0
H271 H 0.48146 0.17522 0.91126 0.0
H272 H 0.94701 0.22785 0.89184 0.0
H273 H 0.45356 0.09638 0.80258 0.0
H274 H 0.35617 0.09973 0.81706 0.0
H275 H 0.64436 0.08073 0.81641 0.0
H276 H 0.31351 0.15148 0.87972 0.0
H277 H 0.3787 0.18256 0.90939 0.0
H278 H 0.92924 0.06548 0.84707 0.0
H279 H 0.30531 0.12027 0.84509 0.0
H280 H 0.75359 0.98306 0.8021 0.0
H281 H 0.66143 1.00509 0.79584 0.0
N282 N 0.72307 0.09874 0.83539 0.0
C283 C 0.77684 0.09043 0.83837 0.0
C284 C 0.68392 0.07085 0.81969 0.0
C285 C 0.74599 1.0161 0.81138 0.0
C286 C 0.69376 1.02812 0.80785 0.0
C287 C 0.78888 1.04806 0.82651 0.0
H288 H 0.8527 1.00593 0.8211 0.0
N289 N 0.81272 0.17018 0.86347 0.0
C290 C 0.82157 0.12568 0.85292 0.0
C291 C 0.92185 0.15367 0.87038 0.0
C292 C 0.87704 0.11694 0.85608 0.0
C293 C 0.85748 0.20753 0.87711 0.0
C294 C 0.91211 0.19916 0.88088 0.0
O295 O 0.5905 0.22659 0.87664 0.0
O296 O 0.66181 0.24357 0.85183 0.0
O297 O 0.81463 0.24683 0.84351 0.0
O298 O 0.72511 0.22504 0.82883 0.0
O299 O 0.54713 1.02076 0.86926 0.0
O300 O 0.64769 0.05685 0.85445 0.0
O301 O 0.72416 0.13773 0.88664 0.0
O302 O 0.61549 0.06309 0.89147 0.0
O303 O 0.47414 0.05125 0.89943 0.0
O304 O 0.55958 0.12174 0.9155 0.0
O305 O 0.7471 0.24738 0.88216 0.0
O306 O 0.65271 0.20277 0.90091 0.0
C307 C 0.62169 0.26157 0.8614 0.0
C308 C 0.58729 1.00599 0.85896 0.0
C309 C 0.82108 0.25339 0.80867 0.0
C310 C 0.91114 0.29732 0.78384 0.0
C311 C 0.8078 0.1956 0.77856 0.0
C312 C 0.78232 0.20313 0.79573 0.0
C313 C 0.87153 0.24126 0.77284 0.0
C314 C 0.88576 0.30296 0.80214 0.0
C315 C 0.78995 0.25535 0.82777 0.0
C316 C 0.88708 0.07284 0.84473 0.0
C317 C 0.84351 1.03896 0.82993 0.0
H318 H 0.96471 0.14795 0.87325 0.0
C319 C 0.67714 0.0859 0.896 0.0
C320 C 0.71635 0.246 0.89832 0.0
C321 C 0.49986 1.0139 0.92789 0.0
C322 C 0.44907 0.89548 0.93279 0.0
C323 C 0.50822 0.97092 0.95861 0.0
C324 C 0.52054 1.02474 0.94691 0.0
C325 C 0.47049 0.90621 0.9518 0.0
C326 C 0.47147 0.9498 0.92054 0.0
C327 C 0.50275 0.06771 0.91605 0.0
H328 H 0.77669 0.15519 0.76918 0.0
H329 H 0.73078 0.17041 0.79846 0.0
H330 H 0.88815 0.23515 0.75895 0.0
H331 H 0.91514 0.34587 0.81091 0.0
H332 H 0.52385 0.9792 0.97332 0.0
H333 H 0.54468 0.07429 0.95279 0.0
H334 H 0.45489 0.8652 0.96163 0.0
H335 H 0.45952 0.94141 0.90555 0.0
C336 C 0.36191 0.4034 0.04035 0.0
C337 C 0.37712 0.36338 1.01008 0.0
C338 C 0.40073 0.4118 0.02458 0.0
C339 C 0.31565 0.30571 1.01218 0.0
C340 C 0.2988 0.34698 0.04217 0.0
C341 C 0.27657 0.29748 0.02821 0.0
N342 N 0.38397 0.45267 0.05333 0.0
C343 C 0.34426 0.45072 0.06795 0.0
C344 C 0.25881 0.34333 0.05755 0.0
C345 C 0.2813 0.39595 0.07034 0.0
Gd346 Gd 0.58199 0.69531 0.02045 0.0
Gd347 Gd 0.49294 0.53916 0.05023 0.0
N348 N 0.45945 0.46896 0.02287 0.0
C349 C 0.415 0.37507 0.99363 0.0
C350 C 0.49461 0.48119 1.00634 0.0
C351 C 0.47363 0.43464 0.99168 0.0
H352 H 0.53861 0.527 1.004 0.0
H353 H 0.50256 0.4452 0.97877 0.0
H354 H 0.74575 0.77834 0.02533 0.0
H355 H 0.36122 0.49142 0.07785 0.0
H356 H 0.84455 0.81089 1.00501 0.0
H357 H 0.39859 0.33932 0.98217 0.0
H358 H 0.29713 0.26798 1.00125 0.0
H359 H 0.44724 0.5801 0.99438 0.0
H360 H 0.2099 0.30107 0.05937 0.0
H361 H 0.25018 0.39437 0.08204 0.0
H362 H 0.75528 0.69984 0.94592 0.0
H363 H 0.22839 0.25369 0.02939 0.0
H364 H 0.52131 0.56277 0.94068 0.0
H365 H 0.4277 0.53482 0.96242 0.0
N366 N 0.55233 0.63515 0.99165 0.0
C367 C 0.60481 0.65222 0.97962 0.0
C368 C 0.48931 0.59452 0.9854 0.0
C369 C 0.5307 0.5836 0.95486 0.0
C370 C 0.47773 0.56782 0.96709 0.0
C371 C 0.59509 0.62631 0.961 0.0
H372 H 0.6428 0.6243 0.93469 0.0
N373 N 0.67819 0.71915 1.00394 0.0
C374 C 0.66909 0.69585 0.98582 0.0
C375 C 0.78756 0.75521 0.98082 0.0
C376 C 0.72392 0.71299 0.97382 0.0
C377 C 0.73992 0.75979 1.01096 0.0
C378 C 0.79558 0.77851 0.99948 0.0
O379 O 0.41037 0.55539 0.03678 0.0
O380 O 0.46293 0.65298 0.01959 0.0
O381 O 0.63944 0.80358 0.02107 0.0
O382 O 0.57346 0.75846 0.99804 0.0
O383 O 0.58394 0.53414 0.03598 0.0
O384 O 0.64062 0.63252 0.01929 0.0
O385 O 0.63869 0.70472 0.04915 0.0
O386 O 0.59963 0.59574 0.05798 0.0
O387 O 0.48646 0.45776 0.06747 0.0
O388 O 0.48338 0.54054 0.08071 0.0
O389 O 0.55285 0.72488 0.04851 0.0
O390 O 0.48885 0.62704 0.06482 0.0
C391 C 0.4061 0.60029 0.02597 0.0
C392 C 0.63591 0.57445 0.02496 0.0
C393 C 0.67027 0.86629 0.9915 0.0
C394 C 0.70517 0.94619 0.96394 0.0
C395 C 0.78674 0.94407 0.98543 0.0
C396 C 0.73737 0.89485 0.99648 0.0
C397 C 0.77112 0.969 0.96944 0.0
C398 C 0.65419 0.89304 0.97502 0.0
C399 C 0.6192 0.81411 1.00485 0.0
C400 C 0.71378 0.68711 0.95536 0.0
C401 C 0.64967 0.64398 0.94898 0.0
H402 H 0.83084 0.7695 0.97201 0.0
C403 C 0.6413 0.6586 0.06011 0.0
C404 C 0.51632 0.6925 0.06342 0.0
C405 C 0.54259 0.49764 0.09709 0.0
C406 C 0.61189 0.45726 0.11134 0.0
C407 C 0.61165 0.55354 0.12452 0.0
C408 C 0.56605 0.54869 0.11074 0.0
C409 C 0.63387 0.50732 0.12503 0.0
C410 C 0.56703 0.45309 0.09732 0.0
C411 C 0.49061 0.48885 0.08333 0.0
H412 H 0.83799 0.96403 0.98951 0.0
H413 H 0.75247 0.88022 1.0093 0.0
H414 H 0.81162 1.00717 0.96134 0.0
H415 H 0.60281 0.87429 0.9713 0.0
H416 H 0.62841 0.59216 0.13515 0.0
H417 H 0.54837 0.5842 0.11101 0.0
H418 H 0.6661 0.50913 0.13642 0.0
H419 H 0.54792 0.41223 0.08732 0.0
C420 C 0.99031 0.33519 0.19005 0.0
C421 C 1.00635 0.36074 0.1565 0.0
C422 C 1.00154 0.37896 0.17535 0.0
C423 C 1.0044 0.30006 0.15297 0.0
C424 C 0.98535 0.27294 0.18655 0.0
C425 C 0.99425 0.25633 0.168 0.0
N426 N 0.97957 0.35166 0.20763 0.0
C427 C 0.95875 0.30647 0.2221 0.0
C428 C 0.96958 0.22852 0.20171 0.0
C429 C 0.95461 0.24471 0.21947 0.0
Gd430 Gd 0.93776 0.56174 0.18819 0.0
Gd431 Gd 0.99937 0.46027 0.21202 0.0
N432 N 1.00172 0.43657 0.17928 0.0
C433 C 1.00981 0.40256 0.14169 0.0
C434 C 1.0001 0.47463 0.16475 0.0
C435 C 1.00514 0.45899 0.14581 0.0
H436 H 0.99154 0.51496 0.16772 0.0
H437 H 1.00401 0.48951 0.13432 0.0
H438 H 0.88521 0.62894 0.22242 0.0
H439 H 0.94694 0.31872 0.23585 0.0
H440 H 0.91658 0.74074 0.23448 0.0
H441 H 1.01295 0.39016 0.12701 0.0
H442 H 1.00864 0.28562 0.13861 0.0
H443 H 1.00862 0.58745 0.14409 0.0
H444 H 0.96719 0.18106 0.19978 0.0
H445 H 0.94012 0.20978 0.23113 0.0
H446 H 0.07948 0.88791 0.1906 0.0
H447 H 0.99107 0.20892 0.16504 0.0
H448 H 0.12652 0.79616 0.13597 0.0
H449 H 0.08494 0.68197 0.12436 0.0
N450 N 1.01143 0.6468 0.16758 0.0
C451 C 1.02997 0.70952 0.17369 0.0
C452 C 1.02792 0.63677 0.14962 0.0
C453 C 0.09381 0.75472 0.14488 0.0
C454 C 0.07062 0.69035 0.13829 0.0
C455 C 0.07238 0.76502 0.16251 0.0
H456 H 0.12278 0.87194 0.16044 0.0
N457 N 0.95758 0.66447 0.20036 0.0
C458 C 1.00419 0.71846 0.19076 0.0
C459 C 0.99061 0.79071 0.21302 0.0
C460 C 1.02129 0.78308 0.19683 0.0
C461 C 0.92388 0.67189 0.21533 0.0
C462 C 0.94131 0.73496 0.22219 0.0
O463 O 0.89037 0.38522 0.20566 0.0
O464 O 0.87449 0.44097 0.18103 0.0
O465 O 0.8557 0.58152 0.18356 0.0
O466 O 0.89355 0.55443 0.15958 0.0
O467 O 0.09622 0.54548 0.1967 0.0
O468 O 1.0575 0.61191 0.18411 0.0
O469 O 0.98457 0.60129 0.21854 0.0
O470 O 1.05961 0.56527 0.22104 0.0
O471 O 0.07137 0.43598 0.22371 0.0
O472 O 1.00161 0.44493 0.24235 0.0
O473 O 0.8689 0.51528 0.21384 0.0
O474 O 0.91999 0.46729 0.2308 0.0
C475 C 0.85538 0.38235 0.19049 0.0
C476 C 0.10938 0.60177 0.18748 0.0
C477 C 0.84835 0.62976 0.15366 0.0
C478 C 0.80562 0.67279 0.12718 0.0
C479 C 0.87274 0.74508 0.15285 0.0
C480 C 0.87554 0.69302 0.16181 0.0
C481 C 0.83903 0.73542 0.13582 0.0
C482 C 0.8122 0.61957 0.13603 0.0
C483 C 0.85337 0.57569 0.16509 0.0
C484 C 1.06579 0.83809 0.18609 0.0
C485 C 0.09063 0.82904 0.16891 0.0
H486 H 1.00295 0.83952 0.21817 0.0
C487 C 1.03818 0.60478 0.22663 0.0
C488 C 0.87442 0.4864 0.22947 0.0
C489 C 0.11124 0.4919 0.2531 0.0
C490 C 0.22965 0.56205 0.25805 0.0
C491 C 0.15184 0.54933 0.2831 0.0
C492 C 0.0992 0.50619 0.27161 0.0
C493 C 0.21691 0.57571 0.27661 0.0
C494 C 0.17597 0.52377 0.2461 0.0
C495 C 1.05685 0.44343 0.24117 0.0
H496 H 0.89574 0.79345 0.15947 0.0
H497 H 0.89765 0.70257 0.17563 0.0
H498 H 0.83828 0.7778 0.12953 0.0
H499 H 0.78782 0.57073 0.12974 0.0
H500 H 0.14237 0.55973 0.29741 0.0
H501 H 1.04935 0.48348 0.27724 0.0
H502 H 0.25667 0.60354 0.28649 0.0
H503 H 0.18521 0.51539 0.23154 0.0
C504 C 0.13625 0.41452 0.50692 0.0
C505 C 0.12176 0.43305 0.53996 0.0
C506 C 0.13034 0.45351 0.52072 0.0
C507 C 0.11475 0.37102 0.54476 0.0
C508 C 0.13383 0.35418 0.51183 0.0
C509 C 0.12085 0.33162 0.5307 0.0
N510 N 0.15065 0.43861 0.48897 0.0
C511 C 0.1689 0.40768 0.47562 0.0
C512 C 0.14751 0.31979 0.49782 0.0
C513 C 0.16657 0.34745 0.47973 0.0
Gd514 Gd 0.20573 0.69683 0.50574 0.0
Gd515 Gd 0.14409 0.53506 0.48217 0.0
N516 N 0.13993 0.51426 0.5156 0.0
C517 C 0.12415 0.47696 0.55393 0.0
C518 C 0.14823 0.55882 0.52948 0.0
C519 C 0.13907 0.54076 0.54868 0.0
H520 H 0.16458 0.60923 0.52605 0.0
H521 H 0.14499 0.5766 0.55945 0.0
H522 H 0.27718 0.81374 0.47062 0.0
H523 H 0.1849 0.42894 0.46166 0.0
H524 H 0.25037 0.89035 0.45331 0.0
H525 H 0.11816 0.46337 0.56884 0.0
H526 H 0.10744 0.35434 0.55941 0.0
H527 H 0.13523 0.67733 0.54921 0.0
H528 H 0.14599 0.27326 0.50102 0.0
H529 H 0.17977 0.32258 0.46896 0.0
H530 H 0.07073 0.88436 0.4881 0.0
H531 H 0.11808 0.28508 0.5347 0.0
H532 H 1.0213 0.77694 0.54847 0.0
H533 H 1.06512 0.71419 0.56582 0.0
N534 N 0.13214 0.72029 0.52268 0.0
C535 C 0.11401 0.76073 0.51339 0.0
C536 C 0.1173 0.70586 0.54155 0.0
C537 C 1.0522 0.76132 0.54105 0.0
C538 C 0.07724 0.72621 0.55096 0.0
C539 C 0.07139 0.78014 0.52217 0.0
H540 H 1.02081 0.8373 0.51891 0.0
N541 N 0.19583 0.78126 0.48982 0.0
C542 C 0.14583 0.79099 0.49636 0.0
C543 C 0.16795 0.87098 0.47129 0.0
C544 C 0.13118 0.83675 0.48729 0.0
C545 C 0.23584 0.81931 0.47527 0.0
C546 C 0.22103 0.86295 0.46544 0.0
O547 O 0.25059 0.56179 0.48991 0.0
O548 O 0.27272 0.6421 0.51238 0.0
O549 O 0.28436 0.79737 0.51197 0.0
O550 O 0.24864 0.72719 0.53468 0.0
O551 O 1.04604 0.52722 0.49559 0.0
O552 O 0.08632 0.62557 0.51211 0.0
O553 O 0.15789 0.68942 0.47561 0.0
O554 O 0.08262 0.58005 0.47324 0.0
O555 O 1.06912 0.44656 0.46799 0.0
O556 O 0.15742 0.51684 0.45283 0.0
O557 O 0.27887 0.71394 0.48159 0.0
O558 O 0.22052 0.62136 0.46309 0.0
C559 C 0.28849 0.59816 0.50404 0.0
C560 C 1.03372 0.56677 0.50694 0.0
C561 C 0.29093 0.84398 0.54309 0.0
C562 C 0.33904 0.92831 0.56935 0.0
C563 C 0.25118 0.92239 0.54905 0.0
C564 C 0.25148 0.87226 0.53829 0.0
C565 C 0.29354 0.9494 0.56443 0.0
C566 C 0.33594 0.87307 0.55889 0.0
C567 C 0.28768 0.78927 0.5302 0.0
C568 C 0.08295 0.84983 0.495 0.0
C569 C 1.05395 0.82246 0.51252 0.0
H570 H 0.15752 0.90584 0.46383 0.0
C571 C 0.10372 0.64068 0.46778 0.0
C572 C 0.27001 0.68287 0.4652 0.0
C573 C 1.05645 0.47591 0.4365 0.0
C574 C 0.94902 0.43614 0.42174 0.0
C575 C 1.04261 0.53648 0.41012 0.0
C576 C 0.08303 0.52977 0.4237 0.0
C577 C 0.9755 0.48967 0.40909 0.0
C578 C 0.9894 0.42977 0.43542 0.0
C579 C 0.09706 0.4683 0.45141 0.0
H580 H 0.21864 0.94165 0.54514 0.0
H581 H 0.22153 0.85693 0.52577 0.0
H582 H 0.29141 0.98843 0.57236 0.0
H583 H 0.36924 0.85452 0.56254 0.0
H584 H 1.06351 0.57774 0.40027 0.0
H585 H 0.13478 0.56679 0.42418 0.0
H586 H 0.94494 0.49411 0.3982 0.0
H587 H 0.9685 0.3876 0.44502 0.0
C588 C 0.76961 0.11076 0.67364 0.0
C589 C 0.73872 0.09978 0.70684 0.0
C590 C 0.72519 0.1054 0.68753 0.0
C591 C 0.79535 0.0957 0.71171 0.0
C592 C 0.82879 0.11101 0.67857 0.0
C593 C 0.84042 0.10145 0.69759 0.0
N594 N 0.75777 0.12161 0.6555 0.0
C595 C 0.80517 0.13762 0.64182 0.0
C596 C 0.87583 0.12371 0.66438 0.0
C597 C 0.8644 0.1382 0.64598 0.0
Gd598 Gd 0.55638 0.18041 0.67254 0.0
Gd599 Gd 0.65478 0.1145 0.64905 0.0
N600 N 0.67232 0.11223 0.68236 0.0
C601 C 0.69692 0.102 0.72078 0.0
C602 C 0.63528 0.12014 0.69612 0.0
C603 C 0.64582 0.11376 0.71539 0.0
H604 H 0.59949 0.13432 0.69245 0.0
H605 H 0.61549 0.11951 0.7261 0.0
H606 H 0.51321 0.25771 0.63843 0.0
H607 H 0.79782 0.15026 0.6276 0.0
H608 H 0.41183 0.23815 0.62195 0.0
H609 H 0.70572 0.09817 0.73573 0.0
H610 H 0.8061 0.09082 0.72643 0.0
H611 H 0.5054 0.10323 0.71536 0.0
H612 H 0.92197 0.12466 0.66762 0.0
H613 H 0.90138 0.15022 0.63502 0.0
H614 H 0.23806 0.05872 0.65603 0.0
H615 H 0.88522 0.10081 0.70161 0.0
H616 H 0.29401 0.99731 0.71502 0.0
H617 H 0.39955 1.03206 0.73169 0.0
N618 N 0.46007 0.10697 0.68937 0.0
C619 C 0.40233 0.09224 0.68036 0.0
C620 C 0.45951 0.08832 0.70793 0.0
C621 C 0.34018 1.0282 0.70769 0.0
C622 C 0.39971 1.04797 0.71721 0.0
C623 C 0.34084 0.05084 0.68918 0.0
H624 H 0.23447 1.00472 0.68625 0.0
N625 N 0.46383 0.17487 0.65707 0.0
C626 C 0.40441 0.12598 0.66358 0.0
C627 C 0.34818 0.15417 0.63932 0.0
C628 C 0.34498 0.11495 0.65489 0.0
C629 C 0.4666 0.21696 0.64292 0.0
C630 C 0.40913 0.20609 0.63354 0.0
O631 O 0.73494 0.2209 0.65658 0.0
O632 O 0.67729 0.24664 0.67858 0.0
O633 O 0.53683 0.26145 0.67927 0.0
O634 O 0.56731 0.22065 0.70183 0.0
O635 O 0.56768 1.01816 0.66358 0.0
O636 O 0.50575 0.05976 0.67757 0.0
O637 O 0.51661 0.13471 0.64234 0.0
O638 O 0.54937 0.05706 0.64008 0.0
O639 O 0.66413 1.03438 0.63565 0.0
O640 O 0.68393 0.12208 0.61961 0.0
O641 O 0.6112 0.25268 0.64834 0.0
O642 O 0.64774 0.19422 0.63017 0.0
C643 C 0.73647 0.26086 0.6703 0.0
C644 C 0.51342 1.00648 0.67355 0.0
C645 C 0.49468 0.26621 0.71022 0.0
C646 C 0.45724 0.31337 0.73665 0.0
C647 C 0.37763 0.22933 0.7154 0.0
C648 C 0.42822 0.22944 0.7048 0.0
C649 C 0.39174 0.2698 0.73121 0.0
C650 C 0.50941 0.30972 0.72638 0.0
C651 C 0.54625 0.26221 0.69756 0.0
C652 C 0.28406 0.06816 0.66264 0.0
C653 C 0.282 1.03698 0.67985 0.0
H654 H 0.30358 0.14677 0.63224 0.0
C655 C 0.51113 0.07999 0.63451 0.0
C656 C 0.6347 0.244 0.63212 0.0
C657 C 0.6194 1.0197 0.60432 0.0
C658 C 0.54292 0.91237 0.59078 0.0
C659 C 0.5534 1.01181 0.57641 0.0
C660 C 0.60045 0.04979 0.59004 0.0
C661 C 0.52524 0.94311 0.57659 0.0
C662 C 0.5893 0.95057 0.60472 0.0
C663 C 0.66949 0.06025 0.61878 0.0
H664 H 0.32678 0.19866 0.711 0.0
H665 H 0.41478 0.20181 0.69189 0.0
H666 H 0.35058 0.26808 0.739 0.0
H667 H 0.56039 0.34169 0.73044 0.0
H668 H 0.54003 1.03586 0.56542 0.0
H669 H 0.62233 0.10268 0.58927 0.0
H670 H 0.49173 0.91424 0.56533 0.0
H671 H 0.60456 0.9264 0.61523 0.0
C672 C 0.70731 0.73196 0.83872 0.0
C673 C 0.69084 0.70014 0.87186 0.0
C674 C 0.66795 0.68993 0.8529 0.0
C675 C 0.75548 0.75001 0.87598 0.0
C676 C 0.7704 0.78543 0.84302 0.0
C677 C 0.79524 0.79266 0.86157 0.0
N678 N 0.68073 0.72516 0.8212 0.0
C679 C 0.71186 0.77367 0.80782 0.0
C680 C 0.80479 0.83242 0.82887 0.0
C681 C 0.77463 0.82733 0.81133 0.0
Gd682 Gd 0.41931 0.53061 0.8402 0.0
Gd683 Gd 0.5799 0.62784 0.81541 0.0
N684 N 0.60487 0.64396 0.84847 0.0
C685 C 0.64698 0.66249 0.88627 0.0
C686 C 0.56093 0.61124 0.86275 0.0
C687 C 0.58129 0.61895 0.88172 0.0
H688 H 0.50979 0.57989 0.85972 0.0
H689 H 0.54607 0.59199 0.89288 0.0
H690 H 0.29974 0.48042 0.80591 0.0
H691 H 0.68879 0.771 0.79429 0.0
H692 H 0.22163 0.37598 0.79041 0.0
H693 H 0.66248 0.66908 0.901 0.0
H694 H 0.77406 0.75793 0.89042 0.0
H695 H 0.44767 0.48642 0.88381 0.0
H696 H 0.85306 0.87449 0.83164 0.0
H697 H 0.79952 0.86492 0.80055 0.0
H698 H 0.23527 0.20891 0.82691 0.0
H699 H 0.84384 0.83294 0.86509 0.0
H700 H 0.34978 0.27487 0.88594 0.0
H701 H 0.41582 0.38313 0.9016 0.0
N702 N 0.40045 0.43698 0.85817 0.0
C703 C 0.35961 0.37769 0.84973 0.0
C704 C 0.41836 0.43933 0.87687 0.0
C705 C 0.36342 0.31992 0.87803 0.0
C706 C 0.40047 0.38098 0.88698 0.0
C707 C 0.34185 0.3176 0.85932 0.0
H708 H 0.2856 0.21067 0.8576 0.0
N709 N 0.33614 0.4349 0.82534 0.0
C710 C 0.32821 0.37679 0.83261 0.0
C711 C 0.24537 0.31591 0.80869 0.0
C712 C 0.28196 0.31569 0.82448 0.0
C713 C 0.29595 0.43476 0.81101 0.0
C714 C 0.25153 0.37558 0.80216 0.0
O715 O 0.55861 0.71028 0.82529 0.0
O716 O 0.47193 0.65161 0.84606 0.0
O717 O 0.31873 0.51032 0.84638 0.0
O718 O 0.38803 0.54231 0.86921 0.0
O719 O 0.58909 0.5385 0.82913 0.0
O720 O 0.49167 0.48229 0.84605 0.0
O721 O 0.42628 0.49009 0.8101 0.0
O722 O 0.53552 0.52205 0.80724 0.0
O723 O 0.66404 0.63624 0.79939 0.0
O724 O 0.5932 0.6591 0.78602 0.0
O725 O 0.39779 0.58228 0.81569 0.0
O726 O 0.49177 0.62117 0.79734 0.0
C727 C 0.51869 0.7111 0.83864 0.0
C728 C 0.55032 0.48751 0.84065 0.0
C729 C 0.27141 0.46738 0.87717 0.0
C730 C 0.18759 0.42882 0.90363 0.0
C731 C 0.19152 0.35018 0.88144 0.0
C732 C 0.2418 0.40127 0.87116 0.0
C733 C 0.16536 0.36355 0.89751 0.0
C734 C 0.24328 0.48124 0.89372 0.0
C735 C 0.326 0.51978 0.86468 0.0
C736 C 0.27015 0.25615 0.83306 0.0
C737 C 0.29922 0.25712 0.85054 0.0
H738 H 0.20978 0.26999 0.80203 0.0
C739 C 0.47482 0.48332 0.80224 0.0
C740 C 0.42889 0.60658 0.79943 0.0
C741 C 0.6288 0.59637 0.76799 0.0
C742 C 0.66234 0.52521 0.75158 0.0
C743 C 0.56786 0.53258 0.74028 0.0
C744 C 0.57693 0.57747 0.75481 0.0
C745 C 0.61088 0.50673 0.73852 0.0
C746 C 0.67048 0.56902 0.76637 0.0
C747 C 0.64005 0.64423 0.78339 0.0
H748 H 0.17129 0.2996 0.87655 0.0
H749 H 0.25589 0.38854 0.85803 0.0
H750 H 0.1259 0.32207 0.90498 0.0
H751 H 0.26288 0.53192 0.89837 0.0
H752 H 0.52829 0.51897 0.73012 0.0
H753 H 0.54376 0.59767 0.75559 0.0
H754 H 0.60549 0.47446 0.72672 0.0
H755 H 0.71182 0.58444 0.77606 0.0
C756 C 1.00023 0.68656 1.00102 0.0
C757 C 1.01291 0.67869 0.03488 0.0
C758 C 1.00894 0.6541 1.01627 0.0
C759 C 1.01204 0.73832 0.03769 0.0
C760 C 0.99505 0.74427 1.00387 0.0
C761 C 1.003 0.77103 0.02219 0.0
N762 N 0.99051 0.6582 0.98365 0.0
C763 C 0.97125 0.6827 0.96872 0.0
C764 C 0.97893 0.77159 0.98839 0.0
C765 C 0.96602 0.74004 0.97079 0.0
Gd766 Gd 0.9416 0.40607 1.00794 0.0
Gd767 Gd 1.00312 0.56348 0.98083 0.0
N768 N 1.00678 0.59514 1.0131 0.0
C769 C 1.01389 0.6408 0.05021 0.0
C770 C 1.00259 0.5562 0.02813 0.0
C771 C 1.00717 0.57855 0.04683 0.0
H772 H 0.99288 0.50691 0.02573 0.0
H773 H 1.00395 0.54725 0.05867 0.0
H774 H 0.86502 0.27328 0.97826 0.0
H775 H 0.95931 0.65799 0.95514 0.0
H776 H 0.87396 0.17494 0.9702 0.0
H777 H 1.01641 0.65762 0.06472 0.0
H778 H 1.01559 0.7581 0.05186 0.0
H779 H 1.02926 0.46446 0.04909 0.0
H780 H 0.97401 0.81554 0.99002 0.0
H781 H 0.95135 0.75947 0.95886 0.0
H782 H 1.03507 0.17952 1.01346 0.0
H783 H 0.99979 0.81561 0.02463 0.0
H784 H 0.11851 0.34547 0.06163 0.0
H785 H 0.09844 0.43787 0.06983 0.0
N786 N 1.0125 0.39009 0.02868 0.0
C787 C 1.01863 0.33563 0.02467 0.0
C788 C 1.03752 0.4241 0.04531 0.0
C789 C 0.08802 0.35696 0.05242 0.0
C790 C 0.07691 0.4092 0.05709 0.0
C791 C 1.05781 0.31863 0.03631 0.0
H792 H 0.09536 0.25025 0.04045 0.0
N793 N 0.93974 0.307 0.99962 0.0
C794 C 0.98272 0.29414 1.00958 0.0
C795 C 0.9492 0.19462 0.99104 0.0
C796 C 0.98797 0.23706 1.00557 0.0
C797 C 0.90017 0.26434 0.98586 0.0
C798 C 0.90486 0.2081 0.98125 0.0
O799 O 0.89819 0.54073 0.98894 0.0
O800 O 0.87438 0.46075 1.01176 0.0
O801 O 0.87385 0.31146 0.02247 0.0
O802 O 0.8879 0.40437 0.03349 0.0
O803 O 0.09976 0.57579 0.99649 0.0
O804 O 1.061 0.47429 1.01126 0.0
O805 O 0.98321 0.40126 0.97799 0.0
O806 O 1.05884 0.51043 0.97382 0.0
O807 O 0.08052 0.64933 0.96605 0.0
O808 O 0.9957 0.57503 0.95066 0.0
O809 O 0.8735 0.379 0.98169 0.0
O810 O 0.92106 0.47514 0.96375 0.0
C811 C 0.85995 0.50494 1.00314 0.0
C812 C 0.1126 0.53443 1.00688 0.0
C813 C 0.86148 0.31837 0.05701 0.0
C814 C 0.81741 0.23621 0.08401 0.0
C815 C 0.89907 0.35218 0.08955 0.0
C816 C 0.9 0.3672 0.07038 0.0
C817 C 0.85845 0.2883 0.09627 0.0
C818 C 0.81949 0.25209 0.06403 0.0
C819 C 0.86135 0.34043 0.03655 0.0
C820 C 1.03017 0.22284 1.01647 0.0
C821 C 1.06456 0.26315 0.03185 0.0
H822 H 0.95207 0.15049 0.98755 0.0
C823 C 1.03628 0.44874 0.96927 0.0
C824 C 0.87692 0.41112 0.96567 0.0
C825 C 0.09912 0.61564 0.93566 0.0
C826 C 0.20847 0.65419 0.92222 0.0
C827 C 0.11483 0.55885 0.90862 0.0
C828 C 0.07339 0.56445 0.92206 0.0
C829 C 0.18236 0.60406 0.90856 0.0
C830 C 0.16701 0.65948 0.93579 0.0
C831 C 1.0557 0.62432 0.94944 0.0
H832 H 0.92904 0.39116 0.09946 0.0
H833 H 0.93016 0.41838 0.06619 0.0
H834 H 0.85779 0.28065 0.11147 0.0
H835 H 0.78869 0.2139 0.05405 0.0
H836 H 0.09427 0.52025 0.89798 0.0
H837 H 1.02134 0.5291 0.92163 0.0
H838 H 0.21355 0.60171 0.89748 0.0
H839 H 0.18752 0.7002 0.94584 0.0
C840 C 0.37451 0.98758 0.17483 0.0
C841 C 0.41723 1.01181 0.20682 0.0
C842 C 0.42347 0.99774 0.18763 0.0
C843 C 0.36474 1.02225 0.2123 0.0
C844 C 0.31893 0.99285 0.18053 0.0
C845 C 0.3157 1.01303 0.19912 0.0
N846 N 0.37773 0.96494 0.15737 0.0
C847 C 0.32454 0.94091 0.14543 0.0
C848 C 0.26646 0.97354 0.16775 0.0
C849 C 0.26859 0.94582 0.1503 0.0
Gd850 Gd 0.58356 0.91426 0.17083 0.0
Gd851 Gd 0.48092 0.97782 0.14821 0.0
N852 N 0.47227 0.98522 0.18183 0.0
C853 C 0.46126 1.01054 0.22012 0.0
C854 C 0.51005 0.9768 0.19518 0.0
C855 C 0.50646 0.99077 0.21436 0.0
H856 H 0.5416 0.95755 0.19131 0.0
H857 H 0.5377 0.98507 0.22475 0.0
H858 H 0.62066 0.83216 0.1366 0.0
H859 H 0.32631 0.92018 0.13183 0.0
H860 H 0.7195 0.84821 0.11934 0.0
H861 H 0.45795 1.02053 0.23501 0.0
H862 H 0.35983 1.03415 0.22689 0.0
H863 H 0.6411 0.99375 0.21306 0.0
H864 H 0.22292 0.97688 0.17158 0.0
H865 H 0.22739 0.92858 0.14056 0.0
H866 H 0.89874 1.03107 0.15059 0.0
H867 H 0.27375 1.01804 0.20374 0.0
H868 H 0.85179 0.10238 0.20929 0.0
H869 H 0.74935 0.06793 0.22759 0.0
N870 N 0.68215 0.98775 0.1865 0.0
C871 C 0.73838 1.00148 0.17673 0.0
C872 C 0.68568 1.00819 0.20496 0.0
C873 C 0.80462 0.07023 0.20272 0.0
C874 C 0.74684 0.05036 0.2132 0.0
C875 C 0.80113 1.04471 0.18447 0.0
H876 H 0.90696 0.0906 0.18005 0.0
N877 N 0.67322 0.91623 0.15456 0.0
C878 C 0.73379 0.965 0.16034 0.0
C879 C 0.78609 0.93336 0.13575 0.0
C880 C 0.79178 0.97459 0.15101 0.0
C881 C 0.66795 0.873 0.1405 0.0
C882 C 0.72408 0.88169 0.1307 0.0
O883 O 0.40335 0.87019 0.15548 0.0
O884 O 0.46294 0.84686 0.17734 0.0
O885 O 0.60332 0.8334 0.17783 0.0
O886 O 0.57512 0.87617 0.20038 0.0
O887 O 0.57385 0.07605 0.15987 0.0
O888 O 0.63272 1.03453 0.17578 0.0
O889 O 0.62928 0.96799 0.14184 0.0
O890 O 0.58174 1.03317 0.13552 0.0
O891 O 0.45395 0.05056 0.13905 0.0
O892 O 0.44809 0.97671 0.11914 0.0
O893 O 0.52784 0.84365 0.1464 0.0
O894 O 0.49148 0.90265 0.1283 0.0
C895 C 0.40319 0.83114 0.16925 0.0
C896 C 0.62727 0.0879 0.17027 0.0
C897 C 0.6466 0.82919 0.2087 0.0
C898 C 0.68401 0.78072 0.23486 0.0
C899 C 0.76366 0.86639 0.21385 0.0
C900 C 0.71314 0.86679 0.20337 0.0
C901 C 0.7495 0.82487 0.22947 0.0
C902 C 0.63184 0.78468 0.22468 0.0
C903 C 0.59502 0.83369 0.19617 0.0
C904 C 0.8538 1.02265 0.15771 0.0
C905 C 0.85848 0.05705 0.17447 0.0
H906 H 0.82956 0.93934 0.12826 0.0
C907 C 0.62715 1.01659 0.13221 0.0
C908 C 0.50627 0.854 0.13005 0.0
C909 C 0.47775 0.08252 0.10694 0.0
C910 C 0.55181 0.19797 0.0991 0.0
C911 C 0.48128 0.12184 0.07476 0.0
C912 C 0.45477 0.07063 0.08814 0.0
C913 C 0.52922 0.18548 0.08021 0.0
C914 C 0.52805 0.14558 0.11211 0.0
C915 C 0.44518 1.03097 0.12143 0.0
H916 H 0.81456 0.89765 0.20952 0.0
H917 H 0.72671 0.89564 0.19065 0.0
H918 H 0.79065 0.82637 0.23717 0.0
H919 H 0.58084 0.75228 0.22869 0.0
H920 H 0.46309 0.11271 0.0603 0.0
H921 H 0.41577 1.02216 0.08393 0.0
H922 H 0.54556 0.2255 0.06999 0.0
H923 H 0.54529 0.15548 0.12668 0.0
C924 C 0.43706 0.35062 0.33681 0.0
C925 C 0.45281 0.38174 0.36996 0.0
C926 C 0.47493 0.39387 0.35089 0.0
C927 C 0.39037 0.32809 0.37432 0.0
C928 C 0.37632 0.29395 0.3413 0.0
C929 C 0.35221 0.28412 0.36 0.0
N930 N 0.46251 0.36066 0.31902 0.0
C931 C 0.43248 0.31296 0.30542 0.0
C932 C 0.34308 0.24734 0.32705 0.0
C933 C 0.37205 0.25622 0.30913 0.0
Gd934 Gd 0.71983 0.5582 0.33789 0.0
Gd935 Gd 0.55982 0.46153 0.313 0.0
N936 N 0.53608 0.44371 0.34621 0.0
C937 C 0.49546 0.42168 0.38422 0.0
C938 C 0.57939 0.47847 0.36037 0.0
C939 C 0.55964 0.46922 0.37943 0.0
H940 H 0.62995 0.51181 0.35726 0.0
H941 H 0.59443 0.49792 0.39045 0.0
H942 H 0.84059 0.60431 0.304 0.0
H943 H 0.45469 0.31836 0.29159 0.0
H944 H 0.91974 0.70704 0.28779 0.0
H945 H 0.48052 0.4139 0.39903 0.0
H946 H 0.37241 0.31857 0.38885 0.0
H947 H 0.69329 0.60664 0.38106 0.0
H948 H 0.2964 0.20322 0.32994 0.0
H949 H 0.34801 0.21926 0.29818 0.0
H950 H 0.90563 0.87813 0.32191 0.0
H951 H 0.30534 0.24134 0.36367 0.0
H952 H 0.79133 0.81832 0.38116 0.0
H953 H 0.72625 0.71178 0.39788 0.0
N954 N 0.7394 0.65351 0.35497 0.0
C955 C 0.78018 0.7119 0.34599 0.0
C956 C 0.72239 0.65302 0.37368 0.0
C957 C 0.77725 0.7725 0.37367 0.0
C958 C 0.74086 0.7124 0.38324 0.0
C959 C 0.79819 0.77293 0.35497 0.0
H960 H 0.85463 0.87965 0.35222 0.0
N961 N 0.80426 0.65208 0.32259 0.0
C962 C 0.81234 0.711 0.32918 0.0
C963 C 0.89592 0.76918 0.30511 0.0
C964 C 0.85895 0.77115 0.3206 0.0
C965 C 0.84457 0.65054 0.30854 0.0
C966 C 0.88958 0.70876 0.2993 0.0
O967 O 0.58572 0.38095 0.32116 0.0
O968 O 0.66533 0.43681 0.34389 0.0
O969 O 0.8202 0.57855 0.34468 0.0
O970 O 0.74934 0.54623 0.36712 0.0
O971 O 0.54971 0.55008 0.32682 0.0
O972 O 0.64782 0.60741 0.34326 0.0
O973 O 0.71407 0.60005 0.30779 0.0
O974 O 0.60468 0.56733 0.30455 0.0
O975 O 0.47406 0.45248 0.2977 0.0
O976 O 0.54471 0.43101 0.28362 0.0
O977 O 0.74012 0.50436 0.31377 0.0
O978 O 0.64839 0.47055 0.29482 0.0
C979 C 0.62167 0.37825 0.33535 0.0
C980 C 0.58889 0.60175 0.338 0.0
C981 C 0.86541 0.62031 0.37576 0.0
C982 C 0.94895 0.65911 0.40234 0.0
C983 C 0.93899 0.738 0.38155 0.0
C984 C 0.89169 0.68698 0.37062 0.0
C985 C 0.96617 0.72441 0.39733 0.0
C986 C 0.89559 0.60619 0.39182 0.0
C987 C 0.81166 0.56838 0.36295 0.0
C988 C 0.87053 0.83158 0.32844 0.0
C989 C 0.84102 0.83247 0.34569 0.0
H990 H 0.93185 0.81436 0.29813 0.0
C991 C 0.66564 0.60669 0.29978 0.0
C992 C 0.71028 0.48271 0.29724 0.0
C993 C 0.50832 0.49426 0.26632 0.0
C994 C 0.47439 0.56606 0.25045 0.0
C995 C 0.57108 0.5624 0.23933 0.0
C996 C 0.56168 0.516 0.25346 0.0
C997 C 0.52735 0.58739 0.23774 0.0
C998 C 0.46547 0.52026 0.26477 0.0
C999 C 0.49749 0.44552 0.28146 0.0
H1000 H 0.956 0.78892 0.37743 0.0
H1001 H 0.87705 0.70032 0.35772 0.0
H1002 H 1.00257 0.76602 0.40545 0.0
H1003 H 0.87941 0.55521 0.39565 0.0
H1004 H 0.61173 0.57814 0.2294 0.0
H1005 H 0.596 0.49713 0.25422 0.0
H1006 H 0.53343 0.62132 0.22631 0.0
H1007 H 0.42324 0.50289 0.27425 0.0
C1008 C 1.04423 0.65971 0.25885 0.0
C1009 C 0.07632 0.65072 0.24306 0.0
C1010 C 0.07981 0.69504 0.27526 0.0
C1011 C 0.14998 0.72484 0.27688 0.0
H1012 H 0.99088 0.63771 0.2588 0.0
H1013 H 1.05151 0.69936 0.28689 0.0
S1014 S 0.2584 0.71786 0.23914 0.0
N1015 N 0.18324 0.67453 0.23029 0.0
N1016 N 0.24919 0.74283 0.26036 0.0
C1017 C 0.18244 0.71593 0.26115 0.0
C1018 C 0.1461 0.67891 0.24456 0.0
C1019 C 0.50653 0.15914 0.42686 0.0
C1020 C 0.47784 0.12911 0.44441 0.0
C1021 C 0.50323 0.12088 0.4106 0.0
C1022 C 0.46924 0.05043 0.4107 0.0
H1023 H 0.53051 0.21252 0.42554 0.0
H1024 H 0.52766 0.14694 0.39768 0.0
S1025 S 0.39441 0.94747 0.45356 0.0
N1026 N 0.42088 1.0238 0.46114 0.0
N1027 N 0.41271 0.95355 0.4307 0.0
C1028 C 0.44212 1.02013 0.42823 0.0
C1029 C 0.4469 0.05883 0.44489 0.0
C1030 C 0.35232 0.43697 0.58439 0.0
C1031 C 0.37243 0.46707 0.60266 0.0
C1032 C 0.39463 0.42584 0.57211 0.0
C1033 C 0.45914 0.44195 0.57752 0.0
H1034 H 0.30403 0.42473 0.57895 0.0
H1035 H 0.37807 0.40855 0.55779 0.0
S1036 S 0.53126 0.50338 0.6253 0.0
N1037 N 0.45896 0.50097 0.62637 0.0
N1038 N 0.53677 0.47837 0.60373 0.0
C1039 C 0.47747 0.46511 0.59637 0.0
C1040 C 0.43468 0.47737 0.60883 0.0
C1041 C 1.0132 0.4491 0.75282 0.0
C1042 C 1.0641 0.43974 0.74456 0.0
C1043 C 0.96935 0.40734 0.76698 0.0
C1044 C 0.97188 0.35167 0.77378 0.0
H1045 H 1.00457 0.48796 0.74768 0.0
H1046 H 0.9297 0.41609 0.77161 0.0
S1047 S 0.09479 0.30194 0.75791 0.0
N1048 N 0.1149 0.36974 0.7454 0.0
N1049 N 1.03075 0.28912 0.77124 0.0
C1050 C 1.02296 0.34141 0.76606 0.0
C1051 C 1.06913 0.3855 0.75178 0.0
C1052 C 0.73205 0.08389 0.92742 0.0
C1053 C 0.68911 0.0498 0.91231 0.0
C1054 C 0.73428 0.05043 0.94414 0.0
C1055 C 0.69422 0.98072 0.94677 0.0
H1056 H 0.7627 0.13722 0.92663 0.0
H1057 H 0.76803 0.08001 0.95526 0.0
S1058 S 0.57463 0.86752 0.91109 0.0
N1059 N 0.60562 0.94139 0.90111 0.0
N1060 N 0.61121 0.87951 0.93198 0.0
C1061 C 0.65117 0.94623 0.9317 0.0
C1062 C 0.64852 0.98029 0.91473 0.0
C1063 C 0.72729 0.70231 0.10893 0.0
C1064 C 0.76411 0.66777 0.10954 0.0
C1065 C 0.69263 0.70446 0.0925 0.0
C1066 C 0.69275 0.6726 0.07548 0.0
H1067 H 0.72382 0.72714 0.12156 0.0
H1068 H 0.66289 0.72873 0.09348 0.0
S1069 S 0.78282 0.57795 0.06842 0.0
N1070 N 0.79945 0.60304 0.09071 0.0
N1071 N 0.73419 0.6059 0.06032 0.0
C1072 C 0.72954 0.63833 0.07578 0.0
C1073 C 0.76496 0.63618 0.09252 0.0
C1074 C 0.43388 0.97242 0.61738 0.0
C1075 C 0.46447 1.04262 0.61831 0.0
C1076 C 0.39593 0.93561 0.60144 0.0
C1077 C 0.3878 0.96705 0.58527 0.0
H1078 H 0.43916 0.94536 0.62921 0.0
H1079 H 0.37191 0.88206 0.60195 0.0
S1080 S 0.46678 0.15023 0.579 0.0
N1081 N 0.48844 0.14165 0.60071 0.0
N1082 N 0.42064 0.07443 0.57074 0.0
C1083 C 0.42074 1.03755 0.58577 0.0
C1084 C 0.45793 0.07463 0.60217 0.0
C1085 C 0.50379 0.36672 0.76914 0.0
C1086 C 0.4662 0.36113 0.75282 0.0
C1087 C 0.50417 0.40411 0.78522 0.0
C1088 C 0.46551 0.43634 0.78611 0.0
H1089 H 0.53204 0.34087 0.76969 0.0
H1090 H 0.53514 0.4077 0.79719 0.0
S1091 S 0.36581 0.44574 0.74649 0.0
N1092 N 0.39476 0.39824 0.73812 0.0
N1093 N 0.39362 0.46467 0.76843 0.0
C1094 C 0.42873 0.43208 0.76986 0.0
C1095 C 0.42956 0.39565 0.75331 0.0
C1096 C 0.14358 0.47358 0.95273 0.0
C1097 C 0.07342 0.43704 0.95338 0.0
C1098 C 0.18049 0.47321 0.93661 0.0
C1099 C 0.14912 0.43741 0.92004 0.0
H1100 H 0.17043 0.50335 0.96486 0.0
H1101 H 0.23396 0.50051 0.93724 0.0
S1102 S 0.96644 0.34362 0.91304 0.0
N1103 N 0.97474 0.3697 0.93519 0.0
N1104 N 1.04215 0.3704 0.90487 0.0
C1105 C 0.07875 0.40284 0.92033 0.0
C1106 C 1.04158 0.40226 0.93688 0.0
C1107 C 0.74609 0.09498 0.12173 0.0
C1108 C 0.67825 0.05899 0.11741 0.0
C1109 C 0.79126 0.148 0.10999 0.0
C1110 C 0.77127 0.16896 0.09337 0.0
H1111 H 0.76389 0.08512 0.13489 0.0
H1112 H 0.84228 0.1748 0.11457 0.0
S1113 S 0.60129 0.08188 0.07378 0.0
N1114 N 0.59524 1.04211 0.09382 0.0
N1115 N 0.679 0.14093 0.07218 0.0
C1116 C 0.70452 0.12944 0.08817 0.0
C1117 C 0.65859 0.0754 0.10009 0.0
C1118 C 0.63667 0.68702 0.28316 0.0
C1119 C 0.67546 0.65487 0.28384 0.0
C1120 C 0.63719 0.72536 0.26726 0.0
C1121 C 0.67512 0.73215 0.25088 0.0
H1122 H 0.6054 0.68256 0.29516 0.0
H1123 H 0.60872 0.75094 0.26799 0.0
S1124 S 0.77625 0.64857 0.24393 0.0
N1125 N 0.74795 0.62804 0.26584 0.0
N1126 N 0.74726 0.69647 0.23589 0.0
C1127 C 0.71206 0.69789 0.25116 0.0
C1128 C 0.71265 0.66037 0.26753 0.0
C1129 C 0.9963 0.60696 0.44984 0.0
C1130 C 1.06553 0.64984 0.45154 0.0
C1131 C 0.95911 0.60819 0.43392 0.0
C1132 C 0.98929 0.65117 0.41841 0.0
H1133 H 0.97023 0.5718 0.46104 0.0
H1134 H 0.90611 0.57595 0.43394 0.0
S1135 S 0.1707 0.76785 0.41432 0.0
N1136 N 0.16274 0.73388 0.43548 0.0
N1137 N 0.0954 0.73417 0.40534 0.0
C1138 C 1.05916 0.69278 0.41966 0.0
C1139 C 0.09642 0.69268 0.43614 0.0
C1140 C 0.60383 0.71167 0.35593 0.0
C1141 C 0.56856 0.65848 0.3429 0.0
C1142 C 0.58731 0.76347 0.36037 0.0
C1143 C 0.53372 0.76951 0.35212 0.0
H1144 H 0.64542 0.71354 0.36313 0.0
H1145 H 0.61835 0.80024 0.37067 0.0
S1146 S 0.42225 0.64545 0.31647 0.0
N1147 N 0.47439 0.61817 0.32152 0.0
N1148 N 0.44498 0.71283 0.32937 0.0
C1149 C 0.49788 0.71706 0.33881 0.0
C1150 C 0.51448 0.66348 0.33443 0.0
C1151 C 0.83361 0.49806 0.50379 0.0
C1152 C 0.81217 0.51094 0.52169 0.0
C1153 C 0.90207 0.51429 0.49944 0.0
C1154 C 0.95749 0.54676 0.51225 0.0
H1155 H 0.79695 0.47494 0.49273 0.0
H1156 H 0.91143 0.50107 0.4855 0.0
S1157 S 0.93113 0.5824 0.56229 0.0
N1158 N 0.85667 0.55288 0.55305 0.0
N1159 N 0.97912 0.58194 0.54501 0.0
C1160 C 0.9361 0.55756 0.53031 0.0
C1161 C 0.86668 0.54051 0.53485 0.0
C1162 C 0.39371 0.91314 0.68683 0.0
C1163 C 0.45645 0.93041 0.67845 0.0
C1164 C 0.34177 0.84571 0.69119 0.0
C1165 C 0.34483 0.7862 0.68726 0.0
H1166 H 0.38374 0.95277 0.69007 0.0
H1167 H 0.2973 0.84049 0.69777 0.0
S1168 S 0.49731 0.79733 0.66552 0.0
N1169 N 0.51638 0.87602 0.66666 0.0
N1170 N 0.42157 0.75371 0.67416 0.0
C1171 C 0.40705 0.80217 0.67862 0.0
C1172 C 0.46076 0.87146 0.67445 0.0
C1173 C 0.5342 0.37657 0.85839 0.0
C1174 C 0.57077 0.43099 0.84575 0.0
C1175 C 0.55097 0.32497 0.86295 0.0
C1176 C 0.60608 0.32043 0.85519 0.0
H1177 H 0.49119 0.37341 0.86512 0.0
H1178 H 0.51886 0.28707 0.87289 0.0
S1179 S 0.72154 0.44832 0.82085 0.0
N1180 N 0.66796 0.47421 0.82539 0.0
N1181 N 0.69772 0.3799 0.83341 0.0
C1182 C 0.64319 0.37413 0.84229 0.0
C1183 C 0.62638 0.42748 0.83782 0.0
C1184 C 0.24335 0.61871 1.01323 0.0
C1185 C 0.18816 0.55263 1.01165 0.0
C1186 C 0.31167 0.63448 0.01733 0.0
C1187 C 0.3323 0.5858 0.02022 0.0
H1188 H 0.23379 0.65972 1.01143 0.0
H1189 H 0.34871 0.68616 0.01851 0.0
S1190 S 0.21321 0.40531 1.01416 0.0
N1191 N 0.16544 0.43896 1.01115 0.0
N1192 N 0.28789 0.46695 0.0187 0.0
C1193 C 0.27793 0.51997 0.01796 0.0
C1194 C 0.20889 0.5041 1.01378 0.0
C1195 C 0.77768 0.25074 0.19607 0.0
C1196 C 0.7957 0.30861 0.18447 0.0
C1197 C 0.72578 0.18316 0.19167 0.0
C1198 C 0.68473 0.16412 0.17505 0.0
H1199 H 0.80448 0.25741 0.20921 0.0
H1200 H 0.71703 0.1451 0.20193 0.0
S1201 S 0.71027 0.29136 0.13807 0.0
N1202 N 0.76561 0.33668 0.15424 0.0
N1203 N 0.67159 0.21454 0.14624 0.0
C1204 C 0.70239 0.22125 0.16312 0.0
C1205 C 0.75573 0.2905 0.16761 0.0
C1206 C 0.36081 0.53686 0.50056 0.0
C1207 C 0.34869 0.58466 0.51024 0.0
C1208 C 0.41312 0.5214 0.50526 0.0
C1209 C 0.46048 0.5517 0.52017 0.0
H1210 H 0.32871 0.50981 0.48884 0.0
H1211 H 0.41655 0.4847 0.49674 0.0
S1212 S 0.45313 0.67859 0.55162 0.0
N1213 N 0.39164 0.6608 0.53674 0.0
N1214 N 0.48691 0.63301 0.54526 0.0
C1215 C 0.44895 0.5995 0.53018 0.0
C1216 C 0.39506 0.61522 0.52542 0.0
C1217 C 0.86977 0.32563 0.66898 0.0
C1218 C 0.80962 0.32151 0.67618 0.0
C1219 C 0.93686 0.37835 0.67326 0.0
C1220 C 0.95316 0.43484 0.68504 0.0
H1221 H 0.86543 0.28634 0.65973 0.0
H1222 H 0.97715 0.37409 0.66709 0.0
S1223 S 0.81788 0.45302 0.70874 0.0
N1224 N 0.77549 0.38325 0.69681 0.0
N1225 N 0.89695 0.47936 0.70434 0.0
C1226 C 0.89356 0.43157 0.69251 0.0
C1227 C 0.82469 0.37706 0.6883 0.0
C1228 C 0.50157 0.87472 0.8524 0.0
C1229 C 0.56782 0.92947 0.85439 0.0
C1230 C 0.48504 0.80597 0.84815 0.0
C1231 C 0.53301 0.78418 0.84557 0.0
H1232 H 0.46102 0.88506 0.85386 0.0
H1233 H 0.43338 0.76969 0.84645 0.0
S1234 S 0.71314 0.90118 0.85271 0.0
N1235 N 0.68048 0.94987 0.85572 0.0
N1236 N 0.65119 0.82718 0.84765 0.0
C1237 C 0.59883 0.83804 0.84825 0.0
C1238 C 0.61546 0.9074 0.85264 0.0
C1239 C 0.75207 0.59786 1.00982 0.0
C1240 C 0.69189 0.55451 0.0195 0.0
C1241 C 0.80349 0.58145 1.00501 0.0
C1242 C 0.80143 0.5199 1.00953 0.0
H1243 H 0.76024 0.6462 1.0058 0.0
H1244 H 0.84648 0.61885 0.99757 0.0
S1245 S 0.65399 0.3835 0.03366 0.0
N1246 N 0.63425 0.44303 0.03255 0.0
N1247 N 0.72829 0.41359 0.02404 0.0
C1248 C 0.74138 0.47555 0.01916 0.0
C1249 C 0.6884 0.49216 0.0239 0.0
C1250 C 0.30702 0.7011 0.17322 0.0
C1251 C 0.33078 0.7709 0.17583 0.0
C1252 C 0.23865 0.64842 0.17695 0.0
C1253 C 0.18548 0.65938 0.18321 0.0
H1254 H 0.3416 0.68635 0.16781 0.0
H1255 H 0.22719 0.59779 0.17443 0.0
S1256 S 0.21854 0.82972 0.19551 0.0
N1257 N 0.29114 0.8436 0.18745 0.0
N1258 N 0.16838 0.74925 0.19373 0.0
C1259 C 0.20913 0.7285 0.18631 0.0
C1260 C 0.27857 0.78176 0.18281 0.0
C1261 C 0.55462 0.24569 0.33282 0.0
C1262 C 0.60741 0.30423 0.34135 0.0
C1263 C 0.53844 0.17765 0.33714 0.0
C1264 C 0.57314 0.15895 0.35041 0.0
H1265 H 0.52393 0.25209 0.32238 0.0
H1266 H 0.49746 0.13869 0.32968 0.0
S1267 S 0.71608 0.28901 0.37796 0.0
N1268 N 0.69415 0.3342 0.36476 0.0
N1269 N 0.66522 0.21073 0.37251 0.0
C1270 C 0.62624 0.21686 0.3592 0.0
C1271 C 0.6426 0.28672 0.35488 0.0
C1272 C 0.28869 0.70904 0.42908 0.0
C1273 C 0.31358 0.72135 0.44794 0.0
C1274 C 0.32594 0.74823 0.41316 0.0
C1275 C 0.39179 0.80126 0.41477 0.0
H1276 H 0.23869 0.66988 0.42661 0.0
H1277 H 0.30233 0.73676 0.39936 0.0
S1278 S 0.48362 0.85226 0.46064 0.0
N1279 N 0.41051 0.79076 0.46685 0.0
N1280 N 0.48059 0.8608 0.43741 0.0
C1281 C 0.41814 0.8124 0.43348 0.0
C1282 C 0.37942 0.77381 0.44977 0.0
C1283 C 0.63101 0.38415 0.60148 0.0
C1284 C 0.63601 0.36807 0.58232 0.0
C1285 C 0.63209 0.34536 0.61718 0.0
C1286 C 0.63985 0.2885 0.61494 0.0
H1287 H 0.62443 0.42644 0.60444 0.0
H1288 H 0.62611 0.36012 0.63132 0.0
S1289 S 0.66227 0.2282 0.56791 0.0
N1290 N 0.65234 0.29207 0.56233 0.0
N1291 N 0.65798 0.22266 0.59133 0.0
C1292 C 0.64785 0.27387 0.59585 0.0
C1293 C 0.6449 0.31227 0.57983 0.0
C1294 C 0.40951 0.6132 0.76309 0.0
C1295 C 0.38881 0.61104 0.78223 0.0
C1296 C 0.37006 0.61052 0.74704 0.0
C1297 C 0.30775 0.60776 0.74891 0.0
H1298 H 0.4562 0.6151 0.76037 0.0
H1299 H 0.38894 0.61075 0.73295 0.0
S1300 S 0.22887 0.6021 0.79553 0.0
N1301 N 0.29944 0.60584 0.80157 0.0
N1302 N 0.22801 0.60324 0.77207 0.0
C1303 C 0.28702 0.60707 0.76794 0.0
C1304 C 0.32642 0.60816 0.78425 0.0
C1305 C 0.74296 0.26687 0.9343 0.0
C1306 C 0.75621 0.29042 0.91526 0.0
C1307 C 0.78079 0.30556 0.95019 0.0
C1308 C 0.83366 0.37156 0.94835 0.0
H1309 H 0.70366 0.21688 0.937 0.0
H1310 H 0.7682 0.283 0.96415 0.0
S1311 S 0.88683 0.45977 0.9018 0.0
N1312 N 0.82639 0.38582 0.89586 0.0
N1313 N 0.89373 0.45871 0.92515 0.0
C1314 C 0.84584 0.39629 0.92938 0.0
C1315 C 0.8086 0.35608 0.91315 0.0
C1316 C 0.49809 0.74785 0.11486 0.0
C1317 C 0.50309 0.81122 0.11266 0.0
C1318 C 0.50009 0.70955 0.09913 0.0
C1319 C 0.50905 0.73248 0.08005 0.0
H1320 H 0.49296 0.72741 0.12901 0.0
H1321 H 0.49647 0.66197 0.1021 0.0
S1322 S 0.52474 0.89458 0.06581 0.0
N1323 N 0.51599 0.89353 0.08914 0.0
N1324 N 0.52229 0.82413 0.06023 0.0
C1325 C 0.51401 0.79564 0.07764 0.0
C1326 C 0.51031 0.83391 0.0936 0.0
C1327 C 0.73 0.47663 0.26107 0.0
C1328 C 0.75049 0.47823 0.28017 0.0
C1329 C 0.7692 0.47868 0.24506 0.0
C1330 C 0.83108 0.48061 0.24693 0.0
H1331 H 0.68367 0.47559 0.25834 0.0
H1332 H 0.75056 0.47894 0.23097 0.0
S1333 S 0.90935 0.48511 0.2935 0.0
N1334 N 0.83901 0.48196 0.29955 0.0
N1335 N 0.91042 0.48418 0.27004 0.0
C1336 C 0.8517 0.48096 0.26593 0.0
C1337 C 0.81238 0.48013 0.28223 0.0
C1338 C 0.87634 0.31949 0.41466 0.0
C1339 C 0.88206 0.38056 0.41954 0.0
C1340 C 0.81744 0.26127 0.41745 0.0
C1341 C 0.76085 0.26167 0.42466 0.0
H1342 H 0.91931 0.31636 0.40997 0.0
H1343 H 0.81787 0.21537 0.41484 0.0
S1344 S 0.74889 0.41115 0.43713 0.0
N1345 N 0.82674 0.44028 0.43058 0.0
N1346 N 0.71295 0.3298 0.43476 0.0
C1347 C 0.76472 0.32323 0.42835 0.0
C1348 C 0.82595 0.38304 0.42588 0.0
C1349 C 0.57175 0.83317 0.57746 0.0
C1350 C 0.52791 0.84371 0.58864 0.0
C1351 C 0.58 0.77841 0.58062 0.0
C1352 C 0.54336 0.73145 0.59478 0.0
H1353 H 0.60532 0.87125 0.56774 0.0
H1354 H 0.6199 0.7767 0.57308 0.0
S1355 S 0.40697 0.72713 0.62335 0.0
N1356 N 0.438 0.7979 0.61153 0.0
N1357 N 0.45057 0.69141 0.6168 0.0
C1358 C 0.49262 0.73688 0.60413 0.0
C1359 C 0.48543 0.79396 0.60119 0.0
C1360 C 0.77388 0.56463 0.73996 0.0
C1361 C 0.71721 0.51251 0.74808 0.0
C1362 C 0.83592 0.57203 0.74372 0.0
C1363 C 0.84336 0.52614 0.75522 0.0
H1364 H 0.77095 0.60419 0.73252 0.0
H1365 H 0.87833 0.61717 0.73881 0.0
S1366 S 0.70701 0.37067 0.77513 0.0
N1367 N 0.66963 0.40845 0.76532 0.0
N1368 N 0.78694 0.41902 0.7712 0.0
C1369 C 0.78596 0.46901 0.76133 0.0
C1370 C 0.72253 0.46274 0.75794 0.0
C1371 C 0.38735 0.77078 0.93267 0.0
C1372 C 0.39281 0.83138 0.92667 0.0
C1373 C 0.32877 0.71087 0.92968 0.0
C1374 C 0.27516 0.71029 0.92027 0.0
H1375 H 0.42721 0.77004 0.94049 0.0
H1376 H 0.32391 0.66559 0.93571 0.0
S1377 S 0.26352 0.85308 0.90126 0.0
N1378 N 0.33764 0.8854 0.91086 0.0
N1379 N 0.23105 0.77243 0.90408 0.0
C1380 C 0.28143 0.76928 0.91307 0.0
C1381 C 0.33943 0.83009 0.91658 0.0
C1382 C 0.55717 0.28272 0.12152 0.0
C1383 C 0.58612 0.2665 0.1063 0.0
C1384 C 0.57481 0.34838 0.12528 0.0
C1385 C 0.62115 0.3995 0.11378 0.0
H1386 H 0.51597 0.2444 0.12938 0.0
H1387 H 0.54612 0.35834 0.13563 0.0
S1388 S 0.72734 0.38494 0.07696 0.0
N1389 N 0.6754 0.30759 0.08314 0.0
N1390 N 0.70719 0.432 0.08992 0.0
C1391 C 0.65703 0.38495 0.1004 0.0
C1392 C 0.63956 0.31793 0.09665 0.0
C1393 C 0.36239 0.52802 0.23934 0.0
C1394 C 0.41999 0.57958 0.24708 0.0
C1395 C 0.30184 0.52532 0.24204 0.0
C1396 C 0.29662 0.57519 0.25217 0.0
H1397 H 0.36322 0.48602 0.23279 0.0
H1398 H 0.25852 0.48059 0.23742 0.0
S1399 S 0.43737 0.729 0.27129 0.0
N1400 N 0.4716 0.68618 0.26289 0.0
N1401 N 0.35732 0.68399 0.26701 0.0
C1402 C 0.3555 0.63096 0.25819 0.0
C1403 C 0.41744 0.63265 0.25579 0.0
loop_
_geom_bond_atom_site_label_1
_geom_bond_atom_site_label_2
_geom_bond_distance
_geom_bond_site_symmetry_2
_ccdc_geom_bond_type
C0 C2 1.422 . S
C0 C4 1.415 . S
C0 N6 1.369 . S
C1 C2 1.421 . S
C1 C3 1.417 . S
C1 C13 1.422 1_565 S
C2 C0 1.422 . S
C2 C1 1.421 . S
C2 N12 1.359 1_565 S
C3 C1 1.417 . S
C3 C5 1.329 . S
C3 H22 0.930 . S
C4 C0 1.415 . S
C4 C5 1.437 . S
C4 C8 1.413 . S
C5 C3 1.329 . S
C5 C4 1.437 . S
C5 H27 0.929 . S
N6 C0 1.369 . S
N6 C7 1.338 . S
N6 Gd11 2.622 1_565 S
C7 N6 1.338 . S
C7 C9 1.378 . S
C7 H19 0.929 . S
C8 C4 1.413 . S
C8 C9 1.348 . S
C8 H24 0.931 . S
C9 C7 1.378 . S
C9 C8 1.348 . S
C9 H25 0.930 . S
Gd10 N30 2.622 1_565 S
Gd10 N37 2.570 . S
Gd10 O44 2.353 . S
Gd10 O45 2.468 . S
Gd10 O46 2.427 . S
Gd10 O48 2.388 1_565 S
Gd10 O49 2.386 1_565 S
Gd10 O53 2.307 . S
Gd10 C63 2.805 . S
Gd11 N6 2.622 1_545 S
Gd11 N12 2.570 . S
Gd11 O43 2.386 1_545 S
Gd11 O47 2.307 . S
Gd11 O50 2.353 . S
Gd11 O51 2.468 . S
Gd11 O52 2.427 . S
Gd11 O54 2.388 1_545 S
Gd11 C75 2.805 . S
N12 C2 1.359 1_545 S
N12 Gd11 2.570 . S
N12 C14 1.343 . S
C13 C1 1.422 1_545 S
C13 C15 1.321 . S
C13 H21 0.931 . S
C14 N12 1.343 . S
C14 C15 1.390 . S
C14 H16 0.931 . S
C15 C13 1.321 . S
C15 C14 1.390 . S
C15 H17 0.930 . S
H16 C14 0.931 . S
H17 C15 0.930 . S
H18 C41 0.931 . S
H19 C7 0.929 . S
H20 C42 0.930 . S
H21 C13 0.931 . S
H22 C3 0.930 . S
H23 C32 0.929 . S
H24 C8 0.931 . S
H25 C9 0.930 . S
H26 C64 0.930 . S
H27 C5 0.929 . S
H28 C33 0.931 . S
H29 C34 0.930 . S
N30 Gd10 2.622 1_545 S
N30 C31 1.369 . S
N30 C32 1.338 . S
C31 N30 1.369 . S
C31 C35 1.415 . S
C31 C38 1.422 . S
C32 H23 0.929 . S
C32 N30 1.338 . S
C32 C34 1.378 . S
C33 H28 0.931 . S
C33 C34 1.348 . S
C33 C35 1.413 . S
C34 H29 0.930 . S
C34 C32 1.378 . S
C34 C33 1.348 . S
C35 C31 1.415 . S
C35 C33 1.413 . S
C35 C65 1.437 . S
H36 C65 0.929 . S
N37 Gd10 2.570 . S
N37 C38 1.359 1_565 S
N37 C41 1.343 . S
C38 C31 1.422 . S
C38 N37 1.359 1_545 S
C38 C40 1.421 . S
C39 C40 1.422 1_565 S
C39 C42 1.321 . S
C39 H66 0.931 . S
C40 C38 1.421 . S
C40 C39 1.422 1_545 S
C40 C64 1.417 . S
C41 H18 0.931 . S
C41 N37 1.343 . S
C41 C42 1.390 . S
C42 H20 0.930 . S
C42 C39 1.321 . S
C42 C41 1.390 . S
O43 Gd11 2.386 1_565 S
O43 C55 1.265 . S
O44 Gd10 2.353 . S
O44 C55 1.242 . S
O45 Gd10 2.468 . S
O45 C63 1.263 . S
O46 Gd10 2.427 . S
O46 C63 1.252 . S
O47 Gd11 2.307 . S
O47 C56 1.261 . S
O48 Gd10 2.388 1_545 S
O48 C56 1.252 . S
O49 Gd10 2.386 1_545 S
O49 C67 1.265 . S
O50 Gd11 2.353 . S
O50 C67 1.242 . S
O51 Gd11 2.468 . S
O51 C75 1.263 . S
O52 Gd11 2.427 . S
O52 C75 1.252 . S
O53 Gd10 2.307 . S
O53 C68 1.261 . S
O54 Gd11 2.388 1_565 S
O54 C68 1.252 . S
C55 O43 1.265 . S
C55 O44 1.242 . S
C56 O47 1.261 . S
C56 O48 1.252 . S
C57 C60 1.394 . S
C57 C62 1.370 . S
C57 C63 1.500 . S
C58 C61 1.383 . S
C58 C62 1.395 . S
C59 C60 1.396 . S
C59 C61 1.365 . S
C59 H76 0.929 . S
C60 C57 1.394 . S
C60 C59 1.396 . S
C60 H77 0.930 . S
C61 C58 1.383 . S
C61 C59 1.365 . S
C61 H78 0.931 . S
C62 C57 1.370 . S
C62 C58 1.395 . S
C62 H79 0.930 . S
C63 Gd10 2.805 . S
C63 O45 1.263 . S
C63 O46 1.252 . S
C63 C57 1.500 . S
C64 H26 0.930 . S
C64 C40 1.417 . S
C64 C65 1.329 . S
C65 C35 1.437 . S
C65 H36 0.929 . S
C65 C64 1.329 . S
H66 C39 0.931 . S
C67 O49 1.265 . S
C67 O50 1.242 . S
C68 O53 1.261 . S
C68 O54 1.252 . S
C69 C72 1.394 . S
C69 C74 1.370 . S
C69 C75 1.500 . S
C70 C73 1.383 . S
C70 C74 1.395 . S
C71 C72 1.396 . S
C71 C73 1.365 . S
C71 H80 0.929 . S
C72 C69 1.394 . S
C72 C71 1.396 . S
C72 H81 0.930 . S
C73 C70 1.383 . S
C73 C71 1.365 . S
C73 H82 0.931 . S
C74 C69 1.370 . S
C74 C70 1.395 . S
C74 H83 0.930 . S
C75 Gd11 2.805 . S
C75 O51 1.263 . S
C75 O52 1.252 . S
C75 C69 1.500 . S
H76 C59 0.929 . S
H77 C60 0.930 . S
H78 C61 0.931 . S
H79 C62 0.930 . S
H80 C71 0.929 . S
H81 C72 0.930 . S
H82 C73 0.931 . S
H83 C74 0.930 . S
C84 C86 1.422 . S
C84 C88 1.415 . S
C84 N90 1.369 . S
C85 C86 1.421 . S
C85 C87 1.417 . S
C85 C97 1.422 . S
C86 C84 1.422 . S
C86 C85 1.421 . S
C86 N96 1.359 . S
C87 C85 1.417 . S
C87 C89 1.329 . S
C87 H106 0.930 . S
C88 C84 1.415 . S
C88 C89 1.437 . S
C88 C92 1.413 . S
C89 C87 1.329 . S
C89 C88 1.437 . S
C89 H111 0.929 . S
N90 C84 1.369 . S
N90 C91 1.338 . S
N90 Gd95 2.622 . S
C91 N90 1.338 . S
C91 C93 1.378 . S
C91 H103 0.929 . S
C92 C88 1.413 . S
C92 C93 1.348 . S
C92 H108 0.931 . S
C93 C91 1.378 . S
C93 C92 1.348 . S
C93 H109 0.930 . S
Gd94 N114 2.622 . S
Gd94 N121 2.570 . S
Gd94 O128 2.353 . S
Gd94 O129 2.468 . S
Gd94 O130 2.427 . S
Gd94 O132 2.388 . S
Gd94 O133 2.386 . S
Gd94 O137 2.307 . S
Gd94 C147 2.805 . S
Gd95 N90 2.622 . S
Gd95 N96 2.570 . S
Gd95 O127 2.386 . S
Gd95 O131 2.307 . S
Gd95 O134 2.353 . S
Gd95 O135 2.468 . S
Gd95 O136 2.427 . S
Gd95 O138 2.388 . S
Gd95 C159 2.805 . S
N96 C86 1.359 . S
N96 Gd95 2.570 . S
N96 C98 1.343 . S
C97 C85 1.422 . S
C97 C99 1.321 . S
C97 H105 0.931 . S
C98 N96 1.343 . S
C98 C99 1.390 . S
C98 H100 0.931 . S
C99 C97 1.321 . S
C99 C98 1.390 . S
C99 H101 0.930 . S
H100 C98 0.931 . S
H101 C99 0.930 . S
H102 C125 0.931 . S
H103 C91 0.929 . S
H104 C126 0.930 . S
H105 C97 0.931 . S
H106 C87 0.930 . S
H107 C116 0.929 . S
H108 C92 0.931 . S
H109 C93 0.930 . S
H110 C148 0.930 . S
H111 C89 0.929 . S
H112 C117 0.931 . S
H113 C118 0.930 . S
N114 Gd94 2.622 . S
N114 C115 1.369 . S
N114 C116 1.338 . S
C115 N114 1.369 . S
C115 C119 1.415 . S
C115 C122 1.422 . S
C116 H107 0.929 . S
C116 N114 1.338 . S
C116 C118 1.378 . S
C117 H112 0.931 . S
C117 C118 1.348 . S
C117 C119 1.413 . S
C118 H113 0.930 . S
C118 C116 1.378 . S
C118 C117 1.348 . S
C119 C115 1.415 . S
C119 C117 1.413 . S
C119 C149 1.437 . S
H120 C149 0.929 . S
N121 Gd94 2.570 . S
N121 C122 1.359 . S
N121 C125 1.343 . S
C122 C115 1.422 . S
C122 N121 1.359 . S
C122 C124 1.421 . S
C123 C124 1.422 . S
C123 C126 1.321 . S
C123 H150 0.931 . S
C124 C122 1.421 . S
C124 C123 1.422 . S
C124 C148 1.417 . S
C125 H102 0.931 . S
C125 N121 1.343 . S
C125 C126 1.390 . S
C126 H104 0.930 . S
C126 C123 1.321 . S
C126 C125 1.390 . S
O127 Gd95 2.386 . S
O127 C139 1.265 . S
O128 Gd94 2.353 . S
O128 C139 1.242 . S
O129 Gd94 2.468 . S
O129 C147 1.263 . S
O130 Gd94 2.427 . S
O130 C147 1.252 . S
O131 Gd95 2.307 . S
O131 C140 1.261 . S
O132 Gd94 2.388 . S
O132 C140 1.252 . S
O133 Gd94 2.386 . S
O133 C151 1.265 . S
O134 Gd95 2.353 . S
O134 C151 1.242 . S
O135 Gd95 2.468 . S
O135 C159 1.263 . S
O136 Gd95 2.427 . S
O136 C159 1.252 . S
O137 Gd94 2.307 . S
O137 C152 1.261 . S
O138 Gd95 2.388 . S
O138 C152 1.252 . S
C139 O127 1.265 . S
C139 O128 1.242 . S
C140 O131 1.261 . S
C140 O132 1.252 . S
C141 C144 1.394 . S
C141 C146 1.370 . S
C141 C147 1.500 . S
C142 C145 1.383 . S
C142 C146 1.395 . S
C143 C144 1.396 . S
C143 C145 1.365 . S
C143 H160 0.929 . S
C144 C141 1.394 . S
C144 C143 1.396 . S
C144 H161 0.930 . S
C145 C142 1.383 . S
C145 C143 1.365 . S
C145 H162 0.931 . S
C146 C141 1.370 . S
C146 C142 1.395 . S
C146 H163 0.930 . S
C147 Gd94 2.805 . S
C147 O129 1.263 . S
C147 O130 1.252 . S
C147 C141 1.500 . S
C148 H110 0.930 . S
C148 C124 1.417 . S
C148 C149 1.329 . S
C149 C119 1.437 . S
C149 H120 0.929 . S
C149 C148 1.329 . S
H150 C123 0.931 . S
C151 O133 1.265 . S
C151 O134 1.242 . S
C152 O137 1.261 . S
C152 O138 1.252 . S
C153 C156 1.394 . S
C153 C158 1.370 . S
C153 C159 1.500 . S
C154 C157 1.383 . S
C154 C158 1.395 . S
C155 C156 1.396 . S
C155 C157 1.365 . S
C155 H164 0.929 . S
C156 C153 1.394 . S
C156 C155 1.396 . S
C156 H165 0.930 . S
C157 C154 1.383 . S
C157 C155 1.365 . S
C157 H166 0.931 . S
C158 C153 1.370 . S
C158 C154 1.395 . S
C158 H167 0.930 . S
C159 Gd95 2.805 . S
C159 O135 1.263 . S
C159 O136 1.252 . S
C159 C153 1.500 . S
H160 C143 0.929 . S
H161 C144 0.930 . S
H162 C145 0.931 . S
H163 C146 0.930 . S
H164 C155 0.929 . S
H165 C156 0.930 . S
H166 C157 0.931 . S
H167 C158 0.930 . S
C168 C170 1.422 . S
C168 C172 1.415 . S
C168 N174 1.369 . S
C169 C170 1.421 . S
C169 C171 1.417 . S
C169 C181 1.422 1_455 S
C170 C168 1.422 . S
C170 C169 1.421 . S
C170 N180 1.359 1_455 S
C171 C169 1.417 . S
C171 C173 1.329 . S
C171 H190 0.930 . S
C172 C168 1.415 . S
C172 C173 1.437 . S
C172 C176 1.413 . S
C173 C171 1.329 . S
C173 C172 1.437 . S
C173 H195 0.929 . S
N174 C168 1.369 . S
N174 C175 1.338 . S
N174 Gd179 2.622 1_455 S
C175 N174 1.338 . S
C175 C177 1.378 . S
C175 H187 0.929 . S
C176 C172 1.413 . S
C176 C177 1.348 . S
C176 H192 0.931 . S
C177 C175 1.378 . S
C177 C176 1.348 . S
C177 H193 0.930 . S
Gd178 N198 2.622 1_455 S
Gd178 N205 2.570 . S
Gd178 O212 2.353 . S
Gd178 O213 2.468 . S
Gd178 O214 2.427 . S
Gd178 O216 2.388 1_455 S
Gd178 O217 2.386 1_455 S
Gd178 O221 2.307 . S
Gd178 C231 2.805 . S
Gd179 N174 2.622 1_655 S
Gd179 N180 2.570 . S
Gd179 O211 2.386 1_655 S
Gd179 O215 2.307 . S
Gd179 O218 2.353 . S
Gd179 O219 2.468 . S
Gd179 O220 2.427 . S
Gd179 O222 2.388 1_655 S
Gd179 C243 2.805 . S
N180 C170 1.359 1_655 S
N180 Gd179 2.570 . S
N180 C182 1.343 . S
C181 C169 1.422 1_655 S
C181 C183 1.321 . S
C181 H189 0.931 . S
C182 N180 1.343 . S
C182 C183 1.390 . S
C182 H184 0.931 . S
C183 C181 1.321 . S
C183 C182 1.390 . S
C183 H185 0.930 . S
H184 C182 0.931 . S
H185 C183 0.930 . S
H186 C209 0.931 . S
H187 C175 0.929 . S
H188 C210 0.930 . S
H189 C181 0.931 . S
H190 C171 0.930 . S
H191 C200 0.929 . S
H192 C176 0.931 . S
H193 C177 0.930 . S
H194 C232 0.930 . S
H195 C173 0.929 . S
H196 C201 0.931 . S
H197 C202 0.930 . S
N198 Gd178 2.622 1_655 S
N198 C199 1.369 . S
N198 C200 1.338 . S
C199 N198 1.369 . S
C199 C203 1.415 . S
C199 C206 1.422 . S
C200 H191 0.929 . S
C200 N198 1.338 . S
C200 C202 1.378 . S
C201 H196 0.931 . S
C201 C202 1.348 . S
C201 C203 1.413 . S
C202 H197 0.930 . S
C202 C200 1.378 . S
C202 C201 1.348 . S
C203 C199 1.415 . S
C203 C201 1.413 . S
C203 C233 1.437 . S
H204 C233 0.929 . S
N205 Gd178 2.570 . S
N205 C206 1.359 1_455 S
N205 C209 1.343 . S
C206 C199 1.422 . S
C206 N205 1.359 1_655 S
C206 C208 1.421 . S
C207 C208 1.422 1_455 S
C207 C210 1.321 . S
C207 H234 0.931 . S
C208 C206 1.421 . S
C208 C207 1.422 1_655 S
C208 C232 1.417 . S
C209 H186 0.931 . S
C209 N205 1.343 . S
C209 C210 1.390 . S
C210 H188 0.930 . S
C210 C207 1.321 . S
C210 C209 1.390 . S
O211 Gd179 2.386 1_455 S
O211 C223 1.265 . S
O212 Gd178 2.353 . S
O212 C223 1.242 . S
O213 Gd178 2.468 . S
O213 C231 1.263 . S
O214 Gd178 2.427 . S
O214 C231 1.252 . S
O215 Gd179 2.307 . S
O215 C224 1.261 . S
O216 Gd178 2.388 1_655 S
O216 C224 1.252 . S
O217 Gd178 2.386 1_655 S
O217 C235 1.265 . S
O218 Gd179 2.353 . S
O218 C235 1.242 . S
O219 Gd179 2.468 . S
O219 C243 1.263 . S
O220 Gd179 2.427 . S
O220 C243 1.252 . S
O221 Gd178 2.307 . S
O221 C236 1.261 . S
O222 Gd179 2.388 1_455 S
O222 C236 1.252 . S
C223 O211 1.265 . S
C223 O212 1.242 . S
C224 O215 1.261 . S
C224 O216 1.252 . S
C225 C228 1.394 . S
C225 C230 1.370 . S
C225 C231 1.500 . S
C226 C229 1.383 . S
C226 C230 1.395 . S
C227 C228 1.396 . S
C227 C229 1.365 . S
C227 H244 0.929 . S
C228 C225 1.394 . S
C228 C227 1.396 . S
C228 H245 0.930 . S
C229 C226 1.383 . S
C229 C227 1.365 . S
C229 H246 0.931 . S
C230 C225 1.370 . S
C230 C226 1.395 . S
C230 H247 0.930 . S
C231 Gd178 2.805 . S
C231 O213 1.263 . S
C231 O214 1.252 . S
C231 C225 1.500 . S
C232 H194 0.930 . S
C232 C208 1.417 . S
C232 C233 1.329 . S
C233 C203 1.437 . S
C233 H204 0.929 . S
C233 C232 1.329 . S
H234 C207 0.931 . S
C235 O217 1.265 . S
C235 O218 1.242 . S
C236 O221 1.261 . S
C236 O222 1.252 . S
C237 C240 1.394 . S
C237 C242 1.370 . S
C237 C243 1.500 . S
C238 C241 1.383 . S
C238 C242 1.395 . S
C239 C240 1.396 . S
C239 C241 1.365 . S
C239 H248 0.929 . S
C240 C237 1.394 . S
C240 C239 1.396 . S
C240 H249 0.930 . S
C241 C238 1.383 . S
C241 C239 1.365 . S
C241 H250 0.931 . S
C242 C237 1.370 . S
C242 C238 1.395 . S
C242 H251 0.930 . S
C243 Gd179 2.805 . S
C243 O219 1.263 . S
C243 O220 1.252 . S
C243 C237 1.500 . S
H244 C227 0.929 . S
H245 C228 0.930 . S
H246 C229 0.931 . S
H247 C230 0.930 . S
H248 C239 0.929 . S
H249 C240 0.930 . S
H250 C241 0.931 . S
H251 C242 0.930 . S
C252 C254 1.422 . S
C252 C256 1.415 . S
C252 N258 1.369 . S
C253 C254 1.421 . S
C253 C255 1.417 . S
C253 C265 1.422 1_545 S
C254 C252 1.422 . S
C254 C253 1.421 . S
C254 N264 1.359 1_545 S
C255 C253 1.417 . S
C255 C257 1.329 . S
C255 H274 0.930 . S
C256 C252 1.415 . S
C256 C257 1.437 . S
C256 C260 1.413 . S
C257 C255 1.329 . S
C257 C256 1.437 . S
C257 H279 0.929 . S
N258 C252 1.369 . S
N258 C259 1.338 . S
N258 Gd263 2.622 1_545 S
C259 N258 1.338 . S
C259 C261 1.378 . S
C259 H271 0.929 . S
C260 C256 1.413 . S
C260 C261 1.348 . S
C260 H276 0.931 . S
C261 C259 1.378 . S
C261 C260 1.348 . S
C261 H277 0.930 . S
Gd262 N282 2.622 1_545 S
Gd262 N289 2.570 . S
Gd262 O296 2.353 . S
Gd262 O297 2.468 . S
Gd262 O298 2.427 . S
Gd262 O300 2.388 1_545 S
Gd262 O301 2.386 1_545 S
Gd262 O305 2.307 . S
Gd262 C315 2.805 . S
Gd263 N258 2.622 1_565 S
Gd263 N264 2.570 . S
Gd263 O295 2.386 1_565 S
Gd263 O299 2.307 . S
Gd263 O302 2.353 . S
Gd263 O303 2.468 . S
Gd263 O304 2.427 . S
Gd263 O306 2.388 1_565 S
Gd263 C327 2.805 . S
N264 C254 1.359 1_565 S
N264 Gd263 2.570 . S
N264 C266 1.343 . S
C265 C253 1.422 1_565 S
C265 C267 1.321 . S
C265 H273 0.931 . S
C266 N264 1.343 . S
C266 C267 1.390 . S
C266 H268 0.931 . S
C267 C265 1.321 . S
C267 C266 1.390 . S
C267 H269 0.930 . S
H268 C266 0.931 . S
H269 C267 0.930 . S
H270 C293 0.931 . S
H271 C259 0.929 . S
H272 C294 0.930 . S
H273 C265 0.931 . S
H274 C255 0.930 . S
H275 C284 0.929 . S
H276 C260 0.931 . S
H277 C261 0.930 . S
H278 C316 0.930 . S
H279 C257 0.929 . S
H280 C285 0.931 . S
H281 C286 0.930 . S
N282 Gd262 2.622 1_565 S
N282 C283 1.369 . S
N282 C284 1.338 . S
C283 N282 1.369 . S
C283 C287 1.415 . S
C283 C290 1.422 . S
C284 H275 0.929 . S
C284 N282 1.338 . S
C284 C286 1.378 . S
C285 H280 0.931 . S
C285 C286 1.348 . S
C285 C287 1.413 . S
C286 H281 0.930 . S
C286 C284 1.378 . S
C286 C285 1.348 . S
C287 C283 1.415 . S
C287 C285 1.413 . S
C287 C317 1.437 . S
H288 C317 0.929 . S
N289 Gd262 2.570 . S
N289 C290 1.359 1_545 S
N289 C293 1.343 . S
C290 C283 1.422 . S
C290 N289 1.359 1_565 S
C290 C292 1.421 . S
C291 C292 1.422 1_545 S
C291 C294 1.321 . S
C291 H318 0.931 . S
C292 C290 1.421 . S
C292 C291 1.422 1_565 S
C292 C316 1.417 . S
C293 H270 0.931 . S
C293 N289 1.343 . S
C293 C294 1.390 . S
C294 H272 0.930 . S
C294 C291 1.321 . S
C294 C293 1.390 . S
O295 Gd263 2.386 1_545 S
O295 C307 1.265 . S
O296 Gd262 2.353 . S
O296 C307 1.242 . S
O297 Gd262 2.468 . S
O297 C315 1.263 . S
O298 Gd262 2.427 . S
O298 C315 1.252 . S
O299 Gd263 2.307 . S
O299 C308 1.261 . S
O300 Gd262 2.388 1_565 S
O300 C308 1.252 . S
O301 Gd262 2.386 1_565 S
O301 C319 1.265 . S
O302 Gd263 2.353 . S
O302 C319 1.242 . S
O303 Gd263 2.468 . S
O303 C327 1.263 . S
O304 Gd263 2.427 . S
O304 C327 1.252 . S
O305 Gd262 2.307 . S
O305 C320 1.261 . S
O306 Gd263 2.388 1_545 S
O306 C320 1.252 . S
C307 O295 1.265 . S
C307 O296 1.242 . S
C308 O299 1.261 . S
C308 O300 1.252 . S
C309 C312 1.394 . S
C309 C314 1.370 . S
C309 C315 1.500 . S
C310 C313 1.383 . S
C310 C314 1.395 . S
C311 C312 1.396 . S
C311 C313 1.365 . S
C311 H328 0.929 . S
C312 C309 1.394 . S
C312 C311 1.396 . S
C312 H329 0.930 . S
C313 C310 1.383 . S
C313 C311 1.365 . S
C313 H330 0.931 . S
C314 C309 1.370 . S
C314 C310 1.395 . S
C314 H331 0.930 . S
C315 Gd262 2.805 . S
C315 O297 1.263 . S
C315 O298 1.252 . S
C315 C309 1.500 . S
C316 H278 0.930 . S
C316 C292 1.417 . S
C316 C317 1.329 . S
C317 C287 1.437 . S
C317 H288 0.929 . S
C317 C316 1.329 . S
H318 C291 0.931 . S
C319 O301 1.265 . S
C319 O302 1.242 . S
C320 O305 1.261 . S
C320 O306 1.252 . S
C321 C324 1.394 . S
C321 C326 1.370 . S
C321 C327 1.500 . S
C322 C325 1.383 . S
C322 C326 1.395 . S
C323 C324 1.396 . S
C323 C325 1.365 . S
C323 H332 0.929 . S
C324 C321 1.394 . S
C324 C323 1.396 . S
C324 H333 0.930 . S
C325 C322 1.383 . S
C325 C323 1.365 . S
C325 H334 0.931 . S
C326 C321 1.370 . S
C326 C322 1.395 . S
C326 H335 0.930 . S
C327 Gd263 2.805 . S
C327 O303 1.263 . S
C327 O304 1.252 . S
C327 C321 1.500 . S
H328 C311 0.929 . S
H329 C312 0.930 . S
H330 C313 0.931 . S
H331 C314 0.930 . S
H332 C323 0.929 . S
H333 C324 0.930 . S
H334 C325 0.931 . S
H335 C326 0.930 . S
C336 C338 1.422 . S
C336 C340 1.415 . S
C336 N342 1.369 . S
C337 C338 1.421 . S
C337 C339 1.417 . S
C337 C349 1.422 . S
C338 C336 1.422 . S
C338 C337 1.421 . S
C338 N348 1.359 . S
C339 C337 1.417 . S
C339 C341 1.329 . S
C339 H358 0.930 . S
C340 C336 1.415 . S
C340 C341 1.437 . S
C340 C344 1.413 . S
C341 C339 1.329 . S
C341 C340 1.437 . S
C341 H363 0.929 . S
N342 C336 1.369 . S
N342 C343 1.338 . S
N342 Gd347 2.622 . S
C343 N342 1.338 . S
C343 C345 1.378 . S
C343 H355 0.929 . S
C344 C340 1.413 . S
C344 C345 1.348 . S
C344 H360 0.931 . S
C345 C343 1.378 . S
C345 C344 1.348 . S
C345 H361 0.930 . S
Gd346 N366 2.622 1_554 S
Gd346 N373 2.570 . S
Gd346 O380 2.353 . S
Gd346 O381 2.484 . S
Gd346 O382 2.427 1_554 S
Gd346 O384 2.388 1_554 S
Gd346 O385 2.386 . S
Gd346 O389 2.307 . S
Gd346 C399 2.805 1_554 S
Gd347 N342 2.622 . S
Gd347 N348 2.570 . S
Gd347 O379 2.386 . S
Gd347 O383 2.307 . S
Gd347 O386 2.353 . S
Gd347 O387 2.468 . S
Gd347 O388 2.427 . S
Gd347 O390 2.388 . S
Gd347 C411 2.805 . S
N348 C338 1.359 . S
N348 Gd347 2.570 . S
N348 C350 1.343 . S
C349 C337 1.422 . S
C349 C351 1.321 . S
C349 H357 0.931 . S
C350 N348 1.343 . S
C350 C351 1.390 . S
C350 H352 0.931 . S
C351 C349 1.321 . S
C351 C350 1.390 . S
C351 H353 0.930 . S
H352 C350 0.931 . S
H353 C351 0.930 . S
H354 C377 0.931 . S
H355 C343 0.929 . S
H356 C378 0.930 . S
H357 C349 0.931 . S
H358 C339 0.930 . S
H359 C368 0.929 . S
H360 C344 0.931 . S
H361 C345 0.930 . S
H362 C400 0.930 . S
H363 C341 0.929 . S
H364 C369 0.931 . S
H365 C370 0.930 . S
N366 Gd346 2.622 1_556 S
N366 C367 1.369 1_556 S
N366 C368 1.338 . S
C367 N366 1.369 1_554 S
C367 C371 1.429 . S
C367 C374 1.422 . S
C368 H359 0.929 . S
C368 N366 1.338 . S
C368 C370 1.378 . S
C369 H364 0.931 . S
C369 C370 1.348 . S
C369 C371 1.378 1_556 S
C370 H365 0.930 . S
C370 C368 1.378 . S
C370 C369 1.348 . S
C371 C367 1.429 . S
C371 C369 1.378 1_554 S
C371 C401 1.463 . S
H372 C401 0.929 . S
N373 Gd346 2.570 . S
N373 C374 1.359 . S
N373 C377 1.343 . S
C374 C367 1.422 . S
C374 N373 1.359 . S
C374 C376 1.421 . S
C375 C376 1.422 . S
C375 C378 1.321 . S
C375 H402 0.931 . S
C376 C374 1.421 . S
C376 C375 1.422 . S
C376 C400 1.417 . S
C377 H354 0.931 . S
C377 N373 1.343 . S
C377 C378 1.390 . S
C378 H356 0.930 . S
C378 C375 1.321 . S
C378 C377 1.390 . S
O379 Gd347 2.386 . S
O379 C391 1.265 . S
O380 Gd346 2.353 . S
O380 C391 1.242 . S
O381 Gd346 2.484 . S
O381 C399 1.211 1_554 S
O382 Gd346 2.427 1_556 S
O382 C399 1.252 . S
O383 Gd347 2.307 . S
O383 C392 1.261 . S
O384 Gd346 2.388 1_556 S
O384 C392 1.252 1_556 S
O385 Gd346 2.386 . S
O385 C403 1.265 . S
O386 Gd347 2.353 . S
O386 C403 1.242 . S
O387 Gd347 2.468 . S
O387 C411 1.263 . S
O388 Gd347 2.427 . S
O388 C411 1.252 . S
O389 Gd346 2.307 . S
O389 C404 1.261 . S
O390 Gd347 2.388 . S
O390 C404 1.252 . S
C391 O379 1.265 . S
C391 O380 1.242 . S
C392 O383 1.261 . S
C392 O384 1.252 1_554 S
C393 C396 1.394 . S
C393 C398 1.370 . S
C393 C399 1.500 . S
C394 C397 1.383 . S
C394 C398 1.395 . S
C395 C396 1.396 . S
C395 C397 1.365 . S
C395 H412 0.929 . S
C396 C393 1.394 . S
C396 C395 1.396 . S
C396 H413 0.930 . S
C397 C394 1.383 . S
C397 C395 1.365 . S
C397 H414 0.931 . S
C398 C393 1.370 . S
C398 C394 1.395 . S
C398 H415 0.930 . S
C399 Gd346 2.805 1_556 S
C399 O381 1.211 1_556 S
C399 O382 1.252 . S
C399 C393 1.500 . S
C400 H362 0.930 . S
C400 C376 1.417 . S
C400 C401 1.329 . S
C401 C371 1.463 . S
C401 H372 0.929 . S
C401 C400 1.329 . S
H402 C375 0.931 . S
C403 O385 1.265 . S
C403 O386 1.242 . S
C404 O389 1.261 . S
C404 O390 1.252 . S
C405 C408 1.394 . S
C405 C410 1.370 . S
C405 C411 1.500 . S
C406 C409 1.383 . S
C406 C410 1.395 . S
C407 C408 1.396 . S
C407 C409 1.365 . S
C407 H416 0.929 . S
C408 C405 1.394 . S
C408 C407 1.396 . S
C408 H417 0.930 . S
C409 C406 1.383 . S
C409 C407 1.365 . S
C409 H418 0.931 . S
C410 C405 1.370 . S
C410 C406 1.395 . S
C410 H419 0.930 . S
C411 Gd347 2.805 . S
C411 O387 1.263 . S
C411 O388 1.252 . S
C411 C405 1.500 . S
H412 C395 0.929 . S
H413 C396 0.930 . S
H414 C397 0.931 . S
H415 C398 0.930 . S
H416 C407 0.929 . S
H417 C408 0.930 . S
H418 C409 0.931 . S
H419 C410 0.930 . S
C420 C422 1.422 . S
C420 C424 1.415 . S
C420 N426 1.369 . S
C421 C422 1.421 . S
C421 C423 1.417 . S
C421 C433 1.422 1_655 S
C422 C420 1.422 . S
C422 C421 1.421 . S
C422 N432 1.359 1_655 S
C423 C421 1.417 . S
C423 C425 1.329 . S
C423 H442 0.930 . S
C424 C420 1.415 . S
C424 C425 1.437 . S
C424 C428 1.413 . S
C425 C423 1.329 . S
C425 C424 1.437 . S
C425 H447 0.929 . S
N426 C420 1.369 . S
N426 C427 1.338 . S
N426 Gd431 2.622 1_655 S
C427 N426 1.338 . S
C427 C429 1.378 . S
C427 H439 0.929 . S
C428 C424 1.413 . S
C428 C429 1.348 . S
C428 H444 0.931 . S
C429 C427 1.378 . S
C429 C428 1.348 . S
C429 H445 0.930 . S
Gd430 N450 2.622 1_655 S
Gd430 N457 2.570 . S
Gd430 O464 2.353 . S
Gd430 O465 2.468 . S
Gd430 O466 2.427 . S
Gd430 O468 2.388 1_655 S
Gd430 O469 2.386 1_655 S
Gd430 O473 2.307 . S
Gd430 C483 2.805 . S
Gd431 N426 2.622 1_455 S
Gd431 N432 2.570 . S
Gd431 O463 2.386 1_455 S
Gd431 O467 2.307 . S
Gd431 O470 2.353 . S
Gd431 O471 2.468 . S
Gd431 O472 2.427 . S
Gd431 O474 2.388 1_455 S
Gd431 C495 2.805 . S
N432 C422 1.359 1_455 S
N432 Gd431 2.570 . S
N432 C434 1.343 . S
C433 C421 1.422 1_455 S
C433 C435 1.321 . S
C433 H441 0.931 . S
C434 N432 1.343 . S
C434 C435 1.390 . S
C434 H436 0.931 . S
C435 C433 1.321 . S
C435 C434 1.390 . S
C435 H437 0.930 . S
H436 C434 0.931 . S
H437 C435 0.930 . S
H438 C461 0.931 . S
H439 C427 0.929 . S
H440 C462 0.930 . S
H441 C433 0.931 . S
H442 C423 0.930 . S
H443 C452 0.929 . S
H444 C428 0.931 . S
H445 C429 0.930 . S
H446 C484 0.930 . S
H447 C425 0.929 . S
H448 C453 0.931 . S
H449 C454 0.930 . S
N450 Gd430 2.622 1_455 S
N450 C451 1.369 . S
N450 C452 1.338 . S
C451 N450 1.369 . S
C451 C455 1.415 . S
C451 C458 1.422 . S
C452 H443 0.929 . S
C452 N450 1.338 . S
C452 C454 1.378 . S
C453 H448 0.931 . S
C453 C454 1.348 . S
C453 C455 1.413 . S
C454 H449 0.930 . S
C454 C452 1.378 . S
C454 C453 1.348 . S
C455 C451 1.415 . S
C455 C453 1.413 . S
C455 C485 1.437 . S
H456 C485 0.929 . S
N457 Gd430 2.570 . S
N457 C458 1.359 1_655 S
N457 C461 1.343 . S
C458 C451 1.422 . S
C458 N457 1.359 1_455 S
C458 C460 1.421 . S
C459 C460 1.422 1_655 S
C459 C462 1.321 . S
C459 H486 0.931 . S
C460 C458 1.421 . S
C460 C459 1.422 1_455 S
C460 C484 1.417 . S
C461 H438 0.931 . S
C461 N457 1.343 . S
C461 C462 1.390 . S
C462 H440 0.930 . S
C462 C459 1.321 . S
C462 C461 1.390 . S
O463 Gd431 2.386 1_655 S
O463 C475 1.265 . S
O464 Gd430 2.353 . S
O464 C475 1.242 . S
O465 Gd430 2.468 . S
O465 C483 1.263 . S
O466 Gd430 2.427 . S
O466 C483 1.252 . S
O467 Gd431 2.307 . S
O467 C476 1.261 . S
O468 Gd430 2.388 1_455 S
O468 C476 1.252 . S
O469 Gd430 2.386 1_455 S
O469 C487 1.265 . S
O470 Gd431 2.353 . S
O470 C487 1.242 . S
O471 Gd431 2.468 . S
O471 C495 1.263 . S
O472 Gd431 2.427 . S
O472 C495 1.252 . S
O473 Gd430 2.307 . S
O473 C488 1.261 . S
O474 Gd431 2.388 1_655 S
O474 C488 1.252 . S
C475 O463 1.265 . S
C475 O464 1.242 . S
C476 O467 1.261 . S
C476 O468 1.252 . S
C477 C480 1.394 . S
C477 C482 1.370 . S
C477 C483 1.500 . S
C478 C481 1.383 . S
C478 C482 1.395 . S
C479 C480 1.396 . S
C479 C481 1.365 . S
C479 H496 0.929 . S
C480 C477 1.394 . S
C480 C479 1.396 . S
C480 H497 0.930 . S
C481 C478 1.383 . S
C481 C479 1.365 . S
C481 H498 0.931 . S
C482 C477 1.370 . S
C482 C478 1.395 . S
C482 H499 0.930 . S
C483 Gd430 2.805 . S
C483 O465 1.263 . S
C483 O466 1.252 . S
C483 C477 1.500 . S
C484 H446 0.930 . S
C484 C460 1.417 . S
C484 C485 1.329 . S
C485 C455 1.437 . S
C485 H456 0.929 . S
C485 C484 1.329 . S
H486 C459 0.931 . S
C487 O469 1.265 . S
C487 O470 1.242 . S
C488 O473 1.261 . S
C488 O474 1.252 . S
C489 C492 1.394 . S
C489 C494 1.370 . S
C489 C495 1.500 . S
C490 C493 1.383 . S
C490 C494 1.395 . S
C491 C492 1.396 . S
C491 C493 1.365 . S
C491 H500 0.929 . S
C492 C489 1.394 . S
C492 C491 1.396 . S
C492 H501 0.930 . S
C493 C490 1.383 . S
C493 C491 1.365 . S
C493 H502 0.931 . S
C494 C489 1.370 . S
C494 C490 1.395 . S
C494 H503 0.930 . S
C495 Gd431 2.805 . S
C495 O471 1.263 . S
C495 O472 1.252 . S
C495 C489 1.500 . S
H496 C479 0.929 . S
H497 C480 0.930 . S
H498 C481 0.931 . S
H499 C482 0.930 . S
H500 C491 0.929 . S
H501 C492 0.930 . S
H502 C493 0.931 . S
H503 C494 0.930 . S
C504 C506 1.422 . S
C504 C508 1.415 . S
C504 N510 1.369 . S
C505 C506 1.421 . S
C505 C507 1.417 . S
C505 C517 1.422 1_455 S
C506 C504 1.422 . S
C506 C505 1.421 . S
C506 N516 1.359 1_455 S
C507 C505 1.417 . S
C507 C509 1.329 . S
C507 H526 0.930 . S
C508 C504 1.415 . S
C508 C509 1.437 . S
C508 C512 1.413 . S
C509 C507 1.329 . S
C509 C508 1.437 . S
C509 H531 0.929 . S
N510 C504 1.369 . S
N510 C511 1.338 . S
N510 Gd515 2.622 1_455 S
C511 N510 1.338 . S
C511 C513 1.378 . S
C511 H523 0.929 . S
C512 C508 1.413 . S
C512 C513 1.348 . S
C512 H528 0.931 . S
C513 C511 1.378 . S
C513 C512 1.348 . S
C513 H529 0.930 . S
Gd514 N534 2.622 1_455 S
Gd514 N541 2.570 . S
Gd514 O548 2.353 . S
Gd514 O549 2.468 . S
Gd514 O550 2.427 . S
Gd514 O552 2.388 1_455 S
Gd514 O553 2.386 1_455 S
Gd514 O557 2.307 . S
Gd514 C567 2.805 . S
Gd515 N510 2.622 1_655 S
Gd515 N516 2.570 . S
Gd515 O547 2.386 1_655 S
Gd515 O551 2.307 . S
Gd515 O554 2.353 . S
Gd515 O555 2.468 . S
Gd515 O556 2.427 . S
Gd515 O558 2.388 1_655 S
Gd515 C579 2.805 . S
N516 C506 1.359 1_655 S
N516 Gd515 2.570 . S
N516 C518 1.343 . S
C517 C505 1.422 1_655 S
C517 C519 1.321 . S
C517 H525 0.931 . S
C518 N516 1.343 . S
C518 C519 1.390 . S
C518 H520 0.931 . S
C519 C517 1.321 . S
C519 C518 1.390 . S
C519 H521 0.930 . S
H520 C518 0.931 . S
H521 C519 0.930 . S
H522 C545 0.931 . S
H523 C511 0.929 . S
H524 C546 0.930 . S
H525 C517 0.931 . S
H526 C507 0.930 . S
H527 C536 0.929 . S
H528 C512 0.931 . S
H529 C513 0.930 . S
H530 C568 0.930 . S
H531 C509 0.929 . S
H532 C537 0.931 . S
H533 C538 0.930 . S
N534 Gd514 2.622 1_655 S
N534 C535 1.369 . S
N534 C536 1.338 . S
C535 N534 1.369 . S
C535 C539 1.415 . S
C535 C542 1.422 . S
C536 H527 0.929 . S
C536 N534 1.338 . S
C536 C538 1.378 . S
C537 H532 0.931 . S
C537 C538 1.348 . S
C537 C539 1.413 . S
C538 H533 0.930 . S
C538 C536 1.378 . S
C538 C537 1.348 . S
C539 C535 1.415 . S
C539 C537 1.413 . S
C539 C569 1.437 . S
H540 C569 0.929 . S
N541 Gd514 2.570 . S
N541 C542 1.359 1_455 S
N541 C545 1.343 . S
C542 C535 1.422 . S
C542 N541 1.359 1_655 S
C542 C544 1.421 . S
C543 C544 1.422 1_455 S
C543 C546 1.321 . S
C543 H570 0.931 . S
C544 C542 1.421 . S
C544 C543 1.422 1_655 S
C544 C568 1.417 . S
C545 H522 0.931 . S
C545 N541 1.343 . S
C545 C546 1.390 . S
C546 H524 0.930 . S
C546 C543 1.321 . S
C546 C545 1.390 . S
O547 Gd515 2.386 1_455 S
O547 C559 1.265 . S
O548 Gd514 2.353 . S
O548 C559 1.242 . S
O549 Gd514 2.468 . S
O549 C567 1.263 . S
O550 Gd514 2.427 . S
O550 C567 1.252 . S
O551 Gd515 2.307 . S
O551 C560 1.261 . S
O552 Gd514 2.388 1_655 S
O552 C560 1.252 . S
O553 Gd514 2.386 1_655 S
O553 C571 1.265 . S
O554 Gd515 2.353 . S
O554 C571 1.242 . S
O555 Gd515 2.468 . S
O555 C579 1.263 . S
O556 Gd515 2.427 . S
O556 C579 1.252 . S
O557 Gd514 2.307 . S
O557 C572 1.261 . S
O558 Gd515 2.388 1_455 S
O558 C572 1.252 . S
C559 O547 1.265 . S
C559 O548 1.242 . S
C560 O551 1.261 . S
C560 O552 1.252 . S
C561 C564 1.394 . S
C561 C566 1.370 . S
C561 C567 1.500 . S
C562 C565 1.383 . S
C562 C566 1.395 . S
C563 C564 1.396 . S
C563 C565 1.365 . S
C563 H580 0.929 . S
C564 C561 1.394 . S
C564 C563 1.396 . S
C564 H581 0.930 . S
C565 C562 1.383 . S
C565 C563 1.365 . S
C565 H582 0.931 . S
C566 C561 1.370 . S
C566 C562 1.395 . S
C566 H583 0.930 . S
C567 Gd514 2.805 . S
C567 O549 1.263 . S
C567 O550 1.252 . S
C567 C561 1.500 . S
C568 H530 0.930 . S
C568 C544 1.417 . S
C568 C569 1.329 . S
C569 C539 1.437 . S
C569 H540 0.929 . S
C569 C568 1.329 . S
H570 C543 0.931 . S
C571 O553 1.265 . S
C571 O554 1.242 . S
C572 O557 1.261 . S
C572 O558 1.252 . S
C573 C576 1.394 . S
C573 C578 1.370 . S
C573 C579 1.500 . S
C574 C577 1.383 . S
C574 C578 1.395 . S
C575 C576 1.396 . S
C575 C577 1.365 . S
C575 H584 0.929 . S
C576 C573 1.394 . S
C576 C575 1.396 . S
C576 H585 0.930 . S
C577 C574 1.383 . S
C577 C575 1.365 . S
C577 H586 0.931 . S
C578 C573 1.370 . S
C578 C574 1.395 . S
C578 H587 0.930 . S
C579 Gd515 2.805 . S
C579 O555 1.263 . S
C579 O556 1.252 . S
C579 C573 1.500 . S
H580 C563 0.929 . S
H581 C564 0.930 . S
H582 C565 0.931 . S
H583 C566 0.930 . S
H584 C575 0.929 . S
H585 C576 0.930 . S
H586 C577 0.931 . S
H587 C578 0.930 . S
C588 C590 1.422 . S
C588 C592 1.415 . S
C588 N594 1.369 . S
C589 C590 1.421 . S
C589 C591 1.417 . S
C589 C601 1.422 1_545 S
C590 C588 1.422 . S
C590 C589 1.421 . S
C590 N600 1.359 1_545 S
C591 C589 1.417 . S
C591 C593 1.329 . S
C591 H610 0.930 . S
C592 C588 1.415 . S
C592 C593 1.437 . S
C592 C596 1.413 . S
C593 C591 1.329 . S
C593 C592 1.437 . S
C593 H615 0.929 . S
N594 C588 1.369 . S
N594 C595 1.338 . S
N594 Gd599 2.622 1_545 S
C595 N594 1.338 . S
C595 C597 1.378 . S
C595 H607 0.929 . S
C596 C592 1.413 . S
C596 C597 1.348 . S
C596 H612 0.931 . S
C597 C595 1.378 . S
C597 C596 1.348 . S
C597 H613 0.930 . S
Gd598 N618 2.622 1_545 S
Gd598 N625 2.570 . S
Gd598 O632 2.353 . S
Gd598 O633 2.468 . S
Gd598 O634 2.427 . S
Gd598 O636 2.388 1_545 S
Gd598 O637 2.386 1_545 S
Gd598 O641 2.307 . S
Gd598 C651 2.805 . S
Gd599 N594 2.622 1_565 S
Gd599 N600 2.570 . S
Gd599 O631 2.386 1_565 S
Gd599 O635 2.307 . S
Gd599 O638 2.353 . S
Gd599 O639 2.468 . S
Gd599 O640 2.427 . S
Gd599 O642 2.388 1_565 S
Gd599 C663 2.805 . S
N600 C590 1.359 1_565 S
N600 Gd599 2.570 . S
N600 C602 1.343 . S
C601 C589 1.422 1_565 S
C601 C603 1.321 . S
C601 H609 0.931 . S
C602 N600 1.343 . S
C602 C603 1.390 . S
C602 H604 0.931 . S
C603 C601 1.321 . S
C603 C602 1.390 . S
C603 H605 0.930 . S
H604 C602 0.931 . S
H605 C603 0.930 . S
H606 C629 0.931 . S
H607 C595 0.929 . S
H608 C630 0.930 . S
H609 C601 0.931 . S
H610 C591 0.930 . S
H611 C620 0.929 . S
H612 C596 0.931 . S
H613 C597 0.930 . S
H614 C652 0.930 . S
H615 C593 0.929 . S
H616 C621 0.931 . S
H617 C622 0.930 . S
N618 Gd598 2.622 1_565 S
N618 C619 1.369 . S
N618 C620 1.338 . S
C619 N618 1.369 . S
C619 C623 1.415 . S
C619 C626 1.422 . S
C620 H611 0.929 . S
C620 N618 1.338 . S
C620 C622 1.378 . S
C621 H616 0.931 . S
C621 C622 1.348 . S
C621 C623 1.413 . S
C622 H617 0.930 . S
C622 C620 1.378 . S
C622 C621 1.348 . S
C623 C619 1.415 . S
C623 C621 1.413 . S
C623 C653 1.437 . S
H624 C653 0.929 . S
N625 Gd598 2.570 . S
N625 C626 1.359 1_545 S
N625 C629 1.343 . S
C626 C619 1.422 . S
C626 N625 1.359 1_565 S
C626 C628 1.421 . S
C627 C628 1.422 1_545 S
C627 C630 1.321 . S
C627 H654 0.931 . S
C628 C626 1.421 . S
C628 C627 1.422 1_565 S
C628 C652 1.417 . S
C629 H606 0.931 . S
C629 N625 1.343 . S
C629 C630 1.390 . S
C630 H608 0.930 . S
C630 C627 1.321 . S
C630 C629 1.390 . S
O631 Gd599 2.386 1_545 S
O631 C643 1.265 . S
O632 Gd598 2.353 . S
O632 C643 1.242 . S
O633 Gd598 2.468 . S
O633 C651 1.263 . S
O634 Gd598 2.427 . S
O634 C651 1.252 . S
O635 Gd599 2.307 . S
O635 C644 1.261 . S
O636 Gd598 2.388 1_565 S
O636 C644 1.252 . S
O637 Gd598 2.386 1_565 S
O637 C655 1.265 . S
O638 Gd599 2.353 . S
O638 C655 1.242 . S
O639 Gd599 2.468 . S
O639 C663 1.263 . S
O640 Gd599 2.427 . S
O640 C663 1.252 . S
O641 Gd598 2.307 . S
O641 C656 1.261 . S
O642 Gd599 2.388 1_545 S
O642 C656 1.252 . S
C643 O631 1.265 . S
C643 O632 1.242 . S
C644 O635 1.261 . S
C644 O636 1.252 . S
C645 C648 1.394 . S
C645 C650 1.370 . S
C645 C651 1.500 . S
C646 C649 1.383 . S
C646 C650 1.395 . S
C647 C648 1.396 . S
C647 C649 1.365 . S
C647 H664 0.929 . S
C648 C645 1.394 . S
C648 C647 1.396 . S
C648 H665 0.930 . S
C649 C646 1.383 . S
C649 C647 1.365 . S
C649 H666 0.931 . S
C650 C645 1.370 . S
C650 C646 1.395 . S
C650 H667 0.930 . S
C651 Gd598 2.805 . S
C651 O633 1.263 . S
C651 O634 1.252 . S
C651 C645 1.500 . S
C652 H614 0.930 . S
C652 C628 1.417 . S
C652 C653 1.329 . S
C653 C623 1.437 . S
C653 H624 0.929 . S
C653 C652 1.329 . S
H654 C627 0.931 . S
C655 O637 1.265 . S
C655 O638 1.242 . S
C656 O641 1.261 . S
C656 O642 1.252 . S
C657 C660 1.394 . S
C657 C662 1.370 . S
C657 C663 1.500 . S
C658 C661 1.383 . S
C658 C662 1.395 . S
C659 C660 1.396 . S
C659 C661 1.365 . S
C659 H668 0.929 . S
C660 C657 1.394 . S
C660 C659 1.396 . S
C660 H669 0.930 . S
C661 C658 1.383 . S
C661 C659 1.365 . S
C661 H670 0.931 . S
C662 C657 1.370 . S
C662 C658 1.395 . S
C662 H671 0.930 . S
C663 Gd599 2.805 . S
C663 O639 1.263 . S
C663 O640 1.252 . S
C663 C657 1.500 . S
H664 C647 0.929 . S
H665 C648 0.930 . S
H666 C649 0.931 . S
H667 C650 0.930 . S
H668 C659 0.929 . S
H669 C660 0.930 . S
H670 C661 0.931 . S
H671 C662 0.930 . S
C672 C674 1.422 . S
C672 C676 1.415 . S
C672 N678 1.369 . S
C673 C674 1.421 . S
C673 C675 1.417 . S
C673 C685 1.422 . S
C674 C672 1.422 . S
C674 C673 1.421 . S
C674 N684 1.359 . S
C675 C673 1.417 . S
C675 C677 1.329 . S
C675 H694 0.930 . S
C676 C672 1.415 . S
C676 C677 1.437 . S
C676 C680 1.413 . S
C677 C675 1.329 . S
C677 C676 1.437 . S
C677 H699 0.929 . S
N678 C672 1.369 . S
N678 C679 1.338 . S
N678 Gd683 2.622 . S
C679 N678 1.338 . S
C679 C681 1.378 . S
C679 H691 0.929 . S
C680 C676 1.413 . S
C680 C681 1.348 . S
C680 H696 0.931 . S
C681 C679 1.378 . S
C681 C680 1.348 . S
C681 H697 0.930 . S
Gd682 N702 2.622 . S
Gd682 N709 2.570 . S
Gd682 O716 2.353 . S
Gd682 O717 2.468 . S
Gd682 O718 2.427 . S
Gd682 O720 2.388 . S
Gd682 O721 2.386 . S
Gd682 O725 2.307 . S
Gd682 C735 2.805 . S
Gd683 N678 2.622 . S
Gd683 N684 2.570 . S
Gd683 O715 2.386 . S
Gd683 O719 2.307 . S
Gd683 O722 2.353 . S
Gd683 O723 2.468 . S
Gd683 O724 2.427 . S
Gd683 O726 2.388 . S
Gd683 C747 2.805 . S
N684 C674 1.359 . S
N684 Gd683 2.570 . S
N684 C686 1.343 . S
C685 C673 1.422 . S
C685 C687 1.321 . S
C685 H693 0.931 . S
C686 N684 1.343 . S
C686 C687 1.390 . S
C686 H688 0.931 . S
C687 C685 1.321 . S
C687 C686 1.390 . S
C687 H689 0.930 . S
H688 C686 0.931 . S
H689 C687 0.930 . S
H690 C713 0.931 . S
H691 C679 0.929 . S
H692 C714 0.930 . S
H693 C685 0.931 . S
H694 C675 0.930 . S
H695 C704 0.929 . S
H696 C680 0.931 . S
H697 C681 0.930 . S
H698 C736 0.930 . S
H699 C677 0.929 . S
H700 C705 0.931 . S
H701 C706 0.930 . S
N702 Gd682 2.622 . S
N702 C703 1.369 . S
N702 C704 1.338 . S
C703 N702 1.369 . S
C703 C707 1.415 . S
C703 C710 1.422 . S
C704 H695 0.929 . S
C704 N702 1.338 . S
C704 C706 1.378 . S
C705 H700 0.931 . S
C705 C706 1.348 . S
C705 C707 1.413 . S
C706 H701 0.930 . S
C706 C704 1.378 . S
C706 C705 1.348 . S
C707 C703 1.415 . S
C707 C705 1.413 . S
C707 C737 1.437 . S
H708 C737 0.929 . S
N709 Gd682 2.570 . S
N709 C710 1.359 . S
N709 C713 1.343 . S
C710 C703 1.422 . S
C710 N709 1.359 . S
C710 C712 1.421 . S
C711 C712 1.422 . S
C711 C714 1.321 . S
C711 H738 0.931 . S
C712 C710 1.421 . S
C712 C711 1.422 . S
C712 C736 1.417 . S
C713 H690 0.931 . S
C713 N709 1.343 . S
C713 C714 1.390 . S
C714 H692 0.930 . S
C714 C711 1.321 . S
C714 C713 1.390 . S
O715 Gd683 2.386 . S
O715 C727 1.265 . S
O716 Gd682 2.353 . S
O716 C727 1.242 . S
O717 Gd682 2.468 . S
O717 C735 1.263 . S
O718 Gd682 2.427 . S
O718 C735 1.252 . S
O719 Gd683 2.307 . S
O719 C728 1.261 . S
O720 Gd682 2.388 . S
O720 C728 1.252 . S
O721 Gd682 2.386 . S
O721 C739 1.265 . S
O722 Gd683 2.353 . S
O722 C739 1.242 . S
O723 Gd683 2.468 . S
O723 C747 1.263 . S
O724 Gd683 2.427 . S
O724 C747 1.252 . S
O725 Gd682 2.307 . S
O725 C740 1.261 . S
O726 Gd683 2.388 . S
O726 C740 1.252 . S
C727 O715 1.265 . S
C727 O716 1.242 . S
C728 O719 1.261 . S
C728 O720 1.252 . S
C729 C732 1.394 . S
C729 C734 1.370 . S
C729 C735 1.500 . S
C730 C733 1.383 . S
C730 C734 1.395 . S
C731 C732 1.396 . S
C731 C733 1.365 . S
C731 H748 0.929 . S
C732 C729 1.394 . S
C732 C731 1.396 . S
C732 H749 0.930 . S
C733 C730 1.383 . S
C733 C731 1.365 . S
C733 H750 0.931 . S
C734 C729 1.370 . S
C734 C730 1.395 . S
C734 H751 0.930 . S
C735 Gd682 2.805 . S
C735 O717 1.263 . S
C735 O718 1.252 . S
C735 C729 1.500 . S
C736 H698 0.930 . S
C736 C712 1.417 . S
C736 C737 1.329 . S
C737 C707 1.437 . S
C737 H708 0.929 . S
C737 C736 1.329 . S
H738 C711 0.931 . S
C739 O721 1.265 . S
C739 O722 1.242 . S
C740 O725 1.261 . S
C740 O726 1.252 . S
C741 C744 1.394 . S
C741 C746 1.370 . S
C741 C747 1.500 . S
C742 C745 1.383 . S
C742 C746 1.395 . S
C743 C744 1.396 . S
C743 C745 1.365 . S
C743 H752 0.929 . S
C744 C741 1.394 . S
C744 C743 1.396 . S
C744 H753 0.930 . S
C745 C742 1.383 . S
C745 C743 1.365 . S
C745 H754 0.931 . S
C746 C741 1.370 . S
C746 C742 1.395 . S
C746 H755 0.930 . S
C747 Gd683 2.805 . S
C747 O723 1.263 . S
C747 O724 1.252 . S
C747 C741 1.500 . S
H748 C731 0.929 . S
H749 C732 0.930 . S
H750 C733 0.931 . S
H751 C734 0.930 . S
H752 C743 0.929 . S
H753 C744 0.930 . S
H754 C745 0.931 . S
H755 C746 0.930 . S
C756 C758 1.422 . S
C756 C760 1.415 . S
C756 N762 1.369 . S
C757 C758 1.421 . S
C757 C759 1.417 . S
C757 C769 1.422 1_655 S
C758 C756 1.422 . S
C758 C757 1.421 . S
C758 N768 1.359 1_655 S
C759 C757 1.417 . S
C759 C761 1.329 . S
C759 H778 0.930 . S
C760 C756 1.415 . S
C760 C761 1.437 . S
C760 C764 1.413 . S
C761 C759 1.329 . S
C761 C760 1.437 . S
C761 H783 0.929 . S
N762 C756 1.369 . S
N762 C763 1.338 . S
N762 Gd767 2.622 1_655 S
C763 N762 1.338 . S
C763 C765 1.378 . S
C763 H775 0.929 . S
C764 C760 1.413 . S
C764 C765 1.348 . S
C764 H780 0.931 . S
C765 C763 1.378 . S
C765 C764 1.348 . S
C765 H781 0.930 . S
Gd766 N786 2.622 1_656 S
Gd766 N793 2.570 . S
Gd766 O800 2.353 . S
Gd766 O801 2.470 1_556 S
Gd766 O802 2.427 1_556 S
Gd766 O804 2.388 1_656 S
Gd766 O805 2.386 1_655 S
Gd766 O809 2.307 . S
Gd766 C819 2.805 1_556 S
Gd767 N762 2.622 1_455 S
Gd767 N768 2.570 . S
Gd767 O799 2.386 1_455 S
Gd767 O803 2.307 . S
Gd767 O806 2.353 . S
Gd767 O807 2.468 . S
Gd767 O808 2.427 . S
Gd767 O810 2.388 1_455 S
Gd767 C831 2.805 . S
N768 C758 1.359 1_455 S
N768 Gd767 2.570 . S
N768 C770 1.343 . S
C769 C757 1.422 1_455 S
C769 C771 1.321 . S
C769 H777 0.931 . S
C770 N768 1.343 . S
C770 C771 1.390 . S
C770 H772 0.931 . S
C771 C769 1.321 . S
C771 C770 1.390 . S
C771 H773 0.930 . S
H772 C770 0.931 . S
H773 C771 0.930 . S
H774 C797 0.931 . S
H775 C763 0.929 . S
H776 C798 0.930 . S
H777 C769 0.931 . S
H778 C759 0.930 . S
H779 C788 0.929 . S
H780 C764 0.931 . S
H781 C765 0.930 . S
H782 C820 0.930 . S
H783 C761 0.929 . S
H784 C789 0.931 . S
H785 C790 0.930 . S
N786 Gd766 2.622 1_454 S
N786 C787 1.369 1_554 S
N786 C788 1.338 . S
C787 N786 1.369 1_556 S
C787 C791 1.430 . S
C787 C794 1.422 . S
C788 H779 0.929 . S
C788 N786 1.338 . S
C788 C790 1.378 . S
C789 H784 0.931 . S
C789 C790 1.348 . S
C789 C791 1.374 1_554 S
C790 H785 0.930 . S
C790 C788 1.378 . S
C790 C789 1.348 . S
C791 C787 1.430 . S
C791 C789 1.374 1_556 S
C791 C821 1.466 . S
H792 C821 0.929 . S
N793 Gd766 2.570 . S
N793 C794 1.359 1_655 S
N793 C797 1.343 . S
C794 C787 1.422 . S
C794 N793 1.359 1_455 S
C794 C796 1.421 . S
C795 C796 1.422 1_655 S
C795 C798 1.321 . S
C795 H822 0.931 . S
C796 C794 1.421 . S
C796 C795 1.422 1_455 S
C796 C820 1.417 . S
C797 H774 0.931 . S
C797 N793 1.343 . S
C797 C798 1.390 . S
C798 H776 0.930 . S
C798 C795 1.321 . S
C798 C797 1.390 . S
O799 Gd767 2.386 1_655 S
O799 C811 1.265 . S
O800 Gd766 2.353 . S
O800 C811 1.242 . S
O801 Gd766 2.470 1_554 S
O801 C819 1.257 . S
O802 Gd766 2.427 1_554 S
O802 C819 1.252 . S
O803 Gd767 2.307 . S
O803 C812 1.261 . S
O804 Gd766 2.388 1_454 S
O804 C812 1.252 1_554 S
O805 Gd766 2.386 1_455 S
O805 C823 1.265 . S
O806 Gd767 2.353 . S
O806 C823 1.242 . S
O807 Gd767 2.468 . S
O807 C831 1.263 . S
O808 Gd767 2.427 . S
O808 C831 1.252 . S
O809 Gd766 2.307 . S
O809 C824 1.261 . S
O810 Gd767 2.388 1_655 S
O810 C824 1.252 . S
C811 O799 1.265 . S
C811 O800 1.242 . S
C812 O803 1.261 . S
C812 O804 1.252 1_556 S
C813 C816 1.394 . S
C813 C818 1.370 . S
C813 C819 1.500 . S
C814 C817 1.383 . S
C814 C818 1.395 . S
C815 C816 1.396 . S
C815 C817 1.365 . S
C815 H832 0.929 . S
C816 C813 1.394 . S
C816 C815 1.396 . S
C816 H833 0.930 . S
C817 C814 1.383 . S
C817 C815 1.365 . S
C817 H834 0.931 . S
C818 C813 1.370 . S
C818 C814 1.395 . S
C818 H835 0.930 . S
C819 Gd766 2.805 1_554 S
C819 O801 1.257 . S
C819 O802 1.252 . S
C819 C813 1.500 . S
C820 H782 0.930 . S
C820 C796 1.417 . S
C820 C821 1.329 . S
C821 C791 1.466 . S
C821 H792 0.929 . S
C821 C820 1.329 . S
H822 C795 0.931 . S
C823 O805 1.265 . S
C823 O806 1.242 . S
C824 O809 1.261 . S
C824 O810 1.252 . S
C825 C828 1.394 . S
C825 C830 1.370 . S
C825 C831 1.500 . S
C826 C829 1.383 . S
C826 C830 1.395 . S
C827 C828 1.396 . S
C827 C829 1.365 . S
C827 H836 0.929 . S
C828 C825 1.394 . S
C828 C827 1.396 . S
C828 H837 0.930 . S
C829 C826 1.383 . S
C829 C827 1.365 . S
C829 H838 0.931 . S
C830 C825 1.370 . S
C830 C826 1.395 . S
C830 H839 0.930 . S
C831 Gd767 2.805 . S
C831 O807 1.263 . S
C831 O808 1.252 . S
C831 C825 1.500 . S
H832 C815 0.929 . S
H833 C816 0.930 . S
H834 C817 0.931 . S
H835 C818 0.930 . S
H836 C827 0.929 . S
H837 C828 0.930 . S
H838 C829 0.931 . S
H839 C830 0.930 . S
C840 C842 1.422 . S
C840 C844 1.415 . S
C840 N846 1.369 . S
C841 C842 1.421 . S
C841 C843 1.417 . S
C841 C853 1.422 1_565 S
C842 C840 1.422 . S
C842 C841 1.421 . S
C842 N852 1.359 1_565 S
C843 C841 1.417 . S
C843 C845 1.329 . S
C843 H862 0.930 . S
C844 C840 1.415 . S
C844 C845 1.437 . S
C844 C848 1.413 . S
C845 C843 1.329 . S
C845 C844 1.437 . S
C845 H867 0.929 . S
N846 C840 1.369 . S
N846 C847 1.338 . S
N846 Gd851 2.622 1_565 S
C847 N846 1.338 . S
C847 C849 1.378 . S
C847 H859 0.929 . S
C848 C844 1.413 . S
C848 C849 1.348 . S
C848 H864 0.931 . S
C849 C847 1.378 . S
C849 C848 1.348 . S
C849 H865 0.930 . S
Gd850 N870 2.622 1_565 S
Gd850 N877 2.570 . S
Gd850 O884 2.353 . S
Gd850 O885 2.468 . S
Gd850 O886 2.427 . S
Gd850 O888 2.388 1_565 S
Gd850 O889 2.386 1_565 S
Gd850 O893 2.307 . S
Gd850 C903 2.805 . S
Gd851 N846 2.622 1_545 S
Gd851 N852 2.570 . S
Gd851 O883 2.386 1_545 S
Gd851 O887 2.307 . S
Gd851 O890 2.353 . S
Gd851 O891 2.468 . S
Gd851 O892 2.427 . S
Gd851 O894 2.388 1_545 S
Gd851 C915 2.805 . S
N852 C842 1.359 1_545 S
N852 Gd851 2.570 . S
N852 C854 1.343 . S
C853 C841 1.422 1_545 S
C853 C855 1.321 . S
C853 H861 0.931 . S
C854 N852 1.343 . S
C854 C855 1.390 . S
C854 H856 0.931 . S
C855 C853 1.321 . S
C855 C854 1.390 . S
C855 H857 0.930 . S
H856 C854 0.931 . S
H857 C855 0.930 . S
H858 C881 0.931 . S
H859 C847 0.929 . S
H860 C882 0.930 . S
H861 C853 0.931 . S
H862 C843 0.930 . S
H863 C872 0.929 . S
H864 C848 0.931 . S
H865 C849 0.930 . S
H866 C904 0.930 . S
H867 C845 0.929 . S
H868 C873 0.931 . S
H869 C874 0.930 . S
N870 Gd850 2.622 1_545 S
N870 C871 1.369 . S
N870 C872 1.338 . S
C871 N870 1.369 . S
C871 C875 1.415 . S
C871 C878 1.422 . S
C872 H863 0.929 . S
C872 N870 1.338 . S
C872 C874 1.378 . S
C873 H868 0.931 . S
C873 C874 1.348 . S
C873 C875 1.413 . S
C874 H869 0.930 . S
C874 C872 1.378 . S
C874 C873 1.348 . S
C875 C871 1.415 . S
C875 C873 1.413 . S
C875 C905 1.437 . S
H876 C905 0.929 . S
N877 Gd850 2.570 . S
N877 C878 1.359 1_565 S
N877 C881 1.343 . S
C878 C871 1.422 . S
C878 N877 1.359 1_545 S
C878 C880 1.421 . S
C879 C880 1.422 1_565 S
C879 C882 1.321 . S
C879 H906 0.931 . S
C880 C878 1.421 . S
C880 C879 1.422 1_545 S
C880 C904 1.417 . S
C881 H858 0.931 . S
C881 N877 1.343 . S
C881 C882 1.390 . S
C882 H860 0.930 . S
C882 C879 1.321 . S
C882 C881 1.390 . S
O883 Gd851 2.386 1_565 S
O883 C895 1.265 . S
O884 Gd850 2.353 . S
O884 C895 1.242 . S
O885 Gd850 2.468 . S
O885 C903 1.263 . S
O886 Gd850 2.427 . S
O886 C903 1.252 . S
O887 Gd851 2.307 . S
O887 C896 1.261 . S
O888 Gd850 2.388 1_545 S
O888 C896 1.252 . S
O889 Gd850 2.386 1_545 S
O889 C907 1.265 . S
O890 Gd851 2.353 . S
O890 C907 1.242 . S
O891 Gd851 2.468 . S
O891 C915 1.263 . S
O892 Gd851 2.427 . S
O892 C915 1.252 . S
O893 Gd850 2.307 . S
O893 C908 1.261 . S
O894 Gd851 2.388 1_565 S
O894 C908 1.252 . S
C895 O883 1.265 . S
C895 O884 1.242 . S
C896 O887 1.261 . S
C896 O888 1.252 . S
C897 C900 1.394 . S
C897 C902 1.370 . S
C897 C903 1.500 . S
C898 C901 1.383 . S
C898 C902 1.395 . S
C899 C900 1.396 . S
C899 C901 1.365 . S
C899 H916 0.929 . S
C900 C897 1.394 . S
C900 C899 1.396 . S
C900 H917 0.930 . S
C901 C898 1.383 . S
C901 C899 1.365 . S
C901 H918 0.931 . S
C902 C897 1.370 . S
C902 C898 1.395 . S
C902 H919 0.930 . S
C903 Gd850 2.805 . S
C903 O885 1.263 . S
C903 O886 1.252 . S
C903 C897 1.500 . S
C904 H866 0.930 . S
C904 C880 1.417 . S
C904 C905 1.329 . S
C905 C875 1.437 . S
C905 H876 0.929 . S
C905 C904 1.329 . S
H906 C879 0.931 . S
C907 O889 1.265 . S
C907 O890 1.242 . S
C908 O893 1.261 . S
C908 O894 1.252 . S
C909 C912 1.394 . S
C909 C914 1.370 . S
C909 C915 1.500 . S
C910 C913 1.383 . S
C910 C914 1.395 . S
C911 C912 1.396 . S
C911 C913 1.365 . S
C911 H920 0.929 . S
C912 C909 1.394 . S
C912 C911 1.396 . S
C912 H921 0.930 . S
C913 C910 1.383 . S
C913 C911 1.365 . S
C913 H922 0.931 . S
C914 C909 1.370 . S
C914 C910 1.395 . S
C914 H923 0.930 . S
C915 Gd851 2.805 . S
C915 O891 1.263 . S
C915 O892 1.252 . S
C915 C909 1.500 . S
H916 C899 0.929 . S
H917 C900 0.930 . S
H918 C901 0.931 . S
H919 C902 0.930 . S
H920 C911 0.929 . S
H921 C912 0.930 . S
H922 C913 0.931 . S
H923 C914 0.930 . S
C924 C926 1.422 . S
C924 C928 1.415 . S
C924 N930 1.369 . S
C925 C926 1.421 . S
C925 C927 1.417 . S
C925 C937 1.422 . S
C926 C924 1.422 . S
C926 C925 1.421 . S
C926 N936 1.359 . S
C927 C925 1.417 . S
C927 C929 1.329 . S
C927 H946 0.930 . S
C928 C924 1.415 . S
C928 C929 1.437 . S
C928 C932 1.413 . S
C929 C927 1.329 . S
C929 C928 1.437 . S
C929 H951 0.929 . S
N930 C924 1.369 . S
N930 C931 1.338 . S
N930 Gd935 2.622 . S
C931 N930 1.338 . S
C931 C933 1.378 . S
C931 H943 0.929 . S
C932 C928 1.413 . S
C932 C933 1.348 . S
C932 H948 0.931 . S
C933 C931 1.378 . S
C933 C932 1.348 . S
C933 H949 0.930 . S
Gd934 N954 2.622 . S
Gd934 N961 2.570 . S
Gd934 O968 2.353 . S
Gd934 O969 2.468 . S
Gd934 O970 2.427 . S
Gd934 O972 2.388 . S
Gd934 O973 2.386 . S
Gd934 O977 2.307 . S
Gd934 C987 2.805 . S
Gd935 N930 2.622 . S
Gd935 N936 2.570 . S
Gd935 O967 2.386 . S
Gd935 O971 2.307 . S
Gd935 O974 2.353 . S
Gd935 O975 2.468 . S
Gd935 O976 2.427 . S
Gd935 O978 2.388 . S
Gd935 C999 2.805 . S
N936 C926 1.359 . S
N936 Gd935 2.570 . S
N936 C938 1.343 . S
C937 C925 1.422 . S
C937 C939 1.321 . S
C937 H945 0.931 . S
C938 N936 1.343 . S
C938 C939 1.390 . S
C938 H940 0.931 . S
C939 C937 1.321 . S
C939 C938 1.390 . S
C939 H941 0.930 . S
H940 C938 0.931 . S
H941 C939 0.930 . S
H942 C965 0.931 . S
H943 C931 0.929 . S
H944 C966 0.930 . S
H945 C937 0.931 . S
H946 C927 0.930 . S
H947 C956 0.929 . S
H948 C932 0.931 . S
H949 C933 0.930 . S
H950 C988 0.930 . S
H951 C929 0.929 . S
H952 C957 0.931 . S
H953 C958 0.930 . S
N954 Gd934 2.622 . S
N954 C955 1.369 . S
N954 C956 1.338 . S
C955 N954 1.369 . S
C955 C959 1.415 . S
C955 C962 1.422 . S
C956 H947 0.929 . S
C956 N954 1.338 . S
C956 C958 1.378 . S
C957 H952 0.931 . S
C957 C958 1.348 . S
C957 C959 1.413 . S
C958 H953 0.930 . S
C958 C956 1.378 . S
C958 C957 1.348 . S
C959 C955 1.415 . S
C959 C957 1.413 . S
C959 C989 1.437 . S
H960 C989 0.929 . S
N961 Gd934 2.570 . S
N961 C962 1.359 . S
N961 C965 1.343 . S
C962 C955 1.422 . S
C962 N961 1.359 . S
C962 C964 1.421 . S
C963 C964 1.422 . S
C963 C966 1.321 . S
C963 H990 0.931 . S
C964 C962 1.421 . S
C964 C963 1.422 . S
C964 C988 1.417 . S
C965 H942 0.931 . S
C965 N961 1.343 . S
C965 C966 1.390 . S
C966 H944 0.930 . S
C966 C963 1.321 . S
C966 C965 1.390 . S
O967 Gd935 2.386 . S
O967 C979 1.265 . S
O968 Gd934 2.353 . S
O968 C979 1.242 . S
O969 Gd934 2.468 . S
O969 C987 1.263 . S
O970 Gd934 2.427 . S
O970 C987 1.252 . S
O971 Gd935 2.307 . S
O971 C980 1.261 . S
O972 Gd934 2.388 . S
O972 C980 1.252 . S
O973 Gd934 2.386 . S
O973 C991 1.265 . S
O974 Gd935 2.353 . S
O974 C991 1.242 . S
O975 Gd935 2.468 . S
O975 C999 1.263 . S
O976 Gd935 2.427 . S
O976 C999 1.252 . S
O977 Gd934 2.307 . S
O977 C992 1.261 . S
O978 Gd935 2.388 . S
O978 C992 1.252 . S
C979 O967 1.265 . S
C979 O968 1.242 . S
C980 O971 1.261 . S
C980 O972 1.252 . S
C981 C984 1.394 . S
C981 C986 1.370 . S
C981 C987 1.500 . S
C982 C985 1.383 . S
C982 C986 1.395 . S
C983 C984 1.396 . S
C983 C985 1.365 . S
C983 H1000 0.929 . S
C984 C981 1.394 . S
C984 C983 1.396 . S
C984 H1001 0.930 . S
C985 C982 1.383 . S
C985 C983 1.365 . S
C985 H1002 0.931 . S
C986 C981 1.370 . S
C986 C982 1.395 . S
C986 H1003 0.930 . S
C987 Gd934 2.805 . S
C987 O969 1.263 . S
C987 O970 1.252 . S
C987 C981 1.500 . S
C988 H950 0.930 . S
C988 C964 1.417 . S
C988 C989 1.329 . S
C989 C959 1.437 . S
C989 H960 0.929 . S
C989 C988 1.329 . S
H990 C963 0.931 . S
C991 O973 1.265 . S
C991 O974 1.242 . S
C992 O977 1.261 . S
C992 O978 1.252 . S
C993 C996 1.394 . S
C993 C998 1.370 . S
C993 C999 1.500 . S
C994 C997 1.383 . S
C994 C998 1.395 . S
C995 C996 1.396 . S
C995 C997 1.365 . S
C995 H1004 0.929 . S
C996 C993 1.394 . S
C996 C995 1.396 . S
C996 H1005 0.930 . S
C997 C994 1.383 . S
C997 C995 1.365 . S
C997 H1006 0.931 . S
C998 C993 1.370 . S
C998 C994 1.395 . S
C998 H1007 0.930 . S
C999 Gd935 2.805 . S
C999 O975 1.263 . S
C999 O976 1.252 . S
C999 C993 1.500 . S
H1000 C983 0.929 . S
H1001 C984 0.930 . S
H1002 C985 0.931 . S
H1003 C986 0.930 . S
H1004 C995 0.929 . S
H1005 C996 0.930 . S
H1006 C997 0.931 . S
H1007 C998 0.930 . S
C1008 C1009 1.369 . S
C1008 C1010 1.419 . S
C1008 H1012 0.930 . S
C1009 C1008 1.369 . S
C1009 C1018 1.429 . S
C1010 C1008 1.419 . S
C1010 C1011 1.363 . S
C1010 H1013 0.929 . S
C1011 C1010 1.363 . S
C1011 C1017 1.428 . S
H1012 C1008 0.930 . S
H1013 C1010 0.929 . S
S1014 N1015 1.613 . S
S1014 N1016 1.610 . S
N1015 S1014 1.613 . S
N1015 C1018 1.350 . S
N1016 S1014 1.610 . S
N1016 C1017 1.351 . S
C1017 C1011 1.428 . S
C1017 N1016 1.351 . S
C1017 C1018 1.434 . S
C1018 C1009 1.429 . S
C1018 N1015 1.350 . S
C1018 C1017 1.434 . S
C1019 C1020 1.369 . S
C1019 C1021 1.419 . S
C1019 H1023 0.930 . S
C1020 C1019 1.369 . S
C1020 C1029 1.429 . S
C1021 C1019 1.419 . S
C1021 C1022 1.363 . S
C1021 H1024 0.929 . S
C1022 C1021 1.363 . S
C1022 C1028 1.428 . S
H1023 C1019 0.930 . S
H1024 C1021 0.929 . S
S1025 N1026 1.613 . S
S1025 N1027 1.610 . S
N1026 S1025 1.613 . S
N1026 C1029 1.350 1_565 S
N1027 S1025 1.610 . S
N1027 C1028 1.351 1_565 S
C1028 C1022 1.428 . S
C1028 N1027 1.351 1_545 S
C1028 C1029 1.434 . S
C1029 C1020 1.429 . S
C1029 N1026 1.350 1_545 S
C1029 C1028 1.434 . S
C1030 C1031 1.369 . S
C1030 C1032 1.419 . S
C1030 H1034 0.930 . S
C1031 C1030 1.369 . S
C1031 C1040 1.429 . S
C1032 C1030 1.419 . S
C1032 C1033 1.363 . S
C1032 H1035 0.929 . S
C1033 C1032 1.363 . S
C1033 C1039 1.428 . S
H1034 C1030 0.930 . S
H1035 C1032 0.929 . S
S1036 N1037 1.613 . S
S1036 N1038 1.610 . S
N1037 S1036 1.613 . S
N1037 C1040 1.350 . S
N1038 S1036 1.610 . S
N1038 C1039 1.351 . S
C1039 C1033 1.428 . S
C1039 N1038 1.351 . S
C1039 C1040 1.434 . S
C1040 C1031 1.429 . S
C1040 N1037 1.350 . S
C1040 C1039 1.434 . S
C1041 C1042 1.369 . S
C1041 C1043 1.419 . S
C1041 H1045 0.930 . S
C1042 C1041 1.369 . S
C1042 C1051 1.429 . S
C1043 C1041 1.419 . S
C1043 C1044 1.363 . S
C1043 H1046 0.929 . S
C1044 C1043 1.363 . S
C1044 C1050 1.428 . S
H1045 C1041 0.930 . S
H1046 C1043 0.929 . S
S1047 N1048 1.613 . S
S1047 N1049 1.610 . S
N1048 S1047 1.613 . S
N1048 C1051 1.350 . S
N1049 S1047 1.610 . S
N1049 C1050 1.351 . S
C1050 C1044 1.428 . S
C1050 N1049 1.351 . S
C1050 C1051 1.434 . S
C1051 C1042 1.429 . S
C1051 N1048 1.350 . S
C1051 C1050 1.434 . S
C1052 C1053 1.369 . S
C1052 C1054 1.419 . S
C1052 H1056 0.930 1_565 S
C1053 C1052 1.369 . S
C1053 C1062 1.429 . S
C1054 C1052 1.419 . S
C1054 C1055 1.363 . S
C1054 H1057 0.929 1_565 S
C1055 C1054 1.363 . S
C1055 C1061 1.428 . S
H1056 C1052 0.930 1_545 S
H1057 C1054 0.929 1_545 S
S1058 N1059 1.613 . S
S1058 N1060 1.610 . S
N1059 S1058 1.613 . S
N1059 C1062 1.350 . S
N1060 S1058 1.610 . S
N1060 C1061 1.351 . S
C1061 C1055 1.428 . S
C1061 N1060 1.351 . S
C1061 C1062 1.434 . S
C1062 C1053 1.429 . S
C1062 N1059 1.350 . S
C1062 C1061 1.434 . S
C1063 C1064 1.369 . S
C1063 C1065 1.419 . S
C1063 H1067 0.930 . S
C1064 C1063 1.369 . S
C1064 C1073 1.429 . S
C1065 C1063 1.419 . S
C1065 C1066 1.363 . S
C1065 H1068 0.929 . S
C1066 C1065 1.363 . S
C1066 C1072 1.428 . S
H1067 C1063 0.930 . S
H1068 C1065 0.929 . S
S1069 N1070 1.613 . S
S1069 N1071 1.610 . S
N1070 S1069 1.613 . S
N1070 C1073 1.350 . S
N1071 S1069 1.610 . S
N1071 C1072 1.351 . S
C1072 C1066 1.428 . S
C1072 N1071 1.351 . S
C1072 C1073 1.434 . S
C1073 C1064 1.429 . S
C1073 N1070 1.350 . S
C1073 C1072 1.434 . S
C1074 C1075 1.369 . S
C1074 C1076 1.419 . S
C1074 H1078 0.930 . S
C1075 C1074 1.369 . S
C1075 C1084 1.429 . S
C1076 C1074 1.419 . S
C1076 C1077 1.363 . S
C1076 H1079 0.929 . S
C1077 C1076 1.363 . S
C1077 C1083 1.428 . S
H1078 C1074 0.930 . S
H1079 C1076 0.929 . S
S1080 N1081 1.613 . S
S1080 N1082 1.610 1_545 S
N1081 S1080 1.613 . S
N1081 C1084 1.350 1_545 S
N1082 S1080 1.610 1_565 S
N1082 C1083 1.351 . S
C1083 C1077 1.428 . S
C1083 N1082 1.351 . S
C1083 C1084 1.434 . S
C1084 C1075 1.429 . S
C1084 N1081 1.350 1_565 S
C1084 C1083 1.434 . S
C1085 C1086 1.369 . S
C1085 C1087 1.419 . S
C1085 H1089 0.930 . S
C1086 C1085 1.369 . S
C1086 C1095 1.429 . S
C1087 C1085 1.419 . S
C1087 C1088 1.363 . S
C1087 H1090 0.929 . S
C1088 C1087 1.363 . S
C1088 C1094 1.428 . S
H1089 C1085 0.930 . S
H1090 C1087 0.929 . S
S1091 N1092 1.613 . S
S1091 N1093 1.610 . S
N1092 S1091 1.613 . S
N1092 C1095 1.350 . S
N1093 S1091 1.610 . S
N1093 C1094 1.351 . S
C1094 C1088 1.428 . S
C1094 N1093 1.351 . S
C1094 C1095 1.434 . S
C1095 C1086 1.429 . S
C1095 N1092 1.350 . S
C1095 C1094 1.434 . S
C1096 C1097 1.369 . S
C1096 C1098 1.419 . S
C1096 H1100 0.930 . S
C1097 C1096 1.369 . S
C1097 C1106 1.429 . S
C1098 C1096 1.419 . S
C1098 C1099 1.363 . S
C1098 H1101 0.929 . S
C1099 C1098 1.363 . S
C1099 C1105 1.428 . S
H1100 C1096 0.930 . S
H1101 C1098 0.929 . S
S1102 N1103 1.613 1_655 S
S1102 N1104 1.610 1_655 S
N1103 S1102 1.613 1_455 S
N1103 C1106 1.350 . S
N1104 S1102 1.610 1_455 S
N1104 C1105 1.351 . S
C1105 C1099 1.428 . S
C1105 N1104 1.351 . S
C1105 C1106 1.434 . S
C1106 C1097 1.429 . S
C1106 N1103 1.350 . S
C1106 C1105 1.434 . S
C1107 C1108 1.369 . S
C1107 C1109 1.419 . S
C1107 H1111 0.930 . S
C1108 C1107 1.369 . S
C1108 C1117 1.429 . S
C1109 C1107 1.419 . S
C1109 C1110 1.363 . S
C1109 H1112 0.929 . S
C1110 C1109 1.363 . S
C1110 C1116 1.428 . S
H1111 C1107 0.930 . S
H1112 C1109 0.929 . S
S1113 N1114 1.613 . S
S1113 N1115 1.610 . S
N1114 S1113 1.613 . S
N1114 C1117 1.350 . S
N1115 S1113 1.610 . S
N1115 C1116 1.351 . S
C1116 C1110 1.428 . S
C1116 N1115 1.351 . S
C1116 C1117 1.434 . S
C1117 C1108 1.429 . S
C1117 N1114 1.350 . S
C1117 C1116 1.434 . S
C1118 C1119 1.369 . S
C1118 C1120 1.419 . S
C1118 H1122 0.930 . S
C1119 C1118 1.369 . S
C1119 C1128 1.429 . S
C1120 C1118 1.419 . S
C1120 C1121 1.363 . S
C1120 H1123 0.929 . S
C1121 C1120 1.363 . S
C1121 C1127 1.428 . S
H1122 C1118 0.930 . S
H1123 C1120 0.929 . S
S1124 N1125 1.613 . S
S1124 N1126 1.610 . S
N1125 S1124 1.613 . S
N1125 C1128 1.350 . S
N1126 S1124 1.610 . S
N1126 C1127 1.351 . S
C1127 C1121 1.428 . S
C1127 N1126 1.351 . S
C1127 C1128 1.434 . S
C1128 C1119 1.429 . S
C1128 N1125 1.350 . S
C1128 C1127 1.434 . S
C1129 C1130 1.369 . S
C1129 C1131 1.419 . S
C1129 H1133 0.930 . S
C1130 C1129 1.369 . S
C1130 C1139 1.429 . S
C1131 C1129 1.419 . S
C1131 C1132 1.363 . S
C1131 H1134 0.929 . S
C1132 C1131 1.363 . S
C1132 C1138 1.428 . S
H1133 C1129 0.930 . S
H1134 C1131 0.929 . S
S1135 N1136 1.613 . S
S1135 N1137 1.610 . S
N1136 S1135 1.613 . S
N1136 C1139 1.350 . S
N1137 S1135 1.610 . S
N1137 C1138 1.351 . S
C1138 C1132 1.428 . S
C1138 N1137 1.351 . S
C1138 C1139 1.434 . S
C1139 C1130 1.429 . S
C1139 N1136 1.350 . S
C1139 C1138 1.434 . S
C1140 C1141 1.369 . S
C1140 C1142 1.419 . S
C1140 H1144 0.930 . S
C1141 C1140 1.369 . S
C1141 C1150 1.429 . S
C1142 C1140 1.419 . S
C1142 C1143 1.363 . S
C1142 H1145 0.929 . S
C1143 C1142 1.363 . S
C1143 C1149 1.428 . S
H1144 C1140 0.930 . S
H1145 C1142 0.929 . S
S1146 N1147 1.613 . S
S1146 N1148 1.610 . S
N1147 S1146 1.613 . S
N1147 C1150 1.350 . S
N1148 S1146 1.610 . S
N1148 C1149 1.351 . S
C1149 C1143 1.428 . S
C1149 N1148 1.351 . S
C1149 C1150 1.434 . S
C1150 C1141 1.429 . S
C1150 N1147 1.350 . S
C1150 C1149 1.434 . S
C1151 C1152 1.369 . S
C1151 C1153 1.419 . S
C1151 H1155 0.930 . S
C1152 C1151 1.369 . S
C1152 C1161 1.429 . S
C1153 C1151 1.419 . S
C1153 C1154 1.363 . S
C1153 H1156 0.929 . S
C1154 C1153 1.363 . S
C1154 C1160 1.428 . S
H1155 C1151 0.930 . S
H1156 C1153 0.929 . S
S1157 N1158 1.613 . S
S1157 N1159 1.610 . S
N1158 S1157 1.613 . S
N1158 C1161 1.350 . S
N1159 S1157 1.610 . S
N1159 C1160 1.351 . S
C1160 C1154 1.428 . S
C1160 N1159 1.351 . S
C1160 C1161 1.434 . S
C1161 C1152 1.429 . S
C1161 N1158 1.350 . S
C1161 C1160 1.434 . S
C1162 C1163 1.369 . S
C1162 C1164 1.419 . S
C1162 H1166 0.930 . S
C1163 C1162 1.369 . S
C1163 C1172 1.429 . S
C1164 C1162 1.419 . S
C1164 C1165 1.363 . S
C1164 H1167 0.929 . S
C1165 C1164 1.363 . S
C1165 C1171 1.428 . S
H1166 C1162 0.930 . S
H1167 C1164 0.929 . S
S1168 N1169 1.613 . S
S1168 N1170 1.610 . S
N1169 S1168 1.613 . S
N1169 C1172 1.350 . S
N1170 S1168 1.610 . S
N1170 C1171 1.351 . S
C1171 C1165 1.428 . S
C1171 N1170 1.351 . S
C1171 C1172 1.434 . S
C1172 C1163 1.429 . S
C1172 N1169 1.350 . S
C1172 C1171 1.434 . S
C1173 C1174 1.369 . S
C1173 C1175 1.419 . S
C1173 H1177 0.930 . S
C1174 C1173 1.369 . S
C1174 C1183 1.429 . S
C1175 C1173 1.419 . S
C1175 C1176 1.363 . S
C1175 H1178 0.929 . S
C1176 C1175 1.363 . S
C1176 C1182 1.428 . S
H1177 C1173 0.930 . S
H1178 C1175 0.929 . S
S1179 N1180 1.613 . S
S1179 N1181 1.610 . S
N1180 S1179 1.613 . S
N1180 C1183 1.350 . S
N1181 S1179 1.610 . S
N1181 C1182 1.351 . S
C1182 C1176 1.428 . S
C1182 N1181 1.351 . S
C1182 C1183 1.434 . S
C1183 C1174 1.429 . S
C1183 N1180 1.350 . S
C1183 C1182 1.434 . S
C1184 C1185 1.369 . S
C1184 C1186 1.419 . S
C1184 H1188 0.930 . S
C1185 C1184 1.369 . S
C1185 C1194 1.429 1_556 S
C1186 C1184 1.419 . S
C1186 C1187 1.363 . S
C1186 H1189 0.929 . S
C1187 C1186 1.363 . S
C1187 C1193 1.428 1_556 S
H1188 C1184 0.930 . S
H1189 C1186 0.929 . S
S1190 N1191 1.613 . S
S1190 N1192 1.610 . S
N1191 S1190 1.613 . S
N1191 C1194 1.350 . S
N1192 S1190 1.610 . S
N1192 C1193 1.351 . S
C1193 C1187 1.428 1_554 S
C1193 N1192 1.351 . S
C1193 C1194 1.434 . S
C1194 C1185 1.429 1_554 S
C1194 N1191 1.350 . S
C1194 C1193 1.434 . S
C1195 C1196 1.369 . S
C1195 C1197 1.419 . S
C1195 H1199 0.930 . S
C1196 C1195 1.369 . S
C1196 C1205 1.429 . S
C1197 C1195 1.419 . S
C1197 C1198 1.363 . S
C1197 H1200 0.929 . S
C1198 C1197 1.363 . S
C1198 C1204 1.428 . S
H1199 C1195 0.930 . S
H1200 C1197 0.929 . S
S1201 N1202 1.613 . S
S1201 N1203 1.610 . S
N1202 S1201 1.613 . S
N1202 C1205 1.350 . S
N1203 S1201 1.610 . S
N1203 C1204 1.351 . S
C1204 C1198 1.428 . S
C1204 N1203 1.351 . S
C1204 C1205 1.434 . S
C1205 C1196 1.429 . S
C1205 N1202 1.350 . S
C1205 C1204 1.434 . S
C1206 C1207 1.369 . S
C1206 C1208 1.419 . S
C1206 H1210 0.930 . S
C1207 C1206 1.369 . S
C1207 C1216 1.429 . S
C1208 C1206 1.419 . S
C1208 C1209 1.363 . S
C1208 H1211 0.929 . S
C1209 C1208 1.363 . S
C1209 C1215 1.428 . S
H1210 C1206 0.930 . S
H1211 C1208 0.929 . S
S1212 N1213 1.613 . S
S1212 N1214 1.610 . S
N1213 S1212 1.613 . S
N1213 C1216 1.350 . S
N1214 S1212 1.610 . S
N1214 C1215 1.351 . S
C1215 C1209 1.428 . S
C1215 N1214 1.351 . S
C1215 C1216 1.434 . S
C1216 C1207 1.429 . S
C1216 N1213 1.350 . S
C1216 C1215 1.434 . S
C1217 C1218 1.369 . S
C1217 C1219 1.419 . S
C1217 H1221 0.930 . S
C1218 C1217 1.369 . S
C1218 C1227 1.429 . S
C1219 C1217 1.419 . S
C1219 C1220 1.363 . S
C1219 H1222 0.929 . S
C1220 C1219 1.363 . S
C1220 C1226 1.428 . S
H1221 C1217 0.930 . S
H1222 C1219 0.929 . S
S1223 N1224 1.613 . S
S1223 N1225 1.610 . S
N1224 S1223 1.613 . S
N1224 C1227 1.350 . S
N1225 S1223 1.610 . S
N1225 C1226 1.351 . S
C1226 C1220 1.428 . S
C1226 N1225 1.351 . S
C1226 C1227 1.434 . S
C1227 C1218 1.429 . S
C1227 N1224 1.350 . S
C1227 C1226 1.434 . S
C1228 C1229 1.369 . S
C1228 C1230 1.419 . S
C1228 H1232 0.930 . S
C1229 C1228 1.369 . S
C1229 C1238 1.429 . S
C1230 C1228 1.419 . S
C1230 C1231 1.363 . S
C1230 H1233 0.929 . S
C1231 C1230 1.363 . S
C1231 C1237 1.428 . S
H1232 C1228 0.930 . S
H1233 C1230 0.929 . S
S1234 N1235 1.613 . S
S1234 N1236 1.610 . S
N1235 S1234 1.613 . S
N1235 C1238 1.350 . S
N1236 S1234 1.610 . S
N1236 C1237 1.351 . S
C1237 C1231 1.428 . S
C1237 N1236 1.351 . S
C1237 C1238 1.434 . S
C1238 C1229 1.429 . S
C1238 N1235 1.350 . S
C1238 C1237 1.434 . S
C1239 C1240 1.369 . S
C1239 C1241 1.419 . S
C1239 H1243 0.930 . S
C1240 C1239 1.369 . S
C1240 C1249 1.429 1_554 S
C1241 C1239 1.419 . S
C1241 C1242 1.363 . S
C1241 H1244 0.929 . S
C1242 C1241 1.363 . S
C1242 C1248 1.428 1_554 S
H1243 C1239 0.930 . S
H1244 C1241 0.929 . S
S1245 N1246 1.613 . S
S1245 N1247 1.610 . S
N1246 S1245 1.613 . S
N1246 C1249 1.350 . S
N1247 S1245 1.610 . S
N1247 C1248 1.351 . S
C1248 C1242 1.428 1_556 S
C1248 N1247 1.351 . S
C1248 C1249 1.434 . S
C1249 C1240 1.429 1_556 S
C1249 N1246 1.350 . S
C1249 C1248 1.434 . S
C1250 C1251 1.369 . S
C1250 C1252 1.419 . S
C1250 H1254 0.930 . S
C1251 C1250 1.369 . S
C1251 C1260 1.429 . S
C1252 C1250 1.419 . S
C1252 C1253 1.363 . S
C1252 H1255 0.929 . S
C1253 C1252 1.363 . S
C1253 C1259 1.428 . S
H1254 C1250 0.930 . S
H1255 C1252 0.929 . S
S1256 N1257 1.613 . S
S1256 N1258 1.610 . S
N1257 S1256 1.613 . S
N1257 C1260 1.350 . S
N1258 S1256 1.610 . S
N1258 C1259 1.351 . S
C1259 C1253 1.428 . S
C1259 N1258 1.351 . S
C1259 C1260 1.434 . S
C1260 C1251 1.429 . S
C1260 N1257 1.350 . S
C1260 C1259 1.434 . S
C1261 C1262 1.369 . S
C1261 C1263 1.419 . S
C1261 H1265 0.930 . S
C1262 C1261 1.369 . S
C1262 C1271 1.429 . S
C1263 C1261 1.419 . S
C1263 C1264 1.363 . S
C1263 H1266 0.929 . S
C1264 C1263 1.363 . S
C1264 C1270 1.428 . S
H1265 C1261 0.930 . S
H1266 C1263 0.929 . S
S1267 N1268 1.613 . S
S1267 N1269 1.610 . S
N1268 S1267 1.613 . S
N1268 C1271 1.350 . S
N1269 S1267 1.610 . S
N1269 C1270 1.351 . S
C1270 C1264 1.428 . S
C1270 N1269 1.351 . S
C1270 C1271 1.434 . S
C1271 C1262 1.429 . S
C1271 N1268 1.350 . S
C1271 C1270 1.434 . S
C1272 C1273 1.369 . S
C1272 C1274 1.419 . S
C1272 H1276 0.930 . S
C1273 C1272 1.369 . S
C1273 C1282 1.429 . S
C1274 C1272 1.419 . S
C1274 C1275 1.363 . S
C1274 H1277 0.929 . S
C1275 C1274 1.363 . S
C1275 C1281 1.428 . S
H1276 C1272 0.930 . S
H1277 C1274 0.929 . S
S1278 N1279 1.613 . S
S1278 N1280 1.610 . S
N1279 S1278 1.613 . S
N1279 C1282 1.350 . S
N1280 S1278 1.610 . S
N1280 C1281 1.351 . S
C1281 C1275 1.428 . S
C1281 N1280 1.351 . S
C1281 C1282 1.434 . S
C1282 C1273 1.429 . S
C1282 N1279 1.350 . S
C1282 C1281 1.434 . S
C1283 C1284 1.369 . S
C1283 C1285 1.419 . S
C1283 H1287 0.930 . S
C1284 C1283 1.369 . S
C1284 C1293 1.429 . S
C1285 C1283 1.419 . S
C1285 C1286 1.363 . S
C1285 H1288 0.929 . S
C1286 C1285 1.363 . S
C1286 C1292 1.428 . S
H1287 C1283 0.930 . S
H1288 C1285 0.929 . S
S1289 N1290 1.613 . S
S1289 N1291 1.610 . S
N1290 S1289 1.613 . S
N1290 C1293 1.350 . S
N1291 S1289 1.610 . S
N1291 C1292 1.351 . S
C1292 C1286 1.428 . S
C1292 N1291 1.351 . S
C1292 C1293 1.434 . S
C1293 C1284 1.429 . S
C1293 N1290 1.350 . S
C1293 C1292 1.434 . S
C1294 C1295 1.369 . S
C1294 C1296 1.419 . S
C1294 H1298 0.930 . S
C1295 C1294 1.369 . S
C1295 C1304 1.429 . S
C1296 C1294 1.419 . S
C1296 C1297 1.363 . S
C1296 H1299 0.929 . S
C1297 C1296 1.363 . S
C1297 C1303 1.428 . S
H1298 C1294 0.930 . S
H1299 C1296 0.929 . S
S1300 N1301 1.613 . S
S1300 N1302 1.610 . S
N1301 S1300 1.613 . S
N1301 C1304 1.350 . S
N1302 S1300 1.610 . S
N1302 C1303 1.351 . S
C1303 C1297 1.428 . S
C1303 N1302 1.351 . S
C1303 C1304 1.434 . S
C1304 C1295 1.429 . S
C1304 N1301 1.350 . S
C1304 C1303 1.434 . S
C1305 C1306 1.369 . S
C1305 C1307 1.419 . S
C1305 H1309 0.930 . S
C1306 C1305 1.369 . S
C1306 C1315 1.429 . S
C1307 C1305 1.419 . S
C1307 C1308 1.363 . S
C1307 H1310 0.929 . S
C1308 C1307 1.363 . S
C1308 C1314 1.428 . S
H1309 C1305 0.930 . S
H1310 C1307 0.929 . S
S1311 N1312 1.613 . S
S1311 N1313 1.610 . S
N1312 S1311 1.613 . S
N1312 C1315 1.350 . S
N1313 S1311 1.610 . S
N1313 C1314 1.351 . S
C1314 C1308 1.428 . S
C1314 N1313 1.351 . S
C1314 C1315 1.434 . S
C1315 C1306 1.429 . S
C1315 N1312 1.350 . S
C1315 C1314 1.434 . S
C1316 C1317 1.369 . S
C1316 C1318 1.419 . S
C1316 H1320 0.930 . S
C1317 C1316 1.369 . S
C1317 C1326 1.429 . S
C1318 C1316 1.419 . S
C1318 C1319 1.363 . S
C1318 H1321 0.929 . S
C1319 C1318 1.363 . S
C1319 C1325 1.428 . S
H1320 C1316 0.930 . S
H1321 C1318 0.929 . S
S1322 N1323 1.613 . S
S1322 N1324 1.610 . S
N1323 S1322 1.613 . S
N1323 C1326 1.350 . S
N1324 S1322 1.610 . S
N1324 C1325 1.351 . S
C1325 C1319 1.428 . S
C1325 N1324 1.351 . S
C1325 C1326 1.434 . S
C1326 C1317 1.429 . S
C1326 N1323 1.350 . S
C1326 C1325 1.434 . S
C1327 C1328 1.369 . S
C1327 C1329 1.419 . S
C1327 H1331 0.930 . S
C1328 C1327 1.369 . S
C1328 C1337 1.429 . S
C1329 C1327 1.419 . S
C1329 C1330 1.363 . S
C1329 H1332 0.929 . S
C1330 C1329 1.363 . S
C1330 C1336 1.428 . S
H1331 C1327 0.930 . S
H1332 C1329 0.929 . S
S1333 N1334 1.613 . S
S1333 N1335 1.610 . S
N1334 S1333 1.613 . S
N1334 C1337 1.350 . S
N1335 S1333 1.610 . S
N1335 C1336 1.351 . S
C1336 C1330 1.428 . S
C1336 N1335 1.351 . S
C1336 C1337 1.434 . S
C1337 C1328 1.429 . S
C1337 N1334 1.350 . S
C1337 C1336 1.434 . S
C1338 C1339 1.369 . S
C1338 C1340 1.419 . S
C1338 H1342 0.930 . S
C1339 C1338 1.369 . S
C1339 C1348 1.429 . S
C1340 C1338 1.419 . S
C1340 C1341 1.363 . S
C1340 H1343 0.929 . S
C1341 C1340 1.363 . S
C1341 C1347 1.428 . S
H1342 C1338 0.930 . S
H1343 C1340 0.929 . S
S1344 N1345 1.613 . S
S1344 N1346 1.610 . S
N1345 S1344 1.613 . S
N1345 C1348 1.350 . S
N1346 S1344 1.610 . S
N1346 C1347 1.351 . S
C1347 C1341 1.428 . S
C1347 N1346 1.351 . S
C1347 C1348 1.434 . S
C1348 C1339 1.429 . S
C1348 N1345 1.350 . S
C1348 C1347 1.434 . S
C1349 C1350 1.369 . S
C1349 C1351 1.419 . S
C1349 H1353 0.930 . S
C1350 C1349 1.369 . S
C1350 C1359 1.429 . S
C1351 C1349 1.419 . S
C1351 C1352 1.363 . S
C1351 H1354 0.929 . S
C1352 C1351 1.363 . S
C1352 C1358 1.428 . S
H1353 C1349 0.930 . S
H1354 C1351 0.929 . S
S1355 N1356 1.613 . S
S1355 N1357 1.610 . S
N1356 S1355 1.613 . S
N1356 C1359 1.350 . S
N1357 S1355 1.610 . S
N1357 C1358 1.351 . S
C1358 C1352 1.428 . S
C1358 N1357 1.351 . S
C1358 C1359 1.434 . S
C1359 C1350 1.429 . S
C1359 N1356 1.350 . S
C1359 C1358 1.434 . S
C1360 C1361 1.369 . S
C1360 C1362 1.419 . S
C1360 H1364 0.930 . S
C1361 C1360 1.369 . S
C1361 C1370 1.429 . S
C1362 C1360 1.419 . S
C1362 C1363 1.363 . S
C1362 H1365 0.929 . S
C1363 C1362 1.363 . S
C1363 C1369 1.428 . S
H1364 C1360 0.930 . S
H1365 C1362 0.929 . S
S1366 N1367 1.613 . S
S1366 N1368 1.610 . S
N1367 S1366 1.613 . S
N1367 C1370 1.350 . S
N1368 S1366 1.610 . S
N1368 C1369 1.351 . S
C1369 C1363 1.428 . S
C1369 N1368 1.351 . S
C1369 C1370 1.434 . S
C1370 C1361 1.429 . S
C1370 N1367 1.350 . S
C1370 C1369 1.434 . S
C1371 C1372 1.369 . S
C1371 C1373 1.419 . S
C1371 H1375 0.930 . S
C1372 C1371 1.369 . S
C1372 C1381 1.429 . S
C1373 C1371 1.419 . S
C1373 C1374 1.363 . S
C1373 H1376 0.929 . S
C1374 C1373 1.363 . S
C1374 C1380 1.428 . S
H1375 C1371 0.930 . S
H1376 C1373 0.929 . S
S1377 N1378 1.613 . S
S1377 N1379 1.610 . S
N1378 S1377 1.613 . S
N1378 C1381 1.350 . S
N1379 S1377 1.610 . S
N1379 C1380 1.351 . S
C1380 C1374 1.428 . S
C1380 N1379 1.351 . S
C1380 C1381 1.434 . S
C1381 C1372 1.429 . S
C1381 N1378 1.350 . S
C1381 C1380 1.434 . S
C1382 C1383 1.369 . S
C1382 C1384 1.419 . S
C1382 H1386 0.930 . S
C1383 C1382 1.369 . S
C1383 C1392 1.429 . S
C1384 C1382 1.419 . S
C1384 C1385 1.363 . S
C1384 H1387 0.929 . S
C1385 C1384 1.363 . S
C1385 C1391 1.428 . S
H1386 C1382 0.930 . S
H1387 C1384 0.929 . S
S1388 N1389 1.613 . S
S1388 N1390 1.610 . S
N1389 S1388 1.613 . S
N1389 C1392 1.350 . S
N1390 S1388 1.610 . S
N1390 C1391 1.351 . S
C1391 C1385 1.428 . S
C1391 N1390 1.351 . S
C1391 C1392 1.434 . S
C1392 C1383 1.429 . S
C1392 N1389 1.350 . S
C1392 C1391 1.434 . S
C1393 C1394 1.369 . S
C1393 C1395 1.419 . S
C1393 H1397 0.930 . S
C1394 C1393 1.369 . S
C1394 C1403 1.429 . S
C1395 C1393 1.419 . S
C1395 C1396 1.363 . S
C1395 H1398 0.929 . S
C1396 C1395 1.363 . S
C1396 C1402 1.428 . S
H1397 C1393 0.930 . S
H1398 C1395 0.929 . S
S1399 N1400 1.613 . S
S1399 N1401 1.610 . S
N1400 S1399 1.613 . S
N1400 C1403 1.350 . S
N1401 S1399 1.610 . S
N1401 C1402 1.351 . S
C1402 C1396 1.428 . S
C1402 N1401 1.351 . S
C1402 C1403 1.434 . S
C1403 C1394 1.429 . S
C1403 N1400 1.350 . S
C1403 C1402 1.434 . S
C1009 C487 1.728 . S
C1011 C58 1.245 . S
C1020 C142 1.420 . S
C1022 C67 2.028 . S
C1031 C226 1.372 . S
C1033 C151 1.855 . S
C1042 C235 1.731 . S
C1044 C310 1.246 . S
C1053 C319 2.032 . S
C1055 C394 1.410 . S
C1064 C478 1.361 . S
C1066 C403 1.859 . S
C1075 C655 1.726 . S
C1077 C562 1.256 . S
C1086 C646 1.376 . S
C1088 C739 1.855 . S
C1097 C823 2.034 . S
C1099 C730 1.411 . S
C1108 C907 1.722 . S
C1110 C814 1.259 . S
C1119 C991 1.854 . S
C1121 C898 1.375 . S
C1130 C571 2.035 . S
C1132 C982 1.407 . S
C1141 C980 3.686 . S
C1143 C55 3.601 . S
C1152 C139 3.006 . S
C1154 C560 3.093 . S
C1163 C644 3.414 . S
C1165 C223 3.313 . S
C1174 C728 3.689 . S
C1176 C307 3.599 . S
C1185 C812 3.093 . S
C1187 C391 3.005 1_556 S
C1196 C475 3.310 . S
C1198 C896 3.413 . S
C1207 C559 3.596 . S
C1209 C140 3.691 . S
C1218 C643 3.310 . S
C1220 C224 3.413 . S
C1229 C308 3.096 . S
C1231 C727 3.004 . S
C1240 C392 3.689 . S
C1242 C811 3.599 1_554 S
C1251 C895 3.315 . S
C1253 C476 3.411 . S
C1262 C979 3.011 . S
C1264 C56 3.092 . S
C1273 C572 2.826 . S
C1275 C68 2.824 . S
C1284 C152 1.951 . S
C1286 C656 1.976 . S
C1295 C740 1.946 . S
C1297 C236 1.976 . S
C1306 C320 2.827 . S
C1308 C824 2.825 . S
C1317 C908 1.975 . S
C1319 C404 1.947 . S
C1328 C992 1.951 . S
C1330 C488 1.976 . S
C1339 C574 0.510 . S
C1341 C70 0.532 . S
C1350 C658 0.532 . S
C1352 C154 0.529 . S
C1361 C742 0.533 . S
C1363 C238 0.531 . S
C1372 C322 0.534 . S
C1374 C826 0.508 . S
C1383 C910 0.543 . S
C1385 C406 0.516 . S
C1394 C994 0.517 . S
C1396 C490 0.538 . S
