# Generated by pormake.
# Topology neb, (4)-cn, num edge types: 1
# Building blocks:
#     Node 0, Type 0, BuildingBlock: AZAVOO_clean_sbu_0, # of connection points: 4
#     Node 1, Type 0, BuildingBlock: AZAVOO_clean_sbu_0, # of connection points: 4
#     Node 2, Type 0, BuildingBlock: AZAVOO_clean_sbu_0, # of connection points: 4
#     Node 3, Type 0, BuildingBlock: AZAVOO_clean_sbu_0, # of connection points: 4
#     Node 4, Type 0, BuildingBlock: AZAVOO_clean_sbu_0, # of connection points: 4
#     Node 5, Type 0, BuildingBlock: AZAVOO_clean_sbu_0, # of connection points: 4
#     Node 6, Type 0, BuildingBlock: AZAVOO_clean_sbu_0, # of connection points: 4
#     Node 7, Type 0, BuildingBlock: AZAVOO_clean_sbu_0, # of connection points: 4
#     Node 8, Type 0, BuildingBlock: AZAVOO_clean_sbu_0, # of connection points: 4
#     Node 9, Type 0, BuildingBlock: AZAVOO_clean_sbu_0, # of connection points: 4
#     Node 10, Type 0, BuildingBlock: AZAVOO_clean_sbu_0, # of connection points: 4
#     Node 11, Type 0, BuildingBlock: AZAVOO_clean_sbu_0, # of connection points: 4
#     Node 12, Type 0, BuildingBlock: AZAVOO_clean_sbu_0, # of connection points: 4
#     Node 13, Type 0, BuildingBlock: AZAVOO_clean_sbu_0, # of connection points: 4
#     Node 14, Type 0, BuildingBlock: AZAVOO_clean_sbu_0, # of connection points: 4
#     Node 15, Type 0, BuildingBlock: AZAVOO_clean_sbu_0, # of connection points: 4
#     Edge 16, Type (0, 0), BuildingBlock: MIFKUJ_clean_linker_0, # of connection points: 2
#     Edge 17, Type (0, 0), BuildingBlock: MIFKUJ_clean_linker_0, # of connection points: 2
#     Edge 18, Type (0, 0), BuildingBlock: MIFKUJ_clean_linker_0, # of connection points: 2
#     Edge 19, Type (0, 0), BuildingBlock: MIFKUJ_clean_linker_0, # of connection points: 2
#     Edge 20, Type (0, 0), BuildingBlock: MIFKUJ_clean_linker_0, # of connection points: 2
#     Edge 21, Type (0, 0), BuildingBlock: MIFKUJ_clean_linker_0, # of connection points: 2
#     Edge 22, Type (0, 0), BuildingBlock: MIFKUJ_clean_linker_0, # of connection points: 2
#     Edge 23, Type (0, 0), BuildingBlock: MIFKUJ_clean_linker_0, # of connection points: 2
#     Edge 24, Type (0, 0), BuildingBlock: MIFKUJ_clean_linker_0, # of connection points: 2
#     Edge 25, Type (0, 0), BuildingBlock: MIFKUJ_clean_linker_0, # of connection points: 2
#     Edge 26, Type (0, 0), BuildingBlock: MIFKUJ_clean_linker_0, # of connection points: 2
#     Edge 27, Type (0, 0), BuildingBlock: MIFKUJ_clean_linker_0, # of connection points: 2
#     Edge 28, Type (0, 0), BuildingBlock: MIFKUJ_clean_linker_0, # of connection points: 2
#     Edge 29, Type (0, 0), BuildingBlock: MIFKUJ_clean_linker_0, # of connection points: 2
#     Edge 30, Type (0, 0), BuildingBlock: MIFKUJ_clean_linker_0, # of connection points: 2
#     Edge 31, Type (0, 0), BuildingBlock: MIFKUJ_clean_linker_0, # of connection points: 2
#     Edge 32, Type (0, 0), BuildingBlock: MIFKUJ_clean_linker_0, # of connection points: 2
#     Edge 33, Type (0, 0), BuildingBlock: MIFKUJ_clean_linker_0, # of connection points: 2
#     Edge 34, Type (0, 0), BuildingBlock: MIFKUJ_clean_linker_0, # of connection points: 2
#     Edge 35, Type (0, 0), BuildingBlock: MIFKUJ_clean_linker_0, # of connection points: 2
#     Edge 36, Type (0, 0), BuildingBlock: MIFKUJ_clean_linker_0, # of connection points: 2
#     Edge 37, Type (0, 0), BuildingBlock: MIFKUJ_clean_linker_0, # of connection points: 2
#     Edge 38, Type (0, 0), BuildingBlock: MIFKUJ_clean_linker_0, # of connection points: 2
#     Edge 39, Type (0, 0), BuildingBlock: MIFKUJ_clean_linker_0, # of connection points: 2
#     Edge 40, Type (0, 0), BuildingBlock: MIFKUJ_clean_linker_0, # of connection points: 2
#     Edge 41, Type (0, 0), BuildingBlock: MIFKUJ_clean_linker_0, # of connection points: 2
#     Edge 42, Type (0, 0), BuildingBlock: MIFKUJ_clean_linker_0, # of connection points: 2
#     Edge 43, Type (0, 0), BuildingBlock: MIFKUJ_clean_linker_0, # of connection points: 2
#     Edge 44, Type (0, 0), BuildingBlock: MIFKUJ_clean_linker_0, # of connection points: 2
#     Edge 45, Type (0, 0), BuildingBlock: MIFKUJ_clean_linker_0, # of connection points: 2
#     Edge 46, Type (0, 0), BuildingBlock: MIFKUJ_clean_linker_0, # of connection points: 2
#     Edge 47, Type (0, 0), BuildingBlock: MIFKUJ_clean_linker_0, # of connection points: 2
# Relax obj value: 0.100
# Max RMSD: 0.147
# Mean RMSD: 0.147
data_MOF--net-neb--node1-AZAVOO_clean_sbu_0--edge1-MIFKUJ_clean_linker_0
_symmetry_space_group_name_H-M    P1
_symmetry_Int_Tables_number       1
_symmetry_cell_setting            triclinic
loop_
_symmetry_equiv_pos_as_xyz
'x, y, z'
_cell_length_a     63.10193
_cell_length_b     26.613217
_cell_length_c     92.882509
_cell_angle_alpha  96.406873
_cell_angle_beta   89.991533
_cell_angle_gamma 89.961503
loop_
_atom_site_label
_atom_site_type_symbol
_atom_site_fract_x
_atom_site_fract_y
_atom_site_fract_z
_atom_type_partial_charge
Mg0 Mg 0.10931 0.18158 0.44792 0.0
O1 O 0.11579 0.1194 0.4292 0.0
O2 O 0.1337 0.15411 0.41207 0.0
Mg3 Mg 0.13951 0.23742 0.42015 0.0
C4 C 0.12479 0.11617 0.41681 0.0
C5 C 0.08522 0.14188 0.47202 0.0
O6 O 0.08354 0.19133 0.47444 0.0
O7 O 0.14343 0.17756 0.45578 0.0
O8 O 0.16035 0.21584 0.43885 0.0
O9 O 0.07986 0.20428 0.43701 0.0
O10 O 0.11154 0.23721 0.43415 0.0
C11 C 0.16035 0.19499 0.45061 0.0
C12 C 0.09176 0.23505 0.43078 0.0
O13 O 0.09717 0.12314 0.46179 0.0
Mg14 Mg 0.10439 0.06782 0.80107 0.0
O15 O 0.11355 0.13187 0.81875 0.0
O16 O 0.13234 0.09802 0.83563 0.0
Mg17 Mg 0.13657 0.01363 0.82827 0.0
C18 C 0.12356 0.13595 0.83077 0.0
C19 C 0.07739 0.15466 0.79226 0.0
O20 O 0.07343 0.15595 0.80619 0.0
O21 O 0.13776 0.06719 0.79155 0.0
O22 O 0.15586 0.03095 0.80837 0.0
O23 O 0.07587 0.05005 0.81378 0.0
O24 O 0.10729 0.01455 0.8156 0.0
C25 C 0.15497 0.04963 0.79628 0.0
C26 C 0.08797 0.01955 0.81995 0.0
O27 O 0.09147 0.12435 0.78666 0.0
Mg28 Mg 0.8942 0.8102 0.54789 0.0
O29 O 0.8853 0.87308 0.56588 0.0
O30 O 0.86665 0.83786 0.58257 0.0
Mg31 Mg 0.863 0.75343 0.57498 0.0
C32 C 0.87527 0.8763 0.5779 0.0
C33 C 0.91733 0.84898 0.52319 0.0
O34 O 0.91859 0.79948 0.52066 0.0
O35 O 0.86068 0.80947 0.53877 0.0
O36 O 0.84315 0.77059 0.5553 0.0
O37 O 0.92321 0.79249 0.56008 0.0
O38 O 0.89203 0.75604 0.5621 0.0
C39 C 0.84372 0.79045 0.54338 0.0
C40 C 0.91146 0.76113 0.5662 0.0
O41 O 0.90611 0.86807 0.53376 0.0
Mg42 Mg 0.89223 0.93078 0.20018 0.0
O43 O 0.88576 0.86874 0.18136 0.0
O44 O 0.86621 0.90364 0.16501 0.0
Mg45 Mg 0.86205 0.98786 0.17256 0.0
C46 C 0.87562 0.86562 0.16937 0.0
C47 C 0.91591 0.89045 0.22445 0.0
O48 O 0.91811 0.93979 0.22681 0.0
O49 O 0.85798 0.92771 0.20791 0.0
O50 O 0.84123 0.96878 0.19151 0.0
O51 O 0.92216 0.95252 0.18983 0.0
O52 O 0.89061 0.98482 0.1859 0.0
C53 C 0.84121 0.94706 0.20312 0.0
C54 C 0.91052 0.98169 0.18288 0.0
O55 O 0.90373 0.87237 0.21429 0.0
Mg56 Mg 0.1086 0.68041 0.95131 0.0
O57 O 0.11557 0.61765 0.93277 0.0
O58 O 0.13407 0.65214 0.91586 0.0
Mg59 Mg 0.13995 0.73544 0.9239 0.0
C60 C 0.12495 0.61429 0.9205 0.0
C61 C 0.08068 0.64161 0.97331 0.0
O62 O 0.07683 0.69029 0.9737 0.0
O63 O 0.14246 0.67613 0.95974 0.0
O64 O 0.16002 0.7139 0.94299 0.0
O65 O 0.07965 0.70326 0.9399 0.0
O66 O 0.11147 0.73585 0.93742 0.0
C67 C 0.15959 0.69332 0.9548 0.0
C68 C 0.09179 0.73377 0.93377 0.0
O69 O 0.0955 0.62269 0.96516 0.0
Mg70 Mg 0.10867 0.56291 0.2991 0.0
O71 O 0.1161 0.62939 0.31647 0.0
O72 O 0.13465 0.59818 0.33399 0.0
Mg73 Mg 0.13961 0.51344 0.32768 0.0
C74 C 0.12569 0.63502 0.32868 0.0
C75 C 0.08499 0.59662 0.27373 0.0
O76 O 0.08297 0.54716 0.27216 0.0
O77 O 0.14256 0.56329 0.29072 0.0
O78 O 0.15996 0.52837 0.30804 0.0
O79 O 0.07906 0.54618 0.31061 0.0
O80 O 0.11043 0.51341 0.3148 0.0
C81 C 0.15958 0.54631 0.29584 0.0
C82 C 0.0907 0.5191 0.31823 0.0
O83 O 0.09695 0.61692 0.28373 0.0
Mg84 Mg 0.88947 0.31101 0.0515 0.0
O85 O 0.88125 0.37999 0.06787 0.0
O86 O 0.86044 0.35207 0.08475 0.0
Mg87 Mg 0.85617 0.26679 0.07971 0.0
C88 C 0.87026 0.38773 0.07947 0.0
C89 C 0.91741 0.3409 0.02784 0.0
O90 O 0.92125 0.29268 0.02852 0.0
O91 O 0.85618 0.30958 0.04179 0.0
O92 O 0.8375 0.27766 0.05908 0.0
O93 O 0.91796 0.29637 0.06434 0.0
O94 O 0.88636 0.26378 0.06777 0.0
C95 C 0.8388 0.29327 0.04659 0.0
C96 C 0.90583 0.26992 0.07183 0.0
O97 O 0.90275 0.36201 0.03573 0.0
Mg98 Mg 0.89016 0.42545 0.69558 0.0
O99 O 0.88127 0.3624 0.67756 0.0
O100 O 0.86419 0.39718 0.66003 0.0
Mg101 Mg 0.86088 0.48184 0.66726 0.0
C102 C 0.87204 0.35884 0.66525 0.0
C103 C 0.91422 0.33505 0.70471 0.0
O104 O 0.91839 0.33339 0.69081 0.0
O105 O 0.85606 0.42798 0.70375 0.0
O106 O 0.83985 0.46608 0.68651 0.0
O107 O 0.92026 0.44126 0.68438 0.0
O108 O 0.88949 0.47735 0.68048 0.0
C109 C 0.83951 0.44698 0.69854 0.0
C110 C 0.90918 0.47068 0.67714 0.0
O111 O 0.901 0.36765 0.71033 0.0
Mg112 Mg 0.6091 0.17881 0.94831 0.0
O113 O 0.616 0.11842 0.92912 0.0
O114 O 0.63687 0.15309 0.91351 0.0
Mg115 Mg 0.64289 0.23544 0.92242 0.0
C116 C 0.62651 0.11553 0.9173 0.0
C117 C 0.57956 0.09381 0.95519 0.0
O118 O 0.57506 0.0986 0.94159 0.0
O119 O 0.64254 0.17065 0.95733 0.0
O120 O 0.6615 0.20969 0.94152 0.0
O121 O 0.58111 0.20603 0.9367 0.0
O122 O 0.6136 0.23587 0.93518 0.0
C123 C 0.66016 0.18726 0.95296 0.0
C124 C 0.59412 0.23604 0.93112 0.0
O125 O 0.59468 0.11971 0.96125 0.0
Mg126 Mg 0.60813 0.06358 0.29706 0.0
O127 O 0.61503 0.12676 0.31549 0.0
O128 O 0.63273 0.09246 0.3328 0.0
Mg129 Mg 0.63826 0.00882 0.32508 0.0
C130 C 0.62399 0.13033 0.3279 0.0
C131 C 0.58336 0.10233 0.27326 0.0
O132 O 0.58075 0.05303 0.2716 0.0
O133 O 0.6422 0.06593 0.28904 0.0
O134 O 0.65907 0.02828 0.3061 0.0
O135 O 0.57862 0.04346 0.30826 0.0
O136 O 0.61002 0.00928 0.3113 0.0
C137 C 0.65907 0.04828 0.2942 0.0
C138 C 0.59033 0.01334 0.31486 0.0
O139 O 0.59627 0.12129 0.28285 0.0
Mg140 Mg 0.39155 0.81459 0.05018 0.0
O141 O 0.38331 0.87519 0.069 0.0
O142 O 0.36517 0.83833 0.0856 0.0
Mg143 Mg 0.36071 0.75497 0.07703 0.0
C144 C 0.37379 0.8772 0.08119 0.0
C145 C 0.41823 0.90318 0.04248 0.0
O146 O 0.42295 0.90052 0.05615 0.0
O147 O 0.35769 0.81643 0.04156 0.0
O148 O 0.34051 0.77633 0.058 0.0
O149 O 0.42073 0.79312 0.0617 0.0
O150 O 0.3893 0.7581 0.06373 0.0
C151 C 0.34075 0.79768 0.04633 0.0
C152 C 0.40888 0.76138 0.06756 0.0
O153 O 0.40376 0.87455 0.03665 0.0
Mg154 Mg 0.38395 0.93104 0.69732 0.0
O155 O 0.37696 0.86655 0.67925 0.0
O156 O 0.35658 0.89812 0.66274 0.0
Mg157 Mg 0.34924 0.98074 0.67069 0.0
C158 C 0.36686 0.86161 0.66725 0.0
C159 C 0.41465 0.89547 0.71841 0.0
O160 O 0.41807 0.94418 0.71841 0.0
O161 O 0.35092 0.92374 0.70697 0.0
O162 O 0.33131 0.95782 0.69048 0.0
O163 O 0.41132 0.95617 0.68463 0.0
O164 O 0.37862 0.98503 0.68332 0.0
C165 C 0.33306 0.93832 0.7024 0.0
C166 C 0.3979 0.98465 0.67882 0.0
O167 O 0.39934 0.87552 0.71093 0.0
Mg168 Mg 0.61413 0.68159 0.44675 0.0
O169 O 0.61917 0.61727 0.42837 0.0
O170 O 0.63791 0.64827 0.41096 0.0
Mg171 Mg 0.64521 0.73142 0.41836 0.0
C172 C 0.62821 0.61191 0.41598 0.0
C173 C 0.58957 0.64626 0.4714 0.0
O174 O 0.58884 0.69586 0.47368 0.0
O175 O 0.64816 0.67419 0.45437 0.0
O176 O 0.66576 0.70992 0.43725 0.0
O177 O 0.58499 0.70687 0.43611 0.0
O178 O 0.61718 0.73562 0.43247 0.0
C179 C 0.66536 0.68983 0.44913 0.0
C180 C 0.59727 0.73558 0.42943 0.0
O181 O 0.60105 0.62586 0.46113 0.0
Mg182 Mg 0.60816 0.56821 0.79627 0.0
O183 O 0.61616 0.6363 0.81304 0.0
O184 O 0.63802 0.60761 0.82925 0.0
Mg185 Mg 0.64293 0.52268 0.82355 0.0
C186 C 0.6276 0.64342 0.82446 0.0
C187 C 0.57927 0.59809 0.77313 0.0
O188 O 0.57593 0.54959 0.77366 0.0
O189 O 0.64119 0.57003 0.78618 0.0
O190 O 0.66063 0.5368 0.80285 0.0
O191 O 0.58015 0.55013 0.80928 0.0
O192 O 0.61239 0.52013 0.81216 0.0
C193 C 0.65886 0.55392 0.79059 0.0
C194 C 0.59299 0.52444 0.81647 0.0
O195 O 0.59381 0.61966 0.78101 0.0
Mg196 Mg 0.3931 0.32631 0.54438 0.0
O197 O 0.38441 0.38685 0.56309 0.0
O198 O 0.36693 0.34883 0.57976 0.0
Mg199 Mg 0.3631 0.2653 0.57115 0.0
C200 C 0.37503 0.38825 0.57531 0.0
C201 C 0.41511 0.36872 0.51991 0.0
O202 O 0.4156 0.3194 0.51661 0.0
O203 O 0.3593 0.3261 0.53566 0.0
O204 O 0.34252 0.28566 0.5522 0.0
O205 O 0.42243 0.30769 0.55617 0.0
O206 O 0.39145 0.2694 0.55773 0.0
C207 C 0.34254 0.3068 0.54049 0.0
C208 C 0.41087 0.27472 0.56175 0.0
O209 O 0.40456 0.3867 0.53095 0.0
Mg210 Mg 0.39043 0.43026 0.19873 0.0
O211 O 0.38226 0.36345 0.18163 0.0
O212 O 0.36366 0.39495 0.16418 0.0
Mg213 Mg 0.35933 0.47999 0.17027 0.0
C214 C 0.37243 0.35792 0.16951 0.0
C215 C 0.41491 0.3975 0.22368 0.0
O216 O 0.4175 0.44675 0.22459 0.0
O217 O 0.35671 0.43148 0.20743 0.0
O218 O 0.33922 0.46654 0.19017 0.0
O219 O 0.41995 0.44559 0.1869 0.0
O220 O 0.3887 0.47925 0.1829 0.0
C221 C 0.33972 0.44899 0.20243 0.0
C222 C 0.40835 0.47292 0.17934 0.0
O223 O 0.40219 0.37674 0.21423 0.0
H224 H 0.30288 0.28073 0.54874 0.0
H225 H 0.27203 0.26217 0.53328 0.0
H226 H 0.30691 0.30505 0.49663 0.0
H227 H 0.3379 0.32449 0.5121 0.0
H228 H 0.26597 0.33679 0.49643 0.0
H229 H 0.3026 0.18177 0.50192 0.0
H230 H 0.31917 0.11789 0.5156 0.0
H231 H 0.25963 0.09338 0.53609 0.0
H232 H 0.24276 0.15768 0.52267 0.0
H233 H 0.20009 0.21904 0.44193 0.0
H234 H 0.23131 0.23638 0.45712 0.0
H235 H 0.19683 0.19443 0.49405 0.0
H236 H 0.16546 0.17629 0.47888 0.0
H237 H 0.23776 0.1619 0.49397 0.0
H238 H 0.20121 0.31725 0.48873 0.0
H239 H 0.18457 0.38152 0.47521 0.0
H240 H 0.24389 0.40562 0.4544 0.0
H241 H 0.26082 0.34094 0.46765 0.0
C242 C 0.30396 0.28691 0.53744 0.0
C243 C 0.32298 0.30353 0.53162 0.0
C244 C 0.28631 0.27604 0.5286 0.0
C245 C 0.28736 0.28104 0.51374 0.0
C246 C 0.30585 0.30054 0.50806 0.0
C247 C 0.32353 0.31172 0.51692 0.0
C248 C 0.26948 0.26381 0.50408 0.0
C249 C 0.25998 0.29839 0.49574 0.0
C250 C 0.26141 0.21393 0.50341 0.0
C251 C 0.27147 0.17487 0.51138 0.0
C252 C 0.29307 0.163 0.50941 0.0
C253 C 0.30252 0.12669 0.51711 0.0
C254 C 0.29048 0.10168 0.52674 0.0
C255 C 0.26895 0.11283 0.52864 0.0
C256 C 0.25943 0.14917 0.52098 0.0
C257 C 0.19918 0.21272 0.45324 0.0
C258 C 0.18015 0.19688 0.45923 0.0
C259 C 0.21704 0.22289 0.46192 0.0
C260 C 0.21622 0.21787 0.47678 0.0
C261 C 0.19773 0.19893 0.48262 0.0
C262 C 0.17983 0.1885 0.47392 0.0
C263 C 0.23425 0.23489 0.48632 0.0
C264 C 0.24377 0.20028 0.49464 0.0
C265 C 0.24234 0.28475 0.48698 0.0
C266 C 0.23223 0.3239 0.47907 0.0
C267 C 0.21066 0.33599 0.48119 0.0
C268 C 0.20119 0.37253 0.47359 0.0
C269 C 0.21315 0.39754 0.46393 0.0
C270 C 0.23464 0.38616 0.46188 0.0
C271 C 0.24419 0.34959 0.46943 0.0
H272 H 0.20578 0.42583 0.45805 0.0
H273 H 0.29782 0.07359 0.53269 0.0
H274 H 0.92311 0.95136 0.52843 0.0
H275 H 0.95138 0.00102 0.51893 0.0
H276 H 0.97299 0.86877 0.4918 0.0
H277 H 0.94493 0.81871 0.50132 0.0
H278 H 0.00484 0.91371 0.50764 0.0
H279 H 0.94982 0.96551 0.47701 0.0
H280 H 0.91482 -0.00081 0.47122 0.0
H281 H 0.92916 0.13962 0.49675 0.0
H282 H 0.96416 0.10652 0.50287 0.0
H283 H 0.07963 0.03954 0.46634 0.0
H284 H 0.05111 0.98918 0.47525 0.0
H285 H 0.02858 0.12037 0.50245 0.0
H286 H 0.05687 0.17111 0.49349 0.0
H287 H 0.99715 0.0754 0.48627 0.0
H288 H 0.052 0.0232 0.51711 0.0
H289 H 0.08697 0.98942 0.52294 0.0
H290 H 0.0729 0.84963 0.497 0.0
H291 H 0.03793 0.88284 0.49085 0.0
C292 C 0.93361 0.93304 0.52023 0.0
C293 C 0.93188 0.881 0.51571 0.0
C294 C 0.94975 0.9615 0.5148 0.0
C295 C 0.96431 0.93849 0.50469 0.0
C296 C 0.96199 0.88713 0.49966 0.0
C297 C 0.94587 0.85866 0.50507 0.0
C298 C 0.98282 0.96704 0.50016 0.0
C299 C 0.00318 0.94867 0.50275 0.0
C300 C 0.98059 0.0133 0.49416 0.0
C301 C 0.95954 0.03333 0.49051 0.0
C302 C 0.94545 0.00341 0.4815 0.0
C303 C 0.92562 0.02244 0.47813 0.0
C304 C 0.91975 0.07147 0.48364 0.0
C305 C 0.93372 0.10163 0.4925 0.0
C306 C 0.95357 0.08277 0.49591 0.0
C307 C 0.06886 0.05746 0.47442 0.0
C308 C 0.07043 0.1094 0.47913 0.0
C309 C 0.05257 0.02861 0.47951 0.0
C310 C 0.0377 0.05112 0.48948 0.0
C311 C 0.03982 0.10239 0.49469 0.0
C312 C 0.05607 0.13124 0.4896 0.0
C313 C 0.01917 0.02212 0.49378 0.0
C314 C 0.99881 0.0404 0.49114 0.0
C315 C 0.02139 0.97577 0.49973 0.0
C316 C 0.04242 0.95572 0.5034 0.0
C317 C 0.05643 0.98542 0.51254 0.0
C318 C 0.07624 0.96634 0.51593 0.0
C319 C 0.08218 0.91746 0.51031 0.0
C320 C 0.06829 0.88751 0.50133 0.0
C321 C 0.04846 0.90643 0.4979 0.0
H322 H 0.09752 0.90276 0.51295 0.0
H323 H 0.90439 0.08614 0.48103 0.0
H324 H 0.33128 0.92754 0.73144 0.0
H325 H 0.30075 0.94408 0.74751 0.0
H326 H 0.26151 0.9675 0.71081 0.0
H327 H 0.29189 0.95174 0.69474 0.0
H328 H 0.25792 0.04461 0.73157 0.0
H329 H 0.25545 0.8634 0.7291 0.0
H330 H 0.26975 0.77812 0.73097 0.0
H331 H 0.28347 0.81935 0.77602 0.0
H332 H 0.2695 0.90513 0.77437 0.0
H333 H 0.15764 0.05863 0.7672 0.0
H334 H 0.18822 0.0392 0.7514 0.0
H335 H 0.22611 0.0118 0.78839 0.0
H336 H 0.19555 0.03005 0.8042 0.0
H337 H 0.23068 0.93679 0.76767 0.0
H338 H 0.23332 0.11767 0.77029 0.0
H339 H 0.21937 0.20336 0.76855 0.0
H340 H 0.20583 0.16348 0.72342 0.0
H341 H 0.21944 0.0773 0.72493 0.0
C342 C 0.31605 0.93508 0.72675 0.0
C343 C 0.31408 0.93869 0.71181 0.0
C344 C 0.2986 0.94459 0.73595 0.0
C345 C 0.27885 0.95726 0.73036 0.0
C346 C 0.27663 0.95823 0.71538 0.0
C347 C 0.29403 0.94899 0.7062 0.0
C348 C 0.26087 0.97295 0.74015 0.0
C349 C 0.25175 0.02071 0.73933 0.0
C350 C 0.25326 0.94245 0.75055 0.0
C351 C 0.26161 0.89085 0.75158 0.0
C352 C 0.26167 0.85441 0.73938 0.0
C353 C 0.26969 0.80596 0.7404 0.0
C354 C 0.27757 0.79337 0.7536 0.0
C355 C 0.27739 0.82917 0.7658 0.0
C356 C 0.2694 0.8777 0.76483 0.0
C357 C 0.17257 0.04938 0.77201 0.0
C358 C 0.17411 0.04571 0.78696 0.0
C359 C 0.19007 0.03827 0.76296 0.0
C360 C 0.20949 0.02406 0.76871 0.0
C361 C 0.21126 0.02233 0.7837 0.0
C362 C 0.19377 0.03302 0.79273 0.0
C363 C 0.22766 0.00842 0.75906 0.0
C364 C 0.23684 0.96071 0.75992 0.0
C365 C 0.23538 0.03903 0.74871 0.0
C366 C 0.22721 0.09087 0.74776 0.0
C367 C 0.22721 0.12704 0.76002 0.0
C368 C 0.2194 0.17573 0.75907 0.0
C369 C 0.21167 0.18882 0.74589 0.0
C370 C 0.2118 0.15327 0.73362 0.0
C371 C 0.21958 0.10452 0.73452 0.0
H372 H 0.20563 0.22653 0.74517 0.0
H373 H 0.28376 0.75583 0.75437 0.0
H374 H 0.0755 0.14447 0.76262 0.0
H375 H 0.04751 0.17509 0.74766 0.0
H376 H 0.0181 0.25248 0.78582 0.0
H377 H 0.04582 0.22136 0.80089 0.0
H378 H 0.98994 0.1958 0.76996 0.0
H379 H 0.04285 0.31767 0.76081 0.0
H380 H 0.07799 0.34692 0.75368 0.0
H381 H 0.07048 0.26602 0.71134 0.0
H382 H 0.03539 0.2357 0.71829 0.0
H383 H 0.91594 0.34381 0.73437 0.0
H384 H 0.94323 0.30945 0.74919 0.0
H385 H 0.97103 0.22938 0.71083 0.0
H386 H 0.94394 0.26375 0.69593 0.0
H387 H -5e-05 0.28623 0.72658 0.0
H388 H 0.9468 0.16545 0.73559 0.0
H389 H 0.91161 0.13642 0.74268 0.0
H390 H 0.91948 0.21549 0.78523 0.0
H391 H 0.95462 0.24561 0.77833 0.0
C392 C 0.06332 0.16882 0.76781 0.0
C393 C 0.06282 0.18023 0.78296 0.0
C394 C 0.04731 0.18632 0.75923 0.0
C395 C 0.03069 0.216 0.76564 0.0
C396 C 0.0307 0.22934 0.78068 0.0
C397 C 0.04664 0.21173 0.78926 0.0
C398 C 0.01259 0.2305 0.75679 0.0
C399 C 0.99209 0.21626 0.76059 0.0
C400 C 0.01548 0.25582 0.74433 0.0
C401 C 0.03658 0.27401 0.74012 0.0
C402 C 0.04876 0.30577 0.75002 0.0
C403 C 0.06866 0.32261 0.746 0.0
C404 C 0.07649 0.30823 0.73208 0.0
C405 C 0.06441 0.27707 0.72213 0.0
C406 C 0.04451 0.26009 0.7261 0.0
C407 C 0.92757 0.31799 0.72912 0.0
C408 C 0.92791 0.30695 0.71396 0.0
C409 C 0.94316 0.29837 0.73761 0.0
C410 C 0.95922 0.26709 0.73109 0.0
C411 C 0.95887 0.25376 0.71605 0.0
C412 C 0.94332 0.27332 0.70757 0.0
C413 C 0.9773 0.25165 0.73978 0.0
C414 C 0.99781 0.26572 0.73594 0.0
C415 C 0.9744 0.22622 0.7522 0.0
C416 C 0.95327 0.20819 0.75639 0.0
C417 C 0.94096 0.17702 0.74642 0.0
C418 C 0.92103 0.16029 0.75041 0.0
C419 C 0.91329 0.17421 0.76438 0.0
C420 C 0.92549 0.20479 0.7744 0.0
C421 C 0.94542 0.22166 0.77046 0.0
H422 H 0.89786 0.16121 0.76746 0.0
H423 H 0.09189 0.32132 0.72899 0.0
H424 H 0.83968 0.81428 0.5155 0.0
H425 H 0.80947 0.79653 0.49927 0.0
H426 H 0.77437 0.73913 0.53378 0.0
H427 H 0.80448 0.75614 0.55003 0.0
H428 H 0.773 0.67431 0.50954 0.0
H429 H 0.7617 0.85202 0.52218 0.0
H430 H 0.77136 0.94233 0.52522 0.0
H431 H 0.78391 0.93646 0.47962 0.0
H432 H 0.77459 0.84587 0.47634 0.0
H433 H 0.67045 0.66337 0.47666 0.0
H434 H 0.70161 0.67789 0.49217 0.0
H435 H 0.73596 0.73312 0.457 0.0
H436 H 0.70492 0.71919 0.44145 0.0
H437 H 0.73812 0.79846 0.48124 0.0
H438 H 0.74873 0.62075 0.46858 0.0
H439 H 0.73885 0.53057 0.46565 0.0
H440 H 0.72737 0.53653 0.51137 0.0
H441 H 0.7369 0.62699 0.51456 0.0
C442 C 0.82543 0.79863 0.51972 0.0
C443 C 0.82458 0.78644 0.53407 0.0
C444 C 0.80816 0.7885 0.51042 0.0
C445 C 0.78968 0.76644 0.51532 0.0
C446 C 0.78853 0.75586 0.52975 0.0
C447 C 0.80576 0.76587 0.53904 0.0
C448 C 0.77188 0.75223 0.50527 0.0
C449 C 0.76517 0.70159 0.50349 0.0
C450 C 0.76206 0.78754 0.49711 0.0
C451 C 0.76766 0.84203 0.49904 0.0
C452 C 0.76669 0.86987 0.51282 0.0
C453 C 0.77207 0.92114 0.51458 0.0
C454 C 0.7783 0.94509 0.50263 0.0
C455 C 0.77911 0.91784 0.48888 0.0
C456 C 0.77376 0.86655 0.48706 0.0
C457 C 0.68474 0.67768 0.47212 0.0
C458 C 0.68509 0.69044 0.45782 0.0
C459 C 0.70257 0.68595 0.48101 0.0
C460 C 0.72109 0.70673 0.47574 0.0
C461 C 0.72179 0.71735 0.4613 0.0
C462 C 0.70402 0.70913 0.45241 0.0
C463 C 0.73922 0.72055 0.48553 0.0
C464 C 0.74598 0.77114 0.48726 0.0
C465 C 0.74906 0.6852 0.49366 0.0
C466 C 0.74333 0.63079 0.49179 0.0
C467 C 0.74392 0.60296 0.478 0.0
C468 C 0.73842 0.55176 0.47629 0.0
C469 C 0.73243 0.52787 0.48831 0.0
C470 C 0.73198 0.5551 0.50207 0.0
C471 C 0.73745 0.60633 0.50383 0.0
H472 H 0.72818 0.48823 0.48697 0.0
H473 H 0.78246 0.98478 0.50401 0.0
H474 H 0.66489 0.07446 0.26669 0.0
H475 H 0.69611 0.05782 0.25129 0.0
H476 H 0.72886 0.99756 0.28634 0.0
H477 H 0.698 0.01483 0.30188 0.0
H478 H 0.75517 0.05215 0.27181 0.0
H479 H 0.70442 0.91927 0.25987 0.0
H480 H 0.6695 0.88369 0.2525 0.0
H481 H 0.67367 0.94929 0.2124 0.0
H482 H 0.70852 0.98586 0.21963 0.0
H483 H 0.83565 0.91907 0.23046 0.0
H484 H 0.80449 0.93445 0.24601 0.0
H485 H 0.77141 0.9968 0.21144 0.0
H486 H 0.80221 0.98089 0.19577 0.0
H487 H 0.74533 0.94029 0.22585 0.0
H488 H 0.79607 0.07371 0.238 0.0
H489 H 0.83106 0.10879 0.24543 0.0
H490 H 0.82694 0.04136 0.28524 0.0
H491 H 0.79203 0.00529 0.27795 0.0
C492 C 0.67885 0.05846 0.27121 0.0
C493 C 0.67882 0.0455 0.28549 0.0
C494 C 0.69663 0.04864 0.26236 0.0
C495 C 0.71463 0.02544 0.26758 0.0
C496 C 0.71509 0.01515 0.28206 0.0
C497 C 0.69737 0.02502 0.29092 0.0
C498 C 0.73268 0.00984 0.25786 0.0
C499 C 0.75306 0.02725 0.26184 0.0
C500 C 0.72987 0.97787 0.24476 0.0
C501 C 0.70897 0.95572 0.24036 0.0
C502 C 0.69782 0.92642 0.24953 0.0
C503 C 0.67805 0.90603 0.24537 0.0
C504 C 0.66934 0.91434 0.23201 0.0
C505 C 0.68042 0.94295 0.22276 0.0
C506 C 0.70019 0.96349 0.22688 0.0
C507 C 0.82164 0.93527 0.22607 0.0
C508 C 0.82155 0.94925 0.21191 0.0
C509 C 0.80389 0.94433 0.23501 0.0
C510 C 0.7858 0.96771 0.22996 0.0
C511 C 0.78524 0.97902 0.21559 0.0
C512 C 0.80293 0.96996 0.20665 0.0
C513 C 0.76781 0.98269 0.23979 0.0
C514 C 0.74744 0.96515 0.23583 0.0
C515 C 0.77063 0.01447 0.25292 0.0
C516 C 0.79155 0.03639 0.25736 0.0
C517 C 0.8027 0.06606 0.24829 0.0
C518 C 0.8225 0.08617 0.25248 0.0
C519 C 0.83125 0.07719 0.26578 0.0
C520 C 0.82017 0.04821 0.27493 0.0
C521 C 0.80037 0.02796 0.27078 0.0
H522 H 0.84658 0.09279 0.26901 0.0
H523 H 0.65404 0.89851 0.22881 0.0
H524 H 0.94511 0.91808 0.24548 0.0
H525 H 0.97363 0.86611 0.25362 0.0
H526 H 0.94909 0.73604 0.22698 0.0
H527 H 0.92032 0.78769 0.21882 0.0
H528 H 0.964 0.71243 0.25338 0.0
H529 H 0.98817 0.80118 0.2142 0.0
H530 H 0.99419 0.87624 0.2014 0.0
H531 H 0.03344 0.94142 0.23637 0.0
H532 H 0.02738 0.86703 0.24948 0.0
H533 H 0.05639 0.5646 0.25265 0.0
H534 H 0.0278 0.61398 0.24344 0.0
H535 H 0.05114 0.74834 0.26873 0.0
H536 H 0.07998 0.6994 0.27787 0.0
H537 H 0.0367 0.7684 0.24235 0.0
H538 H 0.01193 0.68105 0.28179 0.0
H539 H 0.00581 0.60648 0.29478 0.0
H540 H 0.96764 0.53911 0.25952 0.0
H541 H 0.9738 0.61302 0.24622 0.0
C542 C 0.94552 0.87822 0.24153 0.0
C543 C 0.93061 0.85715 0.23135 0.0
C544 C 0.9619 0.84866 0.24615 0.0
C545 C 0.9637 0.79759 0.24064 0.0
C546 C 0.94803 0.77553 0.23126 0.0
C547 C 0.93161 0.8051 0.22663 0.0
C548 C 0.98262 0.76815 0.24398 0.0
C549 C 0.97988 0.72424 0.2508 0.0
C550 C 0.00334 0.78416 0.24081 0.0
C551 C 0.00716 0.82875 0.23289 0.0
C552 C 0.99795 0.83168 0.21921 0.0
C553 C 0.00139 0.87408 0.21189 0.0
C554 C 0.01415 0.91363 0.21808 0.0
C555 C 0.02354 0.91078 0.23159 0.0
C556 C 0.02012 0.8685 0.23897 0.0
C557 C 0.05569 0.60484 0.25606 0.0
C558 C 0.07028 0.62797 0.26615 0.0
C559 C 0.03928 0.63293 0.25083 0.0
C560 C 0.0371 0.68451 0.25568 0.0
C561 C 0.05248 0.70846 0.26495 0.0
C562 C 0.06895 0.68041 0.27016 0.0
C563 C 0.0181 0.71277 0.25182 0.0
C564 C 0.02082 0.75648 0.24489 0.0
C565 C 0.99736 0.69661 0.25492 0.0
C566 C 0.99351 0.65232 0.26294 0.0
C567 C 0.00237 0.65016 0.27676 0.0
C568 C 0.99887 0.60805 0.28419 0.0
C569 C 0.98639 0.56802 0.27797 0.0
C570 C 0.97733 0.5701 0.26432 0.0
C571 C 0.98081 0.61211 0.25683 0.0
H572 H 0.98371 0.53544 0.28374 0.0
H573 H 0.01679 0.94642 0.2124 0.0
H574 H 0.33637 0.81649 0.01801 0.0
H575 H 0.30531 0.79931 0.0025 0.0
H576 H 0.26996 0.75571 0.03888 0.0
H577 H 0.30093 0.772 0.05438 0.0
H578 H 0.26646 0.68585 0.01625 0.0
H579 H 0.25936 0.86623 0.02442 0.0
H580 H 0.27106 0.95483 0.02502 0.0
H581 H 0.28265 0.93297 0.97919 0.0
H582 H 0.27129 0.844 0.97835 0.0
H583 H 0.16394 0.67435 0.98311 0.0
H584 H 0.1951 0.69076 -0.00144 0.0
H585 H 0.23061 0.73314 0.96211 0.0
H586 H 0.19956 0.71753 0.94665 0.0
H587 H 0.23404 0.80351 0.98476 0.0
H588 H 0.24098 0.62298 0.97664 0.0
H589 H 0.22921 0.53447 0.97612 0.0
H590 H 0.21777 0.55676 0.02197 0.0
H591 H 0.22921 0.64566 0.02273 0.0
C592 C 0.32188 0.80417 0.02278 0.0
C593 C 0.32121 0.79535 0.03743 0.0
C594 C 0.30412 0.79433 0.01389 0.0
C595 C 0.28531 0.77612 0.01953 0.0
C596 C 0.28435 0.76937 0.03427 0.0
C597 C 0.30208 0.77894 0.04313 0.0
C598 C 0.26701 0.76136 0.00994 0.0
C599 C 0.25917 0.71182 0.00952 0.0
C600 C 0.25786 0.79479 0.00088 0.0
C601 C 0.26467 0.84831 0.00135 0.0
C602 C 0.26457 0.8802 0.01449 0.0
C603 C 0.27111 0.93051 0.01487 0.0
C604 C 0.27765 0.94948 0.00216 0.0
C605 C 0.27761 0.9182 0.98903 0.0
C606 C 0.2711 0.86785 0.98859 0.0
C607 C 0.17849 0.68621 0.9783 0.0
C608 C 0.17918 0.69493 0.96365 0.0
C609 C 0.19631 0.69559 0.98716 0.0
C610 C 0.21518 0.71331 0.98149 0.0
C611 C 0.21617 0.71985 0.96673 0.0
C612 C 0.1984 0.71068 0.9579 0.0
C613 C 0.2335 0.728 0.99107 0.0
C614 C 0.24134 0.77754 0.99149 0.0
C615 C 0.24263 0.69459 0.00014 0.0
C616 C 0.23575 0.64113 -0.00029 0.0
C617 C 0.23579 0.60914 0.98659 0.0
C618 C 0.22921 0.55887 0.98626 0.0
C619 C 0.22269 0.54004 -0.001 0.0
C620 C 0.22279 0.57142 0.0121 0.0
C621 C 0.22934 0.62173 0.01249 0.0
H622 H 0.21761 0.50111 -0.00128 0.0
H623 H 0.28271 0.98844 0.00247 0.0
H624 H 0.04647 0.67156 0.98995 0.0
H625 H 0.01939 0.61841 -0.00087 0.0
H626 H 0.05398 0.48495 0.98208 0.0
H627 H 0.08107 0.53818 0.9725 0.0
H628 H 0.01322 0.47708 0.97472 0.0
H629 H 0.05121 0.52206 0.01881 0.0
H630 H 0.06839 0.57938 0.03801 0.0
H631 H 0.00898 0.6541 0.04794 0.0
H632 H 0.99149 0.59766 0.02866 0.0
H633 H 0.95111 0.30687 0.01114 0.0
H634 H 0.9787 0.35733 0.00133 0.0
H635 H 0.94523 0.49392 0.01705 0.0
H636 H 0.91764 0.4436 0.02717 0.0
H637 H 0.98605 0.49835 0.02515 0.0
H638 H 0.94825 0.4534 0.98074 0.0
H639 H 0.93126 0.3955 0.96158 0.0
H640 H 0.99064 0.31971 0.95241 0.0
H641 H 0.00794 0.37674 0.97165 0.0
C642 C 0.04853 0.63092 0.9883 0.0
C643 C 0.06592 0.60909 0.98046 0.0
C644 C 0.03303 0.60055 0.99362 0.0
C645 C 0.03472 0.54769 0.99139 0.0
C646 C 0.05237 0.52569 0.98392 0.0
C647 C 0.06789 0.55614 0.97853 0.0
C648 C 0.01742 0.51571 0.99618 0.0
C649 C 0.00751 0.48108 0.98581 0.0
C650 C 0.00961 0.52195 0.01055 0.0
C651 C 0.02007 0.55587 0.0222 0.0
C652 C 0.04183 0.55095 0.02501 0.0
C653 C 0.05163 0.58325 0.03592 0.0
C654 C 0.0398 0.62043 0.04417 0.0
C655 C 0.01813 0.62531 0.04154 0.0
C656 C 0.00826 0.59313 0.03063 0.0
C657 C 0.9494 0.34761 0.01232 0.0
C658 C 0.93222 0.37124 0.02 0.0
C659 C 0.96519 0.37641 0.00666 0.0
C660 C 0.964 0.42938 0.00843 0.0
C661 C 0.94646 0.45306 0.0156 0.0
C662 C 0.93065 0.42425 0.0213 0.0
C663 C 0.98177 0.45999 0.00367 0.0
C664 C 0.99179 0.4943 0.01407 0.0
C665 C 0.98971 0.45332 0.98934 0.0
C666 C 0.97935 0.41906 0.97773 0.0
C667 C 0.95765 0.42413 0.97472 0.0
C668 C 0.94797 0.39151 0.96383 0.0
C669 C 0.95985 0.35387 0.95581 0.0
C670 C 0.98145 0.34885 0.95864 0.0
C671 C 0.99121 0.38134 0.96952 0.0
H672 H 0.95233 0.32866 0.94738 0.0
H673 H 0.04741 0.64539 0.05261 0.0
H674 H 0.33472 0.42306 0.23002 0.0
H675 H 0.30395 0.43929 0.24585 0.0
H676 H 0.27029 0.50141 0.21149 0.0
H677 H 0.30094 0.48582 0.19563 0.0
H678 H 0.26807 0.56323 0.2365 0.0
H679 H 0.257 0.387 0.22128 0.0
H680 H 0.26667 0.29675 0.21721 0.0
H681 H 0.27727 0.2949 0.26281 0.0
H682 H 0.26795 0.38539 0.26713 0.0
H683 H 0.1649 0.57313 0.26836 0.0
H684 H 0.19596 0.55781 0.25276 0.0
H685 H 0.22936 0.49597 0.28727 0.0
H686 H 0.19843 0.51068 0.30291 0.0
H687 H 0.23183 0.43417 0.26228 0.0
H688 H 0.24274 0.61022 0.27754 0.0
H689 H 0.2331 0.70047 0.28164 0.0
H690 H 0.22281 0.70272 0.23602 0.0
H691 H 0.23211 0.61223 0.23167 0.0
C692 C 0.32069 0.43956 0.22575 0.0
C693 C 0.32037 0.45326 0.21155 0.0
C694 C 0.30309 0.44878 0.23482 0.0
C695 C 0.28483 0.47154 0.22983 0.0
C696 C 0.28426 0.48402 0.21557 0.0
C697 C 0.3018 0.47483 0.2065 0.0
C698 C 0.26661 0.48429 0.23965 0.0
C699 C 0.25994 0.5349 0.24199 0.0
C700 C 0.25639 0.44754 0.24708 0.0
C701 C 0.26199 0.39311 0.24451 0.0
C702 C 0.26157 0.36747 0.23042 0.0
C703 C 0.26695 0.31624 0.22807 0.0
C704 C 0.27264 0.29014 0.23973 0.0
C705 C 0.2729 0.31519 0.25378 0.0
C706 C 0.26755 0.36643 0.25619 0.0
C707 C 0.17894 0.55691 0.27272 0.0
C708 C 0.1791 0.54295 0.28689 0.0
C709 C 0.1967 0.54824 0.26378 0.0
C710 C 0.21496 0.52575 0.26886 0.0
C711 C 0.21539 0.51316 0.28312 0.0
C712 C 0.19769 0.52182 0.29206 0.0
C713 C 0.23327 0.5131 0.25912 0.0
C714 C 0.23996 0.46251 0.2568 0.0
C715 C 0.24351 0.54987 0.25171 0.0
C716 C 0.23792 0.6043 0.2543 0.0
C717 C 0.23825 0.62983 0.2684 0.0
C718 C 0.23288 0.68106 0.27077 0.0
C719 C 0.22729 0.70728 0.25911 0.0
C720 C 0.22711 0.68234 0.24505 0.0
C721 C 0.23245 0.6311 0.24262 0.0
H722 H 0.22314 0.74695 0.26096 0.0
H723 H 0.27679 0.25048 0.23789 0.0
H724 H 0.70111 0.20099 0.94494 0.0
H725 H 0.73195 0.21417 0.9607 0.0
H726 H 0.69362 0.18656 0.99748 0.0
H727 H 0.66265 0.17247 0.98169 0.0
H728 H 0.73618 0.28877 0.98187 0.0
H729 H 0.72537 0.14512 0.02368 0.0
H730 H 0.71149 0.059 0.0248 0.0
H731 H 0.72424 0.02185 0.97945 0.0
H732 H 0.73845 0.10747 0.9781 0.0
H733 H 0.79826 0.27167 0.05415 0.0
H734 H 0.76804 0.25251 0.03813 0.0
H735 H 0.8063 0.28077 0.00139 0.0
H736 H 0.8366 0.3009 0.01739 0.0
H737 H 0.76388 0.17758 0.01697 0.0
H738 H 0.77487 0.32157 0.97527 0.0
H739 H 0.78848 0.408 0.97426 0.0
H740 H 0.77493 0.44477 0.01952 0.0
H741 H 0.76099 0.35882 0.02075 0.0
C742 C 0.69928 0.19675 0.95634 0.0
C743 C 0.67936 0.18602 0.96208 0.0
C744 C 0.71694 0.20449 0.96534 0.0
C745 C 0.71511 0.20163 0.98027 0.0
C746 C 0.69548 0.18847 0.98596 0.0
C747 C 0.67778 0.18039 0.97692 0.0
C748 C 0.73332 0.21623 0.98996 0.0
C749 C 0.74245 0.2641 0.98939 0.0
C750 C 0.74109 0.18471 6e-05 0.0
C751 C 0.73276 0.13291 0.00077 0.0
C752 C 0.72527 0.11851 0.01396 0.0
C753 C 0.71734 0.06979 0.01464 0.0
C754 C 0.71691 0.03503 0.0022 0.0
C755 C 0.72449 0.04887 0.98907 0.0
C756 C 0.73246 0.09753 0.98833 0.0
C757 C 0.80023 0.2745 0.04268 0.0
C758 C 0.81991 0.28777 0.03706 0.0
C759 C 0.78293 0.26328 0.03353 0.0
C760 C 0.78488 0.26515 0.01857 0.0
C761 C 0.80433 0.27965 0.01293 0.0
C762 C 0.82166 0.29117 0.0221 0.0
C763 C 0.76677 0.25004 0.00884 0.0
C764 C 0.75763 0.20216 0.00942 0.0
C765 C 0.75895 0.28158 -0.00124 0.0
C766 C 0.7671 0.33357 0.99812 0.0
C767 C 0.77474 0.34816 0.98499 0.0
C768 C 0.78252 0.39706 0.98439 0.0
C769 C 0.78264 0.4318 0.99683 0.0
C770 C 0.77491 0.41776 0.0099 0.0
C771 C 0.7671 0.36893 0.01056 0.0
H772 H 0.78869 0.46962 0.99634 0.0
H773 H 0.71075 0.99735 0.00274 0.0
H774 H 0.69906 0.52611 0.79706 0.0
H775 H 0.72896 0.51107 0.78067 0.0
H776 H 0.69163 0.55923 0.74579 0.0
H777 H 0.6612 0.5735 0.76216 0.0
H778 H 0.71158 0.47201 0.73742 0.0
H779 H 0.73206 0.63283 0.76112 0.0
H780 H 0.7391 0.69716 0.78178 0.0
H781 H 0.78734 0.60262 0.79717 0.0
H782 H 0.78039 0.53737 0.77671 0.0
H783 H 0.80059 0.47835 0.69017 0.0
H784 H 0.76935 0.49672 0.70528 0.0
H785 H 0.80213 0.4454 0.74167 0.0
H786 H 0.83367 0.42732 0.72666 0.0
H787 H 0.784 0.53777 0.74846 0.0
H788 H 0.76242 0.3759 0.72493 0.0
H789 H 0.75527 0.31236 0.70409 0.0
H790 H 0.70905 0.41074 0.68807 0.0
H791 H 0.71613 0.47519 0.70872 0.0
C792 C 0.69717 0.53415 0.78595 0.0
C793 C 0.67764 0.55093 0.78093 0.0
C794 C 0.71438 0.52571 0.77659 0.0
C795 C 0.71261 0.53439 0.76203 0.0
C796 C 0.69333 0.55233 0.75701 0.0
C797 C 0.676 0.56073 0.7664 0.0
C798 C 0.73062 0.52201 0.75197 0.0
C799 C 0.72734 0.48712 0.73968 0.0
C800 C 0.75129 0.54077 0.75512 0.0
C801 C 0.75557 0.58001 0.76743 0.0
C802 C 0.74406 0.62557 0.76897 0.0
C803 C 0.74805 0.66224 0.78063 0.0
C804 C 0.76363 0.65394 0.7908 0.0
C805 C 0.77527 0.60898 0.78929 0.0
C806 C 0.77133 0.57217 0.77765 0.0
C807 C 0.80113 0.47028 0.70133 0.0
C808 C 0.81972 0.45154 0.70721 0.0
C809 C 0.78319 0.48069 0.70995 0.0
C810 C 0.7834 0.47236 0.72459 0.0
C811 C 0.80167 0.45219 0.73039 0.0
C812 C 0.81964 0.44162 0.72177 0.0
C813 C 0.76499 0.48739 0.73403 0.0
C814 C 0.76821 0.52285 0.74618 0.0
C815 C 0.74427 0.46934 0.73071 0.0
C816 C 0.73996 0.43058 0.7183 0.0
C817 C 0.75086 0.38416 0.7169 0.0
C818 C 0.74679 0.34795 0.70513 0.0
C819 C 0.73176 0.35756 0.69474 0.0
C820 C 0.72071 0.40337 0.69612 0.0
C821 C 0.72473 0.43974 0.70786 0.0
H822 H 0.72863 0.32947 0.68564 0.0
H823 H 0.76669 0.68237 0.79982 0.0
H824 H 0.57995 0.08955 0.98451 0.0
H825 H 0.5523 0.05541 -0.00095 0.0
H826 H 0.51804 0.00219 0.96013 0.0
H827 H 0.54545 0.03678 0.94552 0.0
H828 H 0.49274 0.05524 0.97928 0.0
H829 H 0.54233 0.9196 0.9803 0.0
H830 H 0.57696 0.88017 0.98405 0.0
H831 H 0.57577 0.93972 0.02895 0.0
H832 H 0.54125 0.98013 0.02543 0.0
H833 H 0.41711 0.90537 0.01305 0.0
H834 H 0.44423 0.9395 0.99805 0.0
H835 H 0.47863 0.99742 0.03648 0.0
H836 H 0.45173 0.96321 0.05155 0.0
H837 H 0.50368 0.94103 0.01732 0.0
H838 H 0.45402 0.0771 0.0161 0.0
H839 H 0.41928 0.11588 0.01221 0.0
H840 H 0.42051 0.05433 0.96747 0.0
H841 H 0.45514 0.01458 0.97114 0.0
C842 C 0.56674 0.06977 0.97902 0.0
C843 C 0.56483 0.06617 0.96386 0.0
C844 C 0.55094 0.05023 0.98736 0.0
C845 C 0.5331 0.02631 0.98067 0.0
C846 C 0.53162 0.02077 0.96551 0.0
C847 C 0.54737 0.04037 0.95718 0.0
C848 C 0.51536 0.00992 0.98951 0.0
C849 C 0.49506 0.02962 0.98745 0.0
C850 C 0.51851 0.97756 0.0004 0.0
C851 C 0.53929 0.95331 0.00256 0.0
C852 C 0.54953 0.92466 0.99095 0.0
C853 C 0.56913 0.90205 0.99304 0.0
C854 C 0.57859 0.90754 0.00672 0.0
C855 C 0.56844 0.93555 0.01835 0.0
C856 C 0.54884 0.95827 0.01632 0.0
C857 C 0.43022 0.92625 0.01832 0.0
C858 C 0.43235 0.93122 0.03349 0.0
C859 C 0.44571 0.94574 0.00973 0.0
C860 C 0.46348 0.97079 0.01616 0.0
C861 C 0.4651 0.97791 0.03131 0.0
C862 C 0.44964 0.95851 0.0399 0.0
C863 C 0.4811 0.98648 0.00712 0.0
C864 C 0.50137 0.96661 0.00914 0.0
C865 C 0.4779 0.01856 0.99617 0.0
C866 C 0.45708 0.04243 0.99393 0.0
C867 C 0.4468 0.07145 0.00546 0.0
C868 C 0.42715 0.09369 0.00329 0.0
C869 C 0.41767 0.08746 0.98961 0.0
C870 C 0.42786 0.05907 0.97807 0.0
C871 C 0.44751 0.03672 0.98018 0.0
H872 H 0.40246 0.10472 0.98795 0.0
H873 H 0.59376 0.89 0.00832 0.0
H874 H 0.44546 0.43068 0.24322 0.0
H875 H 0.47395 0.38083 0.25234 0.0
H876 H 0.44685 0.2447 0.23028 0.0
H877 H 0.41813 0.29422 0.22116 0.0
H878 H 0.46294 0.23036 0.25711 0.0
H879 H 0.48559 0.30185 0.21438 0.0
H880 H 0.49166 0.37064 0.19914 0.0
H881 H 0.53372 0.44368 0.23127 0.0
H882 H 0.52764 0.37564 0.2468 0.0
H883 H 0.55222 0.07259 0.25384 0.0
H884 H 0.52376 0.12455 0.24563 0.0
H885 H 0.55183 0.2575 0.2688 0.0
H886 H 0.58052 0.20577 0.27707 0.0
H887 H 0.5354 0.27462 0.2419 0.0
H888 H 0.51318 0.20178 0.28443 0.0
H889 H 0.50716 0.13246 0.29949 0.0
H890 H 0.4643 0.06147 0.26756 0.0
H891 H 0.47032 0.13002 0.2522 0.0
C892 C 0.44531 0.39003 0.24051 0.0
C893 C 0.42969 0.36646 0.2313 0.0
C894 C 0.46167 0.36166 0.24568 0.0
C895 C 0.46271 0.30931 0.24171 0.0
C896 C 0.44636 0.28516 0.23337 0.0
C897 C 0.42997 0.31353 0.22818 0.0
C898 C 0.48154 0.28032 0.24548 0.0
C899 C 0.47875 0.23966 0.25366 0.0
C900 C 0.50219 0.29315 0.24117 0.0
C901 C 0.50599 0.33393 0.23182 0.0
C902 C 0.496 0.33278 0.21824 0.0
C903 C 0.49946 0.3716 0.20955 0.0
C904 C 0.51302 0.41158 0.21425 0.0
C905 C 0.52319 0.41273 0.22765 0.0
C906 C 0.51976 0.37404 0.2364 0.0
C907 C 0.55258 0.113 0.25701 0.0
C908 C 0.56848 0.13498 0.26626 0.0
C909 C 0.53625 0.14257 0.25235 0.0
C910 C 0.5355 0.19459 0.25687 0.0
C911 C 0.55209 0.21729 0.26529 0.0
C912 C 0.56845 0.18768 0.27 0.0
C913 C 0.51679 0.2246 0.25349 0.0
C914 C 0.51959 0.26543 0.24538 0.0
C915 C 0.49615 0.21188 0.25785 0.0
C916 C 0.49237 0.17078 0.2671 0.0
C917 C 0.5026 0.17118 0.28057 0.0
C918 C 0.49917 0.13206 0.28916 0.0
C919 C 0.4854 0.09252 0.28447 0.0
C920 C 0.47499 0.09209 0.27117 0.0
C921 C 0.47839 0.13109 0.26252 0.0
H922 H 0.48276 0.06226 0.29114 0.0
H923 H 0.51569 0.4416 0.2075 0.0
H924 H 0.41528 0.79222 0.71792 0.0
H925 H 0.44337 0.74065 0.72701 0.0
H926 H 0.47721 0.87591 0.74334 0.0
H927 H 0.44939 0.92762 0.73423 0.0
H928 H 0.50276 0.80919 0.72765 0.0
H929 H 0.45246 0.80586 0.76631 0.0
H930 H 0.4176 0.79206 0.77719 0.0
H931 H 0.41971 0.63533 0.76019 0.0
H932 H 0.45448 0.64835 0.74904 0.0
H933 H 0.57843 0.70073 0.77232 0.0
H934 H 0.55063 0.75 0.76205 0.0
H935 H 0.51814 0.61228 0.7462 0.0
H936 H 0.54571 0.56281 0.7565 0.0
H937 H 0.49182 0.67882 0.76114 0.0
H938 H 0.54255 0.68181 0.7229 0.0
H939 H 0.57747 0.69569 0.71212 0.0
H940 H 0.57463 0.85308 0.72835 0.0
H941 H 0.5398 0.83999 0.73941 0.0
C942 C 0.42856 0.81098 0.72362 0.0
C943 C 0.43013 0.86401 0.72532 0.0
C944 C 0.44459 0.78147 0.72881 0.0
C945 C 0.46237 0.80451 0.73584 0.0
C946 C 0.46367 0.8574 0.73788 0.0
C947 C 0.44769 0.88688 0.73272 0.0
C948 C 0.48006 0.77362 0.74058 0.0
C949 C 0.50043 0.78111 0.73512 0.0
C950 C 0.47688 0.73615 0.75001 0.0
C951 C 0.45597 0.72821 0.75671 0.0
C952 C 0.44541 0.76855 0.76478 0.0
C953 C 0.42568 0.76085 0.77102 0.0
C954 C 0.41642 0.71288 0.76935 0.0
C955 C 0.42689 0.67248 0.76146 0.0
C956 C 0.44662 0.67999 0.75519 0.0
C957 C 0.56555 0.6809 0.76645 0.0
C958 C 0.56423 0.62787 0.76529 0.0
C959 C 0.54969 0.70911 0.76057 0.0
C960 C 0.53232 0.68475 0.75337 0.0
C961 C 0.53136 0.63179 0.75177 0.0
C962 C 0.5472 0.6036 0.75762 0.0
C963 C 0.51454 0.71448 0.74824 0.0
C964 C 0.49414 0.70679 0.75363 0.0
C965 C 0.5177 0.75179 0.73875 0.0
C966 C 0.53865 0.7598 0.73211 0.0
C967 C 0.54945 0.71929 0.72428 0.0
C968 C 0.56921 0.72704 0.7181 0.0
C969 C 0.57828 0.77521 0.71958 0.0
C970 C 0.56759 0.81577 0.72722 0.0
C971 C 0.54783 0.80822 0.73344 0.0
H972 H 0.59358 0.78113 0.71478 0.0
H973 H 0.40114 0.70699 0.77419 0.0
H974 H 0.42263 0.46999 0.52667 0.0
H975 H 0.45194 0.5186 0.51801 0.0
H976 H 0.47108 0.38891 0.48886 0.0
H977 H 0.44194 0.33996 0.49749 0.0
H978 H 0.50353 0.42706 0.50589 0.0
H979 H 0.45042 0.4909 0.47574 0.0
H980 H 0.41639 0.53037 0.47034 0.0
H981 H 0.43362 0.66502 0.49766 0.0
H982 H 0.46765 0.62608 0.50338 0.0
H983 H 0.58151 0.54498 0.46561 0.0
H984 H 0.55178 0.49857 0.47452 0.0
H985 H 0.53262 0.63198 0.50216 0.0
H986 H 0.56213 0.67892 0.49315 0.0
H987 H 0.50011 0.59277 0.48631 0.0
H988 H 0.5532 0.52978 0.51639 0.0
H989 H 0.58722 0.49066 0.52198 0.0
H990 H 0.57005 0.35489 0.49516 0.0
H991 H 0.53603 0.39345 0.48924 0.0
C992 C 0.4328 0.45213 0.5182 0.0
C993 C 0.43008 0.40097 0.51286 0.0
C994 C 0.44954 0.47997 0.51326 0.0
C995 C 0.46373 0.45721 0.50285 0.0
C996 C 0.46037 0.40702 0.49697 0.0
C997 C 0.44365 0.3792 0.50187 0.0
C998 C 0.48297 0.48436 0.49892 0.0
C999 C 0.5028 0.46296 0.5014 0.0
C1000 C 0.48196 0.53188 0.49351 0.0
C1001 C 0.46149 0.55536 0.49011 0.0
C1002 C 0.44687 0.52876 0.4807 0.0
C1003 C 0.4276 0.55107 0.47756 0.0
C1004 C 0.42282 0.60012 0.48369 0.0
C1005 C 0.43733 0.627 0.49294 0.0
C1006 C 0.45662 0.60485 0.49613 0.0
C1007 C 0.57124 0.5642 0.4738 0.0
C1008 C 0.57409 0.61574 0.47861 0.0
C1009 C 0.55425 0.53758 0.4789 0.0
C1010 C 0.53997 0.56188 0.48899 0.0
C1011 C 0.54339 0.61264 0.49431 0.0
C1012 C 0.56033 0.63931 0.4892 0.0
C1013 C 0.5207 0.5354 0.49322 0.0
C1014 C 0.50086 0.55692 0.49081 0.0
C1015 C 0.52169 0.48803 0.49873 0.0
C1016 C 0.54214 0.46471 0.50227 0.0
C1017 C 0.55675 0.49174 0.51159 0.0
C1018 C 0.57602 0.46963 0.51483 0.0
C1019 C 0.58081 0.42037 0.5089 0.0
C1020 C 0.56632 0.39306 0.49973 0.0
C1021 C 0.54703 0.41501 0.49644 0.0
H1022 H 0.59574 0.40331 0.51143 0.0
H1023 H 0.4079 0.61734 0.48124 0.0
H1024 H 0.13135 0.65611 0.35784 0.0
H1025 H 0.1306 0.73884 0.37223 0.0
H1026 H 0.1198 0.8107 0.33352 0.0
H1027 H 0.1201 0.72776 0.319 0.0
H1028 H 0.15336 0.85489 0.35361 0.0
H1029 H 0.08006 0.80257 0.35271 0.0
H1030 H 0.05092 0.7432 0.35597 0.0
H1031 H 0.06662 0.74618 0.40104 0.0
H1032 H 0.09613 0.80482 0.39798 0.0
H1033 H 0.12981 0.09959 0.38745 0.0
H1034 H 0.12946 0.01883 0.37216 0.0
H1035 H 0.12001 0.94064 0.40995 0.0
H1036 H 0.11939 0.02166 0.42522 0.0
H1037 H 0.09647 0.89892 0.38972 0.0
H1038 H 0.16955 0.94548 0.39181 0.0
H1039 H 0.20072 8e-05 0.38976 0.0
H1040 H 0.18829 0.00308 0.34442 0.0
H1041 H 0.15687 0.94901 0.34623 0.0
C1042 C 0.1289 0.68948 0.35235 0.0
C1043 C 0.1258 0.68539 0.33727 0.0
C1044 C 0.1284 0.73667 0.36061 0.0
C1045 C 0.12508 0.78072 0.35393 0.0
C1046 C 0.12237 0.77702 0.33885 0.0
C1047 C 0.12248 0.72967 0.3306 0.0
C1048 C 0.12434 0.83056 0.36277 0.0
C1049 C 0.14078 0.86502 0.36136 0.0
C1050 C 0.10829 0.8427 0.37321 0.0
C1051 C 0.09045 0.8077 0.37508 0.0
C1052 C 0.07743 0.79018 0.36328 0.0
C1053 C 0.06083 0.75671 0.3651 0.0
C1054 C 0.05695 0.74082 0.37869 0.0
C1055 C 0.06965 0.75846 0.39051 0.0
C1056 C 0.08632 0.79182 0.38874 0.0
C1057 C 0.12771 0.06518 0.39251 0.0
C1058 C 0.12476 0.06702 0.40757 0.0
C1059 C 0.12761 0.01892 0.38375 0.0
C1060 C 0.12513 0.97333 0.38989 0.0
C1061 C 0.12199 0.97517 0.40492 0.0
C1062 C 0.12169 0.02153 0.41366 0.0
C1063 C 0.12558 0.92385 0.38063 0.0
C1064 C 0.10908 0.88921 0.38197 0.0
C1065 C 0.14185 0.91109 0.37032 0.0
C1066 C 0.16073 0.94362 0.36919 0.0
C1067 C 0.17337 0.9581 0.38142 0.0
C1068 C 0.1911 0.9889 0.3803 0.0
C1069 C 0.19645 0.00516 0.36698 0.0
C1070 C 0.18411 0.99053 0.35473 0.0
C1071 C 0.16635 0.95977 0.3558 0.0
H1072 H 0.21018 0.02899 0.36613 0.0
H1073 H 0.04408 0.71493 0.38008 0.0
H1074 H 0.05279 0.22878 0.41751 0.0
H1075 H 0.03931 0.28262 0.39966 0.0
H1076 H 0.09803 0.36613 0.40244 0.0
H1077 H 0.11145 0.31321 0.42008 0.0
H1078 H 0.06266 0.42834 0.4029 0.0
H1079 H 0.09061 0.27224 0.37594 0.0
H1080 H 0.09036 0.1799 0.36919 0.0
H1081 H 0.02553 0.18731 0.35551 0.0
H1082 H 0.02535 0.2797 0.36237 0.0
H1083 H 0.11054 0.50817 0.34363 0.0
H1084 H 0.09703 0.46686 0.36381 0.0
H1085 H 0.0372 0.44059 0.34177 0.0
H1086 H 0.05086 0.48234 0.32131 0.0
H1087 H 0.0559 0.35329 0.35177 0.0
H1088 H 0.03535 0.51769 0.37111 0.0
H1089 H 0.03881 0.60995 0.37704 0.0
H1090 H 0.0917 0.58815 0.40475 0.0
H1091 H 0.08883 0.49584 0.39881 0.0
C1092 C 0.06273 0.25876 0.4143 0.0
C1093 C 0.08324 0.26654 0.42006 0.0
C1094 C 0.055 0.28946 0.40418 0.0
C1095 C 0.06766 0.32841 0.39983 0.0
C1096 C 0.08795 0.33655 0.40577 0.0
C1097 C 0.09569 0.30588 0.41574 0.0
C1098 C 0.06084 0.3594 0.38845 0.0
C1099 C 0.06086 0.41214 0.39172 0.0
C1100 C 0.05771 0.33797 0.37399 0.0
C1101 C 0.05786 0.28262 0.36985 0.0
C1102 C 0.07626 0.25407 0.3716 0.0
C1103 C 0.0762 0.20177 0.36774 0.0
C1104 C 0.05791 0.17772 0.36198 0.0
C1105 C 0.03966 0.20597 0.36002 0.0
C1106 C 0.03962 0.25827 0.36389 0.0
C1107 C 0.09456 0.49358 0.34302 0.0
C1108 C 0.08188 0.49757 0.33083 0.0
C1109 C 0.08672 0.47062 0.35465 0.0
C1110 C 0.06606 0.45111 0.3543 0.0
C1111 C 0.05313 0.45579 0.34225 0.0
C1112 C 0.06093 0.47956 0.33063 0.0
C1113 C 0.05918 0.42225 0.36613 0.0
C1114 C 0.05655 0.36984 0.36298 0.0
C1115 C 0.06014 0.44402 0.38071 0.0
C1116 C 0.06182 0.49966 0.38451 0.0
C1117 C 0.04778 0.53253 0.37842 0.0
C1118 C 0.04964 0.58488 0.38179 0.0
C1119 C 0.06545 0.60487 0.39128 0.0
C1120 C 0.07943 0.57258 0.39742 0.0
C1121 C 0.07765 0.52022 0.39409 0.0
H1122 H 0.06687 0.64535 0.39388 0.0
H1123 H 0.0579 0.13723 0.35899 0.0
H1124 H 0.13198 0.15515 0.85972 0.0
H1125 H 0.13218 0.23706 0.87457 0.0
H1126 H 0.11764 0.31167 0.83689 0.0
H1127 H 0.11697 0.22964 0.82193 0.0
H1128 H 0.15257 0.35556 0.85601 0.0
H1129 H 0.07946 0.3015 0.8573 0.0
H1130 H 0.05111 0.24073 0.86118 0.0
H1131 H 0.07071 0.23971 0.90542 0.0
H1132 H 0.09941 0.29992 0.90173 0.0
H1133 H 0.12906 0.59827 0.89111 0.0
H1134 H 0.12878 0.51775 0.87572 0.0
H1135 H 0.12164 0.43854 0.91354 0.0
H1136 H 0.12078 0.51941 0.92892 0.0
H1137 H 0.09787 0.39567 0.89395 0.0
H1138 H 0.17051 0.44595 0.89394 0.0
H1139 H 0.2009 0.50222 0.89108 0.0
H1140 H 0.18532 0.50561 0.8462 0.0
H1141 H 0.15467 0.44985 0.84884 0.0
C1142 C 0.12891 0.18895 0.85455 0.0
C1143 C 0.12445 0.18585 0.83963 0.0
C1144 C 0.12898 0.23567 0.86307 0.0
C1145 C 0.12487 0.28027 0.85682 0.0
C1146 C 0.12086 0.27758 0.84189 0.0
C1147 C 0.12041 0.23072 0.83339 0.0
C1148 C 0.12446 0.32958 0.86596 0.0
C1149 C 0.14048 0.36482 0.86418 0.0
C1150 C 0.10908 0.34062 0.87692 0.0
C1151 C 0.09171 0.30482 0.87919 0.0
C1152 C 0.07785 0.28798 0.86782 0.0
C1153 C 0.06169 0.2537 0.86999 0.0
C1154 C 0.05915 0.23626 0.88353 0.0
C1155 C 0.07272 0.25319 0.89493 0.0
C1156 C 0.08892 0.28743 0.89281 0.0
C1157 C 0.12748 0.56368 0.89615 0.0
C1158 C 0.12506 0.5652 0.91124 0.0
C1159 C 0.12745 0.51754 0.88734 0.0
C1160 C 0.12566 0.47171 0.89344 0.0
C1161 C 0.1231 0.47323 0.90853 0.0
C1162 C 0.12266 0.51949 0.91733 0.0
C1163 C 0.12607 0.42235 0.88409 0.0
C1164 C 0.11004 0.38684 0.88581 0.0
C1165 C 0.14173 0.41064 0.87326 0.0
C1166 C 0.16017 0.44412 0.87163 0.0
C1167 C 0.17348 0.45899 0.88349 0.0
C1168 C 0.19076 0.49074 0.8819 0.0
C1169 C 0.195 0.50759 0.86848 0.0
C1170 C 0.182 0.49259 0.8566 0.0
C1171 C 0.16468 0.46087 0.85813 0.0
H1172 H 0.20839 0.53217 0.86727 0.0
H1173 H 0.04663 0.20972 0.88519 0.0
H1174 H 0.11221 0.80999 0.92242 0.0
H1175 H 0.09912 0.86204 0.90443 0.0
H1176 H 0.03974 0.78126 0.90241 0.0
H1177 H 0.05288 0.72828 0.92053 0.0
H1178 H 0.05609 0.79045 0.87562 0.0
H1179 H 0.03917 0.90083 0.91722 0.0
H1180 H 0.04426 0.94706 0.94148 0.0
H1181 H 0.09615 0.02922 0.92551 0.0
H1182 H 0.09162 0.98298 0.90121 0.0
H1183 H 0.0524 0.0387 0.83665 0.0
H1184 H 0.04029 0.99197 0.85653 0.0
H1185 H 0.09387 0.89151 0.84943 0.0
H1186 H 0.1061 0.93787 0.82986 0.0
H1187 H 0.06359 0.97728 0.88187 0.0
H1188 H 0.07759 0.77362 0.85275 0.0
H1189 H 0.07218 0.72776 0.82848 0.0
H1190 H 0.02347 0.83289 0.81973 0.0
H1191 H 0.02833 0.87898 0.84403 0.0
C1192 C 0.09636 0.80314 0.91818 0.0
C1193 C 0.08361 0.76484 0.92282 0.0
C1194 C 0.0888 0.83336 0.90801 0.0
C1195 C 0.06832 0.82607 0.9023 0.0
C1196 C 0.05551 0.78774 0.90683 0.0
C1197 C 0.06305 0.75752 0.91713 0.0
C1198 C 0.06132 0.8565 0.89081 0.0
C1199 C 0.05731 0.83136 0.87701 0.0
C1200 C 0.06227 0.90995 0.89277 0.0
C1201 C 0.06503 0.93833 0.90736 0.0
C1202 C 0.05174 0.92857 0.91889 0.0
C1203 C 0.05453 0.95481 0.93265 0.0
C1204 C 0.07052 0.99106 0.93503 0.0
C1205 C 0.08375 0.00119 0.92365 0.0
C1206 C 0.08104 0.97505 0.90986 0.0
C1207 C 0.06149 0.00648 0.83933 0.0
C1208 C 0.08023 0.99198 0.83179 0.0
C1209 C 0.05455 0.97992 0.85063 0.0
C1210 C 0.06604 0.93798 0.85425 0.0
C1211 C 0.08461 0.92331 0.84662 0.0
C1212 C 0.09168 0.95012 0.83553 0.0
C1213 C 0.0599 0.91084 0.86661 0.0
C1214 C 0.06152 0.93656 0.88057 0.0
C1215 C 0.05657 0.85799 0.86482 0.0
C1216 C 0.05337 0.82986 0.85024 0.0
C1217 C 0.0656 0.78676 0.84571 0.0
C1218 C 0.06266 0.76077 0.83192 0.0
C1219 C 0.0475 0.77742 0.82257 0.0
C1220 C 0.03523 0.82008 0.82698 0.0
C1221 C 0.0381 0.8462 0.84075 0.0
H1222 H 0.04527 0.75726 0.8119 0.0
H1223 H 0.07266 0.01131 0.9457 0.0
H1224 H 0.87198 0.26549 0.67488 0.0
H1225 H 0.87105 0.18318 0.66028 0.0
H1226 H 0.87026 0.25738 0.62125 0.0
H1227 H 0.8699 0.33962 0.63583 0.0
H1228 H 0.84551 0.18248 0.61735 0.0
H1229 H 0.91658 0.20101 0.63536 0.0
H1230 H 0.94413 0.21714 0.65414 0.0
H1231 H 0.92337 0.08778 0.6741 0.0
H1232 H 0.89549 0.07128 0.65555 0.0
H1233 H 0.88231 0.97037 0.5695 0.0
H1234 H 0.88071 0.05193 0.58457 0.0
H1235 H 0.86434 0.97609 0.62169 0.0
H1236 H 0.86562 0.89446 0.60672 0.0
H1237 H 0.89765 0.05011 0.62653 0.0
H1238 H 0.82673 0.0328 0.60698 0.0
H1239 H 0.80043 0.01878 0.58731 0.0
H1240 H 0.82368 0.14878 0.56874 0.0
H1241 H 0.85034 0.16315 0.5882 0.0
C1242 C 0.87152 0.26415 0.66318 0.0
C1243 C 0.87107 0.30895 0.65649 0.0
C1244 C 0.87113 0.21707 0.65483 0.0
C1245 C 0.87107 0.21383 0.63961 0.0
C1246 C 0.87033 0.25868 0.63295 0.0
C1247 C 0.87017 0.30573 0.6413 0.0
C1248 C 0.87184 0.16388 0.6306 0.0
C1249 C 0.85713 0.15392 0.61928 0.0
C1250 C 0.88677 0.12601 0.63316 0.0
C1251 C 0.90382 0.13519 0.64414 0.0
C1252 C 0.91783 0.17614 0.6438 0.0
C1253 C 0.9335 0.18535 0.6544 0.0
C1254 C 0.93546 0.1536 0.66533 0.0
C1255 C 0.92181 0.11239 0.66564 0.0
C1256 C 0.90608 0.10306 0.65508 0.0
C1257 C 0.87833 0.97102 0.58087 0.0
C1258 C 0.87404 0.92589 0.58689 0.0
C1259 C 0.87738 0.01764 0.58944 0.0
C1260 C 0.87235 0.01994 0.60422 0.0
C1261 C 0.86825 0.97504 0.61031 0.0
C1262 C 0.86889 0.92848 0.6017 0.0
C1263 C 0.87143 0.06924 0.61336 0.0
C1264 C 0.88611 0.07893 0.62467 0.0
C1265 C 0.85676 0.10719 0.61062 0.0
C1266 C 0.84067 0.09874 0.59896 0.0
C1267 C 0.82636 0.05814 0.59863 0.0
C1268 C 0.81136 0.05018 0.58754 0.0
C1269 C 0.81042 0.08279 0.57676 0.0
C1270 C 0.82444 0.12351 0.57708 0.0
C1271 C 0.83949 0.13161 0.58815 0.0
H1272 H 0.7988 0.07656 0.56818 0.0
H1273 H 0.94757 0.16086 0.67355 0.0
H1274 H 0.94829 0.51306 0.67609 0.0
H1275 H 0.96234 0.56031 0.65684 0.0
H1276 H 0.90532 0.527 0.63197 0.0
H1277 H 0.89126 0.48071 0.6511 0.0
H1278 H 0.9444 0.51767 0.61548 0.0
H1279 H 0.90669 0.63245 0.65263 0.0
H1280 H 0.90254 0.67355 0.67762 0.0
H1281 H 0.96583 0.73229 0.67657 0.0
H1282 H 0.9704 0.69093 0.6516 0.0
H1283 H 0.89308 0.6803 0.57635 0.0
H1284 H 0.90665 0.62976 0.59454 0.0
H1285 H 0.96224 0.72422 0.59995 0.0
H1286 H 0.9487 0.77546 0.58145 0.0
H1287 H 0.94116 0.70439 0.62644 0.0
H1288 H 0.97201 0.61349 0.58545 0.0
H1289 H 0.97449 0.57415 0.56019 0.0
H1290 H 0.92475 0.47057 0.56801 0.0
H1291 H 0.92171 0.50977 0.59325 0.0
C1292 C 0.93896 0.51543 0.66639 0.0
C1293 C 0.91857 0.49426 0.66511 0.0
C1294 C 0.94698 0.54225 0.65547 0.0
C1295 C 0.93481 0.54704 0.64306 0.0
C1296 C 0.91493 0.52355 0.64148 0.0
C1297 C 0.9068 0.49771 0.65247 0.0
C1298 C 0.94143 0.58011 0.63218 0.0
C1299 C 0.94406 0.55851 0.61783 0.0
C1300 C 0.94178 0.63328 0.63542 0.0
C1301 C 0.93899 0.65808 0.65037 0.0
C1302 C 0.91977 0.65377 0.65779 0.0
C1303 C 0.91733 0.67717 0.67193 0.0
C1304 C 0.93394 0.70536 0.6787 0.0
C1305 C 0.953 0.71032 0.67133 0.0
C1306 C 0.95553 0.68691 0.65719 0.0
C1307 C 0.90818 0.69056 0.58139 0.0
C1308 C 0.91981 0.73191 0.57751 0.0
C1309 C 0.916 0.66134 0.59169 0.0
C1310 C 0.93558 0.67287 0.59837 0.0
C1311 C 0.94719 0.71458 0.59476 0.0
C1312 C 0.93944 0.74371 0.58424 0.0
C1313 C 0.94285 0.64185 0.60962 0.0
C1314 C 0.94273 0.6637 0.62406 0.0
C1315 C 0.94489 0.58885 0.60645 0.0
C1316 C 0.94666 0.56465 0.59128 0.0
C1317 C 0.96152 0.58249 0.58177 0.0
C1318 C 0.96303 0.56019 0.56745 0.0
C1319 C 0.94979 0.51987 0.5625 0.0
C1320 C 0.93503 0.50175 0.57187 0.0
C1321 C 0.93344 0.52393 0.5862 0.0
H1322 H 0.95098 0.50266 0.55141 0.0
H1323 H 0.93202 0.72348 0.68965 0.0
H1324 H 0.84329 0.42264 0.10133 0.0
H1325 H 0.84361 0.50487 0.11581 0.0
H1326 H 0.89672 0.55054 0.09106 0.0
H1327 H 0.89611 0.46864 0.07622 0.0
H1328 H 0.87161 0.54669 0.13346 0.0
H1329 H 0.89652 0.67803 0.09066 0.0
H1330 H 0.89248 0.68358 0.06446 0.0
H1331 H 0.83514 0.59661 0.06402 0.0
H1332 H 0.83869 0.5911 0.09023 0.0
H1333 H 0.90182 0.78377 0.17014 0.0
H1334 H 0.90096 0.70396 0.15431 0.0
H1335 H 0.84656 0.75627 0.13206 0.0
H1336 H 0.84786 0.83674 0.14744 0.0
H1337 H 0.87156 0.71119 0.11309 0.0
H1338 H 0.84306 0.66915 0.1581 0.0
H1339 H 0.8426 0.6637 0.18443 0.0
H1340 H 0.89876 0.57197 0.18066 0.0
H1341 H 0.89971 0.57742 0.15432 0.0
C1342 C 0.85493 0.45028 0.09885 0.0
C1343 C 0.86966 0.439 0.08758 0.0
C1344 C 0.85514 0.49729 0.1072 0.0
C1345 C 0.87013 0.53409 0.10453 0.0
C1346 C 0.88477 0.52314 0.0932 0.0
C1347 C 0.88443 0.47621 0.08473 0.0
C1348 C 0.87071 0.58321 0.1139 0.0
C1349 C 0.8716 0.58264 0.12899 0.0
C1350 C 0.8704 0.63025 0.10812 0.0
C1351 C 0.86802 0.63371 0.09238 0.0
C1352 C 0.88302 0.66023 0.08497 0.0
C1353 C 0.88082 0.66335 0.07012 0.0
C1354 C 0.86361 0.64031 0.06257 0.0
C1355 C 0.84851 0.61426 0.06987 0.0
C1356 C 0.85063 0.61107 0.08472 0.0
C1357 C 0.88964 0.7782 0.1619 0.0
C1358 C 0.87487 0.81658 0.16009 0.0
C1359 C 0.88912 0.73246 0.15287 0.0
C1360 C 0.87352 0.72369 0.14208 0.0
C1361 C 0.8588 0.76206 0.14026 0.0
C1362 C 0.85951 0.80805 0.14911 0.0
C1363 C 0.87245 0.67467 0.13266 0.0
C1364 C 0.87159 0.67524 0.11756 0.0
C1365 C 0.87215 0.62762 0.13844 0.0
C1366 C 0.87157 0.62411 0.15427 0.0
C1367 C 0.85539 0.64811 0.1629 0.0
C1368 C 0.85503 0.64498 0.17783 0.0
C1369 C 0.87067 0.61763 0.18422 0.0
C1370 C 0.88667 0.59321 0.1757 0.0
C1371 C 0.88712 0.59627 0.16077 0.0
H1372 H 0.87036 0.61525 0.19578 0.0
H1373 H 0.86194 0.64274 0.05107 0.0
H1374 H 0.89389 0.99232 0.15652 0.0
H1375 H 0.90697 0.04673 0.13891 0.0
H1376 H 0.96017 0.09045 0.16664 0.0
H1377 H 0.94742 0.03445 0.18419 0.0
H1378 H 0.92818 0.17113 0.15654 0.0
H1379 H 0.9781 0.04335 0.14059 0.0
H1380 H 0.99041 0.9561 0.13362 0.0
H1381 H 0.94691 0.94116 0.09786 0.0
H1382 H 0.93408 0.02804 0.10475 0.0
H1383 H 0.94716 0.26127 0.07998 0.0
H1384 H 0.96069 0.22131 0.10072 0.0
H1385 H 0.89664 0.19125 0.11345 0.0
H1386 H 0.88309 0.22945 0.09274 0.0
H1387 H 0.95028 0.11625 0.10593 0.0
H1388 H 0.89535 0.21879 0.15007 0.0
H1389 H 0.88066 0.30416 0.15656 0.0
H1390 H 0.93325 0.369 0.13586 0.0
H1391 H 0.94845 0.2841 0.12944 0.0
C1392 C 0.90849 0.01306 0.15876 0.0
C1393 C 0.91959 0.00984 0.17168 0.0
C1394 C 0.91602 0.04371 0.14869 0.0
C1395 C 0.93451 0.07225 0.15154 0.0
C1396 C 0.94596 0.06826 0.16428 0.0
C1397 C 0.9387 0.03643 0.17423 0.0
C1398 C 0.94017 0.10978 0.14171 0.0
C1399 C 0.93354 0.15973 0.14556 0.0
C1400 C 0.9474 0.09451 0.12752 0.0
C1401 C 0.95508 0.04225 0.12323 0.0
C1402 C 0.97104 0.02135 0.1313 0.0
C1403 C 0.97814 0.97196 0.12735 0.0
C1404 C 0.96944 0.94309 0.11531 0.0
C1405 C 0.95365 0.96359 0.10718 0.0
C1406 C 0.94649 0.01296 0.11109 0.0
C1407 C 0.93597 0.2465 0.08728 0.0
C1408 C 0.91401 0.24864 0.08473 0.0
C1409 C 0.94374 0.22376 0.09908 0.0
C1410 C 0.92961 0.20403 0.10863 0.0
C1411 C 0.90774 0.20701 0.10626 0.0
C1412 C 0.90001 0.22879 0.09438 0.0
C1413 C 0.93723 0.17682 0.12058 0.0
C1414 C 0.94599 0.12859 0.11708 0.0
C1415 C 0.93185 0.19358 0.13509 0.0
C1416 C 0.92304 0.24495 0.13925 0.0
C1417 C 0.9039 0.25126 0.14701 0.0
C1418 C 0.89544 0.29959 0.15065 0.0
C1419 C 0.906 0.34197 0.14662 0.0
C1420 C 0.92507 0.33613 0.13896 0.0
C1421 C 0.9336 0.2879 0.1353 0.0
H1422 H 0.89941 0.37935 0.14942 0.0
H1423 H 0.97495 0.90486 0.11227 0.0
H1424 H 0.60048 0.72329 0.82279 0.0
H1425 H 0.60024 0.80433 0.83809 0.0
H1426 H 0.65601 0.75953 0.86034 0.0
H1427 H 0.65596 0.67812 0.84544 0.0
H1428 H 0.62942 0.79921 0.87929 0.0
H1429 H 0.65736 0.84769 0.8349 0.0
H1430 H 0.65803 0.85486 0.80866 0.0
H1431 H 0.59992 0.93938 0.81231 0.0
H1432 H 0.59877 0.93216 0.83856 0.0
H1433 H 0.65245 0.08873 0.89411 0.0
H1434 H 0.65268 0.0095 0.87812 0.0
H1435 H 0.60042 0.9548 0.90195 0.0
H1436 H 0.60053 0.0334 0.9183 0.0
H1437 H 0.62582 0.96521 0.85986 0.0
H1438 H 0.60319 0.82789 0.90153 0.0
H1439 H 0.60689 0.82101 0.92768 0.0
H1440 H 0.66246 0.91452 0.92928 0.0
H1441 H 0.65924 0.92141 0.90311 0.0
C1442 C 0.61279 0.73089 0.83086 0.0
C1443 C 0.62822 0.69415 0.83289 0.0
C1444 C 0.61267 0.77732 0.83959 0.0
C1445 C 0.62819 0.78829 0.85034 0.0
C1446 C 0.64379 0.75194 0.85219 0.0
C1447 C 0.64378 0.70541 0.84361 0.0
C1448 C 0.62797 0.83696 0.85995 0.0
C1449 C 0.62861 0.83548 0.87501 0.0
C1450 C 0.62721 0.88443 0.85443 0.0
C1451 C 0.62787 0.88894 0.83867 0.0
C1452 C 0.64465 0.86748 0.83009 0.0
C1453 C 0.64512 0.87161 0.81522 0.0
C1454 C 0.62899 0.89744 0.80882 0.0
C1455 C 0.61238 0.91932 0.81728 0.0
C1456 C 0.61182 0.91526 0.83216 0.0
C1457 C 0.64102 0.05983 0.89599 0.0
C1458 C 0.62656 0.06736 0.90757 0.0
C1459 C 0.64112 0.01456 0.88679 0.0
C1460 C 0.62671 0.97586 0.88888 0.0
C1461 C 0.61198 0.98363 0.90027 0.0
C1462 C 0.61203 0.0287 0.9096 0.0
C1463 C 0.62726 0.92741 0.87919 0.0
C1464 C 0.62657 0.92891 0.86412 0.0
C1465 C 0.62859 0.87996 0.88468 0.0
C1466 C 0.63082 0.87559 0.90039 0.0
C1467 C 0.61623 0.84684 0.90745 0.0
C1468 C 0.61824 0.84296 0.92228 0.0
C1469 C 0.63486 0.86746 0.93015 0.0
C1470 C 0.64955 0.89572 0.92319 0.0
C1471 C 0.64763 0.89968 0.90836 0.0
H1472 H 0.63637 0.86445 0.94163 0.0
H1473 H 0.62939 0.90059 0.7973 0.0
H1474 H 0.55573 0.23609 0.91725 0.0
H1475 H 0.5447 0.29156 0.89918 0.0
H1476 H 0.60572 0.36501 0.90262 0.0
H1477 H 0.61668 0.31068 0.92063 0.0
H1478 H 0.57326 0.43292 0.90239 0.0
H1479 H 0.59542 0.27218 0.87568 0.0
H1480 H 0.59254 0.18006 0.86904 0.0
H1481 H 0.5281 0.19779 0.85561 0.0
H1482 H 0.53054 0.29002 0.86236 0.0
H1483 H 0.61606 0.5106 0.84046 0.0
H1484 H 0.60494 0.46905 0.86122 0.0
H1485 H 0.54235 0.44738 0.84291 0.0
H1486 H 0.55355 0.48936 0.82187 0.0
H1487 H 0.5615 0.35855 0.85163 0.0
H1488 H 0.54509 0.52486 0.87197 0.0
H1489 H 0.55046 0.61663 0.87777 0.0
H1490 H 0.60567 0.58914 0.90274 0.0
H1491 H 0.60086 0.49721 0.89692 0.0
C1492 C 0.56673 0.2642 0.91415 0.0
C1493 C 0.58715 0.26874 0.92023 0.0
C1494 C 0.5604 0.29581 0.90387 0.0
C1495 C 0.57441 0.33231 0.8996 0.0
C1496 C 0.59463 0.33727 0.90584 0.0
C1497 C 0.60095 0.30579 0.91603 0.0
C1498 C 0.56885 0.36419 0.88813 0.0
C1499 C 0.57049 0.41683 0.8913 0.0
C1500 C 0.56449 0.3431 0.87378 0.0
C1501 C 0.56306 0.28779 0.86971 0.0
C1502 C 0.58058 0.25634 0.87143 0.0
C1503 C 0.57904 0.20415 0.86762 0.0
C1504 C 0.56012 0.18306 0.86196 0.0
C1505 C 0.54272 0.21416 0.86004 0.0
C1506 C 0.54417 0.26638 0.86386 0.0
C1507 C 0.59998 0.497 0.84078 0.0
C1508 C 0.58578 0.50248 0.82947 0.0
C1509 C 0.59354 0.47383 0.85275 0.0
C1510 C 0.57279 0.45556 0.85361 0.0
C1511 C 0.55839 0.46157 0.84244 0.0
C1512 C 0.56479 0.48552 0.8305 0.0
C1513 C 0.56711 0.42703 0.86578 0.0
C1514 C 0.56334 0.375 0.86278 0.0
C1515 C 0.56971 0.44866 0.88027 0.0
C1516 C 0.5726 0.50402 0.88398 0.0
C1517 C 0.55845 0.53835 0.87864 0.0
C1518 C 0.56139 0.59043 0.88193 0.0
C1519 C 0.5784 0.6087 0.89061 0.0
C1520 C 0.59248 0.57492 0.89603 0.0
C1521 C 0.58963 0.5228 0.89277 0.0
H1522 H 0.58066 0.64903 0.89314 0.0
H1523 H 0.55896 0.14264 0.85901 0.0
H1524 H 0.61978 0.22472 0.31916 0.0
H1525 H 0.62022 0.30617 0.33436 0.0
H1526 H 0.62799 0.22899 0.37244 0.0
H1527 H 0.62796 0.14748 0.35733 0.0
H1528 H 0.59583 0.30831 0.3745 0.0
H1529 H 0.66927 0.27938 0.36129 0.0
H1530 H 0.69868 0.26044 0.34405 0.0
H1531 H 0.68359 0.39256 0.32342 0.0
H1532 H 0.65388 0.41188 0.34043 0.0
H1533 H 0.62145 0.5189 0.42511 0.0
H1534 H 0.62053 0.43694 0.41035 0.0
H1535 H 0.63102 0.51073 0.37187 0.0
H1536 H 0.63297 0.5924 0.38667 0.0
H1537 H 0.6537 0.4316 0.36986 0.0
H1538 H 0.58077 0.46248 0.38185 0.0
H1539 H 0.54999 0.48269 0.39782 0.0
H1540 H 0.5617 0.35001 0.41901 0.0
H1541 H 0.59273 0.32934 0.40329 0.0
C1542 C 0.62157 0.22509 0.33077 0.0
C1543 C 0.62397 0.17968 0.33703 0.0
C1544 C 0.62185 0.27161 0.33943 0.0
C1545 C 0.62422 0.27351 0.3545 0.0
C1546 C 0.62617 0.22827 0.36082 0.0
C1547 C 0.62627 0.18179 0.35216 0.0
C1548 C 0.62496 0.3228 0.36367 0.0
C1549 C 0.60858 0.33515 0.37364 0.0
C1550 C 0.64129 0.35819 0.36221 0.0
C1551 C 0.65922 0.34677 0.35203 0.0
C1552 C 0.6721 0.30414 0.353 0.0
C1553 C 0.68885 0.29339 0.34328 0.0
C1554 C 0.69296 0.3252 0.33262 0.0
C1555 C 0.68037 0.36791 0.33168 0.0
C1556 C 0.66358 0.3788 0.34135 0.0
C1557 C 0.62352 0.51763 0.4135 0.0
C1558 C 0.62726 0.56217 0.40706 0.0
C1559 C 0.62287 0.47073 0.40504 0.0
C1560 C 0.62534 0.46748 0.38991 0.0
C1561 C 0.62908 0.51203 0.38349 0.0
C1562 C 0.63016 0.55878 0.39197 0.0
C1563 C 0.62445 0.41774 0.38078 0.0
C1564 C 0.64084 0.4051 0.37078 0.0
C1565 C 0.6079 0.38244 0.38205 0.0
C1566 C 0.5892 0.39465 0.39148 0.0
C1567 C 0.57687 0.43781 0.38998 0.0
C1568 C 0.55936 0.44931 0.39898 0.0
C1569 C 0.55393 0.41773 0.40945 0.0
C1570 C 0.56595 0.37448 0.41091 0.0
C1571 C 0.58349 0.36283 0.40195 0.0
H1572 H 0.54037 0.42671 0.41641 0.0
H1573 H 0.70594 0.31681 0.32511 0.0
H1574 H 0.55619 0.74306 0.42023 0.0
H1575 H 0.54264 0.79788 0.40275 0.0
H1576 H 0.60592 0.85385 0.39704 0.0
H1577 H 0.61934 0.80087 0.41463 0.0
H1578 H 0.57838 0.92951 0.39899 0.0
H1579 H 0.58341 0.75838 0.37332 0.0
H1580 H 0.57382 0.66802 0.36932 0.0
H1581 H 0.50831 0.70774 0.3651 0.0
H1582 H 0.51753 0.79838 0.36925 0.0
H1583 H 0.61047 0.94239 0.32863 0.0
H1584 H 0.59811 0.90251 0.34938 0.0
H1585 H 0.5387 0.98226 0.34865 0.0
H1586 H 0.5512 0.02386 0.32785 0.0
H1587 H 0.54887 0.8509 0.35232 0.0
H1588 H 0.54855 0.02863 0.37362 0.0
H1589 H 0.56343 0.11478 0.37497 0.0
H1590 H 0.62448 0.058 0.38565 0.0
H1591 H 0.61 0.97142 0.38416 0.0
C1592 C 0.56717 0.76713 0.41523 0.0
C1593 C 0.58889 0.7672 0.41867 0.0
C1594 C 0.5594 0.79844 0.40529 0.0
C1595 C 0.57328 0.8299 0.39861 0.0
C1596 C 0.59489 0.83018 0.40216 0.0
C1597 C 0.6026 0.79932 0.4121 0.0
C1598 C 0.566 0.86112 0.38736 0.0
C1599 C 0.57141 0.9126 0.38891 0.0
C1600 C 0.55659 0.83934 0.37429 0.0
C1601 C 0.5511 0.78499 0.37179 0.0
C1602 C 0.56695 0.74778 0.37165 0.0
C1603 C 0.56159 0.69655 0.36934 0.0
C1604 C 0.54046 0.68214 0.36701 0.0
C1605 C 0.52466 0.71895 0.36695 0.0
C1606 C 0.52994 0.77024 0.36928 0.0
C1607 C 0.59479 0.95174 0.33284 0.0
C1608 C 0.58197 0.98701 0.32678 0.0
C1609 C 0.58769 0.92851 0.34461 0.0
C1610 C 0.56759 0.93974 0.35048 0.0
C1611 C 0.55429 0.97336 0.34419 0.0
C1612 C 0.56147 0.99705 0.33239 0.0
C1613 C 0.56189 0.91841 0.36388 0.0
C1614 C 0.55439 0.8686 0.36273 0.0
C1615 C 0.56962 0.94144 0.37727 0.0
C1616 C 0.5782 0.99363 0.37873 0.0
C1617 C 0.56516 0.03455 0.37621 0.0
C1618 C 0.57352 0.08343 0.377 0.0
C1619 C 0.5949 0.09186 0.38037 0.0
C1620 C 0.60793 0.05143 0.38304 0.0
C1621 C 0.59964 0.00248 0.38226 0.0
H1622 H 0.60136 0.1297 0.38093 0.0
H1623 H 0.53634 0.64246 0.36522 0.0
H1624 H 0.37543 0.26508 0.17951 0.0
H1625 H 0.37453 0.18204 0.16523 0.0
H1626 H 0.36835 0.25411 0.12603 0.0
H1627 H 0.36808 0.33674 0.14031 0.0
H1628 H 0.34406 0.17859 0.12368 0.0
H1629 H 0.41683 0.20035 0.13804 0.0
H1630 H 0.44658 0.21683 0.15513 0.0
H1631 H 0.42948 0.08671 0.17605 0.0
H1632 H 0.39945 0.06982 0.15919 0.0
H1633 H 0.37997 0.97242 0.07344 0.0
H1634 H 0.37877 0.05269 0.08915 0.0
H1635 H 0.3653 0.97262 0.12597 0.0
H1636 H 0.36608 0.89222 0.11033 0.0
H1637 H 0.39885 0.04909 0.13001 0.0
H1638 H 0.32639 0.02779 0.11374 0.0
H1639 H 0.29835 0.01263 0.09528 0.0
H1640 H 0.31766 0.14496 0.07617 0.0
H1641 H 0.34604 0.16049 0.0944 0.0
C1642 C 0.37384 0.26309 0.16784 0.0
C1643 C 0.37183 0.30742 0.16103 0.0
C1644 C 0.37346 0.2156 0.15967 0.0
C1645 C 0.37176 0.21158 0.14447 0.0
C1646 C 0.36964 0.25596 0.13771 0.0
C1647 C 0.36953 0.30328 0.14589 0.0
C1648 C 0.37204 0.16139 0.13556 0.0
C1649 C 0.35624 0.15067 0.12499 0.0
C1650 C 0.38767 0.12423 0.13735 0.0
C1651 C 0.40577 0.13414 0.14745 0.0
C1652 C 0.41933 0.17545 0.14635 0.0
C1653 C 0.43625 0.18484 0.15599 0.0
C1654 C 0.43988 0.15292 0.1667 0.0
C1655 C 0.42663 0.11145 0.16777 0.0
C1656 C 0.40967 0.10192 0.15816 0.0
C1657 C 0.37672 0.97185 0.08488 0.0
C1658 C 0.37303 0.92592 0.09062 0.0
C1659 C 0.37601 0.01773 0.09382 0.0
C1660 C 0.3719 0.01847 0.10869 0.0
C1661 C 0.3685 0.97275 0.11451 0.0
C1662 C 0.36885 0.92692 0.10554 0.0
C1663 C 0.37108 0.06707 0.11816 0.0
C1664 C 0.38673 0.07727 0.1288 0.0
C1665 C 0.3556 0.10413 0.11626 0.0
C1666 C 0.33847 0.095 0.10535 0.0
C1667 C 0.32478 0.0534 0.10552 0.0
C1668 C 0.3088 0.04479 0.09512 0.0
C1669 C 0.30626 0.07773 0.08454 0.0
C1670 C 0.31966 0.11944 0.08436 0.0
C1671 C 0.33568 0.12818 0.09473 0.0
H1672 H 0.29387 0.07101 0.07649 0.0
H1673 H 0.45298 0.16026 0.17416 0.0
H1674 H 0.44823 0.50929 0.17626 0.0
H1675 H 0.4617 0.55275 0.15608 0.0
H1676 H 0.40183 0.5274 0.13403 0.0
H1677 H 0.38845 0.48453 0.154 0.0
H1678 H 0.43802 0.5112 0.11567 0.0
H1679 H 0.40906 0.63472 0.15462 0.0
H1680 H 0.40951 0.67723 0.17962 0.0
H1681 H 0.47417 0.72175 0.17422 0.0
H1682 H 0.47414 0.67892 0.14921 0.0
H1683 H 0.38942 0.68185 0.07775 0.0
H1684 H 0.40281 0.62843 0.09525 0.0
H1685 H 0.4607 0.715 0.09934 0.0
H1686 H 0.44724 0.76944 0.08163 0.0
H1687 H 0.44259 0.69794 0.12595 0.0
H1688 H 0.46527 0.59955 0.08362 0.0
H1689 H 0.46355 0.55892 0.05847 0.0
H1690 H 0.41159 0.4668 0.06971 0.0
H1691 H 0.41274 0.50738 0.09487 0.0
C1692 C 0.43812 0.51257 0.16699 0.0
C1693 C 0.41716 0.4946 0.16676 0.0
C1694 C 0.44581 0.53726 0.15552 0.0
C1695 C 0.4327 0.54329 0.14364 0.0
C1696 C 0.41218 0.523 0.14312 0.0
C1697 C 0.40443 0.49915 0.15462 0.0
C1698 C 0.43915 0.57446 0.13223 0.0
C1699 C 0.43934 0.55198 0.11785 0.0
C1700 C 0.44174 0.62736 0.13519 0.0
C1701 C 0.4417 0.65312 0.15016 0.0
C1702 C 0.42342 0.65324 0.15882 0.0
C1703 C 0.42358 0.67744 0.17297 0.0
C1704 C 0.44188 0.70202 0.17852 0.0
C1705 C 0.46003 0.70257 0.16991 0.0
C1706 C 0.45995 0.67835 0.15576 0.0
C1707 C 0.40499 0.68977 0.08235 0.0
C1708 C 0.41724 0.72997 0.07836 0.0
C1709 C 0.41272 0.65882 0.09224 0.0
C1710 C 0.4329 0.66723 0.09836 0.0
C1711 C 0.44519 0.70767 0.09458 0.0
C1712 C 0.43747 0.73865 0.08452 0.0
C1713 C 0.44006 0.63489 0.10934 0.0
C1714 C 0.44241 0.65705 0.12366 0.0
C1715 C 0.43988 0.58161 0.1063 0.0
C1716 C 0.43913 0.55658 0.09118 0.0
C1717 C 0.45341 0.5708 0.08073 0.0
C1718 C 0.45253 0.54775 0.06646 0.0
C1719 C 0.43748 0.51029 0.0625 0.0
C1720 C 0.42327 0.49576 0.0728 0.0
C1721 C 0.42407 0.5187 0.08709 0.0
H1722 H 0.43683 0.49251 0.05144 0.0
H1723 H 0.44198 0.72075 0.18948 0.0
H1724 H 0.36162 0.84469 0.63798 0.0
H1725 H 0.36304 0.76422 0.62264 0.0
H1726 H 0.37398 0.6864 0.66033 0.0
H1727 H 0.3737 0.76748 0.67566 0.0
H1728 H 0.39767 0.64614 0.64021 0.0
H1729 H 0.32404 0.68717 0.64176 0.0
H1730 H 0.29219 0.73961 0.63969 0.0
H1731 H 0.30516 0.74592 0.59454 0.0
H1732 H 0.33726 0.69405 0.59639 0.0
H1733 H 0.36869 0.40251 0.6046 0.0
H1734 H 0.36735 0.48275 0.62029 0.0
H1735 H 0.37695 0.56417 0.58322 0.0
H1736 H 0.37872 0.48401 0.56745 0.0
H1737 H 0.34228 0.60031 0.60315 0.0
H1738 H 0.41676 0.55666 0.60291 0.0
H1739 H 0.44694 0.49993 0.606 0.0
H1740 H 0.4295 0.49347 0.65045 0.0
H1741 H 0.39902 0.54959 0.64755 0.0
C1742 C 0.36426 0.81042 0.64302 0.0
C1743 C 0.3674 0.81241 0.65805 0.0
C1744 C 0.36495 0.76428 0.63423 0.0
C1745 C 0.36813 0.71881 0.64031 0.0
C1746 C 0.37143 0.7208 0.65534 0.0
C1747 C 0.37122 0.76716 0.66411 0.0
C1748 C 0.36838 0.66945 0.63096 0.0
C1749 C 0.38534 0.63598 0.63228 0.0
C1750 C 0.3525 0.65602 0.62042 0.0
C1751 C 0.33316 0.6871 0.61925 0.0
C1752 C 0.32018 0.70003 0.63141 0.0
C1753 C 0.30207 0.72961 0.63028 0.0
C1754 C 0.29668 0.74619 0.617 0.0
C1755 C 0.30937 0.7331 0.60482 0.0
C1756 C 0.32751 0.70357 0.60591 0.0
C1757 C 0.37047 0.43747 0.59977 0.0
C1758 C 0.37382 0.43688 0.58477 0.0
C1759 C 0.36976 0.48323 0.60876 0.0
C1760 C 0.37211 0.52926 0.6029 0.0
C1761 C 0.37511 0.52896 0.58793 0.0
C1762 C 0.37619 0.48316 0.57895 0.0
C1763 C 0.37151 0.57774 0.61245 0.0
C1764 C 0.35449 0.6108 0.61115 0.0
C1765 C 0.38707 0.59031 0.62319 0.0
C1766 C 0.40548 0.55689 0.62497 0.0
C1767 C 0.41925 0.54277 0.61331 0.0
C1768 C 0.43643 0.51081 0.61503 0.0
C1769 C 0.4401 0.49299 0.6284 0.0
C1770 C 0.42663 0.50724 0.64009 0.0
C1771 C 0.4094 0.53916 0.63842 0.0
H1772 H 0.45341 0.46825 0.62972 0.0
H1773 H 0.28265 0.76909 0.61614 0.0
H1774 H 0.41666 0.17423 0.55893 0.0
H1775 H 0.42273 0.12137 0.57847 0.0
H1776 H 0.42729 0.2553 0.60914 0.0
H1777 H 0.42217 0.30831 0.58937 0.0
H1778 H 0.4523 0.17958 0.61733 0.0
H1779 H 0.37895 0.19954 0.60293 0.0
H1780 H 0.34898 0.19577 0.58576 0.0
H1781 H 0.36076 0.03781 0.57364 0.0
H1782 H 0.39065 0.04054 0.59087 0.0
H1783 H 0.37498 0.05854 0.66833 0.0
H1784 H 0.38391 0.10648 0.64839 0.0
H1785 H 0.44331 0.02636 0.64245 0.0
H1786 H 0.43453 0.97826 0.66275 0.0
H1787 H 0.38924 0.07043 0.62108 0.0
H1788 H 0.47875 0.10932 0.62742 0.0
H1789 H 0.50592 0.11995 0.64663 0.0
H1790 H 0.45834 0.17213 0.67784 0.0
H1791 H 0.43097 0.16244 0.65879 0.0
C1792 C 0.41972 0.19219 0.56978 0.0
C1793 C 0.41902 0.2449 0.5728 0.0
C1794 C 0.4231 0.16213 0.58091 0.0
C1795 C 0.42502 0.18445 0.59527 0.0
C1796 C 0.42586 0.23739 0.59812 0.0
C1797 C 0.42292 0.26758 0.58689 0.0
C1798 C 0.42297 0.15299 0.60735 0.0
C1799 C 0.43862 0.15538 0.61813 0.0
C1800 C 0.40496 0.12202 0.60847 0.0
C1801 C 0.38713 0.12037 0.59805 0.0
C1802 C 0.3752 0.1641 0.59653 0.0
C1803 C 0.35823 0.16214 0.58681 0.0
C1804 C 0.35309 0.11671 0.57852 0.0
C1805 C 0.3648 0.07302 0.58003 0.0
C1806 C 0.3817 0.07469 0.58981 0.0
C1807 C 0.38996 0.05097 0.66281 0.0
C1808 C 0.40396 0.01422 0.66698 0.0
C1809 C 0.39506 0.07853 0.65143 0.0
C1810 C 0.41423 0.0699 0.64394 0.0
C1811 C 0.4285 0.03384 0.64819 0.0
C1812 C 0.42343 0.0063 0.65972 0.0
C1813 C 0.41842 0.09728 0.63124 0.0
C1814 C 0.40314 0.09393 0.62023 0.0
C1815 C 0.43648 0.12817 0.63018 0.0
C1816 C 0.45279 0.1345 0.64171 0.0
C1817 C 0.47411 0.12314 0.63838 0.0
C1818 C 0.48954 0.12901 0.64924 0.0
C1819 C 0.48385 0.1465 0.66346 0.0
C1820 C 0.46272 0.15835 0.66684 0.0
C1821 C 0.44723 0.15259 0.65602 0.0
H1822 H 0.49581 0.15101 0.67185 0.0
H1823 H 0.33997 0.11531 0.57099 0.0
loop_
_geom_bond_atom_site_label_1
_geom_bond_atom_site_label_2
_geom_bond_distance
_geom_bond_site_symmetry_2
_ccdc_geom_bond_type
Mg0 O1 2.028 . S
Mg0 O7 1.986 . S
Mg0 O9 2.114 . S
Mg0 O10 2.251 . S
Mg0 O13 2.010 . S
O1 Mg0 2.028 . S
O1 C4 1.250 . S
O2 Mg3 2.028 . S
O2 C4 1.248 . S
Mg3 O2 2.028 . S
Mg3 O8 2.032 . S
Mg3 O10 2.079 . S
C4 O1 1.250 . S
C4 O2 1.248 . S
C5 O6 1.264 . S
C5 O13 1.249 . S
O6 C5 1.264 . S
O7 Mg0 1.986 . S
O7 C11 1.246 . S
O8 Mg3 2.032 . S
O8 C11 1.259 . S
O9 Mg0 2.114 . S
O9 C12 1.252 . S
O10 Mg0 2.251 . S
O10 Mg3 2.079 . S
O10 C12 1.273 . S
C11 O7 1.246 . S
C11 O8 1.259 . S
C12 O9 1.252 . S
C12 O10 1.273 . S
O13 Mg0 2.010 . S
O13 C5 1.249 . S
Mg14 O15 2.028 . S
Mg14 O21 1.986 . S
Mg14 O23 2.114 . S
Mg14 O24 2.251 . S
Mg14 O27 2.010 . S
O15 Mg14 2.028 . S
O15 C18 1.250 . S
O16 Mg17 2.028 . S
O16 C18 1.248 . S
Mg17 O16 2.028 . S
Mg17 O22 2.032 . S
Mg17 O24 2.079 . S
C18 O15 1.250 . S
C18 O16 1.248 . S
C19 O20 1.264 . S
C19 O27 1.249 . S
O20 C19 1.264 . S
O21 Mg14 1.986 . S
O21 C25 1.246 . S
O22 Mg17 2.032 . S
O22 C25 1.259 . S
O23 Mg14 2.114 . S
O23 C26 1.252 . S
O24 Mg14 2.251 . S
O24 Mg17 2.079 . S
O24 C26 1.273 . S
C25 O21 1.246 . S
C25 O22 1.259 . S
C26 O23 1.252 . S
C26 O24 1.273 . S
O27 Mg14 2.010 . S
O27 C19 1.249 . S
Mg28 O29 2.028 . S
Mg28 O35 1.986 . S
Mg28 O37 2.114 . S
Mg28 O38 2.251 . S
Mg28 O41 2.010 . S
O29 Mg28 2.028 . S
O29 C32 1.250 . S
O30 Mg31 2.028 . S
O30 C32 1.248 . S
Mg31 O30 2.028 . S
Mg31 O36 2.032 . S
Mg31 O38 2.079 . S
C32 O29 1.250 . S
C32 O30 1.248 . S
C33 O34 1.264 . S
C33 O41 1.249 . S
O34 C33 1.264 . S
O35 Mg28 1.986 . S
O35 C39 1.246 . S
O36 Mg31 2.032 . S
O36 C39 1.259 . S
O37 Mg28 2.114 . S
O37 C40 1.252 . S
O38 Mg28 2.251 . S
O38 Mg31 2.079 . S
O38 C40 1.273 . S
C39 O35 1.246 . S
C39 O36 1.259 . S
C40 O37 1.252 . S
C40 O38 1.273 . S
O41 Mg28 2.010 . S
O41 C33 1.249 . S
Mg42 O43 2.028 . S
Mg42 O49 1.986 . S
Mg42 O51 2.114 . S
Mg42 O52 2.251 . S
Mg42 O55 2.010 . S
O43 Mg42 2.028 . S
O43 C46 1.250 . S
O44 Mg45 2.028 . S
O44 C46 1.248 . S
Mg45 O44 2.028 . S
Mg45 O50 2.032 . S
Mg45 O52 2.079 . S
C46 O43 1.250 . S
C46 O44 1.248 . S
C47 O48 1.264 . S
C47 O55 1.249 . S
O48 C47 1.264 . S
O49 Mg42 1.986 . S
O49 C53 1.246 . S
O50 Mg45 2.032 . S
O50 C53 1.259 . S
O51 Mg42 2.114 . S
O51 C54 1.252 . S
O52 Mg42 2.251 . S
O52 Mg45 2.079 . S
O52 C54 1.273 . S
C53 O49 1.246 . S
C53 O50 1.259 . S
C54 O51 1.252 . S
C54 O52 1.273 . S
O55 Mg42 2.010 . S
O55 C47 1.249 . S
Mg56 O57 2.028 . S
Mg56 O63 1.986 . S
Mg56 O65 2.114 . S
Mg56 O66 2.251 . S
Mg56 O69 2.010 . S
O57 Mg56 2.028 . S
O57 C60 1.250 . S
O58 Mg59 2.028 . S
O58 C60 1.248 . S
Mg59 O58 2.028 . S
Mg59 O64 2.032 . S
Mg59 O66 2.079 . S
C60 O57 1.250 . S
C60 O58 1.248 . S
C61 O62 1.264 . S
C61 O69 1.249 . S
O62 C61 1.264 . S
O63 Mg56 1.986 . S
O63 C67 1.246 . S
O64 Mg59 2.032 . S
O64 C67 1.259 . S
O65 Mg56 2.114 . S
O65 C68 1.252 . S
O66 Mg56 2.251 . S
O66 Mg59 2.079 . S
O66 C68 1.273 . S
C67 O63 1.246 . S
C67 O64 1.259 . S
C68 O65 1.252 . S
C68 O66 1.273 . S
O69 Mg56 2.010 . S
O69 C61 1.249 . S
Mg70 O71 2.028 . S
Mg70 O77 1.986 . S
Mg70 O79 2.114 . S
Mg70 O80 2.251 . S
Mg70 O83 2.010 . S
O71 Mg70 2.028 . S
O71 C74 1.250 . S
O72 Mg73 2.028 . S
O72 C74 1.248 . S
Mg73 O72 2.028 . S
Mg73 O78 2.032 . S
Mg73 O80 2.079 . S
C74 O71 1.250 . S
C74 O72 1.248 . S
C75 O76 1.264 . S
C75 O83 1.249 . S
O76 C75 1.264 . S
O77 Mg70 1.986 . S
O77 C81 1.246 . S
O78 Mg73 2.032 . S
O78 C81 1.259 . S
O79 Mg70 2.114 . S
O79 C82 1.252 . S
O80 Mg70 2.251 . S
O80 Mg73 2.079 . S
O80 C82 1.273 . S
C81 O77 1.246 . S
C81 O78 1.259 . S
C82 O79 1.252 . S
C82 O80 1.273 . S
O83 Mg70 2.010 . S
O83 C75 1.249 . S
Mg84 O85 2.028 . S
Mg84 O91 1.986 . S
Mg84 O93 2.114 . S
Mg84 O94 2.251 . S
Mg84 O97 2.010 . S
O85 Mg84 2.028 . S
O85 C88 1.250 . S
O86 Mg87 2.028 . S
O86 C88 1.248 . S
Mg87 O86 2.028 . S
Mg87 O92 2.032 . S
Mg87 O94 2.079 . S
C88 O85 1.250 . S
C88 O86 1.248 . S
C89 O90 1.264 . S
C89 O97 1.249 . S
O90 C89 1.264 . S
O91 Mg84 1.986 . S
O91 C95 1.246 . S
O92 Mg87 2.032 . S
O92 C95 1.259 . S
O93 Mg84 2.114 . S
O93 C96 1.252 . S
O94 Mg84 2.251 . S
O94 Mg87 2.079 . S
O94 C96 1.273 . S
C95 O91 1.246 . S
C95 O92 1.259 . S
C96 O93 1.252 . S
C96 O94 1.273 . S
O97 Mg84 2.010 . S
O97 C89 1.249 . S
Mg98 O99 2.028 . S
Mg98 O105 1.986 . S
Mg98 O107 2.114 . S
Mg98 O108 2.251 . S
Mg98 O111 2.010 . S
O99 Mg98 2.028 . S
O99 C102 1.250 . S
O100 Mg101 2.028 . S
O100 C102 1.248 . S
Mg101 O100 2.028 . S
Mg101 O106 2.032 . S
Mg101 O108 2.079 . S
C102 O99 1.250 . S
C102 O100 1.248 . S
C103 O104 1.264 . S
C103 O111 1.249 . S
O104 C103 1.264 . S
O105 Mg98 1.986 . S
O105 C109 1.246 . S
O106 Mg101 2.032 . S
O106 C109 1.259 . S
O107 Mg98 2.114 . S
O107 C110 1.252 . S
O108 Mg98 2.251 . S
O108 Mg101 2.079 . S
O108 C110 1.273 . S
C109 O105 1.246 . S
C109 O106 1.259 . S
C110 O107 1.252 . S
C110 O108 1.273 . S
O111 Mg98 2.010 . S
O111 C103 1.249 . S
Mg112 O113 2.028 . S
Mg112 O119 1.986 . S
Mg112 O121 2.114 . S
Mg112 O122 2.251 . S
Mg112 O125 2.010 . S
O113 Mg112 2.028 . S
O113 C116 1.250 . S
O114 Mg115 2.028 . S
O114 C116 1.248 . S
Mg115 O114 2.028 . S
Mg115 O120 2.032 . S
Mg115 O122 2.079 . S
C116 O113 1.250 . S
C116 O114 1.248 . S
C117 O118 1.264 . S
C117 O125 1.249 . S
O118 C117 1.264 . S
O119 Mg112 1.986 . S
O119 C123 1.246 . S
O120 Mg115 2.032 . S
O120 C123 1.259 . S
O121 Mg112 2.114 . S
O121 C124 1.252 . S
O122 Mg112 2.251 . S
O122 Mg115 2.079 . S
O122 C124 1.273 . S
C123 O119 1.246 . S
C123 O120 1.259 . S
C124 O121 1.252 . S
C124 O122 1.273 . S
O125 Mg112 2.010 . S
O125 C117 1.249 . S
Mg126 O127 2.028 . S
Mg126 O133 1.986 . S
Mg126 O135 2.114 . S
Mg126 O136 2.251 . S
Mg126 O139 2.010 . S
O127 Mg126 2.028 . S
O127 C130 1.250 . S
O128 Mg129 2.028 . S
O128 C130 1.248 . S
Mg129 O128 2.028 . S
Mg129 O134 2.032 . S
Mg129 O136 2.079 . S
C130 O127 1.250 . S
C130 O128 1.248 . S
C131 O132 1.264 . S
C131 O139 1.249 . S
O132 C131 1.264 . S
O133 Mg126 1.986 . S
O133 C137 1.246 . S
O134 Mg129 2.032 . S
O134 C137 1.259 . S
O135 Mg126 2.114 . S
O135 C138 1.252 . S
O136 Mg126 2.251 . S
O136 Mg129 2.079 . S
O136 C138 1.273 . S
C137 O133 1.246 . S
C137 O134 1.259 . S
C138 O135 1.252 . S
C138 O136 1.273 . S
O139 Mg126 2.010 . S
O139 C131 1.249 . S
Mg140 O141 2.028 . S
Mg140 O147 1.986 . S
Mg140 O149 2.114 . S
Mg140 O150 2.251 . S
Mg140 O153 2.010 . S
O141 Mg140 2.028 . S
O141 C144 1.250 . S
O142 Mg143 2.028 . S
O142 C144 1.248 . S
Mg143 O142 2.028 . S
Mg143 O148 2.032 . S
Mg143 O150 2.079 . S
C144 O141 1.250 . S
C144 O142 1.248 . S
C145 O146 1.264 . S
C145 O153 1.249 . S
O146 C145 1.264 . S
O147 Mg140 1.986 . S
O147 C151 1.246 . S
O148 Mg143 2.032 . S
O148 C151 1.259 . S
O149 Mg140 2.114 . S
O149 C152 1.252 . S
O150 Mg140 2.251 . S
O150 Mg143 2.079 . S
O150 C152 1.273 . S
C151 O147 1.246 . S
C151 O148 1.259 . S
C152 O149 1.252 . S
C152 O150 1.273 . S
O153 Mg140 2.010 . S
O153 C145 1.249 . S
Mg154 O155 2.028 . S
Mg154 O161 1.986 . S
Mg154 O163 2.114 . S
Mg154 O164 2.251 . S
Mg154 O167 2.010 . S
O155 Mg154 2.028 . S
O155 C158 1.250 . S
O156 Mg157 2.028 . S
O156 C158 1.248 . S
Mg157 O156 2.028 . S
Mg157 O162 2.032 . S
Mg157 O164 2.079 . S
C158 O155 1.250 . S
C158 O156 1.248 . S
C159 O160 1.264 . S
C159 O167 1.249 . S
O160 C159 1.264 . S
O161 Mg154 1.986 . S
O161 C165 1.246 . S
O162 Mg157 2.032 . S
O162 C165 1.259 . S
O163 Mg154 2.114 . S
O163 C166 1.252 . S
O164 Mg154 2.251 . S
O164 Mg157 2.079 . S
O164 C166 1.273 . S
C165 O161 1.246 . S
C165 O162 1.259 . S
C166 O163 1.252 . S
C166 O164 1.273 . S
O167 Mg154 2.010 . S
O167 C159 1.249 . S
Mg168 O169 2.028 . S
Mg168 O175 1.986 . S
Mg168 O177 2.114 . S
Mg168 O178 2.251 . S
Mg168 O181 2.010 . S
O169 Mg168 2.028 . S
O169 C172 1.250 . S
O170 Mg171 2.028 . S
O170 C172 1.248 . S
Mg171 O170 2.028 . S
Mg171 O176 2.032 . S
Mg171 O178 2.079 . S
C172 O169 1.250 . S
C172 O170 1.248 . S
C173 O174 1.264 . S
C173 O181 1.249 . S
O174 C173 1.264 . S
O175 Mg168 1.986 . S
O175 C179 1.246 . S
O176 Mg171 2.032 . S
O176 C179 1.259 . S
O177 Mg168 2.114 . S
O177 C180 1.252 . S
O178 Mg168 2.251 . S
O178 Mg171 2.079 . S
O178 C180 1.273 . S
C179 O175 1.246 . S
C179 O176 1.259 . S
C180 O177 1.252 . S
C180 O178 1.273 . S
O181 Mg168 2.010 . S
O181 C173 1.249 . S
Mg182 O183 2.028 . S
Mg182 O189 1.986 . S
Mg182 O191 2.114 . S
Mg182 O192 2.251 . S
Mg182 O195 2.010 . S
O183 Mg182 2.028 . S
O183 C186 1.250 . S
O184 Mg185 2.028 . S
O184 C186 1.248 . S
Mg185 O184 2.028 . S
Mg185 O190 2.032 . S
Mg185 O192 2.079 . S
C186 O183 1.250 . S
C186 O184 1.248 . S
C187 O188 1.264 . S
C187 O195 1.249 . S
O188 C187 1.264 . S
O189 Mg182 1.986 . S
O189 C193 1.246 . S
O190 Mg185 2.032 . S
O190 C193 1.259 . S
O191 Mg182 2.114 . S
O191 C194 1.252 . S
O192 Mg182 2.251 . S
O192 Mg185 2.079 . S
O192 C194 1.273 . S
C193 O189 1.246 . S
C193 O190 1.259 . S
C194 O191 1.252 . S
C194 O192 1.273 . S
O195 Mg182 2.010 . S
O195 C187 1.249 . S
Mg196 O197 2.028 . S
Mg196 O203 1.986 . S
Mg196 O205 2.114 . S
Mg196 O206 2.251 . S
Mg196 O209 2.010 . S
O197 Mg196 2.028 . S
O197 C200 1.250 . S
O198 Mg199 2.028 . S
O198 C200 1.248 . S
Mg199 O198 2.028 . S
Mg199 O204 2.032 . S
Mg199 O206 2.079 . S
C200 O197 1.250 . S
C200 O198 1.248 . S
C201 O202 1.264 . S
C201 O209 1.249 . S
O202 C201 1.264 . S
O203 Mg196 1.986 . S
O203 C207 1.246 . S
O204 Mg199 2.032 . S
O204 C207 1.259 . S
O205 Mg196 2.114 . S
O205 C208 1.252 . S
O206 Mg196 2.251 . S
O206 Mg199 2.079 . S
O206 C208 1.273 . S
C207 O203 1.246 . S
C207 O204 1.259 . S
C208 O205 1.252 . S
C208 O206 1.273 . S
O209 Mg196 2.010 . S
O209 C201 1.249 . S
Mg210 O211 2.028 . S
Mg210 O217 1.986 . S
Mg210 O219 2.114 . S
Mg210 O220 2.251 . S
Mg210 O223 2.010 . S
O211 Mg210 2.028 . S
O211 C214 1.250 . S
O212 Mg213 2.028 . S
O212 C214 1.248 . S
Mg213 O212 2.028 . S
Mg213 O218 2.032 . S
Mg213 O220 2.079 . S
C214 O211 1.250 . S
C214 O212 1.248 . S
C215 O216 1.264 . S
C215 O223 1.249 . S
O216 C215 1.264 . S
O217 Mg210 1.986 . S
O217 C221 1.246 . S
O218 Mg213 2.032 . S
O218 C221 1.259 . S
O219 Mg210 2.114 . S
O219 C222 1.252 . S
O220 Mg210 2.251 . S
O220 Mg213 2.079 . S
O220 C222 1.273 . S
C221 O217 1.246 . S
C221 O218 1.259 . S
C222 O219 1.252 . S
C222 O220 1.273 . S
O223 Mg210 2.010 . S
O223 C215 1.249 . S
H224 C242 0.951 . S
H225 C244 0.951 . S
H226 C246 0.950 . S
H227 C247 0.950 . S
H228 C249 0.950 . S
H229 C252 0.950 . S
H230 C253 0.950 . S
H231 C255 0.950 . S
H232 C256 0.950 . S
H233 C257 0.951 . S
H234 C259 0.951 . S
H235 C261 0.950 . S
H236 C262 0.950 . S
H237 C264 0.950 . S
H238 C267 0.950 . S
H239 C268 0.950 . S
H240 C270 0.950 . S
H241 C271 0.950 . S
C242 H224 0.951 . S
C242 C243 1.366 . S
C242 C244 1.388 . S
C243 C242 1.366 . S
C243 C247 1.385 . S
C244 H225 0.951 . S
C244 C242 1.388 . S
C244 C245 1.366 . S
C245 C244 1.366 . S
C245 C246 1.414 . S
C245 C248 1.499 . S
C246 H226 0.950 . S
C246 C245 1.414 . S
C246 C247 1.374 . S
C247 H227 0.950 . S
C247 C243 1.385 . S
C247 C246 1.374 . S
C248 C245 1.499 . S
C248 C249 1.373 . S
C248 C250 1.389 . S
C249 H228 0.950 . S
C249 C248 1.373 . S
C249 C265 1.377 . S
C250 C248 1.389 . S
C250 C251 1.524 . S
C250 C264 1.377 . S
C251 C250 1.524 . S
C251 C252 1.397 . S
C251 C256 1.363 . S
C252 H229 0.950 . S
C252 C251 1.397 . S
C252 C253 1.334 . S
C253 H230 0.950 . S
C253 C252 1.334 . S
C253 C254 1.287 . S
C254 C253 1.287 . S
C254 C255 1.524 . S
C254 H273 0.913 . S
C255 H231 0.950 . S
C255 C254 1.524 . S
C255 C256 1.415 . S
C256 H232 0.950 . S
C256 C251 1.363 . S
C256 C255 1.415 . S
C257 H233 0.951 . S
C257 C258 1.366 . S
C257 C259 1.388 . S
C258 C257 1.366 . S
C258 C262 1.385 . S
C259 H234 0.951 . S
C259 C257 1.388 . S
C259 C260 1.366 . S
C260 C259 1.366 . S
C260 C261 1.414 . S
C260 C263 1.499 . S
C261 H235 0.950 . S
C261 C260 1.414 . S
C261 C262 1.374 . S
C262 H236 0.950 . S
C262 C258 1.385 . S
C262 C261 1.374 . S
C263 C260 1.499 . S
C263 C264 1.373 . S
C263 C265 1.389 . S
C264 H237 0.950 . S
C264 C250 1.377 . S
C264 C263 1.373 . S
C265 C249 1.377 . S
C265 C263 1.389 . S
C265 C266 1.524 . S
C266 C265 1.524 . S
C266 C267 1.397 . S
C266 C271 1.363 . S
C267 H238 0.950 . S
C267 C266 1.397 . S
C267 C268 1.334 . S
C268 H239 0.950 . S
C268 C267 1.334 . S
C268 C269 1.287 . S
C269 C268 1.287 . S
C269 C270 1.524 . S
C269 H272 0.999 . S
C270 H240 0.950 . S
C270 C269 1.524 . S
C270 C271 1.415 . S
C271 H241 0.950 . S
C271 C266 1.363 . S
C271 C270 1.415 . S
H272 C269 0.999 . S
H273 C254 0.913 . S
H274 C292 0.951 . S
H275 C294 0.951 1_545 S
H276 C296 0.950 . S
H277 C297 0.950 . S
H278 C299 0.950 . S
H279 C302 0.950 . S
H280 C303 0.950 . S
H281 C305 0.950 . S
H282 C306 0.950 . S
H283 C307 0.951 . S
H284 C309 0.951 1_565 S
H285 C311 0.950 . S
H286 C312 0.950 . S
H287 C314 0.950 . S
H288 C317 0.950 . S
H289 C318 0.950 . S
H290 C320 0.950 . S
H291 C321 0.950 . S
C292 H274 0.951 . S
C292 C293 1.366 . S
C292 C294 1.388 . S
C293 C292 1.366 . S
C293 C297 1.385 . S
C294 H275 0.951 1_565 S
C294 C292 1.388 . S
C294 C295 1.366 . S
C295 C294 1.366 . S
C295 C296 1.414 . S
C295 C298 1.499 . S
C296 H276 0.950 . S
C296 C295 1.414 . S
C296 C297 1.374 . S
C297 H277 0.950 . S
C297 C293 1.385 . S
C297 C296 1.374 . S
C298 C295 1.499 . S
C298 C299 1.373 1_655 S
C298 C300 1.389 1_565 S
C299 H278 0.950 . S
C299 C298 1.373 1_455 S
C299 C315 1.377 . S
C300 C298 1.389 1_545 S
C300 C301 1.524 . S
C300 C314 1.377 . S
C301 C300 1.524 . S
C301 C302 1.397 1_545 S
C301 C306 1.363 . S
C302 H279 0.950 . S
C302 C301 1.397 1_565 S
C302 C303 1.334 . S
C303 H280 0.950 . S
C303 C302 1.334 . S
C303 C304 1.299 . S
C304 C303 1.299 . S
C304 C305 1.511 1_565 S
C304 H323 0.913 . S
C305 H281 0.950 . S
C305 C304 1.511 1_545 S
C305 C306 1.415 . S
C306 H282 0.950 . S
C306 C301 1.363 . S
C306 C305 1.415 . S
C307 H283 0.951 . S
C307 C308 1.366 . S
C307 C309 1.388 . S
C308 C307 1.366 . S
C308 C312 1.385 . S
C309 H284 0.951 1_545 S
C309 C307 1.388 . S
C309 C310 1.366 . S
C310 C309 1.366 . S
C310 C311 1.414 . S
C310 C313 1.499 . S
C311 H285 0.950 . S
C311 C310 1.414 . S
C311 C312 1.374 . S
C312 H286 0.950 . S
C312 C308 1.385 . S
C312 C311 1.374 . S
C313 C310 1.499 . S
C313 C314 1.373 1_455 S
C313 C315 1.389 1_545 S
C314 H287 0.950 . S
C314 C300 1.377 . S
C314 C313 1.373 1_655 S
C315 C299 1.377 . S
C315 C313 1.389 1_565 S
C315 C316 1.524 . S
C316 C315 1.524 . S
C316 C317 1.397 1_565 S
C316 C321 1.363 . S
C317 H288 0.950 . S
C317 C316 1.397 1_545 S
C317 C318 1.334 . S
C318 H289 0.950 . S
C318 C317 1.334 . S
C318 C319 1.299 . S
C319 C318 1.299 . S
C319 C320 1.511 1_545 S
C319 H322 0.998 1_545 S
C320 H290 0.950 . S
C320 C319 1.511 1_565 S
C320 C321 1.415 . S
C321 H291 0.950 . S
C321 C316 1.363 . S
C321 C320 1.415 . S
H322 C319 0.998 1_565 S
H323 C304 0.913 . S
H324 C342 0.951 . S
H325 C344 0.951 1_545 S
H326 C346 0.950 . S
H327 C347 0.950 . S
H328 C349 0.950 . S
H329 C352 0.950 . S
H330 C353 0.950 . S
H331 C355 0.950 . S
H332 C356 0.950 . S
H333 C357 0.951 . S
H334 C359 0.951 1_565 S
H335 C361 0.950 . S
H336 C362 0.950 . S
H337 C364 0.950 . S
H338 C367 0.950 . S
H339 C368 0.950 . S
H340 C370 0.950 . S
H341 C371 0.950 . S
C342 H324 0.951 . S
C342 C343 1.366 . S
C342 C344 1.388 . S
C343 C342 1.366 . S
C343 C347 1.385 . S
C344 H325 0.951 1_565 S
C344 C342 1.388 . S
C344 C345 1.366 . S
C345 C344 1.366 . S
C345 C346 1.414 . S
C345 C348 1.499 . S
C346 H326 0.950 . S
C346 C345 1.414 . S
C346 C347 1.374 . S
C347 H327 0.950 . S
C347 C343 1.385 . S
C347 C346 1.374 . S
C348 C345 1.499 . S
C348 C349 1.373 . S
C348 C350 1.389 . S
C349 H328 0.950 . S
C349 C348 1.373 . S
C349 C365 1.377 1_565 S
C350 C348 1.389 . S
C350 C351 1.524 . S
C350 C364 1.377 1_565 S
C351 C350 1.524 . S
C351 C352 1.397 . S
C351 C356 1.363 1_565 S
C352 H329 0.950 . S
C352 C351 1.397 . S
C352 C353 1.334 . S
C353 H330 0.950 . S
C353 C352 1.334 . S
C353 C354 1.287 . S
C354 C353 1.287 . S
C354 C355 1.524 1_565 S
C354 H373 0.913 . S
C355 H331 0.950 . S
C355 C354 1.524 1_545 S
C355 C356 1.415 . S
C356 H332 0.950 . S
C356 C351 1.363 1_545 S
C356 C355 1.415 . S
C357 H333 0.951 . S
C357 C358 1.366 . S
C357 C359 1.388 . S
C358 C357 1.366 . S
C358 C362 1.385 . S
C359 H334 0.951 1_545 S
C359 C357 1.388 . S
C359 C360 1.366 . S
C360 C359 1.366 . S
C360 C361 1.414 . S
C360 C363 1.499 . S
C361 H335 0.950 . S
C361 C360 1.414 . S
C361 C362 1.374 . S
C362 H336 0.950 . S
C362 C358 1.385 . S
C362 C361 1.374 . S
C363 C360 1.499 . S
C363 C364 1.373 . S
C363 C365 1.389 . S
C364 H337 0.950 . S
C364 C350 1.377 1_545 S
C364 C363 1.373 . S
C365 C349 1.377 1_545 S
C365 C363 1.389 . S
C365 C366 1.524 . S
C366 C365 1.524 . S
C366 C367 1.397 . S
C366 C371 1.363 1_545 S
C367 H338 0.950 . S
C367 C366 1.397 . S
C367 C368 1.334 . S
C368 H339 0.950 . S
C368 C367 1.334 . S
C368 C369 1.287 . S
C369 C368 1.287 . S
C369 C370 1.524 1_545 S
C369 H372 0.999 . S
C370 H340 0.950 . S
C370 C369 1.524 1_565 S
C370 C371 1.415 . S
C371 H341 0.950 . S
C371 C366 1.363 1_565 S
C371 C370 1.415 . S
H372 C369 0.999 . S
H373 C354 0.913 . S
H374 C392 0.951 . S
H375 C394 0.951 . S
H376 C396 0.950 . S
H377 C397 0.950 . S
H378 C399 0.950 . S
H379 C402 0.950 . S
H380 C403 0.950 . S
H381 C405 0.950 . S
H382 C406 0.950 . S
H383 C407 0.951 . S
H384 C409 0.951 . S
H385 C411 0.950 . S
H386 C412 0.950 . S
H387 C414 0.950 . S
H388 C417 0.950 . S
H389 C418 0.950 . S
H390 C420 0.950 . S
H391 C421 0.950 . S
C392 H374 0.951 . S
C392 C393 1.366 . S
C392 C394 1.388 . S
C393 C392 1.366 . S
C393 C397 1.385 . S
C394 H375 0.951 . S
C394 C392 1.388 . S
C394 C395 1.366 . S
C395 C394 1.366 . S
C395 C396 1.414 . S
C395 C398 1.499 . S
C396 H376 0.950 . S
C396 C395 1.414 . S
C396 C397 1.374 . S
C397 H377 0.950 . S
C397 C393 1.385 . S
C397 C396 1.374 . S
C398 C395 1.499 . S
C398 C399 1.373 1_455 S
C398 C400 1.389 . S
C399 H378 0.950 . S
C399 C398 1.373 1_655 S
C399 C415 1.377 . S
C400 C398 1.389 . S
C400 C401 1.524 . S
C400 C414 1.377 . S
C401 C400 1.524 . S
C401 C402 1.397 . S
C401 C406 1.363 . S
C402 H379 0.950 . S
C402 C401 1.397 . S
C402 C403 1.334 . S
C403 H380 0.950 . S
C403 C402 1.334 . S
C403 C404 1.287 . S
C404 C403 1.287 . S
C404 C405 1.524 . S
C404 H423 0.913 . S
C405 H381 0.950 . S
C405 C404 1.524 . S
C405 C406 1.415 . S
C406 H382 0.950 . S
C406 C401 1.363 . S
C406 C405 1.415 . S
C407 H383 0.951 . S
C407 C408 1.366 . S
C407 C409 1.388 . S
C408 C407 1.366 . S
C408 C412 1.385 . S
C409 H384 0.951 . S
C409 C407 1.388 . S
C409 C410 1.366 . S
C410 C409 1.366 . S
C410 C411 1.414 . S
C410 C413 1.499 . S
C411 H385 0.950 . S
C411 C410 1.414 . S
C411 C412 1.374 . S
C412 H386 0.950 . S
C412 C408 1.385 . S
C412 C411 1.374 . S
C413 C410 1.499 . S
C413 C414 1.373 1_655 S
C413 C415 1.389 . S
C414 H387 0.950 . S
C414 C400 1.377 . S
C414 C413 1.373 1_455 S
C415 C399 1.377 . S
C415 C413 1.389 . S
C415 C416 1.524 . S
C416 C415 1.524 . S
C416 C417 1.397 . S
C416 C421 1.363 . S
C417 H388 0.950 . S
C417 C416 1.397 . S
C417 C418 1.334 . S
C418 H389 0.950 . S
C418 C417 1.334 . S
C418 C419 1.287 . S
C419 C418 1.287 . S
C419 C420 1.524 . S
C419 H422 0.999 . S
C420 H390 0.950 . S
C420 C419 1.524 . S
C420 C421 1.415 . S
C421 H391 0.950 . S
C421 C416 1.363 . S
C421 C420 1.415 . S
H422 C419 0.999 . S
H423 C404 0.913 . S
H424 C442 0.951 . S
H425 C444 0.951 . S
H426 C446 0.950 . S
H427 C447 0.950 . S
H428 C449 0.950 . S
H429 C452 0.950 . S
H430 C453 0.950 . S
H431 C455 0.950 . S
H432 C456 0.950 . S
H433 C457 0.951 . S
H434 C459 0.951 . S
H435 C461 0.950 . S
H436 C462 0.950 . S
H437 C464 0.950 . S
H438 C467 0.950 . S
H439 C468 0.950 . S
H440 C470 0.950 . S
H441 C471 0.950 . S
C442 H424 0.951 . S
C442 C443 1.366 . S
C442 C444 1.388 . S
C443 C442 1.366 . S
C443 C447 1.385 . S
C444 H425 0.951 . S
C444 C442 1.388 . S
C444 C445 1.366 . S
C445 C444 1.366 . S
C445 C446 1.414 . S
C445 C448 1.499 . S
C446 H426 0.950 . S
C446 C445 1.414 . S
C446 C447 1.374 . S
C447 H427 0.950 . S
C447 C443 1.385 . S
C447 C446 1.374 . S
C448 C445 1.499 . S
C448 C449 1.373 . S
C448 C450 1.389 . S
C449 H428 0.950 . S
C449 C448 1.373 . S
C449 C465 1.377 . S
C450 C448 1.389 . S
C450 C451 1.524 . S
C450 C464 1.377 . S
C451 C450 1.524 . S
C451 C452 1.397 . S
C451 C456 1.363 . S
C452 H429 0.950 . S
C452 C451 1.397 . S
C452 C453 1.334 . S
C453 H430 0.950 . S
C453 C452 1.334 . S
C453 C454 1.287 . S
C454 C453 1.287 . S
C454 C455 1.524 . S
C454 H473 0.913 . S
C455 H431 0.950 . S
C455 C454 1.524 . S
C455 C456 1.415 . S
C456 H432 0.950 . S
C456 C451 1.363 . S
C456 C455 1.415 . S
C457 H433 0.951 . S
C457 C458 1.366 . S
C457 C459 1.388 . S
C458 C457 1.366 . S
C458 C462 1.385 . S
C459 H434 0.951 . S
C459 C457 1.388 . S
C459 C460 1.366 . S
C460 C459 1.366 . S
C460 C461 1.414 . S
C460 C463 1.499 . S
C461 H435 0.950 . S
C461 C460 1.414 . S
C461 C462 1.374 . S
C462 H436 0.950 . S
C462 C458 1.385 . S
C462 C461 1.374 . S
C463 C460 1.499 . S
C463 C464 1.373 . S
C463 C465 1.389 . S
C464 H437 0.950 . S
C464 C450 1.377 . S
C464 C463 1.373 . S
C465 C449 1.377 . S
C465 C463 1.389 . S
C465 C466 1.524 . S
C466 C465 1.524 . S
C466 C467 1.397 . S
C466 C471 1.363 . S
C467 H438 0.950 . S
C467 C466 1.397 . S
C467 C468 1.334 . S
C468 H439 0.950 . S
C468 C467 1.334 . S
C468 C469 1.287 . S
C469 C468 1.287 . S
C469 C470 1.524 . S
C469 H472 0.999 . S
C470 H440 0.950 . S
C470 C469 1.524 . S
C470 C471 1.415 . S
C471 H441 0.950 . S
C471 C466 1.363 . S
C471 C470 1.415 . S
H472 C469 0.999 . S
H473 C454 0.913 . S
H474 C492 0.951 . S
H475 C494 0.951 . S
H476 C496 0.950 1_565 S
H477 C497 0.950 . S
H478 C499 0.950 . S
H479 C502 0.950 . S
H480 C503 0.950 . S
H481 C505 0.950 . S
H482 C506 0.950 . S
H483 C507 0.951 . S
H484 C509 0.951 . S
H485 C511 0.950 1_545 S
H486 C512 0.950 . S
H487 C514 0.950 . S
H488 C517 0.950 . S
H489 C518 0.950 . S
H490 C520 0.950 . S
H491 C521 0.950 . S
C492 H474 0.951 . S
C492 C493 1.366 . S
C492 C494 1.388 . S
C493 C492 1.366 . S
C493 C497 1.385 . S
C494 H475 0.951 . S
C494 C492 1.388 . S
C494 C495 1.366 . S
C495 C494 1.366 . S
C495 C496 1.414 . S
C495 C498 1.499 . S
C496 H476 0.950 1_545 S
C496 C495 1.414 . S
C496 C497 1.374 . S
C497 H477 0.950 . S
C497 C493 1.385 . S
C497 C496 1.374 . S
C498 C495 1.499 . S
C498 C499 1.373 . S
C498 C500 1.389 . S
C499 H478 0.950 . S
C499 C498 1.373 . S
C499 C515 1.377 1_545 S
C500 C498 1.389 . S
C500 C501 1.524 . S
C500 C514 1.377 1_545 S
C501 C500 1.524 . S
C501 C502 1.397 1_545 S
C501 C506 1.363 . S
C502 H479 0.950 . S
C502 C501 1.397 1_565 S
C502 C503 1.334 . S
C503 H480 0.950 . S
C503 C502 1.334 . S
C503 C504 1.287 1_565 S
C504 C503 1.287 1_545 S
C504 C505 1.524 . S
C504 H523 0.913 . S
C505 H481 0.950 . S
C505 C504 1.524 . S
C505 C506 1.415 . S
C506 H482 0.950 . S
C506 C501 1.363 . S
C506 C505 1.415 . S
C507 H483 0.951 . S
C507 C508 1.366 . S
C507 C509 1.388 . S
C508 C507 1.366 . S
C508 C512 1.385 . S
C509 H484 0.951 . S
C509 C507 1.388 . S
C509 C510 1.366 . S
C510 C509 1.366 . S
C510 C511 1.414 . S
C510 C513 1.499 . S
C511 H485 0.950 1_565 S
C511 C510 1.414 . S
C511 C512 1.374 . S
C512 H486 0.950 . S
C512 C508 1.385 . S
C512 C511 1.374 . S
C513 C510 1.499 . S
C513 C514 1.373 . S
C513 C515 1.389 . S
C514 H487 0.950 . S
C514 C500 1.377 1_565 S
C514 C513 1.373 . S
C515 C499 1.377 1_565 S
C515 C513 1.389 . S
C515 C516 1.524 . S
C516 C515 1.524 . S
C516 C517 1.397 1_565 S
C516 C521 1.363 . S
C517 H488 0.950 . S
C517 C516 1.397 1_545 S
C517 C518 1.334 . S
C518 H489 0.950 . S
C518 C517 1.334 . S
C518 C519 1.287 1_545 S
C519 C518 1.287 1_565 S
C519 C520 1.524 . S
C519 H522 0.999 . S
C520 H490 0.950 . S
C520 C519 1.524 . S
C520 C521 1.415 . S
C521 H491 0.950 . S
C521 C516 1.363 . S
C521 C520 1.415 . S
H522 C519 0.999 . S
H523 C504 0.913 . S
H524 C542 0.951 . S
H525 C544 0.951 . S
H526 C546 0.950 . S
H527 C547 0.950 . S
H528 C549 0.950 . S
H529 C552 0.950 . S
H530 C553 0.950 . S
H531 C555 0.950 . S
H532 C556 0.950 . S
H533 C557 0.951 . S
H534 C559 0.951 . S
H535 C561 0.950 . S
H536 C562 0.950 . S
H537 C564 0.950 . S
H538 C567 0.950 . S
H539 C568 0.950 . S
H540 C570 0.950 . S
H541 C571 0.950 . S
C542 H524 0.951 . S
C542 C543 1.366 . S
C542 C544 1.388 . S
C543 C542 1.366 . S
C543 C547 1.385 . S
C544 H525 0.951 . S
C544 C542 1.388 . S
C544 C545 1.366 . S
C545 C544 1.366 . S
C545 C546 1.414 . S
C545 C548 1.499 . S
C546 H526 0.950 . S
C546 C545 1.414 . S
C546 C547 1.374 . S
C547 H527 0.950 . S
C547 C543 1.385 . S
C547 C546 1.374 . S
C548 C545 1.499 . S
C548 C549 1.373 . S
C548 C550 1.389 1_655 S
C549 H528 0.950 . S
C549 C548 1.373 . S
C549 C565 1.377 . S
C550 C548 1.389 1_455 S
C550 C551 1.524 . S
C550 C564 1.377 . S
C551 C550 1.524 . S
C551 C552 1.397 . S
C551 C556 1.363 . S
C552 H529 0.950 . S
C552 C551 1.397 . S
C552 C553 1.334 . S
C553 H530 0.950 . S
C553 C552 1.334 . S
C553 C554 1.287 . S
C554 C553 1.287 . S
C554 C555 1.524 . S
C554 H573 0.913 . S
C555 H531 0.950 . S
C555 C554 1.524 . S
C555 C556 1.415 . S
C556 H532 0.950 . S
C556 C551 1.363 . S
C556 C555 1.415 . S
C557 H533 0.951 . S
C557 C558 1.366 . S
C557 C559 1.388 . S
C558 C557 1.366 . S
C558 C562 1.385 . S
C559 H534 0.951 . S
C559 C557 1.388 . S
C559 C560 1.366 . S
C560 C559 1.366 . S
C560 C561 1.414 . S
C560 C563 1.499 . S
C561 H535 0.950 . S
C561 C560 1.414 . S
C561 C562 1.374 . S
C562 H536 0.950 . S
C562 C558 1.385 . S
C562 C561 1.374 . S
C563 C560 1.499 . S
C563 C564 1.373 . S
C563 C565 1.389 1_455 S
C564 H537 0.950 . S
C564 C550 1.377 . S
C564 C563 1.373 . S
C565 C549 1.377 . S
C565 C563 1.389 1_655 S
C565 C566 1.524 . S
C566 C565 1.524 . S
C566 C567 1.397 . S
C566 C571 1.363 . S
C567 H538 0.950 . S
C567 C566 1.397 . S
C567 C568 1.334 . S
C568 H539 0.950 . S
C568 C567 1.334 . S
C568 C569 1.287 . S
C569 C568 1.287 . S
C569 C570 1.524 . S
C569 H572 0.999 . S
C570 H540 0.950 . S
C570 C569 1.524 . S
C570 C571 1.415 . S
C571 H541 0.950 . S
C571 C566 1.363 . S
C571 C570 1.415 . S
H572 C569 0.999 . S
H573 C554 0.913 . S
H574 C592 0.951 . S
H575 C594 0.944 . S
H576 C596 0.950 . S
H577 C597 0.950 . S
H578 C599 0.950 . S
H579 C602 0.950 1_554 S
H580 C603 0.950 . S
H581 C605 0.950 . S
H582 C606 0.950 . S
H583 C607 0.951 . S
H584 C609 0.944 . S
H585 C611 0.950 . S
H586 C612 0.950 . S
H587 C614 0.950 . S
H588 C617 0.950 1_556 S
H589 C618 0.950 . S
H590 C620 0.950 . S
H591 C621 0.950 . S
C592 H574 0.951 . S
C592 C593 1.366 . S
C592 C594 1.388 . S
C593 C592 1.366 . S
C593 C597 1.385 . S
C594 H575 0.944 . S
C594 C592 1.388 . S
C594 C595 1.366 . S
C595 C594 1.366 . S
C595 C596 1.414 . S
C595 C598 1.499 . S
C596 H576 0.950 . S
C596 C595 1.414 . S
C596 C597 1.374 . S
C597 H577 0.950 . S
C597 C593 1.385 . S
C597 C596 1.374 . S
C598 C595 1.499 . S
C598 C599 1.373 . S
C598 C600 1.389 1_554 S
C599 H578 0.950 . S
C599 C598 1.373 . S
C599 C615 1.377 . S
C600 C598 1.389 1_556 S
C600 C601 1.524 . S
C600 C614 1.377 . S
C601 C600 1.524 . S
C601 C602 1.397 . S
C601 C606 1.363 . S
C602 H579 0.950 1_556 S
C602 C601 1.397 . S
C602 C603 1.334 . S
C603 H580 0.950 . S
C603 C602 1.334 . S
C603 C604 1.287 . S
C604 C603 1.287 . S
C604 C605 1.524 . S
C604 H623 0.913 . S
C605 H581 0.950 . S
C605 C604 1.524 . S
C605 C606 1.415 . S
C606 H582 0.950 . S
C606 C601 1.363 . S
C606 C605 1.415 . S
C607 H583 0.951 . S
C607 C608 1.366 . S
C607 C609 1.388 . S
C608 C607 1.366 . S
C608 C612 1.385 . S
C609 H584 0.944 . S
C609 C607 1.388 . S
C609 C610 1.366 . S
C610 C609 1.366 . S
C610 C611 1.414 . S
C610 C613 1.499 . S
C611 H585 0.950 . S
C611 C610 1.414 . S
C611 C612 1.374 . S
C612 H586 0.950 . S
C612 C608 1.385 . S
C612 C611 1.374 . S
C613 C610 1.499 . S
C613 C614 1.373 . S
C613 C615 1.389 1_556 S
C614 H587 0.950 . S
C614 C600 1.377 . S
C614 C613 1.373 . S
C615 C599 1.377 . S
C615 C613 1.389 1_554 S
C615 C616 1.524 . S
C616 C615 1.524 . S
C616 C617 1.397 . S
C616 C621 1.363 . S
C617 H588 0.950 1_554 S
C617 C616 1.397 . S
C617 C618 1.334 . S
C618 H589 0.950 . S
C618 C617 1.334 . S
C618 C619 1.287 . S
C619 C618 1.287 . S
C619 C620 1.524 . S
C619 H622 0.999 . S
C620 H590 0.950 . S
C620 C619 1.524 . S
C620 C621 1.415 . S
C621 H591 0.950 . S
C621 C616 1.363 . S
C621 C620 1.415 . S
H622 C619 0.999 . S
H623 C604 0.913 . S
H624 C642 0.951 . S
H625 C644 0.951 . S
H626 C646 0.950 . S
H627 C647 0.950 . S
H628 C649 0.950 . S
H629 C652 0.950 . S
H630 C653 0.950 . S
H631 C655 0.950 . S
H632 C656 0.950 1_556 S
H633 C657 0.951 . S
H634 C659 0.951 . S
H635 C661 0.950 . S
H636 C662 0.950 . S
H637 C664 0.950 . S
H638 C667 0.950 . S
H639 C668 0.950 . S
H640 C670 0.950 . S
H641 C671 0.950 1_554 S
C642 H624 0.951 . S
C642 C643 1.366 . S
C642 C644 1.388 . S
C643 C642 1.366 . S
C643 C647 1.385 . S
C644 H625 0.951 . S
C644 C642 1.388 . S
C644 C645 1.366 . S
C645 C644 1.366 . S
C645 C646 1.414 . S
C645 C648 1.499 . S
C646 H626 0.950 . S
C646 C645 1.414 . S
C646 C647 1.374 . S
C647 H627 0.950 . S
C647 C643 1.385 . S
C647 C646 1.374 . S
C648 C645 1.499 . S
C648 C649 1.373 . S
C648 C650 1.395 1_556 S
C649 H628 0.950 . S
C649 C648 1.373 . S
C649 C665 1.377 1_455 S
C650 C648 1.395 1_554 S
C650 C651 1.533 . S
C650 C664 1.377 1_455 S
C651 C650 1.533 . S
C651 C652 1.397 . S
C651 C656 1.363 1_455 S
C652 H629 0.950 . S
C652 C651 1.397 . S
C652 C653 1.334 . S
C653 H630 0.950 . S
C653 C652 1.334 . S
C653 C654 1.287 . S
C654 C653 1.287 . S
C654 C655 1.524 1_455 S
C654 H673 0.913 . S
C655 H631 0.950 . S
C655 C654 1.524 1_655 S
C655 C656 1.415 . S
C656 H632 0.950 1_554 S
C656 C651 1.363 1_655 S
C656 C655 1.415 . S
C657 H633 0.951 . S
C657 C658 1.366 . S
C657 C659 1.388 . S
C658 C657 1.366 . S
C658 C662 1.385 . S
C659 H634 0.951 . S
C659 C657 1.388 . S
C659 C660 1.366 . S
C660 C659 1.366 . S
C660 C661 1.414 . S
C660 C663 1.499 . S
C661 H635 0.950 . S
C661 C660 1.414 . S
C661 C662 1.374 . S
C662 H636 0.950 . S
C662 C658 1.385 . S
C662 C661 1.374 . S
C663 C660 1.499 . S
C663 C664 1.373 . S
C663 C665 1.395 1_554 S
C664 H637 0.950 . S
C664 C650 1.377 1_655 S
C664 C663 1.373 . S
C665 C649 1.377 1_655 S
C665 C663 1.395 1_556 S
C665 C666 1.533 . S
C666 C665 1.533 . S
C666 C667 1.397 . S
C666 C671 1.363 1_655 S
C667 H638 0.950 . S
C667 C666 1.397 . S
C667 C668 1.334 . S
C668 H639 0.950 . S
C668 C667 1.334 . S
C668 C669 1.287 . S
C669 C668 1.287 . S
C669 C670 1.524 1_655 S
C669 H672 0.999 . S
C670 H640 0.950 . S
C670 C669 1.524 1_455 S
C670 C671 1.415 . S
C671 H641 0.950 1_556 S
C671 C666 1.363 1_455 S
C671 C670 1.415 . S
H672 C669 0.999 . S
H673 C654 0.913 . S
H674 C692 0.951 . S
H675 C694 0.951 . S
H676 C696 0.950 . S
H677 C697 0.950 . S
H678 C699 0.950 . S
H679 C702 0.950 . S
H680 C703 0.950 . S
H681 C705 0.950 . S
H682 C706 0.950 . S
H683 C707 0.951 . S
H684 C709 0.951 . S
H685 C711 0.950 . S
H686 C712 0.950 . S
H687 C714 0.950 . S
H688 C717 0.950 . S
H689 C718 0.950 . S
H690 C720 0.950 . S
H691 C721 0.950 . S
C692 H674 0.951 . S
C692 C693 1.366 . S
C692 C694 1.388 . S
C693 C692 1.366 . S
C693 C697 1.385 . S
C694 H675 0.951 . S
C694 C692 1.388 . S
C694 C695 1.366 . S
C695 C694 1.366 . S
C695 C696 1.414 . S
C695 C698 1.499 . S
C696 H676 0.950 . S
C696 C695 1.414 . S
C696 C697 1.374 . S
C697 H677 0.950 . S
C697 C693 1.385 . S
C697 C696 1.374 . S
C698 C695 1.499 . S
C698 C699 1.373 . S
C698 C700 1.389 . S
C699 H678 0.950 . S
C699 C698 1.373 . S
C699 C715 1.377 . S
C700 C698 1.389 . S
C700 C701 1.524 . S
C700 C714 1.377 . S
C701 C700 1.524 . S
C701 C702 1.397 . S
C701 C706 1.363 . S
C702 H679 0.950 . S
C702 C701 1.397 . S
C702 C703 1.334 . S
C703 H680 0.950 . S
C703 C702 1.334 . S
C703 C704 1.287 . S
C704 C703 1.287 . S
C704 C705 1.524 . S
C704 H723 0.913 . S
C705 H681 0.950 . S
C705 C704 1.524 . S
C705 C706 1.415 . S
C706 H682 0.950 . S
C706 C701 1.363 . S
C706 C705 1.415 . S
C707 H683 0.951 . S
C707 C708 1.366 . S
C707 C709 1.388 . S
C708 C707 1.366 . S
C708 C712 1.385 . S
C709 H684 0.951 . S
C709 C707 1.388 . S
C709 C710 1.366 . S
C710 C709 1.366 . S
C710 C711 1.414 . S
C710 C713 1.499 . S
C711 H685 0.950 . S
C711 C710 1.414 . S
C711 C712 1.374 . S
C712 H686 0.950 . S
C712 C708 1.385 . S
C712 C711 1.374 . S
C713 C710 1.499 . S
C713 C714 1.373 . S
C713 C715 1.389 . S
C714 H687 0.950 . S
C714 C700 1.377 . S
C714 C713 1.373 . S
C715 C699 1.377 . S
C715 C713 1.389 . S
C715 C716 1.524 . S
C716 C715 1.524 . S
C716 C717 1.397 . S
C716 C721 1.363 . S
C717 H688 0.950 . S
C717 C716 1.397 . S
C717 C718 1.334 . S
C718 H689 0.950 . S
C718 C717 1.334 . S
C718 C719 1.287 . S
C719 C718 1.287 . S
C719 C720 1.524 . S
C719 H722 0.999 . S
C720 H690 0.950 . S
C720 C719 1.524 . S
C720 C721 1.415 . S
C721 H691 0.950 . S
C721 C716 1.363 . S
C721 C720 1.415 . S
H722 C719 0.999 . S
H723 C704 0.913 . S
H724 C742 0.951 . S
H725 C744 0.951 . S
H726 C746 0.950 . S
H727 C747 0.950 . S
H728 C749 0.950 . S
H729 C752 0.950 . S
H730 C753 0.950 . S
H731 C755 0.950 . S
H732 C756 0.950 . S
H733 C757 0.951 . S
H734 C759 0.951 . S
H735 C761 0.950 . S
H736 C762 0.950 . S
H737 C764 0.950 . S
H738 C767 0.950 . S
H739 C768 0.950 . S
H740 C770 0.950 . S
H741 C771 0.950 . S
C742 H724 0.951 . S
C742 C743 1.366 . S
C742 C744 1.388 . S
C743 C742 1.366 . S
C743 C747 1.385 . S
C744 H725 0.951 . S
C744 C742 1.388 . S
C744 C745 1.366 . S
C745 C744 1.366 . S
C745 C746 1.414 . S
C745 C748 1.499 . S
C746 H726 0.950 . S
C746 C745 1.414 . S
C746 C747 1.374 . S
C747 H727 0.950 . S
C747 C743 1.385 . S
C747 C746 1.374 . S
C748 C745 1.499 . S
C748 C749 1.373 . S
C748 C750 1.389 1_556 S
C749 H728 0.950 . S
C749 C748 1.373 . S
C749 C765 1.377 . S
C750 C748 1.389 1_554 S
C750 C751 1.524 . S
C750 C764 1.377 . S
C751 C750 1.524 . S
C751 C752 1.397 . S
C751 C756 1.363 . S
C752 H729 0.950 . S
C752 C751 1.397 . S
C752 C753 1.334 . S
C753 H730 0.950 . S
C753 C752 1.334 . S
C753 C754 1.287 . S
C754 C753 1.287 . S
C754 C755 1.524 . S
C754 H773 0.913 . S
C755 H731 0.950 . S
C755 C754 1.524 . S
C755 C756 1.415 . S
C756 H732 0.950 . S
C756 C751 1.363 . S
C756 C755 1.415 . S
C757 H733 0.951 . S
C757 C758 1.366 . S
C757 C759 1.388 . S
C758 C757 1.366 . S
C758 C762 1.385 . S
C759 H734 0.951 . S
C759 C757 1.388 . S
C759 C760 1.366 . S
C760 C759 1.366 . S
C760 C761 1.414 . S
C760 C763 1.499 . S
C761 H735 0.950 . S
C761 C760 1.414 . S
C761 C762 1.374 . S
C762 H736 0.950 . S
C762 C758 1.385 . S
C762 C761 1.374 . S
C763 C760 1.499 . S
C763 C764 1.373 . S
C763 C765 1.389 1_554 S
C764 H737 0.950 . S
C764 C750 1.377 . S
C764 C763 1.373 . S
C765 C749 1.377 . S
C765 C763 1.389 1_556 S
C765 C766 1.524 . S
C766 C765 1.524 . S
C766 C767 1.397 . S
C766 C771 1.363 . S
C767 H738 0.950 . S
C767 C766 1.397 . S
C767 C768 1.334 . S
C768 H739 0.950 . S
C768 C767 1.334 . S
C768 C769 1.287 . S
C769 C768 1.287 . S
C769 C770 1.524 . S
C769 H772 0.999 . S
C770 H740 0.950 . S
C770 C769 1.524 . S
C770 C771 1.415 . S
C771 H741 0.950 . S
C771 C766 1.363 . S
C771 C770 1.415 . S
H772 C769 0.999 . S
H773 C754 0.913 . S
H774 C792 0.951 . S
H775 C794 0.951 . S
H776 C796 0.950 . S
H777 C797 0.950 . S
H778 C799 0.950 . S
H779 C802 0.950 . S
H780 C803 0.950 . S
H781 C805 0.950 . S
H782 C806 0.950 . S
H783 C807 0.951 . S
H784 C809 0.951 . S
H785 C811 0.950 . S
H786 C812 0.950 . S
H787 C814 0.950 . S
H788 C817 0.950 . S
H789 C818 0.950 . S
H790 C820 0.950 . S
H791 C821 0.950 . S
C792 H774 0.951 . S
C792 C793 1.366 . S
C792 C794 1.388 . S
C793 C792 1.366 . S
C793 C797 1.385 . S
C794 H775 0.951 . S
C794 C792 1.388 . S
C794 C795 1.366 . S
C795 C794 1.366 . S
C795 C796 1.414 . S
C795 C798 1.499 . S
C796 H776 0.950 . S
C796 C795 1.414 . S
C796 C797 1.374 . S
C797 H777 0.950 . S
C797 C793 1.385 . S
C797 C796 1.374 . S
C798 C795 1.499 . S
C798 C799 1.373 . S
C798 C800 1.389 . S
C799 H778 0.950 . S
C799 C798 1.373 . S
C799 C815 1.377 . S
C800 C798 1.389 . S
C800 C801 1.524 . S
C800 C814 1.377 . S
C801 C800 1.524 . S
C801 C802 1.397 . S
C801 C806 1.363 . S
C802 H779 0.950 . S
C802 C801 1.397 . S
C802 C803 1.334 . S
C803 H780 0.950 . S
C803 C802 1.334 . S
C803 C804 1.287 . S
C804 C803 1.287 . S
C804 C805 1.524 . S
C804 H823 0.913 . S
C805 H781 0.950 . S
C805 C804 1.524 . S
C805 C806 1.415 . S
C806 H782 0.950 . S
C806 C801 1.363 . S
C806 C805 1.415 . S
C807 H783 0.951 . S
C807 C808 1.366 . S
C807 C809 1.388 . S
C808 C807 1.366 . S
C808 C812 1.385 . S
C809 H784 0.951 . S
C809 C807 1.388 . S
C809 C810 1.366 . S
C810 C809 1.366 . S
C810 C811 1.414 . S
C810 C813 1.499 . S
C811 H785 0.950 . S
C811 C810 1.414 . S
C811 C812 1.374 . S
C812 H786 0.950 . S
C812 C808 1.385 . S
C812 C811 1.374 . S
C813 C810 1.499 . S
C813 C814 1.373 . S
C813 C815 1.389 . S
C814 H787 0.950 . S
C814 C800 1.377 . S
C814 C813 1.373 . S
C815 C799 1.377 . S
C815 C813 1.389 . S
C815 C816 1.524 . S
C816 C815 1.524 . S
C816 C817 1.397 . S
C816 C821 1.363 . S
C817 H788 0.950 . S
C817 C816 1.397 . S
C817 C818 1.334 . S
C818 H789 0.950 . S
C818 C817 1.334 . S
C818 C819 1.287 . S
C819 C818 1.287 . S
C819 C820 1.524 . S
C819 H822 0.999 . S
C820 H790 0.950 . S
C820 C819 1.524 . S
C820 C821 1.415 . S
C821 H791 0.950 . S
C821 C816 1.363 . S
C821 C820 1.415 . S
H822 C819 0.999 . S
H823 C804 0.913 . S
H824 C842 0.951 . S
H825 C844 0.951 . S
H826 C846 0.950 . S
H827 C847 0.950 . S
H828 C849 0.950 . S
H829 C852 0.950 . S
H830 C853 0.950 . S
H831 C855 0.950 . S
H832 C856 0.950 . S
H833 C857 0.951 . S
H834 C859 0.951 . S
H835 C861 0.950 . S
H836 C862 0.950 . S
H837 C864 0.950 . S
H838 C867 0.950 . S
H839 C868 0.950 . S
H840 C870 0.950 . S
H841 C871 0.950 . S
C842 H824 0.951 . S
C842 C843 1.366 . S
C842 C844 1.388 . S
C843 C842 1.366 . S
C843 C847 1.385 . S
C844 H825 0.951 . S
C844 C842 1.388 . S
C844 C845 1.366 . S
C845 C844 1.366 . S
C845 C846 1.414 . S
C845 C848 1.499 . S
C846 H826 0.950 . S
C846 C845 1.414 . S
C846 C847 1.374 . S
C847 H827 0.950 . S
C847 C843 1.385 . S
C847 C846 1.374 . S
C848 C845 1.499 . S
C848 C849 1.373 . S
C848 C850 1.389 1_545 S
C849 H828 0.950 . S
C849 C848 1.373 . S
C849 C865 1.377 1_556 S
C850 C848 1.389 1_565 S
C850 C851 1.524 . S
C850 C864 1.377 1_556 S
C851 C850 1.524 . S
C851 C852 1.397 . S
C851 C856 1.363 1_556 S
C852 H829 0.950 . S
C852 C851 1.397 . S
C852 C853 1.334 . S
C853 H830 0.950 . S
C853 C852 1.334 . S
C853 C854 1.287 . S
C854 C853 1.287 . S
C854 C855 1.524 1_556 S
C854 H873 0.913 . S
C855 H831 0.950 . S
C855 C854 1.524 1_554 S
C855 C856 1.415 . S
C856 H832 0.950 . S
C856 C851 1.363 1_554 S
C856 C855 1.415 . S
C857 H833 0.951 . S
C857 C858 1.366 . S
C857 C859 1.388 . S
C858 C857 1.366 . S
C858 C862 1.385 . S
C859 H834 0.951 . S
C859 C857 1.388 . S
C859 C860 1.366 . S
C860 C859 1.366 . S
C860 C861 1.414 . S
C860 C863 1.499 . S
C861 H835 0.950 . S
C861 C860 1.414 . S
C861 C862 1.374 . S
C862 H836 0.950 . S
C862 C858 1.385 . S
C862 C861 1.374 . S
C863 C860 1.499 . S
C863 C864 1.373 . S
C863 C865 1.389 1_565 S
C864 H837 0.950 . S
C864 C850 1.377 1_554 S
C864 C863 1.373 . S
C865 C849 1.377 1_554 S
C865 C863 1.389 1_545 S
C865 C866 1.524 . S
C866 C865 1.524 . S
C866 C867 1.397 . S
C866 C871 1.363 1_554 S
C867 H838 0.950 . S
C867 C866 1.397 . S
C867 C868 1.334 . S
C868 H839 0.950 . S
C868 C867 1.334 . S
C868 C869 1.287 . S
C869 C868 1.287 . S
C869 C870 1.524 1_554 S
C869 H872 0.999 . S
C870 H840 0.950 . S
C870 C869 1.524 1_556 S
C870 C871 1.415 . S
C871 H841 0.950 . S
C871 C866 1.363 1_556 S
C871 C870 1.415 . S
H872 C869 0.999 . S
H873 C854 0.913 . S
H874 C892 0.951 . S
H875 C894 0.951 . S
H876 C896 0.950 . S
H877 C897 0.950 . S
H878 C899 0.950 . S
H879 C902 0.950 . S
H880 C903 0.950 . S
H881 C905 0.950 . S
H882 C906 0.950 . S
H883 C907 0.951 . S
H884 C909 0.951 . S
H885 C911 0.950 . S
H886 C912 0.950 . S
H887 C914 0.950 . S
H888 C917 0.950 . S
H889 C918 0.950 . S
H890 C920 0.950 . S
H891 C921 0.950 . S
C892 H874 0.951 . S
C892 C893 1.366 . S
C892 C894 1.388 . S
C893 C892 1.366 . S
C893 C897 1.385 . S
C894 H875 0.951 . S
C894 C892 1.388 . S
C894 C895 1.366 . S
C895 C894 1.366 . S
C895 C896 1.414 . S
C895 C898 1.499 . S
C896 H876 0.950 . S
C896 C895 1.414 . S
C896 C897 1.374 . S
C897 H877 0.950 . S
C897 C893 1.385 . S
C897 C896 1.374 . S
C898 C895 1.499 . S
C898 C899 1.373 . S
C898 C900 1.389 . S
C899 H878 0.950 . S
C899 C898 1.373 . S
C899 C915 1.377 . S
C900 C898 1.389 . S
C900 C901 1.524 . S
C900 C914 1.377 . S
C901 C900 1.524 . S
C901 C902 1.397 . S
C901 C906 1.363 . S
C902 H879 0.950 . S
C902 C901 1.397 . S
C902 C903 1.334 . S
C903 H880 0.950 . S
C903 C902 1.334 . S
C903 C904 1.287 . S
C904 C903 1.287 . S
C904 C905 1.524 . S
C904 H923 0.913 . S
C905 H881 0.950 . S
C905 C904 1.524 . S
C905 C906 1.415 . S
C906 H882 0.950 . S
C906 C901 1.363 . S
C906 C905 1.415 . S
C907 H883 0.951 . S
C907 C908 1.366 . S
C907 C909 1.388 . S
C908 C907 1.366 . S
C908 C912 1.385 . S
C909 H884 0.951 . S
C909 C907 1.388 . S
C909 C910 1.366 . S
C910 C909 1.366 . S
C910 C911 1.414 . S
C910 C913 1.499 . S
C911 H885 0.950 . S
C911 C910 1.414 . S
C911 C912 1.374 . S
C912 H886 0.950 . S
C912 C908 1.385 . S
C912 C911 1.374 . S
C913 C910 1.499 . S
C913 C914 1.373 . S
C913 C915 1.389 . S
C914 H887 0.950 . S
C914 C900 1.377 . S
C914 C913 1.373 . S
C915 C899 1.377 . S
C915 C913 1.389 . S
C915 C916 1.524 . S
C916 C915 1.524 . S
C916 C917 1.397 . S
C916 C921 1.363 . S
C917 H888 0.950 . S
C917 C916 1.397 . S
C917 C918 1.334 . S
C918 H889 0.950 . S
C918 C917 1.334 . S
C918 C919 1.287 . S
C919 C918 1.287 . S
C919 C920 1.524 . S
C919 H922 0.999 . S
C920 H890 0.950 . S
C920 C919 1.524 . S
C920 C921 1.415 . S
C921 H891 0.950 . S
C921 C916 1.363 . S
C921 C920 1.415 . S
H922 C919 0.999 . S
H923 C904 0.913 . S
H924 C942 0.951 . S
H925 C944 0.951 . S
H926 C946 0.950 . S
H927 C947 0.950 . S
H928 C949 0.950 . S
H929 C952 0.950 . S
H930 C953 0.950 . S
H931 C955 0.950 . S
H932 C956 0.950 . S
H933 C957 0.951 . S
H934 C959 0.951 . S
H935 C961 0.950 . S
H936 C962 0.950 . S
H937 C964 0.950 . S
H938 C967 0.950 . S
H939 C968 0.950 . S
H940 C970 0.950 . S
H941 C971 0.950 . S
C942 H924 0.951 . S
C942 C943 1.366 . S
C942 C944 1.388 . S
C943 C942 1.366 . S
C943 C947 1.385 . S
C944 H925 0.951 . S
C944 C942 1.388 . S
C944 C945 1.366 . S
C945 C944 1.366 . S
C945 C946 1.414 . S
C945 C948 1.499 . S
C946 H926 0.950 . S
C946 C945 1.414 . S
C946 C947 1.374 . S
C947 H927 0.950 . S
C947 C943 1.385 . S
C947 C946 1.374 . S
C948 C945 1.499 . S
C948 C949 1.373 . S
C948 C950 1.389 . S
C949 H928 0.950 . S
C949 C948 1.373 . S
C949 C965 1.377 . S
C950 C948 1.389 . S
C950 C951 1.524 . S
C950 C964 1.377 . S
C951 C950 1.524 . S
C951 C952 1.397 . S
C951 C956 1.363 . S
C952 H929 0.950 . S
C952 C951 1.397 . S
C952 C953 1.334 . S
C953 H930 0.950 . S
C953 C952 1.334 . S
C953 C954 1.287 . S
C954 C953 1.287 . S
C954 C955 1.524 . S
C954 H973 0.913 . S
C955 H931 0.950 . S
C955 C954 1.524 . S
C955 C956 1.415 . S
C956 H932 0.950 . S
C956 C951 1.363 . S
C956 C955 1.415 . S
C957 H933 0.951 . S
C957 C958 1.366 . S
C957 C959 1.388 . S
C958 C957 1.366 . S
C958 C962 1.385 . S
C959 H934 0.951 . S
C959 C957 1.388 . S
C959 C960 1.366 . S
C960 C959 1.366 . S
C960 C961 1.414 . S
C960 C963 1.499 . S
C961 H935 0.950 . S
C961 C960 1.414 . S
C961 C962 1.374 . S
C962 H936 0.950 . S
C962 C958 1.385 . S
C962 C961 1.374 . S
C963 C960 1.499 . S
C963 C964 1.373 . S
C963 C965 1.389 . S
C964 H937 0.950 . S
C964 C950 1.377 . S
C964 C963 1.373 . S
C965 C949 1.377 . S
C965 C963 1.389 . S
C965 C966 1.524 . S
C966 C965 1.524 . S
C966 C967 1.397 . S
C966 C971 1.363 . S
C967 H938 0.950 . S
C967 C966 1.397 . S
C967 C968 1.334 . S
C968 H939 0.950 . S
C968 C967 1.334 . S
C968 C969 1.287 . S
C969 C968 1.287 . S
C969 C970 1.524 . S
C969 H972 0.999 . S
C970 H940 0.950 . S
C970 C969 1.524 . S
C970 C971 1.415 . S
C971 H941 0.950 . S
C971 C966 1.363 . S
C971 C970 1.415 . S
H972 C969 0.999 . S
H973 C954 0.913 . S
H974 C992 0.951 . S
H975 C994 0.951 . S
H976 C996 0.950 . S
H977 C997 0.950 . S
H978 C999 0.950 . S
H979 C1002 0.950 . S
H980 C1003 0.950 . S
H981 C1005 0.950 . S
H982 C1006 0.950 . S
H983 C1007 0.951 . S
H984 C1009 0.951 . S
H985 C1011 0.950 . S
H986 C1012 0.950 . S
H987 C1014 0.950 . S
H988 C1017 0.950 . S
H989 C1018 0.950 . S
H990 C1020 0.950 . S
H991 C1021 0.950 . S
C992 H974 0.951 . S
C992 C993 1.366 . S
C992 C994 1.388 . S
C993 C992 1.366 . S
C993 C997 1.385 . S
C994 H975 0.951 . S
C994 C992 1.388 . S
C994 C995 1.366 . S
C995 C994 1.366 . S
C995 C996 1.414 . S
C995 C998 1.499 . S
C996 H976 0.950 . S
C996 C995 1.414 . S
C996 C997 1.374 . S
C997 H977 0.950 . S
C997 C993 1.385 . S
C997 C996 1.374 . S
C998 C995 1.499 . S
C998 C999 1.373 . S
C998 C1000 1.389 . S
C999 H978 0.950 . S
C999 C998 1.373 . S
C999 C1015 1.377 . S
C1000 C998 1.389 . S
C1000 C1001 1.524 . S
C1000 C1014 1.377 . S
C1001 C1000 1.524 . S
C1001 C1002 1.397 . S
C1001 C1006 1.363 . S
C1002 H979 0.950 . S
C1002 C1001 1.397 . S
C1002 C1003 1.334 . S
C1003 H980 0.950 . S
C1003 C1002 1.334 . S
C1003 C1004 1.287 . S
C1004 C1003 1.287 . S
C1004 C1005 1.524 . S
C1004 H1023 0.913 . S
C1005 H981 0.950 . S
C1005 C1004 1.524 . S
C1005 C1006 1.415 . S
C1006 H982 0.950 . S
C1006 C1001 1.363 . S
C1006 C1005 1.415 . S
C1007 H983 0.951 . S
C1007 C1008 1.366 . S
C1007 C1009 1.388 . S
C1008 C1007 1.366 . S
C1008 C1012 1.385 . S
C1009 H984 0.951 . S
C1009 C1007 1.388 . S
C1009 C1010 1.366 . S
C1010 C1009 1.366 . S
C1010 C1011 1.414 . S
C1010 C1013 1.499 . S
C1011 H985 0.950 . S
C1011 C1010 1.414 . S
C1011 C1012 1.374 . S
C1012 H986 0.950 . S
C1012 C1008 1.385 . S
C1012 C1011 1.374 . S
C1013 C1010 1.499 . S
C1013 C1014 1.373 . S
C1013 C1015 1.389 . S
C1014 H987 0.950 . S
C1014 C1000 1.377 . S
C1014 C1013 1.373 . S
C1015 C999 1.377 . S
C1015 C1013 1.389 . S
C1015 C1016 1.524 . S
C1016 C1015 1.524 . S
C1016 C1017 1.397 . S
C1016 C1021 1.363 . S
C1017 H988 0.950 . S
C1017 C1016 1.397 . S
C1017 C1018 1.334 . S
C1018 H989 0.950 . S
C1018 C1017 1.334 . S
C1018 C1019 1.287 . S
C1019 C1018 1.287 . S
C1019 C1020 1.524 . S
C1019 H1022 0.999 . S
C1020 H990 0.950 . S
C1020 C1019 1.524 . S
C1020 C1021 1.415 . S
C1021 H991 0.950 . S
C1021 C1016 1.363 . S
C1021 C1020 1.415 . S
H1022 C1019 0.999 . S
H1023 C1004 0.913 . S
H1024 C1042 0.951 . S
H1025 C1044 0.951 . S
H1026 C1046 0.950 . S
H1027 C1047 0.950 . S
H1028 C1049 0.950 . S
H1029 C1052 0.950 . S
H1030 C1053 0.950 . S
H1031 C1055 0.950 . S
H1032 C1056 0.950 . S
H1033 C1057 0.951 . S
H1034 C1059 0.951 . S
H1035 C1061 0.950 . S
H1036 C1062 0.950 . S
H1037 C1064 0.950 . S
H1038 C1067 0.950 . S
H1039 C1068 0.950 . S
H1040 C1070 0.950 . S
H1041 C1071 0.950 . S
C1042 H1024 0.951 . S
C1042 C1043 1.366 . S
C1042 C1044 1.388 . S
C1043 C1042 1.366 . S
C1043 C1047 1.385 . S
C1044 H1025 0.951 . S
C1044 C1042 1.388 . S
C1044 C1045 1.366 . S
C1045 C1044 1.366 . S
C1045 C1046 1.414 . S
C1045 C1048 1.499 . S
C1046 H1026 0.950 . S
C1046 C1045 1.414 . S
C1046 C1047 1.374 . S
C1047 H1027 0.950 . S
C1047 C1043 1.385 . S
C1047 C1046 1.374 . S
C1048 C1045 1.499 . S
C1048 C1049 1.373 . S
C1048 C1050 1.389 . S
C1049 H1028 0.950 . S
C1049 C1048 1.373 . S
C1049 C1065 1.377 . S
C1050 C1048 1.389 . S
C1050 C1051 1.524 . S
C1050 C1064 1.377 . S
C1051 C1050 1.524 . S
C1051 C1052 1.397 . S
C1051 C1056 1.363 . S
C1052 H1029 0.950 . S
C1052 C1051 1.397 . S
C1052 C1053 1.334 . S
C1053 H1030 0.950 . S
C1053 C1052 1.334 . S
C1053 C1054 1.287 . S
C1054 C1053 1.287 . S
C1054 C1055 1.524 . S
C1054 H1073 0.913 . S
C1055 H1031 0.950 . S
C1055 C1054 1.524 . S
C1055 C1056 1.415 . S
C1056 H1032 0.950 . S
C1056 C1051 1.363 . S
C1056 C1055 1.415 . S
C1057 H1033 0.951 . S
C1057 C1058 1.366 . S
C1057 C1059 1.388 . S
C1058 C1057 1.366 . S
C1058 C1062 1.385 1_545 S
C1059 H1034 0.951 . S
C1059 C1057 1.388 . S
C1059 C1060 1.366 1_545 S
C1060 C1059 1.366 1_565 S
C1060 C1061 1.414 . S
C1060 C1063 1.499 . S
C1061 H1035 0.950 . S
C1061 C1060 1.414 . S
C1061 C1062 1.374 . S
C1062 H1036 0.950 . S
C1062 C1058 1.385 1_565 S
C1062 C1061 1.374 . S
C1063 C1060 1.499 . S
C1063 C1064 1.373 . S
C1063 C1065 1.389 . S
C1064 H1037 0.950 . S
C1064 C1050 1.377 . S
C1064 C1063 1.373 . S
C1065 C1049 1.377 . S
C1065 C1063 1.389 . S
C1065 C1066 1.524 . S
C1066 C1065 1.524 . S
C1066 C1067 1.397 . S
C1066 C1071 1.363 . S
C1067 H1038 0.950 . S
C1067 C1066 1.397 . S
C1067 C1068 1.334 . S
C1068 H1039 0.950 . S
C1068 C1067 1.334 . S
C1068 C1069 1.287 . S
C1069 C1068 1.287 . S
C1069 C1070 1.524 . S
C1069 H1072 0.999 . S
C1070 H1040 0.950 . S
C1070 C1069 1.524 . S
C1070 C1071 1.415 . S
C1071 H1041 0.950 . S
C1071 C1066 1.363 . S
C1071 C1070 1.415 . S
H1072 C1069 0.999 . S
H1073 C1054 0.913 . S
H1074 C1092 0.951 . S
H1075 C1094 0.951 . S
H1076 C1096 0.950 . S
H1077 C1097 0.950 . S
H1078 C1099 0.950 . S
H1079 C1102 0.950 . S
H1080 C1103 0.950 . S
H1081 C1105 0.950 . S
H1082 C1106 0.950 . S
H1083 C1107 0.951 . S
H1084 C1109 0.951 . S
H1085 C1111 0.950 . S
H1086 C1112 0.950 . S
H1087 C1114 0.950 . S
H1088 C1117 0.950 . S
H1089 C1118 0.950 . S
H1090 C1120 0.950 . S
H1091 C1121 0.950 . S
C1092 H1074 0.951 . S
C1092 C1093 1.366 . S
C1092 C1094 1.388 . S
C1093 C1092 1.366 . S
C1093 C1097 1.385 . S
C1094 H1075 0.951 . S
C1094 C1092 1.388 . S
C1094 C1095 1.366 . S
C1095 C1094 1.366 . S
C1095 C1096 1.414 . S
C1095 C1098 1.499 . S
C1096 H1076 0.950 . S
C1096 C1095 1.414 . S
C1096 C1097 1.374 . S
C1097 H1077 0.950 . S
C1097 C1093 1.385 . S
C1097 C1096 1.374 . S
C1098 C1095 1.499 . S
C1098 C1099 1.373 . S
C1098 C1100 1.389 . S
C1099 H1078 0.950 . S
C1099 C1098 1.373 . S
C1099 C1115 1.377 . S
C1100 C1098 1.389 . S
C1100 C1101 1.524 . S
C1100 C1114 1.377 . S
C1101 C1100 1.524 . S
C1101 C1102 1.397 . S
C1101 C1106 1.363 . S
C1102 H1079 0.950 . S
C1102 C1101 1.397 . S
C1102 C1103 1.334 . S
C1103 H1080 0.950 . S
C1103 C1102 1.334 . S
C1103 C1104 1.287 . S
C1104 C1103 1.287 . S
C1104 C1105 1.524 . S
C1104 H1123 0.913 . S
C1105 H1081 0.950 . S
C1105 C1104 1.524 . S
C1105 C1106 1.415 . S
C1106 H1082 0.950 . S
C1106 C1101 1.363 . S
C1106 C1105 1.415 . S
C1107 H1083 0.951 . S
C1107 C1108 1.366 . S
C1107 C1109 1.388 . S
C1108 C1107 1.366 . S
C1108 C1112 1.385 . S
C1109 H1084 0.951 . S
C1109 C1107 1.388 . S
C1109 C1110 1.366 . S
C1110 C1109 1.366 . S
C1110 C1111 1.414 . S
C1110 C1113 1.499 . S
C1111 H1085 0.950 . S
C1111 C1110 1.414 . S
C1111 C1112 1.374 . S
C1112 H1086 0.950 . S
C1112 C1108 1.385 . S
C1112 C1111 1.374 . S
C1113 C1110 1.499 . S
C1113 C1114 1.373 . S
C1113 C1115 1.389 . S
C1114 H1087 0.950 . S
C1114 C1100 1.377 . S
C1114 C1113 1.373 . S
C1115 C1099 1.377 . S
C1115 C1113 1.389 . S
C1115 C1116 1.524 . S
C1116 C1115 1.524 . S
C1116 C1117 1.397 . S
C1116 C1121 1.363 . S
C1117 H1088 0.950 . S
C1117 C1116 1.397 . S
C1117 C1118 1.334 . S
C1118 H1089 0.950 . S
C1118 C1117 1.334 . S
C1118 C1119 1.287 . S
C1119 C1118 1.287 . S
C1119 C1120 1.524 . S
C1119 H1122 0.999 . S
C1120 H1090 0.950 . S
C1120 C1119 1.524 . S
C1120 C1121 1.415 . S
C1121 H1091 0.950 . S
C1121 C1116 1.363 . S
C1121 C1120 1.415 . S
H1122 C1119 0.999 . S
H1123 C1104 0.913 . S
H1124 C1142 0.951 . S
H1125 C1144 0.951 . S
H1126 C1146 0.950 . S
H1127 C1147 0.950 . S
H1128 C1149 0.950 . S
H1129 C1152 0.950 . S
H1130 C1153 0.950 . S
H1131 C1155 0.950 . S
H1132 C1156 0.950 . S
H1133 C1157 0.951 . S
H1134 C1159 0.951 . S
H1135 C1161 0.950 . S
H1136 C1162 0.950 . S
H1137 C1164 0.950 . S
H1138 C1167 0.950 . S
H1139 C1168 0.950 . S
H1140 C1170 0.950 . S
H1141 C1171 0.950 . S
C1142 H1124 0.951 . S
C1142 C1143 1.366 . S
C1142 C1144 1.388 . S
C1143 C1142 1.366 . S
C1143 C1147 1.385 . S
C1144 H1125 0.951 . S
C1144 C1142 1.388 . S
C1144 C1145 1.366 . S
C1145 C1144 1.366 . S
C1145 C1146 1.414 . S
C1145 C1148 1.499 . S
C1146 H1126 0.950 . S
C1146 C1145 1.414 . S
C1146 C1147 1.374 . S
C1147 H1127 0.950 . S
C1147 C1143 1.385 . S
C1147 C1146 1.374 . S
C1148 C1145 1.499 . S
C1148 C1149 1.373 . S
C1148 C1150 1.389 . S
C1149 H1128 0.950 . S
C1149 C1148 1.373 . S
C1149 C1165 1.377 . S
C1150 C1148 1.389 . S
C1150 C1151 1.524 . S
C1150 C1164 1.377 . S
C1151 C1150 1.524 . S
C1151 C1152 1.397 . S
C1151 C1156 1.363 . S
C1152 H1129 0.950 . S
C1152 C1151 1.397 . S
C1152 C1153 1.334 . S
C1153 H1130 0.950 . S
C1153 C1152 1.334 . S
C1153 C1154 1.287 . S
C1154 C1153 1.287 . S
C1154 C1155 1.524 . S
C1154 H1173 0.913 . S
C1155 H1131 0.950 . S
C1155 C1154 1.524 . S
C1155 C1156 1.415 . S
C1156 H1132 0.950 . S
C1156 C1151 1.363 . S
C1156 C1155 1.415 . S
C1157 H1133 0.951 . S
C1157 C1158 1.366 . S
C1157 C1159 1.388 . S
C1158 C1157 1.366 . S
C1158 C1162 1.385 . S
C1159 H1134 0.951 . S
C1159 C1157 1.388 . S
C1159 C1160 1.366 . S
C1160 C1159 1.366 . S
C1160 C1161 1.414 . S
C1160 C1163 1.499 . S
C1161 H1135 0.950 . S
C1161 C1160 1.414 . S
C1161 C1162 1.374 . S
C1162 H1136 0.950 . S
C1162 C1158 1.385 . S
C1162 C1161 1.374 . S
C1163 C1160 1.499 . S
C1163 C1164 1.373 . S
C1163 C1165 1.389 . S
C1164 H1137 0.950 . S
C1164 C1150 1.377 . S
C1164 C1163 1.373 . S
C1165 C1149 1.377 . S
C1165 C1163 1.389 . S
C1165 C1166 1.524 . S
C1166 C1165 1.524 . S
C1166 C1167 1.397 . S
C1166 C1171 1.363 . S
C1167 H1138 0.950 . S
C1167 C1166 1.397 . S
C1167 C1168 1.334 . S
C1168 H1139 0.950 . S
C1168 C1167 1.334 . S
C1168 C1169 1.287 . S
C1169 C1168 1.287 . S
C1169 C1170 1.524 . S
C1169 H1172 0.999 . S
C1170 H1140 0.950 . S
C1170 C1169 1.524 . S
C1170 C1171 1.415 . S
C1171 H1141 0.950 . S
C1171 C1166 1.363 . S
C1171 C1170 1.415 . S
H1172 C1169 0.999 . S
H1173 C1154 0.913 . S
H1174 C1192 0.951 . S
H1175 C1194 0.951 . S
H1176 C1196 0.950 . S
H1177 C1197 0.950 . S
H1178 C1199 0.950 . S
H1179 C1202 0.950 . S
H1180 C1203 0.950 . S
H1181 C1205 0.950 . S
H1182 C1206 0.950 . S
H1183 C1207 0.951 1_545 S
H1184 C1209 0.951 . S
H1185 C1211 0.950 . S
H1186 C1212 0.950 1_545 S
H1187 C1214 0.950 . S
H1188 C1217 0.950 . S
H1189 C1218 0.950 . S
H1190 C1220 0.950 . S
H1191 C1221 0.950 . S
C1192 H1174 0.951 . S
C1192 C1193 1.366 . S
C1192 C1194 1.388 . S
C1193 C1192 1.366 . S
C1193 C1197 1.385 . S
C1194 H1175 0.951 . S
C1194 C1192 1.388 . S
C1194 C1195 1.366 . S
C1195 C1194 1.366 . S
C1195 C1196 1.414 . S
C1195 C1198 1.499 . S
C1196 H1176 0.950 . S
C1196 C1195 1.414 . S
C1196 C1197 1.374 . S
C1197 H1177 0.950 . S
C1197 C1193 1.385 . S
C1197 C1196 1.374 . S
C1198 C1195 1.499 . S
C1198 C1199 1.373 . S
C1198 C1200 1.389 . S
C1199 H1178 0.950 . S
C1199 C1198 1.373 . S
C1199 C1215 1.377 . S
C1200 C1198 1.389 . S
C1200 C1201 1.524 . S
C1200 C1214 1.377 . S
C1201 C1200 1.524 . S
C1201 C1202 1.397 . S
C1201 C1206 1.363 . S
C1202 H1179 0.950 . S
C1202 C1201 1.397 . S
C1202 C1203 1.334 . S
C1203 H1180 0.950 . S
C1203 C1202 1.334 . S
C1203 C1204 1.287 . S
C1204 C1203 1.287 . S
C1204 C1205 1.524 . S
C1204 H1223 0.913 . S
C1205 H1181 0.950 . S
C1205 C1204 1.524 . S
C1205 C1206 1.415 . S
C1206 H1182 0.950 . S
C1206 C1201 1.363 . S
C1206 C1205 1.415 . S
C1207 H1183 0.951 1_565 S
C1207 C1208 1.366 1_565 S
C1207 C1209 1.388 . S
C1208 C1207 1.366 1_545 S
C1208 C1212 1.385 1_545 S
C1209 H1184 0.951 . S
C1209 C1207 1.388 . S
C1209 C1210 1.366 . S
C1210 C1209 1.366 . S
C1210 C1211 1.414 . S
C1210 C1213 1.499 . S
C1211 H1185 0.950 . S
C1211 C1210 1.414 . S
C1211 C1212 1.374 . S
C1212 H1186 0.950 1_565 S
C1212 C1208 1.385 1_565 S
C1212 C1211 1.374 . S
C1213 C1210 1.499 . S
C1213 C1214 1.373 . S
C1213 C1215 1.389 . S
C1214 H1187 0.950 . S
C1214 C1200 1.377 . S
C1214 C1213 1.373 . S
C1215 C1199 1.377 . S
C1215 C1213 1.389 . S
C1215 C1216 1.524 . S
C1216 C1215 1.524 . S
C1216 C1217 1.397 . S
C1216 C1221 1.363 . S
C1217 H1188 0.950 . S
C1217 C1216 1.397 . S
C1217 C1218 1.334 . S
C1218 H1189 0.950 . S
C1218 C1217 1.334 . S
C1218 C1219 1.287 . S
C1219 C1218 1.287 . S
C1219 C1220 1.524 . S
C1219 H1222 0.999 . S
C1220 H1190 0.950 . S
C1220 C1219 1.524 . S
C1220 C1221 1.415 . S
C1221 H1191 0.950 . S
C1221 C1216 1.363 . S
C1221 C1220 1.415 . S
H1222 C1219 0.999 . S
H1223 C1204 0.913 . S
H1224 C1242 0.951 . S
H1225 C1244 0.951 . S
H1226 C1246 0.950 . S
H1227 C1247 0.950 . S
H1228 C1249 0.950 . S
H1229 C1252 0.950 . S
H1230 C1253 0.950 . S
H1231 C1255 0.950 . S
H1232 C1256 0.950 . S
H1233 C1257 0.951 . S
H1234 C1259 0.951 . S
H1235 C1261 0.950 . S
H1236 C1262 0.950 . S
H1237 C1264 0.950 . S
H1238 C1267 0.950 . S
H1239 C1268 0.950 . S
H1240 C1270 0.950 . S
H1241 C1271 0.950 . S
C1242 H1224 0.951 . S
C1242 C1243 1.366 . S
C1242 C1244 1.388 . S
C1243 C1242 1.366 . S
C1243 C1247 1.385 . S
C1244 H1225 0.951 . S
C1244 C1242 1.388 . S
C1244 C1245 1.366 . S
C1245 C1244 1.366 . S
C1245 C1246 1.414 . S
C1245 C1248 1.499 . S
C1246 H1226 0.950 . S
C1246 C1245 1.414 . S
C1246 C1247 1.374 . S
C1247 H1227 0.950 . S
C1247 C1243 1.385 . S
C1247 C1246 1.374 . S
C1248 C1245 1.499 . S
C1248 C1249 1.373 . S
C1248 C1250 1.389 . S
C1249 H1228 0.950 . S
C1249 C1248 1.373 . S
C1249 C1265 1.377 . S
C1250 C1248 1.389 . S
C1250 C1251 1.524 . S
C1250 C1264 1.377 . S
C1251 C1250 1.524 . S
C1251 C1252 1.397 . S
C1251 C1256 1.363 . S
C1252 H1229 0.950 . S
C1252 C1251 1.397 . S
C1252 C1253 1.334 . S
C1253 H1230 0.950 . S
C1253 C1252 1.334 . S
C1253 C1254 1.287 . S
C1254 C1253 1.287 . S
C1254 C1255 1.524 . S
C1254 H1273 0.913 . S
C1255 H1231 0.950 . S
C1255 C1254 1.524 . S
C1255 C1256 1.415 . S
C1256 H1232 0.950 . S
C1256 C1251 1.363 . S
C1256 C1255 1.415 . S
C1257 H1233 0.951 . S
C1257 C1258 1.366 1_545 S
C1257 C1259 1.388 . S
C1258 C1257 1.366 1_565 S
C1258 C1262 1.385 . S
C1259 H1234 0.951 . S
C1259 C1257 1.388 . S
C1259 C1260 1.366 . S
C1260 C1259 1.366 . S
C1260 C1261 1.414 1_545 S
C1260 C1263 1.499 . S
C1261 H1235 0.950 . S
C1261 C1260 1.414 1_565 S
C1261 C1262 1.374 . S
C1262 H1236 0.950 . S
C1262 C1258 1.385 . S
C1262 C1261 1.374 . S
C1263 C1260 1.499 . S
C1263 C1264 1.373 . S
C1263 C1265 1.389 . S
C1264 H1237 0.950 . S
C1264 C1250 1.377 . S
C1264 C1263 1.373 . S
C1265 C1249 1.377 . S
C1265 C1263 1.389 . S
C1265 C1266 1.524 . S
C1266 C1265 1.524 . S
C1266 C1267 1.397 . S
C1266 C1271 1.363 . S
C1267 H1238 0.950 . S
C1267 C1266 1.397 . S
C1267 C1268 1.334 . S
C1268 H1239 0.950 . S
C1268 C1267 1.334 . S
C1268 C1269 1.287 . S
C1269 C1268 1.287 . S
C1269 C1270 1.524 . S
C1269 H1272 0.999 . S
C1270 H1240 0.950 . S
C1270 C1269 1.524 . S
C1270 C1271 1.415 . S
C1271 H1241 0.950 . S
C1271 C1266 1.363 . S
C1271 C1270 1.415 . S
H1272 C1269 0.999 . S
H1273 C1254 0.913 . S
H1274 C1292 0.951 . S
H1275 C1294 0.951 . S
H1276 C1296 0.950 . S
H1277 C1297 0.950 . S
H1278 C1299 0.950 . S
H1279 C1302 0.950 . S
H1280 C1303 0.950 . S
H1281 C1305 0.950 . S
H1282 C1306 0.950 . S
H1283 C1307 0.951 . S
H1284 C1309 0.951 . S
H1285 C1311 0.950 . S
H1286 C1312 0.950 . S
H1287 C1314 0.950 . S
H1288 C1317 0.950 . S
H1289 C1318 0.950 . S
H1290 C1320 0.950 . S
H1291 C1321 0.950 . S
C1292 H1274 0.951 . S
C1292 C1293 1.366 . S
C1292 C1294 1.388 . S
C1293 C1292 1.366 . S
C1293 C1297 1.385 . S
C1294 H1275 0.951 . S
C1294 C1292 1.388 . S
C1294 C1295 1.366 . S
C1295 C1294 1.366 . S
C1295 C1296 1.414 . S
C1295 C1298 1.499 . S
C1296 H1276 0.950 . S
C1296 C1295 1.414 . S
C1296 C1297 1.374 . S
C1297 H1277 0.950 . S
C1297 C1293 1.385 . S
C1297 C1296 1.374 . S
C1298 C1295 1.499 . S
C1298 C1299 1.373 . S
C1298 C1300 1.389 . S
C1299 H1278 0.950 . S
C1299 C1298 1.373 . S
C1299 C1315 1.377 . S
C1300 C1298 1.389 . S
C1300 C1301 1.524 . S
C1300 C1314 1.377 . S
C1301 C1300 1.524 . S
C1301 C1302 1.397 . S
C1301 C1306 1.363 . S
C1302 H1279 0.950 . S
C1302 C1301 1.397 . S
C1302 C1303 1.334 . S
C1303 H1280 0.950 . S
C1303 C1302 1.334 . S
C1303 C1304 1.287 . S
C1304 C1303 1.287 . S
C1304 C1305 1.524 . S
C1304 H1323 0.913 . S
C1305 H1281 0.950 . S
C1305 C1304 1.524 . S
C1305 C1306 1.415 . S
C1306 H1282 0.950 . S
C1306 C1301 1.363 . S
C1306 C1305 1.415 . S
C1307 H1283 0.951 . S
C1307 C1308 1.366 . S
C1307 C1309 1.388 . S
C1308 C1307 1.366 . S
C1308 C1312 1.385 . S
C1309 H1284 0.951 . S
C1309 C1307 1.388 . S
C1309 C1310 1.366 . S
C1310 C1309 1.366 . S
C1310 C1311 1.414 . S
C1310 C1313 1.499 . S
C1311 H1285 0.950 . S
C1311 C1310 1.414 . S
C1311 C1312 1.374 . S
C1312 H1286 0.950 . S
C1312 C1308 1.385 . S
C1312 C1311 1.374 . S
C1313 C1310 1.499 . S
C1313 C1314 1.373 . S
C1313 C1315 1.389 . S
C1314 H1287 0.950 . S
C1314 C1300 1.377 . S
C1314 C1313 1.373 . S
C1315 C1299 1.377 . S
C1315 C1313 1.389 . S
C1315 C1316 1.524 . S
C1316 C1315 1.524 . S
C1316 C1317 1.397 . S
C1316 C1321 1.363 . S
C1317 H1288 0.950 . S
C1317 C1316 1.397 . S
C1317 C1318 1.334 . S
C1318 H1289 0.950 . S
C1318 C1317 1.334 . S
C1318 C1319 1.287 . S
C1319 C1318 1.287 . S
C1319 C1320 1.524 . S
C1319 H1322 0.999 . S
C1320 H1290 0.950 . S
C1320 C1319 1.524 . S
C1320 C1321 1.415 . S
C1321 H1291 0.950 . S
C1321 C1316 1.363 . S
C1321 C1320 1.415 . S
H1322 C1319 0.999 . S
H1323 C1304 0.913 . S
H1324 C1342 0.951 . S
H1325 C1344 0.951 . S
H1326 C1346 0.950 . S
H1327 C1347 0.950 . S
H1328 C1349 0.950 . S
H1329 C1352 0.950 . S
H1330 C1353 0.950 . S
H1331 C1355 0.950 . S
H1332 C1356 0.950 . S
H1333 C1357 0.951 . S
H1334 C1359 0.951 . S
H1335 C1361 0.950 . S
H1336 C1362 0.950 . S
H1337 C1364 0.950 . S
H1338 C1367 0.950 . S
H1339 C1368 0.950 . S
H1340 C1370 0.950 . S
H1341 C1371 0.950 . S
C1342 H1324 0.951 . S
C1342 C1343 1.366 . S
C1342 C1344 1.388 . S
C1343 C1342 1.366 . S
C1343 C1347 1.385 . S
C1344 H1325 0.951 . S
C1344 C1342 1.388 . S
C1344 C1345 1.366 . S
C1345 C1344 1.366 . S
C1345 C1346 1.414 . S
C1345 C1348 1.499 . S
C1346 H1326 0.950 . S
C1346 C1345 1.414 . S
C1346 C1347 1.374 . S
C1347 H1327 0.950 . S
C1347 C1343 1.385 . S
C1347 C1346 1.374 . S
C1348 C1345 1.499 . S
C1348 C1349 1.373 . S
C1348 C1350 1.389 . S
C1349 H1328 0.950 . S
C1349 C1348 1.373 . S
C1349 C1365 1.377 . S
C1350 C1348 1.389 . S
C1350 C1351 1.524 . S
C1350 C1364 1.377 . S
C1351 C1350 1.524 . S
C1351 C1352 1.397 . S
C1351 C1356 1.363 . S
C1352 H1329 0.950 . S
C1352 C1351 1.397 . S
C1352 C1353 1.334 . S
C1353 H1330 0.950 . S
C1353 C1352 1.334 . S
C1353 C1354 1.287 . S
C1354 C1353 1.287 . S
C1354 C1355 1.524 . S
C1354 H1373 0.913 . S
C1355 H1331 0.950 . S
C1355 C1354 1.524 . S
C1355 C1356 1.415 . S
C1356 H1332 0.950 . S
C1356 C1351 1.363 . S
C1356 C1355 1.415 . S
C1357 H1333 0.951 . S
C1357 C1358 1.366 . S
C1357 C1359 1.388 . S
C1358 C1357 1.366 . S
C1358 C1362 1.385 . S
C1359 H1334 0.951 . S
C1359 C1357 1.388 . S
C1359 C1360 1.366 . S
C1360 C1359 1.366 . S
C1360 C1361 1.414 . S
C1360 C1363 1.499 . S
C1361 H1335 0.950 . S
C1361 C1360 1.414 . S
C1361 C1362 1.374 . S
C1362 H1336 0.950 . S
C1362 C1358 1.385 . S
C1362 C1361 1.374 . S
C1363 C1360 1.499 . S
C1363 C1364 1.373 . S
C1363 C1365 1.389 . S
C1364 H1337 0.950 . S
C1364 C1350 1.377 . S
C1364 C1363 1.373 . S
C1365 C1349 1.377 . S
C1365 C1363 1.389 . S
C1365 C1366 1.524 . S
C1366 C1365 1.524 . S
C1366 C1367 1.397 . S
C1366 C1371 1.363 . S
C1367 H1338 0.950 . S
C1367 C1366 1.397 . S
C1367 C1368 1.334 . S
C1368 H1339 0.950 . S
C1368 C1367 1.334 . S
C1368 C1369 1.287 . S
C1369 C1368 1.287 . S
C1369 C1370 1.524 . S
C1369 H1372 0.999 . S
C1370 H1340 0.950 . S
C1370 C1369 1.524 . S
C1370 C1371 1.415 . S
C1371 H1341 0.950 . S
C1371 C1366 1.363 . S
C1371 C1370 1.415 . S
H1372 C1369 0.999 . S
H1373 C1354 0.913 . S
H1374 C1392 0.951 . S
H1375 C1394 0.951 1_565 S
H1376 C1396 0.950 . S
H1377 C1397 0.950 . S
H1378 C1399 0.950 . S
H1379 C1402 0.950 . S
H1380 C1403 0.950 . S
H1381 C1405 0.950 1_565 S
H1382 C1406 0.950 . S
H1383 C1407 0.951 . S
H1384 C1409 0.951 . S
H1385 C1411 0.950 . S
H1386 C1412 0.950 . S
H1387 C1414 0.950 . S
H1388 C1417 0.950 . S
H1389 C1418 0.950 . S
H1390 C1420 0.950 . S
H1391 C1421 0.950 . S
C1392 H1374 0.951 . S
C1392 C1393 1.366 . S
C1392 C1394 1.388 1_565 S
C1393 C1392 1.366 . S
C1393 C1397 1.385 1_565 S
C1394 H1375 0.951 1_545 S
C1394 C1392 1.388 1_545 S
C1394 C1395 1.366 . S
C1395 C1394 1.366 . S
C1395 C1396 1.414 . S
C1395 C1398 1.499 . S
C1396 H1376 0.950 . S
C1396 C1395 1.414 . S
C1396 C1397 1.374 . S
C1397 H1377 0.950 . S
C1397 C1393 1.385 1_545 S
C1397 C1396 1.374 . S
C1398 C1395 1.499 . S
C1398 C1399 1.373 . S
C1398 C1400 1.389 . S
C1399 H1378 0.950 . S
C1399 C1398 1.373 . S
C1399 C1415 1.377 . S
C1400 C1398 1.389 . S
C1400 C1401 1.524 . S
C1400 C1414 1.377 . S
C1401 C1400 1.524 . S
C1401 C1402 1.397 . S
C1401 C1406 1.363 . S
C1402 H1379 0.950 . S
C1402 C1401 1.397 . S
C1402 C1403 1.334 . S
C1403 H1380 0.950 . S
C1403 C1402 1.334 . S
C1403 C1404 1.287 . S
C1404 C1403 1.287 . S
C1404 C1405 1.524 . S
C1404 H1423 0.913 1_545 S
C1405 H1381 0.950 1_545 S
C1405 C1404 1.524 . S
C1405 C1406 1.415 . S
C1406 H1382 0.950 . S
C1406 C1401 1.363 . S
C1406 C1405 1.415 . S
C1407 H1383 0.951 . S
C1407 C1408 1.366 . S
C1407 C1409 1.388 . S
C1408 C1407 1.366 . S
C1408 C1412 1.385 . S
C1409 H1384 0.951 . S
C1409 C1407 1.388 . S
C1409 C1410 1.366 . S
C1410 C1409 1.366 . S
C1410 C1411 1.414 . S
C1410 C1413 1.499 . S
C1411 H1385 0.950 . S
C1411 C1410 1.414 . S
C1411 C1412 1.374 . S
C1412 H1386 0.950 . S
C1412 C1408 1.385 . S
C1412 C1411 1.374 . S
C1413 C1410 1.499 . S
C1413 C1414 1.373 . S
C1413 C1415 1.389 . S
C1414 H1387 0.950 . S
C1414 C1400 1.377 . S
C1414 C1413 1.373 . S
C1415 C1399 1.377 . S
C1415 C1413 1.389 . S
C1415 C1416 1.524 . S
C1416 C1415 1.524 . S
C1416 C1417 1.397 . S
C1416 C1421 1.363 . S
C1417 H1388 0.950 . S
C1417 C1416 1.397 . S
C1417 C1418 1.334 . S
C1418 H1389 0.950 . S
C1418 C1417 1.334 . S
C1418 C1419 1.287 . S
C1419 C1418 1.287 . S
C1419 C1420 1.524 . S
C1419 H1422 0.999 . S
C1420 H1390 0.950 . S
C1420 C1419 1.524 . S
C1420 C1421 1.415 . S
C1421 H1391 0.950 . S
C1421 C1416 1.363 . S
C1421 C1420 1.415 . S
H1422 C1419 0.999 . S
H1423 C1404 0.913 1_565 S
H1424 C1442 0.951 . S
H1425 C1444 0.951 . S
H1426 C1446 0.950 . S
H1427 C1447 0.950 . S
H1428 C1449 0.950 . S
H1429 C1452 0.950 . S
H1430 C1453 0.950 . S
H1431 C1455 0.950 . S
H1432 C1456 0.950 . S
H1433 C1457 0.951 . S
H1434 C1459 0.951 . S
H1435 C1461 0.950 . S
H1436 C1462 0.950 . S
H1437 C1464 0.950 . S
H1438 C1467 0.950 . S
H1439 C1468 0.950 . S
H1440 C1470 0.950 . S
H1441 C1471 0.950 . S
C1442 H1424 0.951 . S
C1442 C1443 1.366 . S
C1442 C1444 1.388 . S
C1443 C1442 1.366 . S
C1443 C1447 1.385 . S
C1444 H1425 0.951 . S
C1444 C1442 1.388 . S
C1444 C1445 1.366 . S
C1445 C1444 1.366 . S
C1445 C1446 1.414 . S
C1445 C1448 1.499 . S
C1446 H1426 0.950 . S
C1446 C1445 1.414 . S
C1446 C1447 1.374 . S
C1447 H1427 0.950 . S
C1447 C1443 1.385 . S
C1447 C1446 1.374 . S
C1448 C1445 1.499 . S
C1448 C1449 1.373 . S
C1448 C1450 1.389 . S
C1449 H1428 0.950 . S
C1449 C1448 1.373 . S
C1449 C1465 1.377 . S
C1450 C1448 1.389 . S
C1450 C1451 1.524 . S
C1450 C1464 1.377 . S
C1451 C1450 1.524 . S
C1451 C1452 1.397 . S
C1451 C1456 1.363 . S
C1452 H1429 0.950 . S
C1452 C1451 1.397 . S
C1452 C1453 1.334 . S
C1453 H1430 0.950 . S
C1453 C1452 1.334 . S
C1453 C1454 1.287 . S
C1454 C1453 1.287 . S
C1454 C1455 1.524 . S
C1454 H1473 0.913 . S
C1455 H1431 0.950 . S
C1455 C1454 1.524 . S
C1455 C1456 1.415 . S
C1456 H1432 0.950 . S
C1456 C1451 1.363 . S
C1456 C1455 1.415 . S
C1457 H1433 0.951 . S
C1457 C1458 1.366 . S
C1457 C1459 1.388 1_545 S
C1458 C1457 1.366 . S
C1458 C1462 1.385 . S
C1459 H1434 0.951 . S
C1459 C1457 1.388 1_565 S
C1459 C1460 1.366 . S
C1460 C1459 1.366 . S
C1460 C1461 1.414 . S
C1460 C1463 1.499 . S
C1461 H1435 0.950 . S
C1461 C1460 1.414 . S
C1461 C1462 1.374 1_565 S
C1462 H1436 0.950 . S
C1462 C1458 1.385 . S
C1462 C1461 1.374 1_545 S
C1463 C1460 1.499 . S
C1463 C1464 1.373 . S
C1463 C1465 1.389 . S
C1464 H1437 0.950 . S
C1464 C1450 1.377 . S
C1464 C1463 1.373 . S
C1465 C1449 1.377 . S
C1465 C1463 1.389 . S
C1465 C1466 1.524 . S
C1466 C1465 1.524 . S
C1466 C1467 1.397 . S
C1466 C1471 1.363 . S
C1467 H1438 0.950 . S
C1467 C1466 1.397 . S
C1467 C1468 1.334 . S
C1468 H1439 0.950 . S
C1468 C1467 1.334 . S
C1468 C1469 1.287 . S
C1469 C1468 1.287 . S
C1469 C1470 1.524 . S
C1469 H1472 0.999 . S
C1470 H1440 0.950 . S
C1470 C1469 1.524 . S
C1470 C1471 1.415 . S
C1471 H1441 0.950 . S
C1471 C1466 1.363 . S
C1471 C1470 1.415 . S
H1472 C1469 0.999 . S
H1473 C1454 0.913 . S
H1474 C1492 0.951 . S
H1475 C1494 0.951 . S
H1476 C1496 0.950 . S
H1477 C1497 0.950 . S
H1478 C1499 0.950 . S
H1479 C1502 0.950 . S
H1480 C1503 0.950 . S
H1481 C1505 0.950 . S
H1482 C1506 0.950 . S
H1483 C1507 0.951 . S
H1484 C1509 0.951 . S
H1485 C1511 0.950 . S
H1486 C1512 0.950 . S
H1487 C1514 0.950 . S
H1488 C1517 0.950 . S
H1489 C1518 0.950 . S
H1490 C1520 0.950 . S
H1491 C1521 0.950 . S
C1492 H1474 0.951 . S
C1492 C1493 1.366 . S
C1492 C1494 1.388 . S
C1493 C1492 1.366 . S
C1493 C1497 1.385 . S
C1494 H1475 0.951 . S
C1494 C1492 1.388 . S
C1494 C1495 1.366 . S
C1495 C1494 1.366 . S
C1495 C1496 1.414 . S
C1495 C1498 1.499 . S
C1496 H1476 0.950 . S
C1496 C1495 1.414 . S
C1496 C1497 1.374 . S
C1497 H1477 0.950 . S
C1497 C1493 1.385 . S
C1497 C1496 1.374 . S
C1498 C1495 1.499 . S
C1498 C1499 1.373 . S
C1498 C1500 1.389 . S
C1499 H1478 0.950 . S
C1499 C1498 1.373 . S
C1499 C1515 1.377 . S
C1500 C1498 1.389 . S
C1500 C1501 1.524 . S
C1500 C1514 1.377 . S
C1501 C1500 1.524 . S
C1501 C1502 1.397 . S
C1501 C1506 1.363 . S
C1502 H1479 0.950 . S
C1502 C1501 1.397 . S
C1502 C1503 1.334 . S
C1503 H1480 0.950 . S
C1503 C1502 1.334 . S
C1503 C1504 1.287 . S
C1504 C1503 1.287 . S
C1504 C1505 1.524 . S
C1504 H1523 0.913 . S
C1505 H1481 0.950 . S
C1505 C1504 1.524 . S
C1505 C1506 1.415 . S
C1506 H1482 0.950 . S
C1506 C1501 1.363 . S
C1506 C1505 1.415 . S
C1507 H1483 0.951 . S
C1507 C1508 1.366 . S
C1507 C1509 1.388 . S
C1508 C1507 1.366 . S
C1508 C1512 1.385 . S
C1509 H1484 0.951 . S
C1509 C1507 1.388 . S
C1509 C1510 1.366 . S
C1510 C1509 1.366 . S
C1510 C1511 1.414 . S
C1510 C1513 1.499 . S
C1511 H1485 0.950 . S
C1511 C1510 1.414 . S
C1511 C1512 1.374 . S
C1512 H1486 0.950 . S
C1512 C1508 1.385 . S
C1512 C1511 1.374 . S
C1513 C1510 1.499 . S
C1513 C1514 1.373 . S
C1513 C1515 1.389 . S
C1514 H1487 0.950 . S
C1514 C1500 1.377 . S
C1514 C1513 1.373 . S
C1515 C1499 1.377 . S
C1515 C1513 1.389 . S
C1515 C1516 1.524 . S
C1516 C1515 1.524 . S
C1516 C1517 1.397 . S
C1516 C1521 1.363 . S
C1517 H1488 0.950 . S
C1517 C1516 1.397 . S
C1517 C1518 1.334 . S
C1518 H1489 0.950 . S
C1518 C1517 1.334 . S
C1518 C1519 1.287 . S
C1519 C1518 1.287 . S
C1519 C1520 1.524 . S
C1519 H1522 0.999 . S
C1520 H1490 0.950 . S
C1520 C1519 1.524 . S
C1520 C1521 1.415 . S
C1521 H1491 0.950 . S
C1521 C1516 1.363 . S
C1521 C1520 1.415 . S
H1522 C1519 0.999 . S
H1523 C1504 0.913 . S
H1524 C1542 0.951 . S
H1525 C1544 0.951 . S
H1526 C1546 0.950 . S
H1527 C1547 0.950 . S
H1528 C1549 0.950 . S
H1529 C1552 0.950 . S
H1530 C1553 0.950 . S
H1531 C1555 0.950 . S
H1532 C1556 0.950 . S
H1533 C1557 0.951 . S
H1534 C1559 0.951 . S
H1535 C1561 0.950 . S
H1536 C1562 0.950 . S
H1537 C1564 0.950 . S
H1538 C1567 0.950 . S
H1539 C1568 0.950 . S
H1540 C1570 0.950 . S
H1541 C1571 0.950 . S
C1542 H1524 0.951 . S
C1542 C1543 1.366 . S
C1542 C1544 1.388 . S
C1543 C1542 1.366 . S
C1543 C1547 1.385 . S
C1544 H1525 0.951 . S
C1544 C1542 1.388 . S
C1544 C1545 1.366 . S
C1545 C1544 1.366 . S
C1545 C1546 1.414 . S
C1545 C1548 1.499 . S
C1546 H1526 0.950 . S
C1546 C1545 1.414 . S
C1546 C1547 1.374 . S
C1547 H1527 0.950 . S
C1547 C1543 1.385 . S
C1547 C1546 1.374 . S
C1548 C1545 1.499 . S
C1548 C1549 1.373 . S
C1548 C1550 1.389 . S
C1549 H1528 0.950 . S
C1549 C1548 1.373 . S
C1549 C1565 1.377 . S
C1550 C1548 1.389 . S
C1550 C1551 1.524 . S
C1550 C1564 1.377 . S
C1551 C1550 1.524 . S
C1551 C1552 1.397 . S
C1551 C1556 1.363 . S
C1552 H1529 0.950 . S
C1552 C1551 1.397 . S
C1552 C1553 1.334 . S
C1553 H1530 0.950 . S
C1553 C1552 1.334 . S
C1553 C1554 1.287 . S
C1554 C1553 1.287 . S
C1554 C1555 1.524 . S
C1554 H1573 0.913 . S
C1555 H1531 0.950 . S
C1555 C1554 1.524 . S
C1555 C1556 1.415 . S
C1556 H1532 0.950 . S
C1556 C1551 1.363 . S
C1556 C1555 1.415 . S
C1557 H1533 0.951 . S
C1557 C1558 1.366 . S
C1557 C1559 1.388 . S
C1558 C1557 1.366 . S
C1558 C1562 1.385 . S
C1559 H1534 0.951 . S
C1559 C1557 1.388 . S
C1559 C1560 1.366 . S
C1560 C1559 1.366 . S
C1560 C1561 1.414 . S
C1560 C1563 1.499 . S
C1561 H1535 0.950 . S
C1561 C1560 1.414 . S
C1561 C1562 1.374 . S
C1562 H1536 0.950 . S
C1562 C1558 1.385 . S
C1562 C1561 1.374 . S
C1563 C1560 1.499 . S
C1563 C1564 1.373 . S
C1563 C1565 1.389 . S
C1564 H1537 0.950 . S
C1564 C1550 1.377 . S
C1564 C1563 1.373 . S
C1565 C1549 1.377 . S
C1565 C1563 1.389 . S
C1565 C1566 1.524 . S
C1566 C1565 1.524 . S
C1566 C1567 1.397 . S
C1566 C1571 1.363 . S
C1567 H1538 0.950 . S
C1567 C1566 1.397 . S
C1567 C1568 1.334 . S
C1568 H1539 0.950 . S
C1568 C1567 1.334 . S
C1568 C1569 1.287 . S
C1569 C1568 1.287 . S
C1569 C1570 1.524 . S
C1569 H1572 0.999 . S
C1570 H1540 0.950 . S
C1570 C1569 1.524 . S
C1570 C1571 1.415 . S
C1571 H1541 0.950 . S
C1571 C1566 1.363 . S
C1571 C1570 1.415 . S
H1572 C1569 0.999 . S
H1573 C1554 0.913 . S
H1574 C1592 0.951 . S
H1575 C1594 0.951 . S
H1576 C1596 0.950 . S
H1577 C1597 0.950 . S
H1578 C1599 0.950 . S
H1579 C1602 0.950 . S
H1580 C1603 0.950 . S
H1581 C1605 0.950 . S
H1582 C1606 0.950 . S
H1583 C1607 0.951 . S
H1584 C1609 0.951 . S
H1585 C1611 0.950 . S
H1586 C1612 0.950 . S
H1587 C1614 0.950 . S
H1588 C1617 0.942 1_545 S
H1589 C1618 0.950 . S
H1590 C1620 0.950 . S
H1591 C1621 0.950 . S
C1592 H1574 0.951 . S
C1592 C1593 1.366 . S
C1592 C1594 1.388 . S
C1593 C1592 1.366 . S
C1593 C1597 1.385 . S
C1594 H1575 0.951 . S
C1594 C1592 1.388 . S
C1594 C1595 1.366 . S
C1595 C1594 1.366 . S
C1595 C1596 1.414 . S
C1595 C1598 1.499 . S
C1596 H1576 0.950 . S
C1596 C1595 1.414 . S
C1596 C1597 1.374 . S
C1597 H1577 0.950 . S
C1597 C1593 1.385 . S
C1597 C1596 1.374 . S
C1598 C1595 1.499 . S
C1598 C1599 1.373 . S
C1598 C1600 1.389 . S
C1599 H1578 0.950 . S
C1599 C1598 1.373 . S
C1599 C1615 1.377 . S
C1600 C1598 1.389 . S
C1600 C1601 1.524 . S
C1600 C1614 1.377 . S
C1601 C1600 1.524 . S
C1601 C1602 1.397 . S
C1601 C1606 1.363 . S
C1602 H1579 0.950 . S
C1602 C1601 1.397 . S
C1602 C1603 1.334 . S
C1603 H1580 0.950 . S
C1603 C1602 1.334 . S
C1603 C1604 1.287 . S
C1604 C1603 1.287 . S
C1604 C1605 1.524 . S
C1604 H1623 0.913 . S
C1605 H1581 0.950 . S
C1605 C1604 1.524 . S
C1605 C1606 1.415 . S
C1606 H1582 0.950 . S
C1606 C1601 1.363 . S
C1606 C1605 1.415 . S
C1607 H1583 0.951 . S
C1607 C1608 1.366 1_565 S
C1607 C1609 1.388 . S
C1608 C1607 1.366 1_545 S
C1608 C1612 1.385 . S
C1609 H1584 0.951 . S
C1609 C1607 1.388 . S
C1609 C1610 1.366 . S
C1610 C1609 1.366 . S
C1610 C1611 1.414 . S
C1610 C1613 1.499 . S
C1611 H1585 0.950 . S
C1611 C1610 1.414 . S
C1611 C1612 1.374 1_565 S
C1612 H1586 0.950 . S
C1612 C1608 1.385 . S
C1612 C1611 1.374 1_545 S
C1613 C1610 1.499 . S
C1613 C1614 1.373 . S
C1613 C1615 1.389 . S
C1614 H1587 0.950 . S
C1614 C1600 1.377 . S
C1614 C1613 1.373 . S
C1615 C1599 1.377 . S
C1615 C1613 1.389 . S
C1615 C1616 1.524 . S
C1616 C1615 1.524 . S
C1616 C1617 1.397 . S
C1616 C1621 1.363 . S
C1617 H1588 0.942 1_565 S
C1617 C1616 1.397 . S
C1617 C1618 1.334 1_565 S
C1618 H1589 0.950 . S
C1618 C1617 1.334 1_545 S
C1618 C1619 1.287 1_545 S
C1619 C1618 1.287 1_565 S
C1619 C1620 1.524 . S
C1619 H1622 0.999 1_565 S
C1620 H1590 0.950 . S
C1620 C1619 1.524 . S
C1620 C1621 1.415 . S
C1621 H1591 0.950 . S
C1621 C1616 1.363 . S
C1621 C1620 1.415 . S
H1622 C1619 0.999 1_545 S
H1623 C1604 0.913 . S
H1624 C1642 0.951 . S
H1625 C1644 0.951 . S
H1626 C1646 0.950 . S
H1627 C1647 0.950 . S
H1628 C1649 0.950 . S
H1629 C1652 0.950 . S
H1630 C1653 0.950 . S
H1631 C1655 0.950 . S
H1632 C1656 0.950 . S
H1633 C1657 0.951 . S
H1634 C1659 0.951 . S
H1635 C1661 0.950 . S
H1636 C1662 0.950 . S
H1637 C1664 0.950 . S
H1638 C1667 0.950 . S
H1639 C1668 0.950 . S
H1640 C1670 0.950 . S
H1641 C1671 0.950 . S
C1642 H1624 0.951 . S
C1642 C1643 1.366 . S
C1642 C1644 1.388 . S
C1643 C1642 1.366 . S
C1643 C1647 1.385 . S
C1644 H1625 0.951 . S
C1644 C1642 1.388 . S
C1644 C1645 1.366 . S
C1645 C1644 1.366 . S
C1645 C1646 1.414 . S
C1645 C1648 1.499 . S
C1646 H1626 0.950 . S
C1646 C1645 1.414 . S
C1646 C1647 1.374 . S
C1647 H1627 0.950 . S
C1647 C1643 1.385 . S
C1647 C1646 1.374 . S
C1648 C1645 1.499 . S
C1648 C1649 1.373 . S
C1648 C1650 1.389 . S
C1649 H1628 0.950 . S
C1649 C1648 1.373 . S
C1649 C1665 1.377 . S
C1650 C1648 1.389 . S
C1650 C1651 1.524 . S
C1650 C1664 1.377 . S
C1651 C1650 1.524 . S
C1651 C1652 1.397 . S
C1651 C1656 1.363 . S
C1652 H1629 0.950 . S
C1652 C1651 1.397 . S
C1652 C1653 1.334 . S
C1653 H1630 0.950 . S
C1653 C1652 1.334 . S
C1653 C1654 1.287 . S
C1654 C1653 1.287 . S
C1654 C1655 1.524 . S
C1654 H1673 0.913 . S
C1655 H1631 0.950 . S
C1655 C1654 1.524 . S
C1655 C1656 1.415 . S
C1656 H1632 0.950 . S
C1656 C1651 1.363 . S
C1656 C1655 1.415 . S
C1657 H1633 0.951 . S
C1657 C1658 1.366 1_545 S
C1657 C1659 1.388 . S
C1658 C1657 1.366 1_565 S
C1658 C1662 1.385 . S
C1659 H1634 0.951 . S
C1659 C1657 1.388 . S
C1659 C1660 1.366 . S
C1660 C1659 1.366 . S
C1660 C1661 1.414 1_545 S
C1660 C1663 1.499 . S
C1661 H1635 0.950 . S
C1661 C1660 1.414 1_565 S
C1661 C1662 1.374 . S
C1662 H1636 0.950 . S
C1662 C1658 1.385 . S
C1662 C1661 1.374 . S
C1663 C1660 1.499 . S
C1663 C1664 1.373 . S
C1663 C1665 1.389 . S
C1664 H1637 0.950 . S
C1664 C1650 1.377 . S
C1664 C1663 1.373 . S
C1665 C1649 1.377 . S
C1665 C1663 1.389 . S
C1665 C1666 1.524 . S
C1666 C1665 1.524 . S
C1666 C1667 1.397 . S
C1666 C1671 1.363 . S
C1667 H1638 0.950 . S
C1667 C1666 1.397 . S
C1667 C1668 1.334 . S
C1668 H1639 0.950 . S
C1668 C1667 1.334 . S
C1668 C1669 1.287 . S
C1669 C1668 1.287 . S
C1669 C1670 1.524 . S
C1669 H1672 0.999 . S
C1670 H1640 0.950 . S
C1670 C1669 1.524 . S
C1670 C1671 1.415 . S
C1671 H1641 0.950 . S
C1671 C1666 1.363 . S
C1671 C1670 1.415 . S
H1672 C1669 0.999 . S
H1673 C1654 0.913 . S
H1674 C1692 0.951 . S
H1675 C1694 0.951 . S
H1676 C1696 0.950 . S
H1677 C1697 0.950 . S
H1678 C1699 0.950 . S
H1679 C1702 0.950 . S
H1680 C1703 0.950 . S
H1681 C1705 0.950 . S
H1682 C1706 0.950 . S
H1683 C1707 0.951 . S
H1684 C1709 0.951 . S
H1685 C1711 0.950 . S
H1686 C1712 0.950 . S
H1687 C1714 0.950 . S
H1688 C1717 0.950 . S
H1689 C1718 0.950 . S
H1690 C1720 0.950 . S
H1691 C1721 0.950 . S
C1692 H1674 0.951 . S
C1692 C1693 1.366 . S
C1692 C1694 1.388 . S
C1693 C1692 1.366 . S
C1693 C1697 1.385 . S
C1694 H1675 0.951 . S
C1694 C1692 1.388 . S
C1694 C1695 1.366 . S
C1695 C1694 1.366 . S
C1695 C1696 1.414 . S
C1695 C1698 1.499 . S
C1696 H1676 0.950 . S
C1696 C1695 1.414 . S
C1696 C1697 1.374 . S
C1697 H1677 0.950 . S
C1697 C1693 1.385 . S
C1697 C1696 1.374 . S
C1698 C1695 1.499 . S
C1698 C1699 1.373 . S
C1698 C1700 1.389 . S
C1699 H1678 0.950 . S
C1699 C1698 1.373 . S
C1699 C1715 1.377 . S
C1700 C1698 1.389 . S
C1700 C1701 1.524 . S
C1700 C1714 1.377 . S
C1701 C1700 1.524 . S
C1701 C1702 1.397 . S
C1701 C1706 1.363 . S
C1702 H1679 0.950 . S
C1702 C1701 1.397 . S
C1702 C1703 1.334 . S
C1703 H1680 0.950 . S
C1703 C1702 1.334 . S
C1703 C1704 1.287 . S
C1704 C1703 1.287 . S
C1704 C1705 1.524 . S
C1704 H1723 0.913 . S
C1705 H1681 0.950 . S
C1705 C1704 1.524 . S
C1705 C1706 1.415 . S
C1706 H1682 0.950 . S
C1706 C1701 1.363 . S
C1706 C1705 1.415 . S
C1707 H1683 0.951 . S
C1707 C1708 1.366 . S
C1707 C1709 1.388 . S
C1708 C1707 1.366 . S
C1708 C1712 1.385 . S
C1709 H1684 0.951 . S
C1709 C1707 1.388 . S
C1709 C1710 1.366 . S
C1710 C1709 1.366 . S
C1710 C1711 1.414 . S
C1710 C1713 1.499 . S
C1711 H1685 0.950 . S
C1711 C1710 1.414 . S
C1711 C1712 1.374 . S
C1712 H1686 0.950 . S
C1712 C1708 1.385 . S
C1712 C1711 1.374 . S
C1713 C1710 1.499 . S
C1713 C1714 1.373 . S
C1713 C1715 1.389 . S
C1714 H1687 0.950 . S
C1714 C1700 1.377 . S
C1714 C1713 1.373 . S
C1715 C1699 1.377 . S
C1715 C1713 1.389 . S
C1715 C1716 1.524 . S
C1716 C1715 1.524 . S
C1716 C1717 1.397 . S
C1716 C1721 1.363 . S
C1717 H1688 0.950 . S
C1717 C1716 1.397 . S
C1717 C1718 1.334 . S
C1718 H1689 0.950 . S
C1718 C1717 1.334 . S
C1718 C1719 1.287 . S
C1719 C1718 1.287 . S
C1719 C1720 1.524 . S
C1719 H1722 0.999 . S
C1720 H1690 0.950 . S
C1720 C1719 1.524 . S
C1720 C1721 1.415 . S
C1721 H1691 0.950 . S
C1721 C1716 1.363 . S
C1721 C1720 1.415 . S
H1722 C1719 0.999 . S
H1723 C1704 0.913 . S
H1724 C1742 0.951 . S
H1725 C1744 0.951 . S
H1726 C1746 0.950 . S
H1727 C1747 0.950 . S
H1728 C1749 0.950 . S
H1729 C1752 0.950 . S
H1730 C1753 0.950 . S
H1731 C1755 0.950 . S
H1732 C1756 0.950 . S
H1733 C1757 0.951 . S
H1734 C1759 0.951 . S
H1735 C1761 0.950 . S
H1736 C1762 0.950 . S
H1737 C1764 0.950 . S
H1738 C1767 0.950 . S
H1739 C1768 0.950 . S
H1740 C1770 0.950 . S
H1741 C1771 0.950 . S
C1742 H1724 0.951 . S
C1742 C1743 1.366 . S
C1742 C1744 1.388 . S
C1743 C1742 1.366 . S
C1743 C1747 1.385 . S
C1744 H1725 0.951 . S
C1744 C1742 1.388 . S
C1744 C1745 1.366 . S
C1745 C1744 1.366 . S
C1745 C1746 1.414 . S
C1745 C1748 1.499 . S
C1746 H1726 0.950 . S
C1746 C1745 1.414 . S
C1746 C1747 1.374 . S
C1747 H1727 0.950 . S
C1747 C1743 1.385 . S
C1747 C1746 1.374 . S
C1748 C1745 1.499 . S
C1748 C1749 1.373 . S
C1748 C1750 1.389 . S
C1749 H1728 0.950 . S
C1749 C1748 1.373 . S
C1749 C1765 1.377 . S
C1750 C1748 1.389 . S
C1750 C1751 1.524 . S
C1750 C1764 1.377 . S
C1751 C1750 1.524 . S
C1751 C1752 1.397 . S
C1751 C1756 1.363 . S
C1752 H1729 0.950 . S
C1752 C1751 1.397 . S
C1752 C1753 1.334 . S
C1753 H1730 0.950 . S
C1753 C1752 1.334 . S
C1753 C1754 1.287 . S
C1754 C1753 1.287 . S
C1754 C1755 1.524 . S
C1754 H1773 0.913 . S
C1755 H1731 0.950 . S
C1755 C1754 1.524 . S
C1755 C1756 1.415 . S
C1756 H1732 0.950 . S
C1756 C1751 1.363 . S
C1756 C1755 1.415 . S
C1757 H1733 0.951 . S
C1757 C1758 1.366 . S
C1757 C1759 1.388 . S
C1758 C1757 1.366 . S
C1758 C1762 1.385 . S
C1759 H1734 0.951 . S
C1759 C1757 1.388 . S
C1759 C1760 1.366 . S
C1760 C1759 1.366 . S
C1760 C1761 1.414 . S
C1760 C1763 1.499 . S
C1761 H1735 0.950 . S
C1761 C1760 1.414 . S
C1761 C1762 1.374 . S
C1762 H1736 0.950 . S
C1762 C1758 1.385 . S
C1762 C1761 1.374 . S
C1763 C1760 1.499 . S
C1763 C1764 1.373 . S
C1763 C1765 1.389 . S
C1764 H1737 0.950 . S
C1764 C1750 1.377 . S
C1764 C1763 1.373 . S
C1765 C1749 1.377 . S
C1765 C1763 1.389 . S
C1765 C1766 1.524 . S
C1766 C1765 1.524 . S
C1766 C1767 1.397 . S
C1766 C1771 1.363 . S
C1767 H1738 0.950 . S
C1767 C1766 1.397 . S
C1767 C1768 1.334 . S
C1768 H1739 0.950 . S
C1768 C1767 1.334 . S
C1768 C1769 1.287 . S
C1769 C1768 1.287 . S
C1769 C1770 1.524 . S
C1769 H1772 0.999 . S
C1770 H1740 0.950 . S
C1770 C1769 1.524 . S
C1770 C1771 1.415 . S
C1771 H1741 0.950 . S
C1771 C1766 1.363 . S
C1771 C1770 1.415 . S
H1772 C1769 0.999 . S
H1773 C1754 0.913 . S
H1774 C1792 0.951 . S
H1775 C1794 0.951 . S
H1776 C1796 0.950 . S
H1777 C1797 0.950 . S
H1778 C1799 0.950 . S
H1779 C1802 0.950 . S
H1780 C1803 0.950 . S
H1781 C1805 0.950 . S
H1782 C1806 0.950 . S
H1783 C1807 0.951 . S
H1784 C1809 0.951 . S
H1785 C1811 0.950 1_565 S
H1786 C1812 0.950 . S
H1787 C1814 0.950 . S
H1788 C1817 0.950 . S
H1789 C1818 0.950 . S
H1790 C1820 0.950 . S
H1791 C1821 0.950 . S
C1792 H1774 0.951 . S
C1792 C1793 1.366 . S
C1792 C1794 1.388 . S
C1793 C1792 1.366 . S
C1793 C1797 1.385 . S
C1794 H1775 0.951 . S
C1794 C1792 1.388 . S
C1794 C1795 1.366 . S
C1795 C1794 1.366 . S
C1795 C1796 1.414 . S
C1795 C1798 1.499 . S
C1796 H1776 0.950 . S
C1796 C1795 1.414 . S
C1796 C1797 1.374 . S
C1797 H1777 0.950 . S
C1797 C1793 1.385 . S
C1797 C1796 1.374 . S
C1798 C1795 1.499 . S
C1798 C1799 1.373 . S
C1798 C1800 1.389 . S
C1799 H1778 0.950 . S
C1799 C1798 1.373 . S
C1799 C1815 1.377 . S
C1800 C1798 1.389 . S
C1800 C1801 1.524 . S
C1800 C1814 1.377 . S
C1801 C1800 1.524 . S
C1801 C1802 1.397 . S
C1801 C1806 1.363 . S
C1802 H1779 0.950 . S
C1802 C1801 1.397 . S
C1802 C1803 1.334 . S
C1803 H1780 0.950 . S
C1803 C1802 1.334 . S
C1803 C1804 1.287 . S
C1804 C1803 1.287 . S
C1804 C1805 1.524 . S
C1804 H1823 0.913 . S
C1805 H1781 0.950 . S
C1805 C1804 1.524 . S
C1805 C1806 1.415 . S
C1806 H1782 0.950 . S
C1806 C1801 1.363 . S
C1806 C1805 1.415 . S
C1807 H1783 0.951 . S
C1807 C1808 1.366 1_545 S
C1807 C1809 1.388 . S
C1808 C1807 1.366 1_565 S
C1808 C1812 1.385 . S
C1809 H1784 0.951 . S
C1809 C1807 1.388 . S
C1809 C1810 1.366 . S
C1810 C1809 1.366 . S
C1810 C1811 1.414 . S
C1810 C1813 1.499 . S
C1811 H1785 0.950 1_545 S
C1811 C1810 1.414 . S
C1811 C1812 1.374 1_545 S
C1812 H1786 0.950 . S
C1812 C1808 1.385 . S
C1812 C1811 1.374 1_565 S
C1813 C1810 1.499 . S
C1813 C1814 1.373 . S
C1813 C1815 1.389 . S
C1814 H1787 0.950 . S
C1814 C1800 1.377 . S
C1814 C1813 1.373 . S
C1815 C1799 1.377 . S
C1815 C1813 1.389 . S
C1815 C1816 1.524 . S
C1816 C1815 1.524 . S
C1816 C1817 1.397 . S
C1816 C1821 1.363 . S
C1817 H1788 0.950 . S
C1817 C1816 1.397 . S
C1817 C1818 1.334 . S
C1818 H1789 0.950 . S
C1818 C1817 1.334 . S
C1818 C1819 1.287 . S
C1819 C1818 1.287 . S
C1819 C1820 1.524 . S
C1819 H1822 0.999 . S
C1820 H1790 0.950 . S
C1820 C1819 1.524 . S
C1820 C1821 1.415 . S
C1821 H1791 0.950 . S
C1821 C1816 1.363 . S
C1821 C1820 1.415 . S
H1822 C1819 0.999 . S
H1823 C1804 0.913 . S
C243 C207 1.483 . S
C258 C11 1.483 . S
C293 C33 1.360 . S
C308 C5 1.360 . S
C343 C165 1.482 . S
C358 C25 1.482 . S
C393 C19 1.359 . S
C408 C103 1.359 . S
C443 C39 1.483 . S
C458 C179 1.483 . S
C493 C137 1.483 . S
C508 C53 1.483 . S
C543 C47 1.360 . S
C558 C75 1.360 . S
C593 C151 1.483 . S
C608 C67 1.483 . S
C643 C61 1.361 . S
C658 C89 1.361 . S
C693 C221 1.483 . S
C708 C81 1.483 . S
C743 C123 1.483 . S
C758 C95 1.483 . S
C793 C193 1.483 . S
C808 C109 1.483 . S
C843 C117 1.359 . S
C858 C145 1.359 . S
C893 C215 1.359 . S
C908 C131 1.359 . S
C943 C159 1.361 . S
C958 C187 1.361 . S
C993 C201 1.360 . S
C1008 C173 1.360 . S
C1043 C74 0.979 . S
C1058 C4 0.980 . S
C1093 C12 1.058 . S
C1108 C82 1.057 . S
C1143 C18 0.980 . S
C1158 C60 0.981 . S
C1193 C68 1.057 . S
C1208 C26 1.057 . S
C1243 C102 0.979 . S
C1258 C32 0.980 . S
C1293 C110 1.057 . S
C1308 C40 1.057 . S
C1343 C88 0.979 . S
C1358 C46 0.979 . S
C1393 C54 1.057 . S
C1408 C96 1.058 . S
C1443 C186 0.979 . S
C1458 C116 0.979 . S
C1493 C124 1.058 . S
C1508 C194 1.057 . S
C1543 C130 0.980 . S
C1558 C172 0.979 . S
C1593 C180 1.057 . S
C1608 C138 1.058 . S
C1643 C214 0.979 . S
C1658 C144 0.980 . S
C1693 C222 1.057 . S
C1708 C152 1.057 . S
C1743 C158 0.981 . S
C1758 C200 0.980 . S
C1793 C208 1.057 . S
C1808 C166 1.057 . S
