# Generated by pormake.
# Topology gan, (5)-cn, num edge types: 1
# Building blocks:
#     Node 0, Type 0, BuildingBlock: XOMCOT_clean_sbu_0, # of connection points: 5
#     Node 1, Type 0, BuildingBlock: XOMCOT_clean_sbu_0, # of connection points: 5
#     Node 2, Type 0, BuildingBlock: XOMCOT_clean_sbu_0, # of connection points: 5
#     Node 3, Type 0, BuildingBlock: XOMCOT_clean_sbu_0, # of connection points: 5
#     Node 4, Type 0, BuildingBlock: XOMCOT_clean_sbu_0, # of connection points: 5
#     Node 5, Type 0, BuildingBlock: XOMCOT_clean_sbu_0, # of connection points: 5
#     Node 6, Type 0, BuildingBlock: XOMCOT_clean_sbu_0, # of connection points: 5
#     Node 7, Type 0, BuildingBlock: XOMCOT_clean_sbu_0, # of connection points: 5
#     Node 8, Type 0, BuildingBlock: XOMCOT_clean_sbu_0, # of connection points: 5
#     Node 9, Type 0, BuildingBlock: XOMCOT_clean_sbu_0, # of connection points: 5
#     Node 10, Type 0, BuildingBlock: XOMCOT_clean_sbu_0, # of connection points: 5
#     Node 11, Type 0, BuildingBlock: XOMCOT_clean_sbu_0, # of connection points: 5
#     Node 12, Type 0, BuildingBlock: XOMCOT_clean_sbu_0, # of connection points: 5
#     Node 13, Type 0, BuildingBlock: XOMCOT_clean_sbu_0, # of connection points: 5
#     Node 14, Type 0, BuildingBlock: XOMCOT_clean_sbu_0, # of connection points: 5
#     Node 15, Type 0, BuildingBlock: XOMCOT_clean_sbu_0, # of connection points: 5
#     Edge 16, Type (0, 0), BuildingBlock: CIFDUS_clean_linker_0, # of connection points: 2
#     Edge 17, Type (0, 0), BuildingBlock: CIFDUS_clean_linker_0, # of connection points: 2
#     Edge 18, Type (0, 0), BuildingBlock: CIFDUS_clean_linker_0, # of connection points: 2
#     Edge 19, Type (0, 0), BuildingBlock: CIFDUS_clean_linker_0, # of connection points: 2
#     Edge 20, Type (0, 0), BuildingBlock: CIFDUS_clean_linker_0, # of connection points: 2
#     Edge 21, Type (0, 0), BuildingBlock: CIFDUS_clean_linker_0, # of connection points: 2
#     Edge 22, Type (0, 0), BuildingBlock: CIFDUS_clean_linker_0, # of connection points: 2
#     Edge 23, Type (0, 0), BuildingBlock: CIFDUS_clean_linker_0, # of connection points: 2
#     Edge 24, Type (0, 0), BuildingBlock: CIFDUS_clean_linker_0, # of connection points: 2
#     Edge 25, Type (0, 0), BuildingBlock: CIFDUS_clean_linker_0, # of connection points: 2
#     Edge 26, Type (0, 0), BuildingBlock: CIFDUS_clean_linker_0, # of connection points: 2
#     Edge 27, Type (0, 0), BuildingBlock: CIFDUS_clean_linker_0, # of connection points: 2
#     Edge 28, Type (0, 0), BuildingBlock: CIFDUS_clean_linker_0, # of connection points: 2
#     Edge 29, Type (0, 0), BuildingBlock: CIFDUS_clean_linker_0, # of connection points: 2
#     Edge 30, Type (0, 0), BuildingBlock: CIFDUS_clean_linker_0, # of connection points: 2
#     Edge 31, Type (0, 0), BuildingBlock: CIFDUS_clean_linker_0, # of connection points: 2
#     Edge 32, Type (0, 0), BuildingBlock: CIFDUS_clean_linker_0, # of connection points: 2
#     Edge 33, Type (0, 0), BuildingBlock: CIFDUS_clean_linker_0, # of connection points: 2
#     Edge 34, Type (0, 0), BuildingBlock: CIFDUS_clean_linker_0, # of connection points: 2
#     Edge 35, Type (0, 0), BuildingBlock: CIFDUS_clean_linker_0, # of connection points: 2
#     Edge 36, Type (0, 0), BuildingBlock: CIFDUS_clean_linker_0, # of connection points: 2
#     Edge 37, Type (0, 0), BuildingBlock: CIFDUS_clean_linker_0, # of connection points: 2
#     Edge 38, Type (0, 0), BuildingBlock: CIFDUS_clean_linker_0, # of connection points: 2
#     Edge 39, Type (0, 0), BuildingBlock: CIFDUS_clean_linker_0, # of connection points: 2
#     Edge 40, Type (0, 0), BuildingBlock: CIFDUS_clean_linker_0, # of connection points: 2
#     Edge 41, Type (0, 0), BuildingBlock: CIFDUS_clean_linker_0, # of connection points: 2
#     Edge 42, Type (0, 0), BuildingBlock: CIFDUS_clean_linker_0, # of connection points: 2
#     Edge 43, Type (0, 0), BuildingBlock: CIFDUS_clean_linker_0, # of connection points: 2
#     Edge 44, Type (0, 0), BuildingBlock: CIFDUS_clean_linker_0, # of connection points: 2
#     Edge 45, Type (0, 0), BuildingBlock: CIFDUS_clean_linker_0, # of connection points: 2
#     Edge 46, Type (0, 0), BuildingBlock: CIFDUS_clean_linker_0, # of connection points: 2
#     Edge 47, Type (0, 0), BuildingBlock: CIFDUS_clean_linker_0, # of connection points: 2
#     Edge 48, Type (0, 0), BuildingBlock: CIFDUS_clean_linker_0, # of connection points: 2
#     Edge 49, Type (0, 0), BuildingBlock: CIFDUS_clean_linker_0, # of connection points: 2
#     Edge 50, Type (0, 0), BuildingBlock: CIFDUS_clean_linker_0, # of connection points: 2
#     Edge 51, Type (0, 0), BuildingBlock: CIFDUS_clean_linker_0, # of connection points: 2
#     Edge 52, Type (0, 0), BuildingBlock: CIFDUS_clean_linker_0, # of connection points: 2
#     Edge 53, Type (0, 0), BuildingBlock: CIFDUS_clean_linker_0, # of connection points: 2
#     Edge 54, Type (0, 0), BuildingBlock: CIFDUS_clean_linker_0, # of connection points: 2
#     Edge 55, Type (0, 0), BuildingBlock: CIFDUS_clean_linker_0, # of connection points: 2
# Relax obj value: 0.089
# Max RMSD: 0.110
# Mean RMSD: 0.099
data_MOF--net-gan--node1-XOMCOT_clean_sbu_0--edge1-CIFDUS_clean_linker_0
_symmetry_space_group_name_H-M    P1
_symmetry_Int_Tables_number       1
_symmetry_cell_setting            triclinic
loop_
_symmetry_equiv_pos_as_xyz
'x, y, z'
_cell_length_a     37.822271
_cell_length_b     38.145556
_cell_length_c     37.26258
_cell_angle_alpha  90.713435
_cell_angle_beta   90.665629
_cell_angle_gamma 91.037806
loop_
_atom_site_label
_atom_site_type_symbol
_atom_site_fract_x
_atom_site_fract_y
_atom_site_fract_z
_atom_type_partial_charge
Co0 Co 0.17888 0.21054 0.19308 0.0
C1 C 0.22 0.25667 0.24375 0.0
C2 C 0.23919 0.26159 0.1901 0.0
C3 C 0.25917 0.28346 0.21265 0.0
N4 N 0.21468 0.24473 0.20966 0.0
N5 N 0.2472 0.2804 0.24656 0.0
H6 H 0.204 0.24817 0.26599 0.0
H7 H 0.24247 0.25813 0.16148 0.0
C8 C 0.21485 0.15853 0.14595 0.0
O9 O 0.19962 0.13283 0.16356 0.0
N10 N 0.14159 0.17664 0.17714 0.0
C11 C 0.1156 0.1635 0.19789 0.0
C12 C 0.0931 0.14268 0.17755 0.0
C13 C 0.13286 0.16473 0.14349 0.0
N14 N 0.10389 0.14302 0.14328 0.0
C15 C 0.17285 0.1733 0.25944 0.0
C16 C 0.23407 0.13582 0.25124 0.0
C17 C 0.20855 0.1241 0.27542 0.0
C18 C 0.17877 0.14457 0.2813 0.0
C19 C 0.22666 0.16445 0.2297 0.0
N20 N 0.19433 0.17973 0.23107 0.0
H21 H 0.15004 0.18919 0.26414 0.0
H22 H 0.24605 0.17276 0.2104 0.0
H23 H 0.11131 0.16999 0.22561 0.0
H24 H 0.14723 0.17193 0.11967 0.0
O25 O 0.14278 0.23681 0.21751 0.0
O26 O 0.15966 0.24389 0.16108 0.0
O27 O 0.21249 0.19022 0.15717 0.0
C28 C 0.13843 0.25229 0.18674 0.0
H29 H 0.28132 0.29977 0.20462 0.0
H30 H 0.06942 0.12965 0.18711 0.0
H31 H 0.25816 0.12149 0.24701 0.0
H32 H 0.15945 0.13738 0.30128 0.0
Co33 Co 0.19249 0.87245 0.35775 0.0
C34 C 0.13522 0.91315 0.3986 0.0
C35 C 0.1803 0.90188 0.43135 0.0
C36 C 0.15659 0.92027 0.45178 0.0
N37 N 0.16721 0.89671 0.39779 0.0
N38 N 0.12797 0.92767 0.43155 0.0
H39 H 0.11769 0.91462 0.37554 0.0
H40 H 0.20583 0.89353 0.44075 0.0
C41 C 0.23597 0.82681 0.41003 0.0
O42 O 0.22024 0.79644 0.40322 0.0
N43 N 0.21832 0.84874 0.31739 0.0
C44 C 0.21309 0.85538 0.28211 0.0
C45 C 0.2326 0.83296 0.26126 0.0
C46 C 0.24259 0.82231 0.31683 0.0
N47 N 0.25134 0.81197 0.28272 0.0
C48 C 0.14472 0.82105 0.32909 0.0
C49 C 0.11804 0.79827 0.39355 0.0
C50 C 0.1016 0.78679 0.36135 0.0
C51 C 0.11644 0.79734 0.3289 0.0
C52 C 0.14727 0.82129 0.39249 0.0
N53 N 0.15975 0.83295 0.36047 0.0
H54 H 0.15299 0.83139 0.30377 0.0
H55 H 0.15864 0.83111 0.41745 0.0
H56 H 0.19538 0.87472 0.27158 0.0
H57 H 0.25342 0.81048 0.34061 0.0
O58 O 0.16638 0.9007 0.32433 0.0
O59 O 0.21838 0.91494 0.34951 0.0
O60 O 0.2271 0.85427 0.39344 0.0
C61 C 0.19204 0.92372 0.32904 0.0
H62 H 0.16089 0.92867 0.47936 0.0
H63 H 0.23341 0.83254 0.23222 0.0
H64 H 0.1074 0.79119 0.41936 0.0
H65 H 0.10532 0.78871 0.30331 0.0
Co66 Co 0.40739 0.86715 0.6315 0.0
C67 C 0.36323 0.82515 0.68444 0.0
C68 C 0.35735 0.80698 0.63004 0.0
C69 C 0.33747 0.78546 0.65167 0.0
N70 N 0.3734 0.83222 0.65023 0.0
N71 N 0.34089 0.7966 0.68611 0.0
H72 H 0.37232 0.8404 0.70753 0.0
H73 H 0.36083 0.80358 0.60147 0.0
C74 C 0.3631 0.89367 0.57029 0.0
O75 O 0.36734 0.92603 0.5823 0.0
N76 N 0.44322 0.9013 0.61175 0.0
C77 C 0.47325 0.91166 0.6293 0.0
C78 C 0.49371 0.93265 0.60785 0.0
C79 C 0.44723 0.91592 0.5785 0.0
N80 N 0.4777 0.93563 0.57563 0.0
C81 C 0.40062 0.92722 0.6762 0.0
C82 C 0.32763 0.92991 0.67579 0.0
C83 C 0.34738 0.95394 0.69695 0.0
C84 C 0.38419 0.95244 0.69688 0.0
C85 C 0.34538 0.90523 0.65467 0.0
N86 N 0.38156 0.90449 0.65475 0.0
H87 H 0.42877 0.92517 0.67883 0.0
H88 H 0.3301 0.88628 0.63888 0.0
H89 H 0.48059 0.90434 0.65624 0.0
H90 H 0.4292 0.91131 0.55624 0.0
O91 O 0.43845 0.85713 0.67094 0.0
O92 O 0.43787 0.82967 0.61786 0.0
O93 O 0.37812 0.8685 0.58619 0.0
C94 C 0.45145 0.8332 0.65007 0.0
H95 H 0.32271 0.76241 0.64257 0.0
H96 H 0.51859 0.94503 0.61581 0.0
H97 H 0.299 0.93021 0.67564 0.0
H98 H 0.4002 0.97005 0.71366 0.0
Co99 Co 0.30988 0.15113 0.8933 0.0
C100 C 0.26675 0.20659 0.85041 0.0
C101 C 0.24415 0.15484 0.85028 0.0
C102 C 0.22287 0.1759 0.82972 0.0
N103 N 0.27231 0.17347 0.86321 0.0
N104 N 0.23681 0.20866 0.82948 0.0
H105 H 0.28406 0.22882 0.85561 0.0
H106 H 0.23949 0.12727 0.85523 0.0
C107 C 0.31505 0.11975 0.82153 0.0
O108 O 0.31438 0.15244 0.81086 0.0
N109 N 0.34608 0.12854 0.92432 0.0
C110 C 0.36587 0.14669 0.94878 0.0
C111 C 0.38635 0.12406 0.96825 0.0
C112 C 0.35557 0.09439 0.92932 0.0
N113 N 0.38019 0.09096 0.95639 0.0
C114 C 0.34994 0.21384 0.87886 0.0
C115 C 0.40736 0.18019 0.84995 0.0
C116 C 0.40951 0.21642 0.85611 0.0
C117 C 0.38014 0.2334 0.87021 0.0
C118 C 0.37663 0.16171 0.85874 0.0
N119 N 0.34801 0.17858 0.87232 0.0
H120 H 0.3291 0.2268 0.89304 0.0
H121 H 0.37674 0.13347 0.85653 0.0
H122 H 0.36531 0.17483 0.95253 0.0
H123 H 0.3443 0.07252 0.91405 0.0
O124 O 0.2994 0.18248 0.93206 0.0
O125 O 0.27332 0.13045 0.923 0.0
O126 O 0.31401 0.11303 0.85515 0.0
C127 C 0.27707 0.15877 0.94279 0.0
H128 H 0.19844 0.16766 0.81647 0.0
H129 H 0.40498 0.13162 0.98936 0.0
H130 H 0.42972 0.16602 0.83967 0.0
H131 H 0.38129 0.26118 0.87663 0.0
Co132 Co 0.69943 0.38081 0.85248 0.0
C133 C 0.64443 0.42045 0.89633 0.0
C134 C 0.6943 0.4165 0.92357 0.0
C135 C 0.67215 0.4364 0.94447 0.0
N136 N 0.67721 0.40612 0.89324 0.0
N137 N 0.64053 0.43932 0.9276 0.0
H138 H 0.62422 0.41788 0.87563 0.0
H139 H 0.72152 0.41076 0.92992 0.0
C140 C 0.76326 0.35973 0.88783 0.0
O141 O 0.77867 0.37434 0.86023 0.0
N142 N 0.72184 0.35545 0.81134 0.0
C143 C 0.72611 0.3682 0.77801 0.0
C144 C 0.74284 0.34397 0.7567 0.0
C145 C 0.73619 0.32268 0.80914 0.0
N146 N 0.74967 0.31503 0.7759 0.0
C147 C 0.64271 0.34 0.82342 0.0
C148 C 0.62532 0.306 0.88616 0.0
C149 C 0.60374 0.30098 0.85557 0.0
C150 C 0.61309 0.31781 0.82375 0.0
C151 C 0.65472 0.32859 0.8847 0.0
N152 N 0.66267 0.34544 0.85369 0.0
H153 H 0.64922 0.35369 0.79907 0.0
H154 H 0.67028 0.33362 0.90879 0.0
H155 H 0.71749 0.3935 0.76909 0.0
H156 H 0.73704 0.30496 0.83157 0.0
O157 O 0.67725 0.41385 0.82061 0.0
O158 O 0.7303 0.42077 0.84615 0.0
O159 O 0.72978 0.35509 0.88741 0.0
C160 C 0.70522 0.43363 0.82659 0.0
H161 H 0.67913 0.4478 0.97037 0.0
H162 H 0.74886 0.34753 0.72867 0.0
H163 H 0.6187 0.29376 0.91135 0.0
H164 H 0.59731 0.31431 0.79948 0.0
Co165 Co 0.90782 0.36569 0.13014 0.0
C166 C 0.8617 0.32219 0.17971 0.0
C167 C 0.84898 0.3134 0.12409 0.0
C168 C 0.82684 0.29268 0.14437 0.0
N169 N 0.87075 0.33237 0.14601 0.0
N170 N 0.83466 0.29796 0.17946 0.0
H171 H 0.87464 0.33225 0.20386 0.0
H172 H 0.84951 0.31385 0.09513 0.0
C173 C 0.86994 0.39982 0.06932 0.0
O174 O 0.87752 0.43071 0.0837 0.0
N175 N 0.94645 0.39837 0.11355 0.0
C176 C 0.97536 0.40825 0.13324 0.0
C177 C 0.99744 0.42927 0.11343 0.0
C178 C 0.95335 0.41236 0.08057 0.0
N179 N 0.98375 0.4323 0.08017 0.0
C180 C 0.90294 0.4231 0.17813 0.0
C181 C 0.83045 0.43085 0.17497 0.0
C182 C 0.85063 0.45059 0.20002 0.0
C183 C 0.88733 0.44731 0.2004 0.0
C184 C 0.84752 0.40698 0.15229 0.0
N185 N 0.88346 0.40341 0.1542 0.0
H186 H 0.93057 0.41883 0.18206 0.0
H187 H 0.83179 0.39049 0.13424 0.0
H188 H 0.98114 0.39999 0.16026 0.0
H189 H 0.93723 0.40746 0.05692 0.0
O190 O 0.93646 0.35211 0.17013 0.0
O191 O 0.93688 0.32709 0.11578 0.0
O192 O 0.88073 0.37191 0.08401 0.0
C193 C 0.94935 0.32879 0.14857 0.0
H194 H 0.80726 0.27409 0.13387 0.0
H195 H 0.0226 0.44025 0.12256 0.0
H196 H 0.80192 0.43271 0.17404 0.0
H197 H 0.90397 0.46231 0.21908 0.0
Co198 Co 0.80767 0.6495 0.39143 0.0
C199 C 0.76482 0.70071 0.34681 0.0
C200 C 0.74919 0.64701 0.33794 0.0
C201 C 0.72892 0.66782 0.316 0.0
N202 N 0.77196 0.66734 0.35734 0.0
N203 N 0.73852 0.7018 0.32125 0.0
H204 H 0.77887 0.72362 0.35735 0.0
H205 H 0.74732 0.61875 0.3396 0.0
C206 C 0.84298 0.59096 0.35359 0.0
O207 O 0.87335 0.60166 0.36768 0.0
N208 N 0.84325 0.63132 0.42673 0.0
C209 C 0.8651 0.65117 0.44787 0.0
C210 C 0.8843 0.63019 0.47037 0.0
C211 C 0.84895 0.5979 0.43851 0.0
N212 N 0.87461 0.59637 0.46473 0.0
C213 C 0.85578 0.7075 0.3859 0.0
C214 C 0.88867 0.68618 0.32382 0.0
C215 C 0.90461 0.71225 0.34559 0.0
C216 C 0.88682 0.72434 0.37572 0.0
C217 C 0.85736 0.66988 0.33524 0.0
N218 N 0.84364 0.67816 0.36803 0.0
H219 H 0.84292 0.71694 0.40968 0.0
H220 H 0.84522 0.64979 0.31836 0.0
H221 H 0.86667 0.67935 0.44832 0.0
H222 H 0.83454 0.57516 0.42807 0.0
O223 O 0.7935 0.68269 0.42686 0.0
O224 O 0.77125 0.62869 0.42061 0.0
O225 O 0.81486 0.60814 0.35866 0.0
C226 C 0.77364 0.65768 0.43937 0.0
H227 H 0.7081 0.65841 0.298 0.0
H228 H 0.90426 0.63955 0.48936 0.0
H229 H 0.90115 0.67735 0.29938 0.0
H230 H 0.89775 0.74557 0.39225 0.0
Co231 Co 0.90393 0.9619 0.96651 0.0
C232 C 0.95915 1.00298 1.00841 0.0
C233 C 0.93696 0.03217 0.96507 0.0
C234 C 0.96145 0.05322 0.98302 0.0
N235 N 0.93559 1.0006 0.98077 0.0
N236 N 0.97554 0.035 1.01037 0.0
H237 H 0.96397 0.98175 0.02672 0.0
H238 H 0.92059 0.03973 0.94259 0.0
C239 C 0.91945 0.9579 0.88756 0.0
O240 O 0.9227 0.92372 0.88962 0.0
N241 N 0.87051 0.92336 0.95233 0.0
C242 C 0.85686 0.89899 0.97462 0.0
C243 C 0.83281 0.87786 0.95631 0.0
C244 C 0.85265 0.91728 0.92085 0.0
N245 N 0.83019 0.8891 0.92232 0.0
C246 C 0.94222 0.89965 0.98188 0.0
C247 C 0.99712 0.91316 0.93552 0.0
C248 C 0.99233 0.87906 0.94864 0.0
C249 C 0.96588 0.8732 0.97403 0.0
C250 C 0.97307 0.93903 0.94469 0.0
N251 N 0.94396 0.93079 0.96445 0.0
H252 H 0.92184 0.89459 1.00109 0.0
H253 H 0.97616 0.96482 0.9333 0.0
H254 H 0.86316 0.89677 1.00283 0.0
H255 H 0.85495 0.9336 0.89751 0.0
O256 O 0.8915 0.95563 1.01589 0.0
O257 O 0.86379 0.99019 0.97757 0.0
O258 O 0.91034 0.97587 0.91499 0.0
C259 C 0.8656 0.97678 1.00953 0.0
H260 H 0.96737 0.08038 0.97709 0.0
H261 H 0.81875 0.85552 0.96719 0.0
H262 H 1.01782 0.91938 0.9167 0.0
H263 H 0.96274 0.84806 0.98691 0.0
Co264 Co 0.91517 0.10043 0.60146 0.0
C265 C 0.87047 0.15345 0.64244 0.0
C266 C 0.86332 0.10162 0.66252 0.0
C267 C 0.84359 0.12443 0.68293 0.0
N268 N 0.88111 0.11956 0.63729 0.0
N269 N 0.84809 0.15747 0.67088 0.0
H270 H 0.87998 0.1749 0.62625 0.0
H271 H 0.86412 0.07368 0.66623 0.0
C272 C 0.95353 0.15844 0.64112 0.0
O273 O 0.93975 0.14775 0.67138 0.0
N274 N 0.94869 0.0826 0.56498 0.0
C275 C 0.95864 0.10118 0.53616 0.0
C276 C 0.98135 0.08176 0.51545 0.0
C277 C 0.96628 0.05166 0.56123 0.0
N278 N 0.98647 0.05041 0.53087 0.0
C279 C 0.91891 0.03912 0.64401 0.0
C280 C 0.97852 0.0573 0.6839 0.0
C281 C 0.95828 0.02782 0.6934 0.0
C282 C 0.92931 1.0178 0.67197 0.0
C283 C 0.96783 0.07732 0.65455 0.0
N284 N 0.93647 0.06991 0.63715 0.0
H285 H 0.89528 0.03146 0.62938 0.0
H286 H 0.98448 0.09901 0.6467 0.0
H287 H 0.95005 0.12746 0.53054 0.0
H288 H 0.96422 0.03042 0.5801 0.0
O289 O 0.87937 0.06828 0.58329 0.0
O290 O 0.88759 0.12243 0.56399 0.0
O291 O 0.94862 0.1409 0.612 0.0
C292 C 0.86975 0.09294 0.56192 0.0
H293 H 0.82698 0.11675 0.705 0.0
H294 H 0.99388 0.09065 0.49115 0.0
H295 H 1.00171 0.06521 0.69952 0.0
H296 H 0.91317 0.99502 0.6784 0.0
Co297 Co 0.65246 0.11991 0.37665 0.0
C298 C 0.69407 0.16711 0.325 0.0
C299 C 0.72583 0.12932 0.35161 0.0
C300 C 0.74746 0.14969 0.33052 0.0
N301 N 0.69218 0.14026 0.34894 0.0
N302 N 0.72774 0.17367 0.3137 0.0
H303 H 0.6716 0.18176 0.31597 0.0
H304 H 0.73441 0.10759 0.36757 0.0
C305 C 0.70274 0.09188 0.42967 0.0
O306 O 0.69874 0.06125 0.41351 0.0
N307 N 0.61296 0.09937 0.40442 0.0
C308 C 0.57917 0.10974 0.40171 0.0
C309 C 0.55792 0.0889 0.42281 0.0
C310 C 0.61146 0.07176 0.42743 0.0
N311 N 0.57792 0.06471 0.43916 0.0
C312 C 0.61999 0.18569 0.36605 0.0
C313 C 0.62585 0.21004 0.4361 0.0
C314 C 0.60661 0.22906 0.411 0.0
C315 C 0.60431 0.21705 0.37552 0.0
C316 C 0.64097 0.17845 0.42558 0.0
N317 N 0.63772 0.16649 0.39089 0.0
H318 H 0.61625 0.1761 0.33892 0.0
H319 H 0.65343 0.16303 0.44602 0.0
H320 H 0.57031 0.13096 0.38509 0.0
H321 H 0.63419 0.05667 0.43491 0.0
O322 O 0.6243 0.11434 0.33364 0.0
O323 O 0.66066 0.07451 0.35477 0.0
O324 O 0.68499 0.11791 0.41916 0.0
C325 C 0.63769 0.08346 0.33044 0.0
H326 H 0.77561 0.14644 0.32719 0.0
H327 H 0.52973 0.0918 0.42605 0.0
H328 H 0.62723 0.21835 0.464 0.0
H329 H 0.58904 0.23099 0.35566 0.0
Co330 Co 0.57025 0.90299 0.1335 0.0
C331 C 0.61639 0.85122 0.17631 0.0
C332 C 0.59456 0.89157 0.20902 0.0
C333 C 0.61412 0.87003 0.23063 0.0
N334 N 0.59637 0.88086 0.17439 0.0
N335 N 0.62821 0.84446 0.21041 0.0
H336 H 0.62172 0.8345 0.15344 0.0
H337 H 0.57866 0.9127 0.21889 0.0
C338 C 0.55102 0.9757 0.16669 0.0
O339 O 0.53522 0.98882 0.13856 0.0
N340 N 0.54363 0.92409 0.09267 0.0
C341 C 0.55583 0.92529 0.05882 0.0
C342 C 0.53239 0.94294 0.03716 0.0
C343 C 0.51152 0.94007 0.09029 0.0
N344 N 0.5045 0.95294 0.05679 0.0
C345 C 0.64195 0.90339 0.1099 0.0
C346 C 0.6478 0.97465 0.09788 0.0
C347 C 0.67712 0.95361 0.09209 0.0
C348 C 0.67395 0.91753 0.09812 0.0
C349 C 0.61641 0.95948 0.11005 0.0
N350 N 0.61393 0.92436 0.11663 0.0
H351 H 0.63952 0.87542 0.11282 0.0
H352 H 0.5939 0.97594 0.11277 0.0
H353 H 0.58087 0.91486 0.05046 0.0
H354 H 0.49397 0.94302 0.11282 0.0
O355 O 0.57187 0.85971 0.10708 0.0
O356 O 0.52976 0.87418 0.14538 0.0
O357 O 0.56315 0.94467 0.16635 0.0
C358 C 0.5437 0.85053 0.12451 0.0
H359 H 0.61633 0.87226 0.25955 0.0
H360 H 0.53656 0.9494 1.00931 0.0
H361 H 0.64901 1.00255 0.09279 0.0
H362 H 0.69567 0.90018 0.0927 0.0
Co363 Co 0.43063 0.61932 0.09599 0.0
C364 C 0.3812 0.65735 0.14964 0.0
C365 C 0.41778 0.6912 0.12285 0.0
C366 C 0.39836 0.71119 0.1462 0.0
N367 N 0.40815 0.65706 0.12525 0.0
N368 N 0.37514 0.69031 0.16325 0.0
H369 H 0.36635 0.63413 0.15719 0.0
H370 H 0.43729 0.70139 0.10458 0.0
C371 C 0.50593 0.64705 0.10956 0.0
O372 O 0.51738 0.61849 0.12479 0.0
N373 N 0.45327 0.58235 0.06505 0.0
C374 C 0.43549 0.55489 0.04959 0.0
C375 C 0.45794 0.53487 0.02945 0.0
C376 C 0.48716 0.57817 0.05288 0.0
N377 N 0.49076 0.54914 0.03109 0.0
C378 C 0.4362 0.55969 0.14056 0.0
C379 C 0.46172 0.59456 0.2012 0.0
C380 C 0.45463 0.55839 0.20271 0.0
C381 C 0.44197 0.54095 0.17178 0.0
C382 C 0.45575 0.61234 0.1692 0.0
N383 N 0.4436 0.59476 0.13924 0.0
H384 H 0.42428 0.54612 0.11788 0.0
H385 H 0.46037 0.64034 0.16867 0.0
H386 H 0.40778 0.54882 0.05307 0.0
H387 H 0.50874 0.59617 0.05906 0.0
O388 O 0.38476 0.59776 0.08807 0.0
O389 O 0.40937 0.63898 0.05398 0.0
O390 O 0.47486 0.64875 0.09633 0.0
C391 C 0.38254 0.61831 0.06055 0.0
H392 H 0.4002 0.73943 0.14931 0.0
H393 H 0.45045 0.51089 1.0153 0.0
H394 H 0.47121 0.60907 0.22467 0.0
H395 H 0.43489 0.51331 0.17212 0.0
Co396 Co 0.17207 0.61394 0.8924 0.0
C397 C 0.12054 0.57493 0.94149 0.0
C398 C 0.13753 0.54457 0.89634 0.0
C399 C 0.11473 0.52425 0.91609 0.0
N400 N 0.14116 0.57661 0.9117 0.0
N401 N 0.10376 0.54303 0.94464 0.0
H402 H 0.11795 0.59647 0.9604 0.0
H403 H 0.15129 0.53605 0.87264 0.0
C404 C 0.14496 0.60842 0.81445 0.0
O405 O 0.13729 0.64175 0.81172 0.0
N406 N 0.20414 0.65104 0.87246 0.0
C407 C 0.22247 0.67523 0.89234 0.0
C408 C 0.24229 0.69645 0.87052 0.0
C409 C 0.21464 0.65784 0.83814 0.0
N410 N 0.23764 0.68586 0.83614 0.0
C411 C 0.14012 0.67582 0.9162 0.0
C412 C 0.07604 0.66845 0.8805 0.0
C413 C 0.08401 0.69976 0.89947 0.0
C414 C 0.11591 0.70237 0.91865 0.0
C415 C 0.10128 0.64185 0.87923 0.0
N416 N 0.13377 0.64696 0.89508 0.0
H417 H 0.16413 0.6787 0.93169 0.0
H418 H 0.09493 0.61759 0.86512 0.0
H419 H 0.22205 0.67765 0.92119 0.0
H420 H 0.20662 0.64215 0.81511 0.0
O421 O 0.19147 0.6224 0.93948 0.0
O422 O 0.21269 0.58454 0.89984 0.0
O423 O 0.15875 0.5965 0.84308 0.0
C424 C 0.21537 0.59979 0.93127 0.0
H425 H 0.10781 0.49707 0.91043 0.0
H426 H 0.25861 0.71841 0.8797 0.0
H427 H 0.05102 0.6648 0.86641 0.0
H428 H 0.12231 0.7249 0.93564 0.0
Co429 Co 0.05881 0.40496 0.64694 0.0
C430 C 0.10914 0.35656 0.68767 0.0
C431 C 0.08983 0.39838 0.7204 0.0
C432 C 0.1113 0.37772 0.74125 0.0
N433 N 0.08858 0.38576 0.68643 0.0
N434 N 0.12362 0.35112 0.72102 0.0
H435 H 0.11304 0.33938 0.66479 0.0
H436 H 0.07515 0.42056 0.73002 0.0
C437 C 0.06521 0.48234 0.66095 0.0
O438 O 0.07089 0.48705 0.62661 0.0
N439 N 0.02736 0.42321 0.60766 0.0
C440 C 0.01962 0.40607 0.57649 0.0
C441 C 0.9969 0.42539 0.55579 0.0
C442 C 1.00668 0.45237 0.60569 0.0
N443 N 0.98864 0.45497 0.57373 0.0
C444 C 0.10604 0.4095 0.58692 0.0
C445 C 0.15843 0.44782 0.62286 0.0
C446 C 0.1625 0.44013 0.58632 0.0
C447 C 0.13606 0.42031 0.56842 0.0
C448 C 0.128 0.43651 0.64027 0.0
N449 N 0.10149 0.41898 0.62195 0.0
H450 H 0.08699 0.39286 0.57316 0.0
H451 H 0.12558 0.44228 0.66852 0.0
H452 H 0.02938 0.38063 0.56891 0.0
H453 H 1.00408 0.47106 0.62744 0.0
O454 O 0.05359 0.35852 0.62759 0.0
O455 O 1.01805 0.3823 0.66793 0.0
O456 O 0.05819 0.45172 0.67298 0.0
C457 C 0.02651 0.35507 0.6485 0.0
H458 H 0.11612 0.38126 0.76976 0.0
H459 H 0.98759 0.418 0.52917 0.0
H460 H 0.17848 0.46262 0.63787 0.0
H461 H 0.13896 0.41245 0.54058 0.0
Co462 Co 0.65029 0.69036 0.7398 0.0
C463 C 0.60027 0.65624 0.68581 0.0
C464 C 0.58792 0.64339 0.74021 0.0
C465 C 0.56433 0.62585 0.71769 0.0
N466 N 0.61072 0.66219 0.72035 0.0
N467 N 0.57209 0.63367 0.68339 0.0
H468 H 0.61355 0.66752 0.663 0.0
H469 H 0.58844 0.64246 0.7692 0.0
C470 C 0.6882 0.63561 0.78099 0.0
O471 O 0.71822 0.64767 0.76847 0.0
N472 N 0.6901 0.71905 0.76022 0.0
C473 C 0.72441 0.71864 0.75024 0.0
C474 C 0.74363 0.74317 0.76967 0.0
C475 C 0.68958 0.74412 0.78662 0.0
N476 N 0.72195 0.75944 0.79255 0.0
C477 C 0.69242 0.69379 0.67863 0.0
C478 C 0.69546 0.62271 0.66374 0.0
C479 C 0.70858 0.64677 0.63883 0.0
C480 C 0.70695 0.68263 0.64683 0.0
C481 C 0.6809 0.6352 0.6958 0.0
N482 N 0.6799 0.67046 0.70298 0.0
H483 H 0.69058 0.72167 0.68341 0.0
H484 H 0.66843 0.61668 0.71356 0.0
H485 H 0.73585 0.70101 0.73096 0.0
H486 H 0.66608 0.75125 0.80106 0.0
O487 O 0.63515 0.72899 0.71252 0.0
O488 O 0.61609 0.71716 0.76716 0.0
O489 O 0.65952 0.65142 0.77424 0.0
C490 C 0.61352 0.73589 0.73814 0.0
H491 H 0.5428 0.60893 0.72613 0.0
H492 H 0.77188 0.74784 0.76791 0.0
H493 H 0.69548 0.5948 0.65808 0.0
H494 H 0.7154 0.70233 0.6279 0.0
Co495 Co 0.40046 0.46402 0.46846 0.0
C496 C 0.4424 0.50623 0.52243 0.0
C497 C 0.42076 0.53822 0.48094 0.0
C498 C 0.44022 0.5594 0.50439 0.0
N499 N 0.42223 0.50488 0.49214 0.0
N500 N 0.45395 0.53934 0.53054 0.0
H501 H 0.44884 0.48331 0.53784 0.0
H502 H 0.40646 0.54661 0.45735 0.0
C503 C 0.42539 0.47061 0.39271 0.0
O504 O 0.43336 0.43721 0.39227 0.0
N505 N 0.37758 0.42279 0.44442 0.0
C506 C 0.37163 0.39107 0.45909 0.0
C507 C 0.35317 0.36979 0.43514 0.0
C508 C 0.36085 0.42039 0.41182 0.0
N509 N 0.34633 0.38798 0.40515 0.0
C510 C 0.44729 0.41233 0.4948 0.0
C511 C 0.50538 0.43136 0.45474 0.0
C512 C 0.50502 0.39925 0.47252 0.0
C513 C 0.47663 0.39105 0.49475 0.0
C514 C 0.47534 0.4522 0.45601 0.0
N515 N 0.44541 0.44037 0.4726 0.0
H516 H 0.42572 0.40553 0.51208 0.0
H517 H 0.47567 0.47696 0.44227 0.0
H518 H 0.37879 0.38372 0.48598 0.0
H519 H 0.35863 0.44212 0.39362 0.0
O520 O 0.3806 0.45016 0.51339 0.0
O521 O 0.35432 0.48412 0.47352 0.0
O522 O 0.41254 0.48473 0.42078 0.0
C523 C 0.35312 0.46801 0.50412 0.0
H524 H 0.44342 0.58756 0.50255 0.0
H525 H 0.34552 0.34276 0.43969 0.0
H526 H 0.52752 0.43915 0.43828 0.0
H527 H 0.47626 0.36723 0.51031 0.0
H528 H 0.28829 0.34015 0.25172 0.0
H529 H 0.23882 0.25977 0.31565 0.0
H530 H 0.26335 0.28711 0.36998 0.0
H531 H 0.30006 0.33265 0.39984 0.0
H532 H 0.35172 0.41217 0.33678 0.0
H533 H 0.32489 0.38661 0.2821 0.0
C534 C 0.28292 0.32839 0.27743 0.0
C535 C 0.26143 0.29759 0.279 0.0
C536 C 0.29752 0.34423 0.30903 0.0
C537 C 0.25467 0.28346 0.31305 0.0
C538 C 0.26895 0.29906 0.34437 0.0
C539 C 0.30579 0.34445 0.37423 0.0
C540 C 0.32836 0.3744 0.37286 0.0
C541 C 0.2906 0.32929 0.34273 0.0
C542 C 0.33442 0.38943 0.33909 0.0
C543 C 0.31921 0.37458 0.30764 0.0
H544 H 1.00608 0.03698 0.46141 0.0
H545 H 0.02189 1.00175 0.56983 0.0
H546 H 0.06576 0.95997 0.5486 0.0
H547 H 0.10207 0.93494 0.49961 0.0
H548 H 0.08581 0.96957 0.39106 0.0
H549 H 0.03998 1.00948 0.41186 0.0
C550 C 1.01903 1.02025 0.48059 0.0
C551 C 1.01038 1.02321 0.51763 0.0
C552 C 0.04447 0.99595 0.46802 0.0
C553 C 0.0274 1.00038 0.54142 0.0
C554 C 0.05282 0.97648 0.52918 0.0
C555 C 0.0886 0.95114 0.48031 0.0
C556 C 0.09813 0.94901 0.44345 0.0
C557 C 0.06197 0.97425 0.49261 0.0
C558 C 0.07939 0.97008 0.41929 0.0
C559 C 0.05316 0.99323 0.43135 0.0
H560 H 0.29455 0.73147 0.83435 0.0
H561 H 0.21716 0.6786 0.76575 0.0
H562 H 0.24189 0.70835 0.71373 0.0
H563 H 0.28448 0.75049 0.68755 0.0
H564 H 0.36146 0.80356 0.75642 0.0
H565 H 0.33693 0.77355 0.80831 0.0
C566 C 0.28261 0.72641 0.80824 0.0
C567 C 0.25349 0.70243 0.80468 0.0
C568 C 0.29676 0.74411 0.77822 0.0
C569 C 0.23951 0.69634 0.7699 0.0
C570 C 0.2536 0.71367 0.73996 0.0
C571 C 0.29631 0.75548 0.71373 0.0
C572 C 0.32529 0.7796 0.71742 0.0
C573 C 0.28214 0.73774 0.74375 0.0
C574 C 0.33923 0.78569 0.7522 0.0
C575 C 0.32525 0.76822 0.78207 0.0
H576 H 0.39991 0.07783 0.02553 0.0
H577 H 0.40279 0.03406 0.91854 0.0
H578 H 0.44031 0.98659 0.9402 0.0
H579 H 0.47587 0.95932 0.98918 0.0
H580 H 0.47077 1.00225 0.09652 0.0
H581 H 0.43076 0.04754 0.07534 0.0
C582 C 0.40845 0.05777 1.00689 0.0
C583 C 0.39836 0.06003 0.97008 0.0
C584 C 0.42997 0.03022 1.01974 0.0
C585 C 0.40962 0.03323 0.9468 0.0
C586 C 0.43141 1.0061 0.95928 0.0
C587 C 0.46584 0.97837 1.00811 0.0
C588 C 0.47693 0.977 0.04475 0.0
C589 C 0.44232 1.00455 0.99561 0.0
C590 C 0.46291 1.00202 0.0685 0.0
C591 C 0.44006 0.02826 0.05622 0.0
H592 H 0.38417 0.73152 0.22294 0.0
H593 H 0.30403 0.68133 0.15635 0.0
H594 H 0.25802 0.7134 0.18851 0.0
H595 H 0.2408 0.76023 0.23239 0.0
H596 H 0.32045 0.80698 0.30211 0.0
H597 H 0.36598 0.77194 0.27265 0.0
C598 C 0.35653 0.72691 0.21608 0.0
C599 C 0.34777 0.70351 0.18718 0.0
C600 C 0.33001 0.74528 0.23526 0.0
C601 C 0.31171 0.69841 0.17863 0.0
C602 C 0.28536 0.71716 0.1969 0.0
C603 C 0.26803 0.76218 0.24167 0.0
C604 C 0.27695 0.78641 0.26981 0.0
C605 C 0.29416 0.74125 0.22482 0.0
C606 C 0.31254 0.78847 0.28113 0.0
C607 C 0.33869 0.76853 0.26394 0.0
H608 H 0.54623 0.95543 0.56234 0.0
H609 H 0.43989 0.96435 0.52078 0.0
H610 H 0.46156 1.00395 0.47424 0.0
H611 H 0.51037 0.03829 0.4467 0.0
H612 H 0.61643 0.02997 0.48939 0.0
H613 H 0.59513 0.98815 0.53375 0.0
C614 C 0.52752 0.96602 0.54333 0.0
C615 C 0.49103 0.95673 0.54581 0.0
C616 C 0.54023 0.98919 0.51664 0.0
C617 C 0.46791 0.9705 0.51988 0.0
C618 C 0.48038 0.99348 0.49326 0.0
C619 C 0.52902 0.02762 0.46571 0.0
C620 C 0.56533 0.03806 0.46436 0.0
C621 C 0.51643 1.00343 0.4916 0.0
C622 C 0.58863 1.02278 0.48917 0.0
C623 C 0.57631 0.99882 0.51485 0.0
H624 H 0.19491 0.20885 0.76888 0.0
H625 H 0.24273 0.27777 0.84895 0.0
H626 H 0.21306 0.32779 0.82196 0.0
H627 H 0.17133 0.35217 0.77695 0.0
H628 H 0.12443 0.28349 0.69615 0.0
H629 H 0.15583 0.23381 0.72178 0.0
C630 C 0.19895 0.23475 0.7806 0.0
C631 C 0.22122 0.23897 0.81152 0.0
C632 C 0.18175 0.26376 0.76464 0.0
C633 C 0.22622 0.27325 0.82537 0.0
C634 C 0.20896 0.30201 0.80992 0.0
C635 C 0.16788 0.32638 0.76478 0.0
C636 C 0.14493 0.32204 0.7344 0.0
C637 C 0.18632 0.29764 0.77976 0.0
C638 C 0.14175 0.28817 0.7191 0.0
C639 C 0.15967 0.25953 0.73403 0.0
H640 H 0.06564 0.08268 0.14606 0.0
H641 H 0.10179 0.16208 0.07304 0.0
H642 H 0.06659 0.13426 0.02449 0.0
H643 H 0.02264 0.08933 1.00387 0.0
H644 H 0.98535 1.01143 0.07823 0.0
H645 H 0.02396 0.03666 0.12501 0.0
C646 C 0.06579 0.09409 0.11959 0.0
C647 C 0.08606 0.1249 0.11351 0.0
C648 C 0.04513 0.0782 0.09199 0.0
C649 C 0.0866 0.1385 0.07863 0.0
C650 C 0.06623 0.12267 0.05089 0.0
C651 C 0.02276 0.07785 0.0303 0.0
C652 C 1.00056 0.04849 0.03732 0.0
C653 C 0.04488 0.09285 0.05742 0.0
C654 C 1.00204 0.03371 0.07169 0.0
C655 C 0.02404 0.04834 0.09865 0.0
H656 H 0.81134 0.16556 0.73426 0.0
H657 H 0.84928 0.22381 0.64329 0.0
H658 H 0.82345 0.2769 0.66801 0.0
H659 H 0.78951 0.30746 0.71485 0.0
H660 H 0.7504 0.24945 0.80534 0.0
H661 H 0.77744 0.19633 0.78141 0.0
C662 C 0.814 0.18957 0.71935 0.0
C663 C 0.8326 0.1896 0.68617 0.0
C664 C 0.79874 0.22059 0.73384 0.0
C665 C 0.83556 0.22201 0.66851 0.0
C666 C 0.82056 0.25273 0.68276 0.0
C667 C 0.78636 0.28334 0.72952 0.0
C668 C 0.76712 0.28327 0.76226 0.0
C669 C 0.80193 0.25243 0.71532 0.0
C670 C 0.76476 0.25114 0.78047 0.0
C671 C 0.78024 0.22043 0.76655 0.0
H672 H 0.05246 0.49211 0.93861 0.0
H673 H 0.10329 0.5627 1.01524 0.0
H674 H 0.0696 0.53554 0.06373 0.0
H675 H 0.02791 0.48956 0.08502 0.0
H676 H 0.97724 0.41894 1.00825 0.0
H677 H 1.00843 0.44827 0.95948 0.0
C678 C 0.05631 0.50167 0.96589 0.0
C679 C 0.081 0.52948 0.97298 0.0
C680 C 0.03683 0.48569 0.99381 0.0
C681 C 0.08463 0.54169 1.00864 0.0
C682 C 0.06544 0.52589 0.03651 0.0
C683 C 0.02366 0.48038 0.05767 0.0
C684 C 1.00025 0.45145 0.05075 0.0
C685 C 0.04185 0.4975 0.02954 0.0
C686 C 0.99476 0.44091 1.01476 0.0
C687 C 1.01284 0.45767 0.98675 0.0
H688 H 0.70247 0.7034 0.25683 0.0
H689 H 0.73762 0.7696 0.34546 0.0
H690 H 0.70792 0.81941 0.31842 0.0
H691 H 0.67009 0.84428 0.2707 0.0
H692 H 0.63455 0.77839 0.18208 0.0
H693 H 0.66623 0.72891 0.20784 0.0
C694 C 0.70366 0.7286 0.27051 0.0
C695 C 0.72247 0.7321 0.30376 0.0
C696 C 0.68627 0.7575 0.25464 0.0
C697 C 0.72386 0.76561 0.32008 0.0
C698 C 0.70658 0.79426 0.30458 0.0
C699 C 0.66904 0.81913 0.25689 0.0
C700 C 0.64931 0.81549 0.22425 0.0
C701 C 0.6874 0.79054 0.27205 0.0
C702 C 0.64936 0.78251 0.20685 0.0
C703 C 0.66742 0.75399 0.22183 0.0
H704 H 0.91277 0.59516 0.52793 0.0
H705 H 0.87315 0.52784 0.44201 0.0
H706 H 0.90327 0.47814 0.46891 0.0
H707 H 0.94295 0.45389 0.51544 0.0
H708 H 0.98435 0.52206 0.59992 0.0
H709 H 0.95148 0.57076 0.57493 0.0
C710 C 0.91066 0.5698 0.51467 0.0
C711 C 0.89045 0.56598 0.4823 0.0
C712 C 0.92861 0.54112 0.53017 0.0
C713 C 0.88797 0.53216 0.46673 0.0
C714 C 0.90553 0.50356 0.48213 0.0
C715 C 0.94517 0.47928 0.52859 0.0
C716 C 0.96687 0.4836 0.55995 0.0
C717 C 0.92631 0.50772 0.51365 0.0
C718 C 0.96812 0.51716 0.57624 0.0
C719 C 0.94931 0.54534 0.56169 0.0
H720 H 0.63909 0.49068 0.98037 0.0
H721 H 0.57135 0.43241 0.9061 0.0
H722 H 0.51989 0.46212 0.93028 0.0
H723 H 0.49327 0.50336 0.97362 0.0
H724 H 0.56051 0.56085 0.04887 0.0
H725 H 0.61246 0.533 1.02302 0.0
C726 C 0.61319 0.48407 0.96937 0.0
C727 C 0.60982 0.45854 0.94113 0.0
C728 C 0.58323 0.50135 0.98371 0.0
C729 C 0.5755 0.45164 0.92738 0.0
C730 C 0.54578 0.46867 0.94146 0.0
C731 C 0.51913 0.50987 0.98479 0.0
C732 C 0.52223 0.53442 1.0139 0.0
C733 C 0.54918 0.49337 0.96984 0.0
C734 C 0.55665 0.54253 0.02671 0.0
C735 C 0.58657 0.5263 1.01193 0.0
H736 H 0.77246 0.80937 0.78439 0.0
H737 H 0.69722 0.76906 0.86011 0.0
H738 H 0.72263 0.80802 0.90699 0.0
H739 H 0.76969 0.84993 0.92756 0.0
H740 H 0.84538 0.88908 0.85141 0.0
H741 H 0.81621 0.85454 0.80363 0.0
C742 C 0.76146 0.80923 0.81112 0.0
C743 C 0.73316 0.78592 0.81878 0.0
C744 C 0.77647 0.83145 0.83793 0.0
C745 C 0.71881 0.78671 0.85338 0.0
C746 C 0.73358 0.80883 0.88026 0.0
C747 C 0.77978 0.85104 0.90051 0.0
C748 C 0.8101 0.87201 0.89336 0.0
C749 C 0.76296 0.83073 0.87306 0.0
C750 C 0.82214 0.87353 0.85784 0.0
C751 C 0.80557 0.8535 0.83049 0.0
H752 H 0.79243 0.20618 0.3134 0.0
H753 H 0.69309 0.1996 0.25564 0.0
H754 H 0.71692 0.23862 0.20966 0.0
H755 H 0.76715 0.27242 0.184 0.0
H756 H 0.86605 0.27996 0.24248 0.0
H757 H 0.84131 0.2432 0.28982 0.0
C758 C 0.77589 0.21326 0.29079 0.0
C759 C 0.74086 0.19942 0.28809 0.0
C760 C 0.78984 0.23599 0.26439 0.0
C761 C 0.71988 0.20972 0.25876 0.0
C762 C 0.73367 0.23196 0.23226 0.0
C763 C 0.78334 0.26613 0.20712 0.0
C764 C 0.81877 0.27899 0.20925 0.0
C765 C 0.76877 0.24492 0.23449 0.0
C766 C 0.83885 0.27086 0.23995 0.0
C767 C 0.82469 0.24954 0.26701 0.0
H768 H 0.49539 0.59833 0.53558 0.0
H769 H 0.46169 0.5074 0.59486 0.0
H770 H 0.4963 0.52804 0.64683 0.0
H771 H 0.53495 0.57246 0.67623 0.0
H772 H 0.5678 0.6642 0.6179 0.0
H773 H 0.53491 0.6426 0.56492 0.0
C774 C 0.49534 0.58305 0.55988 0.0
C775 C 0.47557 0.55124 0.56101 0.0
C776 C 0.51527 0.59525 0.58998 0.0
C777 C 0.47669 0.53169 0.59277 0.0
C778 C 0.4964 0.54363 0.62271 0.0
C779 C 0.53478 0.58799 0.65209 0.0
C780 C 0.55379 0.62022 0.65143 0.0
C781 C 0.51557 0.57548 0.62174 0.0
C782 C 0.55375 0.6393 0.61936 0.0
C783 C 0.53471 0.62701 0.58903 0.0
H784 H 0.15814 0.07377 0.27104 0.0
H785 H 0.264 0.09465 0.31093 0.0
H786 H 0.26856 0.03356 0.32987 0.0
H787 H 0.24255 0.97456 0.33424 0.0
H788 H 0.13705 0.95333 0.29302 0.0
H789 H 0.13233 1.01447 0.27483 0.0
C790 C 0.18195 0.065 0.28446 0.0
C791 C 0.21051 0.08855 0.29022 0.0
C792 C 0.18459 0.02988 0.29439 0.0
C793 C 0.24165 0.07687 0.3066 0.0
C794 C 0.24427 0.04203 0.31722 0.0
C795 C 0.21858 0.98322 0.32106 0.0
C796 C 0.1902 0.9595 0.31488 0.0
C797 C 0.216 1.0183 0.31097 0.0
C798 C 0.15934 0.97108 0.29783 0.0
C799 C 0.15654 1.00604 0.28767 0.0
H800 H 0.27141 0.88671 0.42848 0.0
H801 H 0.26016 0.77806 0.45837 0.0
H802 H 0.29993 0.78904 0.50999 0.0
H803 H 0.33519 0.83049 0.54808 0.0
H804 H 0.34226 0.93965 0.51916 0.0
H805 H 0.30604 0.92742 0.46568 0.0
C806 C 0.27751 0.86518 0.44612 0.0
C807 C 0.26246 0.83154 0.43956 0.0
C808 C 0.29933 0.87193 0.47609 0.0
C809 C 0.27125 0.80416 0.4627 0.0
C810 C 0.29385 0.81051 0.49231 0.0
C811 C 0.32896 0.85159 0.53 0.0
C812 C 0.34143 0.88601 0.53767 0.0
C813 C 0.30761 0.84444 0.49952 0.0
C814 C 0.33287 0.91304 0.51407 0.0
C815 C 0.31226 0.90602 0.48342 0.0
H816 H 0.35424 1.02334 0.69053 0.0
H817 H 0.30597 0.94382 0.75568 0.0
H818 H 0.29112 0.98836 0.80109 0.0
H819 H 0.29676 0.04981 0.82418 0.0
H820 H 0.34545 0.12811 0.75711 0.0
H821 H 0.35557 0.08428 0.71079 0.0
C822 C 0.3397 1.01602 0.71433 0.0
C823 C 0.33094 0.9807 0.71989 0.0
C824 C 0.33203 0.04146 0.74029 0.0
C825 C 0.31244 0.97112 0.7508 0.0
C826 C 0.30441 0.99647 0.77688 0.0
C827 C 0.30955 0.0571 0.7994 0.0
C828 C 0.32056 0.09208 0.79423 0.0
C829 C 0.31496 0.03166 0.77235 0.0
C830 C 0.33668 0.10138 0.76181 0.0
C831 C 0.34248 0.07636 0.7352 0.0
H832 H 0.25993 0.10806 0.99082 0.0
H833 H 0.25888 0.21972 0.9741 0.0
H834 H 0.24116 0.22949 0.03605 0.0
H835 H 0.22848 0.20689 0.09529 0.0
H836 H 0.22917 0.09541 0.1136 0.0
H837 H 0.24523 0.08499 0.05091 0.0
C838 C 0.25502 0.13438 1.00066 0.0
C839 C 0.26037 0.16314 0.97799 0.0
C840 C 0.24567 0.13991 0.03673 0.0
C841 C 0.25473 0.19721 0.99111 0.0
C842 C 0.24488 0.20284 0.02657 0.0
C843 C 0.23248 0.18027 0.0858 0.0
C844 C 0.22804 0.15201 0.10926 0.0
C845 C 0.24095 0.17448 0.04976 0.0
C846 C 0.23276 0.11769 0.09619 0.0
C847 C 0.24168 0.11169 0.06028 0.0
H848 H 0.07717 0.25579 0.22396 0.0
H849 H 0.12938 0.29405 0.12937 0.0
H850 H 0.07413 0.31815 0.10747 0.0
H851 H 1.01051 0.32636 0.11384 0.0
H852 H 0.9584 0.29204 0.20965 0.0
H853 H 1.01383 0.26749 0.2322 0.0
C854 C 0.07655 0.2701 0.199 0.0
C855 C 0.10719 0.27312 0.1783 0.0
C856 C 0.04454 0.28358 0.18629 0.0
C857 C 0.10604 0.2914 0.14578 0.0
C858 C 0.07443 0.3049 0.13304 0.0
C859 C 1.01132 0.31282 0.13929 0.0
C860 C 0.98066 0.30977 0.15969 0.0
C861 C 0.0434 0.30042 0.15265 0.0
C862 C 0.98187 0.2937 0.19331 0.0
C863 C 1.01351 0.28011 0.2063 0.0
H864 H 0.53931 0.31852 0.82988 0.0
H865 H 0.59381 0.23666 0.88563 0.0
H866 H 0.53849 0.20275 0.88966 0.0
H867 H 0.47456 0.19715 0.87846 0.0
H868 H 0.41987 0.27944 0.82361 0.0
H869 H 0.47554 0.31253 0.8179 0.0
C870 C 0.53913 0.29304 0.8425 0.0
C871 C 0.57055 0.27996 0.85727 0.0
C872 C 0.50728 0.27391 0.84491 0.0
C873 C 0.56987 0.2473 0.87425 0.0
C874 C 0.53832 0.22789 0.87644 0.0
C875 C 0.47495 0.2221 0.86479 0.0
C876 C 0.44331 0.23578 0.85119 0.0
C877 C 0.50688 0.24103 0.86198 0.0
C878 C 0.44396 0.26849 0.83432 0.0
C879 C 0.47573 0.28733 0.83102 0.0
H880 H 0.96096 0.69921 0.38687 0.0
H881 H 0.92864 0.75401 0.29195 0.0
H882 H 0.98777 0.7813 0.28792 0.0
H883 H 0.0462 0.79291 0.31455 0.0
H884 H 0.07964 0.73593 0.4082 0.0
H885 H 0.02182 0.70654 0.41016 0.0
C886 C 0.96724 0.71676 0.36504 0.0
C887 C 0.94096 0.72484 0.33969 0.0
C888 C 1.00099 0.73222 0.3631 0.0
C889 C 0.94883 0.74746 0.31148 0.0
C890 C 0.98242 0.76313 0.3094 0.0
C891 C 0.04142 0.77339 0.3349 0.0
C892 C 0.06748 0.76673 0.36124 0.0
C893 C 1.00845 0.75614 0.33546 0.0
C894 C 0.06004 0.74204 0.38793 0.0
C895 C 0.02706 0.72502 0.38893 0.0
H896 H 0.58813 0.74675 0.67265 0.0
H897 H 0.56884 0.7711 0.78405 0.0
H898 H 0.51591 0.80381 0.76628 0.0
H899 H 0.47568 0.82487 0.71833 0.0
H900 H 0.49514 0.79582 0.60796 0.0
H901 H 0.54793 0.76482 0.62634 0.0
C902 C 0.57277 0.75958 0.69325 0.0
C903 C 0.58273 0.75733 0.72959 0.0
C904 C 0.54239 0.77699 0.68297 0.0
C905 C 0.56182 0.77302 0.75589 0.0
C906 C 0.53163 0.7915 0.7457 0.0
C907 C 0.49151 0.81164 0.69841 0.0
C908 C 0.48176 0.81266 0.66182 0.0
C909 C 0.52169 0.79354 0.70925 0.0
C910 C 0.5021 0.79524 0.63623 0.0
C911 C 0.53233 0.77771 0.64669 0.0
H912 H 0.95113 0.05778 0.75801 0.0
H913 H 0.97193 0.95908 0.70583 0.0
H914 H 0.96312 0.92833 0.76253 0.0
H915 H 0.94322 0.92926 0.82516 0.0
H916 H 0.91822 0.02822 0.87555 0.0
H917 H 0.93456 0.05911 0.82131 0.0
C918 C 0.95489 0.02969 0.75949 0.0
C919 C 0.96273 1.01064 0.72826 0.0
C920 C 0.94804 1.01219 0.79157 0.0
C921 C 0.96647 0.97415 0.7299 0.0
C922 C 0.96098 0.95661 0.76213 0.0
C923 C 0.9414 0.95758 0.8243 0.0
C924 C 0.92916 0.9763 0.85431 0.0
C925 C 0.95059 0.97527 0.79283 0.0
C926 C 0.92725 1.01305 0.8528 0.0
C927 C 0.93675 0.03082 0.82182 0.0
H928 H 0.82892 0.14238 0.53107 0.0
H929 H 0.84249 0.03063 0.53815 0.0
H930 H 0.7913 1.02025 0.49877 0.0
H931 H 0.74295 0.04284 0.46194 0.0
H932 H 0.72789 0.15458 0.45641 0.0
H933 H 0.77897 0.16497 0.49585 0.0
C934 C 0.82072 0.11582 0.52375 0.0
C935 C 0.83951 0.08735 0.53718 0.0
C936 C 0.79081 0.10999 0.50165 0.0
C937 C 0.8284 0.053 0.52804 0.0
C938 C 0.79912 0.04701 0.50558 0.0
C939 C 0.75071 0.06945 0.46953 0.0
C940 C 0.73167 0.09781 0.45616 0.0
C941 C 0.7801 0.0753 0.49226 0.0
C942 C 0.74198 0.13218 0.46641 0.0
C943 C 0.77134 0.13821 0.48883 0.0
H944 H 0.58237 0.09193 0.285 0.0
H945 H 0.66652 1.02117 0.31078 0.0
H946 H 0.64645 0.98137 0.26246 0.0
H947 H 0.60621 0.96779 0.21245 0.0
H948 H 0.52077 0.03722 0.18746 0.0
H949 H 0.54065 0.07712 0.23593 0.0
C950 C 0.59638 0.06782 0.28 0.0
C951 C 0.62599 0.05949 0.30124 0.0
C952 C 0.5845 0.04502 0.2525 0.0
C953 C 0.6437 0.0281 0.29471 0.0
C954 C 0.63224 1.00539 0.26715 0.0
C955 C 0.59123 0.99109 0.21815 0.0
C956 C 0.56151 0.99912 0.19693 0.0
C957 C 0.60269 1.01363 0.24596 0.0
C958 C 0.54354 0.03035 0.20363 0.0
C959 C 0.5549 0.05312 0.23128 0.0
H960 H 0.74391 0.94262 0.11565 0.0
H961 H 0.68419 0.99785 0.03566 0.0
H962 H 0.7389 1.01551 1.00607 0.0
H963 H 0.80261 1.00793 0.99828 0.0
H964 H 0.862 0.95054 0.07703 0.0
H965 H 0.80865 0.94163 0.11216 0.0
C966 C 0.74301 0.95885 0.09196 0.0
C967 C 0.71022 0.96852 0.0775 0.0
C968 C 0.77446 0.96843 0.07484 0.0
C969 C 0.70922 0.9901 0.04724 0.0
C970 C 0.74045 1.00004 0.03022 0.0
C971 C 0.80407 0.99425 0.02358 0.0
C972 C 0.83605 0.97947 0.03477 0.0
C973 C 0.77311 0.98838 0.04313 0.0
C974 C 0.83759 0.96194 0.06769 0.0
C975 C 0.80705 0.95662 0.08768 0.0
H976 H 0.10204 0.76834 0.89526 0.0
H977 H 1.01173 0.69886 0.90708 0.0
H978 H 0.97463 0.74922 0.92066 0.0
H979 H 0.96969 0.81198 0.93516 0.0
H980 H 0.06243 0.87959 0.93056 0.0
H981 H 0.09697 0.83069 0.90853 0.0
C982 C 0.0742 0.76415 0.90083 0.0
C983 C 0.05979 0.72986 0.90089 0.0
C984 C 0.05369 0.79279 0.91044 0.0
C985 C 0.02346 0.72496 0.90687 0.0
C986 C 1.00239 0.7537 0.91507 0.0
C987 C 0.99757 0.81601 0.92979 0.0
C988 C 1.0135 0.84944 0.93499 0.0
C989 C 1.01755 0.78754 0.9181 0.0
C990 C 0.04938 0.85431 0.92668 0.0
C991 C 0.06921 0.82632 0.9142 0.0
H992 H 0.48576 0.69808 0.15343 0.0
H993 H 0.56515 0.67193 0.07624 0.0
H994 H 0.58394 0.73394 0.07383 0.0
H995 H 0.57346 0.79579 0.08964 0.0
H996 H 0.4898 0.82156 0.16283 0.0
H997 H 0.4755 0.7593 0.1695 0.0
C998 C 0.50749 0.70601 0.13646 0.0
C999 C 0.52427 0.68083 0.11517 0.0
C1000 C 0.51633 0.74158 0.13357 0.0
C1001 C 0.55244 0.69099 0.09333 0.0
C1002 C 0.56263 0.72642 0.0915 0.0
C1003 C 0.55188 0.78784 0.10681 0.0
C1004 C 0.53241 0.81332 0.12541 0.0
C1005 C 0.54395 0.75202 0.11065 0.0
C1006 C 0.50485 0.80253 0.14788 0.0
C1007 C 0.49693 0.76695 0.15202 0.0
H1008 H 0.94328 0.21516 0.6839 0.0
H1009 H 1.00422 0.17833 0.59424 0.0
H1010 H 0.03157 0.23644 0.58837 0.0
H1011 H 0.0373 0.29749 0.60786 0.0
H1012 H 0.97539 0.33563 0.69623 0.0
H1013 H 0.94872 0.27713 0.70318 0.0
C1014 C 0.96294 0.21982 0.66344 0.0
C1015 C 0.97211 0.19256 0.63977 0.0
C1016 C 0.97788 0.25349 0.65967 0.0
C1017 C 0.99694 0.19898 0.61283 0.0
C1018 C 1.01245 0.23216 0.60939 0.0
C1019 C 1.01788 0.29311 0.62861 0.0
C1020 C 1.00828 0.3208 0.6515 0.0
C1021 C 1.00288 0.25961 0.63245 0.0
C1022 C 0.98304 0.31472 0.67816 0.0
C1023 C 0.96798 0.28127 0.68226 0.0
H1024 H 0.48824 0.33494 0.44931 0.0
H1025 H 0.57792 0.40246 0.47437 0.0
H1026 H 0.61824 0.35482 0.45856 0.0
H1027 H 0.62715 0.29344 0.43715 0.0
H1028 H 0.53591 0.22854 0.41014 0.0
H1029 H 0.49665 0.27565 0.42764 0.0
C1030 C 0.51665 0.33909 0.4517 0.0
C1031 C 0.5303 0.37167 0.46351 0.0
C1032 C 0.53917 0.31209 0.44225 0.0
C1033 C 0.56704 0.37731 0.46552 0.0
C1034 C 0.58994 0.35015 0.45656 0.0
C1035 C 0.59866 0.28987 0.43535 0.0
C1036 C 0.58412 0.25791 0.42254 0.0
C1037 C 0.57624 0.31737 0.44489 0.0
C1038 C 0.54735 0.25318 0.41989 0.0
C1039 C 0.525 0.27998 0.42987 0.0
H1040 H 0.65162 0.47907 0.82079 0.0
H1041 H 0.76433 0.47021 0.80875 0.0
H1042 H 0.76947 0.53281 0.79589 0.0
H1043 H 0.74192 0.58982 0.78827 0.0
H1044 H 0.62932 0.59928 0.80262 0.0
H1045 H 0.62428 0.53686 0.81531 0.0
C1046 C 0.67716 0.49085 0.81474 0.0
C1047 C 0.70748 0.47021 0.81498 0.0
C1048 C 0.68003 0.52701 0.80855 0.0
C1049 C 0.74062 0.48573 0.80825 0.0
C1050 C 0.74359 0.52148 0.80116 0.0
C1051 C 0.71631 0.57839 0.79459 0.0
C1052 C 0.68606 0.59927 0.79433 0.0
C1053 C 0.7135 0.54241 0.80151 0.0
C1054 C 0.6531 0.58389 0.80261 0.0
C1055 C 0.6501 0.5481 0.80961 0.0
H1056 H 0.81122 0.4076 0.91111 0.0
H1057 H 0.75636 0.31309 0.94272 0.0
H1058 H 0.7854 0.31679 1.00204 0.0
H1059 H 0.82537 0.34811 0.04504 0.0
H1060 H 0.87527 0.44562 1.01439 0.0
H1061 H 0.8488 0.43988 0.95438 0.0
C1062 C 0.80607 0.38747 0.93079 0.0
C1063 C 0.78242 0.35961 0.92246 0.0
C1064 C 0.82155 0.39068 0.96501 0.0
C1065 C 0.77494 0.33442 0.94853 0.0
C1066 C 0.79136 0.33667 0.98238 0.0
C1067 C 0.83041 0.36802 0.02514 0.0
C1068 C 0.85229 0.39718 0.03392 0.0
C1069 C 0.81452 0.36486 0.99097 0.0
C1070 C 0.85829 0.42312 1.00823 0.0
C1071 C 0.84337 0.41971 0.97391 0.0
H1072 H 0.86487 0.45025 0.27045 0.0
H1073 H 0.80198 0.50255 0.19095 0.0
H1074 H 0.78978 0.54962 0.23448 0.0
H1075 H 0.8057 0.58015 0.29177 0.0
H1076 H 0.87687 0.53085 0.36618 0.0
H1077 H 0.87803 0.47851 0.32781 0.0
C1078 C 0.84808 0.47178 0.26283 0.0
C1079 C 0.83489 0.4735 0.22753 0.0
C1080 C 0.84356 0.4996 0.28683 0.0
C1081 C 0.81246 0.50086 0.21804 0.0
C1082 C 0.80596 0.52792 0.24274 0.0
C1083 C 0.82107 0.55768 0.29957 0.0
C1084 C 0.84152 0.55912 0.33132 0.0
C1085 C 0.82276 0.52831 0.27662 0.0
C1086 C 0.86146 0.53022 0.34146 0.0
C1087 C 0.86194 0.50035 0.31971 0.0
H1088 H 0.76549 0.67303 0.60586 0.0
H1089 H 0.68013 0.59759 0.59141 0.0
H1090 H 0.69326 0.59305 0.52713 0.0
H1091 H 0.72512 0.61632 0.47397 0.0
H1092 H 0.80243 0.70004 0.49034 0.0
H1093 H 0.79487 0.69713 0.55458 0.0
C1094 C 0.74975 0.65548 0.58867 0.0
C1095 C 0.72156 0.63621 0.60311 0.0
C1096 C 0.75513 0.65559 0.5518 0.0
C1097 C 0.70212 0.61268 0.58087 0.0
C1098 C 0.70916 0.61062 0.54405 0.0
C1099 C 0.7398 0.63419 0.4917 0.0
C1100 C 0.76386 0.65867 0.47737 0.0
C1101 C 0.73471 0.63308 0.529 0.0
C1102 C 0.78313 0.68146 0.50053 0.0
C1103 C 0.77928 0.67951 0.53738 0.0
H1104 H 0.43174 0.5799 0.26776 0.0
H1105 H 0.48174 0.49347 0.214 0.0
H1106 H 0.47799 0.45872 0.26857 0.0
H1107 H 0.45719 0.45182 0.33035 0.0
H1108 H 0.40706 0.53868 0.38361 0.0
H1109 H 0.41453 0.57441 0.33049 0.0
C1110 C 0.44254 0.55376 0.26822 0.0
C1111 C 0.45691 0.53923 0.23694 0.0
C1112 C 0.43996 0.53387 0.29946 0.0
C1113 C 0.47025 0.50508 0.23774 0.0
C1114 C 0.4681 0.48521 0.26888 0.0
C1115 C 0.44803 0.4786 0.33038 0.0
C1116 C 0.43134 0.49239 0.36081 0.0
C1117 C 0.45236 0.4991 0.29968 0.0
C1118 C 0.41986 0.52727 0.36051 0.0
C1119 C 0.42412 0.5478 0.33014 0.0
H1120 H 0.24267 0.64844 0.9763 0.0
H1121 H 0.25785 0.54267 0.93813 0.0
H1122 H 0.31071 0.53825 0.97673 0.0
H1123 H 0.35314 0.5656 1.02045 0.0
H1124 H 0.34063 0.67365 0.05219 0.0
H1125 H 0.28588 0.67637 1.01672 0.0
C1126 C 0.25741 0.62431 0.97655 0.0
C1127 C 0.24638 0.59575 0.95485 0.0
C1128 C 0.28819 0.62261 0.99745 0.0
C1129 C 0.26596 0.56488 0.95486 0.0
C1130 C 0.29608 0.56242 0.97683 0.0
C1131 C 0.33824 0.5896 1.01947 0.0
C1132 C 0.35031 0.61939 0.03874 0.0
C1133 C 0.30754 0.59123 0.99807 0.0
C1134 C 0.33147 0.65058 0.03728 0.0
C1135 C 0.30029 0.65207 1.01717 0.0
H1136 H 0.10291 0.61766 0.75451 0.0
H1137 H 0.16508 0.54078 0.81 0.0
H1138 H 0.14332 0.49518 0.76939 0.0
H1139 H 0.10611 0.47628 0.71932 0.0
H1140 H 0.04841 0.55182 0.6582 0.0
H1141 H 0.0687 0.59881 0.69984 0.0
C1142 C 0.11194 0.59102 0.75741 0.0
C1143 C 0.13495 0.58265 0.78592 0.0
C1144 C 0.0998 0.56459 0.73327 0.0
C1145 C 0.14669 0.54799 0.789 0.0
C1146 C 0.13433 0.52174 0.76571 0.0
C1147 C 0.09761 0.50293 0.71533 0.0
C1148 C 0.07519 0.5106 0.68646 0.0
C1149 C 0.11051 0.52961 0.7382 0.0
C1150 C 0.06533 0.54542 0.68076 0.0
C1151 C 0.07705 0.5722 0.70439 0.0
H1152 H 0.28634 0.48317 0.48308 0.0
H1153 H 0.34824 0.44957 0.57395 0.0
H1154 H 0.29447 0.44005 0.60829 0.0
H1155 H 0.22999 0.43649 0.61066 0.0
H1156 H 0.16755 0.46812 0.51942 0.0
H1157 H 0.22146 0.48288 0.48682 0.0
C1158 C 0.28801 0.47436 0.51061 0.0
C1159 C 0.32106 0.467 0.526 0.0
C1160 C 0.25694 0.4681 0.52988 0.0
C1161 C 0.32298 0.45526 0.56153 0.0
C1162 C 0.29229 0.44972 0.58114 0.0
C1163 C 0.22817 0.4472 0.58388 0.0
C1164 C 0.19493 0.45114 0.56741 0.0
C1165 C 0.25914 0.45532 0.5653 0.0
C1166 C 0.19294 0.46447 0.53246 0.0
C1167 C 0.22369 0.47306 0.5139 0.0
loop_
_geom_bond_atom_site_label_1
_geom_bond_atom_site_label_2
_geom_bond_distance
_geom_bond_site_symmetry_2
_ccdc_geom_bond_type
Co0 N4 2.148 . S
Co0 N10 2.128 . S
Co0 N20 2.194 . S
Co0 O25 2.351 . S
Co0 O26 2.155 . S
Co0 O27 2.096 . S
C1 N4 1.301 . S
C1 N5 1.328 . S
C1 H6 0.930 . S
C2 C3 1.333 . S
C2 N4 1.317 . S
C2 H7 0.930 . S
C3 C2 1.333 . S
C3 N5 1.350 . S
C3 H29 0.931 . S
N4 Co0 2.148 . S
N4 C1 1.301 . S
N4 C2 1.317 . S
N5 C1 1.328 . S
N5 C3 1.350 . S
H6 C1 0.930 . S
H7 C2 0.930 . S
C8 O9 1.224 . S
C8 O27 1.247 . S
O9 C8 1.224 . S
N10 Co0 2.128 . S
N10 C11 1.355 . S
N10 C13 1.311 . S
C11 N10 1.355 . S
C11 C12 1.363 . S
C11 H23 0.929 . S
C12 C11 1.363 . S
C12 N14 1.375 . S
C12 H30 0.931 . S
C13 N10 1.311 . S
C13 N14 1.347 . S
C13 H24 0.929 . S
N14 C12 1.375 . S
N14 C13 1.347 . S
C15 C18 1.365 . S
C15 N20 1.328 . S
C15 H21 0.929 . S
C16 C17 1.362 . S
C16 C19 1.378 . S
C16 H31 0.929 . S
C17 C16 1.362 . S
C17 C18 1.366 . S
C18 C15 1.365 . S
C18 C17 1.366 . S
C18 H32 0.930 . S
C19 C16 1.378 . S
C19 N20 1.315 . S
C19 H22 0.930 . S
N20 Co0 2.194 . S
N20 C15 1.328 . S
N20 C19 1.315 . S
H21 C15 0.929 . S
H22 C19 0.930 . S
H23 C11 0.929 . S
H24 C13 0.929 . S
O25 Co0 2.351 . S
O25 C28 1.244 . S
O26 Co0 2.155 . S
O26 C28 1.240 . S
O27 Co0 2.096 . S
O27 C8 1.247 . S
C28 O25 1.244 . S
C28 O26 1.240 . S
H29 C3 0.931 . S
H30 C12 0.931 . S
H31 C16 0.929 . S
H32 C18 0.930 . S
Co33 N37 2.148 . S
Co33 N43 2.128 . S
Co33 N53 2.194 . S
Co33 O58 2.351 . S
Co33 O59 2.155 . S
Co33 O60 2.096 . S
C34 N37 1.301 . S
C34 N38 1.328 . S
C34 H39 0.930 . S
C35 C36 1.333 . S
C35 N37 1.317 . S
C35 H40 0.930 . S
C36 C35 1.333 . S
C36 N38 1.350 . S
C36 H62 0.931 . S
N37 Co33 2.148 . S
N37 C34 1.301 . S
N37 C35 1.317 . S
N38 C34 1.328 . S
N38 C36 1.350 . S
H39 C34 0.930 . S
H40 C35 0.930 . S
C41 O42 1.224 . S
C41 O60 1.247 . S
O42 C41 1.224 . S
N43 Co33 2.128 . S
N43 C44 1.355 . S
N43 C46 1.311 . S
C44 N43 1.355 . S
C44 C45 1.363 . S
C44 H56 0.929 . S
C45 C44 1.363 . S
C45 N47 1.375 . S
C45 H63 0.931 . S
C46 N43 1.311 . S
C46 N47 1.347 . S
C46 H57 0.929 . S
N47 C45 1.375 . S
N47 C46 1.347 . S
C48 C51 1.365 . S
C48 N53 1.328 . S
C48 H54 0.929 . S
C49 C50 1.362 . S
C49 C52 1.378 . S
C49 H64 0.929 . S
C50 C49 1.362 . S
C50 C51 1.366 . S
C51 C48 1.365 . S
C51 C50 1.366 . S
C51 H65 0.930 . S
C52 C49 1.378 . S
C52 N53 1.315 . S
C52 H55 0.930 . S
N53 Co33 2.194 . S
N53 C48 1.328 . S
N53 C52 1.315 . S
H54 C48 0.929 . S
H55 C52 0.930 . S
H56 C44 0.929 . S
H57 C46 0.929 . S
O58 Co33 2.351 . S
O58 C61 1.244 . S
O59 Co33 2.155 . S
O59 C61 1.240 . S
O60 Co33 2.096 . S
O60 C41 1.247 . S
C61 O58 1.244 . S
C61 O59 1.240 . S
H62 C36 0.931 . S
H63 C45 0.931 . S
H64 C49 0.929 . S
H65 C51 0.930 . S
Co66 N70 2.148 . S
Co66 N76 2.128 . S
Co66 N86 2.194 . S
Co66 O91 2.351 . S
Co66 O92 2.155 . S
Co66 O93 2.096 . S
C67 N70 1.301 . S
C67 N71 1.328 . S
C67 H72 0.930 . S
C68 C69 1.333 . S
C68 N70 1.317 . S
C68 H73 0.930 . S
C69 C68 1.333 . S
C69 N71 1.350 . S
C69 H95 0.931 . S
N70 Co66 2.148 . S
N70 C67 1.301 . S
N70 C68 1.317 . S
N71 C67 1.328 . S
N71 C69 1.350 . S
H72 C67 0.930 . S
H73 C68 0.930 . S
C74 O75 1.224 . S
C74 O93 1.247 . S
O75 C74 1.224 . S
N76 Co66 2.128 . S
N76 C77 1.355 . S
N76 C79 1.311 . S
C77 N76 1.355 . S
C77 C78 1.363 . S
C77 H89 0.929 . S
C78 C77 1.363 . S
C78 N80 1.375 . S
C78 H96 0.931 . S
C79 N76 1.311 . S
C79 N80 1.347 . S
C79 H90 0.929 . S
N80 C78 1.375 . S
N80 C79 1.347 . S
C81 C84 1.365 . S
C81 N86 1.328 . S
C81 H87 0.929 . S
C82 C83 1.362 . S
C82 C85 1.378 . S
C82 H97 0.929 . S
C83 C82 1.362 . S
C83 C84 1.366 . S
C84 C81 1.365 . S
C84 C83 1.366 . S
C84 H98 0.930 . S
C85 C82 1.378 . S
C85 N86 1.315 . S
C85 H88 0.930 . S
N86 Co66 2.194 . S
N86 C81 1.328 . S
N86 C85 1.315 . S
H87 C81 0.929 . S
H88 C85 0.930 . S
H89 C77 0.929 . S
H90 C79 0.929 . S
O91 Co66 2.351 . S
O91 C94 1.244 . S
O92 Co66 2.155 . S
O92 C94 1.240 . S
O93 Co66 2.096 . S
O93 C74 1.247 . S
C94 O91 1.244 . S
C94 O92 1.240 . S
H95 C69 0.931 . S
H96 C78 0.931 . S
H97 C82 0.929 . S
H98 C84 0.930 . S
Co99 N103 2.148 . S
Co99 N109 2.128 . S
Co99 N119 2.194 . S
Co99 O124 2.351 . S
Co99 O125 2.155 . S
Co99 O126 2.096 . S
C100 N103 1.301 . S
C100 N104 1.328 . S
C100 H105 0.930 . S
C101 C102 1.333 . S
C101 N103 1.317 . S
C101 H106 0.930 . S
C102 C101 1.333 . S
C102 N104 1.350 . S
C102 H128 0.931 . S
N103 Co99 2.148 . S
N103 C100 1.301 . S
N103 C101 1.317 . S
N104 C100 1.328 . S
N104 C102 1.350 . S
H105 C100 0.930 . S
H106 C101 0.930 . S
C107 O108 1.224 . S
C107 O126 1.247 . S
O108 C107 1.224 . S
N109 Co99 2.128 . S
N109 C110 1.355 . S
N109 C112 1.311 . S
C110 N109 1.355 . S
C110 C111 1.363 . S
C110 H122 0.929 . S
C111 C110 1.363 . S
C111 N113 1.375 . S
C111 H129 0.931 . S
C112 N109 1.311 . S
C112 N113 1.347 . S
C112 H123 0.929 . S
N113 C111 1.375 . S
N113 C112 1.347 . S
C114 C117 1.365 . S
C114 N119 1.328 . S
C114 H120 0.929 . S
C115 C116 1.362 . S
C115 C118 1.378 . S
C115 H130 0.929 . S
C116 C115 1.362 . S
C116 C117 1.366 . S
C117 C114 1.365 . S
C117 C116 1.366 . S
C117 H131 0.930 . S
C118 C115 1.378 . S
C118 N119 1.315 . S
C118 H121 0.930 . S
N119 Co99 2.194 . S
N119 C114 1.328 . S
N119 C118 1.315 . S
H120 C114 0.929 . S
H121 C118 0.930 . S
H122 C110 0.929 . S
H123 C112 0.929 . S
O124 Co99 2.351 . S
O124 C127 1.244 . S
O125 Co99 2.155 . S
O125 C127 1.240 . S
O126 Co99 2.096 . S
O126 C107 1.247 . S
C127 O124 1.244 . S
C127 O125 1.240 . S
H128 C102 0.931 . S
H129 C111 0.931 . S
H130 C115 0.929 . S
H131 C117 0.930 . S
Co132 N136 2.148 . S
Co132 N142 2.128 . S
Co132 N152 2.194 . S
Co132 O157 2.351 . S
Co132 O158 2.155 . S
Co132 O159 2.096 . S
C133 N136 1.301 . S
C133 N137 1.328 . S
C133 H138 0.930 . S
C134 C135 1.333 . S
C134 N136 1.317 . S
C134 H139 0.930 . S
C135 C134 1.333 . S
C135 N137 1.350 . S
C135 H161 0.931 . S
N136 Co132 2.148 . S
N136 C133 1.301 . S
N136 C134 1.317 . S
N137 C133 1.328 . S
N137 C135 1.350 . S
H138 C133 0.930 . S
H139 C134 0.930 . S
C140 O141 1.224 . S
C140 O159 1.247 . S
O141 C140 1.224 . S
N142 Co132 2.128 . S
N142 C143 1.355 . S
N142 C145 1.311 . S
C143 N142 1.355 . S
C143 C144 1.363 . S
C143 H155 0.929 . S
C144 C143 1.363 . S
C144 N146 1.375 . S
C144 H162 0.931 . S
C145 N142 1.311 . S
C145 N146 1.347 . S
C145 H156 0.929 . S
N146 C144 1.375 . S
N146 C145 1.347 . S
C147 C150 1.365 . S
C147 N152 1.328 . S
C147 H153 0.929 . S
C148 C149 1.362 . S
C148 C151 1.378 . S
C148 H163 0.929 . S
C149 C148 1.362 . S
C149 C150 1.366 . S
C150 C147 1.365 . S
C150 C149 1.366 . S
C150 H164 0.930 . S
C151 C148 1.378 . S
C151 N152 1.315 . S
C151 H154 0.930 . S
N152 Co132 2.194 . S
N152 C147 1.328 . S
N152 C151 1.315 . S
H153 C147 0.929 . S
H154 C151 0.930 . S
H155 C143 0.929 . S
H156 C145 0.929 . S
O157 Co132 2.351 . S
O157 C160 1.244 . S
O158 Co132 2.155 . S
O158 C160 1.240 . S
O159 Co132 2.096 . S
O159 C140 1.247 . S
C160 O157 1.244 . S
C160 O158 1.240 . S
H161 C135 0.931 . S
H162 C144 0.931 . S
H163 C148 0.929 . S
H164 C150 0.930 . S
Co165 N169 2.148 . S
Co165 N175 2.128 . S
Co165 N185 2.194 . S
Co165 O190 2.351 . S
Co165 O191 2.155 . S
Co165 O192 2.096 . S
C166 N169 1.301 . S
C166 N170 1.328 . S
C166 H171 0.930 . S
C167 C168 1.333 . S
C167 N169 1.317 . S
C167 H172 0.930 . S
C168 C167 1.333 . S
C168 N170 1.350 . S
C168 H194 0.931 . S
N169 Co165 2.148 . S
N169 C166 1.301 . S
N169 C167 1.317 . S
N170 C166 1.328 . S
N170 C168 1.350 . S
H171 C166 0.930 . S
H172 C167 0.930 . S
C173 O174 1.224 . S
C173 O192 1.247 . S
O174 C173 1.224 . S
N175 Co165 2.128 . S
N175 C176 1.355 . S
N175 C178 1.311 . S
C176 N175 1.355 . S
C176 C177 1.363 . S
C176 H188 0.929 . S
C177 C176 1.363 . S
C177 N179 1.375 . S
C177 H195 0.931 . S
C178 N175 1.311 . S
C178 N179 1.347 . S
C178 H189 0.929 . S
N179 C177 1.375 . S
N179 C178 1.347 . S
C180 C183 1.365 . S
C180 N185 1.328 . S
C180 H186 0.929 . S
C181 C182 1.362 . S
C181 C184 1.378 . S
C181 H196 0.929 . S
C182 C181 1.362 . S
C182 C183 1.366 . S
C183 C180 1.365 . S
C183 C182 1.366 . S
C183 H197 0.930 . S
C184 C181 1.378 . S
C184 N185 1.315 . S
C184 H187 0.930 . S
N185 Co165 2.194 . S
N185 C180 1.328 . S
N185 C184 1.315 . S
H186 C180 0.929 . S
H187 C184 0.930 . S
H188 C176 0.929 . S
H189 C178 0.929 . S
O190 Co165 2.351 . S
O190 C193 1.244 . S
O191 Co165 2.155 . S
O191 C193 1.240 . S
O192 Co165 2.096 . S
O192 C173 1.247 . S
C193 O190 1.244 . S
C193 O191 1.240 . S
H194 C168 0.931 . S
H195 C177 0.931 . S
H196 C181 0.929 . S
H197 C183 0.930 . S
Co198 N202 2.148 . S
Co198 N208 2.128 . S
Co198 N218 2.194 . S
Co198 O223 2.351 . S
Co198 O224 2.155 . S
Co198 O225 2.096 . S
C199 N202 1.301 . S
C199 N203 1.328 . S
C199 H204 0.930 . S
C200 C201 1.333 . S
C200 N202 1.317 . S
C200 H205 0.930 . S
C201 C200 1.333 . S
C201 N203 1.350 . S
C201 H227 0.931 . S
N202 Co198 2.148 . S
N202 C199 1.301 . S
N202 C200 1.317 . S
N203 C199 1.328 . S
N203 C201 1.350 . S
H204 C199 0.930 . S
H205 C200 0.930 . S
C206 O207 1.224 . S
C206 O225 1.247 . S
O207 C206 1.224 . S
N208 Co198 2.128 . S
N208 C209 1.355 . S
N208 C211 1.311 . S
C209 N208 1.355 . S
C209 C210 1.363 . S
C209 H221 0.929 . S
C210 C209 1.363 . S
C210 N212 1.375 . S
C210 H228 0.931 . S
C211 N208 1.311 . S
C211 N212 1.347 . S
C211 H222 0.929 . S
N212 C210 1.375 . S
N212 C211 1.347 . S
C213 C216 1.365 . S
C213 N218 1.328 . S
C213 H219 0.929 . S
C214 C215 1.362 . S
C214 C217 1.378 . S
C214 H229 0.929 . S
C215 C214 1.362 . S
C215 C216 1.366 . S
C216 C213 1.365 . S
C216 C215 1.366 . S
C216 H230 0.930 . S
C217 C214 1.378 . S
C217 N218 1.315 . S
C217 H220 0.930 . S
N218 Co198 2.194 . S
N218 C213 1.328 . S
N218 C217 1.315 . S
H219 C213 0.929 . S
H220 C217 0.930 . S
H221 C209 0.929 . S
H222 C211 0.929 . S
O223 Co198 2.351 . S
O223 C226 1.244 . S
O224 Co198 2.155 . S
O224 C226 1.240 . S
O225 Co198 2.096 . S
O225 C206 1.247 . S
C226 O223 1.244 . S
C226 O224 1.240 . S
H227 C201 0.931 . S
H228 C210 0.931 . S
H229 C214 0.929 . S
H230 C216 0.930 . S
Co231 N235 2.148 . S
Co231 N241 2.128 . S
Co231 N251 2.194 . S
Co231 O256 2.351 . S
Co231 O257 2.155 . S
Co231 O258 2.096 . S
C232 N235 1.301 . S
C232 N236 1.328 . S
C232 H237 0.930 . S
C233 C234 1.333 . S
C233 N235 1.317 . S
C233 H238 0.930 . S
C234 C233 1.333 . S
C234 N236 1.350 . S
C234 H260 0.931 . S
N235 Co231 2.148 . S
N235 C232 1.301 . S
N235 C233 1.317 . S
N236 C232 1.328 . S
N236 C234 1.350 . S
H237 C232 0.930 . S
H238 C233 0.930 . S
C239 O240 1.224 . S
C239 O258 1.247 . S
O240 C239 1.224 . S
N241 Co231 2.128 . S
N241 C242 1.355 . S
N241 C244 1.311 . S
C242 N241 1.355 . S
C242 C243 1.363 . S
C242 H254 0.929 . S
C243 C242 1.363 . S
C243 N245 1.375 . S
C243 H261 0.931 . S
C244 N241 1.311 . S
C244 N245 1.347 . S
C244 H255 0.929 . S
N245 C243 1.375 . S
N245 C244 1.347 . S
C246 C249 1.365 . S
C246 N251 1.328 . S
C246 H252 0.929 . S
C247 C248 1.362 . S
C247 C250 1.378 . S
C247 H262 0.929 . S
C248 C247 1.362 . S
C248 C249 1.366 . S
C249 C246 1.365 . S
C249 C248 1.366 . S
C249 H263 0.930 . S
C250 C247 1.378 . S
C250 N251 1.315 . S
C250 H253 0.930 . S
N251 Co231 2.194 . S
N251 C246 1.328 . S
N251 C250 1.315 . S
H252 C246 0.929 . S
H253 C250 0.930 . S
H254 C242 0.929 . S
H255 C244 0.929 . S
O256 Co231 2.351 . S
O256 C259 1.244 . S
O257 Co231 2.155 . S
O257 C259 1.240 . S
O258 Co231 2.096 . S
O258 C239 1.247 . S
C259 O256 1.244 . S
C259 O257 1.240 . S
H260 C234 0.931 . S
H261 C243 0.931 . S
H262 C247 0.929 . S
H263 C249 0.930 . S
Co264 N268 2.148 . S
Co264 N274 2.128 . S
Co264 N284 2.194 . S
Co264 O289 2.351 . S
Co264 O290 2.155 . S
Co264 O291 2.096 . S
C265 N268 1.301 . S
C265 N269 1.328 . S
C265 H270 0.930 . S
C266 C267 1.333 . S
C266 N268 1.317 . S
C266 H271 0.930 . S
C267 C266 1.333 . S
C267 N269 1.350 . S
C267 H293 0.931 . S
N268 Co264 2.148 . S
N268 C265 1.301 . S
N268 C266 1.317 . S
N269 C265 1.328 . S
N269 C267 1.350 . S
H270 C265 0.930 . S
H271 C266 0.930 . S
C272 O273 1.224 . S
C272 O291 1.247 . S
O273 C272 1.224 . S
N274 Co264 2.128 . S
N274 C275 1.355 . S
N274 C277 1.311 . S
C275 N274 1.355 . S
C275 C276 1.363 . S
C275 H287 0.929 . S
C276 C275 1.363 . S
C276 N278 1.375 . S
C276 H294 0.931 . S
C277 N274 1.311 . S
C277 N278 1.347 . S
C277 H288 0.929 . S
N278 C276 1.375 . S
N278 C277 1.347 . S
C279 C282 1.365 . S
C279 N284 1.328 . S
C279 H285 0.929 . S
C280 C281 1.362 . S
C280 C283 1.378 . S
C280 H295 0.929 . S
C281 C280 1.362 . S
C281 C282 1.366 . S
C282 C279 1.365 . S
C282 C281 1.366 . S
C282 H296 0.930 . S
C283 C280 1.378 . S
C283 N284 1.315 . S
C283 H286 0.930 . S
N284 Co264 2.194 . S
N284 C279 1.328 . S
N284 C283 1.315 . S
H285 C279 0.929 . S
H286 C283 0.930 . S
H287 C275 0.929 . S
H288 C277 0.929 . S
O289 Co264 2.351 . S
O289 C292 1.244 . S
O290 Co264 2.155 . S
O290 C292 1.240 . S
O291 Co264 2.096 . S
O291 C272 1.247 . S
C292 O289 1.244 . S
C292 O290 1.240 . S
H293 C267 0.931 . S
H294 C276 0.931 . S
H295 C280 0.929 . S
H296 C282 0.930 . S
Co297 N301 2.148 . S
Co297 N307 2.128 . S
Co297 N317 2.194 . S
Co297 O322 2.351 . S
Co297 O323 2.155 . S
Co297 O324 2.096 . S
C298 N301 1.301 . S
C298 N302 1.328 . S
C298 H303 0.930 . S
C299 C300 1.333 . S
C299 N301 1.317 . S
C299 H304 0.930 . S
C300 C299 1.333 . S
C300 N302 1.350 . S
C300 H326 0.931 . S
N301 Co297 2.148 . S
N301 C298 1.301 . S
N301 C299 1.317 . S
N302 C298 1.328 . S
N302 C300 1.350 . S
H303 C298 0.930 . S
H304 C299 0.930 . S
C305 O306 1.224 . S
C305 O324 1.247 . S
O306 C305 1.224 . S
N307 Co297 2.128 . S
N307 C308 1.355 . S
N307 C310 1.311 . S
C308 N307 1.355 . S
C308 C309 1.363 . S
C308 H320 0.929 . S
C309 C308 1.363 . S
C309 N311 1.375 . S
C309 H327 0.931 . S
C310 N307 1.311 . S
C310 N311 1.347 . S
C310 H321 0.929 . S
N311 C309 1.375 . S
N311 C310 1.347 . S
C312 C315 1.365 . S
C312 N317 1.328 . S
C312 H318 0.929 . S
C313 C314 1.362 . S
C313 C316 1.378 . S
C313 H328 0.929 . S
C314 C313 1.362 . S
C314 C315 1.366 . S
C315 C312 1.365 . S
C315 C314 1.366 . S
C315 H329 0.930 . S
C316 C313 1.378 . S
C316 N317 1.315 . S
C316 H319 0.930 . S
N317 Co297 2.194 . S
N317 C312 1.328 . S
N317 C316 1.315 . S
H318 C312 0.929 . S
H319 C316 0.930 . S
H320 C308 0.929 . S
H321 C310 0.929 . S
O322 Co297 2.351 . S
O322 C325 1.244 . S
O323 Co297 2.155 . S
O323 C325 1.240 . S
O324 Co297 2.096 . S
O324 C305 1.247 . S
C325 O322 1.244 . S
C325 O323 1.240 . S
H326 C300 0.931 . S
H327 C309 0.931 . S
H328 C313 0.929 . S
H329 C315 0.930 . S
Co330 N334 2.148 . S
Co330 N340 2.128 . S
Co330 N350 2.194 . S
Co330 O355 2.351 . S
Co330 O356 2.155 . S
Co330 O357 2.096 . S
C331 N334 1.301 . S
C331 N335 1.328 . S
C331 H336 0.930 . S
C332 C333 1.333 . S
C332 N334 1.317 . S
C332 H337 0.930 . S
C333 C332 1.333 . S
C333 N335 1.350 . S
C333 H359 0.931 . S
N334 Co330 2.148 . S
N334 C331 1.301 . S
N334 C332 1.317 . S
N335 C331 1.328 . S
N335 C333 1.350 . S
H336 C331 0.930 . S
H337 C332 0.930 . S
C338 O339 1.224 . S
C338 O357 1.247 . S
O339 C338 1.224 . S
N340 Co330 2.128 . S
N340 C341 1.355 . S
N340 C343 1.311 . S
C341 N340 1.355 . S
C341 C342 1.363 . S
C341 H353 0.929 . S
C342 C341 1.363 . S
C342 N344 1.375 . S
C342 H360 0.931 . S
C343 N340 1.311 . S
C343 N344 1.347 . S
C343 H354 0.929 . S
N344 C342 1.375 . S
N344 C343 1.347 . S
C345 C348 1.365 . S
C345 N350 1.328 . S
C345 H351 0.929 . S
C346 C347 1.362 . S
C346 C349 1.378 . S
C346 H361 0.929 . S
C347 C346 1.362 . S
C347 C348 1.366 . S
C348 C345 1.365 . S
C348 C347 1.366 . S
C348 H362 0.930 . S
C349 C346 1.378 . S
C349 N350 1.315 . S
C349 H352 0.930 . S
N350 Co330 2.194 . S
N350 C345 1.328 . S
N350 C349 1.315 . S
H351 C345 0.929 . S
H352 C349 0.930 . S
H353 C341 0.929 . S
H354 C343 0.929 . S
O355 Co330 2.351 . S
O355 C358 1.244 . S
O356 Co330 2.155 . S
O356 C358 1.240 . S
O357 Co330 2.096 . S
O357 C338 1.247 . S
C358 O355 1.244 . S
C358 O356 1.240 . S
H359 C333 0.931 . S
H360 C342 0.931 . S
H361 C346 0.929 . S
H362 C348 0.930 . S
Co363 N367 2.148 . S
Co363 N373 2.128 . S
Co363 N383 2.194 . S
Co363 O388 2.351 . S
Co363 O389 2.155 . S
Co363 O390 2.096 . S
C364 N367 1.301 . S
C364 N368 1.328 . S
C364 H369 0.930 . S
C365 C366 1.333 . S
C365 N367 1.317 . S
C365 H370 0.930 . S
C366 C365 1.333 . S
C366 N368 1.350 . S
C366 H392 0.931 . S
N367 Co363 2.148 . S
N367 C364 1.301 . S
N367 C365 1.317 . S
N368 C364 1.328 . S
N368 C366 1.350 . S
H369 C364 0.930 . S
H370 C365 0.930 . S
C371 O372 1.224 . S
C371 O390 1.247 . S
O372 C371 1.224 . S
N373 Co363 2.128 . S
N373 C374 1.355 . S
N373 C376 1.311 . S
C374 N373 1.355 . S
C374 C375 1.363 . S
C374 H386 0.929 . S
C375 C374 1.363 . S
C375 N377 1.375 . S
C375 H393 0.931 . S
C376 N373 1.311 . S
C376 N377 1.347 . S
C376 H387 0.929 . S
N377 C375 1.375 . S
N377 C376 1.347 . S
C378 C381 1.365 . S
C378 N383 1.328 . S
C378 H384 0.929 . S
C379 C380 1.362 . S
C379 C382 1.378 . S
C379 H394 0.929 . S
C380 C379 1.362 . S
C380 C381 1.366 . S
C381 C378 1.365 . S
C381 C380 1.366 . S
C381 H395 0.930 . S
C382 C379 1.378 . S
C382 N383 1.315 . S
C382 H385 0.930 . S
N383 Co363 2.194 . S
N383 C378 1.328 . S
N383 C382 1.315 . S
H384 C378 0.929 . S
H385 C382 0.930 . S
H386 C374 0.929 . S
H387 C376 0.929 . S
O388 Co363 2.351 . S
O388 C391 1.244 . S
O389 Co363 2.155 . S
O389 C391 1.240 . S
O390 Co363 2.096 . S
O390 C371 1.247 . S
C391 O388 1.244 . S
C391 O389 1.240 . S
H392 C366 0.931 . S
H393 C375 0.931 . S
H394 C379 0.929 . S
H395 C381 0.930 . S
Co396 N400 2.148 . S
Co396 N406 2.128 . S
Co396 N416 2.194 . S
Co396 O421 2.351 . S
Co396 O422 2.155 . S
Co396 O423 2.096 . S
C397 N400 1.301 . S
C397 N401 1.328 . S
C397 H402 0.930 . S
C398 C399 1.333 . S
C398 N400 1.317 . S
C398 H403 0.930 . S
C399 C398 1.333 . S
C399 N401 1.350 . S
C399 H425 0.931 . S
N400 Co396 2.148 . S
N400 C397 1.301 . S
N400 C398 1.317 . S
N401 C397 1.328 . S
N401 C399 1.350 . S
H402 C397 0.930 . S
H403 C398 0.930 . S
C404 O405 1.224 . S
C404 O423 1.247 . S
O405 C404 1.224 . S
N406 Co396 2.128 . S
N406 C407 1.355 . S
N406 C409 1.311 . S
C407 N406 1.355 . S
C407 C408 1.363 . S
C407 H419 0.929 . S
C408 C407 1.363 . S
C408 N410 1.375 . S
C408 H426 0.931 . S
C409 N406 1.311 . S
C409 N410 1.347 . S
C409 H420 0.929 . S
N410 C408 1.375 . S
N410 C409 1.347 . S
C411 C414 1.365 . S
C411 N416 1.328 . S
C411 H417 0.929 . S
C412 C413 1.362 . S
C412 C415 1.378 . S
C412 H427 0.929 . S
C413 C412 1.362 . S
C413 C414 1.366 . S
C414 C411 1.365 . S
C414 C413 1.366 . S
C414 H428 0.930 . S
C415 C412 1.378 . S
C415 N416 1.315 . S
C415 H418 0.930 . S
N416 Co396 2.194 . S
N416 C411 1.328 . S
N416 C415 1.315 . S
H417 C411 0.929 . S
H418 C415 0.930 . S
H419 C407 0.929 . S
H420 C409 0.929 . S
O421 Co396 2.351 . S
O421 C424 1.244 . S
O422 Co396 2.155 . S
O422 C424 1.240 . S
O423 Co396 2.096 . S
O423 C404 1.247 . S
C424 O421 1.244 . S
C424 O422 1.240 . S
H425 C399 0.931 . S
H426 C408 0.931 . S
H427 C412 0.929 . S
H428 C414 0.930 . S
Co429 N433 2.148 . S
Co429 N439 2.128 . S
Co429 N449 2.194 . S
Co429 O454 2.351 . S
Co429 O455 2.155 . S
Co429 O456 2.096 . S
C430 N433 1.301 . S
C430 N434 1.328 . S
C430 H435 0.930 . S
C431 C432 1.333 . S
C431 N433 1.317 . S
C431 H436 0.930 . S
C432 C431 1.333 . S
C432 N434 1.350 . S
C432 H458 0.931 . S
N433 Co429 2.148 . S
N433 C430 1.301 . S
N433 C431 1.317 . S
N434 C430 1.328 . S
N434 C432 1.350 . S
H435 C430 0.930 . S
H436 C431 0.930 . S
C437 O438 1.224 . S
C437 O456 1.247 . S
O438 C437 1.224 . S
N439 Co429 2.128 . S
N439 C440 1.355 . S
N439 C442 1.311 . S
C440 N439 1.355 . S
C440 C441 1.363 . S
C440 H452 0.929 . S
C441 C440 1.363 . S
C441 N443 1.375 . S
C441 H459 0.931 . S
C442 N439 1.311 . S
C442 N443 1.347 . S
C442 H453 0.929 . S
N443 C441 1.375 . S
N443 C442 1.347 . S
C444 C447 1.365 . S
C444 N449 1.328 . S
C444 H450 0.929 . S
C445 C446 1.362 . S
C445 C448 1.378 . S
C445 H460 0.929 . S
C446 C445 1.362 . S
C446 C447 1.366 . S
C447 C444 1.365 . S
C447 C446 1.366 . S
C447 H461 0.930 . S
C448 C445 1.378 . S
C448 N449 1.315 . S
C448 H451 0.930 . S
N449 Co429 2.194 . S
N449 C444 1.328 . S
N449 C448 1.315 . S
H450 C444 0.929 . S
H451 C448 0.930 . S
H452 C440 0.929 . S
H453 C442 0.929 . S
O454 Co429 2.351 . S
O454 C457 1.244 . S
O455 Co429 2.155 . S
O455 C457 1.240 . S
O456 Co429 2.096 . S
O456 C437 1.247 . S
C457 O454 1.244 . S
C457 O455 1.240 . S
H458 C432 0.931 . S
H459 C441 0.931 . S
H460 C445 0.929 . S
H461 C447 0.930 . S
Co462 N466 2.148 . S
Co462 N472 2.128 . S
Co462 N482 2.194 . S
Co462 O487 2.351 . S
Co462 O488 2.155 . S
Co462 O489 2.096 . S
C463 N466 1.301 . S
C463 N467 1.328 . S
C463 H468 0.930 . S
C464 C465 1.333 . S
C464 N466 1.317 . S
C464 H469 0.930 . S
C465 C464 1.333 . S
C465 N467 1.350 . S
C465 H491 0.931 . S
N466 Co462 2.148 . S
N466 C463 1.301 . S
N466 C464 1.317 . S
N467 C463 1.328 . S
N467 C465 1.350 . S
H468 C463 0.930 . S
H469 C464 0.930 . S
C470 O471 1.224 . S
C470 O489 1.247 . S
O471 C470 1.224 . S
N472 Co462 2.128 . S
N472 C473 1.355 . S
N472 C475 1.311 . S
C473 N472 1.355 . S
C473 C474 1.363 . S
C473 H485 0.929 . S
C474 C473 1.363 . S
C474 N476 1.375 . S
C474 H492 0.931 . S
C475 N472 1.311 . S
C475 N476 1.347 . S
C475 H486 0.929 . S
N476 C474 1.375 . S
N476 C475 1.347 . S
C477 C480 1.365 . S
C477 N482 1.328 . S
C477 H483 0.929 . S
C478 C479 1.362 . S
C478 C481 1.378 . S
C478 H493 0.929 . S
C479 C478 1.362 . S
C479 C480 1.366 . S
C480 C477 1.365 . S
C480 C479 1.366 . S
C480 H494 0.930 . S
C481 C478 1.378 . S
C481 N482 1.315 . S
C481 H484 0.930 . S
N482 Co462 2.194 . S
N482 C477 1.328 . S
N482 C481 1.315 . S
H483 C477 0.929 . S
H484 C481 0.930 . S
H485 C473 0.929 . S
H486 C475 0.929 . S
O487 Co462 2.351 . S
O487 C490 1.244 . S
O488 Co462 2.155 . S
O488 C490 1.240 . S
O489 Co462 2.096 . S
O489 C470 1.247 . S
C490 O487 1.244 . S
C490 O488 1.240 . S
H491 C465 0.931 . S
H492 C474 0.931 . S
H493 C478 0.929 . S
H494 C480 0.930 . S
Co495 N499 2.148 . S
Co495 N505 2.128 . S
Co495 N515 2.194 . S
Co495 O520 2.351 . S
Co495 O521 2.155 . S
Co495 O522 2.096 . S
C496 N499 1.301 . S
C496 N500 1.328 . S
C496 H501 0.930 . S
C497 C498 1.333 . S
C497 N499 1.317 . S
C497 H502 0.930 . S
C498 C497 1.333 . S
C498 N500 1.350 . S
C498 H524 0.931 . S
N499 Co495 2.148 . S
N499 C496 1.301 . S
N499 C497 1.317 . S
N500 C496 1.328 . S
N500 C498 1.350 . S
H501 C496 0.930 . S
H502 C497 0.930 . S
C503 O504 1.224 . S
C503 O522 1.247 . S
O504 C503 1.224 . S
N505 Co495 2.128 . S
N505 C506 1.355 . S
N505 C508 1.311 . S
C506 N505 1.355 . S
C506 C507 1.363 . S
C506 H518 0.929 . S
C507 C506 1.363 . S
C507 N509 1.375 . S
C507 H525 0.931 . S
C508 N505 1.311 . S
C508 N509 1.347 . S
C508 H519 0.929 . S
N509 C507 1.375 . S
N509 C508 1.347 . S
C510 C513 1.365 . S
C510 N515 1.328 . S
C510 H516 0.929 . S
C511 C512 1.362 . S
C511 C514 1.378 . S
C511 H526 0.929 . S
C512 C511 1.362 . S
C512 C513 1.366 . S
C513 C510 1.365 . S
C513 C512 1.366 . S
C513 H527 0.930 . S
C514 C511 1.378 . S
C514 N515 1.315 . S
C514 H517 0.930 . S
N515 Co495 2.194 . S
N515 C510 1.328 . S
N515 C514 1.315 . S
H516 C510 0.929 . S
H517 C514 0.930 . S
H518 C506 0.929 . S
H519 C508 0.929 . S
O520 Co495 2.351 . S
O520 C523 1.244 . S
O521 Co495 2.155 . S
O521 C523 1.240 . S
O522 Co495 2.096 . S
O522 C503 1.247 . S
C523 O520 1.244 . S
C523 O521 1.240 . S
H524 C498 0.931 . S
H525 C507 0.931 . S
H526 C511 0.929 . S
H527 C513 0.930 . S
H528 C534 0.930 . S
H529 C537 0.930 . S
H530 C538 0.930 . S
H531 C539 0.930 . S
H532 C542 0.930 . S
H533 C543 0.930 . S
C534 H528 0.930 . S
C534 C535 1.355 . S
C534 C536 1.415 . S
C535 C534 1.355 . S
C535 C537 1.419 . S
C536 C534 1.415 . S
C536 C541 1.425 . S
C536 C543 1.409 . S
C537 H529 0.930 . S
C537 C535 1.419 . S
C537 C538 1.362 . S
C538 H530 0.930 . S
C538 C537 1.362 . S
C538 C541 1.409 . S
C539 H531 0.930 . S
C539 C540 1.355 . S
C539 C541 1.415 . S
C540 C539 1.355 . S
C540 C542 1.419 . S
C541 C536 1.425 . S
C541 C538 1.409 . S
C541 C539 1.415 . S
C542 H532 0.930 . S
C542 C540 1.419 . S
C542 C543 1.362 . S
C543 H533 0.930 . S
C543 C536 1.409 . S
C543 C542 1.362 . S
H544 C550 0.930 . S
H545 C553 0.930 . S
H546 C554 0.930 . S
H547 C555 0.930 . S
H548 C558 0.930 . S
H549 C559 0.947 . S
C550 H544 0.930 . S
C550 C551 1.355 . S
C550 C552 1.415 1_655 S
C551 C550 1.355 . S
C551 C553 1.419 1_655 S
C552 C550 1.415 1_455 S
C552 C557 1.425 . S
C552 C559 1.409 1_445 S
C553 H545 0.930 . S
C553 C551 1.419 1_455 S
C553 C554 1.362 . S
C554 H546 0.930 . S
C554 C553 1.362 . S
C554 C557 1.409 . S
C555 H547 0.930 . S
C555 C556 1.355 1_545 S
C555 C557 1.415 . S
C556 C555 1.355 1_565 S
C556 C558 1.419 . S
C557 C552 1.425 . S
C557 C554 1.409 . S
C557 C555 1.415 . S
C558 H548 0.930 . S
C558 C556 1.419 . S
C558 C559 1.346 1_455 S
C559 H549 0.947 . S
C559 C552 1.409 1_665 S
C559 C558 1.346 1_655 S
H560 C566 0.930 . S
H561 C569 0.930 . S
H562 C570 0.930 . S
H563 C571 0.930 . S
H564 C574 0.930 . S
H565 C575 0.930 . S
C566 H560 0.930 . S
C566 C567 1.355 . S
C566 C568 1.415 . S
C567 C566 1.355 . S
C567 C569 1.419 . S
C568 C566 1.415 . S
C568 C573 1.425 . S
C568 C575 1.409 . S
C569 H561 0.930 . S
C569 C567 1.419 . S
C569 C570 1.362 . S
C570 H562 0.930 . S
C570 C569 1.362 . S
C570 C573 1.409 . S
C571 H563 0.930 . S
C571 C572 1.355 . S
C571 C573 1.415 . S
C572 C571 1.355 . S
C572 C574 1.419 . S
C573 C568 1.425 . S
C573 C570 1.409 . S
C573 C571 1.415 . S
C574 H564 0.930 . S
C574 C572 1.419 . S
C574 C575 1.362 . S
C575 H565 0.930 . S
C575 C568 1.409 . S
C575 C574 1.362 . S
H576 C582 0.930 1_554 S
H577 C585 0.930 . S
H578 C586 0.930 . S
H579 C587 0.930 . S
H580 C590 0.930 . S
H581 C591 0.930 . S
C582 H576 0.930 1_556 S
C582 C583 1.355 . S
C582 C584 1.415 1_546 S
C583 C582 1.355 . S
C583 C585 1.419 . S
C584 C582 1.415 1_564 S
C584 C589 1.425 1_554 S
C584 C591 1.409 . S
C585 H577 0.930 . S
C585 C583 1.419 . S
C585 C586 1.362 . S
C586 H578 0.930 . S
C586 C585 1.362 . S
C586 C589 1.409 1_545 S
C587 H579 0.930 . S
C587 C588 1.355 . S
C587 C589 1.415 1_554 S
C588 C587 1.355 . S
C588 C590 1.419 . S
C589 C584 1.425 1_556 S
C589 C586 1.409 1_565 S
C589 C587 1.415 1_556 S
C590 H580 0.930 . S
C590 C588 1.419 . S
C590 C591 1.362 . S
C591 H581 0.930 . S
C591 C584 1.409 . S
C591 C590 1.362 . S
H592 C598 0.930 . S
H593 C601 0.930 . S
H594 C602 0.930 . S
H595 C603 0.930 . S
H596 C606 0.930 . S
H597 C607 0.930 . S
C598 H592 0.930 . S
C598 C599 1.355 . S
C598 C600 1.415 . S
C599 C598 1.355 . S
C599 C601 1.419 . S
C600 C598 1.415 . S
C600 C605 1.425 . S
C600 C607 1.409 . S
C601 H593 0.930 . S
C601 C599 1.419 . S
C601 C602 1.362 . S
C602 H594 0.930 . S
C602 C601 1.362 . S
C602 C605 1.409 . S
C603 H595 0.930 . S
C603 C604 1.355 . S
C603 C605 1.415 . S
C604 C603 1.355 . S
C604 C606 1.419 . S
C605 C600 1.425 . S
C605 C602 1.409 . S
C605 C603 1.415 . S
C606 H596 0.930 . S
C606 C604 1.419 . S
C606 C607 1.362 . S
C607 H597 0.930 . S
C607 C600 1.409 . S
C607 C606 1.362 . S
H608 C614 0.930 . S
H609 C617 0.930 . S
H610 C618 0.930 . S
H611 C619 0.930 . S
H612 C622 0.930 . S
H613 C623 0.930 . S
C614 H608 0.930 . S
C614 C615 1.355 . S
C614 C616 1.415 . S
C615 C614 1.355 . S
C615 C617 1.419 . S
C616 C614 1.415 . S
C616 C621 1.425 . S
C616 C623 1.409 . S
C617 H609 0.930 . S
C617 C615 1.419 . S
C617 C618 1.362 1_565 S
C618 H610 0.930 . S
C618 C617 1.362 1_545 S
C618 C621 1.409 1_545 S
C619 H611 0.930 . S
C619 C620 1.355 . S
C619 C621 1.415 1_545 S
C620 C619 1.355 . S
C620 C622 1.419 1_545 S
C621 C616 1.425 . S
C621 C618 1.409 1_565 S
C621 C619 1.415 1_565 S
C622 H612 0.930 . S
C622 C620 1.419 1_565 S
C622 C623 1.362 . S
C623 H613 0.930 . S
C623 C616 1.409 . S
C623 C622 1.362 . S
H624 C630 0.930 . S
H625 C633 0.930 . S
H626 C634 0.930 . S
H627 C635 0.930 . S
H628 C638 0.930 . S
H629 C639 0.930 . S
C630 H624 0.930 . S
C630 C631 1.355 . S
C630 C632 1.415 . S
C631 C630 1.355 . S
C631 C633 1.419 . S
C632 C630 1.415 . S
C632 C637 1.425 . S
C632 C639 1.409 . S
C633 H625 0.930 . S
C633 C631 1.419 . S
C633 C634 1.362 . S
C634 H626 0.930 . S
C634 C633 1.362 . S
C634 C637 1.409 . S
C635 H627 0.930 . S
C635 C636 1.355 . S
C635 C637 1.415 . S
C636 C635 1.355 . S
C636 C638 1.419 . S
C637 C632 1.425 . S
C637 C634 1.409 . S
C637 C635 1.415 . S
C638 H628 0.930 . S
C638 C636 1.419 . S
C638 C639 1.362 . S
C639 H629 0.930 . S
C639 C632 1.409 . S
C639 C638 1.362 . S
H640 C646 0.930 . S
H641 C649 0.930 . S
H642 C650 0.937 . S
H643 C651 0.930 . S
H644 C654 0.930 . S
H645 C655 0.930 . S
C646 H640 0.930 . S
C646 C647 1.355 1_655 S
C646 C648 1.415 . S
C647 C646 1.355 1_455 S
C647 C649 1.419 . S
C648 C646 1.415 . S
C648 C653 1.439 1_544 S
C648 C655 1.409 . S
C649 H641 0.930 . S
C649 C647 1.419 . S
C649 C650 1.355 1_544 S
C650 H642 0.937 . S
C650 C649 1.355 1_566 S
C650 C653 1.386 1_455 S
C651 H643 0.930 . S
C651 C652 1.355 . S
C651 C653 1.425 . S
C652 C651 1.355 . S
C652 C654 1.419 . S
C653 C648 1.439 1_566 S
C653 C650 1.386 1_655 S
C653 C651 1.425 . S
C654 H644 0.930 . S
C654 C652 1.419 . S
C654 C655 1.362 1_566 S
C655 H645 0.930 . S
C655 C648 1.409 . S
C655 C654 1.362 1_544 S
H656 C662 0.930 . S
H657 C665 0.930 . S
H658 C666 0.930 . S
H659 C667 0.930 . S
H660 C670 0.930 . S
H661 C671 0.930 . S
C662 H656 0.930 . S
C662 C663 1.355 . S
C662 C664 1.415 . S
C663 C662 1.355 . S
C663 C665 1.419 . S
C664 C662 1.415 . S
C664 C669 1.425 . S
C664 C671 1.409 . S
C665 H657 0.930 . S
C665 C663 1.419 . S
C665 C666 1.362 . S
C666 H658 0.930 . S
C666 C665 1.362 . S
C666 C669 1.409 . S
C667 H659 0.930 . S
C667 C668 1.355 . S
C667 C669 1.415 . S
C668 C667 1.355 . S
C668 C670 1.419 . S
C669 C664 1.425 . S
C669 C666 1.409 . S
C669 C667 1.415 . S
C670 H660 0.930 . S
C670 C668 1.419 . S
C670 C671 1.362 . S
C671 H661 0.930 . S
C671 C664 1.409 . S
C671 C670 1.362 . S
H672 C678 0.930 . S
H673 C681 0.930 . S
H674 C682 0.930 1_554 S
H675 C683 0.930 . S
H676 C686 0.930 . S
H677 C687 0.930 . S
C678 H672 0.930 . S
C678 C679 1.355 . S
C678 C680 1.415 . S
C679 C678 1.355 . S
C679 C681 1.419 . S
C680 C678 1.415 . S
C680 C685 1.425 1_556 S
C680 C687 1.409 1_455 S
C681 H673 0.930 . S
C681 C679 1.419 . S
C681 C682 1.362 . S
C682 H674 0.930 1_556 S
C682 C681 1.362 . S
C682 C685 1.409 1_556 S
C683 H675 0.930 . S
C683 C684 1.355 1_455 S
C683 C685 1.415 . S
C684 C683 1.355 1_655 S
C684 C686 1.419 . S
C685 C680 1.425 1_554 S
C685 C682 1.409 1_554 S
C685 C683 1.415 . S
C686 H676 0.930 . S
C686 C684 1.419 . S
C686 C687 1.362 1_554 S
C687 H677 0.930 . S
C687 C680 1.409 1_655 S
C687 C686 1.362 1_556 S
H688 C694 0.930 . S
H689 C697 0.930 . S
H690 C698 0.930 . S
H691 C699 0.930 . S
H692 C702 0.930 . S
H693 C703 0.930 . S
C694 H688 0.930 . S
C694 C695 1.355 . S
C694 C696 1.415 . S
C695 C694 1.355 . S
C695 C697 1.419 . S
C696 C694 1.415 . S
C696 C701 1.425 . S
C696 C703 1.409 . S
C697 H689 0.930 . S
C697 C695 1.419 . S
C697 C698 1.362 . S
C698 H690 0.930 . S
C698 C697 1.362 . S
C698 C701 1.409 . S
C699 H691 0.930 . S
C699 C700 1.355 . S
C699 C701 1.415 . S
C700 C699 1.355 . S
C700 C702 1.419 . S
C701 C696 1.425 . S
C701 C698 1.409 . S
C701 C699 1.415 . S
C702 H692 0.930 . S
C702 C700 1.419 . S
C702 C703 1.362 . S
C703 H693 0.930 . S
C703 C696 1.409 . S
C703 C702 1.362 . S
H704 C710 0.930 . S
H705 C713 0.930 . S
H706 C714 0.930 . S
H707 C715 0.930 . S
H708 C718 0.930 . S
H709 C719 0.930 . S
C710 H704 0.930 . S
C710 C711 1.355 . S
C710 C712 1.422 . S
C711 C710 1.355 . S
C711 C713 1.419 . S
C712 C710 1.422 . S
C712 C717 1.433 . S
C712 C719 1.394 1_655 S
C713 H705 0.930 . S
C713 C711 1.419 . S
C713 C714 1.362 . S
C714 H706 0.930 . S
C714 C713 1.362 . S
C714 C717 1.409 . S
C715 H707 0.930 . S
C715 C716 1.355 1_655 S
C715 C717 1.415 . S
C716 C715 1.355 1_455 S
C716 C718 1.419 . S
C717 C712 1.433 . S
C717 C714 1.409 . S
C717 C715 1.415 . S
C718 H708 0.930 . S
C718 C716 1.419 . S
C718 C719 1.362 . S
C719 H709 0.930 . S
C719 C712 1.394 1_455 S
C719 C718 1.362 . S
H720 C726 0.930 . S
H721 C729 0.930 . S
H722 C730 0.930 . S
H723 C731 0.934 . S
H724 C734 0.930 . S
H725 C735 0.930 . S
C726 H720 0.930 . S
C726 C727 1.355 . S
C726 C728 1.415 . S
C727 C726 1.355 . S
C727 C729 1.419 . S
C728 C726 1.415 . S
C728 C733 1.425 . S
C728 C735 1.409 1_556 S
C729 H721 0.930 . S
C729 C727 1.419 . S
C729 C730 1.362 . S
C730 H722 0.930 . S
C730 C729 1.362 . S
C730 C733 1.409 . S
C731 H723 0.934 . S
C731 C732 1.355 . S
C731 C733 1.415 1_554 S
C732 C731 1.355 . S
C732 C734 1.419 . S
C733 C728 1.425 . S
C733 C730 1.409 . S
C733 C731 1.415 1_556 S
C734 H724 0.930 . S
C734 C732 1.419 . S
C734 C735 1.362 . S
C735 H725 0.930 . S
C735 C728 1.409 1_554 S
C735 C734 1.362 . S
H736 C742 0.930 . S
H737 C745 0.930 . S
H738 C746 0.930 . S
H739 C747 0.930 . S
H740 C750 0.930 . S
H741 C751 0.930 . S
C742 H736 0.930 . S
C742 C743 1.355 . S
C742 C744 1.415 . S
C743 C742 1.355 . S
C743 C745 1.419 . S
C744 C742 1.415 . S
C744 C749 1.425 . S
C744 C751 1.409 . S
C745 H737 0.930 . S
C745 C743 1.419 . S
C745 C746 1.362 . S
C746 H738 0.930 . S
C746 C745 1.362 . S
C746 C749 1.409 . S
C747 H739 0.930 . S
C747 C748 1.355 . S
C747 C749 1.415 . S
C748 C747 1.355 . S
C748 C750 1.419 . S
C749 C744 1.425 . S
C749 C746 1.409 . S
C749 C747 1.415 . S
C750 H740 0.930 . S
C750 C748 1.419 . S
C750 C751 1.362 . S
C751 H741 0.930 . S
C751 C744 1.409 . S
C751 C750 1.362 . S
H752 C758 0.930 . S
H753 C761 0.930 . S
H754 C762 0.930 . S
H755 C763 0.930 . S
H756 C766 0.930 . S
H757 C767 0.930 . S
C758 H752 0.930 . S
C758 C759 1.355 . S
C758 C760 1.415 . S
C759 C758 1.355 . S
C759 C761 1.419 . S
C760 C758 1.415 . S
C760 C765 1.425 . S
C760 C767 1.409 . S
C761 H753 0.930 . S
C761 C759 1.419 . S
C761 C762 1.362 . S
C762 H754 0.930 . S
C762 C761 1.362 . S
C762 C765 1.409 . S
C763 H755 0.930 . S
C763 C764 1.355 . S
C763 C765 1.415 . S
C764 C763 1.355 . S
C764 C766 1.419 . S
C765 C760 1.425 . S
C765 C762 1.409 . S
C765 C763 1.415 . S
C766 H756 0.930 . S
C766 C764 1.419 . S
C766 C767 1.362 . S
C767 H757 0.930 . S
C767 C760 1.409 . S
C767 C766 1.362 . S
H768 C774 0.930 . S
H769 C777 0.930 . S
H770 C778 0.930 . S
H771 C779 0.930 . S
H772 C782 0.930 . S
H773 C783 0.930 . S
C774 H768 0.930 . S
C774 C775 1.355 . S
C774 C776 1.415 . S
C775 C774 1.355 . S
C775 C777 1.419 . S
C776 C774 1.415 . S
C776 C781 1.425 . S
C776 C783 1.409 . S
C777 H769 0.930 . S
C777 C775 1.419 . S
C777 C778 1.362 . S
C778 H770 0.930 . S
C778 C777 1.362 . S
C778 C781 1.409 . S
C779 H771 0.930 . S
C779 C780 1.355 . S
C779 C781 1.415 . S
C780 C779 1.355 . S
C780 C782 1.419 . S
C781 C776 1.425 . S
C781 C778 1.409 . S
C781 C779 1.415 . S
C782 H772 0.930 . S
C782 C780 1.419 . S
C782 C783 1.362 . S
C783 H773 0.930 . S
C783 C776 1.409 . S
C783 C782 1.362 . S
H784 C790 0.930 . S
H785 C793 0.930 . S
H786 C794 0.930 . S
H787 C795 0.930 1_545 S
H788 C798 0.930 . S
H789 C799 0.930 . S
C790 H784 0.930 . S
C790 C791 1.355 . S
C790 C792 1.416 . S
C791 C790 1.355 . S
C791 C793 1.419 . S
C792 C790 1.416 . S
C792 C797 1.426 . S
C792 C799 1.406 1_545 S
C793 H785 0.930 . S
C793 C791 1.419 . S
C793 C794 1.362 . S
C794 H786 0.930 . S
C794 C793 1.362 . S
C794 C797 1.409 . S
C795 H787 0.930 1_565 S
C795 C796 1.355 . S
C795 C797 1.415 1_565 S
C796 C795 1.355 . S
C796 C798 1.419 . S
C797 C792 1.426 . S
C797 C794 1.409 . S
C797 C795 1.415 1_545 S
C798 H788 0.930 . S
C798 C796 1.419 . S
C798 C799 1.362 . S
C799 H789 0.930 . S
C799 C792 1.406 1_565 S
C799 C798 1.362 . S
H800 C806 0.930 . S
H801 C809 0.930 . S
H802 C810 0.930 . S
H803 C811 0.930 . S
H804 C814 0.930 . S
H805 C815 0.930 . S
C806 H800 0.930 . S
C806 C807 1.355 . S
C806 C808 1.415 . S
C807 C806 1.355 . S
C807 C809 1.419 . S
C808 C806 1.415 . S
C808 C813 1.425 . S
C808 C815 1.409 . S
C809 H801 0.930 . S
C809 C807 1.419 . S
C809 C810 1.362 . S
C810 H802 0.930 . S
C810 C809 1.362 . S
C810 C813 1.409 . S
C811 H803 0.930 . S
C811 C812 1.355 . S
C811 C813 1.415 . S
C812 C811 1.355 . S
C812 C814 1.419 . S
C813 C808 1.425 . S
C813 C810 1.409 . S
C813 C811 1.415 . S
C814 H804 0.930 . S
C814 C812 1.419 . S
C814 C815 1.362 . S
C815 H805 0.930 . S
C815 C808 1.409 . S
C815 C814 1.362 . S
H816 C822 0.930 . S
H817 C825 0.930 . S
H818 C826 0.930 1_545 S
H819 C827 0.930 . S
H820 C830 0.930 . S
H821 C831 0.930 . S
C822 H816 0.930 . S
C822 C823 1.355 . S
C822 C824 1.415 . S
C823 C822 1.355 . S
C823 C825 1.419 . S
C824 C822 1.415 . S
C824 C829 1.425 1_565 S
C824 C831 1.409 . S
C825 H817 0.930 . S
C825 C823 1.419 . S
C825 C826 1.362 . S
C826 H818 0.930 1_565 S
C826 C825 1.362 . S
C826 C829 1.409 1_565 S
C827 H819 0.930 . S
C827 C828 1.355 . S
C827 C829 1.415 . S
C828 C827 1.355 . S
C828 C830 1.419 . S
C829 C824 1.425 1_545 S
C829 C826 1.409 1_545 S
C829 C827 1.415 . S
C830 H820 0.930 . S
C830 C828 1.419 . S
C830 C831 1.362 1_545 S
C831 H821 0.930 . S
C831 C824 1.409 . S
C831 C830 1.362 1_565 S
H832 C838 0.930 . S
H833 C841 0.930 . S
H834 C842 0.930 . S
H835 C843 0.930 . S
H836 C846 0.930 . S
H837 C847 0.930 . S
C838 H832 0.930 . S
C838 C839 1.355 . S
C838 C840 1.415 1_556 S
C839 C838 1.355 . S
C839 C841 1.419 . S
C840 C838 1.415 1_554 S
C840 C845 1.425 1_554 S
C840 C847 1.409 . S
C841 H833 0.930 . S
C841 C839 1.419 . S
C841 C842 1.362 . S
C842 H834 0.930 . S
C842 C841 1.362 . S
C842 C845 1.409 . S
C843 H835 0.930 . S
C843 C844 1.355 . S
C843 C845 1.415 1_554 S
C844 C843 1.355 . S
C844 C846 1.419 . S
C845 C840 1.425 1_556 S
C845 C842 1.409 . S
C845 C843 1.415 1_556 S
C846 H836 0.930 . S
C846 C844 1.419 . S
C846 C847 1.362 . S
C847 H837 0.930 . S
C847 C840 1.409 . S
C847 C846 1.362 . S
H848 C854 0.930 . S
H849 C857 0.930 . S
H850 C858 0.930 . S
H851 C859 0.930 . S
H852 C862 0.930 . S
H853 C863 0.930 . S
C854 H848 0.930 . S
C854 C855 1.355 . S
C854 C856 1.415 . S
C855 C854 1.355 . S
C855 C857 1.419 . S
C856 C854 1.415 . S
C856 C861 1.425 1_455 S
C856 C863 1.409 . S
C857 H849 0.930 . S
C857 C855 1.419 . S
C857 C858 1.362 1_455 S
C858 H850 0.930 . S
C858 C857 1.362 1_655 S
C858 C861 1.409 . S
C859 H851 0.930 . S
C859 C860 1.355 . S
C859 C861 1.415 . S
C860 C859 1.355 . S
C860 C862 1.419 . S
C861 C856 1.425 1_655 S
C861 C858 1.409 . S
C861 C859 1.415 . S
C862 H852 0.930 . S
C862 C860 1.419 . S
C862 C863 1.362 1_655 S
C863 H853 0.930 . S
C863 C856 1.409 . S
C863 C862 1.362 1_455 S
H864 C870 0.930 . S
H865 C873 0.930 . S
H866 C874 0.930 . S
H867 C875 0.930 . S
H868 C878 0.930 . S
H869 C879 0.930 . S
C870 H864 0.930 . S
C870 C871 1.355 . S
C870 C872 1.415 . S
C871 C870 1.355 . S
C871 C873 1.419 . S
C872 C870 1.415 . S
C872 C877 1.425 . S
C872 C879 1.409 . S
C873 H865 0.930 . S
C873 C871 1.419 . S
C873 C874 1.362 . S
C874 H866 0.930 . S
C874 C873 1.362 . S
C874 C877 1.409 . S
C875 H867 0.930 . S
C875 C876 1.355 . S
C875 C877 1.415 . S
C876 C875 1.355 . S
C876 C878 1.419 . S
C877 C872 1.425 . S
C877 C874 1.409 . S
C877 C875 1.415 . S
C878 H868 0.930 . S
C878 C876 1.419 . S
C878 C879 1.362 . S
C879 H869 0.930 . S
C879 C872 1.409 . S
C879 C878 1.362 . S
H880 C886 0.930 . S
H881 C889 0.930 . S
H882 C890 0.930 . S
H883 C891 0.930 . S
H884 C894 0.930 . S
H885 C895 0.930 . S
C886 H880 0.930 . S
C886 C887 1.355 . S
C886 C888 1.415 1_655 S
C887 C886 1.355 . S
C887 C889 1.419 . S
C888 C886 1.415 1_455 S
C888 C893 1.418 1_455 S
C888 C895 1.409 . S
C889 H881 0.930 . S
C889 C887 1.419 . S
C889 C890 1.362 . S
C890 H882 0.930 . S
C890 C889 1.362 . S
C890 C893 1.429 . S
C891 H883 0.930 . S
C891 C892 1.355 . S
C891 C893 1.402 1_455 S
C892 C891 1.355 . S
C892 C894 1.419 . S
C893 C888 1.418 1_655 S
C893 C890 1.429 . S
C893 C891 1.402 1_655 S
C894 H884 0.930 . S
C894 C892 1.419 . S
C894 C895 1.362 . S
C895 H885 0.930 . S
C895 C888 1.409 . S
C895 C894 1.362 . S
H896 C902 0.930 . S
H897 C905 0.930 . S
H898 C906 0.930 . S
H899 C907 0.930 . S
H900 C910 0.930 . S
H901 C911 0.930 . S
C902 H896 0.930 . S
C902 C903 1.355 . S
C902 C904 1.415 . S
C903 C902 1.355 . S
C903 C905 1.419 . S
C904 C902 1.415 . S
C904 C909 1.425 . S
C904 C911 1.409 . S
C905 H897 0.930 . S
C905 C903 1.419 . S
C905 C906 1.362 . S
C906 H898 0.930 . S
C906 C905 1.362 . S
C906 C909 1.409 . S
C907 H899 0.930 . S
C907 C908 1.355 . S
C907 C909 1.415 . S
C908 C907 1.355 . S
C908 C910 1.419 . S
C909 C904 1.425 . S
C909 C906 1.409 . S
C909 C907 1.415 . S
C910 H900 0.930 . S
C910 C908 1.419 . S
C910 C911 1.362 . S
C911 H901 0.930 . S
C911 C904 1.409 . S
C911 C910 1.362 . S
H912 C918 0.930 . S
H913 C921 0.930 . S
H914 C922 0.930 . S
H915 C923 0.930 . S
H916 C926 0.930 . S
H917 C927 0.930 . S
C918 H912 0.930 . S
C918 C919 1.355 . S
C918 C920 1.415 1_545 S
C919 C918 1.355 . S
C919 C921 1.419 . S
C920 C918 1.415 1_565 S
C920 C925 1.425 . S
C920 C927 1.409 . S
C921 H913 0.930 . S
C921 C919 1.419 . S
C921 C922 1.362 1_545 S
C922 H914 0.930 . S
C922 C921 1.362 1_565 S
C922 C925 1.409 . S
C923 H915 0.930 . S
C923 C924 1.355 . S
C923 C925 1.415 . S
C924 C923 1.355 . S
C924 C926 1.419 . S
C925 C920 1.425 . S
C925 C922 1.409 . S
C925 C923 1.415 . S
C926 H916 0.930 . S
C926 C924 1.419 . S
C926 C927 1.362 . S
C927 H917 0.930 . S
C927 C920 1.409 . S
C927 C926 1.362 . S
H928 C934 0.930 . S
H929 C937 0.930 . S
H930 C938 0.930 . S
H931 C939 0.930 . S
H932 C942 0.930 . S
H933 C943 0.930 . S
C934 H928 0.930 . S
C934 C935 1.355 . S
C934 C936 1.415 . S
C935 C934 1.355 . S
C935 C937 1.419 . S
C936 C934 1.415 . S
C936 C941 1.425 . S
C936 C943 1.409 . S
C937 H929 0.930 . S
C937 C935 1.419 . S
C937 C938 1.362 . S
C938 H930 0.930 . S
C938 C937 1.362 . S
C938 C941 1.409 . S
C939 H931 0.930 . S
C939 C940 1.355 . S
C939 C941 1.415 . S
C940 C939 1.355 . S
C940 C942 1.419 . S
C941 C936 1.425 . S
C941 C938 1.409 . S
C941 C939 1.415 . S
C942 H932 0.930 . S
C942 C940 1.419 . S
C942 C943 1.362 . S
C943 H933 0.930 . S
C943 C936 1.409 . S
C943 C942 1.362 . S
H944 C950 0.930 . S
H945 C953 0.930 . S
H946 C954 0.930 . S
H947 C955 0.930 . S
H948 C958 0.930 . S
H949 C959 0.930 . S
C950 H944 0.930 . S
C950 C951 1.355 . S
C950 C952 1.415 1_545 S
C951 C950 1.355 . S
C951 C953 1.419 . S
C952 C950 1.415 1_565 S
C952 C957 1.425 1_565 S
C952 C959 1.409 . S
C953 H945 0.930 . S
C953 C951 1.419 . S
C953 C954 1.362 . S
C954 H946 0.930 . S
C954 C953 1.362 . S
C954 C957 1.409 . S
C955 H947 0.930 . S
C955 C956 1.355 . S
C955 C957 1.415 1_565 S
C956 C955 1.355 . S
C956 C958 1.419 . S
C957 C952 1.425 1_545 S
C957 C954 1.409 . S
C957 C955 1.415 1_545 S
C958 H948 0.930 . S
C958 C956 1.419 . S
C958 C959 1.362 . S
C959 H949 0.930 . S
C959 C952 1.409 . S
C959 C958 1.362 . S
H960 C966 0.930 . S
H961 C969 0.930 . S
H962 C970 0.930 . S
H963 C971 0.930 . S
H964 C974 0.930 . S
H965 C975 0.930 . S
C966 H960 0.930 . S
C966 C967 1.355 . S
C966 C968 1.415 . S
C967 C966 1.355 . S
C967 C969 1.419 1_554 S
C968 C966 1.415 . S
C968 C973 1.425 1_554 S
C968 C975 1.409 . S
C969 H961 0.930 . S
C969 C967 1.419 1_556 S
C969 C970 1.362 . S
C970 H962 0.930 . S
C970 C969 1.362 . S
C970 C973 1.409 . S
C971 H963 0.930 . S
C971 C972 1.355 . S
C971 C973 1.415 . S
C972 C971 1.355 . S
C972 C974 1.419 . S
C973 C968 1.425 1_556 S
C973 C970 1.409 . S
C973 C971 1.415 . S
C974 H964 0.930 . S
C974 C972 1.419 . S
C974 C975 1.362 1_556 S
C975 H965 0.930 . S
C975 C968 1.409 . S
C975 C974 1.362 1_554 S
H976 C982 0.930 . S
H977 C985 0.930 . S
H978 C986 0.930 . S
H979 C987 0.930 . S
H980 C990 0.930 1_455 S
H981 C991 0.930 . S
C982 H976 0.930 . S
C982 C983 1.355 . S
C982 C984 1.415 . S
C983 C982 1.355 . S
C983 C985 1.419 . S
C984 C982 1.415 . S
C984 C989 1.425 1_455 S
C984 C991 1.409 . S
C985 H977 0.930 . S
C985 C983 1.419 . S
C985 C986 1.362 1_455 S
C986 H978 0.930 . S
C986 C985 1.362 1_655 S
C986 C989 1.409 . S
C987 H979 0.930 . S
C987 C988 1.355 . S
C987 C989 1.415 . S
C988 C987 1.355 . S
C988 C990 1.419 . S
C989 C984 1.425 1_655 S
C989 C986 1.409 . S
C989 C987 1.415 . S
C990 H980 0.930 1_655 S
C990 C988 1.419 . S
C990 C991 1.362 1_655 S
C991 H981 0.930 . S
C991 C984 1.409 . S
C991 C990 1.362 1_455 S
H992 C998 0.930 . S
H993 C1001 0.930 . S
H994 C1002 0.930 . S
H995 C1003 0.930 . S
H996 C1006 0.930 . S
H997 C1007 0.930 . S
C998 H992 0.930 . S
C998 C999 1.355 . S
C998 C1000 1.415 . S
C999 C998 1.355 . S
C999 C1001 1.419 . S
C1000 C998 1.415 . S
C1000 C1005 1.425 . S
C1000 C1007 1.409 . S
C1001 H993 0.930 . S
C1001 C999 1.419 . S
C1001 C1002 1.362 . S
C1002 H994 0.930 . S
C1002 C1001 1.362 . S
C1002 C1005 1.409 . S
C1003 H995 0.930 . S
C1003 C1004 1.355 . S
C1003 C1005 1.415 . S
C1004 C1003 1.355 . S
C1004 C1006 1.419 . S
C1005 C1000 1.425 . S
C1005 C1002 1.409 . S
C1005 C1003 1.415 . S
C1006 H996 0.930 . S
C1006 C1004 1.419 . S
C1006 C1007 1.362 . S
C1007 H997 0.930 . S
C1007 C1000 1.409 . S
C1007 C1006 1.362 . S
H1008 C1014 0.930 . S
H1009 C1017 0.930 . S
H1010 C1018 0.930 . S
H1011 C1019 0.930 . S
H1012 C1022 0.930 . S
H1013 C1023 0.930 . S
C1014 H1008 0.930 . S
C1014 C1015 1.355 . S
C1014 C1016 1.415 1_655 S
C1015 C1014 1.355 . S
C1015 C1017 1.419 . S
C1016 C1014 1.415 1_455 S
C1016 C1021 1.423 1_455 S
C1016 C1023 1.409 . S
C1017 H1009 0.930 . S
C1017 C1015 1.419 . S
C1017 C1018 1.362 . S
C1018 H1010 0.930 . S
C1018 C1017 1.362 . S
C1018 C1021 1.416 . S
C1019 H1011 0.930 . S
C1019 C1020 1.355 . S
C1019 C1021 1.410 1_455 S
C1020 C1019 1.355 . S
C1020 C1022 1.419 . S
C1021 C1016 1.423 1_655 S
C1021 C1018 1.416 . S
C1021 C1019 1.410 1_655 S
C1022 H1012 0.930 . S
C1022 C1020 1.419 . S
C1022 C1023 1.362 . S
C1023 H1013 0.930 . S
C1023 C1016 1.409 . S
C1023 C1022 1.362 . S
H1024 C1030 0.930 . S
H1025 C1033 0.930 . S
H1026 C1034 0.930 . S
H1027 C1035 0.930 . S
H1028 C1038 0.930 . S
H1029 C1039 0.930 . S
C1030 H1024 0.930 . S
C1030 C1031 1.355 . S
C1030 C1032 1.415 . S
C1031 C1030 1.355 . S
C1031 C1033 1.419 . S
C1032 C1030 1.415 . S
C1032 C1037 1.425 . S
C1032 C1039 1.409 . S
C1033 H1025 0.930 . S
C1033 C1031 1.419 . S
C1033 C1034 1.362 . S
C1034 H1026 0.930 . S
C1034 C1033 1.362 . S
C1034 C1037 1.409 . S
C1035 H1027 0.930 . S
C1035 C1036 1.355 . S
C1035 C1037 1.415 . S
C1036 C1035 1.355 . S
C1036 C1038 1.419 . S
C1037 C1032 1.425 . S
C1037 C1034 1.409 . S
C1037 C1035 1.415 . S
C1038 H1028 0.930 . S
C1038 C1036 1.419 . S
C1038 C1039 1.362 . S
C1039 H1029 0.930 . S
C1039 C1032 1.409 . S
C1039 C1038 1.362 . S
H1040 C1046 0.930 . S
H1041 C1049 0.930 . S
H1042 C1050 0.930 . S
H1043 C1051 0.930 . S
H1044 C1054 0.930 . S
H1045 C1055 0.930 . S
C1046 H1040 0.930 . S
C1046 C1047 1.355 . S
C1046 C1048 1.415 . S
C1047 C1046 1.355 . S
C1047 C1049 1.419 . S
C1048 C1046 1.415 . S
C1048 C1053 1.425 . S
C1048 C1055 1.409 . S
C1049 H1041 0.930 . S
C1049 C1047 1.419 . S
C1049 C1050 1.362 . S
C1050 H1042 0.930 . S
C1050 C1049 1.362 . S
C1050 C1053 1.409 . S
C1051 H1043 0.930 . S
C1051 C1052 1.355 . S
C1051 C1053 1.415 . S
C1052 C1051 1.355 . S
C1052 C1054 1.419 . S
C1053 C1048 1.425 . S
C1053 C1050 1.409 . S
C1053 C1051 1.415 . S
C1054 H1044 0.930 . S
C1054 C1052 1.419 . S
C1054 C1055 1.362 . S
C1055 H1045 0.930 . S
C1055 C1048 1.409 . S
C1055 C1054 1.362 . S
H1056 C1062 0.930 . S
H1057 C1065 0.930 . S
H1058 C1066 0.930 . S
H1059 C1067 0.930 . S
H1060 C1070 0.930 . S
H1061 C1071 0.930 . S
C1062 H1056 0.930 . S
C1062 C1063 1.355 . S
C1062 C1064 1.415 . S
C1063 C1062 1.355 . S
C1063 C1065 1.419 . S
C1064 C1062 1.415 . S
C1064 C1069 1.425 . S
C1064 C1071 1.409 1_556 S
C1065 H1057 0.930 . S
C1065 C1063 1.419 . S
C1065 C1066 1.362 . S
C1066 H1058 0.930 . S
C1066 C1065 1.362 . S
C1066 C1069 1.409 . S
C1067 H1059 0.930 . S
C1067 C1068 1.355 . S
C1067 C1069 1.415 1_554 S
C1068 C1067 1.355 . S
C1068 C1070 1.419 . S
C1069 C1064 1.425 . S
C1069 C1066 1.409 . S
C1069 C1067 1.415 1_556 S
C1070 H1060 0.930 . S
C1070 C1068 1.419 . S
C1070 C1071 1.362 . S
C1071 H1061 0.930 . S
C1071 C1064 1.409 1_554 S
C1071 C1070 1.362 . S
H1072 C1078 0.930 . S
H1073 C1081 0.930 . S
H1074 C1082 0.930 . S
H1075 C1083 0.930 . S
H1076 C1086 0.930 . S
H1077 C1087 0.930 . S
C1078 H1072 0.930 . S
C1078 C1079 1.355 . S
C1078 C1080 1.415 . S
C1079 C1078 1.355 . S
C1079 C1081 1.419 . S
C1080 C1078 1.415 . S
C1080 C1085 1.425 . S
C1080 C1087 1.409 . S
C1081 H1073 0.930 . S
C1081 C1079 1.419 . S
C1081 C1082 1.362 . S
C1082 H1074 0.930 . S
C1082 C1081 1.362 . S
C1082 C1085 1.409 . S
C1083 H1075 0.930 . S
C1083 C1084 1.355 . S
C1083 C1085 1.415 . S
C1084 C1083 1.355 . S
C1084 C1086 1.419 . S
C1085 C1080 1.425 . S
C1085 C1082 1.409 . S
C1085 C1083 1.415 . S
C1086 H1076 0.930 . S
C1086 C1084 1.419 . S
C1086 C1087 1.362 . S
C1087 H1077 0.930 . S
C1087 C1080 1.409 . S
C1087 C1086 1.362 . S
H1088 C1094 0.930 . S
H1089 C1097 0.930 . S
H1090 C1098 0.930 . S
H1091 C1099 0.930 . S
H1092 C1102 0.930 . S
H1093 C1103 0.930 . S
C1094 H1088 0.930 . S
C1094 C1095 1.355 . S
C1094 C1096 1.415 . S
C1095 C1094 1.355 . S
C1095 C1097 1.419 . S
C1096 C1094 1.415 . S
C1096 C1101 1.425 . S
C1096 C1103 1.409 . S
C1097 H1089 0.930 . S
C1097 C1095 1.419 . S
C1097 C1098 1.362 . S
C1098 H1090 0.930 . S
C1098 C1097 1.362 . S
C1098 C1101 1.409 . S
C1099 H1091 0.930 . S
C1099 C1100 1.355 . S
C1099 C1101 1.415 . S
C1100 C1099 1.355 . S
C1100 C1102 1.419 . S
C1101 C1096 1.425 . S
C1101 C1098 1.409 . S
C1101 C1099 1.415 . S
C1102 H1092 0.930 . S
C1102 C1100 1.419 . S
C1102 C1103 1.362 . S
C1103 H1093 0.930 . S
C1103 C1096 1.409 . S
C1103 C1102 1.362 . S
H1104 C1110 0.930 . S
H1105 C1113 0.930 . S
H1106 C1114 0.930 . S
H1107 C1115 0.930 . S
H1108 C1118 0.930 . S
H1109 C1119 0.930 . S
C1110 H1104 0.930 . S
C1110 C1111 1.355 . S
C1110 C1112 1.415 . S
C1111 C1110 1.355 . S
C1111 C1113 1.419 . S
C1112 C1110 1.415 . S
C1112 C1117 1.425 . S
C1112 C1119 1.409 . S
C1113 H1105 0.930 . S
C1113 C1111 1.419 . S
C1113 C1114 1.362 . S
C1114 H1106 0.930 . S
C1114 C1113 1.362 . S
C1114 C1117 1.409 . S
C1115 H1107 0.930 . S
C1115 C1116 1.355 . S
C1115 C1117 1.415 . S
C1116 C1115 1.355 . S
C1116 C1118 1.419 . S
C1117 C1112 1.425 . S
C1117 C1114 1.409 . S
C1117 C1115 1.415 . S
C1118 H1108 0.930 . S
C1118 C1116 1.419 . S
C1118 C1119 1.362 . S
C1119 H1109 0.930 . S
C1119 C1112 1.409 . S
C1119 C1118 1.362 . S
H1120 C1126 0.930 . S
H1121 C1129 0.930 . S
H1122 C1130 0.930 . S
H1123 C1131 0.930 . S
H1124 C1134 0.930 . S
H1125 C1135 0.930 . S
C1126 H1120 0.930 . S
C1126 C1127 1.355 . S
C1126 C1128 1.415 . S
C1127 C1126 1.355 . S
C1127 C1129 1.419 . S
C1128 C1126 1.415 . S
C1128 C1133 1.425 1_556 S
C1128 C1135 1.409 . S
C1129 H1121 0.930 . S
C1129 C1127 1.419 . S
C1129 C1130 1.362 1_556 S
C1130 H1122 0.930 . S
C1130 C1129 1.362 1_554 S
C1130 C1133 1.409 . S
C1131 H1123 0.930 . S
C1131 C1132 1.355 . S
C1131 C1133 1.415 . S
C1132 C1131 1.355 . S
C1132 C1134 1.419 . S
C1133 C1128 1.425 1_554 S
C1133 C1130 1.409 . S
C1133 C1131 1.415 . S
C1134 H1124 0.930 . S
C1134 C1132 1.419 . S
C1134 C1135 1.362 1_554 S
C1135 H1125 0.930 . S
C1135 C1128 1.409 . S
C1135 C1134 1.362 1_556 S
H1136 C1142 0.930 . S
H1137 C1145 0.930 . S
H1138 C1146 0.930 . S
H1139 C1147 0.930 . S
H1140 C1150 0.930 . S
H1141 C1151 0.930 . S
C1142 H1136 0.930 . S
C1142 C1143 1.355 . S
C1142 C1144 1.415 . S
C1143 C1142 1.355 . S
C1143 C1145 1.419 . S
C1144 C1142 1.415 . S
C1144 C1149 1.425 . S
C1144 C1151 1.409 . S
C1145 H1137 0.930 . S
C1145 C1143 1.419 . S
C1145 C1146 1.362 . S
C1146 H1138 0.930 . S
C1146 C1145 1.362 . S
C1146 C1149 1.409 . S
C1147 H1139 0.930 . S
C1147 C1148 1.355 . S
C1147 C1149 1.415 . S
C1148 C1147 1.355 . S
C1148 C1150 1.419 . S
C1149 C1144 1.425 . S
C1149 C1146 1.409 . S
C1149 C1147 1.415 . S
C1150 H1140 0.930 . S
C1150 C1148 1.419 . S
C1150 C1151 1.362 . S
C1151 H1141 0.930 . S
C1151 C1144 1.409 . S
C1151 C1150 1.362 . S
H1152 C1158 0.930 . S
H1153 C1161 0.930 . S
H1154 C1162 0.930 . S
H1155 C1163 0.930 . S
H1156 C1166 0.930 . S
H1157 C1167 0.930 . S
C1158 H1152 0.930 . S
C1158 C1159 1.355 . S
C1158 C1160 1.415 . S
C1159 C1158 1.355 . S
C1159 C1161 1.419 . S
C1160 C1158 1.415 . S
C1160 C1165 1.425 . S
C1160 C1167 1.409 . S
C1161 H1153 0.930 . S
C1161 C1159 1.419 . S
C1161 C1162 1.362 . S
C1162 H1154 0.930 . S
C1162 C1161 1.362 . S
C1162 C1165 1.409 . S
C1163 H1155 0.930 . S
C1163 C1164 1.355 . S
C1163 C1165 1.415 . S
C1164 C1163 1.355 . S
C1164 C1166 1.419 . S
C1165 C1160 1.425 . S
C1165 C1162 1.409 . S
C1165 C1163 1.415 . S
C1166 H1156 0.930 . S
C1166 C1164 1.419 . S
C1166 C1167 1.362 . S
C1167 H1157 0.930 . S
C1167 C1160 1.409 . S
C1167 C1166 1.362 . S
C535 N5 1.394 . S
C540 N509 1.401 . S
C551 N278 2.041 . S
C556 N38 2.031 . S
C567 N410 1.697 . S
C572 N71 1.730 . S
C583 N113 2.071 . S
C588 N344 2.065 . S
C599 N368 2.015 . S
C604 N47 2.036 . S
C615 N80 1.856 . S
C620 N311 1.849 . S
C631 N104 1.919 . S
C636 N434 1.913 . S
C647 N14 1.443 . S
C652 N236 1.406 . S
C663 N269 2.086 . S
C668 N146 2.118 . S
C679 N401 1.717 . S
C684 N179 1.736 . S
C695 N203 1.976 . S
C700 N335 1.978 . S
C711 N212 1.980 . S
C716 N443 1.974 . S
C727 N137 1.953 . S
C732 N377 1.975 . S
C743 N476 1.499 . S
C748 N245 1.494 . S
C759 N302 1.796 . S
C764 N170 1.804 . S
C775 N500 1.345 . S
C780 N467 1.349 . S
C791 C17 0.943 . S
C796 C61 0.933 . S
C807 C41 1.303 . S
C812 C74 1.322 . S
C823 C83 1.179 . S
C828 C107 1.185 . S
C839 C127 1.511 . S
C844 C8 1.491 . S
C855 C28 0.949 . S
C860 C193 0.939 . S
C871 C149 0.897 . S
C876 C116 0.879 . S
C887 C215 0.552 . S
C892 C50 0.585 . S
C903 C490 0.914 . S
C908 C94 0.904 . S
C919 C281 0.968 . S
C924 C239 0.957 . S
C935 C292 1.417 . S
C940 C305 1.414 . S
C951 C325 1.299 . S
C956 C338 1.302 . S
C967 C347 0.772 . S
C972 C259 0.782 . S
C983 C413 0.673 . S
C988 C248 0.673 . S
C999 C371 1.285 . S
C1004 C358 1.288 . S
C1015 C272 1.337 . S
C1020 C457 1.352 . S
C1031 C512 0.881 . S
C1036 C314 0.883 . S
C1047 C160 1.390 . S
C1052 C470 1.392 . S
C1063 C140 1.483 . S
C1068 C173 1.485 . S
C1079 C182 0.996 . S
C1084 C206 1.003 . S
C1095 C479 1.009 . S
C1100 C226 1.026 . S
C1111 C380 0.852 . S
C1116 C503 0.843 . S
C1127 C424 1.354 . S
C1132 C391 1.330 . S
C1143 C404 1.292 . S
C1148 C437 1.299 . S
C1159 C523 0.691 . S
C1164 C446 0.674 . S
