# Generated by pormake.
# Topology umc, (4)-cn, num edge types: 1
# Building blocks:
#     Node 0, Type 0, BuildingBlock: ICAMEG_clean_sbu_1, # of connection points: 4
#     Node 1, Type 0, BuildingBlock: ICAMEG_clean_sbu_1, # of connection points: 4
#     Node 2, Type 0, BuildingBlock: ICAMEG_clean_sbu_1, # of connection points: 4
#     Node 3, Type 0, BuildingBlock: ICAMEG_clean_sbu_1, # of connection points: 4
#     Node 4, Type 0, BuildingBlock: ICAMEG_clean_sbu_1, # of connection points: 4
#     Node 5, Type 0, BuildingBlock: ICAMEG_clean_sbu_1, # of connection points: 4
#     Node 6, Type 0, BuildingBlock: ICAMEG_clean_sbu_1, # of connection points: 4
#     Node 7, Type 0, BuildingBlock: ICAMEG_clean_sbu_1, # of connection points: 4
#     Node 8, Type 0, BuildingBlock: ICAMEG_clean_sbu_1, # of connection points: 4
#     Node 9, Type 0, BuildingBlock: ICAMEG_clean_sbu_1, # of connection points: 4
#     Node 10, Type 0, BuildingBlock: ICAMEG_clean_sbu_1, # of connection points: 4
#     Node 11, Type 0, BuildingBlock: ICAMEG_clean_sbu_1, # of connection points: 4
#     Node 12, Type 0, BuildingBlock: ICAMEG_clean_sbu_1, # of connection points: 4
#     Node 13, Type 0, BuildingBlock: ICAMEG_clean_sbu_1, # of connection points: 4
#     Node 14, Type 0, BuildingBlock: ICAMEG_clean_sbu_1, # of connection points: 4
#     Node 15, Type 0, BuildingBlock: ICAMEG_clean_sbu_1, # of connection points: 4
#     Edge 16, Type (0, 0), BuildingBlock: XIVTED_clean_linker_0, # of connection points: 2
#     Edge 17, Type (0, 0), BuildingBlock: XIVTED_clean_linker_0, # of connection points: 2
#     Edge 18, Type (0, 0), BuildingBlock: XIVTED_clean_linker_0, # of connection points: 2
#     Edge 19, Type (0, 0), BuildingBlock: XIVTED_clean_linker_0, # of connection points: 2
#     Edge 20, Type (0, 0), BuildingBlock: XIVTED_clean_linker_0, # of connection points: 2
#     Edge 21, Type (0, 0), BuildingBlock: XIVTED_clean_linker_0, # of connection points: 2
#     Edge 22, Type (0, 0), BuildingBlock: XIVTED_clean_linker_0, # of connection points: 2
#     Edge 23, Type (0, 0), BuildingBlock: XIVTED_clean_linker_0, # of connection points: 2
#     Edge 24, Type (0, 0), BuildingBlock: XIVTED_clean_linker_0, # of connection points: 2
#     Edge 25, Type (0, 0), BuildingBlock: XIVTED_clean_linker_0, # of connection points: 2
#     Edge 26, Type (0, 0), BuildingBlock: XIVTED_clean_linker_0, # of connection points: 2
#     Edge 27, Type (0, 0), BuildingBlock: XIVTED_clean_linker_0, # of connection points: 2
#     Edge 28, Type (0, 0), BuildingBlock: XIVTED_clean_linker_0, # of connection points: 2
#     Edge 29, Type (0, 0), BuildingBlock: XIVTED_clean_linker_0, # of connection points: 2
#     Edge 30, Type (0, 0), BuildingBlock: XIVTED_clean_linker_0, # of connection points: 2
#     Edge 31, Type (0, 0), BuildingBlock: XIVTED_clean_linker_0, # of connection points: 2
#     Edge 32, Type (0, 0), BuildingBlock: XIVTED_clean_linker_0, # of connection points: 2
#     Edge 33, Type (0, 0), BuildingBlock: XIVTED_clean_linker_0, # of connection points: 2
#     Edge 34, Type (0, 0), BuildingBlock: XIVTED_clean_linker_0, # of connection points: 2
#     Edge 35, Type (0, 0), BuildingBlock: XIVTED_clean_linker_0, # of connection points: 2
#     Edge 36, Type (0, 0), BuildingBlock: XIVTED_clean_linker_0, # of connection points: 2
#     Edge 37, Type (0, 0), BuildingBlock: XIVTED_clean_linker_0, # of connection points: 2
#     Edge 38, Type (0, 0), BuildingBlock: XIVTED_clean_linker_0, # of connection points: 2
#     Edge 39, Type (0, 0), BuildingBlock: XIVTED_clean_linker_0, # of connection points: 2
#     Edge 40, Type (0, 0), BuildingBlock: XIVTED_clean_linker_0, # of connection points: 2
#     Edge 41, Type (0, 0), BuildingBlock: XIVTED_clean_linker_0, # of connection points: 2
#     Edge 42, Type (0, 0), BuildingBlock: XIVTED_clean_linker_0, # of connection points: 2
#     Edge 43, Type (0, 0), BuildingBlock: XIVTED_clean_linker_0, # of connection points: 2
#     Edge 44, Type (0, 0), BuildingBlock: XIVTED_clean_linker_0, # of connection points: 2
#     Edge 45, Type (0, 0), BuildingBlock: XIVTED_clean_linker_0, # of connection points: 2
#     Edge 46, Type (0, 0), BuildingBlock: XIVTED_clean_linker_0, # of connection points: 2
#     Edge 47, Type (0, 0), BuildingBlock: XIVTED_clean_linker_0, # of connection points: 2
# Relax obj value: 0.053
# Max RMSD: 0.129
# Mean RMSD: 0.129
data_MOF--net-umc--node1-ICAMEG_clean_sbu_1--edge1-XIVTED_clean_linker_0
_symmetry_space_group_name_H-M    P1
_symmetry_Int_Tables_number       1
_symmetry_cell_setting            triclinic
loop_
_symmetry_equiv_pos_as_xyz
'x, y, z'
_cell_length_a     50.671971
_cell_length_b     34.138617
_cell_length_c     61.35722
_cell_angle_alpha  90.000633
_cell_angle_beta   90.001635
_cell_angle_gamma 89.955342
loop_
_atom_site_label
_atom_site_type_symbol
_atom_site_fract_x
_atom_site_fract_y
_atom_site_fract_z
_atom_type_partial_charge
Co0 Co 0.3463 0.02711 0.37296 0.0
Co1 Co 0.36686 0.11392 0.34967 0.0
O2 O 0.34666 0.08411 0.37102 0.0
C3 C 0.36354 0.05348 0.41615 0.0
O4 O 0.3802 0.07609 0.40568 0.0
C5 C 0.31232 0.14004 0.34354 0.0
O6 O 0.30585 0.10283 0.3431 0.0
O7 O 0.35331 0.08105 0.32552 0.0
O8 O 0.34493 0.02213 0.34041 0.0
H9 H 0.42636 0.13173 0.28492 0.0
H10 H 0.30737 0.07351 0.39818 0.0
O11 O 0.34794 0.03127 0.40553 0.0
H12 H 0.25453 0.98929 0.34963 0.0
H13 H 0.31857 0.8984 0.40571 0.0
H14 H 0.37275 0.96237 0.34923 0.0
H15 H 0.30315 0.98546 0.3494 0.0
H16 H 0.31915 0.97041 0.40226 0.0
O17 O 0.33629 0.15014 0.34606 0.0
H18 H 0.4014 0.0939 0.31226 0.0
H19 H 0.37379 0.19924 0.34119 0.0
H20 H 0.37257 0.89026 0.35197 0.0
H21 H 0.25879 0.0781 0.39905 0.0
H22 H 0.34533 0.85783 0.38037 0.0
H23 H 0.23204 0.03586 0.3746 0.0
O24 O 0.38547 0.02487 0.37196 0.0
H25 H 0.35902 0.19421 0.41801 0.0
H26 H 0.42041 0.14093 0.36312 0.0
H27 H 0.43792 0.17968 0.39381 0.0
H28 H 0.40713 0.20662 0.42152 0.0
H29 H 0.34238 0.15503 0.38716 0.0
H30 H 0.39829 0.23824 0.31406 0.0
H31 H 0.4249 0.20445 0.28572 0.0
O32 O 0.39765 0.07808 0.35274 0.0
C33 C 0.34695 0.04502 0.32402 0.0
C34 C 0.41494 0.14679 0.29724 0.0
C35 C 0.39915 0.20657 0.31358 0.0
N36 N 0.38643 0.14435 0.32845 0.0
C37 C 0.40085 0.12553 0.31282 0.0
C38 C 0.3853 0.18434 0.32888 0.0
C39 C 0.41408 0.18759 0.29769 0.0
C40 C 0.29585 0.05476 0.38765 0.0
N41 N 0.30806 0.02911 0.37384 0.0
C42 C 0.26836 0.05761 0.38815 0.0
C43 C 0.25336 0.03394 0.3744 0.0
C44 C 0.26597 0.00782 0.36038 0.0
C45 C 0.2935 0.00583 0.36029 0.0
C46 C 0.33047 0.91218 0.39323 0.0
C47 C 0.36071 0.94844 0.36154 0.0
C48 C 0.33092 0.95293 0.39123 0.0
N49 N 0.34578 0.97051 0.37543 0.0
C50 C 0.36075 0.90761 0.36305 0.0
C51 C 0.34548 0.88944 0.37901 0.0
C52 C 0.40271 0.04585 0.36234 0.0
C53 C 0.37263 0.18273 0.406 0.0
C54 C 0.40689 0.15253 0.37512 0.0
C55 C 0.41691 0.1745 0.39244 0.0
C56 C 0.39962 0.18963 0.40798 0.0
N57 N 0.38038 0.1459 0.37329 0.0
C58 C 0.3633 0.16068 0.38845 0.0
Co59 Co 0.64641 0.97021 0.37107 0.0
Co60 Co 0.62322 0.8847 0.34796 0.0
O61 O 0.64462 0.91328 0.36903 0.0
C62 C 0.62947 0.9444 0.41442 0.0
O63 O 0.61216 0.92266 0.40411 0.0
C64 C 0.67698 0.85589 0.34101 0.0
O65 O 0.68421 0.89279 0.34038 0.0
O66 O 0.63695 0.91704 0.32366 0.0
O67 O 0.64713 0.97537 0.33851 0.0
H68 H 0.56173 0.87049 0.2842 0.0
H69 H 0.68475 0.92159 0.39559 0.0
O70 O 0.64538 0.9659 0.40367 0.0
H71 H 0.73848 0.00329 0.34638 0.0
H72 H 0.67797 0.0971 0.40364 0.0
H73 H 0.62098 0.03649 0.34791 0.0
H74 H 0.68999 0.00971 0.34692 0.0
H75 H 0.67557 0.02519 0.40005 0.0
O76 O 0.65285 0.84694 0.34382 0.0
H77 H 0.58821 0.90679 0.31122 0.0
H78 H 0.61415 0.79986 0.33938 0.0
H79 H 0.62295 0.10852 0.35079 0.0
H80 H 0.7332 0.91439 0.39568 0.0
H81 H 0.65162 0.13926 0.37882 0.0
H82 H 0.76039 0.95535 0.3709 0.0
O83 O 0.60731 0.97451 0.3707 0.0
H84 H 0.63079 0.80345 0.41597 0.0
H85 H 0.5694 0.86034 0.36221 0.0
H86 H 0.55172 0.82222 0.39307 0.0
H87 H 0.58251 0.79346 0.42022 0.0
H88 H 0.64761 0.84205 0.38497 0.0
H89 H 0.58812 0.76236 0.31256 0.0
H90 H 0.56159 0.79773 0.28477 0.0
O91 O 0.59336 0.92209 0.35163 0.0
C92 C 0.64414 0.95271 0.32212 0.0
C93 C 0.57312 0.85474 0.29628 0.0
C94 C 0.58796 0.79405 0.31219 0.0
N95 N 0.60244 0.85546 0.327 0.0
C96 C 0.58806 0.87514 0.31167 0.0
C97 C 0.60268 0.81543 0.32731 0.0
C98 C 0.57307 0.81392 0.2966 0.0
C99 C 0.69648 0.93979 0.38492 0.0
N100 N 0.68458 0.96618 0.37136 0.0
C101 C 0.72389 0.93547 0.38498 0.0
C102 C 0.73913 0.95842 0.37104 0.0
C103 C 0.72685 0.9853 0.35727 0.0
C104 C 0.69939 0.98877 0.35762 0.0
C105 C 0.66546 0.08406 0.39133 0.0
C106 C 0.63363 0.04968 0.36005 0.0
C107 C 0.66399 0.04337 0.38925 0.0
N108 N 0.64834 0.02673 0.37365 0.0
C109 C 0.6346 0.09047 0.36165 0.0
C110 C 0.65067 0.1077 0.37739 0.0
C111 C 0.58933 0.9545 0.36139 0.0
C112 C 0.61718 0.81573 0.40421 0.0
C113 C 0.58292 0.84795 0.37397 0.0
C114 C 0.5728 0.82634 0.39139 0.0
C115 C 0.59009 0.81019 0.4066 0.0
N116 N 0.60952 0.85324 0.37173 0.0
C117 C 0.6266 0.83745 0.38657 0.0
Co118 Co 0.34492 0.96014 0.12348 0.0
Co119 Co 0.36969 0.87349 0.1444 0.0
O120 O 0.34719 0.90315 0.12459 0.0
C121 C 0.36259 0.93641 0.0799 0.0
O122 O 0.37945 0.91364 0.09006 0.0
C123 C 0.31591 0.84734 0.15409 0.0
O124 O 0.30941 0.88455 0.15456 0.0
O125 O 0.35882 0.9064 0.16962 0.0
O126 O 0.34343 0.96318 0.15596 0.0
H127 H 0.43697 0.8563 0.2038 0.0
H128 H 0.30771 0.91195 0.09756 0.0
O129 O 0.34673 0.95777 0.09082 0.0
H130 H 0.25196 0.9896 0.14732 0.0
H131 H 0.31276 0.08817 0.09265 0.0
H132 H 0.36893 0.02558 0.14832 0.0
H133 H 0.30036 0.99728 0.14757 0.0
H134 H 0.31586 0.01615 0.095 0.0
O135 O 0.33967 0.83722 0.15038 0.0
H136 H 0.40886 0.89387 0.17845 0.0
H137 H 0.37736 0.78825 0.15279 0.0
H138 H 0.36625 0.09768 0.14667 0.0
H139 H 0.25937 0.90352 0.09667 0.0
H140 H 0.338 0.12942 0.11868 0.0
H141 H 0.23116 0.94243 0.12174 0.0
O142 O 0.38399 0.96553 0.12467 0.0
H143 H 0.35421 0.79355 0.07683 0.0
H144 H 0.42144 0.84551 0.1272 0.0
H145 H 0.43543 0.80665 0.09534 0.0
H146 H 0.40168 0.78037 0.06989 0.0
H147 H 0.34111 0.83284 0.1088 0.0
H148 H 0.40497 0.74953 0.17797 0.0
H149 H 0.43511 0.78359 0.20365 0.0
O150 O 0.39986 0.90938 0.13872 0.0
C151 C 0.34931 0.94079 0.1719 0.0
C152 C 0.42398 0.84112 0.19263 0.0
C153 C 0.40599 0.78119 0.17816 0.0
N154 N 0.39167 0.84325 0.16405 0.0
C155 C 0.40808 0.86223 0.17821 0.0
C156 C 0.39037 0.80327 0.16397 0.0
C157 C 0.42291 0.80032 0.19256 0.0
C158 C 0.29554 0.92928 0.10835 0.0
N159 N 0.30682 0.95525 0.1225 0.0
C160 C 0.26819 0.92425 0.10785 0.0
C161 C 0.25238 0.94605 0.12194 0.0
C162 C 0.26403 0.97251 0.1363 0.0
C163 C 0.29145 0.9767 0.13639 0.0
C164 C 0.32509 0.07468 0.10495 0.0
C165 C 0.35646 0.03919 0.13619 0.0
C166 C 0.32696 0.03394 0.10633 0.0
N167 N 0.34239 0.01672 0.1219 0.0
C168 C 0.35509 0.08002 0.13529 0.0
C169 C 0.33925 0.09781 0.11956 0.0
C170 C 0.40294 0.9439 0.13121 0.0
C171 C 0.36909 0.80477 0.08783 0.0
C172 C 0.40665 0.83426 0.11617 0.0
C173 C 0.41469 0.81219 0.09819 0.0
C174 C 0.39574 0.79743 0.08392 0.0
N175 N 0.38049 0.84135 0.11988 0.0
C176 C 0.36179 0.8269 0.106 0.0
Co177 Co 0.64396 0.03689 0.12153 0.0
Co178 Co 0.61948 0.12371 0.14248 0.0
O179 O 0.64177 0.0939 0.12257 0.0
C180 C 0.62598 0.06038 0.07799 0.0
O181 O 0.60921 0.08328 0.08815 0.0
C182 C 0.67333 0.14981 0.15191 0.0
O183 O 0.67987 0.11262 0.1522 0.0
O184 O 0.63053 0.09087 0.16769 0.0
O185 O 0.64575 0.03402 0.154 0.0
H186 H 0.55269 0.14126 0.20222 0.0
H187 H 0.68101 0.08479 0.09529 0.0
O188 O 0.64188 0.03906 0.08889 0.0
H189 H 0.73711 0.0072 0.14481 0.0
H190 H 0.67567 0.90858 0.09073 0.0
H191 H 0.62009 0.97165 0.14663 0.0
H192 H 0.68869 -0.00025 0.14542 0.0
H193 H 0.67269 0.98062 0.09298 0.0
O194 O 0.64955 0.15995 0.14829 0.0
H195 H 0.58057 0.10354 0.17678 0.0
H196 H 0.61194 0.20899 0.1508 0.0
H197 H 0.62266 0.89954 0.14509 0.0
H198 H 0.72935 0.09298 0.09404 0.0
H199 H 0.65061 0.86755 0.11698 0.0
H200 H 0.75773 0.05409 0.11898 0.0
O201 O 0.6049 0.03159 0.12297 0.0
H202 H 0.63453 0.20338 0.07475 0.0
H203 H 0.56762 0.15173 0.12551 0.0
H204 H 0.55343 0.1905 0.09367 0.0
H205 H 0.58701 0.21663 0.06803 0.0
H206 H 0.64782 0.16417 0.10669 0.0
H207 H 0.58456 0.24787 0.17607 0.0
H208 H 0.55459 0.21397 0.20196 0.0
O209 O 0.58923 0.08787 0.13701 0.0
C210 C 0.64004 0.05648 0.16995 0.0
C211 C 0.5656 0.15637 0.19096 0.0
C212 C 0.58352 0.21621 0.17631 0.0
N213 N 0.59767 0.15406 0.16221 0.0
C214 C 0.58137 0.13517 0.17648 0.0
C215 C 0.59901 0.19405 0.16207 0.0
C216 C 0.5667 0.19717 0.19083 0.0
C217 C 0.69325 0.06749 0.10604 0.0
N218 N 0.68206 0.04165 0.12031 0.0
C219 C 0.7206 0.07237 0.10532 0.0
C220 C 0.73651 0.05058 0.11934 0.0
C221 C 0.72495 0.02427 0.13385 0.0
C222 C 0.69753 0.02022 0.13413 0.0
C223 C 0.66347 0.92217 0.10308 0.0
C224 C 0.63243 0.95794 0.13445 0.0
C225 C 0.66167 0.96293 0.1044 0.0
N226 N 0.64641 0.98028 0.12004 0.0
C227 C 0.63375 0.9171 0.13361 0.0
C228 C 0.64941 0.89917 0.11782 0.0
C229 C 0.58604 0.05332 0.12959 0.0
C230 C 0.61971 0.19222 0.08583 0.0
C231 C 0.58233 0.16291 0.1144 0.0
C232 C 0.57419 0.18493 0.09643 0.0
C233 C 0.59304 0.1996 0.08205 0.0
N234 N 0.60852 0.15577 0.11798 0.0
C235 C 0.62712 0.17014 0.10399 0.0
Co236 Co 0.64509 0.96865 0.62117 0.0
Co237 Co 0.62313 0.88151 0.64316 0.0
O238 O 0.6436 0.91166 0.62216 0.0
C239 C 0.62667 0.94484 0.57788 0.0
O240 O 0.6096 0.92283 0.58829 0.0
C241 C 0.67736 0.85356 0.64822 0.0
O242 O 0.68422 0.89059 0.64917 0.0
O243 O 0.63745 0.91259 0.66774 0.0
O244 O 0.64721 0.97178 0.65377 0.0
H245 H 0.56394 0.86237 0.708 0.0
H246 H 0.68262 0.92189 0.59472 0.0
O247 O 0.6428 0.96613 0.58855 0.0
H248 H 0.738 0.00132 0.64383 0.0
H249 H 0.67468 0.09777 0.59008 0.0
H250 H 0.62054 0.03321 0.64637 0.0
H251 H 0.68949 0.00721 0.64477 0.0
H252 H 0.6727 0.02565 0.59236 0.0
O253 O 0.65322 0.84414 0.64593 0.0
H254 H 0.58918 0.90076 0.68106 0.0
H255 H 0.61505 0.79606 0.65037 0.0
H256 H 0.62213 0.1054 0.64481 0.0
H257 H 0.73107 0.91527 0.59312 0.0
H258 H 0.64936 0.13812 0.6165 0.0
H259 H 0.75909 0.95509 0.61786 0.0
O260 O 0.606 0.97253 0.62272 0.0
H261 H 0.62898 0.80484 0.57341 0.0
H262 H 0.56904 0.85703 0.62971 0.0
H263 H 0.5506 0.82067 0.59849 0.0
H264 H 0.58065 0.7943 0.57007 0.0
H265 H 0.64657 0.84162 0.60481 0.0
H266 H 0.59026 0.75649 0.67707 0.0
H267 H 0.56439 0.78969 0.70609 0.0
O268 O 0.59288 0.91858 0.64088 0.0
C269 C 0.64481 0.9481 0.66979 0.0
C270 C 0.57504 0.84757 0.69537 0.0
C271 C 0.58985 0.78814 0.67803 0.0
N272 N 0.6033 0.85067 0.66403 0.0
C273 C 0.58928 0.86916 0.68003 0.0
C274 C 0.60387 0.81069 0.66298 0.0
C275 C 0.57533 0.80679 0.69431 0.0
C276 C 0.6947 0.9396 0.60537 0.0
N277 N 0.68325 0.96505 0.61973 0.0
C278 C 0.72211 0.93561 0.60446 0.0
C279 C 0.73782 0.95791 0.61837 0.0
C280 C 0.726 0.98384 0.63296 0.0
C281 C 0.69852 0.987 0.63344 0.0
C282 C 0.66279 0.08385 0.60251 0.0
C283 C 0.63256 0.04727 0.6341 0.0
C284 C 0.66155 0.04305 0.60385 0.0
N285 N 0.6467 0.02531 0.6196 0.0
C286 C 0.63332 0.08814 0.63325 0.0
C287 C 0.64858 0.10648 0.61735 0.0
C288 C 0.58841 0.95165 0.63196 0.0
C289 C 0.61569 0.81607 0.58573 0.0
C290 C 0.58225 0.84565 0.6174 0.0
C291 C 0.57169 0.82503 0.59978 0.0
C292 C 0.58857 0.81022 0.58385 0.0
N293 N 0.60887 0.85126 0.61914 0.0
C294 C 0.62555 0.83676 0.6036 0.0
Co295 Co 0.34488 0.02543 0.62293 0.0
Co296 Co 0.36702 0.11241 0.64497 0.0
O297 O 0.34659 0.08242 0.62387 0.0
C298 C 0.36349 0.04888 0.57962 0.0
O299 O 0.38064 0.07081 0.59 0.0
C300 C 0.31292 0.14114 0.64956 0.0
O301 O 0.3058 0.10423 0.65063 0.0
O302 O 0.35226 0.08166 0.66948 0.0
O303 O 0.34266 0.0224 0.65554 0.0
H304 H 0.42571 0.13106 0.71016 0.0
H305 H 0.30759 0.07242 0.59637 0.0
O306 O 0.34726 0.02782 0.59032 0.0
H307 H 0.25179 0.99358 0.64545 0.0
H308 H 0.31489 0.89646 0.59191 0.0
H309 H 0.36915 0.96075 0.64823 0.0
H310 H 0.30028 0.98729 0.64649 0.0
H311 H 0.31713 0.96856 0.59413 0.0
O312 O 0.33714 0.15019 0.64745 0.0
H313 H 0.40052 0.09289 0.6831 0.0
H314 H 0.37551 0.19779 0.65214 0.0
H315 H 0.36729 0.88857 0.64673 0.0
H316 H 0.25918 0.07943 0.59469 0.0
H317 H 0.34001 0.85598 0.61841 0.0
H318 H 0.23094 0.03992 0.6194 0.0
O319 O 0.38395 0.02127 0.62455 0.0
H320 H 0.36238 0.18892 0.5751 0.0
H321 H 0.4214 0.13611 0.63188 0.0
H322 H 0.44039 0.17216 0.60079 0.0
H323 H 0.4108 0.19885 0.57212 0.0
H324 H 0.34424 0.15243 0.60639 0.0
H325 H 0.40026 0.23715 0.67896 0.0
H326 H 0.42567 0.20375 0.70818 0.0
O327 O 0.39709 0.07493 0.64296 0.0
C328 C 0.34489 0.04616 0.67153 0.0
C329 C 0.4148 0.14596 0.69745 0.0
C330 C 0.40049 0.2055 0.67995 0.0
N331 N 0.38682 0.14309 0.66593 0.0
C332 C 0.40059 0.12449 0.68204 0.0
C333 C 0.38649 0.18307 0.66484 0.0
C334 C 0.41475 0.18674 0.69634 0.0
C335 C 0.29542 0.05483 0.60702 0.0
N336 N 0.30673 0.02933 0.62142 0.0
C337 C 0.26803 0.05905 0.60606 0.0
C338 C 0.2522 0.03692 0.61996 0.0
C339 C 0.26389 0.01093 0.63459 0.0
C340 C 0.29135 0.00754 0.63512 0.0
C341 C 0.3268 0.91032 0.60435 0.0
C342 C 0.3571 0.94675 0.63595 0.0
C343 C 0.32819 0.95111 0.60566 0.0
N344 N 0.34307 0.96879 0.62141 0.0
C345 C 0.35619 0.90589 0.63514 0.0
C346 C 0.34089 0.88762 0.61923 0.0
C347 C 0.40152 0.04192 0.63397 0.0
C348 C 0.37547 0.17754 0.58753 0.0
C349 C 0.40839 0.14762 0.61947 0.0
C350 C 0.41926 0.16806 0.60192 0.0
C351 C 0.40264 0.18305 0.58585 0.0
N352 N 0.38172 0.14235 0.62101 0.0
C353 C 0.3653 0.15702 0.60533 0.0
Co354 Co 0.64439 0.02601 0.87143 0.0
Co355 Co 0.62292 0.11321 0.84914 0.0
O356 O 0.64309 0.08301 0.87033 0.0
C357 C 0.62577 0.05025 0.91459 0.0
O358 O 0.60879 0.07226 0.90406 0.0
C359 C 0.67726 0.14088 0.84458 0.0
O360 O 0.68409 0.10383 0.84358 0.0
O361 O 0.63749 0.08196 0.82473 0.0
O362 O 0.64668 0.02265 0.83883 0.0
H363 H 0.5645 0.13244 0.78383 0.0
H364 H 0.68192 0.07257 0.89795 0.0
O365 O 0.64192 0.02877 0.90404 0.0
H366 H 0.73731 0.99229 0.84922 0.0
H367 H 0.67335 0.89681 0.9029 0.0
H368 H 0.61977 0.96153 0.84626 0.0
H369 H 0.68879 0.98687 0.84809 0.0
H370 H 0.67162 0.96893 0.90047 0.0
O371 O 0.65309 0.1504 0.84662 0.0
H372 H 0.58935 0.09401 0.81102 0.0
H373 H 0.61509 0.19868 0.84175 0.0
H374 H 0.6211 0.88934 0.84796 0.0
H375 H 0.73037 0.07873 0.89972 0.0
H376 H 0.64805 0.85653 0.87645 0.0
H377 H 0.75841 0.03849 0.87518 0.0
O378 O 0.60529 0.02253 0.86973 0.0
H379 H 0.62802 0.19013 0.91884 0.0
H380 H 0.5687 0.13806 0.8621 0.0
H381 H 0.54993 0.1747 0.8931 0.0
H382 H 0.57967 0.20101 0.92174 0.0
H383 H 0.64594 0.15308 0.88766 0.0
H384 H 0.59068 0.23829 0.8148 0.0
H385 H 0.56507 0.20513 0.78563 0.0
O386 O 0.59257 0.07633 0.85122 0.0
C387 C 0.64463 0.04632 0.82278 0.0
C388 C 0.57549 0.14722 0.79652 0.0
C389 C 0.59022 0.20663 0.81388 0.0
N390 N 0.60339 0.14409 0.82808 0.0
C391 C 0.58951 0.12562 0.812 0.0
C392 C 0.60402 0.18407 0.82908 0.0
C393 C 0.57585 0.18801 0.79753 0.0
C394 C 0.694 0.05467 0.88738 0.0
N395 N 0.68255 0.02924 0.87302 0.0
C396 C 0.72142 0.05841 0.88839 0.0
C397 C 0.73713 0.03586 0.87459 0.0
C398 C 0.72531 0.00996 0.86001 0.0
C399 C 0.69783 0.00706 0.85942 0.0
C400 C 0.66158 0.91076 0.89039 0.0
C401 C 0.63167 0.94744 0.8586 0.0
C402 C 0.66049 0.95157 0.88896 0.0
N403 N 0.64579 0.96935 0.87312 0.0
C404 C 0.63229 0.90657 0.85953 0.0
C405 C 0.64739 0.88818 0.87554 0.0
C406 C 0.58788 0.04345 0.86026 0.0
C407 C 0.61486 0.17893 0.90643 0.0
C408 C 0.58177 0.14942 0.87451 0.0
C409 C 0.57103 0.17018 0.892 0.0
C410 C 0.58773 0.18496 0.90806 0.0
N411 N 0.60841 0.14362 0.87302 0.0
C412 C 0.62491 0.15809 0.88868 0.0
Co413 Co 0.34422 0.96934 0.87326 0.0
Co414 Co 0.367 0.88271 0.85115 0.0
O415 O 0.3463 0.91237 0.87224 0.0
C416 C 0.36296 0.94581 0.91651 0.0
O417 O 0.38028 0.92427 0.90605 0.0
C418 C 0.3131 0.8533 0.84636 0.0
O419 O 0.30572 0.89012 0.84539 0.0
O420 O 0.35212 0.91341 0.82666 0.0
O421 O 0.34204 0.97249 0.84066 0.0
H422 H 0.42595 0.86503 0.78603 0.0
H423 H 0.30721 0.92178 0.89973 0.0
O424 O 0.34658 0.96678 0.90588 0.0
H425 H 0.25097 0.00023 0.85073 0.0
H426 H 0.31338 0.09776 0.90449 0.0
H427 H 0.36809 0.03445 0.84809 0.0
H428 H 0.29941 0.00704 0.84972 0.0
H429 H 0.31608 0.0257 0.90215 0.0
O430 O 0.33738 0.84457 0.84854 0.0
H431 H 0.40044 0.90279 0.81309 0.0
H432 H 0.37609 0.79747 0.84391 0.0
H433 H 0.36577 0.10659 0.84972 0.0
H434 H 0.25884 0.91425 0.90139 0.0
H435 H 0.33826 0.13869 0.87808 0.0
H436 H 0.23038 0.95357 0.87672 0.0
O437 O 0.38327 0.97401 0.87168 0.0
H438 H 0.3626 0.80587 0.92091 0.0
H439 H 0.42148 0.8596 0.86435 0.0
H440 H 0.4406 0.82366 0.89545 0.0
H441 H 0.41107 0.79651 0.92401 0.0
H442 H 0.34434 0.84225 0.88962 0.0
H443 H 0.40117 0.75852 0.81709 0.0
H444 H 0.42641 0.79234 0.78794 0.0
O445 O 0.39681 0.92053 0.85328 0.0
C446 C 0.3445 0.94882 0.82464 0.0
C447 C 0.41512 0.84995 0.79872 0.0
C448 C 0.40119 0.79017 0.81613 0.0
N449 N 0.38706 0.85236 0.8302 0.0
C450 C 0.40073 0.87119 0.81413 0.0
C451 C 0.387 0.81237 0.83125 0.0
C452 C 0.41535 0.80917 0.79978 0.0
C453 C 0.29494 0.93928 0.8891 0.0
N454 N 0.3061 0.96497 0.87473 0.0
C455 C 0.26757 0.93477 0.89004 0.0
C456 C 0.25162 0.95679 0.87617 0.0
C457 C 0.26316 0.98296 0.86158 0.0
C458 C 0.2906 0.98664 0.86105 0.0
C459 C 0.32539 0.08412 0.89203 0.0
C460 C 0.35594 0.04823 0.86038 0.0
C461 C 0.32704 0.04335 0.89065 0.0
N462 N 0.34204 0.02595 0.87488 0.0
C463 C 0.35477 0.08908 0.86127 0.0
C464 C 0.33935 0.10707 0.8772 0.0
C465 C 0.401 0.9536 0.86227 0.0
C466 C 0.37566 0.81744 0.90853 0.0
C467 C 0.40851 0.84788 0.87671 0.0
C468 C 0.41944 0.82751 0.89427 0.0
C469 C 0.40286 0.81226 0.91028 0.0
N470 N 0.3818 0.85284 0.87511 0.0
C471 C 0.36542 0.83791 0.89073 0.0
Co472 Co 0.84437 0.53141 0.37345 0.0
Co473 Co 0.86815 0.61919 0.35327 0.0
O474 O 0.84588 0.58852 0.37276 0.0
C475 C 0.86138 0.55451 0.41729 0.0
O476 O 0.87812 0.57771 0.40734 0.0
C477 C 0.81421 0.64573 0.34393 0.0
O478 O 0.80742 0.60866 0.34322 0.0
O479 O 0.85742 0.58698 0.32775 0.0
O480 O 0.84334 0.52909 0.3409 0.0
H481 H 0.93508 0.63914 0.29389 0.0
H482 H 0.80623 0.57789 0.39946 0.0
O483 O 0.84579 0.53309 0.40615 0.0
H484 H 0.75209 0.49996 0.34869 0.0
H485 H 0.81352 0.40189 0.40313 0.0
H486 H 0.86955 0.46716 0.34838 0.0
H487 H 0.8006 0.49375 0.34869 0.0
H488 H 0.8157 0.47402 0.40129 0.0
O489 O 0.83802 0.65538 0.34769 0.0
H490 H 0.90728 0.60042 0.31889 0.0
H491 H 0.87539 0.70482 0.34583 0.0
H492 H 0.8678 0.39497 0.34953 0.0
H493 H 0.75777 0.58483 0.40011 0.0
H494 H 0.83962 0.36188 0.37706 0.0
H495 H 0.73037 0.54576 0.37455 0.0
O496 O 0.88352 0.52699 0.37252 0.0
H497 H 0.85219 0.69645 0.42173 0.0
H498 H 0.91972 0.64746 0.37068 0.0
H499 H 0.93347 0.68538 0.40295 0.0
H500 H 0.89956 0.71017 0.42874 0.0
H501 H 0.83935 0.6581 0.38935 0.0
H502 H 0.90268 0.74468 0.32101 0.0
H503 H 0.93287 0.71181 0.29486 0.0
O504 O 0.89857 0.58361 0.35851 0.0
C505 C 0.8487 0.55222 0.32515 0.0
C506 C 0.92207 0.6538 0.30526 0.0
C507 C 0.90386 0.71303 0.32046 0.0
N508 N 0.88991 0.65035 0.33392 0.0
C509 C 0.90635 0.63203 0.3195 0.0
C510 C 0.88841 0.69032 0.33444 0.0
C511 C 0.9208 0.69457 0.3058 0.0
C512 C 0.79442 0.56051 0.38844 0.0
N513 N 0.8062 0.53528 0.37415 0.0
C514 C 0.767 0.56468 0.38882 0.0
C515 C 0.75164 0.5428 0.37445 0.0
C516 C 0.76381 0.51711 0.35993 0.0
C517 C 0.79128 0.51376 0.35998 0.0
C518 C 0.82582 0.41596 0.39103 0.0
C519 C 0.85711 0.45296 0.36031 0.0
C520 C 0.82717 0.45678 0.38994 0.0
N521 N 0.84255 0.47474 0.37462 0.0
C522 C 0.85626 0.41208 0.36093 0.0
C523 C 0.84047 0.39353 0.37639 0.0
C524 C 0.90215 0.54916 0.36595 0.0
C525 C 0.86714 0.68587 0.41059 0.0
C526 C 0.90488 0.65803 0.38186 0.0
C527 C 0.91276 0.67958 0.40008 0.0
C528 C 0.89373 0.69351 0.41453 0.0
N529 N 0.87876 0.65062 0.37812 0.0
C530 C 0.85998 0.66427 0.39218 0.0
Co531 Co 0.14457 0.46342 0.37174 0.0
Co532 Co 0.12099 0.3761 0.35086 0.0
O533 O 0.14305 0.40638 0.37068 0.0
C534 C 0.1273 0.43942 0.41531 0.0
O535 O 0.11061 0.41637 0.40519 0.0
C536 C 0.17509 0.35029 0.34178 0.0
O537 O 0.18154 0.38749 0.3411 0.0
O538 O 0.13187 0.4089 0.3256 0.0
O539 O 0.14585 0.46645 0.33927 0.0
H540 H 0.05452 0.35714 0.29102 0.0
H541 H 0.18255 0.41635 0.39759 0.0
O542 O 0.14294 0.46106 0.40438 0.0
H543 H 0.23702 0.49538 0.34759 0.0
H544 H 0.17519 0.59236 0.40237 0.0
H545 H 0.11952 0.52816 0.34698 0.0
H546 H 0.18852 0.50168 0.34746 0.0
H547 H 0.17305 0.52027 0.40007 0.0
O548 O 0.15129 0.34019 0.34527 0.0
H549 H 0.08205 0.39545 0.31642 0.0
H550 H 0.11405 0.29063 0.34277 0.0
H551 H 0.12124 0.60032 0.34859 0.0
H552 H 0.23099 0.40929 0.39835 0.0
H553 H 0.14924 0.63288 0.37644 0.0
H554 H 0.25856 0.4489 0.37317 0.0
O555 O 0.10544 0.46777 0.37068 0.0
H556 H 0.13644 0.29748 0.41892 0.0
H557 H 0.06931 0.34732 0.36776 0.0
H558 H 0.05531 0.30872 0.3997 0.0
H559 H 0.08901 0.2835 0.42555 0.0
H560 H 0.14952 0.3365 0.38687 0.0
H561 H 0.08702 0.25118 0.31754 0.0
H562 H 0.05692 0.28446 0.29148 0.0
O563 O 0.09045 0.41149 0.35618 0.0
C564 C 0.14062 0.44371 0.32332 0.0
C565 C 0.0675 0.34229 0.30234 0.0
C566 C 0.08577 0.28282 0.31721 0.0
N567 N 0.09945 0.34527 0.33117 0.0
C568 C 0.08307 0.36382 0.3168 0.0
C569 C 0.10106 0.30531 0.33142 0.0
C570 C 0.06887 0.30152 0.3026 0.0
C571 C 0.19443 0.43397 0.38674 0.0
N572 N 0.18274 0.45957 0.3726 0.0
C573 C 0.22184 0.42973 0.38718 0.0
C574 C 0.23729 0.45192 0.37303 0.0
C575 C 0.22522 0.47799 0.35866 0.0
C576 C 0.19775 0.4814 0.35864 0.0
C577 C 0.16297 0.57852 0.39013 0.0
C578 C 0.13189 0.54213 0.35905 0.0
C579 C 0.16164 0.53773 0.38878 0.0
N580 N 0.14636 0.52008 0.37328 0.0
C581 C 0.13272 0.58299 0.35993 0.0
C582 C 0.14841 0.60124 0.37557 0.0
C583 C 0.08684 0.44576 0.36389 0.0
C584 C 0.12157 0.30824 0.40775 0.0
C585 C 0.08407 0.33655 0.37896 0.0
C586 C 0.07604 0.31462 0.39699 0.0
C587 C 0.09496 0.30045 0.41148 0.0
N588 N 0.1102 0.3441 0.37542 0.0
C589 C 0.12887 0.33021 0.38952 0.0
Co590 Co 0.84549 0.46534 0.12457 0.0
Co591 Co 0.86872 0.37784 0.14559 0.0
O592 O 0.84662 0.40827 0.12586 0.0
C593 C 0.86227 0.44025 0.08101 0.0
O594 O 0.87879 0.41705 0.09125 0.0
C595 C 0.81455 0.35325 0.15535 0.0
O596 O 0.80836 0.39058 0.15581 0.0
O597 O 0.85845 0.41122 0.17077 0.0
O598 O 0.84449 0.46883 0.1571 0.0
H599 H 0.93589 0.35849 0.20487 0.0
H600 H 0.80701 0.41857 0.09911 0.0
O601 O 0.84688 0.46246 0.09187 0.0
H602 H 0.75345 0.49912 0.14908 0.0
H603 H 0.8155 0.59432 0.09349 0.0
H604 H 0.87114 0.53001 0.14891 0.0
H605 H 0.80199 0.50464 0.14892 0.0
H606 H 0.81718 0.52222 0.09613 0.0
O607 O 0.83821 0.34264 0.15168 0.0
H608 H 0.90829 0.39695 0.17956 0.0
H609 H 0.8751 0.29237 0.15403 0.0
H610 H 0.8699 0.60217 0.14696 0.0
H611 H 0.75852 0.41228 0.09863 0.0
H612 H 0.84192 0.63478 0.11909 0.0
H613 H 0.73141 0.45267 0.1238 0.0
O614 O 0.88465 0.46906 0.12542 0.0
H615 H 0.85164 0.29838 0.07812 0.0
H616 H 0.91992 0.3478 0.12831 0.0
H617 H 0.93313 0.30837 0.09644 0.0
H618 H 0.89885 0.28336 0.07108 0.0
H619 H 0.83934 0.33822 0.11008 0.0
H620 H 0.90218 0.25278 0.17918 0.0
H621 H 0.93292 0.28586 0.20477 0.0
O622 O 0.89945 0.41255 0.1398 0.0
C623 C 0.84985 0.44613 0.17305 0.0
C624 C 0.92264 0.34373 0.19374 0.0
C625 C 0.90369 0.2844 0.17934 0.0
N626 N 0.89029 0.3469 0.16522 0.0
C627 C 0.90703 0.36534 0.17933 0.0
C628 C 0.88837 0.30696 0.16518 0.0
C629 C 0.92094 0.30298 0.19369 0.0
C630 C 0.79533 0.43652 0.10995 0.0
N631 N 0.80729 0.46211 0.12392 0.0
C632 C 0.76789 0.43272 0.10967 0.0
C633 C 0.75269 0.45535 0.12382 0.0
C634 C 0.76504 0.4814 0.13802 0.0
C635 C 0.79253 0.48437 0.13787 0.0
C636 C 0.82772 0.58045 0.10573 0.0
C637 C 0.85878 0.54401 0.13684 0.0
C638 C 0.82879 0.53966 0.10728 0.0
N639 N 0.84406 0.52199 0.12278 0.0
C640 C 0.85822 0.58486 0.13577 0.0
C641 C 0.84254 0.60314 0.12011 0.0
C642 C 0.90318 0.44675 0.13205 0.0
C643 C 0.86676 0.30905 0.08907 0.0
C644 C 0.90491 0.33712 0.11732 0.0
C645 C 0.9125 0.31472 0.09933 0.0
C646 C 0.89325 0.30068 0.08512 0.0
N647 N 0.87889 0.34524 0.12108 0.0
C648 C 0.8599 0.33148 0.10725 0.0
Co649 Co 0.14609 0.52816 0.1223 0.0
Co650 Co 0.12327 0.61561 0.14368 0.0
O651 O 0.14515 0.58522 0.12376 0.0
C652 C 0.12898 0.55372 0.07894 0.0
O653 O 0.11263 0.57699 0.08929 0.0
C654 C 0.17757 0.63956 0.15348 0.0
O655 O 0.18364 0.60218 0.15369 0.0
O656 O 0.13348 0.5818 0.16871 0.0
O657 O 0.14737 0.52436 0.15477 0.0
H658 H 0.05639 0.63485 0.20319 0.0
H659 H 0.18447 0.57491 0.09672 0.0
O660 O 0.1444 0.53134 0.08966 0.0
H661 H 0.23825 0.49356 0.14613 0.0
H662 H 0.17543 0.39928 0.09067 0.0
H663 H 0.12049 0.46341 0.14662 0.0
H664 H 0.1897 0.48836 0.14626 0.0
H665 H 0.17396 0.47136 0.09351 0.0
O666 O 0.15395 0.65043 0.14985 0.0
H667 H 0.08374 0.59645 0.17767 0.0
H668 H 0.11728 0.70103 0.15246 0.0
H669 H 0.12153 0.39127 0.14448 0.0
H670 H 0.23297 0.58087 0.09595 0.0
H671 H 0.14916 0.35875 0.11634 0.0
H672 H 0.26019 0.54009 0.12084 0.0
O673 O 0.10692 0.52466 0.1234 0.0
H674 H 0.14044 0.69576 0.07648 0.0
H675 H 0.07213 0.6463 0.12663 0.0
H676 H 0.05898 0.68625 0.09495 0.0
H677 H 0.09327 0.71127 0.0696 0.0
H678 H 0.15269 0.65542 0.10826 0.0
H679 H 0.09045 0.74057 0.17781 0.0
H680 H 0.05966 0.70745 0.20335 0.0
O681 O 0.09238 0.58126 0.13785 0.0
C682 C 0.14205 0.54684 0.17081 0.0
C683 C 0.06967 0.64963 0.19209 0.0
C684 C 0.08881 0.70896 0.17787 0.0
N685 N 0.10191 0.64651 0.16348 0.0
C686 C 0.08514 0.62805 0.17756 0.0
C687 C 0.10399 0.68642 0.16358 0.0
C688 C 0.07153 0.69036 0.19219 0.0
C689 C 0.1962 0.55678 0.10744 0.0
N690 N 0.18429 0.53115 0.12142 0.0
C691 C 0.22365 0.5604 0.107 0.0
C692 C 0.23891 0.53755 0.12099 0.0
C693 C 0.22661 0.51145 0.13519 0.0
C694 C 0.19911 0.50867 0.13521 0.0
C695 C 0.16337 0.41311 0.10303 0.0
C696 C 0.13269 0.44945 0.13444 0.0
C697 C 0.16242 0.45389 0.10469 0.0
N698 N 0.14734 0.47152 0.12034 0.0
C699 C 0.13314 0.4086 0.13325 0.0
C700 C 0.14863 0.39038 0.11745 0.0
C701 C 0.08849 0.54709 0.13013 0.0
C702 C 0.12532 0.68509 0.08743 0.0
C703 C 0.08715 0.657 0.11565 0.0
C704 C 0.07959 0.67968 0.09776 0.0
C705 C 0.09885 0.69374 0.08356 0.0
N706 N 0.11315 0.64861 0.11932 0.0
C707 C 0.13215 0.66237 0.1055 0.0
Co708 Co 0.14659 0.47175 0.62181 0.0
Co709 Co 0.12449 0.38455 0.64364 0.0
O710 O 0.1449 0.41475 0.62263 0.0
C711 C 0.12764 0.44846 0.57864 0.0
O712 O 0.11057 0.4266 0.58914 0.0
C713 C 0.17864 0.35595 0.64825 0.0
O714 O 0.18573 0.39288 0.64927 0.0
O715 O 0.13918 0.41522 0.66821 0.0
O716 O 0.14901 0.47451 0.6544 0.0
H717 H 0.06583 0.36528 0.70878 0.0
H718 H 0.1837 0.42495 0.59496 0.0
O719 O 0.14398 0.46954 0.58922 0.0
H720 H 0.23983 0.50342 0.64396 0.0
H721 H 0.17637 0.60091 0.5909 0.0
H722 H 0.12253 0.53627 0.64736 0.0
H723 H 0.19136 0.50968 0.64525 0.0
H724 H 0.17413 0.52879 0.59298 0.0
O725 O 0.15442 0.34685 0.64609 0.0
H726 H 0.09097 0.40371 0.68181 0.0
H727 H 0.1161 0.2991 0.65061 0.0
H728 H 0.12439 0.60846 0.64601 0.0
H729 H 0.2321 0.41799 0.59302 0.0
H730 H 0.15147 0.64122 0.61762 0.0
H731 H 0.2605 0.45732 0.61769 0.0
O732 O 0.10753 0.47595 0.62362 0.0
H733 H 0.12936 0.30859 0.5736 0.0
H734 H 0.07017 0.36073 0.63045 0.0
H735 H 0.05128 0.32487 0.59924 0.0
H736 H 0.08096 0.29853 0.57053 0.0
H737 H 0.1474 0.34487 0.605 0.0
H738 H 0.09138 0.25948 0.67734 0.0
H739 H 0.06593 0.29261 0.70663 0.0
O740 O 0.09437 0.42193 0.64168 0.0
C741 C 0.14669 0.45065 0.67033 0.0
C742 C 0.07674 0.35051 0.69604 0.0
C743 C 0.09112 0.29113 0.6784 0.0
N744 N 0.10472 0.35367 0.66452 0.0
C745 C 0.09093 0.37212 0.68068 0.0
C746 C 0.1051 0.3137 0.66334 0.0
C747 C 0.07684 0.30974 0.69483 0.0
C748 C 0.19594 0.44246 0.60559 0.0
N749 N 0.18473 0.46784 0.62012 0.0
C750 C 0.22333 0.43827 0.60449 0.0
C751 C 0.23925 0.4603 0.61836 0.0
C752 C 0.22766 0.48615 0.63311 0.0
C753 C 0.20021 0.48952 0.63379 0.0
C754 C 0.16455 0.58697 0.60338 0.0
C755 C 0.13449 0.55034 0.63506 0.0
C756 C 0.16317 0.54617 0.60461 0.0
N757 N 0.1484 0.5284 0.6204 0.0
C758 C 0.1354 0.59121 0.63433 0.0
C759 C 0.15058 0.60957 0.61838 0.0
C760 C 0.08995 0.45513 0.63291 0.0
C761 C 0.11623 0.31981 0.58604 0.0
C762 C 0.08321 0.34935 0.61802 0.0
C763 C 0.07241 0.32903 0.6004 0.0
C764 C 0.08907 0.31423 0.58431 0.0
N765 N 0.10988 0.3547 0.6196 0.0
C766 C 0.12634 0.34022 0.60391 0.0
Co767 Co 0.84608 0.52541 0.6241 0.0
Co768 Co 0.86751 0.61315 0.6457 0.0
O769 O 0.84728 0.58244 0.62481 0.0
C770 C 0.86455 0.54889 0.58078 0.0
O771 O 0.88152 0.571 0.59123 0.0
C772 C 0.81316 0.64092 0.65028 0.0
O773 O 0.80635 0.6039 0.65151 0.0
O774 O 0.85309 0.58246 0.67037 0.0
O775 O 0.84393 0.52278 0.65676 0.0
H776 H 0.92615 0.63394 0.71072 0.0
H777 H 0.80837 0.57134 0.59737 0.0
O778 O 0.84844 0.52753 0.59144 0.0
H779 H 0.75331 0.49206 0.64679 0.0
H780 H 0.81723 0.39553 0.59354 0.0
H781 H 0.87091 0.4615 0.64963 0.0
H782 H 0.80184 0.48674 0.64783 0.0
H783 H 0.81885 0.4677 0.5955 0.0
O784 O 0.83731 0.65038 0.64807 0.0
H785 H 0.90125 0.59486 0.68388 0.0
H786 H 0.87528 0.69879 0.65244 0.0
H787 H 0.86968 0.38928 0.6484 0.0
H788 H 0.7599 0.57738 0.59568 0.0
H789 H 0.84269 0.35584 0.62019 0.0
H790 H 0.73203 0.53764 0.62056 0.0
O791 O 0.88519 0.522 0.62573 0.0
H792 H 0.86199 0.6883 0.57543 0.0
H793 H 0.92163 0.63772 0.63239 0.0
H794 H 0.94022 0.67353 0.60104 0.0
H795 H 0.91031 0.69908 0.57227 0.0
H796 H 0.84426 0.65208 0.60697 0.0
H797 H 0.89975 0.73904 0.67903 0.0
H798 H 0.9255 0.70658 0.70838 0.0
O799 O 0.8979 0.57624 0.64381 0.0
C800 C 0.84602 0.54686 0.67262 0.0
C801 C 0.9151 0.64842 0.69795 0.0
C802 C 0.90025 0.70741 0.68018 0.0
N803 N 0.88709 0.64452 0.66648 0.0
C804 C 0.90104 0.62644 0.68266 0.0
C805 C 0.88641 0.68448 0.66519 0.0
C806 C 0.9147 0.68918 0.69664 0.0
C807 C 0.79636 0.55366 0.60809 0.0
N808 N 0.80791 0.52857 0.62259 0.0
C809 C 0.76893 0.55733 0.60713 0.0
C810 C 0.75331 0.53507 0.62112 0.0
C811 C 0.76524 0.50951 0.63585 0.0
C812 C 0.79273 0.50666 0.63639 0.0
C813 C 0.82902 0.40976 0.60593 0.0
C814 C 0.85898 0.44714 0.63741 0.0
C815 C 0.83005 0.45059 0.60709 0.0
N816 N 0.84477 0.46873 0.62279 0.0
C817 C 0.85843 0.40625 0.63674 0.0
C818 C 0.8433 0.38751 0.6209 0.0
C819 C 0.9026 0.54315 0.63502 0.0
C820 C 0.87521 0.67742 0.58789 0.0
C821 C 0.90849 0.64875 0.61994 0.0
C822 C 0.91912 0.66905 0.60224 0.0
C823 C 0.90233 0.6834 0.58612 0.0
N824 N 0.88187 0.643 0.62157 0.0
C825 C 0.86527 0.65706 0.60585 0.0
Co826 Co 0.14591 0.52488 0.87215 0.0
Co827 Co 0.12309 0.61184 0.85048 0.0
O828 O 0.14382 0.58188 0.87142 0.0
C829 C 0.12737 0.54767 0.91556 0.0
O830 O 0.11001 0.56945 0.90529 0.0
C831 C 0.17695 0.64141 0.84583 0.0
O832 O 0.18435 0.60462 0.84466 0.0
O833 O 0.138 0.58158 0.82583 0.0
O834 O 0.14802 0.52228 0.83955 0.0
H835 H 0.06405 0.63042 0.78549 0.0
H836 H 0.183 0.57204 0.89877 0.0
O837 O 0.14367 0.52687 0.90476 0.0
H838 H 0.23911 0.49439 0.84928 0.0
H839 H 0.17689 0.39593 0.90262 0.0
H840 H 0.12198 0.4602 0.84669 0.0
H841 H 0.19067 0.48756 0.84834 0.0
H842 H 0.17415 0.46803 0.90068 0.0
O843 O 0.15267 0.65008 0.84806 0.0
H844 H 0.08961 0.59229 0.81236 0.0
H845 H 0.11394 0.69718 0.84364 0.0
H846 H 0.12432 0.38804 0.84791 0.0
H847 H 0.23138 0.57956 0.90037 0.0
H848 H 0.15194 0.35546 0.87604 0.0
H849 H 0.25976 0.54065 0.87545 0.0
O850 O 0.10685 0.52025 0.87063 0.0
H851 H 0.12741 0.68759 0.92061 0.0
H852 H 0.06858 0.63463 0.86379 0.0
H853 H 0.04944 0.67005 0.89506 0.0
H854 H 0.07894 0.69681 0.92375 0.0
H855 H 0.14571 0.65173 0.88915 0.0
H856 H 0.08881 0.7365 0.81702 0.0
H857 H 0.06355 0.70307 0.78773 0.0
O858 O 0.09331 0.57393 0.85243 0.0
C859 C 0.14562 0.5462 0.82365 0.0
C860 C 0.07488 0.64531 0.79823 0.0
C861 C 0.08881 0.70485 0.81591 0.0
N862 N 0.10299 0.64248 0.82968 0.0
C863 C 0.08931 0.62387 0.81353 0.0
C864 C 0.10303 0.68245 0.83092 0.0
C865 C 0.07464 0.68608 0.79948 0.0
C866 C 0.19524 0.55471 0.88803 0.0
N867 N 0.18404 0.52924 0.87356 0.0
C868 C 0.22261 0.55922 0.88894 0.0
C869 C 0.23853 0.53742 0.87493 0.0
C870 C 0.22695 0.51148 0.86024 0.0
C871 C 0.19951 0.50779 0.85975 0.0
C872 C 0.16483 0.40979 0.89026 0.0
C873 C 0.13417 0.44622 0.85888 0.0
C874 C 0.16317 0.45058 0.88911 0.0
N875 N 0.1481 0.46825 0.87346 0.0
C876 C 0.13536 0.40536 0.85954 0.0
C877 C 0.15083 0.3871 0.87534 0.0
C878 C 0.08912 0.54078 0.86131 0.0
C879 C 0.11437 0.67618 0.90818 0.0
C880 C 0.08155 0.64618 0.87621 0.0
C881 C 0.0706 0.66626 0.89386 0.0
C882 C 0.08716 0.68129 0.90995 0.0
N883 N 0.10825 0.6413 0.87459 0.0
C884 C 0.12462 0.65601 0.89027 0.0
Co885 Co 0.84554 0.46867 0.87391 0.0
Co886 Co 0.86737 0.38076 0.85272 0.0
O887 O 0.84682 0.41163 0.87336 0.0
C888 C 0.86341 0.44567 0.91751 0.0
O889 O 0.88051 0.42328 0.90735 0.0
C890 C 0.81312 0.3531 0.84752 0.0
O891 O 0.80633 0.39014 0.84629 0.0
O892 O 0.85334 0.41133 0.82783 0.0
O893 O 0.84378 0.47103 0.84125 0.0
H894 H 0.92696 0.35952 0.78833 0.0
H895 H 0.80756 0.42296 0.90045 0.0
O896 O 0.84748 0.46691 0.90658 0.0
H897 H 0.75301 0.5018 0.85036 0.0
H898 H 0.81616 0.59883 0.90386 0.0
H899 H 0.87062 0.53235 0.84842 0.0
H900 H 0.80155 0.50713 0.84971 0.0
H901 H 0.81787 0.52665 0.90211 0.0
O902 O 0.83721 0.34357 0.85005 0.0
H903 H 0.90165 0.39878 0.81485 0.0
H904 H 0.87529 0.29507 0.84622 0.0
H905 H 0.86932 0.60459 0.84946 0.0
H906 H 0.75908 0.41693 0.90175 0.0
H907 H 0.84194 0.63828 0.87733 0.0
H908 H 0.73147 0.45645 0.87653 0.0
O909 O 0.88467 0.47209 0.87261 0.0
H910 H 0.86073 0.30581 0.92298 0.0
H911 H 0.92128 0.35616 0.86666 0.0
H912 H 0.93936 0.32035 0.89823 0.0
H913 H 0.90899 0.29491 0.92667 0.0
H914 H 0.8435 0.34202 0.89123 0.0
H915 H 0.90015 0.25463 0.81994 0.0
H916 H 0.92631 0.28689 0.79079 0.0
O917 O 0.89772 0.41762 0.85488 0.0
C918 C 0.84617 0.44687 0.82544 0.0
C919 C 0.91574 0.34512 0.80102 0.0
C920 C 0.90066 0.28625 0.81874 0.0
N921 N 0.88728 0.34923 0.8322 0.0
C922 C 0.90146 0.3672 0.81612 0.0
C923 C 0.8866 0.30929 0.83355 0.0
C924 C 0.91534 0.30437 0.80239 0.0
C925 C 0.79566 0.44055 0.88958 0.0
N926 N 0.80736 0.46552 0.87511 0.0
C927 C 0.76823 0.43688 0.89032 0.0
C928 C 0.75275 0.45902 0.87614 0.0
C929 C 0.76483 0.48446 0.86145 0.0
C930 C 0.79232 0.4873 0.86113 0.0
C931 C 0.82812 0.58449 0.89161 0.0
C932 C 0.85853 0.54683 0.8605 0.0
C933 C 0.82921 0.54365 0.89057 0.0
N934 N 0.84415 0.52537 0.87506 0.0
C935 C 0.85793 0.58772 0.86105 0.0
C936 C 0.84258 0.60661 0.87671 0.0
C937 C 0.90225 0.45083 0.86359 0.0
C938 C 0.87415 0.31664 0.91066 0.0
C939 C 0.90794 0.34518 0.87897 0.0
C940 C 0.91829 0.32488 0.8968 0.0
C941 C 0.90124 0.31059 0.91274 0.0
N942 N 0.88135 0.35099 0.87705 0.0
C943 C 0.8645 0.337 0.89259 0.0
H944 H 0.39316 0.0984 0.44372 0.0
H945 H 0.33197 0.00555 0.55242 0.0
H946 H 0.33299 0.00888 0.44346 0.0
H947 H 0.39343 0.09313 0.55195 0.0
H948 H 0.33142 0.00692 0.51257 0.0
H949 H 0.39283 0.09752 0.48346 0.0
C950 C 0.37987 0.07853 0.45201 0.0
C951 C 0.36314 0.05358 0.44023 0.0
C952 C 0.34502 0.02581 0.5212 0.0
C953 C 0.36265 0.05245 0.48581 0.0
C954 C 0.34535 0.02505 0.54395 0.0
C955 C 0.36283 0.04918 0.55554 0.0
C956 C 0.36226 0.05093 0.50996 0.0
C957 C 0.37969 0.0739 0.54371 0.0
C958 C 0.37969 0.07806 0.47473 0.0
C959 C 0.34626 0.02858 0.45188 0.0
N960 N 0.37898 0.07412 0.52159 0.0
N961 N 0.34647 0.02862 0.47403 0.0
H962 H 0.59674 0.90038 0.55035 0.0
H963 H 0.66099 0.98795 0.44152 0.0
H964 H 0.65821 0.98793 0.55055 0.0
H965 H 0.59944 0.90052 0.44219 0.0
H966 H 0.66087 0.98792 0.48139 0.0
H967 H 0.59796 0.89976 0.51065 0.0
C968 C 0.61048 0.91955 0.54205 0.0
C969 C 0.62734 0.94435 0.55381 0.0
C970 C 0.64742 0.96873 0.4728 0.0
C971 C 0.62889 0.9437 0.50824 0.0
C972 C 0.64749 0.96871 0.45004 0.0
C973 C 0.63014 0.94428 0.4385 0.0
C974 C 0.62989 0.94415 0.48409 0.0
C975 C 0.6131 0.91994 0.45039 0.0
C976 C 0.6112 0.91913 0.51934 0.0
C977 C 0.64483 0.96839 0.54214 0.0
N978 N 0.61339 0.92055 0.47251 0.0
N979 N 0.64513 0.96749 0.51999 0.0
H980 H 0.39251 0.89284 0.05191 0.0
H981 H 0.33108 0.9882 0.94395 0.0
H982 H 0.33184 0.98175 0.05303 0.0
H983 H 0.39313 0.90139 0.94391 0.0
H984 H 0.3304 0.98583 0.98381 0.0
H985 H 0.39227 0.89507 0.01222 0.0
C986 C 0.37912 0.91288 0.04381 0.0
C987 C 0.36223 0.93726 0.05583 0.0
C988 C 0.34416 0.96734 0.97506 0.0
C989 C 0.36184 0.93992 0.01027 0.0
C990 C 0.34457 0.96867 0.95231 0.0
C991 C 0.36225 0.94504 0.94057 0.0
C992 C 0.36152 0.94215 0.98613 0.0
C993 C 0.37923 0.92026 0.95226 0.0
C994 C 0.379 0.91412 0.02111 0.0
C995 C 0.34523 0.96248 0.04442 0.0
N996 N 0.37844 0.91948 0.97436 0.0
N997 N 0.3455 0.96319 0.02226 0.0
H998 H 0.65715 0.00733 0.94216 0.0
H999 H 0.59608 0.1039 0.04993 0.0
H1000 H 0.59587 0.09532 0.94188 0.0
H1001 H 0.65653 0.01467 0.05118 0.0
H1002 H 0.59629 0.10144 0.01024 0.0
H1003 H 0.65772 0.00981 0.98201 0.0
C1004 C 0.64381 0.02714 0.95046 0.0
C1005 C 0.62639 0.05108 0.93866 0.0
C1006 C 0.60952 0.08237 0.01916 0.0
C1007 C 0.62697 0.0541 0.98422 0.0
C1008 C 0.60941 0.08374 0.04186 0.0
C1009 C 0.62626 0.05935 0.05391 0.0
C1010 C 0.62662 0.05643 0.00836 0.0
C1011 C 0.64318 0.03397 0.04254 0.0
C1012 C 0.64415 0.02854 0.97321 0.0
C1013 C 0.60957 0.07622 0.95028 0.0
N1014 N 0.64291 0.03314 0.02038 0.0
N1015 N 0.61029 0.07705 0.97239 0.0
H1016 H 0.89418 0.59415 0.5535 0.0
H1017 H 0.83082 0.50827 0.44386 0.0
H1018 H 0.83336 0.50559 0.55318 0.0
H1019 H 0.89076 0.59807 0.4456 0.0
H1020 H 0.83109 0.5066 0.48377 0.0
H1021 H 0.89293 0.59556 0.51384 0.0
C1022 C 0.88057 0.5749 0.54509 0.0
C1023 C 0.86389 0.54961 0.5567 0.0
C1024 C 0.84416 0.52666 0.47539 0.0
C1025 C 0.86232 0.55119 0.51113 0.0
C1026 C 0.84401 0.52765 0.45262 0.0
C1027 C 0.86086 0.55327 0.44136 0.0
C1028 C 0.86127 0.55148 0.48696 0.0
C1029 C 0.8775 0.57773 0.45355 0.0
C1030 C 0.87984 0.57578 0.5224 0.0
C1031 C 0.84659 0.52551 0.54488 0.0
N1032 N 0.8773 0.57619 0.47565 0.0
N1033 N 0.84627 0.52686 0.52272 0.0
H1034 H 0.15901 0.49145 0.55113 0.0
H1035 H 0.09782 0.39539 0.44335 0.0
H1036 H 0.09759 0.4038 0.55133 0.0
H1037 H 0.15775 0.48524 0.4421 0.0
H1038 H 0.09817 0.39761 0.48303 0.0
H1039 H 0.15947 0.48923 0.51128 0.0
C1040 C 0.14561 0.47177 0.54281 0.0
C1041 C 0.12818 0.44785 0.55458 0.0
C1042 C 0.11126 0.41687 0.47411 0.0
C1043 C 0.12866 0.44512 0.50903 0.0
C1044 C 0.11106 0.41563 0.45142 0.0
C1045 C 0.12772 0.44027 0.43937 0.0
C1046 C 0.12825 0.44292 0.48491 0.0
C1047 C 0.14455 0.46575 0.45074 0.0
C1048 C 0.14589 0.47053 0.52006 0.0
C1049 C 0.11129 0.42288 0.54295 0.0
N1050 N 0.14436 0.46645 0.47289 0.0
N1051 N 0.11197 0.42219 0.52084 0.0
H1052 H 0.83207 0.49 0.94447 0.0
H1053 H 0.89108 0.39455 0.05333 0.0
H1054 H 0.89247 0.40069 0.94542 0.0
H1055 H 0.83244 0.48642 0.05379 0.0
H1056 H 0.8909 0.39582 0.01366 0.0
H1057 H 0.83106 0.48864 0.98437 0.0
C1058 C 0.84512 0.47014 0.95305 0.0
C1059 C 0.86245 0.44551 0.94159 0.0
C1060 C 0.87805 0.41573 0.02239 0.0
C1061 C 0.86133 0.44376 0.98717 0.0
C1062 C 0.87815 0.41505 0.04509 0.0
C1063 C 0.86182 0.44054 0.05693 0.0
C1064 C 0.8615 0.4421 0.01134 0.0
C1065 C 0.84539 0.46629 0.04531 0.0
C1066 C 0.84453 0.46938 0.97582 0.0
C1067 C 0.87887 0.42033 0.95355 0.0
N1068 N 0.84567 0.46645 0.02314 0.0
N1069 N 0.8779 0.42012 0.97565 0.0
H1070 H 0.09974 0.59912 0.05138 0.0
H1071 H 0.15913 0.50426 0.94256 0.0
H1072 H 0.15881 0.50784 0.05165 0.0
H1073 H 0.09774 0.59208 0.94337 0.0
H1074 H 0.16016 0.50586 0.98242 0.0
H1075 H 0.0997 0.59776 0.01169 0.0
C1076 C 0.11272 0.57875 0.0431 0.0
C1077 C 0.12924 0.55344 0.05487 0.0
C1078 C 0.14646 0.52474 0.97385 0.0
C1079 C 0.1293 0.55178 0.00931 0.0
C1080 C 0.14586 0.52385 0.95111 0.0
C1081 C 0.12826 0.54799 0.93962 0.0
C1082 C 0.1294 0.55002 0.98517 0.0
C1083 C 0.11155 0.57283 0.95153 0.0
C1084 C 0.11268 0.578 0.0204 0.0
C1085 C 0.14572 0.52783 0.04322 0.0
N1086 N 0.11255 0.57319 0.97364 0.0
N1087 N 0.14531 0.52762 0.02106 0.0
H1088 H 0.56429 0.99082 0.39518 0.0
H1089 H 0.4379 0.05159 0.3292 0.0
H1090 H 0.55284 0.95111 0.32909 0.0
H1091 H 0.42976 0.01009 0.39528 0.0
H1092 H 0.48395 0.02956 0.32922 0.0
H1093 H 0.51805 0.01301 0.39598 0.0
C1094 C 0.55207 0.9871 0.38084 0.0
C1095 C 0.56216 0.96919 0.36205 0.0
C1096 C 0.472 0.02536 0.34367 0.0
C1097 C 0.51007 0.99478 0.36276 0.0
C1098 C 0.44589 0.03796 0.34371 0.0
C1099 C 0.43018 0.03237 0.36224 0.0
C1100 C 0.48255 0.00816 0.36248 0.0
C1101 C 0.44132 0.0145 0.38064 0.0
C1102 C 0.52582 -0.00056 0.38137 0.0
C1103 C 0.54564 0.96464 0.3439 0.0
N1104 N 0.46706 0.00331 0.38041 0.0
N1105 N 0.5204 0.97777 0.34462 0.0
H1106 H 0.44941 0.90362 0.13545 0.0
H1107 H 0.53966 0.09374 0.13403 0.0
H1108 H 0.41834 0.01975 0.12408 0.0
H1109 H 0.5705 0.97734 0.12309 0.0
H1110 H 0.49503 0.06714 0.13331 0.0
H1111 H 0.49402 0.93019 0.13388 0.0
C1112 C 0.45192 0.93468 0.13257 0.0
C1113 C 0.43005 0.95948 0.12986 0.0
C1114 C 0.51158 0.0475 0.13094 0.0
C1115 C 0.4811 0.99003 0.12824 0.0
C1116 C 0.53709 0.06261 0.13141 0.0
C1117 C 0.5589 0.03774 0.12859 0.0
C1118 C 0.50784 0.00716 0.12795 0.0
C1119 C 0.55429 0.99763 0.12526 0.0
C1120 C 0.47742 0.94977 0.13161 0.0
C1121 C 0.43459 -0.0005 0.12618 0.0
N1122 N 0.52924 0.98354 0.12518 0.0
N1123 N 0.45963 0.01359 0.12561 0.0
H1124 H 0.5623 0.98923 0.59922 0.0
H1125 H 0.43689 0.04632 0.66712 0.0
H1126 H 0.55271 0.94604 0.66483 0.0
H1127 H 0.42796 0.00581 0.60093 0.0
H1128 H 0.48297 0.02403 0.66665 0.0
H1129 H 0.51588 0.0105 0.59946 0.0
C1130 C 0.55045 0.98458 0.61369 0.0
C1131 C 0.56112 0.96594 0.63204 0.0
C1132 C 0.47081 0.02002 0.6523 0.0
C1133 C 0.50879 0.99048 0.63249 0.0
C1134 C 0.4447 0.03274 0.65252 0.0
C1135 C 0.42879 0.02757 0.63407 0.0
C1136 C 0.48114 0.00325 0.63328 0.0
C1137 C 0.43967 0.00986 0.61552 0.0
C1138 C 0.5241 0.99639 0.61374 0.0
C1139 C 0.54505 0.96018 0.65036 0.0
N1140 N 0.46541 -0.00132 0.61548 0.0
N1141 N 0.51966 0.97283 0.65023 0.0
H1142 H 0.55241 0.04885 0.8272 0.0
H1143 H 0.42702 0.99098 0.89511 0.0
H1144 H 0.5613 0.0074 0.89322 0.0
H1145 H 0.43649 0.94919 0.8292 0.0
H1146 H 0.47337 0.01256 0.89486 0.0
H1147 H 0.50624 0.02714 0.82765 0.0
C1148 C 0.54458 0.03521 0.84176 0.0
C1149 C 0.56051 0.02958 0.86016 0.0
C1150 C 0.46513 -0.00128 0.88051 0.0
C1151 C 0.50804 0.00591 0.86094 0.0
C1152 C 0.43882 0.98674 0.88057 0.0
C1153 C 0.42816 0.96836 0.86214 0.0
C1154 C 0.48039 0.99324 0.86169 0.0
C1155 C 0.44415 0.96312 0.84374 0.0
C1156 C 0.5184 0.02282 0.84198 0.0
C1157 C 0.54958 0.0118 0.87867 0.0
N1158 N 0.4695 0.9759 0.84387 0.0
N1159 N 0.52379 0.00093 0.8787 0.0
H1160 H 0.9479 0.59099 0.36177 0.0
H1161 H 0.04104 0.40414 0.35907 0.0
H1162 H 0.91877 0.47357 0.3723 0.0
H1163 H 0.07023 0.52086 0.37172 0.0
H1164 H -0.00398 0.42914 0.3609 0.0
H1165 H 0.99288 0.56582 0.36246 0.0
C1166 C 0.95092 0.55993 0.36431 0.0
C1167 C 0.92948 0.53435 0.36701 0.0
C1168 C 0.0123 0.44919 0.3634 0.0
C1169 C 0.98098 0.5054 0.36759 0.0
C1170 C 0.03803 0.435 0.36229 0.0
C1171 C 0.0595 0.46044 0.36528 0.0
C1172 C 0.00798 0.48918 0.3672 0.0
C1173 C 0.05431 0.50015 0.36938 0.0
C1174 C 0.97664 0.54564 0.36476 0.0
C1175 C 0.93469 0.49438 0.37023 0.0
N1176 N 0.02905 0.51336 0.37008 0.0
N1177 N 0.95995 0.48107 0.37027 0.0
H1178 H 0.04304 0.58976 0.13441 0.0
H1179 H 0.94877 0.40434 0.13629 0.0
H1180 H 0.07132 0.472 0.12327 0.0
H1181 H 0.92015 0.52169 0.12439 0.0
H1182 H 0.99391 0.4287 0.13438 0.0
H1183 H -0.00214 0.56539 0.13354 0.0
C1184 C 0.03979 0.5588 0.1317 0.0
C1185 C 0.06105 0.53288 0.1289 0.0
C1186 C 0.97773 0.44903 0.13205 0.0
C1187 C 0.00935 0.50485 0.12809 0.0
C1188 C 0.95193 0.43521 0.13321 0.0
C1189 C 0.9306 0.46101 0.13048 0.0
C1190 C 0.98226 0.48903 0.12846 0.0
C1191 C 0.93598 0.50071 0.12654 0.0
C1192 C 0.01396 0.54496 0.13114 0.0
C1193 C 0.05556 0.49306 0.12544 0.0
N1194 N 0.96131 0.51357 0.12579 0.0
N1195 N 0.03021 0.4802 0.1253 0.0
H1196 H 0.938 0.54868 0.66811 0.0
H1197 H 0.06369 0.49257 0.60022 0.0
H1198 H 0.92929 0.50713 0.60209 0.0
H1199 H 0.05446 0.44977 0.66594 0.0
H1200 H 0.0172 0.51352 0.60051 0.0
H1201 H 0.98426 0.52725 0.66766 0.0
C1202 C 0.9459 0.53506 0.65355 0.0
C1203 C 0.92999 0.52933 0.63515 0.0
C1204 C 0.02552 0.4996 0.61482 0.0
C1205 C 0.98255 0.50602 0.63438 0.0
C1206 C 0.05191 0.48798 0.61474 0.0
C1207 C 0.06269 0.46951 0.63309 0.0
C1208 C 0.01028 0.49367 0.6336 0.0
C1209 C 0.04671 0.4638 0.65146 0.0
C1210 C 0.97212 0.52284 0.65334 0.0
C1211 C 0.94099 0.5116 0.61665 0.0
N1212 N 0.02128 0.47624 0.65136 0.0
N1213 N 0.96682 0.50091 0.61662 0.0
H1214 H 0.05377 0.54451 0.82813 0.0
H1215 H 0.92839 0.48875 0.89619 0.0
H1216 H 0.06283 0.50476 0.89445 0.0
H1217 H 0.93803 0.44429 0.83084 0.0
H1218 H 0.97487 0.50967 0.8959 0.0
H1219 H 0.00775 0.52209 0.82869 0.0
C1220 C 0.04601 0.53104 0.84277 0.0
C1221 C 0.06193 0.52615 0.86124 0.0
C1222 C 0.96666 0.49535 0.88169 0.0
C1223 C 0.00963 0.5017 0.86213 0.0
C1224 C 0.94027 0.48373 0.88177 0.0
C1225 C 0.9296 0.46486 0.86351 0.0
C1226 C 0.98199 0.489 0.86299 0.0
C1227 C 0.94569 0.45863 0.84525 0.0
C1228 C 0.01993 0.51825 0.84305 0.0
C1229 C 0.05111 0.50859 0.87985 0.0
N1230 N 0.97111 0.4711 0.84534 0.0
N1231 N 0.02539 0.49736 0.87995 0.0
H1232 H 0.22857 0.36021 0.33875 0.0
H1233 H 0.25882 0.13009 0.34093 0.0
H1234 H 0.1682 0.271 0.34067 0.0
H1235 H 0.31921 0.21933 0.34183 0.0
H1236 H 0.22528 0.18135 0.33869 0.0
H1237 H 0.26214 0.30887 0.33758 0.0
C1238 C 0.22237 0.32985 0.33877 0.0
C1239 C 0.19557 0.31985 0.33987 0.0
C1240 C 0.24588 0.18969 0.33931 0.0
C1241 C 0.23382 0.26104 0.33866 0.0
C1242 C 0.26503 0.16044 0.34057 0.0
C1243 C 0.29182 0.17047 0.34162 0.0
C1244 C 0.25361 0.22921 0.3391 0.0
C1245 C 0.29875 0.21026 0.34113 0.0
C1246 C 0.24154 0.30055 0.33817 0.0
C1247 C 0.18865 0.28004 0.33992 0.0
N1248 N 0.27975 0.23818 0.33995 0.0
N1249 N 0.20767 0.25209 0.3394 0.0
H1250 H 0.66861 0.77684 0.33987 0.0
H1251 H 0.82225 0.72463 0.34156 0.0
H1252 H 0.73064 0.86353 0.33865 0.0
H1253 H 0.76057 0.63737 0.34063 0.0
H1254 H 0.78887 0.77578 0.33907 0.0
H1255 H 0.70192 0.72528 0.33876 0.0
C1256 C 0.68924 0.78504 0.33928 0.0
C1257 C 0.69688 0.82455 0.33942 0.0
C1258 C 0.78261 0.74546 0.33931 0.0
C1259 C 0.73508 0.76566 0.3382 0.0
C1260 C 0.80167 0.7162 0.34075 0.0
C1261 C 0.79416 0.67666 0.34138 0.0
C1262 C 0.75583 0.73517 0.33859 0.0
C1263 C 0.76722 0.66749 0.34019 0.0
C1264 C 0.70825 0.75557 0.33864 0.0
C1265 C 0.72387 0.83346 0.33858 0.0
N1266 N 0.74899 0.69658 0.33896 0.0
N1267 N 0.74201 0.8042 0.3381 0.0
H1268 H 0.23095 0.62828 0.15671 0.0
H1269 H 0.2627 0.8578 0.15869 0.0
H1270 H 0.17133 0.7188 0.15642 0.0
H1271 H 0.32259 0.76789 0.15519 0.0
H1272 H 0.229 0.80695 0.16095 0.0
H1273 H 0.26494 0.67883 0.15923 0.0
C1274 C 0.225 0.65875 0.15733 0.0
C1275 C 0.1983 0.66938 0.15625 0.0
C1276 C 0.24953 0.79834 0.15979 0.0
C1277 C 0.23701 0.72725 0.15904 0.0
C1278 C 0.26878 0.82737 0.15854 0.0
C1279 C 0.29547 0.81705 0.15665 0.0
C1280 C 0.25703 0.75873 0.15914 0.0
C1281 C 0.30222 0.77716 0.15652 0.0
C1282 C 0.24441 0.68759 0.15872 0.0
C1283 C 0.1917 0.70928 0.15709 0.0
N1284 N 0.28309 0.74944 0.15766 0.0
N1285 N 0.21094 0.73677 0.15835 0.0
H1286 H 0.66644 0.22916 0.15403 0.0
H1287 H 0.821 0.27401 0.15802 0.0
H1288 H 0.72659 0.13951 0.15635 0.0
H1289 H 0.76107 0.36406 0.15768 0.0
H1290 H 0.78652 0.22439 0.15939 0.0
H1291 H 0.70067 0.27902 0.15723 0.0
C1292 C 0.68684 0.21994 0.1553 0.0
C1293 C 0.6937 0.18012 0.15483 0.0
C1294 C 0.78089 0.25499 0.15914 0.0
C1295 C 0.73294 0.23705 0.15845 0.0
C1296 C 0.80057 0.28337 0.15835 0.0
C1297 C 0.79388 0.32323 0.15763 0.0
C1298 C 0.7543 0.26652 0.1591 0.0
C1299 C 0.76711 0.33365 0.1582 0.0
C1300 C 0.70637 0.24844 0.15715 0.0
C1301 C 0.72042 0.16987 0.15662 0.0
N1302 N 0.74826 0.30541 0.15877 0.0
N1303 N 0.73909 0.1982 0.15825 0.0
H1304 H 0.73095 0.8625 0.64999 0.0
H1305 H 0.75953 0.63192 0.65153 0.0
H1306 H 0.66986 0.77433 0.64876 0.0
H1307 H 0.82058 0.72015 0.65012 0.0
H1308 H 0.7263 0.68377 0.65169 0.0
H1309 H 0.76412 0.81065 0.6512 0.0
C1310 C 0.72451 0.83225 0.65005 0.0
C1311 C 0.69762 0.82269 0.64929 0.0
C1312 C 0.74697 0.69176 0.65139 0.0
C1313 C 0.73543 0.76328 0.65061 0.0
C1314 C 0.76595 0.66219 0.65134 0.0
C1315 C 0.79284 0.67176 0.65083 0.0
C1316 C 0.75498 0.73114 0.65094 0.0
C1317 C 0.80005 0.71144 0.6505 0.0
C1318 C 0.74346 0.80266 0.6507 0.0
C1319 C 0.6904 0.78302 0.64931 0.0
N1320 N 0.78121 0.73968 0.65055 0.0
N1321 N 0.70921 0.75475 0.64995 0.0
H1322 H 0.23231 0.36408 0.64986 0.0
H1323 H 0.25922 0.13305 0.65076 0.0
H1324 H 0.17062 0.27684 0.64859 0.0
H1325 H 0.32095 0.22026 0.64964 0.0
H1326 H 0.2264 0.18544 0.65105 0.0
H1327 H 0.26514 0.31172 0.65084 0.0
C1328 C 0.22567 0.33393 0.64985 0.0
C1329 C 0.19871 0.32479 0.64916 0.0
C1330 C 0.24713 0.1931 0.65078 0.0
C1331 C 0.23611 0.2648 0.65023 0.0
C1332 C 0.26587 0.16321 0.65066 0.0
C1333 C 0.29284 0.17233 0.65019 0.0
C1334 C 0.25543 0.23234 0.65046 0.0
C1335 C 0.30034 0.21189 0.64998 0.0
C1336 C 0.24441 0.30405 0.65038 0.0
C1337 C 0.19121 0.28522 0.6491 0.0
N1338 N 0.28172 0.24045 0.6501 0.0
N1339 N 0.20983 0.25667 0.64962 0.0
H1340 H 0.73089 0.13174 0.84384 0.0
H1341 H 0.75955 0.36224 0.84512 0.0
H1342 H 0.66984 0.22014 0.84434 0.0
H1343 H 0.82054 0.27383 0.84737 0.0
H1344 H 0.72636 0.3105 0.84365 0.0
H1345 H 0.76413 0.18349 0.8439 0.0
C1346 C 0.72448 0.16202 0.84387 0.0
C1347 C 0.69758 0.17167 0.84407 0.0
C1348 C 0.74701 0.30244 0.84443 0.0
C1349 C 0.73545 0.23095 0.84422 0.0
C1350 C 0.76597 0.33196 0.84524 0.0
C1351 C 0.79283 0.32231 0.84635 0.0
C1352 C 0.75501 0.26303 0.84472 0.0
C1353 C 0.80003 0.2826 0.84655 0.0
C1354 C 0.74346 0.19155 0.84395 0.0
C1355 C 0.69038 0.21137 0.8442 0.0
N1356 N 0.78121 0.25441 0.84574 0.0
N1357 N 0.70922 0.23957 0.84429 0.0
H1358 H 0.16829 0.72041 0.84586 0.0
H1359 H 0.32174 0.77431 0.84596 0.0
H1360 H 0.23069 0.63416 0.84433 0.0
H1361 H 0.25936 0.86061 0.84493 0.0
H1362 H 0.28864 0.72256 0.84521 0.0
H1363 H 0.20139 0.77218 0.84536 0.0
C1364 C 0.18897 0.71235 0.84537 0.0
C1365 C 0.19677 0.67291 0.84512 0.0
C1366 C 0.28218 0.7528 0.84509 0.0
C1367 C 0.23473 0.73205 0.84459 0.0
C1368 C 0.30107 0.78239 0.84553 0.0
C1369 C 0.29327 0.82184 0.84549 0.0
C1370 C 0.2553 0.76272 0.84467 0.0
C1371 C 0.26624 0.83058 0.84492 0.0
C1372 C 0.20785 0.74194 0.84508 0.0
C1373 C 0.22381 0.66418 0.84449 0.0
N1374 N 0.2482 0.80121 0.84457 0.0
N1375 N 0.24184 0.69356 0.84428 0.0
H1376 H 0.34201 0.9678 0.31212 0.0
H1377 H 0.33536 0.01506 0.18451 0.0
H1378 H 0.34273 0.08495 0.28547 0.0
H1379 H 0.35377 0.90057 0.21046 0.0
H1380 H 0.33109 0.03984 0.22165 0.0
H1381 H 0.33926 0.9416 0.27511 0.0
C1382 C 0.34134 0.98805 0.29855 0.0
C1383 C 0.34285 0.02867 0.30194 0.0
C1384 C 0.33595 0.00926 0.21919 0.0
C1385 C 0.33969 -0.0012 0.25958 0.0
C1386 C 0.33836 0.99503 0.19798 0.0
C1387 C 0.34516 0.9557 0.1943 0.0
C1388 C 0.34022 0.98398 0.2369 0.0
C1389 C 0.34871 0.93118 0.21247 0.0
C1390 C 0.33987 0.97303 0.27742 0.0
C1391 C 0.34186 0.05343 0.28367 0.0
N1392 N 0.34626 0.94575 0.23297 0.0
N1393 N 0.34043 0.03809 0.26329 0.0
H1394 H 0.65395 0.98219 0.18252 0.0
H1395 H 0.64974 0.0298 0.31015 0.0
H1396 H 0.6362 0.09688 0.20851 0.0
H1397 H 0.64729 0.91267 0.28355 0.0
H1398 H 0.65206 0.05591 0.27308 0.0
H1399 H 0.65869 0.95753 0.21963 0.0
C1400 C 0.65119 0.00229 0.19599 0.0
C1401 C 0.64443 0.04165 0.19233 0.0
C1402 C 0.65117 0.0245 0.27542 0.0
C1403 C 0.64993 0.01349 0.23491 0.0
C1404 C 0.64995 0.00954 0.29657 0.0
C1405 C 0.64807 0.96896 0.3 0.0
C1406 C 0.65074 -0.00129 0.25759 0.0
C1407 C 0.64846 0.94416 0.28173 0.0
C1408 C 0.65386 0.98812 0.21719 0.0
C1409 C 0.64121 0.06625 0.21051 0.0
N1410 N 0.64967 0.95945 0.26133 0.0
N1411 N 0.64393 0.05174 0.231 0.0
H1412 H 0.65373 0.97043 0.80987 0.0
H1413 H 0.65462 0.02371 0.68279 0.0
H1414 H 0.6472 0.08834 0.7848 0.0
H1415 H 0.64645 0.90599 0.70778 0.0
H1416 H 0.65901 0.04766 0.72014 0.0
H1417 H 0.65818 0.94632 0.77255 0.0
C1418 C 0.65346 0.99131 0.79657 0.0
C1419 C 0.64978 0.03146 0.80052 0.0
C1420 C 0.65643 0.01656 0.71741 0.0
C1421 C 0.65486 0.00399 0.75776 0.0
C1422 C 0.65397 0.00283 0.69607 0.0
C1423 C 0.64987 0.96279 0.6921 0.0
C1424 C 0.65488 0.99009 0.73489 0.0
C1425 C 0.64932 0.93715 0.71002 0.0
C1426 C 0.65594 0.97749 0.77526 0.0
C1427 C 0.64972 0.0571 0.78259 0.0
N1428 N 0.65165 0.95127 0.73061 0.0
N1429 N 0.65206 0.0429 0.76201 0.0
H1430 H 0.33475 0.02445 0.81157 0.0
H1431 H 0.33518 0.97054 0.68459 0.0
H1432 H 0.34247 0.90656 0.78672 0.0
H1433 H 0.3427 0.08845 0.70944 0.0
H1434 H 0.33055 0.94674 0.72194 0.0
H1435 H 0.33034 0.04829 0.7742 0.0
C1436 C 0.33528 0.00351 0.79832 0.0
C1437 C 0.33929 0.96346 0.80234 0.0
C1438 C 0.33304 0.97784 0.71918 0.0
C1439 C 0.33426 0.99062 0.75952 0.0
C1440 C 0.33563 0.99149 0.69784 0.0
C1441 C 0.33964 0.03154 0.69383 0.0
C1442 C 0.33434 0.00442 0.73663 0.0
C1443 C 0.33992 0.05728 0.71171 0.0
C1444 C 0.33282 0.01718 0.77697 0.0
C1445 C 0.33969 0.93774 0.78445 0.0
N1446 N 0.33746 0.04324 0.73231 0.0
N1447 N 0.33736 0.95179 0.76384 0.0
H1448 H 0.85066 0.40472 0.2113 0.0
H1449 H 0.85103 0.59401 0.28701 0.0
H1450 H 0.8413 0.52205 0.18606 0.0
H1451 H 0.83901 0.4769 0.31178 0.0
H1452 H 0.8485 0.56837 0.24992 0.0
H1453 H 0.8475 0.43069 0.24826 0.0
C1454 C 0.84784 0.43593 0.21349 0.0
C1455 C 0.84639 0.46125 0.19549 0.0
C1456 C 0.84622 0.54836 0.26348 0.0
C1457 C 0.84291 0.49117 0.23785 0.0
C1458 C 0.84772 0.56294 0.28469 0.0
C1459 C 0.84538 0.53756 0.3026 0.0
C1460 C 0.84266 0.50803 0.26011 0.0
C1461 C 0.84099 0.4976 0.29852 0.0
C1462 C 0.84595 0.45071 0.23463 0.0
C1463 C 0.84257 0.50141 0.19941 0.0
N1464 N 0.84001 0.48404 0.27771 0.0
N1465 N 0.84119 0.51516 0.22017 0.0
H1466 H 0.15124 0.51914 0.31073 0.0
H1467 H 0.15099 0.47076 0.18325 0.0
H1468 H 0.13852 0.40298 0.28481 0.0
H1469 H 0.14077 0.58734 0.20936 0.0
H1470 H 0.15361 0.4453 0.22041 0.0
H1471 H 0.15462 0.54421 0.27358 0.0
C1472 C 0.14933 0.49881 0.29727 0.0
C1473 C 0.14438 0.45888 0.30095 0.0
C1474 C 0.1509 0.47646 0.21796 0.0
C1475 C 0.14832 0.48751 0.25837 0.0
C1476 C 0.14948 0.49107 0.19675 0.0
C1477 C 0.14544 0.53126 0.19314 0.0
C1478 C 0.14853 0.50222 0.23568 0.0
C1479 C 0.14368 0.55612 0.21133 0.0
C1480 C 0.15119 0.51322 0.27606 0.0
C1481 C 0.14215 0.43401 0.28279 0.0
N1482 N 0.1452 0.54118 0.2318 0.0
N1483 N 0.14409 0.44876 0.26229 0.0
H1484 H 0.15598 0.47091 0.81037 0.0
H1485 H 0.15613 0.5262 0.68361 0.0
H1486 H 0.14751 0.58896 0.7859 0.0
H1487 H 0.14907 0.40797 0.70807 0.0
H1488 H 0.16048 0.54968 0.72105 0.0
H1489 H 0.16092 0.4476 0.77295 0.0
C1490 C 0.15538 0.492 0.79719 0.0
C1491 C 0.15101 0.53193 0.80132 0.0
C1492 C 0.15816 0.51857 0.71818 0.0
C1493 C 0.15666 0.50537 0.75846 0.0
C1494 C 0.15574 0.50511 0.69679 0.0
C1495 C 0.15191 0.46507 0.69266 0.0
C1496 C 0.15687 0.49181 0.73554 0.0
C1497 C 0.15169 0.43914 0.71045 0.0
C1498 C 0.15815 0.47863 0.77582 0.0
C1499 C 0.15056 0.55786 0.78353 0.0
N1500 N 0.15397 0.453 0.7311 0.0
N1501 N 0.15319 0.54409 0.76289 0.0
H1502 H 0.84274 0.59013 0.71011 0.0
H1503 H 0.84392 0.40348 0.78793 0.0
H1504 H 0.83816 0.47115 0.68641 0.0
H1505 H 0.83748 0.52233 0.81156 0.0
H1506 H 0.83967 0.4276 0.75073 0.0
H1507 H 0.83862 0.56585 0.74728 0.0
C1508 C 0.84068 0.55888 0.71268 0.0
C1509 C 0.84106 0.53262 0.69504 0.0
C1510 C 0.83896 0.44839 0.76405 0.0
C1511 C 0.83648 0.50461 0.73774 0.0
C1512 C 0.84144 0.43466 0.78535 0.0
C1513 C 0.84131 0.46095 0.80297 0.0
C1514 C 0.83656 0.48876 0.76025 0.0
C1515 C 0.83783 0.50097 0.79853 0.0
C1516 C 0.83829 0.54506 0.73395 0.0
C1517 C 0.83811 0.4925 0.69946 0.0
N1518 N 0.83584 0.51367 0.77759 0.0
N1519 N 0.8362 0.47971 0.72038 0.0
loop_
_geom_bond_atom_site_label_1
_geom_bond_atom_site_label_2
_geom_bond_distance
_geom_bond_site_symmetry_2
_ccdc_geom_bond_type
Co0 O2 2.164 . S
Co0 O8 2.073 1_545 S
Co0 O11 2.093 . S
Co0 O24 2.102 . S
Co0 N41 2.144 1_545 S
Co0 N49 2.192 1_545 S
Co1 O2 2.160 . S
Co1 O7 2.058 . S
Co1 O17 2.057 . S
Co1 O32 2.037 . S
Co1 N36 2.145 . S
Co1 N57 2.257 . S
O2 Co0 2.164 . S
O2 Co1 2.160 . S
C3 O4 1.278 . S
C3 O11 1.224 . S
O4 C3 1.278 . S
C5 O6 1.245 . S
C5 O17 1.232 . S
O6 C5 1.245 . S
O7 Co1 2.058 . S
O7 C33 1.269 . S
O8 Co0 2.073 1_565 S
O8 C33 1.251 1_565 S
H9 C34 0.930 . S
H10 C40 0.930 1_545 S
O11 Co0 2.093 . S
O11 C3 1.224 . S
H12 C44 0.929 . S
H13 C46 0.930 . S
H14 C47 0.930 . S
H15 C45 0.929 . S
H16 C48 0.928 . S
O17 Co1 2.057 . S
O17 C5 1.232 . S
H18 C37 0.929 . S
H19 C38 0.929 . S
H20 C50 0.931 . S
H21 C42 0.929 . S
H22 C51 0.930 . S
H23 C43 0.931 . S
O24 Co0 2.102 . S
O24 C52 1.214 . S
H25 C53 0.929 . S
H26 C54 0.929 . S
H27 C55 0.930 . S
H28 C56 0.929 . S
H29 C58 0.930 . S
H30 C35 0.930 . S
H31 C39 0.930 . S
O32 Co1 2.037 . S
O32 C52 1.234 . S
C33 O7 1.269 . S
C33 O8 1.251 1_545 S
C34 H9 0.930 . S
C34 C37 1.388 . S
C34 C39 1.418 . S
C35 H30 0.930 . S
C35 C38 1.404 . S
C35 C39 1.353 . S
N36 Co1 2.145 . S
N36 C37 1.397 . S
N36 C38 1.334 . S
C37 H18 0.929 . S
C37 C34 1.388 . S
C37 N36 1.397 . S
C38 H19 0.929 . S
C38 C35 1.404 . S
C38 N36 1.334 . S
C39 H31 0.930 . S
C39 C34 1.418 . S
C39 C35 1.353 . S
C40 H10 0.930 1_565 S
C40 N41 1.330 . S
C40 C42 1.446 . S
N41 Co0 2.144 1_565 S
N41 C40 1.330 . S
N41 C45 1.418 . S
C42 H21 0.929 . S
C42 C40 1.446 . S
C42 C43 1.332 . S
C43 H23 0.931 . S
C43 C42 1.332 . S
C43 C44 1.267 . S
C44 H12 0.929 . S
C44 C43 1.267 . S
C44 C45 1.251 . S
C45 H15 0.929 . S
C45 N41 1.418 . S
C45 C44 1.251 . S
C46 H13 0.930 . S
C46 C48 1.406 . S
C46 C51 1.261 . S
C47 H14 0.930 . S
C47 N49 1.325 . S
C47 C50 1.357 . S
C48 H16 0.928 . S
C48 C46 1.406 . S
C48 N49 1.261 . S
N49 Co0 2.192 1_565 S
N49 C47 1.325 . S
N49 C48 1.261 . S
C50 H20 0.931 . S
C50 C47 1.357 . S
C50 C51 1.312 . S
C51 H22 0.930 . S
C51 C46 1.261 . S
C51 C50 1.312 . S
C52 O24 1.214 . S
C52 O32 1.234 . S
C53 H25 0.929 . S
C53 C56 1.391 . S
C53 C58 1.391 . S
C54 H26 0.929 . S
C54 C55 1.390 . S
C54 N57 1.391 . S
C55 H27 0.930 . S
C55 C54 1.390 . S
C55 C56 1.392 . S
C56 H28 0.929 . S
C56 C53 1.391 . S
C56 C55 1.392 . S
N57 Co1 2.257 . S
N57 C54 1.391 . S
N57 C58 1.388 . S
C58 H29 0.930 . S
C58 C53 1.391 . S
C58 N57 1.388 . S
Co59 O61 2.164 . S
Co59 O67 2.073 1_565 S
Co59 O70 2.093 . S
Co59 O83 2.102 . S
Co59 N100 2.145 1_565 S
Co59 N108 2.193 1_565 S
Co60 O61 2.160 . S
Co60 O66 2.058 . S
Co60 O76 2.057 . S
Co60 O91 2.037 . S
Co60 N95 2.145 . S
Co60 N116 2.257 . S
O61 Co59 2.164 . S
O61 Co60 2.160 . S
C62 O63 1.278 . S
C62 O70 1.224 . S
O63 C62 1.278 . S
C64 O65 1.245 . S
C64 O76 1.232 . S
O65 C64 1.245 . S
O66 Co60 2.058 . S
O66 C92 1.269 . S
O67 Co59 2.073 1_545 S
O67 C92 1.251 1_545 S
H68 C93 0.930 . S
H69 C99 0.930 1_565 S
O70 Co59 2.093 . S
O70 C62 1.224 . S
H71 C103 0.929 . S
H72 C105 0.930 . S
H73 C106 0.930 . S
H74 C104 0.929 . S
H75 C107 0.928 . S
O76 Co60 2.057 . S
O76 C64 1.232 . S
H77 C96 0.929 . S
H78 C97 0.929 . S
H79 C109 0.931 . S
H80 C101 0.929 . S
H81 C110 0.930 . S
H82 C102 0.931 . S
O83 Co59 2.102 . S
O83 C111 1.214 . S
H84 C112 0.929 . S
H85 C113 0.929 . S
H86 C114 0.930 . S
H87 C115 0.929 . S
H88 C117 0.930 . S
H89 C94 0.930 . S
H90 C98 0.930 . S
O91 Co60 2.037 . S
O91 C111 1.234 . S
C92 O66 1.269 . S
C92 O67 1.251 1_565 S
C93 H68 0.930 . S
C93 C96 1.388 . S
C93 C98 1.418 . S
C94 H89 0.930 . S
C94 C97 1.404 . S
C94 C98 1.353 . S
N95 Co60 2.145 . S
N95 C96 1.397 . S
N95 C97 1.334 . S
C96 H77 0.929 . S
C96 C93 1.388 . S
C96 N95 1.397 . S
C97 H78 0.929 . S
C97 C94 1.404 . S
C97 N95 1.334 . S
C98 H90 0.930 . S
C98 C93 1.418 . S
C98 C94 1.353 . S
C99 H69 0.930 1_545 S
C99 N100 1.330 . S
C99 C101 1.446 . S
N100 Co59 2.145 1_545 S
N100 C99 1.330 . S
N100 C104 1.418 . S
C101 H80 0.929 . S
C101 C99 1.446 . S
C101 C102 1.332 . S
C102 H82 0.931 . S
C102 C101 1.332 . S
C102 C103 1.267 . S
C103 H71 0.929 . S
C103 C102 1.267 . S
C103 C104 1.251 . S
C104 H74 0.929 . S
C104 N100 1.418 . S
C104 C103 1.251 . S
C105 H72 0.930 . S
C105 C107 1.406 . S
C105 C110 1.261 . S
C106 H73 0.930 . S
C106 N108 1.325 . S
C106 C109 1.357 . S
C107 H75 0.928 . S
C107 C105 1.406 . S
C107 N108 1.261 . S
N108 Co59 2.193 1_545 S
N108 C106 1.325 . S
N108 C107 1.261 . S
C109 H79 0.931 . S
C109 C106 1.357 . S
C109 C110 1.312 . S
C110 H81 0.930 . S
C110 C105 1.261 . S
C110 C109 1.312 . S
C111 O83 1.214 . S
C111 O91 1.234 . S
C112 H84 0.929 . S
C112 C115 1.391 . S
C112 C117 1.391 . S
C113 H85 0.929 . S
C113 C114 1.390 . S
C113 N116 1.391 . S
C114 H86 0.930 . S
C114 C113 1.390 . S
C114 C115 1.392 . S
C115 H87 0.929 . S
C115 C112 1.391 . S
C115 C114 1.392 . S
N116 Co60 2.257 . S
N116 C113 1.391 . S
N116 C117 1.388 . S
C117 H88 0.930 . S
C117 C112 1.391 . S
C117 N116 1.388 . S
Co118 O120 2.164 . S
Co118 O126 2.073 1_565 S
Co118 O129 2.093 . S
Co118 O142 2.102 . S
Co118 N159 2.144 1_565 S
Co118 N167 2.192 1_565 S
Co119 O120 2.160 . S
Co119 O125 2.058 . S
Co119 O135 2.057 . S
Co119 O150 2.037 . S
Co119 N154 2.145 . S
Co119 N175 2.257 . S
O120 Co118 2.164 . S
O120 Co119 2.160 . S
C121 O122 1.278 . S
C121 O129 1.224 . S
O122 C121 1.278 . S
C123 O124 1.245 . S
C123 O135 1.232 . S
O124 C123 1.245 . S
O125 Co119 2.058 . S
O125 C151 1.269 . S
O126 Co118 2.073 1_545 S
O126 C151 1.251 1_545 S
H127 C152 0.930 . S
H128 C158 0.930 1_565 S
O129 Co118 2.093 . S
O129 C121 1.224 . S
H130 C162 0.929 . S
H131 C164 0.930 . S
H132 C165 0.930 . S
H133 C163 0.929 . S
H134 C166 0.928 . S
O135 Co119 2.057 . S
O135 C123 1.232 . S
H136 C155 0.929 . S
H137 C156 0.929 . S
H138 C168 0.931 . S
H139 C160 0.929 . S
H140 C169 0.930 . S
H141 C161 0.931 . S
O142 Co118 2.102 . S
O142 C170 1.214 . S
H143 C171 0.929 . S
H144 C172 0.929 . S
H145 C173 0.930 . S
H146 C174 0.929 . S
H147 C176 0.930 . S
H148 C153 0.930 . S
H149 C157 0.930 . S
O150 Co119 2.037 . S
O150 C170 1.234 . S
C151 O125 1.269 . S
C151 O126 1.251 1_565 S
C152 H127 0.930 . S
C152 C155 1.388 . S
C152 C157 1.418 . S
C153 H148 0.930 . S
C153 C156 1.404 . S
C153 C157 1.353 . S
N154 Co119 2.145 . S
N154 C155 1.397 . S
N154 C156 1.334 . S
C155 H136 0.929 . S
C155 C152 1.388 . S
C155 N154 1.397 . S
C156 H137 0.929 . S
C156 C153 1.404 . S
C156 N154 1.334 . S
C157 H149 0.930 . S
C157 C152 1.418 . S
C157 C153 1.353 . S
C158 H128 0.930 1_545 S
C158 N159 1.330 . S
C158 C160 1.446 . S
N159 Co118 2.144 1_545 S
N159 C158 1.330 . S
N159 C163 1.418 . S
C160 H139 0.929 . S
C160 C158 1.446 . S
C160 C161 1.332 . S
C161 H141 0.931 . S
C161 C160 1.332 . S
C161 C162 1.267 . S
C162 H130 0.929 . S
C162 C161 1.267 . S
C162 C163 1.251 . S
C163 H133 0.929 . S
C163 N159 1.418 . S
C163 C162 1.251 . S
C164 H131 0.930 . S
C164 C166 1.406 . S
C164 C169 1.261 . S
C165 H132 0.930 . S
C165 N167 1.325 . S
C165 C168 1.357 . S
C166 H134 0.928 . S
C166 C164 1.406 . S
C166 N167 1.261 . S
N167 Co118 2.192 1_545 S
N167 C165 1.325 . S
N167 C166 1.261 . S
C168 H138 0.931 . S
C168 C165 1.357 . S
C168 C169 1.312 . S
C169 H140 0.930 . S
C169 C164 1.261 . S
C169 C168 1.312 . S
C170 O142 1.214 . S
C170 O150 1.234 . S
C171 H143 0.929 . S
C171 C174 1.391 . S
C171 C176 1.391 . S
C172 H144 0.929 . S
C172 C173 1.390 . S
C172 N175 1.391 . S
C173 H145 0.930 . S
C173 C172 1.390 . S
C173 C174 1.392 . S
C174 H146 0.929 . S
C174 C171 1.391 . S
C174 C173 1.392 . S
N175 Co119 2.257 . S
N175 C172 1.391 . S
N175 C176 1.388 . S
C176 H147 0.930 . S
C176 C171 1.391 . S
C176 N175 1.388 . S
Co177 O179 2.164 . S
Co177 O185 2.073 1_545 S
Co177 O188 2.093 . S
Co177 O201 2.102 . S
Co177 N218 2.145 1_545 S
Co177 N226 2.193 1_545 S
Co178 O179 2.160 . S
Co178 O184 2.058 . S
Co178 O194 2.057 . S
Co178 O209 2.037 . S
Co178 N213 2.145 . S
Co178 N234 2.257 . S
O179 Co177 2.164 . S
O179 Co178 2.160 . S
C180 O181 1.278 . S
C180 O188 1.224 . S
O181 C180 1.278 . S
C182 O183 1.245 . S
C182 O194 1.232 . S
O183 C182 1.245 . S
O184 Co178 2.058 . S
O184 C210 1.269 . S
O185 Co177 2.073 1_565 S
O185 C210 1.251 1_565 S
H186 C211 0.930 . S
H187 C217 0.930 1_545 S
O188 Co177 2.093 . S
O188 C180 1.224 . S
H189 C221 0.929 . S
H190 C223 0.930 . S
H191 C224 0.930 . S
H192 C222 0.929 . S
H193 C225 0.928 . S
O194 Co178 2.057 . S
O194 C182 1.232 . S
H195 C214 0.929 . S
H196 C215 0.929 . S
H197 C227 0.931 . S
H198 C219 0.929 . S
H199 C228 0.930 . S
H200 C220 0.931 . S
O201 Co177 2.102 . S
O201 C229 1.214 . S
H202 C230 0.929 . S
H203 C231 0.929 . S
H204 C232 0.930 . S
H205 C233 0.929 . S
H206 C235 0.930 . S
H207 C212 0.930 . S
H208 C216 0.930 . S
O209 Co178 2.037 . S
O209 C229 1.234 . S
C210 O184 1.269 . S
C210 O185 1.251 1_545 S
C211 H186 0.930 . S
C211 C214 1.388 . S
C211 C216 1.418 . S
C212 H207 0.930 . S
C212 C215 1.404 . S
C212 C216 1.353 . S
N213 Co178 2.145 . S
N213 C214 1.397 . S
N213 C215 1.334 . S
C214 H195 0.929 . S
C214 C211 1.388 . S
C214 N213 1.397 . S
C215 H196 0.929 . S
C215 C212 1.404 . S
C215 N213 1.334 . S
C216 H208 0.930 . S
C216 C211 1.418 . S
C216 C212 1.353 . S
C217 H187 0.930 1_565 S
C217 N218 1.330 . S
C217 C219 1.446 . S
N218 Co177 2.145 1_565 S
N218 C217 1.330 . S
N218 C222 1.418 . S
C219 H198 0.929 . S
C219 C217 1.446 . S
C219 C220 1.332 . S
C220 H200 0.931 . S
C220 C219 1.332 . S
C220 C221 1.267 . S
C221 H189 0.929 . S
C221 C220 1.267 . S
C221 C222 1.251 . S
C222 H192 0.929 . S
C222 N218 1.418 . S
C222 C221 1.251 . S
C223 H190 0.930 . S
C223 C225 1.406 . S
C223 C228 1.261 . S
C224 H191 0.930 . S
C224 N226 1.325 . S
C224 C227 1.357 . S
C225 H193 0.928 . S
C225 C223 1.406 . S
C225 N226 1.261 . S
N226 Co177 2.193 1_565 S
N226 C224 1.325 . S
N226 C225 1.261 . S
C227 H197 0.931 . S
C227 C224 1.357 . S
C227 C228 1.312 . S
C228 H199 0.930 . S
C228 C223 1.261 . S
C228 C227 1.312 . S
C229 O201 1.214 . S
C229 O209 1.234 . S
C230 H202 0.929 . S
C230 C233 1.391 . S
C230 C235 1.391 . S
C231 H203 0.929 . S
C231 C232 1.390 . S
C231 N234 1.391 . S
C232 H204 0.930 . S
C232 C231 1.390 . S
C232 C233 1.392 . S
C233 H205 0.929 . S
C233 C230 1.391 . S
C233 C232 1.392 . S
N234 Co178 2.257 . S
N234 C231 1.391 . S
N234 C235 1.388 . S
C235 H206 0.930 . S
C235 C230 1.391 . S
C235 N234 1.388 . S
Co236 O238 2.164 . S
Co236 O244 2.073 1_565 S
Co236 O247 2.093 . S
Co236 O260 2.102 . S
Co236 N277 2.144 1_565 S
Co236 N285 2.192 1_565 S
Co237 O238 2.160 . S
Co237 O243 2.058 . S
Co237 O253 2.057 . S
Co237 O268 2.037 . S
Co237 N272 2.145 . S
Co237 N293 2.257 . S
O238 Co236 2.164 . S
O238 Co237 2.160 . S
C239 O240 1.278 . S
C239 O247 1.224 . S
O240 C239 1.278 . S
C241 O242 1.245 . S
C241 O253 1.232 . S
O242 C241 1.245 . S
O243 Co237 2.058 . S
O243 C269 1.269 . S
O244 Co236 2.073 1_545 S
O244 C269 1.251 1_545 S
H245 C270 0.930 . S
H246 C276 0.930 1_565 S
O247 Co236 2.093 . S
O247 C239 1.224 . S
H248 C280 0.929 . S
H249 C282 0.930 . S
H250 C283 0.930 . S
H251 C281 0.929 . S
H252 C284 0.928 . S
O253 Co237 2.057 . S
O253 C241 1.232 . S
H254 C273 0.929 . S
H255 C274 0.929 . S
H256 C286 0.931 . S
H257 C278 0.929 . S
H258 C287 0.930 . S
H259 C279 0.931 . S
O260 Co236 2.102 . S
O260 C288 1.214 . S
H261 C289 0.929 . S
H262 C290 0.929 . S
H263 C291 0.930 . S
H264 C292 0.929 . S
H265 C294 0.930 . S
H266 C271 0.930 . S
H267 C275 0.930 . S
O268 Co237 2.037 . S
O268 C288 1.234 . S
C269 O243 1.269 . S
C269 O244 1.251 1_565 S
C270 H245 0.930 . S
C270 C273 1.388 . S
C270 C275 1.418 . S
C271 H266 0.930 . S
C271 C274 1.404 . S
C271 C275 1.353 . S
N272 Co237 2.145 . S
N272 C273 1.397 . S
N272 C274 1.334 . S
C273 H254 0.929 . S
C273 C270 1.388 . S
C273 N272 1.397 . S
C274 H255 0.929 . S
C274 C271 1.404 . S
C274 N272 1.334 . S
C275 H267 0.930 . S
C275 C270 1.418 . S
C275 C271 1.353 . S
C276 H246 0.930 1_545 S
C276 N277 1.330 . S
C276 C278 1.446 . S
N277 Co236 2.144 1_545 S
N277 C276 1.330 . S
N277 C281 1.418 . S
C278 H257 0.929 . S
C278 C276 1.446 . S
C278 C279 1.332 . S
C279 H259 0.931 . S
C279 C278 1.332 . S
C279 C280 1.267 . S
C280 H248 0.929 . S
C280 C279 1.267 . S
C280 C281 1.251 . S
C281 H251 0.929 . S
C281 N277 1.418 . S
C281 C280 1.251 . S
C282 H249 0.930 . S
C282 C284 1.406 . S
C282 C287 1.261 . S
C283 H250 0.930 . S
C283 N285 1.325 . S
C283 C286 1.357 . S
C284 H252 0.928 . S
C284 C282 1.406 . S
C284 N285 1.261 . S
N285 Co236 2.192 1_545 S
N285 C283 1.325 . S
N285 C284 1.261 . S
C286 H256 0.931 . S
C286 C283 1.357 . S
C286 C287 1.312 . S
C287 H258 0.930 . S
C287 C282 1.261 . S
C287 C286 1.312 . S
C288 O260 1.214 . S
C288 O268 1.234 . S
C289 H261 0.929 . S
C289 C292 1.391 . S
C289 C294 1.391 . S
C290 H262 0.929 . S
C290 C291 1.390 . S
C290 N293 1.391 . S
C291 H263 0.930 . S
C291 C290 1.390 . S
C291 C292 1.392 . S
C292 H264 0.929 . S
C292 C289 1.391 . S
C292 C291 1.392 . S
N293 Co237 2.257 . S
N293 C290 1.391 . S
N293 C294 1.388 . S
C294 H265 0.930 . S
C294 C289 1.391 . S
C294 N293 1.388 . S
Co295 O297 2.164 . S
Co295 O303 2.073 1_545 S
Co295 O306 2.093 . S
Co295 O319 2.102 . S
Co295 N336 2.144 1_545 S
Co295 N344 2.193 1_545 S
Co296 O297 2.160 . S
Co296 O302 2.058 . S
Co296 O312 2.057 . S
Co296 O327 2.037 . S
Co296 N331 2.145 . S
Co296 N352 2.257 . S
O297 Co295 2.164 . S
O297 Co296 2.160 . S
C298 O299 1.278 . S
C298 O306 1.224 . S
O299 C298 1.278 . S
C300 O301 1.245 . S
C300 O312 1.232 . S
O301 C300 1.245 . S
O302 Co296 2.058 . S
O302 C328 1.269 . S
O303 Co295 2.073 1_565 S
O303 C328 1.251 1_565 S
H304 C329 0.930 . S
H305 C335 0.930 1_545 S
O306 Co295 2.093 . S
O306 C298 1.224 . S
H307 C339 0.929 . S
H308 C341 0.930 . S
H309 C342 0.930 . S
H310 C340 0.929 . S
H311 C343 0.928 . S
O312 Co296 2.057 . S
O312 C300 1.232 . S
H313 C332 0.929 . S
H314 C333 0.929 . S
H315 C345 0.931 . S
H316 C337 0.929 . S
H317 C346 0.930 . S
H318 C338 0.931 . S
O319 Co295 2.102 . S
O319 C347 1.214 . S
H320 C348 0.929 . S
H321 C349 0.929 . S
H322 C350 0.930 . S
H323 C351 0.929 . S
H324 C353 0.930 . S
H325 C330 0.930 . S
H326 C334 0.930 . S
O327 Co296 2.037 . S
O327 C347 1.234 . S
C328 O302 1.269 . S
C328 O303 1.251 1_545 S
C329 H304 0.930 . S
C329 C332 1.388 . S
C329 C334 1.418 . S
C330 H325 0.930 . S
C330 C333 1.404 . S
C330 C334 1.353 . S
N331 Co296 2.145 . S
N331 C332 1.397 . S
N331 C333 1.334 . S
C332 H313 0.929 . S
C332 C329 1.388 . S
C332 N331 1.397 . S
C333 H314 0.929 . S
C333 C330 1.404 . S
C333 N331 1.334 . S
C334 H326 0.930 . S
C334 C329 1.418 . S
C334 C330 1.353 . S
C335 H305 0.930 1_565 S
C335 N336 1.330 . S
C335 C337 1.446 . S
N336 Co295 2.144 1_565 S
N336 C335 1.330 . S
N336 C340 1.418 . S
C337 H316 0.929 . S
C337 C335 1.446 . S
C337 C338 1.332 . S
C338 H318 0.931 . S
C338 C337 1.332 . S
C338 C339 1.267 . S
C339 H307 0.929 . S
C339 C338 1.267 . S
C339 C340 1.251 . S
C340 H310 0.929 . S
C340 N336 1.418 . S
C340 C339 1.251 . S
C341 H308 0.930 . S
C341 C343 1.406 . S
C341 C346 1.261 . S
C342 H309 0.930 . S
C342 N344 1.325 . S
C342 C345 1.357 . S
C343 H311 0.928 . S
C343 C341 1.406 . S
C343 N344 1.261 . S
N344 Co295 2.193 1_565 S
N344 C342 1.325 . S
N344 C343 1.261 . S
C345 H315 0.931 . S
C345 C342 1.357 . S
C345 C346 1.312 . S
C346 H317 0.930 . S
C346 C341 1.261 . S
C346 C345 1.312 . S
C347 O319 1.214 . S
C347 O327 1.234 . S
C348 H320 0.929 . S
C348 C351 1.391 . S
C348 C353 1.391 . S
C349 H321 0.929 . S
C349 C350 1.390 . S
C349 N352 1.391 . S
C350 H322 0.930 . S
C350 C349 1.390 . S
C350 C351 1.392 . S
C351 H323 0.929 . S
C351 C348 1.391 . S
C351 C350 1.392 . S
N352 Co296 2.257 . S
N352 C349 1.391 . S
N352 C353 1.388 . S
C353 H324 0.930 . S
C353 C348 1.391 . S
C353 N352 1.388 . S
Co354 O356 2.164 . S
Co354 O362 2.073 1_545 S
Co354 O365 2.093 . S
Co354 O378 2.102 . S
Co354 N395 2.144 1_545 S
Co354 N403 2.192 1_545 S
Co355 O356 2.160 . S
Co355 O361 2.058 . S
Co355 O371 2.057 . S
Co355 O386 2.037 . S
Co355 N390 2.145 . S
Co355 N411 2.257 . S
O356 Co354 2.164 . S
O356 Co355 2.160 . S
C357 O358 1.278 . S
C357 O365 1.224 . S
O358 C357 1.278 . S
C359 O360 1.245 . S
C359 O371 1.232 . S
O360 C359 1.245 . S
O361 Co355 2.058 . S
O361 C387 1.269 . S
O362 Co354 2.073 1_565 S
O362 C387 1.251 1_565 S
H363 C388 0.930 . S
H364 C394 0.930 1_545 S
O365 Co354 2.093 . S
O365 C357 1.224 . S
H366 C398 0.929 . S
H367 C400 0.930 . S
H368 C401 0.930 . S
H369 C399 0.929 . S
H370 C402 0.928 . S
O371 Co355 2.057 . S
O371 C359 1.232 . S
H372 C391 0.929 . S
H373 C392 0.929 . S
H374 C404 0.931 . S
H375 C396 0.929 . S
H376 C405 0.930 . S
H377 C397 0.931 . S
O378 Co354 2.102 . S
O378 C406 1.214 . S
H379 C407 0.929 . S
H380 C408 0.929 . S
H381 C409 0.930 . S
H382 C410 0.929 . S
H383 C412 0.930 . S
H384 C389 0.930 . S
H385 C393 0.930 . S
O386 Co355 2.037 . S
O386 C406 1.234 . S
C387 O361 1.269 . S
C387 O362 1.251 1_545 S
C388 H363 0.930 . S
C388 C391 1.388 . S
C388 C393 1.418 . S
C389 H384 0.930 . S
C389 C392 1.404 . S
C389 C393 1.353 . S
N390 Co355 2.145 . S
N390 C391 1.397 . S
N390 C392 1.334 . S
C391 H372 0.929 . S
C391 C388 1.388 . S
C391 N390 1.397 . S
C392 H373 0.929 . S
C392 C389 1.404 . S
C392 N390 1.334 . S
C393 H385 0.930 . S
C393 C388 1.418 . S
C393 C389 1.353 . S
C394 H364 0.930 1_565 S
C394 N395 1.330 . S
C394 C396 1.446 . S
N395 Co354 2.144 1_565 S
N395 C394 1.330 . S
N395 C399 1.418 . S
C396 H375 0.929 . S
C396 C394 1.446 . S
C396 C397 1.332 . S
C397 H377 0.931 . S
C397 C396 1.332 . S
C397 C398 1.267 . S
C398 H366 0.929 . S
C398 C397 1.267 . S
C398 C399 1.251 . S
C399 H369 0.929 . S
C399 N395 1.418 . S
C399 C398 1.251 . S
C400 H367 0.930 . S
C400 C402 1.406 . S
C400 C405 1.261 . S
C401 H368 0.930 . S
C401 N403 1.325 . S
C401 C404 1.357 . S
C402 H370 0.928 . S
C402 C400 1.406 . S
C402 N403 1.261 . S
N403 Co354 2.192 1_565 S
N403 C401 1.325 . S
N403 C402 1.261 . S
C404 H374 0.931 . S
C404 C401 1.357 . S
C404 C405 1.312 . S
C405 H376 0.930 . S
C405 C400 1.261 . S
C405 C404 1.312 . S
C406 O378 1.214 . S
C406 O386 1.234 . S
C407 H379 0.929 . S
C407 C410 1.391 . S
C407 C412 1.391 . S
C408 H380 0.929 . S
C408 C409 1.390 . S
C408 N411 1.391 . S
C409 H381 0.930 . S
C409 C408 1.390 . S
C409 C410 1.392 . S
C410 H382 0.929 . S
C410 C407 1.391 . S
C410 C409 1.392 . S
N411 Co355 2.257 . S
N411 C408 1.391 . S
N411 C412 1.388 . S
C412 H383 0.930 . S
C412 C407 1.391 . S
C412 N411 1.388 . S
Co413 O415 2.164 . S
Co413 O421 2.073 1_565 S
Co413 O424 2.093 . S
Co413 O437 2.102 . S
Co413 N454 2.144 1_565 S
Co413 N462 2.193 1_565 S
Co414 O415 2.160 . S
Co414 O420 2.058 . S
Co414 O430 2.057 . S
Co414 O445 2.037 . S
Co414 N449 2.145 . S
Co414 N470 2.257 . S
O415 Co413 2.164 . S
O415 Co414 2.160 . S
C416 O417 1.278 . S
C416 O424 1.224 . S
O417 C416 1.278 . S
C418 O419 1.245 . S
C418 O430 1.232 . S
O419 C418 1.245 . S
O420 Co414 2.058 . S
O420 C446 1.269 . S
O421 Co413 2.073 1_545 S
O421 C446 1.251 1_545 S
H422 C447 0.930 . S
H423 C453 0.930 1_565 S
O424 Co413 2.093 . S
O424 C416 1.224 . S
H425 C457 0.929 . S
H426 C459 0.930 . S
H427 C460 0.930 . S
H428 C458 0.929 . S
H429 C461 0.928 . S
O430 Co414 2.057 . S
O430 C418 1.232 . S
H431 C450 0.929 . S
H432 C451 0.929 . S
H433 C463 0.931 . S
H434 C455 0.929 . S
H435 C464 0.930 . S
H436 C456 0.931 . S
O437 Co413 2.102 . S
O437 C465 1.214 . S
H438 C466 0.929 . S
H439 C467 0.929 . S
H440 C468 0.930 . S
H441 C469 0.929 . S
H442 C471 0.930 . S
H443 C448 0.930 . S
H444 C452 0.930 . S
O445 Co414 2.037 . S
O445 C465 1.234 . S
C446 O420 1.269 . S
C446 O421 1.251 1_565 S
C447 H422 0.930 . S
C447 C450 1.388 . S
C447 C452 1.418 . S
C448 H443 0.930 . S
C448 C451 1.404 . S
C448 C452 1.353 . S
N449 Co414 2.145 . S
N449 C450 1.397 . S
N449 C451 1.334 . S
C450 H431 0.929 . S
C450 C447 1.388 . S
C450 N449 1.397 . S
C451 H432 0.929 . S
C451 C448 1.404 . S
C451 N449 1.334 . S
C452 H444 0.930 . S
C452 C447 1.418 . S
C452 C448 1.353 . S
C453 H423 0.930 1_545 S
C453 N454 1.330 . S
C453 C455 1.446 . S
N454 Co413 2.144 1_545 S
N454 C453 1.330 . S
N454 C458 1.418 . S
C455 H434 0.929 . S
C455 C453 1.446 . S
C455 C456 1.332 . S
C456 H436 0.931 . S
C456 C455 1.332 . S
C456 C457 1.267 . S
C457 H425 0.929 . S
C457 C456 1.267 . S
C457 C458 1.251 . S
C458 H428 0.929 . S
C458 N454 1.418 . S
C458 C457 1.251 . S
C459 H426 0.930 . S
C459 C461 1.406 . S
C459 C464 1.261 . S
C460 H427 0.930 . S
C460 N462 1.325 . S
C460 C463 1.357 . S
C461 H429 0.928 . S
C461 C459 1.406 . S
C461 N462 1.261 . S
N462 Co413 2.193 1_545 S
N462 C460 1.325 . S
N462 C461 1.261 . S
C463 H433 0.931 . S
C463 C460 1.357 . S
C463 C464 1.312 . S
C464 H435 0.930 . S
C464 C459 1.261 . S
C464 C463 1.312 . S
C465 O437 1.214 . S
C465 O445 1.234 . S
C466 H438 0.929 . S
C466 C469 1.391 . S
C466 C471 1.391 . S
C467 H439 0.929 . S
C467 C468 1.390 . S
C467 N470 1.391 . S
C468 H440 0.930 . S
C468 C467 1.390 . S
C468 C469 1.392 . S
C469 H441 0.929 . S
C469 C466 1.391 . S
C469 C468 1.392 . S
N470 Co414 2.257 . S
N470 C467 1.391 . S
N470 C471 1.388 . S
C471 H442 0.930 . S
C471 C466 1.391 . S
C471 N470 1.388 . S
Co472 O474 2.143 . S
Co472 O480 2.074 . S
Co472 O483 2.093 . S
Co472 O496 2.097 . S
Co472 N513 2.151 . S
Co472 N521 2.214 . S
Co473 O474 2.160 . S
Co473 O479 2.058 . S
Co473 O489 2.057 . S
Co473 O504 2.037 . S
Co473 N508 2.145 . S
Co473 N529 2.257 . S
O474 Co472 2.143 . S
O474 Co473 2.160 . S
C475 O476 1.278 . S
C475 O483 1.224 . S
O476 C475 1.278 . S
C477 O478 1.245 . S
C477 O489 1.232 . S
O478 C477 1.245 . S
O479 Co473 2.058 . S
O479 C505 1.269 . S
O480 Co472 2.074 . S
O480 C505 1.257 . S
H481 C506 0.930 . S
H482 C512 0.930 . S
O483 Co472 2.093 . S
O483 C475 1.224 . S
H484 C516 0.929 . S
H485 C518 0.930 . S
H486 C519 0.930 . S
H487 C517 0.929 . S
H488 C520 0.928 . S
O489 Co473 2.057 . S
O489 C477 1.232 . S
H490 C509 0.929 . S
H491 C510 0.929 . S
H492 C522 0.931 . S
H493 C514 0.929 . S
H494 C523 0.930 . S
H495 C515 0.931 . S
O496 Co472 2.097 . S
O496 C524 1.214 . S
H497 C525 0.929 . S
H498 C526 0.929 . S
H499 C527 0.930 . S
H500 C528 0.929 . S
H501 C530 0.930 . S
H502 C507 0.930 . S
H503 C511 0.930 . S
O504 Co473 2.037 . S
O504 C524 1.234 . S
C505 O479 1.269 . S
C505 O480 1.257 . S
C506 H481 0.930 . S
C506 C509 1.388 . S
C506 C511 1.418 . S
C507 H502 0.930 . S
C507 C510 1.404 . S
C507 C511 1.353 . S
N508 Co473 2.145 . S
N508 C509 1.397 . S
N508 C510 1.334 . S
C509 H490 0.929 . S
C509 C506 1.388 . S
C509 N508 1.397 . S
C510 H491 0.929 . S
C510 C507 1.404 . S
C510 N508 1.334 . S
C511 H503 0.930 . S
C511 C506 1.418 . S
C511 C507 1.353 . S
C512 H482 0.930 . S
C512 N513 1.330 . S
C512 C514 1.446 . S
N513 Co472 2.151 . S
N513 C512 1.330 . S
N513 C517 1.418 . S
C514 H493 0.929 . S
C514 C512 1.446 . S
C514 C515 1.332 . S
C515 H495 0.931 . S
C515 C514 1.332 . S
C515 C516 1.267 . S
C516 H484 0.929 . S
C516 C515 1.267 . S
C516 C517 1.251 . S
C517 H487 0.929 . S
C517 N513 1.418 . S
C517 C516 1.251 . S
C518 H485 0.930 . S
C518 C520 1.406 . S
C518 C523 1.261 . S
C519 H486 0.930 . S
C519 N521 1.325 . S
C519 C522 1.357 . S
C520 H488 0.928 . S
C520 C518 1.406 . S
C520 N521 1.261 . S
N521 Co472 2.214 . S
N521 C519 1.325 . S
N521 C520 1.261 . S
C522 H492 0.931 . S
C522 C519 1.357 . S
C522 C523 1.312 . S
C523 H494 0.930 . S
C523 C518 1.261 . S
C523 C522 1.312 . S
C524 O496 1.214 . S
C524 O504 1.234 . S
C525 H497 0.929 . S
C525 C528 1.391 . S
C525 C530 1.391 . S
C526 H498 0.929 . S
C526 C527 1.390 . S
C526 N529 1.391 . S
C527 H499 0.930 . S
C527 C526 1.390 . S
C527 C528 1.392 . S
C528 H500 0.929 . S
C528 C525 1.391 . S
C528 C527 1.392 . S
N529 Co473 2.257 . S
N529 C526 1.391 . S
N529 C530 1.388 . S
C530 H501 0.930 . S
C530 C525 1.391 . S
C530 N529 1.388 . S
Co531 O533 2.143 . S
Co531 O539 2.074 . S
Co531 O542 2.093 . S
Co531 O555 2.097 . S
Co531 N572 2.151 . S
Co531 N580 2.214 . S
Co532 O533 2.160 . S
Co532 O538 2.058 . S
Co532 O548 2.057 . S
Co532 O563 2.037 . S
Co532 N567 2.145 . S
Co532 N588 2.257 . S
O533 Co531 2.143 . S
O533 Co532 2.160 . S
C534 O535 1.278 . S
C534 O542 1.224 . S
O535 C534 1.278 . S
C536 O537 1.245 . S
C536 O548 1.232 . S
O537 C536 1.245 . S
O538 Co532 2.058 . S
O538 C564 1.269 . S
O539 Co531 2.074 . S
O539 C564 1.257 . S
H540 C565 0.930 . S
H541 C571 0.930 . S
O542 Co531 2.093 . S
O542 C534 1.224 . S
H543 C575 0.929 . S
H544 C577 0.930 . S
H545 C578 0.930 . S
H546 C576 0.929 . S
H547 C579 0.928 . S
O548 Co532 2.057 . S
O548 C536 1.232 . S
H549 C568 0.929 . S
H550 C569 0.929 . S
H551 C581 0.931 . S
H552 C573 0.929 . S
H553 C582 0.930 . S
H554 C574 0.931 . S
O555 Co531 2.097 . S
O555 C583 1.214 . S
H556 C584 0.929 . S
H557 C585 0.929 . S
H558 C586 0.930 . S
H559 C587 0.929 . S
H560 C589 0.930 . S
H561 C566 0.930 . S
H562 C570 0.930 . S
O563 Co532 2.037 . S
O563 C583 1.234 . S
C564 O538 1.269 . S
C564 O539 1.257 . S
C565 H540 0.930 . S
C565 C568 1.388 . S
C565 C570 1.418 . S
C566 H561 0.930 . S
C566 C569 1.404 . S
C566 C570 1.353 . S
N567 Co532 2.145 . S
N567 C568 1.397 . S
N567 C569 1.334 . S
C568 H549 0.929 . S
C568 C565 1.388 . S
C568 N567 1.397 . S
C569 H550 0.929 . S
C569 C566 1.404 . S
C569 N567 1.334 . S
C570 H562 0.930 . S
C570 C565 1.418 . S
C570 C566 1.353 . S
C571 H541 0.930 . S
C571 N572 1.330 . S
C571 C573 1.446 . S
N572 Co531 2.151 . S
N572 C571 1.330 . S
N572 C576 1.418 . S
C573 H552 0.929 . S
C573 C571 1.446 . S
C573 C574 1.332 . S
C574 H554 0.931 . S
C574 C573 1.332 . S
C574 C575 1.267 . S
C575 H543 0.929 . S
C575 C574 1.267 . S
C575 C576 1.251 . S
C576 H546 0.929 . S
C576 N572 1.418 . S
C576 C575 1.251 . S
C577 H544 0.930 . S
C577 C579 1.406 . S
C577 C582 1.261 . S
C578 H545 0.930 . S
C578 N580 1.325 . S
C578 C581 1.357 . S
C579 H547 0.928 . S
C579 C577 1.406 . S
C579 N580 1.261 . S
N580 Co531 2.214 . S
N580 C578 1.325 . S
N580 C579 1.261 . S
C581 H551 0.931 . S
C581 C578 1.357 . S
C581 C582 1.312 . S
C582 H553 0.930 . S
C582 C577 1.261 . S
C582 C581 1.312 . S
C583 O555 1.214 . S
C583 O563 1.234 . S
C584 H556 0.929 . S
C584 C587 1.391 . S
C584 C589 1.391 . S
C585 H557 0.929 . S
C585 C586 1.390 . S
C585 N588 1.391 . S
C586 H558 0.930 . S
C586 C585 1.390 . S
C586 C587 1.392 . S
C587 H559 0.929 . S
C587 C584 1.391 . S
C587 C586 1.392 . S
N588 Co532 2.257 . S
N588 C585 1.391 . S
N588 C589 1.388 . S
C589 H560 0.930 . S
C589 C584 1.391 . S
C589 N588 1.388 . S
Co590 O592 2.143 . S
Co590 O598 2.074 . S
Co590 O601 2.093 . S
Co590 O614 2.097 . S
Co590 N631 2.151 . S
Co590 N639 2.214 . S
Co591 O592 2.160 . S
Co591 O597 2.058 . S
Co591 O607 2.057 . S
Co591 O622 2.037 . S
Co591 N626 2.145 . S
Co591 N647 2.257 . S
O592 Co590 2.143 . S
O592 Co591 2.160 . S
C593 O594 1.278 . S
C593 O601 1.224 . S
O594 C593 1.278 . S
C595 O596 1.245 . S
C595 O607 1.232 . S
O596 C595 1.245 . S
O597 Co591 2.058 . S
O597 C623 1.269 . S
O598 Co590 2.074 . S
O598 C623 1.257 . S
H599 C624 0.930 . S
H600 C630 0.930 . S
O601 Co590 2.093 . S
O601 C593 1.224 . S
H602 C634 0.929 . S
H603 C636 0.930 . S
H604 C637 0.930 . S
H605 C635 0.929 . S
H606 C638 0.928 . S
O607 Co591 2.057 . S
O607 C595 1.232 . S
H608 C627 0.929 . S
H609 C628 0.929 . S
H610 C640 0.931 . S
H611 C632 0.929 . S
H612 C641 0.930 . S
H613 C633 0.931 . S
O614 Co590 2.097 . S
O614 C642 1.214 . S
H615 C643 0.929 . S
H616 C644 0.929 . S
H617 C645 0.930 . S
H618 C646 0.929 . S
H619 C648 0.930 . S
H620 C625 0.930 . S
H621 C629 0.930 . S
O622 Co591 2.037 . S
O622 C642 1.234 . S
C623 O597 1.269 . S
C623 O598 1.257 . S
C624 H599 0.930 . S
C624 C627 1.388 . S
C624 C629 1.418 . S
C625 H620 0.930 . S
C625 C628 1.404 . S
C625 C629 1.353 . S
N626 Co591 2.145 . S
N626 C627 1.397 . S
N626 C628 1.334 . S
C627 H608 0.929 . S
C627 C624 1.388 . S
C627 N626 1.397 . S
C628 H609 0.929 . S
C628 C625 1.404 . S
C628 N626 1.334 . S
C629 H621 0.930 . S
C629 C624 1.418 . S
C629 C625 1.353 . S
C630 H600 0.930 . S
C630 N631 1.330 . S
C630 C632 1.446 . S
N631 Co590 2.151 . S
N631 C630 1.330 . S
N631 C635 1.418 . S
C632 H611 0.929 . S
C632 C630 1.446 . S
C632 C633 1.332 . S
C633 H613 0.931 . S
C633 C632 1.332 . S
C633 C634 1.267 . S
C634 H602 0.929 . S
C634 C633 1.267 . S
C634 C635 1.251 . S
C635 H605 0.929 . S
C635 N631 1.418 . S
C635 C634 1.251 . S
C636 H603 0.930 . S
C636 C638 1.406 . S
C636 C641 1.261 . S
C637 H604 0.930 . S
C637 N639 1.325 . S
C637 C640 1.357 . S
C638 H606 0.928 . S
C638 C636 1.406 . S
C638 N639 1.261 . S
N639 Co590 2.214 . S
N639 C637 1.325 . S
N639 C638 1.261 . S
C640 H610 0.931 . S
C640 C637 1.357 . S
C640 C641 1.312 . S
C641 H612 0.930 . S
C641 C636 1.261 . S
C641 C640 1.312 . S
C642 O614 1.214 . S
C642 O622 1.234 . S
C643 H615 0.929 . S
C643 C646 1.391 . S
C643 C648 1.391 . S
C644 H616 0.929 . S
C644 C645 1.390 . S
C644 N647 1.391 . S
C645 H617 0.930 . S
C645 C644 1.390 . S
C645 C646 1.392 . S
C646 H618 0.929 . S
C646 C643 1.391 . S
C646 C645 1.392 . S
N647 Co591 2.257 . S
N647 C644 1.391 . S
N647 C648 1.388 . S
C648 H619 0.930 . S
C648 C643 1.391 . S
C648 N647 1.388 . S
Co649 O651 2.143 . S
Co649 O657 2.074 . S
Co649 O660 2.093 . S
Co649 O673 2.097 . S
Co649 N690 2.151 . S
Co649 N698 2.214 . S
Co650 O651 2.160 . S
Co650 O656 2.058 . S
Co650 O666 2.057 . S
Co650 O681 2.037 . S
Co650 N685 2.145 . S
Co650 N706 2.257 . S
O651 Co649 2.143 . S
O651 Co650 2.160 . S
C652 O653 1.278 . S
C652 O660 1.224 . S
O653 C652 1.278 . S
C654 O655 1.245 . S
C654 O666 1.232 . S
O655 C654 1.245 . S
O656 Co650 2.058 . S
O656 C682 1.269 . S
O657 Co649 2.074 . S
O657 C682 1.257 . S
H658 C683 0.930 . S
H659 C689 0.930 . S
O660 Co649 2.093 . S
O660 C652 1.224 . S
H661 C693 0.929 . S
H662 C695 0.930 . S
H663 C696 0.930 . S
H664 C694 0.929 . S
H665 C697 0.928 . S
O666 Co650 2.057 . S
O666 C654 1.232 . S
H667 C686 0.929 . S
H668 C687 0.929 . S
H669 C699 0.931 . S
H670 C691 0.929 . S
H671 C700 0.930 . S
H672 C692 0.931 . S
O673 Co649 2.097 . S
O673 C701 1.214 . S
H674 C702 0.929 . S
H675 C703 0.929 . S
H676 C704 0.930 . S
H677 C705 0.929 . S
H678 C707 0.930 . S
H679 C684 0.930 . S
H680 C688 0.930 . S
O681 Co650 2.037 . S
O681 C701 1.234 . S
C682 O656 1.269 . S
C682 O657 1.257 . S
C683 H658 0.930 . S
C683 C686 1.388 . S
C683 C688 1.418 . S
C684 H679 0.930 . S
C684 C687 1.404 . S
C684 C688 1.353 . S
N685 Co650 2.145 . S
N685 C686 1.397 . S
N685 C687 1.334 . S
C686 H667 0.929 . S
C686 C683 1.388 . S
C686 N685 1.397 . S
C687 H668 0.929 . S
C687 C684 1.404 . S
C687 N685 1.334 . S
C688 H680 0.930 . S
C688 C683 1.418 . S
C688 C684 1.353 . S
C689 H659 0.930 . S
C689 N690 1.330 . S
C689 C691 1.446 . S
N690 Co649 2.151 . S
N690 C689 1.330 . S
N690 C694 1.418 . S
C691 H670 0.929 . S
C691 C689 1.446 . S
C691 C692 1.332 . S
C692 H672 0.931 . S
C692 C691 1.332 . S
C692 C693 1.267 . S
C693 H661 0.929 . S
C693 C692 1.267 . S
C693 C694 1.251 . S
C694 H664 0.929 . S
C694 N690 1.418 . S
C694 C693 1.251 . S
C695 H662 0.930 . S
C695 C697 1.406 . S
C695 C700 1.261 . S
C696 H663 0.930 . S
C696 N698 1.325 . S
C696 C699 1.357 . S
C697 H665 0.928 . S
C697 C695 1.406 . S
C697 N698 1.261 . S
N698 Co649 2.214 . S
N698 C696 1.325 . S
N698 C697 1.261 . S
C699 H669 0.931 . S
C699 C696 1.357 . S
C699 C700 1.312 . S
C700 H671 0.930 . S
C700 C695 1.261 . S
C700 C699 1.312 . S
C701 O673 1.214 . S
C701 O681 1.234 . S
C702 H674 0.929 . S
C702 C705 1.391 . S
C702 C707 1.391 . S
C703 H675 0.929 . S
C703 C704 1.390 . S
C703 N706 1.391 . S
C704 H676 0.930 . S
C704 C703 1.390 . S
C704 C705 1.392 . S
C705 H677 0.929 . S
C705 C702 1.391 . S
C705 C704 1.392 . S
N706 Co650 2.257 . S
N706 C703 1.391 . S
N706 C707 1.388 . S
C707 H678 0.930 . S
C707 C702 1.391 . S
C707 N706 1.388 . S
Co708 O710 2.143 . S
Co708 O716 2.074 . S
Co708 O719 2.093 . S
Co708 O732 2.097 . S
Co708 N749 2.151 . S
Co708 N757 2.214 . S
Co709 O710 2.160 . S
Co709 O715 2.058 . S
Co709 O725 2.057 . S
Co709 O740 2.037 . S
Co709 N744 2.145 . S
Co709 N765 2.257 . S
O710 Co708 2.143 . S
O710 Co709 2.160 . S
C711 O712 1.278 . S
C711 O719 1.224 . S
O712 C711 1.278 . S
C713 O714 1.245 . S
C713 O725 1.232 . S
O714 C713 1.245 . S
O715 Co709 2.058 . S
O715 C741 1.269 . S
O716 Co708 2.074 . S
O716 C741 1.257 . S
H717 C742 0.930 . S
H718 C748 0.930 . S
O719 Co708 2.093 . S
O719 C711 1.224 . S
H720 C752 0.929 . S
H721 C754 0.930 . S
H722 C755 0.930 . S
H723 C753 0.929 . S
H724 C756 0.928 . S
O725 Co709 2.057 . S
O725 C713 1.232 . S
H726 C745 0.929 . S
H727 C746 0.929 . S
H728 C758 0.931 . S
H729 C750 0.929 . S
H730 C759 0.930 . S
H731 C751 0.931 . S
O732 Co708 2.097 . S
O732 C760 1.214 . S
H733 C761 0.929 . S
H734 C762 0.929 . S
H735 C763 0.930 . S
H736 C764 0.929 . S
H737 C766 0.930 . S
H738 C743 0.930 . S
H739 C747 0.930 . S
O740 Co709 2.037 . S
O740 C760 1.234 . S
C741 O715 1.269 . S
C741 O716 1.257 . S
C742 H717 0.930 . S
C742 C745 1.388 . S
C742 C747 1.418 . S
C743 H738 0.930 . S
C743 C746 1.404 . S
C743 C747 1.353 . S
N744 Co709 2.145 . S
N744 C745 1.397 . S
N744 C746 1.334 . S
C745 H726 0.929 . S
C745 C742 1.388 . S
C745 N744 1.397 . S
C746 H727 0.929 . S
C746 C743 1.404 . S
C746 N744 1.334 . S
C747 H739 0.930 . S
C747 C742 1.418 . S
C747 C743 1.353 . S
C748 H718 0.930 . S
C748 N749 1.330 . S
C748 C750 1.446 . S
N749 Co708 2.151 . S
N749 C748 1.330 . S
N749 C753 1.418 . S
C750 H729 0.929 . S
C750 C748 1.446 . S
C750 C751 1.332 . S
C751 H731 0.931 . S
C751 C750 1.332 . S
C751 C752 1.267 . S
C752 H720 0.929 . S
C752 C751 1.267 . S
C752 C753 1.251 . S
C753 H723 0.929 . S
C753 N749 1.418 . S
C753 C752 1.251 . S
C754 H721 0.930 . S
C754 C756 1.406 . S
C754 C759 1.261 . S
C755 H722 0.930 . S
C755 N757 1.325 . S
C755 C758 1.357 . S
C756 H724 0.928 . S
C756 C754 1.406 . S
C756 N757 1.261 . S
N757 Co708 2.214 . S
N757 C755 1.325 . S
N757 C756 1.261 . S
C758 H728 0.931 . S
C758 C755 1.357 . S
C758 C759 1.312 . S
C759 H730 0.930 . S
C759 C754 1.261 . S
C759 C758 1.312 . S
C760 O732 1.214 . S
C760 O740 1.234 . S
C761 H733 0.929 . S
C761 C764 1.391 . S
C761 C766 1.391 . S
C762 H734 0.929 . S
C762 C763 1.390 . S
C762 N765 1.391 . S
C763 H735 0.930 . S
C763 C762 1.390 . S
C763 C764 1.392 . S
C764 H736 0.929 . S
C764 C761 1.391 . S
C764 C763 1.392 . S
N765 Co709 2.257 . S
N765 C762 1.391 . S
N765 C766 1.388 . S
C766 H737 0.930 . S
C766 C761 1.391 . S
C766 N765 1.388 . S
Co767 O769 2.143 . S
Co767 O775 2.074 . S
Co767 O778 2.093 . S
Co767 O791 2.097 . S
Co767 N808 2.151 . S
Co767 N816 2.214 . S
Co768 O769 2.160 . S
Co768 O774 2.058 . S
Co768 O784 2.057 . S
Co768 O799 2.037 . S
Co768 N803 2.145 . S
Co768 N824 2.257 . S
O769 Co767 2.143 . S
O769 Co768 2.160 . S
C770 O771 1.278 . S
C770 O778 1.224 . S
O771 C770 1.278 . S
C772 O773 1.245 . S
C772 O784 1.232 . S
O773 C772 1.245 . S
O774 Co768 2.058 . S
O774 C800 1.269 . S
O775 Co767 2.074 . S
O775 C800 1.257 . S
H776 C801 0.930 . S
H777 C807 0.930 . S
O778 Co767 2.093 . S
O778 C770 1.224 . S
H779 C811 0.929 . S
H780 C813 0.930 . S
H781 C814 0.930 . S
H782 C812 0.929 . S
H783 C815 0.928 . S
O784 Co768 2.057 . S
O784 C772 1.232 . S
H785 C804 0.929 . S
H786 C805 0.929 . S
H787 C817 0.931 . S
H788 C809 0.929 . S
H789 C818 0.930 . S
H790 C810 0.931 . S
O791 Co767 2.097 . S
O791 C819 1.214 . S
H792 C820 0.929 . S
H793 C821 0.929 . S
H794 C822 0.930 . S
H795 C823 0.929 . S
H796 C825 0.930 . S
H797 C802 0.930 . S
H798 C806 0.930 . S
O799 Co768 2.037 . S
O799 C819 1.234 . S
C800 O774 1.269 . S
C800 O775 1.257 . S
C801 H776 0.930 . S
C801 C804 1.388 . S
C801 C806 1.418 . S
C802 H797 0.930 . S
C802 C805 1.404 . S
C802 C806 1.353 . S
N803 Co768 2.145 . S
N803 C804 1.397 . S
N803 C805 1.334 . S
C804 H785 0.929 . S
C804 C801 1.388 . S
C804 N803 1.397 . S
C805 H786 0.929 . S
C805 C802 1.404 . S
C805 N803 1.334 . S
C806 H798 0.930 . S
C806 C801 1.418 . S
C806 C802 1.353 . S
C807 H777 0.930 . S
C807 N808 1.330 . S
C807 C809 1.446 . S
N808 Co767 2.151 . S
N808 C807 1.330 . S
N808 C812 1.418 . S
C809 H788 0.929 . S
C809 C807 1.446 . S
C809 C810 1.332 . S
C810 H790 0.931 . S
C810 C809 1.332 . S
C810 C811 1.267 . S
C811 H779 0.929 . S
C811 C810 1.267 . S
C811 C812 1.251 . S
C812 H782 0.929 . S
C812 N808 1.418 . S
C812 C811 1.251 . S
C813 H780 0.930 . S
C813 C815 1.406 . S
C813 C818 1.261 . S
C814 H781 0.930 . S
C814 N816 1.325 . S
C814 C817 1.357 . S
C815 H783 0.928 . S
C815 C813 1.406 . S
C815 N816 1.261 . S
N816 Co767 2.214 . S
N816 C814 1.325 . S
N816 C815 1.261 . S
C817 H787 0.931 . S
C817 C814 1.357 . S
C817 C818 1.312 . S
C818 H789 0.930 . S
C818 C813 1.261 . S
C818 C817 1.312 . S
C819 O791 1.214 . S
C819 O799 1.234 . S
C820 H792 0.929 . S
C820 C823 1.391 . S
C820 C825 1.391 . S
C821 H793 0.929 . S
C821 C822 1.390 . S
C821 N824 1.391 . S
C822 H794 0.930 . S
C822 C821 1.390 . S
C822 C823 1.392 . S
C823 H795 0.929 . S
C823 C820 1.391 . S
C823 C822 1.392 . S
N824 Co768 2.257 . S
N824 C821 1.391 . S
N824 C825 1.388 . S
C825 H796 0.930 . S
C825 C820 1.391 . S
C825 N824 1.388 . S
Co826 O828 2.143 . S
Co826 O834 2.074 . S
Co826 O837 2.093 . S
Co826 O850 2.097 . S
Co826 N867 2.151 . S
Co826 N875 2.214 . S
Co827 O828 2.160 . S
Co827 O833 2.058 . S
Co827 O843 2.057 . S
Co827 O858 2.037 . S
Co827 N862 2.145 . S
Co827 N883 2.257 . S
O828 Co826 2.143 . S
O828 Co827 2.160 . S
C829 O830 1.278 . S
C829 O837 1.224 . S
O830 C829 1.278 . S
C831 O832 1.245 . S
C831 O843 1.232 . S
O832 C831 1.245 . S
O833 Co827 2.058 . S
O833 C859 1.269 . S
O834 Co826 2.074 . S
O834 C859 1.257 . S
H835 C860 0.930 . S
H836 C866 0.930 . S
O837 Co826 2.093 . S
O837 C829 1.224 . S
H838 C870 0.929 . S
H839 C872 0.930 . S
H840 C873 0.930 . S
H841 C871 0.929 . S
H842 C874 0.928 . S
O843 Co827 2.057 . S
O843 C831 1.232 . S
H844 C863 0.929 . S
H845 C864 0.929 . S
H846 C876 0.931 . S
H847 C868 0.929 . S
H848 C877 0.930 . S
H849 C869 0.931 . S
O850 Co826 2.097 . S
O850 C878 1.214 . S
H851 C879 0.929 . S
H852 C880 0.929 . S
H853 C881 0.930 . S
H854 C882 0.929 . S
H855 C884 0.930 . S
H856 C861 0.930 . S
H857 C865 0.930 . S
O858 Co827 2.037 . S
O858 C878 1.234 . S
C859 O833 1.269 . S
C859 O834 1.257 . S
C860 H835 0.930 . S
C860 C863 1.388 . S
C860 C865 1.418 . S
C861 H856 0.930 . S
C861 C864 1.404 . S
C861 C865 1.353 . S
N862 Co827 2.145 . S
N862 C863 1.397 . S
N862 C864 1.334 . S
C863 H844 0.929 . S
C863 C860 1.388 . S
C863 N862 1.397 . S
C864 H845 0.929 . S
C864 C861 1.404 . S
C864 N862 1.334 . S
C865 H857 0.930 . S
C865 C860 1.418 . S
C865 C861 1.353 . S
C866 H836 0.930 . S
C866 N867 1.330 . S
C866 C868 1.446 . S
N867 Co826 2.151 . S
N867 C866 1.330 . S
N867 C871 1.418 . S
C868 H847 0.929 . S
C868 C866 1.446 . S
C868 C869 1.332 . S
C869 H849 0.931 . S
C869 C868 1.332 . S
C869 C870 1.267 . S
C870 H838 0.929 . S
C870 C869 1.267 . S
C870 C871 1.251 . S
C871 H841 0.929 . S
C871 N867 1.418 . S
C871 C870 1.251 . S
C872 H839 0.930 . S
C872 C874 1.406 . S
C872 C877 1.261 . S
C873 H840 0.930 . S
C873 N875 1.325 . S
C873 C876 1.357 . S
C874 H842 0.928 . S
C874 C872 1.406 . S
C874 N875 1.261 . S
N875 Co826 2.214 . S
N875 C873 1.325 . S
N875 C874 1.261 . S
C876 H846 0.931 . S
C876 C873 1.357 . S
C876 C877 1.312 . S
C877 H848 0.930 . S
C877 C872 1.261 . S
C877 C876 1.312 . S
C878 O850 1.214 . S
C878 O858 1.234 . S
C879 H851 0.929 . S
C879 C882 1.391 . S
C879 C884 1.391 . S
C880 H852 0.929 . S
C880 C881 1.390 . S
C880 N883 1.391 . S
C881 H853 0.930 . S
C881 C880 1.390 . S
C881 C882 1.392 . S
C882 H854 0.929 . S
C882 C879 1.391 . S
C882 C881 1.392 . S
N883 Co827 2.257 . S
N883 C880 1.391 . S
N883 C884 1.388 . S
C884 H855 0.930 . S
C884 C879 1.391 . S
C884 N883 1.388 . S
Co885 O887 2.143 . S
Co885 O893 2.074 . S
Co885 O896 2.093 . S
Co885 O909 2.097 . S
Co885 N926 2.151 . S
Co885 N934 2.214 . S
Co886 O887 2.160 . S
Co886 O892 2.058 . S
Co886 O902 2.057 . S
Co886 O917 2.037 . S
Co886 N921 2.145 . S
Co886 N942 2.257 . S
O887 Co885 2.143 . S
O887 Co886 2.160 . S
C888 O889 1.278 . S
C888 O896 1.224 . S
O889 C888 1.278 . S
C890 O891 1.245 . S
C890 O902 1.232 . S
O891 C890 1.245 . S
O892 Co886 2.058 . S
O892 C918 1.269 . S
O893 Co885 2.074 . S
O893 C918 1.257 . S
H894 C919 0.930 . S
H895 C925 0.930 . S
O896 Co885 2.093 . S
O896 C888 1.224 . S
H897 C929 0.929 . S
H898 C931 0.930 . S
H899 C932 0.930 . S
H900 C930 0.929 . S
H901 C933 0.928 . S
O902 Co886 2.057 . S
O902 C890 1.232 . S
H903 C922 0.929 . S
H904 C923 0.929 . S
H905 C935 0.931 . S
H906 C927 0.929 . S
H907 C936 0.930 . S
H908 C928 0.931 . S
O909 Co885 2.097 . S
O909 C937 1.214 . S
H910 C938 0.929 . S
H911 C939 0.929 . S
H912 C940 0.930 . S
H913 C941 0.929 . S
H914 C943 0.930 . S
H915 C920 0.930 . S
H916 C924 0.930 . S
O917 Co886 2.037 . S
O917 C937 1.234 . S
C918 O892 1.269 . S
C918 O893 1.257 . S
C919 H894 0.930 . S
C919 C922 1.388 . S
C919 C924 1.418 . S
C920 H915 0.930 . S
C920 C923 1.404 . S
C920 C924 1.353 . S
N921 Co886 2.145 . S
N921 C922 1.397 . S
N921 C923 1.334 . S
C922 H903 0.929 . S
C922 C919 1.388 . S
C922 N921 1.397 . S
C923 H904 0.929 . S
C923 C920 1.404 . S
C923 N921 1.334 . S
C924 H916 0.930 . S
C924 C919 1.418 . S
C924 C920 1.353 . S
C925 H895 0.930 . S
C925 N926 1.330 . S
C925 C927 1.446 . S
N926 Co885 2.151 . S
N926 C925 1.330 . S
N926 C930 1.418 . S
C927 H906 0.929 . S
C927 C925 1.446 . S
C927 C928 1.332 . S
C928 H908 0.931 . S
C928 C927 1.332 . S
C928 C929 1.267 . S
C929 H897 0.929 . S
C929 C928 1.267 . S
C929 C930 1.251 . S
C930 H900 0.929 . S
C930 N926 1.418 . S
C930 C929 1.251 . S
C931 H898 0.930 . S
C931 C933 1.406 . S
C931 C936 1.261 . S
C932 H899 0.930 . S
C932 N934 1.325 . S
C932 C935 1.357 . S
C933 H901 0.928 . S
C933 C931 1.406 . S
C933 N934 1.261 . S
N934 Co885 2.214 . S
N934 C932 1.325 . S
N934 C933 1.261 . S
C935 H905 0.931 . S
C935 C932 1.357 . S
C935 C936 1.312 . S
C936 H907 0.930 . S
C936 C931 1.261 . S
C936 C935 1.312 . S
C937 O909 1.214 . S
C937 O917 1.234 . S
C938 H910 0.929 . S
C938 C941 1.391 . S
C938 C943 1.391 . S
C939 H911 0.929 . S
C939 C940 1.390 . S
C939 N942 1.391 . S
C940 H912 0.930 . S
C940 C939 1.390 . S
C940 C941 1.392 . S
C941 H913 0.929 . S
C941 C938 1.391 . S
C941 C940 1.392 . S
N942 Co886 2.257 . S
N942 C939 1.391 . S
N942 C943 1.388 . S
C943 H914 0.930 . S
C943 C938 1.391 . S
C943 N942 1.388 . S
H944 C950 0.930 . S
H945 C954 0.930 . S
H946 C959 0.929 . S
H947 C957 0.929 . S
H948 C952 0.929 . S
H949 C958 0.929 . S
C950 H944 0.930 . S
C950 C951 1.367 . S
C950 C958 1.378 . S
C951 C950 1.367 . S
C951 C959 1.433 1_545 S
C952 H948 0.929 . S
C952 C954 1.378 . S
C952 C956 1.350 1_565 S
C953 C956 1.463 . S
C953 C958 1.350 . S
C953 N961 1.427 1_545 S
C954 H945 0.930 . S
C954 C952 1.378 . S
C954 C955 1.367 1_565 S
C955 C954 1.367 1_545 S
C955 C957 1.433 . S
C956 C952 1.350 1_545 S
C956 C953 1.463 . S
C956 N960 1.427 . S
C957 H947 0.929 . S
C957 C955 1.433 . S
C957 N960 1.384 . S
C958 H949 0.929 . S
C958 C950 1.378 . S
C958 C953 1.350 . S
C959 H946 0.929 . S
C959 C951 1.433 1_565 S
C959 N961 1.384 . S
N960 C956 1.427 . S
N960 C957 1.384 . S
N961 C953 1.427 1_565 S
N961 C959 1.384 . S
H962 C968 0.930 . S
H963 C972 0.930 . S
H964 C977 0.929 . S
H965 C975 0.929 . S
H966 C970 0.929 . S
H967 C976 0.929 . S
C968 H962 0.930 . S
C968 C969 1.367 . S
C968 C976 1.378 . S
C969 C968 1.367 . S
C969 C977 1.433 . S
C970 H966 0.929 . S
C970 C972 1.378 . S
C970 C974 1.350 . S
C971 C974 1.463 . S
C971 C976 1.350 . S
C971 N979 1.427 . S
C972 H963 0.930 . S
C972 C970 1.378 . S
C972 C973 1.367 . S
C973 C972 1.367 . S
C973 C975 1.433 . S
C974 C970 1.350 . S
C974 C971 1.463 . S
C974 N978 1.427 . S
C975 H965 0.929 . S
C975 C973 1.433 . S
C975 N978 1.384 . S
C976 H967 0.929 . S
C976 C968 1.378 . S
C976 C971 1.350 . S
C977 H964 0.929 . S
C977 C969 1.433 . S
C977 N979 1.384 . S
N978 C974 1.427 . S
N978 C975 1.384 . S
N979 C971 1.427 . S
N979 C977 1.384 . S
H980 C986 0.930 . S
H981 C990 0.930 . S
H982 C995 0.929 . S
H983 C993 0.929 . S
H984 C988 0.929 . S
H985 C994 0.929 . S
C986 H980 0.930 . S
C986 C987 1.367 . S
C986 C994 1.378 . S
C987 C986 1.367 . S
C987 C995 1.433 1_565 S
C988 H984 0.929 . S
C988 C990 1.378 . S
C988 C992 1.350 1_545 S
C989 C992 1.463 1_554 S
C989 C994 1.350 . S
C989 N997 1.427 1_565 S
C990 H981 0.930 . S
C990 C988 1.378 . S
C990 C991 1.367 1_545 S
C991 C990 1.367 1_565 S
C991 C993 1.433 . S
C992 C988 1.350 1_565 S
C992 C989 1.463 1_556 S
C992 N996 1.427 . S
C993 H983 0.929 . S
C993 C991 1.433 . S
C993 N996 1.384 . S
C994 H985 0.929 . S
C994 C986 1.378 . S
C994 C989 1.350 . S
C995 H982 0.929 . S
C995 C987 1.433 1_545 S
C995 N997 1.384 . S
N996 C992 1.427 . S
N996 C993 1.384 . S
N997 C989 1.427 1_545 S
N997 C995 1.384 . S
H998 C1004 0.930 . S
H999 C1008 0.930 . S
H1000 C1013 0.929 . S
H1001 C1011 0.929 . S
H1002 C1006 0.929 . S
H1003 C1012 0.929 . S
C1004 H998 0.930 . S
C1004 C1005 1.367 1_565 S
C1004 C1012 1.378 . S
C1005 C1004 1.367 1_545 S
C1005 C1013 1.433 . S
C1006 H1002 0.929 . S
C1006 C1008 1.378 . S
C1006 C1010 1.350 . S
C1007 C1010 1.463 1_556 S
C1007 C1012 1.350 1_545 S
C1007 N1015 1.427 . S
C1008 H999 0.930 . S
C1008 C1006 1.378 . S
C1008 C1009 1.367 . S
C1009 C1008 1.367 . S
C1009 C1011 1.433 1_545 S
C1010 C1006 1.350 . S
C1010 C1007 1.463 1_554 S
C1010 N1014 1.427 1_545 S
C1011 H1001 0.929 . S
C1011 C1009 1.433 1_565 S
C1011 N1014 1.384 . S
C1012 H1003 0.929 . S
C1012 C1004 1.378 . S
C1012 C1007 1.350 1_565 S
C1013 H1000 0.929 . S
C1013 C1005 1.433 . S
C1013 N1015 1.384 . S
N1014 C1010 1.427 1_565 S
N1014 C1011 1.384 . S
N1015 C1007 1.427 . S
N1015 C1013 1.384 . S
H1016 C1022 0.930 . S
H1017 C1026 0.930 . S
H1018 C1031 0.929 . S
H1019 C1029 0.929 . S
H1020 C1024 0.929 . S
H1021 C1030 0.929 . S
C1022 H1016 0.930 . S
C1022 C1023 1.367 . S
C1022 C1030 1.378 . S
C1023 C1022 1.367 . S
C1023 C1031 1.433 . S
C1024 H1020 0.929 . S
C1024 C1026 1.378 . S
C1024 C1028 1.350 . S
C1025 C1028 1.463 . S
C1025 C1030 1.350 . S
C1025 N1033 1.427 . S
C1026 H1017 0.930 . S
C1026 C1024 1.378 . S
C1026 C1027 1.367 . S
C1027 C1026 1.367 . S
C1027 C1029 1.433 . S
C1028 C1024 1.350 . S
C1028 C1025 1.463 . S
C1028 N1032 1.427 . S
C1029 H1019 0.929 . S
C1029 C1027 1.433 . S
C1029 N1032 1.384 . S
C1030 H1021 0.929 . S
C1030 C1022 1.378 . S
C1030 C1025 1.350 . S
C1031 H1018 0.929 . S
C1031 C1023 1.433 . S
C1031 N1033 1.384 . S
N1032 C1028 1.427 . S
N1032 C1029 1.384 . S
N1033 C1025 1.427 . S
N1033 C1031 1.384 . S
H1034 C1040 0.930 . S
H1035 C1044 0.930 . S
H1036 C1049 0.929 . S
H1037 C1047 0.929 . S
H1038 C1042 0.929 . S
H1039 C1048 0.929 . S
C1040 H1034 0.930 . S
C1040 C1041 1.367 . S
C1040 C1048 1.378 . S
C1041 C1040 1.367 . S
C1041 C1049 1.433 . S
C1042 H1038 0.929 . S
C1042 C1044 1.378 . S
C1042 C1046 1.350 . S
C1043 C1046 1.463 . S
C1043 C1048 1.350 . S
C1043 N1051 1.427 . S
C1044 H1035 0.930 . S
C1044 C1042 1.378 . S
C1044 C1045 1.367 . S
C1045 C1044 1.367 . S
C1045 C1047 1.433 . S
C1046 C1042 1.350 . S
C1046 C1043 1.463 . S
C1046 N1050 1.427 . S
C1047 H1037 0.929 . S
C1047 C1045 1.433 . S
C1047 N1050 1.384 . S
C1048 H1039 0.929 . S
C1048 C1040 1.378 . S
C1048 C1043 1.350 . S
C1049 H1036 0.929 . S
C1049 C1041 1.433 . S
C1049 N1051 1.384 . S
N1050 C1046 1.427 . S
N1050 C1047 1.384 . S
N1051 C1043 1.427 . S
N1051 C1049 1.384 . S
H1052 C1058 0.930 . S
H1053 C1062 0.930 . S
H1054 C1067 0.929 . S
H1055 C1065 0.929 . S
H1056 C1060 0.929 . S
H1057 C1066 0.929 . S
C1058 H1052 0.930 . S
C1058 C1059 1.367 . S
C1058 C1066 1.378 . S
C1059 C1058 1.367 . S
C1059 C1067 1.433 . S
C1060 H1056 0.929 . S
C1060 C1062 1.378 . S
C1060 C1064 1.350 . S
C1061 C1064 1.463 1_556 S
C1061 C1066 1.350 . S
C1061 N1069 1.427 . S
C1062 H1053 0.930 . S
C1062 C1060 1.378 . S
C1062 C1063 1.367 . S
C1063 C1062 1.367 . S
C1063 C1065 1.433 . S
C1064 C1060 1.350 . S
C1064 C1061 1.463 1_554 S
C1064 N1068 1.427 . S
C1065 H1055 0.929 . S
C1065 C1063 1.433 . S
C1065 N1068 1.384 . S
C1066 H1057 0.929 . S
C1066 C1058 1.378 . S
C1066 C1061 1.350 . S
C1067 H1054 0.929 . S
C1067 C1059 1.433 . S
C1067 N1069 1.384 . S
N1068 C1064 1.427 . S
N1068 C1065 1.384 . S
N1069 C1061 1.427 . S
N1069 C1067 1.384 . S
H1070 C1076 0.930 . S
H1071 C1080 0.930 . S
H1072 C1085 0.929 . S
H1073 C1083 0.929 . S
H1074 C1078 0.929 . S
H1075 C1084 0.929 . S
C1076 H1070 0.930 . S
C1076 C1077 1.367 . S
C1076 C1084 1.378 . S
C1077 C1076 1.367 . S
C1077 C1085 1.433 . S
C1078 H1074 0.929 . S
C1078 C1080 1.378 . S
C1078 C1082 1.350 . S
C1079 C1082 1.463 1_554 S
C1079 C1084 1.350 . S
C1079 N1087 1.427 . S
C1080 H1071 0.930 . S
C1080 C1078 1.378 . S
C1080 C1081 1.367 . S
C1081 C1080 1.367 . S
C1081 C1083 1.433 . S
C1082 C1078 1.350 . S
C1082 C1079 1.463 1_556 S
C1082 N1086 1.427 . S
C1083 H1073 0.929 . S
C1083 C1081 1.433 . S
C1083 N1086 1.384 . S
C1084 H1075 0.929 . S
C1084 C1076 1.378 . S
C1084 C1079 1.350 . S
C1085 H1072 0.929 . S
C1085 C1077 1.433 . S
C1085 N1087 1.384 . S
N1086 C1082 1.427 . S
N1086 C1083 1.384 . S
N1087 C1079 1.427 . S
N1087 C1085 1.384 . S
H1088 C1094 0.930 . S
H1089 C1098 0.930 . S
H1090 C1103 0.929 . S
H1091 C1101 0.929 . S
H1092 C1096 0.929 . S
H1093 C1102 0.929 . S
C1094 H1088 0.930 . S
C1094 C1095 1.367 . S
C1094 C1102 1.378 . S
C1095 C1094 1.367 . S
C1095 C1103 1.433 . S
C1096 H1092 0.929 . S
C1096 C1098 1.378 . S
C1096 C1100 1.350 . S
C1097 C1100 1.463 1_565 S
C1097 C1102 1.350 . S
C1097 N1105 1.427 . S
C1098 H1089 0.930 . S
C1098 C1096 1.378 . S
C1098 C1099 1.367 . S
C1099 C1098 1.367 . S
C1099 C1101 1.433 . S
C1100 C1096 1.350 . S
C1100 C1097 1.463 1_545 S
C1100 N1104 1.427 . S
C1101 H1091 0.929 . S
C1101 C1099 1.433 . S
C1101 N1104 1.384 . S
C1102 H1093 0.929 . S
C1102 C1094 1.378 . S
C1102 C1097 1.350 . S
C1103 H1090 0.929 . S
C1103 C1095 1.433 . S
C1103 N1105 1.384 . S
N1104 C1100 1.427 . S
N1104 C1101 1.384 . S
N1105 C1097 1.427 . S
N1105 C1103 1.384 . S
H1106 C1112 0.930 . S
H1107 C1116 0.930 . S
H1108 C1121 0.929 . S
H1109 C1119 0.929 . S
H1110 C1114 0.929 . S
H1111 C1120 0.929 . S
C1112 H1106 0.930 . S
C1112 C1113 1.367 . S
C1112 C1120 1.378 . S
C1113 C1112 1.367 . S
C1113 C1121 1.433 1_565 S
C1114 H1110 0.929 . S
C1114 C1116 1.378 . S
C1114 C1118 1.350 . S
C1115 C1118 1.463 1_565 S
C1115 C1120 1.350 . S
C1115 N1123 1.427 1_565 S
C1116 H1107 0.930 . S
C1116 C1114 1.378 . S
C1116 C1117 1.367 . S
C1117 C1116 1.367 . S
C1117 C1119 1.433 1_545 S
C1118 C1114 1.350 . S
C1118 C1115 1.463 1_545 S
C1118 N1122 1.427 1_545 S
C1119 H1109 0.929 . S
C1119 C1117 1.433 1_565 S
C1119 N1122 1.384 . S
C1120 H1111 0.929 . S
C1120 C1112 1.378 . S
C1120 C1115 1.350 . S
C1121 H1108 0.929 . S
C1121 C1113 1.433 1_545 S
C1121 N1123 1.384 . S
N1122 C1118 1.427 1_565 S
N1122 C1119 1.384 . S
N1123 C1115 1.427 1_545 S
N1123 C1121 1.384 . S
H1124 C1130 0.930 . S
H1125 C1134 0.930 . S
H1126 C1139 0.929 . S
H1127 C1137 0.929 . S
H1128 C1132 0.929 . S
H1129 C1138 0.929 . S
C1130 H1124 0.930 . S
C1130 C1131 1.367 . S
C1130 C1138 1.378 . S
C1131 C1130 1.367 . S
C1131 C1139 1.433 . S
C1132 H1128 0.929 . S
C1132 C1134 1.378 . S
C1132 C1136 1.350 . S
C1133 C1136 1.463 1_565 S
C1133 C1138 1.350 . S
C1133 N1141 1.427 . S
C1134 H1125 0.930 . S
C1134 C1132 1.378 . S
C1134 C1135 1.367 . S
C1135 C1134 1.367 . S
C1135 C1137 1.433 . S
C1136 C1132 1.350 . S
C1136 C1133 1.463 1_545 S
C1136 N1140 1.427 . S
C1137 H1127 0.929 . S
C1137 C1135 1.433 . S
C1137 N1140 1.384 . S
C1138 H1129 0.929 . S
C1138 C1130 1.378 . S
C1138 C1133 1.350 . S
C1139 H1126 0.929 . S
C1139 C1131 1.433 . S
C1139 N1141 1.384 . S
N1140 C1136 1.427 . S
N1140 C1137 1.384 . S
N1141 C1133 1.427 . S
N1141 C1139 1.384 . S
H1142 C1148 0.930 . S
H1143 C1152 0.930 . S
H1144 C1157 0.929 . S
H1145 C1155 0.929 . S
H1146 C1150 0.929 . S
H1147 C1156 0.929 . S
C1148 H1142 0.930 . S
C1148 C1149 1.367 . S
C1148 C1156 1.378 . S
C1149 C1148 1.367 . S
C1149 C1157 1.433 . S
C1150 H1146 0.929 . S
C1150 C1152 1.378 . S
C1150 C1154 1.350 . S
C1151 C1154 1.463 1_545 S
C1151 C1156 1.350 . S
C1151 N1159 1.427 . S
C1152 H1143 0.930 . S
C1152 C1150 1.378 . S
C1152 C1153 1.367 . S
C1153 C1152 1.367 . S
C1153 C1155 1.433 . S
C1154 C1150 1.350 . S
C1154 C1151 1.463 1_565 S
C1154 N1158 1.427 . S
C1155 H1145 0.929 . S
C1155 C1153 1.433 . S
C1155 N1158 1.384 . S
C1156 H1147 0.929 . S
C1156 C1148 1.378 . S
C1156 C1151 1.350 . S
C1157 H1144 0.929 . S
C1157 C1149 1.433 . S
C1157 N1159 1.384 . S
N1158 C1154 1.427 . S
N1158 C1155 1.384 . S
N1159 C1151 1.427 . S
N1159 C1157 1.384 . S
H1160 C1166 0.930 . S
H1161 C1170 0.930 . S
H1162 C1175 0.929 . S
H1163 C1173 0.929 . S
H1164 C1168 0.929 . S
H1165 C1174 0.929 . S
C1166 H1160 0.930 . S
C1166 C1167 1.367 . S
C1166 C1174 1.378 . S
C1167 C1166 1.367 . S
C1167 C1175 1.433 . S
C1168 H1164 0.929 . S
C1168 C1170 1.378 . S
C1168 C1172 1.350 . S
C1169 C1172 1.463 1_655 S
C1169 C1174 1.350 . S
C1169 N1177 1.427 . S
C1170 H1161 0.930 . S
C1170 C1168 1.378 . S
C1170 C1171 1.367 . S
C1171 C1170 1.367 . S
C1171 C1173 1.433 . S
C1172 C1168 1.350 . S
C1172 C1169 1.463 1_455 S
C1172 N1176 1.427 . S
C1173 H1163 0.929 . S
C1173 C1171 1.433 . S
C1173 N1176 1.384 . S
C1174 H1165 0.929 . S
C1174 C1166 1.378 . S
C1174 C1169 1.350 . S
C1175 H1162 0.929 . S
C1175 C1167 1.433 . S
C1175 N1177 1.384 . S
N1176 C1172 1.427 . S
N1176 C1173 1.384 . S
N1177 C1169 1.427 . S
N1177 C1175 1.384 . S
H1178 C1184 0.930 . S
H1179 C1188 0.930 . S
H1180 C1193 0.929 . S
H1181 C1191 0.929 . S
H1182 C1186 0.929 . S
H1183 C1192 0.929 . S
C1184 H1178 0.930 . S
C1184 C1185 1.367 . S
C1184 C1192 1.378 . S
C1185 C1184 1.367 . S
C1185 C1193 1.433 . S
C1186 H1182 0.929 . S
C1186 C1188 1.378 . S
C1186 C1190 1.350 . S
C1187 C1190 1.463 1_455 S
C1187 C1192 1.350 . S
C1187 N1195 1.427 . S
C1188 H1179 0.930 . S
C1188 C1186 1.378 . S
C1188 C1189 1.367 . S
C1189 C1188 1.367 . S
C1189 C1191 1.433 . S
C1190 C1186 1.350 . S
C1190 C1187 1.463 1_655 S
C1190 N1194 1.427 . S
C1191 H1181 0.929 . S
C1191 C1189 1.433 . S
C1191 N1194 1.384 . S
C1192 H1183 0.929 . S
C1192 C1184 1.378 . S
C1192 C1187 1.350 . S
C1193 H1180 0.929 . S
C1193 C1185 1.433 . S
C1193 N1195 1.384 . S
N1194 C1190 1.427 . S
N1194 C1191 1.384 . S
N1195 C1187 1.427 . S
N1195 C1193 1.384 . S
H1196 C1202 0.930 . S
H1197 C1206 0.930 . S
H1198 C1211 0.929 . S
H1199 C1209 0.929 . S
H1200 C1204 0.929 . S
H1201 C1210 0.929 . S
C1202 H1196 0.930 . S
C1202 C1203 1.367 . S
C1202 C1210 1.378 . S
C1203 C1202 1.367 . S
C1203 C1211 1.433 . S
C1204 H1200 0.929 . S
C1204 C1206 1.378 . S
C1204 C1208 1.350 . S
C1205 C1208 1.463 1_655 S
C1205 C1210 1.350 . S
C1205 N1213 1.427 . S
C1206 H1197 0.930 . S
C1206 C1204 1.378 . S
C1206 C1207 1.367 . S
C1207 C1206 1.367 . S
C1207 C1209 1.433 . S
C1208 C1204 1.350 . S
C1208 C1205 1.463 1_455 S
C1208 N1212 1.427 . S
C1209 H1199 0.929 . S
C1209 C1207 1.433 . S
C1209 N1212 1.384 . S
C1210 H1201 0.929 . S
C1210 C1202 1.378 . S
C1210 C1205 1.350 . S
C1211 H1198 0.929 . S
C1211 C1203 1.433 . S
C1211 N1213 1.384 . S
N1212 C1208 1.427 . S
N1212 C1209 1.384 . S
N1213 C1205 1.427 . S
N1213 C1211 1.384 . S
H1214 C1220 0.930 . S
H1215 C1224 0.930 . S
H1216 C1229 0.929 . S
H1217 C1227 0.929 . S
H1218 C1222 0.929 . S
H1219 C1228 0.929 . S
C1220 H1214 0.930 . S
C1220 C1221 1.367 . S
C1220 C1228 1.378 . S
C1221 C1220 1.367 . S
C1221 C1229 1.433 . S
C1222 H1218 0.929 . S
C1222 C1224 1.378 . S
C1222 C1226 1.350 . S
C1223 C1226 1.463 1_455 S
C1223 C1228 1.350 . S
C1223 N1231 1.427 . S
C1224 H1215 0.930 . S
C1224 C1222 1.378 . S
C1224 C1225 1.367 . S
C1225 C1224 1.367 . S
C1225 C1227 1.433 . S
C1226 C1222 1.350 . S
C1226 C1223 1.463 1_655 S
C1226 N1230 1.427 . S
C1227 H1217 0.929 . S
C1227 C1225 1.433 . S
C1227 N1230 1.384 . S
C1228 H1219 0.929 . S
C1228 C1220 1.378 . S
C1228 C1223 1.350 . S
C1229 H1216 0.929 . S
C1229 C1221 1.433 . S
C1229 N1231 1.384 . S
N1230 C1226 1.427 . S
N1230 C1227 1.384 . S
N1231 C1223 1.427 . S
N1231 C1229 1.384 . S
H1232 C1238 0.930 . S
H1233 C1242 0.930 . S
H1234 C1247 0.929 . S
H1235 C1245 0.929 . S
H1236 C1240 0.929 . S
H1237 C1246 0.929 . S
C1238 H1232 0.930 . S
C1238 C1239 1.367 . S
C1238 C1246 1.378 . S
C1239 C1238 1.367 . S
C1239 C1247 1.433 . S
C1240 H1236 0.929 . S
C1240 C1242 1.378 . S
C1240 C1244 1.350 . S
C1241 C1244 1.463 . S
C1241 C1246 1.350 . S
C1241 N1249 1.427 . S
C1242 H1233 0.930 . S
C1242 C1240 1.378 . S
C1242 C1243 1.367 . S
C1243 C1242 1.367 . S
C1243 C1245 1.433 . S
C1244 C1240 1.350 . S
C1244 C1241 1.463 . S
C1244 N1248 1.427 . S
C1245 H1235 0.929 . S
C1245 C1243 1.433 . S
C1245 N1248 1.384 . S
C1246 H1237 0.929 . S
C1246 C1238 1.378 . S
C1246 C1241 1.350 . S
C1247 H1234 0.929 . S
C1247 C1239 1.433 . S
C1247 N1249 1.384 . S
N1248 C1244 1.427 . S
N1248 C1245 1.384 . S
N1249 C1241 1.427 . S
N1249 C1247 1.384 . S
H1250 C1256 0.930 . S
H1251 C1260 0.930 . S
H1252 C1265 0.929 . S
H1253 C1263 0.929 . S
H1254 C1258 0.929 . S
H1255 C1264 0.929 . S
C1256 H1250 0.930 . S
C1256 C1257 1.367 . S
C1256 C1264 1.378 . S
C1257 C1256 1.367 . S
C1257 C1265 1.433 . S
C1258 H1254 0.929 . S
C1258 C1260 1.378 . S
C1258 C1262 1.350 . S
C1259 C1262 1.463 . S
C1259 C1264 1.350 . S
C1259 N1267 1.427 . S
C1260 H1251 0.930 . S
C1260 C1258 1.378 . S
C1260 C1261 1.367 . S
C1261 C1260 1.367 . S
C1261 C1263 1.433 . S
C1262 C1258 1.350 . S
C1262 C1259 1.463 . S
C1262 N1266 1.427 . S
C1263 H1253 0.929 . S
C1263 C1261 1.433 . S
C1263 N1266 1.384 . S
C1264 H1255 0.929 . S
C1264 C1256 1.378 . S
C1264 C1259 1.350 . S
C1265 H1252 0.929 . S
C1265 C1257 1.433 . S
C1265 N1267 1.384 . S
N1266 C1262 1.427 . S
N1266 C1263 1.384 . S
N1267 C1259 1.427 . S
N1267 C1265 1.384 . S
H1268 C1274 0.930 . S
H1269 C1278 0.930 . S
H1270 C1283 0.929 . S
H1271 C1281 0.929 . S
H1272 C1276 0.929 . S
H1273 C1282 0.929 . S
C1274 H1268 0.930 . S
C1274 C1275 1.367 . S
C1274 C1282 1.378 . S
C1275 C1274 1.367 . S
C1275 C1283 1.433 . S
C1276 H1272 0.929 . S
C1276 C1278 1.378 . S
C1276 C1280 1.350 . S
C1277 C1280 1.463 . S
C1277 C1282 1.350 . S
C1277 N1285 1.427 . S
C1278 H1269 0.930 . S
C1278 C1276 1.378 . S
C1278 C1279 1.367 . S
C1279 C1278 1.367 . S
C1279 C1281 1.433 . S
C1280 C1276 1.350 . S
C1280 C1277 1.463 . S
C1280 N1284 1.427 . S
C1281 H1271 0.929 . S
C1281 C1279 1.433 . S
C1281 N1284 1.384 . S
C1282 H1273 0.929 . S
C1282 C1274 1.378 . S
C1282 C1277 1.350 . S
C1283 H1270 0.929 . S
C1283 C1275 1.433 . S
C1283 N1285 1.384 . S
N1284 C1280 1.427 . S
N1284 C1281 1.384 . S
N1285 C1277 1.427 . S
N1285 C1283 1.384 . S
H1286 C1292 0.930 . S
H1287 C1296 0.930 . S
H1288 C1301 0.929 . S
H1289 C1299 0.929 . S
H1290 C1294 0.929 . S
H1291 C1300 0.929 . S
C1292 H1286 0.930 . S
C1292 C1293 1.367 . S
C1292 C1300 1.378 . S
C1293 C1292 1.367 . S
C1293 C1301 1.433 . S
C1294 H1290 0.929 . S
C1294 C1296 1.378 . S
C1294 C1298 1.350 . S
C1295 C1298 1.463 . S
C1295 C1300 1.350 . S
C1295 N1303 1.427 . S
C1296 H1287 0.930 . S
C1296 C1294 1.378 . S
C1296 C1297 1.367 . S
C1297 C1296 1.367 . S
C1297 C1299 1.433 . S
C1298 C1294 1.350 . S
C1298 C1295 1.463 . S
C1298 N1302 1.427 . S
C1299 H1289 0.929 . S
C1299 C1297 1.433 . S
C1299 N1302 1.384 . S
C1300 H1291 0.929 . S
C1300 C1292 1.378 . S
C1300 C1295 1.350 . S
C1301 H1288 0.929 . S
C1301 C1293 1.433 . S
C1301 N1303 1.384 . S
N1302 C1298 1.427 . S
N1302 C1299 1.384 . S
N1303 C1295 1.427 . S
N1303 C1301 1.384 . S
H1304 C1310 0.930 . S
H1305 C1314 0.930 . S
H1306 C1319 0.929 . S
H1307 C1317 0.929 . S
H1308 C1312 0.929 . S
H1309 C1318 0.929 . S
C1310 H1304 0.930 . S
C1310 C1311 1.367 . S
C1310 C1318 1.378 . S
C1311 C1310 1.367 . S
C1311 C1319 1.433 . S
C1312 H1308 0.929 . S
C1312 C1314 1.378 . S
C1312 C1316 1.350 . S
C1313 C1316 1.463 . S
C1313 C1318 1.350 . S
C1313 N1321 1.427 . S
C1314 H1305 0.930 . S
C1314 C1312 1.378 . S
C1314 C1315 1.367 . S
C1315 C1314 1.367 . S
C1315 C1317 1.433 . S
C1316 C1312 1.350 . S
C1316 C1313 1.463 . S
C1316 N1320 1.427 . S
C1317 H1307 0.929 . S
C1317 C1315 1.433 . S
C1317 N1320 1.384 . S
C1318 H1309 0.929 . S
C1318 C1310 1.378 . S
C1318 C1313 1.350 . S
C1319 H1306 0.929 . S
C1319 C1311 1.433 . S
C1319 N1321 1.384 . S
N1320 C1316 1.427 . S
N1320 C1317 1.384 . S
N1321 C1313 1.427 . S
N1321 C1319 1.384 . S
H1322 C1328 0.930 . S
H1323 C1332 0.930 . S
H1324 C1337 0.929 . S
H1325 C1335 0.929 . S
H1326 C1330 0.929 . S
H1327 C1336 0.929 . S
C1328 H1322 0.930 . S
C1328 C1329 1.367 . S
C1328 C1336 1.378 . S
C1329 C1328 1.367 . S
C1329 C1337 1.433 . S
C1330 H1326 0.929 . S
C1330 C1332 1.378 . S
C1330 C1334 1.350 . S
C1331 C1334 1.463 . S
C1331 C1336 1.350 . S
C1331 N1339 1.427 . S
C1332 H1323 0.930 . S
C1332 C1330 1.378 . S
C1332 C1333 1.367 . S
C1333 C1332 1.367 . S
C1333 C1335 1.433 . S
C1334 C1330 1.350 . S
C1334 C1331 1.463 . S
C1334 N1338 1.427 . S
C1335 H1325 0.929 . S
C1335 C1333 1.433 . S
C1335 N1338 1.384 . S
C1336 H1327 0.929 . S
C1336 C1328 1.378 . S
C1336 C1331 1.350 . S
C1337 H1324 0.929 . S
C1337 C1329 1.433 . S
C1337 N1339 1.384 . S
N1338 C1334 1.427 . S
N1338 C1335 1.384 . S
N1339 C1331 1.427 . S
N1339 C1337 1.384 . S
H1340 C1346 0.930 . S
H1341 C1350 0.930 . S
H1342 C1355 0.929 . S
H1343 C1353 0.929 . S
H1344 C1348 0.929 . S
H1345 C1354 0.929 . S
C1346 H1340 0.930 . S
C1346 C1347 1.367 . S
C1346 C1354 1.378 . S
C1347 C1346 1.367 . S
C1347 C1355 1.433 . S
C1348 H1344 0.929 . S
C1348 C1350 1.378 . S
C1348 C1352 1.350 . S
C1349 C1352 1.463 . S
C1349 C1354 1.350 . S
C1349 N1357 1.427 . S
C1350 H1341 0.930 . S
C1350 C1348 1.378 . S
C1350 C1351 1.367 . S
C1351 C1350 1.367 . S
C1351 C1353 1.433 . S
C1352 C1348 1.350 . S
C1352 C1349 1.463 . S
C1352 N1356 1.427 . S
C1353 H1343 0.929 . S
C1353 C1351 1.433 . S
C1353 N1356 1.384 . S
C1354 H1345 0.929 . S
C1354 C1346 1.378 . S
C1354 C1349 1.350 . S
C1355 H1342 0.929 . S
C1355 C1347 1.433 . S
C1355 N1357 1.384 . S
N1356 C1352 1.427 . S
N1356 C1353 1.384 . S
N1357 C1349 1.427 . S
N1357 C1355 1.384 . S
H1358 C1364 0.930 . S
H1359 C1368 0.930 . S
H1360 C1373 0.929 . S
H1361 C1371 0.929 . S
H1362 C1366 0.929 . S
H1363 C1372 0.929 . S
C1364 H1358 0.930 . S
C1364 C1365 1.367 . S
C1364 C1372 1.378 . S
C1365 C1364 1.367 . S
C1365 C1373 1.433 . S
C1366 H1362 0.929 . S
C1366 C1368 1.378 . S
C1366 C1370 1.350 . S
C1367 C1370 1.463 . S
C1367 C1372 1.350 . S
C1367 N1375 1.427 . S
C1368 H1359 0.930 . S
C1368 C1366 1.378 . S
C1368 C1369 1.367 . S
C1369 C1368 1.367 . S
C1369 C1371 1.433 . S
C1370 C1366 1.350 . S
C1370 C1367 1.463 . S
C1370 N1374 1.427 . S
C1371 H1361 0.929 . S
C1371 C1369 1.433 . S
C1371 N1374 1.384 . S
C1372 H1363 0.929 . S
C1372 C1364 1.378 . S
C1372 C1367 1.350 . S
C1373 H1360 0.929 . S
C1373 C1365 1.433 . S
C1373 N1375 1.384 . S
N1374 C1370 1.427 . S
N1374 C1371 1.384 . S
N1375 C1367 1.427 . S
N1375 C1373 1.384 . S
H1376 C1382 0.930 . S
H1377 C1386 0.930 . S
H1378 C1391 0.929 . S
H1379 C1389 0.929 . S
H1380 C1384 0.929 . S
H1381 C1390 0.929 . S
C1382 H1376 0.930 . S
C1382 C1383 1.367 1_565 S
C1382 C1390 1.378 . S
C1383 C1382 1.367 1_545 S
C1383 C1391 1.433 . S
C1384 H1380 0.929 . S
C1384 C1386 1.378 . S
C1384 C1388 1.350 1_545 S
C1385 C1388 1.463 1_545 S
C1385 C1390 1.350 1_545 S
C1385 N1393 1.427 . S
C1386 H1377 0.930 . S
C1386 C1384 1.378 . S
C1386 C1387 1.367 1_545 S
C1387 C1386 1.367 1_565 S
C1387 C1389 1.433 . S
C1388 C1384 1.350 1_565 S
C1388 C1385 1.463 1_565 S
C1388 N1392 1.427 . S
C1389 H1379 0.929 . S
C1389 C1387 1.433 . S
C1389 N1392 1.384 . S
C1390 H1381 0.929 . S
C1390 C1382 1.378 . S
C1390 C1385 1.350 1_565 S
C1391 H1378 0.929 . S
C1391 C1383 1.433 . S
C1391 N1393 1.384 . S
N1392 C1388 1.427 . S
N1392 C1389 1.384 . S
N1393 C1385 1.427 . S
N1393 C1391 1.384 . S
H1394 C1400 0.930 . S
H1395 C1404 0.930 . S
H1396 C1409 0.929 . S
H1397 C1407 0.929 . S
H1398 C1402 0.929 . S
H1399 C1408 0.929 . S
C1400 H1394 0.930 . S
C1400 C1401 1.367 1_565 S
C1400 C1408 1.378 . S
C1401 C1400 1.367 1_545 S
C1401 C1409 1.433 . S
C1402 H1398 0.929 . S
C1402 C1404 1.378 . S
C1402 C1406 1.350 1_545 S
C1403 C1406 1.463 1_545 S
C1403 C1408 1.350 1_545 S
C1403 N1411 1.427 . S
C1404 H1395 0.930 . S
C1404 C1402 1.378 . S
C1404 C1405 1.367 1_545 S
C1405 C1404 1.367 1_565 S
C1405 C1407 1.433 . S
C1406 C1402 1.350 1_565 S
C1406 C1403 1.463 1_565 S
C1406 N1410 1.427 . S
C1407 H1397 0.929 . S
C1407 C1405 1.433 . S
C1407 N1410 1.384 . S
C1408 H1399 0.929 . S
C1408 C1400 1.378 . S
C1408 C1403 1.350 1_565 S
C1409 H1396 0.929 . S
C1409 C1401 1.433 . S
C1409 N1411 1.384 . S
N1410 C1406 1.427 . S
N1410 C1407 1.384 . S
N1411 C1403 1.427 . S
N1411 C1409 1.384 . S
H1412 C1418 0.930 . S
H1413 C1422 0.930 . S
H1414 C1427 0.929 . S
H1415 C1425 0.929 . S
H1416 C1420 0.929 . S
H1417 C1426 0.929 . S
C1418 H1412 0.930 . S
C1418 C1419 1.367 1_565 S
C1418 C1426 1.378 . S
C1419 C1418 1.367 1_545 S
C1419 C1427 1.433 . S
C1420 H1416 0.929 . S
C1420 C1422 1.378 . S
C1420 C1424 1.350 1_545 S
C1421 C1424 1.463 1_545 S
C1421 C1426 1.350 1_545 S
C1421 N1429 1.427 . S
C1422 H1413 0.930 . S
C1422 C1420 1.378 . S
C1422 C1423 1.367 1_545 S
C1423 C1422 1.367 1_565 S
C1423 C1425 1.433 . S
C1424 C1420 1.350 1_565 S
C1424 C1421 1.463 1_565 S
C1424 N1428 1.427 . S
C1425 H1415 0.929 . S
C1425 C1423 1.433 . S
C1425 N1428 1.384 . S
C1426 H1417 0.929 . S
C1426 C1418 1.378 . S
C1426 C1421 1.350 1_565 S
C1427 H1414 0.929 . S
C1427 C1419 1.433 . S
C1427 N1429 1.384 . S
N1428 C1424 1.427 . S
N1428 C1425 1.384 . S
N1429 C1421 1.427 . S
N1429 C1427 1.384 . S
H1430 C1436 0.930 . S
H1431 C1440 0.930 . S
H1432 C1445 0.929 . S
H1433 C1443 0.929 . S
H1434 C1438 0.929 . S
H1435 C1444 0.929 . S
C1436 H1430 0.930 . S
C1436 C1437 1.367 1_545 S
C1436 C1444 1.378 . S
C1437 C1436 1.367 1_565 S
C1437 C1445 1.433 . S
C1438 H1434 0.929 . S
C1438 C1440 1.378 . S
C1438 C1442 1.350 1_565 S
C1439 C1442 1.463 1_565 S
C1439 C1444 1.350 1_565 S
C1439 N1447 1.427 . S
C1440 H1431 0.930 . S
C1440 C1438 1.378 . S
C1440 C1441 1.367 1_565 S
C1441 C1440 1.367 1_545 S
C1441 C1443 1.433 . S
C1442 C1438 1.350 1_545 S
C1442 C1439 1.463 1_545 S
C1442 N1446 1.427 . S
C1443 H1433 0.929 . S
C1443 C1441 1.433 . S
C1443 N1446 1.384 . S
C1444 H1435 0.929 . S
C1444 C1436 1.378 . S
C1444 C1439 1.350 1_545 S
C1445 H1432 0.929 . S
C1445 C1437 1.433 . S
C1445 N1447 1.384 . S
N1446 C1442 1.427 . S
N1446 C1443 1.384 . S
N1447 C1439 1.427 . S
N1447 C1445 1.384 . S
H1448 C1454 0.930 . S
H1449 C1458 0.930 . S
H1450 C1463 0.929 . S
H1451 C1461 0.929 . S
H1452 C1456 0.929 . S
H1453 C1462 0.929 . S
C1454 H1448 0.930 . S
C1454 C1455 1.367 . S
C1454 C1462 1.378 . S
C1455 C1454 1.367 . S
C1455 C1463 1.433 . S
C1456 H1452 0.929 . S
C1456 C1458 1.378 . S
C1456 C1460 1.350 . S
C1457 C1460 1.463 . S
C1457 C1462 1.350 . S
C1457 N1465 1.427 . S
C1458 H1449 0.930 . S
C1458 C1456 1.378 . S
C1458 C1459 1.367 . S
C1459 C1458 1.367 . S
C1459 C1461 1.433 . S
C1460 C1456 1.350 . S
C1460 C1457 1.463 . S
C1460 N1464 1.427 . S
C1461 H1451 0.929 . S
C1461 C1459 1.433 . S
C1461 N1464 1.384 . S
C1462 H1453 0.929 . S
C1462 C1454 1.378 . S
C1462 C1457 1.350 . S
C1463 H1450 0.929 . S
C1463 C1455 1.433 . S
C1463 N1465 1.384 . S
N1464 C1460 1.427 . S
N1464 C1461 1.384 . S
N1465 C1457 1.427 . S
N1465 C1463 1.384 . S
H1466 C1472 0.930 . S
H1467 C1476 0.930 . S
H1468 C1481 0.929 . S
H1469 C1479 0.929 . S
H1470 C1474 0.929 . S
H1471 C1480 0.929 . S
C1472 H1466 0.930 . S
C1472 C1473 1.367 . S
C1472 C1480 1.378 . S
C1473 C1472 1.367 . S
C1473 C1481 1.433 . S
C1474 H1470 0.929 . S
C1474 C1476 1.378 . S
C1474 C1478 1.350 . S
C1475 C1478 1.463 . S
C1475 C1480 1.350 . S
C1475 N1483 1.427 . S
C1476 H1467 0.930 . S
C1476 C1474 1.378 . S
C1476 C1477 1.367 . S
C1477 C1476 1.367 . S
C1477 C1479 1.433 . S
C1478 C1474 1.350 . S
C1478 C1475 1.463 . S
C1478 N1482 1.427 . S
C1479 H1469 0.929 . S
C1479 C1477 1.433 . S
C1479 N1482 1.384 . S
C1480 H1471 0.929 . S
C1480 C1472 1.378 . S
C1480 C1475 1.350 . S
C1481 H1468 0.929 . S
C1481 C1473 1.433 . S
C1481 N1483 1.384 . S
N1482 C1478 1.427 . S
N1482 C1479 1.384 . S
N1483 C1475 1.427 . S
N1483 C1481 1.384 . S
H1484 C1490 0.930 . S
H1485 C1494 0.930 . S
H1486 C1499 0.929 . S
H1487 C1497 0.929 . S
H1488 C1492 0.929 . S
H1489 C1498 0.929 . S
C1490 H1484 0.930 . S
C1490 C1491 1.367 . S
C1490 C1498 1.378 . S
C1491 C1490 1.367 . S
C1491 C1499 1.433 . S
C1492 H1488 0.929 . S
C1492 C1494 1.378 . S
C1492 C1496 1.350 . S
C1493 C1496 1.463 . S
C1493 C1498 1.350 . S
C1493 N1501 1.427 . S
C1494 H1485 0.930 . S
C1494 C1492 1.378 . S
C1494 C1495 1.367 . S
C1495 C1494 1.367 . S
C1495 C1497 1.433 . S
C1496 C1492 1.350 . S
C1496 C1493 1.463 . S
C1496 N1500 1.427 . S
C1497 H1487 0.929 . S
C1497 C1495 1.433 . S
C1497 N1500 1.384 . S
C1498 H1489 0.929 . S
C1498 C1490 1.378 . S
C1498 C1493 1.350 . S
C1499 H1486 0.929 . S
C1499 C1491 1.433 . S
C1499 N1501 1.384 . S
N1500 C1496 1.427 . S
N1500 C1497 1.384 . S
N1501 C1493 1.427 . S
N1501 C1499 1.384 . S
H1502 C1508 0.930 . S
H1503 C1512 0.930 . S
H1504 C1517 0.929 . S
H1505 C1515 0.929 . S
H1506 C1510 0.929 . S
H1507 C1516 0.929 . S
C1508 H1502 0.930 . S
C1508 C1509 1.367 . S
C1508 C1516 1.378 . S
C1509 C1508 1.367 . S
C1509 C1517 1.433 . S
C1510 H1506 0.929 . S
C1510 C1512 1.378 . S
C1510 C1514 1.350 . S
C1511 C1514 1.463 . S
C1511 C1516 1.350 . S
C1511 N1519 1.427 . S
C1512 H1503 0.930 . S
C1512 C1510 1.378 . S
C1512 C1513 1.367 . S
C1513 C1512 1.367 . S
C1513 C1515 1.433 . S
C1514 C1510 1.350 . S
C1514 C1511 1.463 . S
C1514 N1518 1.427 . S
C1515 H1505 0.929 . S
C1515 C1513 1.433 . S
C1515 N1518 1.384 . S
C1516 H1507 0.929 . S
C1516 C1508 1.378 . S
C1516 C1511 1.350 . S
C1517 H1504 0.929 . S
C1517 C1509 1.433 . S
C1517 N1519 1.384 . S
N1518 C1514 1.427 . S
N1518 C1515 1.384 . S
N1519 C1511 1.427 . S
N1519 C1517 1.384 . S
C951 C3 1.382 . S
C955 C298 1.380 . S
C969 C239 1.376 . S
C973 C62 1.386 . S
C987 C121 1.377 . S
C991 C416 1.385 . S
C1005 C357 1.383 . S
C1009 C180 1.378 . S
C1023 C770 1.377 . S
C1027 C475 1.385 . S
C1041 C711 1.377 . S
C1045 C534 1.385 . S
C1059 C888 1.386 . S
C1063 C593 1.376 . S
C1077 C652 1.376 . S
C1081 C829 1.386 . S
C1095 C111 1.495 . S
C1099 C52 1.499 . S
C1113 C170 1.498 . S
C1117 C229 1.496 . S
C1131 C288 1.495 . S
C1135 C347 1.499 . S
C1149 C406 1.499 . S
C1153 C465 1.495 . S
C1167 C524 1.495 . S
C1171 C583 1.498 . S
C1185 C701 1.497 . S
C1189 C642 1.497 . S
C1203 C819 1.499 . S
C1207 C760 1.495 . S
C1221 C878 1.499 . S
C1225 C937 1.495 . S
C1239 C536 1.500 . S
C1243 C5 1.499 . S
C1257 C64 1.501 . S
C1261 C477 1.499 . S
C1275 C654 1.500 . S
C1279 C123 1.499 . S
C1293 C182 1.500 . S
C1297 C595 1.501 . S
C1311 C241 1.499 . S
C1315 C772 1.500 . S
C1329 C713 1.499 . S
C1333 C300 1.500 . S
C1347 C359 1.500 . S
C1351 C890 1.499 . S
C1365 C831 1.501 . S
C1369 C418 1.500 . S
C1383 C33 1.279 . S
C1387 C151 1.276 . S
C1401 C210 1.279 . S
C1405 C92 1.277 . S
C1419 C387 1.278 . S
C1423 C269 1.273 . S
C1437 C446 1.277 . S
C1441 C328 1.279 . S
C1455 C623 1.267 . S
C1459 C505 1.272 . S
C1473 C564 1.279 . S
C1477 C682 1.275 . S
C1491 C859 1.276 . S
C1495 C741 1.279 . S
C1509 C800 1.268 . S
C1513 C918 1.266 . S
