# Generated by pormake.
# Topology uke, (4)-cn, num edge types: 1
# Building blocks:
#     Node 0, Type 0, BuildingBlock: QUQFOY_clean_sbu_1, # of connection points: 4
#     Node 1, Type 0, BuildingBlock: QUQFOY_clean_sbu_1, # of connection points: 4
#     Node 2, Type 0, BuildingBlock: QUQFOY_clean_sbu_1, # of connection points: 4
#     Node 3, Type 0, BuildingBlock: QUQFOY_clean_sbu_1, # of connection points: 4
#     Node 4, Type 0, BuildingBlock: QUQFOY_clean_sbu_1, # of connection points: 4
#     Node 5, Type 0, BuildingBlock: QUQFOY_clean_sbu_1, # of connection points: 4
#     Node 6, Type 0, BuildingBlock: QUQFOY_clean_sbu_1, # of connection points: 4
#     Node 7, Type 0, BuildingBlock: QUQFOY_clean_sbu_1, # of connection points: 4
#     Node 8, Type 0, BuildingBlock: QUQFOY_clean_sbu_1, # of connection points: 4
#     Node 9, Type 0, BuildingBlock: QUQFOY_clean_sbu_1, # of connection points: 4
#     Node 10, Type 0, BuildingBlock: QUQFOY_clean_sbu_1, # of connection points: 4
#     Node 11, Type 0, BuildingBlock: QUQFOY_clean_sbu_1, # of connection points: 4
#     Node 12, Type 0, BuildingBlock: QUQFOY_clean_sbu_1, # of connection points: 4
#     Node 13, Type 0, BuildingBlock: QUQFOY_clean_sbu_1, # of connection points: 4
#     Node 14, Type 0, BuildingBlock: QUQFOY_clean_sbu_1, # of connection points: 4
#     Node 15, Type 0, BuildingBlock: QUQFOY_clean_sbu_1, # of connection points: 4
#     Node 16, Type 0, BuildingBlock: QUQFOY_clean_sbu_1, # of connection points: 4
#     Node 17, Type 0, BuildingBlock: QUQFOY_clean_sbu_1, # of connection points: 4
#     Node 18, Type 0, BuildingBlock: QUQFOY_clean_sbu_1, # of connection points: 4
#     Node 19, Type 0, BuildingBlock: QUQFOY_clean_sbu_1, # of connection points: 4
#     Node 20, Type 0, BuildingBlock: QUQFOY_clean_sbu_1, # of connection points: 4
#     Node 21, Type 0, BuildingBlock: QUQFOY_clean_sbu_1, # of connection points: 4
#     Node 22, Type 0, BuildingBlock: QUQFOY_clean_sbu_1, # of connection points: 4
#     Node 23, Type 0, BuildingBlock: QUQFOY_clean_sbu_1, # of connection points: 4
#     Node 24, Type 0, BuildingBlock: QUQFOY_clean_sbu_1, # of connection points: 4
#     Node 25, Type 0, BuildingBlock: QUQFOY_clean_sbu_1, # of connection points: 4
#     Node 26, Type 0, BuildingBlock: QUQFOY_clean_sbu_1, # of connection points: 4
#     Node 27, Type 0, BuildingBlock: QUQFOY_clean_sbu_1, # of connection points: 4
#     Node 28, Type 0, BuildingBlock: QUQFOY_clean_sbu_1, # of connection points: 4
#     Node 29, Type 0, BuildingBlock: QUQFOY_clean_sbu_1, # of connection points: 4
#     Node 30, Type 0, BuildingBlock: QUQFOY_clean_sbu_1, # of connection points: 4
#     Node 31, Type 0, BuildingBlock: QUQFOY_clean_sbu_1, # of connection points: 4
#     Edge 32, Type (0, 0), BuildingBlock: CIFDUS_clean_linker_0, # of connection points: 2
#     Edge 33, Type (0, 0), BuildingBlock: CIFDUS_clean_linker_0, # of connection points: 2
#     Edge 34, Type (0, 0), BuildingBlock: CIFDUS_clean_linker_0, # of connection points: 2
#     Edge 35, Type (0, 0), BuildingBlock: CIFDUS_clean_linker_0, # of connection points: 2
#     Edge 36, Type (0, 0), BuildingBlock: CIFDUS_clean_linker_0, # of connection points: 2
#     Edge 37, Type (0, 0), BuildingBlock: CIFDUS_clean_linker_0, # of connection points: 2
#     Edge 38, Type (0, 0), BuildingBlock: CIFDUS_clean_linker_0, # of connection points: 2
#     Edge 39, Type (0, 0), BuildingBlock: CIFDUS_clean_linker_0, # of connection points: 2
#     Edge 40, Type (0, 0), BuildingBlock: CIFDUS_clean_linker_0, # of connection points: 2
#     Edge 41, Type (0, 0), BuildingBlock: CIFDUS_clean_linker_0, # of connection points: 2
#     Edge 42, Type (0, 0), BuildingBlock: CIFDUS_clean_linker_0, # of connection points: 2
#     Edge 43, Type (0, 0), BuildingBlock: CIFDUS_clean_linker_0, # of connection points: 2
#     Edge 44, Type (0, 0), BuildingBlock: CIFDUS_clean_linker_0, # of connection points: 2
#     Edge 45, Type (0, 0), BuildingBlock: CIFDUS_clean_linker_0, # of connection points: 2
#     Edge 46, Type (0, 0), BuildingBlock: CIFDUS_clean_linker_0, # of connection points: 2
#     Edge 47, Type (0, 0), BuildingBlock: CIFDUS_clean_linker_0, # of connection points: 2
#     Edge 48, Type (0, 0), BuildingBlock: CIFDUS_clean_linker_0, # of connection points: 2
#     Edge 49, Type (0, 0), BuildingBlock: CIFDUS_clean_linker_0, # of connection points: 2
#     Edge 50, Type (0, 0), BuildingBlock: CIFDUS_clean_linker_0, # of connection points: 2
#     Edge 51, Type (0, 0), BuildingBlock: CIFDUS_clean_linker_0, # of connection points: 2
#     Edge 52, Type (0, 0), BuildingBlock: CIFDUS_clean_linker_0, # of connection points: 2
#     Edge 53, Type (0, 0), BuildingBlock: CIFDUS_clean_linker_0, # of connection points: 2
#     Edge 54, Type (0, 0), BuildingBlock: CIFDUS_clean_linker_0, # of connection points: 2
#     Edge 55, Type (0, 0), BuildingBlock: CIFDUS_clean_linker_0, # of connection points: 2
#     Edge 56, Type (0, 0), BuildingBlock: CIFDUS_clean_linker_0, # of connection points: 2
#     Edge 57, Type (0, 0), BuildingBlock: CIFDUS_clean_linker_0, # of connection points: 2
#     Edge 58, Type (0, 0), BuildingBlock: CIFDUS_clean_linker_0, # of connection points: 2
#     Edge 59, Type (0, 0), BuildingBlock: CIFDUS_clean_linker_0, # of connection points: 2
#     Edge 60, Type (0, 0), BuildingBlock: CIFDUS_clean_linker_0, # of connection points: 2
#     Edge 61, Type (0, 0), BuildingBlock: CIFDUS_clean_linker_0, # of connection points: 2
#     Edge 62, Type (0, 0), BuildingBlock: CIFDUS_clean_linker_0, # of connection points: 2
#     Edge 63, Type (0, 0), BuildingBlock: CIFDUS_clean_linker_0, # of connection points: 2
#     Edge 64, Type (0, 0), BuildingBlock: CIFDUS_clean_linker_0, # of connection points: 2
#     Edge 65, Type (0, 0), BuildingBlock: CIFDUS_clean_linker_0, # of connection points: 2
#     Edge 66, Type (0, 0), BuildingBlock: CIFDUS_clean_linker_0, # of connection points: 2
#     Edge 67, Type (0, 0), BuildingBlock: CIFDUS_clean_linker_0, # of connection points: 2
#     Edge 68, Type (0, 0), BuildingBlock: CIFDUS_clean_linker_0, # of connection points: 2
#     Edge 69, Type (0, 0), BuildingBlock: CIFDUS_clean_linker_0, # of connection points: 2
#     Edge 70, Type (0, 0), BuildingBlock: CIFDUS_clean_linker_0, # of connection points: 2
#     Edge 71, Type (0, 0), BuildingBlock: CIFDUS_clean_linker_0, # of connection points: 2
#     Edge 72, Type (0, 0), BuildingBlock: CIFDUS_clean_linker_0, # of connection points: 2
#     Edge 73, Type (0, 0), BuildingBlock: CIFDUS_clean_linker_0, # of connection points: 2
#     Edge 74, Type (0, 0), BuildingBlock: CIFDUS_clean_linker_0, # of connection points: 2
#     Edge 75, Type (0, 0), BuildingBlock: CIFDUS_clean_linker_0, # of connection points: 2
#     Edge 76, Type (0, 0), BuildingBlock: CIFDUS_clean_linker_0, # of connection points: 2
#     Edge 77, Type (0, 0), BuildingBlock: CIFDUS_clean_linker_0, # of connection points: 2
#     Edge 78, Type (0, 0), BuildingBlock: CIFDUS_clean_linker_0, # of connection points: 2
#     Edge 79, Type (0, 0), BuildingBlock: CIFDUS_clean_linker_0, # of connection points: 2
#     Edge 80, Type (0, 0), BuildingBlock: CIFDUS_clean_linker_0, # of connection points: 2
#     Edge 81, Type (0, 0), BuildingBlock: CIFDUS_clean_linker_0, # of connection points: 2
#     Edge 82, Type (0, 0), BuildingBlock: CIFDUS_clean_linker_0, # of connection points: 2
#     Edge 83, Type (0, 0), BuildingBlock: CIFDUS_clean_linker_0, # of connection points: 2
#     Edge 84, Type (0, 0), BuildingBlock: CIFDUS_clean_linker_0, # of connection points: 2
#     Edge 85, Type (0, 0), BuildingBlock: CIFDUS_clean_linker_0, # of connection points: 2
#     Edge 86, Type (0, 0), BuildingBlock: CIFDUS_clean_linker_0, # of connection points: 2
#     Edge 87, Type (0, 0), BuildingBlock: CIFDUS_clean_linker_0, # of connection points: 2
#     Edge 88, Type (0, 0), BuildingBlock: CIFDUS_clean_linker_0, # of connection points: 2
#     Edge 89, Type (0, 0), BuildingBlock: CIFDUS_clean_linker_0, # of connection points: 2
#     Edge 90, Type (0, 0), BuildingBlock: CIFDUS_clean_linker_0, # of connection points: 2
#     Edge 91, Type (0, 0), BuildingBlock: CIFDUS_clean_linker_0, # of connection points: 2
#     Edge 92, Type (0, 0), BuildingBlock: CIFDUS_clean_linker_0, # of connection points: 2
#     Edge 93, Type (0, 0), BuildingBlock: CIFDUS_clean_linker_0, # of connection points: 2
#     Edge 94, Type (0, 0), BuildingBlock: CIFDUS_clean_linker_0, # of connection points: 2
#     Edge 95, Type (0, 0), BuildingBlock: CIFDUS_clean_linker_0, # of connection points: 2
# Relax obj value: 0.021
# Max RMSD: 0.081
# Mean RMSD: 0.081
data_MOF--net-uke--node1-QUQFOY_clean_sbu_1--edge1-CIFDUS_clean_linker_0
_symmetry_space_group_name_H-M    P1
_symmetry_Int_Tables_number       1
_symmetry_cell_setting            triclinic
loop_
_symmetry_equiv_pos_as_xyz
'x, y, z'
_cell_length_a     22.244609
_cell_length_b     97.555155
_cell_length_c     45.736437
_cell_angle_alpha  90.072179
_cell_angle_beta   90.242052
_cell_angle_gamma 89.983037
loop_
_atom_site_label
_atom_site_type_symbol
_atom_site_fract_x
_atom_site_fract_y
_atom_site_fract_z
_atom_type_partial_charge
O0 O 0.07047 0.10256 0.28703 0.0
Cd1 Cd 0.05001 0.08236 0.27844 0.0
Cd2 Cd 0.16786 0.08132 0.27597 0.0
O3 O 0.16541 0.09947 0.29968 0.0
O4 O 0.96863 0.07856 0.29579 0.0
O5 O 0.05379 0.07066 0.31434 0.0
C6 C 0.9964 0.07218 0.31658 0.0
C7 C 0.20838 0.05989 0.28473 0.0
C8 C 0.1192 0.10718 0.29789 0.0
C9 C 0.10466 0.07871 0.21991 0.0
O10 O 0.15149 0.08325 0.23249 0.0
O11 O 0.05808 0.07584 0.23491 0.0
O12 O 0.24288 0.07003 0.27773 0.0
O13 O 0.15269 0.06244 0.29035 0.0
O14 O 0.23487 0.19136 0.28606 0.0
Cd15 Cd 0.25383 0.21148 0.27584 0.0
Cd16 Cd 0.13661 0.21231 0.27642 0.0
O17 O 0.14121 0.19434 0.30039 0.0
O18 O 0.3394 0.21461 0.28818 0.0
O19 O 0.26184 0.22381 0.31106 0.0
C20 C 0.31905 0.22165 0.30994 0.0
C21 C 0.09578 0.23362 0.28565 0.0
C22 C 0.18743 0.1867 0.29791 0.0
C23 C 0.19204 0.21434 0.21853 0.0
O24 O 0.14675 0.21006 0.23255 0.0
O25 O 0.24048 0.21732 0.23217 0.0
O26 O 0.06137 0.22328 0.27977 0.0
O27 O 0.15234 0.23134 0.29013 0.0
O28 O 0.05757 0.19095 0.98232 0.0
Cd29 Cd 0.04195 0.21129 0.9922 0.0
Cd30 Cd 0.15851 0.21123 0.99155 0.0
O31 O 0.15074 0.19341 0.96701 0.0
O32 O 0.95647 0.21495 0.98056 0.0
O33 O 0.03423 0.22351 0.95678 0.0
C34 C 0.97678 0.22173 0.95848 0.0
C35 C 0.2058 0.23201 0.98403 0.0
C36 C 0.10398 0.18601 0.97001 0.0
C37 C 0.10491 0.21369 0.04934 0.0
O38 O 0.14888 0.2087 0.03538 0.0
O39 O 0.05736 0.21729 0.03565 0.0
O40 O 0.23686 0.22095 0.98787 0.0
O41 O 0.14832 0.23086 0.98029 0.0
O42 O 0.21135 0.10123 0.98211 0.0
Cd43 Cd 0.22855 0.08089 0.9909 0.0
Cd44 Cd 0.11211 0.08058 0.9927 0.0
O45 O 0.11709 0.09848 0.96823 0.0
O46 O 0.31011 0.07673 0.97442 0.0
O47 O 0.22525 0.06901 0.95507 0.0
C48 C 0.28288 0.07041 0.95334 0.0
C49 C 0.06437 0.05973 0.98587 0.0
C50 C 0.16369 0.10603 0.97055 0.0
C51 C 0.17253 0.07808 0.04917 0.0
O52 O 0.12692 0.08303 0.03625 0.0
O53 O 0.21868 0.0746 0.03442 0.0
O54 O 0.03357 0.07075 0.99061 0.0
O55 O 0.12134 0.06097 0.98102 0.0
O56 O 0.94944 0.94254 0.72984 0.0
Cd57 Cd 0.97549 0.96228 0.74015 0.0
Cd58 Cd 0.85965 0.96534 0.74182 0.0
O59 O 0.85648 0.94758 0.71695 0.0
O60 O 0.06104 0.96397 0.72761 0.0
O61 O 0.98591 0.97471 0.70543 0.0
C62 C 0.04237 0.97159 0.70638 0.0
C63 C 0.81417 0.98651 0.73561 0.0
C64 C 0.89947 0.93897 0.71855 0.0
C65 C 0.92115 0.96587 0.79847 0.0
O66 O 0.87314 0.96241 0.78539 0.0
O67 O 0.96871 0.96815 0.78384 0.0
O68 O 0.78255 0.97565 0.74054 0.0
O69 O 0.8709 0.98499 0.73034 0.0
O70 O 0.85247 0.85427 0.7291 0.0
Cd71 Cd 0.82693 0.83438 0.73802 0.0
Cd72 Cd 0.94259 0.83146 0.74082 0.0
O73 O 0.94533 0.84929 0.71622 0.0
O74 O 0.74421 0.83178 0.72137 0.0
O75 O 0.82579 0.82226 0.70254 0.0
C76 C 0.76882 0.82474 0.70067 0.0
C77 C 0.98638 0.81012 0.73461 0.0
C78 C 0.90235 0.85789 0.71801 0.0
C79 C 0.87985 0.83049 0.79678 0.0
O80 O 0.92777 0.83427 0.78424 0.0
O81 O 0.83277 0.82807 0.78163 0.0
O82 O 1.01903 0.8208 0.73991 0.0
O83 O 0.92991 0.81194 0.72897 0.0
O84 O 0.97415 0.85315 0.03597 0.0
Cd85 Cd 0.99383 0.83293 0.02751 0.0
Cd86 Cd 0.87647 0.83233 0.0238 0.0
O87 O 0.87908 0.85032 0.04821 0.0
O88 O 0.07569 0.82939 0.04472 0.0
O89 O 0.99147 0.82131 0.0636 0.0
C90 C 0.0488 0.82306 0.06574 0.0
C91 C 0.83708 0.81066 0.03109 0.0
C92 C 0.92575 0.85789 0.04673 0.0
C93 C 0.94081 0.82989 0.96844 0.0
O94 O 0.89427 0.8347 0.98064 0.0
O95 O 0.9864 0.82654 0.98389 0.0
O96 O 0.80208 0.82079 0.02436 0.0
O97 O 0.89252 0.81333 0.03738 0.0
O98 O 0.82003 0.94293 0.03553 0.0
Cd99 Cd 0.80565 0.96344 0.02806 0.0
Cd100 Cd 0.92114 0.96302 0.02537 0.0
O101 O 0.91409 0.9452 0.05006 0.0
O102 O 0.72611 0.96813 0.04584 0.0
O103 O 0.81356 0.97471 0.06448 0.0
C104 C 0.75586 0.97383 0.06693 0.0
C105 C 0.97027 0.98375 0.03155 0.0
C106 C 0.86694 0.93786 0.04727 0.0
C107 C 0.85888 0.96606 0.96963 0.0
O108 O 0.90389 0.96056 0.98205 0.0
O109 O 0.81429 0.97006 0.98487 0.0
O110 O 1.00043 0.97263 0.02678 0.0
O111 O 0.91341 0.98267 0.03679 0.0
O112 O 0.09672 0.60124 0.78959 0.0
Cd113 Cd 0.0695 0.5815 0.78014 0.0
Cd114 Cd 0.18545 0.57824 0.77724 0.0
O115 O 0.18953 0.59593 0.80231 0.0
O116 O 0.98724 0.57917 0.79739 0.0
O117 O 0.06882 0.56921 0.81537 0.0
C118 C 1.01222 0.572 0.81784 0.0
C119 C 0.23289 0.55719 0.78259 0.0
C120 C 0.14704 0.60467 0.80072 0.0
C121 C 0.12106 0.57807 0.72108 0.0
O122 O 0.16945 0.58142 0.73395 0.0
O123 O 0.07395 0.57564 0.73605 0.0
O124 O 0.26343 0.56816 0.77728 0.0
O125 O 0.17637 0.55851 0.78851 0.0
O126 O 0.19856 0.68912 0.78848 0.0
Cd127 Cd 0.22482 0.70893 0.77931 0.0
Cd128 Cd 0.10944 0.712 0.77641 0.0
O129 O 0.10637 0.69444 0.80184 0.0
O130 O 0.30667 0.7117 0.79717 0.0
O131 O 0.22372 0.72105 0.81487 0.0
C132 C 0.28059 0.71862 0.81763 0.0
C133 C 0.06584 0.73344 0.78165 0.0
C134 C 0.14879 0.6857 0.79999 0.0
C135 C 0.17173 0.71233 0.7203 0.0
O136 O 0.12406 0.70863 0.73315 0.0
O137 O 0.21886 0.71499 0.7353 0.0
O138 O 0.0331 0.72272 0.77683 0.0
O139 O 0.12232 0.73164 0.78728 0.0
O140 O 0.08295 0.68979 0.47879 0.0
Cd141 Cd 0.05202 0.70912 0.48951 0.0
Cd142 Cd 0.16704 0.7134 0.4915 0.0
O143 O 0.17503 0.6958 0.46659 0.0
O144 O 0.96601 0.70993 0.47631 0.0
O145 O 0.03888 0.72146 0.45461 0.0
C146 C 0.98317 0.71774 0.45516 0.0
C147 C 0.20113 0.7355 0.48429 0.0
C148 C 0.13373 0.68678 0.46779 0.0
C149 C 0.10675 0.71291 0.54834 0.0
O150 O 0.1552 0.71021 0.53505 0.0
O151 O 0.05836 0.71472 0.53376 0.0
O152 O 0.23818 0.72571 0.49056 0.0
O153 O 0.14592 0.73232 0.47841 0.0
O154 O 0.19931 0.60285 0.47965 0.0
Cd155 Cd 0.23014 0.58342 0.48964 0.0
Cd156 Cd 0.11422 0.57927 0.49282 0.0
O157 O 0.10644 0.59693 0.46814 0.0
O158 O 0.31286 0.58145 0.47246 0.0
O159 O 0.2325 0.5709 0.45477 0.0
C160 C 0.28881 0.5739 0.45235 0.0
C161 C 0.07695 0.55738 0.4857 0.0
C162 C 0.14803 0.6059 0.46904 0.0
C163 C 0.17914 0.57937 0.54886 0.0
O164 O 0.13001 0.58225 0.53617 0.0
O165 O 0.22663 0.57756 0.53377 0.0
O166 O 0.04147 0.56734 0.49273 0.0
O167 O 0.13198 0.56028 0.47919 0.0
O168 O 0.94862 0.43765 0.2287 0.0
Cd169 Cd 0.97566 0.4573 0.23938 0.0
Cd170 Cd 0.86022 0.46062 0.24142 0.0
O171 O 0.85665 0.44333 0.21528 0.0
O172 O 0.05808 0.46013 0.22277 0.0
O173 O 0.97619 0.47007 0.20503 0.0
C174 C 0.03306 0.46758 0.20279 0.0
C175 C 0.81571 0.48194 0.23624 0.0
C176 C 0.89866 0.43447 0.21684 0.0
C177 C 0.92219 0.46035 0.29804 0.0
O178 O 0.87429 0.45701 0.28472 0.0
O179 O 0.96971 0.46289 0.2835 0.0
O180 O 0.78346 0.47115 0.24084 0.0
O181 O 0.87231 0.4803 0.23094 0.0
O182 O 0.83533 0.35083 0.22803 0.0
Cd183 Cd 0.80348 0.33178 0.24038 0.0
Cd184 Cd 0.91907 0.32736 0.24282 0.0
O185 O 0.92808 0.34468 0.21732 0.0
O186 O 0.71697 0.33129 0.2283 0.0
O187 O 0.78717 0.31868 0.20712 0.0
C188 C 0.73194 0.32277 0.208 0.0
C189 C 0.95629 0.3054 0.23688 0.0
C190 C 0.88664 0.35369 0.21745 0.0
C191 C 0.85721 0.32871 0.29938 0.0
O192 O 0.90613 0.33099 0.28616 0.0
O193 O 0.80892 0.32694 0.28477 0.0
O194 O 0.99168 0.3155 0.24312 0.0
O195 O 0.90092 0.30814 0.23035 0.0
O196 O 0.94337 0.35172 0.54148 0.0
Cd197 Cd 0.96949 0.33204 0.53066 0.0
Cd198 Cd 0.85439 0.32911 0.52727 0.0
O199 O 0.85087 0.34624 0.5539 0.0
O200 O 0.05124 0.32883 0.54792 0.0
O201 O 0.96838 0.31901 0.56455 0.0
C202 C 0.02537 0.32128 0.56735 0.0
C203 C 0.80807 0.30793 0.53093 0.0
C204 C 0.89329 0.35499 0.55289 0.0
C205 C 0.91785 0.32951 0.47146 0.0
O206 O 0.86989 0.33303 0.48431 0.0
O207 O 0.96465 0.32666 0.48646 0.0
O208 O 0.77682 0.31892 0.52662 0.0
O209 O 0.86467 0.30925 0.53683 0.0
O210 O 0.83303 0.43877 0.5407 0.0
Cd211 Cd 0.80227 0.45792 0.52828 0.0
Cd212 Cd 0.91781 0.46213 0.5268 0.0
O213 O 0.9258 0.44472 0.5522 0.0
O214 O 0.71619 0.45898 0.54085 0.0
O215 O 0.7888 0.47109 0.56162 0.0
C216 C 0.73309 0.46736 0.56114 0.0
C217 C 0.9521 0.48424 0.53391 0.0
C218 C 0.88406 0.43579 0.55168 0.0
C219 C 0.85731 0.46105 0.46964 0.0
O220 O 0.90592 0.45869 0.48327 0.0
O221 O 0.80873 0.46283 0.48386 0.0
O222 O 0.98906 0.47443 0.52784 0.0
O223 O 0.89686 0.48111 0.53955 0.0
O224 O 0.57114 0.10296 0.78958 0.0
Cd225 Cd 0.55594 0.08254 0.78047 0.0
Cd226 Cd 0.67279 0.08302 0.77742 0.0
O227 O 0.6664 0.10079 0.80229 0.0
O228 O 0.47497 0.07793 0.79706 0.0
O229 O 0.56071 0.07054 0.81603 0.0
C230 C 0.50297 0.07163 0.8179 0.0
C231 C 0.72176 0.0623 0.78362 0.0
C232 C 0.61874 0.10803 0.80069 0.0
C233 C 0.61039 0.08012 0.72161 0.0
O234 O 0.65587 0.0854 0.73405 0.0
O235 O 0.56532 0.07637 0.73682 0.0
O236 O 0.752 0.0734 0.77882 0.0
O237 O 0.66492 0.06342 0.78896 0.0
O238 O 0.71354 0.19302 0.78628 0.0
Cd239 Cd 0.7277 0.21335 0.77635 0.0
Cd240 Cd 0.61252 0.21349 0.78227 0.0
O241 O 0.62462 0.19571 0.8066 0.0
O242 O 0.81385 0.21726 0.78653 0.0
O243 O 0.73717 0.22514 0.81222 0.0
C244 C 0.79456 0.22355 0.80954 0.0
C245 C 0.56829 0.23457 0.7906 0.0
C246 C 0.67013 0.1882 0.80108 0.0
C247 C 0.65448 0.21582 0.72241 0.0
O248 O 0.61392 0.21065 0.73834 0.0
O249 O 0.70435 0.21956 0.73381 0.0
O250 O 0.53587 0.22358 0.78885 0.0
O251 O 0.62608 0.23319 0.79206 0.0
O252 O 0.5677 0.19194 0.48559 0.0
Cd253 Cd 0.55674 0.21242 0.49497 0.0
Cd254 Cd 0.67187 0.21159 0.48867 0.0
O255 O 0.65572 0.19407 0.46409 0.0
O256 O 0.47165 0.21723 0.48418 0.0
O257 O 0.55064 0.22385 0.45859 0.0
C258 C 0.49295 0.223 0.46099 0.0
C259 C 0.71516 0.23266 0.47994 0.0
C260 C 0.60964 0.18686 0.47017 0.0
C261 C 0.6316 0.21456 0.5485 0.0
O262 O 0.67072 0.20879 0.53259 0.0
O263 O 0.58248 0.2188 0.53712 0.0
O264 O 0.74818 0.22175 0.48133 0.0
O265 O 0.65744 0.23117 0.47914 0.0
O266 O 0.70738 0.10206 0.48156 0.0
Cd267 Cd 0.72654 0.08194 0.49128 0.0
Cd268 Cd 0.6081 0.08156 0.49464 0.0
O269 O 0.61152 0.09944 0.47013 0.0
O270 O 0.80825 0.07808 0.47443 0.0
O271 O 0.72372 0.06981 0.4559 0.0
C272 C 0.78104 0.07148 0.45374 0.0
C273 C 0.56766 0.06008 0.48635 0.0
C274 C 0.65879 0.10683 0.4709 0.0
C275 C 0.67303 0.07922 0.55037 0.0
O276 O 0.62601 0.08375 0.53795 0.0
O277 O 0.71903 0.07605 0.53519 0.0
O278 O 0.53309 0.07025 0.49327 0.0
O279 O 0.62332 0.06264 0.48063 0.0
O280 O 0.45738 0.94179 0.23004 0.0
Cd281 Cd 0.48532 0.9613 0.24089 0.0
Cd282 Cd 0.36878 0.96485 0.24209 0.0
O283 O 0.36474 0.9472 0.2169 0.0
O284 O 0.56751 0.96429 0.22381 0.0
O285 O 0.4848 0.97408 0.20677 0.0
C286 C 0.54161 0.97177 0.20414 0.0
C287 C 0.33159 0.98681 0.23532 0.0
C288 C 0.4073 0.93846 0.21848 0.0
C289 C 0.43031 0.96461 0.29912 0.0
O290 O 0.38251 0.96158 0.28541 0.0
O291 O 0.47869 0.96685 0.28502 0.0
O292 O 0.29573 0.9768 0.24149 0.0
O293 O 0.38691 0.98395 0.22952 0.0
O294 O 0.35462 0.85425 0.22976 0.0
Cd295 Cd 0.32601 0.83471 0.23969 0.0
Cd296 Cd 0.4424 0.83133 0.24424 0.0
O297 O 0.44829 0.84887 0.21891 0.0
O298 O 0.2437 0.83222 0.22201 0.0
O299 O 0.32556 0.8222 0.20489 0.0
C300 C 0.26896 0.82479 0.20213 0.0
C301 C 0.47533 0.80904 0.2377 0.0
C302 C 0.40556 0.85758 0.21938 0.0
C303 C 0.37636 0.83132 0.29941 0.0
O304 O 0.42535 0.83462 0.28725 0.0
O305 O 0.32977 0.82896 0.28381 0.0
O306 O 0.5131 0.81865 0.24429 0.0
O307 O 0.42077 0.8125 0.23138 0.0
O308 O 0.44513 0.85434 0.54221 0.0
Cd309 Cd 0.47676 0.835 0.53193 0.0
Cd310 Cd 0.36112 0.8307 0.52758 0.0
O311 O 0.35188 0.84834 0.5523 0.0
O312 O 0.55986 0.83335 0.5489 0.0
O313 O 0.481 0.82224 0.56629 0.0
C314 C 0.53712 0.82548 0.56866 0.0
C315 C 0.32434 0.80873 0.53398 0.0
C316 C 0.39336 0.85734 0.55211 0.0
C317 C 0.42768 0.83118 0.4722 0.0
O318 O 0.37801 0.83382 0.48445 0.0
O319 O 0.47483 0.82943 0.48772 0.0
O320 O 0.28879 0.81865 0.52668 0.0
O321 O 0.37908 0.81171 0.54116 0.0
O322 O 0.32774 0.94107 0.5393 0.0
Cd323 Cd 0.29738 0.96028 0.52714 0.0
Cd324 Cd 0.41222 0.96467 0.5276 0.0
O325 O 0.41892 0.94725 0.55306 0.0
O326 O 0.21075 0.96138 0.53871 0.0
O327 O 0.28288 0.97317 0.56075 0.0
C328 C 0.22707 0.96957 0.55947 0.0
C329 C 0.4445 0.98692 0.53497 0.0
C330 C 0.37784 0.93818 0.55136 0.0
C331 C 0.35615 0.96386 0.46965 0.0
O332 O 0.40367 0.96121 0.48391 0.0
O333 O 0.30681 0.96569 0.48318 0.0
O334 O 0.48254 0.97721 0.52972 0.0
O335 O 0.38914 0.98362 0.53979 0.0
O336 O 0.59944 0.60246 0.29224 0.0
Cd337 Cd 0.57228 0.58287 0.2815 0.0
Cd338 Cd 0.68783 0.5796 0.27863 0.0
O339 O 0.69198 0.59686 0.30485 0.0
O340 O 0.4898 0.58036 0.29825 0.0
O341 O 0.57115 0.57024 0.31613 0.0
C342 C 0.51451 0.573 0.31847 0.0
C343 C 0.73221 0.55827 0.28374 0.0
C344 C 0.64961 0.60564 0.30384 0.0
C345 C 0.62448 0.57989 0.22236 0.0
O346 O 0.67281 0.58318 0.23537 0.0
O347 O 0.57732 0.57738 0.23723 0.0
O348 O 0.76444 0.56904 0.27894 0.0
O349 O 0.67569 0.55993 0.28926 0.0
O350 O 0.69445 0.689 0.28918 0.0
Cd351 Cd 0.72125 0.70827 0.27594 0.0
Cd352 Cd 0.60716 0.71199 0.28211 0.0
O353 O 0.60888 0.6952 0.30954 0.0
O354 O 0.80958 0.70994 0.28543 0.0
O355 O 0.73845 0.72062 0.31024 0.0
C356 C 0.79441 0.71739 0.30761 0.0
C357 C 0.58227 0.73479 0.28845 0.0
C358 C 0.64914 0.68616 0.30497 0.0
C359 C 0.64766 0.71065 0.22192 0.0
O360 O 0.60567 0.70714 0.23897 0.0
O361 O 0.69903 0.71384 0.23256 0.0
O362 O 0.54067 0.72555 0.28674 0.0
O363 O 0.63754 0.73081 0.2901 0.0
O364 O 0.59526 0.69097 0.9817 0.0
Cd365 Cd 0.56376 0.7103 0.99159 0.0
Cd366 Cd 0.67963 0.71561 0.98881 0.0
O367 O 0.68497 0.69721 0.96597 0.0
O368 O 0.48003 0.71224 0.97483 0.0
O369 O 0.56015 0.72235 0.95617 0.0
C370 C 0.50371 0.7194 0.95407 0.0
C371 C 0.71527 0.73754 0.97989 0.0
C372 C 0.64481 0.68801 0.96936 0.0
C373 C 0.62616 0.71583 0.04779 0.0
O374 O 0.67272 0.71351 0.03275 0.0
O375 O 0.57477 0.71664 0.03535 0.0
O376 O 0.75197 0.72765 0.98588 0.0
O377 O 0.65966 0.73451 0.97489 0.0
O378 O 0.70626 0.60361 0.98127 0.0
Cd379 Cd 0.73384 0.58388 0.99092 0.0
Cd380 Cd 0.61795 0.58043 0.99415 0.0
O381 O 0.61339 0.59808 0.96905 0.0
O382 O 0.81559 0.58119 0.97324 0.0
O383 O 0.73307 0.57133 0.95602 0.0
C384 C 0.78981 0.57388 0.95323 0.0
C385 C 0.57073 0.55932 0.98905 0.0
C386 C 0.65556 0.60691 0.97037 0.0
C387 C 0.68287 0.5804 0.05014 0.0
O388 O 0.63422 0.58365 0.03741 0.0
O389 O 0.72995 0.57809 0.03505 0.0
O390 O 0.54009 0.57029 0.9944 0.0
O391 O 0.62712 0.56067 0.9829 0.0
O392 O 0.47465 0.43981 0.7349 0.0
Cd393 Cd 0.49119 0.46012 0.7444 0.0
Cd394 Cd 0.37481 0.46022 0.74526 0.0
O395 O 0.38078 0.44245 0.72042 0.0
O396 O 0.57613 0.46353 0.73213 0.0
O397 O 0.49742 0.4721 0.7087 0.0
C398 C 0.55486 0.47019 0.71001 0.0
C399 C 0.32808 0.48111 0.73774 0.0
C400 C 0.42753 0.43498 0.72288 0.0
C401 C 0.43286 0.46266 0.80226 0.0
O402 O 0.38764 0.4577 0.78901 0.0
O403 O 0.47916 0.46625 0.78779 0.0
O404 O 0.29676 0.47015 0.7422 0.0
O405 O 0.3853 0.47979 0.73359 0.0
O406 O 0.31845 0.35033 0.7314 0.0
Cd407 Cd 0.30151 0.32999 0.74015 0.0
Cd408 Cd 0.41752 0.32996 0.74362 0.0
O409 O 0.41301 0.34763 0.71841 0.0
O410 O 0.22032 0.32585 0.7232 0.0
O411 O 0.30537 0.318 0.70453 0.0
C412 C 0.24775 0.31946 0.70241 0.0
C413 C 0.46762 0.30929 0.73882 0.0
C414 C 0.36626 0.35514 0.72023 0.0
C415 C 0.35423 0.32776 0.7991 0.0
O416 O 0.39995 0.33284 0.78672 0.0
O417 O 0.30928 0.32389 0.78378 0.0
O418 O 0.4971 0.32052 0.74344 0.0
O419 O 0.41083 0.31017 0.73291 0.0
O420 O 0.44349 0.35104 0.04022 0.0
Cd421 Cd 0.47026 0.3314 0.02942 0.0
Cd422 Cd 0.35339 0.32827 0.02708 0.0
O423 O 0.35029 0.34594 0.05224 0.0
O424 O 0.55646 0.32997 0.04153 0.0
O425 O 0.48318 0.31877 0.06375 0.0
C426 C 0.53936 0.3221 0.06256 0.0
C427 C 0.30577 0.3073 0.03252 0.0
C428 C 0.39328 0.35455 0.05116 0.0
C429 C 0.41563 0.32806 0.97074 0.0
O430 O 0.36746 0.33137 0.98365 0.0
O431 O 0.46323 0.32577 0.98554 0.0
O432 O 0.27528 0.31832 0.02752 0.0
O433 O 0.36256 0.30851 0.03822 0.0
O434 O 0.34277 0.4392 0.04144 0.0
Cd435 Cd 0.3162 0.459 0.03217 0.0
Cd436 Cd 0.43212 0.46222 0.02965 0.0
O437 O 0.43584 0.44433 0.05409 0.0
O438 O 0.23408 0.46156 0.04919 0.0
O439 O 0.31601 0.47137 0.06729 0.0
C440 C 0.25921 0.46878 0.06955 0.0
C441 C 0.47952 0.48325 0.03547 0.0
C442 C 0.3931 0.43566 0.0524 0.0
C443 C 0.36766 0.46276 0.97343 0.0
O444 O 0.41608 0.4594 0.98626 0.0
O445 O 0.32031 0.46498 0.98832 0.0
O446 O 0.51011 0.4723 0.0299 0.0
O447 O 0.42309 0.48189 0.04153 0.0
H448 H 0.07313 0.07705 0.08299 0.0
H449 H 0.26688 0.0754 0.08748 0.0
H450 H 0.26215 0.07471 0.14095 0.0
H451 H 0.20324 0.07602 0.18607 0.0
H452 H 1.00945 0.07733 0.18168 0.0
H453 H 1.0139 0.07659 0.12817 0.0
C454 C 0.11441 0.07651 0.09565 0.0
C455 C 0.17042 0.07648 0.08131 0.0
C456 C 0.11126 0.07608 0.12625 0.0
C457 C 0.22334 0.07549 0.09798 0.0
C458 C 0.2206 0.07514 0.12852 0.0
C459 C 0.16186 0.0761 0.17343 0.0
C460 C 0.10601 0.07694 0.18779 0.0
C461 C 0.16486 0.07566 0.14283 0.0
C462 C 0.0529 0.07675 0.17114 0.0
C463 C 0.05549 0.07637 0.14058 0.0
H464 H 0.20796 0.21471 0.08095 0.0
H465 H 1.01497 0.21643 0.08972 0.0
H466 H 0.02565 0.2174 0.14301 0.0
H467 H 0.08958 0.2165 0.18682 0.0
H468 H 0.28264 0.21526 0.17809 0.0
H469 H 0.27216 0.21547 0.12474 0.0
C470 C 0.16815 0.21531 0.0945 0.0
C471 C 0.11062 0.2153 0.08142 0.0
C472 C 0.17471 0.21594 0.12499 0.0
C473 C 0.05964 0.21637 0.09925 0.0
C474 C 0.06577 0.21689 0.12968 0.0
C475 C 0.12947 0.21631 0.17327 0.0
C476 C 0.18689 0.21568 0.18638 0.0
C477 C 0.12304 0.21647 0.14275 0.0
C478 C 0.23804 0.21571 0.16853 0.0
C479 C 0.23201 0.21577 0.13806 0.0
H480 H 0.95689 0.96616 0.93505 0.0
H481 H 0.76353 0.96971 0.93227 0.0
H482 H 0.76642 0.9705 0.87874 0.0
H483 H 0.82362 0.96889 0.83306 0.0
H484 H 1.01716 0.96576 0.83607 0.0
H485 H 1.01449 0.96616 0.88955 0.0
C486 C 0.91529 0.96713 0.92276 0.0
C487 C 0.85992 0.96768 0.93754 0.0
C488 C 0.91741 0.96761 0.89218 0.0
C489 C 0.80661 0.96922 0.92136 0.0
C490 C 0.80828 0.96962 0.89081 0.0
C491 C 0.86529 0.96832 0.84541 0.0
C492 C 0.92053 0.96711 0.83066 0.0
C493 C 0.86337 0.96861 0.87603 0.0
C494 C 0.97414 0.96664 0.84692 0.0
C495 C 0.97258 0.96683 0.87746 0.0
H496 H 0.8431 0.82896 0.9332 0.0
H497 H 0.03699 0.82729 0.93148 0.0
H498 H 0.03454 0.82674 0.87792 0.0
H499 H 0.97744 0.82808 0.83197 0.0
H500 H 0.78348 0.82946 0.83383 0.0
H501 H 0.78585 0.82871 0.88733 0.0
C502 C 0.88494 0.82845 0.92114 0.0
C503 C 0.94029 0.82836 0.93627 0.0
C504 C 0.88309 0.82813 0.89052 0.0
C505 C 0.99392 0.82742 0.92035 0.0
C506 C 0.99248 0.82715 0.88976 0.0
C507 C 0.93558 0.82819 0.84405 0.0
C508 C 0.88028 0.82902 0.82896 0.0
C509 C 0.93736 0.82773 0.87468 0.0
C510 C 0.82654 0.82889 0.84492 0.0
C511 C 0.82792 0.8285 0.87547 0.0
H512 H 0.21832 0.57763 0.68557 0.0
H513 H 0.02429 0.5764 0.68377 0.0
H514 H 0.02588 0.57628 0.63023 0.0
H515 H 0.08218 0.57744 0.58433 0.0
H516 H 0.27624 0.57847 0.58611 0.0
H517 H 0.27475 0.5777 0.63962 0.0
C518 C 0.17623 0.57732 0.67353 0.0
C519 C 0.12112 0.57717 0.68871 0.0
C520 C 0.17756 0.57725 0.64286 0.0
C521 C 0.06722 0.57656 0.67268 0.0
C522 C 0.06816 0.57653 0.64209 0.0
C523 C 0.12431 0.57749 0.59635 0.0
C524 C 0.17936 0.57816 0.58119 0.0
C525 C 0.12304 0.57702 0.627 0.0
C526 C 0.23335 0.578 0.59718 0.0
C527 C 0.23246 0.57759 0.62777 0.0
H528 H 0.07326 0.71303 0.68528 0.0
H529 H 0.26716 0.71446 0.68261 0.0
H530 H 0.26351 0.71519 0.62908 0.0
H531 H 0.20535 0.71451 0.58334 0.0
H532 H 1.0114 0.71335 0.58619 0.0
H533 H 1.01507 0.71348 0.63968 0.0
C534 C 0.11489 0.7135 0.67306 0.0
C535 C 0.17055 0.71354 0.68797 0.0
C536 C 0.11237 0.71395 0.64241 0.0
C537 C 0.22382 0.71438 0.67172 0.0
C538 C 0.2217 0.71476 0.64113 0.0
C539 C 0.16374 0.7143 0.59561 0.0
C540 C 0.10807 0.71378 0.58072 0.0
C541 C 0.16625 0.7144 0.62629 0.0
C542 C 0.05475 0.71372 0.59703 0.0
C543 C 0.05687 0.71376 0.62761 0.0
H544 H 0.95591 0.46241 0.43506 0.0
H545 H 0.76194 0.4612 0.43145 0.0
H546 H 0.76554 0.46118 0.37799 0.0
H547 H 0.82367 0.46078 0.33264 0.0
H548 H 1.01758 0.46229 0.3361 0.0
H549 H 1.014 0.46297 0.3896 0.0
C550 C 0.91428 0.46214 0.42263 0.0
C551 C 0.85863 0.46168 0.43728 0.0
C552 C 0.91674 0.46216 0.39199 0.0
C553 C 0.80528 0.46152 0.42077 0.0
C554 C 0.80736 0.46148 0.39022 0.0
C555 C 0.86531 0.46125 0.34503 0.0
C556 C 0.92095 0.46134 0.33036 0.0
C557 C 0.86283 0.46168 0.37565 0.0
C558 C 0.97425 0.46216 0.34682 0.0
C559 C 0.97218 0.46252 0.37738 0.0
H560 H 0.95493 0.32727 0.33488 0.0
H561 H 0.76095 0.32889 0.33658 0.0
H562 H 0.76325 0.32903 0.39006 0.0
H563 H 0.82026 0.32936 0.43594 0.0
H564 H 1.01416 0.3274 0.43441 0.0
H565 H 1.01189 0.32669 0.38089 0.0
C566 C 0.91304 0.32766 0.34689 0.0
C567 C 0.85776 0.32819 0.33172 0.0
C568 C 0.91474 0.3277 0.37755 0.0
C569 C 0.80401 0.3285 0.34768 0.0
C570 C 0.80534 0.32861 0.37824 0.0
C571 C 0.86217 0.3288 0.42396 0.0
C572 C 0.91743 0.32857 0.43916 0.0
C573 C 0.86045 0.32833 0.39334 0.0
C574 C 0.97112 0.32762 0.42326 0.0
C575 C 0.9698 0.32724 0.39269 0.0
H576 H 0.70873 0.07903 0.6871 0.0
H577 H 0.51495 0.07706 0.68409 0.0
H578 H 0.51803 0.07591 0.63062 0.0
H579 H 0.57552 0.07684 0.58502 0.0
H580 H 0.76938 0.07834 0.58795 0.0
H581 H 0.76659 0.07818 0.64152 0.0
C582 C 0.66709 0.07832 0.67476 0.0
C583 C 0.61154 0.07834 0.6895 0.0
C584 C 0.66931 0.0776 0.64416 0.0
C585 C 0.55815 0.07713 0.67326 0.0
C586 C 0.55995 0.07651 0.64272 0.0
C587 C 0.61727 0.07709 0.59736 0.0
C588 C 0.67265 0.0778 0.58257 0.0
C589 C 0.61522 0.07696 0.62798 0.0
C590 C 0.72628 0.07783 0.59883 0.0
C591 C 0.72463 0.0778 0.62941 0.0
H592 H 0.73437 0.21686 0.67728 0.0
H593 H 0.54497 0.21847 0.69685 0.0
H594 H 0.52072 0.21931 0.64489 0.0
H595 H 0.55273 0.21804 0.59353 0.0
H596 H 0.7419 0.21515 0.574 0.0
H597 H 0.76657 0.21644 0.62587 0.0
C598 C 0.68793 0.21755 0.67011 0.0
C599 C 0.64166 0.2175 0.69086 0.0
C600 C 0.67405 0.21771 0.64007 0.0
C601 C 0.58153 0.21833 0.68127 0.0
C602 C 0.5675 0.21883 0.65154 0.0
C603 C 0.59929 0.21783 0.60067 0.0
C604 C 0.64523 0.21639 0.57996 0.0
C605 C 0.6133 0.21828 0.63068 0.0
C606 C 0.70548 0.21608 0.58953 0.0
C607 C 0.71977 0.21685 0.61922 0.0
H608 H 0.45701 0.96489 0.43653 0.0
H609 H 0.2632 0.96514 0.43026 0.0
H610 H 0.26988 0.96585 0.37693 0.0
H611 H 0.33038 0.96565 0.33247 0.0
H612 H 0.52418 0.96558 0.33836 0.0
H613 H 0.51777 0.96565 0.39184 0.0
C614 C 0.41611 0.9651 0.42354 0.0
C615 C 0.35956 0.96483 0.43739 0.0
C616 C 0.42033 0.96554 0.39296 0.0
C617 C 0.30718 0.96529 0.4202 0.0
C618 C 0.31101 0.96568 0.38972 0.0
C619 C 0.3714 0.96565 0.34538 0.0
C620 C 0.4278 0.96546 0.33141 0.0
C621 C 0.36731 0.96569 0.37593 0.0
C622 C 0.4803 0.96568 0.34854 0.0
C623 C 0.4766 0.96569 0.37909 0.0
H624 H 0.33208 0.82954 0.43545 0.0
H625 H 0.52617 0.83062 0.43628 0.0
H626 H 0.52678 0.83033 0.38276 0.0
H627 H 0.47218 0.83067 0.33613 0.0
H628 H 0.27812 0.82942 0.33528 0.0
H629 H 0.27759 0.82882 0.3888 0.0
C630 C 0.37466 0.82971 0.42399 0.0
C631 C 0.4291 0.83025 0.43989 0.0
C632 C 0.3746 0.82954 0.39334 0.0
C633 C 0.48372 0.83025 0.42462 0.0
C634 C 0.48404 0.83011 0.39404 0.0
C635 C 0.42963 0.83027 0.34759 0.0
C636 C 0.37513 0.83024 0.3317 0.0
C637 C 0.42974 0.82991 0.37823 0.0
C638 C 0.3206 0.8295 0.34694 0.0
C639 C 0.32032 0.82918 0.37752 0.0
H640 H 0.58581 0.57904 0.08561 0.0
H641 H 0.7799 0.57926 0.0874 0.0
H642 H 0.77835 0.57877 0.14094 0.0
H643 H 0.72186 0.57913 0.18691 0.0
H644 H 0.52777 0.57858 0.18502 0.0
H645 H 0.52941 0.5783 0.13151 0.0
C646 C 0.62792 0.57898 0.09765 0.0
C647 C 0.68301 0.57933 0.08248 0.0
C648 C 0.62662 0.57866 0.1283 0.0
C649 C 0.73698 0.57903 0.09849 0.0
C650 C 0.73606 0.57878 0.12908 0.0
C651 C 0.67978 0.57895 0.17485 0.0
C652 C 0.62464 0.57902 0.19 0.0
C653 C 0.68113 0.57874 0.14418 0.0
C654 C 0.57073 0.57857 0.17396 0.0
C655 C 0.57169 0.57844 0.14337 0.0
H656 H 0.71803 0.72089 0.17797 0.0
H657 H 0.54637 0.70177 0.19418 0.0
H658 H 0.52168 0.70278 0.14242 0.0
H659 H 0.5499 0.70828 0.0917 0.0
H660 H 0.72237 0.72685 0.07534 0.0
H661 H 0.74483 0.72708 0.12755 0.0
C662 C 0.67532 0.71693 0.17016 0.0
C663 C 0.6345 0.71121 0.19006 0.0
C664 C 0.66106 0.71753 0.14015 0.0
C665 C 0.57901 0.70622 0.17948 0.0
C666 C 0.56457 0.70681 0.14978 0.0
C667 C 0.59186 0.71257 0.09969 0.0
C668 C 0.63433 0.71751 0.07972 0.0
C669 C 0.60527 0.71239 0.12983 0.0
C670 C 0.68897 0.7229 0.09032 0.0
C671 C 0.70203 0.72301 0.12018 0.0
H672 H 0.33364 0.46224 0.83649 0.0
H673 H 0.52669 0.46658 0.84025 0.0
H674 H 0.52258 0.46759 0.89365 0.0
H675 H 0.46485 0.46611 0.93898 0.0
H676 H 0.27168 0.46216 0.93552 0.0
H677 H 0.2751 0.46225 0.88196 0.0
C678 C 0.37488 0.46343 0.84897 0.0
C679 C 0.43056 0.46416 0.83443 0.0
C680 C 0.3721 0.46406 0.87959 0.0
C681 C 0.48338 0.46594 0.8509 0.0
C682 C 0.48103 0.46649 0.88141 0.0
C683 C 0.42336 0.4653 0.92654 0.0
C684 C 0.36807 0.46395 0.94119 0.0
C685 C 0.42575 0.46538 0.89594 0.0
C686 C 0.31474 0.46317 0.92476 0.0
C687 C 0.31675 0.46317 0.89418 0.0
H688 H 0.45201 0.32771 0.8343 0.0
H689 H 0.2585 0.32455 0.83606 0.0
H690 H 0.26108 0.3239 0.8896 0.0
H691 H 0.31811 0.32537 0.93558 0.0
H692 H 0.51178 0.3281 0.9336 0.0
H693 H 0.50934 0.32772 0.88011 0.0
C694 C 0.41029 0.32687 0.84636 0.0
C695 C 0.35499 0.32637 0.83127 0.0
C696 C 0.41222 0.32646 0.87696 0.0
C697 C 0.30153 0.325 0.84719 0.0
C698 C 0.30303 0.32468 0.87776 0.0
C699 C 0.35987 0.32587 0.92346 0.0
C700 C 0.41509 0.32694 0.93851 0.0
C701 C 0.35808 0.32559 0.89283 0.0
C702 C 0.46877 0.32732 0.92252 0.0
C703 C 0.46735 0.32714 0.89198 0.0
H704 H 0.23794 0.9962 0.26738 0.0
H705 H 0.38576 1.00978 0.21397 0.0
H706 H 0.36412 0.03362 0.22681 0.0
H707 H 0.30364 0.05057 0.25353 0.0
H708 H 0.15606 0.03693 0.30705 0.0
H709 H 0.17828 1.01311 0.29452 0.0
C710 C 0.26477 1.00439 0.25813 0.0
C711 C 0.31287 1.00124 0.23942 0.0
C712 C 0.25308 1.01803 0.26623 0.0
C713 C 0.34807 1.01195 0.22817 0.0
C714 C 0.33607 0.02557 0.23572 0.0
C715 C 0.2771 0.04238 0.26293 0.0
C716 C 0.22865 0.04552 0.28146 0.0
C717 C 0.28914 0.02872 0.25501 0.0
C718 C 0.19393 0.03478 0.29295 0.0
C719 C 0.20623 1.02117 0.28556 0.0
H720 H 0.05584 0.29684 0.26599 0.0
H721 H 0.89984 0.28178 0.21967 0.0
H722 H 0.92641 0.25826 0.23303 0.0
H723 H 0.99388 0.24201 0.258 0.0
H724 H 0.14975 0.2572 0.30426 0.0
H725 H 0.12227 0.2807 0.29146 0.0
C726 C 0.02805 0.28841 0.25843 0.0
C727 C 0.97629 0.29107 0.24152 0.0
C728 C 0.04281 0.27497 0.26677 0.0
C729 C 0.94023 0.28002 0.23244 0.0
C730 C 0.95513 0.26658 0.24029 0.0
C731 C 0.02124 0.25047 0.26577 0.0
C732 C 0.07353 0.24785 0.28233 0.0
C733 C 1.006 0.26394 0.25769 0.0
C734 C 0.10904 0.25893 0.29171 0.0
C735 C 0.09365 0.27237 0.28417 0.0
H736 H 0.14933 0.25596 0.99687 0.0
H737 H 0.32543 0.23842 0.98434 0.0
H738 H 0.372 0.25982 1.00061 0.0
H739 H 0.3627 0.28342 0.01931 0.0
H740 H 0.18646 0.30089 0.03177 0.0
H741 H 0.14002 0.27951 0.01537 0.0
C742 C 0.19791 0.25688 0.99717 0.0
C743 C 0.23381 0.24562 0.98904 0.0
C744 C 0.22439 0.26911 1.00727 0.0
C745 C 0.29671 0.24695 0.99017 0.0
C746 C 0.32339 0.25915 0.99975 0.0
C747 C 0.31412 0.28246 0.01895 0.0
C748 C 0.27811 0.2937 0.02713 0.0
C749 C 0.28768 0.27024 1.00876 0.0
C750 C 0.21523 0.29237 0.02588 0.0
C751 C 0.18862 0.28018 0.01625 0.0
H752 H 0.12259 0.03564 0.99568 0.0
H753 H 0.94509 0.05325 0.98897 0.0
H754 H 0.90078 0.03159 1.0048 0.0
H755 H 0.91245 1.0078 0.02142 0.0
H756 H 0.08979 0.99011 0.02799 0.0
H757 H 0.13423 1.01177 0.01208 0.0
C758 C 0.07413 0.03468 0.99717 0.0
C759 C 0.03719 0.04604 0.99082 0.0
C760 C 0.04902 0.02228 1.00697 0.0
C761 C 0.97455 0.04466 0.99344 0.0
C762 C 0.9492 0.0323 1.00276 0.0
C763 C 0.96091 1.00873 0.01985 0.0
C764 C 0.99777 0.99737 0.02626 0.0
C765 C 0.98603 1.02111 0.00997 0.0
C766 C 0.0604 0.99871 0.0235 0.0
C767 C 0.08581 1.01107 0.01414 0.0
H768 H 0.66358 0.0385 0.77195 0.0
H769 H 0.84127 0.05575 0.78089 0.0
H770 H 0.88554 0.03412 0.7644 0.0
H771 H 0.87357 1.01036 0.74688 0.0
H772 H 0.69544 0.99335 0.73757 0.0
H773 H 0.65156 1.01496 0.754 0.0
C774 C 0.71207 0.03747 0.77079 0.0
C775 C 0.74908 0.04868 0.77806 0.0
C776 C 0.73709 0.02514 0.76052 0.0
C777 C 0.81176 0.04724 0.77576 0.0
C778 C 0.83708 0.03491 0.76607 0.0
C779 C 0.82511 1.01146 0.74792 0.0
C780 C 0.78784 1.00027 0.7407 0.0
C781 C 0.80014 0.02384 0.75804 0.0
C782 C 0.72517 1.00181 0.74274 0.0
C783 C 0.70003 1.01413 0.7524 0.0
H784 H 0.12856 0.75679 0.77101 0.0
H785 H 0.9479 0.74109 0.77819 0.0
H786 H 0.90758 0.76311 0.76183 0.0
H787 H 0.92364 0.78673 0.74487 0.0
H788 H 0.1043 0.80244 0.73776 0.0
H789 H 0.14462 0.78039 0.75396 0.0
C790 C 0.08032 0.75825 0.76949 0.0
C791 C 0.04129 0.74733 0.77616 0.0
C792 C 0.05748 0.77084 0.75938 0.0
C793 C 0.97894 0.74935 0.77347 0.0
C794 C 0.95586 0.7619 0.76386 0.0
C795 C 0.97189 0.78527 0.74635 0.0
C796 C 1.01091 0.79619 0.73977 0.0
C797 C 0.99472 0.77267 0.7564 0.0
C798 C 0.07327 0.79417 0.74241 0.0
C799 C 0.09635 0.7816 0.75194 0.0
H800 H 0.81021 0.74703 0.01119 0.0
H801 H 0.65895 0.76055 0.95942 0.0
H802 H 0.68026 0.78438 0.97272 0.0
H803 H 0.74123 0.80133 0.99966 0.0
H804 H 0.8916 0.78761 0.05188 0.0
H805 H 0.8702 0.76386 0.03846 0.0
C806 C 0.78255 0.7552 1.00235 0.0
C807 C 0.7336 0.75202 0.98395 0.0
C808 C 0.79397 0.76881 0.0108 0.0
C809 C 0.69734 0.76273 0.97332 0.0
C810 C 0.70915 0.77634 0.98116 0.0
C811 C 0.76863 0.79313 1.00856 0.0
C812 C 0.81762 0.79625 0.02701 0.0
C813 C 0.75689 0.77949 1.0002 0.0
C814 C 0.85334 0.7855 0.03785 0.0
C815 C 0.84148 0.77192 0.02996 0.0
H816 H 0.17475 0.53324 0.7713 0.0
H817 H 0.35208 0.55064 0.78066 0.0
H818 H 0.39701 0.52896 0.76517 0.0
H819 H 0.386 0.50514 0.74844 0.0
H820 H 0.20871 0.48771 0.73898 0.0
H821 H 0.16373 0.50942 0.75427 0.0
C822 C 0.22326 0.53222 0.77044 0.0
C823 C 0.26001 0.54351 0.7775 0.0
C824 C 0.24878 0.51981 0.7608 0.0
C825 C 0.32277 0.54209 0.77563 0.0
C826 C 0.34849 0.52972 0.76652 0.0
C827 C 0.33747 0.50615 0.74921 0.0
C828 C 0.30079 0.49483 0.74225 0.0
C829 C 0.31193 0.51857 0.75871 0.0
C830 C 0.23801 0.49628 0.74394 0.0
C831 C 0.21225 0.50866 0.75295 0.0
H832 H 0.22666 0.79924 0.50433 0.0
H833 H 0.38252 0.78572 0.55288 0.0
H834 H 0.36061 0.76195 0.53973 0.0
H835 H 0.29835 0.74507 0.51382 0.0
H836 H 0.14192 0.75847 0.4656 0.0
H837 H 0.16384 0.78229 0.47863 0.0
C838 C 0.25532 0.79108 0.51245 0.0
C839 C 0.3059 0.79426 0.52981 0.0
C840 C 0.24317 0.77746 0.50428 0.0
C841 C 0.34306 0.78356 0.5397 0.0
C842 C 0.33085 0.76997 0.53197 0.0
C843 C 0.26955 0.75321 0.50573 0.0
C844 C 0.21895 0.75 0.48843 0.0
C845 C 0.28152 0.76683 0.51396 0.0
C846 C 0.18147 0.76067 0.47868 0.0
C847 C 0.19369 0.77428 0.48635 0.0
H848 H 0.04951 0.49375 0.5049 0.0
H849 H 0.89312 0.50725 0.55245 0.0
H850 H 0.91546 0.53105 0.53972 0.0
H851 H 0.97876 0.54797 0.51457 0.0
H852 H 0.13466 0.53435 0.46674 0.0
H853 H 0.11217 0.51059 0.47947 0.0
C854 C 0.0208 0.50191 0.5129 0.0
C855 C 0.97009 0.49873 0.52992 0.0
C856 C 0.03303 0.51551 0.50486 0.0
C857 C 0.93274 0.50942 0.53957 0.0
C858 C 0.94521 0.52302 0.53208 0.0
C859 C 1.00728 0.53979 0.5065 0.0
C860 C 0.05806 0.54294 0.48948 0.0
C861 C 0.99482 0.52617 0.51445 0.0
C862 C 0.09506 0.53221 0.47966 0.0
C863 C 0.08252 0.51863 0.48715 0.0
H864 H 0.67062 0.53479 0.27264 0.0
H865 H 0.85046 0.55092 0.28109 0.0
H866 H 0.89198 0.52903 0.26479 0.0
H867 H 0.87719 0.50542 0.24739 0.0
H868 H 0.69738 0.48928 0.23894 0.0
H869 H 0.65583 0.51117 0.25525 0.0
C870 C 0.71894 0.53345 0.27141 0.0
C871 C 0.7574 0.54444 0.27839 0.0
C872 C 0.74246 0.52093 0.26133 0.0
C873 C 0.81987 0.5426 0.2761 0.0
C874 C 0.84364 0.53011 0.26653 0.0
C875 C 0.82886 0.50676 0.24862 0.0
C876 C 0.79043 0.49576 0.24163 0.0
C877 C 0.80534 0.51927 0.25871 0.0
C878 C 0.72795 0.49761 0.24393 0.0
C879 C 0.70417 0.51009 0.25351 0.0
H880 H 0.86716 0.28465 0.51577 0.0
H881 H 0.68938 0.30094 0.53019 0.0
H882 H 0.64494 0.27946 0.51301 0.0
H883 H 0.6565 0.25617 0.49365 0.0
H884 H 0.83414 0.23981 0.47899 0.0
H885 H 0.87868 0.26137 0.49568 0.0
C886 C 0.8187 0.28341 0.51563 0.0
C887 C 0.78162 0.29431 0.52466 0.0
C888 C 0.79343 0.27116 0.50499 0.0
C889 C 0.7189 0.29266 0.52367 0.0
C890 C 0.69347 0.28043 0.5136 0.0
C891 C 0.70497 0.25738 0.49358 0.0
C892 C 0.74189 0.2464 0.48481 0.0
C893 C 0.73027 0.26967 0.50391 0.0
C894 C 0.80463 0.24812 0.48534 0.0
C895 C 0.83015 0.2604 0.49518 0.0
H896 H 0.41151 0.28573 0.75428 0.0
H897 H 0.58733 0.30295 0.73946 0.0
H898 H 0.63419 0.28172 0.75669 0.0
H899 H 0.62513 0.25832 0.77625 0.0
H900 H 0.44908 0.24129 0.79171 0.0
H901 H 0.40249 0.26254 0.77474 0.0
C902 C 0.46009 0.28476 0.75432 0.0
C903 C 0.49587 0.29584 0.74511 0.0
C904 C 0.48671 0.27268 0.76508 0.0
C905 C 0.55876 0.29452 0.74607 0.0
C906 C 0.58557 0.28243 0.75618 0.0
C907 C 0.57658 0.25933 0.77645 0.0
C908 C 0.54071 0.24822 0.78551 0.0
C909 C 0.55 0.27149 0.76603 0.0
C910 C 0.47783 0.24968 0.78511 0.0
C911 C 0.45111 0.2618 0.77513 0.0
H912 H 0.46964 0.05076 0.51572 0.0
H913 H 0.62252 0.03711 0.46568 0.0
H914 H 0.60034 1.01335 0.47831 0.0
H915 H 0.53965 0.99652 0.50466 0.0
H916 H 0.38556 1.00986 0.55409 0.0
H917 H 0.40699 0.03372 0.54122 0.0
C918 C 0.49739 0.04256 0.50711 0.0
C919 C 0.54744 0.04571 0.48959 0.0
C920 C 0.48511 0.02891 0.51498 0.0
C921 C 0.58352 0.03498 0.47903 0.0
C922 C 0.5712 1.02139 0.48647 0.0
C923 C 0.51126 1.00466 0.51303 0.0
C924 C 0.46164 1.00144 0.53071 0.0
C925 C 0.52279 1.01827 0.50483 0.0
C926 C 0.42447 1.01209 0.54075 0.0
C927 C 0.4364 0.02571 0.53317 0.0
H928 H 0.48557 0.74541 0.26045 0.0
H929 H 0.64987 0.75694 0.30441 0.0
H930 H 0.63383 0.78089 0.29052 0.0
H931 H 0.5734 0.7985 0.26548 0.0
H932 H 0.41031 0.78673 0.22057 0.0
H933 H 0.42651 0.76287 0.23455 0.0
C934 C 0.5173 0.7532 0.26745 0.0
C935 C 0.56829 0.74945 0.28387 0.0
C936 C 0.50878 0.76685 0.25859 0.0
C937 C 0.60986 0.75961 0.29208 0.0
C938 C 0.60099 0.77328 0.28391 0.0
C939 C 0.54195 0.79068 0.25831 0.0
C940 C 0.49089 0.79441 0.24184 0.0
C941 C 0.55094 0.77699 0.26689 0.0
C942 C 0.45017 0.78415 0.2331 0.0
C943 C 0.4591 0.77051 0.24131 0.0
H944 H 0.42054 0.50723 0.02562 0.0
H945 H 0.59852 0.48986 0.03187 0.0
H946 H 0.64215 0.51155 0.01578 0.0
H947 H 0.62974 0.53536 0.99913 0.0
H948 H 0.45175 0.55272 0.99284 0.0
H949 H 0.40813 0.53104 1.00901 0.0
C950 C 0.46895 0.50825 0.02397 0.0
C951 C 0.50622 0.49696 0.03029 0.0
C952 C 0.49367 0.52067 0.014 0.0
C953 C 0.5688 0.49841 0.02742 0.0
C954 C 0.59378 0.51079 0.01796 0.0
C955 C 0.58133 0.53434 1.0008 0.0
C956 C 0.54405 0.54563 0.99444 0.0
C957 C 0.55661 0.52193 0.01081 0.0
C958 C 0.48147 0.54417 0.99733 0.0
C959 C 0.45651 0.53181 1.00683 0.0
H960 H 0.08797 0.17103 0.30766 0.0
H961 H 0.28168 0.16911 0.30463 0.0
H962 H 0.2781 0.14419 0.30819 0.0
H963 H 0.21973 0.12282 0.30581 0.0
H964 H 0.02591 0.12478 0.30658 0.0
H965 H 0.02992 0.14968 0.31063 0.0
C966 C 0.12943 0.16519 0.30841 0.0
C967 C 0.18491 0.17194 0.30553 0.0
C968 C 0.12709 0.15079 0.30973 0.0
C969 C 0.23824 0.16418 0.30648 0.0
C970 C 0.2363 0.1499 0.30846 0.0
C971 C 0.17842 0.12867 0.30747 0.0
C972 C 0.12267 0.12194 0.30552 0.0
C973 C 0.18093 0.14307 0.30911 0.0
C974 C 0.06952 0.1297 0.30767 0.0
C975 C 0.0717 0.14397 0.30995 0.0
H976 H 0.20166 0.16971 0.96032 0.0
H977 H 1.00786 0.16891 0.96371 0.0
H978 H 1.00873 0.14396 0.96033 0.0
H979 H 0.06481 0.12225 0.96266 0.0
H980 H 0.25874 0.12309 0.96176 0.0
H981 H 0.2574 0.148 0.95756 0.0
C982 C 0.15958 0.1641 0.95969 0.0
C983 C 0.10487 0.1712 0.96256 0.0
C984 C 0.16038 0.14968 0.95851 0.0
C985 C 0.05074 0.16373 0.96181 0.0
C986 C 0.05113 0.14943 0.95995 0.0
C987 C 0.10672 0.12786 0.96093 0.0
C988 C 0.16174 0.12079 0.96283 0.0
C989 C 0.10574 0.14227 0.95924 0.0
C990 C 0.21568 0.12826 0.96066 0.0
C991 C 0.21502 0.14253 0.95829 0.0
H992 H 0.9846 0.91938 0.71008 0.0
H993 H 0.79251 0.92565 0.71021 0.0
H994 H 0.77652 0.90092 0.70677 0.0
H995 H 0.81706 0.87752 0.70989 0.0
H996 H 1.00916 0.87125 0.70997 0.0
H997 H 0.02508 0.89598 0.70676 0.0
C998 C 0.93919 0.91536 0.70889 0.0
C999 C 0.88982 0.92436 0.71084 0.0
C1000 C 0.93032 0.90111 0.70719 0.0
C1001 C 0.83133 0.91898 0.70885 0.0
C1002 C 0.82214 0.90482 0.70706 0.0
C1003 C 0.86245 0.88154 0.70876 0.0
C1004 C 0.91186 0.87253 0.71061 0.0
C1005 C 0.87129 0.89578 0.70717 0.0
C1006 C 0.97031 0.87792 0.70869 0.0
C1007 C 0.97946 0.89208 0.70702 0.0
H1008 H 0.96416 0.92149 0.05792 0.0
H1009 H 0.77047 0.92083 0.0523 0.0
H1010 H 0.77084 0.89589 0.05544 0.0
H1011 H 0.82666 0.87414 0.05351 0.0
H1012 H 0.02053 0.87486 0.05715 0.0
H1013 H 1.0194 0.89975 0.06145 0.0
C1014 C 0.92199 0.91591 0.05799 0.0
C1015 C 0.86751 0.92304 0.0545 0.0
C1016 C 0.92249 0.9015 0.05915 0.0
C1017 C 0.81322 0.91561 0.05462 0.0
C1018 C 0.81332 0.90132 0.05637 0.0
C1019 C 0.86857 0.87972 0.05586 0.0
C1020 C 0.92353 0.87263 0.05463 0.0
C1021 C 0.86776 0.89412 0.05767 0.0
C1022 C 0.97749 0.88005 0.05767 0.0
C1023 C 0.97698 0.89432 0.06009 0.0
H1024 H 0.06321 0.62453 0.80941 0.0
H1025 H 0.25491 0.61769 0.80844 0.0
H1026 H 0.27238 0.64237 0.81148 0.0
H1027 H 0.23312 0.66588 0.80814 0.0
H1028 H 0.04141 0.67272 0.80887 0.0
H1029 H 0.02414 0.64805 0.81261 0.0
C1030 C 0.10886 0.62842 0.81033 0.0
C1031 C 0.15767 0.61927 0.80824 0.0
C1032 C 0.11859 0.64263 0.81179 0.0
C1033 C 0.2165 0.62448 0.8099 0.0
C1034 C 0.22654 0.63861 0.81147 0.0
C1035 C 0.18754 0.66199 0.80957 0.0
C1036 C 0.13861 0.67113 0.80777 0.0
C1037 C 0.17792 0.64779 0.81145 0.0
C1038 C 0.0799 0.66594 0.8101 0.0
C1039 C 0.06997 0.65181 0.81206 0.0
H1040 H 0.05275 0.6663 0.45929 0.0
H1041 H 0.24331 0.67466 0.45938 0.0
H1042 H 0.26447 0.65012 0.45629 0.0
H1043 H 0.22897 0.62634 0.46008 0.0
H1044 H 0.03838 0.61801 0.46054 0.0
H1045 H 1.01721 0.6425 0.45651 0.0
C1046 C 0.09894 0.66278 0.45816 0.0
C1047 C 0.14639 0.6723 0.46004 0.0
C1048 C 0.1108 0.64865 0.45675 0.0
C1049 C 0.20592 0.66757 0.4581 0.0
C1050 C 0.21807 0.65352 0.45651 0.0
C1051 C 0.18277 0.62986 0.45885 0.0
C1052 C 0.13534 0.62035 0.4611 0.0
C1053 C 0.1709 0.64397 0.45684 0.0
C1054 C 0.07577 0.62508 0.45901 0.0
C1055 C 0.06361 0.6391 0.45686 0.0
H1056 H 0.80612 0.37395 0.20601 0.0
H1057 H 0.99665 0.36583 0.21088 0.0
H1058 H 1.01756 0.39036 0.20745 0.0
H1059 H 0.98113 0.41413 0.20993 0.0
H1060 H 0.79047 0.4222 0.20558 0.0
H1061 H 0.77036 0.39768 0.20154 0.0
C1062 C 0.85229 0.37752 0.20581 0.0
C1063 C 0.8997 0.36807 0.20918 0.0
C1064 C 0.86397 0.39165 0.20421 0.0
C1065 C 0.95927 0.37286 0.20843 0.0
C1066 C 0.97127 0.38691 0.20666 0.0
C1067 C 0.9352 0.41055 0.20761 0.0
C1068 C 0.88734 0.42 0.20856 0.0
C1069 C 0.92389 0.39641 0.20561 0.0
C1070 C 0.82818 0.41518 0.20508 0.0
C1071 C 0.81659 0.40113 0.20292 0.0
H1072 H 0.97631 0.37518 0.56055 0.0
H1073 H 0.78531 0.36747 0.56321 0.0
H1074 H 0.76595 0.39204 0.56685 0.0
H1075 H 0.80259 0.41569 0.56246 0.0
H1076 H 0.99348 0.42344 0.55929 0.0
H1077 H 1.01348 0.39888 0.56314 0.0
C1078 C 0.93046 0.37885 0.56243 0.0
C1079 C 0.8823 0.36949 0.5611 0.0
C1080 C 0.91958 0.39302 0.56418 0.0
C1081 C 0.82324 0.37442 0.56401 0.0
C1082 C 0.81208 0.3885 0.56593 0.0
C1083 C 0.84864 0.41204 0.56312 0.0
C1084 C 0.89643 0.42139 0.5601 0.0
C1085 C 0.8598 0.39789 0.56498 0.0
C1086 C 0.95581 0.41649 0.56145 0.0
C1087 C 0.96729 0.40242 0.56346 0.0
H1088 H 0.71604 0.12475 0.80786 0.0
H1089 H 0.52218 0.12455 0.81071 0.0
H1090 H 0.52108 0.14946 0.81527 0.0
H1091 H 0.5745 0.1715 0.81209 0.0
H1092 H 0.76803 0.17167 0.8064 0.0
H1093 H 0.7699 0.14673 0.80976 0.0
C1094 C 0.67363 0.13013 0.8101 0.0
C1095 C 0.61932 0.12278 0.80864 0.0
C1096 C 0.67318 0.14453 0.81195 0.0
C1097 C 0.56471 0.12995 0.81147 0.0
C1098 C 0.56398 0.14422 0.81404 0.0
C1099 C 0.61711 0.16609 0.81227 0.0
C1100 C 0.67095 0.17344 0.80876 0.0
C1101 C 0.61783 0.15167 0.81335 0.0
C1102 C 0.72583 0.16626 0.80882 0.0
C1103 C 0.72699 0.15197 0.81067 0.0
H1104 H 0.70258 0.16997 0.45588 0.0
H1105 H 0.51044 0.17054 0.46832 0.0
H1106 H 0.50731 0.14559 0.46546 0.0
H1107 H 0.56085 0.12353 0.46625 0.0
H1108 H 0.75372 0.12303 0.45664 0.0
H1109 H 0.75469 0.14788 0.45118 0.0
C1110 C 0.65988 0.16465 0.45728 0.0
C1111 C 0.60699 0.1721 0.46263 0.0
C1112 C 0.65857 0.15024 0.45647 0.0
C1113 C 0.55199 0.16504 0.46451 0.0
C1114 C 0.55012 0.15075 0.46295 0.0
C1115 C 0.60289 0.12884 0.46231 0.0
C1116 C 0.65713 0.12145 0.46221 0.0
C1117 C 0.60339 0.14321 0.45998 0.0
C1118 C 0.71132 0.12849 0.45717 0.0
C1119 C 0.71199 0.14272 0.45408 0.0
H1120 H 0.49156 0.91867 0.21039 0.0
H1121 H 0.29983 0.92549 0.20895 0.0
H1122 H 0.28263 0.90081 0.20542 0.0
H1123 H 0.32179 0.87733 0.2094 0.0
H1124 H 0.51352 0.87052 0.21165 0.0
H1125 H 0.53091 0.89518 0.20778 0.0
C1126 C 0.44598 0.91478 0.20883 0.0
C1127 C 0.39702 0.92392 0.21042 0.0
C1128 C 0.43642 0.90057 0.2072 0.0
C1129 C 0.33833 0.91871 0.20791 0.0
C1130 C 0.32845 0.90458 0.20607 0.0
C1131 C 0.36745 0.88121 0.20858 0.0
C1132 C 0.41629 0.87209 0.21131 0.0
C1133 C 0.37711 0.89541 0.20673 0.0
C1134 C 0.4751 0.87729 0.20974 0.0
C1135 C 0.48508 0.89141 0.20769 0.0
H1136 H 0.29671 0.91769 0.55911 0.0
H1137 H 0.48706 0.92621 0.56194 0.0
H1138 H 0.50841 0.90172 0.56603 0.0
H1139 H 0.4735 0.87788 0.5622 0.0
H1140 H 0.28315 0.86938 0.55883 0.0
H1141 H 0.2614 0.89388 0.56199 0.0
C1142 C 0.34287 0.91422 0.56111 0.0
C1143 C 0.39025 0.92377 0.55974 0.0
C1144 C 0.35486 0.90011 0.56311 0.0
C1145 C 0.44972 0.9191 0.5628 0.0
C1146 C 0.462 0.90507 0.56497 0.0
C1147 C 0.42719 0.88136 0.56263 0.0
C1148 C 0.38005 0.8718 0.55979 0.0
C1149 C 0.415 0.89548 0.56412 0.0
C1150 C 0.32033 0.87649 0.56084 0.0
C1151 C 0.30784 0.89052 0.56248 0.0
H1152 H 0.73469 0.66668 0.31234 0.0
H1153 H 0.54326 0.67329 0.31767 0.0
H1154 H 0.52688 0.64858 0.32163 0.0
H1155 H 0.56611 0.62514 0.31608 0.0
H1156 H 0.75764 0.61859 0.3106 0.0
H1157 H 0.77486 0.64325 0.31464 0.0
C1158 C 0.68945 0.66272 0.31496 0.0
C1159 C 0.64018 0.67178 0.31421 0.0
C1160 C 0.68036 0.64852 0.31688 0.0
C1161 C 0.58193 0.66654 0.3181 0.0
C1162 C 0.57251 0.6524 0.32013 0.0
C1163 C 0.61169 0.62909 0.3163 0.0
C1164 C 0.66047 0.62006 0.3125 0.0
C1165 C 0.62123 0.64329 0.31838 0.0
C1166 C 0.71928 0.62531 0.31334 0.0
C1167 C 0.72915 0.63942 0.31547 0.0
H1168 H 0.56346 0.66765 0.96084 0.0
H1169 H 0.75423 0.67563 0.96211 0.0
H1170 H 0.77454 0.65102 0.95936 0.0
H1171 H 0.7379 0.62726 0.96266 0.0
H1172 H 0.54693 0.61938 0.96138 0.0
H1173 H 0.52702 0.64393 0.95768 0.0
C1174 C 0.60953 0.66402 0.96006 0.0
C1175 C 0.65727 0.67347 0.96209 0.0
C1176 C 0.62084 0.64987 0.95871 0.0
C1177 C 0.71665 0.6686 0.96062 0.0
C1178 C 0.72829 0.65451 0.95924 0.0
C1179 C 0.6919 0.63089 0.96112 0.0
C1180 C 0.64396 0.62147 0.96273 0.0
C1181 C 0.68072 0.64505 0.95921 0.0
C1182 C 0.58471 0.62636 0.9603 0.0
C1183 C 0.57324 0.64043 0.95834 0.0
H1184 H 0.32934 0.4189 0.71229 0.0
H1185 H 0.52317 0.41782 0.71612 0.0
H1186 H 0.52177 0.39293 0.71163 0.0
H1187 H 0.46533 0.37128 0.71296 0.0
H1188 H 0.2714 0.37234 0.71142 0.0
H1189 H 0.27317 0.39728 0.70824 0.0
C1190 C 0.3713 0.41324 0.71153 0.0
C1191 C 0.42617 0.42023 0.71489 0.0
C1192 C 0.37022 0.39884 0.70963 0.0
C1193 C 0.48016 0.41271 0.71391 0.0
C1194 C 0.47947 0.39844 0.71138 0.0
C1195 C 0.4235 0.37694 0.71128 0.0
C1196 C 0.36837 0.36993 0.71276 0.0
C1197 C 0.42473 0.39136 0.71019 0.0
C1198 C 0.31455 0.37747 0.71064 0.0
C1199 C 0.31545 0.39176 0.70889 0.0
H1200 H 0.30877 0.41585 0.0605 0.0
H1201 H 0.50061 0.42249 0.06027 0.0
H1202 H 0.51756 0.39778 0.06325 0.0
H1203 H 0.47791 0.37431 0.05976 0.0
H1204 H 0.28604 0.36769 0.05972 0.0
H1205 H 0.26921 0.39237 0.06342 0.0
C1206 C 0.35434 0.41192 0.06155 0.0
C1207 C 0.40335 0.42102 0.05972 0.0
C1208 C 0.36377 0.39769 0.06299 0.0
C1209 C 0.46204 0.41574 0.06154 0.0
C1210 C 0.47179 0.40159 0.06308 0.0
C1211 C 0.43238 0.37824 0.06102 0.0
C1212 C 0.3833 0.36914 0.05903 0.0
C1213 C 0.423 0.39246 0.06287 0.0
C1214 C 0.32466 0.37442 0.06111 0.0
C1215 C 0.31498 0.38856 0.06305 0.0
H1216 H 0.87623 0.06812 0.32489 0.0
H1217 H 0.04674 0.06825 0.37017 0.0
H1218 H 0.99541 0.0667 0.41707 0.0
H1219 H 0.90166 0.06823 0.44547 0.0
H1220 H 0.73122 0.06694 0.4002 0.0
H1221 H 0.78277 0.0658 0.35329 0.0
C1222 C 0.90211 0.06754 0.345 0.0
C1223 C 0.96515 0.06848 0.34402 0.0
C1224 C 0.87228 0.06654 0.372 0.0
C1225 C 0.99814 0.06756 0.37026 0.0
C1226 C 0.9688 0.06676 0.39716 0.0
C1227 C 0.87588 0.06741 0.42536 0.0
C1228 C 0.81273 0.06785 0.42635 0.0
C1229 C 0.90584 0.06668 0.39835 0.0
C1230 C 0.7799 0.06663 0.40012 0.0
C1231 C 0.80935 0.06608 0.3732 0.0
H1232 H 0.28766 0.22693 0.36627 0.0
H1233 H 0.44103 0.22452 0.30911 0.0
H1234 H 0.50874 0.22687 0.35104 0.0
H1235 H 0.52439 0.22664 0.40421 0.0
H1236 H 0.37113 0.22689 0.46168 0.0
H1237 H 0.30352 0.22856 0.41951 0.0
C1238 C 0.33588 0.22724 0.36293 0.0
C1239 C 0.35925 0.22554 0.33456 0.0
C1240 C 0.37463 0.22807 0.3873 0.0
C1241 C 0.42187 0.22577 0.33068 0.0
C1242 C 0.46064 0.22707 0.35469 0.0
C1243 C 0.47626 0.22738 0.40758 0.0
C1244 C 0.45289 0.22663 0.43612 0.0
C1245 C 0.43757 0.2278 0.38317 0.0
C1246 C 0.39033 0.22743 0.43999 0.0
C1247 C 0.35162 0.22832 0.41585 0.0
H1248 H 0.76681 0.22771 0.86673 0.0
H1249 H 0.91668 0.22649 0.80726 0.0
H1250 H 0.98687 0.22785 0.84846 0.0
H1251 H 1.00566 0.22641 0.90153 0.0
H1252 H 0.85541 0.22555 0.96078 0.0
H1253 H 0.78566 0.22814 0.91973 0.0
C1254 C 0.8148 0.22807 0.86272 0.0
C1255 C 0.83639 0.227 0.83389 0.0
C1256 C 0.85498 0.22833 0.88661 0.0
C1257 C 0.8988 0.22729 0.82919 0.0
C1258 C 0.93901 0.22801 0.85278 0.0
C1259 C 0.95773 0.22711 0.90551 0.0
C1260 C 0.93583 0.22578 0.93423 0.0
C1261 C 0.91767 0.22809 0.88163 0.0
C1262 C 0.87349 0.22652 0.93893 0.0
C1263 C 0.83353 0.22796 0.91542 0.0
H1264 H 0.40373 0.06697 0.94592 0.0
H1265 H 0.23485 0.06608 0.89924 0.0
H1266 H 0.28812 0.065 0.85276 0.0
H1267 H 0.38264 0.06734 0.82518 0.0
H1268 H 0.55159 0.06729 0.87184 0.0
H1269 H 0.49852 0.06551 0.91828 0.0
C1270 C 0.37862 0.06625 0.9256 0.0
C1271 C 0.31538 0.06678 0.92611 0.0
C1272 C 0.40959 0.06559 0.89883 0.0
C1273 C 0.28352 0.0657 0.89957 0.0
C1274 C 0.31398 0.06518 0.87289 0.0
C1275 C 0.40785 0.06665 0.84548 0.0
C1276 C 0.47098 0.06762 0.84501 0.0
C1277 C 0.377 0.06558 0.87222 0.0
C1278 C 0.50299 0.06658 0.8715 0.0
C1279 C 0.47263 0.06565 0.89815 0.0
H1280 H 0.25342 0.97562 0.61596 0.0
H1281 H 0.1049 0.97136 0.55576 0.0
H1282 H 0.0337 0.97387 0.59605 0.0
H1283 H 1.01408 0.97439 0.64899 0.0
H1284 H 0.16315 0.9759 0.70943 0.0
H1285 H 0.23361 0.97755 0.66866 0.0
C1286 C 0.20544 0.97556 0.6116 0.0
C1287 C 0.18441 0.97334 0.58292 0.0
C1288 C 0.16486 0.9764 0.63505 0.0
C1289 C 0.12215 0.97304 0.57766 0.0
C1290 C 0.08144 0.97444 0.60071 0.0
C1291 C 0.06189 0.97543 0.6532 0.0
C1292 C 0.08344 0.9751 0.68215 0.0
C1293 C 0.10228 0.97572 0.6296 0.0
C1294 C 0.14556 0.97616 0.68731 0.0
C1295 C 0.18584 0.97704 0.664 0.0
H1296 H 0.64796 0.82081 0.69494 0.0
H1297 H 0.81284 0.82158 0.64572 0.0
H1298 H 0.75588 0.82081 0.59997 0.0
H1299 H 0.65868 0.82268 0.57397 0.0
H1300 H 0.49394 0.82045 0.62309 0.0
H1301 H 0.55112 0.81885 0.66868 0.0
C1302 C 0.67137 0.82053 0.67419 0.0
C1303 C 0.73449 0.8214 0.67374 0.0
C1304 C 0.63829 0.81994 0.6479 0.0
C1305 C 0.76429 0.82089 0.64671 0.0
C1306 C 0.7317 0.82055 0.62049 0.0
C1307 C 0.63541 0.82158 0.59463 0.0
C1308 C 0.57219 0.82184 0.59517 0.0
C1309 C 0.66864 0.82049 0.62081 0.0
C1310 C 0.54258 0.82026 0.62205 0.0
C1311 C 0.57527 0.81943 0.64819 0.0
H1312 H 0.14796 0.82173 0.19449 0.0
H1313 H 0.31683 0.81956 0.14872 0.0
H1314 H 0.26369 0.81756 0.10211 0.0
H1315 H 0.16922 0.81921 0.07391 0.0
H1316 H 1.00024 0.82007 0.11979 0.0
H1317 H 0.05321 0.81957 0.16661 0.0
C1318 C 0.17302 0.82057 0.17435 0.0
C1319 C 0.2362 0.82097 0.17505 0.0
C1320 C 0.14214 0.81927 0.14755 0.0
C1321 C 0.26815 0.81929 0.14881 0.0
C1322 C 0.23779 0.81823 0.12208 0.0
C1323 C 0.14403 0.81901 0.09416 0.0
C1324 C 0.08094 0.81984 0.09334 0.0
C1325 C 0.1748 0.81862 0.12111 0.0
C1326 C 0.04886 0.81943 0.11976 0.0
C1327 C 0.07913 0.81924 0.14661 0.0
H1328 H 0.63701 0.97897 0.07611 0.0
H1329 H 0.80759 0.9758 0.12079 0.0
H1330 H 0.75669 0.97612 0.16796 0.0
H1331 H 0.66274 0.97422 0.1962 0.0
H1332 H 0.49252 0.97846 0.15155 0.0
H1333 H 0.54413 0.98096 0.10493 0.0
C1334 C 0.66308 0.97865 0.09619 0.0
C1335 C 0.72589 0.97719 0.0949 0.0
C1336 C 0.63351 0.97888 0.12332 0.0
C1337 C 0.75915 0.97693 0.12112 0.0
C1338 C 0.73004 0.977 0.14816 0.0
C1339 C 0.63708 0.97596 0.17633 0.0
C1340 C 0.57389 0.97596 0.17732 0.0
C1341 C 0.6671 0.9775 0.14949 0.0
C1342 C 0.54122 0.97838 0.15144 0.0
C1343 C 0.57068 0.97974 0.12468 0.0
H1344 H 0.89093 0.56928 0.82517 0.0
H1345 H 0.05927 0.56813 0.87221 0.0
H1346 H 1.0055 0.56759 0.91865 0.0
H1347 H 0.91058 0.57009 0.94606 0.0
H1348 H 0.74212 0.56976 0.89907 0.0
H1349 H 0.7957 0.56806 0.85269 0.0
C1350 C 0.91578 0.56863 0.84558 0.0
C1351 C 0.97907 0.56887 0.84518 0.0
C1352 C 0.88447 0.56817 0.87231 0.0
C1353 C 1.01059 0.56792 0.87182 0.0
C1354 C 0.97983 0.56771 0.89846 0.0
C1355 C 0.88563 0.56938 0.92569 0.0
C1356 C 0.82244 0.57019 0.92605 0.0
C1357 C 0.9168 0.56823 0.89901 0.0
C1358 C 0.79074 0.56913 0.89947 0.0
C1359 C 0.8214 0.56825 0.87287 0.0
H1360 H 0.40108 0.7226 0.82561 0.0
H1361 H 0.23271 0.7216 0.87191 0.0
H1362 H 0.28624 0.72263 0.91863 0.0
H1363 H 0.38173 0.72136 0.94647 0.0
H1364 H 0.54969 0.72394 0.90002 0.0
H1365 H 0.49576 0.72491 0.85351 0.0
C1366 C 0.37612 0.72287 0.84592 0.0
C1367 C 0.31301 0.72191 0.84523 0.0
C1368 C 0.40722 0.72364 0.8728 0.0
C1369 C 0.28129 0.72238 0.87176 0.0
C1370 C 0.31192 0.72287 0.89855 0.0
C1371 C 0.40641 0.72238 0.9262 0.0
C1372 C 0.46971 0.72244 0.92679 0.0
C1373 C 0.37499 0.72313 0.89938 0.0
C1374 C 0.501 0.72389 0.90029 0.0
C1375 C 0.47017 0.72436 0.87359 0.0
H1376 H 1.0101 0.7206 0.39756 0.0
H1377 H 0.86211 0.7215 0.45808 0.0
H1378 H 0.79092 0.72345 0.41738 0.0
H1379 H 0.7701 0.72238 0.36466 0.0
H1380 H 0.91712 0.71878 0.30399 0.0
H1381 H 0.98925 0.72055 0.34444 0.0
C1382 C 0.96234 0.72153 0.4018 0.0
C1383 C 0.94137 0.72101 0.43081 0.0
C1384 C 0.92145 0.72203 0.37818 0.0
C1385 C 0.8793 0.72191 0.43597 0.0
C1386 C 0.83859 0.72299 0.41269 0.0
C1387 C 0.81795 0.72228 0.36021 0.0
C1388 C 0.8382 0.72053 0.33129 0.0
C1389 C 0.85902 0.7227 0.38369 0.0
C1390 C 0.90036 0.72015 0.32601 0.0
C1391 C 0.94161 0.72111 0.34917 0.0
H1392 H 0.39347 0.5697 0.32501 0.0
H1393 H 0.56072 0.56928 0.37301 0.0
H1394 H 0.50589 0.56855 0.41916 0.0
H1395 H 0.4101 0.57071 0.44599 0.0
H1396 H 0.24291 0.56958 0.39798 0.0
H1397 H 0.29775 0.56808 0.35194 0.0
C1398 C 0.41785 0.56916 0.34557 0.0
C1399 C 0.48107 0.56967 0.34556 0.0
C1400 C 0.38598 0.56859 0.3721 0.0
C1401 C 0.51207 0.56885 0.37236 0.0
C1402 C 0.48071 0.56855 0.39882 0.0
C1403 C 0.38576 0.56987 0.42547 0.0
C1404 C 0.32253 0.5704 0.42542 0.0
C1405 C 0.41765 0.56881 0.39899 0.0
C1406 C 0.29157 0.56917 0.39867 0.0
C1407 C 0.32292 0.5684 0.37227 0.0
H1408 H 0.15413 0.47113 0.19681 0.0
H1409 H 0.98726 0.47231 0.14853 0.0
H1410 H 0.04244 0.47402 0.10263 0.0
H1411 H 0.13833 0.47232 0.07588 0.0
H1412 H 0.30525 0.4725 0.12417 0.0
H1413 H 0.25009 0.47333 0.17022 0.0
C1414 C 0.12991 0.47204 0.17627 0.0
C1415 C 0.06669 0.47144 0.17609 0.0
C1416 C 0.16199 0.47316 0.14988 0.0
C1417 C 0.03589 0.47277 0.14933 0.0
C1418 C 0.06745 0.47365 0.123 0.0
C1419 C 0.16257 0.47283 0.09648 0.0
C1420 C 0.22578 0.4722 0.09659 0.0
C1421 C 0.13052 0.47343 0.12295 0.0
C1422 C 0.25661 0.473 0.12344 0.0
C1423 C 0.22507 0.47337 0.14983 0.0
H1424 H 0.75566 0.3174 0.15099 0.0
H1425 H 0.61027 0.32068 0.21261 0.0
H1426 H 0.53697 0.31853 0.17283 0.0
H1427 H 0.51444 0.31861 0.12007 0.0
H1428 H 0.66019 0.31814 0.05828 0.0
H1429 H 0.73296 0.31612 0.09831 0.0
C1430 C 0.70792 0.31731 0.15573 0.0
C1431 C 0.68835 0.31913 0.18469 0.0
C1432 C 0.66607 0.3167 0.13258 0.0
C1433 C 0.62638 0.31928 0.19048 0.0
C1434 C 0.58447 0.3181 0.16773 0.0
C1435 C 0.56205 0.31772 0.11539 0.0
C1436 C 0.58195 0.31845 0.08628 0.0
C1437 C 0.60377 0.31721 0.13861 0.0
C1438 C 0.64383 0.31758 0.08053 0.0
C1439 C 0.68545 0.31648 0.10342 0.0
H1440 H 0.14622 0.31775 0.57426 0.0
H1441 H 0.97827 0.31563 0.6208 0.0
H1442 H 0.03244 0.3134 0.6671 0.0
H1443 H 0.12752 0.31514 0.69484 0.0
H1444 H 0.29556 0.31618 0.64817 0.0
H1445 H 0.24158 0.31551 0.60161 0.0
C1446 C 0.12155 0.31652 0.59448 0.0
C1447 C 0.05833 0.31703 0.5941 0.0
C1448 C 0.15304 0.31515 0.62109 0.0
C1449 C 0.02693 0.31526 0.62045 0.0
C1450 C 0.05791 0.31408 0.647 0.0
C1451 C 0.15232 0.31491 0.67447 0.0
C1452 C 0.21544 0.31588 0.67501 0.0
C1453 C 0.12095 0.31447 0.64768 0.0
C1454 C 0.24697 0.31544 0.64844 0.0
C1455 C 0.2161 0.31516 0.62174 0.0
H1456 H 0.52386 0.47212 0.65273 0.0
H1457 H 0.67524 0.47548 0.71147 0.0
H1458 H 0.74363 0.47699 0.66985 0.0
H1459 H 0.7614 0.47437 0.61703 0.0
H1460 H 0.61069 0.46847 0.55878 0.0
H1461 H 0.54113 0.47109 0.59968 0.0
C1462 C 0.57166 0.47354 0.65639 0.0
C1463 C 0.59444 0.47374 0.68515 0.0
C1464 C 0.61096 0.47377 0.63234 0.0
C1465 C 0.65662 0.47531 0.68955 0.0
C1466 C 0.69576 0.47611 0.66574 0.0
C1467 C 0.71328 0.47398 0.61321 0.0
C1468 C 0.69122 0.47125 0.5849 0.0
C1469 C 0.67364 0.47492 0.63706 0.0
C1470 C 0.62878 0.47054 0.58037 0.0
C1471 C 0.58899 0.47199 0.60378 0.0
loop_
_geom_bond_atom_site_label_1
_geom_bond_atom_site_label_2
_geom_bond_distance
_geom_bond_site_symmetry_2
_ccdc_geom_bond_type
O0 Cd1 2.223 . S
O0 C8 1.315 . S
Cd1 O0 2.223 . S
Cd1 O4 2.297 1_455 S
Cd1 O5 2.439 . S
Cd1 O11 2.240 . S
Cd2 O3 2.240 . S
Cd2 O10 2.223 . S
Cd2 O12 2.297 . S
Cd2 O13 2.439 . S
O3 Cd2 2.240 . S
O3 C8 1.279 . S
O4 Cd1 2.297 1_655 S
O4 C6 1.247 . S
O5 Cd1 2.439 . S
O5 C6 1.208 1_455 S
C6 O4 1.247 . S
C6 O5 1.208 1_655 S
C7 O12 1.247 . S
C7 O13 1.208 . S
C8 O0 1.315 . S
C8 O3 1.279 . S
C9 O10 1.315 . S
C9 O11 1.279 . S
O10 Cd2 2.223 . S
O10 C9 1.315 . S
O11 Cd1 2.240 . S
O11 C9 1.279 . S
O12 Cd2 2.297 . S
O12 C7 1.247 . S
O13 Cd2 2.439 . S
O13 C7 1.208 . S
O14 Cd15 2.223 . S
O14 C22 1.315 . S
Cd15 O14 2.223 . S
Cd15 O18 2.297 . S
Cd15 O19 2.439 . S
Cd15 O25 2.240 . S
Cd16 O17 2.240 . S
Cd16 O24 2.223 . S
Cd16 O26 2.297 . S
Cd16 O27 2.439 . S
O17 Cd16 2.240 . S
O17 C22 1.279 . S
O18 Cd15 2.297 . S
O18 C20 1.247 . S
O19 Cd15 2.439 . S
O19 C20 1.208 . S
C20 O18 1.247 . S
C20 O19 1.208 . S
C21 O26 1.247 . S
C21 O27 1.208 . S
C22 O14 1.315 . S
C22 O17 1.279 . S
C23 O24 1.315 . S
C23 O25 1.279 . S
O24 Cd16 2.223 . S
O24 C23 1.315 . S
O25 Cd15 2.240 . S
O25 C23 1.279 . S
O26 Cd16 2.297 . S
O26 C21 1.247 . S
O27 Cd16 2.439 . S
O27 C21 1.208 . S
O28 Cd29 2.223 1_554 S
O28 C36 1.315 1_554 S
Cd29 O28 2.223 1_556 S
Cd29 O32 2.297 1_455 S
Cd29 O33 2.439 . S
Cd29 O39 2.240 1_556 S
Cd30 O31 2.240 . S
Cd30 O38 2.223 1_556 S
Cd30 O40 2.297 1_556 S
Cd30 O41 2.439 . S
O31 Cd30 2.240 . S
O31 C36 1.279 . S
O32 Cd29 2.297 1_655 S
O32 C34 1.247 . S
O33 Cd29 2.439 . S
O33 C34 1.208 1_455 S
C34 O32 1.247 . S
C34 O33 1.208 1_655 S
C35 O40 1.247 1_556 S
C35 O41 1.208 . S
C36 O28 1.315 1_556 S
C36 O31 1.279 . S
C37 O38 1.315 . S
C37 O39 1.279 . S
O38 Cd30 2.223 1_554 S
O38 C37 1.315 . S
O39 Cd29 2.240 1_554 S
O39 C37 1.279 . S
O40 Cd30 2.297 1_554 S
O40 C35 1.247 1_554 S
O41 Cd30 2.439 . S
O41 C35 1.208 . S
O42 Cd43 2.223 1_554 S
O42 C50 1.315 1_554 S
Cd43 O42 2.223 1_556 S
Cd43 O46 2.297 . S
Cd43 O47 2.439 . S
Cd43 O53 2.240 1_556 S
Cd44 O45 2.240 . S
Cd44 O52 2.223 1_556 S
Cd44 O54 2.297 1_556 S
Cd44 O55 2.439 . S
O45 Cd44 2.240 . S
O45 C50 1.279 . S
O46 Cd43 2.297 . S
O46 C48 1.247 . S
O47 Cd43 2.439 . S
O47 C48 1.208 . S
C48 O46 1.247 . S
C48 O47 1.208 . S
C49 O54 1.247 1_556 S
C49 O55 1.208 . S
C50 O42 1.315 1_556 S
C50 O45 1.279 . S
C51 O52 1.315 . S
C51 O53 1.279 . S
O52 Cd44 2.223 1_554 S
O52 C51 1.315 . S
O53 Cd43 2.240 1_554 S
O53 C51 1.279 . S
O54 Cd44 2.297 1_554 S
O54 C49 1.247 1_554 S
O55 Cd44 2.439 . S
O55 C49 1.208 . S
O56 Cd57 2.223 . S
O56 C64 1.315 . S
Cd57 O56 2.223 . S
Cd57 O60 2.297 1_655 S
Cd57 O61 2.439 . S
Cd57 O67 2.240 . S
Cd58 O59 2.240 . S
Cd58 O66 2.223 . S
Cd58 O68 2.297 . S
Cd58 O69 2.439 . S
O59 Cd58 2.240 . S
O59 C64 1.279 . S
O60 Cd57 2.297 1_455 S
O60 C62 1.247 . S
O61 Cd57 2.439 . S
O61 C62 1.208 1_655 S
C62 O60 1.247 . S
C62 O61 1.208 1_455 S
C63 O68 1.247 . S
C63 O69 1.208 . S
C64 O56 1.315 . S
C64 O59 1.279 . S
C65 O66 1.315 . S
C65 O67 1.279 . S
O66 Cd58 2.223 . S
O66 C65 1.315 . S
O67 Cd57 2.240 . S
O67 C65 1.279 . S
O68 Cd58 2.297 . S
O68 C63 1.247 . S
O69 Cd58 2.439 . S
O69 C63 1.208 . S
O70 Cd71 2.223 . S
O70 C78 1.315 . S
Cd71 O70 2.223 . S
Cd71 O74 2.297 . S
Cd71 O75 2.439 . S
Cd71 O81 2.240 . S
Cd72 O73 2.240 . S
Cd72 O80 2.223 . S
Cd72 O82 2.297 . S
Cd72 O83 2.439 . S
O73 Cd72 2.240 . S
O73 C78 1.279 . S
O74 Cd71 2.297 . S
O74 C76 1.247 . S
O75 Cd71 2.439 . S
O75 C76 1.208 . S
C76 O74 1.247 . S
C76 O75 1.208 . S
C77 O82 1.247 . S
C77 O83 1.208 . S
C78 O70 1.315 . S
C78 O73 1.279 . S
C79 O80 1.315 . S
C79 O81 1.279 . S
O80 Cd72 2.223 . S
O80 C79 1.315 . S
O81 Cd71 2.240 . S
O81 C79 1.279 . S
O82 Cd72 2.297 . S
O82 C77 1.247 . S
O83 Cd72 2.439 . S
O83 C77 1.208 . S
O84 Cd85 2.223 1_556 S
O84 C92 1.315 1_556 S
Cd85 O84 2.223 1_554 S
Cd85 O88 2.297 1_655 S
Cd85 O89 2.439 . S
Cd85 O95 2.240 1_554 S
Cd86 O87 2.240 . S
Cd86 O94 2.223 1_554 S
Cd86 O96 2.297 1_554 S
Cd86 O97 2.439 . S
O87 Cd86 2.240 . S
O87 C92 1.279 . S
O88 Cd85 2.297 1_455 S
O88 C90 1.247 . S
O89 Cd85 2.439 . S
O89 C90 1.208 1_655 S
C90 O88 1.247 . S
C90 O89 1.208 1_455 S
C91 O96 1.247 1_554 S
C91 O97 1.208 . S
C92 O84 1.315 1_554 S
C92 O87 1.279 . S
C93 O94 1.315 . S
C93 O95 1.279 . S
O94 Cd86 2.223 1_556 S
O94 C93 1.315 . S
O95 Cd85 2.240 1_556 S
O95 C93 1.279 . S
O96 Cd86 2.297 1_556 S
O96 C91 1.247 1_556 S
O97 Cd86 2.439 . S
O97 C91 1.208 . S
O98 Cd99 2.223 1_556 S
O98 C106 1.315 1_556 S
Cd99 O98 2.223 1_554 S
Cd99 O102 2.297 . S
Cd99 O103 2.439 . S
Cd99 O109 2.240 1_554 S
Cd100 O101 2.240 . S
Cd100 O108 2.223 1_554 S
Cd100 O110 2.297 1_554 S
Cd100 O111 2.439 . S
O101 Cd100 2.240 . S
O101 C106 1.279 . S
O102 Cd99 2.297 . S
O102 C104 1.247 . S
O103 Cd99 2.439 . S
O103 C104 1.208 . S
C104 O102 1.247 . S
C104 O103 1.208 . S
C105 O110 1.247 1_554 S
C105 O111 1.208 . S
C106 O98 1.315 1_554 S
C106 O101 1.279 . S
C107 O108 1.315 . S
C107 O109 1.279 . S
O108 Cd100 2.223 1_556 S
O108 C107 1.315 . S
O109 Cd99 2.240 1_556 S
O109 C107 1.279 . S
O110 Cd100 2.297 1_556 S
O110 C105 1.247 1_556 S
O111 Cd100 2.439 . S
O111 C105 1.208 . S
O112 Cd113 2.223 . S
O112 C120 1.315 . S
Cd113 O112 2.223 . S
Cd113 O116 2.297 1_455 S
Cd113 O117 2.439 . S
Cd113 O123 2.240 . S
Cd114 O115 2.240 . S
Cd114 O122 2.223 . S
Cd114 O124 2.297 . S
Cd114 O125 2.439 . S
O115 Cd114 2.240 . S
O115 C120 1.279 . S
O116 Cd113 2.297 1_655 S
O116 C118 1.247 . S
O117 Cd113 2.439 . S
O117 C118 1.208 1_455 S
C118 O116 1.247 . S
C118 O117 1.208 1_655 S
C119 O124 1.247 . S
C119 O125 1.208 . S
C120 O112 1.315 . S
C120 O115 1.279 . S
C121 O122 1.315 . S
C121 O123 1.279 . S
O122 Cd114 2.223 . S
O122 C121 1.315 . S
O123 Cd113 2.240 . S
O123 C121 1.279 . S
O124 Cd114 2.297 . S
O124 C119 1.247 . S
O125 Cd114 2.439 . S
O125 C119 1.208 . S
O126 Cd127 2.223 . S
O126 C134 1.315 . S
Cd127 O126 2.223 . S
Cd127 O130 2.297 . S
Cd127 O131 2.439 . S
Cd127 O137 2.240 . S
Cd128 O129 2.240 . S
Cd128 O136 2.223 . S
Cd128 O138 2.297 . S
Cd128 O139 2.439 . S
O129 Cd128 2.240 . S
O129 C134 1.279 . S
O130 Cd127 2.297 . S
O130 C132 1.247 . S
O131 Cd127 2.439 . S
O131 C132 1.208 . S
C132 O130 1.247 . S
C132 O131 1.208 . S
C133 O138 1.247 . S
C133 O139 1.208 . S
C134 O126 1.315 . S
C134 O129 1.279 . S
C135 O136 1.315 . S
C135 O137 1.279 . S
O136 Cd128 2.223 . S
O136 C135 1.315 . S
O137 Cd127 2.240 . S
O137 C135 1.279 . S
O138 Cd128 2.297 . S
O138 C133 1.247 . S
O139 Cd128 2.439 . S
O139 C133 1.208 . S
O140 Cd141 2.223 . S
O140 C148 1.315 . S
Cd141 O140 2.223 . S
Cd141 O144 2.297 1_455 S
Cd141 O145 2.439 . S
Cd141 O151 2.240 . S
Cd142 O143 2.240 . S
Cd142 O150 2.223 . S
Cd142 O152 2.297 . S
Cd142 O153 2.439 . S
O143 Cd142 2.240 . S
O143 C148 1.279 . S
O144 Cd141 2.297 1_655 S
O144 C146 1.247 . S
O145 Cd141 2.439 . S
O145 C146 1.208 1_455 S
C146 O144 1.247 . S
C146 O145 1.208 1_655 S
C147 O152 1.247 . S
C147 O153 1.208 . S
C148 O140 1.315 . S
C148 O143 1.279 . S
C149 O150 1.315 . S
C149 O151 1.279 . S
O150 Cd142 2.223 . S
O150 C149 1.315 . S
O151 Cd141 2.240 . S
O151 C149 1.279 . S
O152 Cd142 2.297 . S
O152 C147 1.247 . S
O153 Cd142 2.439 . S
O153 C147 1.208 . S
O154 Cd155 2.223 . S
O154 C162 1.315 . S
Cd155 O154 2.223 . S
Cd155 O158 2.297 . S
Cd155 O159 2.439 . S
Cd155 O165 2.240 . S
Cd156 O157 2.240 . S
Cd156 O164 2.223 . S
Cd156 O166 2.297 . S
Cd156 O167 2.439 . S
O157 Cd156 2.240 . S
O157 C162 1.279 . S
O158 Cd155 2.297 . S
O158 C160 1.247 . S
O159 Cd155 2.439 . S
O159 C160 1.208 . S
C160 O158 1.247 . S
C160 O159 1.208 . S
C161 O166 1.247 . S
C161 O167 1.208 . S
C162 O154 1.315 . S
C162 O157 1.279 . S
C163 O164 1.315 . S
C163 O165 1.279 . S
O164 Cd156 2.223 . S
O164 C163 1.315 . S
O165 Cd155 2.240 . S
O165 C163 1.279 . S
O166 Cd156 2.297 . S
O166 C161 1.247 . S
O167 Cd156 2.439 . S
O167 C161 1.208 . S
O168 Cd169 2.223 . S
O168 C176 1.315 . S
Cd169 O168 2.223 . S
Cd169 O172 2.297 1_655 S
Cd169 O173 2.439 . S
Cd169 O179 2.240 . S
Cd170 O171 2.240 . S
Cd170 O178 2.223 . S
Cd170 O180 2.297 . S
Cd170 O181 2.439 . S
O171 Cd170 2.240 . S
O171 C176 1.279 . S
O172 Cd169 2.297 1_455 S
O172 C174 1.247 . S
O173 Cd169 2.439 . S
O173 C174 1.208 1_655 S
C174 O172 1.247 . S
C174 O173 1.208 1_455 S
C175 O180 1.247 . S
C175 O181 1.208 . S
C176 O168 1.315 . S
C176 O171 1.279 . S
C177 O178 1.315 . S
C177 O179 1.279 . S
O178 Cd170 2.223 . S
O178 C177 1.315 . S
O179 Cd169 2.240 . S
O179 C177 1.279 . S
O180 Cd170 2.297 . S
O180 C175 1.247 . S
O181 Cd170 2.439 . S
O181 C175 1.208 . S
O182 Cd183 2.223 . S
O182 C190 1.315 . S
Cd183 O182 2.223 . S
Cd183 O186 2.297 . S
Cd183 O187 2.439 . S
Cd183 O193 2.240 . S
Cd184 O185 2.240 . S
Cd184 O192 2.223 . S
Cd184 O194 2.297 . S
Cd184 O195 2.439 . S
O185 Cd184 2.240 . S
O185 C190 1.279 . S
O186 Cd183 2.297 . S
O186 C188 1.247 . S
O187 Cd183 2.439 . S
O187 C188 1.208 . S
C188 O186 1.247 . S
C188 O187 1.208 . S
C189 O194 1.247 . S
C189 O195 1.208 . S
C190 O182 1.315 . S
C190 O185 1.279 . S
C191 O192 1.315 . S
C191 O193 1.279 . S
O192 Cd184 2.223 . S
O192 C191 1.315 . S
O193 Cd183 2.240 . S
O193 C191 1.279 . S
O194 Cd184 2.297 . S
O194 C189 1.247 . S
O195 Cd184 2.439 . S
O195 C189 1.208 . S
O196 Cd197 2.223 . S
O196 C204 1.315 . S
Cd197 O196 2.223 . S
Cd197 O200 2.297 1_655 S
Cd197 O201 2.439 . S
Cd197 O207 2.240 . S
Cd198 O199 2.240 . S
Cd198 O206 2.223 . S
Cd198 O208 2.297 . S
Cd198 O209 2.439 . S
O199 Cd198 2.240 . S
O199 C204 1.279 . S
O200 Cd197 2.297 1_455 S
O200 C202 1.247 . S
O201 Cd197 2.439 . S
O201 C202 1.208 1_655 S
C202 O200 1.247 . S
C202 O201 1.208 1_455 S
C203 O208 1.247 . S
C203 O209 1.208 . S
C204 O196 1.315 . S
C204 O199 1.279 . S
C205 O206 1.315 . S
C205 O207 1.279 . S
O206 Cd198 2.223 . S
O206 C205 1.315 . S
O207 Cd197 2.240 . S
O207 C205 1.279 . S
O208 Cd198 2.297 . S
O208 C203 1.247 . S
O209 Cd198 2.439 . S
O209 C203 1.208 . S
O210 Cd211 2.223 . S
O210 C218 1.315 . S
Cd211 O210 2.223 . S
Cd211 O214 2.297 . S
Cd211 O215 2.439 . S
Cd211 O221 2.240 . S
Cd212 O213 2.240 . S
Cd212 O220 2.223 . S
Cd212 O222 2.297 . S
Cd212 O223 2.439 . S
O213 Cd212 2.240 . S
O213 C218 1.279 . S
O214 Cd211 2.297 . S
O214 C216 1.247 . S
O215 Cd211 2.439 . S
O215 C216 1.208 . S
C216 O214 1.247 . S
C216 O215 1.208 . S
C217 O222 1.247 . S
C217 O223 1.208 . S
C218 O210 1.315 . S
C218 O213 1.279 . S
C219 O220 1.315 . S
C219 O221 1.279 . S
O220 Cd212 2.223 . S
O220 C219 1.315 . S
O221 Cd211 2.240 . S
O221 C219 1.279 . S
O222 Cd212 2.297 . S
O222 C217 1.247 . S
O223 Cd212 2.439 . S
O223 C217 1.208 . S
O224 Cd225 2.223 . S
O224 C232 1.315 . S
Cd225 O224 2.223 . S
Cd225 O228 2.297 . S
Cd225 O229 2.439 . S
Cd225 O235 2.240 . S
Cd226 O227 2.240 . S
Cd226 O234 2.223 . S
Cd226 O236 2.297 . S
Cd226 O237 2.439 . S
O227 Cd226 2.240 . S
O227 C232 1.279 . S
O228 Cd225 2.297 . S
O228 C230 1.247 . S
O229 Cd225 2.439 . S
O229 C230 1.208 . S
C230 O228 1.247 . S
C230 O229 1.208 . S
C231 O236 1.247 . S
C231 O237 1.208 . S
C232 O224 1.315 . S
C232 O227 1.279 . S
C233 O234 1.315 . S
C233 O235 1.279 . S
O234 Cd226 2.223 . S
O234 C233 1.315 . S
O235 Cd225 2.240 . S
O235 C233 1.279 . S
O236 Cd226 2.297 . S
O236 C231 1.247 . S
O237 Cd226 2.439 . S
O237 C231 1.208 . S
O238 Cd239 2.223 . S
O238 C246 1.315 . S
Cd239 O238 2.223 . S
Cd239 O242 2.297 . S
Cd239 O243 2.439 . S
Cd239 O249 2.240 . S
Cd240 O241 2.240 . S
Cd240 O248 2.223 . S
Cd240 O250 2.297 . S
Cd240 O251 2.439 . S
O241 Cd240 2.240 . S
O241 C246 1.279 . S
O242 Cd239 2.297 . S
O242 C244 1.247 . S
O243 Cd239 2.439 . S
O243 C244 1.208 . S
C244 O242 1.247 . S
C244 O243 1.208 . S
C245 O250 1.247 . S
C245 O251 1.208 . S
C246 O238 1.315 . S
C246 O241 1.279 . S
C247 O248 1.315 . S
C247 O249 1.279 . S
O248 Cd240 2.223 . S
O248 C247 1.315 . S
O249 Cd239 2.240 . S
O249 C247 1.279 . S
O250 Cd240 2.297 . S
O250 C245 1.247 . S
O251 Cd240 2.439 . S
O251 C245 1.208 . S
O252 Cd253 2.223 . S
O252 C260 1.315 . S
Cd253 O252 2.223 . S
Cd253 O256 2.297 . S
Cd253 O257 2.439 . S
Cd253 O263 2.240 . S
Cd254 O255 2.240 . S
Cd254 O262 2.223 . S
Cd254 O264 2.297 . S
Cd254 O265 2.439 . S
O255 Cd254 2.240 . S
O255 C260 1.279 . S
O256 Cd253 2.297 . S
O256 C258 1.247 . S
O257 Cd253 2.439 . S
O257 C258 1.208 . S
C258 O256 1.247 . S
C258 O257 1.208 . S
C259 O264 1.247 . S
C259 O265 1.208 . S
C260 O252 1.315 . S
C260 O255 1.279 . S
C261 O262 1.315 . S
C261 O263 1.279 . S
O262 Cd254 2.223 . S
O262 C261 1.315 . S
O263 Cd253 2.240 . S
O263 C261 1.279 . S
O264 Cd254 2.297 . S
O264 C259 1.247 . S
O265 Cd254 2.439 . S
O265 C259 1.208 . S
O266 Cd267 2.223 . S
O266 C274 1.315 . S
Cd267 O266 2.223 . S
Cd267 O270 2.297 . S
Cd267 O271 2.439 . S
Cd267 O277 2.240 . S
Cd268 O269 2.240 . S
Cd268 O276 2.223 . S
Cd268 O278 2.297 . S
Cd268 O279 2.439 . S
O269 Cd268 2.240 . S
O269 C274 1.279 . S
O270 Cd267 2.297 . S
O270 C272 1.247 . S
O271 Cd267 2.439 . S
O271 C272 1.208 . S
C272 O270 1.247 . S
C272 O271 1.208 . S
C273 O278 1.247 . S
C273 O279 1.208 . S
C274 O266 1.315 . S
C274 O269 1.279 . S
C275 O276 1.315 . S
C275 O277 1.279 . S
O276 Cd268 2.223 . S
O276 C275 1.315 . S
O277 Cd267 2.240 . S
O277 C275 1.279 . S
O278 Cd268 2.297 . S
O278 C273 1.247 . S
O279 Cd268 2.439 . S
O279 C273 1.208 . S
O280 Cd281 2.223 . S
O280 C288 1.315 . S
Cd281 O280 2.223 . S
Cd281 O284 2.297 . S
Cd281 O285 2.439 . S
Cd281 O291 2.240 . S
Cd282 O283 2.240 . S
Cd282 O290 2.223 . S
Cd282 O292 2.297 . S
Cd282 O293 2.439 . S
O283 Cd282 2.240 . S
O283 C288 1.279 . S
O284 Cd281 2.297 . S
O284 C286 1.247 . S
O285 Cd281 2.439 . S
O285 C286 1.208 . S
C286 O284 1.247 . S
C286 O285 1.208 . S
C287 O292 1.247 . S
C287 O293 1.208 . S
C288 O280 1.315 . S
C288 O283 1.279 . S
C289 O290 1.315 . S
C289 O291 1.279 . S
O290 Cd282 2.223 . S
O290 C289 1.315 . S
O291 Cd281 2.240 . S
O291 C289 1.279 . S
O292 Cd282 2.297 . S
O292 C287 1.247 . S
O293 Cd282 2.439 . S
O293 C287 1.208 . S
O294 Cd295 2.223 . S
O294 C302 1.315 . S
Cd295 O294 2.223 . S
Cd295 O298 2.297 . S
Cd295 O299 2.439 . S
Cd295 O305 2.240 . S
Cd296 O297 2.240 . S
Cd296 O304 2.223 . S
Cd296 O306 2.297 . S
Cd296 O307 2.439 . S
O297 Cd296 2.240 . S
O297 C302 1.279 . S
O298 Cd295 2.297 . S
O298 C300 1.247 . S
O299 Cd295 2.439 . S
O299 C300 1.208 . S
C300 O298 1.247 . S
C300 O299 1.208 . S
C301 O306 1.247 . S
C301 O307 1.208 . S
C302 O294 1.315 . S
C302 O297 1.279 . S
C303 O304 1.315 . S
C303 O305 1.279 . S
O304 Cd296 2.223 . S
O304 C303 1.315 . S
O305 Cd295 2.240 . S
O305 C303 1.279 . S
O306 Cd296 2.297 . S
O306 C301 1.247 . S
O307 Cd296 2.439 . S
O307 C301 1.208 . S
O308 Cd309 2.223 . S
O308 C316 1.315 . S
Cd309 O308 2.223 . S
Cd309 O312 2.297 . S
Cd309 O313 2.439 . S
Cd309 O319 2.240 . S
Cd310 O311 2.240 . S
Cd310 O318 2.223 . S
Cd310 O320 2.297 . S
Cd310 O321 2.439 . S
O311 Cd310 2.240 . S
O311 C316 1.279 . S
O312 Cd309 2.297 . S
O312 C314 1.247 . S
O313 Cd309 2.439 . S
O313 C314 1.208 . S
C314 O312 1.247 . S
C314 O313 1.208 . S
C315 O320 1.247 . S
C315 O321 1.208 . S
C316 O308 1.315 . S
C316 O311 1.279 . S
C317 O318 1.315 . S
C317 O319 1.279 . S
O318 Cd310 2.223 . S
O318 C317 1.315 . S
O319 Cd309 2.240 . S
O319 C317 1.279 . S
O320 Cd310 2.297 . S
O320 C315 1.247 . S
O321 Cd310 2.439 . S
O321 C315 1.208 . S
O322 Cd323 2.223 . S
O322 C330 1.315 . S
Cd323 O322 2.223 . S
Cd323 O326 2.297 . S
Cd323 O327 2.439 . S
Cd323 O333 2.240 . S
Cd324 O325 2.240 . S
Cd324 O332 2.223 . S
Cd324 O334 2.297 . S
Cd324 O335 2.439 . S
O325 Cd324 2.240 . S
O325 C330 1.279 . S
O326 Cd323 2.297 . S
O326 C328 1.247 . S
O327 Cd323 2.439 . S
O327 C328 1.208 . S
C328 O326 1.247 . S
C328 O327 1.208 . S
C329 O334 1.247 . S
C329 O335 1.208 . S
C330 O322 1.315 . S
C330 O325 1.279 . S
C331 O332 1.315 . S
C331 O333 1.279 . S
O332 Cd324 2.223 . S
O332 C331 1.315 . S
O333 Cd323 2.240 . S
O333 C331 1.279 . S
O334 Cd324 2.297 . S
O334 C329 1.247 . S
O335 Cd324 2.439 . S
O335 C329 1.208 . S
O336 Cd337 2.223 . S
O336 C344 1.315 . S
Cd337 O336 2.223 . S
Cd337 O340 2.297 . S
Cd337 O341 2.439 . S
Cd337 O347 2.240 . S
Cd338 O339 2.240 . S
Cd338 O346 2.223 . S
Cd338 O348 2.297 . S
Cd338 O349 2.439 . S
O339 Cd338 2.240 . S
O339 C344 1.279 . S
O340 Cd337 2.297 . S
O340 C342 1.247 . S
O341 Cd337 2.439 . S
O341 C342 1.208 . S
C342 O340 1.247 . S
C342 O341 1.208 . S
C343 O348 1.247 . S
C343 O349 1.208 . S
C344 O336 1.315 . S
C344 O339 1.279 . S
C345 O346 1.315 . S
C345 O347 1.279 . S
O346 Cd338 2.223 . S
O346 C345 1.315 . S
O347 Cd337 2.240 . S
O347 C345 1.279 . S
O348 Cd338 2.297 . S
O348 C343 1.247 . S
O349 Cd338 2.439 . S
O349 C343 1.208 . S
O350 Cd351 2.223 . S
O350 C358 1.315 . S
Cd351 O350 2.223 . S
Cd351 O354 2.297 . S
Cd351 O355 2.439 . S
Cd351 O361 2.240 . S
Cd352 O353 2.240 . S
Cd352 O360 2.223 . S
Cd352 O362 2.297 . S
Cd352 O363 2.439 . S
O353 Cd352 2.240 . S
O353 C358 1.279 . S
O354 Cd351 2.297 . S
O354 C356 1.247 . S
O355 Cd351 2.439 . S
O355 C356 1.208 . S
C356 O354 1.247 . S
C356 O355 1.208 . S
C357 O362 1.247 . S
C357 O363 1.208 . S
C358 O350 1.315 . S
C358 O353 1.279 . S
C359 O360 1.315 . S
C359 O361 1.279 . S
O360 Cd352 2.223 . S
O360 C359 1.315 . S
O361 Cd351 2.240 . S
O361 C359 1.279 . S
O362 Cd352 2.297 . S
O362 C357 1.247 . S
O363 Cd352 2.439 . S
O363 C357 1.208 . S
O364 Cd365 2.223 1_554 S
O364 C372 1.315 1_554 S
Cd365 O364 2.223 1_556 S
Cd365 O368 2.297 . S
Cd365 O369 2.439 . S
Cd365 O375 2.240 1_556 S
Cd366 O367 2.240 . S
Cd366 O374 2.223 1_556 S
Cd366 O376 2.297 1_556 S
Cd366 O377 2.439 . S
O367 Cd366 2.240 . S
O367 C372 1.279 . S
O368 Cd365 2.297 . S
O368 C370 1.247 . S
O369 Cd365 2.439 . S
O369 C370 1.208 . S
C370 O368 1.247 . S
C370 O369 1.208 . S
C371 O376 1.247 1_556 S
C371 O377 1.208 . S
C372 O364 1.315 1_556 S
C372 O367 1.279 . S
C373 O374 1.315 . S
C373 O375 1.279 . S
O374 Cd366 2.223 1_554 S
O374 C373 1.315 . S
O375 Cd365 2.240 1_554 S
O375 C373 1.279 . S
O376 Cd366 2.297 1_554 S
O376 C371 1.247 1_554 S
O377 Cd366 2.439 . S
O377 C371 1.208 . S
O378 Cd379 2.223 1_554 S
O378 C386 1.315 1_554 S
Cd379 O378 2.223 1_556 S
Cd379 O382 2.297 . S
Cd379 O383 2.439 . S
Cd379 O389 2.240 1_556 S
Cd380 O381 2.240 . S
Cd380 O388 2.223 1_556 S
Cd380 O390 2.297 1_556 S
Cd380 O391 2.439 . S
O381 Cd380 2.240 . S
O381 C386 1.279 . S
O382 Cd379 2.297 . S
O382 C384 1.247 . S
O383 Cd379 2.439 . S
O383 C384 1.208 . S
C384 O382 1.247 . S
C384 O383 1.208 . S
C385 O390 1.247 1_556 S
C385 O391 1.208 . S
C386 O378 1.315 1_556 S
C386 O381 1.279 . S
C387 O388 1.315 . S
C387 O389 1.279 . S
O388 Cd380 2.223 1_554 S
O388 C387 1.315 . S
O389 Cd379 2.240 1_554 S
O389 C387 1.279 . S
O390 Cd380 2.297 1_554 S
O390 C385 1.247 1_554 S
O391 Cd380 2.439 . S
O391 C385 1.208 . S
O392 Cd393 2.223 . S
O392 C400 1.315 . S
Cd393 O392 2.223 . S
Cd393 O396 2.297 . S
Cd393 O397 2.439 . S
Cd393 O403 2.240 . S
Cd394 O395 2.240 . S
Cd394 O402 2.223 . S
Cd394 O404 2.297 . S
Cd394 O405 2.439 . S
O395 Cd394 2.240 . S
O395 C400 1.279 . S
O396 Cd393 2.297 . S
O396 C398 1.247 . S
O397 Cd393 2.439 . S
O397 C398 1.208 . S
C398 O396 1.247 . S
C398 O397 1.208 . S
C399 O404 1.247 . S
C399 O405 1.208 . S
C400 O392 1.315 . S
C400 O395 1.279 . S
C401 O402 1.315 . S
C401 O403 1.279 . S
O402 Cd394 2.223 . S
O402 C401 1.315 . S
O403 Cd393 2.240 . S
O403 C401 1.279 . S
O404 Cd394 2.297 . S
O404 C399 1.247 . S
O405 Cd394 2.439 . S
O405 C399 1.208 . S
O406 Cd407 2.223 . S
O406 C414 1.315 . S
Cd407 O406 2.223 . S
Cd407 O410 2.297 . S
Cd407 O411 2.439 . S
Cd407 O417 2.240 . S
Cd408 O409 2.240 . S
Cd408 O416 2.223 . S
Cd408 O418 2.297 . S
Cd408 O419 2.439 . S
O409 Cd408 2.240 . S
O409 C414 1.279 . S
O410 Cd407 2.297 . S
O410 C412 1.247 . S
O411 Cd407 2.439 . S
O411 C412 1.208 . S
C412 O410 1.247 . S
C412 O411 1.208 . S
C413 O418 1.247 . S
C413 O419 1.208 . S
C414 O406 1.315 . S
C414 O409 1.279 . S
C415 O416 1.315 . S
C415 O417 1.279 . S
O416 Cd408 2.223 . S
O416 C415 1.315 . S
O417 Cd407 2.240 . S
O417 C415 1.279 . S
O418 Cd408 2.297 . S
O418 C413 1.247 . S
O419 Cd408 2.439 . S
O419 C413 1.208 . S
O420 Cd421 2.223 1_556 S
O420 C428 1.315 1_556 S
Cd421 O420 2.223 1_554 S
Cd421 O424 2.297 . S
Cd421 O425 2.439 . S
Cd421 O431 2.240 1_554 S
Cd422 O423 2.240 . S
Cd422 O430 2.223 1_554 S
Cd422 O432 2.297 1_554 S
Cd422 O433 2.439 . S
O423 Cd422 2.240 . S
O423 C428 1.279 . S
O424 Cd421 2.297 . S
O424 C426 1.247 . S
O425 Cd421 2.439 . S
O425 C426 1.208 . S
C426 O424 1.247 . S
C426 O425 1.208 . S
C427 O432 1.247 1_554 S
C427 O433 1.208 . S
C428 O420 1.315 1_554 S
C428 O423 1.279 . S
C429 O430 1.315 . S
C429 O431 1.279 . S
O430 Cd422 2.223 1_556 S
O430 C429 1.315 . S
O431 Cd421 2.240 1_556 S
O431 C429 1.279 . S
O432 Cd422 2.297 1_556 S
O432 C427 1.247 1_556 S
O433 Cd422 2.439 . S
O433 C427 1.208 . S
O434 Cd435 2.223 1_556 S
O434 C442 1.315 1_556 S
Cd435 O434 2.223 1_554 S
Cd435 O438 2.297 . S
Cd435 O439 2.439 . S
Cd435 O445 2.240 1_554 S
Cd436 O437 2.240 . S
Cd436 O444 2.223 1_554 S
Cd436 O446 2.297 1_554 S
Cd436 O447 2.439 . S
O437 Cd436 2.240 . S
O437 C442 1.279 . S
O438 Cd435 2.297 . S
O438 C440 1.247 . S
O439 Cd435 2.439 . S
O439 C440 1.208 . S
C440 O438 1.247 . S
C440 O439 1.208 . S
C441 O446 1.247 1_554 S
C441 O447 1.208 . S
C442 O434 1.315 1_554 S
C442 O437 1.279 . S
C443 O444 1.315 . S
C443 O445 1.279 . S
O444 Cd436 2.223 1_556 S
O444 C443 1.315 . S
O445 Cd435 2.240 1_556 S
O445 C443 1.279 . S
O446 Cd436 2.297 1_556 S
O446 C441 1.247 1_556 S
O447 Cd436 2.439 . S
O447 C441 1.208 . S
H448 C454 0.930 . S
H449 C457 0.930 . S
H450 C458 0.930 . S
H451 C459 0.930 . S
H452 C462 0.930 . S
H453 C463 0.930 . S
C454 H448 0.930 . S
C454 C455 1.355 . S
C454 C456 1.415 . S
C455 C454 1.355 . S
C455 C457 1.419 . S
C456 C454 1.415 . S
C456 C461 1.425 . S
C456 C463 1.409 . S
C457 H449 0.930 . S
C457 C455 1.419 . S
C457 C458 1.362 . S
C458 H450 0.930 . S
C458 C457 1.362 . S
C458 C461 1.409 . S
C459 H451 0.930 . S
C459 C460 1.355 . S
C459 C461 1.415 . S
C460 C459 1.355 . S
C460 C462 1.419 . S
C461 C456 1.425 . S
C461 C458 1.409 . S
C461 C459 1.415 . S
C462 H452 0.930 . S
C462 C460 1.419 . S
C462 C463 1.362 . S
C463 H453 0.930 . S
C463 C456 1.409 . S
C463 C462 1.362 . S
H464 C470 0.930 . S
H465 C473 0.930 . S
H466 C474 0.930 . S
H467 C475 0.930 . S
H468 C478 0.930 . S
H469 C479 0.930 . S
C470 H464 0.930 . S
C470 C471 1.355 . S
C470 C472 1.415 . S
C471 C470 1.355 . S
C471 C473 1.419 . S
C472 C470 1.415 . S
C472 C477 1.425 . S
C472 C479 1.409 . S
C473 H465 0.930 . S
C473 C471 1.419 . S
C473 C474 1.362 . S
C474 H466 0.930 . S
C474 C473 1.362 . S
C474 C477 1.409 . S
C475 H467 0.930 . S
C475 C476 1.355 . S
C475 C477 1.415 . S
C476 C475 1.355 . S
C476 C478 1.419 . S
C477 C472 1.425 . S
C477 C474 1.409 . S
C477 C475 1.415 . S
C478 H468 0.930 . S
C478 C476 1.419 . S
C478 C479 1.362 . S
C479 H469 0.930 . S
C479 C472 1.409 . S
C479 C478 1.362 . S
H480 C486 0.930 . S
H481 C489 0.930 . S
H482 C490 0.930 . S
H483 C491 0.930 . S
H484 C494 0.930 . S
H485 C495 0.930 . S
C486 H480 0.930 . S
C486 C487 1.355 . S
C486 C488 1.415 . S
C487 C486 1.355 . S
C487 C489 1.419 . S
C488 C486 1.415 . S
C488 C493 1.425 . S
C488 C495 1.409 . S
C489 H481 0.930 . S
C489 C487 1.419 . S
C489 C490 1.362 . S
C490 H482 0.930 . S
C490 C489 1.362 . S
C490 C493 1.409 . S
C491 H483 0.930 . S
C491 C492 1.355 . S
C491 C493 1.415 . S
C492 C491 1.355 . S
C492 C494 1.419 . S
C493 C488 1.425 . S
C493 C490 1.409 . S
C493 C491 1.415 . S
C494 H484 0.930 . S
C494 C492 1.419 . S
C494 C495 1.362 . S
C495 H485 0.930 . S
C495 C488 1.409 . S
C495 C494 1.362 . S
H496 C502 0.930 . S
H497 C505 0.930 . S
H498 C506 0.930 . S
H499 C507 0.930 . S
H500 C510 0.930 . S
H501 C511 0.930 . S
C502 H496 0.930 . S
C502 C503 1.355 . S
C502 C504 1.415 . S
C503 C502 1.355 . S
C503 C505 1.419 . S
C504 C502 1.415 . S
C504 C509 1.425 . S
C504 C511 1.409 . S
C505 H497 0.930 . S
C505 C503 1.419 . S
C505 C506 1.362 . S
C506 H498 0.930 . S
C506 C505 1.362 . S
C506 C509 1.409 . S
C507 H499 0.930 . S
C507 C508 1.355 . S
C507 C509 1.415 . S
C508 C507 1.355 . S
C508 C510 1.419 . S
C509 C504 1.425 . S
C509 C506 1.409 . S
C509 C507 1.415 . S
C510 H500 0.930 . S
C510 C508 1.419 . S
C510 C511 1.362 . S
C511 H501 0.930 . S
C511 C504 1.409 . S
C511 C510 1.362 . S
H512 C518 0.930 . S
H513 C521 0.930 . S
H514 C522 0.930 . S
H515 C523 0.930 . S
H516 C526 0.930 . S
H517 C527 0.930 . S
C518 H512 0.930 . S
C518 C519 1.355 . S
C518 C520 1.415 . S
C519 C518 1.355 . S
C519 C521 1.419 . S
C520 C518 1.415 . S
C520 C525 1.425 . S
C520 C527 1.409 . S
C521 H513 0.930 . S
C521 C519 1.419 . S
C521 C522 1.362 . S
C522 H514 0.930 . S
C522 C521 1.362 . S
C522 C525 1.409 . S
C523 H515 0.930 . S
C523 C524 1.355 . S
C523 C525 1.415 . S
C524 C523 1.355 . S
C524 C526 1.419 . S
C525 C520 1.425 . S
C525 C522 1.409 . S
C525 C523 1.415 . S
C526 H516 0.930 . S
C526 C524 1.419 . S
C526 C527 1.362 . S
C527 H517 0.930 . S
C527 C520 1.409 . S
C527 C526 1.362 . S
H528 C534 0.930 . S
H529 C537 0.930 . S
H530 C538 0.930 . S
H531 C539 0.930 . S
H532 C542 0.930 . S
H533 C543 0.930 . S
C534 H528 0.930 . S
C534 C535 1.355 . S
C534 C536 1.415 . S
C535 C534 1.355 . S
C535 C537 1.419 . S
C536 C534 1.415 . S
C536 C541 1.425 . S
C536 C543 1.409 . S
C537 H529 0.930 . S
C537 C535 1.419 . S
C537 C538 1.362 . S
C538 H530 0.930 . S
C538 C537 1.362 . S
C538 C541 1.409 . S
C539 H531 0.930 . S
C539 C540 1.355 . S
C539 C541 1.415 . S
C540 C539 1.355 . S
C540 C542 1.419 . S
C541 C536 1.425 . S
C541 C538 1.409 . S
C541 C539 1.415 . S
C542 H532 0.930 . S
C542 C540 1.419 . S
C542 C543 1.362 . S
C543 H533 0.930 . S
C543 C536 1.409 . S
C543 C542 1.362 . S
H544 C550 0.930 . S
H545 C553 0.930 . S
H546 C554 0.930 . S
H547 C555 0.930 . S
H548 C558 0.930 . S
H549 C559 0.930 . S
C550 H544 0.930 . S
C550 C551 1.355 . S
C550 C552 1.415 . S
C551 C550 1.355 . S
C551 C553 1.419 . S
C552 C550 1.415 . S
C552 C557 1.425 . S
C552 C559 1.409 . S
C553 H545 0.930 . S
C553 C551 1.419 . S
C553 C554 1.362 . S
C554 H546 0.930 . S
C554 C553 1.362 . S
C554 C557 1.409 . S
C555 H547 0.930 . S
C555 C556 1.355 . S
C555 C557 1.415 . S
C556 C555 1.355 . S
C556 C558 1.419 . S
C557 C552 1.425 . S
C557 C554 1.409 . S
C557 C555 1.415 . S
C558 H548 0.930 . S
C558 C556 1.419 . S
C558 C559 1.362 . S
C559 H549 0.930 . S
C559 C552 1.409 . S
C559 C558 1.362 . S
H560 C566 0.930 . S
H561 C569 0.930 . S
H562 C570 0.930 . S
H563 C571 0.930 . S
H564 C574 0.930 . S
H565 C575 0.930 . S
C566 H560 0.930 . S
C566 C567 1.355 . S
C566 C568 1.415 . S
C567 C566 1.355 . S
C567 C569 1.419 . S
C568 C566 1.415 . S
C568 C573 1.425 . S
C568 C575 1.409 . S
C569 H561 0.930 . S
C569 C567 1.419 . S
C569 C570 1.362 . S
C570 H562 0.930 . S
C570 C569 1.362 . S
C570 C573 1.409 . S
C571 H563 0.930 . S
C571 C572 1.355 . S
C571 C573 1.415 . S
C572 C571 1.355 . S
C572 C574 1.419 . S
C573 C568 1.425 . S
C573 C570 1.409 . S
C573 C571 1.415 . S
C574 H564 0.930 . S
C574 C572 1.419 . S
C574 C575 1.362 . S
C575 H565 0.930 . S
C575 C568 1.409 . S
C575 C574 1.362 . S
H576 C582 0.930 . S
H577 C585 0.930 . S
H578 C586 0.930 . S
H579 C587 0.930 . S
H580 C590 0.930 . S
H581 C591 0.930 . S
C582 H576 0.930 . S
C582 C583 1.355 . S
C582 C584 1.415 . S
C583 C582 1.355 . S
C583 C585 1.419 . S
C584 C582 1.415 . S
C584 C589 1.425 . S
C584 C591 1.409 . S
C585 H577 0.930 . S
C585 C583 1.419 . S
C585 C586 1.362 . S
C586 H578 0.930 . S
C586 C585 1.362 . S
C586 C589 1.409 . S
C587 H579 0.930 . S
C587 C588 1.355 . S
C587 C589 1.415 . S
C588 C587 1.355 . S
C588 C590 1.419 . S
C589 C584 1.425 . S
C589 C586 1.409 . S
C589 C587 1.415 . S
C590 H580 0.930 . S
C590 C588 1.419 . S
C590 C591 1.362 . S
C591 H581 0.930 . S
C591 C584 1.409 . S
C591 C590 1.362 . S
H592 C598 0.930 . S
H593 C601 0.930 . S
H594 C602 0.930 . S
H595 C603 0.930 . S
H596 C606 0.930 . S
H597 C607 0.930 . S
C598 H592 0.930 . S
C598 C599 1.355 . S
C598 C600 1.415 . S
C599 C598 1.355 . S
C599 C601 1.419 . S
C600 C598 1.415 . S
C600 C605 1.425 . S
C600 C607 1.409 . S
C601 H593 0.930 . S
C601 C599 1.419 . S
C601 C602 1.362 . S
C602 H594 0.930 . S
C602 C601 1.362 . S
C602 C605 1.409 . S
C603 H595 0.930 . S
C603 C604 1.355 . S
C603 C605 1.415 . S
C604 C603 1.355 . S
C604 C606 1.419 . S
C605 C600 1.425 . S
C605 C602 1.409 . S
C605 C603 1.415 . S
C606 H596 0.930 . S
C606 C604 1.419 . S
C606 C607 1.362 . S
C607 H597 0.930 . S
C607 C600 1.409 . S
C607 C606 1.362 . S
H608 C614 0.930 . S
H609 C617 0.930 . S
H610 C618 0.930 . S
H611 C619 0.930 . S
H612 C622 0.930 . S
H613 C623 0.930 . S
C614 H608 0.930 . S
C614 C615 1.355 . S
C614 C616 1.415 . S
C615 C614 1.355 . S
C615 C617 1.419 . S
C616 C614 1.415 . S
C616 C621 1.425 . S
C616 C623 1.409 . S
C617 H609 0.930 . S
C617 C615 1.419 . S
C617 C618 1.362 . S
C618 H610 0.930 . S
C618 C617 1.362 . S
C618 C621 1.409 . S
C619 H611 0.930 . S
C619 C620 1.355 . S
C619 C621 1.415 . S
C620 C619 1.355 . S
C620 C622 1.419 . S
C621 C616 1.425 . S
C621 C618 1.409 . S
C621 C619 1.415 . S
C622 H612 0.930 . S
C622 C620 1.419 . S
C622 C623 1.362 . S
C623 H613 0.930 . S
C623 C616 1.409 . S
C623 C622 1.362 . S
H624 C630 0.930 . S
H625 C633 0.930 . S
H626 C634 0.930 . S
H627 C635 0.930 . S
H628 C638 0.930 . S
H629 C639 0.930 . S
C630 H624 0.930 . S
C630 C631 1.355 . S
C630 C632 1.415 . S
C631 C630 1.355 . S
C631 C633 1.419 . S
C632 C630 1.415 . S
C632 C637 1.425 . S
C632 C639 1.409 . S
C633 H625 0.930 . S
C633 C631 1.419 . S
C633 C634 1.362 . S
C634 H626 0.930 . S
C634 C633 1.362 . S
C634 C637 1.409 . S
C635 H627 0.930 . S
C635 C636 1.355 . S
C635 C637 1.415 . S
C636 C635 1.355 . S
C636 C638 1.419 . S
C637 C632 1.425 . S
C637 C634 1.409 . S
C637 C635 1.415 . S
C638 H628 0.930 . S
C638 C636 1.419 . S
C638 C639 1.362 . S
C639 H629 0.930 . S
C639 C632 1.409 . S
C639 C638 1.362 . S
H640 C646 0.930 . S
H641 C649 0.930 . S
H642 C650 0.930 . S
H643 C651 0.930 . S
H644 C654 0.930 . S
H645 C655 0.930 . S
C646 H640 0.930 . S
C646 C647 1.355 . S
C646 C648 1.415 . S
C647 C646 1.355 . S
C647 C649 1.419 . S
C648 C646 1.415 . S
C648 C653 1.425 . S
C648 C655 1.409 . S
C649 H641 0.930 . S
C649 C647 1.419 . S
C649 C650 1.362 . S
C650 H642 0.930 . S
C650 C649 1.362 . S
C650 C653 1.409 . S
C651 H643 0.930 . S
C651 C652 1.355 . S
C651 C653 1.415 . S
C652 C651 1.355 . S
C652 C654 1.419 . S
C653 C648 1.425 . S
C653 C650 1.409 . S
C653 C651 1.415 . S
C654 H644 0.930 . S
C654 C652 1.419 . S
C654 C655 1.362 . S
C655 H645 0.930 . S
C655 C648 1.409 . S
C655 C654 1.362 . S
H656 C662 0.930 . S
H657 C665 0.930 . S
H658 C666 0.930 . S
H659 C667 0.930 . S
H660 C670 0.930 . S
H661 C671 0.930 . S
C662 H656 0.930 . S
C662 C663 1.355 . S
C662 C664 1.415 . S
C663 C662 1.355 . S
C663 C665 1.419 . S
C664 C662 1.415 . S
C664 C669 1.425 . S
C664 C671 1.409 . S
C665 H657 0.930 . S
C665 C663 1.419 . S
C665 C666 1.362 . S
C666 H658 0.930 . S
C666 C665 1.362 . S
C666 C669 1.409 . S
C667 H659 0.930 . S
C667 C668 1.355 . S
C667 C669 1.415 . S
C668 C667 1.355 . S
C668 C670 1.419 . S
C669 C664 1.425 . S
C669 C666 1.409 . S
C669 C667 1.415 . S
C670 H660 0.930 . S
C670 C668 1.419 . S
C670 C671 1.362 . S
C671 H661 0.930 . S
C671 C664 1.409 . S
C671 C670 1.362 . S
H672 C678 0.930 . S
H673 C681 0.930 . S
H674 C682 0.930 . S
H675 C683 0.930 . S
H676 C686 0.930 . S
H677 C687 0.930 . S
C678 H672 0.930 . S
C678 C679 1.355 . S
C678 C680 1.415 . S
C679 C678 1.355 . S
C679 C681 1.419 . S
C680 C678 1.415 . S
C680 C685 1.425 . S
C680 C687 1.409 . S
C681 H673 0.930 . S
C681 C679 1.419 . S
C681 C682 1.362 . S
C682 H674 0.930 . S
C682 C681 1.362 . S
C682 C685 1.409 . S
C683 H675 0.930 . S
C683 C684 1.355 . S
C683 C685 1.415 . S
C684 C683 1.355 . S
C684 C686 1.419 . S
C685 C680 1.425 . S
C685 C682 1.409 . S
C685 C683 1.415 . S
C686 H676 0.930 . S
C686 C684 1.419 . S
C686 C687 1.362 . S
C687 H677 0.930 . S
C687 C680 1.409 . S
C687 C686 1.362 . S
H688 C694 0.930 . S
H689 C697 0.930 . S
H690 C698 0.930 . S
H691 C699 0.930 . S
H692 C702 0.930 . S
H693 C703 0.930 . S
C694 H688 0.930 . S
C694 C695 1.355 . S
C694 C696 1.415 . S
C695 C694 1.355 . S
C695 C697 1.419 . S
C696 C694 1.415 . S
C696 C701 1.425 . S
C696 C703 1.409 . S
C697 H689 0.930 . S
C697 C695 1.419 . S
C697 C698 1.362 . S
C698 H690 0.930 . S
C698 C697 1.362 . S
C698 C701 1.409 . S
C699 H691 0.930 . S
C699 C700 1.355 . S
C699 C701 1.415 . S
C700 C699 1.355 . S
C700 C702 1.419 . S
C701 C696 1.425 . S
C701 C698 1.409 . S
C701 C699 1.415 . S
C702 H692 0.930 . S
C702 C700 1.419 . S
C702 C703 1.362 . S
C703 H693 0.930 . S
C703 C696 1.409 . S
C703 C702 1.362 . S
H704 C710 0.930 . S
H705 C713 0.930 . S
H706 C714 0.957 . S
H707 C715 0.930 . S
H708 C718 0.930 . S
H709 C719 0.957 . S
C710 H704 0.930 . S
C710 C711 1.355 . S
C710 C712 1.415 . S
C711 C710 1.355 . S
C711 C713 1.419 . S
C712 C710 1.415 . S
C712 C717 1.425 1_565 S
C712 C719 1.422 . S
C713 H705 0.930 . S
C713 C711 1.419 . S
C713 C714 1.325 1_565 S
C714 H706 0.957 . S
C714 C713 1.325 1_545 S
C714 C717 1.422 . S
C715 H707 0.930 . S
C715 C716 1.355 . S
C715 C717 1.415 . S
C716 C715 1.355 . S
C716 C718 1.419 . S
C717 C712 1.425 1_545 S
C717 C714 1.422 . S
C717 C715 1.415 . S
C718 H708 0.930 . S
C718 C716 1.419 . S
C718 C719 1.325 1_545 S
C719 H709 0.957 . S
C719 C712 1.422 . S
C719 C718 1.325 1_565 S
H720 C726 0.930 . S
H721 C729 0.930 . S
H722 C730 0.930 . S
H723 C731 0.930 . S
H724 C734 0.930 . S
H725 C735 0.930 . S
C726 H720 0.930 . S
C726 C727 1.355 . S
C726 C728 1.415 . S
C727 C726 1.355 . S
C727 C729 1.419 . S
C728 C726 1.415 . S
C728 C733 1.425 1_655 S
C728 C735 1.409 1_655 S
C729 H721 0.930 . S
C729 C727 1.419 . S
C729 C730 1.362 . S
C730 H722 0.930 . S
C730 C729 1.362 . S
C730 C733 1.409 1_655 S
C731 H723 0.930 . S
C731 C732 1.355 . S
C731 C733 1.415 . S
C732 C731 1.355 . S
C732 C734 1.419 . S
C733 C728 1.425 1_455 S
C733 C730 1.409 1_455 S
C733 C731 1.415 . S
C734 H724 0.930 . S
C734 C732 1.419 . S
C734 C735 1.362 . S
C735 H725 0.930 . S
C735 C728 1.409 1_455 S
C735 C734 1.362 . S
H736 C742 0.930 . S
H737 C745 0.930 . S
H738 C746 0.930 . S
H739 C747 0.930 . S
H740 C750 0.930 . S
H741 C751 0.930 . S
C742 H736 0.930 . S
C742 C743 1.355 . S
C742 C744 1.415 . S
C743 C742 1.355 . S
C743 C745 1.419 1_556 S
C744 C742 1.415 . S
C744 C749 1.425 1_556 S
C744 C751 1.409 . S
C745 H737 0.930 . S
C745 C743 1.419 1_554 S
C745 C746 1.362 . S
C746 H738 0.930 . S
C746 C745 1.362 . S
C746 C749 1.409 . S
C747 H739 0.930 . S
C747 C748 1.355 . S
C747 C749 1.415 . S
C748 C747 1.355 . S
C748 C750 1.419 1_554 S
C749 C744 1.425 1_554 S
C749 C746 1.409 . S
C749 C747 1.415 . S
C750 H740 0.930 . S
C750 C748 1.419 1_556 S
C750 C751 1.362 . S
C751 H741 0.930 . S
C751 C744 1.409 . S
C751 C750 1.362 . S
H752 C758 0.930 . S
H753 C761 0.930 . S
H754 C762 0.930 . S
H755 C763 0.930 . S
H756 C766 0.930 . S
H757 C767 0.930 . S
C758 H752 0.930 . S
C758 C759 1.355 . S
C758 C760 1.386 1_545 S
C759 C758 1.355 . S
C759 C761 1.419 1_455 S
C760 C758 1.386 1_565 S
C760 C765 1.421 1_466 S
C760 C767 1.442 1_556 S
C761 H753 0.930 . S
C761 C759 1.419 1_655 S
C761 C762 1.362 . S
C762 H754 0.930 . S
C762 C761 1.362 . S
C762 C765 1.442 1_556 S
C763 H755 0.930 . S
C763 C764 1.355 . S
C763 C765 1.386 1_565 S
C764 C763 1.355 . S
C764 C766 1.419 1_655 S
C765 C760 1.421 1_644 S
C765 C762 1.442 1_554 S
C765 C763 1.386 1_545 S
C766 H756 0.930 . S
C766 C764 1.419 1_455 S
C766 C767 1.362 . S
C767 H757 0.930 . S
C767 C760 1.442 1_554 S
C767 C766 1.362 . S
H768 C774 0.930 . S
H769 C777 0.930 . S
H770 C778 0.930 . S
H771 C779 0.930 . S
H772 C782 0.930 . S
H773 C783 0.930 . S
C774 H768 0.930 . S
C774 C775 1.355 . S
C774 C776 1.376 1_545 S
C775 C774 1.355 . S
C775 C777 1.419 . S
C776 C774 1.376 1_565 S
C776 C781 1.421 1_565 S
C776 C783 1.452 . S
C777 H769 0.930 . S
C777 C775 1.419 . S
C777 C778 1.362 . S
C778 H770 0.930 . S
C778 C777 1.362 . S
C778 C781 1.452 . S
C779 H771 0.930 . S
C779 C780 1.355 . S
C779 C781 1.376 1_565 S
C780 C779 1.355 . S
C780 C782 1.419 . S
C781 C776 1.421 1_545 S
C781 C778 1.452 . S
C781 C779 1.376 1_545 S
C782 H772 0.930 . S
C782 C780 1.419 . S
C782 C783 1.362 . S
C783 H773 0.930 . S
C783 C776 1.452 . S
C783 C782 1.362 . S
H784 C790 0.930 . S
H785 C793 0.930 . S
H786 C794 0.930 . S
H787 C795 0.930 . S
H788 C798 0.930 . S
H789 C799 0.930 . S
C790 H784 0.930 . S
C790 C791 1.355 . S
C790 C792 1.415 . S
C791 C790 1.355 . S
C791 C793 1.419 1_455 S
C792 C790 1.415 . S
C792 C797 1.425 1_455 S
C792 C799 1.409 . S
C793 H785 0.930 . S
C793 C791 1.419 1_655 S
C793 C794 1.362 . S
C794 H786 0.930 . S
C794 C793 1.362 . S
C794 C797 1.409 . S
C795 H787 0.930 . S
C795 C796 1.355 . S
C795 C797 1.415 . S
C796 C795 1.355 . S
C796 C798 1.419 1_655 S
C797 C792 1.425 1_655 S
C797 C794 1.409 . S
C797 C795 1.415 . S
C798 H788 0.930 . S
C798 C796 1.419 1_455 S
C798 C799 1.362 . S
C799 H789 0.930 . S
C799 C792 1.409 . S
C799 C798 1.362 . S
H800 C806 0.930 . S
H801 C809 0.930 . S
H802 C810 0.930 . S
H803 C811 0.930 . S
H804 C814 0.930 . S
H805 C815 0.930 . S
C806 H800 0.930 . S
C806 C807 1.355 1_554 S
C806 C808 1.415 . S
C807 C806 1.355 1_556 S
C807 C809 1.419 . S
C808 C806 1.415 . S
C808 C813 1.425 1_554 S
C808 C815 1.409 . S
C809 H801 0.930 . S
C809 C807 1.419 . S
C809 C810 1.362 . S
C810 H802 0.930 . S
C810 C809 1.362 . S
C810 C813 1.409 . S
C811 H803 0.930 . S
C811 C812 1.355 1_556 S
C811 C813 1.415 . S
C812 C811 1.355 1_554 S
C812 C814 1.419 . S
C813 C808 1.425 1_556 S
C813 C810 1.409 . S
C813 C811 1.415 . S
C814 H804 0.930 . S
C814 C812 1.419 . S
C814 C815 1.362 . S
C815 H805 0.930 . S
C815 C808 1.409 . S
C815 C814 1.362 . S
H816 C822 0.930 . S
H817 C825 0.930 . S
H818 C826 0.930 . S
H819 C827 0.930 . S
H820 C830 0.930 . S
H821 C831 0.930 . S
C822 H816 0.930 . S
C822 C823 1.355 . S
C822 C824 1.415 . S
C823 C822 1.355 . S
C823 C825 1.419 . S
C824 C822 1.415 . S
C824 C829 1.425 . S
C824 C831 1.409 . S
C825 H817 0.930 . S
C825 C823 1.419 . S
C825 C826 1.362 . S
C826 H818 0.930 . S
C826 C825 1.362 . S
C826 C829 1.409 . S
C827 H819 0.930 . S
C827 C828 1.355 . S
C827 C829 1.415 . S
C828 C827 1.355 . S
C828 C830 1.419 . S
C829 C824 1.425 . S
C829 C826 1.409 . S
C829 C827 1.415 . S
C830 H820 0.930 . S
C830 C828 1.419 . S
C830 C831 1.362 . S
C831 H821 0.930 . S
C831 C824 1.409 . S
C831 C830 1.362 . S
H832 C838 0.930 . S
H833 C841 0.930 . S
H834 C842 0.930 . S
H835 C843 0.930 . S
H836 C846 0.930 . S
H837 C847 0.930 . S
C838 H832 0.930 . S
C838 C839 1.355 . S
C838 C840 1.415 . S
C839 C838 1.355 . S
C839 C841 1.419 . S
C840 C838 1.415 . S
C840 C845 1.425 . S
C840 C847 1.409 . S
C841 H833 0.930 . S
C841 C839 1.419 . S
C841 C842 1.362 . S
C842 H834 0.930 . S
C842 C841 1.362 . S
C842 C845 1.409 . S
C843 H835 0.930 . S
C843 C844 1.355 . S
C843 C845 1.415 . S
C844 C843 1.355 . S
C844 C846 1.419 . S
C845 C840 1.425 . S
C845 C842 1.409 . S
C845 C843 1.415 . S
C846 H836 0.930 . S
C846 C844 1.419 . S
C846 C847 1.362 . S
C847 H837 0.930 . S
C847 C840 1.409 . S
C847 C846 1.362 . S
H848 C854 0.930 . S
H849 C857 0.930 . S
H850 C858 0.930 . S
H851 C859 0.930 . S
H852 C862 0.930 . S
H853 C863 0.930 . S
C854 H848 0.930 . S
C854 C855 1.355 . S
C854 C856 1.415 1_655 S
C855 C854 1.355 . S
C855 C857 1.419 . S
C856 C854 1.415 1_455 S
C856 C861 1.425 1_455 S
C856 C863 1.409 . S
C857 H849 0.930 . S
C857 C855 1.419 . S
C857 C858 1.362 . S
C858 H850 0.930 . S
C858 C857 1.362 . S
C858 C861 1.409 . S
C859 H851 0.930 . S
C859 C860 1.355 . S
C859 C861 1.415 1_455 S
C860 C859 1.355 . S
C860 C862 1.419 . S
C861 C856 1.425 1_655 S
C861 C858 1.409 . S
C861 C859 1.415 1_655 S
C862 H852 0.930 . S
C862 C860 1.419 . S
C862 C863 1.362 . S
C863 H853 0.930 . S
C863 C856 1.409 . S
C863 C862 1.362 . S
H864 C870 0.930 . S
H865 C873 0.930 . S
H866 C874 0.930 . S
H867 C875 0.930 . S
H868 C878 0.930 . S
H869 C879 0.930 . S
C870 H864 0.930 . S
C870 C871 1.355 . S
C870 C872 1.415 . S
C871 C870 1.355 . S
C871 C873 1.419 . S
C872 C870 1.415 . S
C872 C877 1.425 . S
C872 C879 1.409 . S
C873 H865 0.930 . S
C873 C871 1.419 . S
C873 C874 1.362 . S
C874 H866 0.930 . S
C874 C873 1.362 . S
C874 C877 1.409 . S
C875 H867 0.930 . S
C875 C876 1.355 . S
C875 C877 1.415 . S
C876 C875 1.355 . S
C876 C878 1.419 . S
C877 C872 1.425 . S
C877 C874 1.409 . S
C877 C875 1.415 . S
C878 H868 0.930 . S
C878 C876 1.419 . S
C878 C879 1.362 . S
C879 H869 0.930 . S
C879 C872 1.409 . S
C879 C878 1.362 . S
H880 C886 0.930 . S
H881 C889 0.930 . S
H882 C890 0.930 . S
H883 C891 0.930 . S
H884 C894 0.930 . S
H885 C895 0.930 . S
C886 H880 0.930 . S
C886 C887 1.355 . S
C886 C888 1.415 . S
C887 C886 1.355 . S
C887 C889 1.419 . S
C888 C886 1.415 . S
C888 C893 1.425 . S
C888 C895 1.409 . S
C889 H881 0.930 . S
C889 C887 1.419 . S
C889 C890 1.362 . S
C890 H882 0.930 . S
C890 C889 1.362 . S
C890 C893 1.409 . S
C891 H883 0.930 . S
C891 C892 1.355 . S
C891 C893 1.415 . S
C892 C891 1.355 . S
C892 C894 1.419 . S
C893 C888 1.425 . S
C893 C890 1.409 . S
C893 C891 1.415 . S
C894 H884 0.930 . S
C894 C892 1.419 . S
C894 C895 1.362 . S
C895 H885 0.930 . S
C895 C888 1.409 . S
C895 C894 1.362 . S
H896 C902 0.930 . S
H897 C905 0.930 . S
H898 C906 0.930 . S
H899 C907 0.930 . S
H900 C910 0.930 . S
H901 C911 0.930 . S
C902 H896 0.930 . S
C902 C903 1.355 . S
C902 C904 1.415 . S
C903 C902 1.355 . S
C903 C905 1.419 . S
C904 C902 1.415 . S
C904 C909 1.425 . S
C904 C911 1.409 . S
C905 H897 0.930 . S
C905 C903 1.419 . S
C905 C906 1.362 . S
C906 H898 0.930 . S
C906 C905 1.362 . S
C906 C909 1.409 . S
C907 H899 0.930 . S
C907 C908 1.355 . S
C907 C909 1.415 . S
C908 C907 1.355 . S
C908 C910 1.419 . S
C909 C904 1.425 . S
C909 C906 1.409 . S
C909 C907 1.415 . S
C910 H900 0.930 . S
C910 C908 1.419 . S
C910 C911 1.362 . S
C911 H901 0.930 . S
C911 C904 1.409 . S
C911 C910 1.362 . S
H912 C918 0.930 . S
H913 C921 0.930 . S
H914 C922 0.971 . S
H915 C923 0.930 . S
H916 C926 0.930 . S
H917 C927 0.971 . S
C918 H912 0.930 . S
C918 C919 1.355 . S
C918 C920 1.415 . S
C919 C918 1.355 . S
C919 C921 1.419 . S
C920 C918 1.415 . S
C920 C925 1.425 1_545 S
C920 C927 1.428 . S
C921 H913 0.930 . S
C921 C919 1.419 . S
C921 C922 1.306 1_545 S
C922 H914 0.971 . S
C922 C921 1.306 1_565 S
C922 C925 1.428 . S
C923 H915 0.930 . S
C923 C924 1.355 . S
C923 C925 1.415 . S
C924 C923 1.355 . S
C924 C926 1.419 . S
C925 C920 1.425 1_565 S
C925 C922 1.428 . S
C925 C923 1.415 . S
C926 H916 0.930 . S
C926 C924 1.419 . S
C926 C927 1.306 1_565 S
C927 H917 0.971 . S
C927 C920 1.428 . S
C927 C926 1.306 1_545 S
H928 C934 0.930 . S
H929 C937 0.930 . S
H930 C938 0.930 . S
H931 C939 0.930 . S
H932 C942 0.930 . S
H933 C943 0.930 . S
C934 H928 0.930 . S
C934 C935 1.355 . S
C934 C936 1.415 . S
C935 C934 1.355 . S
C935 C937 1.419 . S
C936 C934 1.415 . S
C936 C941 1.425 . S
C936 C943 1.409 . S
C937 H929 0.930 . S
C937 C935 1.419 . S
C937 C938 1.362 . S
C938 H930 0.930 . S
C938 C937 1.362 . S
C938 C941 1.409 . S
C939 H931 0.930 . S
C939 C940 1.355 . S
C939 C941 1.415 . S
C940 C939 1.355 . S
C940 C942 1.419 . S
C941 C936 1.425 . S
C941 C938 1.409 . S
C941 C939 1.415 . S
C942 H932 0.930 . S
C942 C940 1.419 . S
C942 C943 1.362 . S
C943 H933 0.930 . S
C943 C936 1.409 . S
C943 C942 1.362 . S
H944 C950 0.930 1_556 S
H945 C953 0.930 . S
H946 C954 0.930 . S
H947 C955 0.930 1_554 S
H948 C958 0.930 . S
H949 C959 0.930 . S
C950 H944 0.930 1_554 S
C950 C951 1.355 . S
C950 C952 1.415 1_554 S
C951 C950 1.355 . S
C951 C953 1.419 . S
C952 C950 1.415 1_556 S
C952 C957 1.425 1_556 S
C952 C959 1.409 . S
C953 H945 0.930 . S
C953 C951 1.419 . S
C953 C954 1.362 . S
C954 H946 0.930 . S
C954 C953 1.362 . S
C954 C957 1.409 . S
C955 H947 0.930 1_556 S
C955 C956 1.355 . S
C955 C957 1.415 1_556 S
C956 C955 1.355 . S
C956 C958 1.419 . S
C957 C952 1.425 1_554 S
C957 C954 1.409 . S
C957 C955 1.415 1_554 S
C958 H948 0.930 . S
C958 C956 1.419 . S
C958 C959 1.362 . S
C959 H949 0.930 . S
C959 C952 1.409 . S
C959 C958 1.362 . S
H960 C966 0.930 . S
H961 C969 0.930 . S
H962 C970 0.930 . S
H963 C971 0.930 . S
H964 C974 0.930 . S
H965 C975 0.930 . S
C966 H960 0.930 . S
C966 C967 1.355 . S
C966 C968 1.415 . S
C967 C966 1.355 . S
C967 C969 1.419 . S
C968 C966 1.415 . S
C968 C973 1.425 . S
C968 C975 1.409 . S
C969 H961 0.930 . S
C969 C967 1.419 . S
C969 C970 1.362 . S
C970 H962 0.930 . S
C970 C969 1.362 . S
C970 C973 1.409 . S
C971 H963 0.930 . S
C971 C972 1.355 . S
C971 C973 1.415 . S
C972 C971 1.355 . S
C972 C974 1.419 . S
C973 C968 1.425 . S
C973 C970 1.409 . S
C973 C971 1.415 . S
C974 H964 0.930 . S
C974 C972 1.419 . S
C974 C975 1.362 . S
C975 H965 0.930 . S
C975 C968 1.409 . S
C975 C974 1.362 . S
H976 C982 0.930 . S
H977 C985 0.930 . S
H978 C986 0.930 . S
H979 C987 0.930 . S
H980 C990 0.927 1_554 S
H981 C991 0.930 1_554 S
C982 H976 0.930 . S
C982 C983 1.355 . S
C982 C984 1.415 . S
C983 C982 1.355 . S
C983 C985 1.419 . S
C984 C982 1.415 . S
C984 C989 1.425 . S
C984 C991 1.409 . S
C985 H977 0.930 . S
C985 C983 1.419 . S
C985 C986 1.362 . S
C986 H978 0.930 . S
C986 C985 1.362 . S
C986 C989 1.409 . S
C987 H979 0.930 . S
C987 C988 1.355 . S
C987 C989 1.415 . S
C988 C987 1.355 . S
C988 C990 1.419 . S
C989 C984 1.425 . S
C989 C986 1.409 . S
C989 C987 1.415 . S
C990 H980 0.927 1_556 S
C990 C988 1.419 . S
C990 C991 1.362 . S
C991 H981 0.930 1_556 S
C991 C984 1.409 . S
C991 C990 1.362 . S
H992 C998 0.930 . S
H993 C1001 0.930 . S
H994 C1002 0.930 . S
H995 C1003 0.930 . S
H996 C1006 0.930 . S
H997 C1007 0.930 . S
C998 H992 0.930 . S
C998 C999 1.355 . S
C998 C1000 1.415 . S
C999 C998 1.355 . S
C999 C1001 1.419 . S
C1000 C998 1.415 . S
C1000 C1005 1.425 . S
C1000 C1007 1.409 . S
C1001 H993 0.930 . S
C1001 C999 1.419 . S
C1001 C1002 1.362 . S
C1002 H994 0.930 . S
C1002 C1001 1.362 . S
C1002 C1005 1.409 . S
C1003 H995 0.930 . S
C1003 C1004 1.355 . S
C1003 C1005 1.415 . S
C1004 C1003 1.355 . S
C1004 C1006 1.419 . S
C1005 C1000 1.425 . S
C1005 C1002 1.409 . S
C1005 C1003 1.415 . S
C1006 H996 0.930 . S
C1006 C1004 1.419 . S
C1006 C1007 1.362 . S
C1007 H997 0.930 . S
C1007 C1000 1.409 . S
C1007 C1006 1.362 . S
H1008 C1014 0.930 . S
H1009 C1017 0.930 . S
H1010 C1018 0.930 . S
H1011 C1019 0.918 1_556 S
H1012 C1022 0.930 . S
H1013 C1023 0.930 . S
C1014 H1008 0.930 . S
C1014 C1015 1.355 . S
C1014 C1016 1.415 . S
C1015 C1014 1.355 . S
C1015 C1017 1.419 1_554 S
C1016 C1014 1.415 . S
C1016 C1021 1.425 . S
C1016 C1023 1.409 . S
C1017 H1009 0.930 . S
C1017 C1015 1.419 1_556 S
C1017 C1018 1.362 . S
C1018 H1010 0.930 . S
C1018 C1017 1.362 . S
C1018 C1021 1.409 1_556 S
C1019 H1011 0.918 1_554 S
C1019 C1020 1.366 . S
C1019 C1021 1.416 . S
C1020 C1019 1.366 . S
C1020 C1022 1.419 . S
C1021 C1016 1.425 . S
C1021 C1018 1.409 1_554 S
C1021 C1019 1.416 . S
C1022 H1012 0.930 . S
C1022 C1020 1.419 . S
C1022 C1023 1.362 . S
C1023 H1013 0.930 . S
C1023 C1016 1.409 . S
C1023 C1022 1.362 . S
H1024 C1030 0.930 . S
H1025 C1033 0.930 . S
H1026 C1034 0.930 . S
H1027 C1035 0.930 . S
H1028 C1038 0.930 . S
H1029 C1039 0.930 . S
C1030 H1024 0.930 . S
C1030 C1031 1.355 . S
C1030 C1032 1.415 . S
C1031 C1030 1.355 . S
C1031 C1033 1.419 . S
C1032 C1030 1.415 . S
C1032 C1037 1.425 . S
C1032 C1039 1.409 . S
C1033 H1025 0.930 . S
C1033 C1031 1.419 . S
C1033 C1034 1.362 . S
C1034 H1026 0.930 . S
C1034 C1033 1.362 . S
C1034 C1037 1.409 . S
C1035 H1027 0.930 . S
C1035 C1036 1.355 . S
C1035 C1037 1.415 . S
C1036 C1035 1.355 . S
C1036 C1038 1.419 . S
C1037 C1032 1.425 . S
C1037 C1034 1.409 . S
C1037 C1035 1.415 . S
C1038 H1028 0.930 . S
C1038 C1036 1.419 . S
C1038 C1039 1.362 . S
C1039 H1029 0.930 . S
C1039 C1032 1.409 . S
C1039 C1038 1.362 . S
H1040 C1046 0.930 . S
H1041 C1049 0.930 . S
H1042 C1050 0.930 . S
H1043 C1051 0.930 . S
H1044 C1054 0.930 . S
H1045 C1055 0.930 . S
C1046 H1040 0.930 . S
C1046 C1047 1.355 . S
C1046 C1048 1.415 . S
C1047 C1046 1.355 . S
C1047 C1049 1.419 . S
C1048 C1046 1.415 . S
C1048 C1053 1.425 . S
C1048 C1055 1.409 . S
C1049 H1041 0.930 . S
C1049 C1047 1.419 . S
C1049 C1050 1.362 . S
C1050 H1042 0.930 . S
C1050 C1049 1.362 . S
C1050 C1053 1.409 . S
C1051 H1043 0.930 . S
C1051 C1052 1.355 . S
C1051 C1053 1.415 . S
C1052 C1051 1.355 . S
C1052 C1054 1.419 . S
C1053 C1048 1.425 . S
C1053 C1050 1.409 . S
C1053 C1051 1.415 . S
C1054 H1044 0.930 . S
C1054 C1052 1.419 . S
C1054 C1055 1.362 . S
C1055 H1045 0.930 . S
C1055 C1048 1.409 . S
C1055 C1054 1.362 . S
H1056 C1062 0.930 . S
H1057 C1065 0.930 . S
H1058 C1066 0.930 . S
H1059 C1067 0.930 . S
H1060 C1070 0.930 . S
H1061 C1071 0.930 . S
C1062 H1056 0.930 . S
C1062 C1063 1.355 . S
C1062 C1064 1.415 . S
C1063 C1062 1.355 . S
C1063 C1065 1.419 . S
C1064 C1062 1.415 . S
C1064 C1069 1.425 . S
C1064 C1071 1.409 . S
C1065 H1057 0.930 . S
C1065 C1063 1.419 . S
C1065 C1066 1.362 . S
C1066 H1058 0.930 . S
C1066 C1065 1.362 . S
C1066 C1069 1.409 . S
C1067 H1059 0.930 . S
C1067 C1068 1.355 . S
C1067 C1069 1.415 . S
C1068 C1067 1.355 . S
C1068 C1070 1.419 . S
C1069 C1064 1.425 . S
C1069 C1066 1.409 . S
C1069 C1067 1.415 . S
C1070 H1060 0.930 . S
C1070 C1068 1.419 . S
C1070 C1071 1.362 . S
C1071 H1061 0.930 . S
C1071 C1064 1.409 . S
C1071 C1070 1.362 . S
H1072 C1078 0.930 . S
H1073 C1081 0.930 . S
H1074 C1082 0.930 . S
H1075 C1083 0.930 . S
H1076 C1086 0.930 . S
H1077 C1087 0.930 . S
C1078 H1072 0.930 . S
C1078 C1079 1.355 . S
C1078 C1080 1.415 . S
C1079 C1078 1.355 . S
C1079 C1081 1.419 . S
C1080 C1078 1.415 . S
C1080 C1085 1.425 . S
C1080 C1087 1.409 . S
C1081 H1073 0.930 . S
C1081 C1079 1.419 . S
C1081 C1082 1.362 . S
C1082 H1074 0.930 . S
C1082 C1081 1.362 . S
C1082 C1085 1.409 . S
C1083 H1075 0.930 . S
C1083 C1084 1.355 . S
C1083 C1085 1.415 . S
C1084 C1083 1.355 . S
C1084 C1086 1.419 . S
C1085 C1080 1.425 . S
C1085 C1082 1.409 . S
C1085 C1083 1.415 . S
C1086 H1076 0.930 . S
C1086 C1084 1.419 . S
C1086 C1087 1.362 . S
C1087 H1077 0.930 . S
C1087 C1080 1.409 . S
C1087 C1086 1.362 . S
H1088 C1094 0.930 . S
H1089 C1097 0.930 . S
H1090 C1098 0.930 . S
H1091 C1099 0.930 . S
H1092 C1102 0.930 . S
H1093 C1103 0.930 . S
C1094 H1088 0.930 . S
C1094 C1095 1.355 . S
C1094 C1096 1.415 . S
C1095 C1094 1.355 . S
C1095 C1097 1.419 . S
C1096 C1094 1.415 . S
C1096 C1101 1.425 . S
C1096 C1103 1.409 . S
C1097 H1089 0.930 . S
C1097 C1095 1.419 . S
C1097 C1098 1.362 . S
C1098 H1090 0.930 . S
C1098 C1097 1.362 . S
C1098 C1101 1.409 . S
C1099 H1091 0.930 . S
C1099 C1100 1.355 . S
C1099 C1101 1.415 . S
C1100 C1099 1.355 . S
C1100 C1102 1.419 . S
C1101 C1096 1.425 . S
C1101 C1098 1.409 . S
C1101 C1099 1.415 . S
C1102 H1092 0.930 . S
C1102 C1100 1.419 . S
C1102 C1103 1.362 . S
C1103 H1093 0.930 . S
C1103 C1096 1.409 . S
C1103 C1102 1.362 . S
H1104 C1110 0.930 . S
H1105 C1113 0.930 . S
H1106 C1114 0.930 . S
H1107 C1115 0.930 . S
H1108 C1118 0.930 . S
H1109 C1119 0.930 . S
C1110 H1104 0.930 . S
C1110 C1111 1.355 . S
C1110 C1112 1.415 . S
C1111 C1110 1.355 . S
C1111 C1113 1.419 . S
C1112 C1110 1.415 . S
C1112 C1117 1.425 . S
C1112 C1119 1.409 . S
C1113 H1105 0.930 . S
C1113 C1111 1.419 . S
C1113 C1114 1.362 . S
C1114 H1106 0.930 . S
C1114 C1113 1.362 . S
C1114 C1117 1.409 . S
C1115 H1107 0.930 . S
C1115 C1116 1.355 . S
C1115 C1117 1.415 . S
C1116 C1115 1.355 . S
C1116 C1118 1.419 . S
C1117 C1112 1.425 . S
C1117 C1114 1.409 . S
C1117 C1115 1.415 . S
C1118 H1108 0.930 . S
C1118 C1116 1.419 . S
C1118 C1119 1.362 . S
C1119 H1109 0.930 . S
C1119 C1112 1.409 . S
C1119 C1118 1.362 . S
H1120 C1126 0.930 . S
H1121 C1129 0.930 . S
H1122 C1130 0.930 . S
H1123 C1131 0.930 . S
H1124 C1134 0.930 . S
H1125 C1135 0.930 . S
C1126 H1120 0.930 . S
C1126 C1127 1.355 . S
C1126 C1128 1.415 . S
C1127 C1126 1.355 . S
C1127 C1129 1.419 . S
C1128 C1126 1.415 . S
C1128 C1133 1.425 . S
C1128 C1135 1.409 . S
C1129 H1121 0.930 . S
C1129 C1127 1.419 . S
C1129 C1130 1.362 . S
C1130 H1122 0.930 . S
C1130 C1129 1.362 . S
C1130 C1133 1.409 . S
C1131 H1123 0.930 . S
C1131 C1132 1.355 . S
C1131 C1133 1.415 . S
C1132 C1131 1.355 . S
C1132 C1134 1.419 . S
C1133 C1128 1.425 . S
C1133 C1130 1.409 . S
C1133 C1131 1.415 . S
C1134 H1124 0.930 . S
C1134 C1132 1.419 . S
C1134 C1135 1.362 . S
C1135 H1125 0.930 . S
C1135 C1128 1.409 . S
C1135 C1134 1.362 . S
H1136 C1142 0.930 . S
H1137 C1145 0.930 . S
H1138 C1146 0.930 . S
H1139 C1147 0.930 . S
H1140 C1150 0.930 . S
H1141 C1151 0.930 . S
C1142 H1136 0.930 . S
C1142 C1143 1.355 . S
C1142 C1144 1.415 . S
C1143 C1142 1.355 . S
C1143 C1145 1.419 . S
C1144 C1142 1.415 . S
C1144 C1149 1.425 . S
C1144 C1151 1.409 . S
C1145 H1137 0.930 . S
C1145 C1143 1.419 . S
C1145 C1146 1.362 . S
C1146 H1138 0.930 . S
C1146 C1145 1.362 . S
C1146 C1149 1.409 . S
C1147 H1139 0.930 . S
C1147 C1148 1.355 . S
C1147 C1149 1.415 . S
C1148 C1147 1.355 . S
C1148 C1150 1.419 . S
C1149 C1144 1.425 . S
C1149 C1146 1.409 . S
C1149 C1147 1.415 . S
C1150 H1140 0.930 . S
C1150 C1148 1.419 . S
C1150 C1151 1.362 . S
C1151 H1141 0.930 . S
C1151 C1144 1.409 . S
C1151 C1150 1.362 . S
H1152 C1158 0.930 . S
H1153 C1161 0.930 . S
H1154 C1162 0.930 . S
H1155 C1163 0.930 . S
H1156 C1166 0.930 . S
H1157 C1167 0.930 . S
C1158 H1152 0.930 . S
C1158 C1159 1.355 . S
C1158 C1160 1.415 . S
C1159 C1158 1.355 . S
C1159 C1161 1.419 . S
C1160 C1158 1.415 . S
C1160 C1165 1.425 . S
C1160 C1167 1.409 . S
C1161 H1153 0.930 . S
C1161 C1159 1.419 . S
C1161 C1162 1.362 . S
C1162 H1154 0.930 . S
C1162 C1161 1.362 . S
C1162 C1165 1.409 . S
C1163 H1155 0.930 . S
C1163 C1164 1.355 . S
C1163 C1165 1.415 . S
C1164 C1163 1.355 . S
C1164 C1166 1.419 . S
C1165 C1160 1.425 . S
C1165 C1162 1.409 . S
C1165 C1163 1.415 . S
C1166 H1156 0.930 . S
C1166 C1164 1.419 . S
C1166 C1167 1.362 . S
C1167 H1157 0.930 . S
C1167 C1160 1.409 . S
C1167 C1166 1.362 . S
H1168 C1174 0.930 . S
H1169 C1177 0.930 . S
H1170 C1178 0.930 . S
H1171 C1179 0.930 . S
H1172 C1182 0.930 . S
H1173 C1183 0.930 . S
C1174 H1168 0.930 . S
C1174 C1175 1.355 1_554 S
C1174 C1176 1.415 . S
C1175 C1174 1.355 1_556 S
C1175 C1177 1.419 . S
C1176 C1174 1.415 . S
C1176 C1181 1.425 1_554 S
C1176 C1183 1.409 . S
C1177 H1169 0.930 . S
C1177 C1175 1.419 . S
C1177 C1178 1.362 . S
C1178 H1170 0.930 . S
C1178 C1177 1.362 . S
C1178 C1181 1.409 . S
C1179 H1171 0.930 . S
C1179 C1180 1.355 . S
C1179 C1181 1.415 . S
C1180 C1179 1.355 . S
C1180 C1182 1.419 1_556 S
C1181 C1176 1.425 1_556 S
C1181 C1178 1.409 . S
C1181 C1179 1.415 . S
C1182 H1172 0.930 . S
C1182 C1180 1.419 1_554 S
C1182 C1183 1.362 . S
C1183 H1173 0.930 . S
C1183 C1176 1.409 . S
C1183 C1182 1.362 . S
H1184 C1190 0.930 . S
H1185 C1193 0.930 . S
H1186 C1194 0.930 . S
H1187 C1195 0.930 . S
H1188 C1198 0.930 . S
H1189 C1199 0.930 . S
C1190 H1184 0.930 . S
C1190 C1191 1.355 . S
C1190 C1192 1.415 . S
C1191 C1190 1.355 . S
C1191 C1193 1.419 . S
C1192 C1190 1.415 . S
C1192 C1197 1.425 . S
C1192 C1199 1.409 . S
C1193 H1185 0.930 . S
C1193 C1191 1.419 . S
C1193 C1194 1.362 . S
C1194 H1186 0.930 . S
C1194 C1193 1.362 . S
C1194 C1197 1.409 . S
C1195 H1187 0.930 . S
C1195 C1196 1.355 . S
C1195 C1197 1.415 . S
C1196 C1195 1.355 . S
C1196 C1198 1.419 . S
C1197 C1192 1.425 . S
C1197 C1194 1.409 . S
C1197 C1195 1.415 . S
C1198 H1188 0.930 . S
C1198 C1196 1.419 . S
C1198 C1199 1.362 . S
C1199 H1189 0.930 . S
C1199 C1192 1.409 . S
C1199 C1198 1.362 . S
H1200 C1206 0.930 . S
H1201 C1209 0.930 . S
H1202 C1210 0.930 . S
H1203 C1211 0.930 . S
H1204 C1214 0.930 . S
H1205 C1215 0.930 . S
C1206 H1200 0.930 . S
C1206 C1207 1.355 1_556 S
C1206 C1208 1.415 . S
C1207 C1206 1.355 1_554 S
C1207 C1209 1.419 . S
C1208 C1206 1.415 . S
C1208 C1213 1.425 1_556 S
C1208 C1215 1.409 . S
C1209 H1201 0.930 . S
C1209 C1207 1.419 . S
C1209 C1210 1.362 . S
C1210 H1202 0.930 . S
C1210 C1209 1.362 . S
C1210 C1213 1.409 . S
C1211 H1203 0.930 . S
C1211 C1212 1.355 . S
C1211 C1213 1.415 . S
C1212 C1211 1.355 . S
C1212 C1214 1.419 1_554 S
C1213 C1208 1.425 1_554 S
C1213 C1210 1.409 . S
C1213 C1211 1.415 . S
C1214 H1204 0.930 . S
C1214 C1212 1.419 1_556 S
C1214 C1215 1.362 . S
C1215 H1205 0.930 . S
C1215 C1208 1.409 . S
C1215 C1214 1.362 . S
H1216 C1222 0.930 . S
H1217 C1225 0.930 1_455 S
H1218 C1226 0.930 . S
H1219 C1227 0.930 . S
H1220 C1230 0.930 . S
H1221 C1231 0.930 . S
C1222 H1216 0.930 . S
C1222 C1223 1.355 . S
C1222 C1224 1.415 . S
C1223 C1222 1.355 . S
C1223 C1225 1.419 . S
C1224 C1222 1.415 . S
C1224 C1229 1.425 . S
C1224 C1231 1.409 . S
C1225 H1217 0.930 1_655 S
C1225 C1223 1.419 . S
C1225 C1226 1.362 . S
C1226 H1218 0.930 . S
C1226 C1225 1.362 . S
C1226 C1229 1.409 . S
C1227 H1219 0.930 . S
C1227 C1228 1.355 . S
C1227 C1229 1.415 . S
C1228 C1227 1.355 . S
C1228 C1230 1.419 . S
C1229 C1224 1.425 . S
C1229 C1226 1.409 . S
C1229 C1227 1.415 . S
C1230 H1220 0.930 . S
C1230 C1228 1.419 . S
C1230 C1231 1.362 . S
C1231 H1221 0.930 . S
C1231 C1224 1.409 . S
C1231 C1230 1.362 . S
H1232 C1238 0.930 . S
H1233 C1241 0.930 . S
H1234 C1242 0.930 . S
H1235 C1243 0.930 . S
H1236 C1246 0.930 . S
H1237 C1247 0.930 . S
C1238 H1232 0.930 . S
C1238 C1239 1.355 . S
C1238 C1240 1.415 . S
C1239 C1238 1.355 . S
C1239 C1241 1.419 . S
C1240 C1238 1.415 . S
C1240 C1245 1.425 . S
C1240 C1247 1.409 . S
C1241 H1233 0.930 . S
C1241 C1239 1.419 . S
C1241 C1242 1.362 . S
C1242 H1234 0.930 . S
C1242 C1241 1.362 . S
C1242 C1245 1.409 . S
C1243 H1235 0.930 . S
C1243 C1244 1.355 . S
C1243 C1245 1.415 . S
C1244 C1243 1.355 . S
C1244 C1246 1.419 . S
C1245 C1240 1.425 . S
C1245 C1242 1.409 . S
C1245 C1243 1.415 . S
C1246 H1236 0.930 . S
C1246 C1244 1.419 . S
C1246 C1247 1.362 . S
C1247 H1237 0.930 . S
C1247 C1240 1.409 . S
C1247 C1246 1.362 . S
H1248 C1254 0.930 . S
H1249 C1257 0.930 . S
H1250 C1258 0.930 . S
H1251 C1259 0.930 . S
H1252 C1262 0.930 . S
H1253 C1263 0.930 . S
C1254 H1248 0.930 . S
C1254 C1255 1.355 . S
C1254 C1256 1.415 . S
C1255 C1254 1.355 . S
C1255 C1257 1.419 . S
C1256 C1254 1.415 . S
C1256 C1261 1.425 . S
C1256 C1263 1.409 . S
C1257 H1249 0.930 . S
C1257 C1255 1.419 . S
C1257 C1258 1.362 . S
C1258 H1250 0.930 . S
C1258 C1257 1.362 . S
C1258 C1261 1.409 . S
C1259 H1251 0.930 . S
C1259 C1260 1.355 . S
C1259 C1261 1.415 . S
C1260 C1259 1.355 . S
C1260 C1262 1.419 . S
C1261 C1256 1.425 . S
C1261 C1258 1.409 . S
C1261 C1259 1.415 . S
C1262 H1252 0.930 . S
C1262 C1260 1.419 . S
C1262 C1263 1.362 . S
C1263 H1253 0.930 . S
C1263 C1256 1.409 . S
C1263 C1262 1.362 . S
H1264 C1270 0.930 . S
H1265 C1273 0.930 . S
H1266 C1274 0.930 . S
H1267 C1275 0.930 . S
H1268 C1278 0.930 . S
H1269 C1279 0.930 . S
C1270 H1264 0.930 . S
C1270 C1271 1.355 . S
C1270 C1272 1.415 . S
C1271 C1270 1.355 . S
C1271 C1273 1.419 . S
C1272 C1270 1.415 . S
C1272 C1277 1.425 . S
C1272 C1279 1.409 . S
C1273 H1265 0.930 . S
C1273 C1271 1.419 . S
C1273 C1274 1.362 . S
C1274 H1266 0.930 . S
C1274 C1273 1.362 . S
C1274 C1277 1.409 . S
C1275 H1267 0.930 . S
C1275 C1276 1.355 . S
C1275 C1277 1.415 . S
C1276 C1275 1.355 . S
C1276 C1278 1.419 . S
C1277 C1272 1.425 . S
C1277 C1274 1.409 . S
C1277 C1275 1.415 . S
C1278 H1268 0.930 . S
C1278 C1276 1.419 . S
C1278 C1279 1.362 . S
C1279 H1269 0.930 . S
C1279 C1272 1.409 . S
C1279 C1278 1.362 . S
H1280 C1286 0.930 . S
H1281 C1289 0.930 . S
H1282 C1290 0.930 . S
H1283 C1291 0.930 . S
H1284 C1294 0.930 . S
H1285 C1295 0.930 . S
C1286 H1280 0.930 . S
C1286 C1287 1.355 . S
C1286 C1288 1.415 . S
C1287 C1286 1.355 . S
C1287 C1289 1.419 . S
C1288 C1286 1.415 . S
C1288 C1293 1.425 . S
C1288 C1295 1.409 . S
C1289 H1281 0.930 . S
C1289 C1287 1.419 . S
C1289 C1290 1.362 . S
C1290 H1282 0.930 . S
C1290 C1289 1.362 . S
C1290 C1293 1.409 . S
C1291 H1283 0.930 . S
C1291 C1292 1.355 . S
C1291 C1293 1.415 . S
C1292 C1291 1.355 . S
C1292 C1294 1.419 . S
C1293 C1288 1.425 . S
C1293 C1290 1.409 . S
C1293 C1291 1.415 . S
C1294 H1284 0.930 . S
C1294 C1292 1.419 . S
C1294 C1295 1.362 . S
C1295 H1285 0.930 . S
C1295 C1288 1.409 . S
C1295 C1294 1.362 . S
H1296 C1302 0.930 . S
H1297 C1305 0.930 . S
H1298 C1306 0.930 . S
H1299 C1307 0.930 . S
H1300 C1310 0.930 . S
H1301 C1311 0.930 . S
C1302 H1296 0.930 . S
C1302 C1303 1.355 . S
C1302 C1304 1.415 . S
C1303 C1302 1.355 . S
C1303 C1305 1.419 . S
C1304 C1302 1.415 . S
C1304 C1309 1.425 . S
C1304 C1311 1.409 . S
C1305 H1297 0.930 . S
C1305 C1303 1.419 . S
C1305 C1306 1.362 . S
C1306 H1298 0.930 . S
C1306 C1305 1.362 . S
C1306 C1309 1.409 . S
C1307 H1299 0.930 . S
C1307 C1308 1.355 . S
C1307 C1309 1.415 . S
C1308 C1307 1.355 . S
C1308 C1310 1.419 . S
C1309 C1304 1.425 . S
C1309 C1306 1.409 . S
C1309 C1307 1.415 . S
C1310 H1300 0.930 . S
C1310 C1308 1.419 . S
C1310 C1311 1.362 . S
C1311 H1301 0.930 . S
C1311 C1304 1.409 . S
C1311 C1310 1.362 . S
H1312 C1318 0.930 . S
H1313 C1321 0.930 . S
H1314 C1322 0.930 . S
H1315 C1323 0.930 . S
H1316 C1326 0.930 1_655 S
H1317 C1327 0.930 . S
C1318 H1312 0.930 . S
C1318 C1319 1.355 . S
C1318 C1320 1.415 . S
C1319 C1318 1.355 . S
C1319 C1321 1.419 . S
C1320 C1318 1.415 . S
C1320 C1325 1.425 . S
C1320 C1327 1.409 . S
C1321 H1313 0.930 . S
C1321 C1319 1.419 . S
C1321 C1322 1.362 . S
C1322 H1314 0.930 . S
C1322 C1321 1.362 . S
C1322 C1325 1.409 . S
C1323 H1315 0.930 . S
C1323 C1324 1.355 . S
C1323 C1325 1.415 . S
C1324 C1323 1.355 . S
C1324 C1326 1.419 . S
C1325 C1320 1.425 . S
C1325 C1322 1.409 . S
C1325 C1323 1.415 . S
C1326 H1316 0.930 1_455 S
C1326 C1324 1.419 . S
C1326 C1327 1.362 . S
C1327 H1317 0.930 . S
C1327 C1320 1.409 . S
C1327 C1326 1.362 . S
H1328 C1334 0.930 . S
H1329 C1337 0.930 . S
H1330 C1338 0.930 . S
H1331 C1339 0.930 . S
H1332 C1342 0.930 . S
H1333 C1343 0.930 . S
C1334 H1328 0.930 . S
C1334 C1335 1.355 . S
C1334 C1336 1.415 . S
C1335 C1334 1.355 . S
C1335 C1337 1.419 . S
C1336 C1334 1.415 . S
C1336 C1341 1.425 . S
C1336 C1343 1.409 . S
C1337 H1329 0.930 . S
C1337 C1335 1.419 . S
C1337 C1338 1.362 . S
C1338 H1330 0.930 . S
C1338 C1337 1.362 . S
C1338 C1341 1.409 . S
C1339 H1331 0.930 . S
C1339 C1340 1.355 . S
C1339 C1341 1.415 . S
C1340 C1339 1.355 . S
C1340 C1342 1.419 . S
C1341 C1336 1.425 . S
C1341 C1338 1.409 . S
C1341 C1339 1.415 . S
C1342 H1332 0.930 . S
C1342 C1340 1.419 . S
C1342 C1343 1.362 . S
C1343 H1333 0.930 . S
C1343 C1336 1.409 . S
C1343 C1342 1.362 . S
H1344 C1350 0.930 . S
H1345 C1353 0.930 1_455 S
H1346 C1354 0.930 . S
H1347 C1355 0.930 . S
H1348 C1358 0.930 . S
H1349 C1359 0.930 . S
C1350 H1344 0.930 . S
C1350 C1351 1.355 . S
C1350 C1352 1.415 . S
C1351 C1350 1.355 . S
C1351 C1353 1.419 . S
C1352 C1350 1.415 . S
C1352 C1357 1.425 . S
C1352 C1359 1.409 . S
C1353 H1345 0.930 1_655 S
C1353 C1351 1.419 . S
C1353 C1354 1.362 . S
C1354 H1346 0.930 . S
C1354 C1353 1.362 . S
C1354 C1357 1.409 . S
C1355 H1347 0.930 . S
C1355 C1356 1.355 . S
C1355 C1357 1.415 . S
C1356 C1355 1.355 . S
C1356 C1358 1.419 . S
C1357 C1352 1.425 . S
C1357 C1354 1.409 . S
C1357 C1355 1.415 . S
C1358 H1348 0.930 . S
C1358 C1356 1.419 . S
C1358 C1359 1.362 . S
C1359 H1349 0.930 . S
C1359 C1352 1.409 . S
C1359 C1358 1.362 . S
H1360 C1366 0.930 . S
H1361 C1369 0.930 . S
H1362 C1370 0.930 . S
H1363 C1371 0.930 . S
H1364 C1374 0.930 . S
H1365 C1375 0.930 . S
C1366 H1360 0.930 . S
C1366 C1367 1.355 . S
C1366 C1368 1.415 . S
C1367 C1366 1.355 . S
C1367 C1369 1.419 . S
C1368 C1366 1.415 . S
C1368 C1373 1.425 . S
C1368 C1375 1.409 . S
C1369 H1361 0.930 . S
C1369 C1367 1.419 . S
C1369 C1370 1.362 . S
C1370 H1362 0.930 . S
C1370 C1369 1.362 . S
C1370 C1373 1.409 . S
C1371 H1363 0.930 . S
C1371 C1372 1.355 . S
C1371 C1373 1.415 . S
C1372 C1371 1.355 . S
C1372 C1374 1.419 . S
C1373 C1368 1.425 . S
C1373 C1370 1.409 . S
C1373 C1371 1.415 . S
C1374 H1364 0.930 . S
C1374 C1372 1.419 . S
C1374 C1375 1.362 . S
C1375 H1365 0.930 . S
C1375 C1368 1.409 . S
C1375 C1374 1.362 . S
H1376 C1382 0.930 . S
H1377 C1385 0.930 . S
H1378 C1386 0.930 . S
H1379 C1387 0.930 . S
H1380 C1390 0.930 . S
H1381 C1391 0.930 . S
C1382 H1376 0.930 . S
C1382 C1383 1.355 . S
C1382 C1384 1.415 . S
C1383 C1382 1.355 . S
C1383 C1385 1.419 . S
C1384 C1382 1.415 . S
C1384 C1389 1.425 . S
C1384 C1391 1.409 . S
C1385 H1377 0.930 . S
C1385 C1383 1.419 . S
C1385 C1386 1.362 . S
C1386 H1378 0.930 . S
C1386 C1385 1.362 . S
C1386 C1389 1.409 . S
C1387 H1379 0.930 . S
C1387 C1388 1.355 . S
C1387 C1389 1.415 . S
C1388 C1387 1.355 . S
C1388 C1390 1.419 . S
C1389 C1384 1.425 . S
C1389 C1386 1.409 . S
C1389 C1387 1.415 . S
C1390 H1380 0.930 . S
C1390 C1388 1.419 . S
C1390 C1391 1.362 . S
C1391 H1381 0.930 . S
C1391 C1384 1.409 . S
C1391 C1390 1.362 . S
H1392 C1398 0.930 . S
H1393 C1401 0.930 . S
H1394 C1402 0.930 . S
H1395 C1403 0.930 . S
H1396 C1406 0.930 . S
H1397 C1407 0.930 . S
C1398 H1392 0.930 . S
C1398 C1399 1.355 . S
C1398 C1400 1.415 . S
C1399 C1398 1.355 . S
C1399 C1401 1.419 . S
C1400 C1398 1.415 . S
C1400 C1405 1.425 . S
C1400 C1407 1.409 . S
C1401 H1393 0.930 . S
C1401 C1399 1.419 . S
C1401 C1402 1.362 . S
C1402 H1394 0.930 . S
C1402 C1401 1.362 . S
C1402 C1405 1.409 . S
C1403 H1395 0.930 . S
C1403 C1404 1.355 . S
C1403 C1405 1.415 . S
C1404 C1403 1.355 . S
C1404 C1406 1.419 . S
C1405 C1400 1.425 . S
C1405 C1402 1.409 . S
C1405 C1403 1.415 . S
C1406 H1396 0.930 . S
C1406 C1404 1.419 . S
C1406 C1407 1.362 . S
C1407 H1397 0.930 . S
C1407 C1400 1.409 . S
C1407 C1406 1.362 . S
H1408 C1414 0.930 . S
H1409 C1417 0.930 1_655 S
H1410 C1418 0.930 . S
H1411 C1419 0.930 . S
H1412 C1422 0.930 . S
H1413 C1423 0.930 . S
C1414 H1408 0.930 . S
C1414 C1415 1.355 . S
C1414 C1416 1.415 . S
C1415 C1414 1.355 . S
C1415 C1417 1.419 . S
C1416 C1414 1.415 . S
C1416 C1421 1.425 . S
C1416 C1423 1.409 . S
C1417 H1409 0.930 1_455 S
C1417 C1415 1.419 . S
C1417 C1418 1.362 . S
C1418 H1410 0.930 . S
C1418 C1417 1.362 . S
C1418 C1421 1.409 . S
C1419 H1411 0.930 . S
C1419 C1420 1.355 . S
C1419 C1421 1.415 . S
C1420 C1419 1.355 . S
C1420 C1422 1.419 . S
C1421 C1416 1.425 . S
C1421 C1418 1.409 . S
C1421 C1419 1.415 . S
C1422 H1412 0.930 . S
C1422 C1420 1.419 . S
C1422 C1423 1.362 . S
C1423 H1413 0.930 . S
C1423 C1416 1.409 . S
C1423 C1422 1.362 . S
H1424 C1430 0.930 . S
H1425 C1433 0.930 . S
H1426 C1434 0.930 . S
H1427 C1435 0.930 . S
H1428 C1438 0.930 . S
H1429 C1439 0.930 . S
C1430 H1424 0.930 . S
C1430 C1431 1.355 . S
C1430 C1432 1.415 . S
C1431 C1430 1.355 . S
C1431 C1433 1.419 . S
C1432 C1430 1.415 . S
C1432 C1437 1.425 . S
C1432 C1439 1.409 . S
C1433 H1425 0.930 . S
C1433 C1431 1.419 . S
C1433 C1434 1.362 . S
C1434 H1426 0.930 . S
C1434 C1433 1.362 . S
C1434 C1437 1.409 . S
C1435 H1427 0.930 . S
C1435 C1436 1.355 . S
C1435 C1437 1.415 . S
C1436 C1435 1.355 . S
C1436 C1438 1.419 . S
C1437 C1432 1.425 . S
C1437 C1434 1.409 . S
C1437 C1435 1.415 . S
C1438 H1428 0.930 . S
C1438 C1436 1.419 . S
C1438 C1439 1.362 . S
C1439 H1429 0.930 . S
C1439 C1432 1.409 . S
C1439 C1438 1.362 . S
H1440 C1446 0.930 . S
H1441 C1449 0.922 1_655 S
H1442 C1450 0.930 . S
H1443 C1451 0.930 . S
H1444 C1454 0.930 . S
H1445 C1455 0.930 . S
C1446 H1440 0.930 . S
C1446 C1447 1.355 . S
C1446 C1448 1.415 . S
C1447 C1446 1.355 . S
C1447 C1449 1.419 . S
C1448 C1446 1.415 . S
C1448 C1453 1.425 . S
C1448 C1455 1.409 . S
C1449 H1441 0.922 1_455 S
C1449 C1447 1.419 . S
C1449 C1450 1.362 . S
C1450 H1442 0.930 . S
C1450 C1449 1.362 . S
C1450 C1453 1.409 . S
C1451 H1443 0.930 . S
C1451 C1452 1.355 . S
C1451 C1453 1.415 . S
C1452 C1451 1.355 . S
C1452 C1454 1.419 . S
C1453 C1448 1.425 . S
C1453 C1450 1.409 . S
C1453 C1451 1.415 . S
C1454 H1444 0.930 . S
C1454 C1452 1.419 . S
C1454 C1455 1.362 . S
C1455 H1445 0.930 . S
C1455 C1448 1.409 . S
C1455 C1454 1.362 . S
H1456 C1462 0.930 . S
H1457 C1465 0.930 . S
H1458 C1466 0.930 . S
H1459 C1467 0.930 . S
H1460 C1470 0.930 . S
H1461 C1471 0.930 . S
C1462 H1456 0.930 . S
C1462 C1463 1.355 . S
C1462 C1464 1.415 . S
C1463 C1462 1.355 . S
C1463 C1465 1.419 . S
C1464 C1462 1.415 . S
C1464 C1469 1.425 . S
C1464 C1471 1.409 . S
C1465 H1457 0.930 . S
C1465 C1463 1.419 . S
C1465 C1466 1.362 . S
C1466 H1458 0.930 . S
C1466 C1465 1.362 . S
C1466 C1469 1.409 . S
C1467 H1459 0.930 . S
C1467 C1468 1.355 . S
C1467 C1469 1.415 . S
C1468 C1467 1.355 . S
C1468 C1470 1.419 . S
C1469 C1464 1.425 . S
C1469 C1466 1.409 . S
C1469 C1467 1.415 . S
C1470 H1460 0.930 . S
C1470 C1468 1.419 . S
C1470 C1471 1.362 . S
C1471 H1461 0.930 . S
C1471 C1464 1.409 . S
C1471 C1470 1.362 . S
C455 C51 1.226 . S
C460 C9 1.208 . S
C471 C37 1.276 . S
C476 C23 1.257 . S
C487 C107 1.283 . S
C492 C65 1.277 . S
C503 C93 1.202 . S
C508 C79 1.209 . S
C519 C121 1.215 . S
C524 C163 1.203 . S
C535 C135 1.280 . S
C540 C149 1.265 . S
C551 C219 1.248 . S
C556 C177 1.224 . S
C567 C191 1.202 . S
C572 C205 1.210 . S
C583 C233 1.248 . S
C588 C275 1.270 . S
C599 C247 1.202 . S
C604 C261 1.209 . S
C615 C331 1.211 . S
C620 C289 1.231 . S
C631 C317 1.223 . S
C636 C303 1.206 . S
C647 C387 1.282 . S
C652 C345 1.268 . S
C663 C359 1.202 . S
C668 C373 1.208 . S
C679 C401 1.225 . S
C684 C443 1.207 . S
C695 C415 1.214 . S
C700 C429 1.235 . S
C711 C287 1.455 . S
C716 C7 1.455 . S
C727 C189 1.446 . S
C732 C21 1.446 . S
C743 C35 1.409 . S
C748 C427 1.409 . S
C759 C49 1.425 . S
C764 C105 1.425 . S
C775 C231 1.422 . S
C780 C63 1.422 . S
C791 C133 1.440 . S
C796 C77 1.440 . S
C807 C371 1.454 . S
C812 C91 1.454 . S
C823 C119 1.408 . S
C828 C399 1.408 . S
C839 C315 1.446 . S
C844 C147 1.446 . S
C855 C217 1.422 . S
C860 C161 1.422 . S
C871 C343 1.430 . S
C876 C175 1.430 . S
C887 C203 1.409 . S
C892 C259 1.409 . S
C903 C413 1.413 . S
C908 C245 1.413 . S
C919 C273 1.450 . S
C924 C329 1.450 . S
C935 C357 1.445 . S
C940 C301 1.445 . S
C951 C441 1.413 . S
C956 C385 1.413 . S
C967 C22 1.314 . S
C972 C8 1.312 . S
C983 C36 1.316 . S
C988 C50 1.314 . S
C999 C64 1.321 . S
C1004 C78 1.319 . S
C1015 C106 1.321 . S
C1020 C92 1.323 . S
C1031 C120 1.354 . S
C1036 C134 1.351 . S
C1047 C148 1.360 . S
C1052 C162 1.362 . S
C1063 C190 1.323 . S
C1068 C176 1.321 . S
C1079 C204 1.346 . S
C1084 C218 1.344 . S
C1095 C232 1.310 . S
C1100 C246 1.310 . S
C1111 C260 1.333 . S
C1116 C274 1.330 . S
C1127 C288 1.342 . S
C1132 C302 1.345 . S
C1143 C330 1.345 . S
C1148 C316 1.348 . S
C1159 C358 1.353 . S
C1164 C344 1.356 . S
C1175 C372 1.379 . S
C1180 C386 1.378 . S
C1191 C400 1.316 . S
C1196 C414 1.318 . S
C1207 C442 1.334 . S
C1212 C428 1.331 . S
C1223 C6 1.557 . S
C1228 C272 1.557 . S
C1239 C20 1.520 . S
C1244 C258 1.527 . S
C1255 C244 1.524 . S
C1260 C34 1.520 . S
C1271 C48 1.553 . S
C1276 C230 1.559 . S
C1287 C328 1.520 . S
C1292 C62 1.533 . S
C1303 C76 1.557 . S
C1308 C314 1.557 . S
C1319 C300 1.557 . S
C1324 C90 1.557 . S
C1335 C104 1.558 . S
C1340 C286 1.555 . S
C1351 C118 1.550 . S
C1356 C384 1.559 . S
C1367 C132 1.559 . S
C1372 C370 1.551 . S
C1383 C146 1.538 . S
C1388 C356 1.522 . S
C1399 C342 1.548 . S
C1404 C160 1.559 . S
C1415 C174 1.559 . S
C1420 C440 1.549 . S
C1431 C188 1.535 . S
C1436 C426 1.521 . S
C1447 C202 1.556 . S
C1452 C412 1.539 . S
C1463 C398 1.522 . S
C1468 C216 1.538 . S
