# Generated by pormake.
# Topology wjh, (4)-cn, num edge types: 1
# Building blocks:
#     Node 0, Type 0, BuildingBlock: UXUYUI_clean_sbu_0, # of connection points: 4
#     Node 1, Type 0, BuildingBlock: UXUYUI_clean_sbu_0, # of connection points: 4
#     Node 2, Type 0, BuildingBlock: UXUYUI_clean_sbu_0, # of connection points: 4
#     Node 3, Type 0, BuildingBlock: UXUYUI_clean_sbu_0, # of connection points: 4
#     Node 4, Type 0, BuildingBlock: UXUYUI_clean_sbu_0, # of connection points: 4
#     Node 5, Type 0, BuildingBlock: UXUYUI_clean_sbu_0, # of connection points: 4
#     Node 6, Type 0, BuildingBlock: UXUYUI_clean_sbu_0, # of connection points: 4
#     Node 7, Type 0, BuildingBlock: UXUYUI_clean_sbu_0, # of connection points: 4
#     Node 8, Type 0, BuildingBlock: UXUYUI_clean_sbu_0, # of connection points: 4
#     Node 9, Type 0, BuildingBlock: UXUYUI_clean_sbu_0, # of connection points: 4
#     Node 10, Type 0, BuildingBlock: UXUYUI_clean_sbu_0, # of connection points: 4
#     Node 11, Type 0, BuildingBlock: UXUYUI_clean_sbu_0, # of connection points: 4
#     Edge 12, Type (0, 0), BuildingBlock: ZUJKAS_clean_linker_0, # of connection points: 2
#     Edge 13, Type (0, 0), BuildingBlock: ZUJKAS_clean_linker_0, # of connection points: 2
#     Edge 14, Type (0, 0), BuildingBlock: ZUJKAS_clean_linker_0, # of connection points: 2
#     Edge 15, Type (0, 0), BuildingBlock: ZUJKAS_clean_linker_0, # of connection points: 2
#     Edge 16, Type (0, 0), BuildingBlock: ZUJKAS_clean_linker_0, # of connection points: 2
#     Edge 17, Type (0, 0), BuildingBlock: ZUJKAS_clean_linker_0, # of connection points: 2
#     Edge 18, Type (0, 0), BuildingBlock: ZUJKAS_clean_linker_0, # of connection points: 2
#     Edge 19, Type (0, 0), BuildingBlock: ZUJKAS_clean_linker_0, # of connection points: 2
#     Edge 20, Type (0, 0), BuildingBlock: ZUJKAS_clean_linker_0, # of connection points: 2
#     Edge 21, Type (0, 0), BuildingBlock: ZUJKAS_clean_linker_0, # of connection points: 2
#     Edge 22, Type (0, 0), BuildingBlock: ZUJKAS_clean_linker_0, # of connection points: 2
#     Edge 23, Type (0, 0), BuildingBlock: ZUJKAS_clean_linker_0, # of connection points: 2
#     Edge 24, Type (0, 0), BuildingBlock: ZUJKAS_clean_linker_0, # of connection points: 2
#     Edge 25, Type (0, 0), BuildingBlock: ZUJKAS_clean_linker_0, # of connection points: 2
#     Edge 26, Type (0, 0), BuildingBlock: ZUJKAS_clean_linker_0, # of connection points: 2
#     Edge 27, Type (0, 0), BuildingBlock: ZUJKAS_clean_linker_0, # of connection points: 2
#     Edge 28, Type (0, 0), BuildingBlock: ZUJKAS_clean_linker_0, # of connection points: 2
#     Edge 29, Type (0, 0), BuildingBlock: ZUJKAS_clean_linker_0, # of connection points: 2
#     Edge 30, Type (0, 0), BuildingBlock: ZUJKAS_clean_linker_0, # of connection points: 2
#     Edge 31, Type (0, 0), BuildingBlock: ZUJKAS_clean_linker_0, # of connection points: 2
#     Edge 32, Type (0, 0), BuildingBlock: ZUJKAS_clean_linker_0, # of connection points: 2
#     Edge 33, Type (0, 0), BuildingBlock: ZUJKAS_clean_linker_0, # of connection points: 2
#     Edge 34, Type (0, 0), BuildingBlock: ZUJKAS_clean_linker_0, # of connection points: 2
#     Edge 35, Type (0, 0), BuildingBlock: ZUJKAS_clean_linker_0, # of connection points: 2
# Relax obj value: 0.245
# Max RMSD: 0.173
# Mean RMSD: 0.173
data_MOF--net-wjh--node1-UXUYUI_clean_sbu_0--edge1-ZUJKAS_clean_linker_0
_symmetry_space_group_name_H-M    P1
_symmetry_Int_Tables_number       1
_symmetry_cell_setting            triclinic
loop_
_symmetry_equiv_pos_as_xyz
'x, y, z'
_cell_length_a     108.50382
_cell_length_b     108.51462
_cell_length_c     43.084269
_cell_angle_alpha  90.007094
_cell_angle_beta   89.990209
_cell_angle_gamma 119.99617
loop_
_atom_site_label
_atom_site_type_symbol
_atom_site_fract_x
_atom_site_fract_y
_atom_site_fract_z
_atom_type_partial_charge
Li0 Li 0.47908 0.11586 0.06521 0.0
Li1 Li 0.50109 0.13058 0.0941 0.0
Li2 Li 0.48632 0.14042 0.0715 0.0
Li3 Li 0.50055 0.13432 0.03763 0.0
C4 C 0.4706 0.11639 0.12255 0.0
N5 N 0.44833 0.09594 0.1572 0.0
C6 C 0.47325 0.1093 0.14641 0.0
C7 C 0.45665 0.11322 0.11656 0.0
C8 C 0.46184 0.09896 0.16362 0.0
C9 C 0.44553 0.1028 0.13425 0.0
C10 C 0.50745 0.11256 0.05721 0.0
C11 C 0.53152 0.11766 0.0486 0.0
N12 N 0.52709 0.10356 0.05133 0.0
C13 C 0.50312 0.09811 0.05968 0.0
C14 C 0.52174 0.12241 0.05144 0.0
C15 C 0.51322 0.09378 0.05675 0.0
C16 C 0.45205 0.09367 0.04491 0.0
N17 N 0.46338 0.09716 0.06372 0.0
C18 C 0.45198 0.0739 0.08575 0.0
C19 C 0.46367 0.08757 0.08349 0.0
C20 C 0.44002 0.07003 0.06702 0.0
C21 C 0.44017 0.08 0.04604 0.0
H22 H 0.45216 0.10153 0.02934 0.0
H23 H 0.47291 0.09066 0.09796 0.0
C24 C 0.51793 0.14306 0.14668 0.0
N25 N 0.51223 0.13124 0.12853 0.0
C26 C 0.52579 0.14389 0.17302 0.0
C27 C 0.52168 0.12031 0.16154 0.0
C28 C 0.51385 0.11992 0.13552 0.0
C29 C 0.52773 0.13239 0.18072 0.0
H30 H 0.51628 0.15182 0.14072 0.0
H31 H 0.50883 0.11047 0.1213 0.0
C32 C 0.47383 0.13513 0.016 0.0
N33 N 0.46088 0.14752 0.98354 0.0
C34 C 0.48079 0.14411 0.99091 0.0
C35 C 0.46023 0.13233 0.02441 0.0
C36 C 0.47407 0.15029 0.97482 0.0
C37 C 0.45388 0.13875 0.00777 0.0
C38 C 0.5203 0.16075 0.06883 0.0
C39 C 0.52128 0.17341 0.05848 0.0
C40 C 0.53268 0.16061 0.07721 0.0
C41 C 0.53464 0.18566 0.05608 0.0
C42 C 0.54585 0.17307 0.07449 0.0
N43 N 0.54655 0.18523 0.06404 0.0
C44 C 0.47371 0.1524 0.10765 0.0
C45 C 0.48234 0.16408 0.05939 0.0
C46 C 0.46961 0.1622 0.11631 0.0
N47 N 0.48002 0.15355 0.07972 0.0
C48 C 0.47842 0.17414 0.06712 0.0
C49 C 0.47214 0.17336 0.0961 0.0
H50 H 0.47223 0.14411 0.12364 0.0
H51 H 0.48749 0.16486 0.03745 0.0
C52 C 0.5082 0.12649 0.98295 0.0
N53 N 0.51128 0.13811 0.00043 0.0
C54 C 0.51603 0.12786 0.95622 0.0
C55 C 0.52986 0.15319 0.96548 0.0
C56 C 0.52171 0.15134 0.99201 0.0
C57 C 0.52713 0.14133 0.94739 0.0
H58 H 0.49982 0.11611 0.9902 0.0
H59 H 0.52383 0.16045 0.00585 0.0
O60 O 0.4816 0.12633 0.10501 0.0
O61 O 0.49767 0.11693 0.0601 0.0
O62 O 0.48024 0.12899 0.03202 0.0
O63 O 0.50727 0.14869 0.07155 0.0
H64 H 0.48398 0.11165 0.15141 0.0
H65 H 0.45444 0.11864 0.09822 0.0
H66 H 0.46371 0.09332 0.18203 0.0
H67 H 0.43468 0.10014 0.1297 0.0
H68 H 0.54261 0.12518 0.04411 0.0
H69 H 0.49207 0.09032 0.06392 0.0
H70 H 0.52523 0.13356 0.04879 0.0
H71 H 0.51002 0.08264 0.05875 0.0
H72 H 0.45233 0.0664 0.10182 0.0
H73 H 0.43113 0.07732 0.03118 0.0
H74 H 0.53033 0.15342 0.18713 0.0
H75 H 0.52269 0.11111 0.16701 0.0
H76 H 0.4913 0.14635 0.98402 0.0
H77 H 0.45469 0.12539 0.04374 0.0
H78 H 0.47935 0.15732 0.95543 0.0
H79 H 0.4434 0.13676 0.01415 0.0
H80 H 0.51184 0.17378 0.0521 0.0
H81 H 0.53217 0.15104 0.086 0.0
H82 H 0.53554 0.1955 0.04789 0.0
H83 H 0.5555 0.17309 0.08082 0.0
H84 H 0.46504 0.16137 0.1391 0.0
H85 H 0.48049 0.18256 0.05082 0.0
H86 H 0.51367 0.11841 0.94311 0.0
H87 H 0.53819 0.16378 0.9592 0.0
Li88 Li 0.3657 0.50052 0.263 0.0
Li89 Li 0.35805 0.47761 0.23467 0.0
Li90 Li 0.36364 0.50059 0.20775 0.0
Li91 Li 0.34273 0.48776 0.23815 0.0
C92 C 0.38922 0.50091 0.24675 0.0
N93 N 0.41451 0.51083 0.2787 0.0
C94 C 0.39237 0.49135 0.26152 0.0
C95 C 0.39897 0.5155 0.24799 0.0
C96 C 0.40521 0.49658 0.27759 0.0
C97 C 0.41168 0.52031 0.26435 0.0
C98 C 0.33953 0.47576 0.29372 0.0
C99 C 0.31728 0.45657 0.31286 0.0
N100 N 0.31703 0.4654 0.33495 0.0
C101 C 0.3391 0.48462 0.31672 0.0
C102 C 0.32859 0.46159 0.29184 0.0
C103 C 0.32762 0.47918 0.33732 0.0
C104 C 0.37831 0.52456 0.30241 0.0
N105 N 0.3758 0.51107 0.29856 0.0
C106 C 0.38766 0.51236 0.34617 0.0
C107 C 0.38013 0.50482 0.31991 0.0
C108 C 0.39059 0.52641 0.35062 0.0
C109 C 0.38574 0.53247 0.32835 0.0
H110 H 0.37443 0.52914 0.28548 0.0
H111 H 0.37778 0.49399 0.31644 0.0
C112 C 0.36397 0.45791 0.20658 0.0
N113 N 0.35912 0.46089 0.23294 0.0
C114 C 0.3655 0.4459 0.20514 0.0
C115 C 0.35669 0.44015 0.2578 0.0
C116 C 0.35544 0.45232 0.25828 0.0
C117 C 0.36195 0.43689 0.23111 0.0
H118 H 0.3669 0.46502 0.18691 0.0
H119 H 0.35177 0.45508 0.27904 0.0
C120 C 0.35757 0.52023 0.22361 0.0
N121 N 0.36107 0.54388 0.19177 0.0
C122 C 0.34579 0.52035 0.21076 0.0
C123 C 0.37111 0.53219 0.22043 0.0
C124 C 0.34779 0.5324 0.19474 0.0
C125 C 0.37266 0.54402 0.20418 0.0
C126 C 0.3361 0.47392 0.18219 0.0
C127 C 0.32962 0.4812 0.1699 0.0
C128 C 0.33044 0.45946 0.1757 0.0
C129 C 0.31751 0.47385 0.1514 0.0
C130 C 0.31833 0.4525 0.15705 0.0
N131 N 0.31216 0.45977 0.1454 0.0
C132 C 0.38598 0.515 0.16562 0.0
C133 C 0.36498 0.51513 0.15111 0.0
C134 C 0.39312 0.52308 0.13964 0.0
N135 N 0.37222 0.5113 0.17102 0.0
C136 C 0.37176 0.52336 0.12497 0.0
C137 C 0.38601 0.52743 0.11904 0.0
H138 H 0.39146 0.51169 0.18154 0.0
H139 H 0.35401 0.51195 0.15561 0.0
C140 C 0.32122 0.49134 0.26282 0.0
N141 N 0.32333 0.48221 0.24507 0.0
C142 C 0.30773 0.48728 0.27433 0.0
C143 C 0.29864 0.4647 0.24793 0.0
C144 C 0.31239 0.46908 0.23746 0.0
C145 C 0.29635 0.47376 0.26715 0.0
H146 H 0.33018 0.50151 0.26937 0.0
H147 H 0.31441 0.4617 0.22478 0.0
O148 O 0.37657 0.49601 0.23143 0.0
O149 O 0.35046 0.48101 0.27275 0.0
O150 O 0.35584 0.5085 0.23928 0.0
O151 O 0.34796 0.48088 0.20034 0.0
H152 H 0.38495 0.48003 0.26083 0.0
H153 H 0.39668 0.52303 0.2367 0.0
H154 H 0.40777 0.48932 0.28927 0.0
H155 H 0.41928 0.53157 0.26569 0.0
H156 H 0.30867 0.44567 0.31148 0.0
H157 H 0.34743 0.49564 0.31836 0.0
H158 H 0.32867 0.45464 0.27394 0.0
H159 H 0.32709 0.48595 0.35508 0.0
H160 H 0.39127 0.5073 0.3626 0.0
H161 H 0.38749 0.54314 0.33116 0.0
H162 H 0.36986 0.44397 0.18429 0.0
H163 H 0.35371 0.43345 0.27824 0.0
H164 H 0.33524 0.51119 0.21288 0.0
H165 H 0.38035 0.53226 0.23004 0.0
H166 H 0.33878 0.53261 0.18457 0.0
H167 H 0.38309 0.5533 0.20134 0.0
H168 H 0.33372 0.49231 0.17511 0.0
H169 H 0.33534 0.45368 0.18506 0.0
H170 H 0.31232 0.47932 0.14191 0.0
H171 H 0.31381 0.4413 0.15187 0.0
H172 H 0.40415 0.52608 0.13597 0.0
H173 H 0.36587 0.52637 0.10942 0.0
H174 H 0.30625 0.49447 0.28925 0.0
H175 H 0.29005 0.45412 0.24241 0.0
Li176 Li 0.87789 0.3603 0.40352 0.0
Li177 Li 0.86341 0.36764 0.4332 0.0
Li178 Li 0.85318 0.34391 0.41054 0.0
Li179 Li 0.86041 0.36473 0.37812 0.0
C180 C 0.87759 0.35158 0.46099 0.0
N181 N 0.89864 0.35072 0.49545 0.0
C182 C 0.88449 0.36144 0.48479 0.0
C183 C 0.88136 0.34123 0.45486 0.0
C184 C 0.8951 0.36083 0.50194 0.0
C185 C 0.89205 0.341 0.47248 0.0
C186 C 0.88355 0.38944 0.38084 0.0
C187 C 0.88405 0.40974 0.35671 0.0
N188 N 0.89425 0.4108 0.33677 0.0
C189 C 0.89406 0.39074 0.36016 0.0
C190 C 0.87853 0.39904 0.37922 0.0
C191 C 0.89934 0.40162 0.33805 0.0
C192 C 0.89916 0.35445 0.38125 0.0
N193 N 0.89623 0.36244 0.40094 0.0
C194 C 0.91976 0.37362 0.4215 0.0
C195 C 0.90625 0.3721 0.42039 0.0
C196 C 0.92305 0.36537 0.40183 0.0
C197 C 0.91267 0.35582 0.38117 0.0
H198 H 0.89102 0.34701 0.36571 0.0
H199 H 0.90365 0.37848 0.43534 0.0
C200 C 0.85543 0.37082 0.49357 0.0
N201 N 0.86332 0.37807 0.46849 0.0
C202 C 0.85509 0.37815 0.51985 0.0
C203 C 0.87135 0.40027 0.4943 0.0
C204 C 0.87129 0.3925 0.46843 0.0
C205 C 0.86314 0.39308 0.52042 0.0
H206 H 0.84942 0.35931 0.49315 0.0
H207 H 0.87764 0.39797 0.44836 0.0
C208 C 0.85745 0.33622 0.35596 0.0
N209 N 0.84281 0.31008 0.32689 0.0
C210 C 0.84731 0.33385 0.33324 0.0
C211 C 0.8602 0.32531 0.3638 0.0
C212 C 0.84002 0.32055 0.3188 0.0
C213 C 0.85265 0.31216 0.34889 0.0
C214 C 0.83608 0.35851 0.42847 0.0
C215 C 0.82635 0.34717 0.44682 0.0
C216 C 0.83668 0.37166 0.43042 0.0
C217 C 0.81741 0.3492 0.46691 0.0
C218 C 0.82759 0.37327 0.45085 0.0
N219 N 0.81822 0.36211 0.46851 0.0
C220 C 0.8421 0.31712 0.43856 0.0
C221 C 0.82748 0.31831 0.39914 0.0
C222 C 0.83226 0.30286 0.44398 0.0
N223 N 0.83957 0.32449 0.41645 0.0
C224 C 0.81733 0.30403 0.40377 0.0
C225 C 0.81963 0.29617 0.42662 0.0
H226 H 0.85168 0.32236 0.4523 0.0
H227 H 0.82566 0.32453 0.38207 0.0
C228 C 0.86385 0.3724 0.31506 0.0
N229 N 0.85668 0.37193 0.34132 0.0
C230 C 0.86226 0.37862 0.28815 0.0
C231 C 0.84585 0.38363 0.31579 0.0
C232 C 0.84763 0.37716 0.34204 0.0
C233 C 0.85331 0.3845 0.2885 0.0
H234 H 0.87103 0.3682 0.31528 0.0
H235 H 0.84201 0.37656 0.36315 0.0
O236 O 0.86733 0.35214 0.4436 0.0
O237 O 0.87794 0.3786 0.40202 0.0
O238 O 0.86453 0.34908 0.37072 0.0
O239 O 0.84505 0.35678 0.40893 0.0
H240 H 0.8818 0.36957 0.48981 0.0
H241 H 0.87628 0.33362 0.43631 0.0
H242 H 0.90056 0.36843 0.52032 0.0
H243 H 0.89516 0.33314 0.46779 0.0
H244 H 0.88017 0.41716 0.355 0.0
H245 H 0.89799 0.38335 0.36091 0.0
H246 H 0.87025 0.39807 0.39476 0.0
H247 H 0.90743 0.40271 0.3218 0.0
H248 H 0.92763 0.38134 0.43722 0.0
H249 H 0.91494 0.34941 0.36545 0.0
H250 H 0.8488 0.37221 0.5397 0.0
H251 H 0.87765 0.41177 0.49377 0.0
H252 H 0.84495 0.34211 0.32706 0.0
H253 H 0.86791 0.32692 0.38155 0.0
H254 H 0.83209 0.31855 0.30127 0.0
H255 H 0.85459 0.3036 0.35489 0.0
H256 H 0.82577 0.33694 0.44581 0.0
H257 H 0.84433 0.38064 0.41687 0.0
H258 H 0.80986 0.34053 0.48131 0.0
H259 H 0.82804 0.38343 0.45279 0.0
H260 H 0.83448 0.29715 0.4617 0.0
H261 H 0.80761 0.29934 0.39027 0.0
H262 H 0.86829 0.37921 0.2676 0.0
H263 H 0.83875 0.38794 0.31681 0.0
Li264 Li 0.51603 0.87912 0.56884 0.0
Li265 Li 0.49364 0.86354 0.59575 0.0
Li266 Li 0.50758 0.85349 0.57148 0.0
Li267 Li 0.49392 0.86124 0.54017 0.0
C268 C 0.52501 0.87196 0.62367 0.0
N269 N 0.54937 0.88122 0.65885 0.0
C270 C 0.52533 0.87617 0.65447 0.0
C271 C 0.53702 0.87232 0.6109 0.0
C272 C 0.53777 0.88087 0.67184 0.0
C273 C 0.54924 0.87707 0.62902 0.0
C274 C 0.49043 0.88478 0.5763 0.0
C275 C 0.46856 0.88454 0.58783 0.0
N276 N 0.47612 0.8973 0.60245 0.0
C277 C 0.498 0.89794 0.59116 0.0
C278 C 0.47561 0.87807 0.57435 0.0
C279 C 0.49056 0.90408 0.60432 0.0
C280 C 0.53912 0.90332 0.54144 0.0
N281 N 0.53225 0.8975 0.56853 0.0
C282 C 0.54841 0.91836 0.59658 0.0
C283 C 0.53659 0.90472 0.59577 0.0
C284 C 0.5557 0.92474 0.56896 0.0
C285 C 0.55097 0.91701 0.54112 0.0
H286 H 0.53527 0.89739 0.52003 0.0
H287 H 0.53072 0.89999 0.61684 0.0
C288 C 0.46958 0.85134 0.63553 0.0
N289 N 0.48269 0.86282 0.63074 0.0
C290 C 0.46142 0.85099 0.66095 0.0
C291 C 0.48051 0.87422 0.67613 0.0
C292 C 0.48829 0.87409 0.6505 0.0
C293 C 0.46686 0.86257 0.68158 0.0
H294 H 0.46544 0.84247 0.61962 0.0
H295 H 0.4988 0.88302 0.64621 0.0
C296 C 0.52253 0.86374 0.51452 0.0
N297 N 0.53962 0.85915 0.47406 0.0
C298 C 0.51656 0.85477 0.48892 0.0
C299 C 0.53724 0.8706 0.51917 0.0
C300 C 0.52536 0.85252 0.46883 0.0
C301 C 0.54568 0.86808 0.49857 0.0
C302 C 0.47523 0.83432 0.55827 0.0
C303 C 0.47635 0.82271 0.54792 0.0
C304 C 0.46236 0.83421 0.55485 0.0
C305 C 0.46459 0.81123 0.53393 0.0
C306 C 0.45087 0.82254 0.54069 0.0
N307 N 0.45221 0.8114 0.5306 0.0
C308 C 0.51538 0.83752 0.60787 0.0
C309 C 0.51634 0.83332 0.55416 0.0
C310 C 0.52043 0.82836 0.61536 0.0
N311 N 0.51373 0.84007 0.57771 0.0
C312 C 0.52117 0.82383 0.56064 0.0
C313 C 0.52342 0.82144 0.59158 0.0
H314 H 0.51277 0.84262 0.6262 0.0
H315 H 0.51451 0.83512 0.53044 0.0
C316 C 0.48105 0.86935 0.49486 0.0
N317 N 0.48318 0.85848 0.50319 0.0
C318 C 0.47296 0.86816 0.46871 0.0
C319 C 0.46955 0.84467 0.45977 0.0
C320 C 0.4778 0.84636 0.48602 0.0
C321 C 0.46701 0.85566 0.45091 0.0
H322 H 0.48557 0.87895 0.50864 0.0
H323 H 0.47984 0.83796 0.49269 0.0
O324 O 0.51294 0.86743 0.60627 0.0
O325 O 0.49749 0.87844 0.56386 0.0
O326 O 0.51406 0.86615 0.53424 0.0
O327 O 0.48663 0.84564 0.57205 0.0
H328 H 0.5161 0.87584 0.66484 0.0
H329 H 0.53684 0.86881 0.5874 0.0
H330 H 0.53818 0.88421 0.69565 0.0
H331 H 0.55861 0.87739 0.61939 0.0
H332 H 0.45709 0.87942 0.5867 0.0
H333 H 0.50947 0.90331 0.59274 0.0
H334 H 0.46961 0.86793 0.56272 0.0
H335 H 0.49628 0.91422 0.61608 0.0
H336 H 0.55173 0.92386 0.61861 0.0
H337 H 0.55611 0.92161 0.51921 0.0
H338 H 0.45091 0.84185 0.66417 0.0
H339 H 0.48519 0.88326 0.6917 0.0
H340 H 0.50524 0.84947 0.48474 0.0
H341 H 0.54215 0.87791 0.53825 0.0
H342 H 0.52085 0.84551 0.44909 0.0
H343 H 0.55707 0.87328 0.50199 0.0
H344 H 0.48618 0.82256 0.55056 0.0
H345 H 0.46129 0.84307 0.56281 0.0
H346 H 0.46532 0.8022 0.52569 0.0
H347 H 0.44088 0.82236 0.5377 0.0
H348 H 0.52168 0.82647 0.63954 0.0
H349 H 0.52318 0.81848 0.54176 0.0
H350 H 0.47117 0.87684 0.46283 0.0
H351 H 0.46532 0.83494 0.4464 0.0
Li352 Li 0.63578 0.51615 0.73029 0.0
Li353 Li 0.62918 0.4945 0.7597 0.0
Li354 Li 0.65342 0.50911 0.73504 0.0
Li355 Li 0.63242 0.49442 0.70304 0.0
C356 C 0.64676 0.52588 0.78569 0.0
N357 N 0.65105 0.54966 0.81816 0.0
C358 C 0.63794 0.52448 0.81067 0.0
C359 C 0.6579 0.53934 0.77751 0.0
C360 C 0.64025 0.53665 0.82673 0.0
C361 C 0.65985 0.55125 0.79412 0.0
C362 C 0.60407 0.48749 0.72818 0.0
C363 C 0.58492 0.4632 0.72437 0.0
N364 N 0.57546 0.46748 0.73179 0.0
C365 C 0.59414 0.49167 0.73548 0.0
C366 C 0.59942 0.47316 0.72236 0.0
C367 C 0.57973 0.48139 0.73731 0.0
C368 C 0.63968 0.54239 0.70748 0.0
N369 N 0.63265 0.53177 0.72842 0.0
C370 C 0.62064 0.54331 0.74901 0.0
C371 C 0.62324 0.53198 0.74889 0.0
C372 C 0.62771 0.55447 0.72764 0.0
C373 C 0.63735 0.55393 0.70666 0.0
H374 H 0.64702 0.54188 0.69134 0.0
H375 H 0.61776 0.52332 0.76514 0.0
C376 C 0.62305 0.47488 0.80843 0.0
N377 N 0.61904 0.4836 0.79475 0.0
C378 C 0.61585 0.46697 0.83461 0.0
C379 C 0.60075 0.47744 0.83249 0.0
C380 C 0.6082 0.48508 0.80628 0.0
C381 C 0.60454 0.46821 0.84703 0.0
H382 H 0.6319 0.47412 0.79911 0.0
H383 H 0.60551 0.49241 0.79547 0.0
C384 C 0.65912 0.52119 0.67803 0.0
N385 N 0.68312 0.53434 0.64107 0.0
C386 C 0.66053 0.51403 0.6525 0.0
C387 C 0.66986 0.53508 0.68458 0.0
C388 C 0.67275 0.52086 0.63413 0.0
C389 C 0.68193 0.54153 0.66569 0.0
C390 C 0.64071 0.47568 0.73038 0.0
C391 C 0.65291 0.47603 0.71875 0.0
C392 C 0.62857 0.46256 0.73651 0.0
C393 C 0.65268 0.46326 0.71285 0.0
C394 C 0.62876 0.45002 0.7303 0.0
N395 N 0.6407 0.45062 0.71866 0.0
C396 C 0.67802 0.52102 0.77066 0.0
C397 C 0.68175 0.51529 0.71975 0.0
C398 C 0.69218 0.52588 0.77833 0.0
N399 N 0.67309 0.51587 0.74181 0.0
C400 C 0.69603 0.52007 0.72638 0.0
C401 C 0.70138 0.52536 0.75612 0.0
H402 H 0.67087 0.52109 0.78802 0.0
H403 H 0.67756 0.51089 0.69716 0.0
C404 C 0.61461 0.48489 0.6517 0.0
N405 N 0.62484 0.48334 0.66635 0.0
C406 C 0.6079 0.47688 0.62533 0.0
C407 C 0.62263 0.46605 0.629 0.0
C408 C 0.62909 0.47431 0.6553 0.0
C409 C 0.61181 0.46722 0.61379 0.0
H410 H 0.61154 0.49225 0.6608 0.0
H411 H 0.6375 0.47352 0.66667 0.0
O412 O 0.6445 0.51413 0.76928 0.0
O413 O 0.61825 0.49743 0.72656 0.0
O414 O 0.6472 0.51469 0.6962 0.0
O415 O 0.64079 0.48811 0.73644 0.0
H416 H 0.62934 0.51414 0.81745 0.0
H417 H 0.66489 0.54059 0.75841 0.0
H418 H 0.63344 0.53573 0.84598 0.0
H419 H 0.66836 0.56174 0.78788 0.0
H420 H 0.58119 0.45207 0.71995 0.0
H421 H 0.59753 0.50273 0.7398 0.0
H422 H 0.6069 0.46978 0.71607 0.0
H423 H 0.57194 0.48447 0.7431 0.0
H424 H 0.61293 0.54317 0.76517 0.0
H425 H 0.64303 0.56234 0.68988 0.0
H426 H 0.61908 0.45992 0.8449 0.0
H427 H 0.59233 0.47899 0.84162 0.0
H428 H 0.65231 0.50331 0.64697 0.0
H429 H 0.66893 0.5408 0.70414 0.0
H430 H 0.67401 0.51543 0.61437 0.0
H431 H 0.69036 0.55225 0.6706 0.0
H432 H 0.66242 0.48605 0.71407 0.0
H433 H 0.61915 0.46203 0.74626 0.0
H434 H 0.66202 0.46339 0.70364 0.0
H435 H 0.61943 0.43981 0.73485 0.0
H436 H 0.69574 0.52953 0.80177 0.0
H437 H 0.70276 0.51951 0.70854 0.0
H438 H 0.59953 0.47804 0.61448 0.0
H439 H 0.62615 0.45892 0.62052 0.0
Li440 Li 0.13276 0.6321 0.86928 0.0
Li441 Li 0.14003 0.65374 0.89913 0.0
Li442 Li 0.13106 0.63027 0.92645 0.0
Li443 Li 0.11525 0.63644 0.89817 0.0
C444 C 0.15956 0.63884 0.89535 0.0
N445 N 0.18227 0.63445 0.88565 0.0
C446 C 0.17228 0.64967 0.88284 0.0
C447 C 0.15851 0.62589 0.90352 0.0
C448 C 0.1836 0.64722 0.87793 0.0
C449 C 0.17007 0.62384 0.89828 0.0
C450 C 0.13255 0.65893 0.84439 0.0
C451 C 0.13536 0.68208 0.83451 0.0
N452 N 0.14349 0.68348 0.80925 0.0
C453 C 0.14083 0.66055 0.81821 0.0
C454 C 0.12969 0.66972 0.85249 0.0
C455 C 0.14629 0.67305 0.80079 0.0
C456 C 0.12393 0.61223 0.8212 0.0
N457 N 0.13556 0.62381 0.83303 0.0
C458 C 0.15037 0.62237 0.79381 0.0
C459 C 0.14858 0.62912 0.81959 0.0
C460 C 0.13862 0.61006 0.78189 0.0
C461 C 0.12524 0.60507 0.7957 0.0
H462 H 0.11362 0.60846 0.83179 0.0
H463 H 0.15757 0.6386 0.82877 0.0
C464 C 0.15261 0.6803 0.92796 0.0
N465 N 0.15339 0.67346 0.90229 0.0
C466 C 0.16251 0.69461 0.93272 0.0
C467 C 0.17385 0.69465 0.88437 0.0
C468 C 0.16365 0.68032 0.88046 0.0
C469 C 0.17342 0.7019 0.91098 0.0
H470 H 0.14453 0.67456 0.94524 0.0
H471 H 0.16407 0.67463 0.86031 0.0
C472 C 0.11051 0.60433 0.89791 0.0
N473 N 0.09891 0.57521 0.90311 0.0
C474 C 0.09626 0.59573 0.90643 0.0
C475 C 0.11879 0.59807 0.89155 0.0
C476 C 0.09061 0.58105 0.90909 0.0
C477 C 0.11276 0.58334 0.89441 0.0
C478 C 0.11813 0.6478 0.95444 0.0
C479 C 0.11269 0.63952 0.98118 0.0
C480 C 0.11424 0.65796 0.94722 0.0
C481 C 0.10325 0.64137 1e-05 0.0
C482 C 0.10476 0.65948 0.9666 0.0
N483 N 0.0995 0.65121 0.99236 0.0
C484 C 0.14586 0.62671 0.9761 0.0
C485 C 0.12142 0.6092 0.97342 0.0
C486 C 0.14762 0.62027 0.00248 0.0
N487 N 0.13294 0.62102 0.96203 0.0
C488 C 0.1227 0.6024 -0.00036 0.0
C489 C 0.13593 0.60793 0.01458 0.0
H490 H 0.15478 0.63629 0.96687 0.0
H491 H 0.11118 0.60514 0.96244 0.0
C492 C 0.09254 0.63985 0.87615 0.0
N493 N 0.09661 0.6337 0.8983 0.0
C494 C 0.07897 0.63831 0.87714 0.0
C495 C 0.07414 0.62414 0.92369 0.0
C496 C 0.08769 0.62582 0.92157 0.0
C497 C 0.06965 0.63046 0.90132 0.0
H498 H 0.09983 0.64599 0.8578 0.0
H499 H 0.09119 0.62094 0.93868 0.0
O500 O 0.14839 0.64112 0.90043 0.0
O501 O 0.12721 0.64681 0.86188 0.0
O502 O 0.11621 0.61875 0.89535 0.0
O503 O 0.12722 0.64599 0.93548 0.0
H504 H 0.17338 0.65983 0.87677 0.0
H505 H 0.14897 0.61755 0.91419 0.0
H506 H 0.19346 0.65547 0.86802 0.0
H507 H 0.16938 0.61385 0.90442 0.0
H508 H 0.13331 0.69056 0.84064 0.0
H509 H 0.14308 0.65227 0.81149 0.0
H510 H 0.12324 0.66862 0.87258 0.0
H511 H 0.15278 0.67448 0.78055 0.0
H512 H 0.16085 0.62658 0.78368 0.0
H513 H 0.11588 0.59577 0.78676 0.0
H514 H 0.16198 0.69972 0.95387 0.0
H515 H 0.1821 0.69993 0.86705 0.0
H516 H 0.08962 0.60034 0.91106 0.0
H517 H 0.12967 0.60445 0.88396 0.0
H518 H 0.07962 0.57429 0.91586 0.0
H519 H 0.11906 0.57838 0.88956 0.0
H520 H 0.11566 0.63169 0.98728 0.0
H521 H 0.11839 0.66451 0.92672 0.0
H522 H 0.0989 0.63497 0.02067 0.0
H523 H 0.10157 0.66721 0.96114 0.0
H524 H 0.15795 0.62505 0.01356 0.0
H525 H 0.11342 0.59286 0.00799 0.0
H526 H 0.07584 0.6433 0.85945 0.0
H527 H 0.06715 0.61779 0.94234 0.0
Li528 Li 0.85127 0.50587 0.90717 0.0
Li529 Li 0.8603 0.49388 0.93704 0.0
Li530 Li 0.87687 0.51679 0.90914 0.0
Li531 Li 0.86179 0.49355 0.88189 0.0
C532 C 0.85864 0.52084 0.9601 0.0
N533 N 0.84823 0.53584 0.99182 0.0
C534 C 0.845 0.51371 0.973 0.0
C535 C 0.86704 0.53558 0.96352 0.0
C536 C 0.83991 0.52149 0.98887 0.0
C537 C 0.86157 0.54298 0.97961 0.0
C538 C 0.83514 0.47328 0.9233 0.0
C539 C 0.82858 0.44996 0.94296 0.0
N540 N 0.81719 0.44938 0.95757 0.0
C541 C 0.82336 0.47244 0.93854 0.0
C542 C 0.83775 0.46193 0.92549 0.0
C543 C 0.81441 0.46027 0.95571 0.0
C544 C 0.82437 0.50106 0.88932 0.0
N545 N 0.83714 0.51113 0.90079 0.0
C546 C 0.83107 0.52924 0.89283 0.0
C547 C 0.84061 0.52501 0.90283 0.0
C548 C 0.81793 0.51911 0.88019 0.0
C549 C 0.81451 0.50481 0.87909 0.0
H550 H 0.82213 0.49023 0.88661 0.0
H551 H 0.8511 0.53294 0.91045 0.0
C552 C 0.86873 0.47942 0.97815 0.0
N553 N 0.8589 0.48354 0.97397 0.0
C554 C 0.86795 0.47129 0.00393 0.0
C555 C 0.84705 0.47194 0.02093 0.0
C556 C 0.84836 0.48024 0.99503 0.0
C557 C 0.85691 0.46732 0.02549 0.0
H558 H 0.87713 0.48235 0.96136 0.0
H559 H 0.84082 0.48383 0.99153 0.0
C560 C 0.85882 0.5167 0.84995 0.0
N561 N 0.84509 0.52449 0.80691 0.0
C562 C 0.84791 0.50635 0.83166 0.0
C563 C 0.8628 0.53101 0.84624 0.0
C564 C 0.84108 0.51051 0.81006 0.0
C565 C 0.85571 0.53473 0.82437 0.0
C566 C 0.88554 0.49426 0.89606 0.0
C567 C 0.8977 0.50409 0.87996 0.0
C568 C 0.88133 0.4798 0.89494 0.0
C569 C 0.90538 0.49928 0.86272 0.0
C570 C 0.88927 0.47541 0.87739 0.0
N571 N 0.90102 0.48515 0.86176 0.0
C572 C 0.90216 0.53767 0.93636 0.0
C573 C 0.89948 0.54153 0.88321 0.0
C574 C 0.91566 0.54975 0.93698 0.0
N575 N 0.89448 0.53379 0.90967 0.0
C576 C 0.9129 0.55371 0.88279 0.0
C577 C 0.92127 0.55785 0.90982 0.0
H578 H 0.89789 0.53118 0.95694 0.0
H579 H 0.89318 0.53803 0.86224 0.0
C580 C 0.85172 0.46934 0.84253 0.0
N581 N 0.86157 0.48333 0.84589 0.0
C582 C 0.85171 0.46196 0.816 0.0
C583 C 0.87176 0.48363 0.79657 0.0
C584 C 0.8714 0.49057 0.82351 0.0
C585 C 0.86184 0.46911 0.79257 0.0
H586 H 0.84384 0.46391 0.86035 0.0
H587 H 0.87894 0.50177 0.82662 0.0
O588 O 0.86384 0.51344 0.94444 0.0
O589 O 0.84411 0.48516 0.90653 0.0
O590 O 0.86529 0.51279 0.87196 0.0
O591 O 0.87767 0.49873 0.91241 0.0
H592 H 0.83832 0.50234 0.97029 0.0
H593 H 0.87762 0.54126 0.95369 0.0
H594 H 0.82933 0.51613 0.99875 0.0
H595 H 0.86793 0.5544 0.98234 0.0
H596 H 0.83055 0.44116 0.94501 0.0
H597 H 0.82124 0.48116 0.93757 0.0
H598 H 0.84691 0.46244 0.91429 0.0
H599 H 0.8053 0.45952 0.96771 0.0
H600 H 0.83425 0.54042 0.89347 0.0
H601 H 0.80447 0.49664 0.86965 0.0
H602 H 0.87573 0.46789 0.00663 0.0
H603 H 0.83849 0.46923 0.03729 0.0
H604 H 0.84457 0.49521 0.8345 0.0
H605 H 0.87108 0.53914 0.86051 0.0
H606 H 0.83255 0.5026 0.79592 0.0
H607 H 0.8586 0.54575 0.82142 0.0
H608 H 0.90113 0.51531 0.8805 0.0
H609 H 0.87194 0.47203 0.90721 0.0
H610 H 0.91477 0.50677 0.85002 0.0
H611 H 0.88606 0.46424 0.87614 0.0
H612 H 0.92184 0.5524 0.95817 0.0
H613 H 0.91677 0.55969 0.86142 0.0
H614 H 0.84393 0.45076 0.81402 0.0
H615 H 0.87959 0.48962 0.77889 0.0
Li616 Li 0.34255 0.85063 0.06898 0.0
Li617 Li 0.36345 0.85895 0.09872 0.0
Li618 Li 0.35764 0.87617 0.07234 0.0
Li619 Li 0.36537 0.86107 0.04368 0.0
C620 C 0.33491 0.85816 0.12167 0.0
N621 N 0.30925 0.84896 0.15162 0.0
C622 C 0.32761 0.84451 0.1345 0.0
C623 C 0.32922 0.86717 0.12426 0.0
C624 C 0.31463 0.84004 0.14946 0.0
C625 C 0.31622 0.86232 0.13946 0.0
C626 C 0.35847 0.83397 0.08397 0.0
C627 C 0.37478 0.8266 0.1025 0.0
N628 N 0.36396 0.81573 0.11832 0.0
C629 C 0.34751 0.82271 0.10042 0.0
C630 C 0.37221 0.83591 0.08495 0.0
C631 C 0.35051 0.8136 0.11762 0.0
C632 C 0.32049 0.82387 0.05073 0.0
N633 N 0.32312 0.8366 0.06231 0.0
C634 C 0.29882 0.83027 0.05515 0.0
C635 C 0.31263 0.83995 0.06469 0.0
C636 C 0.29585 0.81711 0.04272 0.0
C637 C 0.30685 0.81388 0.04094 0.0
H638 H 0.32914 0.82175 0.04766 0.0
H639 H 0.3151 0.85038 0.07255 0.0
C640 C 0.3864 0.86503 0.13841 0.0
N641 N 0.37208 0.85671 0.13526 0.0
C642 C 0.39332 0.86353 0.16416 0.0
C643 C 0.37059 0.84505 0.18333 0.0
C644 C 0.3641 0.84697 0.15725 0.0
C645 C 0.38541 0.85336 0.18699 0.0
H646 H 0.39247 0.87288 0.12093 0.0
H647 H 0.35274 0.84054 0.15436 0.0
C648 C 0.33938 0.85891 0.01264 0.0
N649 N 0.31765 0.8458 0.96983 0.0
C650 C 0.33867 0.8482 0.99338 0.0
C651 C 0.32908 0.863 0.01004 0.0
C652 C 0.32759 0.8417 0.9719 0.0
C653 C 0.31817 0.85623 0.98826 0.0
C654 C 0.38873 0.88451 0.05908 0.0
C655 C 0.39166 0.89741 0.04558 0.0
C656 C 0.39851 0.87977 0.05588 0.0
C657 C 0.40426 0.90528 0.02883 0.0
C658 C 0.41097 0.88793 0.03889 0.0
N659 N 0.41356 0.90041 0.02582 0.0
C660 C 0.36335 0.90174 0.10052 0.0
C661 C 0.35572 0.89919 0.04815 0.0
C662 C 0.36526 0.91543 0.10172 0.0
N663 N 0.35877 0.89403 0.07394 0.0
C664 C 0.35741 0.9128 0.04834 0.0
C665 C 0.36245 0.92121 0.07524 0.0
H666 H 0.36582 0.89734 0.12054 0.0
H667 H 0.35234 0.89288 0.02719 0.0
C668 C 0.37824 0.85041 0.00229 0.0
N669 N 0.37524 0.86099 0.00733 0.0
C670 C 0.38557 0.85049 0.9756 0.0
C671 C 0.38626 0.87218 0.95948 0.0
C672 C 0.37891 0.87166 0.98646 0.0
C673 C 0.38973 0.86152 0.95382 0.0
H674 H 0.37484 0.84184 0.01882 0.0
H675 H 0.37617 0.87981 0.99091 0.0
O676 O 0.34766 0.86279 0.107 0.0
O677 O 0.3558 0.84314 0.06735 0.0
O678 O 0.34988 0.86506 0.03453 0.0
O679 O 0.3763 0.8765 0.07506 0.0
H680 H 0.33176 0.83734 0.13239 0.0
H681 H 0.33473 0.87777 0.1145 0.0
H682 H 0.3088 0.82947 0.15927 0.0
H683 H 0.31166 0.86916 0.14155 0.0
H684 H 0.38538 0.82805 0.10363 0.0
H685 H 0.33685 0.82111 0.10033 0.0
H686 H 0.38086 0.84465 0.07274 0.0
H687 H 0.34214 0.80489 0.13057 0.0
H688 H 0.29064 0.83318 0.05683 0.0
H689 H 0.3051 0.80401 0.03076 0.0
H690 H 0.40472 0.8704 0.16633 0.0
H691 H 0.36408 0.837 0.2002 0.0
H692 H 0.34643 0.84477 0.99535 0.0
H693 H 0.32933 0.8711 0.0251 0.0
H694 H 0.32684 0.83333 0.957 0.0
H695 H 0.31006 0.8592 0.98617 0.0
H696 H 0.38425 0.90128 0.04778 0.0
H697 H 0.39642 0.86979 0.06602 0.0
H698 H 0.40662 0.91525 0.01814 0.0
H699 H 0.41857 0.88432 0.03602 0.0
H700 H 0.36942 0.92161 0.12276 0.0
H701 H 0.35502 0.91678 0.02749 0.0
H702 H 0.38777 0.84191 0.97184 0.0
H703 H 0.38934 0.88092 0.94343 0.0
Li704 Li 0.48759 0.34432 0.23118 0.0
Li705 Li 0.50136 0.36482 0.26495 0.0
Li706 Li 0.47973 0.36127 0.23647 0.0
Li707 Li 0.50203 0.3689 0.20843 0.0
C708 C 0.47476 0.337 0.28618 0.0
N709 N 0.46198 0.31161 0.31848 0.0
C710 C 0.4819 0.33491 0.31081 0.0
C711 C 0.46107 0.32626 0.2782 0.0
C712 C 0.47526 0.32198 0.32682 0.0
C713 C 0.45481 0.31347 0.29473 0.0
C714 C 0.52181 0.35917 0.23678 0.0
C715 C 0.54736 0.37411 0.23762 0.0
N716 N 0.54858 0.36281 0.24709 0.0
C717 C 0.52334 0.34766 0.24613 0.0
C718 C 0.53393 0.37246 0.23215 0.0
C719 C 0.53695 0.34974 0.25138 0.0
C720 C 0.4747 0.3194 0.19619 0.0
N721 N 0.4815 0.32486 0.22352 0.0
C722 C 0.48015 0.3028 0.23643 0.0
C723 C 0.48422 0.31688 0.24369 0.0
C724 C 0.47329 0.29697 0.20809 0.0
C725 C 0.47038 0.30541 0.18808 0.0
H726 H 0.47285 0.32598 0.18029 0.0
H727 H 0.4898 0.3215 0.2651 0.0
C728 C 0.50999 0.38195 0.31743 0.0
N729 N 0.51191 0.37204 0.30232 0.0
C730 C 0.51796 0.38869 0.34381 0.0
C731 C 0.52934 0.37448 0.3395 0.0
C732 C 0.52113 0.368 0.31316 0.0
C733 C 0.52796 0.38514 0.3549 0.0
H734 H 0.50241 0.38478 0.3086 0.0
H735 H 0.52222 0.35985 0.30132 0.0
C736 C 0.47153 0.35143 0.17897 0.0
N737 N 0.4489 0.34771 0.14277 0.0
C738 C 0.47389 0.36004 0.15299 0.0
C739 C 0.45769 0.34078 0.18626 0.0
C740 C 0.4623 0.35802 0.13503 0.0
C741 C 0.44638 0.33912 0.16777 0.0
C742 C 0.50695 0.39342 0.24141 0.0
C743 C 0.50154 0.40227 0.23322 0.0
C744 C 0.52129 0.39945 0.2495 0.0
C745 C 0.51066 0.417 0.23259 0.0
C746 C 0.53006 0.41422 0.24865 0.0
N747 N 0.52461 0.42262 0.24023 0.0
C748 C 0.45326 0.35683 0.25913 0.0
C749 C 0.46272 0.37213 0.21555 0.0
C750 C 0.4411 0.35815 0.25859 0.0
N751 N 0.46368 0.36372 0.23764 0.0
C752 C 0.45068 0.37354 0.21381 0.0
C753 C 0.43969 0.36646 0.23545 0.0
H754 H 0.45436 0.35026 0.27651 0.0
H755 H 0.47125 0.37757 0.19898 0.0
C756 C 0.52199 0.37571 0.16023 0.0
N757 N 0.51328 0.37966 0.17424 0.0
C758 C 0.53005 0.38317 0.13443 0.0
C759 C 0.51974 0.39839 0.13752 0.0
C760 C 0.51196 0.3907 0.16336 0.0
C761 C 0.52893 0.39464 0.1227 0.0
H762 H 0.52255 0.36664 0.16887 0.0
H763 H 0.50462 0.39333 0.17433 0.0
O764 O 0.48111 0.34956 0.27015 0.0
O765 O 0.50853 0.35729 0.23152 0.0
O766 O 0.48273 0.3534 0.19714 0.0
O767 O 0.49815 0.37897 0.24211 0.0
H768 H 0.49247 0.34313 0.31738 0.0
H769 H 0.45536 0.32774 0.25935 0.0
H770 H 0.48068 0.32018 0.34583 0.0
H771 H 0.44426 0.30503 0.28868 0.0
H772 H 0.55682 0.38436 0.23419 0.0
H773 H 0.51412 0.33727 0.2495 0.0
H774 H 0.53302 0.38138 0.22401 0.0
H775 H 0.53827 0.34095 0.25884 0.0
H776 H 0.48279 0.29674 0.25233 0.0
H777 H 0.46499 0.3013 0.16616 0.0
H778 H 0.51633 0.39663 0.35534 0.0
H779 H 0.53693 0.37142 0.34723 0.0
H780 H 0.48453 0.36823 0.14681 0.0
H781 H 0.45569 0.33398 0.20618 0.0
H782 H 0.46396 0.36467 0.11497 0.0
H783 H 0.4356 0.33101 0.17332 0.0
H784 H 0.49044 0.39782 0.22727 0.0
H785 H 0.52558 0.39284 0.25678 0.0
H786 H 0.50663 0.42396 0.22608 0.0
H787 H 0.54118 0.41902 0.25482 0.0
H788 H 0.43282 0.35261 0.27573 0.0
H789 H 0.45005 0.38025 0.19599 0.0
H790 H 0.53682 0.37978 0.12333 0.0
H791 H 0.51859 0.40719 0.12924 0.0
Li792 Li 0.13414 0.50393 0.4277 0.0
Li793 Li 0.14244 0.49075 0.39653 0.0
Li794 Li 0.13332 0.50475 0.37328 0.0
Li795 Li 0.11728 0.48268 0.40049 0.0
C796 C 0.1597 0.5238 0.38361 0.0
N797 N 0.17737 0.54809 0.35019 0.0
C798 C 0.17099 0.52459 0.36639 0.0
C799 C 0.15758 0.53549 0.38428 0.0
C800 C 0.17976 0.53693 0.34955 0.0
C801 C 0.16657 0.54763 0.3671 0.0
C802 C 0.13738 0.48335 0.45975 0.0
C803 C 0.13888 0.47104 0.50493 0.0
N804 N 0.15207 0.48219 0.51104 0.0
C805 C 0.15096 0.4947 0.46649 0.0
C806 C 0.13128 0.47144 0.47915 0.0
C807 C 0.15821 0.49391 0.49252 0.0
C808 C 0.12722 0.50849 0.4881 0.0
N809 N 0.13703 0.51436 0.46507 0.0
C810 C 0.15044 0.53561 0.49456 0.0
C811 C 0.14865 0.52751 0.46804 0.0
C812 C 0.14015 0.53011 0.51823 0.0
C813 C 0.1285 0.51626 0.5149 0.0
H814 H 0.11821 0.49789 0.4853 0.0
H815 H 0.1565 0.53176 0.44978 0.0
C816 C 0.16083 0.48674 0.35996 0.0
N817 N 0.15557 0.48431 0.38932 0.0
C818 C 0.17064 0.4827 0.35113 0.0
C819 C 0.16911 0.47322 0.40265 0.0
C820 C 0.15922 0.47736 0.41041 0.0
C821 C 0.17511 0.47608 0.37278 0.0
H822 H 0.15741 0.49191 0.34339 0.0
H823 H 0.15457 0.47502 0.43325 0.0
C824 C 0.11085 0.50572 0.42119 0.0
N825 N 0.09733 0.51499 0.46145 0.0
C826 C 0.09854 0.49589 0.4369 0.0
C827 C 0.11617 0.52028 0.4257 0.0
C828 C 0.09188 0.50078 0.45719 0.0
C829 C 0.10922 0.52475 0.44625 0.0
C830 C 0.12543 0.47216 0.35097 0.0
C831 C 0.12419 0.46974 0.31898 0.0
C832 C 0.12347 0.46124 0.37118 0.0
C833 C 0.12098 0.45639 0.30769 0.0
C834 C 0.12028 0.44805 0.35897 0.0
N835 N 0.11911 0.44591 0.32774 0.0
C836 C 0.14222 0.51528 0.31283 0.0
C837 C 0.12853 0.52385 0.33795 0.0
C838 C 0.14359 0.52334 0.28646 0.0
N839 N 0.13482 0.51573 0.33783 0.0
C840 C 0.12968 0.53212 0.31217 0.0
C841 C 0.13725 0.53191 0.28589 0.0
H842 H 0.14705 0.50864 0.31345 0.0
H843 H 0.12267 0.52395 0.35812 0.0
C844 C 0.09359 0.45797 0.42492 0.0
N845 N 0.09907 0.46642 0.39954 0.0
C846 C 0.07986 0.44622 0.42398 0.0
C847 C 0.07799 0.4519 0.3705 0.0
C848 C 0.09168 0.46357 0.37257 0.0
C849 C 0.07181 0.44318 0.39659 0.0
H850 H 0.09976 0.46058 0.44606 0.0
H851 H 0.09641 0.47049 0.35275 0.0
O852 O 0.15078 0.51167 0.39974 0.0
O853 O 0.1299 0.48392 0.43473 0.0
O854 O 0.11762 0.50111 0.40152 0.0
O855 O 0.12863 0.48522 0.36226 0.0
H856 H 0.17302 0.51581 0.36611 0.0
H857 H 0.14894 0.53511 0.39754 0.0
H858 H 0.18849 0.53764 0.33601 0.0
H859 H 0.16493 0.55668 0.36714 0.0
H860 H 0.13429 0.46188 0.52011 0.0
H861 H 0.15593 0.504 0.45179 0.0
H862 H 0.12078 0.46257 0.47431 0.0
H863 H 0.16872 0.5026 0.49798 0.0
H864 H 0.15978 0.54608 0.49645 0.0
H865 H 0.12025 0.5116 0.53238 0.0
H866 H 0.17471 0.4848 0.32762 0.0
H867 H 0.17226 0.46814 0.42007 0.0
H868 H 0.0942 0.48459 0.43366 0.0
H869 H 0.12566 0.52807 0.41383 0.0
H870 H 0.0824 0.49328 0.4696 0.0
H871 H 0.11331 0.53599 0.45017 0.0
H872 H 0.1257 0.47811 0.30306 0.0
H873 H 0.12442 0.46291 0.396 0.0
H874 H 0.11999 0.45437 0.28297 0.0
H875 H 0.11874 0.4395 0.37432 0.0
H876 H 0.14935 0.52269 0.2666 0.0
H877 H 0.12479 0.53871 0.31295 0.0
H878 H 0.07544 0.4399 0.44476 0.0
H879 H 0.07224 0.44982 0.34881 0.0
Li880 Li 0.63034 0.13385 0.59867 0.0
Li881 Li 0.65073 0.14229 0.56557 0.0
Li882 Li 0.62644 0.13063 0.54435 0.0
Li883 Li 0.63488 0.11653 0.57147 0.0
C884 C 0.63539 0.15978 0.57852 0.0
N885 N 0.63247 0.18165 0.60349 0.0
C886 C 0.64741 0.17305 0.58416 0.0
C887 C 0.62188 0.15773 0.5851 0.0
C888 C 0.64572 0.18394 0.59692 0.0
C889 C 0.62062 0.16889 0.59785 0.0
C890 C 0.65447 0.13768 0.62974 0.0
C891 C 0.66316 0.13733 0.68109 0.0
N892 N 0.66945 0.15175 0.68241 0.0
C893 C 0.66104 0.15248 0.63163 0.0
C894 C 0.65554 0.13002 0.65467 0.0
C895 C 0.66855 0.15941 0.65843 0.0
C896 C 0.6105 0.12523 0.64628 0.0
N897 N 0.62283 0.13662 0.63642 0.0
C898 C 0.62228 0.1507 0.67854 0.0
C899 C 0.62895 0.14914 0.65232 0.0
C900 C 0.60925 0.13923 0.68857 0.0
C901 C 0.60351 0.12629 0.67237 0.0
H902 H 0.60598 0.11531 0.63364 0.0
H903 H 0.63881 0.15805 0.64425 0.0
C904 C 0.67084 0.16431 0.5307 0.0
N905 N 0.66956 0.15587 0.55514 0.0
C906 C 0.68418 0.17349 0.51821 0.0
C907 C 0.69469 0.16528 0.55669 0.0
C908 C 0.68109 0.15615 0.56833 0.0
C909 C 0.69629 0.17392 0.53102 0.0
H910 H 0.66141 0.1636 0.52044 0.0
H911 H 0.67967 0.14897 0.58717 0.0
C912 C 0.60329 0.10871 0.56467 0.0
N913 N 0.57666 0.09427 0.53761 0.0
C914 C 0.59929 0.09635 0.54749 0.0
C915 C 0.59367 0.11362 0.56843 0.0
C916 C 0.58579 0.08923 0.53391 0.0
C917 C 0.58028 0.1062 0.55447 0.0
C918 C 0.65259 0.12589 0.51848 0.0
C919 C 0.65406 0.127 0.48623 0.0
C920 C 0.66203 0.12354 0.53616 0.0
C921 C 0.66496 0.1257 0.47214 0.0
C922 C 0.67278 0.1223 0.52121 0.0
N923 N 0.67401 0.1234 0.48978 0.0
C924 C 0.61183 0.14043 0.5062 0.0
C925 C 0.612 0.11989 0.48807 0.0
C926 C 0.60417 0.14039 0.48017 0.0
N927 N 0.61552 0.13026 0.50966 0.0
C928 C 0.60427 0.1194 0.46175 0.0
C929 C 0.60031 0.12979 0.45745 0.0
H930 H 0.61501 0.14871 0.52337 0.0
H931 H 0.61525 0.11204 0.4913 0.0
C932 C 0.63459 0.09312 0.60032 0.0
N933 N 0.63391 0.09867 0.57255 0.0
C934 C 0.63359 0.07981 0.60166 0.0
C935 C 0.6313 0.07825 0.54574 0.0
C936 C 0.63235 0.09159 0.54551 0.0
C937 C 0.6318 0.07215 0.57412 0.0
H938 H 0.6357 0.09896 0.62142 0.0
H939 H 0.63165 0.09619 0.52379 0.0
O940 O 0.63687 0.149 0.56597 0.0
O941 O 0.64701 0.13067 0.60371 0.0
O942 O 0.61658 0.11603 0.57752 0.0
O943 O 0.64212 0.12737 0.5326 0.0
H944 H 0.65795 0.17493 0.57869 0.0
H945 H 0.61246 0.14759 0.58071 0.0
H946 H 0.65493 0.19424 0.60155 0.0
H947 H 0.61023 0.1674 0.60331 0.0
H948 H 0.66407 0.13153 0.70054 0.0
H949 H 0.6603 0.15856 0.61266 0.0
H950 H 0.65055 0.11856 0.65368 0.0
H951 H 0.67366 0.17087 0.66016 0.0
H952 H 0.62706 0.16089 0.69026 0.0
H953 H 0.59367 0.11707 0.67971 0.0
H954 H 0.68502 0.18013 0.49864 0.0
H955 H 0.70379 0.16526 0.56698 0.0
H956 H 0.60657 0.09238 0.54439 0.0
H957 H 0.59652 0.12307 0.58193 0.0
H958 H 0.5826 0.07971 0.52036 0.0
H959 H 0.57277 0.10993 0.55704 0.0
H960 H 0.64687 0.12888 0.47226 0.0
H961 H 0.66111 0.12276 0.56118 0.0
H962 H 0.66622 0.12653 0.44719 0.0
H963 H 0.68017 0.1205 0.5346 0.0
H964 H 0.60159 0.14878 0.47755 0.0
H965 H 0.60141 0.11094 0.44502 0.0
H966 H 0.63409 0.07551 0.624 0.0
H967 H 0.62964 0.0726 0.52404 0.0
Li968 Li 0.50451 0.65254 0.73661 0.0
Li969 Li 0.4918 0.6312 0.76516 0.0
Li970 Li 0.51467 0.63716 0.73744 0.0
Li971 Li 0.49175 0.63004 0.70985 0.0
C972 C 0.51959 0.65879 0.79011 0.0
N973 N 0.53592 0.68323 0.82419 0.0
C974 C 0.51328 0.66589 0.80408 0.0
C975 C 0.53419 0.66406 0.79362 0.0
C976 C 0.52172 0.67825 0.82115 0.0
C977 C 0.54227 0.67644 0.81092 0.0
C978 C 0.47192 0.63687 0.7518 0.0
C979 C 0.4482 0.62066 0.77026 0.0
N980 N 0.44821 0.6315 0.78609 0.0
C981 C 0.47168 0.64786 0.76824 0.0
C982 C 0.46007 0.62316 0.75274 0.0
C983 C 0.45959 0.64493 0.78541 0.0
C984 C 0.5004 0.67513 0.72001 0.0
N985 N 0.51017 0.67213 0.73206 0.0
C986 C 0.52826 0.6966 0.72911 0.0
C987 C 0.5239 0.68251 0.7366 0.0
C988 C 0.51843 0.69999 0.71628 0.0
C989 C 0.50429 0.68905 0.71202 0.0
H990 H 0.48972 0.6666 0.71527 0.0
H991 H 0.53166 0.6798 0.74472 0.0
C992 C 0.47586 0.60802 0.80506 0.0
N993 N 0.48111 0.62223 0.80168 0.0
C994 C 0.46766 0.60088 0.83093 0.0
C995 C 0.47054 0.62316 0.84963 0.0
C996 C 0.47879 0.62988 0.82352 0.0
C997 C 0.4648 0.60844 0.85358 0.0
H998 H 0.47808 0.60221 0.7877 0.0
H999 H 0.48316 0.64118 0.8205 0.0
C1000 C 0.5154 0.65647 0.67985 0.0
N1001 N 0.52359 0.67897 0.63926 0.0
C1002 C 0.50533 0.65709 0.66066 0.0
C1003 C 0.52964 0.66728 0.67832 0.0
C1004 C 0.50969 0.66855 0.6403 0.0
C1005 C 0.53356 0.67857 0.65767 0.0
C1006 C 0.49147 0.60624 0.72344 0.0
C1007 C 0.50113 0.60334 0.70829 0.0
C1008 C 0.47688 0.59651 0.72143 0.0
C1009 C 0.49602 0.59081 0.6911 0.0
C1010 C 0.4722 0.58411 0.70396 0.0
N1011 N 0.48179 0.58154 0.68927 0.0
C1012 C 0.53383 0.62939 0.76162 0.0
C1013 C 0.53981 0.64024 0.71195 0.0
C1014 C 0.54535 0.62704 0.76065 0.0
N1015 N 0.53124 0.63573 0.73731 0.0
C1016 C 0.55153 0.63825 0.71014 0.0
C1017 C 0.55427 0.63131 0.73442 0.0
H1018 H 0.52667 0.62577 0.7813 0.0
H1019 H 0.53731 0.64499 0.69273 0.0
C1020 C 0.46784 0.61746 0.66928 0.0
N1021 N 0.48147 0.62046 0.67358 0.0
C1022 C 0.46034 0.61012 0.64283 0.0
C1023 C 0.48115 0.60936 0.62549 0.0
C1024 C 0.48827 0.61679 0.65216 0.0
C1025 C 0.46697 0.60587 0.62065 0.0
H1026 H 0.4628 0.62076 0.68635 0.0
H1027 H 0.49922 0.61959 0.65594 0.0
O1028 O 0.51155 0.64664 0.77336 0.0
O1029 O 0.48372 0.63948 0.73509 0.0
O1030 O 0.51124 0.64558 0.70067 0.0
O1031 O 0.49624 0.61861 0.73984 0.0
H1032 H 0.50205 0.66208 0.80123 0.0
H1033 H 0.53924 0.65867 0.783 0.0
H1034 H 0.517 0.68392 0.83188 0.0
H1035 H 0.55359 0.68067 0.81377 0.0
H1036 H 0.43901 0.61008 0.77135 0.0
H1037 H 0.48079 0.65849 0.76815 0.0
H1038 H 0.46011 0.61449 0.74047 0.0
H1039 H 0.45929 0.65332 0.79835 0.0
H1040 H 0.53926 0.7047 0.73275 0.0
H1041 H 0.49645 0.69111 0.70141 0.0
H1042 H 0.46374 0.58958 0.8333 0.0
H1043 H 0.46852 0.62942 0.86629 0.0
H1044 H 0.49424 0.64895 0.66183 0.0
H1045 H 0.53753 0.66713 0.69341 0.0
H1046 H 0.50199 0.66921 0.62546 0.0
H1047 H 0.54452 0.68706 0.65644 0.0
H1048 H 0.51244 0.61074 0.7095 0.0
H1049 H 0.46925 0.59858 0.73293 0.0
H1050 H 0.50338 0.58847 0.67912 0.0
H1051 H 0.46095 0.57655 0.70201 0.0
H1052 H 0.54686 0.62141 0.77967 0.0
H1053 H 0.55818 0.64186 0.68963 0.0
H1054 H 0.4494 0.6076 0.64 0.0
H1055 H 0.48673 0.60651 0.6087 0.0
H1056 H 0.52584 0.14165 0.23856 0.0
H1057 H 0.53858 0.14176 0.28558 0.0
H1058 H 0.56002 0.12391 0.23404 0.0
H1059 H 0.54749 0.12396 0.1868 0.0
H1060 H 0.53796 0.11686 0.31273 0.0
H1061 H 0.59237 0.15931 0.27956 0.0
H1062 H 0.57654 0.15724 0.26089 0.0
H1063 H 0.58314 0.14548 0.25131 0.0
C1064 C 0.53342 0.13793 0.23716 0.0
C1065 C 0.53571 0.13283 0.20899 0.0
C1066 C 0.54061 0.13792 0.26403 0.0
C1067 C 0.55031 0.13297 0.26311 0.0
C1068 C 0.55269 0.12793 0.23506 0.0
H1069 H 0.60432 0.12386 0.39775 0.0
H1070 H 0.5916 0.12409 0.35116 0.0
C1071 C 0.54544 0.12786 0.20821 0.0
C1072 C 0.55759 0.1326 0.29176 0.0
H1073 H 0.59027 0.14655 0.32568 0.0
C1074 C 0.54939 0.12338 0.3157 0.0
C1075 C 0.57248 0.14109 0.29533 0.0
C1076 C 0.58169 0.15144 0.27056 0.0
C1077 C 0.55574 0.12222 0.34305 0.0
C1078 C 0.57065 0.13076 0.34673 0.0
C1079 C 0.57884 0.14001 0.32276 0.0
C1080 C 0.578 0.13024 0.37522 0.0
C1081 C 0.54648 0.1116 0.36737 0.0
C1082 C 0.57461 0.1337 0.40416 0.0
C1083 C 0.58173 0.13339 0.43091 0.0
C1084 C 0.59249 0.12978 0.42916 0.0
C1085 C 0.59592 0.12643 0.40004 0.0
C1086 C 0.58875 0.12668 0.37334 0.0
H1087 H 0.53619 0.10327 0.35749 0.0
H1088 H 0.55195 0.10633 0.37815 0.0
H1089 H 0.5441 0.11721 0.38588 0.0
H1090 H 0.56655 0.13676 0.40604 0.0
H1091 H 0.57874 0.13592 0.45297 0.0
H1092 H 0.38819 0.51696 0.41052 0.0
H1093 H 0.4013 0.53066 0.45609 0.0
H1094 H 0.42371 0.56827 0.39948 0.0
H1095 H 0.41106 0.55454 0.35354 0.0
H1096 H 0.44141 0.56449 0.43902 0.0
H1097 H 0.39468 0.55956 0.50259 0.0
H1098 H 0.39286 0.54279 0.49141 0.0
H1099 H 0.39398 0.55508 0.46204 0.0
C1100 C 0.39599 0.52812 0.40769 0.0
C1101 C 0.39853 0.53467 0.37839 0.0
C1102 C 0.40335 0.53597 0.43384 0.0
C1103 C 0.41328 0.55053 0.43124 0.0
C1104 C 0.41598 0.55707 0.40201 0.0
H1105 H 0.44953 0.61082 0.58326 0.0
H1106 H 0.43676 0.5976 0.53683 0.0
C1107 C 0.40867 0.54922 0.37583 0.0
C1108 C 0.42107 0.55892 0.45888 0.0
H1109 H 0.41644 0.56933 0.53063 0.0
C1110 C 0.43597 0.5656 0.45902 0.0
C1111 C 0.41393 0.5605 0.48472 0.0
C1112 C 0.39799 0.55422 0.48518 0.0
C1113 C 0.44395 0.57364 0.48458 0.0
C1114 C 0.43678 0.57478 0.51089 0.0
C1115 C 0.42189 0.56831 0.51053 0.0
C1116 C 0.44454 0.58274 0.53897 0.0
C1117 C 0.45998 0.58102 0.48295 0.0
C1118 C 0.45299 0.57864 0.55575 0.0
C1119 C 0.46029 0.58617 0.58223 0.0
C1120 C 0.45916 0.59785 0.59259 0.0
C1121 C 0.45052 0.6018 0.57599 0.0
C1122 C 0.44327 0.5943 0.54942 0.0
H1123 H 0.4638 0.58233 0.4586 0.0
H1124 H 0.4649 0.59167 0.49409 0.0
H1125 H 0.46369 0.57453 0.49541 0.0
H1126 H 0.45383 0.56953 0.54852 0.0
H1127 H 0.46666 0.58272 0.59487 0.0
H1128 H 0.88502 0.47174 0.76129 0.0
H1129 H 0.88521 0.45935 0.71404 0.0
H1130 H 0.83932 0.43636 0.713 0.0
H1131 H 0.83901 0.44913 0.75941 0.0
H1132 H 0.874 0.43069 0.70476 0.0
H1133 H 0.84878 0.45178 0.62509 0.0
H1134 H 0.85557 0.45947 0.66275 0.0
H1135 H 0.83848 0.44358 0.65932 0.0
C1136 C 0.87496 0.46422 0.75073 0.0
C1137 C 0.862 0.46149 0.76405 0.0
C1138 C 0.8751 0.45708 0.72387 0.0
C1139 C 0.86229 0.44711 0.70976 0.0
C1140 C 0.84933 0.44423 0.72316 0.0
H1141 H 0.84024 0.38875 0.55517 0.0
H1142 H 0.84024 0.40185 0.60152 0.0
C1143 C 0.84918 0.45141 0.74994 0.0
C1144 C 0.86249 0.43942 0.68156 0.0
H1145 H 0.85143 0.43263 0.60612 0.0
C1146 C 0.86915 0.43118 0.68313 0.0
C1147 C 0.85614 0.44009 0.65339 0.0
C1148 C 0.84946 0.44931 0.64985 0.0
C1149 C 0.86941 0.42338 0.65742 0.0
C1150 C 0.86295 0.42397 0.6294 0.0
C1151 C 0.85632 0.4322 0.62776 0.0
C1152 C 0.86302 0.41611 0.60147 0.0
C1153 C 0.87634 0.41437 0.66052 0.0
C1154 C 0.87582 0.41993 0.58604 0.0
C1155 C 0.87586 0.41249 0.55962 0.0
C1156 C 0.86308 0.40109 0.54823 0.0
C1157 C 0.85026 0.39737 0.56366 0.0
C1158 C 0.85023 0.40487 0.58998 0.0
H1159 H 0.8782 0.41277 0.68518 0.0
H1160 H 0.86968 0.4038 0.64952 0.0
H1161 H 0.88678 0.41971 0.64847 0.0
H1162 H 0.88577 0.42869 0.59442 0.0
H1163 H 0.8859 0.41553 0.54836 0.0
H1164 H 0.45086 0.84045 0.72095 0.0
H1165 H 0.43723 0.84048 0.76616 0.0
H1166 H 0.45026 0.8845 0.7491 0.0
H1167 H 0.46385 0.88454 0.70374 0.0
H1168 H 0.45361 0.87884 0.81061 0.0
H1169 H 0.39952 0.84064 0.76714 0.0
H1170 H 0.41182 0.83414 0.7654 0.0
H1171 H 0.41486 0.84911 0.74198 0.0
C1172 C 0.45066 0.85008 0.72657 0.0
C1173 C 0.4584 0.86249 0.70873 0.0
C1174 C 0.44288 0.85008 0.75239 0.0
C1175 C 0.44259 0.86244 0.76069 0.0
C1176 C 0.45032 0.87484 0.743 0.0
H1177 H 0.38583 0.86819 0.89472 0.0
H1178 H 0.399 0.86898 0.84793 0.0
C1179 C 0.45813 0.87486 0.71721 0.0
C1180 C 0.43462 0.86257 0.78843 0.0
H1181 H 0.40144 0.84692 0.82056 0.0
C1182 C 0.44219 0.87191 0.81277 0.0
C1183 C 0.41972 0.85364 0.79095 0.0
C1184 C 0.41096 0.8439 0.76488 0.0
C1185 C 0.43528 0.87236 0.8399 0.0
C1186 C 0.42045 0.86306 0.84288 0.0
C1187 C 0.41284 0.85393 0.81828 0.0
C1188 C 0.41263 0.86269 0.87131 0.0
C1189 C 0.44388 0.88289 0.86497 0.0
C1190 C 0.41586 0.85875 0.89985 0.0
C1191 C 0.40844 0.85838 0.92664 0.0
C1192 C 0.39758 0.86186 0.92533 0.0
C1193 C 0.39428 0.86566 0.89659 0.0
C1194 C 0.40172 0.86603 0.86981 0.0
H1195 H 0.45414 0.89161 0.85591 0.0
H1196 H 0.43785 0.88763 0.87547 0.0
H1197 H 0.44628 0.87733 0.88356 0.0
H1198 H 0.4241 0.85591 0.90137 0.0
H1199 H 0.41131 0.85551 0.94844 0.0
H1200 H 0.55679 0.4037 0.10902 0.0
H1201 H 0.57004 0.41647 0.06257 0.0
H1202 H 0.53254 0.41564 0.02661 0.0
H1203 H 0.51927 0.40298 0.073 0.0
H1204 H 0.56493 0.40824 0.00143 0.0
H1205 H 0.56226 0.45747 0.01931 0.0
H1206 H 0.55783 0.44437 0.04947 0.0
H1207 H 0.54513 0.44161 0.01957 0.0
C1208 C 0.55138 0.40624 0.09118 0.0
C1209 C 0.53703 0.40244 0.09473 0.0
C1210 C 0.55897 0.41356 0.06474 0.0
C1211 C 0.55234 0.41722 0.04143 0.0
C1212 C 0.53796 0.41326 0.0447 0.0
H1213 H 0.57598 0.45537 0.85934 0.0
H1214 H 0.56358 0.44284 0.90665 0.0
C1215 C 0.53039 0.40602 0.07119 0.0
C1216 C 0.56034 0.42482 0.01325 0.0
H1217 H 0.57043 0.45471 0.96987 0.0
C1218 C 0.56623 0.41845 0.99464 0.0
C1219 C 0.56203 0.43815 0.0045 0.0
C1220 C 0.5566 0.44588 0.0244 0.0
C1221 C 0.57349 0.42491 0.96708 0.0
C1222 C 0.57496 0.4381 0.95815 0.0
C1223 C 0.56918 0.44453 0.97681 0.0
C1224 C 0.5825 0.44544 0.92944 0.0
C1225 C 0.57928 0.41746 0.94736 0.0
C1226 C 0.59723 0.45111 0.92681 0.0
C1227 C 0.60438 0.45841 0.89998 0.0
C1228 C 0.5969 0.46016 0.87529 0.0
C1229 C 0.5821 0.45439 0.87805 0.0
C1230 C 0.57498 0.44715 0.90496 0.0
H1231 H 0.57489 0.40617 0.95433 0.0
H1232 H 0.57681 0.41783 0.92248 0.0
H1233 H 0.59103 0.42299 0.94985 0.0
H1234 H 0.60323 0.45008 0.94573 0.0
H1235 H 0.61581 0.46294 0.89887 0.0
H1236 H 0.16033 0.54679 0.24776 0.0
H1237 H 0.16193 0.56077 0.20172 0.0
H1238 H 0.11844 0.55049 0.21515 0.0
H1239 H 0.11658 0.53622 0.2606 0.0
H1240 H 0.14304 0.5506 0.14685 0.0
H1241 H 0.14234 0.59505 0.2093 0.0
H1242 H 0.14701 0.58305 0.22804 0.0
H1243 H 0.12868 0.5775 0.22048 0.0
C1244 C 0.15107 0.5474 0.24078 0.0
C1245 C 0.13835 0.54044 0.25798 0.0
C1246 C 0.15203 0.55545 0.21461 0.0
C1247 C 0.14036 0.55679 0.20541 0.0
C1248 C 0.12764 0.54978 0.22229 0.0
H1249 H 0.11716 0.5962 0.06276 0.0
H1250 H 0.11925 0.584 0.10832 0.0
C1251 C 0.12663 0.54167 0.24831 0.0
C1252 C 0.14129 0.56523 0.17774 0.0
H1253 H 0.13934 0.59427 0.15461 0.0
C1254 C 0.14239 0.56024 0.14844 0.0
C1255 C 0.1404 0.57775 0.1801 0.0
C1256 C 0.13966 0.58377 0.21116 0.0
C1257 C 0.14206 0.56716 0.1212 0.0
C1258 C 0.14094 0.57958 0.12352 0.0
C1259 C 0.14018 0.58474 0.15292 0.0
C1260 C 0.13989 0.58704 0.09576 0.0
C1261 C 0.14235 0.56081 0.09023 0.0
C1262 C 0.15089 0.59293 0.07376 0.0
C1263 C 0.14965 0.59976 0.04743 0.0
C1264 C 0.13744 0.60092 0.04279 0.0
C1265 C 0.12658 0.59525 0.06527 0.0
C1266 C 0.12781 0.58838 0.09147 0.0
H1267 H 0.13972 0.54956 0.09248 0.0
H1268 H 0.13473 0.56129 0.07377 0.0
H1269 H 0.15318 0.56696 0.08014 0.0
H1270 H 0.16044 0.59226 0.07695 0.0
H1271 H 0.15817 0.60394 0.0305 0.0
H1272 H 0.46267 0.27278 0.24367 0.0
H1273 H 0.45868 0.24936 0.22768 0.0
H1274 H 0.47243 0.26519 0.1349 0.0
H1275 H 0.47666 0.28855 0.15062 0.0
H1276 H 0.44697 0.23722 0.13911 0.0
H1277 H 0.49292 0.24305 0.20864 0.0
H1278 H 0.47967 0.24538 0.22866 0.0
H1279 H 0.49059 0.25801 0.19967 0.0
C1280 C 0.46484 0.27125 0.21988 0.0
C1281 C 0.47 0.28253 0.19843 0.0
C1282 C 0.46251 0.25788 0.21079 0.0
C1283 C 0.46533 0.25564 0.18018 0.0
C1284 C 0.47011 0.26673 0.15857 0.0
H1285 H 0.48923 0.20196 0.08891 0.0
H1286 H 0.48565 0.22084 0.10995 0.0
C1287 C 0.47247 0.28006 0.16761 0.0
C1288 C 0.46418 0.24204 0.17068 0.0
H1289 H 0.48111 0.22282 0.177 0.0
C1290 C 0.45427 0.23391 0.14767 0.0
C1291 C 0.47384 0.23793 0.18179 0.0
C1292 C 0.48494 0.24654 0.20591 0.0
C1293 C 0.45402 0.22191 0.13483 0.0
C1294 C 0.46392 0.21802 0.14542 0.0
C1295 C 0.47354 0.2259 0.16907 0.0
C1296 C 0.46526 0.20648 0.13075 0.0
C1297 C 0.44365 0.21381 0.10914 0.0
C1298 C 0.45485 0.1922 0.13523 0.0
C1299 C 0.45684 0.18137 0.12311 0.0
C1300 C 0.46926 0.18471 0.10635 0.0
C1301 C 0.47946 0.19906 0.10129 0.0
C1302 C 0.47749 0.20984 0.11349 0.0
H1303 H 0.4378 0.21919 0.10113 0.0
H1304 H 0.44933 0.21253 0.08906 0.0
H1305 H 0.43579 0.20302 0.11753 0.0
H1306 H 0.4454 0.18945 0.14872 0.0
H1307 H 0.44876 0.1704 0.12719 0.0
H1308 H 0.28977 0.47041 0.32822 0.0
H1309 H 0.26712 0.46506 0.35203 0.0
H1310 H 0.24922 0.46209 0.26093 0.0
H1311 H 0.27168 0.46676 0.23723 0.0
H1312 H 0.25675 0.48169 0.3487 0.0
H1313 H 0.21598 0.42975 0.30229 0.0
H1314 H 0.23478 0.43596 0.29893 0.0
H1315 H 0.22601 0.4414 0.27113 0.0
C1316 C 0.28083 0.46827 0.31343 0.0
C1317 C 0.28232 0.469 0.28105 0.0
C1318 C 0.26793 0.46519 0.32696 0.0
C1319 C 0.25639 0.463 0.3083 0.0
C1320 C 0.25779 0.4633 0.27582 0.0
H1321 H 0.19906 0.49241 0.33894 0.0
H1322 H 0.21803 0.48749 0.32619 0.0
C1323 C 0.27064 0.46612 0.26227 0.0
C1324 C 0.24374 0.46248 0.32264 0.0
H1325 H 0.20749 0.4457 0.31889 0.0
C1326 C 0.24599 0.47362 0.34266 0.0
C1327 C 0.22966 0.45186 0.31523 0.0
C1328 C 0.22648 0.43899 0.29599 0.0
C1329 C 0.23461 0.47493 0.35392 0.0
C1330 C 0.22065 0.46507 0.34416 0.0
C1331 C 0.21826 0.4534 0.32582 0.0
C1332 C 0.20865 0.46743 0.35082 0.0
C1333 C 0.23769 0.48705 0.37565 0.0
C1334 C 0.19683 0.4575 0.3679 0.0
C1335 C 0.1858 0.46017 0.37484 0.0
C1336 C 0.18641 0.47279 0.36459 0.0
C1337 C 0.19816 0.48253 0.34689 0.0
C1338 C 0.2091 0.47982 0.33991 0.0
H1339 H 0.24776 0.49059 0.38862 0.0
H1340 H 0.23888 0.49625 0.36195 0.0
H1341 H 0.22892 0.48399 0.3926 0.0
H1342 H 0.19626 0.44781 0.37623 0.0
H1343 H 0.17679 0.45238 0.38814 0.0
H1344 H 0.70352 0.17736 0.46981 0.0
H1345 H 0.72626 0.19485 0.44684 0.0
H1346 H 0.74357 0.20944 0.53839 0.0
H1347 H 0.72089 0.19187 0.56147 0.0
H1348 H 0.73721 0.22318 0.45416 0.0
H1349 H 0.77615 0.20807 0.49541 0.0
H1350 H 0.75716 0.19601 0.49679 0.0
H1351 H 0.76579 0.2093 0.52645 0.0
C1352 C 0.71225 0.18419 0.48501 0.0
C1353 C 0.71045 0.18338 0.51739 0.0
C1354 C 0.72523 0.19409 0.47189 0.0
C1355 C 0.73663 0.20331 0.49092 0.0
C1356 C 0.73502 0.20218 0.52331 0.0
H1357 H 0.8107 0.28404 0.48361 0.0
H1358 H 0.79127 0.26017 0.49545 0.0
C1359 C 0.72205 0.19221 0.53647 0.0
C1360 C 0.74952 0.21526 0.477 0.0
H1361 H 0.7858 0.23227 0.47782 0.0
C1362 C 0.74783 0.22504 0.4588 0.0
C1363 C 0.76333 0.21763 0.48318 0.0
C1364 C 0.76573 0.20711 0.50128 0.0
C1365 C 0.75962 0.23753 0.44795 0.0
C1366 C 0.77344 0.24017 0.45515 0.0
C1367 C 0.77515 0.23016 0.47238 0.0
C1368 C 0.78615 0.25389 0.44741 0.0
C1369 C 0.7572 0.24816 0.43031 0.0
C1370 C 0.78986 0.25809 0.41644 0.0
C1371 C 0.80097 0.27175 0.40956 0.0
C1372 C 0.80857 0.28133 0.4336 0.0
C1373 C 0.80515 0.27685 0.46458 0.0
C1374 C 0.79404 0.26323 0.4714 0.0
H1375 H 0.74594 0.24564 0.43155 0.0
H1376 H 0.76411 0.25908 0.43948 0.0
H1377 H 0.75995 0.24811 0.40552 0.0
H1378 H 0.78397 0.25091 0.39764 0.0
H1379 H 0.80353 0.27485 0.38548 0.0
H1380 H 0.5452 0.82572 0.62972 0.0
H1381 H 0.55076 0.80778 0.64869 0.0
H1382 H 0.51703 0.77603 0.59192 0.0
H1383 H 0.51184 0.79404 0.57215 0.0
H1384 H 0.53383 0.7862 0.68246 0.0
H1385 H 0.54656 0.76506 0.57862 0.0
H1386 H 0.54608 0.78145 0.57778 0.0
H1387 H 0.52996 0.76456 0.57307 0.0
C1388 C 0.53923 0.81496 0.6208 0.0
C1389 C 0.52811 0.8112 0.59953 0.0
C1390 C 0.54242 0.80475 0.63158 0.0
C1391 C 0.53444 0.79059 0.62146 0.0
C1392 C 0.52363 0.78695 0.59937 0.0
H1393 H 0.5039 0.71443 0.72178 0.0
H1394 H 0.51039 0.73768 0.70035 0.0
C1395 C 0.52059 0.79722 0.58822 0.0
C1396 C 0.53606 0.77928 0.63689 0.0
H1397 H 0.53678 0.74875 0.6225 0.0
C1398 C 0.5348 0.77819 0.66936 0.0
C1399 C 0.53761 0.76896 0.62 0.0
C1400 C 0.54029 0.77017 0.58548 0.0
C1401 C 0.53407 0.76656 0.68513 0.0
C1402 C 0.53416 0.75553 0.66787 0.0
C1403 C 0.53643 0.75709 0.63568 0.0
C1404 C 0.53075 0.74182 0.68232 0.0
C1405 C 0.53296 0.76612 0.72007 0.0
C1406 C 0.53988 0.73627 0.67867 0.0
C1407 C 0.53604 0.72281 0.69034 0.0
C1408 C 0.52298 0.71466 0.70581 0.0
C1409 C 0.51398 0.72037 0.7098 0.0
C1410 C 0.51777 0.73376 0.69795 0.0
H1411 H 0.5382 0.77703 0.72999 0.0
H1412 H 0.52157 0.76074 0.72685 0.0
H1413 H 0.53787 0.76024 0.73048 0.0
H1414 H 0.54988 0.74225 0.66638 0.0
H1415 H 0.54311 0.71861 0.68639 0.0
H1416 H 0.71592 0.51176 0.74035 0.0
H1417 H 0.73898 0.51649 0.76002 0.0
H1418 H 0.74312 0.5523 0.8121 0.0
H1419 H 0.72012 0.54784 0.79202 0.0
H1420 H 0.76767 0.54291 0.76057 0.0
H1421 H 0.74314 0.52318 0.87698 0.0
H1422 H 0.73251 0.51951 0.84233 0.0
H1423 H 0.74101 0.53698 0.85907 0.0
C1424 C 0.72188 0.52087 0.75532 0.0
C1425 C 0.71613 0.52935 0.76484 0.0
C1426 C 0.73502 0.52352 0.76663 0.0
C1427 C 0.74261 0.53463 0.78771 0.0
C1428 C 0.7373 0.54358 0.79608 0.0
H1429 H 0.81096 0.5384 0.90314 0.0
H1430 H 0.79466 0.54536 0.88025 0.0
C1431 C 0.72416 0.54097 0.78471 0.0
C1432 C 0.75542 0.53597 0.80274 0.0
H1433 H 0.76652 0.52798 0.86991 0.0
C1434 C 0.76755 0.53986 0.7846 0.0
C1435 C 0.75518 0.53206 0.83412 0.0
C1436 C 0.74227 0.52762 0.85438 0.0
C1437 C 0.77933 0.53949 0.79682 0.0
C1438 C 0.77875 0.53475 0.82767 0.0
C1439 C 0.7669 0.53157 0.84624 0.0
C1440 C 0.78958 0.53162 0.84019 0.0
C1441 C 0.79219 0.54397 0.77645 0.0
C1442 C 0.79201 0.52153 0.82535 0.0
C1443 C 0.80132 0.5176 0.83824 0.0
C1444 C 0.80823 0.52353 0.86648 0.0
C1445 C 0.80586 0.53372 0.88125 0.0
C1446 C 0.79655 0.53769 0.86825 0.0
H1447 H 0.7931 0.5518 0.75868 0.0
H1448 H 0.80215 0.54872 0.7903 0.0
H1449 H 0.7911 0.53451 0.76404 0.0
H1450 H 0.78647 0.51645 0.80409 0.0
H1451 H 0.80309 0.50989 0.82604 0.0
H1452 H 0.20194 0.71254 0.9045 0.0
H1453 H 0.22107 0.73528 0.92366 0.0
H1454 H 0.19026 0.74704 0.9525 0.0
H1455 H 0.17099 0.72419 0.93347 0.0
H1456 H 0.22979 0.76398 0.91281 0.0
H1457 H 0.2102 0.74723 0.03355 0.0
H1458 H 0.20365 0.73503 0.00125 0.0
H1459 H 0.19773 0.74765 0.00677 0.0
C1460 C 0.19924 0.7201 0.91422 0.0
C1461 C 0.18497 0.71654 0.9178 0.0
C1462 C 0.21018 0.73306 0.92525 0.0
C1463 C 0.20703 0.74269 0.93999 0.0
C1464 C 0.19286 0.7396 0.94175 0.0
H1465 H 0.27886 0.82342 0.00708 0.0
H1466 H 0.25615 0.80666 0.98275 0.0
C1467 C 0.18189 0.72658 0.93086 0.0
C1468 C 0.21855 0.75531 0.95564 0.0
H1469 H 0.2314 0.76897 0.02744 0.0
C1470 C 0.23009 0.76523 0.93783 0.0
C1471 C 0.21891 0.75674 0.98832 0.0
C1472 C 0.20704 0.74607 0.00872 0.0
C1473 C 0.24223 0.77631 0.95194 0.0
C1474 C 0.24267 0.77759 0.98465 0.0
C1475 C 0.23093 0.76797 0.00236 0.0
C1476 C 0.25574 0.7879 0.00112 0.0
C1477 C 0.25476 0.78611 0.93189 0.0
C1478 C 0.2627 0.78289 0.02039 0.0
C1479 C 0.27553 0.7924 0.03462 0.0
C1480 C 0.28162 0.80712 0.02987 0.0
C1481 C 0.27437 0.81214 0.01138 0.0
C1482 C 0.2615 0.8026 0.99718 0.0
H1483 H 0.25368 0.78204 0.90779 0.0
H1484 H 0.25557 0.7967 0.93083 0.0
H1485 H 0.26483 0.78754 0.9419 0.0
H1486 H 0.25836 0.77157 0.02383 0.0
H1487 H 0.28077 0.78823 0.04908 0.0
H1488 H 0.62022 0.1531 0.74375 0.0
H1489 H 0.60703 0.15485 0.78817 0.0
H1490 H 0.56763 0.1305 0.73827 0.0
H1491 H 0.58066 0.12891 0.69369 0.0
H1492 H 0.58693 0.16569 0.78981 0.0
H1493 H 0.56245 0.10856 0.82141 0.0
H1494 H 0.57797 0.11748 0.79686 0.0
H1495 H 0.56061 0.11197 0.78134 0.0
C1496 C 0.60876 0.14824 0.74213 0.0
C1497 C 0.60147 0.14072 0.71532 0.0
C1498 C 0.60126 0.14921 0.76753 0.0
C1499 C 0.58638 0.14262 0.76655 0.0
C1500 C 0.57911 0.13542 0.73961 0.0
H1501 H 0.51837 0.12869 0.89059 0.0
H1502 H 0.53326 0.13003 0.84661 0.0
C1503 C 0.58657 0.13448 0.71424 0.0
C1504 C 0.57832 0.14308 0.79372 0.0
H1505 H 0.55362 0.12184 0.8472 0.0
C1506 C 0.57971 0.15616 0.80257 0.0
C1507 C 0.56894 0.13058 0.81015 0.0
C1508 C 0.56744 0.11635 0.80221 0.0
C1509 C 0.57159 0.15699 0.827 0.0
C1510 C 0.56208 0.14445 0.84322 0.0
C1511 C 0.56087 0.13142 0.83459 0.0
C1512 C 0.55316 0.14449 0.86917 0.0
C1513 C 0.57295 0.17119 0.83462 0.0
C1514 C 0.55943 0.15221 0.89638 0.0
C1515 C 0.55096 0.15146 0.92153 0.0
C1516 C 0.53606 0.14287 0.91999 0.0
C1517 C 0.52982 0.13528 0.89256 0.0
C1518 C 0.53829 0.13608 0.86741 0.0
H1519 H 0.57782 0.17889 0.81521 0.0
H1520 H 0.56241 0.17 0.84006 0.0
H1521 H 0.57987 0.17575 0.8553 0.0
H1522 H 0.5709 0.1585 0.89847 0.0
H1523 H 0.55608 0.15724 0.94254 0.0
H1524 H 0.44108 0.58193 0.85627 0.0
H1525 H 0.42732 0.56936 0.9021 0.0
H1526 H 0.45436 0.60569 0.95905 0.0
H1527 H 0.46867 0.61808 0.9136 0.0
H1528 H 0.45043 0.58156 0.98453 0.0
H1529 H 0.39822 0.57453 0.94949 0.0
H1530 H 0.40525 0.56757 0.92118 0.0
H1531 H 0.4145 0.58637 0.92929 0.0
C1532 C 0.44417 0.58724 0.87855 0.0
C1533 C 0.45601 0.60103 0.88122 0.0
C1534 C 0.43614 0.58011 0.90467 0.0
C1535 C 0.43964 0.58669 0.93389 0.0
C1536 C 0.45139 0.60047 0.93664 0.0
H1537 H 0.38595 0.55115 0.09797 0.0
H1538 H 0.39914 0.56616 0.0537 0.0
C1539 C 0.4595 0.60757 0.91058 0.0
C1540 C 0.43155 0.5789 0.96184 0.0
H1541 H 0.39805 0.56024 0.99208 0.0
C1542 C 0.43899 0.57701 0.9863 0.0
C1543 C 0.41667 0.57316 0.96434 0.0
C1544 C 0.40821 0.57563 0.93981 0.0
C1545 C 0.4319 0.56918 0.01282 0.0
C1546 C 0.41691 0.56276 0.01451 0.0
C1547 C 0.40952 0.56501 0.99051 0.0
C1548 C 0.40872 0.55353 0.04087 0.0
C1549 C 0.44056 0.568 0.03885 0.0
C1550 C 0.40951 0.54132 0.04788 0.0
C1551 C 0.40206 0.5328 0.07316 0.0
C1552 C 0.39351 0.53622 0.09161 0.0
C1553 C 0.3924 0.54823 0.08403 0.0
C1554 C 0.39996 0.55682 0.05885 0.0
H1555 H 0.45177 0.57685 0.0382 0.0
H1556 H 0.43595 0.56803 0.06185 0.0
H1557 H 0.44067 0.55787 0.0364 0.0
H1558 H 0.41588 0.53836 0.03376 0.0
H1559 H 0.4029 0.52346 0.07815 0.0
H1560 H 0.87782 0.47073 0.06555 0.0
H1561 H 0.87583 0.45547 0.1093 0.0
H1562 H 0.8312 0.42811 0.08934 0.0
H1563 H 0.83309 0.44359 0.04601 0.0
H1564 H 0.83549 0.43299 0.15004 0.0
H1565 H 0.87346 0.41739 0.10476 0.0
H1566 H 0.88139 0.43634 0.10777 0.0
H1567 H 0.86684 0.42659 0.08129 0.0
C1568 C 0.86761 0.46142 0.07046 0.0
C1569 C 0.85563 0.45827 0.05236 0.0
C1570 C 0.8665 0.45267 0.09532 0.0
C1571 C 0.85344 0.44046 0.10213 0.0
C1572 C 0.8414 0.43743 0.08437 0.0
H1573 H 0.8489 0.37536 0.22834 0.0
H1574 H 0.84755 0.38805 0.18258 0.0
C1575 C 0.84247 0.44628 0.05972 0.0
C1576 C 0.85231 0.43104 0.1282 0.0
H1577 H 0.86716 0.41239 0.15835 0.0
C1578 C 0.84233 0.42838 0.15174 0.0
C1579 C 0.86102 0.42478 0.13008 0.0
C1580 C 0.87116 0.42629 0.10445 0.0
C1581 C 0.84113 0.41999 0.1776 0.0
C1582 C 0.85047 0.41448 0.18041 0.0
C1583 C 0.86013 0.41677 0.1564 0.0
C1584 C 0.85061 0.40653 0.20826 0.0
C1585 C 0.82977 0.41701 0.2014 0.0
C1586 C 0.85288 0.41274 0.23783 0.0
C1587 C 0.8535 0.40546 0.26394 0.0
C1588 C 0.85214 0.39195 0.26088 0.0
C1589 C 0.85002 0.38579 0.23127 0.0
C1590 C 0.84922 0.39301 0.20519 0.0
H1591 H 0.82081 0.41782 0.1911 0.0
H1592 H 0.82547 0.40625 0.21169 0.0
H1593 H 0.8344 0.425 0.22029 0.0
H1594 H 0.85443 0.42334 0.24067 0.0
H1595 H 0.85541 0.41055 0.28645 0.0
H1596 H 0.47222 0.87533 0.40578 0.0
H1597 H 0.45702 0.87317 0.36182 0.0
H1598 H 0.42654 0.8304 0.39 0.0
H1599 H 0.44174 0.83246 0.43404 0.0
H1600 H 0.43172 0.83284 0.32678 0.0
H1601 H 0.42014 0.87437 0.36805 0.0
H1602 H 0.43884 0.88055 0.36525 0.0
H1603 H 0.42812 0.86679 0.39261 0.0
C1604 C 0.46224 0.86549 0.40271 0.0
C1605 C 0.4581 0.8541 0.42348 0.0
C1606 C 0.45357 0.86428 0.37764 0.0
C1607 C 0.44053 0.85174 0.37306 0.0
C1608 C 0.43653 0.84021 0.39326 0.0
H1609 H 0.3762 0.84881 0.24733 0.0
H1610 H 0.38846 0.84666 0.29282 0.0
C1611 C 0.44524 0.84138 0.4183 0.0
C1612 C 0.43113 0.85067 0.34708 0.0
H1613 H 0.41385 0.86669 0.31565 0.0
C1614 C 0.42771 0.84016 0.32442 0.0
C1615 C 0.4257 0.86007 0.3444 0.0
C1616 C 0.42826 0.87099 0.36903 0.0
C1617 C 0.41938 0.8391 0.29854 0.0
C1618 C 0.41461 0.849 0.29503 0.0
C1619 C 0.41764 0.8592 0.31823 0.0
C1620 C 0.40675 0.84924 0.26715 0.0
C1621 C 0.4157 0.82734 0.27535 0.0
C1622 C 0.41297 0.85141 0.23765 0.0
C1623 C 0.40593 0.85249 0.21158 0.0
C1624 C 0.3926 0.8516 0.21455 0.0
C1625 C 0.38636 0.84934 0.24415 0.0
C1626 C 0.39339 0.8482 0.2702 0.0
H1627 H 0.41629 0.81831 0.28595 0.0
H1628 H 0.40486 0.82329 0.2657 0.0
H1629 H 0.42344 0.83151 0.25591 0.0
H1630 H 0.42341 0.85255 0.23484 0.0
H1631 H 0.41097 0.85407 0.18909 0.0
H1632 H 0.60264 0.43894 0.60543 0.0
H1633 H 0.58975 0.42406 0.5608 0.0
H1634 H 0.59112 0.46029 0.51617 0.0
H1635 H 0.60429 0.4753 0.56025 0.0
H1636 H 0.56326 0.41912 0.53834 0.0
H1637 H 0.60523 0.44373 0.44828 0.0
H1638 H 0.60907 0.44646 0.48931 0.0
H1639 H 0.60219 0.45627 0.46925 0.0
C1640 C 0.60041 0.44379 0.58587 0.0
C1641 C 0.6045 0.4583 0.58632 0.0
C1642 C 0.59298 0.43526 0.56051 0.0
C1643 C 0.58966 0.44113 0.53508 0.0
C1644 C 0.5938 0.45562 0.53536 0.0
H1645 H 0.54095 0.41358 0.36744 0.0
H1646 H 0.55586 0.42625 0.41197 0.0
C1647 C 0.60119 0.46414 0.5607 0.0
C1648 C 0.58121 0.432 0.5089 0.0
H1649 H 0.5816 0.4282 0.43035 0.0
C1650 C 0.56729 0.42097 0.51475 0.0
C1651 C 0.58655 0.43449 0.47823 0.0
C1652 C 0.60163 0.44579 0.47084 0.0
C1653 C 0.55835 0.41268 0.4905 0.0
C1654 C 0.56359 0.41538 0.45973 0.0
C1655 C 0.57762 0.4262 0.45399 0.0
C1656 C 0.55451 0.40751 0.43298 0.0
C1657 C 0.54322 0.40149 0.49786 0.0
C1658 C 0.54891 0.39278 0.42996 0.0
C1659 C 0.54025 0.38547 0.40466 0.0
C1660 C 0.53712 0.39279 0.38189 0.0
C1661 C 0.54293 0.40758 0.38486 0.0
C1662 C 0.55155 0.41486 0.41014 0.0
H1663 H 0.53996 0.40291 0.52144 0.0
H1664 H 0.53573 0.40174 0.48064 0.0
H1665 H 0.54224 0.39082 0.49684 0.0
H1666 H 0.55126 0.38695 0.44712 0.0
H1667 H 0.5359 0.37407 0.4031 0.0
H1668 H 0.13354 0.5215 0.57881 0.0
H1669 H 0.13429 0.53582 0.62334 0.0
H1670 H 0.15094 0.57301 0.56491 0.0
H1671 H 0.14951 0.55867 0.51999 0.0
H1672 H 0.15648 0.55909 0.65046 0.0
H1673 H 0.11708 0.57285 0.60451 0.0
H1674 H 0.11986 0.5593 0.58717 0.0
H1675 H 0.13193 0.57779 0.57906 0.0
C1676 C 0.13719 0.53269 0.57533 0.0
C1677 C 0.14135 0.53889 0.54573 0.0
C1678 C 0.13773 0.54087 0.60086 0.0
C1679 C 0.14242 0.55541 0.59729 0.0
C1680 C 0.14698 0.56174 0.56803 0.0
H1681 H 0.15297 0.62131 0.72766 0.0
H1682 H 0.15491 0.60836 0.68295 0.0
C1683 C 0.14635 0.55355 0.54245 0.0
C1684 C 0.14253 0.56394 0.62422 0.0
H1685 H 0.12925 0.58466 0.65057 0.0
C1686 C 0.1505 0.56465 0.65053 0.0
C1687 C 0.13468 0.57115 0.62423 0.0
C1688 C 0.12529 0.57015 0.59737 0.0
C1689 C 0.15092 0.5725 0.67678 0.0
C1690 C 0.14315 0.57975 0.67664 0.0
C1691 C 0.13527 0.57914 0.65035 0.0
C1692 C 0.1426 0.5876 0.70407 0.0
C1693 C 0.15971 0.57309 0.70445 0.0
C1694 C 0.135 0.58014 0.73049 0.0
C1695 C 0.13381 0.58747 0.75587 0.0
C1696 C 0.14025 0.60238 0.75524 0.0
C1697 C 0.14802 0.60983 0.72884 0.0
C1698 C 0.14909 0.60247 0.70333 0.0
H1699 H 0.1671 0.56911 0.69882 0.0
H1700 H 0.16598 0.58415 0.71332 0.0
H1701 H 0.15252 0.5664 0.72335 0.0
H1702 H 0.12982 0.56864 0.73127 0.0
H1703 H 0.12788 0.58148 0.77603 0.0
H1704 H 0.42642 0.0515 0.01967 0.0
H1705 H 0.40823 0.02637 0.024 0.0
H1706 H 0.40754 0.03079 0.12346 0.0
H1707 H 0.42605 0.05583 0.11922 0.0
H1708 H 0.41184 0.0098 0.1086 0.0
H1709 H 0.36626 0.00385 0.03963 0.0
H1710 H 0.38242 0.01241 0.01758 0.0
H1711 H 0.3806 0.02102 0.05163 0.0
C1712 C 0.42211 0.04716 0.04234 0.0
C1713 C 0.42765 0.0555 0.06913 0.0
C1714 C 0.41165 0.03284 0.0448 0.0
C1715 C 0.40636 0.02673 0.07403 0.0
C1716 C 0.41142 0.03529 0.10067 0.0
H1717 H 0.35813 0.93593 0.12177 0.0
H1718 H 0.36658 0.96151 0.12342 0.0
C1719 C 0.42201 0.04954 0.09826 0.0
C1720 C 0.39711 0.01113 0.07713 0.0
H1721 H 0.36744 0.98235 0.04775 0.0
C1722 C 0.40196 0.00383 0.09583 0.0
C1723 C 0.38424 0.00334 0.0604 0.0
C1724 C 0.37801 0.01059 0.04145 0.0
C1725 C 0.3947 0.98895 0.09705 0.0
C1726 C 0.38222 0.98118 0.07923 0.0
C1727 C 0.37704 0.98841 0.06134 0.0
C1728 C 0.37524 0.96556 0.07693 0.0
C1729 C 0.40079 0.9816 0.11621 0.0
C1730 C 0.37702 0.95942 0.04995 0.0
C1731 C 0.37238 0.9449 0.04902 0.0
C1732 C 0.36579 0.93625 0.07506 0.0
C1733 C 0.36338 0.94235 0.10153 0.0
C1734 C 0.36809 0.95691 0.10246 0.0
H1735 H 0.41148 0.98919 0.12564 0.0
H1736 H 0.39357 0.97603 0.13599 0.0
H1737 H 0.40161 0.97349 0.10203 0.0
H1738 H 0.38262 0.96599 0.03011 0.0
H1739 H 0.37458 0.94061 0.02841 0.0
H1740 H 0.4229 0.36299 0.18549 0.0
H1741 H 0.40413 0.36922 0.18181 0.0
H1742 H 0.40983 0.3808 0.27873 0.0
H1743 H 0.42828 0.37416 0.2827 0.0
H1744 H 0.38161 0.36783 0.26068 0.0
H1745 H 0.4164 0.41109 0.17891 0.0
H1746 H 0.41162 0.3935 0.16629 0.0
H1747 H 0.42259 0.40092 0.20014 0.0
C1748 C 0.41997 0.36667 0.20606 0.0
C1749 C 0.42711 0.36829 0.23428 0.0
C1750 C 0.4093 0.37025 0.20393 0.0
C1751 C 0.40586 0.37579 0.22981 0.0
C1752 C 0.41238 0.37659 0.25846 0.0
H1753 H 0.37248 0.42812 0.27851 0.0
H1754 H 0.37973 0.41022 0.2766 0.0
C1755 C 0.4229 0.37281 0.26072 0.0
C1756 C 0.39649 0.38198 0.22658 0.0
H1757 H 0.39467 0.40935 0.19227 0.0
C1758 C 0.38436 0.37681 0.24549 0.0
C1759 C 0.40016 0.39373 0.20678 0.0
C1760 C 0.41345 0.40025 0.18706 0.0
C1761 C 0.37598 0.38332 0.24564 0.0
C1762 C 0.3799 0.39529 0.22652 0.0
C1763 C 0.39166 0.40008 0.2067 0.0
C1764 C 0.37308 0.40409 0.22906 0.0
C1765 C 0.36315 0.37753 0.26661 0.0
C1766 C 0.36685 0.40649 0.20296 0.0
C1767 C 0.3626 0.4167 0.204 0.0
C1768 C 0.3647 0.4248 0.23104 0.0
C1769 C 0.37046 0.42193 0.25748 0.0
C1770 C 0.37461 0.41168 0.25647 0.0
H1771 H 0.35924 0.36623 0.27276 0.0
H1772 H 0.36612 0.38381 0.28843 0.0
H1773 H 0.35437 0.3784 0.25552 0.0
H1774 H 0.3657 0.4008 0.18153 0.0
H1775 H 0.358 0.41849 0.18339 0.0
H1776 H 0.05987 0.41647 0.42242 0.0
H1777 H 0.03448 0.39855 0.425 0.0
H1778 H 0.02443 0.426 0.37167 0.0
H1779 H 0.04953 0.44403 0.36978 0.0
H1780 H 0.01018 0.41625 0.43059 0.0
H1781 H 0.00579 0.37241 0.35548 0.0
H1782 H 0.01981 0.37993 0.38401 0.0
H1783 H 0.02025 0.39051 0.35163 0.0
C1784 C 0.05224 0.41863 0.41112 0.0
C1785 C 0.05671 0.43167 0.39589 0.0
C1786 C 0.03779 0.40833 0.41234 0.0
C1787 C 0.02767 0.41095 0.39828 0.0
C1788 C 0.03214 0.42377 0.38243 0.0
H1789 H 0.94063 0.37072 0.35241 0.0
H1790 H 0.96616 0.37895 0.35422 0.0
C1791 C 0.0465 0.43403 0.38123 0.0
C1792 C 0.0123 0.40108 0.40229 0.0
H1793 H 0.98457 0.36947 0.37747 0.0
C1794 C 0.00456 0.40593 0.41934 0.0
C1795 C 0.00513 0.38771 0.38741 0.0
C1796 C 0.01308 0.38226 0.36843 0.0
C1797 C 0.98971 0.398 0.42096 0.0
C1798 C 0.98245 0.38468 0.40569 0.0
C1799 C 0.99022 0.37961 0.38937 0.0
C1800 C 0.96675 0.37672 0.40404 0.0
C1801 C 0.98192 0.40433 0.43764 0.0
C1802 C 0.95859 0.37211 0.43126 0.0
C1803 C 0.94409 0.36763 0.43032 0.0
C1804 C 0.93755 0.36744 0.40205 0.0
C1805 C 0.94546 0.37078 0.37446 0.0
C1806 C 0.96001 0.37545 0.37547 0.0
H1807 H 0.98894 0.41585 0.4425 0.0
H1808 H 0.9727 0.40298 0.42376 0.0
H1809 H 0.97786 0.3988 0.46015 0.0
H1810 H 0.96358 0.37278 0.45344 0.0
H1811 H 0.93812 0.36489 0.45181 0.0
H1812 H 0.5577 0.94709 0.60209 0.0
H1813 H 0.57689 0.97176 0.60132 0.0
H1814 H 0.5998 0.96116 0.53476 0.0
H1815 H 0.58069 0.93617 0.53588 0.0
H1816 H 0.6082 0.98351 0.61234 0.0
H1817 H 0.5935 0.99324 0.49443 0.0
H1818 H 0.58109 0.97837 0.5178 0.0
H1819 H 0.59602 0.97822 0.50042 0.0
C1820 C 0.56692 0.94988 0.58771 0.0
C1821 C 0.56767 0.93964 0.56909 0.0
C1822 C 0.57785 0.96401 0.58723 0.0
C1823 C 0.58969 0.96821 0.56796 0.0
C1824 C 0.59066 0.95806 0.54964 0.0
H1825 H 0.64247 0.05987 0.53475 0.0
H1826 H 0.63611 0.0348 0.53302 0.0
C1827 C 0.57972 0.94385 0.5502 0.0
C1828 C 0.60049 0.98344 0.56625 0.0
H1829 H 0.60934 0.01313 0.52351 0.0
C1830 C 0.60873 0.99 0.59268 0.0
C1831 C 0.60121 0.99179 0.54043 0.0
C1832 C 0.59249 0.98515 0.51159 0.0
C1833 C 0.61707 0.00485 0.59466 0.0
C1834 C 0.61684 0.01327 0.56987 0.0
C1835 C 0.60944 0.00665 0.54254 0.0
C1836 C 0.6224 0.02873 0.57332 0.0
C1837 C 0.62565 0.01138 0.6237 0.0
C1838 C 0.61684 0.0336 0.59661 0.0
C1839 C 0.62037 0.04783 0.59757 0.0
C1840 C 0.62944 0.05746 0.57505 0.0
C1841 C 0.63534 0.05266 0.55225 0.0
C1842 C 0.63181 0.03839 0.55134 0.0
H1843 H 0.629 0.00421 0.63445 0.0
H1844 H 0.63527 0.02181 0.61881 0.0
H1845 H 0.61898 0.01302 0.64086 0.0
H1846 H 0.60921 0.02625 0.61323 0.0
H1847 H 0.61543 0.05111 0.61505 0.0
H1848 H 0.6245 0.5688 0.77628 0.0
H1849 H 0.61569 0.58563 0.77422 0.0
H1850 H 0.6148 0.58345 0.67427 0.0
H1851 H 0.6233 0.56639 0.67607 0.0
H1852 H 0.62547 0.61303 0.73969 0.0
H1853 H 0.57265 0.56805 0.7043 0.0
H1854 H 0.58627 0.5653 0.72138 0.0
H1855 H 0.58768 0.57071 0.68156 0.0
C1856 C 0.62253 0.572 0.75386 0.0
C1857 C 0.6244 0.56614 0.72635 0.0
C1858 C 0.61764 0.58169 0.75273 0.0
C1859 C 0.6145 0.58562 0.72412 0.0
C1860 C 0.61712 0.58045 0.69655 0.0
H1861 H 0.5619 0.62242 0.68222 0.0
H1862 H 0.57868 0.61379 0.67807 0.0
C1863 C 0.62203 0.57077 0.69764 0.0
C1864 C 0.60713 0.59392 0.72329 0.0
H1865 H 0.57473 0.59056 0.70866 0.0
C1866 C 0.6144 0.6082 0.73276 0.0
C1867 C 0.59269 0.58749 0.71437 0.0
C1868 C 0.58427 0.57202 0.70502 0.0
C1869 C 0.60757 0.6163 0.73328 0.0
C1870 C 0.59307 0.6098 0.7247 0.0
C1871 C 0.58588 0.59554 0.71503 0.0
C1872 C 0.58482 0.61727 0.72645 0.0
C1873 C 0.61597 0.63174 0.74266 0.0
C1874 C 0.58291 0.62235 0.75495 0.0
C1875 C 0.57345 0.62752 0.75734 0.0
C1876 C 0.5656 0.6275 0.73134 0.0
C1877 C 0.56792 0.62282 0.70262 0.0
C1878 C 0.57745 0.61779 0.70022 0.0
H1879 H 0.62758 0.63612 0.73936 0.0
H1880 H 0.61263 0.6383 0.72914 0.0
H1881 H 0.61409 0.63272 0.76763 0.0
H1882 H 0.58827 0.62178 0.77563 0.0
H1883 H 0.57204 0.63119 0.77971 0.0
H1884 H 0.0504 0.62258 0.85427 0.0
H1885 H 0.02537 0.6159 0.85824 0.0
H1886 H 0.03102 0.62678 0.95556 0.0
H1887 H 0.05605 0.63321 0.95178 0.0
H1888 H 0.00983 0.60058 0.94644 0.0
H1889 H 0.00301 0.63614 0.86537 0.0
H1890 H 0.01158 0.62765 0.84675 0.0
H1891 H 0.02031 0.63974 0.87849 0.0
C1892 C 0.04638 0.62389 0.8763 0.0
C1893 C 0.0551 0.62833 0.90276 0.0
C1894 C 0.0321 0.62016 0.87852 0.0
C1895 C 0.02636 0.62105 0.9071 0.0
C1896 C 0.03524 0.62609 0.93325 0.0
H1897 H 0.93536 0.57815 0.95453 0.0
H1898 H 0.96077 0.59594 0.95585 0.0
C1899 C 0.04949 0.62969 0.93111 0.0
C1900 C 0.01079 0.61485 0.91053 0.0
H1901 H 0.9817 0.61373 0.87722 0.0
C1902 C 0.0037 0.60368 0.93183 0.0
C1903 C 0.00282 0.6189 0.89141 0.0
C1904 C 0.00986 0.63137 0.86946 0.0
C1905 C 0.98882 0.5959 0.93325 0.0
C1906 C 0.98085 0.59949 0.91302 0.0
C1907 C 0.9879 0.61103 0.89264 0.0
C1908 C 0.96526 0.59039 0.91069 0.0
C1909 C 0.98172 0.58339 0.95515 0.0
C1910 C 0.9594 0.58178 0.88446 0.0
C1911 C 0.94498 0.57157 0.88371 0.0
C1912 C 0.93615 0.56986 0.90918 0.0
C1913 C 0.94194 0.57905 0.93479 0.0
C1914 C 0.9564 0.58925 0.93552 0.0
H1915 H 0.98946 0.58085 0.96609 0.0
H1916 H 0.97625 0.58585 0.97386 0.0
H1917 H 0.97357 0.5738 0.94267 0.0
H1918 H 0.96613 0.58248 0.86515 0.0
H1919 H 0.94092 0.56457 0.86379 0.0
loop_
_geom_bond_atom_site_label_1
_geom_bond_atom_site_label_2
_geom_bond_distance
_geom_bond_site_symmetry_2
_ccdc_geom_bond_type
Li0 N17 1.990 . S
Li0 O60 1.956 . S
Li0 O61 1.970 . S
Li0 O62 1.961 . S
Li1 N25 1.990 . S
Li1 O60 1.970 . S
Li1 O61 1.956 . S
Li1 O63 1.961 . S
Li2 N47 1.990 . S
Li2 O60 1.961 . S
Li2 O62 1.956 . S
Li2 O63 1.970 . S
Li3 N53 1.990 . S
Li3 O61 1.961 . S
Li3 O62 1.970 . S
Li3 O63 1.956 . S
C4 C6 1.348 . S
C4 C7 1.356 . S
C4 O60 1.325 . S
N5 C8 1.314 . S
N5 C9 1.279 . S
C6 C4 1.348 . S
C6 C8 1.353 . S
C6 H64 0.929 . S
C7 C4 1.356 . S
C7 C9 1.358 . S
C7 H65 0.930 . S
C8 N5 1.314 . S
C8 C6 1.353 . S
C8 H66 0.930 . S
C9 N5 1.279 . S
C9 C7 1.358 . S
C9 H67 0.930 . S
C10 C13 1.348 . S
C10 C14 1.356 . S
C10 O61 1.325 . S
C11 N12 1.279 . S
C11 C14 1.358 . S
C11 H68 0.930 . S
N12 C11 1.279 . S
N12 C15 1.314 . S
C13 C10 1.348 . S
C13 C15 1.353 . S
C13 H69 0.929 . S
C14 C10 1.356 . S
C14 C11 1.358 . S
C14 H70 0.930 . S
C15 N12 1.314 . S
C15 C13 1.353 . S
C15 H71 0.930 . S
C16 N17 1.314 . S
C16 C21 1.353 . S
C16 H22 0.930 . S
N17 Li0 1.990 . S
N17 C16 1.314 . S
N17 C19 1.279 . S
C18 C19 1.358 . S
C18 C20 1.356 . S
C18 H72 0.930 . S
C19 N17 1.279 . S
C19 C18 1.358 . S
C19 H23 0.930 . S
C20 C18 1.356 . S
C20 C21 1.348 . S
C21 C16 1.353 . S
C21 C20 1.348 . S
C21 H73 0.929 . S
H22 C16 0.930 . S
H23 C19 0.930 . S
C24 N25 1.314 . S
C24 C26 1.353 . S
C24 H30 0.930 . S
N25 Li1 1.990 . S
N25 C24 1.314 . S
N25 C28 1.279 . S
C26 C24 1.353 . S
C26 C29 1.348 . S
C26 H74 0.929 . S
C27 C28 1.358 . S
C27 C29 1.356 . S
C27 H75 0.930 . S
C28 N25 1.279 . S
C28 C27 1.358 . S
C28 H31 0.930 . S
C29 C26 1.348 . S
C29 C27 1.356 . S
H30 C24 0.930 . S
H31 C28 0.930 . S
C32 C34 1.348 1_554 S
C32 C35 1.356 . S
C32 O62 1.325 . S
N33 C36 1.314 . S
N33 C37 1.279 . S
C34 C32 1.348 1_556 S
C34 C36 1.353 . S
C34 H76 0.929 . S
C35 C32 1.356 . S
C35 C37 1.358 1_554 S
C35 H77 0.930 . S
C36 N33 1.314 . S
C36 C34 1.353 . S
C36 H78 0.930 . S
C37 N33 1.279 . S
C37 C35 1.358 1_556 S
C37 H79 0.930 1_556 S
C38 C39 1.348 . S
C38 C40 1.356 . S
C38 O63 1.325 . S
C39 C38 1.348 . S
C39 C41 1.353 . S
C39 H80 0.929 . S
C40 C38 1.356 . S
C40 C42 1.358 . S
C40 H81 0.930 . S
C41 C39 1.353 . S
C41 N43 1.314 . S
C41 H82 0.930 . S
C42 C40 1.358 . S
C42 N43 1.279 . S
C42 H83 0.930 . S
N43 C41 1.314 . S
N43 C42 1.279 . S
C44 C46 1.353 . S
C44 N47 1.314 . S
C44 H50 0.930 . S
C45 N47 1.279 . S
C45 C48 1.358 . S
C45 H51 0.930 . S
C46 C44 1.353 . S
C46 C49 1.348 . S
C46 H84 0.929 . S
N47 Li2 1.990 . S
N47 C44 1.314 . S
N47 C45 1.279 . S
C48 C45 1.358 . S
C48 C49 1.356 . S
C48 H85 0.930 . S
C49 C46 1.348 . S
C49 C48 1.356 . S
H50 C44 0.930 . S
H51 C45 0.930 . S
C52 N53 1.314 1_556 S
C52 C54 1.353 . S
C52 H58 0.930 . S
N53 Li3 1.990 . S
N53 C52 1.314 1_554 S
N53 C56 1.279 1_554 S
C54 C52 1.353 . S
C54 C57 1.348 . S
C54 H86 0.929 . S
C55 C56 1.358 . S
C55 C57 1.356 . S
C55 H87 0.930 . S
C56 N53 1.279 1_556 S
C56 C55 1.358 . S
C56 H59 0.930 1_556 S
C57 C54 1.348 . S
C57 C55 1.356 . S
H58 C52 0.930 . S
H59 C56 0.930 1_554 S
O60 Li0 1.956 . S
O60 Li1 1.970 . S
O60 Li2 1.961 . S
O60 C4 1.325 . S
O61 Li0 1.970 . S
O61 Li1 1.956 . S
O61 Li3 1.961 . S
O61 C10 1.325 . S
O62 Li0 1.961 . S
O62 Li2 1.956 . S
O62 Li3 1.970 . S
O62 C32 1.325 . S
O63 Li1 1.961 . S
O63 Li2 1.970 . S
O63 Li3 1.956 . S
O63 C38 1.325 . S
H64 C6 0.929 . S
H65 C7 0.930 . S
H66 C8 0.930 . S
H67 C9 0.930 . S
H68 C11 0.930 . S
H69 C13 0.929 . S
H70 C14 0.930 . S
H71 C15 0.930 . S
H72 C18 0.930 . S
H73 C21 0.929 . S
H74 C26 0.929 . S
H75 C27 0.930 . S
H76 C34 0.929 . S
H77 C35 0.930 . S
H78 C36 0.930 . S
H79 C37 0.930 1_554 S
H80 C39 0.929 . S
H81 C40 0.930 . S
H82 C41 0.930 . S
H83 C42 0.930 . S
H84 C46 0.929 . S
H85 C48 0.930 . S
H86 C54 0.929 . S
H87 C55 0.930 . S
Li88 N105 1.990 . S
Li88 O148 1.956 . S
Li88 O149 1.970 . S
Li88 O150 1.961 . S
Li89 N113 1.990 . S
Li89 O148 1.970 . S
Li89 O149 1.956 . S
Li89 O151 1.961 . S
Li90 N135 1.990 . S
Li90 O148 1.961 . S
Li90 O150 1.956 . S
Li90 O151 1.970 . S
Li91 N141 1.990 . S
Li91 O149 1.961 . S
Li91 O150 1.970 . S
Li91 O151 1.956 . S
C92 C94 1.348 . S
C92 C95 1.356 . S
C92 O148 1.325 . S
N93 C96 1.314 . S
N93 C97 1.279 . S
C94 C92 1.348 . S
C94 C96 1.353 . S
C94 H152 0.929 . S
C95 C92 1.356 . S
C95 C97 1.358 . S
C95 H153 0.930 . S
C96 N93 1.314 . S
C96 C94 1.353 . S
C96 H154 0.930 . S
C97 N93 1.279 . S
C97 C95 1.358 . S
C97 H155 0.930 . S
C98 C101 1.348 . S
C98 C102 1.356 . S
C98 O149 1.325 . S
C99 N100 1.279 . S
C99 C102 1.358 . S
C99 H156 0.930 . S
N100 C99 1.279 . S
N100 C103 1.314 . S
C101 C98 1.348 . S
C101 C103 1.353 . S
C101 H157 0.929 . S
C102 C98 1.356 . S
C102 C99 1.358 . S
C102 H158 0.930 . S
C103 N100 1.314 . S
C103 C101 1.353 . S
C103 H159 0.930 . S
C104 N105 1.314 . S
C104 C109 1.353 . S
C104 H110 0.930 . S
N105 Li88 1.990 . S
N105 C104 1.314 . S
N105 C107 1.279 . S
C106 C107 1.358 . S
C106 C108 1.356 . S
C106 H160 0.930 . S
C107 N105 1.279 . S
C107 C106 1.358 . S
C107 H111 0.930 . S
C108 C106 1.356 . S
C108 C109 1.348 . S
C109 C104 1.353 . S
C109 C108 1.348 . S
C109 H161 0.929 . S
H110 C104 0.930 . S
H111 C107 0.930 . S
C112 N113 1.314 . S
C112 C114 1.353 . S
C112 H118 0.930 . S
N113 Li89 1.990 . S
N113 C112 1.314 . S
N113 C116 1.279 . S
C114 C112 1.353 . S
C114 C117 1.348 . S
C114 H162 0.929 . S
C115 C116 1.358 . S
C115 C117 1.356 . S
C115 H163 0.930 . S
C116 N113 1.279 . S
C116 C115 1.358 . S
C116 H119 0.930 . S
C117 C114 1.348 . S
C117 C115 1.356 . S
H118 C112 0.930 . S
H119 C116 0.930 . S
C120 C122 1.348 . S
C120 C123 1.356 . S
C120 O150 1.325 . S
N121 C124 1.314 . S
N121 C125 1.279 . S
C122 C120 1.348 . S
C122 C124 1.353 . S
C122 H164 0.929 . S
C123 C120 1.356 . S
C123 C125 1.358 . S
C123 H165 0.930 . S
C124 N121 1.314 . S
C124 C122 1.353 . S
C124 H166 0.930 . S
C125 N121 1.279 . S
C125 C123 1.358 . S
C125 H167 0.930 . S
C126 C127 1.348 . S
C126 C128 1.356 . S
C126 O151 1.325 . S
C127 C126 1.348 . S
C127 C129 1.353 . S
C127 H168 0.929 . S
C128 C126 1.356 . S
C128 C130 1.358 . S
C128 H169 0.930 . S
C129 C127 1.353 . S
C129 N131 1.314 . S
C129 H170 0.930 . S
C130 C128 1.358 . S
C130 N131 1.279 . S
C130 H171 0.930 . S
N131 C129 1.314 . S
N131 C130 1.279 . S
C132 C134 1.353 . S
C132 N135 1.314 . S
C132 H138 0.930 . S
C133 N135 1.279 . S
C133 C136 1.358 . S
C133 H139 0.930 . S
C134 C132 1.353 . S
C134 C137 1.348 . S
C134 H172 0.929 . S
N135 Li90 1.990 . S
N135 C132 1.314 . S
N135 C133 1.279 . S
C136 C133 1.358 . S
C136 C137 1.356 . S
C136 H173 0.930 . S
C137 C134 1.348 . S
C137 C136 1.356 . S
H138 C132 0.930 . S
H139 C133 0.930 . S
C140 N141 1.314 . S
C140 C142 1.353 . S
C140 H146 0.930 . S
N141 Li91 1.990 . S
N141 C140 1.314 . S
N141 C144 1.279 . S
C142 C140 1.353 . S
C142 C145 1.348 . S
C142 H174 0.929 . S
C143 C144 1.358 . S
C143 C145 1.356 . S
C143 H175 0.930 . S
C144 N141 1.279 . S
C144 C143 1.358 . S
C144 H147 0.930 . S
C145 C142 1.348 . S
C145 C143 1.356 . S
H146 C140 0.930 . S
H147 C144 0.930 . S
O148 Li88 1.956 . S
O148 Li89 1.970 . S
O148 Li90 1.961 . S
O148 C92 1.325 . S
O149 Li88 1.970 . S
O149 Li89 1.956 . S
O149 Li91 1.961 . S
O149 C98 1.325 . S
O150 Li88 1.961 . S
O150 Li90 1.956 . S
O150 Li91 1.970 . S
O150 C120 1.325 . S
O151 Li89 1.961 . S
O151 Li90 1.970 . S
O151 Li91 1.956 . S
O151 C126 1.325 . S
H152 C94 0.929 . S
H153 C95 0.930 . S
H154 C96 0.930 . S
H155 C97 0.930 . S
H156 C99 0.930 . S
H157 C101 0.929 . S
H158 C102 0.930 . S
H159 C103 0.930 . S
H160 C106 0.930 . S
H161 C109 0.929 . S
H162 C114 0.929 . S
H163 C115 0.930 . S
H164 C122 0.929 . S
H165 C123 0.930 . S
H166 C124 0.930 . S
H167 C125 0.930 . S
H168 C127 0.929 . S
H169 C128 0.930 . S
H170 C129 0.930 . S
H171 C130 0.930 . S
H172 C134 0.929 . S
H173 C136 0.930 . S
H174 C142 0.929 . S
H175 C143 0.930 . S
Li176 N193 1.990 . S
Li176 O236 1.956 . S
Li176 O237 1.970 . S
Li176 O238 1.961 . S
Li177 N201 1.990 . S
Li177 O236 1.970 . S
Li177 O237 1.956 . S
Li177 O239 1.961 . S
Li178 N223 1.990 . S
Li178 O236 1.961 . S
Li178 O238 1.956 . S
Li178 O239 1.970 . S
Li179 N229 1.990 . S
Li179 O237 1.961 . S
Li179 O238 1.970 . S
Li179 O239 1.956 . S
C180 C182 1.348 . S
C180 C183 1.356 . S
C180 O236 1.325 . S
N181 C184 1.314 . S
N181 C185 1.279 . S
C182 C180 1.348 . S
C182 C184 1.353 . S
C182 H240 0.929 . S
C183 C180 1.356 . S
C183 C185 1.358 . S
C183 H241 0.930 . S
C184 N181 1.314 . S
C184 C182 1.353 . S
C184 H242 0.930 . S
C185 N181 1.279 . S
C185 C183 1.358 . S
C185 H243 0.930 . S
C186 C189 1.348 . S
C186 C190 1.356 . S
C186 O237 1.325 . S
C187 N188 1.279 . S
C187 C190 1.358 . S
C187 H244 0.930 . S
N188 C187 1.279 . S
N188 C191 1.314 . S
C189 C186 1.348 . S
C189 C191 1.353 . S
C189 H245 0.929 . S
C190 C186 1.356 . S
C190 C187 1.358 . S
C190 H246 0.930 . S
C191 N188 1.314 . S
C191 C189 1.353 . S
C191 H247 0.930 . S
C192 N193 1.314 . S
C192 C197 1.353 . S
C192 H198 0.930 . S
N193 Li176 1.990 . S
N193 C192 1.314 . S
N193 C195 1.279 . S
C194 C195 1.358 . S
C194 C196 1.356 . S
C194 H248 0.930 . S
C195 N193 1.279 . S
C195 C194 1.358 . S
C195 H199 0.930 . S
C196 C194 1.356 . S
C196 C197 1.348 . S
C197 C192 1.353 . S
C197 C196 1.348 . S
C197 H249 0.929 . S
H198 C192 0.930 . S
H199 C195 0.930 . S
C200 N201 1.314 . S
C200 C202 1.353 . S
C200 H206 0.930 . S
N201 Li177 1.990 . S
N201 C200 1.314 . S
N201 C204 1.279 . S
C202 C200 1.353 . S
C202 C205 1.348 . S
C202 H250 0.929 . S
C203 C204 1.358 . S
C203 C205 1.356 . S
C203 H251 0.930 . S
C204 N201 1.279 . S
C204 C203 1.358 . S
C204 H207 0.930 . S
C205 C202 1.348 . S
C205 C203 1.356 . S
H206 C200 0.930 . S
H207 C204 0.930 . S
C208 C210 1.348 . S
C208 C211 1.356 . S
C208 O238 1.325 . S
N209 C212 1.314 . S
N209 C213 1.279 . S
C210 C208 1.348 . S
C210 C212 1.353 . S
C210 H252 0.929 . S
C211 C208 1.356 . S
C211 C213 1.358 . S
C211 H253 0.930 . S
C212 N209 1.314 . S
C212 C210 1.353 . S
C212 H254 0.930 . S
C213 N209 1.279 . S
C213 C211 1.358 . S
C213 H255 0.930 . S
C214 C215 1.348 . S
C214 C216 1.356 . S
C214 O239 1.325 . S
C215 C214 1.348 . S
C215 C217 1.353 . S
C215 H256 0.929 . S
C216 C214 1.356 . S
C216 C218 1.358 . S
C216 H257 0.930 . S
C217 C215 1.353 . S
C217 N219 1.314 . S
C217 H258 0.930 . S
C218 C216 1.358 . S
C218 N219 1.279 . S
C218 H259 0.930 . S
N219 C217 1.314 . S
N219 C218 1.279 . S
C220 C222 1.353 . S
C220 N223 1.314 . S
C220 H226 0.930 . S
C221 N223 1.279 . S
C221 C224 1.358 . S
C221 H227 0.930 . S
C222 C220 1.353 . S
C222 C225 1.348 . S
C222 H260 0.929 . S
N223 Li178 1.990 . S
N223 C220 1.314 . S
N223 C221 1.279 . S
C224 C221 1.358 . S
C224 C225 1.356 . S
C224 H261 0.930 . S
C225 C222 1.348 . S
C225 C224 1.356 . S
H226 C220 0.930 . S
H227 C221 0.930 . S
C228 N229 1.314 . S
C228 C230 1.353 . S
C228 H234 0.930 . S
N229 Li179 1.990 . S
N229 C228 1.314 . S
N229 C232 1.279 . S
C230 C228 1.353 . S
C230 C233 1.348 . S
C230 H262 0.929 . S
C231 C232 1.358 . S
C231 C233 1.356 . S
C231 H263 0.930 . S
C232 N229 1.279 . S
C232 C231 1.358 . S
C232 H235 0.930 . S
C233 C230 1.348 . S
C233 C231 1.356 . S
H234 C228 0.930 . S
H235 C232 0.930 . S
O236 Li176 1.956 . S
O236 Li177 1.970 . S
O236 Li178 1.961 . S
O236 C180 1.325 . S
O237 Li176 1.970 . S
O237 Li177 1.956 . S
O237 Li179 1.961 . S
O237 C186 1.325 . S
O238 Li176 1.961 . S
O238 Li178 1.956 . S
O238 Li179 1.970 . S
O238 C208 1.325 . S
O239 Li177 1.961 . S
O239 Li178 1.970 . S
O239 Li179 1.956 . S
O239 C214 1.325 . S
H240 C182 0.929 . S
H241 C183 0.930 . S
H242 C184 0.930 . S
H243 C185 0.930 . S
H244 C187 0.930 . S
H245 C189 0.929 . S
H246 C190 0.930 . S
H247 C191 0.930 . S
H248 C194 0.930 . S
H249 C197 0.929 . S
H250 C202 0.929 . S
H251 C203 0.930 . S
H252 C210 0.929 . S
H253 C211 0.930 . S
H254 C212 0.930 . S
H255 C213 0.930 . S
H256 C215 0.929 . S
H257 C216 0.930 . S
H258 C217 0.930 . S
H259 C218 0.930 . S
H260 C222 0.929 . S
H261 C224 0.930 . S
H262 C230 0.929 . S
H263 C231 0.930 . S
Li264 N281 1.990 . S
Li264 O324 1.956 . S
Li264 O325 1.970 . S
Li264 O326 1.961 . S
Li265 N289 1.990 . S
Li265 O324 1.970 . S
Li265 O325 1.956 . S
Li265 O327 1.961 . S
Li266 N311 1.990 . S
Li266 O324 1.961 . S
Li266 O326 1.956 . S
Li266 O327 1.970 . S
Li267 N317 1.990 . S
Li267 O325 1.961 . S
Li267 O326 1.970 . S
Li267 O327 1.956 . S
C268 C270 1.348 . S
C268 C271 1.356 . S
C268 O324 1.325 . S
N269 C272 1.314 . S
N269 C273 1.279 . S
C270 C268 1.348 . S
C270 C272 1.353 . S
C270 H328 0.929 . S
C271 C268 1.356 . S
C271 C273 1.358 . S
C271 H329 0.930 . S
C272 N269 1.314 . S
C272 C270 1.353 . S
C272 H330 0.930 . S
C273 N269 1.279 . S
C273 C271 1.358 . S
C273 H331 0.930 . S
C274 C277 1.348 . S
C274 C278 1.356 . S
C274 O325 1.325 . S
C275 N276 1.279 . S
C275 C278 1.358 . S
C275 H332 0.930 . S
N276 C275 1.279 . S
N276 C279 1.314 . S
C277 C274 1.348 . S
C277 C279 1.353 . S
C277 H333 0.929 . S
C278 C274 1.356 . S
C278 C275 1.358 . S
C278 H334 0.930 . S
C279 N276 1.314 . S
C279 C277 1.353 . S
C279 H335 0.930 . S
C280 N281 1.314 . S
C280 C285 1.353 . S
C280 H286 0.930 . S
N281 Li264 1.990 . S
N281 C280 1.314 . S
N281 C283 1.279 . S
C282 C283 1.358 . S
C282 C284 1.356 . S
C282 H336 0.930 . S
C283 N281 1.279 . S
C283 C282 1.358 . S
C283 H287 0.930 . S
C284 C282 1.356 . S
C284 C285 1.348 . S
C285 C280 1.353 . S
C285 C284 1.348 . S
C285 H337 0.929 . S
H286 C280 0.930 . S
H287 C283 0.930 . S
C288 N289 1.314 . S
C288 C290 1.353 . S
C288 H294 0.930 . S
N289 Li265 1.990 . S
N289 C288 1.314 . S
N289 C292 1.279 . S
C290 C288 1.353 . S
C290 C293 1.348 . S
C290 H338 0.929 . S
C291 C292 1.358 . S
C291 C293 1.356 . S
C291 H339 0.930 . S
C292 N289 1.279 . S
C292 C291 1.358 . S
C292 H295 0.930 . S
C293 C290 1.348 . S
C293 C291 1.356 . S
H294 C288 0.930 . S
H295 C292 0.930 . S
C296 C298 1.348 . S
C296 C299 1.356 . S
C296 O326 1.325 . S
N297 C300 1.314 . S
N297 C301 1.279 . S
C298 C296 1.348 . S
C298 C300 1.353 . S
C298 H340 0.929 . S
C299 C296 1.356 . S
C299 C301 1.358 . S
C299 H341 0.930 . S
C300 N297 1.314 . S
C300 C298 1.353 . S
C300 H342 0.930 . S
C301 N297 1.279 . S
C301 C299 1.358 . S
C301 H343 0.930 . S
C302 C303 1.348 . S
C302 C304 1.356 . S
C302 O327 1.325 . S
C303 C302 1.348 . S
C303 C305 1.353 . S
C303 H344 0.929 . S
C304 C302 1.356 . S
C304 C306 1.358 . S
C304 H345 0.930 . S
C305 C303 1.353 . S
C305 N307 1.314 . S
C305 H346 0.930 . S
C306 C304 1.358 . S
C306 N307 1.279 . S
C306 H347 0.930 . S
N307 C305 1.314 . S
N307 C306 1.279 . S
C308 C310 1.353 . S
C308 N311 1.314 . S
C308 H314 0.930 . S
C309 N311 1.279 . S
C309 C312 1.358 . S
C309 H315 0.930 . S
C310 C308 1.353 . S
C310 C313 1.348 . S
C310 H348 0.929 . S
N311 Li266 1.990 . S
N311 C308 1.314 . S
N311 C309 1.279 . S
C312 C309 1.358 . S
C312 C313 1.356 . S
C312 H349 0.930 . S
C313 C310 1.348 . S
C313 C312 1.356 . S
H314 C308 0.930 . S
H315 C309 0.930 . S
C316 N317 1.314 . S
C316 C318 1.353 . S
C316 H322 0.930 . S
N317 Li267 1.990 . S
N317 C316 1.314 . S
N317 C320 1.279 . S
C318 C316 1.353 . S
C318 C321 1.348 . S
C318 H350 0.929 . S
C319 C320 1.358 . S
C319 C321 1.356 . S
C319 H351 0.930 . S
C320 N317 1.279 . S
C320 C319 1.358 . S
C320 H323 0.930 . S
C321 C318 1.348 . S
C321 C319 1.356 . S
H322 C316 0.930 . S
H323 C320 0.930 . S
O324 Li264 1.956 . S
O324 Li265 1.970 . S
O324 Li266 1.961 . S
O324 C268 1.325 . S
O325 Li264 1.970 . S
O325 Li265 1.956 . S
O325 Li267 1.961 . S
O325 C274 1.325 . S
O326 Li264 1.961 . S
O326 Li266 1.956 . S
O326 Li267 1.970 . S
O326 C296 1.325 . S
O327 Li265 1.961 . S
O327 Li266 1.970 . S
O327 Li267 1.956 . S
O327 C302 1.325 . S
H328 C270 0.929 . S
H329 C271 0.930 . S
H330 C272 0.930 . S
H331 C273 0.930 . S
H332 C275 0.930 . S
H333 C277 0.929 . S
H334 C278 0.930 . S
H335 C279 0.930 . S
H336 C282 0.930 . S
H337 C285 0.929 . S
H338 C290 0.929 . S
H339 C291 0.930 . S
H340 C298 0.929 . S
H341 C299 0.930 . S
H342 C300 0.930 . S
H343 C301 0.930 . S
H344 C303 0.929 . S
H345 C304 0.930 . S
H346 C305 0.930 . S
H347 C306 0.930 . S
H348 C310 0.929 . S
H349 C312 0.930 . S
H350 C318 0.929 . S
H351 C319 0.930 . S
Li352 N369 1.990 . S
Li352 O412 1.956 . S
Li352 O413 1.970 . S
Li352 O414 1.961 . S
Li353 N377 1.990 . S
Li353 O412 1.970 . S
Li353 O413 1.956 . S
Li353 O415 1.961 . S
Li354 N399 1.990 . S
Li354 O412 1.961 . S
Li354 O414 1.956 . S
Li354 O415 1.970 . S
Li355 N405 1.990 . S
Li355 O413 1.961 . S
Li355 O414 1.970 . S
Li355 O415 1.956 . S
C356 C358 1.348 . S
C356 C359 1.356 . S
C356 O412 1.325 . S
N357 C360 1.314 . S
N357 C361 1.279 . S
C358 C356 1.348 . S
C358 C360 1.353 . S
C358 H416 0.929 . S
C359 C356 1.356 . S
C359 C361 1.358 . S
C359 H417 0.930 . S
C360 N357 1.314 . S
C360 C358 1.353 . S
C360 H418 0.930 . S
C361 N357 1.279 . S
C361 C359 1.358 . S
C361 H419 0.930 . S
C362 C365 1.348 . S
C362 C366 1.356 . S
C362 O413 1.325 . S
C363 N364 1.279 . S
C363 C366 1.358 . S
C363 H420 0.930 . S
N364 C363 1.279 . S
N364 C367 1.314 . S
C365 C362 1.348 . S
C365 C367 1.353 . S
C365 H421 0.929 . S
C366 C362 1.356 . S
C366 C363 1.358 . S
C366 H422 0.930 . S
C367 N364 1.314 . S
C367 C365 1.353 . S
C367 H423 0.930 . S
C368 N369 1.314 . S
C368 C373 1.353 . S
C368 H374 0.930 . S
N369 Li352 1.990 . S
N369 C368 1.314 . S
N369 C371 1.279 . S
C370 C371 1.358 . S
C370 C372 1.356 . S
C370 H424 0.930 . S
C371 N369 1.279 . S
C371 C370 1.358 . S
C371 H375 0.930 . S
C372 C370 1.356 . S
C372 C373 1.348 . S
C373 C368 1.353 . S
C373 C372 1.348 . S
C373 H425 0.929 . S
H374 C368 0.930 . S
H375 C371 0.930 . S
C376 N377 1.314 . S
C376 C378 1.353 . S
C376 H382 0.930 . S
N377 Li353 1.990 . S
N377 C376 1.314 . S
N377 C380 1.279 . S
C378 C376 1.353 . S
C378 C381 1.348 . S
C378 H426 0.929 . S
C379 C380 1.358 . S
C379 C381 1.356 . S
C379 H427 0.930 . S
C380 N377 1.279 . S
C380 C379 1.358 . S
C380 H383 0.930 . S
C381 C378 1.348 . S
C381 C379 1.356 . S
H382 C376 0.930 . S
H383 C380 0.930 . S
C384 C386 1.348 . S
C384 C387 1.356 . S
C384 O414 1.325 . S
N385 C388 1.314 . S
N385 C389 1.279 . S
C386 C384 1.348 . S
C386 C388 1.353 . S
C386 H428 0.929 . S
C387 C384 1.356 . S
C387 C389 1.358 . S
C387 H429 0.930 . S
C388 N385 1.314 . S
C388 C386 1.353 . S
C388 H430 0.930 . S
C389 N385 1.279 . S
C389 C387 1.358 . S
C389 H431 0.930 . S
C390 C391 1.348 . S
C390 C392 1.356 . S
C390 O415 1.325 . S
C391 C390 1.348 . S
C391 C393 1.353 . S
C391 H432 0.929 . S
C392 C390 1.356 . S
C392 C394 1.358 . S
C392 H433 0.930 . S
C393 C391 1.353 . S
C393 N395 1.314 . S
C393 H434 0.930 . S
C394 C392 1.358 . S
C394 N395 1.279 . S
C394 H435 0.930 . S
N395 C393 1.314 . S
N395 C394 1.279 . S
C396 C398 1.353 . S
C396 N399 1.314 . S
C396 H402 0.930 . S
C397 N399 1.279 . S
C397 C400 1.358 . S
C397 H403 0.930 . S
C398 C396 1.353 . S
C398 C401 1.348 . S
C398 H436 0.929 . S
N399 Li354 1.990 . S
N399 C396 1.314 . S
N399 C397 1.279 . S
C400 C397 1.358 . S
C400 C401 1.356 . S
C400 H437 0.930 . S
C401 C398 1.348 . S
C401 C400 1.356 . S
H402 C396 0.930 . S
H403 C397 0.930 . S
C404 N405 1.314 . S
C404 C406 1.353 . S
C404 H410 0.930 . S
N405 Li355 1.990 . S
N405 C404 1.314 . S
N405 C408 1.279 . S
C406 C404 1.353 . S
C406 C409 1.348 . S
C406 H438 0.929 . S
C407 C408 1.358 . S
C407 C409 1.356 . S
C407 H439 0.930 . S
C408 N405 1.279 . S
C408 C407 1.358 . S
C408 H411 0.930 . S
C409 C406 1.348 . S
C409 C407 1.356 . S
H410 C404 0.930 . S
H411 C408 0.930 . S
O412 Li352 1.956 . S
O412 Li353 1.970 . S
O412 Li354 1.961 . S
O412 C356 1.325 . S
O413 Li352 1.970 . S
O413 Li353 1.956 . S
O413 Li355 1.961 . S
O413 C362 1.325 . S
O414 Li352 1.961 . S
O414 Li354 1.956 . S
O414 Li355 1.970 . S
O414 C384 1.325 . S
O415 Li353 1.961 . S
O415 Li354 1.970 . S
O415 Li355 1.956 . S
O415 C390 1.325 . S
H416 C358 0.929 . S
H417 C359 0.930 . S
H418 C360 0.930 . S
H419 C361 0.930 . S
H420 C363 0.930 . S
H421 C365 0.929 . S
H422 C366 0.930 . S
H423 C367 0.930 . S
H424 C370 0.930 . S
H425 C373 0.929 . S
H426 C378 0.929 . S
H427 C379 0.930 . S
H428 C386 0.929 . S
H429 C387 0.930 . S
H430 C388 0.930 . S
H431 C389 0.930 . S
H432 C391 0.929 . S
H433 C392 0.930 . S
H434 C393 0.930 . S
H435 C394 0.930 . S
H436 C398 0.929 . S
H437 C400 0.930 . S
H438 C406 0.929 . S
H439 C407 0.930 . S
Li440 N457 1.990 . S
Li440 O500 1.956 . S
Li440 O501 1.970 . S
Li440 O502 1.961 . S
Li441 N465 1.990 . S
Li441 O500 1.970 . S
Li441 O501 1.956 . S
Li441 O503 1.961 . S
Li442 N487 1.990 . S
Li442 O500 1.961 . S
Li442 O502 1.956 . S
Li442 O503 1.970 . S
Li443 N493 1.990 . S
Li443 O501 1.961 . S
Li443 O502 1.970 . S
Li443 O503 1.956 . S
C444 C446 1.348 . S
C444 C447 1.356 . S
C444 O500 1.325 . S
N445 C448 1.314 . S
N445 C449 1.279 . S
C446 C444 1.348 . S
C446 C448 1.353 . S
C446 H504 0.929 . S
C447 C444 1.356 . S
C447 C449 1.358 . S
C447 H505 0.930 . S
C448 N445 1.314 . S
C448 C446 1.353 . S
C448 H506 0.930 . S
C449 N445 1.279 . S
C449 C447 1.358 . S
C449 H507 0.930 . S
C450 C453 1.348 . S
C450 C454 1.356 . S
C450 O501 1.325 . S
C451 N452 1.279 . S
C451 C454 1.358 . S
C451 H508 0.930 . S
N452 C451 1.279 . S
N452 C455 1.314 . S
C453 C450 1.348 . S
C453 C455 1.353 . S
C453 H509 0.929 . S
C454 C450 1.356 . S
C454 C451 1.358 . S
C454 H510 0.930 . S
C455 N452 1.314 . S
C455 C453 1.353 . S
C455 H511 0.930 . S
C456 N457 1.314 . S
C456 C461 1.353 . S
C456 H462 0.930 . S
N457 Li440 1.990 . S
N457 C456 1.314 . S
N457 C459 1.279 . S
C458 C459 1.358 . S
C458 C460 1.356 . S
C458 H512 0.930 . S
C459 N457 1.279 . S
C459 C458 1.358 . S
C459 H463 0.930 . S
C460 C458 1.356 . S
C460 C461 1.348 . S
C461 C456 1.353 . S
C461 C460 1.348 . S
C461 H513 0.929 . S
H462 C456 0.930 . S
H463 C459 0.930 . S
C464 N465 1.314 . S
C464 C466 1.353 . S
C464 H470 0.930 . S
N465 Li441 1.990 . S
N465 C464 1.314 . S
N465 C468 1.279 . S
C466 C464 1.353 . S
C466 C469 1.348 . S
C466 H514 0.929 . S
C467 C468 1.358 . S
C467 C469 1.356 . S
C467 H515 0.930 . S
C468 N465 1.279 . S
C468 C467 1.358 . S
C468 H471 0.930 . S
C469 C466 1.348 . S
C469 C467 1.356 . S
H470 C464 0.930 . S
H471 C468 0.930 . S
C472 C474 1.348 . S
C472 C475 1.356 . S
C472 O502 1.325 . S
N473 C476 1.314 . S
N473 C477 1.279 . S
C474 C472 1.348 . S
C474 C476 1.353 . S
C474 H516 0.929 . S
C475 C472 1.356 . S
C475 C477 1.358 . S
C475 H517 0.930 . S
C476 N473 1.314 . S
C476 C474 1.353 . S
C476 H518 0.930 . S
C477 N473 1.279 . S
C477 C475 1.358 . S
C477 H519 0.930 . S
C478 C479 1.348 . S
C478 C480 1.356 . S
C478 O503 1.325 . S
C479 C478 1.348 . S
C479 C481 1.353 1_556 S
C479 H520 0.929 . S
C480 C478 1.356 . S
C480 C482 1.358 . S
C480 H521 0.930 . S
C481 C479 1.353 1_554 S
C481 N483 1.314 . S
C481 H522 0.930 . S
C482 C480 1.358 . S
C482 N483 1.279 1_556 S
C482 H523 0.930 . S
N483 C481 1.314 . S
N483 C482 1.279 1_554 S
C484 C486 1.353 1_556 S
C484 N487 1.314 . S
C484 H490 0.930 . S
C485 N487 1.279 . S
C485 C488 1.358 1_556 S
C485 H491 0.930 . S
C486 C484 1.353 1_554 S
C486 C489 1.348 . S
C486 H524 0.929 . S
N487 Li442 1.990 . S
N487 C484 1.314 . S
N487 C485 1.279 . S
C488 C485 1.358 1_554 S
C488 C489 1.356 . S
C488 H525 0.930 . S
C489 C486 1.348 . S
C489 C488 1.356 . S
H490 C484 0.930 . S
H491 C485 0.930 . S
C492 N493 1.314 . S
C492 C494 1.353 . S
C492 H498 0.930 . S
N493 Li443 1.990 . S
N493 C492 1.314 . S
N493 C496 1.279 . S
C494 C492 1.353 . S
C494 C497 1.348 . S
C494 H526 0.929 . S
C495 C496 1.358 . S
C495 C497 1.356 . S
C495 H527 0.930 . S
C496 N493 1.279 . S
C496 C495 1.358 . S
C496 H499 0.930 . S
C497 C494 1.348 . S
C497 C495 1.356 . S
H498 C492 0.930 . S
H499 C496 0.930 . S
O500 Li440 1.956 . S
O500 Li441 1.970 . S
O500 Li442 1.961 . S
O500 C444 1.325 . S
O501 Li440 1.970 . S
O501 Li441 1.956 . S
O501 Li443 1.961 . S
O501 C450 1.325 . S
O502 Li440 1.961 . S
O502 Li442 1.956 . S
O502 Li443 1.970 . S
O502 C472 1.325 . S
O503 Li441 1.961 . S
O503 Li442 1.970 . S
O503 Li443 1.956 . S
O503 C478 1.325 . S
H504 C446 0.929 . S
H505 C447 0.930 . S
H506 C448 0.930 . S
H507 C449 0.930 . S
H508 C451 0.930 . S
H509 C453 0.929 . S
H510 C454 0.930 . S
H511 C455 0.930 . S
H512 C458 0.930 . S
H513 C461 0.929 . S
H514 C466 0.929 . S
H515 C467 0.930 . S
H516 C474 0.929 . S
H517 C475 0.930 . S
H518 C476 0.930 . S
H519 C477 0.930 . S
H520 C479 0.929 . S
H521 C480 0.930 . S
H522 C481 0.930 . S
H523 C482 0.930 . S
H524 C486 0.929 . S
H525 C488 0.930 . S
H526 C494 0.929 . S
H527 C495 0.930 . S
Li528 N545 1.990 . S
Li528 O588 1.956 . S
Li528 O589 1.970 . S
Li528 O590 1.961 . S
Li529 N553 1.990 . S
Li529 O588 1.970 . S
Li529 O589 1.956 . S
Li529 O591 1.961 . S
Li530 N575 1.990 . S
Li530 O588 1.961 . S
Li530 O590 1.956 . S
Li530 O591 1.970 . S
Li531 N581 1.990 . S
Li531 O589 1.961 . S
Li531 O590 1.970 . S
Li531 O591 1.956 . S
C532 C534 1.348 . S
C532 C535 1.356 . S
C532 O588 1.325 . S
N533 C536 1.315 . S
N533 C537 1.270 1_554 S
C534 C532 1.348 . S
C534 C536 1.353 1_556 S
C534 H592 0.929 . S
C535 C532 1.356 . S
C535 C537 1.358 . S
C535 H593 0.930 . S
C536 N533 1.315 . S
C536 C534 1.353 1_554 S
C536 H594 0.930 . S
C537 N533 1.270 1_556 S
C537 C535 1.358 . S
C537 H595 0.930 . S
C538 C541 1.348 . S
C538 C542 1.356 . S
C538 O589 1.325 . S
C539 N540 1.279 . S
C539 C542 1.358 . S
C539 H596 0.930 . S
N540 C539 1.279 . S
N540 C543 1.314 . S
C541 C538 1.348 . S
C541 C543 1.353 . S
C541 H597 0.929 . S
C542 C538 1.356 . S
C542 C539 1.358 . S
C542 H598 0.930 . S
C543 N540 1.314 . S
C543 C541 1.353 . S
C543 H599 0.930 . S
C544 N545 1.314 . S
C544 C549 1.353 . S
C544 H550 0.930 . S
N545 Li528 1.990 . S
N545 C544 1.314 . S
N545 C547 1.279 . S
C546 C547 1.358 . S
C546 C548 1.356 . S
C546 H600 0.930 . S
C547 N545 1.279 . S
C547 C546 1.358 . S
C547 H551 0.930 . S
C548 C546 1.356 . S
C548 C549 1.348 . S
C549 C544 1.353 . S
C549 C548 1.348 . S
C549 H601 0.929 . S
H550 C544 0.930 . S
H551 C547 0.930 . S
C552 N553 1.314 . S
C552 C554 1.353 1_556 S
C552 H558 0.930 . S
N553 Li529 1.990 . S
N553 C552 1.314 . S
N553 C556 1.279 . S
C554 C552 1.353 1_554 S
C554 C557 1.348 . S
C554 H602 0.929 . S
C555 C556 1.358 1_554 S
C555 C557 1.356 . S
C555 H603 0.930 . S
C556 N553 1.279 . S
C556 C555 1.358 1_556 S
C556 H559 0.930 . S
C557 C554 1.348 . S
C557 C555 1.356 . S
H558 C552 0.930 . S
H559 C556 0.930 . S
C560 C562 1.348 . S
C560 C563 1.356 . S
C560 O590 1.325 . S
N561 C564 1.314 . S
N561 C565 1.279 . S
C562 C560 1.348 . S
C562 C564 1.353 . S
C562 H604 0.929 . S
C563 C560 1.356 . S
C563 C565 1.358 . S
C563 H605 0.930 . S
C564 N561 1.314 . S
C564 C562 1.353 . S
C564 H606 0.930 . S
C565 N561 1.279 . S
C565 C563 1.358 . S
C565 H607 0.930 . S
C566 C567 1.348 . S
C566 C568 1.356 . S
C566 O591 1.325 . S
C567 C566 1.348 . S
C567 C569 1.353 . S
C567 H608 0.929 . S
C568 C566 1.356 . S
C568 C570 1.358 . S
C568 H609 0.930 . S
C569 C567 1.353 . S
C569 N571 1.314 . S
C569 H610 0.930 . S
C570 C568 1.358 . S
C570 N571 1.279 . S
C570 H611 0.930 . S
N571 C569 1.314 . S
N571 C570 1.279 . S
C572 C574 1.353 . S
C572 N575 1.314 . S
C572 H578 0.930 . S
C573 N575 1.279 . S
C573 C576 1.358 . S
C573 H579 0.930 . S
C574 C572 1.353 . S
C574 C577 1.348 . S
C574 H612 0.929 . S
N575 Li530 1.990 . S
N575 C572 1.314 . S
N575 C573 1.279 . S
C576 C573 1.358 . S
C576 C577 1.356 . S
C576 H613 0.930 . S
C577 C574 1.348 . S
C577 C576 1.356 . S
H578 C572 0.930 . S
H579 C573 0.930 . S
C580 N581 1.314 . S
C580 C582 1.353 . S
C580 H586 0.930 . S
N581 Li531 1.990 . S
N581 C580 1.314 . S
N581 C584 1.279 . S
C582 C580 1.353 . S
C582 C585 1.348 . S
C582 H614 0.929 . S
C583 C584 1.358 . S
C583 C585 1.356 . S
C583 H615 0.930 . S
C584 N581 1.279 . S
C584 C583 1.358 . S
C584 H587 0.930 . S
C585 C582 1.348 . S
C585 C583 1.356 . S
H586 C580 0.930 . S
H587 C584 0.930 . S
O588 Li528 1.956 . S
O588 Li529 1.970 . S
O588 Li530 1.961 . S
O588 C532 1.325 . S
O589 Li528 1.970 . S
O589 Li529 1.956 . S
O589 Li531 1.961 . S
O589 C538 1.325 . S
O590 Li528 1.961 . S
O590 Li530 1.956 . S
O590 Li531 1.970 . S
O590 C560 1.325 . S
O591 Li529 1.961 . S
O591 Li530 1.970 . S
O591 Li531 1.956 . S
O591 C566 1.325 . S
H592 C534 0.929 . S
H593 C535 0.930 . S
H594 C536 0.930 . S
H595 C537 0.930 . S
H596 C539 0.930 . S
H597 C541 0.929 . S
H598 C542 0.930 . S
H599 C543 0.930 . S
H600 C546 0.930 . S
H601 C549 0.929 . S
H602 C554 0.929 . S
H603 C555 0.930 . S
H604 C562 0.929 . S
H605 C563 0.930 . S
H606 C564 0.930 . S
H607 C565 0.930 . S
H608 C567 0.929 . S
H609 C568 0.930 . S
H610 C569 0.930 . S
H611 C570 0.930 . S
H612 C574 0.929 . S
H613 C576 0.930 . S
H614 C582 0.929 . S
H615 C583 0.930 . S
Li616 N633 1.990 . S
Li616 O676 1.956 . S
Li616 O677 1.970 . S
Li616 O678 1.961 . S
Li617 N641 1.990 . S
Li617 O676 1.970 . S
Li617 O677 1.956 . S
Li617 O679 1.961 . S
Li618 N663 1.990 . S
Li618 O676 1.961 . S
Li618 O678 1.956 . S
Li618 O679 1.970 . S
Li619 N669 1.990 1_554 S
Li619 O677 1.961 . S
Li619 O678 1.970 . S
Li619 O679 1.956 . S
C620 C622 1.348 . S
C620 C623 1.356 . S
C620 O676 1.325 . S
N621 C624 1.314 . S
N621 C625 1.279 . S
C622 C620 1.348 . S
C622 C624 1.353 . S
C622 H680 0.929 . S
C623 C620 1.356 . S
C623 C625 1.358 . S
C623 H681 0.930 . S
C624 N621 1.314 . S
C624 C622 1.353 . S
C624 H682 0.930 . S
C625 N621 1.279 . S
C625 C623 1.358 . S
C625 H683 0.930 . S
C626 C629 1.348 . S
C626 C630 1.356 . S
C626 O677 1.325 . S
C627 N628 1.279 . S
C627 C630 1.358 . S
C627 H684 0.930 . S
N628 C627 1.279 . S
N628 C631 1.314 . S
C629 C626 1.348 . S
C629 C631 1.353 . S
C629 H685 0.929 . S
C630 C626 1.356 . S
C630 C627 1.358 . S
C630 H686 0.930 . S
C631 N628 1.314 . S
C631 C629 1.353 . S
C631 H687 0.930 . S
C632 N633 1.314 . S
C632 C637 1.353 . S
C632 H638 0.930 . S
N633 Li616 1.990 . S
N633 C632 1.314 . S
N633 C635 1.279 . S
C634 C635 1.358 . S
C634 C636 1.356 . S
C634 H688 0.930 . S
C635 N633 1.279 . S
C635 C634 1.358 . S
C635 H639 0.930 . S
C636 C634 1.356 . S
C636 C637 1.348 . S
C637 C632 1.353 . S
C637 C636 1.348 . S
C637 H689 0.929 . S
H638 C632 0.930 . S
H639 C635 0.930 . S
C640 N641 1.314 . S
C640 C642 1.353 . S
C640 H646 0.930 . S
N641 Li617 1.990 . S
N641 C640 1.314 . S
N641 C644 1.279 . S
C642 C640 1.353 . S
C642 C645 1.348 . S
C642 H690 0.929 . S
C643 C644 1.358 . S
C643 C645 1.356 . S
C643 H691 0.930 . S
C644 N641 1.279 . S
C644 C643 1.358 . S
C644 H647 0.930 . S
C645 C642 1.348 . S
C645 C643 1.356 . S
H646 C640 0.930 . S
H647 C644 0.930 . S
C648 C650 1.348 1_554 S
C648 C651 1.357 . S
C648 O678 1.325 . S
N649 C652 1.314 . S
N649 C653 1.279 . S
C650 C648 1.348 1_556 S
C650 C652 1.353 . S
C650 H692 0.929 . S
C651 C648 1.357 . S
C651 C653 1.334 1_554 S
C651 H693 0.954 . S
C652 N649 1.314 . S
C652 C650 1.353 . S
C652 H694 0.930 . S
C653 N649 1.279 . S
C653 C651 1.334 1_556 S
C653 H695 0.930 . S
C654 C655 1.348 . S
C654 C656 1.356 . S
C654 O679 1.325 . S
C655 C654 1.348 . S
C655 C657 1.353 . S
C655 H696 0.929 . S
C656 C654 1.356 . S
C656 C658 1.358 . S
C656 H697 0.930 . S
C657 C655 1.353 . S
C657 N659 1.314 . S
C657 H698 0.930 . S
C658 C656 1.358 . S
C658 N659 1.279 . S
C658 H699 0.930 . S
N659 C657 1.314 . S
N659 C658 1.279 . S
C660 C662 1.353 . S
C660 N663 1.314 . S
C660 H666 0.930 . S
C661 N663 1.279 . S
C661 C664 1.358 . S
C661 H667 0.930 . S
C662 C660 1.353 . S
C662 C665 1.348 . S
C662 H700 0.929 . S
N663 Li618 1.990 . S
N663 C660 1.314 . S
N663 C661 1.279 . S
C664 C661 1.358 . S
C664 C665 1.356 . S
C664 H701 0.930 . S
C665 C662 1.348 . S
C665 C664 1.356 . S
H666 C660 0.930 . S
H667 C661 0.930 . S
C668 N669 1.314 . S
C668 C670 1.353 . S
C668 H674 0.930 . S
N669 Li619 1.990 1_556 S
N669 C668 1.314 . S
N669 C672 1.279 . S
C670 C668 1.353 . S
C670 C673 1.348 . S
C670 H702 0.929 . S
C671 C672 1.358 . S
C671 C673 1.356 . S
C671 H703 0.930 . S
C672 N669 1.279 . S
C672 C671 1.358 . S
C672 H675 0.930 1_556 S
C673 C670 1.348 . S
C673 C671 1.356 . S
H674 C668 0.930 . S
H675 C672 0.930 1_554 S
O676 Li616 1.956 . S
O676 Li617 1.970 . S
O676 Li618 1.961 . S
O676 C620 1.325 . S
O677 Li616 1.970 . S
O677 Li617 1.956 . S
O677 Li619 1.961 . S
O677 C626 1.325 . S
O678 Li616 1.961 . S
O678 Li618 1.956 . S
O678 Li619 1.970 . S
O678 C648 1.325 . S
O679 Li617 1.961 . S
O679 Li618 1.970 . S
O679 Li619 1.956 . S
O679 C654 1.325 . S
H680 C622 0.929 . S
H681 C623 0.930 . S
H682 C624 0.930 . S
H683 C625 0.930 . S
H684 C627 0.930 . S
H685 C629 0.929 . S
H686 C630 0.930 . S
H687 C631 0.930 . S
H688 C634 0.930 . S
H689 C637 0.929 . S
H690 C642 0.929 . S
H691 C643 0.930 . S
H692 C650 0.929 . S
H693 C651 0.954 . S
H694 C652 0.930 . S
H695 C653 0.930 . S
H696 C655 0.929 . S
H697 C656 0.930 . S
H698 C657 0.930 . S
H699 C658 0.930 . S
H700 C662 0.929 . S
H701 C664 0.930 . S
H702 C670 0.929 . S
H703 C671 0.930 . S
Li704 N721 1.990 . S
Li704 O764 1.956 . S
Li704 O765 1.970 . S
Li704 O766 1.961 . S
Li705 N729 1.990 . S
Li705 O764 1.970 . S
Li705 O765 1.956 . S
Li705 O767 1.961 . S
Li706 N751 1.990 . S
Li706 O764 1.961 . S
Li706 O766 1.956 . S
Li706 O767 1.970 . S
Li707 N757 1.990 . S
Li707 O765 1.961 . S
Li707 O766 1.970 . S
Li707 O767 1.956 . S
C708 C710 1.348 . S
C708 C711 1.356 . S
C708 O764 1.325 . S
N709 C712 1.314 . S
N709 C713 1.279 . S
C710 C708 1.348 . S
C710 C712 1.353 . S
C710 H768 0.929 . S
C711 C708 1.356 . S
C711 C713 1.358 . S
C711 H769 0.930 . S
C712 N709 1.314 . S
C712 C710 1.353 . S
C712 H770 0.930 . S
C713 N709 1.279 . S
C713 C711 1.358 . S
C713 H771 0.930 . S
C714 C717 1.348 . S
C714 C718 1.356 . S
C714 O765 1.325 . S
C715 N716 1.279 . S
C715 C718 1.358 . S
C715 H772 0.930 . S
N716 C715 1.279 . S
N716 C719 1.314 . S
C717 C714 1.348 . S
C717 C719 1.353 . S
C717 H773 0.929 . S
C718 C714 1.356 . S
C718 C715 1.358 . S
C718 H774 0.930 . S
C719 N716 1.314 . S
C719 C717 1.353 . S
C719 H775 0.930 . S
C720 N721 1.314 . S
C720 C725 1.353 . S
C720 H726 0.930 . S
N721 Li704 1.990 . S
N721 C720 1.314 . S
N721 C723 1.279 . S
C722 C723 1.358 . S
C722 C724 1.356 . S
C722 H776 0.930 . S
C723 N721 1.279 . S
C723 C722 1.358 . S
C723 H727 0.930 . S
C724 C722 1.356 . S
C724 C725 1.348 . S
C725 C720 1.353 . S
C725 C724 1.348 . S
C725 H777 0.929 . S
H726 C720 0.930 . S
H727 C723 0.930 . S
C728 N729 1.314 . S
C728 C730 1.353 . S
C728 H734 0.930 . S
N729 Li705 1.990 . S
N729 C728 1.314 . S
N729 C732 1.279 . S
C730 C728 1.353 . S
C730 C733 1.348 . S
C730 H778 0.929 . S
C731 C732 1.358 . S
C731 C733 1.356 . S
C731 H779 0.930 . S
C732 N729 1.279 . S
C732 C731 1.358 . S
C732 H735 0.930 . S
C733 C730 1.348 . S
C733 C731 1.356 . S
H734 C728 0.930 . S
H735 C732 0.930 . S
C736 C738 1.348 . S
C736 C739 1.356 . S
C736 O766 1.325 . S
N737 C740 1.314 . S
N737 C741 1.279 . S
C738 C736 1.348 . S
C738 C740 1.353 . S
C738 H780 0.929 . S
C739 C736 1.356 . S
C739 C741 1.358 . S
C739 H781 0.930 . S
C740 N737 1.314 . S
C740 C738 1.353 . S
C740 H782 0.930 . S
C741 N737 1.279 . S
C741 C739 1.358 . S
C741 H783 0.930 . S
C742 C743 1.348 . S
C742 C744 1.356 . S
C742 O767 1.325 . S
C743 C742 1.348 . S
C743 C745 1.353 . S
C743 H784 0.929 . S
C744 C742 1.356 . S
C744 C746 1.358 . S
C744 H785 0.930 . S
C745 C743 1.353 . S
C745 N747 1.314 . S
C745 H786 0.930 . S
C746 C744 1.358 . S
C746 N747 1.279 . S
C746 H787 0.930 . S
N747 C745 1.314 . S
N747 C746 1.279 . S
C748 C750 1.353 . S
C748 N751 1.314 . S
C748 H754 0.930 . S
C749 N751 1.279 . S
C749 C752 1.358 . S
C749 H755 0.930 . S
C750 C748 1.353 . S
C750 C753 1.348 . S
C750 H788 0.929 . S
N751 Li706 1.990 . S
N751 C748 1.314 . S
N751 C749 1.279 . S
C752 C749 1.358 . S
C752 C753 1.356 . S
C752 H789 0.930 . S
C753 C750 1.348 . S
C753 C752 1.356 . S
H754 C748 0.930 . S
H755 C749 0.930 . S
C756 N757 1.314 . S
C756 C758 1.353 . S
C756 H762 0.930 . S
N757 Li707 1.990 . S
N757 C756 1.314 . S
N757 C760 1.279 . S
C758 C756 1.353 . S
C758 C761 1.348 . S
C758 H790 0.929 . S
C759 C760 1.358 . S
C759 C761 1.356 . S
C759 H791 0.930 . S
C760 N757 1.279 . S
C760 C759 1.358 . S
C760 H763 0.930 . S
C761 C758 1.348 . S
C761 C759 1.356 . S
H762 C756 0.930 . S
H763 C760 0.930 . S
O764 Li704 1.956 . S
O764 Li705 1.970 . S
O764 Li706 1.961 . S
O764 C708 1.325 . S
O765 Li704 1.970 . S
O765 Li705 1.956 . S
O765 Li707 1.961 . S
O765 C714 1.325 . S
O766 Li704 1.961 . S
O766 Li706 1.956 . S
O766 Li707 1.970 . S
O766 C736 1.325 . S
O767 Li705 1.961 . S
O767 Li706 1.970 . S
O767 Li707 1.956 . S
O767 C742 1.325 . S
H768 C710 0.929 . S
H769 C711 0.930 . S
H770 C712 0.930 . S
H771 C713 0.930 . S
H772 C715 0.930 . S
H773 C717 0.929 . S
H774 C718 0.930 . S
H775 C719 0.930 . S
H776 C722 0.930 . S
H777 C725 0.929 . S
H778 C730 0.929 . S
H779 C731 0.930 . S
H780 C738 0.929 . S
H781 C739 0.930 . S
H782 C740 0.930 . S
H783 C741 0.930 . S
H784 C743 0.929 . S
H785 C744 0.930 . S
H786 C745 0.930 . S
H787 C746 0.930 . S
H788 C750 0.929 . S
H789 C752 0.930 . S
H790 C758 0.929 . S
H791 C759 0.930 . S
Li792 N809 1.990 . S
Li792 O852 1.956 . S
Li792 O853 1.970 . S
Li792 O854 1.961 . S
Li793 N817 1.990 . S
Li793 O852 1.970 . S
Li793 O853 1.956 . S
Li793 O855 1.961 . S
Li794 N839 1.990 . S
Li794 O852 1.961 . S
Li794 O854 1.956 . S
Li794 O855 1.970 . S
Li795 N845 1.990 . S
Li795 O853 1.961 . S
Li795 O854 1.970 . S
Li795 O855 1.956 . S
C796 C798 1.348 . S
C796 C799 1.356 . S
C796 O852 1.325 . S
N797 C800 1.314 . S
N797 C801 1.279 . S
C798 C796 1.348 . S
C798 C800 1.353 . S
C798 H856 0.929 . S
C799 C796 1.356 . S
C799 C801 1.358 . S
C799 H857 0.930 . S
C800 N797 1.314 . S
C800 C798 1.353 . S
C800 H858 0.930 . S
C801 N797 1.279 . S
C801 C799 1.358 . S
C801 H859 0.930 . S
C802 C805 1.348 . S
C802 C806 1.356 . S
C802 O853 1.325 . S
C803 N804 1.279 . S
C803 C806 1.358 . S
C803 H860 0.930 . S
N804 C803 1.279 . S
N804 C807 1.314 . S
C805 C802 1.348 . S
C805 C807 1.353 . S
C805 H861 0.929 . S
C806 C802 1.356 . S
C806 C803 1.358 . S
C806 H862 0.930 . S
C807 N804 1.314 . S
C807 C805 1.353 . S
C807 H863 0.930 . S
C808 N809 1.314 . S
C808 C813 1.353 . S
C808 H814 0.930 . S
N809 Li792 1.990 . S
N809 C808 1.314 . S
N809 C811 1.279 . S
C810 C811 1.358 . S
C810 C812 1.356 . S
C810 H864 0.930 . S
C811 N809 1.279 . S
C811 C810 1.358 . S
C811 H815 0.930 . S
C812 C810 1.356 . S
C812 C813 1.348 . S
C813 C808 1.353 . S
C813 C812 1.348 . S
C813 H865 0.929 . S
H814 C808 0.930 . S
H815 C811 0.930 . S
C816 N817 1.314 . S
C816 C818 1.353 . S
C816 H822 0.930 . S
N817 Li793 1.990 . S
N817 C816 1.314 . S
N817 C820 1.279 . S
C818 C816 1.353 . S
C818 C821 1.348 . S
C818 H866 0.929 . S
C819 C820 1.358 . S
C819 C821 1.356 . S
C819 H867 0.930 . S
C820 N817 1.279 . S
C820 C819 1.358 . S
C820 H823 0.930 . S
C821 C818 1.348 . S
C821 C819 1.356 . S
H822 C816 0.930 . S
H823 C820 0.930 . S
C824 C826 1.348 . S
C824 C827 1.356 . S
C824 O854 1.325 . S
N825 C828 1.314 . S
N825 C829 1.279 . S
C826 C824 1.348 . S
C826 C828 1.353 . S
C826 H868 0.929 . S
C827 C824 1.356 . S
C827 C829 1.358 . S
C827 H869 0.930 . S
C828 N825 1.314 . S
C828 C826 1.353 . S
C828 H870 0.930 . S
C829 N825 1.279 . S
C829 C827 1.358 . S
C829 H871 0.930 . S
C830 C831 1.348 . S
C830 C832 1.356 . S
C830 O855 1.325 . S
C831 C830 1.348 . S
C831 C833 1.353 . S
C831 H872 0.929 . S
C832 C830 1.356 . S
C832 C834 1.358 . S
C832 H873 0.930 . S
C833 C831 1.353 . S
C833 N835 1.314 . S
C833 H874 0.930 . S
C834 C832 1.358 . S
C834 N835 1.279 . S
C834 H875 0.930 . S
N835 C833 1.314 . S
N835 C834 1.279 . S
C836 C838 1.353 . S
C836 N839 1.314 . S
C836 H842 0.930 . S
C837 N839 1.279 . S
C837 C840 1.358 . S
C837 H843 0.930 . S
C838 C836 1.353 . S
C838 C841 1.348 . S
C838 H876 0.929 . S
N839 Li794 1.990 . S
N839 C836 1.314 . S
N839 C837 1.279 . S
C840 C837 1.358 . S
C840 C841 1.356 . S
C840 H877 0.930 . S
C841 C838 1.348 . S
C841 C840 1.356 . S
H842 C836 0.930 . S
H843 C837 0.930 . S
C844 N845 1.314 . S
C844 C846 1.353 . S
C844 H850 0.930 . S
N845 Li795 1.990 . S
N845 C844 1.314 . S
N845 C848 1.279 . S
C846 C844 1.353 . S
C846 C849 1.348 . S
C846 H878 0.929 . S
C847 C848 1.358 . S
C847 C849 1.356 . S
C847 H879 0.930 . S
C848 N845 1.279 . S
C848 C847 1.358 . S
C848 H851 0.930 . S
C849 C846 1.348 . S
C849 C847 1.356 . S
H850 C844 0.930 . S
H851 C848 0.930 . S
O852 Li792 1.956 . S
O852 Li793 1.970 . S
O852 Li794 1.961 . S
O852 C796 1.325 . S
O853 Li792 1.970 . S
O853 Li793 1.956 . S
O853 Li795 1.961 . S
O853 C802 1.325 . S
O854 Li792 1.961 . S
O854 Li794 1.956 . S
O854 Li795 1.970 . S
O854 C824 1.325 . S
O855 Li793 1.961 . S
O855 Li794 1.970 . S
O855 Li795 1.956 . S
O855 C830 1.325 . S
H856 C798 0.929 . S
H857 C799 0.930 . S
H858 C800 0.930 . S
H859 C801 0.930 . S
H860 C803 0.930 . S
H861 C805 0.929 . S
H862 C806 0.930 . S
H863 C807 0.930 . S
H864 C810 0.930 . S
H865 C813 0.929 . S
H866 C818 0.929 . S
H867 C819 0.930 . S
H868 C826 0.929 . S
H869 C827 0.930 . S
H870 C828 0.930 . S
H871 C829 0.930 . S
H872 C831 0.929 . S
H873 C832 0.930 . S
H874 C833 0.930 . S
H875 C834 0.930 . S
H876 C838 0.929 . S
H877 C840 0.930 . S
H878 C846 0.929 . S
H879 C847 0.930 . S
Li880 N897 1.990 . S
Li880 O940 1.956 . S
Li880 O941 1.970 . S
Li880 O942 1.961 . S
Li881 N905 1.990 . S
Li881 O940 1.970 . S
Li881 O941 1.956 . S
Li881 O943 1.961 . S
Li882 N927 1.990 . S
Li882 O940 1.961 . S
Li882 O942 1.956 . S
Li882 O943 1.970 . S
Li883 N933 1.990 . S
Li883 O941 1.961 . S
Li883 O942 1.970 . S
Li883 O943 1.956 . S
C884 C886 1.348 . S
C884 C887 1.356 . S
C884 O940 1.325 . S
N885 C888 1.314 . S
N885 C889 1.279 . S
C886 C884 1.348 . S
C886 C888 1.353 . S
C886 H944 0.929 . S
C887 C884 1.356 . S
C887 C889 1.358 . S
C887 H945 0.930 . S
C888 N885 1.314 . S
C888 C886 1.353 . S
C888 H946 0.930 . S
C889 N885 1.279 . S
C889 C887 1.358 . S
C889 H947 0.930 . S
C890 C893 1.348 . S
C890 C894 1.356 . S
C890 O941 1.325 . S
C891 N892 1.279 . S
C891 C894 1.358 . S
C891 H948 0.930 . S
N892 C891 1.279 . S
N892 C895 1.314 . S
C893 C890 1.348 . S
C893 C895 1.353 . S
C893 H949 0.929 . S
C894 C890 1.356 . S
C894 C891 1.358 . S
C894 H950 0.930 . S
C895 N892 1.314 . S
C895 C893 1.353 . S
C895 H951 0.930 . S
C896 N897 1.314 . S
C896 C901 1.353 . S
C896 H902 0.930 . S
N897 Li880 1.990 . S
N897 C896 1.314 . S
N897 C899 1.279 . S
C898 C899 1.358 . S
C898 C900 1.356 . S
C898 H952 0.930 . S
C899 N897 1.279 . S
C899 C898 1.358 . S
C899 H903 0.930 . S
C900 C898 1.356 . S
C900 C901 1.348 . S
C901 C896 1.353 . S
C901 C900 1.348 . S
C901 H953 0.929 . S
H902 C896 0.930 . S
H903 C899 0.930 . S
C904 N905 1.314 . S
C904 C906 1.353 . S
C904 H910 0.930 . S
N905 Li881 1.990 . S
N905 C904 1.314 . S
N905 C908 1.279 . S
C906 C904 1.353 . S
C906 C909 1.348 . S
C906 H954 0.929 . S
C907 C908 1.358 . S
C907 C909 1.356 . S
C907 H955 0.930 . S
C908 N905 1.279 . S
C908 C907 1.358 . S
C908 H911 0.930 . S
C909 C906 1.348 . S
C909 C907 1.356 . S
H910 C904 0.930 . S
H911 C908 0.930 . S
C912 C914 1.348 . S
C912 C915 1.356 . S
C912 O942 1.325 . S
N913 C916 1.314 . S
N913 C917 1.279 . S
C914 C912 1.348 . S
C914 C916 1.353 . S
C914 H956 0.929 . S
C915 C912 1.356 . S
C915 C917 1.358 . S
C915 H957 0.930 . S
C916 N913 1.314 . S
C916 C914 1.353 . S
C916 H958 0.930 . S
C917 N913 1.279 . S
C917 C915 1.358 . S
C917 H959 0.930 . S
C918 C919 1.348 . S
C918 C920 1.356 . S
C918 O943 1.325 . S
C919 C918 1.348 . S
C919 C921 1.353 . S
C919 H960 0.929 . S
C920 C918 1.356 . S
C920 C922 1.358 . S
C920 H961 0.930 . S
C921 C919 1.353 . S
C921 N923 1.314 . S
C921 H962 0.930 . S
C922 C920 1.358 . S
C922 N923 1.279 . S
C922 H963 0.930 . S
N923 C921 1.314 . S
N923 C922 1.279 . S
C924 C926 1.353 . S
C924 N927 1.314 . S
C924 H930 0.930 . S
C925 N927 1.279 . S
C925 C928 1.358 . S
C925 H931 0.930 . S
C926 C924 1.353 . S
C926 C929 1.348 . S
C926 H964 0.929 . S
N927 Li882 1.990 . S
N927 C924 1.314 . S
N927 C925 1.279 . S
C928 C925 1.358 . S
C928 C929 1.356 . S
C928 H965 0.930 . S
C929 C926 1.348 . S
C929 C928 1.356 . S
H930 C924 0.930 . S
H931 C925 0.930 . S
C932 N933 1.314 . S
C932 C934 1.353 . S
C932 H938 0.930 . S
N933 Li883 1.990 . S
N933 C932 1.314 . S
N933 C936 1.279 . S
C934 C932 1.353 . S
C934 C937 1.348 . S
C934 H966 0.929 . S
C935 C936 1.358 . S
C935 C937 1.356 . S
C935 H967 0.930 . S
C936 N933 1.279 . S
C936 C935 1.358 . S
C936 H939 0.930 . S
C937 C934 1.348 . S
C937 C935 1.356 . S
H938 C932 0.930 . S
H939 C936 0.930 . S
O940 Li880 1.956 . S
O940 Li881 1.970 . S
O940 Li882 1.961 . S
O940 C884 1.325 . S
O941 Li880 1.970 . S
O941 Li881 1.956 . S
O941 Li883 1.961 . S
O941 C890 1.325 . S
O942 Li880 1.961 . S
O942 Li882 1.956 . S
O942 Li883 1.970 . S
O942 C912 1.325 . S
O943 Li881 1.961 . S
O943 Li882 1.970 . S
O943 Li883 1.956 . S
O943 C918 1.325 . S
H944 C886 0.929 . S
H945 C887 0.930 . S
H946 C888 0.930 . S
H947 C889 0.930 . S
H948 C891 0.930 . S
H949 C893 0.929 . S
H950 C894 0.930 . S
H951 C895 0.930 . S
H952 C898 0.930 . S
H953 C901 0.929 . S
H954 C906 0.929 . S
H955 C907 0.930 . S
H956 C914 0.929 . S
H957 C915 0.930 . S
H958 C916 0.930 . S
H959 C917 0.930 . S
H960 C919 0.929 . S
H961 C920 0.930 . S
H962 C921 0.930 . S
H963 C922 0.930 . S
H964 C926 0.929 . S
H965 C928 0.930 . S
H966 C934 0.929 . S
H967 C935 0.930 . S
Li968 N985 1.990 . S
Li968 O1028 1.956 . S
Li968 O1029 1.970 . S
Li968 O1030 1.961 . S
Li969 N993 1.990 . S
Li969 O1028 1.970 . S
Li969 O1029 1.956 . S
Li969 O1031 1.961 . S
Li970 N1015 1.990 . S
Li970 O1028 1.961 . S
Li970 O1030 1.956 . S
Li970 O1031 1.970 . S
Li971 N1021 1.990 . S
Li971 O1029 1.961 . S
Li971 O1030 1.970 . S
Li971 O1031 1.956 . S
C972 C974 1.348 . S
C972 C975 1.356 . S
C972 O1028 1.325 . S
N973 C976 1.314 . S
N973 C977 1.279 . S
C974 C972 1.348 . S
C974 C976 1.353 . S
C974 H1032 0.929 . S
C975 C972 1.356 . S
C975 C977 1.358 . S
C975 H1033 0.930 . S
C976 N973 1.314 . S
C976 C974 1.353 . S
C976 H1034 0.930 . S
C977 N973 1.279 . S
C977 C975 1.358 . S
C977 H1035 0.930 . S
C978 C981 1.348 . S
C978 C982 1.356 . S
C978 O1029 1.325 . S
C979 N980 1.279 . S
C979 C982 1.358 . S
C979 H1036 0.930 . S
N980 C979 1.279 . S
N980 C983 1.314 . S
C981 C978 1.348 . S
C981 C983 1.353 . S
C981 H1037 0.929 . S
C982 C978 1.356 . S
C982 C979 1.358 . S
C982 H1038 0.930 . S
C983 N980 1.314 . S
C983 C981 1.353 . S
C983 H1039 0.930 . S
C984 N985 1.314 . S
C984 C989 1.353 . S
C984 H990 0.930 . S
N985 Li968 1.990 . S
N985 C984 1.314 . S
N985 C987 1.279 . S
C986 C987 1.358 . S
C986 C988 1.356 . S
C986 H1040 0.930 . S
C987 N985 1.279 . S
C987 C986 1.358 . S
C987 H991 0.930 . S
C988 C986 1.356 . S
C988 C989 1.348 . S
C989 C984 1.353 . S
C989 C988 1.348 . S
C989 H1041 0.929 . S
H990 C984 0.930 . S
H991 C987 0.930 . S
C992 N993 1.314 . S
C992 C994 1.353 . S
C992 H998 0.930 . S
N993 Li969 1.990 . S
N993 C992 1.314 . S
N993 C996 1.279 . S
C994 C992 1.353 . S
C994 C997 1.348 . S
C994 H1042 0.929 . S
C995 C996 1.358 . S
C995 C997 1.356 . S
C995 H1043 0.930 . S
C996 N993 1.279 . S
C996 C995 1.358 . S
C996 H999 0.930 . S
C997 C994 1.348 . S
C997 C995 1.356 . S
H998 C992 0.930 . S
H999 C996 0.930 . S
C1000 C1002 1.348 . S
C1000 C1003 1.356 . S
C1000 O1030 1.325 . S
N1001 C1004 1.314 . S
N1001 C1005 1.279 . S
C1002 C1000 1.348 . S
C1002 C1004 1.353 . S
C1002 H1044 0.929 . S
C1003 C1000 1.356 . S
C1003 C1005 1.358 . S
C1003 H1045 0.930 . S
C1004 N1001 1.314 . S
C1004 C1002 1.353 . S
C1004 H1046 0.930 . S
C1005 N1001 1.279 . S
C1005 C1003 1.358 . S
C1005 H1047 0.930 . S
C1006 C1007 1.348 . S
C1006 C1008 1.356 . S
C1006 O1031 1.325 . S
C1007 C1006 1.348 . S
C1007 C1009 1.353 . S
C1007 H1048 0.929 . S
C1008 C1006 1.356 . S
C1008 C1010 1.358 . S
C1008 H1049 0.930 . S
C1009 C1007 1.353 . S
C1009 N1011 1.314 . S
C1009 H1050 0.930 . S
C1010 C1008 1.358 . S
C1010 N1011 1.279 . S
C1010 H1051 0.930 . S
N1011 C1009 1.314 . S
N1011 C1010 1.279 . S
C1012 C1014 1.353 . S
C1012 N1015 1.314 . S
C1012 H1018 0.930 . S
C1013 N1015 1.279 . S
C1013 C1016 1.358 . S
C1013 H1019 0.930 . S
C1014 C1012 1.353 . S
C1014 C1017 1.348 . S
C1014 H1052 0.929 . S
N1015 Li970 1.990 . S
N1015 C1012 1.314 . S
N1015 C1013 1.279 . S
C1016 C1013 1.358 . S
C1016 C1017 1.356 . S
C1016 H1053 0.930 . S
C1017 C1014 1.348 . S
C1017 C1016 1.356 . S
H1018 C1012 0.930 . S
H1019 C1013 0.930 . S
C1020 N1021 1.314 . S
C1020 C1022 1.353 . S
C1020 H1026 0.930 . S
N1021 Li971 1.990 . S
N1021 C1020 1.314 . S
N1021 C1024 1.279 . S
C1022 C1020 1.353 . S
C1022 C1025 1.348 . S
C1022 H1054 0.929 . S
C1023 C1024 1.358 . S
C1023 C1025 1.356 . S
C1023 H1055 0.930 . S
C1024 N1021 1.279 . S
C1024 C1023 1.358 . S
C1024 H1027 0.930 . S
C1025 C1022 1.348 . S
C1025 C1023 1.356 . S
H1026 C1020 0.930 . S
H1027 C1024 0.930 . S
O1028 Li968 1.956 . S
O1028 Li969 1.970 . S
O1028 Li970 1.961 . S
O1028 C972 1.325 . S
O1029 Li968 1.970 . S
O1029 Li969 1.956 . S
O1029 Li971 1.961 . S
O1029 C978 1.325 . S
O1030 Li968 1.961 . S
O1030 Li970 1.956 . S
O1030 Li971 1.970 . S
O1030 C1000 1.325 . S
O1031 Li969 1.961 . S
O1031 Li970 1.970 . S
O1031 Li971 1.956 . S
O1031 C1006 1.325 . S
H1032 C974 0.929 . S
H1033 C975 0.930 . S
H1034 C976 0.930 . S
H1035 C977 0.930 . S
H1036 C979 0.930 . S
H1037 C981 0.929 . S
H1038 C982 0.930 . S
H1039 C983 0.930 . S
H1040 C986 0.930 . S
H1041 C989 0.929 . S
H1042 C994 0.929 . S
H1043 C995 0.930 . S
H1044 C1002 0.929 . S
H1045 C1003 0.930 . S
H1046 C1004 0.930 . S
H1047 C1005 0.930 . S
H1048 C1007 0.929 . S
H1049 C1008 0.930 . S
H1050 C1009 0.930 . S
H1051 C1010 0.930 . S
H1052 C1014 0.929 . S
H1053 C1016 0.930 . S
H1054 C1022 0.929 . S
H1055 C1023 0.930 . S
H1056 C1064 0.929 . S
H1057 C1066 0.930 . S
H1058 C1068 0.930 . S
H1059 C1071 0.929 . S
H1060 C1074 0.930 . S
H1061 C1076 0.960 . S
H1062 C1076 0.960 . S
H1063 C1076 0.960 . S
C1064 H1056 0.929 . S
C1064 C1065 1.377 . S
C1064 C1066 1.384 . S
C1065 C1064 1.377 . S
C1065 C1071 1.390 . S
C1066 H1057 0.930 . S
C1066 C1064 1.384 . S
C1066 C1067 1.372 . S
C1067 C1066 1.372 . S
C1067 C1068 1.400 . S
C1067 C1072 1.490 . S
C1068 H1058 0.930 . S
C1068 C1067 1.400 . S
C1068 C1071 1.386 . S
H1069 C1085 0.930 . S
H1070 C1086 0.931 . S
C1071 H1059 0.929 . S
C1071 C1065 1.390 . S
C1071 C1068 1.386 . S
C1072 C1067 1.490 . S
C1072 C1074 1.395 . S
C1072 C1075 1.403 . S
H1073 C1079 0.930 . S
C1074 H1060 0.930 . S
C1074 C1072 1.395 . S
C1074 C1077 1.403 . S
C1075 C1072 1.403 . S
C1075 C1076 1.524 . S
C1075 C1079 1.400 . S
C1076 H1061 0.960 . S
C1076 H1062 0.960 . S
C1076 H1063 0.960 . S
C1076 C1075 1.524 . S
C1077 C1074 1.403 . S
C1077 C1078 1.392 . S
C1077 C1081 1.495 . S
C1078 C1077 1.392 . S
C1078 C1079 1.385 . S
C1078 C1080 1.478 . S
C1079 H1073 0.930 . S
C1079 C1075 1.400 . S
C1079 C1078 1.385 . S
C1080 C1078 1.478 . S
C1080 C1082 1.381 . S
C1080 C1086 1.383 . S
C1081 C1077 1.495 . S
C1081 H1087 0.959 . S
C1081 H1088 0.961 . S
C1081 H1089 0.960 . S
C1082 C1080 1.381 . S
C1082 C1083 1.394 . S
C1082 H1090 0.930 . S
C1083 C1082 1.394 . S
C1083 C1084 1.383 . S
C1083 H1091 0.929 . S
C1084 C1083 1.383 . S
C1084 C1085 1.377 . S
C1085 H1069 0.930 . S
C1085 C1084 1.377 . S
C1085 C1086 1.379 . S
C1086 H1070 0.931 . S
C1086 C1080 1.383 . S
C1086 C1085 1.379 . S
H1087 C1081 0.959 . S
H1088 C1081 0.961 . S
H1089 C1081 0.960 . S
H1090 C1082 0.930 . S
H1091 C1083 0.929 . S
H1092 C1100 0.929 . S
H1093 C1102 0.930 . S
H1094 C1104 0.930 . S
H1095 C1107 0.929 . S
H1096 C1110 0.930 . S
H1097 C1112 0.960 . S
H1098 C1112 0.960 . S
H1099 C1112 0.960 . S
C1100 H1092 0.929 . S
C1100 C1101 1.377 . S
C1100 C1102 1.384 . S
C1101 C1100 1.377 . S
C1101 C1107 1.390 . S
C1102 H1093 0.930 . S
C1102 C1100 1.384 . S
C1102 C1103 1.372 . S
C1103 C1102 1.372 . S
C1103 C1104 1.400 . S
C1103 C1108 1.490 . S
C1104 H1094 0.930 . S
C1104 C1103 1.400 . S
C1104 C1107 1.386 . S
H1105 C1121 0.930 . S
H1106 C1122 0.931 . S
C1107 H1095 0.929 . S
C1107 C1101 1.390 . S
C1107 C1104 1.386 . S
C1108 C1103 1.490 . S
C1108 C1110 1.395 . S
C1108 C1111 1.403 . S
H1109 C1115 0.930 . S
C1110 H1096 0.930 . S
C1110 C1108 1.395 . S
C1110 C1113 1.403 . S
C1111 C1108 1.403 . S
C1111 C1112 1.524 . S
C1111 C1115 1.400 . S
C1112 H1097 0.960 . S
C1112 H1098 0.960 . S
C1112 H1099 0.960 . S
C1112 C1111 1.524 . S
C1113 C1110 1.403 . S
C1113 C1114 1.392 . S
C1113 C1117 1.495 . S
C1114 C1113 1.392 . S
C1114 C1115 1.385 . S
C1114 C1116 1.478 . S
C1115 H1109 0.930 . S
C1115 C1111 1.400 . S
C1115 C1114 1.385 . S
C1116 C1114 1.478 . S
C1116 C1118 1.381 . S
C1116 C1122 1.383 . S
C1117 C1113 1.495 . S
C1117 H1123 0.959 . S
C1117 H1124 0.961 . S
C1117 H1125 0.960 . S
C1118 C1116 1.381 . S
C1118 C1119 1.394 . S
C1118 H1126 0.930 . S
C1119 C1118 1.394 . S
C1119 C1120 1.383 . S
C1119 H1127 0.929 . S
C1120 C1119 1.383 . S
C1120 C1121 1.377 . S
C1121 H1105 0.930 . S
C1121 C1120 1.377 . S
C1121 C1122 1.379 . S
C1122 H1106 0.931 . S
C1122 C1116 1.383 . S
C1122 C1121 1.379 . S
H1123 C1117 0.959 . S
H1124 C1117 0.961 . S
H1125 C1117 0.960 . S
H1126 C1118 0.930 . S
H1127 C1119 0.929 . S
H1128 C1136 0.929 . S
H1129 C1138 0.930 . S
H1130 C1140 0.930 . S
H1131 C1143 0.929 . S
H1132 C1146 0.930 . S
H1133 C1148 0.960 . S
H1134 C1148 0.960 . S
H1135 C1148 0.960 . S
C1136 H1128 0.929 . S
C1136 C1137 1.377 . S
C1136 C1138 1.384 . S
C1137 C1136 1.377 . S
C1137 C1143 1.390 . S
C1138 H1129 0.930 . S
C1138 C1136 1.384 . S
C1138 C1139 1.372 . S
C1139 C1138 1.372 . S
C1139 C1140 1.400 . S
C1139 C1144 1.490 . S
C1140 H1130 0.930 . S
C1140 C1139 1.400 . S
C1140 C1143 1.386 . S
H1141 C1157 0.930 . S
H1142 C1158 0.931 . S
C1143 H1131 0.929 . S
C1143 C1137 1.390 . S
C1143 C1140 1.386 . S
C1144 C1139 1.490 . S
C1144 C1146 1.395 . S
C1144 C1147 1.403 . S
H1145 C1151 0.930 . S
C1146 H1132 0.930 . S
C1146 C1144 1.395 . S
C1146 C1149 1.403 . S
C1147 C1144 1.403 . S
C1147 C1148 1.524 . S
C1147 C1151 1.400 . S
C1148 H1133 0.960 . S
C1148 H1134 0.960 . S
C1148 H1135 0.960 . S
C1148 C1147 1.524 . S
C1149 C1146 1.403 . S
C1149 C1150 1.392 . S
C1149 C1153 1.495 . S
C1150 C1149 1.392 . S
C1150 C1151 1.385 . S
C1150 C1152 1.478 . S
C1151 H1145 0.930 . S
C1151 C1147 1.400 . S
C1151 C1150 1.385 . S
C1152 C1150 1.478 . S
C1152 C1154 1.381 . S
C1152 C1158 1.383 . S
C1153 C1149 1.495 . S
C1153 H1159 0.959 . S
C1153 H1160 0.961 . S
C1153 H1161 0.960 . S
C1154 C1152 1.381 . S
C1154 C1155 1.394 . S
C1154 H1162 0.930 . S
C1155 C1154 1.394 . S
C1155 C1156 1.383 . S
C1155 H1163 0.929 . S
C1156 C1155 1.383 . S
C1156 C1157 1.377 . S
C1157 H1141 0.930 . S
C1157 C1156 1.377 . S
C1157 C1158 1.379 . S
C1158 H1142 0.931 . S
C1158 C1152 1.383 . S
C1158 C1157 1.379 . S
H1159 C1153 0.959 . S
H1160 C1153 0.961 . S
H1161 C1153 0.960 . S
H1162 C1154 0.930 . S
H1163 C1155 0.929 . S
H1164 C1172 0.929 . S
H1165 C1174 0.930 . S
H1166 C1176 0.930 . S
H1167 C1179 0.929 . S
H1168 C1182 0.930 . S
H1169 C1184 0.960 . S
H1170 C1184 0.960 . S
H1171 C1184 0.960 . S
C1172 H1164 0.929 . S
C1172 C1173 1.377 . S
C1172 C1174 1.384 . S
C1173 C1172 1.377 . S
C1173 C1179 1.390 . S
C1174 H1165 0.930 . S
C1174 C1172 1.384 . S
C1174 C1175 1.372 . S
C1175 C1174 1.372 . S
C1175 C1176 1.400 . S
C1175 C1180 1.490 . S
C1176 H1166 0.930 . S
C1176 C1175 1.400 . S
C1176 C1179 1.386 . S
H1177 C1193 0.930 . S
H1178 C1194 0.931 . S
C1179 H1167 0.929 . S
C1179 C1173 1.390 . S
C1179 C1176 1.386 . S
C1180 C1175 1.490 . S
C1180 C1182 1.395 . S
C1180 C1183 1.403 . S
H1181 C1187 0.930 . S
C1182 H1168 0.930 . S
C1182 C1180 1.395 . S
C1182 C1185 1.403 . S
C1183 C1180 1.403 . S
C1183 C1184 1.524 . S
C1183 C1187 1.400 . S
C1184 H1169 0.960 . S
C1184 H1170 0.960 . S
C1184 H1171 0.960 . S
C1184 C1183 1.524 . S
C1185 C1182 1.403 . S
C1185 C1186 1.392 . S
C1185 C1189 1.495 . S
C1186 C1185 1.392 . S
C1186 C1187 1.385 . S
C1186 C1188 1.478 . S
C1187 H1181 0.930 . S
C1187 C1183 1.400 . S
C1187 C1186 1.385 . S
C1188 C1186 1.478 . S
C1188 C1190 1.381 . S
C1188 C1194 1.383 . S
C1189 C1185 1.495 . S
C1189 H1195 0.959 . S
C1189 H1196 0.961 . S
C1189 H1197 0.960 . S
C1190 C1188 1.381 . S
C1190 C1191 1.394 . S
C1190 H1198 0.930 . S
C1191 C1190 1.394 . S
C1191 C1192 1.383 . S
C1191 H1199 0.929 . S
C1192 C1191 1.383 . S
C1192 C1193 1.377 . S
C1193 H1177 0.930 . S
C1193 C1192 1.377 . S
C1193 C1194 1.379 . S
C1194 H1178 0.931 . S
C1194 C1188 1.383 . S
C1194 C1193 1.379 . S
H1195 C1189 0.959 . S
H1196 C1189 0.961 . S
H1197 C1189 0.960 . S
H1198 C1190 0.930 . S
H1199 C1191 0.929 . S
H1200 C1208 0.929 . S
H1201 C1210 0.930 . S
H1202 C1212 0.930 . S
H1203 C1215 0.929 . S
H1204 C1218 0.930 1_554 S
H1205 C1220 0.960 . S
H1206 C1220 0.960 . S
H1207 C1220 0.960 . S
C1208 H1200 0.929 . S
C1208 C1209 1.377 . S
C1208 C1210 1.384 . S
C1209 C1208 1.377 . S
C1209 C1215 1.390 . S
C1210 H1201 0.930 . S
C1210 C1208 1.384 . S
C1210 C1211 1.372 . S
C1211 C1210 1.372 . S
C1211 C1212 1.400 . S
C1211 C1216 1.490 . S
C1212 H1202 0.930 . S
C1212 C1211 1.400 . S
C1212 C1215 1.386 . S
H1213 C1229 0.930 . S
H1214 C1230 0.931 . S
C1215 H1203 0.929 . S
C1215 C1209 1.390 . S
C1215 C1212 1.386 . S
C1216 C1211 1.490 . S
C1216 C1218 1.395 1_554 S
C1216 C1219 1.403 . S
H1217 C1223 0.930 . S
C1218 H1204 0.930 1_556 S
C1218 C1216 1.395 1_556 S
C1218 C1221 1.403 . S
C1219 C1216 1.403 . S
C1219 C1220 1.524 . S
C1219 C1223 1.400 1_554 S
C1220 H1205 0.960 . S
C1220 H1206 0.960 . S
C1220 H1207 0.960 . S
C1220 C1219 1.524 . S
C1221 C1218 1.403 . S
C1221 C1222 1.392 . S
C1221 C1225 1.495 . S
C1222 C1221 1.392 . S
C1222 C1223 1.385 . S
C1222 C1224 1.478 . S
C1223 H1217 0.930 . S
C1223 C1219 1.400 1_556 S
C1223 C1222 1.385 . S
C1224 C1222 1.478 . S
C1224 C1226 1.381 . S
C1224 C1230 1.383 . S
C1225 C1221 1.495 . S
C1225 H1231 0.959 . S
C1225 H1232 0.961 . S
C1225 H1233 0.960 . S
C1226 C1224 1.381 . S
C1226 C1227 1.394 . S
C1226 H1234 0.930 . S
C1227 C1226 1.394 . S
C1227 C1228 1.383 . S
C1227 H1235 0.929 . S
C1228 C1227 1.383 . S
C1228 C1229 1.377 . S
C1229 H1213 0.930 . S
C1229 C1228 1.377 . S
C1229 C1230 1.379 . S
C1230 H1214 0.931 . S
C1230 C1224 1.383 . S
C1230 C1229 1.379 . S
H1231 C1225 0.959 . S
H1232 C1225 0.961 . S
H1233 C1225 0.960 . S
H1234 C1226 0.930 . S
H1235 C1227 0.929 . S
H1236 C1244 0.929 . S
H1237 C1246 0.930 . S
H1238 C1248 0.930 . S
H1239 C1251 0.929 . S
H1240 C1254 0.930 . S
H1241 C1256 0.960 . S
H1242 C1256 0.960 . S
H1243 C1256 0.960 . S
C1244 H1236 0.929 . S
C1244 C1245 1.377 . S
C1244 C1246 1.384 . S
C1245 C1244 1.377 . S
C1245 C1251 1.390 . S
C1246 H1237 0.930 . S
C1246 C1244 1.384 . S
C1246 C1247 1.372 . S
C1247 C1246 1.372 . S
C1247 C1248 1.400 . S
C1247 C1252 1.490 . S
C1248 H1238 0.930 . S
C1248 C1247 1.400 . S
C1248 C1251 1.386 . S
H1249 C1265 0.930 . S
H1250 C1266 0.931 . S
C1251 H1239 0.929 . S
C1251 C1245 1.390 . S
C1251 C1248 1.386 . S
C1252 C1247 1.490 . S
C1252 C1254 1.395 . S
C1252 C1255 1.403 . S
H1253 C1259 0.930 . S
C1254 H1240 0.930 . S
C1254 C1252 1.395 . S
C1254 C1257 1.403 . S
C1255 C1252 1.403 . S
C1255 C1256 1.524 . S
C1255 C1259 1.400 . S
C1256 H1241 0.960 . S
C1256 H1242 0.960 . S
C1256 H1243 0.960 . S
C1256 C1255 1.524 . S
C1257 C1254 1.403 . S
C1257 C1258 1.392 . S
C1257 C1261 1.495 . S
C1258 C1257 1.392 . S
C1258 C1259 1.385 . S
C1258 C1260 1.478 . S
C1259 H1253 0.930 . S
C1259 C1255 1.400 . S
C1259 C1258 1.385 . S
C1260 C1258 1.478 . S
C1260 C1262 1.381 . S
C1260 C1266 1.383 . S
C1261 C1257 1.495 . S
C1261 H1267 0.959 . S
C1261 H1268 0.961 . S
C1261 H1269 0.960 . S
C1262 C1260 1.381 . S
C1262 C1263 1.394 . S
C1262 H1270 0.930 . S
C1263 C1262 1.394 . S
C1263 C1264 1.383 . S
C1263 H1271 0.929 . S
C1264 C1263 1.383 . S
C1264 C1265 1.377 . S
C1265 H1249 0.930 . S
C1265 C1264 1.377 . S
C1265 C1266 1.379 . S
C1266 H1250 0.931 . S
C1266 C1260 1.383 . S
C1266 C1265 1.379 . S
H1267 C1261 0.959 . S
H1268 C1261 0.961 . S
H1269 C1261 0.960 . S
H1270 C1262 0.930 . S
H1271 C1263 0.929 . S
H1272 C1280 0.929 . S
H1273 C1282 0.930 . S
H1274 C1284 0.930 . S
H1275 C1287 0.929 . S
H1276 C1290 0.930 . S
H1277 C1292 0.960 . S
H1278 C1292 0.960 . S
H1279 C1292 0.960 . S
C1280 H1272 0.929 . S
C1280 C1281 1.377 . S
C1280 C1282 1.384 . S
C1281 C1280 1.377 . S
C1281 C1287 1.390 . S
C1282 H1273 0.930 . S
C1282 C1280 1.384 . S
C1282 C1283 1.372 . S
C1283 C1282 1.372 . S
C1283 C1284 1.400 . S
C1283 C1288 1.490 . S
C1284 H1274 0.930 . S
C1284 C1283 1.400 . S
C1284 C1287 1.386 . S
H1285 C1301 0.930 . S
H1286 C1302 0.931 . S
C1287 H1275 0.929 . S
C1287 C1281 1.390 . S
C1287 C1284 1.386 . S
C1288 C1283 1.490 . S
C1288 C1290 1.395 . S
C1288 C1291 1.403 . S
H1289 C1295 0.930 . S
C1290 H1276 0.930 . S
C1290 C1288 1.395 . S
C1290 C1293 1.403 . S
C1291 C1288 1.403 . S
C1291 C1292 1.524 . S
C1291 C1295 1.400 . S
C1292 H1277 0.960 . S
C1292 H1278 0.960 . S
C1292 H1279 0.960 . S
C1292 C1291 1.524 . S
C1293 C1290 1.403 . S
C1293 C1294 1.392 . S
C1293 C1297 1.495 . S
C1294 C1293 1.392 . S
C1294 C1295 1.385 . S
C1294 C1296 1.478 . S
C1295 H1289 0.930 . S
C1295 C1291 1.400 . S
C1295 C1294 1.385 . S
C1296 C1294 1.478 . S
C1296 C1298 1.381 . S
C1296 C1302 1.383 . S
C1297 C1293 1.495 . S
C1297 H1303 0.959 . S
C1297 H1304 0.961 . S
C1297 H1305 0.960 . S
C1298 C1296 1.381 . S
C1298 C1299 1.394 . S
C1298 H1306 0.930 . S
C1299 C1298 1.394 . S
C1299 C1300 1.383 . S
C1299 H1307 0.929 . S
C1300 C1299 1.383 . S
C1300 C1301 1.377 . S
C1301 H1285 0.930 . S
C1301 C1300 1.377 . S
C1301 C1302 1.379 . S
C1302 H1286 0.931 . S
C1302 C1296 1.383 . S
C1302 C1301 1.379 . S
H1303 C1297 0.959 . S
H1304 C1297 0.961 . S
H1305 C1297 0.960 . S
H1306 C1298 0.930 . S
H1307 C1299 0.929 . S
H1308 C1316 0.929 . S
H1309 C1318 0.930 . S
H1310 C1320 0.930 . S
H1311 C1323 0.929 . S
H1312 C1326 0.930 . S
H1313 C1328 0.960 . S
H1314 C1328 0.960 . S
H1315 C1328 0.960 . S
C1316 H1308 0.929 . S
C1316 C1317 1.377 . S
C1316 C1318 1.384 . S
C1317 C1316 1.377 . S
C1317 C1323 1.390 . S
C1318 H1309 0.930 . S
C1318 C1316 1.384 . S
C1318 C1319 1.372 . S
C1319 C1318 1.372 . S
C1319 C1320 1.400 . S
C1319 C1324 1.490 . S
C1320 H1310 0.930 . S
C1320 C1319 1.400 . S
C1320 C1323 1.386 . S
H1321 C1337 0.930 . S
H1322 C1338 0.931 . S
C1323 H1311 0.929 . S
C1323 C1317 1.390 . S
C1323 C1320 1.386 . S
C1324 C1319 1.490 . S
C1324 C1326 1.395 . S
C1324 C1327 1.403 . S
H1325 C1331 0.930 . S
C1326 H1312 0.930 . S
C1326 C1324 1.395 . S
C1326 C1329 1.403 . S
C1327 C1324 1.403 . S
C1327 C1328 1.524 . S
C1327 C1331 1.400 . S
C1328 H1313 0.960 . S
C1328 H1314 0.960 . S
C1328 H1315 0.960 . S
C1328 C1327 1.524 . S
C1329 C1326 1.403 . S
C1329 C1330 1.392 . S
C1329 C1333 1.495 . S
C1330 C1329 1.392 . S
C1330 C1331 1.385 . S
C1330 C1332 1.478 . S
C1331 H1325 0.930 . S
C1331 C1327 1.400 . S
C1331 C1330 1.385 . S
C1332 C1330 1.478 . S
C1332 C1334 1.381 . S
C1332 C1338 1.383 . S
C1333 C1329 1.495 . S
C1333 H1339 0.959 . S
C1333 H1340 0.961 . S
C1333 H1341 0.960 . S
C1334 C1332 1.381 . S
C1334 C1335 1.394 . S
C1334 H1342 0.930 . S
C1335 C1334 1.394 . S
C1335 C1336 1.383 . S
C1335 H1343 0.929 . S
C1336 C1335 1.383 . S
C1336 C1337 1.377 . S
C1337 H1321 0.930 . S
C1337 C1336 1.377 . S
C1337 C1338 1.379 . S
C1338 H1322 0.931 . S
C1338 C1332 1.383 . S
C1338 C1337 1.379 . S
H1339 C1333 0.959 . S
H1340 C1333 0.961 . S
H1341 C1333 0.960 . S
H1342 C1334 0.930 . S
H1343 C1335 0.929 . S
H1344 C1352 0.929 . S
H1345 C1354 0.930 . S
H1346 C1356 0.930 . S
H1347 C1359 0.929 . S
H1348 C1362 0.930 . S
H1349 C1364 0.960 . S
H1350 C1364 0.960 . S
H1351 C1364 0.960 . S
C1352 H1344 0.929 . S
C1352 C1353 1.377 . S
C1352 C1354 1.384 . S
C1353 C1352 1.377 . S
C1353 C1359 1.390 . S
C1354 H1345 0.930 . S
C1354 C1352 1.384 . S
C1354 C1355 1.372 . S
C1355 C1354 1.372 . S
C1355 C1356 1.400 . S
C1355 C1360 1.490 . S
C1356 H1346 0.930 . S
C1356 C1355 1.400 . S
C1356 C1359 1.386 . S
H1357 C1373 0.930 . S
H1358 C1374 0.931 . S
C1359 H1347 0.929 . S
C1359 C1353 1.390 . S
C1359 C1356 1.386 . S
C1360 C1355 1.490 . S
C1360 C1362 1.395 . S
C1360 C1363 1.403 . S
H1361 C1367 0.930 . S
C1362 H1348 0.930 . S
C1362 C1360 1.395 . S
C1362 C1365 1.403 . S
C1363 C1360 1.403 . S
C1363 C1364 1.524 . S
C1363 C1367 1.400 . S
C1364 H1349 0.960 . S
C1364 H1350 0.960 . S
C1364 H1351 0.960 . S
C1364 C1363 1.524 . S
C1365 C1362 1.403 . S
C1365 C1366 1.392 . S
C1365 C1369 1.495 . S
C1366 C1365 1.392 . S
C1366 C1367 1.385 . S
C1366 C1368 1.478 . S
C1367 H1361 0.930 . S
C1367 C1363 1.400 . S
C1367 C1366 1.385 . S
C1368 C1366 1.478 . S
C1368 C1370 1.381 . S
C1368 C1374 1.383 . S
C1369 C1365 1.495 . S
C1369 H1375 0.959 . S
C1369 H1376 0.961 . S
C1369 H1377 0.960 . S
C1370 C1368 1.381 . S
C1370 C1371 1.394 . S
C1370 H1378 0.930 . S
C1371 C1370 1.394 . S
C1371 C1372 1.383 . S
C1371 H1379 0.929 . S
C1372 C1371 1.383 . S
C1372 C1373 1.377 . S
C1373 H1357 0.930 . S
C1373 C1372 1.377 . S
C1373 C1374 1.379 . S
C1374 H1358 0.931 . S
C1374 C1368 1.383 . S
C1374 C1373 1.379 . S
H1375 C1369 0.959 . S
H1376 C1369 0.961 . S
H1377 C1369 0.960 . S
H1378 C1370 0.930 . S
H1379 C1371 0.929 . S
H1380 C1388 0.929 . S
H1381 C1390 0.930 . S
H1382 C1392 0.930 . S
H1383 C1395 0.929 . S
H1384 C1398 0.930 . S
H1385 C1400 0.960 . S
H1386 C1400 0.960 . S
H1387 C1400 0.960 . S
C1388 H1380 0.929 . S
C1388 C1389 1.377 . S
C1388 C1390 1.384 . S
C1389 C1388 1.377 . S
C1389 C1395 1.390 . S
C1390 H1381 0.930 . S
C1390 C1388 1.384 . S
C1390 C1391 1.372 . S
C1391 C1390 1.372 . S
C1391 C1392 1.400 . S
C1391 C1396 1.490 . S
C1392 H1382 0.930 . S
C1392 C1391 1.400 . S
C1392 C1395 1.386 . S
H1393 C1409 0.930 . S
H1394 C1410 0.931 . S
C1395 H1383 0.929 . S
C1395 C1389 1.390 . S
C1395 C1392 1.386 . S
C1396 C1391 1.490 . S
C1396 C1398 1.395 . S
C1396 C1399 1.403 . S
H1397 C1403 0.930 . S
C1398 H1384 0.930 . S
C1398 C1396 1.395 . S
C1398 C1401 1.403 . S
C1399 C1396 1.403 . S
C1399 C1400 1.524 . S
C1399 C1403 1.400 . S
C1400 H1385 0.960 . S
C1400 H1386 0.960 . S
C1400 H1387 0.960 . S
C1400 C1399 1.524 . S
C1401 C1398 1.403 . S
C1401 C1402 1.392 . S
C1401 C1405 1.495 . S
C1402 C1401 1.392 . S
C1402 C1403 1.385 . S
C1402 C1404 1.478 . S
C1403 H1397 0.930 . S
C1403 C1399 1.400 . S
C1403 C1402 1.385 . S
C1404 C1402 1.478 . S
C1404 C1406 1.381 . S
C1404 C1410 1.383 . S
C1405 C1401 1.495 . S
C1405 H1411 0.959 . S
C1405 H1412 0.961 . S
C1405 H1413 0.960 . S
C1406 C1404 1.381 . S
C1406 C1407 1.394 . S
C1406 H1414 0.930 . S
C1407 C1406 1.394 . S
C1407 C1408 1.383 . S
C1407 H1415 0.929 . S
C1408 C1407 1.383 . S
C1408 C1409 1.377 . S
C1409 H1393 0.930 . S
C1409 C1408 1.377 . S
C1409 C1410 1.379 . S
C1410 H1394 0.931 . S
C1410 C1404 1.383 . S
C1410 C1409 1.379 . S
H1411 C1405 0.959 . S
H1412 C1405 0.961 . S
H1413 C1405 0.960 . S
H1414 C1406 0.930 . S
H1415 C1407 0.929 . S
H1416 C1424 0.929 . S
H1417 C1426 0.930 . S
H1418 C1428 0.930 . S
H1419 C1431 0.929 . S
H1420 C1434 0.930 . S
H1421 C1436 0.960 . S
H1422 C1436 0.960 . S
H1423 C1436 0.960 . S
C1424 H1416 0.929 . S
C1424 C1425 1.377 . S
C1424 C1426 1.384 . S
C1425 C1424 1.377 . S
C1425 C1431 1.390 . S
C1426 H1417 0.930 . S
C1426 C1424 1.384 . S
C1426 C1427 1.372 . S
C1427 C1426 1.372 . S
C1427 C1428 1.400 . S
C1427 C1432 1.490 . S
C1428 H1418 0.930 . S
C1428 C1427 1.400 . S
C1428 C1431 1.386 . S
H1429 C1445 0.930 . S
H1430 C1446 0.931 . S
C1431 H1419 0.929 . S
C1431 C1425 1.390 . S
C1431 C1428 1.386 . S
C1432 C1427 1.490 . S
C1432 C1434 1.395 . S
C1432 C1435 1.403 . S
H1433 C1439 0.930 . S
C1434 H1420 0.930 . S
C1434 C1432 1.395 . S
C1434 C1437 1.403 . S
C1435 C1432 1.403 . S
C1435 C1436 1.524 . S
C1435 C1439 1.400 . S
C1436 H1421 0.960 . S
C1436 H1422 0.960 . S
C1436 H1423 0.960 . S
C1436 C1435 1.524 . S
C1437 C1434 1.403 . S
C1437 C1438 1.392 . S
C1437 C1441 1.495 . S
C1438 C1437 1.392 . S
C1438 C1439 1.385 . S
C1438 C1440 1.478 . S
C1439 H1433 0.930 . S
C1439 C1435 1.400 . S
C1439 C1438 1.385 . S
C1440 C1438 1.478 . S
C1440 C1442 1.381 . S
C1440 C1446 1.383 . S
C1441 C1437 1.495 . S
C1441 H1447 0.959 . S
C1441 H1448 0.961 . S
C1441 H1449 0.960 . S
C1442 C1440 1.381 . S
C1442 C1443 1.394 . S
C1442 H1450 0.930 . S
C1443 C1442 1.394 . S
C1443 C1444 1.383 . S
C1443 H1451 0.929 . S
C1444 C1443 1.383 . S
C1444 C1445 1.377 . S
C1445 H1429 0.930 . S
C1445 C1444 1.377 . S
C1445 C1446 1.379 . S
C1446 H1430 0.931 . S
C1446 C1440 1.383 . S
C1446 C1445 1.379 . S
H1447 C1441 0.959 . S
H1448 C1441 0.961 . S
H1449 C1441 0.960 . S
H1450 C1442 0.930 . S
H1451 C1443 0.929 . S
H1452 C1460 0.929 . S
H1453 C1462 0.930 . S
H1454 C1464 0.930 . S
H1455 C1467 0.929 . S
H1456 C1470 0.930 . S
H1457 C1472 0.960 . S
H1458 C1472 0.960 . S
H1459 C1472 0.960 . S
C1460 H1452 0.929 . S
C1460 C1461 1.377 . S
C1460 C1462 1.384 . S
C1461 C1460 1.377 . S
C1461 C1467 1.390 . S
C1462 H1453 0.930 . S
C1462 C1460 1.384 . S
C1462 C1463 1.372 . S
C1463 C1462 1.372 . S
C1463 C1464 1.400 . S
C1463 C1468 1.490 . S
C1464 H1454 0.930 . S
C1464 C1463 1.400 . S
C1464 C1467 1.386 . S
H1465 C1481 0.930 . S
H1466 C1482 0.931 . S
C1467 H1455 0.929 . S
C1467 C1461 1.390 . S
C1467 C1464 1.386 . S
C1468 C1463 1.490 . S
C1468 C1470 1.395 . S
C1468 C1471 1.403 . S
H1469 C1475 0.930 . S
C1470 H1456 0.930 . S
C1470 C1468 1.395 . S
C1470 C1473 1.403 . S
C1471 C1468 1.403 . S
C1471 C1472 1.524 1_556 S
C1471 C1475 1.400 1_556 S
C1472 H1457 0.960 . S
C1472 H1458 0.960 . S
C1472 H1459 0.960 . S
C1472 C1471 1.524 1_554 S
C1473 C1470 1.403 . S
C1473 C1474 1.392 . S
C1473 C1477 1.495 . S
C1474 C1473 1.392 . S
C1474 C1475 1.385 1_556 S
C1474 C1476 1.478 1_556 S
C1475 H1469 0.930 . S
C1475 C1471 1.400 1_554 S
C1475 C1474 1.385 1_554 S
C1476 C1474 1.478 1_554 S
C1476 C1478 1.381 1_554 S
C1476 C1482 1.383 . S
C1477 C1473 1.495 . S
C1477 H1483 0.959 . S
C1477 H1484 0.961 . S
C1477 H1485 0.960 . S
C1478 C1476 1.381 1_556 S
C1478 C1479 1.394 1_556 S
C1478 H1486 0.930 . S
C1479 C1478 1.394 1_554 S
C1479 C1480 1.383 . S
C1479 H1487 0.929 . S
C1480 C1479 1.383 . S
C1480 C1481 1.377 . S
C1481 H1465 0.930 . S
C1481 C1480 1.377 . S
C1481 C1482 1.379 . S
C1482 H1466 0.931 . S
C1482 C1476 1.383 . S
C1482 C1481 1.379 . S
H1483 C1477 0.959 . S
H1484 C1477 0.961 . S
H1485 C1477 0.960 . S
H1486 C1478 0.930 . S
H1487 C1479 0.929 . S
H1488 C1496 0.929 . S
H1489 C1498 0.930 . S
H1490 C1500 0.930 . S
H1491 C1503 0.929 . S
H1492 C1506 0.930 . S
H1493 C1508 0.960 . S
H1494 C1508 0.960 . S
H1495 C1508 0.960 . S
C1496 H1488 0.929 . S
C1496 C1497 1.377 . S
C1496 C1498 1.384 . S
C1497 C1496 1.377 . S
C1497 C1503 1.390 . S
C1498 H1489 0.930 . S
C1498 C1496 1.384 . S
C1498 C1499 1.372 . S
C1499 C1498 1.372 . S
C1499 C1500 1.400 . S
C1499 C1504 1.490 . S
C1500 H1490 0.930 . S
C1500 C1499 1.400 . S
C1500 C1503 1.386 . S
H1501 C1517 0.930 . S
H1502 C1518 0.931 . S
C1503 H1491 0.929 . S
C1503 C1497 1.390 . S
C1503 C1500 1.386 . S
C1504 C1499 1.490 . S
C1504 C1506 1.395 . S
C1504 C1507 1.403 . S
H1505 C1511 0.930 . S
C1506 H1492 0.930 . S
C1506 C1504 1.395 . S
C1506 C1509 1.403 . S
C1507 C1504 1.403 . S
C1507 C1508 1.524 . S
C1507 C1511 1.400 . S
C1508 H1493 0.960 . S
C1508 H1494 0.960 . S
C1508 H1495 0.960 . S
C1508 C1507 1.524 . S
C1509 C1506 1.403 . S
C1509 C1510 1.392 . S
C1509 C1513 1.495 . S
C1510 C1509 1.392 . S
C1510 C1511 1.385 . S
C1510 C1512 1.478 . S
C1511 H1505 0.930 . S
C1511 C1507 1.400 . S
C1511 C1510 1.385 . S
C1512 C1510 1.478 . S
C1512 C1514 1.381 . S
C1512 C1518 1.383 . S
C1513 C1509 1.495 . S
C1513 H1519 0.959 . S
C1513 H1520 0.961 . S
C1513 H1521 0.960 . S
C1514 C1512 1.381 . S
C1514 C1515 1.394 . S
C1514 H1522 0.930 . S
C1515 C1514 1.394 . S
C1515 C1516 1.383 . S
C1515 H1523 0.929 . S
C1516 C1515 1.383 . S
C1516 C1517 1.377 . S
C1517 H1501 0.930 . S
C1517 C1516 1.377 . S
C1517 C1518 1.379 . S
C1518 H1502 0.931 . S
C1518 C1512 1.383 . S
C1518 C1517 1.379 . S
H1519 C1513 0.959 . S
H1520 C1513 0.961 . S
H1521 C1513 0.960 . S
H1522 C1514 0.930 . S
H1523 C1515 0.929 . S
H1524 C1532 0.929 . S
H1525 C1534 0.930 . S
H1526 C1536 0.930 . S
H1527 C1539 0.929 . S
H1528 C1542 0.930 . S
H1529 C1544 0.960 . S
H1530 C1544 0.960 . S
H1531 C1544 0.960 . S
C1532 H1524 0.929 . S
C1532 C1533 1.377 . S
C1532 C1534 1.384 . S
C1533 C1532 1.377 . S
C1533 C1539 1.390 . S
C1534 H1525 0.930 . S
C1534 C1532 1.384 . S
C1534 C1535 1.372 . S
C1535 C1534 1.372 . S
C1535 C1536 1.400 . S
C1535 C1540 1.490 . S
C1536 H1526 0.930 . S
C1536 C1535 1.400 . S
C1536 C1539 1.386 . S
H1537 C1553 0.930 . S
H1538 C1554 0.931 . S
C1539 H1527 0.929 . S
C1539 C1533 1.390 . S
C1539 C1536 1.386 . S
C1540 C1535 1.490 . S
C1540 C1542 1.395 . S
C1540 C1543 1.403 . S
H1541 C1547 0.930 . S
C1542 H1528 0.930 . S
C1542 C1540 1.395 . S
C1542 C1545 1.403 1_556 S
C1543 C1540 1.403 . S
C1543 C1544 1.524 . S
C1543 C1547 1.400 . S
C1544 H1529 0.960 . S
C1544 H1530 0.960 . S
C1544 H1531 0.960 . S
C1544 C1543 1.524 . S
C1545 C1542 1.403 1_554 S
C1545 C1546 1.392 . S
C1545 C1549 1.495 . S
C1546 C1545 1.392 . S
C1546 C1547 1.385 1_554 S
C1546 C1548 1.478 . S
C1547 H1541 0.930 . S
C1547 C1543 1.400 . S
C1547 C1546 1.385 1_556 S
C1548 C1546 1.478 . S
C1548 C1550 1.381 . S
C1548 C1554 1.383 . S
C1549 C1545 1.495 . S
C1549 H1555 0.959 . S
C1549 H1556 0.961 . S
C1549 H1557 0.960 . S
C1550 C1548 1.381 . S
C1550 C1551 1.394 . S
C1550 H1558 0.930 . S
C1551 C1550 1.394 . S
C1551 C1552 1.383 . S
C1551 H1559 0.929 . S
C1552 C1551 1.383 . S
C1552 C1553 1.377 . S
C1553 H1537 0.930 . S
C1553 C1552 1.377 . S
C1553 C1554 1.379 . S
C1554 H1538 0.931 . S
C1554 C1548 1.383 . S
C1554 C1553 1.379 . S
H1555 C1549 0.959 . S
H1556 C1549 0.961 . S
H1557 C1549 0.960 . S
H1558 C1550 0.930 . S
H1559 C1551 0.929 . S
H1560 C1568 0.929 . S
H1561 C1570 0.930 . S
H1562 C1572 0.930 . S
H1563 C1575 0.929 . S
H1564 C1578 0.930 . S
H1565 C1580 0.960 . S
H1566 C1580 0.960 . S
H1567 C1580 0.960 . S
C1568 H1560 0.929 . S
C1568 C1569 1.377 . S
C1568 C1570 1.384 . S
C1569 C1568 1.377 . S
C1569 C1575 1.390 . S
C1570 H1561 0.930 . S
C1570 C1568 1.384 . S
C1570 C1571 1.372 . S
C1571 C1570 1.372 . S
C1571 C1572 1.400 . S
C1571 C1576 1.490 . S
C1572 H1562 0.930 . S
C1572 C1571 1.400 . S
C1572 C1575 1.386 . S
H1573 C1589 0.930 . S
H1574 C1590 0.931 . S
C1575 H1563 0.929 . S
C1575 C1569 1.390 . S
C1575 C1572 1.386 . S
C1576 C1571 1.490 . S
C1576 C1578 1.395 . S
C1576 C1579 1.403 . S
H1577 C1583 0.930 . S
C1578 H1564 0.930 . S
C1578 C1576 1.395 . S
C1578 C1581 1.403 . S
C1579 C1576 1.403 . S
C1579 C1580 1.524 . S
C1579 C1583 1.400 . S
C1580 H1565 0.960 . S
C1580 H1566 0.960 . S
C1580 H1567 0.960 . S
C1580 C1579 1.524 . S
C1581 C1578 1.403 . S
C1581 C1582 1.392 . S
C1581 C1585 1.495 . S
C1582 C1581 1.392 . S
C1582 C1583 1.385 . S
C1582 C1584 1.478 . S
C1583 H1577 0.930 . S
C1583 C1579 1.400 . S
C1583 C1582 1.385 . S
C1584 C1582 1.478 . S
C1584 C1586 1.381 . S
C1584 C1590 1.383 . S
C1585 C1581 1.495 . S
C1585 H1591 0.959 . S
C1585 H1592 0.961 . S
C1585 H1593 0.960 . S
C1586 C1584 1.381 . S
C1586 C1587 1.394 . S
C1586 H1594 0.930 . S
C1587 C1586 1.394 . S
C1587 C1588 1.383 . S
C1587 H1595 0.929 . S
C1588 C1587 1.383 . S
C1588 C1589 1.377 . S
C1589 H1573 0.930 . S
C1589 C1588 1.377 . S
C1589 C1590 1.379 . S
C1590 H1574 0.931 . S
C1590 C1584 1.383 . S
C1590 C1589 1.379 . S
H1591 C1585 0.959 . S
H1592 C1585 0.961 . S
H1593 C1585 0.960 . S
H1594 C1586 0.930 . S
H1595 C1587 0.929 . S
H1596 C1604 0.929 . S
H1597 C1606 0.930 . S
H1598 C1608 0.930 . S
H1599 C1611 0.929 . S
H1600 C1614 0.930 . S
H1601 C1616 0.960 . S
H1602 C1616 0.960 . S
H1603 C1616 0.960 . S
C1604 H1596 0.929 . S
C1604 C1605 1.377 . S
C1604 C1606 1.384 . S
C1605 C1604 1.377 . S
C1605 C1611 1.390 . S
C1606 H1597 0.930 . S
C1606 C1604 1.384 . S
C1606 C1607 1.372 . S
C1607 C1606 1.372 . S
C1607 C1608 1.400 . S
C1607 C1612 1.490 . S
C1608 H1598 0.930 . S
C1608 C1607 1.400 . S
C1608 C1611 1.386 . S
H1609 C1625 0.930 . S
H1610 C1626 0.931 . S
C1611 H1599 0.929 . S
C1611 C1605 1.390 . S
C1611 C1608 1.386 . S
C1612 C1607 1.490 . S
C1612 C1614 1.395 . S
C1612 C1615 1.403 . S
H1613 C1619 0.930 . S
C1614 H1600 0.930 . S
C1614 C1612 1.395 . S
C1614 C1617 1.403 . S
C1615 C1612 1.403 . S
C1615 C1616 1.524 . S
C1615 C1619 1.400 . S
C1616 H1601 0.960 . S
C1616 H1602 0.960 . S
C1616 H1603 0.960 . S
C1616 C1615 1.524 . S
C1617 C1614 1.403 . S
C1617 C1618 1.392 . S
C1617 C1621 1.495 . S
C1618 C1617 1.392 . S
C1618 C1619 1.385 . S
C1618 C1620 1.478 . S
C1619 H1613 0.930 . S
C1619 C1615 1.400 . S
C1619 C1618 1.385 . S
C1620 C1618 1.478 . S
C1620 C1622 1.381 . S
C1620 C1626 1.383 . S
C1621 C1617 1.495 . S
C1621 H1627 0.959 . S
C1621 H1628 0.961 . S
C1621 H1629 0.960 . S
C1622 C1620 1.381 . S
C1622 C1623 1.394 . S
C1622 H1630 0.930 . S
C1623 C1622 1.394 . S
C1623 C1624 1.383 . S
C1623 H1631 0.929 . S
C1624 C1623 1.383 . S
C1624 C1625 1.377 . S
C1625 H1609 0.930 . S
C1625 C1624 1.377 . S
C1625 C1626 1.379 . S
C1626 H1610 0.931 . S
C1626 C1620 1.383 . S
C1626 C1625 1.379 . S
H1627 C1621 0.959 . S
H1628 C1621 0.961 . S
H1629 C1621 0.960 . S
H1630 C1622 0.930 . S
H1631 C1623 0.929 . S
H1632 C1640 0.929 . S
H1633 C1642 0.930 . S
H1634 C1644 0.930 . S
H1635 C1647 0.929 . S
H1636 C1650 0.930 . S
H1637 C1652 0.960 . S
H1638 C1652 0.960 . S
H1639 C1652 0.960 . S
C1640 H1632 0.929 . S
C1640 C1641 1.377 . S
C1640 C1642 1.384 . S
C1641 C1640 1.377 . S
C1641 C1647 1.390 . S
C1642 H1633 0.930 . S
C1642 C1640 1.384 . S
C1642 C1643 1.372 . S
C1643 C1642 1.372 . S
C1643 C1644 1.400 . S
C1643 C1648 1.490 . S
C1644 H1634 0.930 . S
C1644 C1643 1.400 . S
C1644 C1647 1.386 . S
H1645 C1661 0.930 . S
H1646 C1662 0.931 . S
C1647 H1635 0.929 . S
C1647 C1641 1.390 . S
C1647 C1644 1.386 . S
C1648 C1643 1.490 . S
C1648 C1650 1.395 . S
C1648 C1651 1.403 . S
H1649 C1655 0.930 . S
C1650 H1636 0.930 . S
C1650 C1648 1.395 . S
C1650 C1653 1.403 . S
C1651 C1648 1.403 . S
C1651 C1652 1.524 . S
C1651 C1655 1.400 . S
C1652 H1637 0.960 . S
C1652 H1638 0.960 . S
C1652 H1639 0.960 . S
C1652 C1651 1.524 . S
C1653 C1650 1.403 . S
C1653 C1654 1.392 . S
C1653 C1657 1.495 . S
C1654 C1653 1.392 . S
C1654 C1655 1.385 . S
C1654 C1656 1.478 . S
C1655 H1649 0.930 . S
C1655 C1651 1.400 . S
C1655 C1654 1.385 . S
C1656 C1654 1.478 . S
C1656 C1658 1.381 . S
C1656 C1662 1.383 . S
C1657 C1653 1.495 . S
C1657 H1663 0.959 . S
C1657 H1664 0.961 . S
C1657 H1665 0.960 . S
C1658 C1656 1.381 . S
C1658 C1659 1.394 . S
C1658 H1666 0.930 . S
C1659 C1658 1.394 . S
C1659 C1660 1.383 . S
C1659 H1667 0.929 . S
C1660 C1659 1.383 . S
C1660 C1661 1.377 . S
C1661 H1645 0.930 . S
C1661 C1660 1.377 . S
C1661 C1662 1.379 . S
C1662 H1646 0.931 . S
C1662 C1656 1.383 . S
C1662 C1661 1.379 . S
H1663 C1657 0.959 . S
H1664 C1657 0.961 . S
H1665 C1657 0.960 . S
H1666 C1658 0.930 . S
H1667 C1659 0.929 . S
H1668 C1676 0.929 . S
H1669 C1678 0.930 . S
H1670 C1680 0.930 . S
H1671 C1683 0.929 . S
H1672 C1686 0.930 . S
H1673 C1688 0.960 . S
H1674 C1688 0.960 . S
H1675 C1688 0.960 . S
C1676 H1668 0.929 . S
C1676 C1677 1.377 . S
C1676 C1678 1.384 . S
C1677 C1676 1.377 . S
C1677 C1683 1.390 . S
C1678 H1669 0.930 . S
C1678 C1676 1.384 . S
C1678 C1679 1.372 . S
C1679 C1678 1.372 . S
C1679 C1680 1.400 . S
C1679 C1684 1.490 . S
C1680 H1670 0.930 . S
C1680 C1679 1.400 . S
C1680 C1683 1.386 . S
H1681 C1697 0.930 . S
H1682 C1698 0.931 . S
C1683 H1671 0.929 . S
C1683 C1677 1.390 . S
C1683 C1680 1.386 . S
C1684 C1679 1.490 . S
C1684 C1686 1.395 . S
C1684 C1687 1.403 . S
H1685 C1691 0.930 . S
C1686 H1672 0.930 . S
C1686 C1684 1.395 . S
C1686 C1689 1.403 . S
C1687 C1684 1.403 . S
C1687 C1688 1.524 . S
C1687 C1691 1.400 . S
C1688 H1673 0.960 . S
C1688 H1674 0.960 . S
C1688 H1675 0.960 . S
C1688 C1687 1.524 . S
C1689 C1686 1.403 . S
C1689 C1690 1.392 . S
C1689 C1693 1.495 . S
C1690 C1689 1.392 . S
C1690 C1691 1.385 . S
C1690 C1692 1.478 . S
C1691 H1685 0.930 . S
C1691 C1687 1.400 . S
C1691 C1690 1.385 . S
C1692 C1690 1.478 . S
C1692 C1694 1.381 . S
C1692 C1698 1.383 . S
C1693 C1689 1.495 . S
C1693 H1699 0.959 . S
C1693 H1700 0.961 . S
C1693 H1701 0.960 . S
C1694 C1692 1.381 . S
C1694 C1695 1.394 . S
C1694 H1702 0.930 . S
C1695 C1694 1.394 . S
C1695 C1696 1.383 . S
C1695 H1703 0.929 . S
C1696 C1695 1.383 . S
C1696 C1697 1.377 . S
C1697 H1681 0.930 . S
C1697 C1696 1.377 . S
C1697 C1698 1.379 . S
C1698 H1682 0.931 . S
C1698 C1692 1.383 . S
C1698 C1697 1.379 . S
H1699 C1693 0.959 . S
H1700 C1693 0.961 . S
H1701 C1693 0.960 . S
H1702 C1694 0.930 . S
H1703 C1695 0.929 . S
H1704 C1712 0.929 . S
H1705 C1714 0.930 . S
H1706 C1716 0.930 . S
H1707 C1719 0.929 . S
H1708 C1722 0.930 . S
H1709 C1724 0.960 . S
H1710 C1724 0.960 . S
H1711 C1724 0.960 . S
C1712 H1704 0.929 . S
C1712 C1713 1.377 . S
C1712 C1714 1.384 . S
C1713 C1712 1.377 . S
C1713 C1719 1.390 . S
C1714 H1705 0.930 . S
C1714 C1712 1.384 . S
C1714 C1715 1.372 . S
C1715 C1714 1.372 . S
C1715 C1716 1.400 . S
C1715 C1720 1.490 . S
C1716 H1706 0.930 . S
C1716 C1715 1.400 . S
C1716 C1719 1.386 . S
H1717 C1733 0.930 . S
H1718 C1734 0.931 . S
C1719 H1707 0.929 . S
C1719 C1713 1.390 . S
C1719 C1716 1.386 . S
C1720 C1715 1.490 . S
C1720 C1722 1.395 . S
C1720 C1723 1.403 . S
H1721 C1727 0.930 . S
C1722 H1708 0.930 . S
C1722 C1720 1.395 . S
C1722 C1725 1.403 1_545 S
C1723 C1720 1.403 . S
C1723 C1724 1.524 . S
C1723 C1727 1.400 1_545 S
C1724 H1709 0.960 . S
C1724 H1710 0.960 . S
C1724 H1711 0.960 . S
C1724 C1723 1.524 . S
C1725 C1722 1.403 1_565 S
C1725 C1726 1.392 . S
C1725 C1729 1.495 . S
C1726 C1725 1.392 . S
C1726 C1727 1.385 . S
C1726 C1728 1.478 . S
C1727 H1721 0.930 . S
C1727 C1723 1.400 1_565 S
C1727 C1726 1.385 . S
C1728 C1726 1.478 . S
C1728 C1730 1.381 . S
C1728 C1734 1.383 . S
C1729 C1725 1.495 . S
C1729 H1735 0.959 . S
C1729 H1736 0.961 . S
C1729 H1737 0.960 . S
C1730 C1728 1.381 . S
C1730 C1731 1.394 . S
C1730 H1738 0.930 . S
C1731 C1730 1.394 . S
C1731 C1732 1.383 . S
C1731 H1739 0.929 . S
C1732 C1731 1.383 . S
C1732 C1733 1.377 . S
C1733 H1717 0.930 . S
C1733 C1732 1.377 . S
C1733 C1734 1.379 . S
C1734 H1718 0.931 . S
C1734 C1728 1.383 . S
C1734 C1733 1.379 . S
H1735 C1729 0.959 . S
H1736 C1729 0.961 . S
H1737 C1729 0.960 . S
H1738 C1730 0.930 . S
H1739 C1731 0.929 . S
H1740 C1748 0.929 . S
H1741 C1750 0.930 . S
H1742 C1752 0.930 . S
H1743 C1755 0.929 . S
H1744 C1758 0.930 . S
H1745 C1760 0.960 . S
H1746 C1760 0.960 . S
H1747 C1760 0.960 . S
C1748 H1740 0.929 . S
C1748 C1749 1.377 . S
C1748 C1750 1.384 . S
C1749 C1748 1.377 . S
C1749 C1755 1.390 . S
C1750 H1741 0.930 . S
C1750 C1748 1.384 . S
C1750 C1751 1.372 . S
C1751 C1750 1.372 . S
C1751 C1752 1.400 . S
C1751 C1756 1.490 . S
C1752 H1742 0.930 . S
C1752 C1751 1.400 . S
C1752 C1755 1.386 . S
H1753 C1769 0.930 . S
H1754 C1770 0.931 . S
C1755 H1743 0.929 . S
C1755 C1749 1.390 . S
C1755 C1752 1.386 . S
C1756 C1751 1.490 . S
C1756 C1758 1.395 . S
C1756 C1759 1.403 . S
H1757 C1763 0.930 . S
C1758 H1744 0.930 . S
C1758 C1756 1.395 . S
C1758 C1761 1.403 . S
C1759 C1756 1.403 . S
C1759 C1760 1.524 . S
C1759 C1763 1.400 . S
C1760 H1745 0.960 . S
C1760 H1746 0.960 . S
C1760 H1747 0.960 . S
C1760 C1759 1.524 . S
C1761 C1758 1.403 . S
C1761 C1762 1.392 . S
C1761 C1765 1.495 . S
C1762 C1761 1.392 . S
C1762 C1763 1.385 . S
C1762 C1764 1.478 . S
C1763 H1757 0.930 . S
C1763 C1759 1.400 . S
C1763 C1762 1.385 . S
C1764 C1762 1.478 . S
C1764 C1766 1.381 . S
C1764 C1770 1.383 . S
C1765 C1761 1.495 . S
C1765 H1771 0.959 . S
C1765 H1772 0.961 . S
C1765 H1773 0.960 . S
C1766 C1764 1.381 . S
C1766 C1767 1.394 . S
C1766 H1774 0.930 . S
C1767 C1766 1.394 . S
C1767 C1768 1.383 . S
C1767 H1775 0.929 . S
C1768 C1767 1.383 . S
C1768 C1769 1.377 . S
C1769 H1753 0.930 . S
C1769 C1768 1.377 . S
C1769 C1770 1.379 . S
C1770 H1754 0.931 . S
C1770 C1764 1.383 . S
C1770 C1769 1.379 . S
H1771 C1765 0.959 . S
H1772 C1765 0.961 . S
H1773 C1765 0.960 . S
H1774 C1766 0.930 . S
H1775 C1767 0.929 . S
H1776 C1784 0.929 . S
H1777 C1786 0.930 . S
H1778 C1788 0.930 . S
H1779 C1791 0.929 . S
H1780 C1794 0.930 . S
H1781 C1796 0.960 . S
H1782 C1796 0.960 . S
H1783 C1796 0.960 . S
C1784 H1776 0.929 . S
C1784 C1785 1.377 . S
C1784 C1786 1.384 . S
C1785 C1784 1.377 . S
C1785 C1791 1.390 . S
C1786 H1777 0.930 . S
C1786 C1784 1.384 . S
C1786 C1787 1.372 . S
C1787 C1786 1.372 . S
C1787 C1788 1.400 . S
C1787 C1792 1.490 . S
C1788 H1778 0.930 . S
C1788 C1787 1.400 . S
C1788 C1791 1.386 . S
H1789 C1805 0.930 . S
H1790 C1806 0.931 . S
C1791 H1779 0.929 . S
C1791 C1785 1.390 . S
C1791 C1788 1.386 . S
C1792 C1787 1.490 . S
C1792 C1794 1.395 . S
C1792 C1795 1.403 . S
H1793 C1799 0.930 . S
C1794 H1780 0.930 . S
C1794 C1792 1.395 . S
C1794 C1797 1.403 1_455 S
C1795 C1792 1.403 . S
C1795 C1796 1.524 . S
C1795 C1799 1.400 1_455 S
C1796 H1781 0.960 . S
C1796 H1782 0.960 . S
C1796 H1783 0.960 . S
C1796 C1795 1.524 . S
C1797 C1794 1.403 1_655 S
C1797 C1798 1.392 . S
C1797 C1801 1.495 . S
C1798 C1797 1.392 . S
C1798 C1799 1.385 . S
C1798 C1800 1.478 . S
C1799 H1793 0.930 . S
C1799 C1795 1.400 1_655 S
C1799 C1798 1.385 . S
C1800 C1798 1.478 . S
C1800 C1802 1.381 . S
C1800 C1806 1.383 . S
C1801 C1797 1.495 . S
C1801 H1807 0.959 . S
C1801 H1808 0.961 . S
C1801 H1809 0.960 . S
C1802 C1800 1.381 . S
C1802 C1803 1.394 . S
C1802 H1810 0.930 . S
C1803 C1802 1.394 . S
C1803 C1804 1.383 . S
C1803 H1811 0.929 . S
C1804 C1803 1.383 . S
C1804 C1805 1.377 . S
C1805 H1789 0.930 . S
C1805 C1804 1.377 . S
C1805 C1806 1.379 . S
C1806 H1790 0.931 . S
C1806 C1800 1.383 . S
C1806 C1805 1.379 . S
H1807 C1801 0.959 . S
H1808 C1801 0.961 . S
H1809 C1801 0.960 . S
H1810 C1802 0.930 . S
H1811 C1803 0.929 . S
H1812 C1820 0.929 . S
H1813 C1822 0.930 . S
H1814 C1824 0.930 . S
H1815 C1827 0.929 . S
H1816 C1830 0.930 . S
H1817 C1832 0.960 . S
H1818 C1832 0.960 . S
H1819 C1832 0.960 . S
C1820 H1812 0.929 . S
C1820 C1821 1.377 . S
C1820 C1822 1.384 . S
C1821 C1820 1.377 . S
C1821 C1827 1.390 . S
C1822 H1813 0.930 . S
C1822 C1820 1.384 . S
C1822 C1823 1.372 . S
C1823 C1822 1.372 . S
C1823 C1824 1.400 . S
C1823 C1828 1.490 . S
C1824 H1814 0.930 . S
C1824 C1823 1.400 . S
C1824 C1827 1.386 . S
H1825 C1841 0.930 . S
H1826 C1842 0.931 . S
C1827 H1815 0.929 . S
C1827 C1821 1.390 . S
C1827 C1824 1.386 . S
C1828 C1823 1.490 . S
C1828 C1830 1.395 . S
C1828 C1831 1.403 . S
H1829 C1835 0.930 . S
C1830 H1816 0.930 . S
C1830 C1828 1.395 . S
C1830 C1833 1.403 1_565 S
C1831 C1828 1.403 . S
C1831 C1832 1.524 . S
C1831 C1835 1.400 1_565 S
C1832 H1817 0.960 . S
C1832 H1818 0.960 . S
C1832 H1819 0.960 . S
C1832 C1831 1.524 . S
C1833 C1830 1.403 1_545 S
C1833 C1834 1.392 . S
C1833 C1837 1.495 . S
C1834 C1833 1.392 . S
C1834 C1835 1.385 . S
C1834 C1836 1.478 . S
C1835 H1829 0.930 . S
C1835 C1831 1.400 1_545 S
C1835 C1834 1.385 . S
C1836 C1834 1.478 . S
C1836 C1838 1.381 . S
C1836 C1842 1.383 . S
C1837 C1833 1.495 . S
C1837 H1843 0.959 . S
C1837 H1844 0.961 . S
C1837 H1845 0.960 . S
C1838 C1836 1.381 . S
C1838 C1839 1.394 . S
C1838 H1846 0.930 . S
C1839 C1838 1.394 . S
C1839 C1840 1.383 . S
C1839 H1847 0.929 . S
C1840 C1839 1.383 . S
C1840 C1841 1.377 . S
C1841 H1825 0.930 . S
C1841 C1840 1.377 . S
C1841 C1842 1.379 . S
C1842 H1826 0.931 . S
C1842 C1836 1.383 . S
C1842 C1841 1.379 . S
H1843 C1837 0.959 . S
H1844 C1837 0.961 . S
H1845 C1837 0.960 . S
H1846 C1838 0.930 . S
H1847 C1839 0.929 . S
H1848 C1856 0.929 . S
H1849 C1858 0.930 . S
H1850 C1860 0.930 . S
H1851 C1863 0.929 . S
H1852 C1866 0.930 . S
H1853 C1868 0.960 . S
H1854 C1868 0.960 . S
H1855 C1868 0.960 . S
C1856 H1848 0.929 . S
C1856 C1857 1.377 . S
C1856 C1858 1.384 . S
C1857 C1856 1.377 . S
C1857 C1863 1.390 . S
C1858 H1849 0.930 . S
C1858 C1856 1.384 . S
C1858 C1859 1.372 . S
C1859 C1858 1.372 . S
C1859 C1860 1.400 . S
C1859 C1864 1.490 . S
C1860 H1850 0.930 . S
C1860 C1859 1.400 . S
C1860 C1863 1.386 . S
H1861 C1877 0.930 . S
H1862 C1878 0.931 . S
C1863 H1851 0.929 . S
C1863 C1857 1.390 . S
C1863 C1860 1.386 . S
C1864 C1859 1.490 . S
C1864 C1866 1.395 . S
C1864 C1867 1.403 . S
H1865 C1871 0.930 . S
C1866 H1852 0.930 . S
C1866 C1864 1.395 . S
C1866 C1869 1.403 . S
C1867 C1864 1.403 . S
C1867 C1868 1.524 . S
C1867 C1871 1.400 . S
C1868 H1853 0.960 . S
C1868 H1854 0.960 . S
C1868 H1855 0.960 . S
C1868 C1867 1.524 . S
C1869 C1866 1.403 . S
C1869 C1870 1.392 . S
C1869 C1873 1.495 . S
C1870 C1869 1.392 . S
C1870 C1871 1.385 . S
C1870 C1872 1.478 . S
C1871 H1865 0.930 . S
C1871 C1867 1.400 . S
C1871 C1870 1.385 . S
C1872 C1870 1.478 . S
C1872 C1874 1.381 . S
C1872 C1878 1.383 . S
C1873 C1869 1.495 . S
C1873 H1879 0.959 . S
C1873 H1880 0.961 . S
C1873 H1881 0.960 . S
C1874 C1872 1.381 . S
C1874 C1875 1.394 . S
C1874 H1882 0.930 . S
C1875 C1874 1.394 . S
C1875 C1876 1.383 . S
C1875 H1883 0.929 . S
C1876 C1875 1.383 . S
C1876 C1877 1.377 . S
C1877 H1861 0.930 . S
C1877 C1876 1.377 . S
C1877 C1878 1.379 . S
C1878 H1862 0.931 . S
C1878 C1872 1.383 . S
C1878 C1877 1.379 . S
H1879 C1873 0.959 . S
H1880 C1873 0.961 . S
H1881 C1873 0.960 . S
H1882 C1874 0.930 . S
H1883 C1875 0.929 . S
H1884 C1892 0.929 . S
H1885 C1894 0.930 . S
H1886 C1896 0.930 . S
H1887 C1899 0.929 . S
H1888 C1902 0.930 . S
H1889 C1904 0.960 . S
H1890 C1904 0.960 . S
H1891 C1904 0.960 . S
C1892 H1884 0.929 . S
C1892 C1893 1.377 . S
C1892 C1894 1.384 . S
C1893 C1892 1.377 . S
C1893 C1899 1.390 . S
C1894 H1885 0.930 . S
C1894 C1892 1.384 . S
C1894 C1895 1.372 . S
C1895 C1894 1.372 . S
C1895 C1896 1.400 . S
C1895 C1900 1.490 . S
C1896 H1886 0.930 . S
C1896 C1895 1.400 . S
C1896 C1899 1.386 . S
H1897 C1913 0.930 . S
H1898 C1914 0.931 . S
C1899 H1887 0.929 . S
C1899 C1893 1.390 . S
C1899 C1896 1.386 . S
C1900 C1895 1.490 . S
C1900 C1902 1.395 . S
C1900 C1903 1.403 . S
H1901 C1907 0.930 . S
C1902 H1888 0.930 . S
C1902 C1900 1.395 . S
C1902 C1905 1.403 1_455 S
C1903 C1900 1.403 . S
C1903 C1904 1.524 . S
C1903 C1907 1.400 1_455 S
C1904 H1889 0.960 . S
C1904 H1890 0.960 . S
C1904 H1891 0.960 . S
C1904 C1903 1.524 . S
C1905 C1902 1.403 1_655 S
C1905 C1906 1.392 . S
C1905 C1909 1.495 . S
C1906 C1905 1.392 . S
C1906 C1907 1.385 . S
C1906 C1908 1.478 . S
C1907 H1901 0.930 . S
C1907 C1903 1.400 1_655 S
C1907 C1906 1.385 . S
C1908 C1906 1.478 . S
C1908 C1910 1.381 . S
C1908 C1914 1.383 . S
C1909 C1905 1.495 . S
C1909 H1915 0.959 . S
C1909 H1916 0.961 . S
C1909 H1917 0.960 . S
C1910 C1908 1.381 . S
C1910 C1911 1.394 . S
C1910 H1918 0.930 . S
C1911 C1910 1.394 . S
C1911 C1912 1.383 . S
C1911 H1919 0.929 . S
C1912 C1911 1.383 . S
C1912 C1913 1.377 . S
C1913 H1897 0.930 . S
C1913 C1912 1.377 . S
C1913 C1914 1.379 . S
C1914 H1898 0.931 . S
C1914 C1908 1.383 . S
C1914 C1913 1.379 . S
H1915 C1909 0.959 . S
H1916 C1909 0.961 . S
H1917 C1909 0.960 . S
H1918 C1910 0.930 . S
H1919 C1911 0.929 . S
C1065 C29 1.144 . S
C1084 C929 1.137 . S
C1101 C108 1.143 . S
C1120 C1025 1.139 . S
C1137 C585 1.142 . S
C1156 C205 1.143 . S
C1173 C293 1.144 . S
C1192 C673 1.137 . S
C1209 C761 1.142 . S
C1228 C381 1.144 . S
C1245 C841 1.143 . S
C1264 C489 1.140 . S
C1281 C724 0.948 . S
C1300 C49 0.966 . S
C1317 C145 0.948 . S
C1336 C821 0.961 . S
C1353 C909 0.946 . S
C1372 C225 0.946 . S
C1389 C313 0.949 . S
C1408 C988 0.962 . S
C1425 C401 0.941 . S
C1444 C548 0.947 . S
C1461 C469 0.941 . S
C1480 C636 0.934 . S
C1497 C900 1.788 . S
C1516 C57 1.787 . S
C1533 C997 1.785 . S
C1552 C137 1.774 . S
C1569 C557 1.788 . S
C1588 C233 1.786 . S
C1605 C321 1.786 . S
C1624 C645 1.778 . S
C1641 C409 1.789 . S
C1660 C733 1.793 . S
C1677 C812 1.787 . S
C1696 C460 1.784 . S
C1713 C20 0.979 . S
C1732 C665 0.946 . S
C1749 C753 0.970 . S
C1768 C117 1.001 . S
C1785 C849 0.981 . S
C1804 C196 0.958 . S
C1821 C284 0.971 . S
C1840 C937 1.000 . S
C1857 C372 0.972 . S
C1876 C1017 1.003 . S
C1893 C497 0.977 . S
C1912 C577 0.946 . S
