# Generated by pormake.
# Topology qtz-f, (3)-cn, num edge types: 1
# Building blocks:
#     Node 0, Type 0, BuildingBlock: WUSLED_clean_sbu_0, # of connection points: 3
#     Node 1, Type 0, BuildingBlock: WUSLED_clean_sbu_0, # of connection points: 3
#     Node 2, Type 0, BuildingBlock: WUSLED_clean_sbu_0, # of connection points: 3
#     Node 3, Type 0, BuildingBlock: WUSLED_clean_sbu_0, # of connection points: 3
#     Node 4, Type 0, BuildingBlock: WUSLED_clean_sbu_0, # of connection points: 3
#     Node 5, Type 0, BuildingBlock: WUSLED_clean_sbu_0, # of connection points: 3
#     Node 6, Type 0, BuildingBlock: WUSLED_clean_sbu_0, # of connection points: 3
#     Node 7, Type 0, BuildingBlock: WUSLED_clean_sbu_0, # of connection points: 3
#     Node 8, Type 0, BuildingBlock: WUSLED_clean_sbu_0, # of connection points: 3
#     Node 9, Type 0, BuildingBlock: WUSLED_clean_sbu_0, # of connection points: 3
#     Node 10, Type 0, BuildingBlock: WUSLED_clean_sbu_0, # of connection points: 3
#     Node 11, Type 0, BuildingBlock: WUSLED_clean_sbu_0, # of connection points: 3
#     Edge 12, Type (0, 0), None
#     Edge 13, Type (0, 0), None
#     Edge 14, Type (0, 0), None
#     Edge 15, Type (0, 0), None
#     Edge 16, Type (0, 0), None
#     Edge 17, Type (0, 0), None
#     Edge 18, Type (0, 0), None
#     Edge 19, Type (0, 0), None
#     Edge 20, Type (0, 0), None
#     Edge 21, Type (0, 0), None
#     Edge 22, Type (0, 0), None
#     Edge 23, Type (0, 0), None
#     Edge 24, Type (0, 0), None
#     Edge 25, Type (0, 0), None
#     Edge 26, Type (0, 0), None
#     Edge 27, Type (0, 0), None
#     Edge 28, Type (0, 0), None
#     Edge 29, Type (0, 0), None
# Relax obj value: 0.120
# Max RMSD: 0.090
# Mean RMSD: 0.090
data_MOF--net-qtz-f--node1-WUSLED_clean_sbu_0--edge1-none
_symmetry_space_group_name_H-M    P1
_symmetry_Int_Tables_number       1
_symmetry_cell_setting            triclinic
loop_
_symmetry_equiv_pos_as_xyz
'x, y, z'
_cell_length_a     60.851024
_cell_length_b     60.850282
_cell_length_c     35.649868
_cell_angle_alpha  89.993267
_cell_angle_beta   90.00261
_cell_angle_gamma 119.99674
loop_
_atom_site_label
_atom_site_type_symbol
_atom_site_fract_x
_atom_site_fract_y
_atom_site_fract_z
_atom_type_partial_charge
C0 C 0.08851 0.39646 0.16304 0.0
C1 C 0.07841 0.40956 0.18215 0.0
C2 C 0.03848 0.37019 0.19164 0.0
C3 C 0.05372 0.3966 0.19631 0.0
C4 C 0.04884 0.357 0.17308 0.0
C5 C 0.07366 0.37007 0.15878 0.0
U6 U 0.14528 0.45993 0.14482 0.0
O7 O 0.18658 0.47496 0.14804 0.0
O8 O 0.1692 0.47718 0.09511 0.0
C9 C 0.19012 0.48178 0.11256 0.0
C10 C 0.11417 0.41076 0.14673 0.0
C11 C 0.20846 0.47754 0.09128 0.0
C12 C 0.21928 0.45391 0.04694 0.0
C13 C 0.2013 0.45565 0.06969 0.0
C14 C 0.25156 0.49556 0.06798 0.0
C15 C 0.24447 0.47419 0.04522 0.0
C16 C 0.23377 0.49718 0.09073 0.0
C17 C 0.13743 0.51527 0.18403 0.0
C18 C 0.15165 0.55809 0.16161 0.0
C19 C 0.13553 0.54625 0.22489 0.0
C20 C 0.13183 0.52194 0.2189 0.0
C21 C 0.14482 0.56443 0.196 0.0
C22 C 0.14802 0.53374 0.15568 0.0
C23 C 0.12956 0.48843 0.17707 0.0
O24 O 0.11599 0.42494 0.11777 0.0
O25 O 0.13258 0.42273 0.17119 0.0
O26 O 0.14201 0.47924 0.19515 0.0
O27 O 0.12421 0.48047 0.1422 0.0
H28 H 0.08959 0.42994 0.1858 0.0
H29 H 0.04656 0.40732 0.211 0.0
H30 H 0.03757 0.3367 0.1688 0.0
H31 H 0.08112 0.35965 0.144 0.0
H32 H 0.2133 0.43723 1.02966 0.0
H33 H 0.1818 0.44027 0.06971 0.0
H34 H 0.27087 0.51132 0.06769 0.0
H35 H 0.2397 0.5142 0.10721 0.0
H36 H 0.15916 0.57175 0.13895 0.0
H37 H 0.12978 0.55033 0.25154 0.0
H38 H 0.12354 0.50796 0.24109 0.0
H39 H 0.15265 0.52911 0.12855 0.0
C40 C 0.70868 0.08013 0.49634 0.0
C41 C 0.68548 0.07003 0.51548 0.0
C42 C 0.68494 0.0301 0.52496 0.0
C43 C 0.67377 0.04533 0.52965 0.0
C44 C 0.70849 0.04047 0.50638 0.0
C45 C 0.72022 0.06529 0.49207 0.0
U46 U 0.70193 0.13689 0.47828 0.0
O47 O 0.72822 0.17819 0.48123 0.0
O48 O 0.70835 0.16071 0.42852 0.0
C49 C 0.72473 0.18167 0.44582 0.0
C50 C 0.72 0.10578 0.47999 0.0
C51 C 0.74715 0.19998 0.42426 0.0
C52 C 0.78242 0.21094 0.38148 0.0
C53 C 0.76271 0.19306 0.40434 0.0
C54 C 0.77133 0.24264 0.39902 0.0
C55 C 0.7865 0.23577 0.37797 0.0
C56 C 0.75195 0.22496 0.42189 0.0
C57 C 0.63886 0.12907 0.5179 0.0
C58 C 0.61032 0.14339 0.4956 0.0
C59 C 0.60592 0.12705 0.55877 0.0
C60 C 0.62654 0.12336 0.55274 0.0
C61 C 0.5971 0.13646 0.52994 0.0
C62 C 0.63104 0.13976 0.48963 0.0
C63 C 0.65782 0.12119 0.51087 0.0
O64 O 0.70755 0.10758 0.45112 0.0
O65 O 0.72652 0.12422 0.50442 0.0
O66 O 0.67953 0.13371 0.52878 0.0
O67 O 0.66032 0.11577 0.476 0.0
H68 H 0.67628 0.0812 0.51914 0.0
H69 H 0.6559 0.03817 0.54435 0.0
H70 H 0.71752 0.0292 0.50209 0.0
H71 H 0.73809 0.07275 0.47727 0.0
H72 H 0.79381 0.20515 0.36554 0.0
H73 H 0.75927 0.17381 0.40579 0.0
H74 H 0.77424 0.26169 0.39736 0.0
H75 H 0.7402 0.23069 0.43709 0.0
H76 H 0.60421 0.15098 0.47299 0.0
H77 H 0.59606 0.12122 0.58537 0.0
H78 H 0.63219 0.11499 0.57486 0.0
H79 H 0.64034 0.14447 0.46254 0.0
C80 C 0.64534 0.70035 0.82972 0.0
C81 C 0.63222 0.67711 0.84873 0.0
C82 C 0.67161 0.67658 0.85831 0.0
C83 C 0.64519 0.66537 0.86289 0.0
C84 C 0.68481 0.70017 0.83985 0.0
C85 C 0.67173 0.71192 0.82555 0.0
U86 U 0.58188 0.6937 0.81152 0.0
O87 O 0.56687 0.71999 0.81481 0.0
O88 O 0.56466 0.70045 0.76184 0.0
C89 C 0.56008 0.71677 0.77932 0.0
C90 C 0.63105 0.71173 0.81344 0.0
C91 C 0.56435 0.73939 0.7581 0.0
C92 C 0.58777 0.7736 0.71332 0.0
C93 C 0.58607 0.75388 0.73603 0.0
C94 C 0.54648 0.76472 0.73534 0.0
C95 C 0.56765 0.77875 0.7121 0.0
C96 C 0.5449 0.74533 0.75807 0.0
C97 C 0.5265 0.6305 0.85069 0.0
C98 C 0.48368 0.6019 0.82832 0.0
C99 C 0.49554 0.59762 0.89159 0.0
C100 C 0.51985 0.61824 0.88558 0.0
C101 C 0.47735 0.58874 0.86271 0.0
C102 C 0.50803 0.62262 0.82236 0.0
C103 C 0.55335 0.64947 0.84372 0.0
O104 O 0.61686 0.69939 0.78446 0.0
O105 O 0.61907 0.71815 0.83791 0.0
O106 O 0.56256 0.6711 0.86183 0.0
O107 O 0.56129 0.65209 0.80884 0.0
H108 H 0.61184 0.66788 0.85231 0.0
H109 H 0.63446 0.64747 0.87749 0.0
H110 H 0.70512 0.70923 0.83565 0.0
H111 H 0.68217 0.72983 0.81086 0.0
H112 H 0.60429 0.7841 0.69566 0.0
H113 H 0.60131 0.74956 0.73565 0.0
H114 H 0.53085 0.76848 0.73544 0.0
H115 H 0.52801 0.73441 0.77491 0.0
H116 H 0.47001 0.59574 0.80566 0.0
H117 H 0.49147 0.5878 0.91824 0.0
H118 H 0.53383 0.62393 0.90775 0.0
H119 H 0.51265 0.63187 0.79522 0.0
C120 C 0.9617 0.63696 0.16309 0.0
C121 C 0.97184 0.62385 0.18209 0.0
C122 C 1.01174 0.66324 0.19166 0.0
C123 C 0.99654 0.63682 0.19624 0.0
C124 C 1.00134 0.67644 0.17321 0.0
C125 C 0.97652 0.66336 0.15892 0.0
U126 U 0.9049 0.57349 0.14499 0.0
O127 O 0.8636 0.55849 0.14824 0.0
O128 O 0.88094 0.55622 0.09531 0.0
C129 C 0.86003 0.55165 0.11277 0.0
C130 C 0.93604 0.62266 0.14682 0.0
C131 C 0.8417 0.55591 0.0915 0.0
C132 C 0.8309 0.57945 0.04696 0.0
C133 C 0.84889 0.57773 0.0697 0.0
C134 C 0.79856 0.53795 0.0684 0.0
C135 C 0.80568 0.55924 0.04544 0.0
C136 C 0.81635 0.53634 0.09115 0.0
C137 C 0.91272 0.51814 0.18431 0.0
C138 C 0.89844 0.47529 0.16203 0.0
C139 C 0.91468 0.48721 0.22524 0.0
C140 C 0.91838 0.51152 0.21918 0.0
C141 C 0.90531 0.469 0.1964 0.0
C142 C 0.90207 0.49964 0.15603 0.0
C143 C 0.9206 0.54499 0.17729 0.0
O144 O 0.93419 0.60845 0.11787 0.0
O145 O 0.91763 0.61071 0.17129 0.0
O146 O 0.90817 0.55421 0.19535 0.0
O147 O 0.92592 0.5529 0.1424 0.0
H148 H 0.96068 0.60346 0.18567 0.0
H149 H 1.00373 0.6261 0.21084 0.0
H150 H 1.01258 0.69675 0.16901 0.0
H151 H 0.96903 0.67378 0.14424 0.0
H152 H 0.8369 0.59607 1.02952 0.0
H153 H 0.86842 0.59305 0.06956 0.0
H154 H 0.77922 0.52225 0.06827 0.0
H155 H 0.81041 0.51938 0.10779 0.0
H156 H 0.89088 0.46159 0.13941 0.0
H157 H 0.92047 0.48317 0.25187 0.0
H158 H 0.92671 0.52553 0.24132 0.0
H159 H 0.8974 0.50424 0.12891 0.0
C160 C 0.34138 0.9533 0.49639 0.0
C161 C 0.36461 0.96343 0.51542 0.0
C162 C 0.36515 1.00334 0.52496 0.0
C163 C 0.37634 0.98812 0.52957 0.0
C164 C 0.34157 0.99296 0.50646 0.0
C165 C 0.32982 0.96814 0.49218 0.0
U166 U 0.34804 0.89651 0.47816 0.0
O167 O 0.32177 0.85521 0.48152 0.0
O168 O 0.34124 0.87252 0.4285 0.0
C169 C 0.32493 0.85163 0.44602 0.0
C170 C 0.33 0.92764 0.48012 0.0
C171 C 0.30228 0.83328 0.42488 0.0
C172 C 0.26829 0.82252 0.37969 0.0
C173 C 0.28801 0.84055 0.40237 0.0
C174 C 0.2767 0.78997 0.40265 0.0
C175 C 0.26291 0.79716 0.37896 0.0
C176 C 0.2961 0.80782 0.42533 0.0
C177 C 0.41128 0.90435 0.51723 0.0
C178 C 0.4399 0.89015 0.49484 0.0
C179 C 0.44414 0.90623 0.55813 0.0
C180 C 0.42353 0.90993 0.55212 0.0
C181 C 0.45303 0.89696 0.52924 0.0
C182 C 0.41917 0.89378 0.48888 0.0
C183 C 0.3923 0.91223 0.51027 0.0
O184 O 0.34232 0.92579 0.45112 0.0
O185 O 0.3236 0.90924 0.5046 0.0
O186 O 0.37068 0.89981 0.52843 0.0
O187 O 0.38965 0.91753 0.4754 0.0
H188 H 0.37383 0.95226 0.51903 0.0
H189 H 0.39424 0.9953 0.5442 0.0
H190 H 0.33252 1.00422 0.50223 0.0
H191 H 0.31192 0.96067 0.47746 0.0
H192 H 0.25798 0.82857 0.36168 0.0
H193 H 0.29252 0.86016 0.4016 0.0
H194 H 0.27277 0.77053 0.40312 0.0
H195 H 0.30685 0.80181 0.44251 0.0
H196 H 0.44606 0.88266 0.47217 0.0
H197 H 0.45395 0.91197 0.58479 0.0
H198 H 0.41782 0.9182 0.57432 0.0
H199 H 0.40993 0.88917 0.46174 0.0
C200 C 0.40485 0.33306 0.8297 0.0
C201 C 0.41794 0.35626 0.84882 0.0
C202 C 0.37856 0.35681 0.85831 0.0
C203 C 0.40497 0.36798 0.86299 0.0
C204 C 0.36537 0.33326 0.83974 0.0
C205 C 0.37846 0.32152 0.82544 0.0
U206 U 0.46833 0.33981 0.81158 0.0
O207 O 0.48337 0.31354 0.81462 0.0
O208 O 0.48569 0.33331 0.76184 0.0
C209 C 0.49029 0.31695 0.77919 0.0
C210 C 0.41916 0.32173 0.81337 0.0
C211 C 0.48613 0.29448 0.75773 0.0
C212 C 0.46204 0.25948 0.71444 0.0
C213 C 0.46383 0.27919 0.73726 0.0
C214 C 0.50446 0.27 0.73313 0.0
C215 C 0.48263 0.25513 0.71153 0.0
C216 C 0.50615 0.28939 0.75597 0.0
C217 C 0.52362 0.40293 0.85102 0.0
C218 C 0.56646 0.43148 0.82866 0.0
C219 C 0.55458 0.43584 0.89188 0.0
C220 C 0.53027 0.41523 0.88587 0.0
C221 C 0.57277 0.44467 0.86301 0.0
C222 C 0.5421 0.41076 0.82271 0.0
C223 C 0.49678 0.38396 0.84404 0.0
O224 O 0.43338 0.33415 0.78446 0.0
O225 O 0.43111 0.31525 0.83781 0.0
O226 O 0.4876 0.36228 0.86201 0.0
O227 O 0.48884 0.38142 0.80917 0.0
H228 H 0.43832 0.36547 0.85248 0.0
H229 H 0.41568 0.38586 0.87768 0.0
H230 H 0.34507 0.32423 0.83546 0.0
H231 H 0.36804 0.30365 0.81065 0.0
H232 H 0.445 0.24831 0.69806 0.0
H233 H 0.44816 0.28286 0.73824 0.0
H234 H 0.52048 0.26688 0.73193 0.0
H235 H 0.52348 0.30093 0.77159 0.0
H236 H 0.58014 0.4376 0.80602 0.0
H237 H 0.55864 0.44569 0.9185 0.0
H238 H 0.51627 0.40956 0.90803 0.0
H239 H 0.53749 0.40147 0.79561 0.0
C240 C 0.64529 0.95333 0.56734 0.0
C241 C 0.63219 0.96346 0.5483 0.0
C242 C 0.67158 1.00337 0.53875 0.0
C243 C 0.64516 0.98816 0.53414 0.0
C244 C 0.68477 0.99298 0.55723 0.0
C245 C 0.67169 0.96816 0.57153 0.0
U246 U 0.58182 0.89655 0.58543 0.0
O247 O 0.56682 0.85525 0.58234 0.0
O248 O 0.56448 0.87266 0.63515 0.0
C249 C 0.55991 0.85172 0.61778 0.0
C250 C 0.63099 0.92768 0.58366 0.0
C251 C 0.56408 0.8334 0.6392 0.0
C252 C 0.58804 0.82253 0.68283 0.0
C253 C 0.58626 0.84046 0.66002 0.0
C254 C 0.54584 0.79051 0.66343 0.0
C255 C 0.56753 0.7975 0.68539 0.0
C256 C 0.54418 0.80823 0.6406 0.0
C257 C 0.52651 0.90436 0.54597 0.0
C258 C 0.48365 0.89006 0.56827 0.0
C259 C 0.49558 0.90634 0.50507 0.0
C260 C 0.51989 0.91004 0.51111 0.0
C261 C 0.47736 0.89696 0.53391 0.0
C262 C 0.50801 0.89369 0.57425 0.0
C263 C 0.55335 0.91224 0.55299 0.0
O264 O 0.61676 0.92585 0.61257 0.0
O265 O 0.61905 0.90926 0.5592 0.0
O266 O 0.56256 0.89977 0.535 0.0
O267 O 0.56127 0.91762 0.58787 0.0
H268 H 0.61181 0.9523 0.5447 0.0
H269 H 0.63444 0.99534 0.51952 0.0
H270 H 0.70508 1.00423 0.56145 0.0
H271 H 0.68212 0.96068 0.58625 0.0
H272 H 0.60496 0.82843 0.69949 0.0
H273 H 0.60185 0.85985 0.65933 0.0
H274 H 0.52989 0.7713 0.66435 0.0
H275 H 0.52694 0.80239 0.62472 0.0
H276 H 0.46996 0.88248 0.59088 0.0
H277 H 0.49154 0.91215 0.47845 0.0
H278 H 0.5339 0.91839 0.48898 0.0
H279 H 0.5126 0.889 0.60136 0.0
C280 C 0.70873 0.63694 0.90072 0.0
C281 C 0.68553 0.62384 0.88161 0.0
C282 C 0.68497 0.66322 0.87211 0.0
C283 C 0.6738 0.63681 0.86744 0.0
C284 C 0.70853 0.67641 0.89067 0.0
C285 C 0.72027 0.66333 0.90498 0.0
U286 U 0.70202 0.57346 0.91891 0.0
O287 O 0.7283 0.55844 0.91578 0.0
O288 O 0.70863 0.55617 0.96864 0.0
C289 C 0.72496 0.55157 0.95124 0.0
C290 C 0.72008 0.62264 0.91704 0.0
C291 C 0.74749 0.55577 0.9726 0.0
C292 C 0.78218 0.5796 1.01648 0.0
C293 C 0.76247 0.57785 0.9937 0.0
C294 C 0.7723 0.5376 0.99647 0.0
C295 C 0.78685 0.55918 1.01873 0.0
C296 C 0.75291 0.53596 0.97368 0.0
C297 C 0.63886 0.51814 0.87962 0.0
C298 C 0.61028 0.47532 0.90202 0.0
C299 C 0.60596 0.48717 0.83876 0.0
C300 C 0.62658 0.51148 0.84475 0.0
C301 C 0.5971 0.46899 0.86765 0.0
C302 C 0.631 0.49967 0.90796 0.0
C303 C 0.65783 0.54499 0.88658 0.0
O304 O 0.7077 0.60844 0.94599 0.0
O305 O 0.72654 0.61067 0.8926 0.0
O306 O 0.67949 0.55417 0.86854 0.0
O307 O 0.66041 0.55293 0.92145 0.0
H308 H 0.67633 0.60346 0.87797 0.0
H309 H 0.65592 0.62609 0.85276 0.0
H310 H 0.71756 0.69671 0.89494 0.0
H311 H 0.73815 0.67375 0.91975 0.0
H312 H 0.79309 0.59644 0.03337 0.0
H313 H 0.75855 0.59336 0.99326 0.0
H314 H 0.77567 0.52173 0.99716 0.0
H315 H 0.74162 0.5188 0.95757 0.0
H316 H 0.60413 0.46165 0.92468 0.0
H317 H 0.59613 0.4831 0.81213 0.0
H318 H 0.63226 0.52547 0.82257 0.0
H319 H 0.64027 0.50429 0.93508 0.0
C320 C 0.0885 0.70035 0.23405 0.0
C321 C 0.0784 0.67716 0.2149 0.0
C322 C 0.03847 0.67661 0.20544 0.0
C323 C 0.05371 0.66544 0.20074 0.0
C324 C 0.04883 0.70015 0.22403 0.0
C325 C 0.07365 0.71188 0.23834 0.0
U326 U 0.14525 0.6936 0.25214 0.0
O327 O 0.18655 0.71988 0.24913 0.0
O328 O 0.1691 0.70008 0.30189 0.0
C329 C 0.19005 0.71644 0.28455 0.0
C330 C 0.11415 0.71168 0.25038 0.0
C331 C 0.20836 0.7389 0.30603 0.0
C332 C 0.21928 0.77395 0.34922 0.0
C333 C 0.20137 0.75425 0.32639 0.0
C334 C 0.25114 0.76331 0.33078 0.0
C335 C 0.2442 0.77825 0.35226 0.0
C336 C 0.23344 0.74392 0.30793 0.0
C337 C 0.13742 0.6305 0.21265 0.0
C338 C 0.15172 0.60195 0.23499 0.0
C339 C 0.13544 0.59758 0.17179 0.0
C340 C 0.13174 0.61819 0.17781 0.0
C341 C 0.14482 0.58875 0.20064 0.0
C342 C 0.14808 0.62267 0.24094 0.0
C343 C 0.12954 0.64946 0.21965 0.0
O344 O 0.11595 0.69925 0.27928 0.0
O345 O 0.13258 0.71818 0.22595 0.0
O346 O 0.14204 0.67115 0.20169 0.0
O347 O 0.12414 0.65199 0.25453 0.0
H348 H 0.08958 0.66796 0.21123 0.0
H349 H 0.04655 0.64757 0.18603 0.0
H350 H 0.03756 0.70917 0.22833 0.0
H351 H 0.0811 0.72975 0.25314 0.0
H352 H 0.21343 0.78517 0.36551 0.0
H353 H 0.18205 0.75063 0.32531 0.0
H354 H 0.27026 0.76639 0.33207 0.0
H355 H 0.23922 0.73234 0.2924 0.0
H356 H 0.15929 0.59583 0.25762 0.0
H357 H 0.12963 0.58772 0.14518 0.0
H358 H 0.12339 0.62385 0.15566 0.0
H359 H 0.15277 0.63196 0.26805 0.0
C360 C 0.40477 0.08011 0.56732 0.0
C361 C 0.41788 0.06999 0.54828 0.0
C362 C 0.3785 0.03007 0.53875 0.0
C363 C 0.40492 0.04529 0.53413 0.0
C364 C 0.36531 0.04045 0.55725 0.0
C365 C 0.37838 0.06527 0.57154 0.0
U366 U 0.46822 0.13689 0.58558 0.0
O367 O 0.48325 0.17819 0.58224 0.0
O368 O 0.48541 0.16087 0.63526 0.0
C369 C 0.49 0.18176 0.61774 0.0
C370 C 0.41905 0.10577 0.5836 0.0
C371 C 0.4857 0.20011 0.6389 0.0
C372 C 0.46243 0.21089 0.68398 0.0
C373 C 0.46412 0.19286 0.6613 0.0
C374 C 0.50347 0.2434 0.66125 0.0
C375 C 0.48245 0.23623 0.68483 0.0
C376 C 0.50503 0.22556 0.63856 0.0
C377 C 0.52362 0.12905 0.54655 0.0
C378 C 0.56642 0.14324 0.56899 0.0
C379 C 0.55462 0.12719 0.50568 0.0
C380 C 0.5303 0.12348 0.51166 0.0
C381 C 0.57278 0.13645 0.53459 0.0
C382 C 0.54206 0.1396 0.57492 0.0
C383 C 0.49676 0.12117 0.55348 0.0
O384 O 0.43322 0.10761 0.61261 0.0
O385 O 0.43105 0.12417 0.55913 0.0
O386 O 0.48757 0.13359 0.53533 0.0
O387 O 0.4888 0.11586 0.58835 0.0
H388 H 0.43827 0.08116 0.54467 0.0
H389 H 0.41565 0.03812 0.51949 0.0
H390 H 0.345 0.02918 0.56149 0.0
H391 H 0.36795 0.07274 0.58626 0.0
H392 H 0.44603 0.20485 0.7019 0.0
H393 H 0.44898 0.17326 0.66197 0.0
H394 H 0.51901 0.26282 0.66087 0.0
H395 H 0.52182 0.23155 0.62146 0.0
H396 H 0.58007 0.15072 0.59168 0.0
H397 H 0.55871 0.12147 0.47902 0.0
H398 H 0.51634 0.11522 0.48945 0.0
H399 H 0.53742 0.1442 0.60206 0.0
C400 C 0.34144 0.39646 0.90066 0.0
C401 C 0.36468 0.40957 0.88163 0.0
C402 C 0.36519 0.37017 0.87209 0.0
C403 C 0.3764 0.39659 0.86748 0.0
C404 C 0.34161 0.35699 0.89056 0.0
C405 C 0.32987 0.37007 0.90486 0.0
U406 U 0.34814 0.45994 0.91878 0.0
O407 O 0.32185 0.47496 0.9156 0.0
O408 O 0.34152 0.47724 0.96848 0.0
C409 C 0.32518 0.48182 0.95106 0.0
C410 C 0.33009 0.41077 0.91696 0.0
C411 C 0.30263 0.47761 0.9724 0.0
C412 C 0.26805 0.45385 1.01648 0.0
C413 C 0.28776 0.4556 0.9937 0.0
C414 C 0.27772 0.49572 0.99605 0.0
C415 C 0.26328 0.47422 1.01851 0.0
C416 C 0.29711 0.49735 0.97326 0.0
C417 C 0.41129 0.51526 0.87942 0.0
C418 C 0.43985 0.55811 0.90175 0.0
C419 C 0.44419 0.54621 0.83853 0.0
C420 C 0.42358 0.5219 0.84456 0.0
C421 C 0.45303 0.56442 0.86738 0.0
C422 C 0.41913 0.53376 0.90772 0.0
C423 C 0.39232 0.48842 0.88643 0.0
O424 O 0.34247 0.42498 0.94589 0.0
O425 O 0.32363 0.42272 0.89249 0.0
O426 O 0.37066 0.47922 0.86839 0.0
O427 O 0.38975 0.48049 0.92131 0.0
H428 H 0.3739 0.42995 0.87803 0.0
H429 H 0.3943 0.40731 0.85286 0.0
H430 H 0.33255 0.33668 0.89479 0.0
H431 H 0.31197 0.35964 0.91957 0.0
H432 H 0.25722 0.43708 0.03353 0.0
H433 H 0.29176 0.44015 0.99343 0.0
H434 H 0.27427 0.51154 0.99657 0.0
H435 H 0.30832 0.51445 0.957 0.0
H436 H 0.44598 0.5718 0.92437 0.0
H437 H 0.45403 0.55026 0.8119 0.0
H438 H 0.41791 0.5079 0.82241 0.0
H439 H 0.40986 0.52915 0.93484 0.0
C440 C 0.96171 0.33305 0.23401 0.0
C441 C 0.97185 0.35631 0.21503 0.0
C442 C 1.01175 0.35683 0.20544 0.0
C443 C 0.99654 0.36805 0.20088 0.0
C444 C 1.00136 0.33323 0.22388 0.0
C445 C 0.97653 0.32148 0.23816 0.0
U446 U 0.90488 0.33967 0.25222 0.0
O447 O 0.86359 0.31338 0.2488 0.0
O448 O 0.88086 0.33281 0.30187 0.0
C449 C 0.85998 0.3165 0.28431 0.0
C450 C 0.93604 0.32166 0.25026 0.0
C451 C 0.84164 0.29382 0.30541 0.0
C452 C 0.83088 0.26003 0.35097 0.0
C453 C 0.84894 0.27975 0.32832 0.0
C454 C 0.79824 0.26802 0.32719 0.0
C455 C 0.80545 0.25444 0.35128 0.0
C456 C 0.81611 0.28742 0.30453 0.0
C457 C 0.9127 0.40291 0.21315 0.0
C458 C 0.8985 0.43153 0.23551 0.0
C459 C 0.9146 0.43577 0.17222 0.0
C460 C 0.91829 0.41516 0.17826 0.0
C461 C 0.90531 0.44467 0.2011 0.0
C462 C 0.90213 0.41081 0.24149 0.0
C463 C 0.92058 0.38394 0.22014 0.0
O464 O 0.93417 0.33397 0.27927 0.0
O465 O 0.91765 0.31526 0.22577 0.0
O466 O 0.9082 0.36233 0.20197 0.0
O467 O 0.92586 0.38128 0.25502 0.0
H468 H 0.96068 0.36554 0.21146 0.0
H469 H 1.00373 0.38596 0.18629 0.0
H470 H 1.0126 0.32416 0.22807 0.0
H471 H 0.96905 0.30356 0.25283 0.0
H472 H 0.83696 0.24989 0.3693 0.0
H473 H 0.8686 0.28442 0.32943 0.0
H474 H 0.77875 0.26392 0.32638 0.0
H475 H 0.81007 0.298 0.28704 0.0
H476 H 0.891 0.4377 0.25816 0.0
H477 H 0.92034 0.44557 0.14556 0.0
H478 H 0.92657 0.40945 0.15608 0.0
H479 H 0.89751 0.40158 0.26863 0.0
loop_
_geom_bond_atom_site_label_1
_geom_bond_atom_site_label_2
_geom_bond_distance
_geom_bond_site_symmetry_2
_ccdc_geom_bond_type
C0 C1 1.264 . S
C0 C5 1.479 . S
C0 C10 1.465 . S
C1 C0 1.264 . S
C1 C3 1.339 . S
C1 H28 0.931 . S
C2 C3 1.395 . S
C2 C4 1.320 . S
C3 C1 1.339 . S
C3 C2 1.395 . S
C3 H29 0.929 . S
C4 C2 1.320 . S
C4 C5 1.405 . S
C4 H30 0.930 . S
C5 C0 1.479 . S
C5 C4 1.405 . S
C5 H31 0.931 . S
U6 O7 2.454 . S
U6 O8 2.458 . S
U6 C9 2.984 . S
U6 C10 2.847 . S
U6 C23 2.882 . S
U6 O24 2.441 . S
U6 O25 2.420 . S
U6 O26 2.455 . S
U6 O27 2.449 . S
O7 U6 2.454 . S
O7 C9 1.353 . S
O8 U6 2.458 . S
O8 C9 1.286 . S
C9 U6 2.984 . S
C9 O7 1.353 . S
C9 O8 1.286 . S
C9 C11 1.363 . S
C10 C0 1.465 . S
C10 U6 2.847 . S
C10 O24 1.249 . S
C10 O25 1.202 . S
C11 C9 1.363 . S
C11 C13 1.408 . S
C11 C16 1.342 . S
C12 C13 1.310 . S
C12 C15 1.461 . S
C12 H32 0.932 . S
C13 C11 1.408 . S
C13 C12 1.310 . S
C13 H33 0.930 . S
C14 C15 1.474 . S
C14 C16 1.285 . S
C14 H34 0.929 . S
C15 C12 1.461 . S
C15 C14 1.474 . S
C16 C11 1.342 . S
C16 C14 1.285 . S
C16 H35 0.930 . S
C17 C20 1.424 . S
C17 C22 1.245 . S
C17 C23 1.428 . S
C18 C21 1.260 . S
C18 C22 1.477 . S
C18 H36 0.932 . S
C19 C20 1.384 . S
C19 C21 1.479 . S
C19 H37 0.929 . S
C20 C17 1.424 . S
C20 C19 1.384 . S
C20 H38 0.928 . S
C21 C18 1.260 . S
C21 C19 1.479 . S
C22 C17 1.245 . S
C22 C18 1.477 . S
C22 H39 0.932 . S
C23 U6 2.882 . S
C23 C17 1.428 . S
C23 O26 1.301 . S
C23 O27 1.282 . S
O24 U6 2.441 . S
O24 C10 1.249 . S
O25 U6 2.420 . S
O25 C10 1.202 . S
O26 U6 2.455 . S
O26 C23 1.301 . S
O27 U6 2.449 . S
O27 C23 1.282 . S
H28 C1 0.931 . S
H29 C3 0.929 . S
H30 C4 0.930 . S
H31 C5 0.931 . S
H32 C12 0.932 . S
H33 C13 0.930 . S
H34 C14 0.929 . S
H35 C16 0.930 . S
H36 C18 0.932 . S
H37 C19 0.929 . S
H38 C20 0.928 . S
H39 C22 0.932 . S
C40 C41 1.264 . S
C40 C45 1.479 . S
C40 C50 1.465 . S
C41 C40 1.264 . S
C41 C43 1.339 . S
C41 H68 0.931 . S
C42 C43 1.395 . S
C42 C44 1.320 . S
C43 C41 1.339 . S
C43 C42 1.395 . S
C43 H69 0.929 . S
C44 C42 1.320 . S
C44 C45 1.405 . S
C44 H70 0.930 . S
C45 C40 1.479 . S
C45 C44 1.405 . S
C45 H71 0.931 . S
U46 O47 2.454 . S
U46 O48 2.458 . S
U46 C49 2.984 . S
U46 C50 2.847 . S
U46 C63 2.882 . S
U46 O64 2.441 . S
U46 O65 2.420 . S
U46 O66 2.455 . S
U46 O67 2.449 . S
O47 U46 2.454 . S
O47 C49 1.353 . S
O48 U46 2.458 . S
O48 C49 1.286 . S
C49 U46 2.984 . S
C49 O47 1.353 . S
C49 O48 1.286 . S
C49 C51 1.363 . S
C50 C40 1.465 . S
C50 U46 2.847 . S
C50 O64 1.249 . S
C50 O65 1.202 . S
C51 C49 1.363 . S
C51 C53 1.408 . S
C51 C56 1.342 . S
C52 C53 1.310 . S
C52 C55 1.461 . S
C52 H72 0.932 . S
C53 C51 1.408 . S
C53 C52 1.310 . S
C53 H73 0.930 . S
C54 C55 1.474 . S
C54 C56 1.285 . S
C54 H74 0.929 . S
C55 C52 1.461 . S
C55 C54 1.474 . S
C56 C51 1.342 . S
C56 C54 1.285 . S
C56 H75 0.930 . S
C57 C60 1.424 . S
C57 C62 1.245 . S
C57 C63 1.428 . S
C58 C61 1.260 . S
C58 C62 1.477 . S
C58 H76 0.932 . S
C59 C60 1.384 . S
C59 C61 1.479 . S
C59 H77 0.929 . S
C60 C57 1.424 . S
C60 C59 1.384 . S
C60 H78 0.928 . S
C61 C58 1.260 . S
C61 C59 1.479 . S
C62 C57 1.245 . S
C62 C58 1.477 . S
C62 H79 0.932 . S
C63 U46 2.882 . S
C63 C57 1.428 . S
C63 O66 1.301 . S
C63 O67 1.282 . S
O64 U46 2.441 . S
O64 C50 1.249 . S
O65 U46 2.420 . S
O65 C50 1.202 . S
O66 U46 2.455 . S
O66 C63 1.301 . S
O67 U46 2.449 . S
O67 C63 1.282 . S
H68 C41 0.931 . S
H69 C43 0.929 . S
H70 C44 0.930 . S
H71 C45 0.931 . S
H72 C52 0.932 . S
H73 C53 0.930 . S
H74 C54 0.929 . S
H75 C56 0.930 . S
H76 C58 0.932 . S
H77 C59 0.929 . S
H78 C60 0.928 . S
H79 C62 0.932 . S
C80 C81 1.264 . S
C80 C85 1.479 . S
C80 C90 1.465 . S
C81 C80 1.264 . S
C81 C83 1.339 . S
C81 H108 0.931 . S
C82 C83 1.395 . S
C82 C84 1.320 . S
C83 C81 1.339 . S
C83 C82 1.395 . S
C83 H109 0.929 . S
C84 C82 1.320 . S
C84 C85 1.405 . S
C84 H110 0.930 . S
C85 C80 1.479 . S
C85 C84 1.405 . S
C85 H111 0.931 . S
U86 O87 2.454 . S
U86 O88 2.458 . S
U86 C89 2.984 . S
U86 C90 2.847 . S
U86 C103 2.882 . S
U86 O104 2.441 . S
U86 O105 2.420 . S
U86 O106 2.455 . S
U86 O107 2.449 . S
O87 U86 2.454 . S
O87 C89 1.353 . S
O88 U86 2.458 . S
O88 C89 1.286 . S
C89 U86 2.984 . S
C89 O87 1.353 . S
C89 O88 1.286 . S
C89 C91 1.363 . S
C90 C80 1.465 . S
C90 U86 2.847 . S
C90 O104 1.249 . S
C90 O105 1.202 . S
C91 C89 1.363 . S
C91 C93 1.408 . S
C91 C96 1.342 . S
C92 C93 1.310 . S
C92 C95 1.461 . S
C92 H112 0.932 . S
C93 C91 1.408 . S
C93 C92 1.310 . S
C93 H113 0.930 . S
C94 C95 1.474 . S
C94 C96 1.285 . S
C94 H114 0.929 . S
C95 C92 1.461 . S
C95 C94 1.474 . S
C96 C91 1.342 . S
C96 C94 1.285 . S
C96 H115 0.930 . S
C97 C100 1.424 . S
C97 C102 1.245 . S
C97 C103 1.428 . S
C98 C101 1.260 . S
C98 C102 1.477 . S
C98 H116 0.932 . S
C99 C100 1.384 . S
C99 C101 1.479 . S
C99 H117 0.929 . S
C100 C97 1.424 . S
C100 C99 1.384 . S
C100 H118 0.928 . S
C101 C98 1.260 . S
C101 C99 1.479 . S
C102 C97 1.245 . S
C102 C98 1.477 . S
C102 H119 0.932 . S
C103 U86 2.882 . S
C103 C97 1.428 . S
C103 O106 1.301 . S
C103 O107 1.282 . S
O104 U86 2.441 . S
O104 C90 1.249 . S
O105 U86 2.420 . S
O105 C90 1.202 . S
O106 U86 2.455 . S
O106 C103 1.301 . S
O107 U86 2.449 . S
O107 C103 1.282 . S
H108 C81 0.931 . S
H109 C83 0.929 . S
H110 C84 0.930 . S
H111 C85 0.931 . S
H112 C92 0.932 . S
H113 C93 0.930 . S
H114 C94 0.929 . S
H115 C96 0.930 . S
H116 C98 0.932 . S
H117 C99 0.929 . S
H118 C100 0.928 . S
H119 C102 0.932 . S
C120 C121 1.264 . S
C120 C125 1.479 . S
C120 C130 1.465 . S
C121 C120 1.264 . S
C121 C123 1.339 . S
C121 H148 0.931 . S
C122 C123 1.395 . S
C122 C124 1.320 . S
C123 C121 1.339 . S
C123 C122 1.395 . S
C123 H149 0.929 . S
C124 C122 1.320 . S
C124 C125 1.405 . S
C124 H150 0.930 . S
C125 C120 1.479 . S
C125 C124 1.405 . S
C125 H151 0.931 . S
U126 O127 2.454 . S
U126 O128 2.458 . S
U126 C129 2.984 . S
U126 C130 2.847 . S
U126 C143 2.882 . S
U126 O144 2.441 . S
U126 O145 2.420 . S
U126 O146 2.455 . S
U126 O147 2.449 . S
O127 U126 2.454 . S
O127 C129 1.353 . S
O128 U126 2.458 . S
O128 C129 1.286 . S
C129 U126 2.984 . S
C129 O127 1.353 . S
C129 O128 1.286 . S
C129 C131 1.363 . S
C130 C120 1.465 . S
C130 U126 2.847 . S
C130 O144 1.249 . S
C130 O145 1.202 . S
C131 C129 1.363 . S
C131 C133 1.408 . S
C131 C136 1.342 . S
C132 C133 1.310 . S
C132 C135 1.461 . S
C132 H152 0.932 . S
C133 C131 1.408 . S
C133 C132 1.310 . S
C133 H153 0.930 . S
C134 C135 1.474 . S
C134 C136 1.285 . S
C134 H154 0.929 . S
C135 C132 1.461 . S
C135 C134 1.474 . S
C136 C131 1.342 . S
C136 C134 1.285 . S
C136 H155 0.930 . S
C137 C140 1.424 . S
C137 C142 1.245 . S
C137 C143 1.428 . S
C138 C141 1.260 . S
C138 C142 1.477 . S
C138 H156 0.932 . S
C139 C140 1.384 . S
C139 C141 1.479 . S
C139 H157 0.929 . S
C140 C137 1.424 . S
C140 C139 1.384 . S
C140 H158 0.928 . S
C141 C138 1.260 . S
C141 C139 1.479 . S
C142 C137 1.245 . S
C142 C138 1.477 . S
C142 H159 0.932 . S
C143 U126 2.882 . S
C143 C137 1.428 . S
C143 O146 1.301 . S
C143 O147 1.282 . S
O144 U126 2.441 . S
O144 C130 1.249 . S
O145 U126 2.420 . S
O145 C130 1.202 . S
O146 U126 2.455 . S
O146 C143 1.301 . S
O147 U126 2.449 . S
O147 C143 1.282 . S
H148 C121 0.931 . S
H149 C123 0.929 . S
H150 C124 0.930 . S
H151 C125 0.931 . S
H152 C132 0.932 . S
H153 C133 0.930 . S
H154 C134 0.929 . S
H155 C136 0.930 . S
H156 C138 0.932 . S
H157 C139 0.929 . S
H158 C140 0.928 . S
H159 C142 0.932 . S
C160 C161 1.264 . S
C160 C165 1.479 . S
C160 C170 1.465 . S
C161 C160 1.264 . S
C161 C163 1.339 . S
C161 H188 0.931 . S
C162 C163 1.395 . S
C162 C164 1.320 . S
C163 C161 1.339 . S
C163 C162 1.395 . S
C163 H189 0.929 . S
C164 C162 1.320 . S
C164 C165 1.405 . S
C164 H190 0.930 . S
C165 C160 1.479 . S
C165 C164 1.405 . S
C165 H191 0.931 . S
U166 O167 2.454 . S
U166 O168 2.458 . S
U166 C169 2.984 . S
U166 C170 2.847 . S
U166 C183 2.882 . S
U166 O184 2.441 . S
U166 O185 2.420 . S
U166 O186 2.455 . S
U166 O187 2.449 . S
O167 U166 2.454 . S
O167 C169 1.353 . S
O168 U166 2.458 . S
O168 C169 1.286 . S
C169 U166 2.984 . S
C169 O167 1.353 . S
C169 O168 1.286 . S
C169 C171 1.363 . S
C170 C160 1.465 . S
C170 U166 2.847 . S
C170 O184 1.249 . S
C170 O185 1.202 . S
C171 C169 1.363 . S
C171 C173 1.408 . S
C171 C176 1.342 . S
C172 C173 1.310 . S
C172 C175 1.461 . S
C172 H192 0.932 . S
C173 C171 1.408 . S
C173 C172 1.310 . S
C173 H193 0.930 . S
C174 C175 1.474 . S
C174 C176 1.285 . S
C174 H194 0.929 . S
C175 C172 1.461 . S
C175 C174 1.474 . S
C176 C171 1.342 . S
C176 C174 1.285 . S
C176 H195 0.930 . S
C177 C180 1.424 . S
C177 C182 1.245 . S
C177 C183 1.428 . S
C178 C181 1.260 . S
C178 C182 1.477 . S
C178 H196 0.932 . S
C179 C180 1.384 . S
C179 C181 1.479 . S
C179 H197 0.929 . S
C180 C177 1.424 . S
C180 C179 1.384 . S
C180 H198 0.928 . S
C181 C178 1.260 . S
C181 C179 1.479 . S
C182 C177 1.245 . S
C182 C178 1.477 . S
C182 H199 0.932 . S
C183 U166 2.882 . S
C183 C177 1.428 . S
C183 O186 1.301 . S
C183 O187 1.282 . S
O184 U166 2.441 . S
O184 C170 1.249 . S
O185 U166 2.420 . S
O185 C170 1.202 . S
O186 U166 2.455 . S
O186 C183 1.301 . S
O187 U166 2.449 . S
O187 C183 1.282 . S
H188 C161 0.931 . S
H189 C163 0.929 . S
H190 C164 0.930 . S
H191 C165 0.931 . S
H192 C172 0.932 . S
H193 C173 0.930 . S
H194 C174 0.929 . S
H195 C176 0.930 . S
H196 C178 0.932 . S
H197 C179 0.929 . S
H198 C180 0.928 . S
H199 C182 0.932 . S
C200 C201 1.264 . S
C200 C205 1.479 . S
C200 C210 1.465 . S
C201 C200 1.264 . S
C201 C203 1.339 . S
C201 H228 0.931 . S
C202 C203 1.395 . S
C202 C204 1.320 . S
C203 C201 1.339 . S
C203 C202 1.395 . S
C203 H229 0.929 . S
C204 C202 1.320 . S
C204 C205 1.405 . S
C204 H230 0.930 . S
C205 C200 1.479 . S
C205 C204 1.405 . S
C205 H231 0.931 . S
U206 O207 2.454 . S
U206 O208 2.458 . S
U206 C209 2.984 . S
U206 C210 2.847 . S
U206 C223 2.882 . S
U206 O224 2.441 . S
U206 O225 2.420 . S
U206 O226 2.455 . S
U206 O227 2.449 . S
O207 U206 2.454 . S
O207 C209 1.353 . S
O208 U206 2.458 . S
O208 C209 1.286 . S
C209 U206 2.984 . S
C209 O207 1.353 . S
C209 O208 1.286 . S
C209 C211 1.363 . S
C210 C200 1.465 . S
C210 U206 2.847 . S
C210 O224 1.249 . S
C210 O225 1.202 . S
C211 C209 1.363 . S
C211 C213 1.408 . S
C211 C216 1.342 . S
C212 C213 1.310 . S
C212 C215 1.461 . S
C212 H232 0.932 . S
C213 C211 1.408 . S
C213 C212 1.310 . S
C213 H233 0.930 . S
C214 C215 1.474 . S
C214 C216 1.285 . S
C214 H234 0.929 . S
C215 C212 1.461 . S
C215 C214 1.474 . S
C216 C211 1.342 . S
C216 C214 1.285 . S
C216 H235 0.930 . S
C217 C220 1.424 . S
C217 C222 1.245 . S
C217 C223 1.428 . S
C218 C221 1.260 . S
C218 C222 1.477 . S
C218 H236 0.932 . S
C219 C220 1.384 . S
C219 C221 1.479 . S
C219 H237 0.929 . S
C220 C217 1.424 . S
C220 C219 1.384 . S
C220 H238 0.928 . S
C221 C218 1.260 . S
C221 C219 1.479 . S
C222 C217 1.245 . S
C222 C218 1.477 . S
C222 H239 0.932 . S
C223 U206 2.882 . S
C223 C217 1.428 . S
C223 O226 1.301 . S
C223 O227 1.282 . S
O224 U206 2.441 . S
O224 C210 1.249 . S
O225 U206 2.420 . S
O225 C210 1.202 . S
O226 U206 2.455 . S
O226 C223 1.301 . S
O227 U206 2.449 . S
O227 C223 1.282 . S
H228 C201 0.931 . S
H229 C203 0.929 . S
H230 C204 0.930 . S
H231 C205 0.931 . S
H232 C212 0.932 . S
H233 C213 0.930 . S
H234 C214 0.929 . S
H235 C216 0.930 . S
H236 C218 0.932 . S
H237 C219 0.929 . S
H238 C220 0.928 . S
H239 C222 0.932 . S
C240 C241 1.264 . S
C240 C245 1.479 . S
C240 C250 1.465 . S
C241 C240 1.264 . S
C241 C243 1.339 . S
C241 H268 0.931 . S
C242 C243 1.395 . S
C242 C244 1.320 . S
C243 C241 1.339 . S
C243 C242 1.395 . S
C243 H269 0.929 . S
C244 C242 1.320 . S
C244 C245 1.405 . S
C244 H270 0.930 . S
C245 C240 1.479 . S
C245 C244 1.405 . S
C245 H271 0.931 . S
U246 O247 2.454 . S
U246 O248 2.458 . S
U246 C249 2.984 . S
U246 C250 2.847 . S
U246 C263 2.882 . S
U246 O264 2.441 . S
U246 O265 2.420 . S
U246 O266 2.455 . S
U246 O267 2.449 . S
O247 U246 2.454 . S
O247 C249 1.353 . S
O248 U246 2.458 . S
O248 C249 1.286 . S
C249 U246 2.984 . S
C249 O247 1.353 . S
C249 O248 1.286 . S
C249 C251 1.363 . S
C250 C240 1.465 . S
C250 U246 2.847 . S
C250 O264 1.249 . S
C250 O265 1.202 . S
C251 C249 1.363 . S
C251 C253 1.408 . S
C251 C256 1.342 . S
C252 C253 1.310 . S
C252 C255 1.461 . S
C252 H272 0.932 . S
C253 C251 1.408 . S
C253 C252 1.310 . S
C253 H273 0.930 . S
C254 C255 1.474 . S
C254 C256 1.285 . S
C254 H274 0.929 . S
C255 C252 1.461 . S
C255 C254 1.474 . S
C256 C251 1.342 . S
C256 C254 1.285 . S
C256 H275 0.930 . S
C257 C260 1.424 . S
C257 C262 1.245 . S
C257 C263 1.428 . S
C258 C261 1.260 . S
C258 C262 1.477 . S
C258 H276 0.932 . S
C259 C260 1.384 . S
C259 C261 1.479 . S
C259 H277 0.929 . S
C260 C257 1.424 . S
C260 C259 1.384 . S
C260 H278 0.928 . S
C261 C258 1.260 . S
C261 C259 1.479 . S
C262 C257 1.245 . S
C262 C258 1.477 . S
C262 H279 0.932 . S
C263 U246 2.882 . S
C263 C257 1.428 . S
C263 O266 1.301 . S
C263 O267 1.282 . S
O264 U246 2.441 . S
O264 C250 1.249 . S
O265 U246 2.420 . S
O265 C250 1.202 . S
O266 U246 2.455 . S
O266 C263 1.301 . S
O267 U246 2.449 . S
O267 C263 1.282 . S
H268 C241 0.931 . S
H269 C243 0.929 . S
H270 C244 0.930 . S
H271 C245 0.931 . S
H272 C252 0.932 . S
H273 C253 0.930 . S
H274 C254 0.929 . S
H275 C256 0.930 . S
H276 C258 0.932 . S
H277 C259 0.929 . S
H278 C260 0.928 . S
H279 C262 0.932 . S
C280 C281 1.264 . S
C280 C285 1.479 . S
C280 C290 1.465 . S
C281 C280 1.264 . S
C281 C283 1.339 . S
C281 H308 0.931 . S
C282 C283 1.395 . S
C282 C284 1.320 . S
C283 C281 1.339 . S
C283 C282 1.395 . S
C283 H309 0.929 . S
C284 C282 1.320 . S
C284 C285 1.405 . S
C284 H310 0.930 . S
C285 C280 1.479 . S
C285 C284 1.405 . S
C285 H311 0.931 . S
U286 O287 2.454 . S
U286 O288 2.458 . S
U286 C289 2.984 . S
U286 C290 2.847 . S
U286 C303 2.882 . S
U286 O304 2.441 . S
U286 O305 2.420 . S
U286 O306 2.455 . S
U286 O307 2.449 . S
O287 U286 2.454 . S
O287 C289 1.353 . S
O288 U286 2.458 . S
O288 C289 1.286 . S
C289 U286 2.984 . S
C289 O287 1.353 . S
C289 O288 1.286 . S
C289 C291 1.363 . S
C290 C280 1.465 . S
C290 U286 2.847 . S
C290 O304 1.249 . S
C290 O305 1.202 . S
C291 C289 1.363 . S
C291 C293 1.408 . S
C291 C296 1.342 . S
C292 C293 1.310 . S
C292 C295 1.461 . S
C292 H312 0.932 . S
C293 C291 1.408 . S
C293 C292 1.310 . S
C293 H313 0.930 . S
C294 C295 1.474 . S
C294 C296 1.285 . S
C294 H314 0.929 . S
C295 C292 1.461 . S
C295 C294 1.474 . S
C296 C291 1.342 . S
C296 C294 1.285 . S
C296 H315 0.930 . S
C297 C300 1.424 . S
C297 C302 1.245 . S
C297 C303 1.428 . S
C298 C301 1.260 . S
C298 C302 1.477 . S
C298 H316 0.932 . S
C299 C300 1.384 . S
C299 C301 1.479 . S
C299 H317 0.929 . S
C300 C297 1.424 . S
C300 C299 1.384 . S
C300 H318 0.928 . S
C301 C298 1.260 . S
C301 C299 1.479 . S
C302 C297 1.245 . S
C302 C298 1.477 . S
C302 H319 0.932 . S
C303 U286 2.882 . S
C303 C297 1.428 . S
C303 O306 1.301 . S
C303 O307 1.282 . S
O304 U286 2.441 . S
O304 C290 1.249 . S
O305 U286 2.420 . S
O305 C290 1.202 . S
O306 U286 2.455 . S
O306 C303 1.301 . S
O307 U286 2.449 . S
O307 C303 1.282 . S
H308 C281 0.931 . S
H309 C283 0.929 . S
H310 C284 0.930 . S
H311 C285 0.931 . S
H312 C292 0.932 . S
H313 C293 0.930 . S
H314 C294 0.929 . S
H315 C296 0.930 . S
H316 C298 0.932 . S
H317 C299 0.929 . S
H318 C300 0.928 . S
H319 C302 0.932 . S
C320 C321 1.264 . S
C320 C325 1.479 . S
C320 C330 1.465 . S
C321 C320 1.264 . S
C321 C323 1.339 . S
C321 H348 0.931 . S
C322 C323 1.395 . S
C322 C324 1.320 . S
C323 C321 1.339 . S
C323 C322 1.395 . S
C323 H349 0.929 . S
C324 C322 1.320 . S
C324 C325 1.405 . S
C324 H350 0.930 . S
C325 C320 1.479 . S
C325 C324 1.405 . S
C325 H351 0.931 . S
U326 O327 2.454 . S
U326 O328 2.458 . S
U326 C329 2.984 . S
U326 C330 2.847 . S
U326 C343 2.882 . S
U326 O344 2.441 . S
U326 O345 2.420 . S
U326 O346 2.455 . S
U326 O347 2.449 . S
O327 U326 2.454 . S
O327 C329 1.353 . S
O328 U326 2.458 . S
O328 C329 1.286 . S
C329 U326 2.984 . S
C329 O327 1.353 . S
C329 O328 1.286 . S
C329 C331 1.363 . S
C330 C320 1.465 . S
C330 U326 2.847 . S
C330 O344 1.249 . S
C330 O345 1.202 . S
C331 C329 1.363 . S
C331 C333 1.408 . S
C331 C336 1.342 . S
C332 C333 1.310 . S
C332 C335 1.461 . S
C332 H352 0.932 . S
C333 C331 1.408 . S
C333 C332 1.310 . S
C333 H353 0.930 . S
C334 C335 1.474 . S
C334 C336 1.285 . S
C334 H354 0.929 . S
C335 C332 1.461 . S
C335 C334 1.474 . S
C336 C331 1.342 . S
C336 C334 1.285 . S
C336 H355 0.930 . S
C337 C340 1.424 . S
C337 C342 1.245 . S
C337 C343 1.428 . S
C338 C341 1.260 . S
C338 C342 1.477 . S
C338 H356 0.932 . S
C339 C340 1.384 . S
C339 C341 1.479 . S
C339 H357 0.929 . S
C340 C337 1.424 . S
C340 C339 1.384 . S
C340 H358 0.928 . S
C341 C338 1.260 . S
C341 C339 1.479 . S
C342 C337 1.245 . S
C342 C338 1.477 . S
C342 H359 0.932 . S
C343 U326 2.882 . S
C343 C337 1.428 . S
C343 O346 1.301 . S
C343 O347 1.282 . S
O344 U326 2.441 . S
O344 C330 1.249 . S
O345 U326 2.420 . S
O345 C330 1.202 . S
O346 U326 2.455 . S
O346 C343 1.301 . S
O347 U326 2.449 . S
O347 C343 1.282 . S
H348 C321 0.931 . S
H349 C323 0.929 . S
H350 C324 0.930 . S
H351 C325 0.931 . S
H352 C332 0.932 . S
H353 C333 0.930 . S
H354 C334 0.929 . S
H355 C336 0.930 . S
H356 C338 0.932 . S
H357 C339 0.929 . S
H358 C340 0.928 . S
H359 C342 0.932 . S
C360 C361 1.264 . S
C360 C365 1.479 . S
C360 C370 1.465 . S
C361 C360 1.264 . S
C361 C363 1.339 . S
C361 H388 0.931 . S
C362 C363 1.395 . S
C362 C364 1.320 . S
C363 C361 1.339 . S
C363 C362 1.395 . S
C363 H389 0.929 . S
C364 C362 1.320 . S
C364 C365 1.405 . S
C364 H390 0.930 . S
C365 C360 1.479 . S
C365 C364 1.405 . S
C365 H391 0.931 . S
U366 O367 2.454 . S
U366 O368 2.458 . S
U366 C369 2.984 . S
U366 C370 2.847 . S
U366 C383 2.882 . S
U366 O384 2.441 . S
U366 O385 2.420 . S
U366 O386 2.455 . S
U366 O387 2.449 . S
O367 U366 2.454 . S
O367 C369 1.353 . S
O368 U366 2.458 . S
O368 C369 1.286 . S
C369 U366 2.984 . S
C369 O367 1.353 . S
C369 O368 1.286 . S
C369 C371 1.363 . S
C370 C360 1.465 . S
C370 U366 2.847 . S
C370 O384 1.249 . S
C370 O385 1.202 . S
C371 C369 1.363 . S
C371 C373 1.408 . S
C371 C376 1.342 . S
C372 C373 1.310 . S
C372 C375 1.461 . S
C372 H392 0.932 . S
C373 C371 1.408 . S
C373 C372 1.310 . S
C373 H393 0.930 . S
C374 C375 1.474 . S
C374 C376 1.285 . S
C374 H394 0.929 . S
C375 C372 1.461 . S
C375 C374 1.474 . S
C376 C371 1.342 . S
C376 C374 1.285 . S
C376 H395 0.930 . S
C377 C380 1.424 . S
C377 C382 1.245 . S
C377 C383 1.428 . S
C378 C381 1.260 . S
C378 C382 1.477 . S
C378 H396 0.932 . S
C379 C380 1.384 . S
C379 C381 1.479 . S
C379 H397 0.929 . S
C380 C377 1.424 . S
C380 C379 1.384 . S
C380 H398 0.928 . S
C381 C378 1.260 . S
C381 C379 1.479 . S
C382 C377 1.245 . S
C382 C378 1.477 . S
C382 H399 0.932 . S
C383 U366 2.882 . S
C383 C377 1.428 . S
C383 O386 1.301 . S
C383 O387 1.282 . S
O384 U366 2.441 . S
O384 C370 1.249 . S
O385 U366 2.420 . S
O385 C370 1.202 . S
O386 U366 2.455 . S
O386 C383 1.301 . S
O387 U366 2.449 . S
O387 C383 1.282 . S
H388 C361 0.931 . S
H389 C363 0.929 . S
H390 C364 0.930 . S
H391 C365 0.931 . S
H392 C372 0.932 . S
H393 C373 0.930 . S
H394 C374 0.929 . S
H395 C376 0.930 . S
H396 C378 0.932 . S
H397 C379 0.929 . S
H398 C380 0.928 . S
H399 C382 0.932 . S
C400 C401 1.264 . S
C400 C405 1.479 . S
C400 C410 1.465 . S
C401 C400 1.264 . S
C401 C403 1.339 . S
C401 H428 0.931 . S
C402 C403 1.395 . S
C402 C404 1.320 . S
C403 C401 1.339 . S
C403 C402 1.395 . S
C403 H429 0.929 . S
C404 C402 1.320 . S
C404 C405 1.405 . S
C404 H430 0.930 . S
C405 C400 1.479 . S
C405 C404 1.405 . S
C405 H431 0.931 . S
U406 O407 2.454 . S
U406 O408 2.458 . S
U406 C409 2.984 . S
U406 C410 2.847 . S
U406 C423 2.882 . S
U406 O424 2.441 . S
U406 O425 2.420 . S
U406 O426 2.455 . S
U406 O427 2.449 . S
O407 U406 2.454 . S
O407 C409 1.353 . S
O408 U406 2.458 . S
O408 C409 1.286 . S
C409 U406 2.984 . S
C409 O407 1.353 . S
C409 O408 1.286 . S
C409 C411 1.363 . S
C410 C400 1.465 . S
C410 U406 2.847 . S
C410 O424 1.249 . S
C410 O425 1.202 . S
C411 C409 1.363 . S
C411 C413 1.408 . S
C411 C416 1.342 . S
C412 C413 1.310 . S
C412 C415 1.461 . S
C412 H432 0.932 . S
C413 C411 1.408 . S
C413 C412 1.310 . S
C413 H433 0.930 . S
C414 C415 1.474 . S
C414 C416 1.285 . S
C414 H434 0.929 . S
C415 C412 1.461 . S
C415 C414 1.474 . S
C416 C411 1.342 . S
C416 C414 1.285 . S
C416 H435 0.930 . S
C417 C420 1.424 . S
C417 C422 1.245 . S
C417 C423 1.428 . S
C418 C421 1.260 . S
C418 C422 1.477 . S
C418 H436 0.932 . S
C419 C420 1.384 . S
C419 C421 1.479 . S
C419 H437 0.929 . S
C420 C417 1.424 . S
C420 C419 1.384 . S
C420 H438 0.928 . S
C421 C418 1.260 . S
C421 C419 1.479 . S
C422 C417 1.245 . S
C422 C418 1.477 . S
C422 H439 0.932 . S
C423 U406 2.882 . S
C423 C417 1.428 . S
C423 O426 1.301 . S
C423 O427 1.282 . S
O424 U406 2.441 . S
O424 C410 1.249 . S
O425 U406 2.420 . S
O425 C410 1.202 . S
O426 U406 2.455 . S
O426 C423 1.301 . S
O427 U406 2.449 . S
O427 C423 1.282 . S
H428 C401 0.931 . S
H429 C403 0.929 . S
H430 C404 0.930 . S
H431 C405 0.931 . S
H432 C412 0.932 . S
H433 C413 0.930 . S
H434 C414 0.929 . S
H435 C416 0.930 . S
H436 C418 0.932 . S
H437 C419 0.929 . S
H438 C420 0.928 . S
H439 C422 0.932 . S
C440 C441 1.264 . S
C440 C445 1.479 . S
C440 C450 1.465 . S
C441 C440 1.264 . S
C441 C443 1.339 . S
C441 H468 0.931 . S
C442 C443 1.395 . S
C442 C444 1.320 . S
C443 C441 1.339 . S
C443 C442 1.395 . S
C443 H469 0.929 . S
C444 C442 1.320 . S
C444 C445 1.405 . S
C444 H470 0.930 . S
C445 C440 1.479 . S
C445 C444 1.405 . S
C445 H471 0.931 . S
U446 O447 2.454 . S
U446 O448 2.458 . S
U446 C449 2.984 . S
U446 C450 2.847 . S
U446 C463 2.882 . S
U446 O464 2.441 . S
U446 O465 2.420 . S
U446 O466 2.455 . S
U446 O467 2.449 . S
O447 U446 2.454 . S
O447 C449 1.353 . S
O448 U446 2.458 . S
O448 C449 1.286 . S
C449 U446 2.984 . S
C449 O447 1.353 . S
C449 O448 1.286 . S
C449 C451 1.363 . S
C450 C440 1.465 . S
C450 U446 2.847 . S
C450 O464 1.249 . S
C450 O465 1.202 . S
C451 C449 1.363 . S
C451 C453 1.408 . S
C451 C456 1.342 . S
C452 C453 1.310 . S
C452 C455 1.461 . S
C452 H472 0.932 . S
C453 C451 1.408 . S
C453 C452 1.310 . S
C453 H473 0.930 . S
C454 C455 1.474 . S
C454 C456 1.285 . S
C454 H474 0.929 . S
C455 C452 1.461 . S
C455 C454 1.474 . S
C456 C451 1.342 . S
C456 C454 1.285 . S
C456 H475 0.930 . S
C457 C460 1.424 . S
C457 C462 1.245 . S
C457 C463 1.428 . S
C458 C461 1.260 . S
C458 C462 1.477 . S
C458 H476 0.932 . S
C459 C460 1.384 . S
C459 C461 1.479 . S
C459 H477 0.929 . S
C460 C457 1.424 . S
C460 C459 1.384 . S
C460 H478 0.928 . S
C461 C458 1.260 . S
C461 C459 1.479 . S
C462 C457 1.245 . S
C462 C458 1.477 . S
C462 H479 0.932 . S
C463 U446 2.882 . S
C463 C457 1.428 . S
C463 O466 1.301 . S
C463 O467 1.282 . S
O464 U446 2.441 . S
O464 C450 1.249 . S
O465 U446 2.420 . S
O465 C450 1.202 . S
O466 U446 2.455 . S
O466 C463 1.301 . S
O467 U446 2.449 . S
O467 C463 1.282 . S
H468 C441 0.931 . S
H469 C443 0.929 . S
H470 C444 0.930 . S
H471 C445 0.931 . S
H472 C452 0.932 . S
H473 C453 0.930 . S
H474 C454 0.929 . S
H475 C456 0.930 . S
H476 C458 0.932 . S
H477 C459 0.929 . S
H478 C460 0.928 . S
H479 C462 0.932 . S
C415 C15 4.860 1_556 S
C55 C455 4.859 . S
C255 C95 4.859 . S
C295 C135 4.859 1_556 S
C335 C175 4.859 . S
C215 C375 4.859 . S
C341 C21 4.544 . S
C381 C61 4.543 . S
C101 C421 4.543 . S
C461 C141 4.543 . S
C261 C181 4.543 . S
C301 C221 4.543 . S
C2 C442 3.956 1_455 S
C42 C242 3.956 1_545 S
C82 C282 3.956 . S
C122 C322 3.956 1_655 S
C362 C162 3.956 1_545 S
C202 C402 3.955 . S
