# Generated by pormake.
# Topology ukh, (4)-cn, num edge types: 1
# Building blocks:
#     Node 0, Type 0, BuildingBlock: TATPOV_clean_sbu_0, # of connection points: 4
#     Node 1, Type 0, BuildingBlock: TATPOV_clean_sbu_0, # of connection points: 4
#     Node 2, Type 0, BuildingBlock: TATPOV_clean_sbu_0, # of connection points: 4
#     Node 3, Type 0, BuildingBlock: TATPOV_clean_sbu_0, # of connection points: 4
#     Node 4, Type 0, BuildingBlock: TATPOV_clean_sbu_0, # of connection points: 4
#     Node 5, Type 0, BuildingBlock: TATPOV_clean_sbu_0, # of connection points: 4
#     Node 6, Type 0, BuildingBlock: TATPOV_clean_sbu_0, # of connection points: 4
#     Node 7, Type 0, BuildingBlock: TATPOV_clean_sbu_0, # of connection points: 4
#     Node 8, Type 0, BuildingBlock: TATPOV_clean_sbu_0, # of connection points: 4
#     Node 9, Type 0, BuildingBlock: TATPOV_clean_sbu_0, # of connection points: 4
#     Node 10, Type 0, BuildingBlock: TATPOV_clean_sbu_0, # of connection points: 4
#     Node 11, Type 0, BuildingBlock: TATPOV_clean_sbu_0, # of connection points: 4
#     Edge 12, Type (0, 0), BuildingBlock: XUDNAN_clean_linker_2, # of connection points: 2
#     Edge 13, Type (0, 0), BuildingBlock: XUDNAN_clean_linker_2, # of connection points: 2
#     Edge 14, Type (0, 0), BuildingBlock: XUDNAN_clean_linker_2, # of connection points: 2
#     Edge 15, Type (0, 0), BuildingBlock: XUDNAN_clean_linker_2, # of connection points: 2
#     Edge 16, Type (0, 0), BuildingBlock: XUDNAN_clean_linker_2, # of connection points: 2
#     Edge 17, Type (0, 0), BuildingBlock: XUDNAN_clean_linker_2, # of connection points: 2
#     Edge 18, Type (0, 0), BuildingBlock: XUDNAN_clean_linker_2, # of connection points: 2
#     Edge 19, Type (0, 0), BuildingBlock: XUDNAN_clean_linker_2, # of connection points: 2
#     Edge 20, Type (0, 0), BuildingBlock: XUDNAN_clean_linker_2, # of connection points: 2
#     Edge 21, Type (0, 0), BuildingBlock: XUDNAN_clean_linker_2, # of connection points: 2
#     Edge 22, Type (0, 0), BuildingBlock: XUDNAN_clean_linker_2, # of connection points: 2
#     Edge 23, Type (0, 0), BuildingBlock: XUDNAN_clean_linker_2, # of connection points: 2
#     Edge 24, Type (0, 0), BuildingBlock: XUDNAN_clean_linker_2, # of connection points: 2
#     Edge 25, Type (0, 0), BuildingBlock: XUDNAN_clean_linker_2, # of connection points: 2
#     Edge 26, Type (0, 0), BuildingBlock: XUDNAN_clean_linker_2, # of connection points: 2
#     Edge 27, Type (0, 0), BuildingBlock: XUDNAN_clean_linker_2, # of connection points: 2
#     Edge 28, Type (0, 0), BuildingBlock: XUDNAN_clean_linker_2, # of connection points: 2
#     Edge 29, Type (0, 0), BuildingBlock: XUDNAN_clean_linker_2, # of connection points: 2
#     Edge 30, Type (0, 0), BuildingBlock: XUDNAN_clean_linker_2, # of connection points: 2
#     Edge 31, Type (0, 0), BuildingBlock: XUDNAN_clean_linker_2, # of connection points: 2
#     Edge 32, Type (0, 0), BuildingBlock: XUDNAN_clean_linker_2, # of connection points: 2
#     Edge 33, Type (0, 0), BuildingBlock: XUDNAN_clean_linker_2, # of connection points: 2
#     Edge 34, Type (0, 0), BuildingBlock: XUDNAN_clean_linker_2, # of connection points: 2
#     Edge 35, Type (0, 0), BuildingBlock: XUDNAN_clean_linker_2, # of connection points: 2
# Relax obj value: 0.152
# Max RMSD: 0.200
# Mean RMSD: 0.200
data_MOF--net-ukh--node1-TATPOV_clean_sbu_0--edge1-XUDNAN_clean_linker_2
_symmetry_space_group_name_H-M    P1
_symmetry_Int_Tables_number       1
_symmetry_cell_setting            triclinic
loop_
_symmetry_equiv_pos_as_xyz
'x, y, z'
_cell_length_a     31.725601
_cell_length_b     31.672946
_cell_length_c     65.613661
_cell_angle_alpha  90.098767
_cell_angle_beta   90.093404
_cell_angle_gamma 120.59772
loop_
_atom_site_label
_atom_site_type_symbol
_atom_site_fract_x
_atom_site_fract_y
_atom_site_fract_z
_atom_type_partial_charge
Zn0 Zn 0.32687 0.23438 0.00826 0.0
Zn1 Zn 0.31071 0.20612 0.04639 0.0
O2 O 0.33128 0.16036 0.03207 0.0
O3 O 0.3515 0.1898 0.00101 0.0
O4 O 0.30335 0.18625 0.07628 0.0
O5 O 0.37271 0.30375 0.0159 0.0
O6 O 0.36115 0.2811 0.04802 0.0
C7 C 0.34695 0.15891 0.01429 0.0
C8 C 0.22644 0.19507 0.01955 0.0
O9 O 0.242 0.19134 0.03704 0.0
O10 O 0.25559 0.2115 0.0046 0.0
C11 C 0.26782 0.14631 0.08302 0.0
O12 O 0.23396 0.11601 0.07021 0.0
C13 C 0.38129 0.31464 0.03458 0.0
Zn14 Zn 0.09608 0.34792 0.34578 0.0
Zn15 Zn 0.09262 0.31525 0.38168 0.0
O16 O 0.15999 0.33424 0.36818 0.0
O17 O 0.16731 0.37681 0.34069 0.0
O18 O 0.1011 0.29816 0.41094 0.0
O19 O 0.06701 0.38817 0.35363 0.0
O20 O 0.06906 0.36601 0.38517 0.0
C21 C 0.1849 0.35848 0.35266 0.0
C22 C 0.02952 0.24338 0.34921 0.0
O23 O 0.03853 0.25111 0.36827 0.0
O24 O 0.05119 0.27827 0.33666 0.0
C25 C 0.07855 0.30197 0.42626 0.0
O26 O 0.04629 0.31569 0.42332 0.0
C27 C 0.05869 0.38973 0.37237 0.0
Zn28 Zn 0.72677 0.10952 0.6787 0.0
Zn29 Zn 0.75515 0.10412 0.71445 0.0
O30 O 0.80498 0.174 0.70281 0.0
O31 O 0.77166 0.1805 0.67452 0.0
O32 O 0.77534 0.10842 0.74432 0.0
O33 O 0.65776 0.08426 0.68617 0.0
O34 O 0.68071 0.08112 0.71743 0.0
C35 C 0.80629 0.1991 0.6873 0.0
C36 C 0.76243 0.042 0.6811 0.0
O37 O 0.76551 0.05125 0.7002 0.0
O38 O 0.74822 0.06329 0.66896 0.0
C39 C 0.81731 0.11829 0.7507 0.0
O40 O 0.85099 0.1249 0.73737 0.0
C41 C 0.64725 0.07448 0.70477 0.0
Zn42 Zn 0.65083 0.75102 0.01181 0.0
Zn43 Zn 0.66579 0.77752 0.05059 0.0
O44 O 0.65071 0.82806 0.03674 0.0
O45 O 0.63682 0.80346 0.00472 0.0
O46 O 0.6752 0.794 0.08101 0.0
O47 O 0.59738 0.68369 0.01868 0.0
O48 O 0.61035 0.70427 0.05108 0.0
C49 C 0.6404 0.83328 0.0184 0.0
C50 C 0.7477 0.77964 0.02441 0.0
O51 O 0.73246 0.78618 0.04148 0.0
O52 O 0.71944 0.76468 0.00911 0.0
C53 C 0.66055 0.81896 0.09075 0.0
O54 O 0.63869 0.83844 0.08077 0.0
C55 C 0.58751 0.67221 0.03723 0.0
Zn56 Zn 0.84113 0.60585 0.34797 0.0
Zn57 Zn 0.85949 0.64824 0.38392 0.0
O58 O 0.78943 0.63249 0.37545 0.0
O59 O 0.77281 0.59284 0.34624 0.0
O60 O 0.86702 0.67518 0.41276 0.0
O61 O 0.85796 0.55626 0.35749 0.0
O62 O 0.87597 0.59276 0.3874 0.0
C63 C 0.76052 0.61148 0.3604 0.0
C64 C 0.91942 0.70734 0.34743 0.0
O65 O 0.91191 0.70552 0.36661 0.0
O66 O 0.89401 0.66984 0.33641 0.0
C67 C 0.8347 0.65023 0.42611 0.0
O68 O 0.79697 0.60764 0.42082 0.0
C69 C 0.87403 0.55993 0.37547 0.0
Zn70 Zn 0.21006 0.87733 0.67768 0.0
Zn71 Zn 0.18198 0.86762 0.7161 0.0
O72 O 0.13457 0.80109 0.70184 0.0
O73 O 0.16369 0.80701 0.67092 0.0
O74 O 0.15857 0.85562 0.74565 0.0
O75 O 0.27886 0.90111 0.68587 0.0
O76 O 0.25642 0.89094 0.71803 0.0
C77 C 0.13206 0.78225 0.68431 0.0
C78 C 0.17373 0.94091 0.68834 0.0
O79 O 0.16987 0.92234 0.70599 0.0
O80 O 0.18904 0.92686 0.67349 0.0
C81 C 0.187 0.87647 0.76077 0.0
O82 O 0.23351 0.90803 0.75742 0.0
C83 C 0.28975 0.90407 0.70457 0.0
Zn84 Zn 0.72883 0.64627 0.64902 0.0
Zn85 Zn 0.75247 0.6633 0.60972 0.0
O86 O 0.80194 0.64597 0.62231 0.0
O87 O 0.78105 0.63024 0.65459 0.0
O88 O 0.7697 0.67119 0.57954 0.0
O89 O 0.66043 0.59439 0.64184 0.0
O90 O 0.67884 0.60951 0.60936 0.0
C91 C 0.80897 0.63418 0.64006 0.0
C92 C 0.75952 0.74536 0.63723 0.0
O93 O 0.76428 0.73074 0.61967 0.0
O94 O 0.74492 0.71609 0.65218 0.0
C95 C 0.81025 0.70519 0.57254 0.0
O96 O 0.8425 0.73794 0.5852 0.0
C97 C 0.64758 0.58621 0.62331 0.0
Zn98 Zn 0.11602 0.74612 0.98531 0.0
Zn99 Zn 0.10274 0.7723 0.94851 0.0
O100 O 0.17278 0.82522 0.95805 0.0
O101 O 0.18542 0.80046 0.98756 0.0
O102 O 0.09828 0.79104 0.91915 0.0
O103 O 0.09739 0.67903 0.97545 0.0
O104 O 0.08517 0.69999 0.94507 0.0
C105 C 0.20025 0.83181 0.97342 0.0
C106 C 0.04112 0.77284 0.98401 0.0
O107 O 0.05024 0.77839 0.96492 0.0
O108 O 0.06427 0.75958 0.99557 0.0
C109 C 0.13606 0.81046 0.9078 0.0
O110 O 0.17828 0.82012 0.91552 0.0
C111 C 0.08434 0.66793 0.95706 0.0
Zn112 Zn 0.3119 0.07941 0.31273 0.0
Zn113 Zn 0.29312 0.08408 0.27365 0.0
O114 O 0.30807 0.15156 0.28576 0.0
O115 O 0.32452 0.14686 0.31803 0.0
O116 O 0.27708 0.08597 0.2437 0.0
O117 O 0.36519 0.06629 0.3052 0.0
O118 O 0.34889 0.06767 0.2727 0.0
C119 C 0.31908 0.17024 0.30366 0.0
C120 C 0.21466 0.00616 0.30215 0.0
O121 O 0.22845 0.02597 0.28464 0.0
O122 O 0.24394 0.02247 0.31711 0.0
C123 C 0.30508 0.11851 0.23097 0.0
O124 O 0.34761 0.15476 0.23722 0.0
C125 C 0.37311 0.06135 0.2867 0.0
Zn126 Zn 0.20844 0.33805 0.65142 0.0
Zn127 Zn 0.18194 0.30758 0.61419 0.0
O128 O 0.13331 0.32867 0.62528 0.0
O129 O 0.1624 0.36205 0.65533 0.0
O130 O 0.16424 0.29033 0.58402 0.0
O131 O 0.27811 0.38257 0.64418 0.0
O132 O 0.2566 0.35954 0.61241 0.0
C133 C 0.13043 0.34954 0.6415 0.0
C134 C 0.17085 0.23472 0.64713 0.0
O135 O 0.16896 0.24302 0.62819 0.0
O136 O 0.18549 0.26922 0.65999 0.0
C137 C 0.13705 0.30131 0.57372 0.0
O138 O 0.11657 0.32321 0.58291 0.0
C139 C 0.28957 0.38493 0.62561 0.0
Zn140 Zn 0.8647 0.22735 0.97755 0.0
Zn141 Zn 0.8733 0.20186 0.94177 0.0
O142 O 0.8022 0.15213 0.95198 0.0
O143 O 0.79249 0.18584 0.97947 0.0
O144 O 0.87507 0.1818 0.91227 0.0
O145 O 0.89683 0.29791 0.97099 0.0
O146 O 0.89795 0.27689 0.93915 0.0
C147 C 0.77524 0.15114 0.96668 0.0
C148 C 0.92917 0.18916 0.97662 0.0
O149 O 0.92345 0.1901 0.95738 0.0
O150 O 0.90571 0.20094 0.98867 0.0
C151 C 0.84186 0.17436 0.89938 0.0
O152 O 0.80451 0.17827 0.90539 0.0
C153 C 0.90732 0.30987 0.95254 0.0
Zn154 Zn 0.62698 0.88401 0.32054 0.0
Zn155 Zn 0.64384 0.86922 0.28285 0.0
O156 O 0.62578 0.80477 0.29876 0.0
O157 O 0.60488 0.81579 0.32938 0.0
O158 O 0.65412 0.854 0.25357 0.0
O159 O 0.57968 0.90404 0.31191 0.0
O160 O 0.59202 0.89129 0.2801 0.0
C161 C 0.61099 0.78908 0.31682 0.0
C162 C 0.72702 0.94772 0.30905 0.0
O163 O 0.71172 0.9262 0.29186 0.0
O164 O 0.69783 0.93566 0.32394 0.0
C165 C 0.64983 0.87573 0.23806 0.0
O166 O 0.63866 0.90999 0.24078 0.0
C167 C 0.57125 0.90477 0.29311 0.0
H168 H 0.5335 0.59821 0.01063 0.0
H169 H 0.56374 0.62832 0.07523 0.0
H170 H 0.51243 0.53923 0.08239 0.0
H171 H 0.40825 0.49774 0.01495 0.0
H172 H 0.41506 0.46506 0.9939 0.0
H173 H 0.45041 0.53105 0.99465 0.0
H174 H 0.53022 0.52788 0.99116 0.0
H175 H 0.49522 0.46194 0.99069 0.0
H176 H 0.54307 0.49331 0.00937 0.0
H177 H 0.46 0.44426 0.08163 0.0
H178 H 0.41111 0.35552 0.07309 0.0
H179 H 0.4207 0.3925 0.00893 0.0
C180 C 0.52894 0.58647 0.02637 0.0
C181 C 0.55258 0.62032 0.04238 0.0
C182 C 0.54569 0.60304 0.06272 0.0
C183 C 0.51677 0.55252 0.06691 0.0
C184 C 0.49513 0.52006 0.05059 0.0
C185 C 0.50082 0.5367 0.03075 0.0
C186 C 0.47605 0.4951 0.01567 0.0
C187 C 0.435 0.49738 0.00412 0.0
C188 C 0.51337 0.49455 0.00087 0.0
C189 C 0.45566 0.4521 0.03002 0.0
C190 C 0.46657 0.46674 0.05013 0.0
C191 C 0.45122 0.43254 0.06591 0.0
C192 C 0.42366 0.38227 0.06093 0.0
C193 C 0.41221 0.36696 0.04034 0.0
C194 C 0.42885 0.40266 0.02483 0.0
H195 H 0.0006 0.40794 0.34831 0.0
H196 H 0.0551 0.42676 0.41029 0.0
H197 H 0.00905 0.46855 0.41925 0.0
H198 H 0.00598 0.52093 0.3431 0.0
H199 H 0.95041 0.49569 0.32828 0.0
H200 H -0.01302 0.46716 0.32756 0.0
H201 H 0.91144 0.38446 0.33841 0.0
H202 H 0.87469 0.41291 0.33933 0.0
H203 H 0.87916 0.38165 0.36143 0.0
H204 H 0.96005 0.51416 0.41997 0.0
H205 H 0.91294 0.5555 0.41272 0.0
H206 H 0.88815 0.49919 0.35083 0.0
C207 C 0.00319 0.42096 0.3638 0.0
C208 C 0.03204 0.41481 0.37855 0.0
C209 C 0.03344 0.43145 0.39873 0.0
C210 C 0.00734 0.45508 0.40392 0.0
C211 C -0.0207 0.46065 0.38885 0.0
C212 C -0.02313 0.44344 0.36926 0.0
C213 C 0.94454 0.45339 0.35566 0.0
C214 C 0.97373 0.48625 0.3376 0.0
C215 C 0.89981 0.40523 0.34828 0.0
C216 C 0.92981 0.4801 0.37042 0.0
C217 C 0.95 0.48417 0.38953 0.0
C218 C 0.94356 0.51045 0.40513 0.0
C219 C 0.91666 0.53373 0.4009 0.0
C220 C 0.89636 0.53029 0.38126 0.0
C221 C 0.90239 0.50212 0.36611 0.0
H222 H 0.36696 0.96027 0.68028 0.0
H223 H 0.33103 0.90191 0.74164 0.0
H224 H 0.41997 0.94319 0.74985 0.0
H225 H 0.46958 0.94769 0.67272 0.0
H226 H 0.50264 0.00397 0.65854 0.0
H227 H 0.43681 0.97042 0.65834 0.0
H228 H 0.43673 0.04806 0.67101 0.0
H229 H 0.50267 0.08179 0.67141 0.0
H230 H 0.46905 0.07804 0.69412 0.0
H231 H 0.51557 -0.0106 0.74996 0.0
H232 H 0.60455 0.03434 0.74206 0.0
H233 H 0.57209 0.0631 0.68113 0.0
C234 C 0.37746 0.95575 0.69548 0.0
C235 C 0.34208 0.92733 0.71025 0.0
C236 C 0.35765 0.92332 0.73004 0.0
C237 C 0.408 0.94672 0.73482 0.0
C238 C 0.44193 0.97451 0.71973 0.0
C239 C 0.42688 0.97918 0.70051 0.0
C240 C 0.46946 0.01062 0.68676 0.0
C241 C 0.46962 0.98142 0.66799 0.0
C242 C 0.46946 0.05739 0.68046 0.0
C243 C 0.51132 0.02225 0.70098 0.0
C244 C 0.49527 0.00151 0.71999 0.0
C245 C 0.52833 0.00611 0.73517 0.0
C246 C 0.57878 0.03179 0.73058 0.0
C247 C 0.59537 0.05232 0.71098 0.0
C248 C 0.56091 0.04806 0.69629 0.0
H249 H 0.57296 0.53861 0.65023 0.0
H250 H 0.60328 0.55871 0.58537 0.0
H251 H 0.51421 0.50786 0.57818 0.0
H252 H 0.47166 0.41374 0.6481 0.0
H253 H 0.43918 0.424 0.66819 0.0
H254 H 0.50507 0.45879 0.66763 0.0
H255 H 0.5029 0.53957 0.66831 0.0
H256 H 0.43704 0.50508 0.66865 0.0
H257 H 0.46871 0.55005 0.64903 0.0
H258 H 0.41944 0.45556 0.57875 0.0
H259 H 0.33076 0.40813 0.58707 0.0
H260 H 0.36713 0.42791 0.65151 0.0
C261 C 0.56125 0.53197 0.63445 0.0
C262 C 0.59522 0.5525 0.61836 0.0
C263 C 0.57793 0.54312 0.59796 0.0
C264 C 0.52743 0.51438 0.59374 0.0
C265 C 0.49491 0.49554 0.61009 0.0
C266 C 0.51145 0.50403 0.63002 0.0
C267 C 0.46979 0.48177 0.64505 0.0
C268 C 0.47153 0.44222 0.658 0.0
C269 C 0.46962 0.52149 0.65854 0.0
C270 C 0.42688 0.45952 0.63054 0.0
C271 C 0.44165 0.4673 0.61042 0.0
C272 C 0.40762 0.44937 0.59448 0.0
C273 C 0.35738 0.42259 0.59933 0.0
C274 C 0.34191 0.41458 0.61993 0.0
C275 C 0.37745 0.43363 0.63558 0.0
H276 H 0.96041 0.38469 0.97857 0.0
H277 H 0.91619 0.35443 0.91513 0.0
H278 H 0.96158 0.44415 0.90814 0.0
H279 H 0.9495 0.48871 0.98458 0.0
H280 H 0.00216 0.51983 0.00108 0.0
H281 H 0.9676 0.45392 0.00028 0.0
H282 H 0.04665 0.45272 0.99138 0.0
H283 H 0.08145 0.51875 0.99204 0.0
H284 H 0.08234 0.4864 0.96956 0.0
H285 H 0.00837 0.53942 0.90948 0.0
H286 H 0.05206 0.62781 0.91865 0.0
H287 H 0.06707 0.59061 0.98082 0.0
C288 C 0.96004 0.39666 0.96314 0.0
C289 C 0.9343 0.36267 0.94742 0.0
C290 C 0.93558 0.37999 0.92741 0.0
C291 C 0.96128 0.43078 0.92334 0.0
C292 C -0.01392 0.46332 0.93937 0.0
C293 C -0.01416 0.44655 0.95882 0.0
C294 C 0.01452 0.48801 0.97364 0.0
C295 C -0.01854 0.48758 0.9909 0.0
C296 C 0.05887 0.48636 0.98214 0.0
C297 C 0.03033 0.53121 0.95968 0.0
C298 C 0.01382 0.51671 0.93995 0.0
C299 C 0.02195 0.55101 0.92483 0.0
C300 C 0.04684 0.60112 0.93017 0.0
C301 C 0.06336 0.61627 0.95043 0.0
C302 C 0.0556 0.58059 0.96513 0.0
H303 H 0.42463 0.04074 0.31394 0.0
H304 H 0.39618 0.03824 0.24911 0.0
H305 H 0.44478 -0.00201 0.24286 0.0
H306 H 0.54789 0.06263 0.31069 0.0
H307 H 0.53891 0.02332 0.33209 0.0
H308 H 0.50562 0.05531 0.33061 0.0
H309 H 0.42395 0.9725 0.33413 0.0
H310 H 0.4569 0.94018 0.3353 0.0
H311 H 0.40993 0.92367 0.31629 0.0
H312 H 0.49535 0.95403 0.24462 0.0
H313 H 0.54254 0.91391 0.25413 0.0
H314 H 0.5313 0.9438 0.31785 0.0
C315 C 0.42904 0.03258 0.29833 0.0
C316 C 0.40671 0.04295 0.28201 0.0
C317 C 0.41325 0.031 0.26187 0.0
C318 C 0.44063 0.00796 0.25819 0.0
C319 C 0.46098 -0.00295 0.27483 0.0
C320 C 0.45547 0.00933 0.29447 0.0
C321 C 0.47859 -0.0078 0.30999 0.0
C322 C 0.52023 0.03597 0.32151 0.0
C323 C 0.44004 0.95493 0.32479 0.0
C324 C 0.49805 0.96808 0.29612 0.0
C325 C 0.48802 0.97122 0.27586 0.0
C326 C 0.50327 0.95145 0.26046 0.0
C327 C 0.52986 0.92855 0.26599 0.0
C328 C 0.54046 0.92537 0.28675 0.0
C329 C 0.52374 0.94516 0.30184 0.0
H330 H 0.35505 0.18292 0.19975 0.0
H331 H 0.22173 0.04546 0.21281 0.0
H332 H 0.19772 0.03803 0.1766 0.0
H333 H 0.30166 0.22702 0.16281 0.0
H334 H 0.35499 0.25449 0.14669 0.0
H335 H 0.36159 0.24929 0.17369 0.0
H336 H 0.40726 0.20239 0.16663 0.0
H337 H 0.40074 0.20738 0.13961 0.0
H338 H 0.37851 0.14796 0.15096 0.0
H339 H 0.18869 0.04467 0.1388 0.0
H340 H 0.19467 0.06558 0.1023 0.0
H341 H 0.3335 0.19909 0.1137 0.0
C342 C 0.32073 0.15129 0.19503 0.0
C343 C 0.29031 0.11475 0.20921 0.0
C344 C 0.24569 0.07399 0.20232 0.0
C345 C 0.23171 0.06939 0.18175 0.0
C346 C 0.26261 0.10592 0.16819 0.0
C347 C 0.30612 0.14617 0.17454 0.0
C348 C 0.3327 0.18017 0.15684 0.0
C349 C 0.33803 0.23073 0.16021 0.0
C350 C 0.38276 0.18472 0.1533 0.0
C351 C 0.29745 0.15262 0.13952 0.0
C352 C 0.25727 0.10989 0.14641 0.0
C353 C 0.21994 0.07811 0.13324 0.0
C354 C 0.22371 0.09033 0.1125 0.0
C355 C 0.2645 0.13402 0.10505 0.0
C356 C 0.30177 0.16547 0.11886 0.0
H357 H 0.04281 0.31526 0.46232 0.0
H358 H 0.14186 0.27119 0.438 0.0
H359 H 0.1644 0.26177 0.4731 0.0
H360 H 0.11846 0.38687 0.50306 0.0
H361 H 0.06889 0.36941 0.52075 0.0
H362 H 0.05814 0.36929 0.49381 0.0
H363 H -0.01107 0.2782 0.49575 0.0
H364 H -0.00055 0.27804 0.52274 0.0
H365 H 0.00184 0.23353 0.50639 0.0
H366 H 0.17851 0.26035 0.51118 0.0
H367 H 0.1844 0.26899 0.5487 0.0
H368 H 0.07692 0.31515 0.54786 0.0
C369 C 0.06886 0.30309 0.46431 0.0
C370 C 0.09041 0.2938 0.44732 0.0
C371 C 0.12469 0.2784 0.45072 0.0
C372 C 0.13769 0.27288 0.47063 0.0
C373 C 0.11607 0.2828 0.48702 0.0
C374 C 0.08233 0.29754 0.48405 0.0
C375 C 0.06581 0.30777 0.50418 0.0
C376 C 0.07861 0.36153 0.50552 0.0
C377 C 0.01074 0.27226 0.50745 0.0
C378 C 0.0962 0.29743 0.51896 0.0
C379 C 0.12459 0.28255 0.5088 0.0
C380 C 0.15625 0.27174 0.51927 0.0
C381 C 0.1593 0.27671 0.54061 0.0
C382 C 0.13116 0.29276 0.55131 0.0
C383 C 0.09894 0.30276 0.54022 0.0
H384 H 0.76043 0.11948 0.78217 0.0
H385 H 0.9004 0.13147 0.76958 0.0
H386 H 0.92077 0.14418 0.80627 0.0
H387 H 0.80428 0.21295 0.82021 0.0
H388 H 0.75033 0.18176 0.83587 0.0
H389 H 0.74576 0.1712 0.80877 0.0
H390 H 0.70627 0.07782 0.8149 0.0
H391 H 0.71069 0.0881 0.84203 0.0
H392 H 0.73769 0.0557 0.83055 0.0
H393 H 0.92667 0.15743 0.84451 0.0
H394 H 0.91833 0.17197 0.88091 0.0
H395 H 0.77512 0.15271 0.86844 0.0
C396 C 0.79521 0.12435 0.78712 0.0
C397 C 0.82872 0.12425 0.77291 0.0
C398 C 0.87404 0.13128 0.7801 0.0
C399 C 0.88594 0.13848 0.80095 0.0
C400 C 0.85223 0.13867 0.8145 0.0
C401 C 0.8078 0.13184 0.80787 0.0
C402 C 0.77868 0.13518 0.82547 0.0
C403 C 0.76923 0.17782 0.82239 0.0
C404 C 0.73048 0.08629 0.82841 0.0
C405 C 0.8138 0.14536 0.84302 0.0
C406 C 0.85588 0.14691 0.83641 0.0
C407 C 0.8938 0.15618 0.84984 0.0
C408 C 0.8887 0.16437 0.87053 0.0
C409 C 0.84611 0.16354 0.87763 0.0
C410 C 0.80818 0.15361 0.86359 0.0
H411 H 0.63952 0.87515 0.11613 0.0
H412 H 0.69233 0.7728 0.11659 0.0
H413 H 0.69678 0.77718 0.15418 0.0
H414 H 0.71536 0.95085 0.15826 0.0
H415 H 0.66846 0.96126 0.16818 0.0
H416 H 0.67066 0.95097 0.14129 0.0
H417 H 0.58085 0.87895 0.14245 0.0
H418 H 0.57842 0.88889 0.16934 0.0
H419 H 0.56419 0.8294 0.16013 0.0
H420 H 0.69208 0.79005 0.19201 0.0
H421 H 0.68146 0.81278 0.22689 0.0
H422 H 0.63336 0.90797 0.20167 0.0
C423 C 0.65231 0.85385 0.1241 0.0
C424 C 0.66554 0.82357 0.11332 0.0
C425 C 0.6821 0.79637 0.12442 0.0
C426 C 0.6847 0.79855 0.14581 0.0
C427 C 0.67095 0.82839 0.15595 0.0
C428 C 0.65542 0.85583 0.14545 0.0
C429 C 0.64249 0.88479 0.15998 0.0
C430 C 0.67626 0.94026 0.15673 0.0
C431 C 0.58827 0.86958 0.15785 0.0
C432 C 0.65252 0.86884 0.18031 0.0
C433 C 0.66892 0.83631 0.17766 0.0
C434 C 0.67955 0.81575 0.19424 0.0
C435 C 0.67331 0.82883 0.21402 0.0
C436 C 0.65672 0.86229 0.2171 0.0
C437 C 0.64637 0.88251 0.19991 0.0
H438 H 0.75557 0.63812 0.54266 0.0
H439 H 0.89127 0.77591 0.55245 0.0
H440 H 0.9117 0.77788 0.51603 0.0
H441 H 0.80395 0.5871 0.50764 0.0
H442 H 0.74961 0.55762 0.492 0.0
H443 H 0.7449 0.56791 0.51868 0.0
H444 H 0.7004 0.61505 0.5097 0.0
H445 H 0.70492 0.60484 0.48298 0.0
H446 H 0.72895 0.66637 0.49248 0.0
H447 H 0.91803 0.76403 0.4784 0.0
H448 H 0.90982 0.73508 0.44279 0.0
H449 H 0.77042 0.60609 0.45776 0.0
C450 C 0.78946 0.66891 0.53715 0.0
C451 C 0.82174 0.70695 0.55048 0.0
C452 C 0.86587 0.74634 0.5426 0.0
C453 C 0.87782 0.74781 0.5219 0.0
C454 C 0.84533 0.7096 0.50922 0.0
C455 C 0.80204 0.67089 0.51655 0.0
C456 C 0.77391 0.63395 0.49983 0.0
C457 C 0.76775 0.58368 0.50484 0.0
C458 C 0.7241 0.62983 0.49603 0.0
C459 C 0.8082 0.6578 0.48197 0.0
C460 C 0.84913 0.7015 0.48767 0.0
C461 C 0.88607 0.72989 0.47378 0.0
C462 C 0.88108 0.71314 0.45357 0.0
C463 C 0.83951 0.6683 0.44741 0.0
C464 C 0.80267 0.64052 0.4619 0.0
H465 H 0.21132 0.86428 0.88136 0.0
H466 H 0.05285 0.77576 0.88436 0.0
H467 H 0.04798 0.7853 0.84714 0.0
H468 H 0.21608 0.94944 0.84254 0.0
H469 H 0.26945 0.95438 0.83052 0.0
H470 H 0.25988 0.94241 0.85745 0.0
H471 H 0.26612 0.8645 0.8528 0.0
H472 H 0.27546 0.87607 0.82587 0.0
H473 H 0.22622 0.81803 0.83484 0.0
H474 H 0.06134 0.79992 0.80894 0.0
H475 H 0.09139 0.82185 0.77355 0.0
H476 H 0.24088 0.90269 0.79609 0.0
C477 C 0.1755 0.84723 0.87426 0.0
C478 C 0.13244 0.81917 0.8858 0.0
C479 C 0.08634 0.7976 0.87587 0.0
C480 C 0.08323 0.80274 0.85472 0.0
C481 C 0.12651 0.83005 0.84375 0.0
C482 C 0.17173 0.85239 0.85325 0.0
C483 C 0.21282 0.87918 0.83806 0.0
C484 C 0.24122 0.93464 0.8424 0.0
C485 C 0.24716 0.85817 0.83789 0.0
C486 C 0.1838 0.86757 0.81842 0.0
C487 C 0.13406 0.83926 0.82198 0.0
C488 C 0.10019 0.82252 0.80603 0.0
C489 C 0.11762 0.83506 0.78596 0.0
C490 C 0.16849 0.86422 0.782 0.0
C491 C 0.20176 0.88076 0.79856 0.0
H492 H 0.23336 0.87696 0.00976 0.0
H493 H 0.26253 0.89728 0.94497 0.0
H494 H 0.32386 0.98466 0.9511 0.0
H495 H 0.22381 0.9749 0.01552 0.0
H496 H 0.24982 -0.00766 0.04073 0.0
H497 H 0.22238 0.92972 0.03265 0.0
H498 H 0.30293 0.93079 0.04064 0.0
H499 H 0.33074 -0.00623 0.04889 0.0
H500 H 0.35955 0.97708 0.02937 0.0
H501 H 0.36803 0.07077 0.96297 0.0
H502 H 0.38279 0.14816 0.97807 0.0
H503 H 0.31888 0.0733 0.03495 0.0
C504 C 0.25461 0.89924 -0.003 0.0
C505 C 0.24429 0.88027 0.97695 0.0
C506 C 0.27073 0.91101 0.96047 0.0
C507 C 0.30576 0.96058 0.96387 0.0
C508 C 0.3134 0.97883 0.98378 0.0
C509 C 0.28835 0.94899 0.0001 0.0
C510 C 0.29458 0.97882 0.01915 0.0
C511 C 0.24471 0.96834 0.02747 0.0
C512 C 0.3237 0.96956 0.03548 0.0
C513 C 0.32419 0.03024 0.0107 0.0
C514 C 0.33652 0.02942 0.99053 0.0
C515 C 0.35936 0.0719 0.97884 0.0
C516 C 0.36747 0.11578 0.98758 0.0
C517 C 0.35168 0.11674 0.0077 0.0
C518 C 0.332 0.07387 0.01967 0.0
H519 H 0.22503 0.30912 0.37097 0.0
H520 H 0.2383 0.39612 0.31775 0.0
H521 H 0.28828 0.36737 0.30086 0.0
H522 H 0.35178 0.32092 0.36548 0.0
H523 H 0.32679 0.25876 0.37421 0.0
H524 H 0.30317 0.29586 0.38401 0.0
H525 H 0.21578 0.22874 0.37309 0.0
H526 H 0.23898 0.19193 0.36295 0.0
H527 H 0.20415 0.20914 0.34683 0.0
H528 H 0.3159 0.31205 0.28641 0.0
H529 H 0.3292 0.24348 0.27777 0.0
H530 H 0.30369 0.19709 0.34092 0.0
C531 C 0.24049 0.32408 0.35619 0.0
C532 C 0.2274 0.35468 0.34571 0.0
C533 C 0.24772 0.37269 0.32618 0.0
C534 C 0.27623 0.3565 0.31639 0.0
C535 C 0.28536 0.32335 0.32652 0.0
C536 C 0.26944 0.3086 0.34628 0.0
C537 C 0.27934 0.26871 0.35295 0.0
C538 C 0.31756 0.28718 0.37018 0.0
C539 C 0.23174 0.2219 0.35931 0.0
C540 C 0.29995 0.26093 0.33344 0.0
C541 C 0.30369 0.29306 0.31838 0.0
C542 C 0.31497 0.28791 0.29827 0.0
C543 C 0.32221 0.24874 0.29345 0.0
C544 C 0.31846 0.21553 0.30872 0.0
C545 C 0.3084 0.22274 0.32901 0.0
H546 H 0.89528 0.24303 0.70691 0.0
H547 H 0.82135 0.25576 0.65365 0.0
H548 H 0.9008 0.31183 0.63798 0.0
H549 H 0.00785 0.37559 0.70353 0.0
H550 H 0.04726 0.35369 0.71217 0.0
H551 H -0.01466 0.3258 0.7215 0.0
H552 H 0.96951 0.24084 0.70973 0.0
H553 H 0.03069 0.26825 0.70009 0.0
H554 H -0.02052 0.23195 0.68341 0.0
H555 H -0.01571 0.34268 0.62393 0.0
H556 H 0.06719 0.35842 0.61541 0.0
H557 H 0.08905 0.33463 0.67859 0.0
C558 C 0.8958 0.25966 0.69244 0.0
C559 C 0.85204 0.24451 0.68149 0.0
C560 C 0.85431 0.26653 0.66239 0.0
C561 C 0.89942 0.2986 0.6533 0.0
C562 C 0.94204 0.30971 0.66377 0.0
C563 C 0.94069 0.29241 0.68328 0.0
C564 C -0.00867 0.30515 0.69026 0.0
C565 C 0.00899 0.34228 0.70791 0.0
C566 C -0.00722 0.2588 0.6962 0.0
C567 C 0.02035 0.32841 0.67106 0.0
C568 C -0.00851 0.33119 0.65596 0.0
C569 C 0.00802 0.34298 0.63586 0.0
C570 C 0.05496 0.35162 0.63109 0.0
C571 C 0.08491 0.34917 0.64645 0.0
C572 C 0.06772 0.33885 0.66672 0.0
H573 H 0.65755 0.87201 0.98051 0.0
H574 H 0.62441 0.89605 0.04202 0.0
H575 H 0.63455 0.97566 0.03124 0.0
H576 H 0.75405 0.98429 0.97483 0.0
H577 H 0.74594 -0.00944 0.94803 0.0
H578 H 0.72189 0.93072 0.95882 0.0
H579 H 0.63547 0.90591 0.94523 0.0
H580 H 0.65947 0.96624 0.93448 0.0
H581 H 0.60857 0.94232 0.95189 0.0
H582 H 0.66088 0.05693 0.01534 0.0
H583 H 0.71398 0.13607 -0.00132 0.0
H584 H 0.73657 0.06112 0.94824 0.0
C585 C 0.65039 0.89302 0.99156 0.0
C586 C 0.63923 0.87745 0.01202 0.0
C587 C 0.6323 0.90701 0.02621 0.0
C588 C 0.6376 0.95204 0.02014 0.0
C589 C 0.6501 0.96697 -0.0001 0.0
C590 C 0.65679 0.93833 0.98587 0.0
C591 C 0.67962 0.96614 0.96637 0.0
C592 C 0.72824 0.96806 0.96178 0.0
C593 C 0.64362 0.94382 0.94843 0.0
C594 C 0.68777 0.01607 0.97203 0.0
C595 C 0.66843 0.01518 0.99105 0.0
C596 C 0.67555 0.05785 0.00036 0.0
C597 C 0.70585 0.10278 0.9907 0.0
C598 C 0.73 0.10489 0.97221 0.0
C599 C 0.71829 0.06072 0.96222 0.0
H600 H 0.6409 0.73162 0.29749 0.0
H601 H 0.5801 0.74708 0.35429 0.0
H602 H 0.59834 0.68845 0.37065 0.0
H603 H 0.60267 0.59605 0.30553 0.0
H604 H 0.65864 0.60666 0.29387 0.0
H605 H 0.63008 0.64027 0.2853 0.0
H606 H 0.71108 0.72194 0.29195 0.0
H607 H 0.73964 0.68884 0.3007 0.0
H608 H 0.73848 0.73415 0.31698 0.0
H609 H 0.64315 0.64783 0.38308 0.0
H610 H 0.70221 0.61992 0.38915 0.0
H611 H 0.72751 0.62365 0.32413 0.0
C612 C 0.62932 0.7209 0.31308 0.0
C613 C 0.60925 0.7442 0.32456 0.0
C614 C 0.59557 0.72987 0.3451 0.0
C615 C 0.60569 0.69641 0.35458 0.0
C616 C 0.6284 0.67646 0.34323 0.0
C617 C 0.63876 0.68704 0.32274 0.0
C618 C 0.66807 0.66506 0.3146 0.0
C619 C 0.63806 0.62459 0.2989 0.0
C620 C 0.7172 0.70487 0.30555 0.0
C621 C 0.67554 0.64369 0.33399 0.0
C622 C 0.65197 0.65014 0.35033 0.0
C623 C 0.66012 0.64063 0.3703 0.0
C624 C 0.69379 0.62494 0.37366 0.0
C625 C 0.71829 0.61832 0.35709 0.0
C626 C 0.70775 0.62642 0.33702 0.0
H627 H 0.04482 0.73243 0.70454 0.0
H628 H 0.11753 0.73091 0.6489 0.0
H629 H 0.03779 0.67361 0.6334 0.0
H630 H 0.93332 0.59896 0.69897 0.0
H631 H 0.89368 0.61885 0.70932 0.0
H632 H 0.95599 0.64615 0.71826 0.0
H633 H 0.97032 0.73212 0.70942 0.0
H634 H 0.90879 0.70537 0.70019 0.0
H635 H 0.95922 0.74441 0.68374 0.0
H636 H 0.95317 0.63993 0.62061 0.0
H637 H 0.87037 0.62523 0.61313 0.0
H638 H 0.85075 0.64376 0.67724 0.0
C639 C 0.04411 0.71789 0.68952 0.0
C640 C 0.08738 0.73636 0.67794 0.0
C641 C 0.08487 0.71734 0.65811 0.0
C642 C 0.03962 0.68458 0.64916 0.0
C643 C -0.0028 0.67022 0.66036 0.0
C644 C -0.00092 0.68509 0.68038 0.0
C645 C 0.94853 0.67079 0.68804 0.0
C646 C 0.9319 0.63132 0.70463 0.0
C647 C 0.94666 0.71585 0.69577 0.0
C648 C 0.91886 0.64988 0.6687 0.0
C649 C 0.94727 0.64878 0.653 0.0
C650 C 0.92996 0.63868 0.63295 0.0
C651 C 0.88298 0.63064 0.62879 0.0
C652 C 0.85386 0.63265 0.64463 0.0
C653 C 0.87154 0.64053 0.66489 0.0
H654 H 0.00992 0.19503 0.95829 0.0
H655 H 0.929 0.15703 0.01508 0.0
H656 H -0.00733 0.14607 0.03151 0.0
H657 H 0.06063 0.11214 0.9643 0.0
H658 H 0.11864 0.1566 0.95342 0.0
H659 H 0.06328 0.15448 0.94531 0.0
H660 H 0.10163 0.24645 0.95457 0.0
H661 H 0.15685 0.24877 0.96282 0.0
H662 H 0.12458 0.26684 0.98003 0.0
H663 H 0.06913 0.14798 0.04287 0.0
H664 H 0.1528 0.16257 0.04804 0.0
H665 H 0.18402 0.20003 0.98402 0.0
C666 C 0.00499 0.18305 0.974 0.0
C667 C 0.96442 0.17664 0.98536 0.0
C668 C 0.95982 0.16215 0.00606 0.0
C669 C -0.00431 0.15563 0.01553 0.0
C670 C 0.036 0.16365 0.00411 0.0
C671 C 0.04076 0.17677 0.98376 0.0
C672 C 0.08965 0.18732 0.97545 0.0
C673 C 0.08261 0.15043 0.95862 0.0
C674 C 0.11995 0.2405 0.96778 0.0
C675 C 0.11206 0.17949 0.99443 0.0
C676 C 0.08036 0.16523 0.01074 0.0
C677 C 0.09409 0.15849 0.03013 0.0
C678 C 0.1417 0.16696 0.03295 0.0
C679 C 0.17501 0.18236 0.01647 0.0
C680 C 0.15946 0.18797 -0.00305 0.0
H681 H 0.76963 -0.00056 0.34398 0.0
H682 H 0.80067 -0.01341 0.28056 0.0
H683 H 0.88516 0.05605 0.28526 0.0
H684 H 0.83273 0.12715 0.34601 0.0
H685 H 0.85513 0.13183 0.37166 0.0
H686 H 0.79906 0.07809 0.36387 0.0
H687 H 0.83399 0.02324 0.37476 0.0
H688 H 0.89032 0.07693 0.38258 0.0
H689 H 0.8915 0.03481 0.3644 0.0
H690 H 0.96285 0.13111 0.29594 0.0
H691 H 0.02841 0.20726 0.31156 0.0
H692 H 0.94745 0.17061 0.36832 0.0
C693 C 0.7943 0.01067 0.3311 0.0
C694 C 0.7785 -0.01253 0.31187 0.0
C695 C 0.81194 0.00368 0.29543 0.0
C696 C 0.86003 0.04297 0.29798 0.0
C697 C 0.87412 0.0653 0.3171 0.0
C698 C 0.84229 0.04963 0.3334 0.0
C699 C 0.86546 0.08179 0.352 0.0
C700 C 0.83637 0.10616 0.35877 0.0
C701 C 0.87063 0.05243 0.36947 0.0
C702 C 0.91495 0.11901 0.34346 0.0
C703 C 0.91929 0.10848 0.32336 0.0
C704 C 0.96016 0.13933 0.31173 0.0
C705 C -0.00289 0.18255 0.32074 0.0
C706 C -0.00694 0.19459 0.34118 0.0
C707 C 0.95191 0.16181 0.35281 0.0
H708 H 0.75106 0.78581 0.67281 0.0
H709 H 0.79057 0.81957 0.60908 0.0
H710 H 0.80355 0.90264 0.61457 0.0
H711 H 0.68323 0.84448 0.67676 0.0
H712 H 0.70263 0.86671 0.70237 0.0
H713 H 0.70109 0.81188 0.69391 0.0
H714 H 0.79256 0.84992 0.70366 0.0
H715 H 0.79443 0.90501 0.71215 0.0
H716 H 0.83723 0.90851 0.69323 0.0
H717 H 0.80535 0.97868 0.62622 0.0
H718 H 0.79494 0.04248 0.64288 0.0
H719 H 0.75523 0.96003 0.69934 0.0
C720 C 0.76308 0.81079 0.66001 0.0
C721 C 0.76988 0.79612 0.64047 0.0
C722 C 0.78523 0.82994 0.62417 0.0
C723 C 0.79284 0.87724 0.62717 0.0
C724 C 0.78528 0.8902 0.64658 0.0
C725 C 0.77089 0.85802 0.66275 0.0
C726 C 0.7625 0.87996 0.6818 0.0
C727 C 0.7092 0.84891 0.68913 0.0
C728 C 0.79886 0.88622 0.69871 0.0
C729 C 0.77315 0.92916 0.6737 0.0
C730 C 0.78668 0.9344 0.65339 0.0
C731 C 0.79541 0.97524 0.64216 0.0
C732 C 0.78924 0.01121 0.65177 0.0
C733 C 0.7745 0.00629 0.67244 0.0
C734 C 0.76739 0.96517 0.68366 0.0
H735 H 0.79259 0.77717 0.98926 0.0
H736 H 0.81562 0.79928 0.0546 0.0
H737 H 0.89636 0.80596 0.05081 0.0
H738 H 0.84255 0.70196 0.98322 0.0
H739 H 0.87062 0.72675 0.95892 0.0
H740 H 0.81693 0.72827 0.96649 0.0
H741 H 0.8631 0.82243 0.96126 0.0
H742 H 0.91699 0.82121 0.95357 0.0
H743 H 0.92049 0.86046 0.97424 0.0
H744 H 0.97045 0.80256 0.0403 0.0
H745 H 0.03426 0.79199 0.02392 0.0
H746 H 0.96373 0.77367 0.96516 0.0
C747 C 0.81478 0.78407 0.00279 0.0
C748 C 0.79772 0.78766 0.02227 0.0
C749 C 0.82796 0.79656 0.03954 0.0
C750 C 0.87385 0.80042 0.03752 0.0
C751 C 0.88906 0.7958 0.01812 0.0
C752 C 0.86062 0.78824 0.00104 0.0
C753 C 0.88436 0.78239 0.98205 0.0
C754 C 0.85166 0.73184 0.9721 0.0
C755 C 0.89699 0.82412 0.96688 0.0
C756 C 0.93015 0.78654 0.99118 0.0
C757 C 0.93221 0.79453 0.012 0.0
C758 C 0.96953 0.79691 0.02399 0.0
C759 C 0.00548 0.79061 0.01453 0.0
C760 C 0.00403 0.78211 0.99323 0.0
C761 C 0.96615 0.78074 0.9814 0.0
H762 H 1e-05 0.78657 0.36499 0.0
H763 H 0.9246 0.73044 0.30725 0.0
H764 H -0.01084 0.80347 0.28975 0.0
H765 H 0.04682 0.91715 0.3546 0.0
H766 H 0.10462 0.93665 0.36703 0.0
H767 H 0.05021 0.88194 0.37543 0.0
H768 H 0.09333 0.83187 0.37009 0.0
H769 H 0.14776 0.88633 0.36164 0.0
H770 H 0.11919 0.83266 0.34554 0.0
H771 H 0.06363 0.88016 0.27806 0.0
H772 H 0.14457 0.95461 0.27303 0.0
H773 H 0.17257 0.96017 0.33809 0.0
C774 C -0.00325 0.79009 0.34873 0.0
C775 C 0.95722 0.75288 0.33751 0.0
C776 C 0.95465 0.75842 0.31618 0.0
C777 C -0.00898 0.79988 0.30608 0.0
C778 C 0.02989 0.83554 0.31749 0.0
C779 C 0.03311 0.83115 0.33833 0.0
C780 C 0.08031 0.87342 0.34673 0.0
C781 C 0.06984 0.90411 0.36184 0.0
C782 C 0.11201 0.85495 0.35657 0.0
C783 C 0.1033 0.90164 0.32732 0.0
C784 C 0.07338 0.87948 0.31066 0.0
C785 C 0.08732 0.8981 0.29101 0.0
C786 C 0.13335 0.94037 0.28829 0.0
C787 C 0.16498 0.96325 0.30513 0.0
C788 C 0.14931 0.94366 0.32489 0.0
H789 H 0.1853 -0.00773 0.65322 0.0
H790 H 0.13606 0.97842 0.71588 0.0
H791 H 0.12066 0.0466 0.71046 0.0
H792 H 0.25018 0.11984 0.65178 0.0
H793 H 0.23462 0.12464 0.62579 0.0
H794 H 0.23625 0.07123 0.63383 0.0
H795 H 0.14677 0.01559 0.62148 0.0
H796 H 0.14482 0.06895 0.61341 0.0
H797 H 0.09956 0.02614 0.63092 0.0
H798 H 0.11843 0.12058 0.69942 0.0
H799 H 0.13114 0.19692 0.68389 0.0
H800 H 0.18103 0.16276 0.62811 0.0
C801 C 0.17048 0.00293 0.66574 0.0
C802 C 0.16172 0.97983 0.68499 0.0
C803 C 0.14295 -0.00456 0.70101 0.0
C804 C 0.13388 0.03398 0.69804 0.0
C805 C 0.1435 0.05626 0.67894 0.0
C806 C 0.16129 0.04128 0.66305 0.0
C807 C 0.17203 0.07369 0.6445 0.0
C808 C 0.2265 0.09884 0.63864 0.0
C809 C 0.1388 0.04433 0.62652 0.0
C810 C 0.1589 0.11029 0.65265 0.0
C811 C 0.14198 0.09909 0.67248 0.0
C812 C 0.13093 0.1293 0.68383 0.0
C813 C 0.13842 0.17264 0.67488 0.0
C814 C 0.15676 0.18547 0.65477 0.0
C815 C 0.166 0.15327 0.64334 0.0
loop_
_geom_bond_atom_site_label_1
_geom_bond_atom_site_label_2
_geom_bond_distance
_geom_bond_site_symmetry_2
_ccdc_geom_bond_type
Zn0 O3 2.031 . S
Zn0 O5 2.049 . S
Zn0 O10 2.067 . S
Zn1 O2 1.962 . S
Zn1 O4 1.986 . S
Zn1 O6 1.996 . S
Zn1 O9 1.943 . S
O2 Zn1 1.962 . S
O2 C7 1.254 . S
O3 Zn0 2.031 . S
O3 C7 1.269 . S
O4 Zn1 1.986 . S
O4 C11 1.262 . S
O5 Zn0 2.049 . S
O5 C13 1.260 . S
O6 Zn1 1.996 . S
O6 C13 1.257 . S
C7 O2 1.254 . S
C7 O3 1.269 . S
C8 O9 1.249 . S
C8 O10 1.270 . S
O9 Zn1 1.943 . S
O9 C8 1.249 . S
O10 Zn0 2.067 . S
O10 C8 1.270 . S
C11 O4 1.262 . S
C11 O12 1.232 . S
O12 C11 1.232 . S
C13 O5 1.260 . S
C13 O6 1.257 . S
Zn14 O17 2.031 . S
Zn14 O19 2.049 . S
Zn14 O24 2.067 . S
Zn15 O16 1.962 . S
Zn15 O18 1.986 . S
Zn15 O20 1.996 . S
Zn15 O23 1.943 . S
O16 Zn15 1.962 . S
O16 C21 1.254 . S
O17 Zn14 2.031 . S
O17 C21 1.269 . S
O18 Zn15 1.986 . S
O18 C25 1.262 . S
O19 Zn14 2.049 . S
O19 C27 1.260 . S
O20 Zn15 1.996 . S
O20 C27 1.257 . S
C21 O16 1.254 . S
C21 O17 1.269 . S
C22 O23 1.249 . S
C22 O24 1.270 . S
O23 Zn15 1.943 . S
O23 C22 1.249 . S
O24 Zn14 2.067 . S
O24 C22 1.270 . S
C25 O18 1.262 . S
C25 O26 1.232 . S
O26 C25 1.232 . S
C27 O19 1.260 . S
C27 O20 1.257 . S
Zn28 O31 2.031 . S
Zn28 O33 2.049 . S
Zn28 O38 2.067 . S
Zn29 O30 1.962 . S
Zn29 O32 1.986 . S
Zn29 O34 1.996 . S
Zn29 O37 1.943 . S
O30 Zn29 1.962 . S
O30 C35 1.254 . S
O31 Zn28 2.031 . S
O31 C35 1.269 . S
O32 Zn29 1.986 . S
O32 C39 1.262 . S
O33 Zn28 2.049 . S
O33 C41 1.260 . S
O34 Zn29 1.996 . S
O34 C41 1.257 . S
C35 O30 1.254 . S
C35 O31 1.269 . S
C36 O37 1.249 . S
C36 O38 1.270 . S
O37 Zn29 1.943 . S
O37 C36 1.249 . S
O38 Zn28 2.067 . S
O38 C36 1.270 . S
C39 O32 1.262 . S
C39 O40 1.232 . S
O40 C39 1.232 . S
C41 O33 1.260 . S
C41 O34 1.257 . S
Zn42 O45 2.031 . S
Zn42 O47 2.049 . S
Zn42 O52 2.067 . S
Zn43 O44 1.962 . S
Zn43 O46 1.986 . S
Zn43 O48 1.996 . S
Zn43 O51 1.943 . S
O44 Zn43 1.962 . S
O44 C49 1.254 . S
O45 Zn42 2.031 . S
O45 C49 1.269 . S
O46 Zn43 1.986 . S
O46 C53 1.262 . S
O47 Zn42 2.049 . S
O47 C55 1.260 . S
O48 Zn43 1.996 . S
O48 C55 1.257 . S
C49 O44 1.254 . S
C49 O45 1.269 . S
C50 O51 1.249 . S
C50 O52 1.270 . S
O51 Zn43 1.943 . S
O51 C50 1.249 . S
O52 Zn42 2.067 . S
O52 C50 1.270 . S
C53 O46 1.262 . S
C53 O54 1.232 . S
O54 C53 1.232 . S
C55 O47 1.260 . S
C55 O48 1.257 . S
Zn56 O59 2.031 . S
Zn56 O61 2.049 . S
Zn56 O66 2.067 . S
Zn57 O58 1.962 . S
Zn57 O60 1.986 . S
Zn57 O62 1.996 . S
Zn57 O65 1.943 . S
O58 Zn57 1.962 . S
O58 C63 1.254 . S
O59 Zn56 2.031 . S
O59 C63 1.269 . S
O60 Zn57 1.986 . S
O60 C67 1.262 . S
O61 Zn56 2.049 . S
O61 C69 1.260 . S
O62 Zn57 1.996 . S
O62 C69 1.257 . S
C63 O58 1.254 . S
C63 O59 1.269 . S
C64 O65 1.249 . S
C64 O66 1.270 . S
O65 Zn57 1.943 . S
O65 C64 1.249 . S
O66 Zn56 2.067 . S
O66 C64 1.270 . S
C67 O60 1.262 . S
C67 O68 1.232 . S
O68 C67 1.232 . S
C69 O61 1.260 . S
C69 O62 1.257 . S
Zn70 O73 2.031 . S
Zn70 O75 2.049 . S
Zn70 O80 2.067 . S
Zn71 O72 1.962 . S
Zn71 O74 1.986 . S
Zn71 O76 1.996 . S
Zn71 O79 1.943 . S
O72 Zn71 1.962 . S
O72 C77 1.254 . S
O73 Zn70 2.031 . S
O73 C77 1.269 . S
O74 Zn71 1.986 . S
O74 C81 1.262 . S
O75 Zn70 2.049 . S
O75 C83 1.260 . S
O76 Zn71 1.996 . S
O76 C83 1.257 . S
C77 O72 1.254 . S
C77 O73 1.269 . S
C78 O79 1.249 . S
C78 O80 1.270 . S
O79 Zn71 1.943 . S
O79 C78 1.249 . S
O80 Zn70 2.067 . S
O80 C78 1.270 . S
C81 O74 1.262 . S
C81 O82 1.232 . S
O82 C81 1.232 . S
C83 O75 1.260 . S
C83 O76 1.257 . S
Zn84 O87 2.031 . S
Zn84 O89 2.049 . S
Zn84 O94 2.067 . S
Zn85 O86 1.962 . S
Zn85 O88 1.986 . S
Zn85 O90 1.996 . S
Zn85 O93 1.943 . S
O86 Zn85 1.962 . S
O86 C91 1.254 . S
O87 Zn84 2.031 . S
O87 C91 1.269 . S
O88 Zn85 1.986 . S
O88 C95 1.262 . S
O89 Zn84 2.049 . S
O89 C97 1.260 . S
O90 Zn85 1.996 . S
O90 C97 1.257 . S
C91 O86 1.254 . S
C91 O87 1.269 . S
C92 O93 1.249 . S
C92 O94 1.270 . S
O93 Zn85 1.943 . S
O93 C92 1.249 . S
O94 Zn84 2.067 . S
O94 C92 1.270 . S
C95 O88 1.262 . S
C95 O96 1.232 . S
O96 C95 1.232 . S
C97 O89 1.260 . S
C97 O90 1.257 . S
Zn98 O101 2.031 . S
Zn98 O103 2.049 . S
Zn98 O108 2.067 . S
Zn99 O100 1.962 . S
Zn99 O102 1.986 . S
Zn99 O104 1.996 . S
Zn99 O107 1.943 . S
O100 Zn99 1.962 . S
O100 C105 1.254 . S
O101 Zn98 2.031 . S
O101 C105 1.269 . S
O102 Zn99 1.986 . S
O102 C109 1.262 . S
O103 Zn98 2.049 . S
O103 C111 1.260 . S
O104 Zn99 1.996 . S
O104 C111 1.257 . S
C105 O100 1.254 . S
C105 O101 1.269 . S
C106 O107 1.249 . S
C106 O108 1.270 . S
O107 Zn99 1.943 . S
O107 C106 1.249 . S
O108 Zn98 2.067 . S
O108 C106 1.270 . S
C109 O102 1.262 . S
C109 O110 1.232 . S
O110 C109 1.232 . S
C111 O103 1.260 . S
C111 O104 1.257 . S
Zn112 O115 2.031 . S
Zn112 O117 2.049 . S
Zn112 O122 2.067 . S
Zn113 O114 1.962 . S
Zn113 O116 1.986 . S
Zn113 O118 1.996 . S
Zn113 O121 1.943 . S
O114 Zn113 1.962 . S
O114 C119 1.254 . S
O115 Zn112 2.031 . S
O115 C119 1.269 . S
O116 Zn113 1.986 . S
O116 C123 1.262 . S
O117 Zn112 2.049 . S
O117 C125 1.260 . S
O118 Zn113 1.996 . S
O118 C125 1.257 . S
C119 O114 1.254 . S
C119 O115 1.269 . S
C120 O121 1.249 . S
C120 O122 1.270 . S
O121 Zn113 1.943 . S
O121 C120 1.249 . S
O122 Zn112 2.067 . S
O122 C120 1.270 . S
C123 O116 1.262 . S
C123 O124 1.232 . S
O124 C123 1.232 . S
C125 O117 1.260 . S
C125 O118 1.257 . S
Zn126 O129 2.031 . S
Zn126 O131 2.049 . S
Zn126 O136 2.067 . S
Zn127 O128 1.962 . S
Zn127 O130 1.986 . S
Zn127 O132 1.996 . S
Zn127 O135 1.943 . S
O128 Zn127 1.962 . S
O128 C133 1.254 . S
O129 Zn126 2.031 . S
O129 C133 1.269 . S
O130 Zn127 1.986 . S
O130 C137 1.262 . S
O131 Zn126 2.049 . S
O131 C139 1.260 . S
O132 Zn127 1.996 . S
O132 C139 1.257 . S
C133 O128 1.254 . S
C133 O129 1.269 . S
C134 O135 1.249 . S
C134 O136 1.270 . S
O135 Zn127 1.943 . S
O135 C134 1.249 . S
O136 Zn126 2.067 . S
O136 C134 1.270 . S
C137 O130 1.262 . S
C137 O138 1.232 . S
O138 C137 1.232 . S
C139 O131 1.260 . S
C139 O132 1.257 . S
Zn140 O143 2.031 . S
Zn140 O145 2.049 . S
Zn140 O150 2.067 . S
Zn141 O142 1.962 . S
Zn141 O144 1.986 . S
Zn141 O146 1.996 . S
Zn141 O149 1.943 . S
O142 Zn141 1.962 . S
O142 C147 1.254 . S
O143 Zn140 2.031 . S
O143 C147 1.269 . S
O144 Zn141 1.986 . S
O144 C151 1.262 . S
O145 Zn140 2.049 . S
O145 C153 1.260 . S
O146 Zn141 1.996 . S
O146 C153 1.257 . S
C147 O142 1.254 . S
C147 O143 1.269 . S
C148 O149 1.249 . S
C148 O150 1.270 . S
O149 Zn141 1.943 . S
O149 C148 1.249 . S
O150 Zn140 2.067 . S
O150 C148 1.270 . S
C151 O144 1.262 . S
C151 O152 1.232 . S
O152 C151 1.232 . S
C153 O145 1.260 . S
C153 O146 1.257 . S
Zn154 O157 2.031 . S
Zn154 O159 2.049 . S
Zn154 O164 2.067 . S
Zn155 O156 1.962 . S
Zn155 O158 1.986 . S
Zn155 O160 1.996 . S
Zn155 O163 1.943 . S
O156 Zn155 1.962 . S
O156 C161 1.254 . S
O157 Zn154 2.031 . S
O157 C161 1.269 . S
O158 Zn155 1.986 . S
O158 C165 1.262 . S
O159 Zn154 2.049 . S
O159 C167 1.260 . S
O160 Zn155 1.996 . S
O160 C167 1.257 . S
C161 O156 1.254 . S
C161 O157 1.269 . S
C162 O163 1.249 . S
C162 O164 1.270 . S
O163 Zn155 1.943 . S
O163 C162 1.249 . S
O164 Zn154 2.067 . S
O164 C162 1.270 . S
C165 O158 1.262 . S
C165 O166 1.232 . S
O166 C165 1.232 . S
C167 O159 1.260 . S
C167 O160 1.257 . S
H168 C180 0.930 . S
H169 C182 0.930 . S
H170 C183 0.930 . S
H171 C187 0.959 . S
H172 C187 0.959 . S
H173 C187 0.961 . S
H174 C188 0.960 . S
H175 C188 0.961 . S
H176 C188 0.959 . S
H177 C191 0.929 . S
H178 C192 0.931 . S
H179 C194 0.930 . S
C180 H168 0.930 . S
C180 C181 1.399 . S
C180 C185 1.399 . S
C181 C180 1.399 . S
C181 C182 1.376 . S
C182 H169 0.930 . S
C182 C181 1.376 . S
C182 C183 1.388 . S
C183 H170 0.930 . S
C183 C182 1.388 . S
C183 C184 1.390 . S
C184 C183 1.390 . S
C184 C185 1.394 . S
C184 C190 1.465 . S
C185 C180 1.399 . S
C185 C184 1.394 . S
C185 C186 1.516 . S
C186 C185 1.516 . S
C186 C187 1.502 . S
C186 C188 1.561 . S
C186 C189 1.526 . S
C187 H171 0.959 . S
C187 H172 0.959 . S
C187 H173 0.961 . S
C187 C186 1.502 . S
C188 H174 0.960 . S
C188 H175 0.961 . S
C188 H176 0.959 . S
C188 C186 1.561 . S
C189 C186 1.526 . S
C189 C190 1.396 . S
C189 C194 1.390 . S
C190 C184 1.465 . S
C190 C189 1.396 . S
C190 C191 1.399 . S
C191 H177 0.929 . S
C191 C190 1.399 . S
C191 C192 1.385 . S
C192 H178 0.931 . S
C192 C191 1.385 . S
C192 C193 1.389 . S
C193 C192 1.389 . S
C193 C194 1.387 . S
C194 H179 0.930 . S
C194 C189 1.390 . S
C194 C193 1.387 . S
H195 C207 0.930 . S
H196 C209 0.930 . S
H197 C210 0.930 . S
H198 C214 0.959 . S
H199 C214 0.959 . S
H200 C214 0.961 . S
H201 C215 0.960 . S
H202 C215 0.961 . S
H203 C215 0.959 . S
H204 C218 0.929 . S
H205 C219 0.931 . S
H206 C221 0.930 . S
C207 H195 0.930 . S
C207 C208 1.399 . S
C207 C212 1.399 . S
C208 C207 1.399 . S
C208 C209 1.376 . S
C209 H196 0.930 . S
C209 C208 1.376 . S
C209 C210 1.388 1_455 S
C210 H197 0.930 . S
C210 C209 1.388 1_655 S
C210 C211 1.390 . S
C211 C210 1.390 . S
C211 C212 1.394 1_655 S
C211 C217 1.465 . S
C212 C207 1.399 . S
C212 C211 1.394 1_455 S
C212 C213 1.516 . S
C213 C212 1.516 . S
C213 C214 1.502 . S
C213 C215 1.561 . S
C213 C216 1.526 1_455 S
C214 H198 0.959 . S
C214 H199 0.959 . S
C214 H200 0.961 . S
C214 C213 1.502 . S
C215 H201 0.960 . S
C215 H202 0.961 . S
C215 H203 0.959 . S
C215 C213 1.561 . S
C216 C213 1.526 1_655 S
C216 C217 1.396 . S
C216 C221 1.390 . S
C217 C211 1.465 . S
C217 C216 1.396 . S
C217 C218 1.399 . S
C218 H204 0.929 . S
C218 C217 1.399 . S
C218 C219 1.385 . S
C219 H205 0.931 . S
C219 C218 1.385 . S
C219 C220 1.389 . S
C220 C219 1.389 . S
C220 C221 1.387 . S
C221 H206 0.930 . S
C221 C216 1.390 . S
C221 C220 1.387 . S
H222 C234 0.930 . S
H223 C236 0.930 . S
H224 C237 0.930 . S
H225 C241 0.959 . S
H226 C241 0.959 . S
H227 C241 0.961 . S
H228 C242 0.960 . S
H229 C242 0.961 1_545 S
H230 C242 0.959 . S
H231 C245 0.929 1_565 S
H232 C246 0.931 . S
H233 C248 0.930 . S
C234 H222 0.930 . S
C234 C235 1.399 . S
C234 C239 1.399 . S
C235 C234 1.399 . S
C235 C236 1.376 . S
C236 H223 0.930 . S
C236 C235 1.376 . S
C236 C237 1.388 . S
C237 H224 0.930 . S
C237 C236 1.388 . S
C237 C238 1.390 . S
C238 C237 1.390 . S
C238 C239 1.394 . S
C238 C244 1.465 1_565 S
C239 C234 1.399 . S
C239 C238 1.394 . S
C239 C240 1.516 1_565 S
C240 C239 1.516 1_545 S
C240 C241 1.502 . S
C240 C242 1.561 1_545 S
C240 C243 1.526 . S
C241 H225 0.959 . S
C241 H226 0.959 . S
C241 H227 0.961 . S
C241 C240 1.502 . S
C242 H228 0.960 . S
C242 H229 0.961 1_565 S
C242 H230 0.959 . S
C242 C240 1.561 1_565 S
C243 C240 1.526 . S
C243 C244 1.406 . S
C243 C248 1.390 . S
C244 C238 1.465 1_545 S
C244 C243 1.406 . S
C244 C245 1.392 . S
C245 H231 0.929 1_545 S
C245 C244 1.392 . S
C245 C246 1.385 . S
C246 H232 0.931 . S
C246 C245 1.385 . S
C246 C247 1.389 . S
C247 C246 1.389 . S
C247 C248 1.387 . S
C248 H233 0.930 . S
C248 C243 1.390 . S
C248 C247 1.387 . S
H249 C261 0.930 . S
H250 C263 0.930 . S
H251 C264 0.930 . S
H252 C268 0.959 . S
H253 C268 0.959 . S
H254 C268 0.961 . S
H255 C269 0.960 . S
H256 C269 0.961 . S
H257 C269 0.959 . S
H258 C272 0.929 . S
H259 C273 0.931 . S
H260 C275 0.930 . S
C261 H249 0.930 . S
C261 C262 1.399 . S
C261 C266 1.399 . S
C262 C261 1.399 . S
C262 C263 1.376 . S
C263 H250 0.930 . S
C263 C262 1.376 . S
C263 C264 1.388 . S
C264 H251 0.930 . S
C264 C263 1.388 . S
C264 C265 1.390 . S
C265 C264 1.390 . S
C265 C266 1.394 . S
C265 C271 1.465 . S
C266 C261 1.399 . S
C266 C265 1.394 . S
C266 C267 1.516 . S
C267 C266 1.516 . S
C267 C268 1.502 . S
C267 C269 1.561 . S
C267 C270 1.526 . S
C268 H252 0.959 . S
C268 H253 0.959 . S
C268 H254 0.961 . S
C268 C267 1.502 . S
C269 H255 0.960 . S
C269 H256 0.961 . S
C269 H257 0.959 . S
C269 C267 1.561 . S
C270 C267 1.526 . S
C270 C271 1.396 . S
C270 C275 1.390 . S
C271 C265 1.465 . S
C271 C270 1.396 . S
C271 C272 1.399 . S
C272 H258 0.929 . S
C272 C271 1.399 . S
C272 C273 1.385 . S
C273 H259 0.931 . S
C273 C272 1.385 . S
C273 C274 1.389 . S
C274 C273 1.389 . S
C274 C275 1.387 . S
C275 H260 0.930 . S
C275 C270 1.390 . S
C275 C274 1.387 . S
H276 C288 0.930 . S
H277 C290 0.930 . S
H278 C291 0.930 1_455 S
H279 C295 0.959 . S
H280 C295 0.947 1_554 S
H281 C295 0.961 . S
H282 C296 0.960 1_655 S
H283 C296 0.961 . S
H284 C296 0.959 1_556 S
H285 C299 0.929 . S
H286 C300 0.931 . S
H287 C302 0.930 . S
C288 H276 0.930 . S
C288 C289 1.399 . S
C288 C293 1.399 . S
C289 C288 1.399 . S
C289 C290 1.376 . S
C290 H277 0.930 . S
C290 C289 1.376 . S
C290 C291 1.388 . S
C291 H278 0.930 1_655 S
C291 C290 1.388 . S
C291 C292 1.383 . S
C292 C291 1.383 . S
C292 C293 1.403 . S
C292 C298 1.465 1_655 S
C293 C288 1.399 . S
C293 C292 1.403 . S
C293 C294 1.516 . S
C294 C293 1.516 . S
C294 C295 1.502 . S
C294 C296 1.561 1_656 S
C294 C297 1.526 1_655 S
C295 H279 0.959 . S
C295 H280 0.947 1_556 S
C295 H281 0.961 . S
C295 C294 1.502 . S
C296 H282 0.960 1_455 S
C296 H283 0.961 . S
C296 H284 0.959 1_554 S
C296 C294 1.561 1_454 S
C297 C294 1.526 1_455 S
C297 C298 1.396 . S
C297 C302 1.390 . S
C298 C292 1.465 1_455 S
C298 C297 1.396 . S
C298 C299 1.399 . S
C299 H285 0.929 . S
C299 C298 1.399 . S
C299 C300 1.385 . S
C300 H286 0.931 . S
C300 C299 1.385 . S
C300 C301 1.389 . S
C301 C300 1.389 . S
C301 C302 1.387 . S
C302 H287 0.930 . S
C302 C297 1.390 . S
C302 C301 1.387 . S
H303 C315 0.930 . S
H304 C317 0.930 . S
H305 C318 0.930 . S
H306 C322 0.959 . S
H307 C322 0.959 . S
H308 C322 0.961 . S
H309 C323 0.960 . S
H310 C323 0.961 1_565 S
H311 C323 0.959 . S
H312 C326 0.929 1_545 S
H313 C327 0.931 . S
H314 C329 0.930 . S
C315 H303 0.930 . S
C315 C316 1.399 . S
C315 C320 1.399 . S
C316 C315 1.399 . S
C316 C317 1.376 . S
C317 H304 0.930 . S
C317 C316 1.376 . S
C317 C318 1.388 . S
C318 H305 0.930 . S
C318 C317 1.388 . S
C318 C319 1.390 . S
C319 C318 1.390 . S
C319 C320 1.394 . S
C319 C325 1.450 1_545 S
C320 C315 1.399 . S
C320 C319 1.394 . S
C320 C321 1.516 1_545 S
C321 C320 1.516 1_565 S
C321 C322 1.502 . S
C321 C323 1.561 1_565 S
C321 C324 1.526 . S
C322 H306 0.959 . S
C322 H307 0.959 . S
C322 H308 0.961 . S
C322 C321 1.502 . S
C323 H309 0.960 . S
C323 H310 0.961 1_545 S
C323 H311 0.959 . S
C323 C321 1.561 1_545 S
C324 C321 1.526 . S
C324 C325 1.405 . S
C324 C329 1.390 . S
C325 C319 1.450 1_565 S
C325 C324 1.405 . S
C325 C326 1.406 . S
C326 H312 0.929 1_565 S
C326 C325 1.406 . S
C326 C327 1.385 . S
C327 H313 0.931 . S
C327 C326 1.385 . S
C327 C328 1.389 . S
C328 C327 1.389 . S
C328 C329 1.387 . S
C329 H314 0.930 . S
C329 C324 1.390 . S
C329 C328 1.387 . S
H330 C342 0.930 . S
H331 C344 0.930 . S
H332 C345 0.930 . S
H333 C349 0.959 . S
H334 C349 0.959 . S
H335 C349 0.961 . S
H336 C350 0.960 . S
H337 C350 0.961 . S
H338 C350 0.959 . S
H339 C353 0.929 . S
H340 C354 0.931 . S
H341 C356 0.930 . S
C342 H330 0.930 . S
C342 C343 1.399 . S
C342 C347 1.399 . S
C343 C342 1.399 . S
C343 C344 1.376 . S
C344 H331 0.930 . S
C344 C343 1.376 . S
C344 C345 1.388 . S
C345 H332 0.930 . S
C345 C344 1.388 . S
C345 C346 1.390 . S
C346 C345 1.390 . S
C346 C347 1.394 . S
C346 C352 1.465 . S
C347 C342 1.399 . S
C347 C346 1.394 . S
C347 C348 1.516 . S
C348 C347 1.516 . S
C348 C349 1.502 . S
C348 C350 1.561 . S
C348 C351 1.526 . S
C349 H333 0.959 . S
C349 H334 0.959 . S
C349 H335 0.961 . S
C349 C348 1.502 . S
C350 H336 0.960 . S
C350 H337 0.961 . S
C350 H338 0.959 . S
C350 C348 1.561 . S
C351 C348 1.526 . S
C351 C352 1.396 . S
C351 C356 1.390 . S
C352 C346 1.465 . S
C352 C351 1.396 . S
C352 C353 1.399 . S
C353 H339 0.929 . S
C353 C352 1.399 . S
C353 C354 1.385 . S
C354 H340 0.931 . S
C354 C353 1.385 . S
C354 C355 1.389 . S
C355 C354 1.389 . S
C355 C356 1.387 . S
C356 H341 0.930 . S
C356 C351 1.390 . S
C356 C355 1.387 . S
H357 C369 0.930 . S
H358 C371 0.930 . S
H359 C372 0.930 . S
H360 C376 0.959 . S
H361 C376 0.959 . S
H362 C376 0.961 . S
H363 C377 0.960 . S
H364 C377 0.961 . S
H365 C377 0.959 . S
H366 C380 0.929 . S
H367 C381 0.931 . S
H368 C383 0.930 . S
C369 H357 0.930 . S
C369 C370 1.399 . S
C369 C374 1.399 . S
C370 C369 1.399 . S
C370 C371 1.376 . S
C371 H358 0.930 . S
C371 C370 1.376 . S
C371 C372 1.388 . S
C372 H359 0.930 . S
C372 C371 1.388 . S
C372 C373 1.390 . S
C373 C372 1.390 . S
C373 C374 1.394 . S
C373 C379 1.465 . S
C374 C369 1.399 . S
C374 C373 1.394 . S
C374 C375 1.516 . S
C375 C374 1.516 . S
C375 C376 1.502 . S
C375 C377 1.561 . S
C375 C378 1.526 . S
C376 H360 0.959 . S
C376 H361 0.959 . S
C376 H362 0.961 . S
C376 C375 1.502 . S
C377 H363 0.960 . S
C377 H364 0.961 . S
C377 H365 0.959 . S
C377 C375 1.561 . S
C378 C375 1.526 . S
C378 C379 1.396 . S
C378 C383 1.390 . S
C379 C373 1.465 . S
C379 C378 1.396 . S
C379 C380 1.399 . S
C380 H366 0.929 . S
C380 C379 1.399 . S
C380 C381 1.385 . S
C381 H367 0.931 . S
C381 C380 1.385 . S
C381 C382 1.389 . S
C382 C381 1.389 . S
C382 C383 1.387 . S
C383 H368 0.930 . S
C383 C378 1.390 . S
C383 C382 1.387 . S
H384 C396 0.930 . S
H385 C398 0.930 . S
H386 C399 0.930 . S
H387 C403 0.959 . S
H388 C403 0.959 . S
H389 C403 0.961 . S
H390 C404 0.960 . S
H391 C404 0.961 . S
H392 C404 0.959 . S
H393 C407 0.929 . S
H394 C408 0.931 . S
H395 C410 0.930 . S
C396 H384 0.930 . S
C396 C397 1.399 . S
C396 C401 1.399 . S
C397 C396 1.399 . S
C397 C398 1.376 . S
C398 H385 0.930 . S
C398 C397 1.376 . S
C398 C399 1.388 . S
C399 H386 0.930 . S
C399 C398 1.388 . S
C399 C400 1.390 . S
C400 C399 1.390 . S
C400 C401 1.394 . S
C400 C406 1.465 . S
C401 C396 1.399 . S
C401 C400 1.394 . S
C401 C402 1.516 . S
C402 C401 1.516 . S
C402 C403 1.502 . S
C402 C404 1.561 . S
C402 C405 1.526 . S
C403 H387 0.959 . S
C403 H388 0.959 . S
C403 H389 0.961 . S
C403 C402 1.502 . S
C404 H390 0.960 . S
C404 H391 0.961 . S
C404 H392 0.959 . S
C404 C402 1.561 . S
C405 C402 1.526 . S
C405 C406 1.396 . S
C405 C410 1.390 . S
C406 C400 1.465 . S
C406 C405 1.396 . S
C406 C407 1.399 . S
C407 H393 0.929 . S
C407 C406 1.399 . S
C407 C408 1.385 . S
C408 H394 0.931 . S
C408 C407 1.385 . S
C408 C409 1.389 . S
C409 C408 1.389 . S
C409 C410 1.387 . S
C410 H395 0.930 . S
C410 C405 1.390 . S
C410 C409 1.387 . S
H411 C423 0.930 . S
H412 C425 0.930 . S
H413 C426 0.930 . S
H414 C430 0.959 . S
H415 C430 0.959 . S
H416 C430 0.961 . S
H417 C431 0.960 . S
H418 C431 0.961 . S
H419 C431 0.959 . S
H420 C434 0.929 . S
H421 C435 0.931 . S
H422 C437 0.930 . S
C423 H411 0.930 . S
C423 C424 1.399 . S
C423 C428 1.399 . S
C424 C423 1.399 . S
C424 C425 1.376 . S
C425 H412 0.930 . S
C425 C424 1.376 . S
C425 C426 1.388 . S
C426 H413 0.930 . S
C426 C425 1.388 . S
C426 C427 1.390 . S
C427 C426 1.390 . S
C427 C428 1.394 . S
C427 C433 1.465 . S
C428 C423 1.399 . S
C428 C427 1.394 . S
C428 C429 1.516 . S
C429 C428 1.516 . S
C429 C430 1.502 . S
C429 C431 1.561 . S
C429 C432 1.526 . S
C430 H414 0.959 . S
C430 H415 0.959 . S
C430 H416 0.961 . S
C430 C429 1.502 . S
C431 H417 0.960 . S
C431 H418 0.961 . S
C431 H419 0.959 . S
C431 C429 1.561 . S
C432 C429 1.526 . S
C432 C433 1.396 . S
C432 C437 1.390 . S
C433 C427 1.465 . S
C433 C432 1.396 . S
C433 C434 1.399 . S
C434 H420 0.929 . S
C434 C433 1.399 . S
C434 C435 1.385 . S
C435 H421 0.931 . S
C435 C434 1.385 . S
C435 C436 1.389 . S
C436 C435 1.389 . S
C436 C437 1.387 . S
C437 H422 0.930 . S
C437 C432 1.390 . S
C437 C436 1.387 . S
H438 C450 0.930 . S
H439 C452 0.930 . S
H440 C453 0.930 . S
H441 C457 0.959 . S
H442 C457 0.959 . S
H443 C457 0.961 . S
H444 C458 0.960 . S
H445 C458 0.961 . S
H446 C458 0.959 . S
H447 C461 0.929 . S
H448 C462 0.931 . S
H449 C464 0.930 . S
C450 H438 0.930 . S
C450 C451 1.399 . S
C450 C455 1.399 . S
C451 C450 1.399 . S
C451 C452 1.376 . S
C452 H439 0.930 . S
C452 C451 1.376 . S
C452 C453 1.388 . S
C453 H440 0.930 . S
C453 C452 1.388 . S
C453 C454 1.390 . S
C454 C453 1.390 . S
C454 C455 1.394 . S
C454 C460 1.465 . S
C455 C450 1.399 . S
C455 C454 1.394 . S
C455 C456 1.516 . S
C456 C455 1.516 . S
C456 C457 1.502 . S
C456 C458 1.561 . S
C456 C459 1.526 . S
C457 H441 0.959 . S
C457 H442 0.959 . S
C457 H443 0.961 . S
C457 C456 1.502 . S
C458 H444 0.960 . S
C458 H445 0.961 . S
C458 H446 0.959 . S
C458 C456 1.561 . S
C459 C456 1.526 . S
C459 C460 1.396 . S
C459 C464 1.390 . S
C460 C454 1.465 . S
C460 C459 1.396 . S
C460 C461 1.399 . S
C461 H447 0.929 . S
C461 C460 1.399 . S
C461 C462 1.385 . S
C462 H448 0.931 . S
C462 C461 1.385 . S
C462 C463 1.389 . S
C463 C462 1.389 . S
C463 C464 1.387 . S
C464 H449 0.930 . S
C464 C459 1.390 . S
C464 C463 1.387 . S
H465 C477 0.930 . S
H466 C479 0.930 . S
H467 C480 0.930 . S
H468 C484 0.959 . S
H469 C484 0.959 . S
H470 C484 0.961 . S
H471 C485 0.960 . S
H472 C485 0.961 . S
H473 C485 0.959 . S
H474 C488 0.929 . S
H475 C489 0.931 . S
H476 C491 0.930 . S
C477 H465 0.930 . S
C477 C478 1.399 . S
C477 C482 1.399 . S
C478 C477 1.399 . S
C478 C479 1.376 . S
C479 H466 0.930 . S
C479 C478 1.376 . S
C479 C480 1.388 . S
C480 H467 0.930 . S
C480 C479 1.388 . S
C480 C481 1.390 . S
C481 C480 1.390 . S
C481 C482 1.394 . S
C481 C487 1.465 . S
C482 C477 1.399 . S
C482 C481 1.394 . S
C482 C483 1.516 . S
C483 C482 1.516 . S
C483 C484 1.502 . S
C483 C485 1.561 . S
C483 C486 1.526 . S
C484 H468 0.959 . S
C484 H469 0.959 . S
C484 H470 0.961 . S
C484 C483 1.502 . S
C485 H471 0.960 . S
C485 H472 0.961 . S
C485 H473 0.959 . S
C485 C483 1.561 . S
C486 C483 1.526 . S
C486 C487 1.396 . S
C486 C491 1.390 . S
C487 C481 1.465 . S
C487 C486 1.396 . S
C487 C488 1.399 . S
C488 H474 0.929 . S
C488 C487 1.399 . S
C488 C489 1.385 . S
C489 H475 0.931 . S
C489 C488 1.385 . S
C489 C490 1.389 . S
C490 C489 1.389 . S
C490 C491 1.387 . S
C491 H476 0.930 . S
C491 C486 1.390 . S
C491 C490 1.387 . S
H492 C504 0.930 . S
H493 C506 0.930 . S
H494 C507 0.930 . S
H495 C511 0.959 . S
H496 C511 0.959 . S
H497 C511 0.961 . S
H498 C512 0.960 . S
H499 C512 0.961 . S
H500 C512 0.959 . S
H501 C515 0.929 . S
H502 C516 0.931 . S
H503 C518 0.930 . S
C504 H492 0.930 . S
C504 C505 1.398 1_554 S
C504 C509 1.399 . S
C505 C504 1.398 1_556 S
C505 C506 1.376 . S
C506 H493 0.930 . S
C506 C505 1.376 . S
C506 C507 1.388 . S
C507 H494 0.930 . S
C507 C506 1.388 . S
C507 C508 1.390 . S
C508 C507 1.390 . S
C508 C509 1.394 1_556 S
C508 C514 1.465 1_565 S
C509 C504 1.399 . S
C509 C508 1.394 1_554 S
C509 C510 1.516 . S
C510 C509 1.516 . S
C510 C511 1.502 . S
C510 C512 1.561 . S
C510 C513 1.526 1_565 S
C511 H495 0.959 . S
C511 H496 0.959 . S
C511 H497 0.961 . S
C511 C510 1.502 . S
C512 H498 0.960 . S
C512 H499 0.961 . S
C512 H500 0.959 . S
C512 C510 1.561 . S
C513 C510 1.526 1_545 S
C513 C514 1.396 1_554 S
C513 C518 1.390 . S
C514 C508 1.465 1_545 S
C514 C513 1.396 1_556 S
C514 C515 1.399 . S
C515 H501 0.929 . S
C515 C514 1.399 . S
C515 C516 1.385 . S
C516 H502 0.931 . S
C516 C515 1.385 . S
C516 C517 1.389 1_556 S
C517 C516 1.389 1_554 S
C517 C518 1.387 . S
C518 H503 0.930 . S
C518 C513 1.390 . S
C518 C517 1.387 . S
H519 C531 0.930 . S
H520 C533 0.930 . S
H521 C534 0.930 . S
H522 C538 0.959 . S
H523 C538 0.959 . S
H524 C538 0.961 . S
H525 C539 0.960 . S
H526 C539 0.961 . S
H527 C539 0.959 . S
H528 C542 0.929 . S
H529 C543 0.931 . S
H530 C545 0.930 . S
C531 H519 0.930 . S
C531 C532 1.399 . S
C531 C536 1.399 . S
C532 C531 1.399 . S
C532 C533 1.376 . S
C533 H520 0.930 . S
C533 C532 1.376 . S
C533 C534 1.388 . S
C534 H521 0.930 . S
C534 C533 1.388 . S
C534 C535 1.390 . S
C535 C534 1.390 . S
C535 C536 1.394 . S
C535 C541 1.465 . S
C536 C531 1.399 . S
C536 C535 1.394 . S
C536 C537 1.516 . S
C537 C536 1.516 . S
C537 C538 1.502 . S
C537 C539 1.561 . S
C537 C540 1.526 . S
C538 H522 0.959 . S
C538 H523 0.959 . S
C538 H524 0.961 . S
C538 C537 1.502 . S
C539 H525 0.960 . S
C539 H526 0.961 . S
C539 H527 0.959 . S
C539 C537 1.561 . S
C540 C537 1.526 . S
C540 C541 1.396 . S
C540 C545 1.390 . S
C541 C535 1.465 . S
C541 C540 1.396 . S
C541 C542 1.399 . S
C542 H528 0.929 . S
C542 C541 1.399 . S
C542 C543 1.385 . S
C543 H529 0.931 . S
C543 C542 1.385 . S
C543 C544 1.389 . S
C544 C543 1.389 . S
C544 C545 1.387 . S
C545 H530 0.930 . S
C545 C540 1.390 . S
C545 C544 1.387 . S
H546 C558 0.930 . S
H547 C560 0.930 . S
H548 C561 0.930 . S
H549 C565 0.959 . S
H550 C565 0.959 . S
H551 C565 0.979 . S
H552 C566 0.960 . S
H553 C566 0.961 . S
H554 C566 0.959 . S
H555 C569 0.929 . S
H556 C570 0.931 . S
H557 C572 0.930 . S
C558 H546 0.930 . S
C558 C559 1.399 . S
C558 C563 1.399 . S
C559 C558 1.399 . S
C559 C560 1.376 . S
C560 H547 0.930 . S
C560 C559 1.376 . S
C560 C561 1.388 . S
C561 H548 0.930 . S
C561 C560 1.388 . S
C561 C562 1.390 . S
C562 C561 1.390 . S
C562 C563 1.394 . S
C562 C568 1.465 1_655 S
C563 C558 1.399 . S
C563 C562 1.394 . S
C563 C564 1.516 1_655 S
C564 C563 1.516 1_455 S
C564 C565 1.502 . S
C564 C566 1.561 . S
C564 C567 1.526 . S
C565 H549 0.959 . S
C565 H550 0.959 . S
C565 H551 0.979 . S
C565 C564 1.502 . S
C566 H552 0.960 . S
C566 H553 0.961 . S
C566 H554 0.959 . S
C566 C564 1.561 . S
C567 C564 1.526 . S
C567 C568 1.396 . S
C567 C572 1.390 . S
C568 C562 1.465 1_455 S
C568 C567 1.396 . S
C568 C569 1.399 . S
C569 H555 0.929 . S
C569 C568 1.399 . S
C569 C570 1.385 . S
C570 H556 0.931 . S
C570 C569 1.385 . S
C570 C571 1.389 . S
C571 C570 1.389 . S
C571 C572 1.387 . S
C572 H557 0.930 . S
C572 C567 1.390 . S
C572 C571 1.387 . S
H573 C585 0.921 1_556 S
H574 C587 0.930 . S
H575 C588 0.930 . S
H576 C592 0.959 . S
H577 C592 0.959 . S
H578 C592 0.961 . S
H579 C593 0.960 . S
H580 C593 0.961 . S
H581 C593 0.959 . S
H582 C596 0.929 . S
H583 C597 0.931 . S
H584 C599 0.930 . S
C585 H573 0.921 1_554 S
C585 C586 1.410 . S
C585 C590 1.397 1_554 S
C586 C585 1.410 . S
C586 C587 1.376 . S
C587 H574 0.930 . S
C587 C586 1.376 . S
C587 C588 1.388 . S
C588 H575 0.930 . S
C588 C587 1.388 . S
C588 C589 1.390 . S
C589 C588 1.390 . S
C589 C590 1.394 1_554 S
C589 C595 1.465 1_565 S
C590 C585 1.397 1_556 S
C590 C589 1.394 1_556 S
C590 C591 1.516 . S
C591 C590 1.516 . S
C591 C592 1.502 . S
C591 C593 1.561 . S
C591 C594 1.526 1_565 S
C592 H576 0.959 . S
C592 H577 0.959 . S
C592 H578 0.961 . S
C592 C591 1.502 . S
C593 H579 0.960 . S
C593 H580 0.961 . S
C593 H581 0.959 . S
C593 C591 1.561 . S
C594 C591 1.526 1_545 S
C594 C595 1.396 1_556 S
C594 C599 1.390 . S
C595 C589 1.465 1_545 S
C595 C594 1.396 1_554 S
C595 C596 1.399 . S
C596 H582 0.929 . S
C596 C595 1.399 . S
C596 C597 1.385 . S
C597 H583 0.931 . S
C597 C596 1.385 . S
C597 C598 1.389 1_554 S
C598 C597 1.389 1_556 S
C598 C599 1.387 . S
C599 H584 0.930 . S
C599 C594 1.390 . S
C599 C598 1.387 . S
H600 C612 0.930 . S
H601 C614 0.930 . S
H602 C615 0.930 . S
H603 C619 0.959 . S
H604 C619 0.959 . S
H605 C619 0.961 . S
H606 C620 0.960 . S
H607 C620 0.961 . S
H608 C620 0.959 . S
H609 C623 0.929 . S
H610 C624 0.931 . S
H611 C626 0.930 . S
C612 H600 0.930 . S
C612 C613 1.399 . S
C612 C617 1.399 . S
C613 C612 1.399 . S
C613 C614 1.376 . S
C614 H601 0.930 . S
C614 C613 1.376 . S
C614 C615 1.388 . S
C615 H602 0.930 . S
C615 C614 1.388 . S
C615 C616 1.390 . S
C616 C615 1.390 . S
C616 C617 1.394 . S
C616 C622 1.465 . S
C617 C612 1.399 . S
C617 C616 1.394 . S
C617 C618 1.516 . S
C618 C617 1.516 . S
C618 C619 1.502 . S
C618 C620 1.561 . S
C618 C621 1.526 . S
C619 H603 0.959 . S
C619 H604 0.959 . S
C619 H605 0.961 . S
C619 C618 1.502 . S
C620 H606 0.960 . S
C620 H607 0.961 . S
C620 H608 0.959 . S
C620 C618 1.561 . S
C621 C618 1.526 . S
C621 C622 1.396 . S
C621 C626 1.390 . S
C622 C616 1.465 . S
C622 C621 1.396 . S
C622 C623 1.399 . S
C623 H609 0.929 . S
C623 C622 1.399 . S
C623 C624 1.385 . S
C624 H610 0.931 . S
C624 C623 1.385 . S
C624 C625 1.389 . S
C625 C624 1.389 . S
C625 C626 1.387 . S
C626 H611 0.930 . S
C626 C621 1.390 . S
C626 C625 1.387 . S
H627 C639 0.930 . S
H628 C641 0.930 . S
H629 C642 0.930 . S
H630 C646 0.959 . S
H631 C646 0.959 . S
H632 C646 0.961 . S
H633 C647 0.960 . S
H634 C647 0.961 . S
H635 C647 0.959 . S
H636 C650 0.929 . S
H637 C651 0.931 . S
H638 C653 0.930 . S
C639 H627 0.930 . S
C639 C640 1.399 . S
C639 C644 1.399 . S
C640 C639 1.399 . S
C640 C641 1.376 . S
C641 H628 0.930 . S
C641 C640 1.376 . S
C641 C642 1.388 . S
C642 H629 0.930 . S
C642 C641 1.388 . S
C642 C643 1.390 . S
C643 C642 1.390 . S
C643 C644 1.394 . S
C643 C649 1.465 1_455 S
C644 C639 1.399 . S
C644 C643 1.394 . S
C644 C645 1.516 1_455 S
C645 C644 1.516 1_655 S
C645 C646 1.502 . S
C645 C647 1.561 . S
C645 C648 1.526 . S
C646 H630 0.959 . S
C646 H631 0.959 . S
C646 H632 0.961 . S
C646 C645 1.502 . S
C647 H633 0.960 . S
C647 H634 0.961 . S
C647 H635 0.959 . S
C647 C645 1.561 . S
C648 C645 1.526 . S
C648 C649 1.396 . S
C648 C653 1.390 . S
C649 C643 1.465 1_655 S
C649 C648 1.396 . S
C649 C650 1.399 . S
C650 H636 0.929 . S
C650 C649 1.399 . S
C650 C651 1.385 . S
C651 H637 0.931 . S
C651 C650 1.385 . S
C651 C652 1.389 . S
C652 C651 1.389 . S
C652 C653 1.387 . S
C653 H638 0.930 . S
C653 C648 1.390 . S
C653 C652 1.387 . S
H654 C666 0.930 . S
H655 C668 0.930 . S
H656 C669 0.912 1_554 S
H657 C673 0.959 . S
H658 C673 0.959 . S
H659 C673 0.961 . S
H660 C674 0.960 . S
H661 C674 0.961 . S
H662 C674 0.959 . S
H663 C677 0.929 . S
H664 C678 0.931 . S
H665 C680 0.930 . S
C666 H654 0.930 . S
C666 C667 1.399 . S
C666 C671 1.399 . S
C667 C666 1.399 . S
C667 C668 1.376 1_455 S
C668 H655 0.930 . S
C668 C667 1.376 1_655 S
C668 C669 1.388 1_655 S
C669 H656 0.912 1_556 S
C669 C668 1.388 1_455 S
C669 C670 1.390 . S
C670 C669 1.390 . S
C670 C671 1.394 . S
C670 C676 1.465 1_556 S
C671 C666 1.399 . S
C671 C670 1.394 . S
C671 C672 1.516 . S
C672 C671 1.516 . S
C672 C673 1.502 . S
C672 C674 1.561 1_556 S
C672 C675 1.526 1_556 S
C673 H657 0.959 . S
C673 H658 0.959 . S
C673 H659 0.961 . S
C673 C672 1.502 . S
C674 H660 0.960 . S
C674 H661 0.961 . S
C674 H662 0.959 . S
C674 C672 1.561 1_554 S
C675 C672 1.526 1_554 S
C675 C676 1.396 . S
C675 C680 1.390 . S
C676 C670 1.465 1_554 S
C676 C675 1.396 . S
C676 C677 1.399 . S
C677 H663 0.929 . S
C677 C676 1.399 . S
C677 C678 1.385 . S
C678 H664 0.931 . S
C678 C677 1.385 . S
C678 C679 1.389 . S
C679 C678 1.389 . S
C679 C680 1.387 . S
C680 H665 0.930 . S
C680 C675 1.390 . S
C680 C679 1.387 . S
H681 C693 0.930 . S
H682 C695 0.930 . S
H683 C696 0.930 . S
H684 C700 0.959 . S
H685 C700 0.959 . S
H686 C700 0.961 . S
H687 C701 0.960 . S
H688 C701 0.961 . S
H689 C701 0.959 . S
H690 C704 0.929 . S
H691 C705 0.931 . S
H692 C707 0.930 . S
C693 H681 0.930 . S
C693 C694 1.399 . S
C693 C698 1.399 . S
C694 C693 1.399 . S
C694 C695 1.376 . S
C695 H682 0.930 . S
C695 C694 1.376 . S
C695 C696 1.388 . S
C696 H683 0.930 . S
C696 C695 1.388 . S
C696 C697 1.390 . S
C697 C696 1.390 . S
C697 C698 1.394 . S
C697 C703 1.465 . S
C698 C693 1.399 . S
C698 C697 1.394 . S
C698 C699 1.516 . S
C699 C698 1.516 . S
C699 C700 1.502 . S
C699 C701 1.561 . S
C699 C702 1.526 . S
C700 H684 0.959 . S
C700 H685 0.959 . S
C700 H686 0.961 . S
C700 C699 1.502 . S
C701 H687 0.960 . S
C701 H688 0.961 . S
C701 H689 0.959 . S
C701 C699 1.561 . S
C702 C699 1.526 . S
C702 C703 1.396 . S
C702 C707 1.390 . S
C703 C697 1.465 . S
C703 C702 1.396 . S
C703 C704 1.399 . S
C704 H690 0.929 . S
C704 C703 1.399 . S
C704 C705 1.385 1_655 S
C705 H691 0.931 . S
C705 C704 1.385 1_455 S
C705 C706 1.389 1_455 S
C706 C705 1.389 1_655 S
C706 C707 1.387 . S
C707 H692 0.930 . S
C707 C702 1.390 . S
C707 C706 1.387 . S
H708 C720 0.930 . S
H709 C722 0.930 . S
H710 C723 0.930 . S
H711 C727 0.959 . S
H712 C727 0.959 . S
H713 C727 0.961 . S
H714 C728 0.960 . S
H715 C728 0.961 . S
H716 C728 0.959 . S
H717 C731 0.929 . S
H718 C732 0.931 . S
H719 C734 0.930 . S
C720 H708 0.930 . S
C720 C721 1.399 . S
C720 C725 1.399 . S
C721 C720 1.399 . S
C721 C722 1.376 . S
C722 H709 0.930 . S
C722 C721 1.376 . S
C722 C723 1.388 . S
C723 H710 0.930 . S
C723 C722 1.388 . S
C723 C724 1.390 . S
C724 C723 1.390 . S
C724 C725 1.394 . S
C724 C730 1.465 . S
C725 C720 1.399 . S
C725 C724 1.394 . S
C725 C726 1.516 . S
C726 C725 1.516 . S
C726 C727 1.502 . S
C726 C728 1.561 . S
C726 C729 1.526 . S
C727 H711 0.959 . S
C727 H712 0.959 . S
C727 H713 0.961 . S
C727 C726 1.502 . S
C728 H714 0.960 . S
C728 H715 0.961 . S
C728 H716 0.959 . S
C728 C726 1.561 . S
C729 C726 1.526 . S
C729 C730 1.396 . S
C729 C734 1.390 . S
C730 C724 1.465 . S
C730 C729 1.396 . S
C730 C731 1.399 . S
C731 H717 0.929 . S
C731 C730 1.399 . S
C731 C732 1.385 . S
C732 H718 0.931 . S
C732 C731 1.385 . S
C732 C733 1.389 . S
C733 C732 1.389 . S
C733 C734 1.387 . S
C734 H719 0.930 . S
C734 C729 1.390 . S
C734 C733 1.387 . S
H735 C747 0.930 . S
H736 C749 0.930 . S
H737 C750 0.930 . S
H738 C754 0.959 . S
H739 C754 0.959 . S
H740 C754 0.961 . S
H741 C755 0.960 . S
H742 C755 0.961 . S
H743 C755 0.959 . S
H744 C758 0.929 . S
H745 C759 0.931 . S
H746 C761 0.930 . S
C747 H735 0.930 . S
C747 C748 1.399 . S
C747 C752 1.399 . S
C748 C747 1.399 . S
C748 C749 1.376 . S
C749 H736 0.930 . S
C749 C748 1.376 . S
C749 C750 1.388 . S
C750 H737 0.930 . S
C750 C749 1.388 . S
C750 C751 1.390 . S
C751 C750 1.390 . S
C751 C752 1.394 . S
C751 C757 1.465 . S
C752 C747 1.399 . S
C752 C751 1.394 . S
C752 C753 1.516 1_554 S
C753 C752 1.516 1_556 S
C753 C754 1.502 . S
C753 C755 1.561 . S
C753 C756 1.526 . S
C754 H738 0.959 . S
C754 H739 0.959 . S
C754 H740 0.961 . S
C754 C753 1.502 . S
C755 H741 0.960 . S
C755 H742 0.961 . S
C755 H743 0.959 . S
C755 C753 1.561 . S
C756 C753 1.526 . S
C756 C757 1.396 1_556 S
C756 C761 1.390 . S
C757 C751 1.465 . S
C757 C756 1.396 1_554 S
C757 C758 1.399 . S
C758 H744 0.929 . S
C758 C757 1.399 . S
C758 C759 1.385 1_554 S
C759 H745 0.931 . S
C759 C758 1.385 1_556 S
C759 C760 1.389 . S
C760 C759 1.389 . S
C760 C761 1.387 . S
C761 H746 0.930 . S
C761 C756 1.390 . S
C761 C760 1.387 . S
H762 C774 0.930 . S
H763 C776 0.930 1_655 S
H764 C777 0.930 . S
H765 C781 0.959 . S
H766 C781 0.959 . S
H767 C781 0.961 . S
H768 C782 0.960 . S
H769 C782 0.961 . S
H770 C782 0.959 . S
H771 C785 0.929 . S
H772 C786 0.931 . S
H773 C788 0.932 . S
C774 H762 0.930 . S
C774 C775 1.399 . S
C774 C779 1.399 . S
C775 C774 1.399 . S
C775 C776 1.376 . S
C776 H763 0.930 1_455 S
C776 C775 1.376 . S
C776 C777 1.388 . S
C777 H764 0.930 . S
C777 C776 1.388 . S
C777 C778 1.390 . S
C778 C777 1.390 . S
C778 C779 1.394 . S
C778 C784 1.465 . S
C779 C774 1.399 . S
C779 C778 1.394 . S
C779 C780 1.516 . S
C780 C779 1.516 . S
C780 C781 1.502 . S
C780 C782 1.561 . S
C780 C783 1.526 . S
C781 H765 0.959 . S
C781 H766 0.959 . S
C781 H767 0.961 . S
C781 C780 1.502 . S
C782 H768 0.960 . S
C782 H769 0.961 . S
C782 H770 0.959 . S
C782 C780 1.561 . S
C783 C780 1.526 . S
C783 C784 1.396 . S
C783 C788 1.390 . S
C784 C778 1.465 . S
C784 C783 1.396 . S
C784 C785 1.399 . S
C785 H771 0.929 . S
C785 C784 1.399 . S
C785 C786 1.385 . S
C786 H772 0.931 . S
C786 C785 1.385 . S
C786 C787 1.389 . S
C787 C786 1.389 . S
C787 C788 1.387 . S
C788 H773 0.932 . S
C788 C783 1.390 . S
C788 C787 1.387 . S
H789 C801 0.930 . S
H790 C803 0.930 . S
H791 C804 0.930 . S
H792 C808 0.959 . S
H793 C808 0.959 . S
H794 C808 0.961 . S
H795 C809 0.960 . S
H796 C809 0.961 . S
H797 C809 0.959 . S
H798 C812 0.929 . S
H799 C813 0.931 . S
H800 C815 0.930 . S
C801 H789 0.930 . S
C801 C802 1.399 . S
C801 C806 1.399 . S
C802 C801 1.399 . S
C802 C803 1.376 . S
C803 H790 0.930 . S
C803 C802 1.376 . S
C803 C804 1.388 . S
C804 H791 0.930 . S
C804 C803 1.388 . S
C804 C805 1.390 . S
C805 C804 1.390 . S
C805 C806 1.394 . S
C805 C811 1.465 . S
C806 C801 1.399 . S
C806 C805 1.394 . S
C806 C807 1.516 . S
C807 C806 1.516 . S
C807 C808 1.502 . S
C807 C809 1.561 . S
C807 C810 1.526 . S
C808 H792 0.959 . S
C808 H793 0.959 . S
C808 H794 0.961 . S
C808 C807 1.502 . S
C809 H795 0.960 . S
C809 H796 0.961 . S
C809 H797 0.959 . S
C809 C807 1.561 . S
C810 C807 1.526 . S
C810 C811 1.396 . S
C810 C815 1.390 . S
C811 C805 1.465 . S
C811 C810 1.396 . S
C811 C812 1.399 . S
C812 H798 0.929 . S
C812 C811 1.399 . S
C812 C813 1.385 . S
C813 H799 0.931 . S
C813 C812 1.385 . S
C813 C814 1.389 . S
C814 C813 1.389 . S
C814 C815 1.387 . S
C815 H800 0.930 . S
C815 C810 1.390 . S
C815 C814 1.387 . S
C181 C55 1.358 . S
C193 C13 1.299 . S
C208 C27 1.325 . S
C220 C69 1.390 . S
C235 C83 1.343 . S
C247 C41 1.296 . S
C262 C97 1.359 . S
C274 C139 1.397 . S
C289 C153 1.354 . S
C301 C111 1.397 . S
C316 C125 1.343 . S
C328 C167 1.296 . S
C343 C123 1.542 . S
C355 C11 1.511 . S
C370 C25 1.520 . S
C382 C137 1.530 . S
C397 C39 1.510 . S
C409 C151 1.543 . S
C424 C53 1.527 . S
C436 C165 1.523 . S
C451 C95 1.523 . S
C463 C67 1.535 . S
C478 C109 1.534 . S
C490 C81 1.517 . S
C505 C105 0.975 . S
C517 C7 0.982 . S
C532 C21 0.926 . S
C544 C119 0.930 . S
C559 C35 0.939 . S
C571 C133 0.933 . S
C586 C49 0.979 . S
C598 C147 0.985 . S
C613 C161 0.936 . S
C625 C63 0.931 . S
C640 C77 0.961 . S
C652 C91 0.952 . S
C667 C148 1.290 1_455 S
C679 C8 1.331 . S
C694 C162 1.337 1_545 S
C706 C22 1.278 1_655 S
C721 C92 1.325 . S
C733 C36 1.252 1_565 S
C748 C50 1.327 . S
C760 C106 1.252 1_655 S
C775 C64 1.251 1_455 S
C787 C120 1.322 1_565 S
C802 C78 1.336 1_545 S
C814 C134 1.280 . S
