# Generated by pormake.
# Topology una, (4)-cn, num edge types: 1
# Building blocks:
#     Node 0, Type 0, BuildingBlock: NAHDIM_clean_sbu_0, # of connection points: 4
#     Node 1, Type 0, BuildingBlock: NAHDIM_clean_sbu_0, # of connection points: 4
#     Node 2, Type 0, BuildingBlock: NAHDIM_clean_sbu_0, # of connection points: 4
#     Node 3, Type 0, BuildingBlock: NAHDIM_clean_sbu_0, # of connection points: 4
#     Node 4, Type 0, BuildingBlock: NAHDIM_clean_sbu_0, # of connection points: 4
#     Node 5, Type 0, BuildingBlock: NAHDIM_clean_sbu_0, # of connection points: 4
#     Node 6, Type 0, BuildingBlock: NAHDIM_clean_sbu_0, # of connection points: 4
#     Node 7, Type 0, BuildingBlock: NAHDIM_clean_sbu_0, # of connection points: 4
#     Node 8, Type 0, BuildingBlock: NAHDIM_clean_sbu_0, # of connection points: 4
#     Node 9, Type 0, BuildingBlock: NAHDIM_clean_sbu_0, # of connection points: 4
#     Node 10, Type 0, BuildingBlock: NAHDIM_clean_sbu_0, # of connection points: 4
#     Node 11, Type 0, BuildingBlock: NAHDIM_clean_sbu_0, # of connection points: 4
#     Edge 12, Type (0, 0), BuildingBlock: UVAHIK_clean_linker_0, # of connection points: 2
#     Edge 13, Type (0, 0), BuildingBlock: UVAHIK_clean_linker_0, # of connection points: 2
#     Edge 14, Type (0, 0), BuildingBlock: UVAHIK_clean_linker_0, # of connection points: 2
#     Edge 15, Type (0, 0), BuildingBlock: UVAHIK_clean_linker_0, # of connection points: 2
#     Edge 16, Type (0, 0), BuildingBlock: UVAHIK_clean_linker_0, # of connection points: 2
#     Edge 17, Type (0, 0), BuildingBlock: UVAHIK_clean_linker_0, # of connection points: 2
#     Edge 18, Type (0, 0), BuildingBlock: UVAHIK_clean_linker_0, # of connection points: 2
#     Edge 19, Type (0, 0), BuildingBlock: UVAHIK_clean_linker_0, # of connection points: 2
#     Edge 20, Type (0, 0), BuildingBlock: UVAHIK_clean_linker_0, # of connection points: 2
#     Edge 21, Type (0, 0), BuildingBlock: UVAHIK_clean_linker_0, # of connection points: 2
#     Edge 22, Type (0, 0), BuildingBlock: UVAHIK_clean_linker_0, # of connection points: 2
#     Edge 23, Type (0, 0), BuildingBlock: UVAHIK_clean_linker_0, # of connection points: 2
#     Edge 24, Type (0, 0), BuildingBlock: UVAHIK_clean_linker_0, # of connection points: 2
#     Edge 25, Type (0, 0), BuildingBlock: UVAHIK_clean_linker_0, # of connection points: 2
#     Edge 26, Type (0, 0), BuildingBlock: UVAHIK_clean_linker_0, # of connection points: 2
#     Edge 27, Type (0, 0), BuildingBlock: UVAHIK_clean_linker_0, # of connection points: 2
#     Edge 28, Type (0, 0), BuildingBlock: UVAHIK_clean_linker_0, # of connection points: 2
#     Edge 29, Type (0, 0), BuildingBlock: UVAHIK_clean_linker_0, # of connection points: 2
#     Edge 30, Type (0, 0), BuildingBlock: UVAHIK_clean_linker_0, # of connection points: 2
#     Edge 31, Type (0, 0), BuildingBlock: UVAHIK_clean_linker_0, # of connection points: 2
#     Edge 32, Type (0, 0), BuildingBlock: UVAHIK_clean_linker_0, # of connection points: 2
#     Edge 33, Type (0, 0), BuildingBlock: UVAHIK_clean_linker_0, # of connection points: 2
#     Edge 34, Type (0, 0), BuildingBlock: UVAHIK_clean_linker_0, # of connection points: 2
#     Edge 35, Type (0, 0), BuildingBlock: UVAHIK_clean_linker_0, # of connection points: 2
# Relax obj value: 0.123
# Max RMSD: 0.175
# Mean RMSD: 0.173
data_MOF--net-una--node1-NAHDIM_clean_sbu_0--edge1-UVAHIK_clean_linker_0
_symmetry_space_group_name_H-M    P1
_symmetry_Int_Tables_number       1
_symmetry_cell_setting            triclinic
loop_
_symmetry_equiv_pos_as_xyz
'x, y, z'
_cell_length_a     75.170458
_cell_length_b     74.141189
_cell_length_c     27.698464
_cell_angle_alpha  89.97086
_cell_angle_beta   89.994507
_cell_angle_gamma 120.4832
loop_
_atom_site_label
_atom_site_type_symbol
_atom_site_fract_x
_atom_site_fract_y
_atom_site_fract_z
_atom_type_partial_charge
C0 C 0.09523 0.43081 0.98498 0.0
O1 O 0.10832 0.45055 0.97491 0.0
O2 O 0.14942 0.44664 0.00625 0.0
Zn3 Zn 0.12638 0.4398 0.05295 0.0
O4 O 0.12785 0.4664 0.07396 0.0
C5 C 0.13432 0.41079 0.10111 0.0
O6 O 0.13612 0.40623 0.0562 0.0
O7 O 0.09951 0.42206 0.01881 0.0
C8 C 0.13631 0.47631 0.11253 0.0
O9 O 0.14445 0.4688 0.14265 0.0
C10 C 0.15926 0.46397 0.98392 0.0
O11 O 0.15451 0.47852 0.99142 0.0
O12 O 0.12939 0.42456 0.10927 0.0
C13 C 0.73159 0.13711 0.28568 0.0
O14 O 0.73718 0.14334 0.24098 0.0
O15 O 0.66928 0.12763 0.27622 0.0
Zn16 Zn 0.69114 0.12285 0.24681 0.0
O17 O 0.70486 0.14248 0.19085 0.0
C18 C 0.65899 0.08383 0.20928 0.0
O19 O 0.648 0.09279 0.21697 0.0
O20 O 0.71254 0.1276 0.29672 0.0
C21 C 0.69596 0.13986 0.15031 0.0
O22 O 0.67696 0.12425 0.14484 0.0
C23 C 0.66664 0.14257 0.26332 0.0
O24 O 0.67924 0.15626 0.23159 0.0
O25 O 0.67796 0.0935 0.22095 0.0
C26 C 0.59016 0.69642 0.30202 0.0
O27 O 0.58857 0.71155 0.28171 0.0
O28 O 0.54688 0.70381 0.31011 0.0
Zn29 Zn 0.55539 0.69045 0.36078 0.0
O30 O 0.53085 0.66272 0.37841 0.0
C31 C 0.5805 0.72806 0.41316 0.0
O32 O 0.59127 0.73296 0.37302 0.0
O33 O 0.57803 0.68596 0.3363 0.0
C34 C 0.51387 0.66151 0.38943 0.0
O35 O 0.51284 0.67868 0.39027 0.0
C36 C 0.54187 0.69717 0.26718 0.0
O37 O 0.54215 0.68034 0.25357 0.0
O38 O 0.56473 0.70988 0.41752 0.0
C39 C 0.89079 0.56193 0.4726 0.0
O40 O 0.87604 0.54534 0.45071 0.0
O41 O 0.83827 0.54388 0.4951 0.0
Zn42 Zn 0.85966 0.54743 0.54352 0.0
O43 O 0.85681 0.51966 0.55938 0.0
C44 C 0.85209 0.57532 0.59836 0.0
O45 O 0.85273 0.58292 0.55511 0.0
O46 O 0.88754 0.56632 0.51481 0.0
C47 C 0.84361 0.50744 0.59003 0.0
O48 O 0.83176 0.51319 0.61185 0.0
C49 C 0.82533 0.52677 0.47501 0.0
O50 O 0.82539 0.50954 0.48566 0.0
O51 O 0.85544 0.56024 0.60285 0.0
C52 C 0.27474 0.84732 0.78599 0.0
O53 O 0.27453 0.83605 0.7492 0.0
O54 O 0.33449 0.86972 0.76156 0.0
Zn55 Zn 0.31238 0.87563 0.74038 0.0
O56 O 0.29965 0.86029 0.67877 0.0
C57 C 0.34316 0.91491 0.70569 0.0
O58 O 0.35301 0.9045 0.70468 0.0
O59 O 0.29 0.86581 0.79101 0.0
C60 C 0.30912 0.85789 0.64366 0.0
O61 O 0.32917 0.86573 0.64621 0.0
C62 C 0.33286 0.85184 0.7587 0.0
O63 O 0.31542 0.83576 0.74383 0.0
O64 O 0.32508 0.90613 0.72354 0.0
C65 C 0.39889 0.30585 0.81097 0.0
O66 O 0.39589 0.28794 0.79424 0.0
O67 O 0.43311 0.28642 0.81871 0.0
Zn68 Zn 0.43114 0.30535 0.86699 0.0
O69 O 0.45945 0.3299 0.87856 0.0
C70 C 0.40467 0.27033 0.92562 0.0
O71 O 0.39564 0.26303 0.88375 0.0
O72 O 0.41278 0.31564 0.84256 0.0
C73 C 0.46233 0.34322 0.91098 0.0
O74 O 0.44656 0.34053 0.93707 0.0
C75 C 0.44122 0.29244 0.77729 0.0
O76 O 0.44874 0.31207 0.76457 0.0
O77 O 0.42001 0.28887 0.92792 0.0
C78 C 0.57685 0.87115 0.74428 0.0
O79 O 0.56492 0.879 0.73596 0.0
O80 O 0.53781 0.86768 0.82249 0.0
Zn81 Zn 0.5647 0.87061 0.84353 0.0
O82 O 0.55824 0.84743 0.88993 0.0
C83 C 0.57648 0.9117 0.87793 0.0
O84 O 0.56039 0.90839 0.85234 0.0
O85 O 0.57957 0.86731 0.78745 0.0
C86 C 0.54942 0.84636 0.9298 0.0
O87 O 0.54486 0.86082 0.94044 0.0
C88 C 0.52188 0.8501 0.81344 0.0
O89 O 0.52302 0.83301 0.81605 0.0
O90 O 0.58188 0.89801 0.878 0.0
C91 C 0.67685 0.58417 0.09424 0.0
O92 O 0.67121 0.56663 0.11754 0.0
O93 O 0.70323 0.5578 0.09212 0.0
Zn94 Zn 0.69153 0.56452 0.03408 0.0
O95 O 0.66448 0.53927 0.01539 0.0
C96 C 0.72442 0.5667 0.9788 0.0
O97 O 0.7221 0.5527 0.01109 0.0
O98 O 0.68622 0.58736 0.05418 0.0
C99 C 0.66232 0.52651 0.98215 0.0
O100 O 0.67849 0.52977 0.95695 0.0
C101 C 0.69773 0.53944 0.10666 0.0
O102 O 0.68331 0.5232 0.08313 0.0
O103 O 0.71249 0.57418 0.98013 0.0
C104 C 0.08787 0.67684 0.23935 0.0
O105 O 0.09036 0.67052 0.19691 0.0
O106 O 0.15312 0.71822 0.28525 0.0
Zn107 Zn 0.13196 0.69956 0.23713 0.0
O108 O 0.13531 0.67466 0.22606 0.0
C109 C 0.14348 0.73534 0.17741 0.0
O110 O 0.14552 0.74434 0.21953 0.0
O111 O 0.10367 0.68983 0.26311 0.0
C112 C 0.13323 0.66653 0.18458 0.0
O113 O 0.12873 0.67456 0.14753 0.0
C114 C 0.17207 0.72512 0.27626 0.0
O115 O 0.17719 0.71936 0.23623 0.0
O116 O 0.13703 0.71585 0.17579 0.0
C117 C 0.43264 0.15327 0.28229 0.0
O118 O 0.44898 0.16557 0.30839 0.0
O119 O 0.46222 0.12928 0.33199 0.0
Zn120 Zn 0.4344 0.12567 0.3468 0.0
O121 O 0.43829 0.14562 0.40018 0.0
C122 C 0.4172 0.08114 0.36152 0.0
O123 O 0.43186 0.0836 0.33169 0.0
O124 O 0.4232 0.13369 0.29027 0.0
C125 C 0.43373 0.14035 0.44408 0.0
O126 O 0.42614 0.1207 0.45669 0.0
C127 C 0.47123 0.1251 0.36524 0.0
O128 O 0.46189 0.11824 0.407 0.0
O129 O 0.41476 0.09656 0.37031 0.0
C130 C 0.3146 0.42207 0.59588 0.0
O131 O 0.32033 0.44053 0.61454 0.0
O132 O 0.28187 0.44276 0.59301 0.0
Zn133 Zn 0.29337 0.43538 0.53599 0.0
O134 O 0.31765 0.46179 0.51043 0.0
C135 C 0.25268 0.41454 0.49411 0.0
O136 O 0.24724 0.41612 0.53825 0.0
O137 O 0.30265 0.41594 0.55955 0.0
C138 C 0.3332 0.46213 0.49144 0.0
O139 O 0.33332 0.44455 0.48689 0.0
C140 C 0.28139 0.45961 0.59568 0.0
O141 O 0.28861 0.47299 0.55966 0.0
O142 O 0.27162 0.42149 0.48464 0.0
C143 C 0.90383 0.3232 0.72409 0.0
O144 O 0.8997 0.3331 0.69059 0.0
O145 O 0.8411 0.27545 0.76397 0.0
Zn146 Zn 0.86104 0.29195 0.71113 0.0
O147 O 0.85536 0.31431 0.68784 0.0
C148 C 0.85421 0.25422 0.66709 0.0
O149 O 0.85445 0.24914 0.71243 0.0
O150 O 0.88971 0.30521 0.73781 0.0
C151 C 0.84677 0.3213 0.7156 0.0
O152 O 0.84142 0.31361 0.7594 0.0
C153 C 0.82203 0.26348 0.7551 0.0
O154 O 0.81537 0.26188 0.71056 0.0
O155 O 0.85735 0.27235 0.65713 0.0
C156 C 0.15182 0.39203 0.13197 0.0
C157 C 0.14079 0.40231 0.14132 0.0
C158 C 0.16071 0.38687 0.1698 0.0
C159 C 0.16173 0.38106 0.30182 0.0
H160 H 0.22082 0.40655 0.28387 0.0
C161 C 0.21825 0.40556 0.46108 0.0
C162 C 0.2372 0.40639 0.45504 0.0
C163 C 0.20442 0.39989 0.42264 0.0
C164 C 0.20429 0.39882 0.28938 0.0
H165 H 0.12912 0.41382 0.1978 0.0
H166 H 0.14451 0.40462 0.26387 0.0
H167 H 0.19937 0.40485 0.21658 0.0
H168 H 0.25597 0.40062 0.40515 0.0
H169 H 0.2315 0.38993 0.33853 0.0
H170 H 0.16664 0.37519 0.37481 0.0
C171 C 0.14633 0.40064 0.22729 0.0
C172 C 0.192 0.39792 0.25069 0.0
C173 C 0.13764 0.40603 0.18943 0.0
C174 C 0.24159 0.40039 0.41061 0.0
C175 C 0.22759 0.39437 0.37238 0.0
C176 C 0.17399 0.38168 0.34046 0.0
C177 C 0.15849 0.39163 0.21768 0.0
C178 C 0.1707 0.38953 0.25685 0.0
C179 C 0.20907 0.39459 0.37749 0.0
C180 C 0.19553 0.39112 0.33508 0.0
H181 H 0.15445 0.38886 0.0953 0.0
H182 H 0.16989 0.37977 0.16153 0.0
H183 H 0.14529 0.37435 0.30732 0.0
H184 H 0.21446 0.41015 0.4949 0.0
H185 H 0.1905 0.40058 0.4279 0.0
C186 C 0.83636 0.21683 0.64085 0.0
C187 C 0.84739 0.2382 0.62887 0.0
C188 C 0.82702 0.20171 0.60476 0.0
C189 C 0.82456 0.19165 0.47414 0.0
H190 H 0.76533 0.15993 0.49374 0.0
C191 C 0.76733 0.16027 0.3166 0.0
C192 C 0.74735 0.14318 0.32372 0.0
C193 C 0.78151 0.1678 0.35449 0.0
C194 C 0.78184 0.1681 0.48783 0.0
H195 H 0.85868 0.26045 0.56972 0.0
H196 H 0.84262 0.23399 0.50664 0.0
H197 H 0.78771 0.18046 0.55954 0.0
H198 H 0.72701 0.11948 0.37477 0.0
H199 H 0.75205 0.13199 0.44042 0.0
H200 H 0.81874 0.17947 0.40226 0.0
C201 C 0.8411 0.22896 0.54391 0.0
C202 C 0.79468 0.17997 0.52568 0.0
C203 C 0.85015 0.24409 0.58001 0.0
C204 C 0.74223 0.1329 0.36852 0.0
C205 C 0.75657 0.14017 0.4062 0.0
C206 C 0.81174 0.17946 0.43642 0.0
C207 C 0.82889 0.2077 0.55609 0.0
C208 C 0.81606 0.19236 0.51871 0.0
C209 C 0.77617 0.15816 0.40019 0.0
C210 C 0.79013 0.16811 0.44225 0.0
H211 H 0.83398 0.2118 0.67821 0.0
H212 H 0.81773 0.18539 0.61496 0.0
H213 H 0.84106 0.20097 0.46811 0.0
H214 H 0.7717 0.16854 0.28244 0.0
H215 H 0.79628 0.18185 0.34843 0.0
C216 C 0.60166 0.7648 0.44375 0.0
C217 C 0.58472 0.7444 0.44933 0.0
C218 C 0.60405 0.78091 0.47421 0.0
C219 C 0.57265 0.79545 0.54603 0.0
H220 H 0.62402 0.83645 0.60643 0.0
C221 C 0.57644 0.86211 0.65711 0.0
C222 C 0.58398 0.86328 0.7041 0.0
C223 C 0.57999 0.85106 0.62125 0.0
C224 C 0.60962 0.82516 0.58952 0.0
H225 H 0.55765 0.72467 0.49288 0.0
H226 H 0.56186 0.75278 0.54587 0.0
H227 H 0.62312 0.80884 0.55593 0.0
H228 H 0.60271 0.85544 0.74923 0.0
H229 H 0.60881 0.83614 0.68673 0.0
H230 H 0.55897 0.81129 0.58015 0.0
C231 C 0.57312 0.75634 0.51756 0.0
C232 C 0.60912 0.80944 0.56059 0.0
C233 C 0.5708 0.74023 0.4874 0.0
C234 C 0.59652 0.85465 0.71347 0.0
C235 C 0.60014 0.8437 0.67757 0.0
C236 C 0.57318 0.81121 0.57448 0.0
C237 C 0.58946 0.77691 0.51051 0.0
C238 C 0.59052 0.79423 0.53936 0.0
C239 C 0.59124 0.84111 0.63167 0.0
C240 C 0.59158 0.82605 0.59709 0.0
H241 H 0.6127 0.76849 0.41486 0.0
H242 H 0.61679 0.79665 0.46804 0.0
H243 H 0.55818 0.78411 0.52947 0.0
H244 H 0.56686 0.86873 0.64862 0.0
H245 H 0.57322 0.84957 0.5859 0.0
C246 C 0.84377 0.57373 0.6862 0.0
C247 C 0.84486 0.58223 0.64021 0.0
C248 C 0.83445 0.57808 0.72446 0.0
C249 C 0.7942 0.59075 0.74552 0.0
H250 H 0.81152 0.59475 0.87886 0.0
C251 C 0.7427 0.58735 0.90463 0.0
C252 C 0.74069 0.57346 0.94165 0.0
C253 C 0.75791 0.59317 0.86913 0.0
C254 C 0.80649 0.59366 0.84178 0.0
H255 H 0.83812 0.60296 0.59898 0.0
H256 H 0.82185 0.61056 0.666 0.0
H257 H 0.83468 0.59716 0.81415 0.0
H258 H 0.75331 0.55513 0.97099 0.0
H259 H 0.77951 0.56506 0.90911 0.0
H260 H 0.7657 0.58641 0.77313 0.0
C261 C 0.82801 0.60035 0.6722 0.0
C262 C 0.81975 0.59506 0.80478 0.0
C263 C 0.83741 0.59606 0.63391 0.0
C264 C 0.7544 0.56584 0.94296 0.0
C265 C 0.76959 0.5717 0.90771 0.0
C266 C 0.78092 0.58932 0.78254 0.0
C267 C 0.826 0.59101 0.71756 0.0
C268 C 0.8135 0.593 0.75632 0.0
C269 C 0.77145 0.58531 0.87022 0.0
C270 C 0.78669 0.59012 0.83108 0.0
H271 H 0.84942 0.56307 0.6923 0.0
H272 H 0.83297 0.57046 0.75882 0.0
H273 H 0.78883 0.58888 0.70857 0.0
H274 H 0.73241 0.59355 0.90277 0.0
H275 H 0.75905 0.60378 0.84079 0.0
C276 C 0.25916 0.84807 0.86572 0.0
C277 C 0.25789 0.83793 0.8219 0.0
C278 C 0.24387 0.83806 0.901 0.0
C279 C 0.20635 0.78506 0.94071 0.0
H280 H 0.18459 0.81207 0.02158 0.0
C281 C 0.14762 0.73846 0.08779 0.0
C282 C 0.15151 0.74813 0.13322 0.0
C283 C 0.1576 0.75016 0.04674 0.0
C284 C 0.1906 0.80436 -0.00061 0.0
H285 H 0.23902 0.80991 0.77957 0.0
H286 H 0.21246 0.79265 0.84073 0.0
H287 H 0.20826 0.83166 0.95553 0.0
H288 H 0.16796 0.77783 0.17092 0.0
H289 H 0.18579 0.79815 0.0995 0.0
H290 H 0.18943 0.75805 0.98493 0.0
C291 C 0.22541 0.80812 0.84828 0.0
C292 C 0.20414 0.81557 0.96165 0.0
C293 C 0.24063 0.81805 0.8132 0.0
C294 C 0.16465 0.76992 0.13638 0.0
C295 C 0.17481 0.7816 0.09536 0.0
C296 C 0.19297 0.77393 0.97839 0.0
C297 C 0.22709 0.81778 0.89297 0.0
C298 C 0.21217 0.80601 0.93204 0.0
C299 C 0.17187 0.77174 0.05032 0.0
C300 C 0.18498 0.78343 0.00834 0.0
H301 H 0.27225 0.86342 0.87338 0.0
H302 H 0.24562 0.84584 0.93524 0.0
H303 H 0.21262 0.77739 0.91916 0.0
H304 H 0.13735 0.72173 0.08413 0.0
H305 H 0.1546 0.74217 0.01238 0.0
C306 C 0.40808 0.14968 0.21639 0.0
C307 C 0.42462 0.16242 0.24722 0.0
C308 C 0.40034 0.15865 0.18434 0.0
C309 C 0.39872 0.20694 0.16329 0.0
H310 H 0.39456 0.19238 0.02773 0.0
C311 C 0.40969 0.26385 0.01167 0.0
C312 C 0.39926 0.25622 0.96766 0.0
C313 C 0.40703 0.2501 0.04907 0.0
C314 C 0.39512 0.19631 0.06557 0.0
H315 H 0.44594 0.19449 0.26877 0.0
H316 H 0.43252 0.21 0.21309 0.0
H317 H 0.40093 0.17201 0.08707 0.0
H318 H 0.37673 0.22831 0.92956 0.0
H319 H 0.37201 0.20428 -0.00482 0.0
H320 H 0.3936 0.23166 0.14174 0.0
C321 C 0.42538 0.19312 0.21392 0.0
C322 C 0.39883 0.18466 0.09952 0.0
C323 C 0.43321 0.18422 0.24548 0.0
C324 C 0.38512 0.23467 0.96292 0.0
C325 C 0.38248 0.22089 0.00038 0.0
C326 C 0.39493 0.21853 0.12942 0.0
C327 C 0.40886 0.18046 0.18309 0.0
C328 C 0.40139 0.19035 0.14845 0.0
C329 C 0.39386 0.22841 0.04333 0.0
C330 C 0.39383 0.21381 0.08 0.0
H331 H 0.40112 0.13282 0.21699 0.0
H332 H 0.3876 0.14855 0.16087 0.0
H333 H 0.40024 0.21139 0.20097 0.0
H334 H 0.42062 0.28038 0.01658 0.0
H335 H 0.41621 0.25642 0.08147 0.0
C336 C 0.1312 0.50563 0.08657 0.0
C337 C 0.13744 0.49648 0.12218 0.0
C338 C 0.13245 0.52478 0.09491 0.0
C339 C 0.13359 0.5591 0.19109 0.0
H340 H 0.15417 0.60103 0.08974 0.0
C341 C 0.14168 0.64024 0.21723 0.0
C342 C 0.13548 0.64798 0.17836 0.0
C343 C 0.14347 0.6225 0.21156 0.0
C344 C 0.1482 0.58941 0.11824 0.0
H345 H 0.14982 0.50022 0.1946 0.0
H346 H 0.15188 0.53377 0.20929 0.0
H347 H 0.15444 0.56858 0.07806 0.0
H348 H 0.12635 0.64321 0.10302 0.0
H349 H 0.12911 0.61209 0.09336 0.0
H350 H 0.12693 0.5797 0.23089 0.0
C351 C 0.14599 0.52602 0.17496 0.0
C352 C 0.14841 0.57086 0.11157 0.0
C353 C 0.14489 0.50687 0.16647 0.0
C354 C 0.13124 0.6377 0.13364 0.0
C355 C 0.13295 0.61992 0.12802 0.0
C356 C 0.13329 0.57763 0.19768 0.0
C357 C 0.13986 0.53519 0.13913 0.0
C358 C 0.14088 0.55541 0.14768 0.0
C359 C 0.13904 0.61208 0.16694 0.0
C360 C 0.14037 0.59289 0.16108 0.0
H361 H 0.1254 0.49805 0.05202 0.0
H362 H 0.12734 0.53132 0.06689 0.0
H363 H 0.12751 0.54737 0.21934 0.0
H364 H 0.14517 0.64788 0.25212 0.0
H365 H 0.14846 0.61704 0.24208 0.0
C366 C 0.64207 0.1558 0.25603 0.0
C367 C 0.64828 0.14319 0.27996 0.0
C368 C 0.62366 0.15493 0.26866 0.0
C369 C 0.57373 0.12001 0.32891 0.0
H370 H 0.56734 0.16864 0.3204 0.0
C371 C 0.49987 0.11921 0.38993 0.0
C372 C 0.49185 0.12775 0.35716 0.0
C373 C 0.51934 0.12165 0.38245 0.0
C374 C 0.56891 0.15493 0.32266 0.0
H375 H 0.64058 0.12052 0.3374 0.0
H376 H 0.60883 0.11952 0.36057 0.0
H377 H 0.60114 0.17249 0.30617 0.0
H378 H 0.498 0.14571 0.29111 0.0
H379 H 0.53218 0.15015 0.27836 0.0
H380 H 0.54151 0.10255 0.34604 0.0
C381 C 0.61782 0.12961 0.33102 0.0
C382 C 0.58824 0.15709 0.31441 0.0
C383 C 0.63611 0.1303 0.31801 0.0
C384 C 0.50375 0.13891 0.31693 0.0
C385 C 0.52335 0.14157 0.30978 0.0
C386 C 0.55448 0.11791 0.33769 0.0
C387 C 0.61116 0.14162 0.3059 0.0
C388 C 0.59086 0.13962 0.31705 0.0
C389 C 0.53128 0.13289 0.34238 0.0
C390 C 0.55185 0.1353 0.33428 0.0
H391 H 0.65105 0.16583 0.22638 0.0
H392 H 0.61892 0.1642 0.24805 0.0
H393 H 0.57502 0.10612 0.33031 0.0
H394 H 0.49106 0.11051 0.42125 0.0
H395 H 0.52517 0.11492 0.40828 0.0
C396 C 0.35108 0.50102 0.48134 0.0
C397 C 0.35138 0.48229 0.47704 0.0
C398 C 0.36852 0.52019 0.46981 0.0
C399 C 0.42491 0.54564 0.4595 0.0
H400 H 0.42005 0.58831 0.38976 0.0
C401 C 0.49612 0.62245 0.39537 0.0
C402 C 0.49536 0.64094 0.39966 0.0
C403 C 0.47854 0.60299 0.40396 0.0
C404 C 0.42164 0.57665 0.40975 0.0
H405 H 0.37016 0.46897 0.45649 0.0
H406 H 0.40062 0.50247 0.43616 0.0
H407 H 0.38928 0.5544 0.40512 0.0
H408 H 0.47559 0.65349 0.41681 0.0
H409 H 0.44499 0.61954 0.43252 0.0
H410 H 0.45722 0.56791 0.46458 0.0
C411 C 0.38692 0.50231 0.44893 0.0
C412 C 0.40402 0.55722 0.41845 0.0
C413 C 0.36943 0.48312 0.4603 0.0
C414 C 0.47667 0.63954 0.41304 0.0
C415 C 0.4591 0.62007 0.42173 0.0
C416 C 0.44252 0.56509 0.45092 0.0
C417 C 0.38669 0.52106 0.45387 0.0
C418 C 0.40546 0.54152 0.44351 0.0
C419 C 0.45981 0.60156 0.41715 0.0
C420 C 0.44109 0.58084 0.42603 0.0
H421 H 0.33743 0.50095 0.49418 0.0
H422 H 0.36793 0.53438 0.47448 0.0
H423 H 0.42648 0.53398 0.47957 0.0
H424 H 0.51026 0.62297 0.38492 0.0
H425 H 0.47956 0.58902 0.3995 0.0
C426 C 0.85291 0.48001 0.57414 0.0
C427 C 0.84166 0.48699 0.60089 0.0
C428 C 0.85137 0.46086 0.58483 0.0
C429 C 0.83903 0.42366 0.68381 0.0
H430 H 0.83533 0.38587 0.58235 0.0
C431 C 0.83181 0.34435 0.72779 0.0
C432 C 0.84365 0.33853 0.69971 0.0
C433 C 0.82963 0.36127 0.71415 0.0
C434 C 0.83655 0.39634 0.61108 0.0
H435 H 0.81976 0.47922 0.65944 0.0
H436 H 0.81717 0.44578 0.67823 0.0
H437 H 0.83519 0.41778 0.56149 0.0
H438 H 0.86222 0.34565 0.63487 0.0
H439 H 0.85883 0.37546 0.61164 0.0
H440 H 0.84093 0.40261 0.73337 0.0
C441 C 0.82725 0.45522 0.64915 0.0
C442 C 0.83642 0.41458 0.59912 0.0
C443 C 0.82868 0.47432 0.63826 0.0
C444 C 0.85294 0.34971 0.6572 0.0
C445 C 0.85089 0.36674 0.64374 0.0
C446 C 0.83929 0.4055 0.69576 0.0
C447 C 0.83865 0.44834 0.62267 0.0
C448 C 0.8378 0.42849 0.63535 0.0
C449 C 0.83938 0.37285 0.67232 0.0
C450 C 0.83818 0.39168 0.65954 0.0
H451 H 0.86302 0.48938 0.54504 0.0
H452 H 0.86051 0.45608 0.56415 0.0
H453 H 0.84041 0.43424 0.71245 0.0
H454 H 0.82428 0.33592 0.76052 0.0
H455 H 0.82034 0.3653 0.73651 0.0
C456 C 0.37038 0.86771 0.77737 0.0
C457 C 0.35124 0.84986 0.76681 0.0
C458 C 0.38816 0.86636 0.78092 0.0
C459 C 0.40731 0.83027 0.80117 0.0
H460 H 0.45615 0.87349 0.73611 0.0
C461 C 0.48401 0.82959 0.79461 0.0
C462 C 0.50203 0.84893 0.80308 0.0
C463 C 0.46511 0.82856 0.78716 0.0
C464 C 0.4427 0.8614 0.7548 0.0
H465 H 0.33567 0.81644 0.75326 0.0
H466 H 0.3669 0.81411 0.75975 0.0
H467 H 0.42393 0.87372 0.73091 0.0
H468 H 0.51437 0.88238 0.80988 0.0
H469 H 0.48153 0.88056 0.79755 0.0
H470 H 0.42623 0.81818 0.82583 0.0
C471 C 0.36803 0.82912 0.76523 0.0
C472 C 0.42425 0.86153 0.7518 0.0
C473 C 0.35018 0.83048 0.76141 0.0
C474 C 0.50081 0.86722 0.80327 0.0
C475 C 0.48197 0.8662 0.79591 0.0
C476 C 0.42584 0.83019 0.80437 0.0
C477 C 0.38725 0.84714 0.77418 0.0
C478 C 0.40645 0.84616 0.77551 0.0
C479 C 0.46388 0.84686 0.78798 0.0
C480 C 0.44381 0.84594 0.78177 0.0
H481 H 0.37174 0.88287 0.78195 0.0
H482 H 0.40271 0.88044 0.78873 0.0
H483 H 0.39384 0.8183 0.82 0.0
H484 H 0.48444 0.81521 0.79415 0.0
H485 H 0.45148 0.81346 0.78062 0.0
C486 C 0.49979 0.36489 0.88948 0.0
C487 C 0.4831 0.36168 0.91859 0.0
C488 C 0.51934 0.38249 0.89614 0.0
C489 C 0.5512 0.42304 0.98552 0.0
H490 H 0.58355 0.45362 0.8737 0.0
C491 C 0.62483 0.5039 0.002 0.0
C492 C 0.64186 0.50774 0.97344 0.0
C493 C 0.60561 0.48595 -0.00517 0.0
C494 C 0.57481 0.44511 0.90527 0.0
H495 H 0.47388 0.37438 0.97764 0.0
H496 H 0.50797 0.40516 0.98901 0.0
H497 H 0.54971 0.4224 0.86243 0.0
H498 H 0.65202 0.49578 0.91467 0.0
H499 H 0.61843 0.46432 0.90234 0.0
H500 H 0.57625 0.44576 0.02837 0.0
C501 C 0.50598 0.39396 0.96137 0.0
C502 C 0.55543 0.42723 0.89882 0.0
C503 C 0.48642 0.37637 0.95467 0.0
C504 C 0.6392 0.4933 0.93723 0.0
C505 C 0.61994 0.47533 0.93001 0.0
C506 C 0.57056 0.44091 0.99196 0.0
C507 C 0.52265 0.39724 0.9321 0.0
C508 C 0.54338 0.41604 0.93889 0.0
C509 C 0.60296 0.47141 0.95892 0.0
C510 C 0.58255 0.4522 0.95192 0.0
H511 H 0.49777 0.35384 0.86142 0.0
H512 H 0.53192 0.38443 0.87341 0.0
H513 H 0.54244 0.41457 0.01711 0.0
H514 H 0.62632 0.51473 0.03013 0.0
H515 H 0.59277 0.48354 0.01721 0.0
C516 C 0.26474 0.4493 0.67689 0.0
C517 C 0.27226 0.4637 0.63854 0.0
C518 C 0.25549 0.45266 0.71681 0.0
C519 C 0.22817 0.4797 0.75305 0.0
H520 H 0.23598 0.46424 0.88176 0.0
C521 C 0.18451 0.48521 0.91896 0.0
C522 C 0.17529 0.46727 0.94834 0.0
C523 C 0.19888 0.4877 0.88364 0.0
C524 C 0.23362 0.46858 0.84601 0.0
H525 H 0.27632 0.49316 0.61245 0.0
H526 H 0.26018 0.49907 0.68253 0.0
H527 H 0.2568 0.46352 0.81506 0.0
H528 H 0.17432 0.43814 0.9646 0.0
H529 H 0.19924 0.44244 0.90299 0.0
H530 H 0.20467 0.48432 0.78387 0.0
C531 C 0.26131 0.48508 0.68136 0.0
C532 C 0.24552 0.46816 0.80783 0.0
C533 C 0.27061 0.48173 0.64134 0.0
C534 C 0.1811 0.45213 0.94251 0.0
C535 C 0.19551 0.45467 0.90743 0.0
C536 C 0.21628 0.48016 0.79129 0.0
C537 C 0.25354 0.47051 0.71939 0.0
C538 C 0.2426 0.47326 0.76074 0.0
C539 C 0.2044 0.47237 0.87729 0.0
C540 C 0.21858 0.47416 0.83795 0.0
H541 H 0.26574 0.43524 0.6759 0.0
H542 H 0.24937 0.44096 0.74511 0.0
H543 H 0.2254 0.48351 0.71712 0.0
H544 H 0.18039 0.49719 0.92265 0.0
H545 H 0.20561 0.50158 0.86119 0.0
C546 C 0.69765 0.15069 0.06398 0.0
C547 C 0.70714 0.15387 0.10939 0.0
C548 C 0.70858 0.16339 0.02482 0.0
C549 C 0.75478 0.21405 0.99348 0.0
H550 H 0.75121 0.18708 0.87099 0.0
C551 C 0.81467 0.25432 0.8425 0.0
C552 C 0.80758 0.25159 0.79463 0.0
C553 C 0.80115 0.24304 0.87997 0.0
C554 C 0.75214 0.19489 0.90473 0.0
H555 H 0.7354 0.1731 0.14952 0.0
H556 H 0.75447 0.19507 0.08118 0.0
H557 H 0.72968 0.16632 0.93844 0.0
H558 H 0.7807 0.23496 0.74852 0.0
H559 H 0.75705 0.21525 0.81418 0.0
H560 H 0.7775 0.24255 0.95999 0.0
C561 C 0.73853 0.18294 0.07592 0.0
C562 C 0.73981 0.18301 0.94337 0.0
C563 C 0.72763 0.17025 0.11503 0.0
C564 C 0.78665 0.23739 0.78503 0.0
C565 C 0.77312 0.22603 0.82256 0.0
C566 C 0.76712 0.22592 0.95488 0.0
C567 C 0.72919 0.17955 0.03029 0.0
C568 C 0.7412 0.19242 0.98834 0.0
C569 C 0.78025 0.22875 0.87042 0.0
C570 C 0.76613 0.21641 0.91031 0.0
H571 H 0.68185 0.13825 0.0585 0.0
H572 H 0.70089 0.16056 0.99023 0.0
H573 H 0.75593 0.22182 0.02743 0.0
H574 H 0.83071 0.26513 0.85114 0.0
H575 H 0.80718 0.24525 0.91636 0.0
C576 C 0.53351 0.72497 0.24883 0.0
C577 C 0.53754 0.70949 0.23226 0.0
C578 C 0.53128 0.73804 0.21627 0.0
C579 C 0.52395 0.74525 0.08645 0.0
H580 H 0.55215 0.80392 0.12226 0.0
C581 C 0.54739 0.81251 0.95013 0.0
C582 C 0.54475 0.82924 0.96404 0.0
C583 C 0.54371 0.79668 0.98289 0.0
C584 C 0.54394 0.78756 0.11203 0.0
H585 H 0.54168 0.69504 0.16856 0.0
H586 H 0.53834 0.71824 0.11155 0.0
H587 H 0.55067 0.77825 0.17925 0.0
H588 H 0.53575 0.84225 0.02286 0.0
H589 H 0.52949 0.81461 0.08027 0.0
H590 H 0.51788 0.75486 0.01843 0.0
C591 C 0.53653 0.72006 0.14971 0.0
C592 C 0.54304 0.77281 0.14471 0.0
C593 C 0.53855 0.70682 0.18236 0.0
C594 C 0.53799 0.82961 0.01112 0.0
C595 C 0.53447 0.81384 0.04402 0.0
C596 C 0.52499 0.76006 0.05358 0.0
C597 C 0.53327 0.73609 0.16638 0.0
C598 C 0.53316 0.75149 0.13224 0.0
C599 C 0.53746 0.79732 0.03032 0.0
C600 C 0.53513 0.78138 0.06596 0.0
H601 H 0.53238 0.72723 0.28711 0.0
H602 H 0.5283 0.74989 0.23029 0.0
H603 H 0.51597 0.72893 0.07596 0.0
H604 H 0.5525 0.81172 0.91404 0.0
H605 H 0.54635 0.78425 0.9715 0.0
C606 C 0.79656 0.50802 0.41527 0.0
C607 C 0.81077 0.5266 0.43892 0.0
C608 C 0.78329 0.5082 0.38014 0.0
C609 C 0.77896 0.54394 0.29551 0.0
H610 H 0.72082 0.5017 0.29065 0.0
C611 C 0.72311 0.55404 0.17426 0.0
C612 C 0.7087 0.5366 0.14753 0.0
C613 C 0.73458 0.55179 0.21078 0.0
C614 C 0.73707 0.51347 0.29127 0.0
H615 H 0.82185 0.55985 0.44505 0.0
H616 H 0.79871 0.5601 0.38419 0.0
H617 H 0.74289 0.49951 0.35252 0.0
H618 H 0.69459 0.503 0.13909 0.0
H619 H 0.71489 0.4991 0.20278 0.0
H620 H 0.77332 0.55791 0.23444 0.0
C621 C 0.79801 0.54546 0.39223 0.0
C622 C 0.74968 0.51221 0.32664 0.0
C623 C 0.81121 0.54527 0.4273 0.0
C624 C 0.70558 0.51674 0.15906 0.0
C625 C 0.71715 0.51449 0.19563 0.0
C626 C 0.76642 0.54518 0.26023 0.0
C627 C 0.78406 0.52698 0.36795 0.0
C628 C 0.77071 0.52759 0.32941 0.0
C629 C 0.732 0.53206 0.22133 0.0
C630 C 0.74529 0.53011 0.25804 0.0
H631 H 0.79584 0.49337 0.42348 0.0
H632 H 0.77275 0.49375 0.36178 0.0
H633 H 0.7952 0.55578 0.29612 0.0
H634 H 0.72573 0.56954 0.16665 0.0
H635 H 0.74559 0.56556 0.23063 0.0
C636 C 0.18257 0.74772 0.34969 0.0
C637 C 0.18812 0.74009 0.30953 0.0
C638 C 0.19766 0.76221 0.38068 0.0
C639 C 0.25035 0.78162 0.42312 0.0
H640 H 0.24482 0.82766 0.47125 0.0
C641 C 0.30704 0.84225 0.56197 0.0
C642 C 0.29737 0.84625 0.60052 0.0
C643 C 0.29558 0.83098 0.52164 0.0
C644 C 0.24654 0.81486 0.45821 0.0
H645 H 0.21387 0.74155 0.27051 0.0
H646 H 0.2403 0.76691 0.32507 0.0
H647 H 0.22117 0.80458 0.40944 0.0
H648 H 0.26813 0.84165 0.62692 0.0
H649 H 0.2483 0.82202 0.55713 0.0
H650 H 0.27544 0.79164 0.47292 0.0
C651 C 0.22423 0.7616 0.33244 0.0
C652 C 0.23301 0.80165 0.42288 0.0
C653 C 0.2091 0.74715 0.3012 0.0
C654 C 0.2761 0.8389 0.59782 0.0
C655 C 0.26473 0.82777 0.55762 0.0
C656 C 0.26391 0.79485 0.45861 0.0
C657 C 0.21864 0.76935 0.37232 0.0
C658 C 0.23445 0.7846 0.40584 0.0
C659 C 0.27432 0.82368 0.5191 0.0
C660 C 0.26179 0.81128 0.47734 0.0
H661 H 0.16655 0.74259 0.35718 0.0
H662 H 0.19286 0.76765 0.4116 0.0
H663 H 0.25175 0.76854 0.41077 0.0
H664 H 0.32341 0.84772 0.56301 0.0
H665 H 0.30337 0.8281 0.49233 0.0
C666 C 0.44964 0.28315 0.6968 0.0
C667 C 0.44177 0.27723 0.7438 0.0
C668 C 0.44972 0.26851 0.66517 0.0
C669 C 0.42422 0.21162 0.64455 0.0
H670 H 0.47106 0.22651 0.5609 0.0
C671 C 0.42995 0.15041 0.52811 0.0
C672 C 0.43625 0.15617 0.48005 0.0
C673 C 0.43158 0.1653 0.56145 0.0
C674 C 0.45781 0.22219 0.58382 0.0
H675 H 0.42811 0.25139 0.79475 0.0
H676 H 0.42851 0.22603 0.73989 0.0
H677 H 0.472 0.2525 0.61659 0.0
H678 H 0.44956 0.18215 0.42946 0.0
H679 H 0.45225 0.20804 0.48754 0.0
H680 H 0.40999 0.18136 0.61173 0.0
C681 C 0.4343 0.24187 0.72715 0.0
C682 C 0.45833 0.23707 0.61561 0.0
C683 C 0.43418 0.25645 0.75867 0.0
C684 C 0.44456 0.17719 0.46624 0.0
C685 C 0.44623 0.19207 0.49957 0.0
C686 C 0.42371 0.19676 0.61285 0.0
C687 C 0.44195 0.24768 0.67997 0.0
C688 C 0.44152 0.23194 0.64626 0.0
C689 C 0.43959 0.18625 0.5474 0.0
C690 C 0.44047 0.20189 0.58208 0.0
H691 H 0.45555 0.29903 0.68426 0.0
H692 H 0.45553 0.27341 0.62885 0.0
H693 H 0.41088 0.2073 0.66714 0.0
H694 H 0.42356 0.13436 0.53992 0.0
H695 H 0.42657 0.16043 0.59826 0.0
C696 C 0.06191 0.39786 0.96713 0.0
C697 C 0.07588 0.41906 0.95719 0.0
C698 C 0.04363 0.38686 0.94073 0.0
C699 C 0.01931 0.38799 0.82592 0.0
H700 H 0.96822 0.35127 0.89334 0.0
C701 C 0.93925 0.35409 0.73654 0.0
C702 C 0.92428 0.33332 0.74767 0.0
C703 C 0.95816 0.36398 0.76075 0.0
C704 C 0.9824 0.36125 0.87388 0.0
H705 H 0.08163 0.44536 0.9118 0.0
H706 H 0.04967 0.42623 0.86617 0.0
H707 H 0.00042 0.36956 0.93853 0.0
H708 H 0.9176 0.30646 0.79204 0.0
H709 H 0.95067 0.32364 0.83377 0.0
H710 H 0.00125 0.37976 0.7613 0.0
C711 C 0.05297 0.41803 0.8939 0.0
C712 C 0.00084 0.37173 0.89978 0.0
C713 C 0.07122 0.42902 0.92028 0.0
C714 C 0.92876 0.32252 0.7828 0.0
C715 C 0.94767 0.33239 0.80694 0.0
C716 C 0.00086 0.3775 0.8 0.0
C717 C 0.03897 0.39684 0.90384 0.0
C718 C 0.01948 0.38529 0.87612 0.0
C719 C 0.96249 0.3533 0.79653 0.0
C720 C 0.98219 0.36407 0.82373 0.0
H721 H 0.06509 0.38973 -0.00475 0.0
H722 H 0.03325 0.37048 0.94886 0.0
H723 H 0.03348 0.39811 0.80657 0.0
H724 H 0.93625 0.36286 0.70975 0.0
H725 H 0.96918 0.38017 0.75229 0.0
C726 C 0.60441 0.9342 0.93662 0.0
C727 C 0.58664 0.92995 0.91054 0.0
C728 C 0.61291 0.95041 0.97048 0.0
C729 C 0.59826 0.97995 0.05009 0.0
H730 H 0.65676 0.02094 0.05455 0.0
C731 C 0.63054 0.05573 0.16041 0.0
C732 C 0.65009 0.06407 0.1818 0.0
C733 C 0.62288 0.03824 0.13045 0.0
C734 C 0.64043 0.0094 0.0544 0.0
H735 H 0.5642 0.93969 0.89857 0.0
H736 H 0.579 0.96785 0.9578 0.0
H737 H 0.64372 0.99299 0.99456 0.0
H738 H 0.6766 0.0601 0.19021 0.0
H739 H 0.66296 0.02918 0.1388 0.0
H740 H 0.59486 0.9961 0.11001 0.0
C741 C 0.58624 0.95856 0.95225 0.0
C742 C 0.63299 0.99347 0.01989 0.0
C743 C 0.57787 0.94253 0.91811 0.0
C744 C 0.66152 0.0541 0.174 0.0
C745 C 0.65377 0.03648 0.14426 0.0
C746 C 0.6057 0.99572 0.08486 0.0
C747 C 0.60366 0.96248 0.97918 0.0
C748 C 0.61179 0.97881 0.01699 0.0
C749 C 0.6345 0.02856 0.12151 0.0
C750 C 0.62684 0.01083 0.087 0.0
H751 H 0.61153 0.92479 0.93154 0.0
H752 H 0.62633 0.9531 0.99088 0.0
H753 H 0.58188 0.96859 0.04916 0.0
H754 H 0.62138 0.06309 0.1655 0.0
H755 H 0.60812 0.03277 0.113 0.0
C756 C 0.67657 0.61784 0.08876 0.0
C757 C 0.67246 0.59987 0.11493 0.0
C758 C 0.67196 0.63235 0.10855 0.0
C759 C 0.6609 0.64947 0.22447 0.0
H760 H 0.62907 0.66642 0.14634 0.0
C761 C 0.6069 0.67471 0.3057 0.0
C762 C 0.60475 0.6904 0.28276 0.0
C763 C 0.61924 0.66764 0.28544 0.0
C764 C 0.63832 0.66222 0.16839 0.0
H765 H 0.66063 0.58322 0.18261 0.0
H766 H 0.65252 0.60837 0.21678 0.0
H767 H 0.64331 0.64657 0.10958 0.0
H768 H 0.61452 0.71158 0.22151 0.0
H769 H 0.63615 0.69917 0.18609 0.0
H770 H 0.65537 0.66454 0.28362 0.0
C771 C 0.65948 0.6114 0.18125 0.0
C772 C 0.64646 0.65083 0.14732 0.0
C773 C 0.66396 0.59688 0.16144 0.0
C774 C 0.6158 0.6994 0.23998 0.0
C775 C 0.62811 0.69225 0.21956 0.0
C776 C 0.65279 0.66087 0.24551 0.0
C777 C 0.66333 0.62923 0.15498 0.0
C778 C 0.65731 0.64383 0.17549 0.0
C779 C 0.6297 0.67607 0.24173 0.0
C780 C 0.64092 0.66684 0.218 0.0
H781 H 0.68316 0.62059 0.05285 0.0
H782 H 0.67515 0.64601 0.08758 0.0
H783 H 0.66955 0.64463 0.24684 0.0
H784 H 0.59863 0.66748 0.33877 0.0
H785 H 0.61991 0.65496 0.3031 0.0
C786 C 0.0498 0.65155 0.23737 0.0
C787 C 0.06709 0.6677 0.26099 0.0
C788 C 0.03043 0.64183 0.25952 0.0
C789 C 0.00666 0.6318 0.37992 0.0
H790 H 0.95624 0.61411 0.30781 0.0
C791 C 0.92673 0.59289 0.4717 0.0
C792 C 0.91077 0.5753 0.44824 0.0
C793 C 0.94563 0.60542 0.44861 0.0
C794 C 0.97019 0.61883 0.32833 0.0
H795 H 0.07748 0.68688 0.32561 0.0
H796 H 0.04364 0.6701 0.36393 0.0
H797 H 0.98955 0.63419 0.26737 0.0
H798 H 0.9021 0.55714 0.38206 0.0
H799 H 0.93513 0.57889 0.34203 0.0
H800 H 0.98733 0.61628 0.44074 0.0
C801 C 0.04512 0.66469 0.32867 0.0
C802 C 0.98925 0.63033 0.30518 0.0
C803 C 0.06449 0.67438 0.30657 0.0
C804 C 0.91407 0.57059 0.40113 0.0
C805 C 0.93295 0.58313 0.37803 0.0
C806 C 0.98762 0.62034 0.40306 0.0
C807 C 0.02794 0.6481 0.30571 0.0
C808 C 0.00769 0.6368 0.33065 0.0
C809 C 0.94895 0.60064 0.40157 0.0
C810 C 0.96917 0.61359 0.37742 0.0
H811 H 0.05128 0.64603 0.20225 0.0
H812 H 0.01754 0.62896 0.24108 0.0
H813 H 0.02057 0.63625 0.40037 0.0
H814 H 0.92464 0.59699 0.50794 0.0
H815 H 0.95761 0.61894 0.46746 0.0
C816 C 0.41437 0.04871 0.39635 0.0
C817 C 0.40651 0.06225 0.39206 0.0
C818 C 0.40656 0.03297 0.43132 0.0
C819 C 0.36286 0.00104 0.51097 0.0
H820 H 0.40437 0.00089 0.59387 0.0
C821 C 0.34017 0.94494 0.67361 0.0
C822 C 0.35159 0.93482 0.67884 0.0
C823 C 0.34697 0.96203 0.64236 0.0
C824 C 0.39257 0.00057 0.57083 0.0
H825 H 0.38343 0.06908 0.41885 0.0
H826 H 0.36951 0.04123 0.47936 0.0
H827 H 0.41495 0.02597 0.52783 0.0
H828 H 0.3796 0.93533 0.6572 0.0
H829 H 0.39115 0.96461 0.60236 0.0
H830 H 0.34048 0.97522 0.5529 0.0
C831 C 0.38185 0.04299 0.45598 0.0
C832 C 0.39865 0.01493 0.53303 0.0
C833 C 0.38984 0.05892 0.42141 0.0
C834 C 0.3704 0.94274 0.65403 0.0
C835 C 0.37711 0.95967 0.62268 0.0
C836 C 0.35676 0.98646 0.54848 0.0
C837 C 0.39056 0.0303 0.46217 0.0
C838 C 0.38388 0.01515 0.50246 0.0
C839 C 0.36529 0.96927 0.61566 0.0
C840 C 0.37157 0.98591 0.57855 0.0
H841 H 0.42722 0.05087 0.37433 0.0
H842 H 0.41334 0.02317 0.43503 0.0
H843 H 0.35118 0.00092 0.48781 0.0
H844 H 0.32565 0.93926 0.69241 0.0
H845 H 0.33769 0.96931 0.63846 0.0
C846 C 0.3155 0.38875 0.59806 0.0
C847 C 0.32158 0.40853 0.61768 0.0
C848 C 0.32189 0.37588 0.61937 0.0
C849 C 0.34155 0.36738 0.73405 0.0
H850 H 0.36217 0.33909 0.65388 0.0
C851 C 0.39038 0.33434 0.8096 0.0
C852 C 0.38717 0.31525 0.79126 0.0
C853 C 0.38025 0.3439 0.78936 0.0
C854 C 0.35614 0.34661 0.67672 0.0
H855 H 0.33921 0.43038 0.6748 0.0
H856 H 0.35048 0.40805 0.71161 0.0
H857 H 0.34864 0.35941 0.61605 0.0
H858 H 0.37042 0.29096 0.73797 0.0
H859 H 0.35261 0.30767 0.70274 0.0
H860 H 0.34933 0.35487 0.79471 0.0
C861 C 0.34055 0.40234 0.6802 0.0
C862 C 0.34842 0.35826 0.65506 0.0
C863 C 0.33421 0.41521 0.65887 0.0
C864 C 0.37327 0.3057 0.75285 0.0
C865 C 0.36315 0.31531 0.73249 0.0
C866 C 0.34925 0.35574 0.75568 0.0
C867 C 0.33441 0.38253 0.66078 0.0
C868 C 0.34134 0.36903 0.68353 0.0
C869 C 0.36668 0.3346 0.7503 0.0
C870 C 0.35692 0.34549 0.72727 0.0
H871 H 0.30574 0.38314 0.56636 0.0
H872 H 0.3168 0.36062 0.60382 0.0
H873 H 0.33582 0.37518 0.75691 0.0
H874 H 0.401 0.34213 0.83915 0.0
H875 H 0.3835 0.3589 0.80349 0.0
loop_
_geom_bond_atom_site_label_1
_geom_bond_atom_site_label_2
_geom_bond_distance
_geom_bond_site_symmetry_2
_ccdc_geom_bond_type
C0 O1 1.177 . S
C0 O7 1.168 1_556 S
O1 C0 1.177 . S
O2 Zn3 1.899 1_556 S
O2 C10 1.284 . S
Zn3 O2 1.899 1_554 S
Zn3 O4 2.032 . S
Zn3 O7 2.086 . S
Zn3 O12 1.977 . S
O4 Zn3 2.032 . S
O4 C8 1.278 . S
C5 O6 1.203 . S
C5 O12 1.267 . S
O6 C5 1.203 . S
O7 C0 1.168 1_554 S
O7 Zn3 2.086 . S
C8 O4 1.278 . S
C8 O9 1.211 . S
O9 C8 1.211 . S
C10 O2 1.284 . S
C10 O11 1.273 . S
O11 C10 1.273 . S
O12 Zn3 1.977 . S
O12 C5 1.267 . S
C13 O14 1.160 . S
C13 O20 1.185 . S
O14 C13 1.160 . S
O15 Zn16 1.899 . S
O15 C23 1.284 . S
Zn16 O15 1.899 . S
Zn16 O17 2.032 . S
Zn16 O20 2.086 . S
Zn16 O25 1.977 . S
O17 Zn16 2.032 . S
O17 C21 1.278 . S
C18 O19 1.203 . S
C18 O25 1.267 . S
O19 C18 1.203 . S
O20 C13 1.185 . S
O20 Zn16 2.086 . S
C21 O17 1.278 . S
C21 O22 1.211 . S
O22 C21 1.211 . S
C23 O15 1.284 . S
C23 O24 1.273 . S
O24 C23 1.273 . S
O25 Zn16 1.977 . S
O25 C18 1.267 . S
C26 O27 1.160 . S
C26 O33 1.185 . S
O27 C26 1.160 . S
O28 Zn29 1.899 . S
O28 C36 1.284 . S
Zn29 O28 1.899 . S
Zn29 O30 2.032 . S
Zn29 O33 2.086 . S
Zn29 O38 1.977 . S
O30 Zn29 2.032 . S
O30 C34 1.278 . S
C31 O32 1.203 . S
C31 O38 1.267 . S
O32 C31 1.203 . S
O33 C26 1.185 . S
O33 Zn29 2.086 . S
C34 O30 1.278 . S
C34 O35 1.211 . S
O35 C34 1.211 . S
C36 O28 1.284 . S
C36 O37 1.273 . S
O37 C36 1.273 . S
O38 Zn29 1.977 . S
O38 C31 1.267 . S
C39 O40 1.160 . S
C39 O46 1.185 . S
O40 C39 1.160 . S
O41 Zn42 1.899 . S
O41 C49 1.284 . S
Zn42 O41 1.899 . S
Zn42 O43 2.032 . S
Zn42 O46 2.086 . S
Zn42 O51 1.977 . S
O43 Zn42 2.032 . S
O43 C47 1.278 . S
C44 O45 1.203 . S
C44 O51 1.267 . S
O45 C44 1.203 . S
O46 C39 1.185 . S
O46 Zn42 2.086 . S
C47 O43 1.278 . S
C47 O48 1.211 . S
O48 C47 1.211 . S
C49 O41 1.284 . S
C49 O50 1.273 . S
O50 C49 1.273 . S
O51 Zn42 1.977 . S
O51 C44 1.267 . S
C52 O53 1.160 . S
C52 O59 1.185 . S
O53 C52 1.160 . S
O54 Zn55 1.899 . S
O54 C62 1.284 . S
Zn55 O54 1.899 . S
Zn55 O56 2.032 . S
Zn55 O59 2.086 . S
Zn55 O64 1.977 . S
O56 Zn55 2.032 . S
O56 C60 1.278 . S
C57 O58 1.203 . S
C57 O64 1.267 . S
O58 C57 1.203 . S
O59 C52 1.185 . S
O59 Zn55 2.086 . S
C60 O56 1.278 . S
C60 O61 1.211 . S
O61 C60 1.211 . S
C62 O54 1.284 . S
C62 O63 1.273 . S
O63 C62 1.273 . S
O64 Zn55 1.977 . S
O64 C57 1.267 . S
C65 O66 1.160 . S
C65 O72 1.185 . S
O66 C65 1.160 . S
O67 Zn68 1.899 . S
O67 C75 1.284 . S
Zn68 O67 1.899 . S
Zn68 O69 2.032 . S
Zn68 O72 2.086 . S
Zn68 O77 1.977 . S
O69 Zn68 2.032 . S
O69 C73 1.278 . S
C70 O71 1.203 . S
C70 O77 1.267 . S
O71 C70 1.203 . S
O72 C65 1.185 . S
O72 Zn68 2.086 . S
C73 O69 1.278 . S
C73 O74 1.211 . S
O74 C73 1.211 . S
C75 O67 1.284 . S
C75 O76 1.273 . S
O76 C75 1.273 . S
O77 Zn68 1.977 . S
O77 C70 1.267 . S
C78 O79 1.160 . S
C78 O85 1.185 . S
O79 C78 1.160 . S
O80 Zn81 1.899 . S
O80 C88 1.284 . S
Zn81 O80 1.899 . S
Zn81 O82 2.032 . S
Zn81 O85 2.086 . S
Zn81 O90 1.977 . S
O82 Zn81 2.032 . S
O82 C86 1.278 . S
C83 O84 1.203 . S
C83 O90 1.267 . S
O84 C83 1.203 . S
O85 C78 1.185 . S
O85 Zn81 2.086 . S
C86 O82 1.278 . S
C86 O87 1.211 . S
O87 C86 1.211 . S
C88 O80 1.284 . S
C88 O89 1.273 . S
O89 C88 1.273 . S
O90 Zn81 1.977 . S
O90 C83 1.267 . S
C91 O92 1.160 . S
C91 O98 1.185 . S
O92 C91 1.160 . S
O93 Zn94 1.899 . S
O93 C101 1.284 . S
Zn94 O93 1.899 . S
Zn94 O95 2.032 . S
Zn94 O98 2.086 . S
Zn94 O103 1.977 1_554 S
O95 Zn94 2.032 . S
O95 C99 1.278 . S
C96 O97 1.203 . S
C96 O103 1.267 . S
O97 C96 1.203 . S
O98 C91 1.185 . S
O98 Zn94 2.086 . S
C99 O95 1.278 . S
C99 O100 1.201 1_554 S
O100 C99 1.201 1_556 S
C101 O93 1.284 . S
C101 O102 1.273 . S
O102 C101 1.273 . S
O103 Zn94 1.977 1_556 S
O103 C96 1.267 . S
C104 O105 1.160 . S
C104 O111 1.185 . S
O105 C104 1.160 . S
O106 Zn107 1.899 . S
O106 C114 1.284 . S
Zn107 O106 1.899 . S
Zn107 O108 2.032 . S
Zn107 O111 2.086 . S
Zn107 O116 1.977 . S
O108 Zn107 2.032 . S
O108 C112 1.278 . S
C109 O110 1.203 . S
C109 O116 1.267 . S
O110 C109 1.203 . S
O111 C104 1.185 . S
O111 Zn107 2.086 . S
C112 O108 1.278 . S
C112 O113 1.211 . S
O113 C112 1.211 . S
C114 O106 1.284 . S
C114 O115 1.273 . S
O115 C114 1.273 . S
O116 Zn107 1.977 . S
O116 C109 1.267 . S
C117 O118 1.160 . S
C117 O124 1.185 . S
O118 C117 1.160 . S
O119 Zn120 1.899 . S
O119 C127 1.284 . S
Zn120 O119 1.899 . S
Zn120 O121 2.032 . S
Zn120 O124 2.086 . S
Zn120 O129 1.977 . S
O121 Zn120 2.032 . S
O121 C125 1.278 . S
C122 O123 1.203 . S
C122 O129 1.267 . S
O123 C122 1.203 . S
O124 C117 1.185 . S
O124 Zn120 2.086 . S
C125 O121 1.278 . S
C125 O126 1.211 . S
O126 C125 1.211 . S
C127 O119 1.284 . S
C127 O128 1.273 . S
O128 C127 1.273 . S
O129 Zn120 1.977 . S
O129 C122 1.267 . S
C130 O131 1.160 . S
C130 O137 1.185 . S
O131 C130 1.160 . S
O132 Zn133 1.899 . S
O132 C140 1.284 . S
Zn133 O132 1.899 . S
Zn133 O134 2.032 . S
Zn133 O137 2.086 . S
Zn133 O142 1.977 . S
O134 Zn133 2.032 . S
O134 C138 1.278 . S
C135 O136 1.203 . S
C135 O142 1.267 . S
O136 C135 1.203 . S
O137 C130 1.185 . S
O137 Zn133 2.086 . S
C138 O134 1.278 . S
C138 O139 1.211 . S
O139 C138 1.211 . S
C140 O132 1.284 . S
C140 O141 1.273 . S
O141 C140 1.273 . S
O142 Zn133 1.977 . S
O142 C135 1.267 . S
C143 O144 1.160 . S
C143 O150 1.185 . S
O144 C143 1.160 . S
O145 Zn146 1.899 . S
O145 C153 1.284 . S
Zn146 O145 1.899 . S
Zn146 O147 2.032 . S
Zn146 O150 2.086 . S
Zn146 O155 1.977 . S
O147 Zn146 2.032 . S
O147 C151 1.278 . S
C148 O149 1.203 . S
C148 O155 1.267 . S
O149 C148 1.203 . S
O150 C143 1.185 . S
O150 Zn146 2.086 . S
C151 O147 1.278 . S
C151 O152 1.211 . S
O152 C151 1.211 . S
C153 O145 1.284 . S
C153 O154 1.273 . S
O154 C153 1.273 . S
O155 Zn146 1.977 . S
O155 C148 1.267 . S
C156 C157 1.349 . S
C156 C158 1.327 . S
C156 H181 0.950 . S
C157 C156 1.349 . S
C157 C173 1.349 . S
C158 C156 1.327 . S
C158 C177 1.429 . S
C158 H182 0.950 . S
C159 C176 1.574 . S
C159 C178 1.368 . S
C159 H183 0.949 . S
H160 C164 0.949 . S
C161 C162 1.349 . S
C161 C163 1.327 . S
C161 H184 0.950 . S
C162 C161 1.349 . S
C162 C174 1.349 . S
C163 C161 1.327 . S
C163 C179 1.429 . S
C163 H185 0.950 . S
C164 H160 0.949 . S
C164 C172 1.574 . S
C164 C180 1.368 . S
H165 C173 0.950 . S
H166 C171 0.950 . S
H167 C172 0.949 . S
H168 C174 0.950 . S
H169 C175 0.950 . S
H170 C176 0.949 . S
C171 H166 0.950 . S
C171 C173 1.327 . S
C171 C177 1.429 . S
C172 C164 1.574 . S
C172 H167 0.949 . S
C172 C178 1.368 . S
C173 C157 1.349 . S
C173 H165 0.950 . S
C173 C171 1.327 . S
C174 C162 1.349 . S
C174 H168 0.950 . S
C174 C175 1.327 . S
C175 H169 0.950 . S
C175 C174 1.327 . S
C175 C179 1.429 . S
C176 C159 1.574 . S
C176 H170 0.949 . S
C176 C180 1.368 . S
C177 C158 1.429 . S
C177 C171 1.429 . S
C177 C178 1.523 . S
C178 C159 1.368 . S
C178 C172 1.368 . S
C178 C177 1.523 . S
C179 C163 1.429 . S
C179 C175 1.429 . S
C179 C180 1.523 . S
C180 C164 1.368 . S
C180 C176 1.368 . S
C180 C179 1.523 . S
H181 C156 0.950 . S
H182 C158 0.950 . S
H183 C159 0.949 . S
H184 C161 0.950 . S
H185 C163 0.950 . S
C186 C187 1.349 . S
C186 C188 1.327 . S
C186 H211 0.950 . S
C187 C186 1.349 . S
C187 C203 1.349 . S
C188 C186 1.327 . S
C188 C207 1.429 . S
C188 H212 0.950 . S
C189 C206 1.574 . S
C189 C208 1.368 . S
C189 H213 0.949 . S
H190 C194 0.949 . S
C191 C192 1.349 . S
C191 C193 1.327 . S
C191 H214 0.950 . S
C192 C191 1.349 . S
C192 C204 1.349 . S
C193 C191 1.327 . S
C193 C209 1.429 . S
C193 H215 0.950 . S
C194 H190 0.949 . S
C194 C202 1.574 . S
C194 C210 1.368 . S
H195 C203 0.950 . S
H196 C201 0.950 . S
H197 C202 0.949 . S
H198 C204 0.950 . S
H199 C205 0.950 . S
H200 C206 0.949 . S
C201 H196 0.950 . S
C201 C203 1.327 . S
C201 C207 1.429 . S
C202 C194 1.574 . S
C202 H197 0.949 . S
C202 C208 1.368 . S
C203 C187 1.349 . S
C203 H195 0.950 . S
C203 C201 1.327 . S
C204 C192 1.349 . S
C204 H198 0.950 . S
C204 C205 1.327 . S
C205 H199 0.950 . S
C205 C204 1.327 . S
C205 C209 1.429 . S
C206 C189 1.574 . S
C206 H200 0.949 . S
C206 C210 1.368 . S
C207 C188 1.429 . S
C207 C201 1.429 . S
C207 C208 1.523 . S
C208 C189 1.368 . S
C208 C202 1.368 . S
C208 C207 1.523 . S
C209 C193 1.429 . S
C209 C205 1.429 . S
C209 C210 1.523 . S
C210 C194 1.368 . S
C210 C206 1.368 . S
C210 C209 1.523 . S
H211 C186 0.950 . S
H212 C188 0.950 . S
H213 C189 0.949 . S
H214 C191 0.950 . S
H215 C193 0.950 . S
C216 C217 1.349 . S
C216 C218 1.327 . S
C216 H241 0.950 . S
C217 C216 1.349 . S
C217 C233 1.349 . S
C218 C216 1.327 . S
C218 C237 1.429 . S
C218 H242 0.950 . S
C219 C236 1.574 . S
C219 C238 1.368 . S
C219 H243 0.949 . S
H220 C224 0.949 . S
C221 C222 1.349 . S
C221 C223 1.327 . S
C221 H244 0.950 . S
C222 C221 1.349 . S
C222 C234 1.349 . S
C223 C221 1.327 . S
C223 C239 1.429 . S
C223 H245 0.950 . S
C224 H220 0.949 . S
C224 C232 1.574 . S
C224 C240 1.368 . S
H225 C233 0.950 . S
H226 C231 0.950 . S
H227 C232 0.949 . S
H228 C234 0.950 . S
H229 C235 0.950 . S
H230 C236 0.949 . S
C231 H226 0.950 . S
C231 C233 1.327 . S
C231 C237 1.429 . S
C232 C224 1.574 . S
C232 H227 0.949 . S
C232 C238 1.368 . S
C233 C217 1.349 . S
C233 H225 0.950 . S
C233 C231 1.327 . S
C234 C222 1.349 . S
C234 H228 0.950 . S
C234 C235 1.327 . S
C235 H229 0.950 . S
C235 C234 1.327 . S
C235 C239 1.429 . S
C236 C219 1.574 . S
C236 H230 0.949 . S
C236 C240 1.368 . S
C237 C218 1.429 . S
C237 C231 1.429 . S
C237 C238 1.523 . S
C238 C219 1.368 . S
C238 C232 1.368 . S
C238 C237 1.523 . S
C239 C223 1.429 . S
C239 C235 1.429 . S
C239 C240 1.523 . S
C240 C224 1.368 . S
C240 C236 1.368 . S
C240 C239 1.523 . S
H241 C216 0.950 . S
H242 C218 0.950 . S
H243 C219 0.949 . S
H244 C221 0.950 . S
H245 C223 0.950 . S
C246 C247 1.349 . S
C246 C248 1.327 . S
C246 H271 0.950 . S
C247 C246 1.349 . S
C247 C263 1.349 . S
C248 C246 1.327 . S
C248 C267 1.429 . S
C248 H272 0.950 . S
C249 C266 1.574 . S
C249 C268 1.368 . S
C249 H273 0.949 . S
H250 C254 0.949 . S
C251 C252 1.349 . S
C251 C253 1.327 . S
C251 H274 0.950 . S
C252 C251 1.349 . S
C252 C264 1.349 . S
C253 C251 1.327 . S
C253 C269 1.429 . S
C253 H275 0.950 . S
C254 H250 0.949 . S
C254 C262 1.574 . S
C254 C270 1.368 . S
H255 C263 0.950 . S
H256 C261 0.950 . S
H257 C262 0.949 . S
H258 C264 0.950 . S
H259 C265 0.950 . S
H260 C266 0.949 . S
C261 H256 0.950 . S
C261 C263 1.327 . S
C261 C267 1.429 . S
C262 C254 1.574 . S
C262 H257 0.949 . S
C262 C268 1.368 . S
C263 C247 1.349 . S
C263 H255 0.950 . S
C263 C261 1.327 . S
C264 C252 1.349 . S
C264 H258 0.950 . S
C264 C265 1.327 . S
C265 H259 0.950 . S
C265 C264 1.327 . S
C265 C269 1.429 . S
C266 C249 1.574 . S
C266 H260 0.949 . S
C266 C270 1.368 . S
C267 C248 1.429 . S
C267 C261 1.429 . S
C267 C268 1.523 . S
C268 C249 1.368 . S
C268 C262 1.368 . S
C268 C267 1.523 . S
C269 C253 1.429 . S
C269 C265 1.429 . S
C269 C270 1.523 . S
C270 C254 1.368 . S
C270 C266 1.368 . S
C270 C269 1.523 . S
H271 C246 0.950 . S
H272 C248 0.950 . S
H273 C249 0.949 . S
H274 C251 0.950 . S
H275 C253 0.950 . S
C276 C277 1.349 . S
C276 C278 1.327 . S
C276 H301 0.950 . S
C277 C276 1.349 . S
C277 C293 1.349 . S
C278 C276 1.327 . S
C278 C297 1.429 . S
C278 H302 0.950 . S
C279 C296 1.574 . S
C279 C298 1.368 . S
C279 H303 0.949 . S
H280 C284 0.949 . S
C281 C282 1.349 . S
C281 C283 1.327 . S
C281 H304 0.950 . S
C282 C281 1.349 . S
C282 C294 1.349 . S
C283 C281 1.327 . S
C283 C299 1.429 . S
C283 H305 0.950 . S
C284 H280 0.949 . S
C284 C292 1.574 1_554 S
C284 C300 1.368 . S
H285 C293 0.950 . S
H286 C291 0.950 . S
H287 C292 0.949 . S
H288 C294 0.950 . S
H289 C295 0.950 . S
H290 C296 0.949 . S
C291 H286 0.950 . S
C291 C293 1.327 . S
C291 C297 1.429 . S
C292 C284 1.574 1_556 S
C292 H287 0.949 . S
C292 C298 1.368 . S
C293 C277 1.349 . S
C293 H285 0.950 . S
C293 C291 1.327 . S
C294 C282 1.349 . S
C294 H288 0.950 . S
C294 C295 1.327 . S
C295 H289 0.950 . S
C295 C294 1.327 . S
C295 C299 1.429 . S
C296 C279 1.574 . S
C296 H290 0.949 . S
C296 C300 1.368 1_556 S
C297 C278 1.429 . S
C297 C291 1.429 . S
C297 C298 1.523 . S
C298 C279 1.368 . S
C298 C292 1.368 . S
C298 C297 1.523 . S
C299 C283 1.429 . S
C299 C295 1.429 . S
C299 C300 1.523 . S
C300 C284 1.368 . S
C300 C296 1.368 1_554 S
C300 C299 1.523 . S
H301 C276 0.950 . S
H302 C278 0.950 . S
H303 C279 0.949 . S
H304 C281 0.950 . S
H305 C283 0.950 . S
C306 C307 1.349 . S
C306 C308 1.327 . S
C306 H331 0.950 . S
C307 C306 1.349 . S
C307 C323 1.349 . S
C308 C306 1.327 . S
C308 C327 1.429 . S
C308 H332 0.950 . S
C309 C326 1.574 . S
C309 C328 1.368 . S
C309 H333 0.949 . S
H310 C314 0.949 . S
C311 C312 1.349 1_554 S
C311 C313 1.327 . S
C311 H334 0.950 . S
C312 C311 1.349 1_556 S
C312 C324 1.349 . S
C313 C311 1.327 . S
C313 C329 1.429 . S
C313 H335 0.950 . S
C314 H310 0.949 . S
C314 C322 1.574 . S
C314 C330 1.368 . S
H315 C323 0.950 . S
H316 C321 0.950 . S
H317 C322 0.949 . S
H318 C324 0.950 . S
H319 C325 0.950 . S
H320 C326 0.949 . S
C321 H316 0.950 . S
C321 C323 1.327 . S
C321 C327 1.429 . S
C322 C314 1.574 . S
C322 H317 0.949 . S
C322 C328 1.368 . S
C323 C307 1.349 . S
C323 H315 0.950 . S
C323 C321 1.327 . S
C324 C312 1.349 . S
C324 H318 0.950 . S
C324 C325 1.327 . S
C325 H319 0.950 . S
C325 C324 1.327 . S
C325 C329 1.429 1_556 S
C326 C309 1.574 . S
C326 H320 0.949 . S
C326 C330 1.368 . S
C327 C308 1.429 . S
C327 C321 1.429 . S
C327 C328 1.523 . S
C328 C309 1.368 . S
C328 C322 1.368 . S
C328 C327 1.523 . S
C329 C313 1.429 . S
C329 C325 1.429 1_554 S
C329 C330 1.523 . S
C330 C314 1.368 . S
C330 C326 1.368 . S
C330 C329 1.523 . S
H331 C306 0.950 . S
H332 C308 0.950 . S
H333 C309 0.949 . S
H334 C311 0.950 . S
H335 C313 0.950 . S
C336 C337 1.349 . S
C336 C338 1.327 . S
C336 H361 0.950 . S
C337 C336 1.349 . S
C337 C353 1.349 . S
C338 C336 1.327 . S
C338 C357 1.429 . S
C338 H362 0.950 . S
C339 C356 1.574 . S
C339 C358 1.368 . S
C339 H363 0.949 . S
H340 C344 0.949 . S
C341 C342 1.349 . S
C341 C343 1.327 . S
C341 H364 0.950 . S
C342 C341 1.349 . S
C342 C354 1.349 . S
C343 C341 1.327 . S
C343 C359 1.429 . S
C343 H365 0.950 . S
C344 H340 0.949 . S
C344 C352 1.574 . S
C344 C360 1.368 . S
H345 C353 0.950 . S
H346 C351 0.950 . S
H347 C352 0.949 . S
H348 C354 0.950 . S
H349 C355 0.950 . S
H350 C356 0.949 . S
C351 H346 0.950 . S
C351 C353 1.327 . S
C351 C357 1.429 . S
C352 C344 1.574 . S
C352 H347 0.949 . S
C352 C358 1.368 . S
C353 C337 1.349 . S
C353 H345 0.950 . S
C353 C351 1.327 . S
C354 C342 1.349 . S
C354 H348 0.950 . S
C354 C355 1.327 . S
C355 H349 0.950 . S
C355 C354 1.327 . S
C355 C359 1.429 . S
C356 C339 1.574 . S
C356 H350 0.949 . S
C356 C360 1.368 . S
C357 C338 1.429 . S
C357 C351 1.429 . S
C357 C358 1.523 . S
C358 C339 1.368 . S
C358 C352 1.368 . S
C358 C357 1.523 . S
C359 C343 1.429 . S
C359 C355 1.429 . S
C359 C360 1.523 . S
C360 C344 1.368 . S
C360 C356 1.368 . S
C360 C359 1.523 . S
H361 C336 0.950 . S
H362 C338 0.950 . S
H363 C339 0.949 . S
H364 C341 0.950 . S
H365 C343 0.950 . S
C366 C367 1.349 . S
C366 C368 1.327 . S
C366 H391 0.950 . S
C367 C366 1.349 . S
C367 C383 1.349 . S
C368 C366 1.327 . S
C368 C387 1.429 . S
C368 H392 0.950 . S
C369 C386 1.574 . S
C369 C388 1.368 . S
C369 H393 0.949 . S
H370 C374 0.949 . S
C371 C372 1.349 . S
C371 C373 1.327 . S
C371 H394 0.950 . S
C372 C371 1.349 . S
C372 C384 1.349 . S
C373 C371 1.327 . S
C373 C389 1.429 . S
C373 H395 0.950 . S
C374 H370 0.949 . S
C374 C382 1.574 . S
C374 C390 1.368 . S
H375 C383 0.950 . S
H376 C381 0.950 . S
H377 C382 0.949 . S
H378 C384 0.950 . S
H379 C385 0.950 . S
H380 C386 0.949 . S
C381 H376 0.950 . S
C381 C383 1.327 . S
C381 C387 1.429 . S
C382 C374 1.574 . S
C382 H377 0.949 . S
C382 C388 1.368 . S
C383 C367 1.349 . S
C383 H375 0.950 . S
C383 C381 1.327 . S
C384 C372 1.349 . S
C384 H378 0.950 . S
C384 C385 1.327 . S
C385 H379 0.950 . S
C385 C384 1.327 . S
C385 C389 1.429 . S
C386 C369 1.574 . S
C386 H380 0.949 . S
C386 C390 1.368 . S
C387 C368 1.429 . S
C387 C381 1.429 . S
C387 C388 1.523 . S
C388 C369 1.368 . S
C388 C382 1.368 . S
C388 C387 1.523 . S
C389 C373 1.429 . S
C389 C385 1.429 . S
C389 C390 1.523 . S
C390 C374 1.368 . S
C390 C386 1.368 . S
C390 C389 1.523 . S
H391 C366 0.950 . S
H392 C368 0.950 . S
H393 C369 0.949 . S
H394 C371 0.950 . S
H395 C373 0.950 . S
C396 C397 1.349 . S
C396 C398 1.327 . S
C396 H421 0.950 . S
C397 C396 1.349 . S
C397 C413 1.349 . S
C398 C396 1.327 . S
C398 C417 1.429 . S
C398 H422 0.950 . S
C399 C416 1.574 . S
C399 C418 1.368 . S
C399 H423 0.949 . S
H400 C404 0.949 . S
C401 C402 1.349 . S
C401 C403 1.327 . S
C401 H424 0.950 . S
C402 C401 1.349 . S
C402 C414 1.349 . S
C403 C401 1.327 . S
C403 C419 1.429 . S
C403 H425 0.950 . S
C404 H400 0.949 . S
C404 C412 1.574 . S
C404 C420 1.368 . S
H405 C413 0.950 . S
H406 C411 0.950 . S
H407 C412 0.949 . S
H408 C414 0.950 . S
H409 C415 0.950 . S
H410 C416 0.949 . S
C411 H406 0.950 . S
C411 C413 1.327 . S
C411 C417 1.429 . S
C412 C404 1.574 . S
C412 H407 0.949 . S
C412 C418 1.368 . S
C413 C397 1.349 . S
C413 H405 0.950 . S
C413 C411 1.327 . S
C414 C402 1.349 . S
C414 H408 0.950 . S
C414 C415 1.327 . S
C415 H409 0.950 . S
C415 C414 1.327 . S
C415 C419 1.429 . S
C416 C399 1.574 . S
C416 H410 0.949 . S
C416 C420 1.368 . S
C417 C398 1.429 . S
C417 C411 1.429 . S
C417 C418 1.523 . S
C418 C399 1.368 . S
C418 C412 1.368 . S
C418 C417 1.523 . S
C419 C403 1.429 . S
C419 C415 1.429 . S
C419 C420 1.523 . S
C420 C404 1.368 . S
C420 C416 1.368 . S
C420 C419 1.523 . S
H421 C396 0.950 . S
H422 C398 0.950 . S
H423 C399 0.949 . S
H424 C401 0.950 . S
H425 C403 0.950 . S
C426 C427 1.349 . S
C426 C428 1.327 . S
C426 H451 0.950 . S
C427 C426 1.349 . S
C427 C443 1.349 . S
C428 C426 1.327 . S
C428 C447 1.429 . S
C428 H452 0.950 . S
C429 C446 1.574 . S
C429 C448 1.368 . S
C429 H453 0.949 . S
H430 C434 0.949 . S
C431 C432 1.349 . S
C431 C433 1.327 . S
C431 H454 0.950 . S
C432 C431 1.349 . S
C432 C444 1.349 . S
C433 C431 1.327 . S
C433 C449 1.429 . S
C433 H455 0.950 . S
C434 H430 0.949 . S
C434 C442 1.574 . S
C434 C450 1.368 . S
H435 C443 0.950 . S
H436 C441 0.950 . S
H437 C442 0.949 . S
H438 C444 0.950 . S
H439 C445 0.950 . S
H440 C446 0.949 . S
C441 H436 0.950 . S
C441 C443 1.327 . S
C441 C447 1.429 . S
C442 C434 1.574 . S
C442 H437 0.949 . S
C442 C448 1.368 . S
C443 C427 1.349 . S
C443 H435 0.950 . S
C443 C441 1.327 . S
C444 C432 1.349 . S
C444 H438 0.950 . S
C444 C445 1.327 . S
C445 H439 0.950 . S
C445 C444 1.327 . S
C445 C449 1.429 . S
C446 C429 1.574 . S
C446 H440 0.949 . S
C446 C450 1.368 . S
C447 C428 1.429 . S
C447 C441 1.429 . S
C447 C448 1.523 . S
C448 C429 1.368 . S
C448 C442 1.368 . S
C448 C447 1.523 . S
C449 C433 1.429 . S
C449 C445 1.429 . S
C449 C450 1.523 . S
C450 C434 1.368 . S
C450 C446 1.368 . S
C450 C449 1.523 . S
H451 C426 0.950 . S
H452 C428 0.950 . S
H453 C429 0.949 . S
H454 C431 0.950 . S
H455 C433 0.950 . S
C456 C457 1.349 . S
C456 C458 1.327 . S
C456 H481 0.950 . S
C457 C456 1.349 . S
C457 C473 1.349 . S
C458 C456 1.327 . S
C458 C477 1.429 . S
C458 H482 0.950 . S
C459 C476 1.574 . S
C459 C478 1.368 . S
C459 H483 0.949 . S
H460 C464 0.949 . S
C461 C462 1.349 . S
C461 C463 1.327 . S
C461 H484 0.950 . S
C462 C461 1.349 . S
C462 C474 1.349 . S
C463 C461 1.327 . S
C463 C479 1.429 . S
C463 H485 0.950 . S
C464 H460 0.949 . S
C464 C472 1.574 . S
C464 C480 1.368 . S
H465 C473 0.950 . S
H466 C471 0.950 . S
H467 C472 0.949 . S
H468 C474 0.950 . S
H469 C475 0.950 . S
H470 C476 0.949 . S
C471 H466 0.950 . S
C471 C473 1.327 . S
C471 C477 1.429 . S
C472 C464 1.574 . S
C472 H467 0.949 . S
C472 C478 1.368 . S
C473 C457 1.349 . S
C473 H465 0.950 . S
C473 C471 1.327 . S
C474 C462 1.349 . S
C474 H468 0.950 . S
C474 C475 1.327 . S
C475 H469 0.950 . S
C475 C474 1.327 . S
C475 C479 1.429 . S
C476 C459 1.574 . S
C476 H470 0.949 . S
C476 C480 1.368 . S
C477 C458 1.429 . S
C477 C471 1.429 . S
C477 C478 1.523 . S
C478 C459 1.368 . S
C478 C472 1.368 . S
C478 C477 1.523 . S
C479 C463 1.429 . S
C479 C475 1.429 . S
C479 C480 1.523 . S
C480 C464 1.368 . S
C480 C476 1.368 . S
C480 C479 1.523 . S
H481 C456 0.950 . S
H482 C458 0.950 . S
H483 C459 0.949 . S
H484 C461 0.950 . S
H485 C463 0.950 . S
C486 C487 1.349 . S
C486 C488 1.327 . S
C486 H511 0.950 . S
C487 C486 1.349 . S
C487 C503 1.349 . S
C488 C486 1.327 . S
C488 C507 1.429 . S
C488 H512 0.950 . S
C489 C506 1.574 1_556 S
C489 C508 1.368 . S
C489 H513 0.949 1_556 S
H490 C494 0.949 . S
C491 C492 1.349 . S
C491 C493 1.327 . S
C491 H514 0.950 . S
C492 C491 1.349 . S
C492 C504 1.349 1_554 S
C493 C491 1.327 . S
C493 C509 1.429 1_554 S
C493 H515 0.950 . S
C494 H490 0.949 . S
C494 C502 1.574 . S
C494 C510 1.368 . S
H495 C503 0.950 . S
H496 C501 0.950 . S
H497 C502 0.949 . S
H498 C504 0.950 . S
H499 C505 0.950 . S
H500 C506 0.949 . S
C501 H496 0.950 . S
C501 C503 1.327 . S
C501 C507 1.429 . S
C502 C494 1.574 . S
C502 H497 0.949 . S
C502 C508 1.368 . S
C503 C487 1.349 . S
C503 H495 0.950 . S
C503 C501 1.327 . S
C504 C492 1.349 1_556 S
C504 H498 0.950 . S
C504 C505 1.327 . S
C505 H499 0.950 . S
C505 C504 1.327 . S
C505 C509 1.429 . S
C506 C489 1.574 1_554 S
C506 H500 0.949 . S
C506 C510 1.368 1_554 S
C507 C488 1.429 . S
C507 C501 1.429 . S
C507 C508 1.523 . S
C508 C489 1.368 . S
C508 C502 1.368 . S
C508 C507 1.523 . S
C509 C493 1.429 1_556 S
C509 C505 1.429 . S
C509 C510 1.523 . S
C510 C494 1.368 . S
C510 C506 1.368 1_556 S
C510 C509 1.523 . S
H511 C486 0.950 . S
H512 C488 0.950 . S
H513 C489 0.949 1_554 S
H514 C491 0.950 . S
H515 C493 0.950 . S
C516 C517 1.349 . S
C516 C518 1.327 . S
C516 H541 0.950 . S
C517 C516 1.349 . S
C517 C533 1.349 . S
C518 C516 1.327 . S
C518 C537 1.429 . S
C518 H542 0.950 . S
C519 C536 1.574 . S
C519 C538 1.368 . S
C519 H543 0.949 . S
H520 C524 0.949 . S
C521 C522 1.349 . S
C521 C523 1.327 . S
C521 H544 0.950 . S
C522 C521 1.349 . S
C522 C534 1.349 . S
C523 C521 1.327 . S
C523 C539 1.429 . S
C523 H545 0.950 . S
C524 H520 0.949 . S
C524 C532 1.574 . S
C524 C540 1.368 . S
H525 C533 0.950 . S
H526 C531 0.950 . S
H527 C532 0.949 . S
H528 C534 0.950 . S
H529 C535 0.950 . S
H530 C536 0.949 . S
C531 H526 0.950 . S
C531 C533 1.327 . S
C531 C537 1.429 . S
C532 C524 1.574 . S
C532 H527 0.949 . S
C532 C538 1.368 . S
C533 C517 1.349 . S
C533 H525 0.950 . S
C533 C531 1.327 . S
C534 C522 1.349 . S
C534 H528 0.950 . S
C534 C535 1.327 . S
C535 H529 0.950 . S
C535 C534 1.327 . S
C535 C539 1.429 . S
C536 C519 1.574 . S
C536 H530 0.949 . S
C536 C540 1.368 . S
C537 C518 1.429 . S
C537 C531 1.429 . S
C537 C538 1.523 . S
C538 C519 1.368 . S
C538 C532 1.368 . S
C538 C537 1.523 . S
C539 C523 1.429 . S
C539 C535 1.429 . S
C539 C540 1.523 . S
C540 C524 1.368 . S
C540 C536 1.368 . S
C540 C539 1.523 . S
H541 C516 0.950 . S
H542 C518 0.950 . S
H543 C519 0.949 . S
H544 C521 0.950 . S
H545 C523 0.950 . S
C546 C547 1.349 . S
C546 C548 1.327 . S
C546 H571 0.950 . S
C547 C546 1.349 . S
C547 C563 1.349 . S
C548 C546 1.327 . S
C548 C567 1.429 . S
C548 H572 0.950 . S
C549 C566 1.574 1_554 S
C549 C568 1.368 . S
C549 H573 0.949 . S
H550 C554 0.949 . S
C551 C552 1.349 . S
C551 C553 1.327 . S
C551 H574 0.950 . S
C552 C551 1.349 . S
C552 C564 1.349 . S
C553 C551 1.327 . S
C553 C569 1.429 . S
C553 H575 0.950 . S
C554 H550 0.949 . S
C554 C562 1.574 . S
C554 C570 1.368 . S
H555 C563 0.950 . S
H556 C561 0.950 . S
H557 C562 0.949 . S
H558 C564 0.950 . S
H559 C565 0.950 . S
H560 C566 0.949 . S
C561 H556 0.950 . S
C561 C563 1.327 . S
C561 C567 1.429 . S
C562 C554 1.574 . S
C562 H557 0.949 . S
C562 C568 1.368 1_556 S
C563 C547 1.349 . S
C563 H555 0.950 . S
C563 C561 1.327 . S
C564 C552 1.349 . S
C564 H558 0.950 . S
C564 C565 1.327 . S
C565 H559 0.950 . S
C565 C564 1.327 . S
C565 C569 1.429 . S
C566 C549 1.574 1_556 S
C566 H560 0.949 . S
C566 C570 1.368 . S
C567 C548 1.429 . S
C567 C561 1.429 . S
C567 C568 1.523 . S
C568 C549 1.368 . S
C568 C562 1.368 1_554 S
C568 C567 1.523 . S
C569 C553 1.429 . S
C569 C565 1.429 . S
C569 C570 1.523 . S
C570 C554 1.368 . S
C570 C566 1.368 . S
C570 C569 1.523 . S
H571 C546 0.950 . S
H572 C548 0.950 . S
H573 C549 0.949 . S
H574 C551 0.950 . S
H575 C553 0.950 . S
C576 C577 1.349 . S
C576 C578 1.327 . S
C576 H601 0.950 . S
C577 C576 1.349 . S
C577 C593 1.349 . S
C578 C576 1.327 . S
C578 C597 1.429 . S
C578 H602 0.950 . S
C579 C596 1.574 . S
C579 C598 1.368 . S
C579 H603 0.949 . S
H580 C584 0.949 . S
C581 C582 1.349 . S
C581 C583 1.327 . S
C581 H604 0.950 . S
C582 C581 1.349 . S
C582 C594 1.349 1_556 S
C583 C581 1.327 . S
C583 C599 1.429 1_556 S
C583 H605 0.950 . S
C584 H580 0.949 . S
C584 C592 1.574 . S
C584 C600 1.368 . S
H585 C593 0.950 . S
H586 C591 0.950 . S
H587 C592 0.949 . S
H588 C594 0.950 . S
H589 C595 0.950 . S
H590 C596 0.949 . S
C591 H586 0.950 . S
C591 C593 1.327 . S
C591 C597 1.429 . S
C592 C584 1.574 . S
C592 H587 0.949 . S
C592 C598 1.368 . S
C593 C577 1.349 . S
C593 H585 0.950 . S
C593 C591 1.327 . S
C594 C582 1.349 1_554 S
C594 H588 0.950 . S
C594 C595 1.327 . S
C595 H589 0.950 . S
C595 C594 1.327 . S
C595 C599 1.429 . S
C596 C579 1.574 . S
C596 H590 0.949 . S
C596 C600 1.368 . S
C597 C578 1.429 . S
C597 C591 1.429 . S
C597 C598 1.523 . S
C598 C579 1.368 . S
C598 C592 1.368 . S
C598 C597 1.523 . S
C599 C583 1.429 1_554 S
C599 C595 1.429 . S
C599 C600 1.523 . S
C600 C584 1.368 . S
C600 C596 1.368 . S
C600 C599 1.523 . S
H601 C576 0.950 . S
H602 C578 0.950 . S
H603 C579 0.949 . S
H604 C581 0.950 . S
H605 C583 0.950 . S
C606 C607 1.349 . S
C606 C608 1.327 . S
C606 H631 0.950 . S
C607 C606 1.349 . S
C607 C623 1.349 . S
C608 C606 1.327 . S
C608 C627 1.429 . S
C608 H632 0.950 . S
C609 C626 1.574 . S
C609 C628 1.368 . S
C609 H633 0.949 . S
H610 C614 0.949 . S
C611 C612 1.349 . S
C611 C613 1.327 . S
C611 H634 0.950 . S
C612 C611 1.349 . S
C612 C624 1.349 . S
C613 C611 1.327 . S
C613 C629 1.429 . S
C613 H635 0.950 . S
C614 H610 0.949 . S
C614 C622 1.574 . S
C614 C630 1.368 . S
H615 C623 0.950 . S
H616 C621 0.950 . S
H617 C622 0.949 . S
H618 C624 0.950 . S
H619 C625 0.950 . S
H620 C626 0.949 . S
C621 H616 0.950 . S
C621 C623 1.327 . S
C621 C627 1.429 . S
C622 C614 1.574 . S
C622 H617 0.949 . S
C622 C628 1.368 . S
C623 C607 1.349 . S
C623 H615 0.950 . S
C623 C621 1.327 . S
C624 C612 1.349 . S
C624 H618 0.950 . S
C624 C625 1.327 . S
C625 H619 0.950 . S
C625 C624 1.327 . S
C625 C629 1.429 . S
C626 C609 1.574 . S
C626 H620 0.949 . S
C626 C630 1.368 . S
C627 C608 1.429 . S
C627 C621 1.429 . S
C627 C628 1.523 . S
C628 C609 1.368 . S
C628 C622 1.368 . S
C628 C627 1.523 . S
C629 C613 1.429 . S
C629 C625 1.429 . S
C629 C630 1.523 . S
C630 C614 1.368 . S
C630 C626 1.368 . S
C630 C629 1.523 . S
H631 C606 0.950 . S
H632 C608 0.950 . S
H633 C609 0.949 . S
H634 C611 0.950 . S
H635 C613 0.950 . S
C636 C637 1.349 . S
C636 C638 1.327 . S
C636 H661 0.950 . S
C637 C636 1.349 . S
C637 C653 1.349 . S
C638 C636 1.327 . S
C638 C657 1.429 . S
C638 H662 0.950 . S
C639 C656 1.574 . S
C639 C658 1.368 . S
C639 H663 0.949 . S
H640 C644 0.949 . S
C641 C642 1.349 . S
C641 C643 1.327 . S
C641 H664 0.950 . S
C642 C641 1.349 . S
C642 C654 1.349 . S
C643 C641 1.327 . S
C643 C659 1.429 . S
C643 H665 0.950 . S
C644 H640 0.949 . S
C644 C652 1.574 . S
C644 C660 1.368 . S
H645 C653 0.950 . S
H646 C651 0.950 . S
H647 C652 0.949 . S
H648 C654 0.950 . S
H649 C655 0.950 . S
H650 C656 0.949 . S
C651 H646 0.950 . S
C651 C653 1.327 . S
C651 C657 1.429 . S
C652 C644 1.574 . S
C652 H647 0.949 . S
C652 C658 1.368 . S
C653 C637 1.349 . S
C653 H645 0.950 . S
C653 C651 1.327 . S
C654 C642 1.349 . S
C654 H648 0.950 . S
C654 C655 1.327 . S
C655 H649 0.950 . S
C655 C654 1.327 . S
C655 C659 1.429 . S
C656 C639 1.574 . S
C656 H650 0.949 . S
C656 C660 1.368 . S
C657 C638 1.429 . S
C657 C651 1.429 . S
C657 C658 1.523 . S
C658 C639 1.368 . S
C658 C652 1.368 . S
C658 C657 1.523 . S
C659 C643 1.429 . S
C659 C655 1.429 . S
C659 C660 1.523 . S
C660 C644 1.368 . S
C660 C656 1.368 . S
C660 C659 1.523 . S
H661 C636 0.950 . S
H662 C638 0.950 . S
H663 C639 0.949 . S
H664 C641 0.950 . S
H665 C643 0.950 . S
C666 C667 1.349 . S
C666 C668 1.327 . S
C666 H691 0.950 . S
C667 C666 1.349 . S
C667 C683 1.349 . S
C668 C666 1.327 . S
C668 C687 1.429 . S
C668 H692 0.950 . S
C669 C686 1.574 . S
C669 C688 1.368 . S
C669 H693 0.949 . S
H670 C674 0.949 . S
C671 C672 1.349 . S
C671 C673 1.327 . S
C671 H694 0.950 . S
C672 C671 1.349 . S
C672 C684 1.349 . S
C673 C671 1.327 . S
C673 C689 1.429 . S
C673 H695 0.950 . S
C674 H670 0.949 . S
C674 C682 1.574 . S
C674 C690 1.368 . S
H675 C683 0.950 . S
H676 C681 0.950 . S
H677 C682 0.949 . S
H678 C684 0.950 . S
H679 C685 0.950 . S
H680 C686 0.949 . S
C681 H676 0.950 . S
C681 C683 1.327 . S
C681 C687 1.429 . S
C682 C674 1.574 . S
C682 H677 0.949 . S
C682 C688 1.368 . S
C683 C667 1.349 . S
C683 H675 0.950 . S
C683 C681 1.327 . S
C684 C672 1.349 . S
C684 H678 0.950 . S
C684 C685 1.327 . S
C685 H679 0.950 . S
C685 C684 1.327 . S
C685 C689 1.429 . S
C686 C669 1.574 . S
C686 H680 0.949 . S
C686 C690 1.368 . S
C687 C668 1.429 . S
C687 C681 1.429 . S
C687 C688 1.523 . S
C688 C669 1.368 . S
C688 C682 1.368 . S
C688 C687 1.523 . S
C689 C673 1.429 . S
C689 C685 1.429 . S
C689 C690 1.523 . S
C690 C674 1.368 . S
C690 C686 1.368 . S
C690 C689 1.523 . S
H691 C666 0.950 . S
H692 C668 0.950 . S
H693 C669 0.949 . S
H694 C671 0.950 . S
H695 C673 0.950 . S
C696 C697 1.349 . S
C696 C698 1.327 . S
C696 H721 0.950 . S
C697 C696 1.349 . S
C697 C713 1.349 . S
C698 C696 1.327 . S
C698 C717 1.429 . S
C698 H722 0.950 . S
C699 C716 1.574 1_455 S
C699 C718 1.368 . S
C699 H723 0.949 . S
H700 C704 0.949 . S
C701 C702 1.349 . S
C701 C703 1.327 . S
C701 H724 0.950 . S
C702 C701 1.349 . S
C702 C714 1.349 . S
C703 C701 1.327 . S
C703 C719 1.429 . S
C703 H725 0.950 . S
C704 H700 0.949 . S
C704 C712 1.574 1_655 S
C704 C720 1.368 . S
H705 C713 0.950 . S
H706 C711 0.950 . S
H707 C712 0.949 . S
H708 C714 0.950 . S
H709 C715 0.950 . S
H710 C716 0.949 . S
C711 H706 0.950 . S
C711 C713 1.327 . S
C711 C717 1.429 . S
C712 C704 1.574 1_455 S
C712 H707 0.949 . S
C712 C718 1.368 . S
C713 C697 1.349 . S
C713 H705 0.950 . S
C713 C711 1.327 . S
C714 C702 1.349 . S
C714 H708 0.950 . S
C714 C715 1.327 . S
C715 H709 0.950 . S
C715 C714 1.327 . S
C715 C719 1.429 . S
C716 C699 1.574 1_655 S
C716 H710 0.949 . S
C716 C720 1.368 . S
C717 C698 1.429 . S
C717 C711 1.429 . S
C717 C718 1.523 . S
C718 C699 1.368 . S
C718 C712 1.368 . S
C718 C717 1.523 . S
C719 C703 1.429 . S
C719 C715 1.429 . S
C719 C720 1.523 . S
C720 C704 1.368 . S
C720 C716 1.368 . S
C720 C719 1.523 . S
H721 C696 0.950 . S
H722 C698 0.950 . S
H723 C699 0.949 . S
H724 C701 0.950 . S
H725 C703 0.950 . S
C726 C727 1.349 . S
C726 C728 1.327 . S
C726 H751 0.950 . S
C727 C726 1.349 . S
C727 C743 1.349 . S
C728 C726 1.327 . S
C728 C747 1.429 . S
C728 H752 0.950 1_556 S
C729 C746 1.574 1_566 S
C729 C748 1.368 1_556 S
C729 H753 0.949 . S
H730 C734 0.949 . S
C731 C732 1.349 . S
C731 C733 1.327 . S
C731 H754 0.950 . S
C732 C731 1.349 . S
C732 C744 1.349 . S
C733 C731 1.327 . S
C733 C749 1.429 . S
C733 H755 0.950 . S
C734 H730 0.949 . S
C734 C742 1.574 1_545 S
C734 C750 1.368 . S
H735 C743 0.950 . S
H736 C741 0.950 . S
H737 C742 0.949 . S
H738 C744 0.950 . S
H739 C745 0.950 . S
H740 C746 0.949 . S
C741 H736 0.950 . S
C741 C743 1.327 . S
C741 C747 1.429 . S
C742 C734 1.574 1_565 S
C742 H737 0.949 . S
C742 C748 1.368 . S
C743 C727 1.349 . S
C743 H735 0.950 . S
C743 C741 1.327 . S
C744 C732 1.349 . S
C744 H738 0.950 . S
C744 C745 1.327 . S
C745 H739 0.950 . S
C745 C744 1.327 . S
C745 C749 1.429 . S
C746 C729 1.574 1_544 S
C746 H740 0.949 . S
C746 C750 1.368 . S
C747 C728 1.429 . S
C747 C741 1.429 . S
C747 C748 1.523 1_556 S
C748 C729 1.368 1_554 S
C748 C742 1.368 . S
C748 C747 1.523 1_554 S
C749 C733 1.429 . S
C749 C745 1.429 . S
C749 C750 1.523 . S
C750 C734 1.368 . S
C750 C746 1.368 . S
C750 C749 1.523 . S
H751 C726 0.950 . S
H752 C728 0.950 1_554 S
H753 C729 0.949 . S
H754 C731 0.950 . S
H755 C733 0.950 . S
C756 C757 1.349 . S
C756 C758 1.327 . S
C756 H781 0.950 . S
C757 C756 1.349 . S
C757 C773 1.349 . S
C758 C756 1.327 . S
C758 C777 1.429 . S
C758 H782 0.950 . S
C759 C776 1.574 . S
C759 C778 1.368 . S
C759 H783 0.949 . S
H760 C764 0.949 . S
C761 C762 1.349 . S
C761 C763 1.327 . S
C761 H784 0.950 . S
C762 C761 1.349 . S
C762 C774 1.349 . S
C763 C761 1.327 . S
C763 C779 1.429 . S
C763 H785 0.950 . S
C764 H760 0.949 . S
C764 C772 1.574 . S
C764 C780 1.368 . S
H765 C773 0.950 . S
H766 C771 0.950 . S
H767 C772 0.949 . S
H768 C774 0.950 . S
H769 C775 0.950 . S
H770 C776 0.949 . S
C771 H766 0.950 . S
C771 C773 1.327 . S
C771 C777 1.429 . S
C772 C764 1.574 . S
C772 H767 0.949 . S
C772 C778 1.368 . S
C773 C757 1.349 . S
C773 H765 0.950 . S
C773 C771 1.327 . S
C774 C762 1.349 . S
C774 H768 0.950 . S
C774 C775 1.327 . S
C775 H769 0.950 . S
C775 C774 1.327 . S
C775 C779 1.429 . S
C776 C759 1.574 . S
C776 H770 0.949 . S
C776 C780 1.368 . S
C777 C758 1.429 . S
C777 C771 1.429 . S
C777 C778 1.523 . S
C778 C759 1.368 . S
C778 C772 1.368 . S
C778 C777 1.523 . S
C779 C763 1.429 . S
C779 C775 1.429 . S
C779 C780 1.523 . S
C780 C764 1.368 . S
C780 C776 1.368 . S
C780 C779 1.523 . S
H781 C756 0.950 . S
H782 C758 0.950 . S
H783 C759 0.949 . S
H784 C761 0.950 . S
H785 C763 0.950 . S
C786 C787 1.349 . S
C786 C788 1.327 . S
C786 H811 0.950 . S
C787 C786 1.349 . S
C787 C803 1.349 . S
C788 C786 1.327 . S
C788 C807 1.429 . S
C788 H812 0.950 . S
C789 C806 1.574 1_455 S
C789 C808 1.368 . S
C789 H813 0.949 . S
H790 C794 0.949 . S
C791 C792 1.349 . S
C791 C793 1.327 . S
C791 H814 0.950 . S
C792 C791 1.349 . S
C792 C804 1.349 . S
C793 C791 1.327 . S
C793 C809 1.429 . S
C793 H815 0.950 . S
C794 H790 0.949 . S
C794 C802 1.574 1_655 S
C794 C810 1.368 . S
H795 C803 0.950 . S
H796 C801 0.950 . S
H797 C802 0.949 . S
H798 C804 0.950 . S
H799 C805 0.950 . S
H800 C806 0.949 . S
C801 H796 0.950 . S
C801 C803 1.327 . S
C801 C807 1.429 . S
C802 C794 1.574 1_455 S
C802 H797 0.949 . S
C802 C808 1.368 . S
C803 C787 1.349 . S
C803 H795 0.950 . S
C803 C801 1.327 . S
C804 C792 1.349 . S
C804 H798 0.950 . S
C804 C805 1.327 . S
C805 H799 0.950 . S
C805 C804 1.327 . S
C805 C809 1.429 . S
C806 C789 1.574 1_655 S
C806 H800 0.949 . S
C806 C810 1.368 . S
C807 C788 1.429 . S
C807 C801 1.429 . S
C807 C808 1.523 . S
C808 C789 1.368 . S
C808 C802 1.368 . S
C808 C807 1.523 . S
C809 C793 1.429 . S
C809 C805 1.429 . S
C809 C810 1.523 . S
C810 C794 1.368 . S
C810 C806 1.368 . S
C810 C809 1.523 . S
H811 C786 0.950 . S
H812 C788 0.950 . S
H813 C789 0.949 . S
H814 C791 0.950 . S
H815 C793 0.950 . S
C816 C817 1.349 . S
C816 C818 1.327 . S
C816 H841 0.950 . S
C817 C816 1.349 . S
C817 C833 1.349 . S
C818 C816 1.327 . S
C818 C837 1.429 . S
C818 H842 0.950 . S
C819 C836 1.574 . S
C819 C838 1.368 1_565 S
C819 H843 0.949 . S
H820 C824 0.949 . S
C821 C822 1.349 . S
C821 C823 1.327 . S
C821 H844 0.950 . S
C822 C821 1.349 . S
C822 C834 1.349 . S
C823 C821 1.327 . S
C823 C839 1.429 . S
C823 H845 0.950 . S
C824 H820 0.949 . S
C824 C832 1.574 . S
C824 C840 1.368 1_545 S
H825 C833 0.950 . S
H826 C831 0.950 . S
H827 C832 0.949 . S
H828 C834 0.950 . S
H829 C835 0.950 . S
H830 C836 0.949 . S
C831 H826 0.950 . S
C831 C833 1.327 . S
C831 C837 1.429 . S
C832 C824 1.574 . S
C832 H827 0.949 . S
C832 C838 1.368 . S
C833 C817 1.349 . S
C833 H825 0.950 . S
C833 C831 1.327 . S
C834 C822 1.349 . S
C834 H828 0.950 . S
C834 C835 1.327 . S
C835 H829 0.950 . S
C835 C834 1.327 . S
C835 C839 1.429 . S
C836 C819 1.574 . S
C836 H830 0.949 . S
C836 C840 1.368 . S
C837 C818 1.429 . S
C837 C831 1.429 . S
C837 C838 1.523 . S
C838 C819 1.368 1_545 S
C838 C832 1.368 . S
C838 C837 1.523 . S
C839 C823 1.429 . S
C839 C835 1.429 . S
C839 C840 1.523 . S
C840 C824 1.368 1_565 S
C840 C836 1.368 . S
C840 C839 1.523 . S
H841 C816 0.950 . S
H842 C818 0.950 . S
H843 C819 0.949 . S
H844 C821 0.950 . S
H845 C823 0.950 . S
C846 C847 1.349 . S
C846 C848 1.327 . S
C846 H871 0.950 . S
C847 C846 1.349 . S
C847 C863 1.349 . S
C848 C846 1.327 . S
C848 C867 1.429 . S
C848 H872 0.950 . S
C849 C866 1.574 . S
C849 C868 1.368 . S
C849 H873 0.949 . S
H850 C854 0.949 . S
C851 C852 1.349 . S
C851 C853 1.327 . S
C851 H874 0.950 . S
C852 C851 1.349 . S
C852 C864 1.349 . S
C853 C851 1.327 . S
C853 C869 1.429 . S
C853 H875 0.950 . S
C854 H850 0.949 . S
C854 C862 1.574 . S
C854 C870 1.368 . S
H855 C863 0.950 . S
H856 C861 0.950 . S
H857 C862 0.949 . S
H858 C864 0.950 . S
H859 C865 0.950 . S
H860 C866 0.949 . S
C861 H856 0.950 . S
C861 C863 1.327 . S
C861 C867 1.429 . S
C862 C854 1.574 . S
C862 H857 0.949 . S
C862 C868 1.368 . S
C863 C847 1.349 . S
C863 H855 0.950 . S
C863 C861 1.327 . S
C864 C852 1.349 . S
C864 H858 0.950 . S
C864 C865 1.327 . S
C865 H859 0.950 . S
C865 C864 1.327 . S
C865 C869 1.429 . S
C866 C849 1.574 . S
C866 H860 0.949 . S
C866 C870 1.368 . S
C867 C848 1.429 . S
C867 C861 1.429 . S
C867 C868 1.523 . S
C868 C849 1.368 . S
C868 C862 1.368 . S
C868 C867 1.523 . S
C869 C853 1.429 . S
C869 C865 1.429 . S
C869 C870 1.523 . S
C870 C854 1.368 . S
C870 C866 1.368 . S
C870 C869 1.523 . S
H871 C846 0.950 . S
H872 C848 0.950 . S
H873 C849 0.949 . S
H874 C851 0.950 . S
H875 C853 0.950 . S
C157 C5 1.065 . S
C162 C135 1.065 . S
C187 C148 1.011 . S
C192 C13 1.021 . S
C217 C31 1.011 . S
C222 C78 1.020 . S
C247 C44 1.064 . S
C252 C96 1.064 . S
C277 C52 1.020 . S
C282 C109 1.011 . S
C307 C117 1.021 . S
C312 C70 1.011 . S
C337 C8 1.546 . S
C342 C112 1.545 . S
C367 C23 1.567 . S
C372 C127 1.567 . S
C397 C138 1.546 . S
C402 C34 1.545 . S
C427 C47 1.546 . S
C432 C151 1.545 . S
C457 C62 1.568 . S
C462 C88 1.568 . S
C487 C73 1.545 . S
C492 C99 1.546 . S
C517 C140 0.986 . S
C522 C10 0.986 . S
C547 C21 0.954 . S
C552 C153 0.964 . S
C577 C36 0.964 . S
C582 C86 0.954 . S
C607 C49 0.986 . S
C612 C101 0.986 . S
C637 C114 0.964 . S
C642 C60 0.954 . S
C667 C75 0.964 . S
C672 C125 0.954 . S
C697 C0 1.353 . S
C702 C143 1.349 . S
C727 C83 1.318 . S
C732 C18 1.318 . S
C757 C91 1.349 . S
C762 C26 1.349 . S
C787 C104 1.349 . S
C792 C39 1.349 . S
C817 C122 1.318 . S
C822 C57 1.318 . S
C847 C130 1.349 . S
C852 C65 1.349 . S
