# Generated by pormake.
# Topology yfl, (5)-cn, num edge types: 1
# Building blocks:
#     Node 0, Type 0, BuildingBlock: BEQFEK_clean_sbu_0, # of connection points: 5
#     Node 1, Type 0, BuildingBlock: BEQFEK_clean_sbu_0, # of connection points: 5
#     Node 2, Type 0, BuildingBlock: BEQFEK_clean_sbu_0, # of connection points: 5
#     Node 3, Type 0, BuildingBlock: BEQFEK_clean_sbu_0, # of connection points: 5
#     Node 4, Type 0, BuildingBlock: BEQFEK_clean_sbu_0, # of connection points: 5
#     Node 5, Type 0, BuildingBlock: BEQFEK_clean_sbu_0, # of connection points: 5
#     Node 6, Type 0, BuildingBlock: BEQFEK_clean_sbu_0, # of connection points: 5
#     Node 7, Type 0, BuildingBlock: BEQFEK_clean_sbu_0, # of connection points: 5
#     Node 8, Type 0, BuildingBlock: BEQFEK_clean_sbu_0, # of connection points: 5
#     Node 9, Type 0, BuildingBlock: BEQFEK_clean_sbu_0, # of connection points: 5
#     Node 10, Type 0, BuildingBlock: BEQFEK_clean_sbu_0, # of connection points: 5
#     Node 11, Type 0, BuildingBlock: BEQFEK_clean_sbu_0, # of connection points: 5
#     Node 12, Type 0, BuildingBlock: BEQFEK_clean_sbu_0, # of connection points: 5
#     Node 13, Type 0, BuildingBlock: BEQFEK_clean_sbu_0, # of connection points: 5
#     Node 14, Type 0, BuildingBlock: BEQFEK_clean_sbu_0, # of connection points: 5
#     Node 15, Type 0, BuildingBlock: BEQFEK_clean_sbu_0, # of connection points: 5
#     Edge 16, Type (0, 0), None
#     Edge 17, Type (0, 0), None
#     Edge 18, Type (0, 0), None
#     Edge 19, Type (0, 0), None
#     Edge 20, Type (0, 0), None
#     Edge 21, Type (0, 0), None
#     Edge 22, Type (0, 0), None
#     Edge 23, Type (0, 0), None
#     Edge 24, Type (0, 0), None
#     Edge 25, Type (0, 0), None
#     Edge 26, Type (0, 0), None
#     Edge 27, Type (0, 0), None
#     Edge 28, Type (0, 0), None
#     Edge 29, Type (0, 0), None
#     Edge 30, Type (0, 0), None
#     Edge 31, Type (0, 0), None
#     Edge 32, Type (0, 0), None
#     Edge 33, Type (0, 0), None
#     Edge 34, Type (0, 0), None
#     Edge 35, Type (0, 0), None
#     Edge 36, Type (0, 0), None
#     Edge 37, Type (0, 0), None
#     Edge 38, Type (0, 0), None
#     Edge 39, Type (0, 0), None
#     Edge 40, Type (0, 0), None
#     Edge 41, Type (0, 0), None
#     Edge 42, Type (0, 0), None
#     Edge 43, Type (0, 0), None
#     Edge 44, Type (0, 0), None
#     Edge 45, Type (0, 0), None
#     Edge 46, Type (0, 0), None
#     Edge 47, Type (0, 0), None
#     Edge 48, Type (0, 0), None
#     Edge 49, Type (0, 0), None
#     Edge 50, Type (0, 0), None
#     Edge 51, Type (0, 0), None
#     Edge 52, Type (0, 0), None
#     Edge 53, Type (0, 0), None
#     Edge 54, Type (0, 0), None
#     Edge 55, Type (0, 0), None
# Relax obj value: 0.265
# Max RMSD: 0.213
# Mean RMSD: 0.213
data_MOF--net-yfl--node1-BEQFEK_clean_sbu_0--edge1-none
_symmetry_space_group_name_H-M    P1
_symmetry_Int_Tables_number       1
_symmetry_cell_setting            triclinic
loop_
_symmetry_equiv_pos_as_xyz
'x, y, z'
_cell_length_a     14.745592
_cell_length_b     14.745708
_cell_length_c     64.647735
_cell_angle_alpha  90.00397
_cell_angle_beta   89.996583
_cell_angle_gamma 89.999798
loop_
_atom_site_label
_atom_site_type_symbol
_atom_site_fract_x
_atom_site_fract_y
_atom_site_fract_z
_atom_type_partial_charge
Co0 Co 0.97214 0.27817 0.28616 0.0
Co1 Co 0.13801 0.29762 0.31613 0.0
C2 C 0.01106 0.45507 0.30703 0.0
O3 O 0.95709 0.40627 0.29634 0.0
O4 O 0.08191 0.42145 0.31519 0.0
C5 C 0.80292 0.29018 0.26591 0.0
O6 O 0.7769 0.32498 0.28365 0.0
C7 C 0.1831 0.30614 0.35941 0.0
C8 C 0.33178 0.29224 0.36041 0.0
C9 C 0.25582 0.30166 0.37294 0.0
N10 N 0.2142 0.299 0.33994 0.0
N11 N 0.30338 0.29121 0.34058 0.0
C12 C 0.08482 0.31558 0.36477 0.0
H13 H 0.04314 0.32494 0.35065 0.0
H14 H 0.06168 0.2537 0.373 0.0
H15 H 0.07509 0.37434 0.37527 0.0
C16 C 0.94917 0.10706 0.30806 0.0
N17 N 0.98438 0.19114 0.307 0.0
N18 N 0.05672 0.19607 0.31882 0.0
C19 C 0.07029 0.11418 0.32767 0.0
C20 C 1.00248 0.055 0.32122 0.0
C21 C 0.87948 0.07253 0.29317 0.0
H22 H 0.90972 0.0693 0.27747 0.0
H23 H 0.82139 0.12026 0.29266 0.0
H24 H 0.85477 1.00408 0.29746 0.0
O25 O 0.08307 0.27709 0.2695 0.0
O26 O 0.2056 0.28886 0.28944 0.0
H27 H 0.21504 0.11673 0.33096 0.0
H28 H 0.16216 0.01389 0.34047 0.0
C29 C 0.15498 0.08853 0.33905 0.0
H30 H 0.15261 0.11778 0.35483 0.0
H31 H 0.34458 0.28416 0.32755 0.0
O32 O 0.87743 0.24767 0.26545 0.0
C33 C 0.16862 0.28126 0.27164 0.0
Co34 Co 0.27818 0.03746 0.73264 0.0
Co35 Co 0.29763 0.87158 0.70267 0.0
C36 C 0.45508 0.99853 0.71176 0.0
O37 O 0.40628 0.05251 0.72246 0.0
O38 O 0.42146 0.92768 0.70361 0.0
C39 C 0.29025 0.20665 0.7529 0.0
O40 O 0.32506 0.23266 0.73516 0.0
C41 C 0.30615 0.82645 0.65939 0.0
C42 C 0.29224 0.67777 0.65839 0.0
C43 C 0.30165 0.75371 0.64586 0.0
N44 N 0.299 0.79537 0.67885 0.0
N45 N 0.29121 0.70619 0.67822 0.0
C46 C 0.31558 0.92472 0.65402 0.0
H47 H 0.32495 0.96642 0.66814 0.0
H48 H 0.25371 0.94786 0.6458 0.0
H49 H 0.37435 0.93443 0.64352 0.0
C50 C 0.10707 0.06043 0.71074 0.0
N51 N 0.19115 0.02522 0.7118 0.0
N52 N 0.19608 0.95288 0.69998 0.0
C53 C 0.11419 0.93931 0.69112 0.0
C54 C 0.055 0.00712 0.69758 0.0
C55 C 0.07254 0.13012 0.72562 0.0
H56 H 0.06929 0.09988 0.74133 0.0
H57 H 0.12028 0.18821 0.72614 0.0
H58 H 1.0041 0.15485 0.72134 0.0
O59 O 0.27709 0.92655 0.74929 0.0
O60 O 0.28887 0.80401 0.72935 0.0
H61 H 0.11673 0.79455 0.68783 0.0
H62 H 0.01389 0.84744 0.67832 0.0
C63 C 0.08854 0.85462 0.67975 0.0
H64 H 0.11779 0.85698 0.66396 0.0
H65 H 0.28416 0.66501 0.69125 0.0
O66 O 0.24769 0.13217 0.75335 0.0
C67 C 0.28127 0.841 0.74715 0.0
Co68 Co 0.03754 0.73147 0.28617 0.0
Co69 Co 0.87167 0.71191 0.31614 0.0
C70 C 0.9987 0.55454 0.30704 0.0
O71 O 0.05265 0.60337 0.29635 0.0
O72 O 0.92783 0.58812 0.3152 0.0
C73 C 0.20671 0.71939 0.2659 0.0
O74 O 0.23272 0.68458 0.28364 0.0
C75 C 0.82653 0.70337 0.35942 0.0
C76 C 0.67784 0.71721 0.36042 0.0
C77 C 0.75379 0.70785 0.37295 0.0
N78 N 0.79545 0.71048 0.33996 0.0
N79 N 0.70627 0.71822 0.34059 0.0
C80 C 0.92481 0.694 0.36479 0.0
H81 H 0.96651 0.68464 0.35067 0.0
H82 H 0.94791 0.7559 0.37301 0.0
H83 H 0.93456 0.63526 0.37529 0.0
C84 C 0.06026 0.90269 0.30804 0.0
N85 N 0.02521 0.81853 0.307 0.0
N86 N 0.95289 0.81351 0.31883 0.0
C87 C 0.93917 0.89541 0.32768 0.0
C88 C 0.00678 0.95469 0.32118 0.0
C89 C 0.12986 0.93728 0.29314 0.0
H90 H 0.09961 0.94035 0.27744 0.0
H91 H 0.18806 0.88968 0.29264 0.0
H92 H 0.15442 0.00582 0.2974 0.0
O93 O 0.92662 0.73249 0.26952 0.0
O94 O 0.80409 0.72064 0.28945 0.0
H95 H 0.79443 0.89267 0.33099 0.0
H96 H 0.8472 0.99557 0.34049 0.0
C97 C 0.85448 0.92094 0.33907 0.0
H98 H 0.85691 0.89169 0.35485 0.0
H99 H 0.66508 0.72524 0.32756 0.0
O100 O 0.13224 0.76198 0.26545 0.0
C101 C 0.84108 0.72827 0.27166 0.0
Co102 Co 0.73148 0.97207 0.73263 0.0
Co103 Co 0.71191 0.13793 0.70266 0.0
C104 C 0.55455 0.0109 0.71176 0.0
O105 O 0.60338 0.95695 0.72245 0.0
O106 O 0.58813 0.08177 0.7036 0.0
C107 C 0.71946 0.80287 0.75289 0.0
O108 O 0.68466 0.77685 0.73514 0.0
C109 C 0.70336 0.18302 0.65938 0.0
C110 C 0.7172 0.3317 0.65837 0.0
C111 C 0.70784 0.25574 0.64585 0.0
N112 N 0.71048 0.21412 0.67884 0.0
N113 N 0.71822 0.3033 0.67821 0.0
C114 C 0.694 0.08473 0.65402 0.0
H115 H 0.68464 0.04305 0.66814 0.0
H116 H 0.7559 0.06163 0.64579 0.0
H117 H 0.63525 0.07497 0.64352 0.0
C118 C 0.9027 0.94934 0.71076 0.0
N119 N 0.81854 0.98439 0.71179 0.0
N120 N 0.81352 0.0567 0.69996 0.0
C121 C 0.89541 0.07042 0.69112 0.0
C122 C 0.9547 1.00281 0.69762 0.0
C123 C 0.9373 0.87974 0.72565 0.0
H124 H 0.94035 0.91 0.74136 0.0
H125 H 0.88971 0.82154 0.72615 0.0
H126 H 0.00584 0.8552 0.72139 0.0
O127 O 0.7325 0.083 0.74929 0.0
O128 O 0.72065 0.20552 0.72935 0.0
H129 H 0.89266 0.21516 0.68781 0.0
H130 H 0.99557 0.1624 0.67831 0.0
C131 C 0.92094 0.15511 0.67973 0.0
H132 H 0.89169 0.15267 0.66395 0.0
H133 H 0.72524 0.3445 0.69124 0.0
O134 O 0.762 0.87736 0.75334 0.0
C135 C 0.72829 0.16854 0.74714 0.0
Co136 Co 0.97205 0.23134 0.98264 0.0
Co137 Co 0.13794 0.2119 0.95267 0.0
C138 C 0.011 0.05444 0.96176 0.0
O139 O 0.95701 0.10324 0.97245 0.0
O140 O 0.08184 0.08807 0.95361 0.0
C141 C 0.80286 0.21926 1.0029 0.0
O142 O 0.77687 0.18444 0.98515 0.0
C143 C 0.18307 0.20338 0.90939 0.0
C144 C 0.33175 0.21729 0.90839 0.0
C145 C 0.25581 0.20787 0.89586 0.0
N146 N 0.21415 0.21053 0.92885 0.0
N147 N 0.30333 0.21831 0.92822 0.0
C148 C 0.0848 0.19394 0.90402 0.0
H149 H 0.04311 0.18458 0.91814 0.0
H150 H 0.06166 0.25582 0.8958 0.0
H151 H 0.07509 0.13518 0.89352 0.0
C152 C 0.94909 0.40245 0.96074 0.0
N153 N 0.9843 0.31838 0.9618 0.0
N154 N 0.05664 0.31345 0.94998 0.0
C155 C 0.07021 0.39534 0.94112 0.0
C156 C 1.0024 0.45452 0.94758 0.0
C157 C 0.8794 0.43698 0.97562 0.0
H158 H 0.90964 0.44023 0.99133 0.0
H159 H 0.82131 0.38925 0.97614 0.0
H160 H 0.85468 0.50542 0.97134 0.0
O161 O 0.08297 0.23242 0.99929 0.0
O162 O 0.20551 0.22066 0.97935 0.0
H163 H 0.21497 0.39279 0.93783 0.0
H164 H 0.16208 0.49563 0.92832 0.0
C165 C 0.1549 0.42099 0.92975 0.0
H166 H 0.15255 0.39173 0.91396 0.0
H167 H 0.34451 0.22536 0.94125 0.0
O168 O 0.87734 0.26182 1.00335 0.0
C169 C 0.16852 0.22825 0.99715 0.0
Co170 Co 0.23134 0.03738 0.03616 0.0
Co171 Co 0.21189 0.87151 0.06613 0.0
C172 C 0.05444 0.99845 0.05703 0.0
O173 O 0.10324 0.05243 0.04634 0.0
O174 O 0.08807 0.92761 0.06519 0.0
C175 C 0.2194 0.20665 0.01591 0.0
O176 O 0.18452 0.23277 0.03364 0.0
C177 C 0.20336 0.82642 0.10941 0.0
C178 C 0.21727 0.67774 0.11041 0.0
C179 C 0.20785 0.7537 0.12294 0.0
N180 N 0.21051 0.79532 0.08994 0.0
N181 N 0.2183 0.70614 0.09058 0.0
C182 C 0.19393 0.9247 0.11477 0.0
H183 H 0.18456 0.96638 0.10065 0.0
H184 H 0.2558 0.94784 0.123 0.0
H185 H 0.13517 0.93443 0.12527 0.0
C186 C 0.40245 0.06035 0.05806 0.0
N187 N 0.31837 0.02515 0.057 0.0
N188 N 0.31344 0.95281 0.06882 0.0
C189 C 0.39533 0.93923 0.07768 0.0
C190 C 0.45451 0.00704 0.07122 0.0
C191 C 0.43698 0.13004 0.04318 0.0
H192 H 0.4402 0.0998 0.02747 0.0
H193 H 0.38927 0.18813 0.04267 0.0
H194 H 0.50544 0.15473 0.04746 0.0
O195 O 0.23243 0.92645 0.01951 0.0
O196 O 0.22066 0.80392 0.03944 0.0
H197 H 0.39278 0.79448 0.08096 0.0
H198 H 0.49562 0.84737 0.09047 0.0
C199 C 0.42097 0.85455 0.08905 0.0
H200 H 0.39172 0.85691 0.10483 0.0
H201 H 0.22535 0.66495 0.07755 0.0
O202 O 0.26184 0.1321 0.01545 0.0
C203 C 0.22826 0.84091 0.02164 0.0
Co204 Co 0.03746 0.77805 0.98263 0.0
Co205 Co 0.8716 0.79761 0.95266 0.0
C206 C 0.99863 0.95497 0.96175 0.0
O207 O 0.05259 0.90614 0.97244 0.0
O208 O 0.92776 0.92139 0.9536 0.0
C209 C 0.20671 0.79 1.00288 0.0
O210 O 0.23283 0.82488 0.98515 0.0
C211 C 0.8265 0.80615 0.90938 0.0
C212 C 0.67782 0.79232 0.90837 0.0
C213 C 0.75378 0.80168 0.89585 0.0
N214 N 0.7954 0.79904 0.92884 0.0
N215 N 0.70622 0.79131 0.92821 0.0
C216 C 0.92479 0.81552 0.90402 0.0
H217 H 0.96647 0.82488 0.91814 0.0
H218 H 0.94789 0.75362 0.89579 0.0
H219 H 0.93455 0.87426 0.89352 0.0
C220 C 0.06018 0.60683 0.96076 0.0
N221 N 0.02514 0.69098 0.96179 0.0
N222 N 0.95282 0.696 0.94997 0.0
C223 C 0.9391 0.61411 0.94112 0.0
C224 C 0.00671 0.55482 0.94762 0.0
C225 C 0.12979 0.57223 0.97565 0.0
H226 H 0.09954 0.56919 0.99136 0.0
H227 H 0.188 0.61981 0.97615 0.0
H228 H 0.15432 0.50368 0.97139 0.0
O229 O 0.92653 0.77703 0.99928 0.0
O230 O 0.80401 0.78887 0.97935 0.0
H231 H 0.79436 0.61686 0.93781 0.0
H232 H 0.84712 0.51395 0.92831 0.0
C233 C 0.85441 0.58858 0.92973 0.0
H234 H 0.85685 0.61783 0.91395 0.0
H235 H 0.66502 0.78429 0.94124 0.0
O236 O 0.13218 0.74753 1.00334 0.0
C237 C 0.84099 0.78124 0.99714 0.0
Co238 Co 0.77804 0.97196 0.03617 0.0
Co239 Co 0.79761 0.13784 0.06614 0.0
C240 C 0.95497 0.01081 0.05704 0.0
O241 O 0.90614 0.95687 0.04635 0.0
O242 O 0.92139 0.08168 0.0652 0.0
C243 C 0.79008 0.80275 0.01591 0.0
O244 O 0.82499 0.77665 0.03364 0.0
C245 C 0.80615 0.18298 0.10943 0.0
C246 C 0.79231 0.33167 0.11042 0.0
C247 C 0.80168 0.25573 0.12295 0.0
N248 N 0.79903 0.21406 0.08996 0.0
N249 N 0.7913 0.30324 0.09059 0.0
C250 C 0.81552 0.08471 0.11479 0.0
H251 H 0.82487 0.043 0.10067 0.0
H252 H 0.75362 0.06161 0.12301 0.0
H253 H 0.87426 0.07496 0.12529 0.0
C254 C 0.60682 0.94925 0.05804 0.0
N255 N 0.69098 0.98429 0.05701 0.0
N256 N 0.696 0.05661 0.06884 0.0
C257 C 0.61411 0.07034 0.07768 0.0
C258 C 0.55482 1.00273 0.07118 0.0
C259 C 0.57222 0.87964 0.04315 0.0
H260 H 0.56917 0.90989 0.02744 0.0
H261 H 0.61981 0.82144 0.04265 0.0
H262 H 0.50368 0.8551 0.04741 0.0
O263 O 0.77699 0.08286 0.01951 0.0
O264 O 0.78888 0.2054 0.03945 0.0
H265 H 0.61685 0.21508 0.08099 0.0
H266 H 0.51394 0.16232 0.09049 0.0
C267 C 0.58858 0.15504 0.08907 0.0
H268 H 0.61783 0.15261 0.10485 0.0
H269 H 0.78428 0.34442 0.07756 0.0
O270 O 0.74752 0.87724 0.01546 0.0
C271 C 0.7812 0.1684 0.02166 0.0
Co272 Co 0.47212 0.77816 0.78616 0.0
Co273 Co 0.638 0.79762 0.81613 0.0
C274 C 0.51106 0.95507 0.80703 0.0
O275 O 0.45709 0.90627 0.79634 0.0
O276 O 0.5819 0.92144 0.81519 0.0
C277 C 0.30286 0.79012 0.76591 0.0
O278 O 0.27675 0.825 0.78364 0.0
C279 C 0.68309 0.80612 0.85941 0.0
C280 C 0.83177 0.79226 0.86042 0.0
C281 C 0.75581 0.80162 0.87294 0.0
N282 N 0.71419 0.79899 0.83995 0.0
N283 N 0.80337 0.79123 0.84058 0.0
C284 C 0.58481 0.81556 0.86477 0.0
H285 H 0.54313 0.82492 0.85065 0.0
H286 H 0.56166 0.75368 0.873 0.0
H287 H 0.57508 0.87432 0.87527 0.0
C288 C 0.44916 0.60706 0.80806 0.0
N289 N 0.48436 0.69114 0.807 0.0
N290 N 0.5567 0.69607 0.81882 0.0
C291 C 0.57029 0.61418 0.82768 0.0
C292 C 0.50248 0.555 0.82122 0.0
C293 C 0.37947 0.57252 0.79318 0.0
H294 H 0.40971 0.5693 0.77747 0.0
H295 H 0.32138 0.62024 0.79267 0.0
H296 H 0.35478 0.50407 0.79746 0.0
O297 O 0.58305 0.77704 0.7695 0.0
O298 O 0.70558 0.78887 0.78944 0.0
H299 H 0.71504 0.61675 0.83096 0.0
H300 H 0.66217 0.51389 0.84047 0.0
C301 C 0.65498 0.58854 0.83905 0.0
H302 H 0.65261 0.61777 0.85483 0.0
H303 H 0.84457 0.78422 0.82755 0.0
O304 O 0.3774 0.74766 0.76545 0.0
C305 C 0.66859 0.78121 0.77165 0.0
Co306 Co 0.77817 0.53748 0.23264 0.0
Co307 Co 0.79763 0.3716 0.20267 0.0
C308 C 0.95508 0.49853 0.21176 0.0
O309 O 0.90628 0.5525 0.22246 0.0
O310 O 0.92145 0.4277 0.2036 0.0
C311 C 0.79018 0.70671 0.25289 0.0
O312 O 0.82508 0.73281 0.23517 0.0
C313 C 0.80612 0.32646 0.15938 0.0
C314 C 0.79225 0.17778 0.15838 0.0
C315 C 0.80161 0.25373 0.14586 0.0
N316 N 0.79899 0.29539 0.17885 0.0
N317 N 0.79123 0.2062 0.17822 0.0
C318 C 0.81556 0.42474 0.15402 0.0
H319 H 0.82493 0.46643 0.16814 0.0
H320 H 0.75369 0.44787 0.14579 0.0
H321 H 0.87433 0.43445 0.14352 0.0
C322 C 0.60707 0.56044 0.21074 0.0
N323 N 0.69115 0.52524 0.21179 0.0
N324 N 0.69608 0.4529 0.19997 0.0
C325 C 0.61419 0.43931 0.19112 0.0
C326 C 0.555 0.50713 0.19758 0.0
C327 C 0.57253 0.63013 0.22562 0.0
H328 H 0.5693 0.5999 0.24132 0.0
H329 H 0.62026 0.68822 0.22613 0.0
H330 H 0.50409 0.65484 0.22134 0.0
O331 O 0.77705 0.42658 0.24929 0.0
O332 O 0.78888 0.30403 0.22935 0.0
H333 H 0.61675 0.29456 0.18783 0.0
H334 H 0.51389 0.34743 0.17833 0.0
C335 C 0.58854 0.35462 0.17974 0.0
H336 H 0.61778 0.35698 0.16396 0.0
H337 H 0.78422 0.16502 0.19125 0.0
O338 O 0.74768 0.63221 0.25335 0.0
C339 C 0.78122 0.34103 0.24715 0.0
Co340 Co 0.53755 0.23147 0.78617 0.0
Co341 Co 0.37168 0.2119 0.81614 0.0
C342 C 0.4987 0.05454 0.80704 0.0
O343 O 0.55264 0.10337 0.79635 0.0
O344 O 0.42784 0.08812 0.8152 0.0
C345 C 0.70677 0.21945 0.76591 0.0
O346 O 0.73287 0.18455 0.78364 0.0
C347 C 0.32655 0.2034 0.85943 0.0
C348 C 0.17785 0.21719 0.86043 0.0
C349 C 0.25381 0.20789 0.87295 0.0
N350 N 0.29546 0.21049 0.83996 0.0
N351 N 0.20628 0.2182 0.84059 0.0
C352 C 0.42483 0.19402 0.86479 0.0
H353 H 0.46652 0.18466 0.85067 0.0
H354 H 0.44793 0.25592 0.87301 0.0
H355 H 0.43457 0.13528 0.87529 0.0
C356 C 0.56027 0.40269 0.80804 0.0
N357 N 0.52523 0.31853 0.80701 0.0
N358 N 0.45291 0.31351 0.81884 0.0
C359 C 0.43918 0.3954 0.82768 0.0
C360 C 0.50679 0.45469 0.82118 0.0
C361 C 0.62987 0.43729 0.79315 0.0
H362 H 0.59962 0.44034 0.77744 0.0
H363 H 0.68808 0.3897 0.79265 0.0
H364 H 0.65441 0.50583 0.79741 0.0
O365 O 0.42665 0.23253 0.76952 0.0
O366 O 0.30411 0.22063 0.78946 0.0
H367 H 0.29444 0.39265 0.83099 0.0
H368 H 0.34719 0.49557 0.84049 0.0
C369 C 0.35448 0.42093 0.83907 0.0
H370 H 0.35692 0.3917 0.85485 0.0
H371 H 0.16509 0.22519 0.82756 0.0
O372 O 0.63227 0.26199 0.76546 0.0
C373 C 0.34111 0.22832 0.77166 0.0
Co374 Co 0.23149 0.47205 0.23263 0.0
Co375 Co 0.21191 0.63792 0.20266 0.0
C376 C 0.05455 0.51089 0.21176 0.0
O377 O 0.10338 0.45696 0.22245 0.0
O378 O 0.08813 0.58176 0.2036 0.0
C379 C 0.21952 0.30281 0.25288 0.0
O380 O 0.18464 0.27669 0.23515 0.0
C381 C 0.20339 0.68301 0.15937 0.0
C382 C 0.21718 0.8317 0.15837 0.0
C383 C 0.20788 0.75573 0.14585 0.0
N384 N 0.21048 0.71411 0.17884 0.0
N385 N 0.21819 0.8033 0.17821 0.0
C386 C 0.19402 0.58472 0.15401 0.0
H387 H 0.18466 0.54304 0.16814 0.0
H388 H 0.25591 0.56161 0.14579 0.0
H389 H 0.13527 0.57496 0.14351 0.0
C390 C 0.4027 0.44933 0.21075 0.0
N391 N 0.31854 0.48438 0.21179 0.0
N392 N 0.31352 0.55669 0.19996 0.0
C393 C 0.39541 0.57042 0.19112 0.0
C394 C 0.4547 0.50281 0.19762 0.0
C395 C 0.4373 0.37974 0.22565 0.0
H396 H 0.44034 0.40999 0.24135 0.0
H397 H 0.38973 0.32152 0.22615 0.0
H398 H 0.50585 0.35521 0.22139 0.0
O399 O 0.23254 0.58297 0.24929 0.0
O400 O 0.22064 0.7055 0.22935 0.0
H401 H 0.39265 0.71516 0.18781 0.0
H402 H 0.49557 0.66241 0.17831 0.0
C403 C 0.42093 0.65511 0.17973 0.0
H404 H 0.3917 0.65267 0.16395 0.0
H405 H 0.22518 0.8445 0.19123 0.0
O406 O 0.26201 0.37733 0.25334 0.0
C407 C 0.22833 0.66851 0.24714 0.0
Co408 Co 0.47206 0.73134 0.48264 0.0
Co409 Co 0.63794 0.7119 0.45267 0.0
C410 C 0.511 0.55444 0.46176 0.0
O411 O 0.45702 0.60324 0.47245 0.0
O412 O 0.58184 0.58807 0.4536 0.0
C413 C 0.30287 0.71927 0.5029 0.0
O414 O 0.27687 0.68446 0.48516 0.0
C415 C 0.68306 0.70341 0.40938 0.0
C416 C 0.83175 0.71728 0.40838 0.0
C417 C 0.7558 0.70792 0.39586 0.0
N418 N 0.71415 0.71054 0.42885 0.0
N419 N 0.80333 0.7183 0.42822 0.0
C420 C 0.58479 0.69397 0.40402 0.0
H421 H 0.5431 0.68461 0.41814 0.0
H422 H 0.56165 0.75584 0.39579 0.0
H423 H 0.57507 0.63521 0.39352 0.0
C424 C 0.44909 0.90245 0.46074 0.0
N425 N 0.4843 0.81838 0.4618 0.0
N426 N 0.55664 0.81345 0.44998 0.0
C427 C 0.57022 0.89534 0.44112 0.0
C428 C 0.5024 0.95452 0.44758 0.0
C429 C 0.3794 0.93698 0.47563 0.0
H430 H 0.40964 0.94022 0.49133 0.0
H431 H 0.32132 0.88924 0.47614 0.0
H432 H 0.35468 0.00542 0.47134 0.0
O433 O 0.58298 0.73242 0.49929 0.0
O434 O 0.70552 0.72065 0.47935 0.0
H435 H 0.71497 0.89279 0.43783 0.0
H436 H 0.66209 0.99564 0.42833 0.0
C437 C 0.6549 0.92099 0.42975 0.0
H438 H 0.65254 0.89176 0.41396 0.0
H439 H 0.84452 0.72531 0.44125 0.0
O440 O 0.37735 0.76183 0.50335 0.0
C441 C 0.66852 0.72825 0.49715 0.0
Co442 Co 0.73134 0.53738 0.53616 0.0
Co443 Co 0.71189 0.37151 0.56613 0.0
C444 C 0.55444 0.49845 0.55703 0.0
O445 O 0.60324 0.55243 0.54634 0.0
O446 O 0.58807 0.42761 0.56519 0.0
C447 C 0.71941 0.70664 0.51591 0.0
O448 O 0.68454 0.73276 0.53364 0.0
C449 C 0.7034 0.32643 0.60941 0.0
C450 C 0.71726 0.17775 0.61042 0.0
C451 C 0.7079 0.25371 0.62294 0.0
N452 N 0.71052 0.29532 0.58995 0.0
N453 N 0.71828 0.20614 0.59058 0.0
C454 C 0.69396 0.42471 0.61477 0.0
H455 H 0.68459 0.46638 0.60065 0.0
H456 H 0.75583 0.44786 0.623 0.0
H457 H 0.63519 0.43444 0.62527 0.0
C458 C 0.90245 0.56035 0.55806 0.0
N459 N 0.81837 0.52514 0.557 0.0
N460 N 0.81344 0.45281 0.56882 0.0
C461 C 0.89533 0.43923 0.57767 0.0
C462 C 0.95451 0.50704 0.57122 0.0
C463 C 0.93698 0.63003 0.54318 0.0
H464 H 0.9402 0.5998 0.52747 0.0
H465 H 0.88927 0.68813 0.54267 0.0
H466 H 0.00544 0.65473 0.54746 0.0
O467 O 0.73243 0.42644 0.51951 0.0
O468 O 0.72066 0.30392 0.53944 0.0
H469 H 0.89277 0.29448 0.58097 0.0
H470 H 0.99563 0.34736 0.59047 0.0
C471 C 0.92098 0.35455 0.58905 0.0
H472 H 0.89174 0.35692 0.60483 0.0
H473 H 0.7253 0.16494 0.57755 0.0
O474 O 0.76184 0.63209 0.51545 0.0
C475 C 0.72826 0.3409 0.52165 0.0
Co476 Co 0.53746 0.27805 0.48263 0.0
Co477 Co 0.37159 0.29761 0.45266 0.0
C478 C 0.49863 0.45497 0.46175 0.0
O479 O 0.55258 0.40615 0.47244 0.0
O480 O 0.42776 0.42139 0.4536 0.0
C481 C 0.7067 0.28999 0.50288 0.0
O482 O 0.73283 0.32487 0.48516 0.0
C483 C 0.32651 0.30612 0.40937 0.0
C484 C 0.17782 0.29233 0.40837 0.0
C485 C 0.25379 0.30164 0.39585 0.0
N486 N 0.29541 0.29903 0.42884 0.0
N487 N 0.20622 0.29132 0.42821 0.0
C488 C 0.4248 0.31549 0.40402 0.0
H489 H 0.46648 0.32485 0.41814 0.0
H490 H 0.44791 0.25359 0.39579 0.0
H491 H 0.43456 0.37424 0.39352 0.0
C492 C 0.56018 0.10683 0.46076 0.0
N493 N 0.52513 0.19098 0.46179 0.0
N494 N 0.45282 0.196 0.44997 0.0
C495 C 0.4391 0.11411 0.44112 0.0
C496 C 0.50671 0.05482 0.44762 0.0
C497 C 0.62978 0.07223 0.47565 0.0
H498 H 0.59954 0.0692 0.49136 0.0
H499 H 0.68799 0.11981 0.47615 0.0
H500 H 0.65431 1.00368 0.4714 0.0
O501 O 0.42653 0.27704 0.49928 0.0
O502 O 0.304 0.28888 0.47935 0.0
H503 H 0.29436 0.11687 0.43781 0.0
H504 H 0.34711 0.01394 0.42831 0.0
C505 C 0.3544 0.08858 0.42973 0.0
H506 H 0.35685 0.11781 0.41395 0.0
H507 H 0.16502 0.28434 0.44123 0.0
O508 O 0.63217 0.24753 0.50334 0.0
C509 C 0.34098 0.28125 0.49714 0.0
Co510 Co 0.27804 0.47197 0.53617 0.0
Co511 Co 0.29761 0.63784 0.56614 0.0
C512 C 0.45497 0.51081 0.55704 0.0
O513 O 0.40614 0.45687 0.54635 0.0
O514 O 0.42139 0.58168 0.5652 0.0
C515 C 0.29007 0.30276 0.51591 0.0
O516 O 0.32497 0.27665 0.53363 0.0
C517 C 0.30612 0.68297 0.60943 0.0
C518 C 0.29233 0.83166 0.61043 0.0
C519 C 0.30163 0.75571 0.62295 0.0
N520 N 0.29903 0.71406 0.58996 0.0
N521 N 0.29131 0.80324 0.59059 0.0
C522 C 0.31549 0.58469 0.61479 0.0
H523 H 0.32485 0.543 0.60067 0.0
H524 H 0.2536 0.5616 0.62302 0.0
H525 H 0.37424 0.57495 0.62529 0.0
C526 C 0.10682 0.44925 0.55804 0.0
N527 N 0.19098 0.4843 0.55701 0.0
N528 N 0.196 0.55662 0.56884 0.0
C529 C 0.11411 0.57034 0.57768 0.0
C530 C 0.05482 0.50273 0.57118 0.0
C531 C 0.07222 0.37965 0.54315 0.0
H532 H 0.06917 0.40989 0.52744 0.0
H533 H 0.11982 0.32144 0.54265 0.0
H534 H 1.00369 0.3551 0.54741 0.0
O535 O 0.27699 0.58287 0.51952 0.0
O536 O 0.28889 0.70541 0.53946 0.0
H537 H 0.11686 0.71508 0.58099 0.0
H538 H 0.01394 0.66233 0.59049 0.0
C539 C 0.08858 0.65504 0.58907 0.0
H540 H 0.11781 0.6526 0.60485 0.0
H541 H 0.28433 0.84443 0.57756 0.0
O542 O 0.24752 0.37725 0.51546 0.0
C543 C 0.2812 0.66841 0.52166 0.0
loop_
_geom_bond_atom_site_label_1
_geom_bond_atom_site_label_2
_geom_bond_distance
_geom_bond_site_symmetry_2
_ccdc_geom_bond_type
Co0 O3 1.970 . S
Co0 N17 1.989 . S
Co0 O25 1.967 1_655 S
Co0 O32 1.920 . S
Co1 O4 1.966 . S
Co1 N10 2.022 . S
Co1 N18 1.993 . S
Co1 O26 1.941 . S
C2 O3 1.258 . S
C2 O4 1.263 1_655 S
O3 Co0 1.970 . S
O3 C2 1.258 . S
O4 Co1 1.966 . S
O4 C2 1.263 1_455 S
C5 O6 1.235 . S
C5 O32 1.289 . S
O6 C5 1.235 . S
C7 C9 1.400 . S
C7 N10 1.351 . S
C7 C12 1.501 . S
C8 C9 1.387 . S
C8 N11 1.341 . S
C9 C7 1.400 . S
C9 C8 1.387 . S
N10 Co1 2.022 . S
N10 C7 1.351 . S
N10 N11 1.365 . S
N11 C8 1.341 . S
N11 N10 1.365 . S
N11 H31 0.862 . S
C12 C7 1.501 . S
C12 H13 0.961 . S
C12 H14 0.961 . S
C12 H15 0.960 . S
H13 C12 0.961 . S
H14 C12 0.961 . S
H15 C12 0.960 . S
C16 N17 1.342 . S
C16 C20 1.401 . S
C16 C21 1.499 . S
N17 Co0 1.989 . S
N17 C16 1.342 . S
N17 N18 1.388 1_655 S
N18 Co1 1.993 . S
N18 N17 1.388 1_455 S
N18 C19 1.346 . S
C19 N18 1.346 . S
C19 C20 1.396 1_455 S
C19 C29 1.510 . S
C20 C16 1.401 . S
C20 C19 1.396 1_655 S
C21 C16 1.499 . S
C21 H22 0.959 . S
C21 H23 0.960 . S
C21 H24 0.961 . S
H22 C21 0.959 . S
H23 C21 0.960 . S
H24 C21 0.961 . S
O25 Co0 1.967 1_455 S
O25 C33 1.258 . S
O26 Co1 1.941 . S
O26 C33 1.266 . S
H27 C29 0.959 . S
H28 C29 0.961 . S
C29 C19 1.510 . S
C29 H27 0.959 . S
C29 H28 0.961 . S
C29 H30 0.960 . S
H30 C29 0.960 . S
H31 N11 0.862 . S
O32 Co0 1.920 . S
O32 C5 1.289 . S
C33 O25 1.258 . S
C33 O26 1.266 . S
Co34 O37 1.970 . S
Co34 N51 1.989 . S
Co34 O59 1.967 1_545 S
Co34 O66 1.920 . S
Co35 O38 1.966 . S
Co35 N44 2.022 . S
Co35 N52 1.993 . S
Co35 O60 1.941 . S
C36 O37 1.258 . S
C36 O38 1.263 1_545 S
O37 Co34 1.970 . S
O37 C36 1.258 . S
O38 Co35 1.966 . S
O38 C36 1.263 1_565 S
C39 O40 1.235 . S
C39 O66 1.289 . S
O40 C39 1.235 . S
C41 C43 1.400 . S
C41 N44 1.351 . S
C41 C46 1.501 . S
C42 C43 1.387 . S
C42 N45 1.341 . S
C43 C41 1.400 . S
C43 C42 1.387 . S
N44 Co35 2.022 . S
N44 C41 1.351 . S
N44 N45 1.365 . S
N45 C42 1.341 . S
N45 N44 1.365 . S
N45 H65 0.862 . S
C46 C41 1.501 . S
C46 H47 0.961 . S
C46 H48 0.961 . S
C46 H49 0.960 . S
H47 C46 0.961 . S
H48 C46 0.961 . S
H49 C46 0.960 . S
C50 N51 1.342 . S
C50 C54 1.401 . S
C50 C55 1.499 . S
N51 Co34 1.989 . S
N51 C50 1.342 . S
N51 N52 1.388 1_545 S
N52 Co35 1.993 . S
N52 N51 1.388 1_565 S
N52 C53 1.346 . S
C53 N52 1.346 . S
C53 C54 1.396 1_565 S
C53 C63 1.510 . S
C54 C50 1.401 . S
C54 C53 1.396 1_545 S
C55 C50 1.499 . S
C55 H56 0.959 . S
C55 H57 0.960 . S
C55 H58 0.961 . S
H56 C55 0.959 . S
H57 C55 0.960 . S
H58 C55 0.961 . S
O59 Co34 1.967 1_565 S
O59 C67 1.258 . S
O60 Co35 1.941 . S
O60 C67 1.266 . S
H61 C63 0.959 . S
H62 C63 0.961 . S
C63 C53 1.510 . S
C63 H61 0.959 . S
C63 H62 0.961 . S
C63 H64 0.960 . S
H64 C63 0.960 . S
H65 N45 0.862 . S
O66 Co34 1.920 . S
O66 C39 1.289 . S
C67 O59 1.258 . S
C67 O60 1.266 . S
Co68 O71 1.970 . S
Co68 N85 1.989 . S
Co68 O93 1.967 1_455 S
Co68 O100 1.920 . S
Co69 O72 1.966 . S
Co69 N78 2.022 . S
Co69 N86 1.993 . S
Co69 O94 1.941 . S
C70 O71 1.258 . S
C70 O72 1.263 1_455 S
O71 Co68 1.970 . S
O71 C70 1.258 . S
O72 Co69 1.966 . S
O72 C70 1.263 1_655 S
C73 O74 1.235 . S
C73 O100 1.289 . S
O74 C73 1.235 . S
C75 C77 1.400 . S
C75 N78 1.351 . S
C75 C80 1.501 . S
C76 C77 1.387 . S
C76 N79 1.341 . S
C77 C75 1.400 . S
C77 C76 1.387 . S
N78 Co69 2.022 . S
N78 C75 1.351 . S
N78 N79 1.365 . S
N79 C76 1.341 . S
N79 N78 1.365 . S
N79 H99 0.862 . S
C80 C75 1.501 . S
C80 H81 0.961 . S
C80 H82 0.961 . S
C80 H83 0.960 . S
H81 C80 0.961 . S
H82 C80 0.961 . S
H83 C80 0.960 . S
C84 N85 1.342 . S
C84 C88 1.401 . S
C84 C89 1.499 . S
N85 Co68 1.989 . S
N85 C84 1.342 . S
N85 N86 1.388 1_455 S
N86 Co69 1.993 . S
N86 N85 1.388 1_655 S
N86 C87 1.346 . S
C87 N86 1.346 . S
C87 C88 1.396 1_655 S
C87 C97 1.510 . S
C88 C84 1.401 . S
C88 C87 1.396 1_455 S
C89 C84 1.499 . S
C89 H90 0.959 . S
C89 H91 0.960 . S
C89 H92 0.961 . S
H90 C89 0.959 . S
H91 C89 0.960 . S
H92 C89 0.961 . S
O93 Co68 1.967 1_655 S
O93 C101 1.258 . S
O94 Co69 1.941 . S
O94 C101 1.266 . S
H95 C97 0.959 . S
H96 C97 0.961 . S
C97 C87 1.510 . S
C97 H95 0.959 . S
C97 H96 0.961 . S
C97 H98 0.960 . S
H98 C97 0.960 . S
H99 N79 0.862 . S
O100 Co68 1.920 . S
O100 C73 1.289 . S
C101 O93 1.258 . S
C101 O94 1.266 . S
Co102 O105 1.970 . S
Co102 N119 1.989 . S
Co102 O127 1.967 1_565 S
Co102 O134 1.920 . S
Co103 O106 1.966 . S
Co103 N112 2.022 . S
Co103 N120 1.993 . S
Co103 O128 1.941 . S
C104 O105 1.258 . S
C104 O106 1.263 1_565 S
O105 Co102 1.970 . S
O105 C104 1.258 . S
O106 Co103 1.966 . S
O106 C104 1.263 1_545 S
C107 O108 1.235 . S
C107 O134 1.289 . S
O108 C107 1.235 . S
C109 C111 1.400 . S
C109 N112 1.351 . S
C109 C114 1.501 . S
C110 C111 1.387 . S
C110 N113 1.341 . S
C111 C109 1.400 . S
C111 C110 1.387 . S
N112 Co103 2.022 . S
N112 C109 1.351 . S
N112 N113 1.365 . S
N113 C110 1.341 . S
N113 N112 1.365 . S
N113 H133 0.862 . S
C114 C109 1.501 . S
C114 H115 0.961 . S
C114 H116 0.961 . S
C114 H117 0.960 . S
H115 C114 0.961 . S
H116 C114 0.961 . S
H117 C114 0.960 . S
C118 N119 1.342 . S
C118 C122 1.401 . S
C118 C123 1.499 . S
N119 Co102 1.989 . S
N119 C118 1.342 . S
N119 N120 1.388 1_565 S
N120 Co103 1.993 . S
N120 N119 1.388 1_545 S
N120 C121 1.346 . S
C121 N120 1.346 . S
C121 C122 1.396 1_545 S
C121 C131 1.510 . S
C122 C118 1.401 . S
C122 C121 1.396 1_565 S
C123 C118 1.499 . S
C123 H124 0.959 . S
C123 H125 0.960 . S
C123 H126 0.961 . S
H124 C123 0.959 . S
H125 C123 0.960 . S
H126 C123 0.961 . S
O127 Co102 1.967 1_545 S
O127 C135 1.258 . S
O128 Co103 1.941 . S
O128 C135 1.266 . S
H129 C131 0.959 . S
H130 C131 0.961 . S
C131 C121 1.510 . S
C131 H129 0.959 . S
C131 H130 0.961 . S
C131 H132 0.960 . S
H132 C131 0.960 . S
H133 N113 0.862 . S
O134 Co102 1.920 . S
O134 C107 1.289 . S
C135 O127 1.258 . S
C135 O128 1.266 . S
Co136 O139 1.970 . S
Co136 N153 1.989 . S
Co136 O161 1.967 1_655 S
Co136 O168 1.932 . S
Co137 O140 1.966 . S
Co137 N146 2.022 . S
Co137 N154 1.993 . S
Co137 O162 1.941 . S
C138 O139 1.258 . S
C138 O140 1.263 1_655 S
O139 Co136 1.970 . S
O139 C138 1.258 . S
O140 Co137 1.966 . S
O140 C138 1.263 1_455 S
C141 O142 1.235 . S
C141 O168 1.291 . S
O142 C141 1.235 . S
C143 C145 1.400 . S
C143 N146 1.351 . S
C143 C148 1.501 . S
C144 C145 1.387 . S
C144 N147 1.341 . S
C145 C143 1.400 . S
C145 C144 1.387 . S
N146 Co137 2.022 . S
N146 C143 1.351 . S
N146 N147 1.365 . S
N147 C144 1.341 . S
N147 N146 1.365 . S
N147 H167 0.862 . S
C148 C143 1.501 . S
C148 H149 0.961 . S
C148 H150 0.961 . S
C148 H151 0.960 . S
H149 C148 0.961 . S
H150 C148 0.961 . S
H151 C148 0.960 . S
C152 N153 1.342 . S
C152 C156 1.401 . S
C152 C157 1.499 . S
N153 Co136 1.989 . S
N153 C152 1.342 . S
N153 N154 1.388 1_655 S
N154 Co137 1.993 . S
N154 N153 1.388 1_455 S
N154 C155 1.346 . S
C155 N154 1.346 . S
C155 C156 1.396 1_455 S
C155 C165 1.510 . S
C156 C152 1.401 . S
C156 C155 1.396 1_655 S
C157 C152 1.499 . S
C157 H158 0.959 . S
C157 H159 0.960 . S
C157 H160 0.961 . S
H158 C157 0.959 . S
H159 C157 0.960 . S
H160 C157 0.961 . S
O161 Co136 1.967 1_455 S
O161 C169 1.258 . S
O162 Co137 1.941 . S
O162 C169 1.266 . S
H163 C165 0.959 . S
H164 C165 0.961 . S
C165 C155 1.510 . S
C165 H163 0.959 . S
C165 H164 0.961 . S
C165 H166 0.960 . S
H166 C165 0.960 . S
H167 N147 0.862 . S
O168 Co136 1.932 . S
O168 C141 1.291 . S
C169 O161 1.258 . S
C169 O162 1.266 . S
Co170 O173 1.970 . S
Co170 N187 1.989 . S
Co170 O195 1.967 1_545 S
Co170 O202 1.932 . S
Co171 O174 1.966 . S
Co171 N180 2.022 . S
Co171 N188 1.993 . S
Co171 O196 1.941 . S
C172 O173 1.258 . S
C172 O174 1.263 1_545 S
O173 Co170 1.970 . S
O173 C172 1.258 . S
O174 Co171 1.966 . S
O174 C172 1.263 1_565 S
C175 O176 1.235 . S
C175 O202 1.291 . S
O176 C175 1.235 . S
C177 C179 1.400 . S
C177 N180 1.351 . S
C177 C182 1.501 . S
C178 C179 1.387 . S
C178 N181 1.341 . S
C179 C177 1.400 . S
C179 C178 1.387 . S
N180 Co171 2.022 . S
N180 C177 1.351 . S
N180 N181 1.365 . S
N181 C178 1.341 . S
N181 N180 1.365 . S
N181 H201 0.862 . S
C182 C177 1.501 . S
C182 H183 0.961 . S
C182 H184 0.961 . S
C182 H185 0.960 . S
H183 C182 0.961 . S
H184 C182 0.961 . S
H185 C182 0.960 . S
C186 N187 1.342 . S
C186 C190 1.401 . S
C186 C191 1.499 . S
N187 Co170 1.989 . S
N187 C186 1.342 . S
N187 N188 1.388 1_545 S
N188 Co171 1.993 . S
N188 N187 1.388 1_565 S
N188 C189 1.346 . S
C189 N188 1.346 . S
C189 C190 1.396 1_565 S
C189 C199 1.510 . S
C190 C186 1.401 . S
C190 C189 1.396 1_545 S
C191 C186 1.499 . S
C191 H192 0.959 . S
C191 H193 0.960 . S
C191 H194 0.961 . S
H192 C191 0.959 . S
H193 C191 0.960 . S
H194 C191 0.961 . S
O195 Co170 1.967 1_565 S
O195 C203 1.258 . S
O196 Co171 1.941 . S
O196 C203 1.266 . S
H197 C199 0.959 . S
H198 C199 0.961 . S
C199 C189 1.510 . S
C199 H197 0.959 . S
C199 H198 0.961 . S
C199 H200 0.960 . S
H200 C199 0.960 . S
H201 N181 0.862 . S
O202 Co170 1.932 . S
O202 C175 1.291 . S
C203 O195 1.258 . S
C203 O196 1.266 . S
Co204 O207 1.970 . S
Co204 N221 1.989 . S
Co204 O229 1.967 1_455 S
Co204 O236 1.932 . S
Co205 O208 1.966 . S
Co205 N214 2.022 . S
Co205 N222 1.993 . S
Co205 O230 1.941 . S
C206 O207 1.258 . S
C206 O208 1.263 1_455 S
O207 Co204 1.970 . S
O207 C206 1.258 . S
O208 Co205 1.966 . S
O208 C206 1.263 1_655 S
C209 O210 1.235 . S
C209 O236 1.291 . S
O210 C209 1.235 . S
C211 C213 1.400 . S
C211 N214 1.351 . S
C211 C216 1.501 . S
C212 C213 1.387 . S
C212 N215 1.341 . S
C213 C211 1.400 . S
C213 C212 1.387 . S
N214 Co205 2.022 . S
N214 C211 1.351 . S
N214 N215 1.365 . S
N215 C212 1.341 . S
N215 N214 1.365 . S
N215 H235 0.862 . S
C216 C211 1.501 . S
C216 H217 0.961 . S
C216 H218 0.961 . S
C216 H219 0.960 . S
H217 C216 0.961 . S
H218 C216 0.961 . S
H219 C216 0.960 . S
C220 N221 1.342 . S
C220 C224 1.401 . S
C220 C225 1.499 . S
N221 Co204 1.989 . S
N221 C220 1.342 . S
N221 N222 1.388 1_455 S
N222 Co205 1.993 . S
N222 N221 1.388 1_655 S
N222 C223 1.346 . S
C223 N222 1.346 . S
C223 C224 1.396 1_655 S
C223 C233 1.510 . S
C224 C220 1.401 . S
C224 C223 1.396 1_455 S
C225 C220 1.499 . S
C225 H226 0.959 . S
C225 H227 0.960 . S
C225 H228 0.961 . S
H226 C225 0.959 . S
H227 C225 0.960 . S
H228 C225 0.961 . S
O229 Co204 1.967 1_655 S
O229 C237 1.258 . S
O230 Co205 1.941 . S
O230 C237 1.266 . S
H231 C233 0.959 . S
H232 C233 0.961 . S
C233 C223 1.510 . S
C233 H231 0.959 . S
C233 H232 0.961 . S
C233 H234 0.960 . S
H234 C233 0.960 . S
H235 N215 0.862 . S
O236 Co204 1.932 . S
O236 C209 1.291 . S
C237 O229 1.258 . S
C237 O230 1.266 . S
Co238 O241 1.970 . S
Co238 N255 1.989 . S
Co238 O263 1.967 1_565 S
Co238 O270 1.932 . S
Co239 O242 1.966 . S
Co239 N248 2.022 . S
Co239 N256 1.993 . S
Co239 O264 1.941 . S
C240 O241 1.258 . S
C240 O242 1.263 1_565 S
O241 Co238 1.970 . S
O241 C240 1.258 . S
O242 Co239 1.966 . S
O242 C240 1.263 1_545 S
C243 O244 1.235 . S
C243 O270 1.291 . S
O244 C243 1.235 . S
C245 C247 1.400 . S
C245 N248 1.351 . S
C245 C250 1.501 . S
C246 C247 1.387 . S
C246 N249 1.341 . S
C247 C245 1.400 . S
C247 C246 1.387 . S
N248 Co239 2.022 . S
N248 C245 1.351 . S
N248 N249 1.365 . S
N249 C246 1.341 . S
N249 N248 1.365 . S
N249 H269 0.862 . S
C250 C245 1.501 . S
C250 H251 0.961 . S
C250 H252 0.961 . S
C250 H253 0.960 . S
H251 C250 0.961 . S
H252 C250 0.961 . S
H253 C250 0.960 . S
C254 N255 1.342 . S
C254 C258 1.401 . S
C254 C259 1.499 . S
N255 Co238 1.989 . S
N255 C254 1.342 . S
N255 N256 1.388 1_565 S
N256 Co239 1.993 . S
N256 N255 1.388 1_545 S
N256 C257 1.346 . S
C257 N256 1.346 . S
C257 C258 1.396 1_545 S
C257 C267 1.510 . S
C258 C254 1.401 . S
C258 C257 1.396 1_565 S
C259 C254 1.499 . S
C259 H260 0.959 . S
C259 H261 0.960 . S
C259 H262 0.961 . S
H260 C259 0.959 . S
H261 C259 0.960 . S
H262 C259 0.961 . S
O263 Co238 1.967 1_545 S
O263 C271 1.258 . S
O264 Co239 1.941 . S
O264 C271 1.266 . S
H265 C267 0.959 . S
H266 C267 0.961 . S
C267 C257 1.510 . S
C267 H265 0.959 . S
C267 H266 0.961 . S
C267 H268 0.960 . S
H268 C267 0.960 . S
H269 N249 0.862 . S
O270 Co238 1.932 . S
O270 C243 1.291 . S
C271 O263 1.258 . S
C271 O264 1.266 . S
Co272 O275 1.970 . S
Co272 N289 1.989 . S
Co272 O297 1.967 . S
Co272 O304 1.920 . S
Co273 O276 1.966 . S
Co273 N282 2.022 . S
Co273 N290 1.993 . S
Co273 O298 1.941 . S
C274 O275 1.258 . S
C274 O276 1.263 . S
O275 Co272 1.970 . S
O275 C274 1.258 . S
O276 Co273 1.966 . S
O276 C274 1.263 . S
C277 O278 1.235 . S
C277 O304 1.289 . S
O278 C277 1.235 . S
C279 C281 1.400 . S
C279 N282 1.351 . S
C279 C284 1.501 . S
C280 C281 1.387 . S
C280 N283 1.341 . S
C281 C279 1.400 . S
C281 C280 1.387 . S
N282 Co273 2.022 . S
N282 C279 1.351 . S
N282 N283 1.365 . S
N283 C280 1.341 . S
N283 N282 1.365 . S
N283 H303 0.862 . S
C284 C279 1.501 . S
C284 H285 0.961 . S
C284 H286 0.961 . S
C284 H287 0.960 . S
H285 C284 0.961 . S
H286 C284 0.961 . S
H287 C284 0.960 . S
C288 N289 1.342 . S
C288 C292 1.401 . S
C288 C293 1.499 . S
N289 Co272 1.989 . S
N289 C288 1.342 . S
N289 N290 1.388 . S
N290 Co273 1.993 . S
N290 N289 1.388 . S
N290 C291 1.346 . S
C291 N290 1.346 . S
C291 C292 1.396 . S
C291 C301 1.510 . S
C292 C288 1.401 . S
C292 C291 1.396 . S
C293 C288 1.499 . S
C293 H294 0.959 . S
C293 H295 0.960 . S
C293 H296 0.961 . S
H294 C293 0.959 . S
H295 C293 0.960 . S
H296 C293 0.961 . S
O297 Co272 1.967 . S
O297 C305 1.258 . S
O298 Co273 1.941 . S
O298 C305 1.266 . S
H299 C301 0.959 . S
H300 C301 0.961 . S
C301 C291 1.510 . S
C301 H299 0.959 . S
C301 H300 0.961 . S
C301 H302 0.960 . S
H302 C301 0.960 . S
H303 N283 0.862 . S
O304 Co272 1.920 . S
O304 C277 1.289 . S
C305 O297 1.258 . S
C305 O298 1.266 . S
Co306 O309 1.970 . S
Co306 N323 1.989 . S
Co306 O331 1.967 . S
Co306 O338 1.920 . S
Co307 O310 1.966 . S
Co307 N316 2.022 . S
Co307 N324 1.993 . S
Co307 O332 1.941 . S
C308 O309 1.258 . S
C308 O310 1.263 . S
O309 Co306 1.970 . S
O309 C308 1.258 . S
O310 Co307 1.966 . S
O310 C308 1.263 . S
C311 O312 1.235 . S
C311 O338 1.289 . S
O312 C311 1.235 . S
C313 C315 1.400 . S
C313 N316 1.351 . S
C313 C318 1.501 . S
C314 C315 1.387 . S
C314 N317 1.341 . S
C315 C313 1.400 . S
C315 C314 1.387 . S
N316 Co307 2.022 . S
N316 C313 1.351 . S
N316 N317 1.365 . S
N317 C314 1.341 . S
N317 N316 1.365 . S
N317 H337 0.862 . S
C318 C313 1.501 . S
C318 H319 0.961 . S
C318 H320 0.961 . S
C318 H321 0.960 . S
H319 C318 0.961 . S
H320 C318 0.961 . S
H321 C318 0.960 . S
C322 N323 1.342 . S
C322 C326 1.401 . S
C322 C327 1.499 . S
N323 Co306 1.989 . S
N323 C322 1.342 . S
N323 N324 1.388 . S
N324 Co307 1.993 . S
N324 N323 1.388 . S
N324 C325 1.346 . S
C325 N324 1.346 . S
C325 C326 1.396 . S
C325 C335 1.510 . S
C326 C322 1.401 . S
C326 C325 1.396 . S
C327 C322 1.499 . S
C327 H328 0.959 . S
C327 H329 0.960 . S
C327 H330 0.961 . S
H328 C327 0.959 . S
H329 C327 0.960 . S
H330 C327 0.961 . S
O331 Co306 1.967 . S
O331 C339 1.258 . S
O332 Co307 1.941 . S
O332 C339 1.266 . S
H333 C335 0.959 . S
H334 C335 0.961 . S
C335 C325 1.510 . S
C335 H333 0.959 . S
C335 H334 0.961 . S
C335 H336 0.960 . S
H336 C335 0.960 . S
H337 N317 0.862 . S
O338 Co306 1.920 . S
O338 C311 1.289 . S
C339 O331 1.258 . S
C339 O332 1.266 . S
Co340 O343 1.970 . S
Co340 N357 1.989 . S
Co340 O365 1.967 . S
Co340 O372 1.920 . S
Co341 O344 1.966 . S
Co341 N350 2.022 . S
Co341 N358 1.993 . S
Co341 O366 1.941 . S
C342 O343 1.258 . S
C342 O344 1.263 . S
O343 Co340 1.970 . S
O343 C342 1.258 . S
O344 Co341 1.966 . S
O344 C342 1.263 . S
C345 O346 1.235 . S
C345 O372 1.289 . S
O346 C345 1.235 . S
C347 C349 1.400 . S
C347 N350 1.351 . S
C347 C352 1.501 . S
C348 C349 1.387 . S
C348 N351 1.341 . S
C349 C347 1.400 . S
C349 C348 1.387 . S
N350 Co341 2.022 . S
N350 C347 1.351 . S
N350 N351 1.365 . S
N351 C348 1.341 . S
N351 N350 1.365 . S
N351 H371 0.862 . S
C352 C347 1.501 . S
C352 H353 0.961 . S
C352 H354 0.961 . S
C352 H355 0.960 . S
H353 C352 0.961 . S
H354 C352 0.961 . S
H355 C352 0.960 . S
C356 N357 1.342 . S
C356 C360 1.401 . S
C356 C361 1.499 . S
N357 Co340 1.989 . S
N357 C356 1.342 . S
N357 N358 1.388 . S
N358 Co341 1.993 . S
N358 N357 1.388 . S
N358 C359 1.346 . S
C359 N358 1.346 . S
C359 C360 1.396 . S
C359 C369 1.510 . S
C360 C356 1.401 . S
C360 C359 1.396 . S
C361 C356 1.499 . S
C361 H362 0.959 . S
C361 H363 0.960 . S
C361 H364 0.961 . S
H362 C361 0.959 . S
H363 C361 0.960 . S
H364 C361 0.961 . S
O365 Co340 1.967 . S
O365 C373 1.258 . S
O366 Co341 1.941 . S
O366 C373 1.266 . S
H367 C369 0.959 . S
H368 C369 0.961 . S
C369 C359 1.510 . S
C369 H367 0.959 . S
C369 H368 0.961 . S
C369 H370 0.960 . S
H370 C369 0.960 . S
H371 N351 0.862 . S
O372 Co340 1.920 . S
O372 C345 1.289 . S
C373 O365 1.258 . S
C373 O366 1.266 . S
Co374 O377 1.970 . S
Co374 N391 1.989 . S
Co374 O399 1.967 . S
Co374 O406 1.920 . S
Co375 O378 1.966 . S
Co375 N384 2.022 . S
Co375 N392 1.993 . S
Co375 O400 1.941 . S
C376 O377 1.258 . S
C376 O378 1.263 . S
O377 Co374 1.970 . S
O377 C376 1.258 . S
O378 Co375 1.966 . S
O378 C376 1.263 . S
C379 O380 1.235 . S
C379 O406 1.289 . S
O380 C379 1.235 . S
C381 C383 1.400 . S
C381 N384 1.351 . S
C381 C386 1.501 . S
C382 C383 1.387 . S
C382 N385 1.341 . S
C383 C381 1.400 . S
C383 C382 1.387 . S
N384 Co375 2.022 . S
N384 C381 1.351 . S
N384 N385 1.365 . S
N385 C382 1.341 . S
N385 N384 1.365 . S
N385 H405 0.862 . S
C386 C381 1.501 . S
C386 H387 0.961 . S
C386 H388 0.961 . S
C386 H389 0.960 . S
H387 C386 0.961 . S
H388 C386 0.961 . S
H389 C386 0.960 . S
C390 N391 1.342 . S
C390 C394 1.401 . S
C390 C395 1.499 . S
N391 Co374 1.989 . S
N391 C390 1.342 . S
N391 N392 1.388 . S
N392 Co375 1.993 . S
N392 N391 1.388 . S
N392 C393 1.346 . S
C393 N392 1.346 . S
C393 C394 1.396 . S
C393 C403 1.510 . S
C394 C390 1.401 . S
C394 C393 1.396 . S
C395 C390 1.499 . S
C395 H396 0.959 . S
C395 H397 0.960 . S
C395 H398 0.961 . S
H396 C395 0.959 . S
H397 C395 0.960 . S
H398 C395 0.961 . S
O399 Co374 1.967 . S
O399 C407 1.258 . S
O400 Co375 1.941 . S
O400 C407 1.266 . S
H401 C403 0.959 . S
H402 C403 0.961 . S
C403 C393 1.510 . S
C403 H401 0.959 . S
C403 H402 0.961 . S
C403 H404 0.960 . S
H404 C403 0.960 . S
H405 N385 0.862 . S
O406 Co374 1.920 . S
O406 C379 1.289 . S
C407 O399 1.258 . S
C407 O400 1.266 . S
Co408 O411 1.970 . S
Co408 N425 1.989 . S
Co408 O433 1.967 . S
Co408 O440 1.920 . S
Co409 O412 1.966 . S
Co409 N418 2.022 . S
Co409 N426 1.993 . S
Co409 O434 1.941 . S
C410 O411 1.258 . S
C410 O412 1.263 . S
O411 Co408 1.970 . S
O411 C410 1.258 . S
O412 Co409 1.966 . S
O412 C410 1.263 . S
C413 O414 1.235 . S
C413 O440 1.289 . S
O414 C413 1.235 . S
C415 C417 1.400 . S
C415 N418 1.351 . S
C415 C420 1.501 . S
C416 C417 1.387 . S
C416 N419 1.341 . S
C417 C415 1.400 . S
C417 C416 1.387 . S
N418 Co409 2.022 . S
N418 C415 1.351 . S
N418 N419 1.365 . S
N419 C416 1.341 . S
N419 N418 1.365 . S
N419 H439 0.862 . S
C420 C415 1.501 . S
C420 H421 0.961 . S
C420 H422 0.961 . S
C420 H423 0.960 . S
H421 C420 0.961 . S
H422 C420 0.961 . S
H423 C420 0.960 . S
C424 N425 1.342 . S
C424 C428 1.401 . S
C424 C429 1.499 . S
N425 Co408 1.989 . S
N425 C424 1.342 . S
N425 N426 1.388 . S
N426 Co409 1.993 . S
N426 N425 1.388 . S
N426 C427 1.346 . S
C427 N426 1.346 . S
C427 C428 1.396 . S
C427 C437 1.510 . S
C428 C424 1.401 . S
C428 C427 1.396 . S
C429 C424 1.499 . S
C429 H430 0.959 . S
C429 H431 0.960 . S
C429 H432 0.961 . S
H430 C429 0.959 . S
H431 C429 0.960 . S
H432 C429 0.961 . S
O433 Co408 1.967 . S
O433 C441 1.258 . S
O434 Co409 1.941 . S
O434 C441 1.266 . S
H435 C437 0.959 . S
H436 C437 0.961 . S
C437 C427 1.510 . S
C437 H435 0.959 . S
C437 H436 0.961 . S
C437 H438 0.960 . S
H438 C437 0.960 . S
H439 N419 0.862 . S
O440 Co408 1.920 . S
O440 C413 1.289 . S
C441 O433 1.258 . S
C441 O434 1.266 . S
Co442 O445 1.970 . S
Co442 N459 1.989 . S
Co442 O467 1.967 . S
Co442 O474 1.920 . S
Co443 O446 1.966 . S
Co443 N452 2.022 . S
Co443 N460 1.993 . S
Co443 O468 1.941 . S
C444 O445 1.258 . S
C444 O446 1.263 . S
O445 Co442 1.970 . S
O445 C444 1.258 . S
O446 Co443 1.966 . S
O446 C444 1.263 . S
C447 O448 1.235 . S
C447 O474 1.289 . S
O448 C447 1.235 . S
C449 C451 1.400 . S
C449 N452 1.351 . S
C449 C454 1.501 . S
C450 C451 1.387 . S
C450 N453 1.341 . S
C451 C449 1.400 . S
C451 C450 1.387 . S
N452 Co443 2.022 . S
N452 C449 1.351 . S
N452 N453 1.365 . S
N453 C450 1.341 . S
N453 N452 1.365 . S
N453 H473 0.862 . S
C454 C449 1.501 . S
C454 H455 0.961 . S
C454 H456 0.961 . S
C454 H457 0.960 . S
H455 C454 0.961 . S
H456 C454 0.961 . S
H457 C454 0.960 . S
C458 N459 1.342 . S
C458 C462 1.401 . S
C458 C463 1.499 . S
N459 Co442 1.989 . S
N459 C458 1.342 . S
N459 N460 1.388 . S
N460 Co443 1.993 . S
N460 N459 1.388 . S
N460 C461 1.346 . S
C461 N460 1.346 . S
C461 C462 1.396 . S
C461 C471 1.510 . S
C462 C458 1.401 . S
C462 C461 1.396 . S
C463 C458 1.499 . S
C463 H464 0.959 . S
C463 H465 0.960 . S
C463 H466 0.961 . S
H464 C463 0.959 . S
H465 C463 0.960 . S
H466 C463 0.961 . S
O467 Co442 1.967 . S
O467 C475 1.258 . S
O468 Co443 1.941 . S
O468 C475 1.266 . S
H469 C471 0.959 . S
H470 C471 0.961 . S
C471 C461 1.510 . S
C471 H469 0.959 . S
C471 H470 0.961 . S
C471 H472 0.960 . S
H472 C471 0.960 . S
H473 N453 0.862 . S
O474 Co442 1.920 . S
O474 C447 1.289 . S
C475 O467 1.258 . S
C475 O468 1.266 . S
Co476 O479 1.970 . S
Co476 N493 1.989 . S
Co476 O501 1.967 . S
Co476 O508 1.920 . S
Co477 O480 1.966 . S
Co477 N486 2.022 . S
Co477 N494 1.993 . S
Co477 O502 1.941 . S
C478 O479 1.258 . S
C478 O480 1.263 . S
O479 Co476 1.970 . S
O479 C478 1.258 . S
O480 Co477 1.966 . S
O480 C478 1.263 . S
C481 O482 1.235 . S
C481 O508 1.289 . S
O482 C481 1.235 . S
C483 C485 1.400 . S
C483 N486 1.351 . S
C483 C488 1.501 . S
C484 C485 1.387 . S
C484 N487 1.341 . S
C485 C483 1.400 . S
C485 C484 1.387 . S
N486 Co477 2.022 . S
N486 C483 1.351 . S
N486 N487 1.365 . S
N487 C484 1.341 . S
N487 N486 1.365 . S
N487 H507 0.862 . S
C488 C483 1.501 . S
C488 H489 0.961 . S
C488 H490 0.961 . S
C488 H491 0.960 . S
H489 C488 0.961 . S
H490 C488 0.961 . S
H491 C488 0.960 . S
C492 N493 1.342 . S
C492 C496 1.401 . S
C492 C497 1.499 . S
N493 Co476 1.989 . S
N493 C492 1.342 . S
N493 N494 1.388 . S
N494 Co477 1.993 . S
N494 N493 1.388 . S
N494 C495 1.346 . S
C495 N494 1.346 . S
C495 C496 1.396 . S
C495 C505 1.510 . S
C496 C492 1.401 . S
C496 C495 1.396 . S
C497 C492 1.499 . S
C497 H498 0.959 . S
C497 H499 0.960 . S
C497 H500 0.961 . S
H498 C497 0.959 . S
H499 C497 0.960 . S
H500 C497 0.961 . S
O501 Co476 1.967 . S
O501 C509 1.258 . S
O502 Co477 1.941 . S
O502 C509 1.266 . S
H503 C505 0.959 . S
H504 C505 0.961 . S
C505 C495 1.510 . S
C505 H503 0.959 . S
C505 H504 0.961 . S
C505 H506 0.960 . S
H506 C505 0.960 . S
H507 N487 0.862 . S
O508 Co476 1.920 . S
O508 C481 1.289 . S
C509 O501 1.258 . S
C509 O502 1.266 . S
Co510 O513 1.970 . S
Co510 N527 1.989 . S
Co510 O535 1.967 . S
Co510 O542 1.920 . S
Co511 O514 1.966 . S
Co511 N520 2.022 . S
Co511 N528 1.993 . S
Co511 O536 1.941 . S
C512 O513 1.258 . S
C512 O514 1.263 . S
O513 Co510 1.970 . S
O513 C512 1.258 . S
O514 Co511 1.966 . S
O514 C512 1.263 . S
C515 O516 1.235 . S
C515 O542 1.289 . S
O516 C515 1.235 . S
C517 C519 1.400 . S
C517 N520 1.351 . S
C517 C522 1.501 . S
C518 C519 1.387 . S
C518 N521 1.341 . S
C519 C517 1.400 . S
C519 C518 1.387 . S
N520 Co511 2.022 . S
N520 C517 1.351 . S
N520 N521 1.365 . S
N521 C518 1.341 . S
N521 N520 1.365 . S
N521 H541 0.862 . S
C522 C517 1.501 . S
C522 H523 0.961 . S
C522 H524 0.961 . S
C522 H525 0.960 . S
H523 C522 0.961 . S
H524 C522 0.961 . S
H525 C522 0.960 . S
C526 N527 1.342 . S
C526 C530 1.401 . S
C526 C531 1.499 . S
N527 Co510 1.989 . S
N527 C526 1.342 . S
N527 N528 1.388 . S
N528 Co511 1.993 . S
N528 N527 1.388 . S
N528 C529 1.346 . S
C529 N528 1.346 . S
C529 C530 1.396 . S
C529 C539 1.510 . S
C530 C526 1.401 . S
C530 C529 1.396 . S
C531 C526 1.499 . S
C531 H532 0.959 . S
C531 H533 0.960 . S
C531 H534 0.961 . S
H532 C531 0.959 . S
H533 C531 0.960 . S
H534 C531 0.961 . S
O535 Co510 1.967 . S
O535 C543 1.258 . S
O536 Co511 1.941 . S
O536 C543 1.266 . S
H537 C539 0.959 . S
H538 C539 0.961 . S
C539 C529 1.510 . S
C539 H537 0.959 . S
C539 H538 0.961 . S
C539 H540 0.960 . S
H540 C539 0.960 . S
H541 N521 0.862 . S
O542 Co510 1.920 . S
O542 C515 1.289 . S
C543 O535 1.258 . S
C543 O536 1.266 . S
C33 C379 1.531 . S
C277 C67 1.531 . S
C311 C101 1.531 . S
C345 C135 1.531 . S
C175 C169 1.531 1_554 S
C209 C203 1.531 1_556 S
C237 C243 1.531 1_556 S
C271 C141 1.531 1_554 S
C305 C107 1.531 . S
C339 C5 1.531 . S
C39 C373 1.531 . S
C407 C73 1.531 . S
C447 C441 1.532 . S
C481 C475 1.532 . S
C515 C509 1.532 . S
C543 C413 1.532 . S
C20 C88 1.427 1_645 S
C54 C122 1.427 1_445 S
C224 C156 1.428 1_455 S
C258 C190 1.428 1_565 S
C360 C292 1.428 . S
C326 C394 1.428 . S
C428 C496 1.428 1_565 S
C530 C462 1.428 1_455 S
C70 C2 1.847 1_455 S
C36 C104 1.847 1_545 S
C138 C206 1.847 1_645 S
C240 C172 1.847 1_665 S
C342 C274 1.847 1_545 S
C308 C376 1.847 1_655 S
C410 C478 1.846 . S
C512 C444 1.846 . S
C485 C9 1.712 . S
C43 C519 1.712 . S
C77 C417 1.712 . S
C111 C451 1.712 . S
C145 C349 1.712 . S
C383 C179 1.712 . S
C213 C281 1.712 . S
C247 C315 1.712 . S
