# Generated by pormake.
# Topology wgz, (6)-cn, num edge types: 1
# Building blocks:
#     Node 0, Type 0, BuildingBlock: VOLQOD_clean_sbu_1, # of connection points: 6
#     Node 1, Type 0, BuildingBlock: VOLQOD_clean_sbu_1, # of connection points: 6
#     Node 2, Type 0, BuildingBlock: VOLQOD_clean_sbu_1, # of connection points: 6
#     Node 3, Type 0, BuildingBlock: VOLQOD_clean_sbu_1, # of connection points: 6
#     Node 4, Type 0, BuildingBlock: VOLQOD_clean_sbu_1, # of connection points: 6
#     Node 5, Type 0, BuildingBlock: VOLQOD_clean_sbu_1, # of connection points: 6
#     Node 6, Type 0, BuildingBlock: VOLQOD_clean_sbu_1, # of connection points: 6
#     Node 7, Type 0, BuildingBlock: VOLQOD_clean_sbu_1, # of connection points: 6
#     Node 8, Type 0, BuildingBlock: VOLQOD_clean_sbu_1, # of connection points: 6
#     Node 9, Type 0, BuildingBlock: VOLQOD_clean_sbu_1, # of connection points: 6
#     Node 10, Type 0, BuildingBlock: VOLQOD_clean_sbu_1, # of connection points: 6
#     Node 11, Type 0, BuildingBlock: VOLQOD_clean_sbu_1, # of connection points: 6
#     Node 12, Type 0, BuildingBlock: VOLQOD_clean_sbu_1, # of connection points: 6
#     Node 13, Type 0, BuildingBlock: VOLQOD_clean_sbu_1, # of connection points: 6
#     Node 14, Type 0, BuildingBlock: VOLQOD_clean_sbu_1, # of connection points: 6
#     Node 15, Type 0, BuildingBlock: VOLQOD_clean_sbu_1, # of connection points: 6
#     Edge 16, Type (0, 0), None
#     Edge 17, Type (0, 0), None
#     Edge 18, Type (0, 0), None
#     Edge 19, Type (0, 0), None
#     Edge 20, Type (0, 0), None
#     Edge 21, Type (0, 0), None
#     Edge 22, Type (0, 0), None
#     Edge 23, Type (0, 0), None
#     Edge 24, Type (0, 0), None
#     Edge 25, Type (0, 0), None
#     Edge 26, Type (0, 0), None
#     Edge 27, Type (0, 0), None
#     Edge 28, Type (0, 0), None
#     Edge 29, Type (0, 0), None
#     Edge 30, Type (0, 0), None
#     Edge 31, Type (0, 0), None
#     Edge 32, Type (0, 0), None
#     Edge 33, Type (0, 0), None
#     Edge 34, Type (0, 0), None
#     Edge 35, Type (0, 0), None
#     Edge 36, Type (0, 0), None
#     Edge 37, Type (0, 0), None
#     Edge 38, Type (0, 0), None
#     Edge 39, Type (0, 0), None
#     Edge 40, Type (0, 0), None
#     Edge 41, Type (0, 0), None
#     Edge 42, Type (0, 0), None
#     Edge 43, Type (0, 0), None
#     Edge 44, Type (0, 0), None
#     Edge 45, Type (0, 0), None
#     Edge 46, Type (0, 0), None
#     Edge 47, Type (0, 0), None
#     Edge 48, Type (0, 0), None
#     Edge 49, Type (0, 0), None
#     Edge 50, Type (0, 0), None
#     Edge 51, Type (0, 0), None
#     Edge 52, Type (0, 0), None
#     Edge 53, Type (0, 0), None
#     Edge 54, Type (0, 0), None
#     Edge 55, Type (0, 0), None
#     Edge 56, Type (0, 0), None
#     Edge 57, Type (0, 0), None
#     Edge 58, Type (0, 0), None
#     Edge 59, Type (0, 0), None
#     Edge 60, Type (0, 0), None
#     Edge 61, Type (0, 0), None
#     Edge 62, Type (0, 0), None
#     Edge 63, Type (0, 0), None
# Relax obj value: 0.566
# Max RMSD: 0.288
# Mean RMSD: 0.288
data_MOF--net-wgz--node1-VOLQOD_clean_sbu_1--edge1-none
_symmetry_space_group_name_H-M    P1
_symmetry_Int_Tables_number       1
_symmetry_cell_setting            triclinic
loop_
_symmetry_equiv_pos_as_xyz
'x, y, z'
_cell_length_a     18.766017
_cell_length_b     18.77683
_cell_length_c     26.910995
_cell_angle_alpha  90.005544
_cell_angle_beta   90.013403
_cell_angle_gamma 90.019021
loop_
_atom_site_label
_atom_site_type_symbol
_atom_site_fract_x
_atom_site_fract_y
_atom_site_fract_z
_atom_type_partial_charge
O0 O 0.10148 0.29321 0.21378 0.0
Zn1 Zn 0.10244 0.31136 0.13424 0.0
O2 O 0.1842 0.36522 0.13973 0.0
Zn3 Zn 0.26526 0.32422 0.10871 0.0
Zn4 Zn 0.23517 0.37194 0.19919 0.0
Zn5 Zn 0.16377 0.46406 0.13529 0.0
O6 O 0.28202 0.38741 0.05557 0.0
O7 O 0.22633 0.48773 0.07974 0.0
O8 O 0.13516 0.24258 0.06763 0.0
O9 O 0.24999 0.22576 0.07995 0.0
O10 O 0.35323 0.3259 0.14909 0.0
O11 O 0.29716 0.29 0.2158 0.0
O12 O 0.29362 0.45831 0.19833 0.0
O13 O 0.01244 0.38186 0.12077 0.0
O14 O 0.19462 0.51855 0.19548 0.0
O15 O 0.05945 0.49029 0.12232 0.0
C16 C 0.12283 0.33159 0.25157 0.0
C17 C 0.2671 0.45269 0.0507 0.0
C18 C 0.35425 0.29724 0.19155 0.0
C19 C 0.19495 0.21232 0.05417 0.0
C20 C 0.26094 0.51668 0.20346 0.0
C21 C 0.00486 0.45033 0.11857 0.0
O22 O 0.16644 0.38204 0.24766 0.0
O23 O 0.64272 0.10204 0.21389 0.0
Zn24 Zn 0.62359 0.10304 0.13453 0.0
O25 O 0.56903 0.18431 0.14027 0.0
Zn26 Zn 0.60896 0.26573 0.10909 0.0
Zn27 Zn 0.56279 0.2353 0.19981 0.0
Zn28 Zn 0.47024 0.16305 0.13619 0.0
O29 O 0.54503 0.28179 0.05628 0.0
O30 O 0.44519 0.22548 0.08082 0.0
O31 O 0.69204 0.13613 0.0679 0.0
O32 O 0.70729 0.25125 0.07985 0.0
O33 O 0.60704 0.35382 0.14936 0.0
O34 O 0.64466 0.29796 0.21564 0.0
O35 O 0.47569 0.29267 0.19958 0.0
O36 O 0.5536 0.01249 0.12126 0.0
O37 O 0.41659 0.19297 0.19694 0.0
O38 O 0.44479 0.05863 0.12318 0.0
C39 C 0.60478 0.12323 0.25193 0.0
C40 C 0.47979 0.26637 0.0516 0.0
C41 C 0.63681 0.35498 0.19145 0.0
C42 C 0.72156 0.19622 0.05432 0.0
C43 C 0.41765 0.25931 0.20472 0.0
C44 C 0.48513 0.00439 0.11925 0.0
O45 O 0.55417 0.16668 0.24839 0.0
O46 O 0.83469 0.64218 0.2136 0.0
Zn47 Zn 0.83359 0.62361 0.13412 0.0
O48 O 0.75195 0.56956 0.13982 0.0
Zn49 Zn 0.67069 0.61025 0.10882 0.0
Zn50 Zn 0.70124 0.56298 0.1994 0.0
Zn51 Zn 0.77256 0.47072 0.13554 0.0
O52 O 0.6539 0.54672 0.05587 0.0
O53 O 0.71004 0.44666 0.08007 0.0
O54 O 0.80058 0.69229 0.06749 0.0
O55 O 0.68563 0.70854 0.07969 0.0
O56 O 0.58289 0.6087 0.14935 0.0
O57 O 0.63919 0.64493 0.21589 0.0
O58 O 0.64289 0.47651 0.1988 0.0
O59 O 0.92373 0.55319 0.12067 0.0
O60 O 0.74195 0.41635 0.19584 0.0
O61 O 0.87685 0.44471 0.12252 0.0
C62 C 0.81357 0.60395 0.25152 0.0
C63 C 0.66909 0.4815 0.05102 0.0
C64 C 0.58202 0.6376 0.19173 0.0
C65 C 0.74066 0.72229 0.054 0.0
C66 C 0.67565 0.41818 0.20387 0.0
C67 C 0.93138 0.48472 0.1186 0.0
O68 O 0.77023 0.55325 0.24777 0.0
O69 O 0.29379 0.83342 0.21418 0.0
Zn70 Zn 0.31272 0.83218 0.1348 0.0
O71 O 0.36728 0.7509 0.14059 0.0
Zn72 Zn 0.32716 0.66963 0.10931 0.0
Zn73 Zn 0.37342 0.69972 0.20005 0.0
Zn74 Zn 0.46604 0.77206 0.13627 0.0
O75 O 0.39056 0.65398 0.05618 0.0
O76 O 0.49075 0.70968 0.08077 0.0
O77 O 0.24424 0.79899 0.06819 0.0
O78 O 0.22845 0.68412 0.08065 0.0
O79 O 0.32977 0.58133 0.14932 0.0
O80 O 0.2916 0.63688 0.21556 0.0
O81 O 0.4606 0.64245 0.19984 0.0
O82 O 0.38272 0.92265 0.12137 0.0
O83 O 0.51991 0.74204 0.19692 0.0
O84 O 0.49153 0.87648 0.12324 0.0
C85 C 0.33154 0.81203 0.25226 0.0
C86 C 0.45585 0.66914 0.05146 0.0
C87 C 0.29981 0.57994 0.19133 0.0
C88 C 0.21446 0.73893 0.05482 0.0
C89 C 0.51871 0.67573 0.20484 0.0
C90 C 0.45118 0.93072 0.1193 0.0
O91 O 0.38173 0.76806 0.24883 0.0
O92 O 0.1024 0.64236 0.84079 0.0
Zn93 Zn 0.10351 0.62298 0.92009 0.0
O94 O 0.18481 0.56844 0.91421 0.0
Zn95 Zn 0.26651 0.60813 0.94525 0.0
Zn96 Zn 0.23541 0.56223 0.85452 0.0
Zn97 Zn 0.16349 0.46965 0.91795 0.0
O98 O 0.28311 0.54369 0.99765 0.0
O99 O 0.22622 0.44421 0.97304 0.0
O100 O 0.13673 0.69144 0.98671 0.0
O101 O 0.25219 0.70598 0.97518 0.0
O102 O 0.35429 0.60676 0.90465 0.0
O103 O 0.29793 0.6441 0.83847 0.0
O104 O 0.293 0.47529 0.85463 0.0
O105 O 0.01291 0.553 0.93334 0.0
O106 O 0.19331 0.4162 0.85708 0.0
O107 O 0.05904 0.44424 0.93112 0.0
C108 C 0.12328 0.60441 0.80269 0.0
C109 C 0.26756 0.47849 1.00216 0.0
C110 C 0.35514 0.63642 0.86253 0.0
C111 C 0.19696 0.72063 1.00043 0.0
C112 C 0.25972 0.41724 0.84941 0.0
C113 C 0.0048 0.48456 0.93522 0.0
O114 O 0.16634 0.55345 0.80617 0.0
O115 O 0.29351 0.10115 0.83999 0.0
Zn116 Zn 0.31172 0.10209 0.91954 0.0
O117 O 0.36575 0.18373 0.91414 0.0
Zn118 Zn 0.32509 0.26487 0.94526 0.0
Zn119 Zn 0.37235 0.23475 0.8547 0.0
Zn120 Zn 0.46465 0.16311 0.91839 0.0
O121 O 0.38863 0.28136 0.9983 0.0
O122 O 0.4888 0.22547 0.97394 0.0
O123 O 0.24288 0.13481 0.98615 0.0
O124 O 0.2267 0.24983 0.97421 0.0
O125 O 0.32667 0.35281 0.90487 0.0
O126 O 0.29035 0.2968 0.83824 0.0
O127 O 0.45887 0.29299 0.85552 0.0
O128 O 0.38218 0.01201 0.93297 0.0
O129 O 0.51889 0.19389 0.85808 0.0
O130 O 0.49074 0.05883 0.93127 0.0
C131 C 0.33192 0.12253 0.80222 0.0
C132 C 0.45393 0.26629 1.00304 0.0
C133 C 0.29773 0.35385 0.86249 0.0
C134 C 0.2129 0.19468 0.99973 0.0
C135 C 0.5172 0.26022 0.85032 0.0
C136 C 0.45068 0.00433 0.93509 0.0
O137 O 0.38235 0.16615 0.80618 0.0
O138 O 0.83382 0.29327 0.84039 0.0
Zn139 Zn 0.83259 0.31213 0.91979 0.0
O140 O 0.75121 0.36654 0.91404 0.0
Zn141 Zn 0.66975 0.32654 0.94517 0.0
Zn142 Zn 0.70016 0.37271 0.85453 0.0
Zn143 Zn 0.77231 0.46532 0.91805 0.0
O144 O 0.65355 0.39039 0.99795 0.0
O145 O 0.70961 0.49029 0.97328 0.0
O146 O 0.7995 0.24361 0.98637 0.0
O147 O 0.68428 0.22827 0.9744 0.0
O148 O 0.58166 0.32856 0.90489 0.0
O149 O 0.63758 0.29083 0.83866 0.0
O150 O 0.64258 0.45964 0.85483 0.0
O151 O 0.92303 0.38219 0.9332 0.0
O152 O 0.74219 0.51893 0.85732 0.0
O153 O 0.87678 0.49091 0.93118 0.0
C154 C 0.81253 0.33119 0.80238 0.0
C155 C 0.66869 0.45568 1.00248 0.0
C156 C 0.58051 0.29884 0.8628 0.0
C157 C 0.73938 0.21406 0.99991 0.0
C158 C 0.67578 0.51773 0.84961 0.0
C159 C 0.93108 0.45063 0.9352 0.0
O160 O 0.76872 0.38149 0.80592 0.0
O161 O 0.64239 0.83429 0.84001 0.0
Zn162 Zn 0.62393 0.83303 0.91952 0.0
O163 O 0.56979 0.75143 0.91384 0.0
Zn164 Zn 0.61037 0.67031 0.94503 0.0
Zn165 Zn 0.56337 0.70045 0.85434 0.0
Zn166 Zn 0.47089 0.77212 0.91815 0.0
O167 O 0.54694 0.6541 0.99814 0.0
O168 O 0.44671 0.70987 0.97374 0.0
O169 O 0.69274 0.8001 0.98612 0.0
O170 O 0.70887 0.68515 0.97393 0.0
O171 O 0.60843 0.58228 0.90474 0.0
O172 O 0.64532 0.63815 0.83822 0.0
O173 O 0.47667 0.64239 0.85489 0.0
O174 O 0.55353 0.92315 0.93302 0.0
O175 O 0.41655 0.74145 0.85783 0.0
O176 O 0.44494 0.8764 0.93109 0.0
C177 C 0.60428 0.81293 0.80208 0.0
C178 C 0.48164 0.66918 1.00289 0.0
C179 C 0.63765 0.58114 0.86246 0.0
C180 C 0.72271 0.74018 0.99958 0.0
C181 C 0.41831 0.67517 0.84986 0.0
C182 C 0.48502 0.93086 0.93505 0.0
O183 O 0.55402 0.76905 0.80576 0.0
O184 O 0.60159 0.79362 0.71358 0.0
Zn185 Zn 0.60273 0.8122 0.6341 0.0
O186 O 0.68441 0.8662 0.63986 0.0
Zn187 Zn 0.76557 0.82538 0.60885 0.0
Zn188 Zn 0.73519 0.87279 0.69944 0.0
Zn189 Zn 0.6639 0.96504 0.63549 0.0
O190 O 0.78224 0.8887 0.55578 0.0
O191 O 0.72648 -0.01105 0.58001 0.0
O192 O 0.63572 0.74355 0.56747 0.0
O193 O 0.75054 0.72693 0.57996 0.0
O194 O 0.85347 0.82716 0.64929 0.0
O195 O 0.79733 0.79087 0.71586 0.0
O196 O 0.7935 0.9593 0.69886 0.0
O197 O 0.51265 0.88268 0.6206 0.0
O198 O 0.69449 0.01944 0.69579 0.0
O199 O 0.55962 -0.00889 0.62242 0.0
C200 C 0.62275 0.8318 0.75152 0.0
C201 C 0.76725 0.95396 0.55093 0.0
C202 C 0.85445 0.79826 0.69167 0.0
C203 C 0.6956 0.71339 0.5541 0.0
C204 C 0.76079 0.01767 0.70385 0.0
C205 C 0.50505 0.95115 0.61851 0.0
O206 O 0.66623 0.8824 0.74783 0.0
O207 O 0.14254 0.60225 0.71421 0.0
Zn208 Zn 0.12371 0.60348 0.63479 0.0
O209 O 0.06923 0.6848 0.64058 0.0
Zn210 Zn 0.10954 0.76595 0.60929 0.0
Zn211 Zn 0.06308 0.73613 0.69997 0.0
Zn212 Zn -0.02951 0.66375 0.63612 0.0
O213 O 0.04645 0.78143 0.55595 0.0
O214 O 0.94604 0.72619 0.58059 0.0
O215 O 0.19207 0.63668 0.56815 0.0
O216 O 0.20847 0.75132 0.58106 0.0
O217 O 0.10666 0.85438 0.64916 0.0
O218 O 0.1449 0.79901 0.71544 0.0
O219 O -0.02411 0.79339 0.6997 0.0
O220 O 0.05366 0.51307 0.62132 0.0
O221 O 0.91655 0.69381 0.69671 0.0
O222 O 0.9449 0.55934 0.62308 0.0
C223 C 0.1048 0.62374 0.75225 0.0
C224 C -0.01891 0.76652 0.55124 0.0
C225 C 0.13665 0.85589 0.69116 0.0
C226 C 0.22209 0.69668 0.55495 0.0
C227 C 0.91778 0.76011 0.70469 0.0
C228 C -0.01481 0.50505 0.6192 0.0
O229 O 0.05479 0.66791 0.74881 0.0
O230 O 0.33492 0.14259 0.7138 0.0
Zn231 Zn 0.33407 0.12456 0.63424 0.0
O232 O 0.25229 0.07074 0.63967 0.0
Zn233 Zn 0.17132 0.11202 0.60866 0.0
Zn234 Zn 0.20128 0.06387 0.69909 0.0
Zn235 Zn 0.27266 -0.02805 0.635 0.0
O236 O 0.1546 0.0492 0.55529 0.0
O237 O 0.21001 0.94867 0.57939 0.0
O238 O 0.30131 0.19322 0.56758 0.0
O239 O 0.18674 0.2107 0.58033 0.0
O240 O 0.08329 0.11013 0.64895 0.0
O241 O 0.13928 0.14578 0.71577 0.0
O242 O 0.14282 -0.02249 0.69812 0.0
O243 O 0.42406 0.05406 0.62078 0.0
O244 O 0.24183 0.91722 0.69507 0.0
O245 O 0.37696 0.94567 0.62203 0.0
C246 C 0.31357 0.10413 0.75155 0.0
C247 C 0.16933 -0.01612 0.55037 0.0
C248 C 0.08223 0.13864 0.69146 0.0
C249 C 0.24158 0.22375 0.55428 0.0
C250 C 0.17556 0.91917 0.7032 0.0
C251 C 0.4316 -0.0144 0.61845 0.0
O252 O 0.27001 0.05365 0.74756 0.0
O253 O 0.79363 0.33374 0.71387 0.0
Zn254 Zn 0.81274 0.33281 0.63452 0.0
O255 O 0.86729 0.25151 0.64026 0.0
Zn256 Zn 0.82715 0.17015 0.60909 0.0
Zn257 Zn 0.87367 0.20058 0.69982 0.0
Zn258 Zn 0.96605 0.27272 0.636 0.0
O259 O 0.8908 0.15409 0.55613 0.0
O260 O -0.00918 0.21019 0.58061 0.0
O261 O 0.7443 0.2997 0.56788 0.0
O262 O 0.72865 0.18473 0.58011 0.0
O263 O 0.82926 0.08205 0.64932 0.0
O264 O 0.79187 0.13785 0.71569 0.0
O265 O 0.96079 0.14322 0.69957 0.0
O266 O 0.88273 0.42334 0.62125 0.0
O267 O 0.01989 0.24291 0.69671 0.0
O268 O -0.00848 0.37713 0.62296 0.0
C269 C 0.8316 0.31262 0.75191 0.0
C270 C 0.95606 0.16937 0.55141 0.0
C271 C 0.79964 0.08086 0.69145 0.0
C272 C 0.7146 0.23965 0.55441 0.0
C273 C 0.01884 0.1766 0.70461 0.0
C274 C 0.95119 0.4314 0.61915 0.0
O275 O 0.88231 0.26928 0.74838 0.0
O276 O 0.60253 0.14249 0.34041 0.0
Zn277 Zn 0.60372 0.12358 0.41978 0.0
O278 O 0.68507 0.06913 0.41406 0.0
Zn279 Zn 0.76662 0.10903 0.44518 0.0
Zn280 Zn 0.736 0.06293 0.35452 0.0
Zn281 Zn 0.66388 -0.02966 0.41799 0.0
O282 O 0.78296 0.045 0.49784 0.0
O283 O 0.72653 0.94526 0.47322 0.0
O284 O 0.63681 0.19215 0.48636 0.0
O285 O 0.75215 0.20716 0.47464 0.0
O286 O 0.85461 0.10726 0.4048 0.0
O287 O 0.79852 0.1448 0.33858 0.0
O288 O 0.7936 -0.02397 0.35482 0.0
O289 O 0.51324 0.05357 0.43313 0.0
O290 O 0.694 0.91672 0.35727 0.0
O291 O 0.5594 0.94481 0.43109 0.0
C292 C 0.62371 0.1045 0.3024 0.0
C293 C 0.76762 -0.02024 0.50239 0.0
C294 C 0.85565 0.13694 0.36269 0.0
C295 C 0.69696 0.22157 0.5 0.0
C296 C 0.7604 0.91793 0.34959 0.0
C297 C 0.50514 -0.01487 0.43511 0.0
O298 O 0.66733 0.05405 0.30595 0.0
O299 O 0.79386 0.60147 0.34 0.0
Zn300 Zn 0.81234 0.60275 0.41952 0.0
O301 O 0.86652 0.6843 0.41388 0.0
Zn302 Zn 0.82621 0.76555 0.44505 0.0
Zn303 Zn 0.87279 0.73528 0.35439 0.0
Zn304 Zn 0.96544 0.66356 0.41797 0.0
O305 O 0.88996 0.78181 0.49798 0.0
O306 O -0.01003 0.72573 0.47352 0.0
O307 O 0.74352 0.63573 0.48611 0.0
O308 O 0.72789 0.75085 0.47422 0.0
O309 O 0.82796 0.85349 0.40467 0.0
O310 O 0.79076 0.79747 0.33829 0.0
O311 O 0.95944 0.79338 0.35495 0.0
O312 O 0.88274 0.51261 0.43302 0.0
O313 O 0.01952 0.69432 0.35757 0.0
O314 O -0.00864 0.55927 0.43086 0.0
C315 C 0.832 0.62281 0.3021 0.0
C316 C 0.95523 0.76655 0.50268 0.0
C317 C 0.79855 0.85453 0.36245 0.0
C318 C 0.71377 0.69572 0.49969 0.0
C319 C 0.01781 0.76065 0.34981 0.0
C320 C 0.95126 0.50486 0.43494 0.0
O321 O 0.88223 0.66672 0.3058 0.0
O322 O 0.33383 0.79339 0.34079 0.0
Zn323 Zn 0.33262 0.81283 0.42009 0.0
O324 O 0.25134 0.86743 0.41418 0.0
Zn325 Zn 0.16954 0.82805 0.44525 0.0
Zn326 Zn 0.20071 0.87344 0.35447 0.0
Zn327 Zn 0.27274 0.96626 0.41767 0.0
O328 O 0.15291 0.89291 0.49738 0.0
O329 O 0.21014 -0.00787 0.4727 0.0
O330 O 0.29944 0.74426 0.48666 0.0
O331 O 0.18372 0.73049 0.47563 0.0
O332 O 0.08182 0.82917 0.40456 0.0
O333 O 0.13823 0.79151 0.3385 0.0
O334 O 0.14313 0.96038 0.35449 0.0
O335 O 0.42324 0.8828 0.43337 0.0
O336 O 0.24284 0.01943 0.35669 0.0
O337 O 0.3772 -0.00839 0.43082 0.0
C338 C 0.31293 0.8313 0.30268 0.0
C339 C 0.16867 0.95807 0.50183 0.0
C340 C 0.08101 0.79935 0.36249 0.0
C341 C 0.23915 0.71539 0.50056 0.0
C342 C 0.17639 0.01842 0.34917 0.0
C343 C 0.4314 0.95125 0.4351 0.0
O344 O 0.26972 0.88213 0.3061 0.0
O345 O 0.14276 0.33449 0.34002 0.0
Zn346 Zn 0.12446 0.33352 0.41954 0.0
O347 O 0.07038 0.25188 0.4141 0.0
Zn348 Zn 0.1109 0.17068 0.44523 0.0
Zn349 Zn 0.06379 0.20095 0.35459 0.0
Zn350 Zn -0.02855 0.27261 0.41825 0.0
O351 O 0.0471 0.15409 0.4981 0.0
O352 O 0.94711 0.21033 0.47377 0.0
O353 O 0.19343 0.30088 0.4861 0.0
O354 O 0.20908 0.18566 0.47458 0.0
O355 O 0.10959 0.08281 0.40474 0.0
O356 O 0.14576 0.13888 0.33811 0.0
O357 O -0.02276 0.14273 0.35532 0.0
O358 O 0.05404 0.42364 0.43293 0.0
O359 O 0.91722 0.24187 0.3579 0.0
O360 O 0.94545 0.37691 0.43113 0.0
C361 C 0.10436 0.3132 0.30221 0.0
C362 C -0.01815 0.16936 0.50284 0.0
C363 C 0.13847 0.08183 0.36235 0.0
C364 C 0.22321 0.24099 0.49984 0.0
C365 C 0.91893 0.17554 0.3501 0.0
C366 C -0.01446 0.43136 0.43499 0.0
O367 O 0.05387 0.26964 0.30611 0.0
loop_
_geom_bond_atom_site_label_1
_geom_bond_atom_site_label_2
_geom_bond_distance
_geom_bond_site_symmetry_2
_ccdc_geom_bond_type
O0 Zn1 1.953 . S
O0 C16 1.225 . S
Zn1 O0 1.953 . S
Zn1 O2 1.949 . S
Zn1 O8 1.919 . S
Zn1 O13 1.924 . S
O2 Zn1 1.949 . S
O2 Zn3 1.923 . S
O2 Zn4 1.950 . S
O2 Zn5 1.945 . S
Zn3 O2 1.923 . S
Zn3 O6 1.933 . S
Zn3 O9 1.941 . S
Zn3 O10 1.965 . S
Zn4 O2 1.950 . S
Zn4 O11 1.938 . S
Zn4 O12 1.906 . S
Zn4 O22 1.953 . S
Zn5 O2 1.945 . S
Zn5 O7 1.932 . S
Zn5 O14 1.977 . S
Zn5 O15 1.910 . S
O6 Zn3 1.933 . S
O6 C17 1.229 . S
O7 Zn5 1.932 . S
O7 C17 1.314 . S
O8 Zn1 1.919 . S
O8 C19 1.253 . S
O9 Zn3 1.941 . S
O9 C19 1.283 . S
O10 Zn3 1.965 . S
O10 C18 1.303 . S
O11 Zn4 1.938 . S
O11 C18 1.247 . S
O12 Zn4 1.906 . S
O12 C20 1.304 . S
O13 Zn1 1.924 . S
O13 C21 1.311 . S
O14 Zn5 1.977 . S
O14 C20 1.272 . S
O15 Zn5 1.910 . S
O15 C21 1.231 . S
C16 O0 1.225 . S
C16 O22 1.298 . S
C17 O6 1.229 . S
C17 O7 1.314 . S
C18 O10 1.303 . S
C18 O11 1.247 . S
C19 O8 1.253 . S
C19 O9 1.283 . S
C20 O12 1.304 . S
C20 O14 1.272 . S
C21 O13 1.311 . S
C21 O15 1.231 . S
O22 Zn4 1.953 . S
O22 C16 1.298 . S
O23 Zn24 1.953 . S
O23 C39 1.225 . S
Zn24 O23 1.953 . S
Zn24 O25 1.949 . S
Zn24 O31 1.919 . S
Zn24 O36 1.924 . S
O25 Zn24 1.949 . S
O25 Zn26 1.923 . S
O25 Zn27 1.950 . S
O25 Zn28 1.945 . S
Zn26 O25 1.923 . S
Zn26 O29 1.933 . S
Zn26 O32 1.941 . S
Zn26 O33 1.965 . S
Zn27 O25 1.950 . S
Zn27 O34 1.938 . S
Zn27 O35 1.906 . S
Zn27 O45 1.953 . S
Zn28 O25 1.945 . S
Zn28 O30 1.932 . S
Zn28 O37 1.977 . S
Zn28 O38 1.910 . S
O29 Zn26 1.933 . S
O29 C40 1.229 . S
O30 Zn28 1.932 . S
O30 C40 1.314 . S
O31 Zn24 1.919 . S
O31 C42 1.253 . S
O32 Zn26 1.941 . S
O32 C42 1.283 . S
O33 Zn26 1.965 . S
O33 C41 1.303 . S
O34 Zn27 1.938 . S
O34 C41 1.247 . S
O35 Zn27 1.906 . S
O35 C43 1.304 . S
O36 Zn24 1.924 . S
O36 C44 1.311 . S
O37 Zn28 1.977 . S
O37 C43 1.272 . S
O38 Zn28 1.910 . S
O38 C44 1.231 . S
C39 O23 1.225 . S
C39 O45 1.298 . S
C40 O29 1.229 . S
C40 O30 1.314 . S
C41 O33 1.303 . S
C41 O34 1.247 . S
C42 O31 1.253 . S
C42 O32 1.283 . S
C43 O35 1.304 . S
C43 O37 1.272 . S
C44 O36 1.311 . S
C44 O38 1.231 . S
O45 Zn27 1.953 . S
O45 C39 1.298 . S
O46 Zn47 1.953 . S
O46 C62 1.225 . S
Zn47 O46 1.953 . S
Zn47 O48 1.949 . S
Zn47 O54 1.919 . S
Zn47 O59 1.924 . S
O48 Zn47 1.949 . S
O48 Zn49 1.923 . S
O48 Zn50 1.950 . S
O48 Zn51 1.945 . S
Zn49 O48 1.923 . S
Zn49 O52 1.933 . S
Zn49 O55 1.941 . S
Zn49 O56 1.965 . S
Zn50 O48 1.950 . S
Zn50 O57 1.938 . S
Zn50 O58 1.906 . S
Zn50 O68 1.953 . S
Zn51 O48 1.945 . S
Zn51 O53 1.932 . S
Zn51 O60 1.977 . S
Zn51 O61 1.910 . S
O52 Zn49 1.933 . S
O52 C63 1.229 . S
O53 Zn51 1.932 . S
O53 C63 1.314 . S
O54 Zn47 1.919 . S
O54 C65 1.253 . S
O55 Zn49 1.941 . S
O55 C65 1.283 . S
O56 Zn49 1.965 . S
O56 C64 1.303 . S
O57 Zn50 1.938 . S
O57 C64 1.247 . S
O58 Zn50 1.906 . S
O58 C66 1.304 . S
O59 Zn47 1.924 . S
O59 C67 1.311 . S
O60 Zn51 1.977 . S
O60 C66 1.272 . S
O61 Zn51 1.910 . S
O61 C67 1.231 . S
C62 O46 1.225 . S
C62 O68 1.298 . S
C63 O52 1.229 . S
C63 O53 1.314 . S
C64 O56 1.303 . S
C64 O57 1.247 . S
C65 O54 1.253 . S
C65 O55 1.283 . S
C66 O58 1.304 . S
C66 O60 1.272 . S
C67 O59 1.311 . S
C67 O61 1.231 . S
O68 Zn50 1.953 . S
O68 C62 1.298 . S
O69 Zn70 1.953 . S
O69 C85 1.225 . S
Zn70 O69 1.953 . S
Zn70 O71 1.949 . S
Zn70 O77 1.919 . S
Zn70 O82 1.924 . S
O71 Zn70 1.949 . S
O71 Zn72 1.923 . S
O71 Zn73 1.950 . S
O71 Zn74 1.945 . S
Zn72 O71 1.923 . S
Zn72 O75 1.933 . S
Zn72 O78 1.941 . S
Zn72 O79 1.965 . S
Zn73 O71 1.950 . S
Zn73 O80 1.938 . S
Zn73 O81 1.906 . S
Zn73 O91 1.953 . S
Zn74 O71 1.945 . S
Zn74 O76 1.932 . S
Zn74 O83 1.977 . S
Zn74 O84 1.910 . S
O75 Zn72 1.933 . S
O75 C86 1.229 . S
O76 Zn74 1.932 . S
O76 C86 1.314 . S
O77 Zn70 1.919 . S
O77 C88 1.253 . S
O78 Zn72 1.941 . S
O78 C88 1.283 . S
O79 Zn72 1.965 . S
O79 C87 1.303 . S
O80 Zn73 1.938 . S
O80 C87 1.247 . S
O81 Zn73 1.906 . S
O81 C89 1.304 . S
O82 Zn70 1.924 . S
O82 C90 1.311 . S
O83 Zn74 1.977 . S
O83 C89 1.272 . S
O84 Zn74 1.910 . S
O84 C90 1.231 . S
C85 O69 1.225 . S
C85 O91 1.298 . S
C86 O75 1.229 . S
C86 O76 1.314 . S
C87 O79 1.303 . S
C87 O80 1.247 . S
C88 O77 1.253 . S
C88 O78 1.283 . S
C89 O81 1.304 . S
C89 O83 1.272 . S
C90 O82 1.311 . S
C90 O84 1.231 . S
O91 Zn73 1.953 . S
O91 C85 1.298 . S
O92 Zn93 1.953 . S
O92 C108 1.225 . S
Zn93 O92 1.953 . S
Zn93 O94 1.949 . S
Zn93 O100 1.919 . S
Zn93 O105 1.924 . S
O94 Zn93 1.949 . S
O94 Zn95 1.923 . S
O94 Zn96 1.950 . S
O94 Zn97 1.945 . S
Zn95 O94 1.923 . S
Zn95 O98 1.933 . S
Zn95 O101 1.941 . S
Zn95 O102 1.965 . S
Zn96 O94 1.950 . S
Zn96 O103 1.938 . S
Zn96 O104 1.906 . S
Zn96 O114 1.953 . S
Zn97 O94 1.945 . S
Zn97 O99 1.932 . S
Zn97 O106 1.977 . S
Zn97 O107 1.910 . S
O98 Zn95 1.933 . S
O98 C109 1.229 . S
O99 Zn97 1.932 . S
O99 C109 1.314 . S
O100 Zn93 1.919 . S
O100 C111 1.253 . S
O101 Zn95 1.941 . S
O101 C111 1.283 . S
O102 Zn95 1.965 . S
O102 C110 1.303 . S
O103 Zn96 1.938 . S
O103 C110 1.247 . S
O104 Zn96 1.906 . S
O104 C112 1.304 . S
O105 Zn93 1.924 . S
O105 C113 1.311 . S
O106 Zn97 1.977 . S
O106 C112 1.272 . S
O107 Zn97 1.910 . S
O107 C113 1.231 . S
C108 O92 1.225 . S
C108 O114 1.298 . S
C109 O98 1.229 . S
C109 O99 1.314 . S
C110 O102 1.303 . S
C110 O103 1.247 . S
C111 O100 1.253 . S
C111 O101 1.283 . S
C112 O104 1.304 . S
C112 O106 1.272 . S
C113 O105 1.311 . S
C113 O107 1.231 . S
O114 Zn96 1.953 . S
O114 C108 1.298 . S
O115 Zn116 1.953 . S
O115 C131 1.225 . S
Zn116 O115 1.953 . S
Zn116 O117 1.949 . S
Zn116 O123 1.919 . S
Zn116 O128 1.924 . S
O117 Zn116 1.949 . S
O117 Zn118 1.923 . S
O117 Zn119 1.950 . S
O117 Zn120 1.945 . S
Zn118 O117 1.923 . S
Zn118 O121 1.933 . S
Zn118 O124 1.941 . S
Zn118 O125 1.965 . S
Zn119 O117 1.950 . S
Zn119 O126 1.938 . S
Zn119 O127 1.906 . S
Zn119 O137 1.953 . S
Zn120 O117 1.945 . S
Zn120 O122 1.932 . S
Zn120 O129 1.977 . S
Zn120 O130 1.910 . S
O121 Zn118 1.933 . S
O121 C132 1.229 . S
O122 Zn120 1.932 . S
O122 C132 1.314 . S
O123 Zn116 1.919 . S
O123 C134 1.253 . S
O124 Zn118 1.941 . S
O124 C134 1.283 . S
O125 Zn118 1.965 . S
O125 C133 1.303 . S
O126 Zn119 1.938 . S
O126 C133 1.247 . S
O127 Zn119 1.906 . S
O127 C135 1.304 . S
O128 Zn116 1.924 . S
O128 C136 1.311 . S
O129 Zn120 1.977 . S
O129 C135 1.272 . S
O130 Zn120 1.910 . S
O130 C136 1.231 . S
C131 O115 1.225 . S
C131 O137 1.298 . S
C132 O121 1.229 . S
C132 O122 1.314 . S
C133 O125 1.303 . S
C133 O126 1.247 . S
C134 O123 1.253 . S
C134 O124 1.283 . S
C135 O127 1.304 . S
C135 O129 1.272 . S
C136 O128 1.311 . S
C136 O130 1.231 . S
O137 Zn119 1.953 . S
O137 C131 1.298 . S
O138 Zn139 1.953 . S
O138 C154 1.225 . S
Zn139 O138 1.953 . S
Zn139 O140 1.949 . S
Zn139 O146 1.919 . S
Zn139 O151 1.924 . S
O140 Zn139 1.949 . S
O140 Zn141 1.923 . S
O140 Zn142 1.950 . S
O140 Zn143 1.945 . S
Zn141 O140 1.923 . S
Zn141 O144 1.933 . S
Zn141 O147 1.941 . S
Zn141 O148 1.965 . S
Zn142 O140 1.950 . S
Zn142 O149 1.938 . S
Zn142 O150 1.906 . S
Zn142 O160 1.953 . S
Zn143 O140 1.945 . S
Zn143 O145 1.932 . S
Zn143 O152 1.977 . S
Zn143 O153 1.910 . S
O144 Zn141 1.933 . S
O144 C155 1.229 . S
O145 Zn143 1.932 . S
O145 C155 1.314 . S
O146 Zn139 1.919 . S
O146 C157 1.253 . S
O147 Zn141 1.941 . S
O147 C157 1.283 . S
O148 Zn141 1.965 . S
O148 C156 1.303 . S
O149 Zn142 1.938 . S
O149 C156 1.247 . S
O150 Zn142 1.906 . S
O150 C158 1.304 . S
O151 Zn139 1.924 . S
O151 C159 1.311 . S
O152 Zn143 1.977 . S
O152 C158 1.272 . S
O153 Zn143 1.910 . S
O153 C159 1.231 . S
C154 O138 1.225 . S
C154 O160 1.298 . S
C155 O144 1.229 . S
C155 O145 1.314 . S
C156 O148 1.303 . S
C156 O149 1.247 . S
C157 O146 1.253 . S
C157 O147 1.283 . S
C158 O150 1.304 . S
C158 O152 1.272 . S
C159 O151 1.311 . S
C159 O153 1.231 . S
O160 Zn142 1.953 . S
O160 C154 1.298 . S
O161 Zn162 1.953 . S
O161 C177 1.225 . S
Zn162 O161 1.953 . S
Zn162 O163 1.949 . S
Zn162 O169 1.919 . S
Zn162 O174 1.924 . S
O163 Zn162 1.949 . S
O163 Zn164 1.923 . S
O163 Zn165 1.950 . S
O163 Zn166 1.945 . S
Zn164 O163 1.923 . S
Zn164 O167 1.933 . S
Zn164 O170 1.941 . S
Zn164 O171 1.965 . S
Zn165 O163 1.950 . S
Zn165 O172 1.938 . S
Zn165 O173 1.906 . S
Zn165 O183 1.953 . S
Zn166 O163 1.945 . S
Zn166 O168 1.932 . S
Zn166 O175 1.977 . S
Zn166 O176 1.910 . S
O167 Zn164 1.933 . S
O167 C178 1.229 . S
O168 Zn166 1.932 . S
O168 C178 1.314 . S
O169 Zn162 1.919 . S
O169 C180 1.253 . S
O170 Zn164 1.941 . S
O170 C180 1.283 . S
O171 Zn164 1.965 . S
O171 C179 1.303 . S
O172 Zn165 1.938 . S
O172 C179 1.247 . S
O173 Zn165 1.906 . S
O173 C181 1.304 . S
O174 Zn162 1.924 . S
O174 C182 1.311 . S
O175 Zn166 1.977 . S
O175 C181 1.272 . S
O176 Zn166 1.910 . S
O176 C182 1.231 . S
C177 O161 1.225 . S
C177 O183 1.298 . S
C178 O167 1.229 . S
C178 O168 1.314 . S
C179 O171 1.303 . S
C179 O172 1.247 . S
C180 O169 1.253 . S
C180 O170 1.283 . S
C181 O173 1.304 . S
C181 O175 1.272 . S
C182 O174 1.311 . S
C182 O176 1.231 . S
O183 Zn165 1.953 . S
O183 C177 1.298 . S
O184 Zn185 1.953 . S
O184 C200 1.225 . S
Zn185 O184 1.953 . S
Zn185 O186 1.949 . S
Zn185 O192 1.919 . S
Zn185 O197 1.924 . S
O186 Zn185 1.949 . S
O186 Zn187 1.923 . S
O186 Zn188 1.950 . S
O186 Zn189 1.945 . S
Zn187 O186 1.923 . S
Zn187 O190 1.933 . S
Zn187 O193 1.941 . S
Zn187 O194 1.965 . S
Zn188 O186 1.950 . S
Zn188 O195 1.938 . S
Zn188 O196 1.906 1_565 S
Zn188 O206 1.953 . S
Zn189 O186 1.945 . S
Zn189 O191 1.932 1_565 S
Zn189 O198 1.977 1_565 S
Zn189 O199 1.910 . S
O190 Zn187 1.933 . S
O190 C201 1.226 . S
O191 Zn189 1.932 1_545 S
O191 C201 1.307 1_545 S
O192 Zn185 1.919 . S
O192 C203 1.253 . S
O193 Zn187 1.941 . S
O193 C203 1.283 . S
O194 Zn187 1.965 . S
O194 C202 1.303 . S
O195 Zn188 1.938 . S
O195 C202 1.247 . S
O196 Zn188 1.906 1_545 S
O196 C204 1.304 . S
O197 Zn185 1.924 . S
O197 C205 1.311 . S
O198 Zn189 1.977 1_545 S
O198 C204 1.272 . S
O199 Zn189 1.910 . S
O199 C205 1.231 . S
C200 O184 1.225 . S
C200 O206 1.298 . S
C201 O190 1.226 . S
C201 O191 1.307 1_565 S
C202 O194 1.303 . S
C202 O195 1.247 . S
C203 O192 1.253 . S
C203 O193 1.283 . S
C204 O196 1.304 . S
C204 O198 1.272 . S
C205 O197 1.311 . S
C205 O199 1.231 . S
O206 Zn188 1.953 . S
O206 C200 1.298 . S
O207 Zn208 1.953 . S
O207 C223 1.225 . S
Zn208 O207 1.953 . S
Zn208 O209 1.949 . S
Zn208 O215 1.919 . S
Zn208 O220 1.924 . S
O209 Zn208 1.949 . S
O209 Zn210 1.923 . S
O209 Zn211 1.950 . S
O209 Zn212 1.945 . S
Zn210 O209 1.923 . S
Zn210 O213 1.933 . S
Zn210 O216 1.941 . S
Zn210 O217 1.965 . S
Zn211 O209 1.950 . S
Zn211 O218 1.938 . S
Zn211 O219 1.906 1_455 S
Zn211 O229 1.953 . S
Zn212 O209 1.945 . S
Zn212 O214 1.932 1_455 S
Zn212 O221 1.977 1_455 S
Zn212 O222 1.910 . S
O213 Zn210 1.933 . S
O213 C224 1.226 . S
O214 Zn212 1.932 1_655 S
O214 C224 1.307 1_655 S
O215 Zn208 1.919 . S
O215 C226 1.253 . S
O216 Zn210 1.941 . S
O216 C226 1.283 . S
O217 Zn210 1.965 . S
O217 C225 1.303 . S
O218 Zn211 1.938 . S
O218 C225 1.247 . S
O219 Zn211 1.906 1_655 S
O219 C227 1.304 . S
O220 Zn208 1.924 . S
O220 C228 1.311 . S
O221 Zn212 1.977 1_655 S
O221 C227 1.272 . S
O222 Zn212 1.910 . S
O222 C228 1.231 . S
C223 O207 1.225 . S
C223 O229 1.298 . S
C224 O213 1.226 . S
C224 O214 1.307 1_455 S
C225 O217 1.303 . S
C225 O218 1.247 . S
C226 O215 1.253 . S
C226 O216 1.283 . S
C227 O219 1.304 . S
C227 O221 1.272 . S
C228 O220 1.311 . S
C228 O222 1.231 . S
O229 Zn211 1.953 . S
O229 C223 1.298 . S
O230 Zn231 1.953 . S
O230 C246 1.225 . S
Zn231 O230 1.953 . S
Zn231 O232 1.949 . S
Zn231 O238 1.919 . S
Zn231 O243 1.924 . S
O232 Zn231 1.949 . S
O232 Zn233 1.923 . S
O232 Zn234 1.950 . S
O232 Zn235 1.945 . S
Zn233 O232 1.923 . S
Zn233 O236 1.933 . S
Zn233 O239 1.941 . S
Zn233 O240 1.965 . S
Zn234 O232 1.950 . S
Zn234 O241 1.938 . S
Zn234 O242 1.906 1_545 S
Zn234 O252 1.953 . S
Zn235 O232 1.945 . S
Zn235 O237 1.932 1_545 S
Zn235 O244 1.977 1_545 S
Zn235 O245 1.910 . S
O236 Zn233 1.933 . S
O236 C247 1.226 . S
O237 Zn235 1.932 1_565 S
O237 C247 1.307 1_565 S
O238 Zn231 1.919 . S
O238 C249 1.253 . S
O239 Zn233 1.941 . S
O239 C249 1.283 . S
O240 Zn233 1.965 . S
O240 C248 1.303 . S
O241 Zn234 1.938 . S
O241 C248 1.247 . S
O242 Zn234 1.906 1_565 S
O242 C250 1.304 . S
O243 Zn231 1.924 . S
O243 C251 1.311 . S
O244 Zn235 1.977 1_565 S
O244 C250 1.272 . S
O245 Zn235 1.910 . S
O245 C251 1.231 . S
C246 O230 1.225 . S
C246 O252 1.298 . S
C247 O236 1.226 . S
C247 O237 1.307 1_545 S
C248 O240 1.303 . S
C248 O241 1.247 . S
C249 O238 1.253 . S
C249 O239 1.283 . S
C250 O242 1.304 . S
C250 O244 1.272 . S
C251 O243 1.311 . S
C251 O245 1.231 . S
O252 Zn234 1.953 . S
O252 C246 1.298 . S
O253 Zn254 1.953 . S
O253 C269 1.225 . S
Zn254 O253 1.953 . S
Zn254 O255 1.949 . S
Zn254 O261 1.919 . S
Zn254 O266 1.924 . S
O255 Zn254 1.949 . S
O255 Zn256 1.923 . S
O255 Zn257 1.950 . S
O255 Zn258 1.945 . S
Zn256 O255 1.923 . S
Zn256 O259 1.933 . S
Zn256 O262 1.941 . S
Zn256 O263 1.965 . S
Zn257 O255 1.950 . S
Zn257 O264 1.938 . S
Zn257 O265 1.906 1_655 S
Zn257 O275 1.953 . S
Zn258 O255 1.945 . S
Zn258 O260 1.932 1_655 S
Zn258 O267 1.977 1_655 S
Zn258 O268 1.910 . S
O259 Zn256 1.933 . S
O259 C270 1.226 . S
O260 Zn258 1.932 1_455 S
O260 C270 1.307 1_455 S
O261 Zn254 1.919 . S
O261 C272 1.253 . S
O262 Zn256 1.941 . S
O262 C272 1.283 . S
O263 Zn256 1.965 . S
O263 C271 1.303 . S
O264 Zn257 1.938 . S
O264 C271 1.247 . S
O265 Zn257 1.906 1_455 S
O265 C273 1.304 . S
O266 Zn254 1.924 . S
O266 C274 1.311 . S
O267 Zn258 1.977 1_455 S
O267 C273 1.272 . S
O268 Zn258 1.910 . S
O268 C274 1.231 . S
C269 O253 1.225 . S
C269 O275 1.298 . S
C270 O259 1.226 . S
C270 O260 1.307 1_655 S
C271 O263 1.303 . S
C271 O264 1.247 . S
C272 O261 1.253 . S
C272 O262 1.283 . S
C273 O265 1.304 . S
C273 O267 1.272 . S
C274 O266 1.311 . S
C274 O268 1.231 . S
O275 Zn257 1.953 . S
O275 C269 1.298 . S
O276 Zn277 1.953 . S
O276 C292 1.225 . S
Zn277 O276 1.953 . S
Zn277 O278 1.949 . S
Zn277 O284 1.919 . S
Zn277 O289 1.924 . S
O278 Zn277 1.949 . S
O278 Zn279 1.923 . S
O278 Zn280 1.950 . S
O278 Zn281 1.945 . S
Zn279 O278 1.923 . S
Zn279 O282 1.933 . S
Zn279 O285 1.941 . S
Zn279 O286 1.965 . S
Zn280 O278 1.950 . S
Zn280 O287 1.938 . S
Zn280 O288 1.906 1_545 S
Zn280 O298 1.953 . S
Zn281 O278 1.945 . S
Zn281 O283 1.932 1_545 S
Zn281 O290 1.977 1_545 S
Zn281 O291 1.910 . S
O282 Zn279 1.933 . S
O282 C293 1.226 . S
O283 Zn281 1.932 1_565 S
O283 C293 1.307 1_565 S
O284 Zn277 1.919 . S
O284 C295 1.253 . S
O285 Zn279 1.941 . S
O285 C295 1.283 . S
O286 Zn279 1.965 . S
O286 C294 1.303 . S
O287 Zn280 1.938 . S
O287 C294 1.247 . S
O288 Zn280 1.906 1_565 S
O288 C296 1.304 . S
O289 Zn277 1.924 . S
O289 C297 1.311 . S
O290 Zn281 1.977 1_565 S
O290 C296 1.272 . S
O291 Zn281 1.910 . S
O291 C297 1.231 . S
C292 O276 1.225 . S
C292 O298 1.298 . S
C293 O282 1.226 . S
C293 O283 1.307 1_545 S
C294 O286 1.303 . S
C294 O287 1.247 . S
C295 O284 1.253 . S
C295 O285 1.283 . S
C296 O288 1.304 . S
C296 O290 1.272 . S
C297 O289 1.311 . S
C297 O291 1.231 . S
O298 Zn280 1.953 . S
O298 C292 1.298 . S
O299 Zn300 1.953 . S
O299 C315 1.225 . S
Zn300 O299 1.953 . S
Zn300 O301 1.949 . S
Zn300 O307 1.919 . S
Zn300 O312 1.924 . S
O301 Zn300 1.949 . S
O301 Zn302 1.923 . S
O301 Zn303 1.950 . S
O301 Zn304 1.945 . S
Zn302 O301 1.923 . S
Zn302 O305 1.933 . S
Zn302 O308 1.941 . S
Zn302 O309 1.965 . S
Zn303 O301 1.950 . S
Zn303 O310 1.938 . S
Zn303 O311 1.906 1_655 S
Zn303 O321 1.953 . S
Zn304 O301 1.945 . S
Zn304 O306 1.932 1_655 S
Zn304 O313 1.977 1_655 S
Zn304 O314 1.910 . S
O305 Zn302 1.933 . S
O305 C316 1.226 . S
O306 Zn304 1.932 1_455 S
O306 C316 1.307 1_455 S
O307 Zn300 1.919 . S
O307 C318 1.253 . S
O308 Zn302 1.941 . S
O308 C318 1.283 . S
O309 Zn302 1.965 . S
O309 C317 1.303 . S
O310 Zn303 1.938 . S
O310 C317 1.247 . S
O311 Zn303 1.906 1_455 S
O311 C319 1.304 . S
O312 Zn300 1.924 . S
O312 C320 1.311 . S
O313 Zn304 1.977 1_455 S
O313 C319 1.272 . S
O314 Zn304 1.910 . S
O314 C320 1.231 . S
C315 O299 1.225 . S
C315 O321 1.298 . S
C316 O305 1.226 . S
C316 O306 1.307 1_655 S
C317 O309 1.303 . S
C317 O310 1.247 . S
C318 O307 1.253 . S
C318 O308 1.283 . S
C319 O311 1.304 . S
C319 O313 1.272 . S
C320 O312 1.311 . S
C320 O314 1.231 . S
O321 Zn303 1.953 . S
O321 C315 1.298 . S
O322 Zn323 1.953 . S
O322 C338 1.225 . S
Zn323 O322 1.953 . S
Zn323 O324 1.949 . S
Zn323 O330 1.919 . S
Zn323 O335 1.924 . S
O324 Zn323 1.949 . S
O324 Zn325 1.923 . S
O324 Zn326 1.950 . S
O324 Zn327 1.945 . S
Zn325 O324 1.923 . S
Zn325 O328 1.933 . S
Zn325 O331 1.941 . S
Zn325 O332 1.965 . S
Zn326 O324 1.950 . S
Zn326 O333 1.938 . S
Zn326 O334 1.906 1_565 S
Zn326 O344 1.953 . S
Zn327 O324 1.945 . S
Zn327 O329 1.932 1_565 S
Zn327 O336 1.977 1_565 S
Zn327 O337 1.910 . S
O328 Zn325 1.933 . S
O328 C339 1.226 . S
O329 Zn327 1.932 1_545 S
O329 C339 1.307 1_545 S
O330 Zn323 1.919 . S
O330 C341 1.253 . S
O331 Zn325 1.941 . S
O331 C341 1.283 . S
O332 Zn325 1.965 . S
O332 C340 1.303 . S
O333 Zn326 1.938 . S
O333 C340 1.247 . S
O334 Zn326 1.906 1_545 S
O334 C342 1.304 . S
O335 Zn323 1.924 . S
O335 C343 1.311 . S
O336 Zn327 1.977 1_545 S
O336 C342 1.272 . S
O337 Zn327 1.910 . S
O337 C343 1.231 . S
C338 O322 1.225 . S
C338 O344 1.298 . S
C339 O328 1.226 . S
C339 O329 1.307 1_565 S
C340 O332 1.303 . S
C340 O333 1.247 . S
C341 O330 1.253 . S
C341 O331 1.283 . S
C342 O334 1.304 . S
C342 O336 1.272 . S
C343 O335 1.311 . S
C343 O337 1.231 . S
O344 Zn326 1.953 . S
O344 C338 1.298 . S
O345 Zn346 1.953 . S
O345 C361 1.225 . S
Zn346 O345 1.953 . S
Zn346 O347 1.949 . S
Zn346 O353 1.919 . S
Zn346 O358 1.924 . S
O347 Zn346 1.949 . S
O347 Zn348 1.923 . S
O347 Zn349 1.950 . S
O347 Zn350 1.945 . S
Zn348 O347 1.923 . S
Zn348 O351 1.933 . S
Zn348 O354 1.941 . S
Zn348 O355 1.965 . S
Zn349 O347 1.950 . S
Zn349 O356 1.938 . S
Zn349 O357 1.906 1_455 S
Zn349 O367 1.953 . S
Zn350 O347 1.945 . S
Zn350 O352 1.932 1_455 S
Zn350 O359 1.977 1_455 S
Zn350 O360 1.910 . S
O351 Zn348 1.933 . S
O351 C362 1.226 . S
O352 Zn350 1.932 1_655 S
O352 C362 1.307 1_655 S
O353 Zn346 1.919 . S
O353 C364 1.253 . S
O354 Zn348 1.941 . S
O354 C364 1.283 . S
O355 Zn348 1.965 . S
O355 C363 1.303 . S
O356 Zn349 1.938 . S
O356 C363 1.247 . S
O357 Zn349 1.906 1_655 S
O357 C365 1.304 . S
O358 Zn346 1.924 . S
O358 C366 1.311 . S
O359 Zn350 1.977 1_655 S
O359 C365 1.272 . S
O360 Zn350 1.910 . S
O360 C366 1.231 . S
C361 O345 1.225 . S
C361 O367 1.298 . S
C362 O351 1.226 . S
C362 O352 1.307 1_455 S
C363 O355 1.303 . S
C363 O356 1.247 . S
C364 O353 1.253 . S
C364 O354 1.283 . S
C365 O357 1.304 . S
C365 O359 1.272 . S
C366 O358 1.311 . S
C366 O360 1.231 . S
O367 Zn349 1.953 . S
O367 C361 1.298 . S
C16 C361 1.776 . S
C292 C39 1.776 . S
C62 C315 1.776 . S
C338 C85 1.776 . S
C108 C223 1.776 . S
C246 C131 1.776 . S
C154 C269 1.776 . S
C200 C177 1.776 . S
C67 C21 2.575 1_655 S
C90 C44 2.575 1_565 S
C159 C113 2.575 1_655 S
C182 C136 2.575 1_565 S
C205 C251 2.575 1_565 S
C228 C274 2.575 1_455 S
C343 C297 2.575 1_565 S
C366 C320 2.575 1_455 S
C18 C43 1.502 . S
C66 C41 1.502 . S
C64 C89 1.502 . S
C20 C87 1.502 . S
C110 C181 1.502 . S
C112 C133 1.502 . S
C156 C135 1.502 . S
C158 C179 1.502 . S
C202 C227 1.502 . S
C250 C225 1.502 . S
C273 C248 1.502 . S
C271 C204 1.502 . S
C294 C365 1.502 . S
C296 C317 1.502 . S
C340 C319 1.502 . S
C342 C363 1.502 . S
C19 C134 2.772 1_554 S
C157 C42 2.772 1_556 S
C180 C65 2.772 1_556 S
C111 C88 2.772 1_556 S
C318 C203 2.772 . S
C226 C341 2.772 . S
C364 C249 2.772 . S
C272 C295 2.772 . S
C109 C17 0.928 1_556 S
C40 C132 0.928 1_554 S
C63 C155 0.928 1_554 S
C86 C178 0.928 1_554 S
C293 C201 0.928 1_545 S
C316 C224 0.928 1_655 S
C339 C247 0.928 1_565 S
C270 C362 0.928 1_655 S
