# Generated by pormake.
# Topology upb, (4)-cn, num edge types: 1
# Building blocks:
#     Node 0, Type 0, BuildingBlock: TATPOV_clean_sbu_0, # of connection points: 4
#     Node 1, Type 0, BuildingBlock: TATPOV_clean_sbu_0, # of connection points: 4
#     Node 2, Type 0, BuildingBlock: TATPOV_clean_sbu_0, # of connection points: 4
#     Node 3, Type 0, BuildingBlock: TATPOV_clean_sbu_0, # of connection points: 4
#     Node 4, Type 0, BuildingBlock: TATPOV_clean_sbu_0, # of connection points: 4
#     Node 5, Type 0, BuildingBlock: TATPOV_clean_sbu_0, # of connection points: 4
#     Node 6, Type 0, BuildingBlock: TATPOV_clean_sbu_0, # of connection points: 4
#     Node 7, Type 0, BuildingBlock: TATPOV_clean_sbu_0, # of connection points: 4
#     Node 8, Type 0, BuildingBlock: TATPOV_clean_sbu_0, # of connection points: 4
#     Node 9, Type 0, BuildingBlock: TATPOV_clean_sbu_0, # of connection points: 4
#     Node 10, Type 0, BuildingBlock: TATPOV_clean_sbu_0, # of connection points: 4
#     Node 11, Type 0, BuildingBlock: TATPOV_clean_sbu_0, # of connection points: 4
#     Node 12, Type 0, BuildingBlock: TATPOV_clean_sbu_0, # of connection points: 4
#     Node 13, Type 0, BuildingBlock: TATPOV_clean_sbu_0, # of connection points: 4
#     Node 14, Type 0, BuildingBlock: TATPOV_clean_sbu_0, # of connection points: 4
#     Node 15, Type 0, BuildingBlock: TATPOV_clean_sbu_0, # of connection points: 4
#     Edge 16, Type (0, 0), BuildingBlock: TEMPAE_clean_linker_10, # of connection points: 2
#     Edge 17, Type (0, 0), BuildingBlock: TEMPAE_clean_linker_10, # of connection points: 2
#     Edge 18, Type (0, 0), BuildingBlock: TEMPAE_clean_linker_10, # of connection points: 2
#     Edge 19, Type (0, 0), BuildingBlock: TEMPAE_clean_linker_10, # of connection points: 2
#     Edge 20, Type (0, 0), BuildingBlock: TEMPAE_clean_linker_10, # of connection points: 2
#     Edge 21, Type (0, 0), BuildingBlock: TEMPAE_clean_linker_10, # of connection points: 2
#     Edge 22, Type (0, 0), BuildingBlock: TEMPAE_clean_linker_10, # of connection points: 2
#     Edge 23, Type (0, 0), BuildingBlock: TEMPAE_clean_linker_10, # of connection points: 2
#     Edge 24, Type (0, 0), BuildingBlock: TEMPAE_clean_linker_10, # of connection points: 2
#     Edge 25, Type (0, 0), BuildingBlock: TEMPAE_clean_linker_10, # of connection points: 2
#     Edge 26, Type (0, 0), BuildingBlock: TEMPAE_clean_linker_10, # of connection points: 2
#     Edge 27, Type (0, 0), BuildingBlock: TEMPAE_clean_linker_10, # of connection points: 2
#     Edge 28, Type (0, 0), BuildingBlock: TEMPAE_clean_linker_10, # of connection points: 2
#     Edge 29, Type (0, 0), BuildingBlock: TEMPAE_clean_linker_10, # of connection points: 2
#     Edge 30, Type (0, 0), BuildingBlock: TEMPAE_clean_linker_10, # of connection points: 2
#     Edge 31, Type (0, 0), BuildingBlock: TEMPAE_clean_linker_10, # of connection points: 2
#     Edge 32, Type (0, 0), BuildingBlock: TEMPAE_clean_linker_10, # of connection points: 2
#     Edge 33, Type (0, 0), BuildingBlock: TEMPAE_clean_linker_10, # of connection points: 2
#     Edge 34, Type (0, 0), BuildingBlock: TEMPAE_clean_linker_10, # of connection points: 2
#     Edge 35, Type (0, 0), BuildingBlock: TEMPAE_clean_linker_10, # of connection points: 2
#     Edge 36, Type (0, 0), BuildingBlock: TEMPAE_clean_linker_10, # of connection points: 2
#     Edge 37, Type (0, 0), BuildingBlock: TEMPAE_clean_linker_10, # of connection points: 2
#     Edge 38, Type (0, 0), BuildingBlock: TEMPAE_clean_linker_10, # of connection points: 2
#     Edge 39, Type (0, 0), BuildingBlock: TEMPAE_clean_linker_10, # of connection points: 2
#     Edge 40, Type (0, 0), BuildingBlock: TEMPAE_clean_linker_10, # of connection points: 2
#     Edge 41, Type (0, 0), BuildingBlock: TEMPAE_clean_linker_10, # of connection points: 2
#     Edge 42, Type (0, 0), BuildingBlock: TEMPAE_clean_linker_10, # of connection points: 2
#     Edge 43, Type (0, 0), BuildingBlock: TEMPAE_clean_linker_10, # of connection points: 2
#     Edge 44, Type (0, 0), BuildingBlock: TEMPAE_clean_linker_10, # of connection points: 2
#     Edge 45, Type (0, 0), BuildingBlock: TEMPAE_clean_linker_10, # of connection points: 2
#     Edge 46, Type (0, 0), BuildingBlock: TEMPAE_clean_linker_10, # of connection points: 2
#     Edge 47, Type (0, 0), BuildingBlock: TEMPAE_clean_linker_10, # of connection points: 2
# Relax obj value: 0.237
# Max RMSD: 0.114
# Mean RMSD: 0.114
data_MOF--net-upb--node1-TATPOV_clean_sbu_0--edge1-TEMPAE_clean_linker_10
_symmetry_space_group_name_H-M    P1
_symmetry_Int_Tables_number       1
_symmetry_cell_setting            triclinic
loop_
_symmetry_equiv_pos_as_xyz
'x, y, z'
_cell_length_a     40.281844
_cell_length_b     40.266613
_cell_length_c     45.243604
_cell_angle_alpha  90.048994
_cell_angle_beta   90.002867
_cell_angle_gamma 89.991311
loop_
_atom_site_label
_atom_site_type_symbol
_atom_site_fract_x
_atom_site_fract_y
_atom_site_fract_z
_atom_type_partial_charge
Zn0 Zn 0.98613 0.20574 0.35338 0.0
Zn1 Zn 0.00491 0.25985 0.32941 0.0
O2 O 0.99768 0.27487 0.37302 0.0
O3 O 0.97603 0.22922 0.39137 0.0
O4 O 0.02214 0.30041 0.30863 0.0
O5 O 0.02923 0.18271 0.34763 0.0
O6 O 0.04509 0.2274 0.32371 0.0
C7 C 0.9847 0.25921 0.39464 0.0
C8 C 0.9443 0.22205 0.3057 0.0
O9 O 0.96136 0.24874 0.30598 0.0
O10 O 0.95106 0.19878 0.3234 0.0
C11 C 0.01473 0.33053 0.31392 0.0
O12 O 0.99335 0.3375 0.33495 0.0
C13 C 0.05095 0.19793 0.33272 0.0
Zn14 Zn 0.77354 0.02955 0.3667 0.0
Zn15 Zn 0.72494 0.02658 0.33091 0.0
O16 O 0.70115 0.02365 0.37198 0.0
O17 O 0.74431 0.02622 0.40169 0.0
O18 O 0.68741 0.02879 0.30171 0.0
O19 O 0.78852 0.07391 0.35466 0.0
O20 O 0.74933 0.07156 0.32103 0.0
C21 C 0.71328 0.02423 0.39802 0.0
C22 C 0.77927 0.9737 0.32852 0.0
O23 O 0.75099 0.98372 0.31945 0.0
O24 O 0.7945 0.98963 0.34844 0.0
C25 C 0.65798 0.01807 0.30523 0.0
O26 O 0.65028 0.00209 0.32959 0.0
C27 C 0.77358 0.08692 0.33305 0.0
Zn28 Zn 0.99482 0.78912 0.35238 0.0
Zn29 Zn 0.98641 0.73964 0.32325 0.0
O30 O 0.99175 0.72089 0.36611 0.0
O31 O 0.01583 0.76447 0.38577 0.0
O32 O 0.97572 0.6999 0.29769 0.0
O33 O 0.94703 0.80151 0.35503 0.0
O34 O 0.94366 0.76836 0.3167 0.0
C35 C 0.00711 0.7344 0.38766 0.0
C36 C 0.03896 0.78998 0.30576 0.0
O37 O 0.03032 0.75948 0.30578 0.0
O38 O 0.02344 0.81045 0.32181 0.0
C39 C 0.97999 0.66949 0.30428 0.0
O40 O 0.99444 0.66178 0.32938 0.0
C41 C 0.93059 0.79022 0.33348 0.0
Zn42 Zn 0.23287 0.98775 0.38065 0.0
Zn43 Zn 0.27696 0.9848 0.34113 0.0
O44 O 0.30382 0.98214 0.38095 0.0
O45 O 0.26337 0.97537 0.41295 0.0
O46 O 0.31228 0.97787 0.31017 0.0
O47 O 0.20465 0.95239 0.3633 0.0
O48 O 0.24507 0.94512 0.3314 0.0
C49 C 0.29404 0.9765 0.4073 0.0
C50 C 0.23623 0.04807 0.34816 0.0
O51 O 0.25601 0.03106 0.33212 0.0
O52 O 0.22441 0.03567 0.37159 0.0
C53 C 0.34273 0.98565 0.31289 0.0
O54 O 0.35252 0.00168 0.33665 0.0
C55 C 0.21699 0.93638 0.34193 0.0
Zn56 Zn 0.98851 0.79018 0.64441 0.0
Zn57 Zn 0.00809 0.73403 0.66616 0.0
O58 O 0.00285 0.72314 0.62143 0.0
O59 O 0.98476 0.77071 0.6039 0.0
O60 O 0.02759 0.6917 0.68239 0.0
O61 O 0.02915 0.81444 0.65678 0.0
O62 O 0.04641 0.76737 0.67589 0.0
C63 C 0.99284 0.74071 0.59972 0.0
C64 C 0.94351 0.76637 0.68777 0.0
O65 O 0.96315 0.7415 0.68872 0.0
O66 O 0.94941 0.79054 0.67079 0.0
C67 C 0.01395 0.67016 0.69895 0.0
O68 O 0.98292 0.67418 0.70713 0.0
C69 C 0.05096 0.79819 0.67071 0.0
Zn70 Zn 0.22889 0.01308 0.62888 0.0
Zn71 Zn 0.27439 0.01417 0.66642 0.0
O72 O 0.29962 0.017 0.62582 0.0
O73 O 0.25795 0.02616 0.59566 0.0
O74 O 0.31081 0.0196 0.69655 0.0
O75 O 0.20148 0.04773 0.64824 0.0
O76 O 0.24427 0.05478 0.67753 0.0
C77 C 0.28883 0.02375 0.59999 0.0
C78 C 0.2324 0.95176 0.6592 0.0
O79 O 0.25282 0.96803 0.67521 0.0
O80 O 0.22009 0.96507 0.63639 0.0
C81 C 0.34134 0.0131 0.69228 0.0
O82 O 0.35051 0.99931 0.66726 0.0
C83 C 0.21549 0.0637 0.6688 0.0
Zn84 Zn 0.01384 0.20314 0.64586 0.0
Zn85 Zn 0.99287 0.25594 0.67216 0.0
O86 O 0.99755 0.27256 0.62861 0.0
O87 O 0.01794 0.22759 0.60775 0.0
O88 O 0.97373 0.29486 0.69436 0.0
O89 O 0.97337 0.17683 0.65522 0.0
O90 O 0.95492 0.22126 0.67813 0.0
C91 C 0.00878 0.25757 0.60583 0.0
C92 C 0.05801 0.22191 0.69111 0.0
O93 O 0.03779 0.24611 0.6941 0.0
O94 O 0.05284 0.19965 0.67201 0.0
C95 C 0.98165 0.32528 0.6918 0.0
O96 O 0.00516 0.3338 0.67316 0.0
C97 C 0.95099 0.19112 0.67012 0.0
Zn98 Zn 0.77539 0.97307 0.62104 0.0
Zn99 Zn 0.72845 0.97223 0.65744 0.0
O100 O 0.70499 0.96958 0.61613 0.0
O101 O 0.74743 0.9601 0.58692 0.0
O102 O 0.6903 0.96853 0.68593 0.0
O103 O 0.80114 0.93806 0.64174 0.0
O104 O 0.75719 0.93113 0.66967 0.0
C105 C 0.71646 0.96274 0.59056 0.0
C106 C 0.7715 0.03415 0.65172 0.0
O107 O 0.75052 0.01782 0.66705 0.0
O108 O 0.78433 0.02111 0.62899 0.0
C109 C 0.66056 0.97709 0.68029 0.0
O110 O 0.6537 0.99127 0.65488 0.0
C111 C 0.78626 0.9221 0.66181 0.0
Zn112 Zn 0.524 0.7396 0.88421 0.0
Zn113 Zn 0.52212 0.781 0.84107 0.0
O114 O 0.52162 0.81113 0.87887 0.0
O115 O 0.53021 0.77477 0.91433 0.0
O116 O 0.52528 0.81427 0.80808 0.0
O117 O 0.5637 0.71592 0.86893 0.0
O118 O 0.5646 0.75247 0.83296 0.0
C119 C 0.52665 0.80448 0.90604 0.0
C120 C 0.46422 0.73358 0.84997 0.0
O121 O 0.47834 0.75518 0.83362 0.0
O122 O 0.47819 0.72396 0.87352 0.0
C123 C 0.51489 0.84407 0.80935 0.0
O124 O 0.49854 0.85409 0.83285 0.0
C125 C 0.57728 0.72731 0.84588 0.0
Zn126 Zn 0.28727 0.5033 0.86578 0.0
Zn127 Zn 0.23689 0.51757 0.83671 0.0
O128 O 0.21978 0.51745 0.88029 0.0
O129 O 0.26728 0.51727 0.90403 0.0
O130 O 0.19655 0.53372 0.81471 0.0
O131 O 0.31722 0.53448 0.84426 0.0
O132 O 0.27078 0.55523 0.82692 0.0
C133 C 0.23599 0.51956 0.90444 0.0
C134 C 0.26745 0.4487 0.8313 0.0
O135 O 0.249 0.47075 0.81942 0.0
O136 O 0.28461 0.45583 0.8538 0.0
C137 C 0.17734 0.51834 0.79711 0.0
O138 O 0.18301 0.48695 0.79098 0.0
C139 C 0.30222 0.55693 0.83004 0.0
Zn140 Zn 0.50613 0.29121 0.85204 0.0
Zn141 Zn 0.49081 0.23747 0.82516 0.0
O142 O 0.49513 0.22149 0.86889 0.0
O143 O 0.51339 0.26715 0.89001 0.0
O144 O 0.47657 0.19665 0.80278 0.0
O145 O 0.46294 0.31303 0.8436 0.0
O146 O 0.45031 0.26896 0.81733 0.0
C147 C 0.50565 0.23677 0.89178 0.0
C148 C 0.55246 0.27762 0.80711 0.0
O149 O 0.53564 0.25088 0.80482 0.0
O150 O 0.544 0.29983 0.82533 0.0
C151 C 0.48286 0.16666 0.80957 0.0
O152 O 0.50104 0.16028 0.83299 0.0
C153 C 0.44294 0.29793 0.82679 0.0
Zn154 Zn 0.71259 0.49902 0.85212 0.0
Zn155 Zn 0.76556 0.49163 0.82452 0.0
O156 O 0.78212 0.49645 0.86816 0.0
O157 O 0.7357 0.51258 0.88915 0.0
O158 O 0.80651 0.48172 0.80013 0.0
O159 O 0.69689 0.45276 0.84752 0.0
O160 O 0.73789 0.44848 0.81589 0.0
C161 C 0.76652 0.50693 0.89088 0.0
C162 C 0.71707 0.54723 0.80798 0.0
O163 O 0.7467 0.53601 0.80687 0.0
O164 O 0.69587 0.5333 0.82438 0.0
C165 C 0.83533 0.47611 0.8105 0.0
O166 O 0.84046 0.47924 0.83903 0.0
C167 C 0.71212 0.43615 0.8281 0.0
Zn168 Zn 0.49883 0.28158 0.13958 0.0
Zn169 Zn 0.50703 0.22959 0.16726 0.0
O170 O 0.5005 0.21275 0.12386 0.0
O171 O 0.48079 0.25843 0.10407 0.0
O172 O 0.5166 0.18852 0.19104 0.0
O173 O 0.54625 0.29532 0.14057 0.0
O174 O 0.55063 0.25683 0.1746 0.0
C175 C 0.48744 0.22785 0.10195 0.0
C176 C 0.45448 0.27917 0.18704 0.0
O177 O 0.46442 0.24909 0.1872 0.0
O178 O 0.46799 0.29986 0.16984 0.0
C179 C 0.51093 0.15848 0.18397 0.0
O180 O 0.49629 0.1518 0.15871 0.0
C181 C 0.56315 0.28123 0.16047 0.0
Zn182 Zn 0.71716 0.50056 0.13475 0.0
Zn183 Zn 0.76674 0.50875 0.16521 0.0
O184 O 0.7866 0.50446 0.12255 0.0
O185 O 0.74289 0.4835 0.10038 0.0
O186 O 0.8057 0.51997 0.1915 0.0
O187 O 0.7021 0.5476 0.13542 0.0
O188 O 0.73711 0.55082 0.1724 0.0
C189 C 0.77329 0.49121 0.09981 0.0
C190 C 0.71744 0.45415 0.18038 0.0
O191 O 0.7474 0.46429 0.18216 0.0
O192 O 0.69735 0.46863 0.16325 0.0
C193 C 0.83634 0.51732 0.18512 0.0
O194 O 0.84502 0.50415 0.1597 0.0
C195 C 0.71381 0.56362 0.15705 0.0
Zn196 Zn 0.4811 0.71717 0.13671 0.0
Zn197 Zn 0.48121 0.76783 0.16837 0.0
O198 O 0.4852 0.78756 0.12568 0.0
O199 O 0.49312 0.74171 0.10042 0.0
O200 O 0.47639 0.80796 0.19484 0.0
O201 O 0.43399 0.70563 0.14286 0.0
O202 O 0.43675 0.74272 0.17837 0.0
C203 C 0.49123 0.77303 0.10118 0.0
C204 C 0.53292 0.71384 0.1785 0.0
O205 O 0.52445 0.74404 0.18261 0.0
O206 O 0.51619 0.69566 0.16124 0.0
C207 C 0.48124 0.83809 0.18756 0.0
O208 O 0.49265 0.84494 0.16106 0.0
C209 C 0.42085 0.71994 0.16475 0.0
Zn210 Zn 0.27812 0.4803 0.13994 0.0
Zn211 Zn 0.22837 0.48059 0.17513 0.0
O212 O 0.20605 0.48364 0.13339 0.0
O213 O 0.24996 0.48568 0.10441 0.0
O214 O 0.19 0.47608 0.20343 0.0
O215 O 0.29259 0.43504 0.15024 0.0
O216 O 0.25377 0.43615 0.18433 0.0
C217 C 0.21883 0.48565 0.10766 0.0
C218 C 0.2813 0.5345 0.18047 0.0
O219 O 0.25275 0.52385 0.18818 0.0
O220 O 0.29768 0.51932 0.1608 0.0
C221 C 0.15963 0.48157 0.19753 0.0
O222 O 0.15153 0.4935 0.1715 0.0
C223 C 0.27786 0.4213 0.17161 0.0
C224 C 0.11135 0.19863 0.31773 0.0
C225 C 0.08299 0.18106 0.32671 0.0
C226 C 0.14236 0.18257 0.31534 0.0
C227 C 0.14487 0.14832 0.32223 0.0
C228 C 0.11587 0.13024 0.3296 0.0
C229 C 0.08546 0.14679 0.33169 0.0
C230 C 0.17249 0.20267 0.30695 0.0
C231 C 0.11713 0.09362 0.33692 0.0
C232 C 0.21261 0.0854 0.30938 0.0
C233 C 0.22311 0.08055 0.33858 0.0
C234 C 0.18985 0.11079 0.30252 0.0
C235 C 0.17762 0.13148 0.32544 0.0
C236 C 0.19195 0.1295 0.35395 0.0
C237 C 0.21439 0.10389 0.36021 0.0
C238 C 0.17601 0.11285 0.27161 0.0
C239 C 0.18037 0.15153 0.37892 0.0
H240 H 0.10962 0.22509 0.31363 0.0
H241 H 0.0636 0.13284 0.33811 0.0
H242 H 0.18557 0.21069 0.32731 0.0
H243 H 0.19015 0.18782 0.29354 0.0
H244 H 0.16548 0.22529 0.29436 0.0
H245 H 0.09205 0.08288 0.34052 0.0
H246 H 0.12937 0.07964 0.31882 0.0
H247 H 0.13198 0.08975 0.35729 0.0
H248 H 0.21947 0.06747 0.29255 0.0
H249 H 0.22296 0.10045 0.38273 0.0
H250 H 0.17129 0.13903 0.26523 0.0
H251 H 0.152 0.09938 0.27069 0.0
H252 H 0.1931 0.10139 0.25525 0.0
H253 H 0.17783 0.1776 0.37141 0.0
H254 H 0.1977 0.15081 0.39802 0.0
H255 H 0.1556 0.14304 0.38657 0.0
C256 C 0.91045 0.18694 0.27339 0.0
C257 C 0.91457 0.21778 0.28722 0.0
C258 C 0.87883 0.17291 0.27048 0.0
C259 C 0.85105 0.19046 0.2816 0.0
C260 C 0.85458 0.22454 0.28871 0.0
C261 C 0.88669 0.23785 0.29211 0.0
C262 C 0.87612 0.13718 0.26066 0.0
C263 C 0.82494 0.24524 0.2972 0.0
C264 C 0.77981 0.12968 0.29246 0.0
C265 C 0.7868 0.11859 0.3212 0.0
C266 C 0.79813 0.15597 0.27985 0.0
C267 C 0.82441 0.17065 0.29616 0.0
C268 C 0.82922 0.16141 0.32613 0.0
C269 C 0.81 0.13604 0.33826 0.0
C270 C 0.79021 0.1664 0.24865 0.0
C271 C 0.85674 0.176 0.34491 0.0
H272 H 0.93217 0.17182 0.26886 0.0
H273 H 0.88977 0.26209 0.3022 0.0
H274 H 0.87129 0.12112 0.28013 0.0
H275 H 0.85513 0.13417 0.24507 0.0
H276 H 0.89918 0.12839 0.24969 0.0
H277 H 0.8294 0.27189 0.29227 0.0
H278 H 0.80233 0.23679 0.28531 0.0
H279 H 0.82033 0.2429 0.32128 0.0
H280 H 0.76133 0.11685 0.2793 0.0
H281 H 0.81478 0.12839 0.36084 0.0
H282 H 0.79821 0.14665 0.2331 0.0
H283 H 0.80235 0.19012 0.2424 0.0
H284 H 0.76293 0.16919 0.24601 0.0
H285 H 0.8812 0.17109 0.33452 0.0
H286 H 0.85722 0.1655 0.36761 0.0
H287 H 0.85369 0.20325 0.34685 0.0
C288 C 0.77668 0.91399 0.31265 0.0
C289 C 0.79493 0.94321 0.31703 0.0
C290 C 0.79305 0.88332 0.30897 0.0
C291 C 0.82823 0.88225 0.30968 0.0
C292 C 0.84646 0.91229 0.31097 0.0
C293 C 0.82957 0.94231 0.31476 0.0
C294 C 0.77267 0.852 0.30691 0.0
C295 C 0.88399 0.91259 0.3113 0.0
C296 C 0.87957 0.81917 0.34991 0.0
C297 C 0.89816 0.80554 0.32673 0.0
C298 C 0.85364 0.84142 0.34435 0.0
C299 C 0.84637 0.85056 0.31483 0.0
C300 C 0.86246 0.8339 0.29123 0.0
C301 C 0.88831 0.81142 0.29747 0.0
C302 C 0.83671 0.85795 0.37028 0.0
C303 C 0.85476 0.8422 0.25948 0.0
H304 H 0.74984 0.91469 0.3143 0.0
H305 H 0.84366 0.96504 0.31767 0.0
H306 H 0.78492 0.83322 0.29264 0.0
H307 H 0.7699 0.84113 0.3293 0.0
H308 H 0.74744 0.85717 0.29812 0.0
H309 H 0.89423 0.93809 0.30911 0.0
H310 H 0.89303 0.9019 0.33244 0.0
H311 H 0.89399 0.89711 0.29309 0.0
H312 H 0.88676 0.81411 0.37257 0.0
H313 H 0.90248 0.8007 0.27947 0.0
H314 H 0.80948 0.85892 0.36682 0.0
H315 H 0.84576 0.88388 0.37238 0.0
H316 H 0.84177 0.84482 0.3914 0.0
H317 H 0.82791 0.84731 0.25642 0.0
H318 H 0.86228 0.82176 0.24439 0.0
H319 H 0.86863 0.86488 0.25304 0.0
C320 C 0.09996 0.78488 0.29891 0.0
C321 C 0.07027 0.80146 0.2924 0.0
C322 C 0.13031 0.8022 0.2988 0.0
C323 C 0.13051 0.83657 0.2921 0.0
C324 C 0.10148 0.85149 0.2805 0.0
C325 C 0.07156 0.83377 0.28102 0.0
C326 C 0.16107 0.78497 0.30995 0.0
C327 C 0.10075 0.88771 0.272 0.0
C328 C 0.17185 0.89471 0.34623 0.0
C329 C 0.19805 0.90797 0.32963 0.0
C330 C 0.15096 0.87028 0.33462 0.0
C331 C 0.15625 0.85851 0.30547 0.0
C332 C 0.18381 0.87033 0.28906 0.0
C333 C 0.20444 0.89507 0.30135 0.0
C334 C 0.12218 0.85827 0.35326 0.0
C335 C 0.19073 0.85823 0.25813 0.0
H336 H 0.09906 0.75979 0.30755 0.0
H337 H 0.04859 0.84643 0.27558 0.0
H338 H 0.18355 0.79431 0.29848 0.0
H339 H 0.16401 0.79009 0.33392 0.0
H340 H 0.15938 0.75764 0.30689 0.0
H341 H 0.07868 0.89374 0.25829 0.0
H342 H 0.09984 0.90314 0.29233 0.0
H343 H 0.12347 0.89459 0.2596 0.0
H344 H 0.16708 0.90405 0.36831 0.0
H345 H 0.22477 0.90506 0.28843 0.0
H346 H 0.12272 0.83082 0.35513 0.0
H347 H 0.09836 0.86527 0.34261 0.0
H348 H 0.1225 0.86892 0.37592 0.0
H349 H 0.18312 0.83196 0.25513 0.0
H350 H 0.21749 0.86064 0.25258 0.0
H351 H 0.1765 0.87357 0.2422 0.0
C352 C 0.11124 0.79763 0.68583 0.0
C353 C 0.08214 0.81529 0.67919 0.0
C354 C 0.1418 0.81428 0.68912 0.0
C355 C 0.14312 0.8492 0.68541 0.0
C356 C 0.1133 0.86721 0.68109 0.0
C357 C 0.0833 0.85007 0.67814 0.0
C358 C 0.17278 0.79419 0.69463 0.0
C359 C 0.11326 0.90452 0.67723 0.0
C360 C 0.21137 0.91197 0.6974 0.0
C361 C 0.21952 0.91887 0.66792 0.0
C362 C 0.1893 0.88595 0.70427 0.0
C363 C 0.17521 0.86691 0.68107 0.0
C364 C 0.18706 0.87108 0.65185 0.0
C365 C 0.20904 0.89706 0.64566 0.0
C366 C 0.17838 0.8813 0.73586 0.0
C367 C 0.17334 0.85099 0.62643 0.0
H368 H 0.11051 0.77075 0.68702 0.0
H369 H 0.06082 0.864 0.67368 0.0
H370 H 0.18457 0.78799 0.67317 0.0
H371 H 0.19107 0.80827 0.70803 0.0
H372 H 0.16691 0.77051 0.70609 0.0
H373 H 0.08774 0.91492 0.67615 0.0
H374 H 0.12659 0.91664 0.69576 0.0
H375 H 0.12641 0.91112 0.65649 0.0
H376 H 0.21966 0.92864 0.71472 0.0
H377 H 0.21587 0.90202 0.6229 0.0
H378 H 0.17389 0.85467 0.74077 0.0
H379 H 0.15477 0.89487 0.73955 0.0
H380 H 0.19714 0.89114 0.7516 0.0
H381 H 0.17241 0.82425 0.63219 0.0
H382 H 0.18837 0.85398 0.60602 0.0
H383 H 0.14759 0.8592 0.62164 0.0
C384 C 0.16731 0.10219 0.66995 0.0
C385 C 0.19821 0.09297 0.68158 0.0
C386 C 0.15016 0.12989 0.68053 0.0
C387 C 0.16407 0.14923 0.70363 0.0
C388 C 0.19525 0.14015 0.71572 0.0
C389 C 0.21197 0.11198 0.70458 0.0
C390 C 0.11705 0.13838 0.66663 0.0
C391 C 0.21076 0.15957 0.74067 0.0
C392 C 0.1182 0.22813 0.69446 0.0
C393 C 0.08863 0.2188 0.70842 0.0
C394 C 0.14676 0.20835 0.69716 0.0
C395 C 0.14515 0.17883 0.71409 0.0
C396 C 0.11782 0.17385 0.73324 0.0
C397 C 0.08953 0.19391 0.73 0.0
C398 C 0.17613 0.21563 0.67756 0.0
C399 C 0.11593 0.14381 0.753 0.0
H400 H 0.15635 0.08778 0.65222 0.0
H401 H 0.23576 0.10493 0.71383 0.0
H402 H 0.09721 0.13793 0.68363 0.0
H403 H 0.11787 0.16374 0.65711 0.0
H404 H 0.11 0.12083 0.64875 0.0
H405 H 0.23809 0.15593 0.74143 0.0
H406 H 0.20542 0.18652 0.73883 0.0
H407 H 0.20028 0.15074 0.76193 0.0
H408 H 0.1176 0.24757 0.67788 0.0
H409 H 0.06669 0.18683 0.74102 0.0
H410 H 0.17356 0.2014 0.65665 0.0
H411 H 0.19968 0.20797 0.68829 0.0
H412 H 0.1775 0.24246 0.67197 0.0
H413 H 0.10769 0.12206 0.7398 0.0
H414 H 0.09785 0.14763 0.77124 0.0
H415 H 0.14061 0.13796 0.76254 0.0
C416 C 0.89051 0.18909 0.68437 0.0
C417 C 0.92004 0.17267 0.67673 0.0
C418 C 0.86031 0.17156 0.68637 0.0
C419 C 0.85983 0.13698 0.68048 0.0
C420 C 0.89003 0.12008 0.6749 0.0
C421 C 0.91963 0.13809 0.67313 0.0
C422 C 0.82884 0.19044 0.69299 0.0
C423 C 0.89091 0.08317 0.66877 0.0
C424 C 0.79292 0.07243 0.69089 0.0
C425 C 0.78434 0.06674 0.6613 0.0
C426 C 0.81483 0.09834 0.69842 0.0
C427 C 0.82811 0.11872 0.67578 0.0
C428 C 0.81585 0.11566 0.64659 0.0
C429 C 0.79426 0.08955 0.63969 0.0
C430 C 0.82649 0.10149 0.72996 0.0
C431 C 0.82865 0.13728 0.62183 0.0
H432 H 0.89066 0.21579 0.68743 0.0
H433 H 0.94243 0.12509 0.66781 0.0
H434 H 0.81635 0.1969 0.67191 0.0
H435 H 0.81133 0.17527 0.70625 0.0
H436 H 0.83412 0.2139 0.70505 0.0
H437 H 0.91666 0.07346 0.66704 0.0
H438 H 0.8779 0.06938 0.68653 0.0
H439 H 0.87786 0.07784 0.64769 0.0
H440 H 0.78514 0.05489 0.70768 0.0
H441 H 0.78716 0.08543 0.61684 0.0
H442 H 0.83027 0.12792 0.73607 0.0
H443 H 0.85065 0.08854 0.73245 0.0
H444 H 0.80854 0.09011 0.74561 0.0
H445 H 0.82961 0.16366 0.6288 0.0
H446 H 0.813 0.13531 0.60169 0.0
H447 H 0.85429 0.12952 0.61604 0.0
C448 C 0.78796 0.87314 0.69693 0.0
C449 C 0.80296 0.89274 0.67499 0.0
C450 C 0.80419 0.84483 0.70834 0.0
C451 C 0.83614 0.83621 0.69763 0.0
C452 C 0.85131 0.8562 0.67565 0.0
C453 C 0.83462 0.884 0.66477 0.0
C454 C 0.7873 0.82476 0.73211 0.0
C455 C 0.88533 0.84831 0.66327 0.0
C456 C 0.90958 0.7919 0.72638 0.0
C457 C 0.91215 0.76775 0.7042 0.0
C458 C 0.88077 0.81134 0.72891 0.0
C459 C 0.85465 0.80652 0.70843 0.0
C460 C 0.85445 0.77741 0.69084 0.0
C461 C 0.88347 0.75817 0.68893 0.0
C462 C 0.88104 0.8408 0.74946 0.0
C463 C 0.8263 0.77022 0.66984 0.0
H464 H 0.76357 0.87981 0.70511 0.0
H465 H 0.84658 0.8989 0.6479 0.0
H466 H 0.79323 0.79793 0.73025 0.0
H467 H 0.79608 0.83346 0.75403 0.0
H468 H 0.75991 0.82794 0.73136 0.0
H469 H 0.89328 0.86629 0.64605 0.0
H470 H 0.90407 0.84866 0.68122 0.0
H471 H 0.88538 0.82315 0.65329 0.0
H472 H 0.93168 0.7991 0.7385 0.0
H473 H 0.88531 0.73924 0.67193 0.0
H474 H 0.85574 0.84603 0.75795 0.0
H475 H 0.88973 0.86305 0.73721 0.0
H476 H 0.89806 0.83667 0.76843 0.0
H477 H 0.80209 0.77732 0.67967 0.0
H478 H 0.82562 0.74352 0.66367 0.0
H479 H 0.82982 0.78497 0.64935 0.0
C480 C 0.61822 0.7155 0.80486 0.0
C481 C 0.60655 0.70963 0.83363 0.0
C482 C 0.64291 0.69508 0.79227 0.0
C483 C 0.65568 0.668 0.80874 0.0
C484 C 0.64555 0.66357 0.83848 0.0
C485 C 0.6214 0.68452 0.85051 0.0
C486 C 0.65377 0.70163 0.76092 0.0
C487 C 0.65848 0.63525 0.8572 0.0
C488 C 0.67486 0.58212 0.78381 0.0
C489 C 0.70736 0.57906 0.79446 0.0
C490 C 0.65877 0.61294 0.78372 0.0
C491 C 0.67572 0.64118 0.79467 0.0
C492 C 0.71029 0.63914 0.8002 0.0
C493 C 0.72584 0.60781 0.80026 0.0
C494 C 0.62221 0.61408 0.77648 0.0
C495 C 0.72972 0.66916 0.81 0.0
H496 H 0.6072 0.73513 0.79173 0.0
H497 H 0.61313 0.6802 0.87298 0.0
H498 H 0.67916 0.69211 0.75654 0.0
H499 H 0.63634 0.6892 0.74549 0.0
H500 H 0.65313 0.72865 0.75601 0.0
H501 H 0.64873 0.63598 0.88016 0.0
H502 H 0.65124 0.61115 0.84715 0.0
H503 H 0.68596 0.636 0.85824 0.0
H504 H 0.66076 0.55985 0.77884 0.0
H505 H 0.75113 0.60557 0.80822 0.0
H506 H 0.61626 0.63645 0.76326 0.0
H507 H 0.6077 0.6154 0.79732 0.0
H508 H 0.6141 0.59172 0.76402 0.0
H509 H 0.72071 0.69192 0.79871 0.0
H510 H 0.75665 0.66602 0.80549 0.0
H511 H 0.72648 0.67273 0.83415 0.0
C512 C 0.4241 0.71361 0.81122 0.0
C513 C 0.43287 0.71723 0.84106 0.0
C514 C 0.39828 0.69197 0.80281 0.0
C515 C 0.38113 0.67369 0.82478 0.0
C516 C 0.38796 0.67977 0.85501 0.0
C517 C 0.41369 0.70142 0.86273 0.0
C518 C 0.39122 0.68685 0.77039 0.0
C519 C 0.37009 0.66122 0.8793 0.0
C520 C 0.30599 0.61771 0.81812 0.0
C521 C 0.32122 0.58649 0.82048 0.0
C522 C 0.32525 0.64682 0.81632 0.0
C523 C 0.36034 0.6444 0.81696 0.0
C524 C 0.37555 0.61272 0.816 0.0
C525 C 0.35581 0.5842 0.81782 0.0
C526 C 0.30806 0.68009 0.81646 0.0
C527 C 0.41286 0.60885 0.81615 0.0
H528 H 0.4387 0.72595 0.79437 0.0
H529 H 0.41994 0.70464 0.88587 0.0
H530 H 0.4047 0.6645 0.76253 0.0
H531 H 0.36435 0.68275 0.76641 0.0
H532 H 0.39963 0.7084 0.75703 0.0
H533 H 0.37603 0.67118 0.90158 0.0
H534 H 0.34284 0.66253 0.87601 0.0
H535 H 0.37731 0.63462 0.87867 0.0
H536 H 0.27922 0.61964 0.81986 0.0
H537 H 0.36768 0.56006 0.81899 0.0
H538 H 0.32144 0.69821 0.80236 0.0
H539 H 0.30773 0.69006 0.83933 0.0
H540 H 0.28198 0.67804 0.80866 0.0
H541 H 0.4244 0.62535 0.79945 0.0
H542 H 0.42064 0.58288 0.81158 0.0
H543 H 0.4227 0.61615 0.83813 0.0
C544 C 0.29038 0.41484 0.79048 0.0
C545 C 0.27369 0.41616 0.8176 0.0
C546 C 0.31201 0.38831 0.78414 0.0
C547 C 0.31688 0.36313 0.80559 0.0
C548 C 0.29527 0.36149 0.83023 0.0
C549 C 0.27401 0.38826 0.83605 0.0
C550 C 0.3334 0.39013 0.75688 0.0
C551 C 0.29867 0.33459 0.85323 0.0
C552 C 0.38615 0.2982 0.80277 0.0
C553 C 0.41115 0.31443 0.81891 0.0
C554 C 0.35544 0.31389 0.79718 0.0
C555 C 0.34986 0.34652 0.80788 0.0
C556 C 0.37552 0.36325 0.82332 0.0
C557 C 0.40563 0.34708 0.82853 0.0
C558 C 0.32914 0.2956 0.77991 0.0
C559 C 0.37097 0.39808 0.83529 0.0
H560 H 0.29007 0.43638 0.77611 0.0
H561 H 0.26084 0.38922 0.85695 0.0
H562 H 0.35745 0.40196 0.76259 0.0
H563 H 0.33869 0.36495 0.7481 0.0
H564 H 0.3214 0.40522 0.73932 0.0
H565 H 0.27591 0.33249 0.86697 0.0
H566 H 0.30381 0.31019 0.84281 0.0
H567 H 0.31981 0.34064 0.86803 0.0
H568 H 0.39035 0.2731 0.79493 0.0
H569 H 0.42481 0.36009 0.84072 0.0
H570 H 0.32719 0.30658 0.7575 0.0
H571 H 0.30447 0.29813 0.79057 0.0
H572 H 0.33504 0.26878 0.77752 0.0
H573 H 0.36437 0.41534 0.81713 0.0
H574 H 0.39366 0.40767 0.84633 0.0
H575 H 0.35037 0.39848 0.85157 0.0
C576 C 0.6718 0.39026 0.83525 0.0
C577 C 0.69818 0.40361 0.81895 0.0
C578 C 0.65459 0.36222 0.8255 0.0
C579 C 0.66423 0.34646 0.79879 0.0
C580 C 0.69241 0.35827 0.78325 0.0
C581 C 0.70897 0.38697 0.7934 0.0
C582 C 0.62485 0.35068 0.84319 0.0
C583 C 0.7044 0.34181 0.75527 0.0
C584 C 0.61281 0.27004 0.80126 0.0
C585 C 0.58315 0.2835 0.79045 0.0
C586 C 0.6426 0.28808 0.79909 0.0
C587 C 0.642 0.32027 0.78652 0.0
C588 C 0.61364 0.33053 0.77046 0.0
C589 C 0.58433 0.31194 0.77273 0.0
C590 C 0.67315 0.27518 0.8145 0.0
C591 C 0.61231 0.36395 0.75547 0.0
H592 H 0.66364 0.4025 0.85533 0.0
H593 H 0.72957 0.3969 0.78079 0.0
H594 H 0.60203 0.35239 0.82953 0.0
H595 H 0.62801 0.32437 0.84981 0.0
H596 H 0.62096 0.36565 0.86354 0.0
H597 H 0.73184 0.34364 0.75343 0.0
H598 H 0.69713 0.31526 0.75413 0.0
H599 H 0.6936 0.35485 0.73594 0.0
H600 H 0.61197 0.24787 0.81485 0.0
H601 H 0.56135 0.32218 0.76417 0.0
H602 H 0.67378 0.28486 0.83747 0.0
H603 H 0.69603 0.28362 0.80308 0.0
H604 H 0.67303 0.24762 0.81553 0.0
H605 H 0.60918 0.38364 0.77244 0.0
H606 H 0.59122 0.36559 0.73971 0.0
H607 H 0.63572 0.36893 0.7434 0.0
C608 C 0.67336 0.4225 0.20536 0.0
C609 C 0.7059 0.42331 0.19453 0.0
C610 C 0.65586 0.39255 0.20722 0.0
C611 C 0.67136 0.36278 0.19782 0.0
C612 C 0.70583 0.36288 0.19151 0.0
C613 C 0.72283 0.39339 0.18975 0.0
C614 C 0.61943 0.39366 0.21499 0.0
C615 C 0.72373 0.3314 0.18305 0.0
C616 C 0.60952 0.29148 0.19677 0.0
C617 C 0.59574 0.29572 0.16853 0.0
C618 C 0.63663 0.31101 0.20609 0.0
C619 C 0.6498 0.33538 0.18677 0.0
C620 C 0.63788 0.33733 0.15735 0.0
C621 C 0.61118 0.31742 0.14863 0.0
C622 C 0.64937 0.30703 0.23722 0.0
C623 C 0.65128 0.36257 0.13567 0.0
H624 H 0.66044 0.4457 0.20941 0.0
H625 H 0.7481 0.39395 0.18151 0.0
H626 H 0.60444 0.39095 0.19453 0.0
H627 H 0.61284 0.3729 0.22995 0.0
H628 H 0.61245 0.41743 0.22583 0.0
H629 H 0.75084 0.33358 0.18713 0.0
H630 H 0.71391 0.30981 0.19553 0.0
H631 H 0.71997 0.32649 0.15915 0.0
H632 H 0.59797 0.27444 0.2122 0.0
H633 H 0.60116 0.32025 0.12653 0.0
H634 H 0.63475 0.32316 0.25226 0.0
H635 H 0.6759 0.31418 0.23908 0.0
H636 H 0.6464 0.281 0.24489 0.0
H637 H 0.64523 0.38801 0.14344 0.0
H638 H 0.64074 0.35936 0.11315 0.0
H639 H 0.67867 0.36063 0.13412 0.0
C640 C 0.59375 0.71782 0.18911 0.0
C641 C 0.56397 0.69991 0.19056 0.0
C642 C 0.62449 0.7012 0.19057 0.0
C643 C 0.62504 0.66614 0.19339 0.0
C644 C 0.59505 0.64889 0.19893 0.0
C645 C 0.56488 0.66601 0.19735 0.0
C646 C 0.656 0.72069 0.1859 0.0
C647 C 0.59433 0.61162 0.20272 0.0
C648 C 0.67793 0.6118 0.14482 0.0
C649 C 0.69766 0.59524 0.16562 0.0
C650 C 0.65634 0.63727 0.15333 0.0
C651 C 0.65442 0.64661 0.18348 0.0
C652 C 0.6768 0.63242 0.2041 0.0
C653 C 0.69819 0.60671 0.19492 0.0
C654 C 0.63335 0.65194 0.13036 0.0
C655 C 0.67644 0.64239 0.23622 0.0
H656 H 0.59311 0.74412 0.18402 0.0
H657 H 0.54178 0.65227 0.19894 0.0
H658 H 0.67684 0.70995 0.19878 0.0
H659 H 0.6629 0.71981 0.16217 0.0
H660 H 0.65274 0.74714 0.19227 0.0
H661 H 0.56984 0.60272 0.21075 0.0
H662 H 0.59957 0.59952 0.18116 0.0
H663 H 0.61372 0.60352 0.21853 0.0
H664 H 0.67796 0.60354 0.122 0.0
H665 H 0.71365 0.59424 0.21108 0.0
H666 H 0.63381 0.67944 0.13144 0.0
H667 H 0.6075 0.6438 0.1348 0.0
H668 H 0.64008 0.64418 0.10756 0.0
H669 H 0.66978 0.66896 0.23897 0.0
H670 H 0.70095 0.63786 0.24674 0.0
H671 H 0.65769 0.62732 0.24814 0.0
C672 C 0.38326 0.70116 0.20556 0.0
C673 C 0.38877 0.70697 0.17542 0.0
C674 C 0.35854 0.67864 0.21468 0.0
C675 C 0.33956 0.66161 0.19306 0.0
C676 C 0.34197 0.6713 0.16305 0.0
C677 C 0.3666 0.69387 0.15463 0.0
C678 C 0.35534 0.67045 0.24705 0.0
C679 C 0.32176 0.65456 0.13918 0.0
C680 C 0.33009 0.56902 0.19274 0.0
C681 C 0.29551 0.56552 0.1925 0.0
C682 C 0.34494 0.60013 0.19622 0.0
C683 C 0.32464 0.62862 0.19969 0.0
C684 C 0.28987 0.6247 0.20313 0.0
C685 C 0.27557 0.59302 0.19933 0.0
C686 C 0.3822 0.60276 0.19287 0.0
C687 C 0.26742 0.65409 0.20826 0.0
H688 H 0.40014 0.7116 0.22176 0.0
H689 H 0.37043 0.69899 0.13134 0.0
H690 H 0.32946 0.66349 0.25275 0.0
H691 H 0.37165 0.64908 0.2524 0.0
H692 H 0.36312 0.69177 0.26103 0.0
H693 H 0.32365 0.66771 0.11767 0.0
H694 H 0.33074 0.62872 0.13607 0.0
H695 H 0.29525 0.65332 0.14562 0.0
H696 H 0.3456 0.54759 0.18818 0.0
H697 H 0.24879 0.59035 0.19952 0.0
H698 H 0.39293 0.61773 0.21107 0.0
H699 H 0.38821 0.61544 0.17176 0.0
H700 H 0.39447 0.57805 0.19281 0.0
H701 H 0.28043 0.67439 0.22016 0.0
H702 H 0.2451 0.6467 0.2211 0.0
H703 H 0.25882 0.66387 0.18666 0.0
C704 C 0.29071 0.38034 0.21209 0.0
C705 C 0.29089 0.38908 0.18209 0.0
C706 C 0.31106 0.35435 0.22247 0.0
C707 C 0.33222 0.3375 0.20238 0.0
C708 C 0.32911 0.3437 0.17166 0.0
C709 C 0.30831 0.36921 0.16198 0.0
C710 C 0.31165 0.34702 0.25512 0.0
C711 C 0.35055 0.32615 0.14906 0.0
C712 C 0.42275 0.32377 0.21148 0.0
C713 C 0.42485 0.29023 0.2035 0.0
C714 C 0.39195 0.33895 0.21603 0.0
C715 C 0.36263 0.31991 0.21266 0.0
C716 C 0.36506 0.28491 0.21017 0.0
C717 C 0.39636 0.27032 0.20519 0.0
C718 C 0.39084 0.3762 0.21993 0.0
C719 C 0.33449 0.26337 0.2093 0.0
H720 H 0.2767 0.39521 0.22771 0.0
H721 H 0.30763 0.37527 0.13863 0.0
H722 H 0.32228 0.32219 0.25998 0.0
H723 H 0.32668 0.36615 0.26663 0.0
H724 H 0.28613 0.34832 0.26436 0.0
H725 H 0.34392 0.33298 0.12602 0.0
H726 H 0.37703 0.3326 0.15271 0.0
H727 H 0.34808 0.29888 0.15134 0.0
H728 H 0.44499 0.33896 0.21112 0.0
H729 H 0.39795 0.24416 0.19971 0.0
H730 H 0.3737 0.38296 0.2381 0.0
H731 H 0.38147 0.38793 0.19935 0.0
H732 H 0.4157 0.38675 0.22494 0.0
H733 H 0.31387 0.27462 0.22215 0.0
H734 H 0.33992 0.23825 0.21821 0.0
H735 H 0.32617 0.26036 0.18609 0.0
C736 C 0.05325 0.34906 0.27406 0.0
C737 C 0.03143 0.3573 0.29708 0.0
C738 C 0.07089 0.3736 0.25881 0.0
C739 C 0.06668 0.40736 0.26671 0.0
C740 C 0.04399 0.41606 0.28933 0.0
C741 C 0.0266 0.39088 0.3043 0.0
C742 C 0.09474 0.36324 0.23471 0.0
C743 C 0.03879 0.45182 0.29822 0.0
C744 C 0.1426 0.4571 0.2459 0.0
C745 C 0.13372 0.4689 0.21783 0.0
C746 C 0.11996 0.43923 0.26322 0.0
C747 C 0.0877 0.43292 0.25216 0.0
C748 C 0.07771 0.44713 0.22496 0.0
C749 C 0.10087 0.46505 0.2081 0.0
C750 C 0.13149 0.42487 0.29229 0.0
C751 C 0.04345 0.44119 0.21252 0.0
H752 H 0.05701 0.32324 0.26815 0.0
H753 H 0.00971 0.39747 0.322 0.0
H754 H 0.08882 0.37645 0.21386 0.0
H755 H 0.12044 0.37015 0.24103 0.0
H756 H 0.09403 0.33608 0.2304 0.0
H757 H 0.01818 0.4547 0.31434 0.0
H758 H 0.06186 0.4617 0.30833 0.0
H759 H 0.03334 0.46726 0.27851 0.0
H760 H 0.16779 0.4604 0.25379 0.0
H761 H 0.0937 0.47431 0.18654 0.0
H762 H 0.13482 0.39764 0.28992 0.0
H763 H 0.11263 0.42903 0.30977 0.0
H764 H 0.15542 0.4358 0.29966 0.0
H765 H 0.04179 0.41532 0.20417 0.0
H766 H 0.03771 0.45835 0.19399 0.0
H767 H 0.02427 0.44418 0.2299 0.0
C768 C 0.64078 0.04557 0.25833 0.0
C769 C 0.63186 0.02845 0.28412 0.0
C770 C 0.61678 0.06117 0.2408 0.0
C771 C 0.58295 0.0595 0.24914 0.0
C772 C 0.57345 0.03973 0.27359 0.0
C773 C 0.59809 0.02447 0.29091 0.0
C774 C 0.628 0.0817 0.2147 0.0
C775 C 0.53755 0.03666 0.28275 0.0
C776 C 0.53884 0.13931 0.23005 0.0
C777 C 0.52439 0.13151 0.20272 0.0
C778 C 0.55609 0.11534 0.24634 0.0
C779 C 0.55893 0.08264 0.23509 0.0
C780 C 0.54232 0.07391 0.20862 0.0
C781 C 0.52526 0.09854 0.19265 0.0
C782 C 0.57317 0.12567 0.27463 0.0
C783 C 0.54424 0.03916 0.19623 0.0
H784 H 0.66676 0.04827 0.25259 0.0
H785 H 0.59092 0.01093 0.3106 0.0
H786 H 0.61282 0.0759 0.19492 0.0
H787 H 0.62455 0.10845 0.21977 0.0
H788 H 0.65456 0.07746 0.20924 0.0
H789 H 0.53359 0.01537 0.29795 0.0
H790 H 0.52979 0.05971 0.2943 0.0
H791 H 0.52123 0.03359 0.26319 0.0
H792 H 0.53784 0.16459 0.23827 0.0
H793 H 0.51388 0.09221 0.17168 0.0
H794 H 0.60048 0.12494 0.27146 0.0
H795 H 0.56701 0.10815 0.29273 0.0
H796 H 0.56609 0.15114 0.28167 0.0
H797 H 0.56897 0.03528 0.186 0.0
H798 H 0.52496 0.03474 0.17911 0.0
H799 H 0.54135 0.02041 0.214 0.0
C800 C 0.85155 0.54927 0.23056 0.0
C801 C 0.86152 0.53308 0.20455 0.0
C802 C 0.87406 0.56812 0.24722 0.0
C803 C 0.90746 0.57078 0.23778 0.0
C804 C 0.91819 0.55292 0.21256 0.0
C805 C 0.89505 0.53432 0.19617 0.0
C806 C 0.8616 0.58667 0.27406 0.0
C807 C 0.95369 0.55478 0.20202 0.0
C808 C 0.9479 0.65213 0.25956 0.0
C809 C 0.96514 0.64331 0.28534 0.0
C810 C 0.93028 0.6284 0.24318 0.0
C811 C 0.92994 0.59491 0.25267 0.0
C812 C 0.94871 0.58545 0.27775 0.0
C813 C 0.96605 0.60979 0.29385 0.0
C814 C 0.91068 0.63954 0.2165 0.0
C815 C 0.94928 0.54992 0.28834 0.0
H816 H 0.82578 0.54827 0.2374 0.0
H817 H 0.90306 0.52172 0.17624 0.0
H818 H 0.87772 0.58155 0.29341 0.0
H819 H 0.8626 0.61379 0.26982 0.0
H820 H 0.83566 0.5799 0.27982 0.0
H821 H 0.95908 0.53613 0.18456 0.0
H822 H 0.95864 0.57988 0.19292 0.0
H823 H 0.9711 0.55089 0.2207 0.0
H824 H 0.94723 0.67788 0.25263 0.0
H825 H 0.97946 0.60268 0.31363 0.0
H826 H 0.88374 0.63643 0.22085 0.0
H827 H 0.91693 0.62397 0.19705 0.0
H828 H 0.91539 0.66597 0.21083 0.0
H829 H 0.92459 0.54327 0.29745 0.0
H830 H 0.96825 0.54585 0.3058 0.0
H831 H 0.95437 0.53277 0.26968 0.0
C832 C 0.35653 0.95368 0.2672 0.0
C833 C 0.36734 0.97216 0.29166 0.0
C834 C 0.37908 0.93622 0.24946 0.0
C835 C 0.41339 0.93733 0.25624 0.0
C836 C 0.42475 0.95784 0.27956 0.0
C837 C 0.40155 0.97498 0.29709 0.0
C838 C 0.36592 0.9149 0.22459 0.0
C839 C 0.46118 0.96015 0.28713 0.0
C840 C 0.45632 0.85725 0.23516 0.0
C841 C 0.4692 0.86501 0.20721 0.0
C842 C 0.43992 0.88126 0.25219 0.0
C843 C 0.43634 0.91392 0.24106 0.0
C844 C 0.45138 0.92258 0.21386 0.0
C845 C 0.46763 0.89797 0.19719 0.0
C846 C 0.42455 0.87105 0.28125 0.0
C847 C 0.44856 0.95726 0.20146 0.0
H848 H 0.3302 0.95165 0.26258 0.0
H849 H 0.41019 0.98944 0.31579 0.0
H850 H 0.37968 0.92001 0.20386 0.0
H851 H 0.36967 0.8883 0.23006 0.0
H852 H 0.33904 0.91908 0.22053 0.0
H853 H 0.46647 0.98116 0.30236 0.0
H854 H 0.46921 0.93679 0.29797 0.0
H855 H 0.47636 0.96321 0.26686 0.0
H856 H 0.45778 0.83197 0.24328 0.0
H857 H 0.47775 0.9043 0.17573 0.0
H858 H 0.39709 0.87152 0.27927 0.0
H859 H 0.43153 0.88879 0.29895 0.0
H860 H 0.43224 0.8457 0.28808 0.0
H861 H 0.42297 0.96128 0.19315 0.0
H862 H 0.46617 0.96145 0.18294 0.0
H863 H 0.45327 0.97608 0.21888 0.0
C864 C 0.14263 0.56931 0.7916 0.0
C865 C 0.14952 0.53653 0.78302 0.0
C866 C 0.11785 0.5879 0.77755 0.0
C867 C 0.09941 0.57345 0.75423 0.0
C868 C 0.10541 0.54003 0.74603 0.0
C869 C 0.13043 0.52191 0.76055 0.0
C870 C 0.11216 0.62343 0.78708 0.0
C871 C 0.08616 0.52379 0.72131 0.0
C872 C 0.02195 0.6219 0.73335 0.0
C873 C 0.03414 0.64238 0.71074 0.0
C874 C 0.04239 0.59794 0.74675 0.0
C875 C 0.07572 0.59442 0.73727 0.0
C876 C 0.08754 0.61377 0.71339 0.0
C877 C 0.06665 0.6375 0.70046 0.0
C878 C 0.02885 0.57764 0.77206 0.0
C879 C 0.12285 0.61068 0.70248 0.0
H880 H 0.15701 0.58078 0.8091 0.0
H881 H 0.13549 0.49657 0.75385 0.0
H882 H 0.11861 0.64048 0.7687 0.0
H883 H 0.08558 0.62743 0.7924 0.0
H884 H 0.12726 0.63032 0.8067 0.0
H885 H 0.0917 0.49684 0.71938 0.0
H886 H 0.0591 0.527 0.72485 0.0
H887 H 0.0924 0.53596 0.70003 0.0
H888 H 0.99681 0.62535 0.74132 0.0
H889 H 0.0762 0.65292 0.68277 0.0
H890 H 0.04063 0.58581 0.79301 0.0
H891 H 0.03492 0.55098 0.76902 0.0
H892 H 0.00152 0.58028 0.77433 0.0
H893 H 0.14016 0.61975 0.71977 0.0
H894 H 0.12722 0.62519 0.68197 0.0
H895 H 0.12905 0.58429 0.69811 0.0
C896 C 0.44893 0.14678 0.76693 0.0
C897 C 0.4676 0.13938 0.79224 0.0
C898 C 0.43183 0.12191 0.75155 0.0
C899 C 0.43338 0.08868 0.76167 0.0
C900 C 0.4533 0.08071 0.78645 0.0
C901 C 0.47018 0.1062 0.8015 0.0
C902 C 0.41105 0.13147 0.72507 0.0
C903 C 0.45576 0.04552 0.79771 0.0
C904 C 0.35627 0.04144 0.73956 0.0
C905 C 0.36645 0.0265 0.71305 0.0
C906 C 0.37859 0.05975 0.75687 0.0
C907 C 0.41192 0.06322 0.74745 0.0
C908 C 0.42301 0.04592 0.72204 0.0
C909 C 0.4001 0.02772 0.70511 0.0
C910 C 0.36582 0.07746 0.78403 0.0
C911 C 0.45845 0.04864 0.71147 0.0
H912 H 0.447 0.17227 0.75941 0.0
H913 H 0.48468 0.10022 0.82096 0.0
H914 H 0.41787 0.11599 0.70571 0.0
H915 H 0.38444 0.12684 0.72988 0.0
H916 H 0.41407 0.15803 0.71902 0.0
H917 H 0.47511 0.04281 0.81504 0.0
H918 H 0.43154 0.03785 0.80717 0.0
H919 H 0.46148 0.02819 0.77932 0.0
H920 H 0.33041 0.04023 0.74613 0.0
H921 H 0.40828 0.01601 0.68479 0.0
H922 H 0.36478 0.10457 0.77968 0.0
H923 H 0.38283 0.07356 0.80298 0.0
H924 H 0.34058 0.06895 0.7904 0.0
H925 H 0.46234 0.07341 0.70132 0.0
H926 H 0.46452 0.02936 0.69475 0.0
H927 H 0.47605 0.04639 0.73022 0.0
C928 C 0.93795 0.34104 0.72839 0.0
C929 C 0.96349 0.35075 0.70915 0.0
C930 C 0.91959 0.36455 0.74433 0.0
C931 C 0.92689 0.39874 0.74108 0.0
C932 C 0.95296 0.40879 0.72209 0.0
C933 C 0.97095 0.38465 0.70629 0.0
C934 C 0.89199 0.35276 0.76437 0.0
C935 C 0.96151 0.44502 0.71819 0.0
C936 C 0.85427 0.45394 0.7616 0.0
C937 C 0.86123 0.46122 0.7913 0.0
C938 C 0.87645 0.43527 0.74438 0.0
C939 C 0.90637 0.42366 0.75713 0.0
C940 C 0.91456 0.4328 0.78646 0.0
C941 C 0.89188 0.45145 0.80322 0.0
C942 C 0.86683 0.42618 0.71314 0.0
C943 C 0.94635 0.42115 0.80077 0.0
H944 H 0.932 0.31494 0.73083 0.0
H945 H 0.99067 0.39238 0.69153 0.0
H946 H 0.89626 0.36175 0.78724 0.0
H947 H 0.86793 0.36318 0.75685 0.0
H948 H 0.8899 0.32525 0.76485 0.0
H949 H 0.9834 0.44867 0.70362 0.0
H950 H 0.94005 0.4584 0.70849 0.0
H951 H 0.96673 0.45658 0.73997 0.0
H952 H 0.83079 0.46159 0.75208 0.0
H953 H 0.89764 0.45719 0.82606 0.0
H954 H 0.86112 0.39925 0.712 0.0
H955 H 0.88771 0.43099 0.69775 0.0
H956 H 0.84472 0.44021 0.70541 0.0
H957 H 0.94487 0.39404 0.80491 0.0
H958 H 0.95111 0.4339 0.82215 0.0
H959 H 0.9678 0.42546 0.78589 0.0
C960 C 0.64137 0.95305 0.72809 0.0
C961 C 0.63357 0.96645 0.70036 0.0
C962 C 0.61701 0.93775 0.74545 0.0
C963 C 0.58401 0.93573 0.73482 0.0
C964 C 0.57543 0.95137 0.70788 0.0
C965 C 0.60037 0.9666 0.69091 0.0
C966 C 0.62714 0.92179 0.77429 0.0
C967 C 0.54044 0.95014 0.69601 0.0
C968 C 0.54332 0.85704 0.76181 0.0
C969 C 0.52649 0.86828 0.78702 0.0
C970 C 0.56013 0.87923 0.7433 0.0
C971 C 0.5601 0.91354 0.75015 0.0
C972 C 0.54081 0.9254 0.77408 0.0
C973 C 0.52419 0.90257 0.79231 0.0
C974 C 0.58001 0.86558 0.7177 0.0
C975 C 0.53968 0.96186 0.78178 0.0
H976 H 0.66687 0.95328 0.73575 0.0
H977 H 0.59408 0.97711 0.66959 0.0
H978 H 0.61007 0.92942 0.79229 0.0
H979 H 0.6255 0.89437 0.77219 0.0
H980 H 0.65291 0.92838 0.78078 0.0
H981 H 0.53653 0.96837 0.67792 0.0
H982 H 0.53533 0.92492 0.68721 0.0
H983 H 0.52214 0.95506 0.71381 0.0
H984 H 0.54476 0.83063 0.75728 0.0
H985 H 0.51097 0.91152 0.8116 0.0
H986 H 0.60691 0.86802 0.72257 0.0
H987 H 0.57488 0.87992 0.69729 0.0
H988 H 0.57449 0.83897 0.71341 0.0
H989 H 0.56317 0.96898 0.79291 0.0
H990 H 0.51872 0.96775 0.79687 0.0
H991 H 0.53735 0.9773 0.76158 0.0
C992 C 0.00267 0.3007 0.43317 0.0
C993 C 0.98243 0.27401 0.42459 0.0
C994 C 0.00603 0.30926 0.46323 0.0
C995 C 0.98912 0.29036 0.48495 0.0
C996 C 0.96592 0.26594 0.47597 0.0
C997 C 0.96278 0.25822 0.44595 0.0
C998 C 0.02977 0.33657 0.47177 0.0
C999 C 0.94694 0.24536 0.4982 0.0
C1000 C 0.02982 0.25964 0.55439 0.0
C1001 C 0.00926 0.27329 0.57625 0.0
C1002 C 0.02563 0.26771 0.52458 0.0
C1003 C 0.00037 0.29032 0.51632 0.0
C1004 C 0.98218 0.30721 0.53857 0.0
C1005 C 0.9867 0.29833 0.56844 0.0
C1006 C 0.046 0.24929 0.50178 0.0
C1007 C 0.9561 0.3326 0.53082 0.0
H1008 H 0.01755 0.31343 0.41674 0.0
H1009 H 0.94638 0.23816 0.43941 0.0
H1010 H 0.0212 0.34978 0.49191 0.0
H1011 H 0.0545 0.3257 0.47655 0.0
H1012 H 0.03278 0.35482 0.45356 0.0
H1013 H 0.92758 0.22973 0.48759 0.0
H1014 H 0.96441 0.22879 0.51014 0.0
H1015 H 0.93483 0.26157 0.51481 0.0
H1016 H 0.04793 0.24089 0.56039 0.0
H1017 H 0.97104 0.30934 0.58529 0.0
H1018 H 0.05676 0.26686 0.48557 0.0
H1019 H 0.02979 0.23181 0.48945 0.0
H1020 H 0.06656 0.23486 0.51193 0.0
H1021 H 0.963 0.34669 0.51066 0.0
H1022 H 0.95214 0.35035 0.54931 0.0
H1023 H 0.9322 0.31981 0.52647 0.0
C1024 C 0.66696 0.98235 0.56165 0.0
C1025 C 0.69522 0.96216 0.56393 0.0
C1026 C 0.65412 0.99078 0.53368 0.0
C1027 C 0.67066 0.97948 0.50791 0.0
C1028 C 0.69564 0.95487 0.51053 0.0
C1029 C 0.70737 0.94633 0.53858 0.0
C1030 C 0.62521 0.01443 0.53189 0.0
C1031 C 0.7134 0.94099 0.4838 0.0
C1032 C 0.66663 0.99791 0.42644 0.0
C1033 C 0.69252 0.02108 0.42471 0.0
C1034 C 0.65489 0.98723 0.45421 0.0
C1035 C 0.67009 0.99955 0.48029 0.0
C1036 C 0.69262 0.0265 0.47826 0.0
C1037 C 0.70334 0.037 0.45045 0.0
C1038 C 0.62859 0.96066 0.45532 0.0
C1039 C 0.70897 0.04138 0.5053 0.0
H1040 H 0.65676 0.99394 0.58129 0.0
H1041 H 0.72844 0.92968 0.54043 0.0
H1042 H 0.63406 0.0402 0.53546 0.0
H1043 H 0.6126 0.0131 0.5101 0.0
H1044 H 0.60691 0.00886 0.54957 0.0
H1045 H 0.7308 0.92063 0.48968 0.0
H1046 H 0.69522 0.93123 0.46761 0.0
H1047 H 0.72779 0.96098 0.47281 0.0
H1048 H 0.65763 0.98605 0.40647 0.0
H1049 H 0.72265 0.05571 0.44896 0.0
H1050 H 0.6165 0.95927 0.47734 0.0
H1051 H 0.63991 0.93621 0.45019 0.0
H1052 H 0.60934 0.96545 0.43828 0.0
H1053 H 0.68993 0.04943 0.52143 0.0
H1054 H 0.72472 0.06317 0.4998 0.0
H1055 H 0.72484 0.02247 0.51621 0.0
C1056 C 0.00874 0.69803 0.56138 0.0
C1057 C 0.99206 0.72738 0.56916 0.0
C1058 C 0.01171 0.68841 0.53154 0.0
C1059 C 0.99794 0.70882 0.50917 0.0
C1060 C 0.97907 0.7371 0.5172 0.0
C1061 C 0.97629 0.74589 0.547 0.0
C1062 C 0.03123 0.65757 0.52405 0.0
C1063 C 0.96367 0.75959 0.49421 0.0
C1064 C 0.03584 0.72879 0.43578 0.0
C1065 C 0.01088 0.71777 0.41656 0.0
C1066 C 0.03418 0.72226 0.46612 0.0
C1067 C 0.00681 0.70431 0.47747 0.0
C1068 C 0.98411 0.6892 0.45766 0.0
C1069 C 0.98634 0.6962 0.42723 0.0
C1070 C 0.05942 0.73829 0.48628 0.0
C1071 C 0.95542 0.66869 0.46881 0.0
H1072 H 0.02072 0.68336 0.5784 0.0
H1073 H 0.96274 0.76823 0.5528 0.0
H1074 H 0.02129 0.64515 0.50401 0.0
H1075 H 0.05741 0.66448 0.51961 0.0
H1076 H 0.03106 0.63962 0.54269 0.0
H1077 H 0.94804 0.77935 0.50423 0.0
H1078 H 0.98353 0.77164 0.48103 0.0
H1079 H 0.94807 0.74497 0.47876 0.0
H1080 H 0.05528 0.74489 0.42744 0.0
H1081 H 0.96717 0.6873 0.41239 0.0
H1082 H 0.06767 0.72062 0.50356 0.0
H1083 H 0.0479 0.75989 0.49757 0.0
H1084 H 0.08156 0.74715 0.47395 0.0
H1085 H 0.96295 0.6534 0.48807 0.0
H1086 H 0.94549 0.65214 0.45125 0.0
H1087 H 0.93514 0.68546 0.47609 0.0
C1088 C 0.33931 0.00508 0.57174 0.0
C1089 C 0.31074 0.02485 0.57379 0.0
C1090 C 0.35314 0.99755 0.5439 0.0
C1091 C 0.33728 0.00929 0.51794 0.0
C1092 C 0.31156 0.0332 0.52051 0.0
C1093 C 0.29899 0.04095 0.54845 0.0
C1094 C 0.38275 0.97473 0.54248 0.0
C1095 C 0.29414 0.04739 0.49372 0.0
C1096 C 0.3426 0.99818 0.43602 0.0
C1097 C 0.31701 0.9749 0.43264 0.0
C1098 C 0.35473 0.00594 0.46442 0.0
C1099 C 0.33996 0.99083 0.48947 0.0
C1100 C 0.31858 0.96324 0.48537 0.0
C1101 C 0.3076 0.9555 0.45688 0.0
C1102 C 0.38049 0.03281 0.46763 0.0
C1103 C 0.30321 0.94508 0.51118 0.0
H1104 H 0.34917 0.99326 0.59139 0.0
H1105 H 0.27765 0.05728 0.55016 0.0
H1106 H 0.375 0.94907 0.54811 0.0
H1107 H 0.39459 0.97467 0.52033 0.0
H1108 H 0.40145 0.98239 0.55919 0.0
H1109 H 0.27508 0.06616 0.49974 0.0
H1110 H 0.31234 0.05938 0.47882 0.0
H1111 H 0.28173 0.0272 0.48118 0.0
H1112 H 0.35067 0.01269 0.41716 0.0
H1113 H 0.28859 0.93668 0.45401 0.0
H1114 H 0.39285 0.03194 0.48956 0.0
H1115 H 0.36866 0.05748 0.46485 0.0
H1116 H 0.39959 0.03032 0.45005 0.0
H1117 H 0.32281 0.93643 0.52653 0.0
H1118 H 0.28847 0.92318 0.50405 0.0
H1119 H 0.28659 0.9621 0.52359 0.0
C1120 C 0.55102 0.8332 0.94865 0.0
C1121 C 0.52411 0.82972 0.92933 0.0
C1122 C 0.54567 0.83898 0.97885 0.0
C1123 C 0.51269 0.84023 0.98957 0.0
C1124 C 0.48628 0.84407 0.9692 0.0
C1125 C 0.49232 0.83864 0.93899 0.0
C1126 C 0.57482 0.83702 0.99967 0.0
C1127 C 0.45093 0.84747 0.97966 0.0
C1128 C 0.49811 0.77363 0.04676 0.0
C1129 C 0.49561 0.79164 0.07318 0.0
C1130 C 0.50299 0.78942 0.0197 0.0
C1131 C 0.50566 0.82452 0.01869 0.0
C1132 C 0.50281 0.84315 0.04518 0.0
C1133 C 0.49756 0.82645 0.07221 0.0
C1134 C 0.50577 0.76808 0.99223 0.0
C1135 C 0.50486 0.88055 0.04515 0.0
H1136 H 0.57573 0.82672 0.94103 0.0
H1137 H 0.47149 0.83628 0.92394 0.0
H1138 H 0.57075 0.85281 0.01946 0.0
H1139 H 0.5779 0.81096 0.00719 0.0
H1140 H 0.59816 0.84482 0.98858 0.0
H1141 H 0.43483 0.85821 0.96217 0.0
H1142 H 0.44112 0.82254 0.98544 0.0
H1143 H 0.44956 0.86332 0.99969 0.0
H1144 H 0.49634 0.74677 0.04711 0.0
H1145 H 0.49536 0.84059 0.09251 0.0
H1146 H 0.53061 0.77127 0.98205 0.0
H1147 H 0.48686 0.77562 0.97573 0.0
H1148 H 0.50225 0.74124 0.99695 0.0
H1149 H 0.52258 0.88977 0.02828 0.0
H1150 H 0.51235 0.89027 0.06715 0.0
H1151 H 0.48002 0.89086 0.03984 0.0
C1152 C 0.18652 0.51097 0.93765 0.0
C1153 C 0.2192 0.52206 0.93345 0.0
C1154 C 0.17352 0.50708 0.96636 0.0
C1155 C 0.1939 0.51409 0.99113 0.0
C1156 C 0.2257 0.52833 0.98672 0.0
C1157 C 0.23779 0.53226 0.95799 0.0
C1158 C 0.13897 0.49327 0.96993 0.0
C1159 C 0.2484 0.53666 0.01231 0.0
C1160 C 0.18169 0.51628 0.07326 0.0
C1161 C 0.19857 0.48709 0.08073 0.0
C1162 C 0.17473 0.52355 0.04346 0.0
C1163 C 0.1857 0.5014 0.02114 0.0
C1164 C 0.19805 0.46975 0.02924 0.0
C1165 C 0.20444 0.46306 0.05903 0.0
C1166 C 0.15955 0.55664 0.03575 0.0
C1167 C 0.20935 0.4449 0.00633 0.0
H1168 H 0.17181 0.50347 0.91872 0.0
H1169 H 0.26276 0.54168 0.95484 0.0
H1170 H 0.14005 0.46575 0.9694 0.0
H1171 H 0.12756 0.50099 0.99118 0.0
H1172 H 0.12271 0.50141 0.95147 0.0
H1173 H 0.27154 0.54923 0.00503 0.0
H1174 H 0.23554 0.55312 0.02828 0.0
H1175 H 0.25536 0.51357 0.02417 0.0
H1176 H 0.17709 0.53486 0.09014 0.0
H1177 H 0.21738 0.4404 0.06502 0.0
H1178 H 0.14423 0.5548 0.01542 0.0
H1179 H 0.17958 0.57496 0.03163 0.0
H1180 H 0.14391 0.56614 0.05414 0.0
H1181 H 0.19057 0.44238 0.98856 0.0
H1182 H 0.21393 0.42002 0.0161 0.0
H1183 H 0.23277 0.45372 0.99605 0.0
C1184 C 0.5057 0.18737 0.06294 0.0
C1185 C 0.48354 0.21191 0.07269 0.0
C1186 C 0.50837 0.1798 0.03262 0.0
C1187 C 0.4887 0.19747 0.01196 0.0
C1188 C 0.46334 0.21888 0.02229 0.0
C1189 C 0.46107 0.22577 0.05253 0.0
C1190 C 0.53449 0.15546 0.02259 0.0
C1191 C 0.44126 0.23782 0.00122 0.0
C1192 C 0.52545 0.23581 0.94368 0.0
C1193 C 0.50684 0.22071 0.92121 0.0
C1194 C 0.52192 0.22622 0.97319 0.0
C1195 C 0.49936 0.20055 0.98055 0.0
C1196 C 0.48317 0.18274 0.95766 0.0
C1197 C 0.48696 0.19317 0.92812 0.0
C1198 C 0.54008 0.24582 0.99669 0.0
C1199 C 0.45999 0.15434 0.96436 0.0
H1200 H 0.52283 0.17618 0.0785 0.0
H1201 H 0.4433 0.24414 0.06012 0.0
H1202 H 0.52619 0.14164 0.00268 0.0
H1203 H 0.55748 0.16913 0.01677 0.0
H1204 H 0.54065 0.13744 0.04035 0.0
H1205 H 0.42033 0.25025 0.01279 0.0
H1206 H 0.4561 0.25711 0.98971 0.0
H1207 H 0.43092 0.22098 0.98416 0.0
H1208 H 0.54153 0.25658 0.93841 0.0
H1209 H 0.47283 0.18106 0.9108 0.0
H1210 H 0.55317 0.22887 0.01207 0.0
H1211 H 0.52197 0.26044 0.00984 0.0
H1212 H 0.55856 0.26325 0.98713 0.0
H1213 H 0.46761 0.1408 0.9846 0.0
H1214 H 0.45892 0.13657 0.94558 0.0
H1215 H 0.43457 0.16417 0.96792 0.0
C1216 C 0.7662 0.52761 0.94253 0.0
C1217 C 0.78267 0.50997 0.92019 0.0
C1218 C 0.77597 0.52503 0.97207 0.0
C1219 C 0.80332 0.50458 0.97959 0.0
C1220 C 0.82244 0.48978 0.95679 0.0
C1221 C 0.81172 0.49244 0.92722 0.0
C1222 C 0.75485 0.54163 0.99544 0.0
C1223 C 0.85268 0.4691 0.9636 0.0
C1224 C 0.81393 0.51214 0.06211 0.0
C1225 C 0.79098 0.4881 0.07132 0.0
C1226 C 0.82225 0.51521 0.03198 0.0
C1227 C 0.80687 0.49406 0.01099 0.0
C1228 C 0.78748 0.46696 0.02094 0.0
C1229 C 0.77986 0.46431 0.051 0.0
C1230 C 0.84468 0.54316 0.02241 0.0
C1231 C 0.77113 0.44322 0.99955 0.0
H1232 H 0.74423 0.54195 0.93715 0.0
H1233 H 0.82492 0.47913 0.91001 0.0
H1234 H 0.74185 0.52244 0.0087 0.0
H1235 H 0.77058 0.55628 0.01074 0.0
H1236 H 0.73589 0.55846 0.98576 0.0
H1237 H 0.87088 0.47031 0.94518 0.0
H1238 H 0.86499 0.47727 0.98431 0.0
H1239 H 0.84519 0.44276 0.96624 0.0
H1240 H 0.82303 0.53031 0.07784 0.0
H1241 H 0.76278 0.44514 0.05824 0.0
H1242 H 0.82942 0.5651 0.01649 0.0
H1243 H 0.85944 0.53603 0.00268 0.0
H1244 H 0.86184 0.55056 0.04047 0.0
H1245 H 0.75108 0.45634 0.98742 0.0
H1246 H 0.7601 0.42143 0.01095 0.0
H1247 H 0.78932 0.43416 0.98303 0.0
loop_
_geom_bond_atom_site_label_1
_geom_bond_atom_site_label_2
_geom_bond_distance
_geom_bond_site_symmetry_2
_ccdc_geom_bond_type
Zn0 O3 2.031 . S
Zn0 O5 2.049 . S
Zn0 O10 2.067 1_455 S
Zn1 O2 1.962 . S
Zn1 O4 1.986 . S
Zn1 O6 1.996 . S
Zn1 O9 1.936 1_455 S
O2 Zn1 1.962 . S
O2 C7 1.254 . S
O3 Zn0 2.031 . S
O3 C7 1.269 . S
O4 Zn1 1.986 . S
O4 C11 1.262 . S
O5 Zn0 2.049 . S
O5 C13 1.260 . S
O6 Zn1 1.996 . S
O6 C13 1.257 . S
C7 O2 1.254 . S
C7 O3 1.269 . S
C8 O9 1.254 . S
C8 O10 1.270 . S
O9 Zn1 1.936 1_655 S
O9 C8 1.254 . S
O10 Zn0 2.067 1_655 S
O10 C8 1.270 . S
C11 O4 1.262 . S
C11 O12 1.232 . S
O12 C11 1.232 . S
C13 O5 1.260 . S
C13 O6 1.257 . S
Zn14 O17 2.031 . S
Zn14 O19 2.049 . S
Zn14 O24 2.067 1_545 S
Zn15 O16 1.962 . S
Zn15 O18 1.986 . S
Zn15 O20 1.996 . S
Zn15 O23 1.936 1_545 S
O16 Zn15 1.962 . S
O16 C21 1.254 . S
O17 Zn14 2.031 . S
O17 C21 1.269 . S
O18 Zn15 1.986 . S
O18 C25 1.262 . S
O19 Zn14 2.049 . S
O19 C27 1.260 . S
O20 Zn15 1.996 . S
O20 C27 1.257 . S
C21 O16 1.254 . S
C21 O17 1.269 . S
C22 O23 1.254 . S
C22 O24 1.270 . S
O23 Zn15 1.936 1_565 S
O23 C22 1.254 . S
O24 Zn14 2.067 1_565 S
O24 C22 1.270 . S
C25 O18 1.262 . S
C25 O26 1.232 . S
O26 C25 1.232 . S
C27 O19 1.260 . S
C27 O20 1.257 . S
Zn28 O31 2.031 . S
Zn28 O33 2.049 . S
Zn28 O38 2.067 1_655 S
Zn29 O30 1.962 . S
Zn29 O32 1.986 . S
Zn29 O34 1.996 . S
Zn29 O37 1.936 1_655 S
O30 Zn29 1.962 . S
O30 C35 1.254 . S
O31 Zn28 2.031 . S
O31 C35 1.269 . S
O32 Zn29 1.986 . S
O32 C39 1.262 . S
O33 Zn28 2.049 . S
O33 C41 1.260 . S
O34 Zn29 1.996 . S
O34 C41 1.257 . S
C35 O30 1.254 . S
C35 O31 1.269 . S
C36 O37 1.254 . S
C36 O38 1.270 . S
O37 Zn29 1.936 1_455 S
O37 C36 1.254 . S
O38 Zn28 2.067 1_455 S
O38 C36 1.270 . S
C39 O32 1.262 . S
C39 O40 1.232 . S
O40 C39 1.232 . S
C41 O33 1.260 . S
C41 O34 1.257 . S
Zn42 O45 2.031 . S
Zn42 O47 2.049 . S
Zn42 O52 2.067 1_565 S
Zn43 O44 1.962 . S
Zn43 O46 1.986 . S
Zn43 O48 1.996 . S
Zn43 O51 1.936 1_565 S
O44 Zn43 1.962 . S
O44 C49 1.254 . S
O45 Zn42 2.031 . S
O45 C49 1.269 . S
O46 Zn43 1.986 . S
O46 C53 1.262 . S
O47 Zn42 2.049 . S
O47 C55 1.260 . S
O48 Zn43 1.996 . S
O48 C55 1.257 . S
C49 O44 1.254 . S
C49 O45 1.269 . S
C50 O51 1.254 . S
C50 O52 1.270 . S
O51 Zn43 1.936 1_545 S
O51 C50 1.254 . S
O52 Zn42 2.067 1_545 S
O52 C50 1.270 . S
C53 O46 1.262 . S
C53 O54 1.232 . S
O54 C53 1.232 . S
C55 O47 1.260 . S
C55 O48 1.257 . S
Zn56 O59 2.031 . S
Zn56 O61 2.049 . S
Zn56 O66 2.067 1_455 S
Zn57 O58 1.962 . S
Zn57 O60 1.986 . S
Zn57 O62 1.996 . S
Zn57 O65 1.936 1_455 S
O58 Zn57 1.962 . S
O58 C63 1.254 . S
O59 Zn56 2.031 . S
O59 C63 1.269 . S
O60 Zn57 1.986 . S
O60 C67 1.262 . S
O61 Zn56 2.049 . S
O61 C69 1.260 . S
O62 Zn57 1.996 . S
O62 C69 1.257 . S
C63 O58 1.254 . S
C63 O59 1.269 . S
C64 O65 1.254 . S
C64 O66 1.270 . S
O65 Zn57 1.936 1_655 S
O65 C64 1.254 . S
O66 Zn56 2.067 1_655 S
O66 C64 1.270 . S
C67 O60 1.262 . S
C67 O68 1.232 . S
O68 C67 1.232 . S
C69 O61 1.260 . S
C69 O62 1.257 . S
Zn70 O73 2.031 . S
Zn70 O75 2.049 . S
Zn70 O80 2.067 1_545 S
Zn71 O72 1.962 . S
Zn71 O74 1.986 . S
Zn71 O76 1.996 . S
Zn71 O79 1.936 1_545 S
O72 Zn71 1.962 . S
O72 C77 1.254 . S
O73 Zn70 2.031 . S
O73 C77 1.269 . S
O74 Zn71 1.986 . S
O74 C81 1.262 . S
O75 Zn70 2.049 . S
O75 C83 1.260 . S
O76 Zn71 1.996 . S
O76 C83 1.257 . S
C77 O72 1.254 . S
C77 O73 1.269 . S
C78 O79 1.254 . S
C78 O80 1.270 . S
O79 Zn71 1.936 1_565 S
O79 C78 1.254 . S
O80 Zn70 2.067 1_565 S
O80 C78 1.270 . S
C81 O74 1.262 . S
C81 O82 1.232 . S
O82 C81 1.232 . S
C83 O75 1.260 . S
C83 O76 1.257 . S
Zn84 O87 2.031 . S
Zn84 O89 2.049 . S
Zn84 O94 2.067 1_655 S
Zn85 O86 1.962 . S
Zn85 O88 1.986 . S
Zn85 O90 1.996 . S
Zn85 O93 1.936 1_655 S
O86 Zn85 1.962 . S
O86 C91 1.254 . S
O87 Zn84 2.031 . S
O87 C91 1.269 . S
O88 Zn85 1.986 . S
O88 C95 1.262 . S
O89 Zn84 2.049 . S
O89 C97 1.260 . S
O90 Zn85 1.996 . S
O90 C97 1.257 . S
C91 O86 1.254 . S
C91 O87 1.269 . S
C92 O93 1.254 . S
C92 O94 1.270 . S
O93 Zn85 1.936 1_455 S
O93 C92 1.254 . S
O94 Zn84 2.067 1_455 S
O94 C92 1.270 . S
C95 O88 1.262 . S
C95 O96 1.232 . S
O96 C95 1.232 . S
C97 O89 1.260 . S
C97 O90 1.257 . S
Zn98 O101 2.031 . S
Zn98 O103 2.049 . S
Zn98 O108 2.067 1_565 S
Zn99 O100 1.962 . S
Zn99 O102 1.986 . S
Zn99 O104 1.996 . S
Zn99 O107 1.936 1_565 S
O100 Zn99 1.962 . S
O100 C105 1.254 . S
O101 Zn98 2.031 . S
O101 C105 1.269 . S
O102 Zn99 1.986 . S
O102 C109 1.262 . S
O103 Zn98 2.049 . S
O103 C111 1.260 . S
O104 Zn99 1.996 . S
O104 C111 1.257 . S
C105 O100 1.254 . S
C105 O101 1.269 . S
C106 O107 1.254 . S
C106 O108 1.270 . S
O107 Zn99 1.936 1_545 S
O107 C106 1.254 . S
O108 Zn98 2.067 1_545 S
O108 C106 1.270 . S
C109 O102 1.262 . S
C109 O110 1.232 . S
O110 C109 1.232 . S
C111 O103 1.260 . S
C111 O104 1.257 . S
Zn112 O115 2.031 . S
Zn112 O117 2.049 . S
Zn112 O122 2.067 . S
Zn113 O114 1.962 . S
Zn113 O116 1.986 . S
Zn113 O118 1.996 . S
Zn113 O121 1.943 . S
O114 Zn113 1.962 . S
O114 C119 1.254 . S
O115 Zn112 2.031 . S
O115 C119 1.269 . S
O116 Zn113 1.986 . S
O116 C123 1.262 . S
O117 Zn112 2.049 . S
O117 C125 1.260 . S
O118 Zn113 1.996 . S
O118 C125 1.257 . S
C119 O114 1.254 . S
C119 O115 1.269 . S
C120 O121 1.249 . S
C120 O122 1.270 . S
O121 Zn113 1.943 . S
O121 C120 1.249 . S
O122 Zn112 2.067 . S
O122 C120 1.270 . S
C123 O116 1.262 . S
C123 O124 1.232 . S
O124 C123 1.232 . S
C125 O117 1.260 . S
C125 O118 1.257 . S
Zn126 O129 2.031 . S
Zn126 O131 2.049 . S
Zn126 O136 2.067 . S
Zn127 O128 1.962 . S
Zn127 O130 1.986 . S
Zn127 O132 1.996 . S
Zn127 O135 1.943 . S
O128 Zn127 1.962 . S
O128 C133 1.254 . S
O129 Zn126 2.031 . S
O129 C133 1.269 . S
O130 Zn127 1.986 . S
O130 C137 1.262 . S
O131 Zn126 2.049 . S
O131 C139 1.260 . S
O132 Zn127 1.996 . S
O132 C139 1.257 . S
C133 O128 1.254 . S
C133 O129 1.269 . S
C134 O135 1.249 . S
C134 O136 1.270 . S
O135 Zn127 1.943 . S
O135 C134 1.249 . S
O136 Zn126 2.067 . S
O136 C134 1.270 . S
C137 O130 1.262 . S
C137 O138 1.232 . S
O138 C137 1.232 . S
C139 O131 1.260 . S
C139 O132 1.257 . S
Zn140 O143 2.031 . S
Zn140 O145 2.049 . S
Zn140 O150 2.067 . S
Zn141 O142 1.962 . S
Zn141 O144 1.986 . S
Zn141 O146 1.996 . S
Zn141 O149 1.943 . S
O142 Zn141 1.962 . S
O142 C147 1.254 . S
O143 Zn140 2.031 . S
O143 C147 1.269 . S
O144 Zn141 1.986 . S
O144 C151 1.262 . S
O145 Zn140 2.049 . S
O145 C153 1.260 . S
O146 Zn141 1.996 . S
O146 C153 1.257 . S
C147 O142 1.254 . S
C147 O143 1.269 . S
C148 O149 1.249 . S
C148 O150 1.270 . S
O149 Zn141 1.943 . S
O149 C148 1.249 . S
O150 Zn140 2.067 . S
O150 C148 1.270 . S
C151 O144 1.262 . S
C151 O152 1.232 . S
O152 C151 1.232 . S
C153 O145 1.260 . S
C153 O146 1.257 . S
Zn154 O157 2.031 . S
Zn154 O159 2.049 . S
Zn154 O164 2.067 . S
Zn155 O156 1.962 . S
Zn155 O158 1.986 . S
Zn155 O160 1.996 . S
Zn155 O163 1.943 . S
O156 Zn155 1.962 . S
O156 C161 1.254 . S
O157 Zn154 2.031 . S
O157 C161 1.269 . S
O158 Zn155 1.986 . S
O158 C165 1.262 . S
O159 Zn154 2.049 . S
O159 C167 1.260 . S
O160 Zn155 1.996 . S
O160 C167 1.257 . S
C161 O156 1.254 . S
C161 O157 1.269 . S
C162 O163 1.249 . S
C162 O164 1.270 . S
O163 Zn155 1.943 . S
O163 C162 1.249 . S
O164 Zn154 2.067 . S
O164 C162 1.270 . S
C165 O158 1.262 . S
C165 O166 1.232 . S
O166 C165 1.232 . S
C167 O159 1.260 . S
C167 O160 1.257 . S
Zn168 O171 2.031 . S
Zn168 O173 2.049 . S
Zn168 O178 2.067 . S
Zn169 O170 1.962 . S
Zn169 O172 1.986 . S
Zn169 O174 1.996 . S
Zn169 O177 1.943 . S
O170 Zn169 1.962 . S
O170 C175 1.254 . S
O171 Zn168 2.031 . S
O171 C175 1.269 . S
O172 Zn169 1.986 . S
O172 C179 1.262 . S
O173 Zn168 2.049 . S
O173 C181 1.260 . S
O174 Zn169 1.996 . S
O174 C181 1.257 . S
C175 O170 1.254 . S
C175 O171 1.269 . S
C176 O177 1.249 . S
C176 O178 1.270 . S
O177 Zn169 1.943 . S
O177 C176 1.249 . S
O178 Zn168 2.067 . S
O178 C176 1.270 . S
C179 O172 1.262 . S
C179 O180 1.232 . S
O180 C179 1.232 . S
C181 O173 1.260 . S
C181 O174 1.257 . S
Zn182 O185 2.031 . S
Zn182 O187 2.049 . S
Zn182 O192 2.067 . S
Zn183 O184 1.962 . S
Zn183 O186 1.986 . S
Zn183 O188 1.996 . S
Zn183 O191 1.943 . S
O184 Zn183 1.962 . S
O184 C189 1.254 . S
O185 Zn182 2.031 . S
O185 C189 1.269 . S
O186 Zn183 1.986 . S
O186 C193 1.262 . S
O187 Zn182 2.049 . S
O187 C195 1.260 . S
O188 Zn183 1.996 . S
O188 C195 1.257 . S
C189 O184 1.254 . S
C189 O185 1.269 . S
C190 O191 1.249 . S
C190 O192 1.270 . S
O191 Zn183 1.943 . S
O191 C190 1.249 . S
O192 Zn182 2.067 . S
O192 C190 1.270 . S
C193 O186 1.262 . S
C193 O194 1.232 . S
O194 C193 1.232 . S
C195 O187 1.260 . S
C195 O188 1.257 . S
Zn196 O199 2.031 . S
Zn196 O201 2.049 . S
Zn196 O206 2.067 . S
Zn197 O198 1.962 . S
Zn197 O200 1.986 . S
Zn197 O202 1.996 . S
Zn197 O205 1.943 . S
O198 Zn197 1.962 . S
O198 C203 1.254 . S
O199 Zn196 2.031 . S
O199 C203 1.269 . S
O200 Zn197 1.986 . S
O200 C207 1.262 . S
O201 Zn196 2.049 . S
O201 C209 1.260 . S
O202 Zn197 1.996 . S
O202 C209 1.257 . S
C203 O198 1.254 . S
C203 O199 1.269 . S
C204 O205 1.249 . S
C204 O206 1.270 . S
O205 Zn197 1.943 . S
O205 C204 1.249 . S
O206 Zn196 2.067 . S
O206 C204 1.270 . S
C207 O200 1.262 . S
C207 O208 1.232 . S
O208 C207 1.232 . S
C209 O201 1.260 . S
C209 O202 1.257 . S
Zn210 O213 2.031 . S
Zn210 O215 2.049 . S
Zn210 O220 2.067 . S
Zn211 O212 1.962 . S
Zn211 O214 1.986 . S
Zn211 O216 1.996 . S
Zn211 O219 1.943 . S
O212 Zn211 1.962 . S
O212 C217 1.254 . S
O213 Zn210 2.031 . S
O213 C217 1.269 . S
O214 Zn211 1.986 . S
O214 C221 1.262 . S
O215 Zn210 2.049 . S
O215 C223 1.260 . S
O216 Zn211 1.996 . S
O216 C223 1.257 . S
C217 O212 1.254 . S
C217 O213 1.269 . S
C218 O219 1.249 . S
C218 O220 1.270 . S
O219 Zn211 1.943 . S
O219 C218 1.249 . S
O220 Zn210 2.067 . S
O220 C218 1.270 . S
C221 O214 1.262 . S
C221 O222 1.232 . S
O222 C221 1.232 . S
C223 O215 1.260 . S
C223 O216 1.257 . S
C224 C225 1.391 . S
C224 C226 1.394 . S
C224 H240 0.931 . S
C225 C224 1.391 . S
C225 C229 1.376 . S
C226 C224 1.394 . S
C226 C227 1.369 . S
C226 C230 1.531 . S
C227 C226 1.369 . S
C227 C228 1.410 . S
C227 C235 1.503 . S
C228 C227 1.410 . S
C228 C229 1.392 . S
C228 C231 1.511 . S
C229 C225 1.376 . S
C229 C228 1.392 . S
C229 H241 0.929 . S
C230 C226 1.531 . S
C230 H242 0.960 . S
C230 H243 0.962 . S
C230 H244 0.960 . S
C231 C228 1.511 . S
C231 H245 0.961 . S
C231 H246 0.961 . S
C231 H247 0.961 . S
C232 C233 1.370 . S
C232 C234 1.363 . S
C232 H248 0.931 . S
C233 C232 1.370 . S
C233 C237 1.408 . S
C234 C232 1.363 . S
C234 C235 1.370 . S
C234 C238 1.524 . S
C235 C227 1.503 . S
C235 C234 1.370 . S
C235 C236 1.403 . S
C236 C235 1.403 . S
C236 C237 1.404 . S
C236 C239 1.539 . S
C237 C233 1.408 . S
C237 C236 1.404 . S
C237 H249 0.930 . S
C238 C234 1.524 . S
C238 H250 0.956 . S
C238 H251 0.961 . S
C238 H252 0.961 . S
C239 C236 1.539 . S
C239 H253 0.958 . S
C239 H254 0.961 . S
C239 H255 0.960 . S
H240 C224 0.931 . S
H241 C229 0.929 . S
H242 C230 0.960 . S
H243 C230 0.962 . S
H244 C230 0.960 . S
H245 C231 0.961 . S
H246 C231 0.961 . S
H247 C231 0.961 . S
H248 C232 0.931 . S
H249 C237 0.930 . S
H250 C238 0.956 . S
H251 C238 0.961 . S
H252 C238 0.961 . S
H253 C239 0.958 . S
H254 C239 0.961 . S
H255 C239 0.960 . S
C256 C257 1.391 . S
C256 C258 1.394 . S
C256 H272 0.931 . S
C257 C256 1.391 . S
C257 C261 1.376 . S
C258 C256 1.394 . S
C258 C259 1.369 . S
C258 C262 1.531 . S
C259 C258 1.369 . S
C259 C260 1.410 . S
C259 C267 1.503 . S
C260 C259 1.410 . S
C260 C261 1.392 . S
C260 C263 1.511 . S
C261 C257 1.376 . S
C261 C260 1.392 . S
C261 H273 0.929 . S
C262 C258 1.531 . S
C262 H274 0.960 . S
C262 H275 0.962 . S
C262 H276 0.960 . S
C263 C260 1.511 . S
C263 H277 0.961 . S
C263 H278 0.961 . S
C263 H279 0.961 . S
C264 C265 1.370 . S
C264 C266 1.363 . S
C264 H280 0.931 . S
C265 C264 1.370 . S
C265 C269 1.408 . S
C266 C264 1.363 . S
C266 C267 1.370 . S
C266 C270 1.524 . S
C267 C259 1.503 . S
C267 C266 1.370 . S
C267 C268 1.403 . S
C268 C267 1.403 . S
C268 C269 1.404 . S
C268 C271 1.539 . S
C269 C265 1.408 . S
C269 C268 1.404 . S
C269 H281 0.930 . S
C270 C266 1.524 . S
C270 H282 0.956 . S
C270 H283 0.961 . S
C270 H284 0.961 . S
C271 C268 1.539 . S
C271 H285 0.958 . S
C271 H286 0.961 . S
C271 H287 0.960 . S
H272 C256 0.931 . S
H273 C261 0.929 . S
H274 C262 0.960 . S
H275 C262 0.962 . S
H276 C262 0.960 . S
H277 C263 0.961 . S
H278 C263 0.961 . S
H279 C263 0.961 . S
H280 C264 0.931 . S
H281 C269 0.930 . S
H282 C270 0.956 . S
H283 C270 0.961 . S
H284 C270 0.961 . S
H285 C271 0.958 . S
H286 C271 0.961 . S
H287 C271 0.960 . S
C288 C289 1.391 . S
C288 C290 1.394 . S
C288 H304 0.931 . S
C289 C288 1.391 . S
C289 C293 1.376 . S
C290 C288 1.394 . S
C290 C291 1.369 . S
C290 C294 1.531 . S
C291 C290 1.369 . S
C291 C292 1.410 . S
C291 C299 1.503 . S
C292 C291 1.410 . S
C292 C293 1.392 . S
C292 C295 1.511 . S
C293 C289 1.376 . S
C293 C292 1.392 . S
C293 H305 0.929 . S
C294 C290 1.531 . S
C294 H306 0.960 . S
C294 H307 0.962 . S
C294 H308 0.960 . S
C295 C292 1.511 . S
C295 H309 0.961 . S
C295 H310 0.961 . S
C295 H311 0.961 . S
C296 C297 1.370 . S
C296 C298 1.363 . S
C296 H312 0.931 . S
C297 C296 1.370 . S
C297 C301 1.408 . S
C298 C296 1.363 . S
C298 C299 1.370 . S
C298 C302 1.524 . S
C299 C291 1.503 . S
C299 C298 1.370 . S
C299 C300 1.403 . S
C300 C299 1.403 . S
C300 C301 1.404 . S
C300 C303 1.539 . S
C301 C297 1.408 . S
C301 C300 1.404 . S
C301 H313 0.930 . S
C302 C298 1.524 . S
C302 H314 0.956 . S
C302 H315 0.961 . S
C302 H316 0.961 . S
C303 C300 1.539 . S
C303 H317 0.958 . S
C303 H318 0.961 . S
C303 H319 0.960 . S
H304 C288 0.931 . S
H305 C293 0.929 . S
H306 C294 0.960 . S
H307 C294 0.962 . S
H308 C294 0.960 . S
H309 C295 0.961 . S
H310 C295 0.961 . S
H311 C295 0.961 . S
H312 C296 0.931 . S
H313 C301 0.930 . S
H314 C302 0.956 . S
H315 C302 0.961 . S
H316 C302 0.961 . S
H317 C303 0.958 . S
H318 C303 0.961 . S
H319 C303 0.960 . S
C320 C321 1.391 . S
C320 C322 1.394 . S
C320 H336 0.931 . S
C321 C320 1.391 . S
C321 C325 1.376 . S
C322 C320 1.394 . S
C322 C323 1.369 . S
C322 C326 1.531 . S
C323 C322 1.369 . S
C323 C324 1.410 . S
C323 C331 1.503 . S
C324 C323 1.410 . S
C324 C325 1.392 . S
C324 C327 1.511 . S
C325 C321 1.376 . S
C325 C324 1.392 . S
C325 H337 0.929 . S
C326 C322 1.531 . S
C326 H338 0.960 . S
C326 H339 0.962 . S
C326 H340 0.960 . S
C327 C324 1.511 . S
C327 H341 0.961 . S
C327 H342 0.961 . S
C327 H343 0.961 . S
C328 C329 1.370 . S
C328 C330 1.363 . S
C328 H344 0.931 . S
C329 C328 1.370 . S
C329 C333 1.408 . S
C330 C328 1.363 . S
C330 C331 1.370 . S
C330 C334 1.524 . S
C331 C323 1.503 . S
C331 C330 1.370 . S
C331 C332 1.403 . S
C332 C331 1.403 . S
C332 C333 1.404 . S
C332 C335 1.539 . S
C333 C329 1.408 . S
C333 C332 1.404 . S
C333 H345 0.930 . S
C334 C330 1.524 . S
C334 H346 0.956 . S
C334 H347 0.961 . S
C334 H348 0.961 . S
C335 C332 1.539 . S
C335 H349 0.958 . S
C335 H350 0.961 . S
C335 H351 0.960 . S
H336 C320 0.931 . S
H337 C325 0.929 . S
H338 C326 0.960 . S
H339 C326 0.962 . S
H340 C326 0.960 . S
H341 C327 0.961 . S
H342 C327 0.961 . S
H343 C327 0.961 . S
H344 C328 0.931 . S
H345 C333 0.930 . S
H346 C334 0.956 . S
H347 C334 0.961 . S
H348 C334 0.961 . S
H349 C335 0.958 . S
H350 C335 0.961 . S
H351 C335 0.960 . S
C352 C353 1.391 . S
C352 C354 1.394 . S
C352 H368 0.931 . S
C353 C352 1.391 . S
C353 C357 1.376 . S
C354 C352 1.394 . S
C354 C355 1.369 . S
C354 C358 1.531 . S
C355 C354 1.369 . S
C355 C356 1.410 . S
C355 C363 1.503 . S
C356 C355 1.410 . S
C356 C357 1.392 . S
C356 C359 1.511 . S
C357 C353 1.376 . S
C357 C356 1.392 . S
C357 H369 0.929 . S
C358 C354 1.531 . S
C358 H370 0.960 . S
C358 H371 0.962 . S
C358 H372 0.960 . S
C359 C356 1.511 . S
C359 H373 0.961 . S
C359 H374 0.961 . S
C359 H375 0.961 . S
C360 C361 1.370 . S
C360 C362 1.363 . S
C360 H376 0.931 . S
C361 C360 1.370 . S
C361 C365 1.408 . S
C362 C360 1.363 . S
C362 C363 1.370 . S
C362 C366 1.524 . S
C363 C355 1.503 . S
C363 C362 1.370 . S
C363 C364 1.403 . S
C364 C363 1.403 . S
C364 C365 1.404 . S
C364 C367 1.539 . S
C365 C361 1.408 . S
C365 C364 1.404 . S
C365 H377 0.930 . S
C366 C362 1.524 . S
C366 H378 0.956 . S
C366 H379 0.961 . S
C366 H380 0.961 . S
C367 C364 1.539 . S
C367 H381 0.958 . S
C367 H382 0.961 . S
C367 H383 0.960 . S
H368 C352 0.931 . S
H369 C357 0.929 . S
H370 C358 0.960 . S
H371 C358 0.962 . S
H372 C358 0.960 . S
H373 C359 0.961 . S
H374 C359 0.961 . S
H375 C359 0.961 . S
H376 C360 0.931 . S
H377 C365 0.930 . S
H378 C366 0.956 . S
H379 C366 0.961 . S
H380 C366 0.961 . S
H381 C367 0.958 . S
H382 C367 0.961 . S
H383 C367 0.960 . S
C384 C385 1.391 . S
C384 C386 1.394 . S
C384 H400 0.931 . S
C385 C384 1.391 . S
C385 C389 1.376 . S
C386 C384 1.394 . S
C386 C387 1.369 . S
C386 C390 1.531 . S
C387 C386 1.369 . S
C387 C388 1.410 . S
C387 C395 1.503 . S
C388 C387 1.410 . S
C388 C389 1.392 . S
C388 C391 1.511 . S
C389 C385 1.376 . S
C389 C388 1.392 . S
C389 H401 0.929 . S
C390 C386 1.531 . S
C390 H402 0.960 . S
C390 H403 0.962 . S
C390 H404 0.960 . S
C391 C388 1.511 . S
C391 H405 0.961 . S
C391 H406 0.961 . S
C391 H407 0.961 . S
C392 C393 1.370 . S
C392 C394 1.363 . S
C392 H408 0.931 . S
C393 C392 1.370 . S
C393 C397 1.408 . S
C394 C392 1.363 . S
C394 C395 1.370 . S
C394 C398 1.524 . S
C395 C387 1.503 . S
C395 C394 1.370 . S
C395 C396 1.403 . S
C396 C395 1.403 . S
C396 C397 1.404 . S
C396 C399 1.539 . S
C397 C393 1.408 . S
C397 C396 1.404 . S
C397 H409 0.930 . S
C398 C394 1.524 . S
C398 H410 0.956 . S
C398 H411 0.961 . S
C398 H412 0.961 . S
C399 C396 1.539 . S
C399 H413 0.958 . S
C399 H414 0.961 . S
C399 H415 0.960 . S
H400 C384 0.931 . S
H401 C389 0.929 . S
H402 C390 0.960 . S
H403 C390 0.962 . S
H404 C390 0.960 . S
H405 C391 0.961 . S
H406 C391 0.961 . S
H407 C391 0.961 . S
H408 C392 0.931 . S
H409 C397 0.930 . S
H410 C398 0.956 . S
H411 C398 0.961 . S
H412 C398 0.961 . S
H413 C399 0.958 . S
H414 C399 0.961 . S
H415 C399 0.960 . S
C416 C417 1.391 . S
C416 C418 1.394 . S
C416 H432 0.931 . S
C417 C416 1.391 . S
C417 C421 1.376 . S
C418 C416 1.394 . S
C418 C419 1.369 . S
C418 C422 1.531 . S
C419 C418 1.369 . S
C419 C420 1.410 . S
C419 C427 1.503 . S
C420 C419 1.410 . S
C420 C421 1.392 . S
C420 C423 1.511 . S
C421 C417 1.376 . S
C421 C420 1.392 . S
C421 H433 0.929 . S
C422 C418 1.531 . S
C422 H434 0.960 . S
C422 H435 0.962 . S
C422 H436 0.960 . S
C423 C420 1.511 . S
C423 H437 0.961 . S
C423 H438 0.961 . S
C423 H439 0.961 . S
C424 C425 1.370 . S
C424 C426 1.363 . S
C424 H440 0.931 . S
C425 C424 1.370 . S
C425 C429 1.408 . S
C426 C424 1.363 . S
C426 C427 1.370 . S
C426 C430 1.524 . S
C427 C419 1.503 . S
C427 C426 1.370 . S
C427 C428 1.403 . S
C428 C427 1.403 . S
C428 C429 1.404 . S
C428 C431 1.539 . S
C429 C425 1.408 . S
C429 C428 1.404 . S
C429 H441 0.930 . S
C430 C426 1.524 . S
C430 H442 0.956 . S
C430 H443 0.961 . S
C430 H444 0.961 . S
C431 C428 1.539 . S
C431 H445 0.958 . S
C431 H446 0.961 . S
C431 H447 0.960 . S
H432 C416 0.931 . S
H433 C421 0.929 . S
H434 C422 0.960 . S
H435 C422 0.962 . S
H436 C422 0.960 . S
H437 C423 0.961 . S
H438 C423 0.961 . S
H439 C423 0.961 . S
H440 C424 0.931 . S
H441 C429 0.930 . S
H442 C430 0.956 . S
H443 C430 0.961 . S
H444 C430 0.961 . S
H445 C431 0.958 . S
H446 C431 0.961 . S
H447 C431 0.960 . S
C448 C449 1.391 . S
C448 C450 1.394 . S
C448 H464 0.931 . S
C449 C448 1.391 . S
C449 C453 1.376 . S
C450 C448 1.394 . S
C450 C451 1.369 . S
C450 C454 1.531 . S
C451 C450 1.369 . S
C451 C452 1.410 . S
C451 C459 1.503 . S
C452 C451 1.410 . S
C452 C453 1.392 . S
C452 C455 1.511 . S
C453 C449 1.376 . S
C453 C452 1.392 . S
C453 H465 0.929 . S
C454 C450 1.531 . S
C454 H466 0.960 . S
C454 H467 0.962 . S
C454 H468 0.960 . S
C455 C452 1.511 . S
C455 H469 0.961 . S
C455 H470 0.961 . S
C455 H471 0.961 . S
C456 C457 1.370 . S
C456 C458 1.363 . S
C456 H472 0.931 . S
C457 C456 1.370 . S
C457 C461 1.408 . S
C458 C456 1.363 . S
C458 C459 1.370 . S
C458 C462 1.524 . S
C459 C451 1.503 . S
C459 C458 1.370 . S
C459 C460 1.403 . S
C460 C459 1.403 . S
C460 C461 1.404 . S
C460 C463 1.539 . S
C461 C457 1.408 . S
C461 C460 1.404 . S
C461 H473 0.930 . S
C462 C458 1.524 . S
C462 H474 0.956 . S
C462 H475 0.961 . S
C462 H476 0.961 . S
C463 C460 1.539 . S
C463 H477 0.958 . S
C463 H478 0.961 . S
C463 H479 0.960 . S
H464 C448 0.931 . S
H465 C453 0.929 . S
H466 C454 0.960 . S
H467 C454 0.962 . S
H468 C454 0.960 . S
H469 C455 0.961 . S
H470 C455 0.961 . S
H471 C455 0.961 . S
H472 C456 0.931 . S
H473 C461 0.930 . S
H474 C462 0.956 . S
H475 C462 0.961 . S
H476 C462 0.961 . S
H477 C463 0.958 . S
H478 C463 0.961 . S
H479 C463 0.960 . S
C480 C481 1.391 . S
C480 C482 1.394 . S
C480 H496 0.931 . S
C481 C480 1.391 . S
C481 C485 1.376 . S
C482 C480 1.394 . S
C482 C483 1.369 . S
C482 C486 1.531 . S
C483 C482 1.369 . S
C483 C484 1.410 . S
C483 C491 1.503 . S
C484 C483 1.410 . S
C484 C485 1.392 . S
C484 C487 1.511 . S
C485 C481 1.376 . S
C485 C484 1.392 . S
C485 H497 0.929 . S
C486 C482 1.531 . S
C486 H498 0.960 . S
C486 H499 0.962 . S
C486 H500 0.960 . S
C487 C484 1.511 . S
C487 H501 0.961 . S
C487 H502 0.961 . S
C487 H503 0.961 . S
C488 C489 1.370 . S
C488 C490 1.363 . S
C488 H504 0.931 . S
C489 C488 1.370 . S
C489 C493 1.408 . S
C490 C488 1.363 . S
C490 C491 1.370 . S
C490 C494 1.524 . S
C491 C483 1.503 . S
C491 C490 1.370 . S
C491 C492 1.403 . S
C492 C491 1.403 . S
C492 C493 1.404 . S
C492 C495 1.539 . S
C493 C489 1.408 . S
C493 C492 1.404 . S
C493 H505 0.930 . S
C494 C490 1.524 . S
C494 H506 0.956 . S
C494 H507 0.961 . S
C494 H508 0.961 . S
C495 C492 1.539 . S
C495 H509 0.958 . S
C495 H510 0.961 . S
C495 H511 0.960 . S
H496 C480 0.931 . S
H497 C485 0.929 . S
H498 C486 0.960 . S
H499 C486 0.962 . S
H500 C486 0.960 . S
H501 C487 0.961 . S
H502 C487 0.961 . S
H503 C487 0.961 . S
H504 C488 0.931 . S
H505 C493 0.930 . S
H506 C494 0.956 . S
H507 C494 0.961 . S
H508 C494 0.961 . S
H509 C495 0.958 . S
H510 C495 0.961 . S
H511 C495 0.960 . S
C512 C513 1.391 . S
C512 C514 1.394 . S
C512 H528 0.931 . S
C513 C512 1.391 . S
C513 C517 1.376 . S
C514 C512 1.394 . S
C514 C515 1.369 . S
C514 C518 1.531 . S
C515 C514 1.369 . S
C515 C516 1.410 . S
C515 C523 1.503 . S
C516 C515 1.410 . S
C516 C517 1.392 . S
C516 C519 1.511 . S
C517 C513 1.376 . S
C517 C516 1.392 . S
C517 H529 0.929 . S
C518 C514 1.531 . S
C518 H530 0.960 . S
C518 H531 0.962 . S
C518 H532 0.960 . S
C519 C516 1.511 . S
C519 H533 0.961 . S
C519 H534 0.961 . S
C519 H535 0.961 . S
C520 C521 1.370 . S
C520 C522 1.363 . S
C520 H536 0.931 . S
C521 C520 1.370 . S
C521 C525 1.408 . S
C522 C520 1.363 . S
C522 C523 1.370 . S
C522 C526 1.524 . S
C523 C515 1.503 . S
C523 C522 1.370 . S
C523 C524 1.403 . S
C524 C523 1.403 . S
C524 C525 1.404 . S
C524 C527 1.539 . S
C525 C521 1.408 . S
C525 C524 1.404 . S
C525 H537 0.930 . S
C526 C522 1.524 . S
C526 H538 0.956 . S
C526 H539 0.961 . S
C526 H540 0.961 . S
C527 C524 1.539 . S
C527 H541 0.958 . S
C527 H542 0.961 . S
C527 H543 0.960 . S
H528 C512 0.931 . S
H529 C517 0.929 . S
H530 C518 0.960 . S
H531 C518 0.962 . S
H532 C518 0.960 . S
H533 C519 0.961 . S
H534 C519 0.961 . S
H535 C519 0.961 . S
H536 C520 0.931 . S
H537 C525 0.930 . S
H538 C526 0.956 . S
H539 C526 0.961 . S
H540 C526 0.961 . S
H541 C527 0.958 . S
H542 C527 0.961 . S
H543 C527 0.960 . S
C544 C545 1.391 . S
C544 C546 1.394 . S
C544 H560 0.931 . S
C545 C544 1.391 . S
C545 C549 1.376 . S
C546 C544 1.394 . S
C546 C547 1.369 . S
C546 C550 1.531 . S
C547 C546 1.369 . S
C547 C548 1.410 . S
C547 C555 1.503 . S
C548 C547 1.410 . S
C548 C549 1.392 . S
C548 C551 1.511 . S
C549 C545 1.376 . S
C549 C548 1.392 . S
C549 H561 0.929 . S
C550 C546 1.531 . S
C550 H562 0.960 . S
C550 H563 0.962 . S
C550 H564 0.960 . S
C551 C548 1.511 . S
C551 H565 0.961 . S
C551 H566 0.961 . S
C551 H567 0.961 . S
C552 C553 1.370 . S
C552 C554 1.363 . S
C552 H568 0.931 . S
C553 C552 1.370 . S
C553 C557 1.408 . S
C554 C552 1.363 . S
C554 C555 1.370 . S
C554 C558 1.524 . S
C555 C547 1.503 . S
C555 C554 1.370 . S
C555 C556 1.403 . S
C556 C555 1.403 . S
C556 C557 1.404 . S
C556 C559 1.539 . S
C557 C553 1.408 . S
C557 C556 1.404 . S
C557 H569 0.930 . S
C558 C554 1.524 . S
C558 H570 0.956 . S
C558 H571 0.961 . S
C558 H572 0.961 . S
C559 C556 1.539 . S
C559 H573 0.958 . S
C559 H574 0.961 . S
C559 H575 0.960 . S
H560 C544 0.931 . S
H561 C549 0.929 . S
H562 C550 0.960 . S
H563 C550 0.962 . S
H564 C550 0.960 . S
H565 C551 0.961 . S
H566 C551 0.961 . S
H567 C551 0.961 . S
H568 C552 0.931 . S
H569 C557 0.930 . S
H570 C558 0.956 . S
H571 C558 0.961 . S
H572 C558 0.961 . S
H573 C559 0.958 . S
H574 C559 0.961 . S
H575 C559 0.960 . S
C576 C577 1.391 . S
C576 C578 1.394 . S
C576 H592 0.931 . S
C577 C576 1.391 . S
C577 C581 1.376 . S
C578 C576 1.394 . S
C578 C579 1.369 . S
C578 C582 1.531 . S
C579 C578 1.369 . S
C579 C580 1.410 . S
C579 C587 1.503 . S
C580 C579 1.410 . S
C580 C581 1.392 . S
C580 C583 1.511 . S
C581 C577 1.376 . S
C581 C580 1.392 . S
C581 H593 0.929 . S
C582 C578 1.531 . S
C582 H594 0.960 . S
C582 H595 0.962 . S
C582 H596 0.960 . S
C583 C580 1.511 . S
C583 H597 0.961 . S
C583 H598 0.961 . S
C583 H599 0.961 . S
C584 C585 1.370 . S
C584 C586 1.363 . S
C584 H600 0.931 . S
C585 C584 1.370 . S
C585 C589 1.408 . S
C586 C584 1.363 . S
C586 C587 1.370 . S
C586 C590 1.524 . S
C587 C579 1.503 . S
C587 C586 1.370 . S
C587 C588 1.403 . S
C588 C587 1.403 . S
C588 C589 1.404 . S
C588 C591 1.539 . S
C589 C585 1.408 . S
C589 C588 1.404 . S
C589 H601 0.930 . S
C590 C586 1.524 . S
C590 H602 0.956 . S
C590 H603 0.961 . S
C590 H604 0.961 . S
C591 C588 1.539 . S
C591 H605 0.958 . S
C591 H606 0.961 . S
C591 H607 0.960 . S
H592 C576 0.931 . S
H593 C581 0.929 . S
H594 C582 0.960 . S
H595 C582 0.962 . S
H596 C582 0.960 . S
H597 C583 0.961 . S
H598 C583 0.961 . S
H599 C583 0.961 . S
H600 C584 0.931 . S
H601 C589 0.930 . S
H602 C590 0.956 . S
H603 C590 0.961 . S
H604 C590 0.961 . S
H605 C591 0.958 . S
H606 C591 0.961 . S
H607 C591 0.960 . S
C608 C609 1.391 . S
C608 C610 1.394 . S
C608 H624 0.931 . S
C609 C608 1.391 . S
C609 C613 1.376 . S
C610 C608 1.394 . S
C610 C611 1.369 . S
C610 C614 1.531 . S
C611 C610 1.369 . S
C611 C612 1.410 . S
C611 C619 1.503 . S
C612 C611 1.410 . S
C612 C613 1.392 . S
C612 C615 1.511 . S
C613 C609 1.376 . S
C613 C612 1.392 . S
C613 H625 0.929 . S
C614 C610 1.531 . S
C614 H626 0.960 . S
C614 H627 0.962 . S
C614 H628 0.960 . S
C615 C612 1.511 . S
C615 H629 0.961 . S
C615 H630 0.961 . S
C615 H631 0.961 . S
C616 C617 1.370 . S
C616 C618 1.363 . S
C616 H632 0.931 . S
C617 C616 1.370 . S
C617 C621 1.408 . S
C618 C616 1.363 . S
C618 C619 1.370 . S
C618 C622 1.524 . S
C619 C611 1.503 . S
C619 C618 1.370 . S
C619 C620 1.403 . S
C620 C619 1.403 . S
C620 C621 1.404 . S
C620 C623 1.539 . S
C621 C617 1.408 . S
C621 C620 1.404 . S
C621 H633 0.930 . S
C622 C618 1.524 . S
C622 H634 0.956 . S
C622 H635 0.961 . S
C622 H636 0.961 . S
C623 C620 1.539 . S
C623 H637 0.958 . S
C623 H638 0.961 . S
C623 H639 0.960 . S
H624 C608 0.931 . S
H625 C613 0.929 . S
H626 C614 0.960 . S
H627 C614 0.962 . S
H628 C614 0.960 . S
H629 C615 0.961 . S
H630 C615 0.961 . S
H631 C615 0.961 . S
H632 C616 0.931 . S
H633 C621 0.930 . S
H634 C622 0.956 . S
H635 C622 0.961 . S
H636 C622 0.961 . S
H637 C623 0.958 . S
H638 C623 0.961 . S
H639 C623 0.960 . S
C640 C641 1.391 . S
C640 C642 1.394 . S
C640 H656 0.931 . S
C641 C640 1.391 . S
C641 C645 1.376 . S
C642 C640 1.394 . S
C642 C643 1.369 . S
C642 C646 1.531 . S
C643 C642 1.369 . S
C643 C644 1.410 . S
C643 C651 1.503 . S
C644 C643 1.410 . S
C644 C645 1.392 . S
C644 C647 1.511 . S
C645 C641 1.376 . S
C645 C644 1.392 . S
C645 H657 0.929 . S
C646 C642 1.531 . S
C646 H658 0.960 . S
C646 H659 0.962 . S
C646 H660 0.960 . S
C647 C644 1.511 . S
C647 H661 0.961 . S
C647 H662 0.961 . S
C647 H663 0.961 . S
C648 C649 1.370 . S
C648 C650 1.363 . S
C648 H664 0.931 . S
C649 C648 1.370 . S
C649 C653 1.408 . S
C650 C648 1.363 . S
C650 C651 1.370 . S
C650 C654 1.524 . S
C651 C643 1.503 . S
C651 C650 1.370 . S
C651 C652 1.403 . S
C652 C651 1.403 . S
C652 C653 1.404 . S
C652 C655 1.539 . S
C653 C649 1.408 . S
C653 C652 1.404 . S
C653 H665 0.930 . S
C654 C650 1.524 . S
C654 H666 0.956 . S
C654 H667 0.961 . S
C654 H668 0.961 . S
C655 C652 1.539 . S
C655 H669 0.958 . S
C655 H670 0.961 . S
C655 H671 0.960 . S
H656 C640 0.931 . S
H657 C645 0.929 . S
H658 C646 0.960 . S
H659 C646 0.962 . S
H660 C646 0.960 . S
H661 C647 0.961 . S
H662 C647 0.961 . S
H663 C647 0.961 . S
H664 C648 0.931 . S
H665 C653 0.930 . S
H666 C654 0.956 . S
H667 C654 0.961 . S
H668 C654 0.961 . S
H669 C655 0.958 . S
H670 C655 0.961 . S
H671 C655 0.960 . S
C672 C673 1.391 . S
C672 C674 1.394 . S
C672 H688 0.931 . S
C673 C672 1.391 . S
C673 C677 1.376 . S
C674 C672 1.394 . S
C674 C675 1.369 . S
C674 C678 1.531 . S
C675 C674 1.369 . S
C675 C676 1.410 . S
C675 C683 1.503 . S
C676 C675 1.410 . S
C676 C677 1.392 . S
C676 C679 1.511 . S
C677 C673 1.376 . S
C677 C676 1.392 . S
C677 H689 0.929 . S
C678 C674 1.531 . S
C678 H690 0.960 . S
C678 H691 0.962 . S
C678 H692 0.960 . S
C679 C676 1.511 . S
C679 H693 0.961 . S
C679 H694 0.961 . S
C679 H695 0.961 . S
C680 C681 1.370 . S
C680 C682 1.363 . S
C680 H696 0.931 . S
C681 C680 1.370 . S
C681 C685 1.408 . S
C682 C680 1.363 . S
C682 C683 1.370 . S
C682 C686 1.524 . S
C683 C675 1.503 . S
C683 C682 1.370 . S
C683 C684 1.403 . S
C684 C683 1.403 . S
C684 C685 1.404 . S
C684 C687 1.539 . S
C685 C681 1.408 . S
C685 C684 1.404 . S
C685 H697 0.930 . S
C686 C682 1.524 . S
C686 H698 0.956 . S
C686 H699 0.961 . S
C686 H700 0.961 . S
C687 C684 1.539 . S
C687 H701 0.958 . S
C687 H702 0.961 . S
C687 H703 0.960 . S
H688 C672 0.931 . S
H689 C677 0.929 . S
H690 C678 0.960 . S
H691 C678 0.962 . S
H692 C678 0.960 . S
H693 C679 0.961 . S
H694 C679 0.961 . S
H695 C679 0.961 . S
H696 C680 0.931 . S
H697 C685 0.930 . S
H698 C686 0.956 . S
H699 C686 0.961 . S
H700 C686 0.961 . S
H701 C687 0.958 . S
H702 C687 0.961 . S
H703 C687 0.960 . S
C704 C705 1.391 . S
C704 C706 1.394 . S
C704 H720 0.931 . S
C705 C704 1.391 . S
C705 C709 1.376 . S
C706 C704 1.394 . S
C706 C707 1.369 . S
C706 C710 1.531 . S
C707 C706 1.369 . S
C707 C708 1.410 . S
C707 C715 1.503 . S
C708 C707 1.410 . S
C708 C709 1.392 . S
C708 C711 1.511 . S
C709 C705 1.376 . S
C709 C708 1.392 . S
C709 H721 0.929 . S
C710 C706 1.531 . S
C710 H722 0.960 . S
C710 H723 0.962 . S
C710 H724 0.960 . S
C711 C708 1.511 . S
C711 H725 0.961 . S
C711 H726 0.961 . S
C711 H727 0.961 . S
C712 C713 1.370 . S
C712 C714 1.363 . S
C712 H728 0.931 . S
C713 C712 1.370 . S
C713 C717 1.408 . S
C714 C712 1.363 . S
C714 C715 1.370 . S
C714 C718 1.524 . S
C715 C707 1.503 . S
C715 C714 1.370 . S
C715 C716 1.403 . S
C716 C715 1.403 . S
C716 C717 1.404 . S
C716 C719 1.539 . S
C717 C713 1.408 . S
C717 C716 1.404 . S
C717 H729 0.930 . S
C718 C714 1.524 . S
C718 H730 0.956 . S
C718 H731 0.961 . S
C718 H732 0.961 . S
C719 C716 1.539 . S
C719 H733 0.958 . S
C719 H734 0.961 . S
C719 H735 0.960 . S
H720 C704 0.931 . S
H721 C709 0.929 . S
H722 C710 0.960 . S
H723 C710 0.962 . S
H724 C710 0.960 . S
H725 C711 0.961 . S
H726 C711 0.961 . S
H727 C711 0.961 . S
H728 C712 0.931 . S
H729 C717 0.930 . S
H730 C718 0.956 . S
H731 C718 0.961 . S
H732 C718 0.961 . S
H733 C719 0.958 . S
H734 C719 0.961 . S
H735 C719 0.960 . S
C736 C737 1.391 . S
C736 C738 1.394 . S
C736 H752 0.931 . S
C737 C736 1.391 . S
C737 C741 1.376 . S
C738 C736 1.394 . S
C738 C739 1.369 . S
C738 C742 1.531 . S
C739 C738 1.369 . S
C739 C740 1.410 . S
C739 C747 1.503 . S
C740 C739 1.410 . S
C740 C741 1.392 . S
C740 C743 1.511 . S
C741 C737 1.376 . S
C741 C740 1.392 . S
C741 H753 0.929 . S
C742 C738 1.531 . S
C742 H754 0.960 . S
C742 H755 0.962 . S
C742 H756 0.960 . S
C743 C740 1.511 . S
C743 H757 0.961 . S
C743 H758 0.961 . S
C743 H759 0.961 . S
C744 C745 1.370 . S
C744 C746 1.363 . S
C744 H760 0.931 . S
C745 C744 1.370 . S
C745 C749 1.408 . S
C746 C744 1.363 . S
C746 C747 1.370 . S
C746 C750 1.524 . S
C747 C739 1.503 . S
C747 C746 1.370 . S
C747 C748 1.403 . S
C748 C747 1.403 . S
C748 C749 1.404 . S
C748 C751 1.539 . S
C749 C745 1.408 . S
C749 C748 1.404 . S
C749 H761 0.930 . S
C750 C746 1.524 . S
C750 H762 0.956 . S
C750 H763 0.961 . S
C750 H764 0.961 . S
C751 C748 1.539 . S
C751 H765 0.958 . S
C751 H766 0.961 . S
C751 H767 0.960 . S
H752 C736 0.931 . S
H753 C741 0.929 . S
H754 C742 0.960 . S
H755 C742 0.962 . S
H756 C742 0.960 . S
H757 C743 0.961 . S
H758 C743 0.961 . S
H759 C743 0.961 . S
H760 C744 0.931 . S
H761 C749 0.930 . S
H762 C750 0.956 . S
H763 C750 0.961 . S
H764 C750 0.961 . S
H765 C751 0.958 . S
H766 C751 0.961 . S
H767 C751 0.960 . S
C768 C769 1.391 . S
C768 C770 1.394 . S
C768 H784 0.931 . S
C769 C768 1.391 . S
C769 C773 1.376 . S
C770 C768 1.394 . S
C770 C771 1.369 . S
C770 C774 1.531 . S
C771 C770 1.369 . S
C771 C772 1.410 . S
C771 C779 1.503 . S
C772 C771 1.410 . S
C772 C773 1.392 . S
C772 C775 1.511 . S
C773 C769 1.376 . S
C773 C772 1.392 . S
C773 H785 0.929 . S
C774 C770 1.531 . S
C774 H786 0.960 . S
C774 H787 0.962 . S
C774 H788 0.960 . S
C775 C772 1.511 . S
C775 H789 0.961 . S
C775 H790 0.961 . S
C775 H791 0.961 . S
C776 C777 1.370 . S
C776 C778 1.363 . S
C776 H792 0.931 . S
C777 C776 1.370 . S
C777 C781 1.408 . S
C778 C776 1.363 . S
C778 C779 1.370 . S
C778 C782 1.524 . S
C779 C771 1.503 . S
C779 C778 1.370 . S
C779 C780 1.403 . S
C780 C779 1.403 . S
C780 C781 1.404 . S
C780 C783 1.539 . S
C781 C777 1.408 . S
C781 C780 1.404 . S
C781 H793 0.930 . S
C782 C778 1.524 . S
C782 H794 0.956 . S
C782 H795 0.961 . S
C782 H796 0.961 . S
C783 C780 1.539 . S
C783 H797 0.958 . S
C783 H798 0.961 . S
C783 H799 0.960 . S
H784 C768 0.931 . S
H785 C773 0.929 . S
H786 C774 0.960 . S
H787 C774 0.962 . S
H788 C774 0.960 . S
H789 C775 0.961 . S
H790 C775 0.961 . S
H791 C775 0.961 . S
H792 C776 0.931 . S
H793 C781 0.930 . S
H794 C782 0.956 . S
H795 C782 0.961 . S
H796 C782 0.961 . S
H797 C783 0.958 . S
H798 C783 0.961 . S
H799 C783 0.960 . S
C800 C801 1.391 . S
C800 C802 1.394 . S
C800 H816 0.931 . S
C801 C800 1.391 . S
C801 C805 1.376 . S
C802 C800 1.394 . S
C802 C803 1.369 . S
C802 C806 1.531 . S
C803 C802 1.369 . S
C803 C804 1.410 . S
C803 C811 1.503 . S
C804 C803 1.410 . S
C804 C805 1.392 . S
C804 C807 1.511 . S
C805 C801 1.376 . S
C805 C804 1.392 . S
C805 H817 0.929 . S
C806 C802 1.531 . S
C806 H818 0.960 . S
C806 H819 0.962 . S
C806 H820 0.960 . S
C807 C804 1.511 . S
C807 H821 0.961 . S
C807 H822 0.961 . S
C807 H823 0.961 . S
C808 C809 1.370 . S
C808 C810 1.363 . S
C808 H824 0.931 . S
C809 C808 1.370 . S
C809 C813 1.408 . S
C810 C808 1.363 . S
C810 C811 1.370 . S
C810 C814 1.524 . S
C811 C803 1.503 . S
C811 C810 1.370 . S
C811 C812 1.403 . S
C812 C811 1.403 . S
C812 C813 1.404 . S
C812 C815 1.539 . S
C813 C809 1.408 . S
C813 C812 1.404 . S
C813 H825 0.930 . S
C814 C810 1.524 . S
C814 H826 0.956 . S
C814 H827 0.961 . S
C814 H828 0.961 . S
C815 C812 1.539 . S
C815 H829 0.958 . S
C815 H830 0.961 . S
C815 H831 0.960 . S
H816 C800 0.931 . S
H817 C805 0.929 . S
H818 C806 0.960 . S
H819 C806 0.962 . S
H820 C806 0.960 . S
H821 C807 0.961 . S
H822 C807 0.961 . S
H823 C807 0.961 . S
H824 C808 0.931 . S
H825 C813 0.930 . S
H826 C814 0.956 . S
H827 C814 0.961 . S
H828 C814 0.961 . S
H829 C815 0.958 . S
H830 C815 0.961 . S
H831 C815 0.960 . S
C832 C833 1.391 . S
C832 C834 1.394 . S
C832 H848 0.931 . S
C833 C832 1.391 . S
C833 C837 1.376 . S
C834 C832 1.394 . S
C834 C835 1.369 . S
C834 C838 1.531 . S
C835 C834 1.369 . S
C835 C836 1.410 . S
C835 C843 1.503 . S
C836 C835 1.410 . S
C836 C837 1.392 . S
C836 C839 1.511 . S
C837 C833 1.376 . S
C837 C836 1.392 . S
C837 H849 0.929 . S
C838 C834 1.531 . S
C838 H850 0.960 . S
C838 H851 0.962 . S
C838 H852 0.960 . S
C839 C836 1.511 . S
C839 H853 0.961 . S
C839 H854 0.961 . S
C839 H855 0.961 . S
C840 C841 1.370 . S
C840 C842 1.363 . S
C840 H856 0.931 . S
C841 C840 1.370 . S
C841 C845 1.408 . S
C842 C840 1.363 . S
C842 C843 1.370 . S
C842 C846 1.524 . S
C843 C835 1.503 . S
C843 C842 1.370 . S
C843 C844 1.403 . S
C844 C843 1.403 . S
C844 C845 1.404 . S
C844 C847 1.539 . S
C845 C841 1.408 . S
C845 C844 1.404 . S
C845 H857 0.930 . S
C846 C842 1.524 . S
C846 H858 0.956 . S
C846 H859 0.961 . S
C846 H860 0.961 . S
C847 C844 1.539 . S
C847 H861 0.958 . S
C847 H862 0.961 . S
C847 H863 0.960 . S
H848 C832 0.931 . S
H849 C837 0.929 . S
H850 C838 0.960 . S
H851 C838 0.962 . S
H852 C838 0.960 . S
H853 C839 0.961 . S
H854 C839 0.961 . S
H855 C839 0.961 . S
H856 C840 0.931 . S
H857 C845 0.930 . S
H858 C846 0.956 . S
H859 C846 0.961 . S
H860 C846 0.961 . S
H861 C847 0.958 . S
H862 C847 0.961 . S
H863 C847 0.960 . S
C864 C865 1.391 . S
C864 C866 1.394 . S
C864 H880 0.931 . S
C865 C864 1.391 . S
C865 C869 1.376 . S
C866 C864 1.394 . S
C866 C867 1.369 . S
C866 C870 1.531 . S
C867 C866 1.369 . S
C867 C868 1.410 . S
C867 C875 1.503 . S
C868 C867 1.410 . S
C868 C869 1.392 . S
C868 C871 1.511 . S
C869 C865 1.376 . S
C869 C868 1.392 . S
C869 H881 0.929 . S
C870 C866 1.531 . S
C870 H882 0.960 . S
C870 H883 0.962 . S
C870 H884 0.960 . S
C871 C868 1.511 . S
C871 H885 0.961 . S
C871 H886 0.961 . S
C871 H887 0.961 . S
C872 C873 1.370 . S
C872 C874 1.363 . S
C872 H888 0.931 . S
C873 C872 1.370 . S
C873 C877 1.408 . S
C874 C872 1.363 . S
C874 C875 1.370 . S
C874 C878 1.524 . S
C875 C867 1.503 . S
C875 C874 1.370 . S
C875 C876 1.403 . S
C876 C875 1.403 . S
C876 C877 1.404 . S
C876 C879 1.539 . S
C877 C873 1.408 . S
C877 C876 1.404 . S
C877 H889 0.930 . S
C878 C874 1.524 . S
C878 H890 0.956 . S
C878 H891 0.961 . S
C878 H892 0.961 . S
C879 C876 1.539 . S
C879 H893 0.958 . S
C879 H894 0.961 . S
C879 H895 0.960 . S
H880 C864 0.931 . S
H881 C869 0.929 . S
H882 C870 0.960 . S
H883 C870 0.962 . S
H884 C870 0.960 . S
H885 C871 0.961 . S
H886 C871 0.961 . S
H887 C871 0.961 . S
H888 C872 0.931 . S
H889 C877 0.930 . S
H890 C878 0.956 . S
H891 C878 0.961 . S
H892 C878 0.961 . S
H893 C879 0.958 . S
H894 C879 0.961 . S
H895 C879 0.960 . S
C896 C897 1.391 . S
C896 C898 1.394 . S
C896 H912 0.931 . S
C897 C896 1.391 . S
C897 C901 1.376 . S
C898 C896 1.394 . S
C898 C899 1.369 . S
C898 C902 1.531 . S
C899 C898 1.369 . S
C899 C900 1.410 . S
C899 C907 1.503 . S
C900 C899 1.410 . S
C900 C901 1.392 . S
C900 C903 1.511 . S
C901 C897 1.376 . S
C901 C900 1.392 . S
C901 H913 0.929 . S
C902 C898 1.531 . S
C902 H914 0.960 . S
C902 H915 0.962 . S
C902 H916 0.960 . S
C903 C900 1.511 . S
C903 H917 0.961 . S
C903 H918 0.961 . S
C903 H919 0.961 . S
C904 C905 1.370 . S
C904 C906 1.363 . S
C904 H920 0.931 . S
C905 C904 1.370 . S
C905 C909 1.408 . S
C906 C904 1.363 . S
C906 C907 1.370 . S
C906 C910 1.524 . S
C907 C899 1.503 . S
C907 C906 1.370 . S
C907 C908 1.403 . S
C908 C907 1.403 . S
C908 C909 1.404 . S
C908 C911 1.539 . S
C909 C905 1.408 . S
C909 C908 1.404 . S
C909 H921 0.930 . S
C910 C906 1.524 . S
C910 H922 0.956 . S
C910 H923 0.961 . S
C910 H924 0.961 . S
C911 C908 1.539 . S
C911 H925 0.958 . S
C911 H926 0.961 . S
C911 H927 0.960 . S
H912 C896 0.931 . S
H913 C901 0.929 . S
H914 C902 0.960 . S
H915 C902 0.962 . S
H916 C902 0.960 . S
H917 C903 0.961 . S
H918 C903 0.961 . S
H919 C903 0.961 . S
H920 C904 0.931 . S
H921 C909 0.930 . S
H922 C910 0.956 . S
H923 C910 0.961 . S
H924 C910 0.961 . S
H925 C911 0.958 . S
H926 C911 0.961 . S
H927 C911 0.960 . S
C928 C929 1.391 . S
C928 C930 1.394 . S
C928 H944 0.931 . S
C929 C928 1.391 . S
C929 C933 1.376 . S
C930 C928 1.394 . S
C930 C931 1.369 . S
C930 C934 1.531 . S
C931 C930 1.369 . S
C931 C932 1.410 . S
C931 C939 1.503 . S
C932 C931 1.410 . S
C932 C933 1.392 . S
C932 C935 1.511 . S
C933 C929 1.376 . S
C933 C932 1.392 . S
C933 H945 0.929 . S
C934 C930 1.531 . S
C934 H946 0.960 . S
C934 H947 0.962 . S
C934 H948 0.960 . S
C935 C932 1.511 . S
C935 H949 0.961 . S
C935 H950 0.961 . S
C935 H951 0.961 . S
C936 C937 1.370 . S
C936 C938 1.363 . S
C936 H952 0.931 . S
C937 C936 1.370 . S
C937 C941 1.408 . S
C938 C936 1.363 . S
C938 C939 1.370 . S
C938 C942 1.524 . S
C939 C931 1.503 . S
C939 C938 1.370 . S
C939 C940 1.403 . S
C940 C939 1.403 . S
C940 C941 1.404 . S
C940 C943 1.539 . S
C941 C937 1.408 . S
C941 C940 1.404 . S
C941 H953 0.930 . S
C942 C938 1.524 . S
C942 H954 0.956 . S
C942 H955 0.961 . S
C942 H956 0.961 . S
C943 C940 1.539 . S
C943 H957 0.958 . S
C943 H958 0.961 . S
C943 H959 0.960 . S
H944 C928 0.931 . S
H945 C933 0.929 . S
H946 C934 0.960 . S
H947 C934 0.962 . S
H948 C934 0.960 . S
H949 C935 0.961 . S
H950 C935 0.961 . S
H951 C935 0.961 . S
H952 C936 0.931 . S
H953 C941 0.930 . S
H954 C942 0.956 . S
H955 C942 0.961 . S
H956 C942 0.961 . S
H957 C943 0.958 . S
H958 C943 0.961 . S
H959 C943 0.960 . S
C960 C961 1.391 . S
C960 C962 1.394 . S
C960 H976 0.931 . S
C961 C960 1.391 . S
C961 C965 1.376 . S
C962 C960 1.394 . S
C962 C963 1.369 . S
C962 C966 1.531 . S
C963 C962 1.369 . S
C963 C964 1.410 . S
C963 C971 1.503 . S
C964 C963 1.410 . S
C964 C965 1.392 . S
C964 C967 1.511 . S
C965 C961 1.376 . S
C965 C964 1.392 . S
C965 H977 0.929 . S
C966 C962 1.531 . S
C966 H978 0.960 . S
C966 H979 0.962 . S
C966 H980 0.960 . S
C967 C964 1.511 . S
C967 H981 0.961 . S
C967 H982 0.961 . S
C967 H983 0.961 . S
C968 C969 1.370 . S
C968 C970 1.363 . S
C968 H984 0.931 . S
C969 C968 1.370 . S
C969 C973 1.408 . S
C970 C968 1.363 . S
C970 C971 1.370 . S
C970 C974 1.524 . S
C971 C963 1.503 . S
C971 C970 1.370 . S
C971 C972 1.403 . S
C972 C971 1.403 . S
C972 C973 1.404 . S
C972 C975 1.539 . S
C973 C969 1.408 . S
C973 C972 1.404 . S
C973 H985 0.930 . S
C974 C970 1.524 . S
C974 H986 0.956 . S
C974 H987 0.961 . S
C974 H988 0.961 . S
C975 C972 1.539 . S
C975 H989 0.958 . S
C975 H990 0.961 . S
C975 H991 0.960 . S
H976 C960 0.931 . S
H977 C965 0.929 . S
H978 C966 0.960 . S
H979 C966 0.962 . S
H980 C966 0.960 . S
H981 C967 0.961 . S
H982 C967 0.961 . S
H983 C967 0.961 . S
H984 C968 0.931 . S
H985 C973 0.930 . S
H986 C974 0.956 . S
H987 C974 0.961 . S
H988 C974 0.961 . S
H989 C975 0.958 . S
H990 C975 0.961 . S
H991 C975 0.960 . S
C992 C993 1.391 . S
C992 C994 1.394 . S
C992 H1008 0.931 . S
C993 C992 1.391 . S
C993 C997 1.376 1_455 S
C994 C992 1.394 . S
C994 C995 1.369 1_455 S
C994 C998 1.531 . S
C995 C994 1.369 1_655 S
C995 C996 1.410 . S
C995 C1003 1.503 . S
C996 C995 1.410 . S
C996 C997 1.392 . S
C996 C999 1.511 . S
C997 C993 1.376 1_655 S
C997 C996 1.392 . S
C997 H1009 0.929 . S
C998 C994 1.531 . S
C998 H1010 0.960 . S
C998 H1011 0.962 . S
C998 H1012 0.960 . S
C999 C996 1.511 . S
C999 H1013 0.961 . S
C999 H1014 0.961 . S
C999 H1015 0.961 . S
C1000 C1001 1.370 1_455 S
C1000 C1002 1.363 . S
C1000 H1016 0.931 . S
C1001 C1000 1.370 1_655 S
C1001 C1005 1.408 . S
C1002 C1000 1.363 . S
C1002 C1003 1.370 1_455 S
C1002 C1006 1.524 . S
C1003 C995 1.503 . S
C1003 C1002 1.370 1_655 S
C1003 C1004 1.403 . S
C1004 C1003 1.403 . S
C1004 C1005 1.404 . S
C1004 C1007 1.539 . S
C1005 C1001 1.408 . S
C1005 C1004 1.404 . S
C1005 H1017 0.930 . S
C1006 C1002 1.524 . S
C1006 H1018 0.956 . S
C1006 H1019 0.961 . S
C1006 H1020 0.961 . S
C1007 C1004 1.539 . S
C1007 H1021 0.958 . S
C1007 H1022 0.961 . S
C1007 H1023 0.960 . S
H1008 C992 0.931 . S
H1009 C997 0.929 . S
H1010 C998 0.960 . S
H1011 C998 0.962 . S
H1012 C998 0.960 . S
H1013 C999 0.961 . S
H1014 C999 0.961 . S
H1015 C999 0.961 . S
H1016 C1000 0.931 . S
H1017 C1005 0.930 . S
H1018 C1006 0.956 . S
H1019 C1006 0.961 . S
H1020 C1006 0.961 . S
H1021 C1007 0.958 . S
H1022 C1007 0.961 . S
H1023 C1007 0.960 . S
C1024 C1025 1.391 1_545 S
C1024 C1026 1.394 . S
C1024 H1040 0.931 . S
C1025 C1024 1.391 1_565 S
C1025 C1029 1.376 . S
C1026 C1024 1.394 . S
C1026 C1027 1.369 . S
C1026 C1030 1.531 . S
C1027 C1026 1.369 . S
C1027 C1028 1.410 1_545 S
C1027 C1035 1.503 . S
C1028 C1027 1.410 1_565 S
C1028 C1029 1.392 . S
C1028 C1031 1.511 . S
C1029 C1025 1.376 . S
C1029 C1028 1.392 . S
C1029 H1041 0.929 . S
C1030 C1026 1.531 . S
C1030 H1042 0.960 . S
C1030 H1043 0.962 . S
C1030 H1044 0.960 . S
C1031 C1028 1.511 . S
C1031 H1045 0.961 . S
C1031 H1046 0.961 . S
C1031 H1047 0.961 . S
C1032 C1033 1.370 1_565 S
C1032 C1034 1.363 . S
C1032 H1048 0.931 . S
C1033 C1032 1.370 1_545 S
C1033 C1037 1.408 . S
C1034 C1032 1.363 . S
C1034 C1035 1.370 1_565 S
C1034 C1038 1.524 . S
C1035 C1027 1.503 . S
C1035 C1034 1.370 1_545 S
C1035 C1036 1.403 . S
C1036 C1035 1.403 . S
C1036 C1037 1.404 . S
C1036 C1039 1.539 . S
C1037 C1033 1.408 . S
C1037 C1036 1.404 . S
C1037 H1049 0.930 . S
C1038 C1034 1.524 . S
C1038 H1050 0.956 . S
C1038 H1051 0.961 . S
C1038 H1052 0.961 . S
C1039 C1036 1.539 . S
C1039 H1053 0.958 . S
C1039 H1054 0.961 . S
C1039 H1055 0.960 . S
H1040 C1024 0.931 . S
H1041 C1029 0.929 . S
H1042 C1030 0.960 . S
H1043 C1030 0.962 . S
H1044 C1030 0.960 . S
H1045 C1031 0.961 . S
H1046 C1031 0.961 . S
H1047 C1031 0.961 . S
H1048 C1032 0.931 . S
H1049 C1037 0.930 . S
H1050 C1038 0.956 . S
H1051 C1038 0.961 . S
H1052 C1038 0.961 . S
H1053 C1039 0.958 . S
H1054 C1039 0.961 . S
H1055 C1039 0.960 . S
C1056 C1057 1.391 . S
C1056 C1058 1.394 . S
C1056 H1072 0.931 . S
C1057 C1056 1.391 . S
C1057 C1061 1.374 1_455 S
C1058 C1056 1.394 . S
C1058 C1059 1.369 1_455 S
C1058 C1062 1.531 . S
C1059 C1058 1.369 1_655 S
C1059 C1060 1.410 . S
C1059 C1067 1.503 . S
C1060 C1059 1.410 . S
C1060 C1061 1.394 . S
C1060 C1063 1.511 . S
C1061 C1057 1.374 1_655 S
C1061 C1060 1.394 . S
C1061 H1073 0.929 . S
C1062 C1058 1.531 . S
C1062 H1074 0.960 1_455 S
C1062 H1075 0.962 . S
C1062 H1076 0.960 . S
C1063 C1060 1.511 . S
C1063 H1077 0.961 . S
C1063 H1078 0.961 . S
C1063 H1079 0.961 . S
C1064 C1065 1.370 1_455 S
C1064 C1066 1.363 . S
C1064 H1080 0.931 . S
C1065 C1064 1.370 1_655 S
C1065 C1069 1.408 . S
C1066 C1064 1.363 . S
C1066 C1067 1.370 1_455 S
C1066 C1070 1.524 . S
C1067 C1059 1.503 . S
C1067 C1066 1.370 1_655 S
C1067 C1068 1.403 . S
C1068 C1067 1.403 . S
C1068 C1069 1.404 . S
C1068 C1071 1.539 . S
C1069 C1065 1.408 . S
C1069 C1068 1.404 . S
C1069 H1081 0.930 . S
C1070 C1066 1.524 . S
C1070 H1082 0.956 . S
C1070 H1083 0.961 . S
C1070 H1084 0.961 . S
C1071 C1068 1.539 . S
C1071 H1085 0.958 . S
C1071 H1086 0.961 . S
C1071 H1087 0.960 . S
H1072 C1056 0.931 . S
H1073 C1061 0.929 . S
H1074 C1062 0.960 1_655 S
H1075 C1062 0.962 . S
H1076 C1062 0.960 . S
H1077 C1063 0.961 . S
H1078 C1063 0.961 . S
H1079 C1063 0.961 . S
H1080 C1064 0.931 . S
H1081 C1069 0.930 . S
H1082 C1070 0.956 . S
H1083 C1070 0.961 . S
H1084 C1070 0.961 . S
H1085 C1071 0.958 . S
H1086 C1071 0.961 . S
H1087 C1071 0.960 . S
C1088 C1089 1.391 1_565 S
C1088 C1090 1.394 . S
C1088 H1104 0.931 . S
C1089 C1088 1.391 1_545 S
C1089 C1093 1.376 . S
C1090 C1088 1.394 . S
C1090 C1091 1.369 . S
C1090 C1094 1.531 . S
C1091 C1090 1.369 . S
C1091 C1092 1.410 1_565 S
C1091 C1099 1.503 . S
C1092 C1091 1.410 1_545 S
C1092 C1093 1.392 . S
C1092 C1095 1.511 . S
C1093 C1089 1.376 . S
C1093 C1092 1.392 . S
C1093 H1105 0.929 . S
C1094 C1090 1.531 . S
C1094 H1106 0.960 . S
C1094 H1107 0.962 . S
C1094 H1108 0.960 . S
C1095 C1092 1.511 . S
C1095 H1109 0.961 . S
C1095 H1110 0.961 . S
C1095 H1111 0.961 . S
C1096 C1097 1.370 1_545 S
C1096 C1098 1.363 . S
C1096 H1112 0.931 . S
C1097 C1096 1.370 1_565 S
C1097 C1101 1.408 . S
C1098 C1096 1.363 . S
C1098 C1099 1.370 1_545 S
C1098 C1102 1.524 . S
C1099 C1091 1.503 . S
C1099 C1098 1.370 1_565 S
C1099 C1100 1.403 . S
C1100 C1099 1.403 . S
C1100 C1101 1.404 . S
C1100 C1103 1.539 . S
C1101 C1097 1.408 . S
C1101 C1100 1.404 . S
C1101 H1113 0.930 . S
C1102 C1098 1.524 . S
C1102 H1114 0.956 . S
C1102 H1115 0.961 . S
C1102 H1116 0.961 . S
C1103 C1100 1.539 . S
C1103 H1117 0.958 . S
C1103 H1118 0.961 . S
C1103 H1119 0.960 . S
H1104 C1088 0.931 . S
H1105 C1093 0.929 . S
H1106 C1094 0.960 . S
H1107 C1094 0.962 . S
H1108 C1094 0.960 . S
H1109 C1095 0.961 . S
H1110 C1095 0.961 . S
H1111 C1095 0.961 . S
H1112 C1096 0.931 . S
H1113 C1101 0.930 . S
H1114 C1102 0.956 . S
H1115 C1102 0.961 . S
H1116 C1102 0.961 . S
H1117 C1103 0.958 . S
H1118 C1103 0.961 . S
H1119 C1103 0.960 . S
C1120 C1121 1.391 . S
C1120 C1122 1.394 . S
C1120 H1136 0.931 . S
C1121 C1120 1.391 . S
C1121 C1125 1.376 . S
C1122 C1120 1.394 . S
C1122 C1123 1.369 . S
C1122 C1126 1.531 . S
C1123 C1122 1.369 . S
C1123 C1124 1.410 . S
C1123 C1131 1.503 1_556 S
C1124 C1123 1.410 . S
C1124 C1125 1.392 . S
C1124 C1127 1.511 . S
C1125 C1121 1.376 . S
C1125 C1124 1.392 . S
C1125 H1137 0.929 . S
C1126 C1122 1.531 . S
C1126 H1138 0.960 1_556 S
C1126 H1139 0.962 . S
C1126 H1140 0.960 . S
C1127 C1124 1.511 . S
C1127 H1141 0.961 . S
C1127 H1142 0.961 . S
C1127 H1143 0.961 . S
C1128 C1129 1.370 . S
C1128 C1130 1.363 . S
C1128 H1144 0.931 . S
C1129 C1128 1.370 . S
C1129 C1133 1.408 . S
C1130 C1128 1.363 . S
C1130 C1131 1.370 . S
C1130 C1134 1.524 . S
C1131 C1123 1.503 1_554 S
C1131 C1130 1.370 . S
C1131 C1132 1.403 . S
C1132 C1131 1.403 . S
C1132 C1133 1.404 . S
C1132 C1135 1.539 . S
C1133 C1129 1.408 . S
C1133 C1132 1.404 . S
C1133 H1145 0.930 . S
C1134 C1130 1.524 . S
C1134 H1146 0.956 . S
C1134 H1147 0.961 . S
C1134 H1148 0.961 . S
C1135 C1132 1.539 . S
C1135 H1149 0.958 . S
C1135 H1150 0.961 . S
C1135 H1151 0.960 1_554 S
H1136 C1120 0.931 . S
H1137 C1125 0.929 . S
H1138 C1126 0.960 1_554 S
H1139 C1126 0.962 . S
H1140 C1126 0.960 . S
H1141 C1127 0.961 . S
H1142 C1127 0.961 . S
H1143 C1127 0.961 . S
H1144 C1128 0.931 . S
H1145 C1133 0.930 . S
H1146 C1134 0.956 . S
H1147 C1134 0.961 . S
H1148 C1134 0.961 . S
H1149 C1135 0.958 . S
H1150 C1135 0.961 . S
H1151 C1135 0.960 1_556 S
C1152 C1153 1.391 . S
C1152 C1154 1.394 . S
C1152 H1168 0.931 . S
C1153 C1152 1.391 . S
C1153 C1157 1.376 . S
C1154 C1152 1.394 . S
C1154 C1155 1.369 . S
C1154 C1158 1.531 . S
C1155 C1154 1.369 . S
C1155 C1156 1.410 . S
C1155 C1163 1.503 1_556 S
C1156 C1155 1.410 . S
C1156 C1157 1.392 . S
C1156 C1159 1.511 . S
C1157 C1153 1.376 . S
C1157 C1156 1.392 . S
C1157 H1169 0.929 . S
C1158 C1154 1.531 . S
C1158 H1170 0.960 . S
C1158 H1171 0.962 . S
C1158 H1172 0.960 . S
C1159 C1156 1.511 . S
C1159 H1173 0.961 . S
C1159 H1174 0.961 1_556 S
C1159 H1175 0.961 . S
C1160 C1161 1.370 . S
C1160 C1162 1.363 . S
C1160 H1176 0.931 . S
C1161 C1160 1.370 . S
C1161 C1165 1.408 . S
C1162 C1160 1.363 . S
C1162 C1163 1.370 . S
C1162 C1166 1.524 . S
C1163 C1155 1.503 1_554 S
C1163 C1162 1.370 . S
C1163 C1164 1.403 . S
C1164 C1163 1.403 . S
C1164 C1165 1.404 . S
C1164 C1167 1.539 . S
C1165 C1161 1.408 . S
C1165 C1164 1.404 . S
C1165 H1177 0.930 . S
C1166 C1162 1.524 . S
C1166 H1178 0.956 . S
C1166 H1179 0.961 . S
C1166 H1180 0.961 . S
C1167 C1164 1.539 . S
C1167 H1181 0.958 . S
C1167 H1182 0.961 . S
C1167 H1183 0.960 1_554 S
H1168 C1152 0.931 . S
H1169 C1157 0.929 . S
H1170 C1158 0.960 . S
H1171 C1158 0.962 . S
H1172 C1158 0.960 . S
H1173 C1159 0.961 . S
H1174 C1159 0.961 1_554 S
H1175 C1159 0.961 . S
H1176 C1160 0.931 . S
H1177 C1165 0.930 . S
H1178 C1166 0.956 . S
H1179 C1166 0.961 . S
H1180 C1166 0.961 . S
H1181 C1167 0.958 . S
H1182 C1167 0.961 . S
H1183 C1167 0.960 1_556 S
C1184 C1185 1.391 . S
C1184 C1186 1.394 . S
C1184 H1200 0.931 . S
C1185 C1184 1.391 . S
C1185 C1189 1.376 . S
C1186 C1184 1.394 . S
C1186 C1187 1.369 . S
C1186 C1190 1.531 . S
C1187 C1186 1.369 . S
C1187 C1188 1.410 . S
C1187 C1195 1.503 1_554 S
C1188 C1187 1.410 . S
C1188 C1189 1.392 . S
C1188 C1191 1.511 . S
C1189 C1185 1.376 . S
C1189 C1188 1.392 . S
C1189 H1201 0.929 . S
C1190 C1186 1.531 . S
C1190 H1202 0.960 1_554 S
C1190 H1203 0.962 . S
C1190 H1204 0.960 . S
C1191 C1188 1.511 . S
C1191 H1205 0.961 . S
C1191 H1206 0.961 . S
C1191 H1207 0.961 . S
C1192 C1193 1.370 . S
C1192 C1194 1.363 . S
C1192 H1208 0.931 . S
C1193 C1192 1.370 . S
C1193 C1197 1.408 . S
C1194 C1192 1.363 . S
C1194 C1195 1.370 . S
C1194 C1198 1.524 . S
C1195 C1187 1.503 1_556 S
C1195 C1194 1.370 . S
C1195 C1196 1.403 . S
C1196 C1195 1.403 . S
C1196 C1197 1.404 . S
C1196 C1199 1.539 . S
C1197 C1193 1.408 . S
C1197 C1196 1.404 . S
C1197 H1209 0.930 . S
C1198 C1194 1.524 . S
C1198 H1210 0.956 . S
C1198 H1211 0.961 . S
C1198 H1212 0.961 . S
C1199 C1196 1.539 . S
C1199 H1213 0.958 . S
C1199 H1214 0.961 . S
C1199 H1215 0.960 1_556 S
H1200 C1184 0.931 . S
H1201 C1189 0.929 . S
H1202 C1190 0.960 1_556 S
H1203 C1190 0.962 . S
H1204 C1190 0.960 . S
H1205 C1191 0.961 . S
H1206 C1191 0.961 . S
H1207 C1191 0.961 . S
H1208 C1192 0.931 . S
H1209 C1197 0.930 . S
H1210 C1198 0.956 . S
H1211 C1198 0.961 . S
H1212 C1198 0.961 . S
H1213 C1199 0.958 . S
H1214 C1199 0.961 . S
H1215 C1199 0.960 1_554 S
C1216 C1217 1.391 . S
C1216 C1218 1.394 . S
C1216 H1232 0.931 . S
C1217 C1216 1.391 . S
C1217 C1221 1.376 . S
C1218 C1216 1.394 . S
C1218 C1219 1.369 . S
C1218 C1222 1.531 . S
C1219 C1218 1.369 . S
C1219 C1220 1.410 . S
C1219 C1227 1.503 1_556 S
C1220 C1219 1.410 . S
C1220 C1221 1.392 . S
C1220 C1223 1.511 . S
C1221 C1217 1.376 . S
C1221 C1220 1.392 . S
C1221 H1233 0.929 . S
C1222 C1218 1.531 . S
C1222 H1234 0.960 1_556 S
C1222 H1235 0.962 . S
C1222 H1236 0.960 . S
C1223 C1220 1.511 . S
C1223 H1237 0.961 . S
C1223 H1238 0.961 1_556 S
C1223 H1239 0.961 . S
C1224 C1225 1.370 . S
C1224 C1226 1.363 . S
C1224 H1240 0.931 . S
C1225 C1224 1.370 . S
C1225 C1229 1.408 . S
C1226 C1224 1.363 . S
C1226 C1227 1.370 . S
C1226 C1230 1.524 . S
C1227 C1219 1.503 1_554 S
C1227 C1226 1.370 . S
C1227 C1228 1.403 . S
C1228 C1227 1.403 . S
C1228 C1229 1.404 . S
C1228 C1231 1.539 . S
C1229 C1225 1.408 . S
C1229 C1228 1.404 . S
C1229 H1241 0.930 . S
C1230 C1226 1.524 . S
C1230 H1242 0.956 1_554 S
C1230 H1243 0.961 1_554 S
C1230 H1244 0.961 . S
C1231 C1228 1.539 . S
C1231 H1245 0.958 . S
C1231 H1246 0.961 . S
C1231 H1247 0.960 . S
H1232 C1216 0.931 . S
H1233 C1221 0.929 . S
H1234 C1222 0.960 1_554 S
H1235 C1222 0.962 . S
H1236 C1222 0.960 . S
H1237 C1223 0.961 . S
H1238 C1223 0.961 1_554 S
H1239 C1223 0.961 . S
H1240 C1224 0.931 . S
H1241 C1229 0.930 . S
H1242 C1230 0.956 1_556 S
H1243 C1230 0.961 1_556 S
H1244 C1230 0.961 . S
H1245 C1231 0.958 . S
H1246 C1231 0.961 . S
H1247 C1231 0.960 . S
C225 C13 1.230 . S
C233 C50 1.235 . S
C257 C8 1.235 . S
C265 C27 1.267 . S
C289 C22 1.240 . S
C297 C41 1.282 . S
C321 C36 1.268 . S
C329 C55 1.291 . S
C353 C69 1.228 . S
C361 C78 1.231 . S
C385 C83 1.310 . S
C393 C92 1.262 . S
C417 C97 1.250 . S
C425 C106 1.247 . S
C449 C111 1.264 . S
C457 C64 1.254 . S
C481 C125 1.264 . S
C489 C162 1.255 . S
C513 C120 1.230 . S
C521 C139 1.278 . S
C545 C134 1.206 . S
C553 C153 1.260 . S
C577 C167 1.302 . S
C585 C148 1.258 . S
C609 C190 1.207 . S
C617 C181 1.260 . S
C641 C204 1.248 . S
C649 C195 1.285 . S
C673 C209 1.323 . S
C681 C218 1.272 . S
C705 C223 1.322 . S
C713 C176 1.274 . S
C737 C11 1.018 . S
C745 C221 0.990 . S
C769 C25 1.026 . S
C777 C179 0.998 . S
C801 C193 1.025 . S
C809 C39 0.996 . S
C833 C53 1.016 . S
C841 C207 0.990 . S
C865 C137 1.009 . S
C873 C67 0.988 . S
C897 C151 1.020 . S
C905 C81 0.991 . S
C929 C95 1.024 . S
C937 C165 0.994 . S
C961 C109 1.026 . S
C969 C123 1.001 . S
C993 C7 1.413 . S
C1001 C91 1.395 . S
C1025 C105 1.374 . S
C1033 C21 1.378 . S
C1057 C63 1.397 . S
C1065 C35 1.386 . S
C1089 C77 1.368 . S
C1097 C49 1.376 . S
C1121 C119 1.411 . S
C1129 C203 1.394 . S
C1153 C133 1.377 . S
C1161 C217 1.379 . S
C1185 C175 1.407 . S
C1193 C147 1.391 . S
C1217 C161 1.384 . S
C1225 C189 1.395 . S
