# Generated by pormake.
# Topology zfm, (5)-cn, num edge types: 1
# Building blocks:
#     Node 0, Type 0, BuildingBlock: BEQFEK_clean_sbu_0, # of connection points: 5
#     Node 1, Type 0, BuildingBlock: BEQFEK_clean_sbu_0, # of connection points: 5
#     Node 2, Type 0, BuildingBlock: BEQFEK_clean_sbu_0, # of connection points: 5
#     Node 3, Type 0, BuildingBlock: BEQFEK_clean_sbu_0, # of connection points: 5
#     Node 4, Type 0, BuildingBlock: BEQFEK_clean_sbu_0, # of connection points: 5
#     Node 5, Type 0, BuildingBlock: BEQFEK_clean_sbu_0, # of connection points: 5
#     Node 6, Type 0, BuildingBlock: BEQFEK_clean_sbu_0, # of connection points: 5
#     Node 7, Type 0, BuildingBlock: BEQFEK_clean_sbu_0, # of connection points: 5
#     Node 8, Type 0, BuildingBlock: BEQFEK_clean_sbu_0, # of connection points: 5
#     Node 9, Type 0, BuildingBlock: BEQFEK_clean_sbu_0, # of connection points: 5
#     Node 10, Type 0, BuildingBlock: BEQFEK_clean_sbu_0, # of connection points: 5
#     Node 11, Type 0, BuildingBlock: BEQFEK_clean_sbu_0, # of connection points: 5
#     Node 12, Type 0, BuildingBlock: BEQFEK_clean_sbu_0, # of connection points: 5
#     Node 13, Type 0, BuildingBlock: BEQFEK_clean_sbu_0, # of connection points: 5
#     Node 14, Type 0, BuildingBlock: BEQFEK_clean_sbu_0, # of connection points: 5
#     Node 15, Type 0, BuildingBlock: BEQFEK_clean_sbu_0, # of connection points: 5
#     Edge 16, Type (0, 0), BuildingBlock: OJICUG_clean_linker_0, # of connection points: 2
#     Edge 17, Type (0, 0), BuildingBlock: OJICUG_clean_linker_0, # of connection points: 2
#     Edge 18, Type (0, 0), BuildingBlock: OJICUG_clean_linker_0, # of connection points: 2
#     Edge 19, Type (0, 0), BuildingBlock: OJICUG_clean_linker_0, # of connection points: 2
#     Edge 20, Type (0, 0), BuildingBlock: OJICUG_clean_linker_0, # of connection points: 2
#     Edge 21, Type (0, 0), BuildingBlock: OJICUG_clean_linker_0, # of connection points: 2
#     Edge 22, Type (0, 0), BuildingBlock: OJICUG_clean_linker_0, # of connection points: 2
#     Edge 23, Type (0, 0), BuildingBlock: OJICUG_clean_linker_0, # of connection points: 2
#     Edge 24, Type (0, 0), BuildingBlock: OJICUG_clean_linker_0, # of connection points: 2
#     Edge 25, Type (0, 0), BuildingBlock: OJICUG_clean_linker_0, # of connection points: 2
#     Edge 26, Type (0, 0), BuildingBlock: OJICUG_clean_linker_0, # of connection points: 2
#     Edge 27, Type (0, 0), BuildingBlock: OJICUG_clean_linker_0, # of connection points: 2
#     Edge 28, Type (0, 0), BuildingBlock: OJICUG_clean_linker_0, # of connection points: 2
#     Edge 29, Type (0, 0), BuildingBlock: OJICUG_clean_linker_0, # of connection points: 2
#     Edge 30, Type (0, 0), BuildingBlock: OJICUG_clean_linker_0, # of connection points: 2
#     Edge 31, Type (0, 0), BuildingBlock: OJICUG_clean_linker_0, # of connection points: 2
#     Edge 32, Type (0, 0), BuildingBlock: OJICUG_clean_linker_0, # of connection points: 2
#     Edge 33, Type (0, 0), BuildingBlock: OJICUG_clean_linker_0, # of connection points: 2
#     Edge 34, Type (0, 0), BuildingBlock: OJICUG_clean_linker_0, # of connection points: 2
#     Edge 35, Type (0, 0), BuildingBlock: OJICUG_clean_linker_0, # of connection points: 2
#     Edge 36, Type (0, 0), BuildingBlock: OJICUG_clean_linker_0, # of connection points: 2
#     Edge 37, Type (0, 0), BuildingBlock: OJICUG_clean_linker_0, # of connection points: 2
#     Edge 38, Type (0, 0), BuildingBlock: OJICUG_clean_linker_0, # of connection points: 2
#     Edge 39, Type (0, 0), BuildingBlock: OJICUG_clean_linker_0, # of connection points: 2
#     Edge 40, Type (0, 0), BuildingBlock: OJICUG_clean_linker_0, # of connection points: 2
#     Edge 41, Type (0, 0), BuildingBlock: OJICUG_clean_linker_0, # of connection points: 2
#     Edge 42, Type (0, 0), BuildingBlock: OJICUG_clean_linker_0, # of connection points: 2
#     Edge 43, Type (0, 0), BuildingBlock: OJICUG_clean_linker_0, # of connection points: 2
#     Edge 44, Type (0, 0), BuildingBlock: OJICUG_clean_linker_0, # of connection points: 2
#     Edge 45, Type (0, 0), BuildingBlock: OJICUG_clean_linker_0, # of connection points: 2
#     Edge 46, Type (0, 0), BuildingBlock: OJICUG_clean_linker_0, # of connection points: 2
#     Edge 47, Type (0, 0), BuildingBlock: OJICUG_clean_linker_0, # of connection points: 2
#     Edge 48, Type (0, 0), BuildingBlock: OJICUG_clean_linker_0, # of connection points: 2
#     Edge 49, Type (0, 0), BuildingBlock: OJICUG_clean_linker_0, # of connection points: 2
#     Edge 50, Type (0, 0), BuildingBlock: OJICUG_clean_linker_0, # of connection points: 2
#     Edge 51, Type (0, 0), BuildingBlock: OJICUG_clean_linker_0, # of connection points: 2
#     Edge 52, Type (0, 0), BuildingBlock: OJICUG_clean_linker_0, # of connection points: 2
#     Edge 53, Type (0, 0), BuildingBlock: OJICUG_clean_linker_0, # of connection points: 2
#     Edge 54, Type (0, 0), BuildingBlock: OJICUG_clean_linker_0, # of connection points: 2
#     Edge 55, Type (0, 0), BuildingBlock: OJICUG_clean_linker_0, # of connection points: 2
# Relax obj value: 0.118
# Max RMSD: 0.191
# Mean RMSD: 0.191
data_MOF--net-zfm--node1-BEQFEK_clean_sbu_0--edge1-OJICUG_clean_linker_0
_symmetry_space_group_name_H-M    P1
_symmetry_Int_Tables_number       1
_symmetry_cell_setting            triclinic
loop_
_symmetry_equiv_pos_as_xyz
'x, y, z'
_cell_length_a     21.231312
_cell_length_b     21.219831
_cell_length_c     60.990703
_cell_angle_alpha  90.094903
_cell_angle_beta   89.925807
_cell_angle_gamma 89.967846
loop_
_atom_site_label
_atom_site_type_symbol
_atom_site_fract_x
_atom_site_fract_y
_atom_site_fract_z
_atom_type_partial_charge
Co0 Co 0.44079 0.09543 0.15928 0.0
Co1 Co 0.44237 0.07668 0.10777 0.0
C2 C 0.37443 0.98705 0.13565 0.0
O3 O 0.39097 0.01951 0.15226 0.0
O4 O 0.39473 0.00019 0.11651 0.0
C5 C 0.44305 0.0531 0.20405 0.0
O6 O 0.43364 0.99761 0.19506 0.0
C7 C 0.45779 0.03272 0.06159 0.0
C8 C 0.48845 0.12099 0.04564 0.0
C9 C 0.47688 0.05783 0.04157 0.0
N10 N 0.45914 0.07888 0.07679 0.0
N11 N 0.4772 0.13148 0.06706 0.0
C12 C 0.4356 0.96709 0.06613 0.0
H13 H 0.39254 0.96872 0.07639 0.0
H14 H 0.4725 0.94147 0.07542 0.0
H15 H 0.4247 0.94115 0.05081 0.0
C16 C 0.57678 0.10709 0.15217 0.0
N17 N 0.51811 0.09835 0.14456 0.0
N18 N 0.52014 0.08531 0.12352 0.0
C19 C 0.58108 0.08168 0.11727 0.0
C20 C 0.6195 0.09603 0.13522 0.0
C21 C 0.59049 0.12778 0.17515 0.0
H22 H 0.55405 0.16178 0.18069 0.0
H23 H 0.58858 0.08633 0.1862 0.0
H24 H 0.63754 0.15028 0.17636 0.0
O25 O 0.38709 0.16387 0.14997 0.0
O26 O 0.38146 0.14731 0.11403 0.0
H27 H 0.6068 0.09721 0.08382 0.0
H28 H 0.6471 0.03179 0.09647 0.0
C29 C 0.60156 0.05716 0.09535 0.0
H30 H 0.56585 0.02422 0.08875 0.0
H31 H 0.48248 0.17454 0.07514 0.0
O32 O 0.44987 0.101 0.19175 0.0
C33 C 0.36368 0.17641 0.13131 0.0
Co34 Co 0.40136 0.44293 0.66135 0.0
Co35 Co 0.41953 0.44284 0.61003 0.0
C36 C 0.51001 0.3762 0.63789 0.0
O37 O 0.47813 0.39326 0.65461 0.0
O38 O 0.4961 0.39586 0.61876 0.0
C39 C 0.41401 0.41271 0.7065 0.0
O40 O 0.42788 0.35718 0.69825 0.0
C41 C 0.4636 0.45656 0.5641 0.0
C42 C 0.37575 0.487 0.54783 0.0
C43 C 0.43901 0.47539 0.54402 0.0
N44 N 0.41708 0.45816 0.57911 0.0
N45 N 0.36469 0.476 0.56921 0.0
C46 C 0.5291 0.4345 0.56891 0.0
H47 H 0.52708 0.39026 0.57851 0.0
H48 H 0.55359 0.47049 0.579 0.0
H49 H 0.55634 0.42544 0.55371 0.0
C50 C 0.38845 0.57875 0.65363 0.0
N51 N 0.39742 0.51973 0.64624 0.0
N52 N 0.41089 0.52111 0.62526 0.0
C53 C 0.41462 0.58182 0.6188 0.0
C54 C 0.39989 0.6209 0.63658 0.0
C55 C 0.36732 0.59341 0.67651 0.0
H56 H 0.33311 0.5573 0.68208 0.0
H57 H 0.4085 0.59181 0.68768 0.0
H58 H 0.34495 0.64062 0.67748 0.0
O59 O 0.33291 0.38745 0.65267 0.0
O60 O 0.34923 0.38255 0.61667 0.0
H61 H 0.39994 0.60648 0.58523 0.0
H62 H 0.46513 0.647 0.59794 0.0
C63 C 0.43968 0.60149 0.59689 0.0
H64 H 0.47268 0.56544 0.59049 0.0
H65 H 0.32148 0.48153 0.57716 0.0
O66 O 0.39952 0.45731 0.69356 0.0
C67 C 0.32041 0.36428 0.63391 0.0
Co68 Co 0.0568 0.40554 0.15935 0.0
Co69 Co 0.05557 0.42144 0.10816 0.0
C70 C 0.12322 0.51283 0.13542 0.0
O71 O 0.10613 0.48149 0.15218 0.0
O72 O 0.10337 0.49844 0.11634 0.0
C73 C 0.09161 0.4164 0.20374 0.0
O74 O 0.14756 0.42231 0.19475 0.0
C75 C 0.03604 0.46585 0.06283 0.0
C76 C 0.02151 0.37574 0.04529 0.0
C77 C 0.0232 0.44037 0.04233 0.0
N78 N 0.04088 0.41832 0.07729 0.0
N79 N 0.03247 0.36464 0.06667 0.0
C80 C 0.04694 0.5336 0.06857 0.0
H81 H 0.09525 0.53887 0.07522 0.0
H82 H 0.01362 0.54821 0.08165 0.0
H83 H 0.04197 0.56499 0.05417 0.0
C84 C 0.9212 0.39266 0.15256 0.0
N85 N 0.97967 0.40119 0.14471 0.0
N86 N 0.97725 0.41312 0.12362 0.0
C87 C 0.91613 0.41579 0.11753 0.0
C88 C 0.87814 0.40259 0.13573 0.0
C89 C 0.90786 0.37334 0.17571 0.0
H90 H 0.944 0.33913 0.18126 0.0
H91 H 0.9106 0.41532 0.18654 0.0
H92 H 0.86055 0.35156 0.17723 0.0
O93 O 0.11152 0.33637 0.1509 0.0
O94 O 0.11601 0.35126 0.11485 0.0
H95 H 0.89187 0.39616 0.08423 0.0
H96 H 0.84838 0.46092 0.09616 0.0
C97 C 0.89495 0.43741 0.09538 0.0
H98 H 0.9293 0.47118 0.08852 0.0
H99 H 0.03372 0.32036 0.07408 0.0
O100 O 0.04429 0.40666 0.19147 0.0
C101 C 0.13444 0.32308 0.13217 0.0
Co102 Co 0.09027 0.05625 0.65848 0.0
Co103 Co 0.07597 0.05712 0.60708 0.0
C104 C 0.98377 0.12364 0.63434 0.0
O105 O 0.01458 0.10606 0.65116 0.0
O106 O -0.00131 0.10431 0.61524 0.0
C107 C 0.07685 0.0884 0.70317 0.0
O108 O 0.07003 0.14475 0.6946 0.0
C109 C 0.03452 0.04249 0.56089 0.0
C110 C 0.12328 0.01224 0.54508 0.0
C111 C 0.06007 0.02309 0.54096 0.0
N112 N 0.08042 0.04185 0.5761 0.0
N113 N 0.13337 0.02418 0.56647 0.0
C114 C 0.96855 0.06388 0.56537 0.0
H115 H 0.9696 0.10823 0.57498 0.0
H116 H 0.94395 0.02771 0.57532 0.0
H117 H 0.94199 0.07254 0.55003 0.0
C118 C 0.10463 0.92111 0.65071 0.0
N119 N 0.09561 0.97993 0.64329 0.0
N120 N 0.08338 0.97846 0.62222 0.0
C121 C 0.08035 0.91763 0.61574 0.0
C122 C 0.09425 0.87875 0.63362 0.0
C123 C 0.12521 0.90697 0.67366 0.0
H124 H 0.15862 0.94369 0.67936 0.0
H125 H 0.08364 0.908 0.68471 0.0
H126 H 0.14832 0.86014 0.67469 0.0
O127 O 0.15948 0.11132 0.65075 0.0
O128 O 0.14591 0.11761 0.61464 0.0
H129 H 0.09763 0.89227 0.58234 0.0
H130 H 0.03132 0.85222 0.59454 0.0
C131 C 0.05698 0.89764 0.59364 0.0
H132 H 0.02465 0.93367 0.58691 0.0
H133 H 0.17626 0.01918 0.57462 0.0
O134 O 0.08799 0.04198 0.69055 0.0
C135 C 0.17338 0.13524 0.63224 0.0
Co136 Co 0.43246 0.41039 0.84557 0.0
Co137 Co 0.44153 0.40703 0.89723 0.0
C138 C 0.3696 0.50768 0.87381 0.0
O139 O 0.38549 0.48756 0.85487 0.0
O140 O 0.39045 0.48203 0.8912 0.0
C141 C 0.42112 0.45185 0.80045 0.0
O142 O 0.39957 0.50439 0.80907 0.0
C143 C 0.46015 0.44788 0.94285 0.0
C144 C 0.49433 0.36032 0.95844 0.0
C145 C 0.48186 0.42332 0.96252 0.0
N146 N 0.46101 0.40175 0.92773 0.0
N147 N 0.48102 0.34944 0.93718 0.0
C148 C 0.43597 0.513 0.93854 0.0
H149 H 0.38769 0.50986 0.93174 0.0
H150 H 0.46629 0.53618 0.92611 0.0
H151 H 0.43393 0.54215 0.95361 0.0
C152 C 0.57037 0.39582 0.85027 0.0
N153 N 0.51232 0.40126 0.85892 0.0
N154 N 0.51676 0.40554 0.88034 0.0
C155 C 0.57814 0.40739 0.88596 0.0
C156 C 0.61476 0.40032 0.86708 0.0
C157 C 0.58202 0.38412 0.82639 0.0
H158 H 0.54598 0.35121 0.81989 0.0
H159 H 0.57769 0.42918 0.8173 0.0
H160 H 0.62942 0.36359 0.82354 0.0
O161 O 0.37688 0.34172 0.85409 0.0
O162 O 0.38345 0.33613 0.89037 0.0
H163 H 0.60541 0.38178 0.91851 0.0
H164 H 0.64631 0.44991 0.90792 0.0
C165 C 0.60048 0.42501 0.90845 0.0
H166 H 0.56603 0.45681 0.91641 0.0
H167 H 0.48648 0.30651 0.92902 0.0
O168 O 0.43883 0.4075 0.81302 0.0
C169 C 0.3598 0.31784 0.87226 0.0
Co170 Co 0.10309 0.43455 0.34214 0.0
Co171 Co 0.0823 0.43616 0.39327 0.0
C172 C 0.99429 0.36726 0.36517 0.0
O173 O 0.02749 0.3836 0.34873 0.0
O174 O 0.00637 0.38808 0.38433 0.0
C175 C 0.06141 0.43975 0.29764 0.0
O176 O 0.00548 0.43401 0.30665 0.0
C177 C 0.03639 0.45246 0.43897 0.0
C178 C 0.12385 0.48327 0.45543 0.0
C179 C 0.06043 0.47215 0.45905 0.0
N180 N 0.08339 0.4531 0.42413 0.0
N181 N 0.13552 0.47117 0.43414 0.0
C182 C 0.97091 0.43061 0.43402 0.0
H183 H 0.97291 0.38646 0.42432 0.0
H184 H 0.94657 0.46679 0.424 0.0
H185 H 0.94353 0.42154 0.44917 0.0
C186 C 0.11227 0.57095 0.34906 0.0
N187 N 0.10433 0.51215 0.35667 0.0
N188 N 0.09062 0.51409 0.37765 0.0
C189 C 0.08584 0.57501 0.38386 0.0
C190 C 0.10006 0.61356 0.36594 0.0
C191 C 0.13302 0.585 0.32611 0.0
H192 H 0.16787 0.54926 0.32066 0.0
H193 H 0.09181 0.58215 0.31497 0.0
H194 H 0.15447 0.63255 0.32493 0.0
O195 O 0.17213 0.38216 0.35165 0.0
O196 O 0.15354 0.3758 0.38742 0.0
H197 H 0.09972 0.60029 0.41745 0.0
H198 H 0.03495 0.64082 0.40449 0.0
C199 C 0.06027 0.59526 0.40566 0.0
H200 H 0.02703 0.55944 0.41199 0.0
H201 H 0.17901 0.47607 0.42634 0.0
O202 O 0.10966 0.44347 0.30989 0.0
C203 C 0.18388 0.35862 0.37034 0.0
Co204 Co 0.05413 0.09332 0.84172 0.0
Co205 Co 0.05081 0.07148 0.89283 0.0
C206 C 0.11958 0.98328 0.86486 0.0
O207 O 0.10396 0.01711 0.84851 0.0
O208 O 0.098 0.99478 0.88397 0.0
C209 C 0.05266 0.05291 0.79682 0.0
O210 O 0.06097 0.99689 0.80548 0.0
C211 C 0.03578 0.02819 0.9389 0.0
C212 C 0.00215 0.11601 0.95458 0.0
C213 C 0.01565 0.05336 0.9588 0.0
N214 N 0.03321 0.07383 0.92362 0.0
N215 N 0.01337 0.12617 0.93317 0.0
C216 C 0.06031 0.96322 0.93457 0.0
H217 H 0.10338 0.96599 0.92434 0.0
H218 H 0.02441 0.93605 0.92533 0.0
H219 H 0.07199 0.93816 0.94997 0.0
C220 C 0.91792 0.10621 0.8484 0.0
N221 N 0.97631 0.09595 0.85606 0.0
N222 N 0.97363 0.08165 0.87696 0.0
C223 C 0.91257 0.07877 0.88306 0.0
C224 C 0.87475 0.09501 0.86518 0.0
C225 C 0.90495 0.12857 0.82558 0.0
H226 H 0.94219 0.16204 0.82037 0.0
H227 H 0.90607 0.08775 0.81419 0.0
H228 H 0.8584 0.15219 0.8245 0.0
O229 O 0.10742 0.16139 0.85155 0.0
O230 O 0.11247 0.14131 0.88723 0.0
H231 H 0.88542 0.09288 0.91648 0.0
H232 H 0.84579 0.02804 0.9032 0.0
C233 C 0.89127 0.05332 0.90473 0.0
H234 H 0.92674 0.02009 0.91132 0.0
H235 H 0.00693 0.16881 0.92497 0.0
O236 O 0.04611 0.10036 0.80939 0.0
C237 C 0.13069 0.17187 0.87039 0.0
Co238 Co 0.41125 0.0498 0.34285 0.0
Co239 Co 0.4259 0.04918 0.39425 0.0
C240 C 0.51808 0.11615 0.36736 0.0
O241 O 0.48724 0.09916 0.35044 0.0
O242 O 0.50329 0.09604 0.38634 0.0
C243 C 0.42406 0.08368 0.29821 0.0
O244 O 0.43168 0.13956 0.30712 0.0
C245 C 0.46608 0.03646 0.44046 0.0
C246 C 0.37792 0.00326 0.45592 0.0
C247 C 0.44046 0.01679 0.46028 0.0
N248 N 0.4209 0.03351 0.42505 0.0
N249 N 0.36829 0.01404 0.43445 0.0
C250 C 0.53113 0.06084 0.43626 0.0
H251 H 0.52819 0.10557 0.42696 0.0
H252 H 0.55739 0.02626 0.42608 0.0
H253 H 0.55713 0.06994 0.45168 0.0
C254 C 0.39509 0.91424 0.35034 0.0
N255 N 0.40545 0.97293 0.35778 0.0
N256 N 0.4178 0.97118 0.37883 0.0
C257 C 0.41964 0.9104 0.38529 0.0
C258 C 0.40454 0.87172 0.36745 0.0
C259 C 0.37384 0.90052 0.32742 0.0
H260 H 0.34186 0.93844 0.3217 0.0
H261 H 0.41536 0.89968 0.31635 0.0
H262 H 0.34893 0.85463 0.32647 0.0
O263 O 0.34254 0.10545 0.35105 0.0
O264 O 0.35659 0.11002 0.38717 0.0
H265 H 0.40262 0.88452 0.41864 0.0
H266 H 0.46891 0.84474 0.40625 0.0
C267 C 0.44318 0.89013 0.40732 0.0
H268 H 0.47556 0.92603 0.41414 0.0
H269 H 0.32595 0.00726 0.4261 0.0
O270 O 0.41289 0.03681 0.31058 0.0
C271 C 0.32911 0.12864 0.36975 0.0
Co272 Co 0.55405 0.90645 0.83973 0.0
Co273 Co 0.5521 0.92272 0.89108 0.0
C274 C 0.61952 0.01402 0.86424 0.0
O275 O 0.60373 0.98187 0.84748 0.0
O276 O 0.59838 0.00043 0.88321 0.0
C277 C 0.52398 0.95536 0.79749 0.0
O278 O 0.5018 0.00299 0.80892 0.0
C279 C 0.53742 0.96375 0.9375 0.0
C280 C 0.50599 0.87511 0.953 0.0
C281 C 0.51794 0.93804 0.95738 0.0
N282 N 0.53585 0.91823 0.92209 0.0
N283 N 0.5174 0.86536 0.93154 0.0
C284 C 0.56025 0.02935 0.93328 0.0
H285 H 0.60456 0.02748 0.92369 0.0
H286 H 0.52466 0.05501 0.92341 0.0
H287 H 0.56945 0.05538 0.94871 0.0
C288 C 0.41761 0.89197 0.84691 0.0
N289 N 0.47634 0.90178 0.85437 0.0
N290 N 0.47439 0.91438 0.87544 0.0
C291 C 0.41358 0.91678 0.88186 0.0
C292 C 0.37504 0.90191 0.864 0.0
C293 C 0.40359 0.87052 0.82403 0.0
H294 H 0.44235 0.84012 0.8179 0.0
H295 H 0.40019 0.91209 0.8131 0.0
H296 H 0.35855 0.84404 0.8234 0.0
O297 O 0.60836 0.83694 0.84781 0.0
O298 O 0.61368 0.85354 0.88377 0.0
H299 H 0.38806 0.90007 0.91527 0.0
H300 H 0.34759 0.96583 0.9029 0.0
C301 C 0.39319 0.94051 0.9039 0.0
H302 H 0.42885 0.97332 0.91062 0.0
H303 H 0.51175 0.82269 0.92325 0.0
O304 O 0.5457 0.90752 0.80745 0.0
C305 C 0.63193 0.8247 0.86647 0.0
Co306 Co 0.59215 0.55008 0.3434 0.0
Co307 Co 0.57844 0.5507 0.39478 0.0
C308 C 0.48511 0.61607 0.36783 0.0
O309 O 0.51585 0.5987 0.35093 0.0
O310 O 0.5006 0.59706 0.38687 0.0
C311 C 0.57874 0.58391 0.29911 0.0
O312 O 0.57312 0.63982 0.30819 0.0
C313 C 0.53706 0.53714 0.44092 0.0
C314 C 0.62538 0.50608 0.45673 0.0
C315 C 0.5623 0.51789 0.46084 0.0
N316 N 0.58298 0.53555 0.42569 0.0
N317 N 0.63568 0.51738 0.43531 0.0
C318 C 0.47149 0.55961 0.43644 0.0
H319 H 0.47348 0.60476 0.42737 0.0
H320 H 0.44692 0.52463 0.42596 0.0
H321 H 0.44435 0.56732 0.45175 0.0
C322 C 0.60828 0.41494 0.35095 0.0
N323 N 0.59858 0.47368 0.35844 0.0
N324 N 0.58657 0.4721 0.37953 0.0
C325 C 0.58434 0.41127 0.38597 0.0
C326 C 0.59863 0.37247 0.36804 0.0
C327 C 0.62886 0.40109 0.32795 0.0
H328 H 0.66129 0.43856 0.32216 0.0
H329 H 0.58713 0.40104 0.31701 0.0
H330 H 0.65307 0.35482 0.32685 0.0
O331 O 0.66061 0.60627 0.35112 0.0
O332 O 0.64764 0.61199 0.38729 0.0
H333 H 0.60205 0.38577 0.41929 0.0
H334 H 0.53574 0.3456 0.40715 0.0
C335 C 0.56127 0.39109 0.40808 0.0
H336 H 0.52887 0.42697 0.41496 0.0
H337 H 0.67853 0.51168 0.42715 0.0
O338 O 0.58945 0.53656 0.31128 0.0
C339 C 0.67452 0.63018 0.36964 0.0
Co340 Co 0.94153 0.58323 0.84306 0.0
Co341 Co 0.93265 0.58593 0.89466 0.0
C342 C 0.86955 0.48574 0.86681 0.0
O343 O 0.89398 0.50665 0.84923 0.0
O344 O 0.88201 0.51047 0.88539 0.0
C345 C 0.91224 0.5729 0.79816 0.0
O346 O 0.85622 0.56324 0.80667 0.0
C347 C 0.96039 0.5403 0.93925 0.0
C348 C 0.93975 0.62502 0.95911 0.0
C349 C 0.96057 0.56323 0.96069 0.0
N350 N 0.94121 0.58672 0.92583 0.0
N351 N 0.92879 0.63712 0.93782 0.0
C352 C 0.97569 0.47513 0.93147 0.0
H353 H 0.95469 0.46622 0.91514 0.0
H354 H 0.0275 0.47014 0.92986 0.0
H355 H 0.95833 0.43953 0.94334 0.0
C356 C 0.07816 0.58505 0.85369 0.0
N357 N 0.01695 0.58681 0.85954 0.0
N358 N 0.01283 0.59342 0.88091 0.0
C359 C 0.07116 0.60058 0.8892 0.0
C360 C 0.11517 0.59415 0.87234 0.0
C361 C 0.09997 0.5678 0.8311 0.0
H362 H 0.06315 0.54058 0.82239 0.0
H363 H 0.14351 0.53895 0.83171 0.0
H364 H 0.10979 0.61148 0.82172 0.0
O365 O 0.88148 0.65286 0.8504 0.0
O366 O 0.8787 0.65674 0.88682 0.0
H367 H 0.13072 0.64098 0.91429 0.0
H368 H 0.08255 0.5754 0.92294 0.0
C369 C 0.08393 0.61822 0.91257 0.0
H370 H 0.04731 0.65137 0.9185 0.0
H371 H 0.91308 0.67993 0.93145 0.0
O372 O 0.9581 0.58463 0.81093 0.0
C373 C 0.85983 0.67599 0.86823 0.0
Co374 Co 0.90568 0.93411 0.34047 0.0
Co375 Co 0.9219 0.93721 0.39188 0.0
C376 C 0.0122 0.86751 0.36497 0.0
O377 O 0.98071 0.88368 0.34813 0.0
O378 O 0.99833 0.88872 0.38393 0.0
C379 C 0.95421 0.96335 0.29804 0.0
O380 O 0.00185 0.98498 0.30953 0.0
C381 C 0.9643 0.95437 0.43791 0.0
C382 C 0.87587 0.98595 0.45363 0.0
C383 C 0.939 0.97469 0.45775 0.0
N384 N 0.91833 0.95483 0.42272 0.0
N385 N 0.86559 0.97334 0.4323 0.0
C386 C 0.03 0.93205 0.4335 0.0
H387 H 0.02839 0.88708 0.42426 0.0
H388 H 0.05481 0.96728 0.42321 0.0
H389 H 0.0567 0.92422 0.44886 0.0
C390 C 0.89482 0.07143 0.34725 0.0
N391 N 0.90275 0.0125 0.35485 0.0
N392 N 0.91513 0.01457 0.37593 0.0
C393 C 0.91923 0.07544 0.3822 0.0
C394 C 0.90572 0.11401 0.36425 0.0
C395 C 0.87446 0.08588 0.32431 0.0
H396 H 0.84322 0.04794 0.31811 0.0
H397 H 0.91641 0.08816 0.31349 0.0
H398 H 0.84928 0.1317 0.32359 0.0
O399 O 0.8357 0.88102 0.3494 0.0
O400 O 0.85106 0.87724 0.38543 0.0
H401 H 0.90357 0.1007 0.41572 0.0
H402 H 0.96904 0.14116 0.40312 0.0
C403 C 0.94362 0.09564 0.40415 0.0
H404 H 0.97658 0.05982 0.41064 0.0
H405 H 0.82266 0.97825 0.42417 0.0
O406 O 0.90625 0.94167 0.308 0.0
C407 C 0.8223 0.85881 0.3682 0.0
Co408 Co 0.55653 0.5977 0.16083 0.0
Co409 Co 0.55579 0.57825 0.10974 0.0
C410 C 0.624 0.48933 0.13746 0.0
O411 O 0.60771 0.52198 0.15408 0.0
O412 O 0.60297 0.50199 0.11843 0.0
C413 C 0.55154 0.55507 0.20528 0.0
O414 O 0.55781 0.49935 0.19611 0.0
C415 C 0.54294 0.53119 0.06446 0.0
C416 C 0.51059 0.61698 0.04729 0.0
C417 C 0.52379 0.55368 0.04417 0.0
N418 N 0.54009 0.57888 0.07897 0.0
N419 N 0.52112 0.63007 0.06857 0.0
C420 C 0.56685 0.46672 0.06992 0.0
H421 H 0.61326 0.47093 0.0781 0.0
H422 H 0.53391 0.44378 0.08157 0.0
H423 H 0.57272 0.43685 0.05514 0.0
C424 C 0.41994 0.60868 0.15353 0.0
N425 N 0.47897 0.59995 0.14615 0.0
N426 N 0.47763 0.58672 0.12513 0.0
C427 C 0.41699 0.58286 0.11866 0.0
C428 C 0.37785 0.59749 0.13642 0.0
C429 C 0.40532 0.62953 0.17645 0.0
H430 H 0.44186 0.66306 0.18219 0.0
H431 H 0.40617 0.58804 0.18749 0.0
H432 H 0.35846 0.65259 0.17739 0.0
O433 O 0.60987 0.6666 0.15153 0.0
O434 O 0.61629 0.64889 0.1157 0.0
H435 H 0.39264 0.59707 0.08502 0.0
H436 H 0.35195 0.53207 0.0978 0.0
C437 C 0.39745 0.55749 0.09677 0.0
H438 H 0.43343 0.52426 0.09048 0.0
H439 H 0.51456 0.67379 0.07609 0.0
O440 O 0.54721 0.60355 0.19314 0.0
C441 C 0.63368 0.67853 0.13287 0.0
Co442 Co 0.90295 0.55759 0.65913 0.0
Co443 Co 0.91769 0.55598 0.60755 0.0
C444 C 0.00945 0.62383 0.63451 0.0
O445 O 0.97861 0.60723 0.65148 0.0
O446 O 0.99465 0.60345 0.61555 0.0
C447 C 0.94594 0.55955 0.70401 0.0
O448 O 0.00031 0.5745 0.69515 0.0
C449 C 0.96031 0.53985 0.56157 0.0
C450 C 0.87226 0.50824 0.54569 0.0
C451 C 0.93544 0.51964 0.54168 0.0
N452 N 0.91408 0.53916 0.57669 0.0
N453 N 0.86154 0.52069 0.56702 0.0
C454 C 0.02586 0.56227 0.5661 0.0
H455 H 0.02386 0.60751 0.57517 0.0
H456 H 0.05034 0.52735 0.5766 0.0
H457 H 0.05308 0.56972 0.55081 0.0
C458 C 0.88988 0.42134 0.65198 0.0
N459 N 0.89847 0.48013 0.64441 0.0
N460 N 0.91014 0.47821 0.62328 0.0
C461 C 0.91321 0.41732 0.61691 0.0
C462 C 0.89967 0.37871 0.63488 0.0
C463 C 0.87044 0.4075 0.67509 0.0
H464 H 0.83724 0.44427 0.68095 0.0
H465 H 0.91256 0.40875 0.68584 0.0
H466 H 0.84747 0.36068 0.67635 0.0
O467 O 0.83429 0.61198 0.65037 0.0
O468 O 0.84777 0.61701 0.61427 0.0
H469 H 0.89644 0.39216 0.58347 0.0
H470 H 0.96211 0.35137 0.59577 0.0
C471 C 0.93686 0.39702 0.59485 0.0
H472 H 0.96978 0.43264 0.58821 0.0
H473 H 0.8185 0.51556 0.57511 0.0
O474 O 0.89905 0.54826 0.69163 0.0
C475 C 0.82034 0.63526 0.63181 0.0
Co476 Co 0.94085 0.90521 0.16061 0.0
Co477 Co 0.94335 0.92089 0.1092 0.0
C478 C 0.87463 0.01199 0.13608 0.0
O479 O 0.89097 0.98061 0.15294 0.0
O480 O 0.89562 0.99794 0.11711 0.0
C481 C 0.96995 0.95231 0.20342 0.0
O482 O 0.99229 0.00042 0.19234 0.0
C483 C 0.95758 0.961 0.06285 0.0
C484 C 0.9922 0.87282 0.04769 0.0
C485 C 0.97815 0.93514 0.04311 0.0
N486 N 0.96052 0.91615 0.07839 0.0
N487 N 0.98086 0.86353 0.06916 0.0
C488 C 0.93237 0.02593 0.06681 0.0
H489 H 0.88827 0.02295 0.07648 0.0
H490 H 0.96712 0.05331 0.0765 0.0
H491 H 0.92207 0.05087 0.05126 0.0
C492 C 0.07767 0.89212 0.15364 0.0
N493 N 0.01885 0.90116 0.14614 0.0
N494 N 0.02081 0.91346 0.12506 0.0
C495 C 0.08161 0.91659 0.11869 0.0
C496 C 0.1202 0.90234 0.13657 0.0
C497 C 0.09187 0.87114 0.17654 0.0
H498 H 0.05345 0.84041 0.18267 0.0
H499 H 0.09476 0.91291 0.18744 0.0
H500 H 0.13722 0.84517 0.1772 0.0
O501 O 0.88711 0.83592 0.1518 0.0
O502 O 0.88257 0.85101 0.11578 0.0
H503 H 0.10783 0.90045 0.08529 0.0
H504 H 0.14701 0.96677 0.09783 0.0
C505 C 0.10186 0.94075 0.09672 0.0
H506 H 0.06576 0.97307 0.09001 0.0
H507 H 0.98776 0.82138 0.07761 0.0
O508 O 0.94825 0.90503 0.19307 0.0
C509 C 0.86418 0.82274 0.13309 0.0
Co510 Co 0.59309 0.9417 0.66113 0.0
Co511 Co 0.57594 0.94474 0.61003 0.0
C512 C 0.48582 0.87549 0.6368 0.0
O513 O 0.51799 0.89149 0.6535 0.0
O514 O 0.49898 0.89692 0.61784 0.0
C515 C 0.54394 0.9715 0.70322 0.0
O516 O 0.497 0.99386 0.69156 0.0
C517 C 0.53482 0.95911 0.56396 0.0
C518 C 0.62257 0.99346 0.54851 0.0
C519 C 0.56012 0.97947 0.54418 0.0
N520 N 0.58011 0.96205 0.57933 0.0
N521 N 0.63247 0.98225 0.56994 0.0
C522 C 0.47006 0.93395 0.56815 0.0
H523 H 0.47357 0.88872 0.57712 0.0
H524 H 0.44373 0.9677 0.57863 0.0
H525 H 0.4438 0.92555 0.55272 0.0
C526 C 0.60539 0.07875 0.65463 0.0
N527 N 0.59641 0.02001 0.64696 0.0
N528 N 0.58347 0.02227 0.62594 0.0
C529 C 0.57997 0.08323 0.61977 0.0
C530 C 0.59449 0.12157 0.63774 0.0
C531 C 0.62705 0.09265 0.67748 0.0
H532 H 0.65784 0.05405 0.68344 0.0
H533 H 0.58565 0.09567 0.68854 0.0
H534 H 0.65314 0.13794 0.67815 0.0
O535 O 0.66282 0.88839 0.65227 0.0
O536 O 0.64609 0.88394 0.61634 0.0
H537 H 0.59567 0.10992 0.58643 0.0
H538 H 0.52955 0.14901 0.59918 0.0
C539 C 0.55554 0.10382 0.5979 0.0
H540 H 0.5232 0.0678 0.59112 0.0
H541 H 0.67485 0.98908 0.57826 0.0
O542 O 0.59205 0.94933 0.69345 0.0
C543 C 0.67525 0.86555 0.63346 0.0
C544 C 0.4276 0.00844 0.24173 0.0
C545 C 0.4408 0.06043 0.22821 0.0
H546 H 0.41163 0.97492 0.27437 0.0
C547 C 0.44924 0.11989 0.23795 0.0
H548 H 0.4207 0.96197 0.23476 0.0
C549 C 0.44385 0.12733 0.26066 0.0
C550 C 0.4299 0.07549 0.27416 0.0
H551 H 0.45947 0.16093 0.22803 0.0
H552 H 0.4504 0.17387 0.26761 0.0
C553 C 0.42219 0.01588 0.26445 0.0
C554 C 0.43968 0.38476 0.7672 0.0
C555 C 0.42123 0.44275 0.77635 0.0
H556 H 0.45154 0.32974 0.73807 0.0
C557 C 0.40102 0.49116 0.7623 0.0
H558 H 0.4555 0.34644 0.77753 0.0
C559 C 0.39881 0.48158 0.7396 0.0
C560 C 0.41654 0.42329 0.73049 0.0
H561 H 0.38648 0.53641 0.7688 0.0
H562 H 0.38282 0.51975 0.72923 0.0
C563 C 0.43723 0.37511 0.74454 0.0
C564 C 0.01621 0.42575 0.26002 0.0
C565 C 0.06872 0.43649 0.27353 0.0
H566 H 0.98222 0.41055 0.22741 0.0
C567 C 0.12865 0.44126 0.26387 0.0
H568 H 0.96939 0.4217 0.26694 0.0
C569 C 0.13602 0.43469 0.24121 0.0
C570 C 0.08364 0.42317 0.22773 0.0
H571 H 0.17009 0.44951 0.27381 0.0
H572 H 0.1829 0.4384 0.23431 0.0
C573 C 0.0236 0.4191 0.23736 0.0
C574 C 0.04921 0.12163 0.76348 0.0
C575 C 0.05617 0.06147 0.77277 0.0
H576 H 0.05052 0.17733 0.73428 0.0
C577 C 0.06925 0.01002 0.75893 0.0
H578 H 0.03912 0.16228 0.77366 0.0
C579 C 0.07601 0.01869 0.73633 0.0
C580 C 0.06978 0.079 0.72708 0.0
H581 H 0.07502 0.96306 0.76556 0.0
H582 H 0.0864 0.97813 0.72614 0.0
C583 C 0.05594 0.13029 0.74089 0.0
C584 C 0.57064 0.92062 0.76185 0.0
C585 C 0.52795 0.95908 0.77334 0.0
H586 H 0.61002 0.89537 0.73075 0.0
C587 C 0.49094 0.00234 0.76162 0.0
H588 H 0.60017 0.88717 0.77045 0.0
C589 C 0.49607 0.00651 0.73879 0.0
C590 C 0.53925 0.96844 0.72735 0.0
H591 H 0.45769 0.03261 0.77005 0.0
H592 H 0.46662 0.03987 0.73012 0.0
C593 C 0.57666 0.92568 0.73913 0.0
C594 C 0.57471 0.51628 0.26537 0.0
C595 C 0.57069 0.57616 0.27516 0.0
H596 H 0.57124 0.46254 0.23568 0.0
C597 C 0.55809 0.62871 0.26186 0.0
H598 H 0.58405 0.47479 0.27517 0.0
C599 C 0.55055 0.62168 0.23923 0.0
C600 C 0.55541 0.56194 0.22939 0.0
H601 H 0.55434 0.67547 0.26888 0.0
H602 H 0.54157 0.66326 0.22944 0.0
C603 C 0.5671 0.50924 0.24273 0.0
C604 C 0.98881 0.57696 0.74189 0.0
C605 C 0.93818 0.56048 0.72817 0.0
H606 H 0.02046 0.59401 0.77472 0.0
C607 C 0.87939 0.5473 0.73772 0.0
H608 H 0.03474 0.5875 0.73507 0.0
C609 C 0.87118 0.55136 0.76042 0.0
C610 C 0.92157 0.56854 0.77412 0.0
H611 H 0.8394 0.53442 0.72766 0.0
H612 H 0.82513 0.54114 0.76719 0.0
C613 C 0.98062 0.58089 0.76462 0.0
C614 C 0.91936 0.91968 0.26189 0.0
C615 C 0.95769 0.96138 0.27382 0.0
H616 H 0.89413 0.88323 0.23035 0.0
C617 C 0.00064 -0.00033 0.26243 0.0
H618 H 0.88611 0.88925 0.27022 0.0
C619 C 0.00468 0.99678 0.23954 0.0
C620 C 0.96679 0.9546 0.22764 0.0
H621 H 0.03079 0.03226 0.27118 0.0
H622 H 0.03784 0.02722 0.23118 0.0
C623 C 0.9243 0.91589 0.23907 0.0
C624 C 0.47052 0.05784 1.00065 0.0
C625 C 0.48602 0.02613 0.02012 0.0
H626 H 0.46651 0.05429 0.96559 0.0
C627 C 0.51315 0.96585 0.01876 0.0
H628 H 0.44958 0.10439 1.00122 0.0
C629 C 0.5236 0.9375 0.99834 0.0
C630 C 0.50826 0.96931 0.97887 0.0
H631 H 0.52756 0.94106 0.03342 0.0
H632 H 0.54457 0.89097 0.99776 0.0
C633 C 0.48093 0.02949 0.98025 0.0
C634 C 0.5605 0.52421 0.50173 0.0
C635 C 0.53022 0.50774 0.48208 0.0
H636 H 0.55468 0.52871 0.53675 0.0
C637 C 0.47071 0.47898 0.48301 0.0
H638 H 0.60649 0.54629 0.50145 0.0
C639 C 0.4414 0.46828 0.50319 0.0
C640 C 0.47158 0.48491 0.52284 0.0
H641 H 0.4472 0.46376 0.46818 0.0
H642 H 0.39538 0.44625 0.50345 0.0
C643 C 0.53119 0.51347 0.52192 0.0
C644 C 0.02285 0.48291 0.9822 0.0
C645 C 0.97749 0.53121 0.98149 0.0
H646 H 0.07244 0.41603 0.00212 0.0
C647 C 0.9491 0.55078 1.00123 0.0
H648 H 0.0479 0.46833 0.96763 0.0
C649 C 0.96469 0.52199 0.02107 0.0
C650 C 0.00921 0.47321 0.02162 0.0
H651 H 0.91406 0.58791 0.00132 0.0
H652 H 0.94091 0.53696 0.03592 0.0
C653 C 0.03782 0.45356 0.00203 0.0
C654 C 0.96882 0.98292 0.51885 0.0
C655 C 0.0283 0.01178 0.51973 0.0
H656 H 0.89413 0.94861 0.49845 0.0
C657 C 0.05905 0.02695 0.50003 0.0
H658 H 0.94492 0.96861 0.53372 0.0
C659 C 0.03035 0.01471 0.47984 0.0
C660 C 0.97083 0.98595 0.47897 0.0
H661 H 0.10502 0.04908 0.50024 0.0
H662 H 0.05427 0.02889 0.46496 0.0
C663 C 0.9401 0.97075 0.49867 0.0
C664 C 0.48595 0.45956 0.02316 0.0
C665 C 0.51519 0.51893 0.02343 0.0
H666 H 0.45269 0.38265 0.00347 0.0
C667 C 0.53334 0.54671 0.00355 0.0
H668 H 0.46977 0.43795 0.03822 0.0
C669 C 0.52307 0.51539 0.98373 0.0
C670 C 0.49319 0.45638 0.98343 0.0
H671 H 0.55595 0.59247 0.00335 0.0
H672 H 0.53896 0.53714 0.96865 0.0
C673 C 0.47562 0.42825 0.00332 0.0
C674 C 0.93798 0.5234 0.50076 0.0
C675 C 0.96793 0.50819 0.52058 0.0
H676 H 0.94444 0.52573 0.46572 0.0
C677 C 0.02747 0.47937 0.51996 0.0
H678 H 0.89196 0.54548 0.50079 0.0
C679 C 0.05715 0.46741 0.49991 0.0
C680 C 0.02734 0.48283 0.48009 0.0
H681 H 0.05072 0.46507 0.53494 0.0
H682 H 0.1032 0.44538 0.4999 0.0
C683 C 0.96767 0.5114 0.4807 0.0
C684 C 0.02198 0.05485 0.99965 0.0
C685 C 0.00745 0.02209 0.98028 0.0
H686 H 0.026 0.05246 0.03471 0.0
C687 C 0.98221 0.96108 0.98175 0.0
H688 H 0.04148 0.10198 0.99898 0.0
C689 C 0.97263 0.93304 0.00222 0.0
C690 C 0.98696 0.96591 0.02159 0.0
H691 H 0.96861 0.93546 0.96714 0.0
H692 H 0.95309 0.88592 0.00291 0.0
C693 C 0.01242 0.02682 0.0201 0.0
C694 C 0.46836 0.01468 0.52147 0.0
C695 C 0.52875 0.98794 0.52279 0.0
H696 H 0.39321 0.04477 0.50051 0.0
C697 C 0.56058 0.9719 0.50338 0.0
H698 H 0.44358 0.02938 0.53614 0.0
C699 C 0.53207 0.9813 0.48301 0.0
C700 C 0.47172 0.00815 0.48169 0.0
H701 H 0.60723 0.95126 0.50397 0.0
H702 H 0.55684 0.96651 0.46835 0.0
C703 C 0.43986 0.02413 0.5011 0.0
C704 C 0.72954 0.10345 0.11951 0.0
C705 C 0.68903 0.08833 0.13702 0.0
H706 H 0.82143 0.09142 0.10532 0.0
C707 C 0.71477 0.05994 0.15574 0.0
H708 H 0.71159 0.12707 0.10509 0.0
C709 C 0.77807 0.0431 0.15642 0.0
C710 C 0.81691 0.05111 0.13792 0.0
H711 H 0.68537 0.04616 0.16939 0.0
H712 H 0.79457 0.01791 0.17074 0.0
C713 C 0.79275 0.08406 0.11978 0.0
C714 C 0.41341 0.79358 0.62063 0.0
C715 C 0.44641 0.81803 0.63873 0.0
H716 H 0.36987 0.71229 0.60614 0.0
C717 C 0.45385 0.77974 0.65736 0.0
H718 H 0.40643 0.82185 0.60607 0.0
C719 C 0.43639 0.71657 0.65688 0.0
C720 C 0.408 0.69046 0.6382 0.0
H721 H 0.47896 0.79652 0.67168 0.0
H722 H 0.44973 0.68751 0.67065 0.0
C723 C 0.39345 0.73053 0.62054 0.0
C724 C 0.76713 0.39439 0.12103 0.0
C725 C 0.80885 0.41137 0.13794 0.0
H726 H 0.67441 0.40534 0.10751 0.0
C727 C 0.78463 0.44257 0.15644 0.0
H728 H 0.78396 0.36871 0.10683 0.0
C729 C 0.72158 0.46026 0.1574 0.0
C730 C 0.6815 0.45006 0.13941 0.0
H731 H 0.81508 0.45775 0.16961 0.0
H732 H 0.70624 0.48762 0.17144 0.0
C733 C 0.70414 0.41442 0.12158 0.0
C734 C 0.08167 0.70543 0.6181 0.0
C735 C 0.04875 0.68137 0.63629 0.0
H736 H 0.12491 0.78646 0.60337 0.0
C737 C 0.04084 0.72025 0.65478 0.0
H738 H 0.08894 0.67668 0.60363 0.0
C739 C 0.05771 0.78352 0.65407 0.0
C740 C 0.08621 0.8092 0.63534 0.0
H741 H 0.01564 0.70385 0.66914 0.0
H742 H 0.04383 0.81292 0.66773 0.0
C743 C 0.10121 0.76862 0.6178 0.0
C744 C 0.70816 0.44433 0.84741 0.0
C745 C 0.68408 0.40925 0.86498 0.0
H746 H 0.78643 0.49235 0.8337 0.0
C747 C 0.72592 0.3892 0.8815 0.0
H748 H 0.67773 0.46241 0.8347 0.0
C749 C 0.78866 0.41008 0.88166 0.0
C750 C 0.81127 0.44825 0.86461 0.0
H751 H 0.70929 0.36051 0.89498 0.0
H752 H 0.8185 0.39882 0.89551 0.0
C753 C 0.77114 0.46209 0.84695 0.0
C754 C 0.1058 0.72378 0.38155 0.0
C755 C 0.09118 0.68292 0.36408 0.0
H756 H 0.09251 0.81562 0.39568 0.0
C757 C 0.06212 0.70801 0.34538 0.0
H758 H 0.12983 0.70628 0.39595 0.0
C759 C 0.04412 0.77102 0.3447 0.0
C760 C 0.05181 0.81014 0.36315 0.0
H761 H 0.04878 0.67823 0.33176 0.0
H762 H 0.01846 0.78704 0.33041 0.0
C763 C 0.08538 0.78668 0.38126 0.0
C764 C 0.76503 0.10403 0.88096 0.0
C765 C 0.8051 0.08918 0.86328 0.0
H766 H 0.67334 0.0923 0.89527 0.0
C767 C 0.77872 0.06243 0.84435 0.0
H768 H 0.78348 0.12658 0.89553 0.0
C769 C 0.71523 0.04633 0.8437 0.0
C770 C 0.67693 0.05347 0.86238 0.0
H771 H 0.80774 0.04912 0.83053 0.0
H772 H 0.69818 0.02214 0.82922 0.0
C773 C 0.70164 0.08544 0.88067 0.0
C774 C 0.43649 0.77421 0.34715 0.0
C775 C 0.41001 0.80182 0.36594 0.0
H776 H 0.476 0.69267 0.33238 0.0
C777 C 0.39515 0.76265 0.38384 0.0
H778 H 0.44998 0.80231 0.33316 0.0
C779 C 0.4138 0.69918 0.38392 0.0
C780 C 0.44544 0.67335 0.36573 0.0
H781 H 0.37257 0.78186 0.3983 0.0
H782 H 0.40715 0.67171 0.39869 0.0
C783 C 0.45222 0.71058 0.34681 0.0
C784 C 0.21453 0.95169 0.84366 0.0
C785 C 0.17701 0.94389 0.86249 0.0
H786 H 0.30638 0.94926 0.82998 0.0
C787 C 0.20247 0.91108 0.88044 0.0
H788 H 0.19687 0.97644 0.82941 0.0
C789 C 0.26586 0.89229 0.88027 0.0
C790 C 0.30524 0.90784 0.8625 0.0
H791 H 0.17479 0.90365 0.89514 0.0
H792 H 0.28485 0.86901 0.89459 0.0
C793 C 0.27802 0.93538 0.84387 0.0
C794 C 0.58887 0.19915 0.38374 0.0
C795 C 0.55686 0.1741 0.36552 0.0
H796 H 0.63034 0.28121 0.39844 0.0
C797 C 0.54895 0.21242 0.34693 0.0
H798 H 0.5962 0.17088 0.39828 0.0
C799 C 0.56458 0.27604 0.34759 0.0
C800 C 0.59201 0.30268 0.36637 0.0
H801 H 0.52461 0.19525 0.33253 0.0
H802 H 0.55051 0.30484 0.33386 0.0
C803 C 0.60731 0.26269 0.38398 0.0
C804 C 0.2085 0.55289 0.89274 0.0
C805 C 0.18451 0.58528 0.87453 0.0
H806 H 0.28661 0.50681 0.90738 0.0
C807 C 0.22651 0.60291 0.85772 0.0
H808 H 0.17795 0.53673 0.90575 0.0
C809 C 0.28938 0.58244 0.85808 0.0
C810 C 0.31185 0.54641 0.87574 0.0
H811 H 0.21009 0.62957 0.84374 0.0
H812 H 0.31932 0.59187 0.84407 0.0
C813 C 0.27152 0.53518 0.8936 0.0
C814 C 0.91935 0.28641 0.38045 0.0
C815 C 0.95418 0.31046 0.36271 0.0
H816 H 0.87367 0.20566 0.39441 0.0
C817 C 0.96229 0.27234 0.34402 0.0
H818 H 0.91168 0.31463 0.39502 0.0
C819 C 0.94373 0.20944 0.34418 0.0
C820 C 0.91393 0.18353 0.36263 0.0
H821 H 0.98869 0.28896 0.32996 0.0
H822 H 0.95749 0.18032 0.33044 0.0
C823 C 0.89849 0.22369 0.38023 0.0
C824 C 0.21763 0.54575 0.15657 0.0
C825 C 0.1804 0.55256 0.13764 0.0
H826 H 0.30916 0.54974 0.17041 0.0
C827 C 0.20586 0.58501 0.11961 0.0
H828 H 0.19999 0.5213 0.17088 0.0
C829 C 0.26893 0.60481 0.11987 0.0
C830 C 0.30812 0.59037 0.13779 0.0
H831 H 0.17842 0.59158 0.10483 0.0
H832 H 0.28791 0.628 0.10551 0.0
C833 C 0.2809 0.56284 0.15642 0.0
C834 C 0.91098 0.20591 0.61865 0.0
C835 C 0.94437 0.18109 0.63658 0.0
H836 H 0.86732 0.28753 0.60453 0.0
C837 C 0.95247 0.21914 0.65527 0.0
H838 H 0.90345 0.17781 0.60405 0.0
C839 C 0.9356 0.28249 0.65496 0.0
C840 C 0.90691 0.30901 0.63643 0.0
H841 H 0.97781 0.20207 0.66946 0.0
H842 H 0.9497 0.31131 0.66873 0.0
C843 C 0.89134 0.26909 0.61878 0.0
C844 C 0.22944 0.89398 0.1203 0.0
C845 C 0.18989 0.90915 0.13809 0.0
H846 H 0.32022 0.9066 0.10536 0.0
C847 C 0.21672 0.93733 0.15669 0.0
H848 H 0.21076 0.87024 0.10599 0.0
C849 C 0.27993 0.95462 0.15686 0.0
C850 C 0.31747 0.94714 0.138 0.0
H851 H 0.18819 0.95093 0.17059 0.0
H852 H 0.29723 0.97985 0.17109 0.0
C853 C 0.29248 0.91378 0.12007 0.0
C854 C 0.58304 0.29442 0.62198 0.0
C855 C 0.54995 0.31912 0.64005 0.0
H856 H 0.62608 0.21285 0.60746 0.0
C857 C 0.54256 0.28106 0.65874 0.0
H858 H 0.59018 0.32255 0.60738 0.0
C859 C 0.55971 0.21774 0.65828 0.0
C860 C 0.5876 0.19127 0.63953 0.0
H861 H 0.51758 0.2981 0.67305 0.0
H862 H 0.54629 0.18886 0.67208 0.0
C863 C 0.6026 0.23125 0.62188 0.0
C864 C 0.22222 0.26773 0.15094 0.0
C865 C 0.19108 0.28251 0.13131 0.0
H866 H 0.30147 0.22558 0.16625 0.0
C867 C 0.21878 0.26447 0.11128 0.0
H868 H 0.20306 0.28164 0.1667 0.0
C869 C 0.27616 0.23165 0.111 0.0
C870 C 0.30721 0.21733 0.13075 0.0
H871 H 0.19631 0.2759 0.09585 0.0
H872 H 0.29584 0.21711 0.0954 0.0
C873 C 0.27956 0.23623 0.15066 0.0
C874 C 0.23044 0.2204 0.65207 0.0
C875 C 0.21413 0.19183 0.63206 0.0
H876 H 0.27419 0.29759 0.6683 0.0
C877 C 0.23098 0.22197 0.61238 0.0
H878 H 0.21763 0.19923 0.6676 0.0
C879 C 0.26387 0.27925 0.6128 0.0
C880 C 0.27963 0.30779 0.63291 0.0
H881 H 0.21845 0.20158 0.59669 0.0
H882 H 0.27726 0.30089 0.59741 0.0
C883 C 0.26221 0.27767 0.65249 0.0
C884 C 0.27689 0.25435 0.89186 0.0
C885 C 0.30373 0.27656 0.87223 0.0
H886 H 0.20017 0.20453 0.90684 0.0
C887 C 0.27187 0.26583 0.8524 0.0
H888 H 0.29987 0.26254 0.90745 0.0
C889 C 0.21441 0.23463 0.85214 0.0
C890 C 0.18739 0.21212 0.87165 0.0
H891 H 0.29056 0.28266 0.83695 0.0
H892 H 0.19183 0.22725 0.83642 0.0
C893 C 0.21932 0.22206 0.89155 0.0
C894 C 0.27841 0.21908 0.35096 0.0
C895 C 0.28951 0.18592 0.37047 0.0
H896 H 0.23944 0.30015 0.33576 0.0
C897 C 0.26872 0.21202 0.39044 0.0
H898 H 0.29482 0.20126 0.3353 0.0
C899 C 0.23632 0.26963 0.39072 0.0
C900 C 0.2252 0.30249 0.37108 0.0
H901 H 0.27742 0.18798 0.40579 0.0
H902 H 0.21931 0.28792 0.40623 0.0
C903 C 0.24734 0.27667 0.35128 0.0
C904 C 0.72187 0.77576 0.88694 0.0
C905 C 0.68846 0.7839 0.86728 0.0
H906 H 0.80311 0.7369 0.90258 0.0
C907 C 0.71371 0.75876 0.84778 0.0
H908 H 0.70432 0.79522 0.9022 0.0
C909 C 0.77091 0.72638 0.84791 0.0
C910 C 0.80416 0.71791 0.86757 0.0
H911 H 0.68969 0.76468 0.83226 0.0
H912 H 0.7883 0.70683 0.83264 0.0
C913 C 0.77903 0.74308 0.88709 0.0
C914 C 0.76645 0.77327 0.38928 0.0
C915 C 0.78057 0.80298 0.36924 0.0
H916 H 0.72239 0.69461 0.40523 0.0
C917 C 0.76081 0.77436 0.34963 0.0
H918 H 0.78154 0.79375 0.40467 0.0
C919 C 0.72887 0.7172 0.34993 0.0
C920 C 0.71468 0.6872 0.36986 0.0
H921 H 0.7712 0.79532 0.33386 0.0
H922 H 0.71439 0.69714 0.33439 0.0
C923 C 0.73336 0.71608 0.38959 0.0
C924 C 0.72074 0.73379 0.11232 0.0
C925 C 0.69048 0.71884 0.13218 0.0
H926 H 0.80025 0.77796 0.0969 0.0
C927 C 0.71934 0.73619 0.15201 0.0
H928 H 0.7001 0.72036 0.09677 0.0
C929 C 0.77705 0.76692 0.1521 0.0
C930 C 0.80734 0.78252 0.13235 0.0
H931 H 0.69811 0.72485 0.16768 0.0
H932 H 0.79716 0.77963 0.16781 0.0
C933 C 0.77848 0.76589 0.1124 0.0
C934 C 0.76332 0.72226 0.61184 0.0
C935 C 0.78005 0.6922 0.63154 0.0
H936 H 0.71751 0.8015 0.59687 0.0
C937 C 0.76431 0.72126 0.65153 0.0
H938 H 0.77548 0.70151 0.59616 0.0
C939 C 0.73328 0.77889 0.65193 0.0
C940 C 0.71583 0.80891 0.63236 0.0
H941 H 0.77704 0.7002 0.66708 0.0
H942 H 0.72179 0.79912 0.66776 0.0
C943 C 0.73099 0.77993 0.61225 0.0
loop_
_geom_bond_atom_site_label_1
_geom_bond_atom_site_label_2
_geom_bond_distance
_geom_bond_site_symmetry_2
_ccdc_geom_bond_type
Co0 O3 1.970 . S
Co0 N17 1.989 . S
Co0 O25 1.967 . S
Co0 O32 1.920 . S
Co1 O4 1.966 . S
Co1 N10 2.022 . S
Co1 N18 1.993 . S
Co1 O26 1.941 . S
C2 O3 1.258 . S
C2 O4 1.263 . S
O3 Co0 1.970 . S
O3 C2 1.258 . S
O4 Co1 1.966 . S
O4 C2 1.263 . S
C5 O6 1.235 1_545 S
C5 O32 1.289 . S
O6 C5 1.235 1_565 S
C7 C9 1.400 . S
C7 N10 1.351 . S
C7 C12 1.501 1_545 S
C8 C9 1.387 . S
C8 N11 1.341 . S
C9 C7 1.400 . S
C9 C8 1.387 . S
N10 Co1 2.022 . S
N10 C7 1.351 . S
N10 N11 1.365 . S
N11 C8 1.341 . S
N11 N10 1.365 . S
N11 H31 0.862 . S
C12 C7 1.501 1_565 S
C12 H13 0.961 . S
C12 H14 0.961 . S
C12 H15 0.960 . S
H13 C12 0.961 . S
H14 C12 0.961 . S
H15 C12 0.960 . S
C16 N17 1.342 . S
C16 C20 1.401 . S
C16 C21 1.499 . S
N17 Co0 1.989 . S
N17 C16 1.342 . S
N17 N18 1.388 . S
N18 Co1 1.993 . S
N18 N17 1.388 . S
N18 C19 1.346 . S
C19 N18 1.346 . S
C19 C20 1.396 . S
C19 C29 1.510 . S
C20 C16 1.401 . S
C20 C19 1.396 . S
C21 C16 1.499 . S
C21 H22 0.959 . S
C21 H23 0.960 . S
C21 H24 0.961 . S
H22 C21 0.959 . S
H23 C21 0.960 . S
H24 C21 0.961 . S
O25 Co0 1.967 . S
O25 C33 1.258 . S
O26 Co1 1.941 . S
O26 C33 1.266 . S
H27 C29 0.959 . S
H28 C29 0.961 1_565 S
C29 C19 1.510 . S
C29 H27 0.959 . S
C29 H28 0.961 1_545 S
C29 H30 0.960 . S
H30 C29 0.960 . S
H31 N11 0.862 . S
O32 Co0 1.920 . S
O32 C5 1.289 . S
C33 O25 1.258 . S
C33 O26 1.266 . S
Co34 O37 1.970 . S
Co34 N51 1.989 . S
Co34 O59 1.967 . S
Co34 O66 1.920 . S
Co35 O38 1.966 . S
Co35 N44 2.022 . S
Co35 N52 1.993 . S
Co35 O60 1.941 . S
C36 O37 1.258 . S
C36 O38 1.263 . S
O37 Co34 1.970 . S
O37 C36 1.258 . S
O38 Co35 1.966 . S
O38 C36 1.263 . S
C39 O40 1.235 . S
C39 O66 1.289 . S
O40 C39 1.235 . S
C41 C43 1.400 . S
C41 N44 1.351 . S
C41 C46 1.501 . S
C42 C43 1.387 . S
C42 N45 1.341 . S
C43 C41 1.400 . S
C43 C42 1.387 . S
N44 Co35 2.022 . S
N44 C41 1.351 . S
N44 N45 1.365 . S
N45 C42 1.341 . S
N45 N44 1.365 . S
N45 H65 0.862 . S
C46 C41 1.501 . S
C46 H47 0.961 . S
C46 H48 0.961 . S
C46 H49 0.960 . S
H47 C46 0.961 . S
H48 C46 0.961 . S
H49 C46 0.960 . S
C50 N51 1.342 . S
C50 C54 1.401 . S
C50 C55 1.499 . S
N51 Co34 1.989 . S
N51 C50 1.342 . S
N51 N52 1.388 . S
N52 Co35 1.993 . S
N52 N51 1.388 . S
N52 C53 1.346 . S
C53 N52 1.346 . S
C53 C54 1.396 . S
C53 C63 1.510 . S
C54 C50 1.401 . S
C54 C53 1.396 . S
C55 C50 1.499 . S
C55 H56 0.959 . S
C55 H57 0.960 . S
C55 H58 0.961 . S
H56 C55 0.959 . S
H57 C55 0.960 . S
H58 C55 0.961 . S
O59 Co34 1.967 . S
O59 C67 1.258 . S
O60 Co35 1.941 . S
O60 C67 1.266 . S
H61 C63 0.959 . S
H62 C63 0.961 . S
C63 C53 1.510 . S
C63 H61 0.959 . S
C63 H62 0.961 . S
C63 H64 0.960 . S
H64 C63 0.960 . S
H65 N45 0.862 . S
O66 Co34 1.920 . S
O66 C39 1.289 . S
C67 O59 1.258 . S
C67 O60 1.266 . S
Co68 O71 1.970 . S
Co68 N85 1.989 . S
Co68 O93 1.967 . S
Co68 O100 1.920 . S
Co69 O72 1.966 . S
Co69 N78 2.022 . S
Co69 N86 1.993 . S
Co69 O94 1.941 . S
C70 O71 1.258 . S
C70 O72 1.263 . S
O71 Co68 1.970 . S
O71 C70 1.258 . S
O72 Co69 1.966 . S
O72 C70 1.263 . S
C73 O74 1.235 . S
C73 O100 1.289 . S
O74 C73 1.235 . S
C75 C77 1.400 . S
C75 N78 1.351 . S
C75 C80 1.501 . S
C76 C77 1.387 . S
C76 N79 1.341 . S
C77 C75 1.400 . S
C77 C76 1.387 . S
N78 Co69 2.022 . S
N78 C75 1.351 . S
N78 N79 1.365 . S
N79 C76 1.341 . S
N79 N78 1.365 . S
N79 H99 0.862 . S
C80 C75 1.501 . S
C80 H81 0.961 . S
C80 H82 0.961 . S
C80 H83 0.960 . S
H81 C80 0.961 . S
H82 C80 0.961 . S
H83 C80 0.960 . S
C84 N85 1.342 1_655 S
C84 C88 1.401 . S
C84 C89 1.499 . S
N85 Co68 1.989 . S
N85 C84 1.342 1_455 S
N85 N86 1.388 . S
N86 Co69 1.993 . S
N86 N85 1.388 . S
N86 C87 1.346 1_455 S
C87 N86 1.346 1_655 S
C87 C88 1.396 . S
C87 C97 1.510 . S
C88 C84 1.401 . S
C88 C87 1.396 . S
C89 C84 1.499 . S
C89 H90 0.959 . S
C89 H91 0.960 . S
C89 H92 0.961 . S
H90 C89 0.959 . S
H91 C89 0.960 . S
H92 C89 0.961 . S
O93 Co68 1.967 . S
O93 C101 1.258 . S
O94 Co69 1.941 . S
O94 C101 1.266 . S
H95 C97 0.959 . S
H96 C97 0.961 . S
C97 C87 1.510 . S
C97 H95 0.959 . S
C97 H96 0.961 . S
C97 H98 0.960 . S
H98 C97 0.960 . S
H99 N79 0.862 . S
O100 Co68 1.920 . S
O100 C73 1.289 . S
C101 O93 1.258 . S
C101 O94 1.266 . S
Co102 O105 1.970 . S
Co102 N119 1.989 . S
Co102 O127 1.967 . S
Co102 O134 1.920 . S
Co103 O106 1.966 . S
Co103 N112 2.022 . S
Co103 N120 1.993 . S
Co103 O128 1.941 . S
C104 O105 1.258 . S
C104 O106 1.263 . S
O105 Co102 1.970 . S
O105 C104 1.258 . S
O106 Co103 1.966 . S
O106 C104 1.263 . S
C107 O108 1.235 1_455 S
C107 O134 1.289 . S
O108 C107 1.235 1_655 S
C109 C111 1.400 . S
C109 N112 1.351 . S
C109 C114 1.501 1_455 S
C110 C111 1.387 . S
C110 N113 1.341 . S
C111 C109 1.400 . S
C111 C110 1.387 . S
N112 Co103 2.022 . S
N112 C109 1.351 . S
N112 N113 1.365 . S
N113 C110 1.341 . S
N113 N112 1.365 . S
N113 H133 0.862 . S
C114 C109 1.501 1_655 S
C114 H115 0.961 . S
C114 H116 0.961 . S
C114 H117 0.960 . S
H115 C114 0.961 . S
H116 C114 0.961 . S
H117 C114 0.960 . S
C118 N119 1.342 1_565 S
C118 C122 1.401 . S
C118 C123 1.499 . S
N119 Co102 1.989 . S
N119 C118 1.342 1_545 S
N119 N120 1.388 . S
N120 Co103 1.993 . S
N120 N119 1.388 . S
N120 C121 1.346 1_545 S
C121 N120 1.346 1_565 S
C121 C122 1.396 . S
C121 C131 1.510 . S
C122 C118 1.401 . S
C122 C121 1.396 . S
C123 C118 1.499 . S
C123 H124 0.959 . S
C123 H125 0.960 . S
C123 H126 0.961 . S
H124 C123 0.959 . S
H125 C123 0.960 . S
H126 C123 0.961 . S
O127 Co102 1.967 . S
O127 C135 1.258 . S
O128 Co103 1.941 . S
O128 C135 1.266 . S
H129 C131 0.959 . S
H130 C131 0.961 1_655 S
C131 C121 1.510 . S
C131 H129 0.959 . S
C131 H130 0.961 1_455 S
C131 H132 0.960 . S
H132 C131 0.960 . S
H133 N113 0.862 . S
O134 Co102 1.920 . S
O134 C107 1.289 . S
C135 O127 1.258 . S
C135 O128 1.266 . S
Co136 O139 1.970 . S
Co136 N153 1.989 . S
Co136 O161 1.967 . S
Co136 O168 1.920 . S
Co137 O140 1.966 . S
Co137 N146 2.022 . S
Co137 N154 1.993 . S
Co137 O162 1.941 . S
C138 O139 1.258 . S
C138 O140 1.263 . S
O139 Co136 1.970 . S
O139 C138 1.258 . S
O140 Co137 1.966 . S
O140 C138 1.263 . S
C141 O142 1.235 . S
C141 O168 1.289 . S
O142 C141 1.235 . S
C143 C145 1.400 . S
C143 N146 1.351 . S
C143 C148 1.501 . S
C144 C145 1.387 . S
C144 N147 1.341 . S
C145 C143 1.400 . S
C145 C144 1.387 . S
N146 Co137 2.022 . S
N146 C143 1.351 . S
N146 N147 1.365 . S
N147 C144 1.341 . S
N147 N146 1.365 . S
N147 H167 0.862 . S
C148 C143 1.501 . S
C148 H149 0.961 . S
C148 H150 0.961 . S
C148 H151 0.960 . S
H149 C148 0.961 . S
H150 C148 0.961 . S
H151 C148 0.960 . S
C152 N153 1.342 . S
C152 C156 1.401 . S
C152 C157 1.499 . S
N153 Co136 1.989 . S
N153 C152 1.342 . S
N153 N154 1.388 . S
N154 Co137 1.993 . S
N154 N153 1.388 . S
N154 C155 1.346 . S
C155 N154 1.346 . S
C155 C156 1.396 . S
C155 C165 1.510 . S
C156 C152 1.401 . S
C156 C155 1.396 . S
C157 C152 1.499 . S
C157 H158 0.959 . S
C157 H159 0.960 . S
C157 H160 0.961 . S
H158 C157 0.959 . S
H159 C157 0.960 . S
H160 C157 0.961 . S
O161 Co136 1.967 . S
O161 C169 1.258 . S
O162 Co137 1.941 . S
O162 C169 1.266 . S
H163 C165 0.959 . S
H164 C165 0.961 . S
C165 C155 1.510 . S
C165 H163 0.959 . S
C165 H164 0.961 . S
C165 H166 0.960 . S
H166 C165 0.960 . S
H167 N147 0.862 . S
O168 Co136 1.920 . S
O168 C141 1.289 . S
C169 O161 1.258 . S
C169 O162 1.266 . S
Co170 O173 1.970 . S
Co170 N187 1.989 . S
Co170 O195 1.967 . S
Co170 O202 1.920 . S
Co171 O174 1.966 . S
Co171 N180 2.022 . S
Co171 N188 1.993 . S
Co171 O196 1.941 . S
C172 O173 1.258 . S
C172 O174 1.263 . S
O173 Co170 1.970 . S
O173 C172 1.258 . S
O174 Co171 1.966 . S
O174 C172 1.263 . S
C175 O176 1.235 1_455 S
C175 O202 1.289 . S
O176 C175 1.235 1_655 S
C177 C179 1.400 . S
C177 N180 1.351 . S
C177 C182 1.501 1_455 S
C178 C179 1.387 . S
C178 N181 1.341 . S
C179 C177 1.400 . S
C179 C178 1.387 . S
N180 Co171 2.022 . S
N180 C177 1.351 . S
N180 N181 1.365 . S
N181 C178 1.341 . S
N181 N180 1.365 . S
N181 H201 0.862 . S
C182 C177 1.501 1_655 S
C182 H183 0.961 . S
C182 H184 0.961 . S
C182 H185 0.960 . S
H183 C182 0.961 . S
H184 C182 0.961 . S
H185 C182 0.960 . S
C186 N187 1.342 . S
C186 C190 1.401 . S
C186 C191 1.499 . S
N187 Co170 1.989 . S
N187 C186 1.342 . S
N187 N188 1.388 . S
N188 Co171 1.993 . S
N188 N187 1.388 . S
N188 C189 1.346 . S
C189 N188 1.346 . S
C189 C190 1.396 . S
C189 C199 1.510 . S
C190 C186 1.401 . S
C190 C189 1.396 . S
C191 C186 1.499 . S
C191 H192 0.959 . S
C191 H193 0.960 . S
C191 H194 0.961 . S
H192 C191 0.959 . S
H193 C191 0.960 . S
H194 C191 0.961 . S
O195 Co170 1.967 . S
O195 C203 1.258 . S
O196 Co171 1.941 . S
O196 C203 1.266 . S
H197 C199 0.959 . S
H198 C199 0.961 1_655 S
C199 C189 1.510 . S
C199 H197 0.959 . S
C199 H198 0.961 1_455 S
C199 H200 0.960 . S
H200 C199 0.960 . S
H201 N181 0.862 . S
O202 Co170 1.920 . S
O202 C175 1.289 . S
C203 O195 1.258 . S
C203 O196 1.266 . S
Co204 O207 1.970 . S
Co204 N221 1.989 . S
Co204 O229 1.967 . S
Co204 O236 1.920 . S
Co205 O208 1.966 . S
Co205 N214 2.022 . S
Co205 N222 1.993 . S
Co205 O230 1.941 . S
C206 O207 1.258 . S
C206 O208 1.263 . S
O207 Co204 1.970 . S
O207 C206 1.258 . S
O208 Co205 1.966 . S
O208 C206 1.263 . S
C209 O210 1.235 1_545 S
C209 O236 1.289 . S
O210 C209 1.235 1_565 S
C211 C213 1.400 . S
C211 N214 1.351 . S
C211 C216 1.501 1_545 S
C212 C213 1.387 . S
C212 N215 1.341 . S
C213 C211 1.400 . S
C213 C212 1.387 . S
N214 Co205 2.022 . S
N214 C211 1.351 . S
N214 N215 1.365 . S
N215 C212 1.341 . S
N215 N214 1.365 . S
N215 H235 0.862 . S
C216 C211 1.501 1_565 S
C216 H217 0.961 . S
C216 H218 0.961 . S
C216 H219 0.960 . S
H217 C216 0.961 . S
H218 C216 0.961 . S
H219 C216 0.960 . S
C220 N221 1.342 1_655 S
C220 C224 1.401 . S
C220 C225 1.499 . S
N221 Co204 1.989 . S
N221 C220 1.342 1_455 S
N221 N222 1.388 . S
N222 Co205 1.993 . S
N222 N221 1.388 . S
N222 C223 1.346 1_455 S
C223 N222 1.346 1_655 S
C223 C224 1.396 . S
C223 C233 1.510 . S
C224 C220 1.401 . S
C224 C223 1.396 . S
C225 C220 1.499 . S
C225 H226 0.959 . S
C225 H227 0.960 . S
C225 H228 0.961 . S
H226 C225 0.959 . S
H227 C225 0.960 . S
H228 C225 0.961 . S
O229 Co204 1.967 . S
O229 C237 1.258 . S
O230 Co205 1.941 . S
O230 C237 1.266 . S
H231 C233 0.959 . S
H232 C233 0.961 1_565 S
C233 C223 1.510 . S
C233 H231 0.959 . S
C233 H232 0.961 1_545 S
C233 H234 0.960 . S
H234 C233 0.960 . S
H235 N215 0.862 . S
O236 Co204 1.920 . S
O236 C209 1.289 . S
C237 O229 1.258 . S
C237 O230 1.266 . S
Co238 O241 1.970 . S
Co238 N255 1.989 . S
Co238 O263 1.967 . S
Co238 O270 1.920 . S
Co239 O242 1.966 . S
Co239 N248 2.022 . S
Co239 N256 1.993 . S
Co239 O264 1.941 . S
C240 O241 1.258 . S
C240 O242 1.263 . S
O241 Co238 1.970 . S
O241 C240 1.258 . S
O242 Co239 1.966 . S
O242 C240 1.263 . S
C243 O244 1.235 . S
C243 O270 1.289 . S
O244 C243 1.235 . S
C245 C247 1.400 . S
C245 N248 1.351 . S
C245 C250 1.501 . S
C246 C247 1.387 . S
C246 N249 1.341 . S
C247 C245 1.400 . S
C247 C246 1.387 . S
N248 Co239 2.022 . S
N248 C245 1.351 . S
N248 N249 1.365 . S
N249 C246 1.341 . S
N249 N248 1.365 . S
N249 H269 0.862 . S
C250 C245 1.501 . S
C250 H251 0.961 . S
C250 H252 0.961 . S
C250 H253 0.960 . S
H251 C250 0.961 . S
H252 C250 0.961 . S
H253 C250 0.960 . S
C254 N255 1.342 1_565 S
C254 C258 1.401 . S
C254 C259 1.499 . S
N255 Co238 1.989 . S
N255 C254 1.342 1_545 S
N255 N256 1.388 . S
N256 Co239 1.993 . S
N256 N255 1.388 . S
N256 C257 1.346 1_545 S
C257 N256 1.346 1_565 S
C257 C258 1.396 . S
C257 C267 1.510 . S
C258 C254 1.401 . S
C258 C257 1.396 . S
C259 C254 1.499 . S
C259 H260 0.959 . S
C259 H261 0.960 . S
C259 H262 0.961 . S
H260 C259 0.959 . S
H261 C259 0.960 . S
H262 C259 0.961 . S
O263 Co238 1.967 . S
O263 C271 1.258 . S
O264 Co239 1.941 . S
O264 C271 1.266 . S
H265 C267 0.959 . S
H266 C267 0.961 . S
C267 C257 1.510 . S
C267 H265 0.959 . S
C267 H266 0.961 . S
C267 H268 0.960 . S
H268 C267 0.960 . S
H269 N249 0.862 . S
O270 Co238 1.920 . S
O270 C243 1.289 . S
C271 O263 1.258 . S
C271 O264 1.266 . S
Co272 O275 1.970 . S
Co272 N289 1.989 . S
Co272 O297 1.967 . S
Co272 O304 1.920 . S
Co273 O276 1.966 . S
Co273 N282 2.022 . S
Co273 N290 1.993 . S
Co273 O298 1.941 . S
C274 O275 1.258 . S
C274 O276 1.263 . S
O275 Co272 1.970 . S
O275 C274 1.258 . S
O276 Co273 1.966 . S
O276 C274 1.263 . S
C277 O278 1.235 1_565 S
C277 O304 1.289 . S
O278 C277 1.235 1_545 S
C279 C281 1.400 . S
C279 N282 1.351 . S
C279 C284 1.501 1_565 S
C280 C281 1.387 . S
C280 N283 1.341 . S
C281 C279 1.400 . S
C281 C280 1.387 . S
N282 Co273 2.022 . S
N282 C279 1.351 . S
N282 N283 1.365 . S
N283 C280 1.341 . S
N283 N282 1.365 . S
N283 H303 0.862 . S
C284 C279 1.501 1_545 S
C284 H285 0.961 . S
C284 H286 0.961 . S
C284 H287 0.960 . S
H285 C284 0.961 . S
H286 C284 0.961 . S
H287 C284 0.960 . S
C288 N289 1.342 . S
C288 C292 1.401 . S
C288 C293 1.499 . S
N289 Co272 1.989 . S
N289 C288 1.342 . S
N289 N290 1.388 . S
N290 Co273 1.993 . S
N290 N289 1.388 . S
N290 C291 1.346 . S
C291 N290 1.346 . S
C291 C292 1.396 . S
C291 C301 1.510 . S
C292 C288 1.401 . S
C292 C291 1.396 . S
C293 C288 1.499 . S
C293 H294 0.959 . S
C293 H295 0.960 . S
C293 H296 0.961 . S
H294 C293 0.959 . S
H295 C293 0.960 . S
H296 C293 0.961 . S
O297 Co272 1.967 . S
O297 C305 1.258 . S
O298 Co273 1.941 . S
O298 C305 1.266 . S
H299 C301 0.959 . S
H300 C301 0.961 1_545 S
C301 C291 1.510 . S
C301 H299 0.959 . S
C301 H300 0.961 1_565 S
C301 H302 0.960 . S
H302 C301 0.960 . S
H303 N283 0.862 . S
O304 Co272 1.920 . S
O304 C277 1.289 . S
C305 O297 1.258 . S
C305 O298 1.266 . S
Co306 O309 1.970 . S
Co306 N323 1.989 . S
Co306 O331 1.967 . S
Co306 O338 1.920 . S
Co307 O310 1.966 . S
Co307 N316 2.022 . S
Co307 N324 1.993 . S
Co307 O332 1.941 . S
C308 O309 1.258 . S
C308 O310 1.263 . S
O309 Co306 1.970 . S
O309 C308 1.258 . S
O310 Co307 1.966 . S
O310 C308 1.263 . S
C311 O312 1.235 . S
C311 O338 1.289 . S
O312 C311 1.235 . S
C313 C315 1.400 . S
C313 N316 1.351 . S
C313 C318 1.501 . S
C314 C315 1.387 . S
C314 N317 1.341 . S
C315 C313 1.400 . S
C315 C314 1.387 . S
N316 Co307 2.022 . S
N316 C313 1.351 . S
N316 N317 1.365 . S
N317 C314 1.341 . S
N317 N316 1.365 . S
N317 H337 0.862 . S
C318 C313 1.501 . S
C318 H319 0.961 . S
C318 H320 0.961 . S
C318 H321 0.960 . S
H319 C318 0.961 . S
H320 C318 0.961 . S
H321 C318 0.960 . S
C322 N323 1.342 . S
C322 C326 1.401 . S
C322 C327 1.499 . S
N323 Co306 1.989 . S
N323 C322 1.342 . S
N323 N324 1.388 . S
N324 Co307 1.993 . S
N324 N323 1.388 . S
N324 C325 1.346 . S
C325 N324 1.346 . S
C325 C326 1.396 . S
C325 C335 1.510 . S
C326 C322 1.401 . S
C326 C325 1.396 . S
C327 C322 1.499 . S
C327 H328 0.959 . S
C327 H329 0.960 . S
C327 H330 0.961 . S
H328 C327 0.959 . S
H329 C327 0.960 . S
H330 C327 0.961 . S
O331 Co306 1.967 . S
O331 C339 1.258 . S
O332 Co307 1.941 . S
O332 C339 1.266 . S
H333 C335 0.959 . S
H334 C335 0.961 . S
C335 C325 1.510 . S
C335 H333 0.959 . S
C335 H334 0.961 . S
C335 H336 0.960 . S
H336 C335 0.960 . S
H337 N317 0.862 . S
O338 Co306 1.920 . S
O338 C311 1.289 . S
C339 O331 1.258 . S
C339 O332 1.266 . S
Co340 O343 1.970 . S
Co340 N357 1.989 . S
Co340 O365 1.967 . S
Co340 O372 1.920 . S
Co341 O344 1.966 . S
Co341 N350 2.022 . S
Co341 N358 1.993 . S
Co341 O366 1.941 . S
C342 O343 1.258 . S
C342 O344 1.263 . S
O343 Co340 1.970 . S
O343 C342 1.258 . S
O344 Co341 1.966 . S
O344 C342 1.263 . S
C345 O346 1.235 . S
C345 O372 1.289 . S
O346 C345 1.235 . S
C347 C349 1.400 . S
C347 N350 1.351 . S
C347 C352 1.501 . S
C348 C349 1.387 . S
C348 N351 1.341 . S
C349 C347 1.400 . S
C349 C348 1.387 . S
N350 Co341 2.022 . S
N350 C347 1.351 . S
N350 N351 1.365 . S
N351 C348 1.341 . S
N351 N350 1.365 . S
N351 H371 0.862 . S
C352 C347 1.501 . S
C352 H353 0.961 . S
C352 H354 0.961 . S
C352 H355 0.960 . S
H353 C352 0.961 . S
H354 C352 0.961 . S
H355 C352 0.960 . S
C356 N357 1.342 1_455 S
C356 C360 1.401 . S
C356 C361 1.499 . S
N357 Co340 1.989 . S
N357 C356 1.342 1_655 S
N357 N358 1.388 . S
N358 Co341 1.993 . S
N358 N357 1.388 . S
N358 C359 1.346 1_655 S
C359 N358 1.346 1_455 S
C359 C360 1.396 . S
C359 C369 1.510 . S
C360 C356 1.401 . S
C360 C359 1.396 . S
C361 C356 1.499 . S
C361 H362 0.959 . S
C361 H363 0.960 . S
C361 H364 0.961 . S
H362 C361 0.959 . S
H363 C361 0.960 . S
H364 C361 0.961 . S
O365 Co340 1.967 . S
O365 C373 1.258 . S
O366 Co341 1.941 . S
O366 C373 1.266 . S
H367 C369 0.959 . S
H368 C369 0.961 . S
C369 C359 1.510 . S
C369 H367 0.959 . S
C369 H368 0.961 . S
C369 H370 0.960 . S
H370 C369 0.960 . S
H371 N351 0.862 . S
O372 Co340 1.920 . S
O372 C345 1.289 . S
C373 O365 1.258 . S
C373 O366 1.266 . S
Co374 O377 1.970 . S
Co374 N391 1.989 . S
Co374 O399 1.967 . S
Co374 O406 1.920 . S
Co375 O378 1.966 . S
Co375 N384 2.022 . S
Co375 N392 1.993 . S
Co375 O400 1.941 . S
C376 O377 1.258 . S
C376 O378 1.263 . S
O377 Co374 1.970 . S
O377 C376 1.258 . S
O378 Co375 1.966 . S
O378 C376 1.263 . S
C379 O380 1.235 1_655 S
C379 O406 1.289 . S
O380 C379 1.235 1_455 S
C381 C383 1.400 . S
C381 N384 1.351 . S
C381 C386 1.501 1_655 S
C382 C383 1.387 . S
C382 N385 1.341 . S
C383 C381 1.400 . S
C383 C382 1.387 . S
N384 Co375 2.022 . S
N384 C381 1.351 . S
N384 N385 1.365 . S
N385 C382 1.341 . S
N385 N384 1.365 . S
N385 H405 0.862 . S
C386 C381 1.501 1_455 S
C386 H387 0.961 . S
C386 H388 0.961 . S
C386 H389 0.960 . S
H387 C386 0.961 . S
H388 C386 0.961 . S
H389 C386 0.960 . S
C390 N391 1.342 1_545 S
C390 C394 1.401 . S
C390 C395 1.499 . S
N391 Co374 1.989 . S
N391 C390 1.342 1_565 S
N391 N392 1.388 . S
N392 Co375 1.993 . S
N392 N391 1.388 . S
N392 C393 1.346 1_565 S
C393 N392 1.346 1_545 S
C393 C394 1.396 . S
C393 C403 1.510 . S
C394 C390 1.401 . S
C394 C393 1.396 . S
C395 C390 1.499 . S
C395 H396 0.959 . S
C395 H397 0.960 . S
C395 H398 0.961 . S
H396 C395 0.959 . S
H397 C395 0.960 . S
H398 C395 0.961 . S
O399 Co374 1.967 . S
O399 C407 1.258 . S
O400 Co375 1.941 . S
O400 C407 1.266 . S
H401 C403 0.959 . S
H402 C403 0.961 1_455 S
C403 C393 1.510 . S
C403 H401 0.959 . S
C403 H402 0.961 1_655 S
C403 H404 0.960 . S
H404 C403 0.960 . S
H405 N385 0.862 . S
O406 Co374 1.920 . S
O406 C379 1.289 . S
C407 O399 1.258 . S
C407 O400 1.266 . S
Co408 O411 1.970 . S
Co408 N425 1.989 . S
Co408 O433 1.967 . S
Co408 O440 1.920 . S
Co409 O412 1.966 . S
Co409 N418 2.022 . S
Co409 N426 1.993 . S
Co409 O434 1.941 . S
C410 O411 1.258 . S
C410 O412 1.263 . S
O411 Co408 1.970 . S
O411 C410 1.258 . S
O412 Co409 1.966 . S
O412 C410 1.263 . S
C413 O414 1.235 . S
C413 O440 1.289 . S
O414 C413 1.235 . S
C415 C417 1.400 . S
C415 N418 1.351 . S
C415 C420 1.501 . S
C416 C417 1.387 . S
C416 N419 1.341 . S
C417 C415 1.400 . S
C417 C416 1.387 . S
N418 Co409 2.022 . S
N418 C415 1.351 . S
N418 N419 1.365 . S
N419 C416 1.341 . S
N419 N418 1.365 . S
N419 H439 0.862 . S
C420 C415 1.501 . S
C420 H421 0.961 . S
C420 H422 0.961 . S
C420 H423 0.960 . S
H421 C420 0.961 . S
H422 C420 0.961 . S
H423 C420 0.960 . S
C424 N425 1.342 . S
C424 C428 1.401 . S
C424 C429 1.499 . S
N425 Co408 1.989 . S
N425 C424 1.342 . S
N425 N426 1.388 . S
N426 Co409 1.993 . S
N426 N425 1.388 . S
N426 C427 1.346 . S
C427 N426 1.346 . S
C427 C428 1.396 . S
C427 C437 1.510 . S
C428 C424 1.401 . S
C428 C427 1.396 . S
C429 C424 1.499 . S
C429 H430 0.959 . S
C429 H431 0.960 . S
C429 H432 0.961 . S
H430 C429 0.959 . S
H431 C429 0.960 . S
H432 C429 0.961 . S
O433 Co408 1.967 . S
O433 C441 1.258 . S
O434 Co409 1.941 . S
O434 C441 1.266 . S
H435 C437 0.959 . S
H436 C437 0.961 . S
C437 C427 1.510 . S
C437 H435 0.959 . S
C437 H436 0.961 . S
C437 H438 0.960 . S
H438 C437 0.960 . S
H439 N419 0.862 . S
O440 Co408 1.920 . S
O440 C413 1.289 . S
C441 O433 1.258 . S
C441 O434 1.266 . S
Co442 O445 1.970 . S
Co442 N459 1.989 . S
Co442 O467 1.967 . S
Co442 O474 1.920 . S
Co443 O446 1.966 . S
Co443 N452 2.022 . S
Co443 N460 1.993 . S
Co443 O468 1.941 . S
C444 O445 1.258 . S
C444 O446 1.263 . S
O445 Co442 1.970 . S
O445 C444 1.258 . S
O446 Co443 1.966 . S
O446 C444 1.263 . S
C447 O448 1.235 1_655 S
C447 O474 1.289 . S
O448 C447 1.235 1_455 S
C449 C451 1.400 . S
C449 N452 1.351 . S
C449 C454 1.501 1_655 S
C450 C451 1.387 . S
C450 N453 1.341 . S
C451 C449 1.400 . S
C451 C450 1.387 . S
N452 Co443 2.022 . S
N452 C449 1.351 . S
N452 N453 1.365 . S
N453 C450 1.341 . S
N453 N452 1.365 . S
N453 H473 0.862 . S
C454 C449 1.501 1_455 S
C454 H455 0.961 . S
C454 H456 0.961 . S
C454 H457 0.960 . S
H455 C454 0.961 . S
H456 C454 0.961 . S
H457 C454 0.960 . S
C458 N459 1.342 . S
C458 C462 1.401 . S
C458 C463 1.499 . S
N459 Co442 1.989 . S
N459 C458 1.342 . S
N459 N460 1.388 . S
N460 Co443 1.993 . S
N460 N459 1.388 . S
N460 C461 1.346 . S
C461 N460 1.346 . S
C461 C462 1.396 . S
C461 C471 1.510 . S
C462 C458 1.401 . S
C462 C461 1.396 . S
C463 C458 1.499 . S
C463 H464 0.959 . S
C463 H465 0.960 . S
C463 H466 0.961 . S
H464 C463 0.959 . S
H465 C463 0.960 . S
H466 C463 0.961 . S
O467 Co442 1.967 . S
O467 C475 1.258 . S
O468 Co443 1.941 . S
O468 C475 1.266 . S
H469 C471 0.959 . S
H470 C471 0.961 1_455 S
C471 C461 1.510 . S
C471 H469 0.959 . S
C471 H470 0.961 1_655 S
C471 H472 0.960 . S
H472 C471 0.960 . S
H473 N453 0.862 . S
O474 Co442 1.920 . S
O474 C447 1.289 . S
C475 O467 1.258 . S
C475 O468 1.266 . S
Co476 O479 1.970 . S
Co476 N493 1.989 . S
Co476 O501 1.967 . S
Co476 O508 1.920 . S
Co477 O480 1.966 . S
Co477 N486 2.022 . S
Co477 N494 1.993 . S
Co477 O502 1.941 . S
C478 O479 1.258 . S
C478 O480 1.263 . S
O479 Co476 1.970 . S
O479 C478 1.258 . S
O480 Co477 1.966 . S
O480 C478 1.263 . S
C481 O482 1.235 1_565 S
C481 O508 1.289 . S
O482 C481 1.235 1_545 S
C483 C485 1.400 . S
C483 N486 1.351 . S
C483 C488 1.501 1_565 S
C484 C485 1.387 . S
C484 N487 1.341 . S
C485 C483 1.400 . S
C485 C484 1.387 . S
N486 Co477 2.022 . S
N486 C483 1.351 . S
N486 N487 1.365 . S
N487 C484 1.341 . S
N487 N486 1.365 . S
N487 H507 0.862 . S
C488 C483 1.501 1_545 S
C488 H489 0.961 . S
C488 H490 0.961 . S
C488 H491 0.960 . S
H489 C488 0.961 . S
H490 C488 0.961 . S
H491 C488 0.960 . S
C492 N493 1.342 1_455 S
C492 C496 1.401 . S
C492 C497 1.499 . S
N493 Co476 1.989 . S
N493 C492 1.342 1_655 S
N493 N494 1.388 . S
N494 Co477 1.993 . S
N494 N493 1.388 . S
N494 C495 1.346 1_655 S
C495 N494 1.346 1_455 S
C495 C496 1.396 . S
C495 C505 1.510 . S
C496 C492 1.401 . S
C496 C495 1.396 . S
C497 C492 1.499 . S
C497 H498 0.959 . S
C497 H499 0.960 . S
C497 H500 0.961 . S
H498 C497 0.959 . S
H499 C497 0.960 . S
H500 C497 0.961 . S
O501 Co476 1.967 . S
O501 C509 1.258 . S
O502 Co477 1.941 . S
O502 C509 1.266 . S
H503 C505 0.959 . S
H504 C505 0.961 1_545 S
C505 C495 1.510 . S
C505 H503 0.959 . S
C505 H504 0.961 1_565 S
C505 H506 0.960 . S
H506 C505 0.960 . S
H507 N487 0.862 . S
O508 Co476 1.920 . S
O508 C481 1.289 . S
C509 O501 1.258 . S
C509 O502 1.266 . S
Co510 O513 1.970 . S
Co510 N527 1.989 . S
Co510 O535 1.967 . S
Co510 O542 1.920 . S
Co511 O514 1.966 . S
Co511 N520 2.022 . S
Co511 N528 1.993 . S
Co511 O536 1.941 . S
C512 O513 1.258 . S
C512 O514 1.263 . S
O513 Co510 1.970 . S
O513 C512 1.258 . S
O514 Co511 1.966 . S
O514 C512 1.263 . S
C515 O516 1.235 . S
C515 O542 1.289 . S
O516 C515 1.235 . S
C517 C519 1.400 . S
C517 N520 1.351 . S
C517 C522 1.501 . S
C518 C519 1.387 . S
C518 N521 1.341 . S
C519 C517 1.400 . S
C519 C518 1.387 . S
N520 Co511 2.022 . S
N520 C517 1.351 . S
N520 N521 1.365 . S
N521 C518 1.341 . S
N521 N520 1.365 . S
N521 H541 0.862 . S
C522 C517 1.501 . S
C522 H523 0.961 . S
C522 H524 0.961 . S
C522 H525 0.960 . S
H523 C522 0.961 . S
H524 C522 0.961 . S
H525 C522 0.960 . S
C526 N527 1.342 1_545 S
C526 C530 1.401 . S
C526 C531 1.499 . S
N527 Co510 1.989 . S
N527 C526 1.342 1_565 S
N527 N528 1.388 . S
N528 Co511 1.993 . S
N528 N527 1.388 . S
N528 C529 1.346 1_565 S
C529 N528 1.346 1_545 S
C529 C530 1.396 . S
C529 C539 1.510 . S
C530 C526 1.401 . S
C530 C529 1.396 . S
C531 C526 1.499 . S
C531 H532 0.959 . S
C531 H533 0.960 . S
C531 H534 0.961 . S
H532 C531 0.959 . S
H533 C531 0.960 . S
H534 C531 0.961 . S
O535 Co510 1.967 . S
O535 C543 1.258 . S
O536 Co511 1.941 . S
O536 C543 1.266 . S
H537 C539 0.959 . S
H538 C539 0.961 . S
C539 C529 1.510 . S
C539 H537 0.959 . S
C539 H538 0.961 . S
C539 H540 0.960 . S
H540 C539 0.960 . S
H541 N521 0.862 . S
O542 Co510 1.920 . S
O542 C515 1.289 . S
C543 O535 1.258 . S
C543 O536 1.266 . S
C544 C545 1.387 . S
C544 H548 0.950 1_545 S
C544 C553 1.390 . S
C545 C544 1.387 . S
C545 C547 1.387 . S
H546 C553 0.950 . S
C547 C545 1.387 . S
C547 C549 1.390 . S
C547 H551 0.950 . S
H548 C544 0.950 1_565 S
C549 C547 1.390 . S
C549 C550 1.387 . S
C549 H552 0.950 . S
C550 C549 1.387 . S
C550 C553 1.387 . S
H551 C547 0.950 . S
H552 C549 0.950 . S
C553 C544 1.390 . S
C553 H546 0.950 . S
C553 C550 1.387 . S
C554 C555 1.387 . S
C554 H558 0.950 . S
C554 C563 1.390 . S
C555 C554 1.387 . S
C555 C557 1.387 . S
H556 C563 0.950 . S
C557 C555 1.387 . S
C557 C559 1.390 . S
C557 H561 0.950 . S
H558 C554 0.950 . S
C559 C557 1.390 . S
C559 C560 1.387 . S
C559 H562 0.950 . S
C560 C559 1.387 . S
C560 C563 1.387 . S
H561 C557 0.950 . S
H562 C559 0.950 . S
C563 C554 1.390 . S
C563 H556 0.950 . S
C563 C560 1.387 . S
C564 C565 1.387 . S
C564 H568 0.950 1_455 S
C564 C573 1.390 . S
C565 C564 1.387 . S
C565 C567 1.387 . S
H566 C573 0.950 1_655 S
C567 C565 1.387 . S
C567 C569 1.390 . S
C567 H571 0.950 . S
H568 C564 0.950 1_655 S
C569 C567 1.390 . S
C569 C570 1.387 . S
C569 H572 0.950 . S
C570 C569 1.387 . S
C570 C573 1.387 . S
H571 C567 0.950 . S
H572 C569 0.950 . S
C573 C564 1.390 . S
C573 H566 0.950 1_455 S
C573 C570 1.387 . S
C574 C575 1.387 . S
C574 H578 0.950 . S
C574 C583 1.390 . S
C575 C574 1.387 . S
C575 C577 1.387 . S
H576 C583 0.950 . S
C577 C575 1.387 . S
C577 C579 1.390 . S
C577 H581 0.950 1_545 S
H578 C574 0.950 . S
C579 C577 1.390 . S
C579 C580 1.387 . S
C579 H582 0.950 1_545 S
C580 C579 1.387 . S
C580 C583 1.387 . S
H581 C577 0.950 1_565 S
H582 C579 0.950 1_565 S
C583 C574 1.390 . S
C583 H576 0.950 . S
C583 C580 1.387 . S
C584 C585 1.387 . S
C584 H588 0.950 . S
C584 C593 1.390 . S
C585 C584 1.387 . S
C585 C587 1.387 . S
H586 C593 0.950 . S
C587 C585 1.387 . S
C587 C589 1.390 . S
C587 H591 0.950 1_565 S
H588 C584 0.950 . S
C589 C587 1.390 . S
C589 C590 1.387 . S
C589 H592 0.950 1_565 S
C590 C589 1.387 . S
C590 C593 1.387 . S
H591 C587 0.950 1_545 S
H592 C589 0.950 1_545 S
C593 C584 1.390 . S
C593 H586 0.950 . S
C593 C590 1.387 . S
C594 C595 1.387 . S
C594 H598 0.950 . S
C594 C603 1.390 . S
C595 C594 1.387 . S
C595 C597 1.387 . S
H596 C603 0.950 . S
C597 C595 1.387 . S
C597 C599 1.390 . S
C597 H601 0.950 . S
H598 C594 0.950 . S
C599 C597 1.390 . S
C599 C600 1.387 . S
C599 H602 0.950 . S
C600 C599 1.387 . S
C600 C603 1.387 . S
H601 C597 0.950 . S
H602 C599 0.950 . S
C603 C594 1.390 . S
C603 H596 0.950 . S
C603 C600 1.387 . S
C604 C605 1.387 . S
C604 H608 0.950 . S
C604 C613 1.390 . S
C605 C604 1.387 . S
C605 C607 1.387 . S
H606 C613 0.950 . S
C607 C605 1.387 . S
C607 C609 1.390 . S
C607 H611 0.950 . S
H608 C604 0.950 . S
C609 C607 1.390 . S
C609 C610 1.387 . S
C609 H612 0.950 . S
C610 C609 1.387 . S
C610 C613 1.387 . S
H611 C607 0.950 . S
H612 C609 0.950 . S
C613 C604 1.390 . S
C613 H606 0.950 . S
C613 C610 1.387 . S
C614 C615 1.387 . S
C614 H618 0.950 . S
C614 C623 1.390 . S
C615 C614 1.387 . S
C615 C617 1.387 . S
H616 C623 0.950 . S
C617 C615 1.387 . S
C617 C619 1.390 . S
C617 H621 0.950 . S
H618 C614 0.950 . S
C619 C617 1.390 . S
C619 C620 1.387 . S
C619 H622 0.950 1_565 S
C620 C619 1.387 . S
C620 C623 1.387 . S
H621 C617 0.950 . S
H622 C619 0.950 1_545 S
C623 C614 1.390 . S
C623 H616 0.950 . S
C623 C620 1.387 . S
C624 C625 1.387 . S
C624 H628 0.950 . S
C624 C633 1.390 1_554 S
C625 C624 1.387 . S
C625 C627 1.387 1_545 S
H626 C633 0.950 . S
C627 C625 1.387 1_565 S
C627 C629 1.390 1_554 S
C627 H631 0.950 . S
H628 C624 0.950 . S
C629 C627 1.390 1_556 S
C629 C630 1.387 . S
C629 H632 0.950 . S
C630 C629 1.387 . S
C630 C633 1.387 1_565 S
H631 C627 0.950 . S
H632 C629 0.950 . S
C633 C624 1.390 1_556 S
C633 H626 0.950 . S
C633 C630 1.387 1_545 S
C634 C635 1.387 . S
C634 H638 0.950 . S
C634 C643 1.390 . S
C635 C634 1.387 . S
C635 C637 1.387 . S
H636 C643 0.950 . S
C637 C635 1.387 . S
C637 C639 1.390 . S
C637 H641 0.950 . S
H638 C634 0.950 . S
C639 C637 1.390 . S
C639 C640 1.387 . S
C639 H642 0.950 . S
C640 C639 1.387 . S
C640 C643 1.387 . S
H641 C637 0.950 . S
H642 C639 0.950 . S
C643 C634 1.390 . S
C643 H636 0.950 . S
C643 C640 1.387 . S
C644 C645 1.387 . S
C644 H648 0.950 . S
C644 C653 1.390 1_656 S
C645 C644 1.387 . S
C645 C647 1.387 . S
H646 C653 0.950 . S
C647 C645 1.387 . S
C647 C649 1.390 1_656 S
C647 H651 0.950 . S
H648 C644 0.950 . S
C649 C647 1.390 1_454 S
C649 C650 1.387 . S
C649 H652 0.950 . S
C650 C649 1.387 . S
C650 C653 1.387 . S
H651 C647 0.950 . S
H652 C649 0.950 . S
C653 C644 1.390 1_454 S
C653 H646 0.950 . S
C653 C650 1.387 . S
C654 C655 1.387 1_655 S
C654 H658 0.950 . S
C654 C663 1.390 1_545 S
C655 C654 1.387 1_455 S
C655 C657 1.387 . S
H656 C663 0.950 . S
C657 C655 1.387 . S
C657 C659 1.390 1_545 S
C657 H661 0.950 . S
H658 C654 0.950 . S
C659 C657 1.390 1_565 S
C659 C660 1.387 1_455 S
C659 H662 0.950 . S
C660 C659 1.387 1_655 S
C660 C663 1.387 . S
H661 C657 0.950 . S
H662 C659 0.950 . S
C663 C654 1.390 1_565 S
C663 H656 0.950 . S
C663 C660 1.387 . S
C664 C665 1.387 . S
C664 H668 0.950 . S
C664 C673 1.390 1_554 S
C665 C664 1.387 . S
C665 C667 1.387 . S
H666 C673 0.950 . S
C667 C665 1.387 . S
C667 C669 1.390 1_554 S
C667 H671 0.950 . S
H668 C664 0.950 . S
C669 C667 1.390 1_556 S
C669 C670 1.387 . S
C669 H672 0.950 . S
C670 C669 1.387 . S
C670 C673 1.387 . S
H671 C667 0.950 . S
H672 C669 0.950 . S
C673 C664 1.390 1_556 S
C673 H666 0.950 . S
C673 C670 1.387 . S
C674 C675 1.387 . S
C674 H678 0.950 . S
C674 C683 1.390 . S
C675 C674 1.387 . S
C675 C677 1.387 1_655 S
H676 C683 0.950 . S
C677 C675 1.387 1_455 S
C677 C679 1.390 . S
C677 H681 0.950 . S
H678 C674 0.950 . S
C679 C677 1.390 . S
C679 C680 1.387 . S
C679 H682 0.950 . S
C680 C679 1.387 . S
C680 C683 1.387 1_455 S
H681 C677 0.950 . S
H682 C679 0.950 . S
C683 C674 1.390 . S
C683 H676 0.950 . S
C683 C680 1.387 1_655 S
C684 C685 1.387 . S
C684 H688 0.950 . S
C684 C693 1.390 1_456 S
C685 C684 1.387 . S
C685 C687 1.387 1_545 S
H686 C693 0.950 . S
C687 C685 1.387 1_565 S
C687 C689 1.390 1_456 S
C687 H691 0.950 . S
H688 C684 0.950 . S
C689 C687 1.390 1_654 S
C689 C690 1.387 . S
C689 H692 0.950 . S
C690 C689 1.387 . S
C690 C693 1.387 1_565 S
H691 C687 0.950 . S
H692 C689 0.950 . S
C693 C684 1.390 1_654 S
C693 H686 0.950 . S
C693 C690 1.387 1_545 S
C694 C695 1.387 . S
C694 H698 0.950 . S
C694 C703 1.390 1_565 S
C695 C694 1.387 . S
C695 C697 1.387 . S
H696 C703 0.950 . S
C697 C695 1.387 . S
C697 C699 1.390 1_565 S
C697 H701 0.950 . S
H698 C694 0.950 . S
C699 C697 1.390 1_545 S
C699 C700 1.387 . S
C699 H702 0.950 . S
C700 C699 1.387 . S
C700 C703 1.387 . S
H701 C697 0.950 . S
H702 C699 0.950 . S
C703 C694 1.390 1_545 S
C703 H696 0.950 . S
C703 C700 1.387 . S
C704 C705 1.387 . S
C704 H708 0.950 . S
C704 C713 1.390 . S
C705 C704 1.387 . S
C705 C707 1.387 1_545 S
H706 C713 0.950 . S
C707 C705 1.387 1_565 S
C707 C709 1.390 . S
C707 H711 0.950 . S
H708 C704 0.950 . S
C709 C707 1.390 . S
C709 C710 1.387 1_565 S
C709 H712 0.950 . S
C710 C709 1.387 1_545 S
C710 C713 1.387 . S
H711 C707 0.950 . S
H712 C709 0.950 . S
C713 C704 1.390 . S
C713 H706 0.950 . S
C713 C710 1.387 . S
C714 C715 1.387 . S
C714 H718 0.950 . S
C714 C723 1.390 . S
C715 C714 1.387 . S
C715 C717 1.387 . S
H716 C723 0.950 . S
C717 C715 1.387 . S
C717 C719 1.390 . S
C717 H721 0.950 . S
H718 C714 0.950 . S
C719 C717 1.390 . S
C719 C720 1.387 . S
C719 H722 0.950 . S
C720 C719 1.387 . S
C720 C723 1.387 . S
H721 C717 0.950 . S
H722 C719 0.950 . S
C723 C714 1.390 . S
C723 H716 0.950 . S
C723 C720 1.387 . S
C724 C725 1.387 . S
C724 H728 0.950 . S
C724 C733 1.390 . S
C725 C724 1.387 . S
C725 C727 1.387 . S
H726 C733 0.950 . S
C727 C725 1.387 . S
C727 C729 1.390 . S
C727 H731 0.950 . S
H728 C724 0.950 . S
C729 C727 1.390 . S
C729 C730 1.387 . S
C729 H732 0.950 . S
C730 C729 1.387 . S
C730 C733 1.387 . S
H731 C727 0.950 . S
H732 C729 0.950 . S
C733 C724 1.390 . S
C733 H726 0.950 . S
C733 C730 1.387 . S
C734 C735 1.387 . S
C734 H738 0.950 . S
C734 C743 1.390 . S
C735 C734 1.387 . S
C735 C737 1.387 . S
H736 C743 0.950 . S
C737 C735 1.387 . S
C737 C739 1.390 . S
C737 H741 0.949 1_455 S
H738 C734 0.950 . S
C739 C737 1.390 . S
C739 C740 1.387 . S
C739 H742 0.950 . S
C740 C739 1.387 . S
C740 C743 1.387 . S
H741 C737 0.949 1_655 S
H742 C739 0.950 . S
C743 C734 1.390 . S
C743 H736 0.950 . S
C743 C740 1.387 . S
C744 C745 1.387 . S
C744 H748 0.950 . S
C744 C753 1.390 . S
C745 C744 1.387 . S
C745 C747 1.387 . S
H746 C753 0.950 . S
C747 C745 1.387 . S
C747 C749 1.390 . S
C747 H751 0.950 . S
H748 C744 0.950 . S
C749 C747 1.390 . S
C749 C750 1.387 . S
C749 H752 0.950 . S
C750 C749 1.387 . S
C750 C753 1.387 . S
H751 C747 0.950 . S
H752 C749 0.950 . S
C753 C744 1.390 . S
C753 H746 0.950 . S
C753 C750 1.387 . S
C754 C755 1.387 . S
C754 H758 0.950 . S
C754 C763 1.390 . S
C755 C754 1.387 . S
C755 C757 1.387 1_455 S
H756 C763 0.950 . S
C757 C755 1.387 1_655 S
C757 C759 1.390 . S
C757 H761 0.950 . S
H758 C754 0.950 . S
C759 C757 1.390 . S
C759 C760 1.387 1_655 S
C759 H762 0.950 . S
C760 C759 1.387 1_455 S
C760 C763 1.387 . S
H761 C757 0.950 . S
H762 C759 0.950 . S
C763 C754 1.390 . S
C763 H756 0.950 . S
C763 C760 1.387 . S
C764 C765 1.387 . S
C764 H768 0.950 . S
C764 C773 1.390 . S
C765 C764 1.387 . S
C765 C767 1.387 . S
H766 C773 0.950 . S
C767 C765 1.387 . S
C767 C769 1.390 1_545 S
C767 H771 0.950 . S
H768 C764 0.950 . S
C769 C767 1.390 1_565 S
C769 C770 1.387 1_565 S
C769 H772 0.950 . S
C770 C769 1.387 1_545 S
C770 C773 1.387 . S
H771 C767 0.950 . S
H772 C769 0.950 . S
C773 C764 1.390 . S
C773 H766 0.950 . S
C773 C770 1.387 . S
C774 C775 1.387 . S
C774 H778 0.950 . S
C774 C783 1.390 . S
C775 C774 1.387 . S
C775 C777 1.387 . S
H776 C783 0.950 . S
C777 C775 1.387 . S
C777 C779 1.390 . S
C777 H781 0.950 . S
H778 C774 0.950 . S
C779 C777 1.390 . S
C779 C780 1.387 . S
C779 H782 0.950 . S
C780 C779 1.387 . S
C780 C783 1.387 . S
H781 C777 0.950 . S
H782 C779 0.950 . S
C783 C774 1.390 . S
C783 H776 0.950 . S
C783 C780 1.387 . S
C784 C785 1.387 . S
C784 H788 0.950 1_565 S
C784 C793 1.390 . S
C785 C784 1.387 . S
C785 C787 1.387 . S
H786 C793 0.950 . S
C787 C785 1.387 . S
C787 C789 1.390 . S
C787 H791 0.950 . S
H788 C784 0.950 1_545 S
C789 C787 1.390 . S
C789 C790 1.387 . S
C789 H792 0.950 . S
C790 C789 1.387 . S
C790 C793 1.387 . S
H791 C787 0.950 . S
H792 C789 0.950 . S
C793 C784 1.390 . S
C793 H786 0.950 . S
C793 C790 1.387 . S
C794 C795 1.387 . S
C794 H798 0.950 . S
C794 C803 1.390 . S
C795 C794 1.387 . S
C795 C797 1.387 . S
H796 C803 0.950 . S
C797 C795 1.387 . S
C797 C799 1.390 . S
C797 H801 0.950 . S
H798 C794 0.950 . S
C799 C797 1.390 . S
C799 C800 1.387 . S
C799 H802 0.950 . S
C800 C799 1.387 . S
C800 C803 1.387 . S
H801 C797 0.950 . S
H802 C799 0.950 . S
C803 C794 1.390 . S
C803 H796 0.950 . S
C803 C800 1.387 . S
C804 C805 1.387 . S
C804 H808 0.950 . S
C804 C813 1.390 . S
C805 C804 1.387 . S
C805 C807 1.387 . S
H806 C813 0.950 . S
C807 C805 1.387 . S
C807 C809 1.390 . S
C807 H811 0.950 . S
H808 C804 0.950 . S
C809 C807 1.390 . S
C809 C810 1.387 . S
C809 H812 0.950 . S
C810 C809 1.387 . S
C810 C813 1.387 . S
H811 C807 0.950 . S
H812 C809 0.950 . S
C813 C804 1.390 . S
C813 H806 0.950 . S
C813 C810 1.387 . S
C814 C815 1.387 . S
C814 H818 0.950 . S
C814 C823 1.390 . S
C815 C814 1.387 . S
C815 C817 1.387 . S
H816 C823 0.950 . S
C817 C815 1.387 . S
C817 C819 1.390 . S
C817 H821 0.950 . S
H818 C814 0.950 . S
C819 C817 1.390 . S
C819 C820 1.387 . S
C819 H822 0.950 . S
C820 C819 1.387 . S
C820 C823 1.387 . S
H821 C817 0.950 . S
H822 C819 0.950 . S
C823 C814 1.390 . S
C823 H816 0.950 . S
C823 C820 1.387 . S
C824 C825 1.387 . S
C824 H828 0.950 . S
C824 C833 1.390 . S
C825 C824 1.387 . S
C825 C827 1.387 . S
H826 C833 0.950 . S
C827 C825 1.387 . S
C827 C829 1.390 . S
C827 H831 0.950 . S
H828 C824 0.950 . S
C829 C827 1.390 . S
C829 C830 1.387 . S
C829 H832 0.950 . S
C830 C829 1.387 . S
C830 C833 1.387 . S
H831 C827 0.950 . S
H832 C829 0.950 . S
C833 C824 1.390 . S
C833 H826 0.950 . S
C833 C830 1.387 . S
C834 C835 1.387 . S
C834 H838 0.950 1_655 S
C834 C843 1.390 . S
C835 C834 1.387 . S
C835 C837 1.387 . S
H836 C843 0.950 . S
C837 C835 1.387 . S
C837 C839 1.390 . S
C837 H841 0.950 . S
H838 C834 0.950 1_455 S
C839 C837 1.390 . S
C839 C840 1.387 . S
C839 H842 0.950 . S
C840 C839 1.387 . S
C840 C843 1.387 . S
H841 C837 0.950 . S
H842 C839 0.950 . S
C843 C834 1.390 . S
C843 H836 0.950 . S
C843 C840 1.387 . S
C844 C845 1.387 . S
C844 H848 0.950 . S
C844 C853 1.390 . S
C845 C844 1.387 . S
C845 C847 1.387 . S
H846 C853 0.950 . S
C847 C845 1.387 . S
C847 C849 1.390 . S
C847 H851 0.950 . S
H848 C844 0.950 . S
C849 C847 1.390 . S
C849 C850 1.387 . S
C849 H852 0.950 1_565 S
C850 C849 1.387 . S
C850 C853 1.387 . S
H851 C847 0.950 . S
H852 C849 0.950 1_545 S
C853 C844 1.390 . S
C853 H846 0.950 . S
C853 C850 1.387 . S
C854 C855 1.387 . S
C854 H858 0.950 . S
C854 C863 1.390 . S
C855 C854 1.387 . S
C855 C857 1.387 . S
H856 C863 0.950 . S
C857 C855 1.387 . S
C857 C859 1.390 . S
C857 H861 0.950 . S
H858 C854 0.950 . S
C859 C857 1.390 . S
C859 C860 1.387 . S
C859 H862 0.950 . S
C860 C859 1.387 . S
C860 C863 1.387 . S
H861 C857 0.950 . S
H862 C859 0.950 . S
C863 C854 1.390 . S
C863 H856 0.950 . S
C863 C860 1.387 . S
C864 C865 1.387 . S
C864 H868 0.950 . S
C864 C873 1.390 . S
C865 C864 1.387 . S
C865 C867 1.387 . S
H866 C873 0.950 . S
C867 C865 1.387 . S
C867 C869 1.390 . S
C867 H871 0.950 . S
H868 C864 0.950 . S
C869 C867 1.390 . S
C869 C870 1.387 . S
C869 H872 0.950 . S
C870 C869 1.387 . S
C870 C873 1.387 . S
H871 C867 0.950 . S
H872 C869 0.950 . S
C873 C864 1.390 . S
C873 H866 0.950 . S
C873 C870 1.387 . S
C874 C875 1.387 . S
C874 H878 0.950 . S
C874 C883 1.390 . S
C875 C874 1.387 . S
C875 C877 1.387 . S
H876 C883 0.950 . S
C877 C875 1.387 . S
C877 C879 1.390 . S
C877 H881 0.950 . S
H878 C874 0.950 . S
C879 C877 1.390 . S
C879 C880 1.387 . S
C879 H882 0.950 . S
C880 C879 1.387 . S
C880 C883 1.387 . S
H881 C877 0.950 . S
H882 C879 0.950 . S
C883 C874 1.390 . S
C883 H876 0.950 . S
C883 C880 1.387 . S
C884 C885 1.387 . S
C884 H888 0.950 . S
C884 C893 1.390 . S
C885 C884 1.387 . S
C885 C887 1.387 . S
H886 C893 0.950 . S
C887 C885 1.387 . S
C887 C889 1.390 . S
C887 H891 0.950 . S
H888 C884 0.950 . S
C889 C887 1.390 . S
C889 C890 1.387 . S
C889 H892 0.950 . S
C890 C889 1.387 . S
C890 C893 1.387 . S
H891 C887 0.950 . S
H892 C889 0.950 . S
C893 C884 1.390 . S
C893 H886 0.950 . S
C893 C890 1.387 . S
C894 C895 1.387 . S
C894 H898 0.950 . S
C894 C903 1.390 . S
C895 C894 1.387 . S
C895 C897 1.387 . S
H896 C903 0.950 . S
C897 C895 1.387 . S
C897 C899 1.390 . S
C897 H901 0.950 . S
H898 C894 0.950 . S
C899 C897 1.390 . S
C899 C900 1.387 . S
C899 H902 0.950 . S
C900 C899 1.387 . S
C900 C903 1.387 . S
H901 C897 0.950 . S
H902 C899 0.950 . S
C903 C894 1.390 . S
C903 H896 0.950 . S
C903 C900 1.387 . S
C904 C905 1.387 . S
C904 H908 0.950 . S
C904 C913 1.390 . S
C905 C904 1.387 . S
C905 C907 1.387 . S
H906 C913 0.950 . S
C907 C905 1.387 . S
C907 C909 1.390 . S
C907 H911 0.950 . S
H908 C904 0.950 . S
C909 C907 1.390 . S
C909 C910 1.387 . S
C909 H912 0.950 . S
C910 C909 1.387 . S
C910 C913 1.387 . S
H911 C907 0.950 . S
H912 C909 0.950 . S
C913 C904 1.390 . S
C913 H906 0.950 . S
C913 C910 1.387 . S
C914 C915 1.387 . S
C914 H918 0.950 . S
C914 C923 1.390 . S
C915 C914 1.387 . S
C915 C917 1.387 . S
H916 C923 0.950 . S
C917 C915 1.387 . S
C917 C919 1.390 . S
C917 H921 0.950 . S
H918 C914 0.950 . S
C919 C917 1.390 . S
C919 C920 1.387 . S
C919 H922 0.950 . S
C920 C919 1.387 . S
C920 C923 1.387 . S
H921 C917 0.950 . S
H922 C919 0.950 . S
C923 C914 1.390 . S
C923 H916 0.950 . S
C923 C920 1.387 . S
C924 C925 1.387 . S
C924 H928 0.950 . S
C924 C933 1.390 . S
C925 C924 1.387 . S
C925 C927 1.387 . S
H926 C933 0.950 . S
C927 C925 1.387 . S
C927 C929 1.390 . S
C927 H931 0.950 . S
H928 C924 0.950 . S
C929 C927 1.390 . S
C929 C930 1.387 . S
C929 H932 0.950 . S
C930 C929 1.387 . S
C930 C933 1.387 . S
H931 C927 0.950 . S
H932 C929 0.950 . S
C933 C924 1.390 . S
C933 H926 0.950 . S
C933 C930 1.387 . S
C934 C935 1.387 . S
C934 H938 0.950 . S
C934 C943 1.390 . S
C935 C934 1.387 . S
C935 C937 1.387 . S
H936 C943 0.950 . S
C937 C935 1.387 . S
C937 C939 1.390 . S
C937 H941 0.950 . S
H938 C934 0.950 . S
C939 C937 1.390 . S
C939 C940 1.387 . S
C939 H942 0.950 . S
C940 C939 1.387 . S
C940 C943 1.387 . S
H941 C937 0.950 . S
H942 C939 0.950 . S
C943 C934 1.390 . S
C943 H936 0.950 . S
C943 C940 1.387 . S
C545 C5 1.548 . S
C550 C243 1.547 . S
C555 C141 1.547 . S
C560 C39 1.548 . S
C565 C175 1.548 . S
C570 C73 1.548 . S
C575 C209 1.547 . S
C580 C107 1.548 . S
C585 C277 1.548 . S
C590 C515 1.548 . S
C595 C311 1.548 . S
C600 C413 1.547 . S
C605 C447 1.547 . S
C610 C345 1.548 . S
C615 C379 1.548 . S
C620 C481 1.548 . S
C625 C9 1.511 . S
C630 C281 1.511 . S
C635 C315 1.509 . S
C640 C43 1.509 . S
C645 C349 1.511 . S
C650 C77 1.511 . S
C655 C111 1.509 . S
C660 C383 1.509 . S
C665 C417 1.511 . S
C670 C145 1.511 . S
C675 C451 1.508 . S
C680 C179 1.508 . S
C685 C213 1.511 . S
C690 C485 1.511 . S
C695 C519 1.511 . S
C700 C247 1.511 . S
C705 C20 1.121 . S
C710 C478 1.118 1_545 S
C715 C512 1.119 . S
C720 C54 1.120 . S
C725 C88 1.120 . S
C730 C410 1.120 . S
C735 C444 1.119 1_455 S
C740 C122 1.120 . S
C745 C156 1.122 . S
C750 C342 1.118 . S
C755 C190 1.121 . S
C760 C376 1.118 1_455 S
C765 C224 1.120 . S
C770 C274 1.119 1_545 S
C775 C258 1.122 . S
C780 C308 1.118 . S
C785 C206 1.119 1_565 S
C790 C292 1.120 . S
C795 C240 1.117 . S
C800 C326 1.122 . S
C805 C360 1.122 . S
C810 C138 1.117 . S
C815 C172 1.118 1_655 S
C820 C394 1.122 . S
C825 C70 1.119 . S
C830 C428 1.120 . S
C835 C104 1.117 1_655 S
C840 C462 1.122 . S
C845 C496 1.122 . S
C850 C2 1.118 1_565 S
C855 C36 1.118 . S
C860 C530 1.122 . S
C865 C101 1.437 . S
C870 C33 1.437 . S
C875 C135 1.437 . S
C880 C67 1.437 . S
C885 C169 1.442 . S
C890 C237 1.442 . S
C895 C271 1.437 . S
C900 C203 1.437 . S
C905 C305 1.437 . S
C910 C373 1.437 . S
C915 C407 1.437 . S
C920 C339 1.437 . S
C925 C441 1.437 . S
C930 C509 1.437 . S
C935 C475 1.437 . S
C940 C543 1.437 . S
