# Generated by pormake.
# Topology wjt, (5)-cn, num edge types: 1
# Building blocks:
#     Node 0, Type 0, BuildingBlock: BEQFEK_clean_sbu_0, # of connection points: 5
#     Node 1, Type 0, BuildingBlock: BEQFEK_clean_sbu_0, # of connection points: 5
#     Node 2, Type 0, BuildingBlock: BEQFEK_clean_sbu_0, # of connection points: 5
#     Node 3, Type 0, BuildingBlock: BEQFEK_clean_sbu_0, # of connection points: 5
#     Node 4, Type 0, BuildingBlock: BEQFEK_clean_sbu_0, # of connection points: 5
#     Node 5, Type 0, BuildingBlock: BEQFEK_clean_sbu_0, # of connection points: 5
#     Node 6, Type 0, BuildingBlock: BEQFEK_clean_sbu_0, # of connection points: 5
#     Node 7, Type 0, BuildingBlock: BEQFEK_clean_sbu_0, # of connection points: 5
#     Node 8, Type 0, BuildingBlock: BEQFEK_clean_sbu_0, # of connection points: 5
#     Node 9, Type 0, BuildingBlock: BEQFEK_clean_sbu_0, # of connection points: 5
#     Node 10, Type 0, BuildingBlock: BEQFEK_clean_sbu_0, # of connection points: 5
#     Node 11, Type 0, BuildingBlock: BEQFEK_clean_sbu_0, # of connection points: 5
#     Edge 12, Type (0, 0), BuildingBlock: CIFDUS_clean_linker_0, # of connection points: 2
#     Edge 13, Type (0, 0), BuildingBlock: CIFDUS_clean_linker_0, # of connection points: 2
#     Edge 14, Type (0, 0), BuildingBlock: CIFDUS_clean_linker_0, # of connection points: 2
#     Edge 15, Type (0, 0), BuildingBlock: CIFDUS_clean_linker_0, # of connection points: 2
#     Edge 16, Type (0, 0), BuildingBlock: CIFDUS_clean_linker_0, # of connection points: 2
#     Edge 17, Type (0, 0), BuildingBlock: CIFDUS_clean_linker_0, # of connection points: 2
#     Edge 18, Type (0, 0), BuildingBlock: CIFDUS_clean_linker_0, # of connection points: 2
#     Edge 19, Type (0, 0), BuildingBlock: CIFDUS_clean_linker_0, # of connection points: 2
#     Edge 20, Type (0, 0), BuildingBlock: CIFDUS_clean_linker_0, # of connection points: 2
#     Edge 21, Type (0, 0), BuildingBlock: CIFDUS_clean_linker_0, # of connection points: 2
#     Edge 22, Type (0, 0), BuildingBlock: CIFDUS_clean_linker_0, # of connection points: 2
#     Edge 23, Type (0, 0), BuildingBlock: CIFDUS_clean_linker_0, # of connection points: 2
#     Edge 24, Type (0, 0), BuildingBlock: CIFDUS_clean_linker_0, # of connection points: 2
#     Edge 25, Type (0, 0), BuildingBlock: CIFDUS_clean_linker_0, # of connection points: 2
#     Edge 26, Type (0, 0), BuildingBlock: CIFDUS_clean_linker_0, # of connection points: 2
#     Edge 27, Type (0, 0), BuildingBlock: CIFDUS_clean_linker_0, # of connection points: 2
#     Edge 28, Type (0, 0), BuildingBlock: CIFDUS_clean_linker_0, # of connection points: 2
#     Edge 29, Type (0, 0), BuildingBlock: CIFDUS_clean_linker_0, # of connection points: 2
#     Edge 30, Type (0, 0), BuildingBlock: CIFDUS_clean_linker_0, # of connection points: 2
#     Edge 31, Type (0, 0), BuildingBlock: CIFDUS_clean_linker_0, # of connection points: 2
#     Edge 32, Type (0, 0), BuildingBlock: CIFDUS_clean_linker_0, # of connection points: 2
#     Edge 33, Type (0, 0), BuildingBlock: CIFDUS_clean_linker_0, # of connection points: 2
#     Edge 34, Type (0, 0), BuildingBlock: CIFDUS_clean_linker_0, # of connection points: 2
#     Edge 35, Type (0, 0), BuildingBlock: CIFDUS_clean_linker_0, # of connection points: 2
#     Edge 36, Type (0, 0), BuildingBlock: CIFDUS_clean_linker_0, # of connection points: 2
#     Edge 37, Type (0, 0), BuildingBlock: CIFDUS_clean_linker_0, # of connection points: 2
#     Edge 38, Type (0, 0), BuildingBlock: CIFDUS_clean_linker_0, # of connection points: 2
#     Edge 39, Type (0, 0), BuildingBlock: CIFDUS_clean_linker_0, # of connection points: 2
#     Edge 40, Type (0, 0), BuildingBlock: CIFDUS_clean_linker_0, # of connection points: 2
#     Edge 41, Type (0, 0), BuildingBlock: CIFDUS_clean_linker_0, # of connection points: 2
# Relax obj value: 0.312
# Max RMSD: 0.188
# Mean RMSD: 0.188
data_MOF--net-wjt--node1-BEQFEK_clean_sbu_0--edge1-CIFDUS_clean_linker_0
_symmetry_space_group_name_H-M    P1
_symmetry_Int_Tables_number       1
_symmetry_cell_setting            triclinic
loop_
_symmetry_equiv_pos_as_xyz
'x, y, z'
_cell_length_a     60.929765
_cell_length_b     60.90411
_cell_length_c     16.458205
_cell_angle_alpha  90.010683
_cell_angle_beta   90.002579
_cell_angle_gamma 119.98795
loop_
_atom_site_label
_atom_site_type_symbol
_atom_site_fract_x
_atom_site_fract_y
_atom_site_fract_z
_atom_type_partial_charge
Co0 Co 0.33534 0.45214 0.23447 0.0
Co1 Co 0.35856 0.45656 0.06292 0.0
C2 C 0.35915 0.42089 0.183 0.0
O3 O 0.34848 0.42831 0.23357 0.0
O4 O 0.36398 0.42969 0.11103 0.0
C5 C 0.31077 0.42647 0.37895 0.0
O6 O 0.31029 0.40702 0.34268 0.0
C7 C 0.36214 0.44351 0.89437 0.0
C8 C 0.37826 0.48122 0.83693 0.0
C9 C 0.36738 0.4556 0.81968 0.0
N10 N 0.36868 0.46116 0.95265 0.0
N11 N 0.37924 0.48373 0.9181 0.0
C12 C 0.34792 0.41553 0.90994 0.0
H13 H 0.33917 0.41139 0.97121 0.0
H14 H 0.3331 0.40547 0.8631 0.0
H15 H 0.36138 0.40829 0.90678 0.0
C16 C 0.29168 0.44605 0.13724 0.0
N17 N 0.3147 0.44814 0.14377 0.0
N18 N 0.324 0.44922 0.07077 0.0
C19 C 0.30682 0.44737 0.01516 0.0
C20 C 0.28586 0.44554 0.05531 0.0
C21 C 0.2768 0.44686 0.20835 0.0
H22 H 0.28981 0.46022 0.25481 0.0
H23 H 0.2664 0.42773 0.23617 0.0
H24 H 0.263 0.45277 0.18991 0.0
O25 O 0.36458 0.48683 0.23803 0.0
O26 O 0.38164 0.48959 0.11679 0.0
H27 H 0.29278 0.44258 0.89078 0.0
H28 H 0.3134 0.43067 0.91127 0.0
C29 C 0.30992 0.44636 0.92522 0.0
H30 H 0.32625 0.46445 0.90422 0.0
H31 H 0.38515 0.50065 0.94961 0.0
O32 O 0.31767 0.44675 0.33902 0.0
C33 C 0.38179 0.49917 0.18574 0.0
Co34 Co 0.87612 0.32577 0.64884 0.0
Co35 Co 0.89345 0.34767 0.47533 0.0
C36 C 0.93023 0.34782 0.59351 0.0
O37 O 0.91267 0.33834 0.64598 0.0
O38 O 0.92571 0.35173 0.52101 0.0
C39 C 0.87758 0.2995 0.78796 0.0
O40 O 0.89338 0.29576 0.74382 0.0
C41 C 0.90297 0.34662 0.30138 0.0
C42 C 0.89162 0.37366 0.25639 0.0
C43 C 0.89744 0.35547 0.23085 0.0
N44 N 0.89902 0.35802 0.36508 0.0
N45 N 0.89335 0.37495 0.33765 0.0
C46 C 0.90932 0.32592 0.30958 0.0
H47 H 0.90535 0.31812 0.37223 0.0
H48 H 0.89876 0.31057 0.26484 0.0
H49 H 0.92983 0.33396 0.29727 0.0
C50 C 0.83771 0.28141 0.55696 0.0
N51 N 0.8586 0.30453 0.55997 0.0
N52 N 0.86461 0.314 0.48611 0.0
C53 C 0.84689 0.29745 0.43391 0.0
C54 C 0.82953 0.27607 0.47694 0.0
C55 C 0.82469 0.26595 0.63059 0.0
H56 H 0.82167 0.27787 0.67512 0.0
H57 H 0.83711 0.25973 0.6597 0.0
H58 H 0.80618 0.24911 0.61531 0.0
O59 O 0.87116 0.35562 0.65209 0.0
O60 O 0.88539 0.37173 0.52975 0.0
H61 H 0.82677 0.29112 0.31891 0.0
H62 H 0.8581 0.29687 0.31153 0.0
C63 C 0.8459 0.30236 0.34512 0.0
H64 H 0.85229 0.32262 0.33489 0.0
H65 H 0.88856 0.38585 0.37449 0.0
O66 O 0.86515 0.30869 0.75434 0.0
C67 C 0.87637 0.37263 0.59856 0.0
Co68 Co 0.54644 0.87882 0.94119 0.0
Co69 Co 0.54069 0.89709 0.77013 0.0
C70 C 0.57781 0.93347 0.88768 0.0
O71 O 0.57082 0.91562 0.93895 0.0
O72 O 0.56826 0.92925 0.81671 0.0
C73 C 0.57163 0.87977 0.08681 0.0
O74 O 0.59115 0.89896 0.05174 0.0
C75 C 0.55353 0.91351 0.60176 0.0
C76 C 0.51573 0.89272 0.54451 0.0
C77 C 0.54138 0.907 0.52714 0.0
N78 N 0.53589 0.9027 0.66011 0.0
N79 N 0.51328 0.89116 0.62572 0.0
C80 C 0.58149 0.92651 0.61717 0.0
H81 H 0.58544 0.92132 0.67783 0.0
H82 H 0.59124 0.92162 0.56955 0.0
H83 H 0.58926 0.94732 0.61548 0.0
C84 C 0.55146 0.84069 0.84311 0.0
N85 N 0.54928 0.86157 0.85001 0.0
N86 N 0.54739 0.86941 0.77722 0.0
C87 C 0.54865 0.85379 0.72133 0.0
C88 C 0.55107 0.83495 0.76115 0.0
C89 C 0.55181 0.82555 0.91419 0.0
H90 H 0.53852 0.82482 0.96156 0.0
H91 H 0.57114 0.83504 0.94073 0.0
H92 H 0.54652 0.80596 0.89616 0.0
O93 O 0.51223 0.87453 0.94737 0.0
O94 O 0.50832 0.88828 0.82652 0.0
H95 H 0.53065 0.85632 0.61276 0.0
H96 H 0.55136 0.84349 0.59622 0.0
C97 C 0.54866 0.85744 0.63134 0.0
H98 H 0.56462 0.87628 0.61543 0.0
H99 H 0.49634 0.88044 0.65734 0.0
O100 O 0.55168 0.86628 0.04553 0.0
C101 C 0.49955 0.87952 0.8968 0.0
Co102 Co 0.672 0.54697 0.31521 0.0
Co103 Co 0.64958 0.54531 0.1439 0.0
C104 C 0.6501 0.58028 0.26932 0.0
O105 O 0.65985 0.57152 0.31856 0.0
O106 O 0.64559 0.57265 0.19596 0.0
C107 C 0.69757 0.57139 0.45949 0.0
O108 O 0.69969 0.59152 0.42287 0.0
C109 C 0.64782 0.56008 0.97585 0.0
C110 C 0.62828 0.5224 0.91734 0.0
C111 C 0.64159 0.54816 0.90076 0.0
N112 N 0.63953 0.5421 0.03363 0.0
N113 N 0.62695 0.51967 -0.00159 0.0
C114 C 0.6642 0.58786 0.99236 0.0
H115 H 0.67263 0.59104 0.05404 0.0
H116 H 0.67939 0.59695 0.94607 0.0
H117 H 0.65234 0.59694 0.98897 0.0
C118 C 0.71554 0.55316 0.21717 0.0
N119 N 0.69269 0.55144 0.22405 0.0
N120 N 0.6835 0.55081 0.15115 0.0
C121 C 0.70039 0.5521 0.09529 0.0
C122 C 0.72121 0.55357 0.13521 0.0
C123 C 0.73044 0.55223 0.28801 0.0
H124 H 0.7395 0.57085 0.31941 0.0
H125 H 0.7453 0.54787 0.26874 0.0
H126 H 0.71754 0.53766 0.33192 0.0
O127 O 0.6419 0.5127 0.31537 0.0
O128 O 0.62541 0.51226 0.19483 0.0
H129 H 0.71281 0.55329 0.97009 0.0
H130 H 0.69616 0.56961 0.98922 0.0
C131 C 0.69696 0.55245 0.00527 0.0
H132 H 0.67905 0.53543 0.98677 0.0
H133 H 0.61936 0.50245 0.02937 0.0
O134 O 0.68932 0.55087 0.41968 0.0
C135 C 0.62462 0.50162 0.26222 0.0
Co136 Co 0.12878 0.67672 0.68088 0.0
Co137 Co 0.10824 0.65377 0.50984 0.0
C138 C 0.07315 0.65234 0.63593 0.0
O139 O 0.09179 0.66283 0.68449 0.0
O140 O 0.07634 0.64815 0.56228 0.0
C141 C 0.12846 0.70155 0.82521 0.0
O142 O 0.1099 0.70264 0.78844 0.0
C143 C 0.09129 0.65083 0.34141 0.0
C144 C 0.1115 0.6333 0.28353 0.0
C145 C 0.09773 0.64523 0.26651 0.0
N146 N 0.10183 0.64357 0.39952 0.0
N147 N 0.11295 0.63215 0.36464 0.0
C148 C 0.07828 0.66575 0.35744 0.0
H149 H 0.08281 0.67407 0.41937 0.0
H150 H 0.08373 0.68094 0.31147 0.0
H151 H 0.0575 0.65286 0.35299 0.0
C152 C 0.16522 0.72059 0.5825 0.0
N153 N 0.14431 0.6976 0.58966 0.0
N154 N 0.13563 0.68833 0.51692 0.0
C155 C 0.15079 0.70546 0.46087 0.0
C156 C 0.17014 0.7264 0.50046 0.0
C157 C 0.1814 0.73537 0.65298 0.0
H158 H 0.1726 0.74533 0.68337 0.0
H159 H 0.20085 0.74951 0.63338 0.0
H160 H 0.18239 0.72229 0.69778 0.0
O161 O 0.13466 0.64776 0.68075 0.0
O162 O 0.11861 0.63062 0.56085 0.0
H163 H 0.14729 0.68519 0.35078 0.0
H164 H 0.16049 0.71886 0.33594 0.0
C165 C 0.14658 0.70218 0.371 0.0
H166 H 0.12781 0.69972 0.3569 0.0
H167 H 0.12341 0.62553 0.39588 0.0
O168 O 0.14156 0.69427 0.78546 0.0
C169 C 0.12898 0.63049 0.62791 0.0
Co170 Co 0.45003 0.12208 0.97345 0.0
Co171 Co 0.45522 0.10495 0.80064 0.0
C172 C 0.41888 0.06772 0.91829 0.0
O173 O 0.42593 0.08517 0.97112 0.0
O174 O 0.4281 0.07254 0.84687 0.0
C175 C 0.42419 0.12145 0.11687 0.0
O176 O 0.4047 0.1026 0.08041 0.0
C177 C 0.44147 0.08903 0.63282 0.0
C178 C 0.47899 0.10928 0.57357 0.0
C179 C 0.45323 0.09524 0.55769 0.0
N180 N 0.45945 0.09965 0.69019 0.0
N181 N 0.48188 0.11092 0.65463 0.0
C182 C 0.41362 0.07642 0.64974 0.0
H183 H 0.41012 0.08185 0.7107 0.0
H184 H 0.40379 0.08141 0.60271 0.0
H185 H 0.40556 0.05557 0.64832 0.0
C186 C 0.44358 0.16005 0.87999 0.0
N187 N 0.44628 0.13944 0.88431 0.0
N188 N 0.4482 0.13226 0.81055 0.0
C189 C 0.44664 0.14815 0.75655 0.0
C190 C 0.44375 0.16636 0.79875 0.0
C191 C 0.44308 0.17452 0.95279 0.0
H192 H 0.45763 0.17639 -0.00287 0.0
H193 H 0.42429 0.16379 0.98262 0.0
H194 H 0.44663 0.19367 0.93618 0.0
O195 O 0.48459 0.12694 0.9772 0.0
O196 O 0.48789 0.11397 0.85427 0.0
H197 H 0.46512 0.14638 0.64803 0.0
H198 H 0.4453 0.1603 0.63284 0.0
C199 C 0.44722 0.14558 0.66616 0.0
H200 H 0.4311 0.12713 0.64761 0.0
H201 H 0.49903 0.12143 0.68543 0.0
O202 O 0.44474 0.13428 0.07787 0.0
C203 C 0.49708 0.12245 0.92435 0.0
Co204 Co 0.54216 0.67352 0.32267 0.0
Co205 Co 0.53904 0.65075 0.49527 0.0
C206 C 0.57656 0.65387 0.37196 0.0
O207 O 0.5683 0.66376 0.32146 0.0
O208 O 0.56754 0.64829 0.44371 0.0
C209 C 0.56624 0.70092 0.17937 0.0
O210 O 0.58713 0.70807 0.22089 0.0
C211 C 0.55346 0.65252 0.66693 0.0
C212 C 0.51776 0.6218 0.71841 0.0
C213 C 0.5418 0.64094 0.7395 0.0
N214 N 0.53674 0.64111 0.60624 0.0
N215 N 0.51563 0.62247 0.63732 0.0
C216 C 0.58024 0.67332 0.65462 0.0
H217 H 0.58696 0.67182 0.59332 0.0
H218 H 0.58144 0.69203 0.65889 0.0
H219 H 0.59277 0.67245 0.70196 0.0
C220 C 0.54627 0.71639 0.42103 0.0
N221 N 0.5451 0.69378 0.41403 0.0
N222 N 0.54247 0.68372 0.48678 0.0
C223 C 0.54093 0.6993 0.54204 0.0
C224 C 0.54394 0.72073 0.50257 0.0
C225 C 0.54843 0.73281 0.35047 0.0
H226 H 0.53006 0.72406 0.31767 0.0
H227 H 0.56302 0.73397 0.30765 0.0
H228 H 0.55342 0.75216 0.37051 0.0
O229 O 0.50879 0.64182 0.32148 0.0
O230 O 0.50688 0.62542 0.44341 0.0
H231 H 0.51951 0.67122 0.63323 0.0
H232 H 0.52056 0.70098 0.64695 0.0
C233 C 0.53171 0.69201 0.62764 0.0
H234 H 0.54806 0.69881 0.6694 0.0
H235 H 0.49938 0.61083 0.60353 0.0
O236 O 0.54506 0.68953 0.21602 0.0
C237 C 0.49731 0.62431 0.37374 0.0
Co238 Co 0.87171 0.53975 0.70064 0.0
Co239 Co 0.8923 0.53939 0.87429 0.0
C240 C 0.92636 0.57452 0.74649 0.0
O241 O 0.90801 0.56519 0.69666 0.0
O242 O 0.92318 0.56701 0.81998 0.0
C243 C 0.86879 0.56397 0.55909 0.0
O244 O 0.88388 0.58418 0.6018 0.0
C245 C 0.90533 0.5562 0.04332 0.0
C246 C 0.90346 0.52246 0.10027 0.0
C247 C 0.90706 0.5463 0.11714 0.0
N248 N 0.90052 0.53882 0.98537 0.0
N249 N 0.8999 0.51888 0.0196 0.0
C250 C 0.90851 0.58184 0.02778 0.0
H251 H 0.9016 0.58275 0.96618 0.0
H252 H 0.89848 0.58663 0.07454 0.0
H253 H 0.92894 0.59621 0.03195 0.0
C254 C 0.83383 0.54595 0.79626 0.0
N255 N 0.85521 0.54462 0.79059 0.0
N256 N 0.863 0.5432 0.86408 0.0
C257 C 0.84621 0.54272 0.91865 0.0
C258 C 0.82759 0.54506 0.8778 0.0
C259 C 0.81925 0.54693 0.72461 0.0
H260 H 0.81037 0.52837 0.69288 0.0
H261 H 0.83239 0.56155 0.68133 0.0
H262 H 0.80434 0.55131 0.74305 0.0
O263 O 0.86871 0.50578 0.70589 0.0
O264 O 0.88448 0.50624 0.82792 0.0
H265 H 0.8536 0.52349 0.01552 0.0
H266 H 0.8252 0.52519 0.02818 0.0
C267 C 0.84509 0.53564 0.0063 0.0
H268 H 0.85525 0.55312 0.04308 0.0
H269 H 0.89607 0.50242 0.9884 0.0
O270 O 0.85839 0.54243 0.59365 0.0
C271 C 0.87497 0.49518 0.76075 0.0
Co272 Co 0.33322 0.87798 0.06476 0.0
Co273 Co 0.35739 0.89461 0.23675 0.0
C274 C 0.35493 0.93149 0.12206 0.0
O275 O 0.34405 0.91424 0.06888 0.0
O276 O 0.36087 0.92663 0.19128 0.0
C277 C 0.30713 0.87705 0.92016 0.0
O278 O 0.30162 0.8924 0.95962 0.0
C279 C 0.35767 0.907 0.40911 0.0
C280 C 0.3854 0.89714 0.45829 0.0
C281 C 0.36831 0.90475 0.48101 0.0
N282 N 0.36753 0.90029 0.34733 0.0
N283 N 0.38444 0.8949 0.37697 0.0
C284 C 0.33909 0.91607 0.39831 0.0
H285 H 0.34302 0.92687 0.34077 0.0
H286 H 0.3196 0.89968 0.39431 0.0
H287 H 0.34006 0.92819 0.45014 0.0
C288 C 0.28998 0.83936 0.16209 0.0
N289 N 0.31316 0.86006 0.15558 0.0
N290 N 0.32367 0.86636 0.2281 0.0
C291 C 0.30767 0.84934 0.28275 0.0
C292 C 0.28566 0.83206 0.24309 0.0
C293 C 0.27286 0.82647 0.0915 0.0
H294 H 0.28045 0.81623 0.05608 0.0
H295 H 0.27253 0.84085 0.05097 0.0
H296 H 0.25332 0.81281 0.11181 0.0
O297 O 0.36401 0.87484 0.05809 0.0
O298 O 0.38142 0.88686 0.18002 0.0
H299 H 0.33508 0.85297 0.37219 0.0
H300 H 0.30371 0.82672 0.38887 0.0
C301 C 0.31465 0.84671 0.36809 0.0
H302 H 0.31017 0.85822 0.4096 0.0
H303 H 0.39456 0.88868 0.34203 0.0
O304 O 0.3166 0.86569 0.95873 0.0
C305 C 0.3816 0.87917 0.10827 0.0
Co306 Co 0.45682 0.33173 0.37609 0.0
Co307 Co 0.45805 0.35402 0.54563 0.0
C308 C 0.4235 0.35325 0.41521 0.0
O309 O 0.4316 0.3428 0.36633 0.0
O310 O 0.43171 0.3583 0.4878 0.0
C311 C 0.43474 0.30705 0.23303 0.0
O312 O 0.4132 0.29786 0.27254 0.0
C313 C 0.438 0.35004 0.70741 0.0
C314 C 0.47252 0.37587 0.77622 0.0
C315 C 0.44716 0.35763 0.78577 0.0
N316 N 0.45732 0.36237 0.65533 0.0
N317 N 0.47772 0.37836 0.69639 0.0
C318 C 0.41157 0.33139 0.68104 0.0
H319 H 0.40722 0.33761 0.62294 0.0
H320 H 0.40988 0.31264 0.67014 0.0
H321 H 0.39756 0.32948 0.72767 0.0
C322 C 0.44978 0.28794 0.47383 0.0
N323 N 0.45138 0.31072 0.46674 0.0
N324 N 0.453 0.32039 0.53943 0.0
C325 C 0.45315 0.3042 0.59532 0.0
C326 C 0.45068 0.28297 0.55566 0.0
C327 C 0.44892 0.27209 0.40318 0.0
H328 H 0.46765 0.28142 0.37252 0.0
H329 H 0.43463 0.27072 0.35868 0.0
H330 H 0.44415 0.25275 0.42257 0.0
O331 O 0.4909 0.36245 0.38002 0.0
O332 O 0.49185 0.37859 0.50173 0.0
H333 H 0.4738 0.33107 0.68987 0.0
H334 H 0.46878 0.29978 0.70813 0.0
C335 C 0.46012 0.31059 0.68292 0.0
H336 H 0.44286 0.30556 0.71872 0.0
H337 H 0.49555 0.38969 0.67046 0.0
O338 O 0.45508 0.31497 0.2733 0.0
C339 C 0.50229 0.37947 0.43385 0.0
Co340 Co 0.13268 0.45464 0.62188 0.0
Co341 Co 0.11499 0.4605 0.79375 0.0
C342 C 0.07873 0.42242 0.67603 0.0
O343 O 0.09634 0.42987 0.62386 0.0
O344 O 0.08311 0.43187 0.74729 0.0
C345 C 0.13272 0.42821 0.48085 0.0
O346 O 0.11665 0.40817 0.5226 0.0
C347 C 0.10713 0.44999 0.96757 0.0
C348 C 0.11449 0.48719 0.01314 0.0
C349 C 0.11137 0.46405 0.03825 0.0
N350 N 0.10899 0.46471 0.90413 0.0
N351 N 0.11239 0.48653 0.9319 0.0
C352 C 0.10428 0.4242 0.95889 0.0
H353 H 0.10746 0.42064 0.89501 0.0
H354 H 0.11746 0.42193 -0.00011 0.0
H355 H 0.0847 0.40976 0.97641 0.0
C356 C 0.17107 0.44965 0.71849 0.0
N357 N 0.1501 0.45169 0.71258 0.0
N358 N 0.14397 0.45608 0.78508 0.0
C359 C 0.16171 0.45821 0.83879 0.0
C360 C 0.17888 0.45338 0.79897 0.0
C361 C 0.18394 0.44555 0.64761 0.0
H362 H 0.19343 0.46317 0.6109 0.0
H363 H 0.16963 0.43028 0.60842 0.0
H364 H 0.19823 0.44045 0.66761 0.0
O365 O 0.13643 0.48901 0.61668 0.0
O366 O 0.12259 0.49224 0.73832 0.0
H367 H 0.15744 0.48247 0.92506 0.0
H368 H 0.18648 0.48185 0.93431 0.0
C369 C 0.16591 0.47012 0.92124 0.0
H370 H 0.15775 0.45519 0.96837 0.0
H371 H 0.11539 0.50175 0.89515 0.0
O372 O 0.14485 0.44944 0.51704 0.0
C373 C 0.13121 0.50131 0.66833 0.0
Co374 Co 0.66414 0.1216 0.06112 0.0
Co375 Co 0.64109 0.10217 0.23219 0.0
C376 C 0.64267 0.0671 0.10893 0.0
O377 O 0.65288 0.08512 0.05803 0.0
O378 O 0.63746 0.07092 0.18062 0.0
C379 C 0.69027 0.12416 0.91658 0.0
O380 O 0.69277 0.10618 0.95185 0.0
C381 C 0.64331 0.08781 0.39844 0.0
C382 C 0.61868 0.09952 0.46064 0.0
C383 C 0.63568 0.09108 0.47444 0.0
N384 N 0.63184 0.09465 0.34248 0.0
N385 N 0.61646 0.10078 0.37977 0.0
C386 C 0.66379 0.08184 0.37948 0.0
H387 H 0.67071 0.08746 0.31631 0.0
H388 H 0.67976 0.09147 0.42297 0.0
H389 H 0.65601 0.06111 0.38593 0.0
C390 C 0.70739 0.15935 0.15876 0.0
N391 N 0.68462 0.13814 0.15217 0.0
N392 N 0.67478 0.13062 0.22505 0.0
C393 C 0.69099 0.14722 0.28037 0.0
C394 C 0.71227 0.16559 0.24029 0.0
C395 C 0.72321 0.17414 0.08784 0.0
H396 H 0.71287 0.18167 0.05266 0.0
H397 H 0.72623 0.16136 0.04715 0.0
H398 H 0.74181 0.19008 0.10755 0.0
O399 O 0.6336 0.12523 0.0604 0.0
O400 O 0.61678 0.11082 0.1819 0.0
H401 H 0.66461 0.14238 0.37489 0.0
H402 H 0.69645 0.16756 0.39334 0.0
C403 C 0.68485 0.14819 0.36798 0.0
H404 H 0.68907 0.13534 0.4037 0.0
H405 H 0.60604 0.10779 0.35036 0.0
O406 O 0.68146 0.13574 0.95735 0.0
C407 C 0.61628 0.11993 0.11274 0.0
H408 H 0.2847 0.47526 0.93423 0.0
H409 H 0.23623 0.41409 0.09474 0.0
H410 H 0.19876 0.41146 0.0303 0.0
H411 H 0.17984 0.42577 0.92504 0.0
H412 H 0.22828 0.48387 0.75583 0.0
H413 H 0.26586 0.48787 0.82443 0.0
C414 C 0.26591 0.46107 0.95417 0.0
C415 C 0.2632 0.44468 0.01849 0.0
C416 C 0.24455 0.4589 0.91435 0.0
C417 C 0.23879 0.42698 0.04557 0.0
C418 C 0.21739 0.42532 0.00829 0.0
C419 C 0.19869 0.43912 0.90306 0.0
C420 C 0.2015 0.45438 0.83544 0.0
C421 C 0.22005 0.44101 0.9421 0.0
C422 C 0.22583 0.47172 0.80717 0.0
C423 C 0.24723 0.47412 0.84674 0.0
H424 H 0.74834 0.16852 0.34194 0.0
H425 H 0.72192 0.21383 0.22211 0.0
H426 H 0.75439 0.25189 0.29188 0.0
H427 H 0.78996 0.27196 0.38815 0.0
H428 H 0.81977 0.22772 0.4952 0.0
H429 H 0.78561 0.18919 0.43275 0.0
C430 C 0.75 0.18685 0.33077 0.0
C431 C 0.73317 0.1887 0.27678 0.0
C432 C 0.76896 0.20859 0.36988 0.0
C433 C 0.73506 0.21228 0.26278 0.0
C434 C 0.75343 0.2339 0.30303 0.0
C435 C 0.78931 0.25397 0.39614 0.0
C436 C 0.80767 0.25269 0.44428 0.0
C437 C 0.77049 0.23227 0.35665 0.0
C438 C 0.80586 0.22909 0.45789 0.0
C439 C 0.78649 0.20716 0.42172 0.0
H440 H 0.57268 0.75043 0.62543 0.0
H441 H 0.51143 0.73775 0.4657 0.0
H442 H 0.50698 0.77082 0.53603 0.0
H443 H 0.52021 0.80281 0.6444 0.0
H444 H 0.58417 0.81838 0.79558 0.0
H445 H 0.58731 0.78398 0.72973 0.0
C446 C 0.55852 0.75513 0.60592 0.0
C447 C 0.54251 0.74198 0.5404 0.0
C448 C 0.55633 0.7743 0.646 0.0
C449 C 0.52415 0.74799 0.51534 0.0
C450 C 0.52149 0.7667 0.55592 0.0
C451 C 0.53507 0.7989 0.66205 0.0
C452 C 0.55214 0.81328 0.72405 0.0
C453 C 0.53746 0.77993 0.62139 0.0
C454 C 0.57077 0.80749 0.7482 0.0
C455 C 0.5727 0.788 0.71008 0.0
H456 H 0.82687 0.57487 -0.00244 0.0
H457 H 0.77798 0.51224 0.84269 0.0
H458 H 0.74064 0.50824 0.91276 0.0
H459 H 0.72213 0.52216 0.02 0.0
H460 H 0.77082 0.58675 0.16837 0.0
H461 H 0.80822 0.58984 0.10156 0.0
C462 C 0.80798 0.56051 0.97901 0.0
C463 C 0.805 0.54401 0.91484 0.0
C464 C 0.78673 0.55843 0.01938 0.0
C465 C 0.78058 0.52538 0.89111 0.0
C466 C 0.75931 0.52296 0.93163 0.0
C467 C 0.74095 0.5371 0.03688 0.0
C468 C 0.7438 0.55443 0.09812 0.0
C469 C 0.76219 0.53933 -0.004 0.0
C470 C 0.76824 0.5732 0.12136 0.0
C471 C 0.78955 0.57509 0.08275 0.0
H472 H 0.20103 0.72696 0.38054 0.0
H473 H 0.18838 0.77619 0.5377 0.0
H474 H 0.22334 0.81339 0.47232 0.0
H475 H 0.25676 0.83182 0.36747 0.0
H476 H 0.26653 0.78251 0.20222 0.0
H477 H 0.23266 0.74527 0.27123 0.0
C478 C 0.20566 0.74586 0.39952 0.0
C479 C 0.19196 0.74888 0.46307 0.0
C480 C 0.22496 0.76704 0.35931 0.0
C481 C 0.19871 0.77342 0.48899 0.0
C482 C 0.21853 0.79466 0.45121 0.0
C483 C 0.25122 0.81286 0.34643 0.0
C484 C 0.26382 0.80971 0.27986 0.0
C485 C 0.23161 0.79168 0.3858 0.0
C486 C 0.25675 0.78523 0.25278 0.0
C487 C 0.23758 0.76402 0.29259 0.0
H488 H 0.421 0.25118 0.67378 0.0
H489 H 0.48513 0.26835 0.52156 0.0
H490 H 0.48967 0.23474 0.58728 0.0
H491 H 0.47545 0.20067 0.68859 0.0
H492 H 0.40923 0.18104 0.83342 0.0
H493 H 0.40585 0.21595 0.77243 0.0
C494 C 0.43584 0.24737 0.65503 0.0
C495 C 0.45258 0.26189 0.5927 0.0
C496 C 0.43811 0.22787 0.69249 0.0
C497 C 0.47185 0.25705 0.56869 0.0
C498 C 0.47453 0.23801 0.60659 0.0
C499 C 0.46009 0.20387 0.70596 0.0
C500 C 0.44242 0.18818 0.76456 0.0
C501 C 0.45775 0.22329 0.66845 0.0
C502 C 0.42307 0.19294 0.78844 0.0
C503 C 0.42104 0.21275 0.7532 0.0
H504 H 0.47942 0.60708 0.22192 0.0
H505 H 0.46121 0.58992 0.47586 0.0
H506 H 0.42293 0.55046 0.43964 0.0
H507 H 0.39594 0.51979 0.33636 0.0
H508 H 0.41549 0.53567 0.08268 0.0
H509 H 0.4519 0.57672 0.11835 0.0
C510 C 0.46692 0.59485 0.26933 0.0
C511 C 0.47315 0.60145 0.35147 0.0
C512 C 0.44527 0.57189 0.24814 0.0
C513 C 0.4569 0.58525 0.41217 0.0
C514 C 0.43501 0.56267 0.39152 0.0
C515 C 0.40801 0.53232 0.28875 0.0
C516 C 0.40298 0.52465 0.20696 0.0
C517 C 0.4292 0.55564 0.30977 0.0
C518 C 0.41898 0.54105 0.14614 0.0
C519 C 0.4398 0.56454 0.16648 0.0
H520 H 0.8692 0.4722 0.61456 0.0
H521 H 0.87545 0.46196 0.87133 0.0
H522 H 0.87445 0.42203 0.84435 0.0
H523 H 0.87437 0.39128 0.74709 0.0
H524 H 0.87064 0.4031 0.49007 0.0
H525 H 0.86793 0.441 0.51797 0.0
C526 C 0.87006 0.46111 0.66473 0.0
C527 C 0.87243 0.47009 0.74479 0.0
C528 C 0.87005 0.43847 0.64871 0.0
C529 C 0.87375 0.45555 0.80903 0.0
C530 C 0.87317 0.4327 0.79369 0.0
C531 C 0.87267 0.402 0.6973 0.0
C532 C 0.87278 0.39441 0.61667 0.0
C533 C 0.87171 0.42416 0.71367 0.0
C534 C 0.87079 0.40863 0.55271 0.0
C535 C 0.86922 0.43031 0.56857 0.0
H536 H 0.48158 0.87466 0.05062 0.0
H537 H 0.4625 0.87864 0.8005 0.0
H538 H 0.42341 0.87717 0.84389 0.0
H539 H 0.39586 0.87705 0.95313 0.0
H540 H 0.41635 0.87549 0.20334 0.0
H541 H 0.45366 0.87361 0.15945 0.0
C542 C 0.46876 0.87492 0.00542 0.0
C543 C 0.47497 0.87674 0.92238 0.0
C544 C 0.44663 0.87464 0.03085 0.0
C545 C 0.45822 0.87732 0.86481 0.0
C546 C 0.43587 0.87649 0.88957 0.0
C547 C 0.40834 0.87604 -0.0019 0.0
C548 C 0.4033 0.87641 0.08144 0.0
C549 C 0.43006 0.87549 0.97248 0.0
C550 C 0.41982 0.87533 0.13884 0.0
C551 C 0.44116 0.87424 0.1138 0.0
H552 H 0.60778 0.48048 0.41091 0.0
H553 H 0.59142 0.46661 0.1548 0.0
H554 H 0.55309 0.42654 0.18544 0.0
H555 H 0.52297 0.39671 0.28501 0.0
H556 H 0.53788 0.412 0.54125 0.0
H557 H 0.5781 0.45017 0.51049 0.0
C558 C 0.59599 0.46855 0.36176 0.0
C559 C 0.60246 0.47652 0.2807 0.0
C560 C 0.57365 0.44584 0.37986 0.0
C561 C 0.58681 0.46097 0.21774 0.0
C562 C 0.56489 0.43805 0.23519 0.0
C563 C 0.53517 0.40823 0.33416 0.0
C564 C 0.52746 0.40151 0.4153 0.0
C565 C 0.55794 0.43048 0.31604 0.0
C566 C 0.54333 0.4168 0.47826 0.0
C567 C 0.56633 0.43863 0.46073 0.0
H568 H 0.13668 0.53861 0.77033 0.0
H569 H 0.13166 0.51947 0.51599 0.0
H570 H 0.1316 0.55844 0.48035 0.0
H571 H 0.13019 0.59656 0.52246 0.0
H572 H 0.13653 0.616 0.77706 0.0
H573 H 0.139 0.57836 0.8114 0.0
C574 C 0.13573 0.54304 0.70703 0.0
C575 C 0.1339 0.52606 0.64597 0.0
C576 C 0.13585 0.56548 0.68703 0.0
C577 C 0.13308 0.53224 0.56416 0.0
C578 C 0.13293 0.55446 0.54377 0.0
C579 C 0.13229 0.59264 0.58539 0.0
C580 C 0.13292 0.60896 0.64711 0.0
C581 C 0.13387 0.571 0.60483 0.0
C582 C 0.13598 0.60378 0.72829 0.0
C583 C 0.1373 0.5822 0.7481 0.0
H584 H 0.60157 0.12555 0.9619 0.0
H585 H 0.58178 0.12132 0.21555 0.0
H586 H 0.5442 0.12384 0.17967 0.0
H587 H 0.51568 0.12469 0.07605 0.0
H588 H 0.53417 0.12634 0.8221 0.0
H589 H 0.57365 0.12758 0.85844 0.0
C590 C 0.5892 0.12545 0.00944 0.0
C591 C 0.59448 0.12321 0.0913 0.0
C592 C 0.56733 0.12635 0.98831 0.0
C593 C 0.5781 0.1229 0.15204 0.0
C594 C 0.55661 0.12435 0.13159 0.0
C595 C 0.52849 0.12564 0.02863 0.0
C596 C 0.52198 0.12542 0.94648 0.0
C597 C 0.55085 0.12572 0.04988 0.0
C598 C 0.53868 0.12639 0.8858 0.0
C599 C 0.56125 0.12708 0.90652 0.0
H600 H 0.35969 0.40603 0.33822 0.0
H601 H 0.37926 0.3973 0.09273 0.0
H602 H 0.39854 0.37307 0.14314 0.0
H603 H 0.41315 0.35784 0.25751 0.0
H604 H 0.39587 0.36908 0.50326 0.0
H605 H 0.37209 0.38868 0.45176 0.0
C606 C 0.36785 0.39857 0.29537 0.0
C607 C 0.36814 0.40365 0.21169 0.0
C608 C 0.37944 0.38523 0.32489 0.0
C609 C 0.37888 0.39382 0.1574 0.0
C610 C 0.38995 0.37999 0.18622 0.0
C611 C 0.40387 0.36422 0.29992 0.0
C612 C 0.4064 0.36209 0.38426 0.0
C613 C 0.39083 0.37609 0.26996 0.0
C614 C 0.39435 0.3706 0.43816 0.0
C615 C 0.38079 0.38185 0.40874 0.0
H616 H 0.03613 0.39734 0.76955 0.0
H617 H 0.06208 0.40798 0.52083 0.0
H618 H 0.01853 0.38436 0.47295 0.0
H619 H 0.97283 0.3641 0.50062 0.0
H620 H 0.94692 0.35216 0.74951 0.0
H621 H 0.99045 0.37251 0.79762 0.0
C622 C 0.03227 0.39421 0.70496 0.0
C623 C 0.0524 0.40478 0.64914 0.0
C624 C 0.00708 0.38047 0.67742 0.0
C625 C 0.04701 0.40023 0.56553 0.0
C626 C 0.02205 0.38677 0.53779 0.0
C627 C 0.9767 0.36567 0.56533 0.0
C628 C 0.95658 0.35693 0.62103 0.0
C629 C 0.00189 0.37735 0.59305 0.0
C630 C 0.96198 0.35884 0.70487 0.0
C631 C 0.98693 0.37058 0.73273 0.0
H632 H 0.63991 0.05092 0.95341 0.0
H633 H 0.62638 0.02439 0.20168 0.0
H634 H 0.60777 0.98064 0.15414 0.0
H635 H 0.59164 0.94997 0.04259 0.0
H636 H 0.60239 0.97635 0.79432 0.0
H637 H 0.6261 0.02025 0.84164 0.0
C638 C 0.63324 0.03563 -0.00266 0.0
C639 C 0.6344 0.04095 0.08111 0.0
C640 C 0.62191 0.01051 0.96955 0.0
C641 C 0.62558 0.02084 0.13694 0.0
C642 C 0.6149 0.99582 0.10977 0.0
C643 C 0.59947 0.96527 -0.00146 0.0
C644 C 0.59509 0.95984 0.9149 0.0
C645 C 0.6124 0.99042 0.02624 0.0
C646 C 0.60534 0.97997 0.85898 0.0
C647 C 0.61885 0.00508 0.88603 0.0
H648 H 0.60175 0.6353 0.4603 0.0
H649 H 0.59139 0.65409 0.21551 0.0
H650 H 0.61487 0.63465 0.16214 0.0
H651 H 0.6346 0.60845 0.18333 0.0
H652 H 0.64603 0.59061 0.42809 0.0
H653 H 0.62623 0.61369 0.48238 0.0
C654 C 0.60495 0.63548 0.39541 0.0
C655 C 0.59445 0.64583 0.34225 0.0
C656 C 0.61853 0.62421 0.36465 0.0
C657 C 0.59907 0.64614 0.25822 0.0
C658 C 0.61244 0.63491 0.22732 0.0
C659 C 0.63304 0.60987 0.24854 0.0
C660 C 0.64145 0.59745 0.30123 0.0
C661 C 0.62165 0.62327 0.27974 0.0
C662 C 0.63959 0.59982 0.38577 0.0
C663 C 0.62817 0.61297 0.41712 0.0
H664 H 0.02874 0.63438 0.55208 0.0
H665 H 0.05934 0.64807 0.79538 0.0
H666 H 0.01672 0.6268 0.85185 0.0
H667 H 0.9706 0.60083 0.83228 0.0
H668 H 0.94014 0.58856 0.58919 0.0
H669 H 0.98259 0.61278 0.53327 0.0
C670 C 0.02609 0.63297 0.61744 0.0
C671 C 0.04726 0.64252 0.66906 0.0
C672 C 0.00144 0.62074 0.64993 0.0
C673 C 0.04343 0.6408 0.75382 0.0
C674 C 0.01901 0.62853 0.78644 0.0
C675 C 0.97322 0.60371 0.76718 0.0
C676 C 0.95211 0.59241 0.71513 0.0
C677 C 0.99785 0.61788 0.73507 0.0
C678 C 0.95595 0.5967 0.63089 0.0
C679 C 0.98031 0.61057 0.5986 0.0
H680 H 0.40654 0.04952 0.07226 0.0
H681 H 0.39331 0.02602 0.82092 0.0
H682 H 0.36973 0.98164 0.86313 0.0
H683 H 0.35657 0.94969 0.97036 0.0
H684 H 0.37251 0.97309 0.22136 0.0
H685 H 0.39116 0.01745 0.18012 0.0
C686 C 0.39818 0.03473 0.02658 0.0
C687 C 0.40181 0.04111 0.94342 0.0
C688 C 0.3853 0.00926 0.05123 0.0
C689 C 0.39093 0.02166 0.88523 0.0
C690 C 0.37748 0.99627 0.90935 0.0
C691 C 0.36376 0.96442 0.01636 0.0
C692 C 0.36324 0.95804 0.09894 0.0
C693 C 0.3751 0.98987 0.99207 0.0
C694 C 0.37278 0.97745 0.15744 0.0
C695 C 0.38349 0.00282 0.13386 0.0
H696 H 0.32795 0.40337 0.48005 0.0
H697 H 0.29907 0.45522 0.47585 0.0
H698 H 0.31285 0.46751 0.61619 0.0
H699 H 0.33789 0.46759 0.73215 0.0
H700 H 0.36884 0.41759 0.73555 0.0
H701 H 0.34958 0.40045 0.60243 0.0
C702 C 0.32397 0.41677 0.51074 0.0
C703 C 0.31255 0.42845 0.468 0.0
C704 C 0.33293 0.42452 0.59004 0.0
C705 C 0.30782 0.44603 0.50789 0.0
C706 C 0.31591 0.45322 0.58765 0.0
C707 C 0.34041 0.45293 0.70356 0.0
C708 C 0.35515 0.44417 0.74189 0.0
C709 C 0.32939 0.44336 0.62784 0.0
C710 C 0.35777 0.42473 0.70602 0.0
C711 C 0.34673 0.41495 0.63036 0.0
H712 H 0.92033 0.33504 0.13856 0.0
H713 H 0.85563 0.34605 0.14695 0.0
H714 H 0.84125 0.3253 0.01619 0.0
H715 H 0.84872 0.30746 0.89479 0.0
H716 H 0.9139 0.29743 0.8809 0.0
H717 H 0.92556 0.31298 0.02008 0.0
C718 C 0.90293 0.33255 0.1121 0.0
C719 C 0.88928 0.34234 0.15189 0.0
C720 C 0.89462 0.32046 0.03641 0.0
C721 C 0.86683 0.33918 0.11672 0.0
C722 C 0.85839 0.32707 0.0423 0.0
C723 C 0.86522 0.30819 0.92264 0.0
C724 C 0.88061 0.3017 0.87711 0.0
C725 C 0.87237 0.31808 0.00099 0.0
C726 C 0.90172 0.30241 0.91452 0.0
C727 C 0.9086 0.3116 0.99381 0.0
H728 H 0.59459 0.91974 0.18933 0.0
H729 H 0.54167 0.83927 0.18209 0.0
H730 H 0.52867 0.8407 0.32153 0.0
H731 H 0.52859 0.86562 0.43782 0.0
H732 H 0.57989 0.94629 0.44431 0.0
H733 H 0.5973 0.94416 0.31176 0.0
C734 C 0.58077 0.90239 0.21915 0.0
C735 C 0.56903 0.8794 0.17574 0.0
C736 C 0.57266 0.90357 0.29793 0.0
C737 C 0.55092 0.85713 0.21459 0.0
C738 C 0.54333 0.858 0.29384 0.0
C739 C 0.54356 0.88272 0.40996 0.0
C740 C 0.55267 0.90617 0.44908 0.0
C741 C 0.55334 0.88126 0.33463 0.0
C742 C 0.5725 0.92813 0.41417 0.0
C743 C 0.58244 0.92686 0.33886 0.0
H744 H 0.66763 0.53184 0.81342 0.0
H745 H 0.64528 0.58871 0.81693 0.0
H746 H 0.66527 0.60427 0.68361 0.0
H747 H 0.68471 0.59818 0.56081 0.0
H748 H 0.70492 0.53961 0.55671 0.0
H749 H 0.69077 0.52859 0.69728 0.0
C750 C 0.66716 0.54766 0.78485 0.0
C751 C 0.6546 0.55883 0.82327 0.0
C752 C 0.67853 0.55628 0.70896 0.0
C753 C 0.65465 0.57973 0.78739 0.0
C754 C 0.66609 0.58859 0.71157 0.0
C755 C 0.68674 0.58353 0.59152 0.0
C756 C 0.69576 0.56962 0.54865 0.0
C757 C 0.67759 0.57662 0.67107 0.0
C758 C 0.698 0.5505 0.58871 0.0
C759 C 0.68971 0.54406 0.66865 0.0
H760 H 0.13979 0.67305 0.17951 0.0
H761 H 0.05964 0.6465 0.18198 0.0
H762 H 0.0631 0.66612 0.04853 0.0
H763 H 0.08833 0.68655 0.92599 0.0
H764 H 0.16813 0.71095 0.92293 0.0
H765 H 0.16563 0.69704 0.06355 0.0
C766 C 0.12308 0.67158 0.15069 0.0
C767 C 0.09939 0.65795 0.18889 0.0
C768 C 0.12528 0.68273 0.07472 0.0
C769 C 0.07798 0.65671 0.15265 0.0
C770 C 0.08 0.66793 0.07676 0.0
C771 C 0.10532 0.68952 0.95693 0.0
C772 C 0.12841 0.69969 0.91436 0.0
C773 C 0.10349 0.68051 0.03651 0.0
C774 C 0.1502 0.70315 0.95471 0.0
C775 C 0.14871 0.69499 0.03467 0.0
H776 H 0.46521 0.13655 0.46949 0.0
H777 H 0.41479 0.05572 0.47566 0.0
H778 H 0.39737 0.05754 0.34277 0.0
H779 H 0.40043 0.08171 0.21937 0.0
H780 H 0.45269 0.16231 0.21231 0.0
H781 H 0.46496 0.16125 0.35297 0.0
C782 C 0.45038 0.11936 0.44152 0.0
C783 C 0.44161 0.09594 0.48037 0.0
C784 C 0.44065 0.12064 0.36598 0.0
C785 C 0.42195 0.07384 0.44553 0.0
C786 C 0.412 0.07494 0.37005 0.0
C787 C 0.41387 0.09916 0.24956 0.0
C788 C 0.42575 0.12207 0.20592 0.0
C789 C 0.42164 0.09818 0.32898 0.0
C790 C 0.44337 0.1445 0.24512 0.0
C791 C 0.45056 0.14385 0.32502 0.0
H792 H 0.55036 0.65524 0.11707 0.0
H793 H 0.58269 0.73372 0.05007 0.0
H794 H 0.58063 0.72233 0.90551 0.0
H795 H 0.56635 0.68925 0.79921 0.0
H796 H 0.53387 0.61083 0.8693 0.0
H797 H 0.53956 0.62294 0.01245 0.0
C798 C 0.55699 0.6698 0.0705 0.0
C799 C 0.56621 0.69513 0.09291 0.0
C800 C 0.55588 0.6631 0.98871 0.0
C801 C 0.57526 0.71406 0.03325 0.0
C802 C 0.57411 0.70753 0.95104 0.0
C803 C 0.5613 0.67493 0.84571 0.0
C804 C 0.54998 0.64918 0.82387 0.0
C805 C 0.56414 0.68202 0.92804 0.0
C806 C 0.54274 0.63075 0.88489 0.0
C807 C 0.54584 0.63764 0.9666 0.0
H808 H 0.87031 0.55364 0.17947 0.0
H809 H 0.94075 0.5569 0.2386 0.0
H810 H 0.93588 0.56511 0.38134 0.0
H811 H 0.90958 0.56723 0.48994 0.0
H812 H 0.83756 0.56071 0.43432 0.0
H813 H 0.84481 0.55792 0.28844 0.0
C814 C 0.88489 0.55692 0.2234 0.0
C815 C 0.90615 0.5553 0.1991 0.0
C816 C 0.88142 0.56068 0.30544 0.0
C817 C 0.9245 0.55851 0.25646 0.0
C818 C 0.92162 0.56303 0.33777 0.0
C819 C 0.89581 0.56578 0.44548 0.0
C820 C 0.87331 0.56454 0.47158 0.0
C821 C 0.8999 0.56359 0.36304 0.0
C822 C 0.85508 0.56189 0.41462 0.0
C823 C 0.85924 0.56026 0.33169 0.0
H824 H 0.32061 0.88812 0.54047 0.0
H825 H 0.39897 0.92107 0.61215 0.0
H826 H 0.38662 0.91563 0.75495 0.0
H827 H 0.35356 0.899 0.8586 0.0
H828 H 0.27522 0.86693 0.79029 0.0
H829 H 0.28748 0.87477 0.646 0.0
C830 C 0.33505 0.8949 0.5872 0.0
C831 C 0.36074 0.90532 0.56583 0.0
C832 C 0.32776 0.89147 0.66933 0.0
C833 C 0.37911 0.91312 0.62728 0.0
C834 C 0.37207 0.90992 0.7088 0.0
C835 C 0.33921 0.89373 0.81183 0.0
C836 C 0.31357 0.88196 0.83378 0.0
C837 C 0.34645 0.89861 0.73031 0.0
C838 C 0.29505 0.87573 0.77383 0.0
C839 C 0.30209 0.88026 0.69179 0.0
H840 H 0.46007 0.37888 0.93332 0.0
H841 H 0.4112 0.30738 0.8152 0.0
H842 H 0.40086 0.28589 0.94517 0.0
H843 H 0.41007 0.28631 0.09167 0.0
H844 H 0.46339 0.35707 0.20487 0.0
H845 H 0.46798 0.37971 0.07829 0.0
C846 C 0.44679 0.35866 0.93609 0.0
C847 C 0.43621 0.34504 0.86422 0.0
C848 C 0.44226 0.34605 0.01048 0.0
C849 C 0.41909 0.31878 0.86897 0.0
C850 C 0.41351 0.30623 0.94363 0.0
C851 C 0.42261 0.30666 0.08804 0.0
C852 C 0.43683 0.31999 0.15608 0.0
C853 C 0.42568 0.31952 0.01438 0.0
C854 C 0.45281 0.3464 0.15202 0.0
C855 C 0.45528 0.35938 0.08007 0.0
H856 H 0.15905 0.46771 0.3792 0.0
H857 H 0.10022 0.38906 0.38201 0.0
H858 H 0.08878 0.39275 0.24239 0.0
H859 H 0.09197 0.41999 0.12634 0.0
H860 H 0.15 0.49898 0.1288 0.0
H861 H 0.16462 0.49363 0.26066 0.0
C862 C 0.14402 0.4512 0.34896 0.0
C863 C 0.13029 0.42828 0.39149 0.0
C864 C 0.13687 0.4537 0.27032 0.0
C865 C 0.11107 0.40701 0.35085 0.0
C866 C 0.1043 0.40917 0.27126 0.0
C867 C 0.10803 0.43588 0.15525 0.0
C868 C 0.11973 0.45985 0.11805 0.0
C869 C 0.11646 0.43269 0.23153 0.0
C870 C 0.14033 0.4804 0.1568 0.0
C871 C 0.14891 0.47734 0.23188 0.0
H872 H 0.65815 0.13307 0.56518 0.0
H873 H 0.64392 0.05639 0.55303 0.0
H874 H 0.66433 0.06156 0.68595 0.0
H875 H 0.68159 0.08649 0.81101 0.0
H876 H 0.6944 0.16283 0.82315 0.0
H877 H 0.67995 0.15958 0.68299 0.0
C878 C 0.65961 0.11755 0.59185 0.0
C879 C 0.64912 0.0942 0.55136 0.0
C880 C 0.67135 0.12076 0.66734 0.0
C881 C 0.65163 0.07438 0.58445 0.0
C882 C 0.66333 0.07739 0.65998 0.0
C883 C 0.68196 0.10269 0.7822 0.0
C884 C 0.68882 0.12481 0.8274 0.0
C885 C 0.67272 0.10033 0.70275 0.0
C886 C 0.68906 0.14558 0.78949 0.0
C887 C 0.68059 0.14365 0.70975 0.0
loop_
_geom_bond_atom_site_label_1
_geom_bond_atom_site_label_2
_geom_bond_distance
_geom_bond_site_symmetry_2
_ccdc_geom_bond_type
Co0 O3 1.970 . S
Co0 N17 1.989 . S
Co0 O25 1.967 . S
Co0 O32 1.920 . S
Co1 O4 1.966 . S
Co1 N10 2.016 1_554 S
Co1 N18 1.993 . S
Co1 O26 1.941 . S
C2 O3 1.258 . S
C2 O4 1.263 . S
O3 Co0 1.970 . S
O3 C2 1.258 . S
O4 Co1 1.966 . S
O4 C2 1.263 . S
C5 O6 1.235 . S
C5 O32 1.289 . S
O6 C5 1.235 . S
C7 C9 1.400 . S
C7 N10 1.355 . S
C7 C12 1.501 . S
C8 C9 1.387 . S
C8 N11 1.341 . S
C9 C7 1.400 . S
C9 C8 1.387 . S
N10 Co1 2.016 1_556 S
N10 C7 1.355 . S
N10 N11 1.369 . S
N11 C8 1.341 . S
N11 N10 1.369 . S
N11 H31 0.862 . S
C12 C7 1.501 . S
C12 H13 0.961 1_556 S
C12 H14 0.961 . S
C12 H15 0.960 . S
H13 C12 0.961 1_554 S
H14 C12 0.961 . S
H15 C12 0.960 . S
C16 N17 1.342 . S
C16 C20 1.401 . S
C16 C21 1.499 . S
N17 Co0 1.989 . S
N17 C16 1.342 . S
N17 N18 1.388 . S
N18 Co1 1.993 . S
N18 N17 1.388 . S
N18 C19 1.346 . S
C19 N18 1.346 . S
C19 C20 1.396 . S
C19 C29 1.510 . S
C20 C16 1.401 . S
C20 C19 1.396 . S
C21 C16 1.499 . S
C21 H22 0.959 . S
C21 H23 0.960 . S
C21 H24 0.961 . S
H22 C21 0.959 . S
H23 C21 0.960 . S
H24 C21 0.961 . S
O25 Co0 1.967 . S
O25 C33 1.258 . S
O26 Co1 1.941 . S
O26 C33 1.266 . S
H27 C29 0.959 1_556 S
H28 C29 0.961 1_556 S
C29 C19 1.510 . S
C29 H27 0.959 1_554 S
C29 H28 0.961 1_554 S
C29 H30 0.960 1_554 S
H30 C29 0.960 1_556 S
H31 N11 0.862 . S
O32 Co0 1.920 . S
O32 C5 1.289 . S
C33 O25 1.258 . S
C33 O26 1.266 . S
Co34 O37 1.970 . S
Co34 N51 1.989 . S
Co34 O59 1.967 . S
Co34 O66 1.920 . S
Co35 O38 1.966 . S
Co35 N44 2.022 . S
Co35 N52 1.993 . S
Co35 O60 1.941 . S
C36 O37 1.258 . S
C36 O38 1.263 . S
O37 Co34 1.970 . S
O37 C36 1.258 . S
O38 Co35 1.966 . S
O38 C36 1.263 . S
C39 O40 1.235 . S
C39 O66 1.289 . S
O40 C39 1.235 . S
C41 C43 1.400 . S
C41 N44 1.351 . S
C41 C46 1.501 . S
C42 C43 1.387 . S
C42 N45 1.341 . S
C43 C41 1.400 . S
C43 C42 1.387 . S
N44 Co35 2.022 . S
N44 C41 1.351 . S
N44 N45 1.365 . S
N45 C42 1.341 . S
N45 N44 1.365 . S
N45 H65 0.862 . S
C46 C41 1.501 . S
C46 H47 0.961 . S
C46 H48 0.961 . S
C46 H49 0.960 . S
H47 C46 0.961 . S
H48 C46 0.961 . S
H49 C46 0.960 . S
C50 N51 1.342 . S
C50 C54 1.401 . S
C50 C55 1.499 . S
N51 Co34 1.989 . S
N51 C50 1.342 . S
N51 N52 1.388 . S
N52 Co35 1.993 . S
N52 N51 1.388 . S
N52 C53 1.346 . S
C53 N52 1.346 . S
C53 C54 1.396 . S
C53 C63 1.510 . S
C54 C50 1.401 . S
C54 C53 1.396 . S
C55 C50 1.499 . S
C55 H56 0.959 . S
C55 H57 0.960 . S
C55 H58 0.961 . S
H56 C55 0.959 . S
H57 C55 0.960 . S
H58 C55 0.961 . S
O59 Co34 1.967 . S
O59 C67 1.258 . S
O60 Co35 1.941 . S
O60 C67 1.266 . S
H61 C63 0.959 . S
H62 C63 0.961 . S
C63 C53 1.510 . S
C63 H61 0.959 . S
C63 H62 0.961 . S
C63 H64 0.960 . S
H64 C63 0.960 . S
H65 N45 0.862 . S
O66 Co34 1.920 . S
O66 C39 1.289 . S
C67 O59 1.258 . S
C67 O60 1.266 . S
Co68 O71 1.970 . S
Co68 N85 1.989 . S
Co68 O93 1.967 . S
Co68 O100 1.920 1_556 S
Co69 O72 1.966 . S
Co69 N78 2.022 . S
Co69 N86 1.993 . S
Co69 O94 1.941 . S
C70 O71 1.258 . S
C70 O72 1.263 . S
O71 Co68 1.970 . S
O71 C70 1.258 . S
O72 Co69 1.966 . S
O72 C70 1.263 . S
C73 O74 1.235 . S
C73 O100 1.289 . S
O74 C73 1.235 . S
C75 C77 1.400 . S
C75 N78 1.351 . S
C75 C80 1.501 . S
C76 C77 1.387 . S
C76 N79 1.341 . S
C77 C75 1.400 . S
C77 C76 1.387 . S
N78 Co69 2.022 . S
N78 C75 1.351 . S
N78 N79 1.365 . S
N79 C76 1.341 . S
N79 N78 1.365 . S
N79 H99 0.862 . S
C80 C75 1.501 . S
C80 H81 0.961 . S
C80 H82 0.961 . S
C80 H83 0.960 . S
H81 C80 0.961 . S
H82 C80 0.961 . S
H83 C80 0.960 . S
C84 N85 1.342 . S
C84 C88 1.401 . S
C84 C89 1.499 . S
N85 Co68 1.989 . S
N85 C84 1.342 . S
N85 N86 1.388 . S
N86 Co69 1.993 . S
N86 N85 1.388 . S
N86 C87 1.346 . S
C87 N86 1.346 . S
C87 C88 1.396 . S
C87 C97 1.510 . S
C88 C84 1.401 . S
C88 C87 1.396 . S
C89 C84 1.499 . S
C89 H90 0.959 1_556 S
C89 H91 0.960 . S
C89 H92 0.961 . S
H90 C89 0.959 1_554 S
H91 C89 0.960 . S
H92 C89 0.961 . S
O93 Co68 1.967 . S
O93 C101 1.258 . S
O94 Co69 1.941 . S
O94 C101 1.266 . S
H95 C97 0.959 . S
H96 C97 0.961 . S
C97 C87 1.510 . S
C97 H95 0.959 . S
C97 H96 0.961 . S
C97 H98 0.960 . S
H98 C97 0.960 . S
H99 N79 0.862 . S
O100 Co68 1.920 1_554 S
O100 C73 1.289 . S
C101 O93 1.258 . S
C101 O94 1.266 . S
Co102 O105 1.970 . S
Co102 N119 1.989 . S
Co102 O127 1.967 . S
Co102 O134 1.920 . S
Co103 O106 1.966 . S
Co103 N112 2.016 1_554 S
Co103 N120 1.993 . S
Co103 O128 1.941 . S
C104 O105 1.258 . S
C104 O106 1.263 . S
O105 Co102 1.970 . S
O105 C104 1.258 . S
O106 Co103 1.966 . S
O106 C104 1.263 . S
C107 O108 1.235 . S
C107 O134 1.289 . S
O108 C107 1.235 . S
C109 C111 1.400 . S
C109 N112 1.355 . S
C109 C114 1.501 . S
C110 C111 1.387 . S
C110 N113 1.341 . S
C111 C109 1.400 . S
C111 C110 1.387 . S
N112 Co103 2.016 1_556 S
N112 C109 1.355 . S
N112 N113 1.369 . S
N113 C110 1.341 . S
N113 N112 1.369 . S
N113 H133 0.862 . S
C114 C109 1.501 . S
C114 H115 0.961 1_556 S
C114 H116 0.961 . S
C114 H117 0.960 . S
H115 C114 0.961 1_554 S
H116 C114 0.961 . S
H117 C114 0.960 . S
C118 N119 1.342 . S
C118 C122 1.401 . S
C118 C123 1.499 . S
N119 Co102 1.989 . S
N119 C118 1.342 . S
N119 N120 1.388 . S
N120 Co103 1.993 . S
N120 N119 1.388 . S
N120 C121 1.346 . S
C121 N120 1.346 . S
C121 C122 1.396 . S
C121 C131 1.510 . S
C122 C118 1.401 . S
C122 C121 1.396 . S
C123 C118 1.499 . S
C123 H124 0.959 . S
C123 H125 0.960 . S
C123 H126 0.961 . S
H124 C123 0.959 . S
H125 C123 0.960 . S
H126 C123 0.961 . S
O127 Co102 1.967 . S
O127 C135 1.258 . S
O128 Co103 1.941 . S
O128 C135 1.266 . S
H129 C131 0.959 1_556 S
H130 C131 0.961 1_556 S
C131 C121 1.510 . S
C131 H129 0.959 1_554 S
C131 H130 0.961 1_554 S
C131 H132 0.960 1_554 S
H132 C131 0.960 1_556 S
H133 N113 0.862 . S
O134 Co102 1.920 . S
O134 C107 1.289 . S
C135 O127 1.258 . S
C135 O128 1.266 . S
Co136 O139 1.970 . S
Co136 N153 1.989 . S
Co136 O161 1.967 . S
Co136 O168 1.920 . S
Co137 O140 1.966 . S
Co137 N146 2.022 . S
Co137 N154 1.993 . S
Co137 O162 1.941 . S
C138 O139 1.258 . S
C138 O140 1.263 . S
O139 Co136 1.970 . S
O139 C138 1.258 . S
O140 Co137 1.966 . S
O140 C138 1.263 . S
C141 O142 1.235 . S
C141 O168 1.289 . S
O142 C141 1.235 . S
C143 C145 1.400 . S
C143 N146 1.351 . S
C143 C148 1.501 . S
C144 C145 1.387 . S
C144 N147 1.341 . S
C145 C143 1.400 . S
C145 C144 1.387 . S
N146 Co137 2.022 . S
N146 C143 1.351 . S
N146 N147 1.365 . S
N147 C144 1.341 . S
N147 N146 1.365 . S
N147 H167 0.862 . S
C148 C143 1.501 . S
C148 H149 0.961 . S
C148 H150 0.961 . S
C148 H151 0.960 . S
H149 C148 0.961 . S
H150 C148 0.961 . S
H151 C148 0.960 . S
C152 N153 1.342 . S
C152 C156 1.401 . S
C152 C157 1.499 . S
N153 Co136 1.989 . S
N153 C152 1.342 . S
N153 N154 1.388 . S
N154 Co137 1.993 . S
N154 N153 1.388 . S
N154 C155 1.346 . S
C155 N154 1.346 . S
C155 C156 1.396 . S
C155 C165 1.510 . S
C156 C152 1.401 . S
C156 C155 1.396 . S
C157 C152 1.499 . S
C157 H158 0.959 . S
C157 H159 0.960 . S
C157 H160 0.961 . S
H158 C157 0.959 . S
H159 C157 0.960 . S
H160 C157 0.961 . S
O161 Co136 1.967 . S
O161 C169 1.258 . S
O162 Co137 1.941 . S
O162 C169 1.266 . S
H163 C165 0.959 . S
H164 C165 0.961 . S
C165 C155 1.510 . S
C165 H163 0.959 . S
C165 H164 0.961 . S
C165 H166 0.960 . S
H166 C165 0.960 . S
H167 N147 0.862 . S
O168 Co136 1.920 . S
O168 C141 1.289 . S
C169 O161 1.258 . S
C169 O162 1.266 . S
Co170 O173 1.970 . S
Co170 N187 1.989 . S
Co170 O195 1.967 . S
Co170 O202 1.920 1_556 S
Co171 O174 1.966 . S
Co171 N180 2.022 . S
Co171 N188 1.993 . S
Co171 O196 1.941 . S
C172 O173 1.258 . S
C172 O174 1.263 . S
O173 Co170 1.970 . S
O173 C172 1.258 . S
O174 Co171 1.966 . S
O174 C172 1.263 . S
C175 O176 1.235 . S
C175 O202 1.289 . S
O176 C175 1.235 . S
C177 C179 1.400 . S
C177 N180 1.351 . S
C177 C182 1.501 . S
C178 C179 1.387 . S
C178 N181 1.341 . S
C179 C177 1.400 . S
C179 C178 1.387 . S
N180 Co171 2.022 . S
N180 C177 1.351 . S
N180 N181 1.365 . S
N181 C178 1.341 . S
N181 N180 1.365 . S
N181 H201 0.862 . S
C182 C177 1.501 . S
C182 H183 0.961 . S
C182 H184 0.961 . S
C182 H185 0.960 . S
H183 C182 0.961 . S
H184 C182 0.961 . S
H185 C182 0.960 . S
C186 N187 1.342 . S
C186 C190 1.401 . S
C186 C191 1.499 . S
N187 Co170 1.989 . S
N187 C186 1.342 . S
N187 N188 1.388 . S
N188 Co171 1.993 . S
N188 N187 1.388 . S
N188 C189 1.346 . S
C189 N188 1.346 . S
C189 C190 1.396 . S
C189 C199 1.510 . S
C190 C186 1.401 . S
C190 C189 1.396 . S
C191 C186 1.499 . S
C191 H192 0.959 1_556 S
C191 H193 0.960 . S
C191 H194 0.961 . S
H192 C191 0.959 1_554 S
H193 C191 0.960 . S
H194 C191 0.961 . S
O195 Co170 1.967 . S
O195 C203 1.258 . S
O196 Co171 1.941 . S
O196 C203 1.266 . S
H197 C199 0.959 . S
H198 C199 0.961 . S
C199 C189 1.510 . S
C199 H197 0.959 . S
C199 H198 0.961 . S
C199 H200 0.960 . S
H200 C199 0.960 . S
H201 N181 0.862 . S
O202 Co170 1.920 1_554 S
O202 C175 1.289 . S
C203 O195 1.258 . S
C203 O196 1.266 . S
Co204 O207 1.970 . S
Co204 N221 1.989 . S
Co204 O229 1.967 . S
Co204 O236 1.920 . S
Co205 O208 1.966 . S
Co205 N214 2.022 . S
Co205 N222 1.993 . S
Co205 O230 1.941 . S
C206 O207 1.258 . S
C206 O208 1.263 . S
O207 Co204 1.970 . S
O207 C206 1.258 . S
O208 Co205 1.966 . S
O208 C206 1.263 . S
C209 O210 1.235 . S
C209 O236 1.289 . S
O210 C209 1.235 . S
C211 C213 1.400 . S
C211 N214 1.351 . S
C211 C216 1.501 . S
C212 C213 1.387 . S
C212 N215 1.341 . S
C213 C211 1.400 . S
C213 C212 1.387 . S
N214 Co205 2.022 . S
N214 C211 1.351 . S
N214 N215 1.365 . S
N215 C212 1.341 . S
N215 N214 1.365 . S
N215 H235 0.862 . S
C216 C211 1.501 . S
C216 H217 0.961 . S
C216 H218 0.961 . S
C216 H219 0.960 . S
H217 C216 0.961 . S
H218 C216 0.961 . S
H219 C216 0.960 . S
C220 N221 1.342 . S
C220 C224 1.401 . S
C220 C225 1.499 . S
N221 Co204 1.989 . S
N221 C220 1.342 . S
N221 N222 1.388 . S
N222 Co205 1.993 . S
N222 N221 1.388 . S
N222 C223 1.346 . S
C223 N222 1.346 . S
C223 C224 1.396 . S
C223 C233 1.510 . S
C224 C220 1.401 . S
C224 C223 1.396 . S
C225 C220 1.499 . S
C225 H226 0.959 . S
C225 H227 0.960 . S
C225 H228 0.961 . S
H226 C225 0.959 . S
H227 C225 0.960 . S
H228 C225 0.961 . S
O229 Co204 1.967 . S
O229 C237 1.258 . S
O230 Co205 1.941 . S
O230 C237 1.266 . S
H231 C233 0.959 . S
H232 C233 0.961 . S
C233 C223 1.510 . S
C233 H231 0.959 . S
C233 H232 0.961 . S
C233 H234 0.960 . S
H234 C233 0.960 . S
H235 N215 0.862 . S
O236 Co204 1.920 . S
O236 C209 1.289 . S
C237 O229 1.258 . S
C237 O230 1.266 . S
Co238 O241 1.970 . S
Co238 N255 1.989 . S
Co238 O263 1.967 . S
Co238 O270 1.920 . S
Co239 O242 1.966 . S
Co239 N248 2.017 1_556 S
Co239 N256 1.993 . S
Co239 O264 1.941 . S
C240 O241 1.258 . S
C240 O242 1.263 . S
O241 Co238 1.970 . S
O241 C240 1.258 . S
O242 Co239 1.966 . S
O242 C240 1.263 . S
C243 O244 1.235 . S
C243 O270 1.289 . S
O244 C243 1.235 . S
C245 C247 1.400 . S
C245 N248 1.354 . S
C245 C250 1.501 . S
C246 C247 1.387 . S
C246 N249 1.341 . S
C247 C245 1.400 . S
C247 C246 1.387 . S
N248 Co239 2.017 1_554 S
N248 C245 1.354 . S
N248 N249 1.369 . S
N249 C246 1.341 . S
N249 N248 1.369 . S
N249 H269 0.862 . S
C250 C245 1.501 . S
C250 H251 0.961 1_554 S
C250 H252 0.961 . S
C250 H253 0.960 . S
H251 C250 0.961 1_556 S
H252 C250 0.961 . S
H253 C250 0.960 . S
C254 N255 1.342 . S
C254 C258 1.401 . S
C254 C259 1.499 . S
N255 Co238 1.989 . S
N255 C254 1.342 . S
N255 N256 1.388 . S
N256 Co239 1.993 . S
N256 N255 1.388 . S
N256 C257 1.346 . S
C257 N256 1.346 . S
C257 C258 1.396 . S
C257 C267 1.510 . S
C258 C254 1.401 . S
C258 C257 1.396 . S
C259 C254 1.499 . S
C259 H260 0.959 . S
C259 H261 0.960 . S
C259 H262 0.961 . S
H260 C259 0.959 . S
H261 C259 0.960 . S
H262 C259 0.961 . S
O263 Co238 1.967 . S
O263 C271 1.258 . S
O264 Co239 1.941 . S
O264 C271 1.266 . S
H265 C267 0.959 1_554 S
H266 C267 0.961 1_554 S
C267 C257 1.510 . S
C267 H265 0.959 1_556 S
C267 H266 0.961 1_556 S
C267 H268 0.960 1_556 S
H268 C267 0.960 1_554 S
H269 N249 0.862 . S
O270 Co238 1.920 . S
O270 C243 1.289 . S
C271 O263 1.258 . S
C271 O264 1.266 . S
Co272 O275 1.970 . S
Co272 N289 1.989 . S
Co272 O297 1.967 . S
Co272 O304 1.920 1_554 S
Co273 O276 1.966 . S
Co273 N282 2.022 . S
Co273 N290 1.993 . S
Co273 O298 1.941 . S
C274 O275 1.258 . S
C274 O276 1.263 . S
O275 Co272 1.970 . S
O275 C274 1.258 . S
O276 Co273 1.966 . S
O276 C274 1.263 . S
C277 O278 1.235 . S
C277 O304 1.289 . S
O278 C277 1.235 . S
C279 C281 1.400 . S
C279 N282 1.351 . S
C279 C284 1.501 . S
C280 C281 1.387 . S
C280 N283 1.341 . S
C281 C279 1.400 . S
C281 C280 1.387 . S
N282 Co273 2.022 . S
N282 C279 1.351 . S
N282 N283 1.365 . S
N283 C280 1.341 . S
N283 N282 1.365 . S
N283 H303 0.862 . S
C284 C279 1.501 . S
C284 H285 0.961 . S
C284 H286 0.961 . S
C284 H287 0.960 . S
H285 C284 0.961 . S
H286 C284 0.961 . S
H287 C284 0.960 . S
C288 N289 1.342 . S
C288 C292 1.401 . S
C288 C293 1.499 . S
N289 Co272 1.989 . S
N289 C288 1.342 . S
N289 N290 1.388 . S
N290 Co273 1.993 . S
N290 N289 1.388 . S
N290 C291 1.346 . S
C291 N290 1.346 . S
C291 C292 1.396 . S
C291 C301 1.510 . S
C292 C288 1.401 . S
C292 C291 1.396 . S
C293 C288 1.499 . S
C293 H294 0.959 1_554 S
C293 H295 0.960 . S
C293 H296 0.961 . S
H294 C293 0.959 1_556 S
H295 C293 0.960 . S
H296 C293 0.961 . S
O297 Co272 1.967 . S
O297 C305 1.258 . S
O298 Co273 1.941 . S
O298 C305 1.266 . S
H299 C301 0.959 . S
H300 C301 0.961 . S
C301 C291 1.510 . S
C301 H299 0.959 . S
C301 H300 0.961 . S
C301 H302 0.960 . S
H302 C301 0.960 . S
H303 N283 0.862 . S
O304 Co272 1.920 1_556 S
O304 C277 1.289 . S
C305 O297 1.258 . S
C305 O298 1.266 . S
Co306 O309 1.970 . S
Co306 N323 1.989 . S
Co306 O331 1.967 . S
Co306 O338 1.920 . S
Co307 O310 1.966 . S
Co307 N316 2.022 . S
Co307 N324 1.993 . S
Co307 O332 1.941 . S
C308 O309 1.258 . S
C308 O310 1.263 . S
O309 Co306 1.970 . S
O309 C308 1.258 . S
O310 Co307 1.966 . S
O310 C308 1.263 . S
C311 O312 1.235 . S
C311 O338 1.289 . S
O312 C311 1.235 . S
C313 C315 1.400 . S
C313 N316 1.351 . S
C313 C318 1.501 . S
C314 C315 1.387 . S
C314 N317 1.341 . S
C315 C313 1.400 . S
C315 C314 1.387 . S
N316 Co307 2.022 . S
N316 C313 1.351 . S
N316 N317 1.365 . S
N317 C314 1.341 . S
N317 N316 1.365 . S
N317 H337 0.862 . S
C318 C313 1.501 . S
C318 H319 0.961 . S
C318 H320 0.961 . S
C318 H321 0.960 . S
H319 C318 0.961 . S
H320 C318 0.961 . S
H321 C318 0.960 . S
C322 N323 1.342 . S
C322 C326 1.401 . S
C322 C327 1.499 . S
N323 Co306 1.989 . S
N323 C322 1.342 . S
N323 N324 1.388 . S
N324 Co307 1.993 . S
N324 N323 1.388 . S
N324 C325 1.346 . S
C325 N324 1.346 . S
C325 C326 1.396 . S
C325 C335 1.510 . S
C326 C322 1.401 . S
C326 C325 1.396 . S
C327 C322 1.499 . S
C327 H328 0.959 . S
C327 H329 0.960 . S
C327 H330 0.961 . S
H328 C327 0.959 . S
H329 C327 0.960 . S
H330 C327 0.961 . S
O331 Co306 1.967 . S
O331 C339 1.258 . S
O332 Co307 1.941 . S
O332 C339 1.266 . S
H333 C335 0.959 . S
H334 C335 0.961 . S
C335 C325 1.510 . S
C335 H333 0.959 . S
C335 H334 0.961 . S
C335 H336 0.960 . S
H336 C335 0.960 . S
H337 N317 0.862 . S
O338 Co306 1.920 . S
O338 C311 1.289 . S
C339 O331 1.258 . S
C339 O332 1.266 . S
Co340 O343 1.970 . S
Co340 N357 1.989 . S
Co340 O365 1.967 . S
Co340 O372 1.920 . S
Co341 O344 1.966 . S
Co341 N350 2.017 1_556 S
Co341 N358 1.993 . S
Co341 O366 1.941 . S
C342 O343 1.258 . S
C342 O344 1.263 . S
O343 Co340 1.970 . S
O343 C342 1.258 . S
O344 Co341 1.966 . S
O344 C342 1.263 . S
C345 O346 1.235 . S
C345 O372 1.289 . S
O346 C345 1.235 . S
C347 C349 1.400 . S
C347 N350 1.354 . S
C347 C352 1.501 . S
C348 C349 1.387 . S
C348 N351 1.341 . S
C349 C347 1.400 . S
C349 C348 1.387 . S
N350 Co341 2.017 1_554 S
N350 C347 1.354 . S
N350 N351 1.368 . S
N351 C348 1.341 . S
N351 N350 1.368 . S
N351 H371 0.862 . S
C352 C347 1.501 . S
C352 H353 0.961 1_554 S
C352 H354 0.961 . S
C352 H355 0.960 . S
H353 C352 0.961 1_556 S
H354 C352 0.961 . S
H355 C352 0.960 . S
C356 N357 1.342 . S
C356 C360 1.401 . S
C356 C361 1.499 . S
N357 Co340 1.989 . S
N357 C356 1.342 . S
N357 N358 1.388 . S
N358 Co341 1.993 . S
N358 N357 1.388 . S
N358 C359 1.346 . S
C359 N358 1.346 . S
C359 C360 1.396 . S
C359 C369 1.510 . S
C360 C356 1.401 . S
C360 C359 1.396 . S
C361 C356 1.499 . S
C361 H362 0.959 . S
C361 H363 0.960 . S
C361 H364 0.961 . S
H362 C361 0.959 . S
H363 C361 0.960 . S
H364 C361 0.961 . S
O365 Co340 1.967 . S
O365 C373 1.258 . S
O366 Co341 1.941 . S
O366 C373 1.266 . S
H367 C369 0.959 1_554 S
H368 C369 0.961 1_554 S
C369 C359 1.510 . S
C369 H367 0.959 1_556 S
C369 H368 0.961 1_556 S
C369 H370 0.960 1_556 S
H370 C369 0.960 1_554 S
H371 N351 0.862 . S
O372 Co340 1.920 . S
O372 C345 1.289 . S
C373 O365 1.258 . S
C373 O366 1.266 . S
Co374 O377 1.970 . S
Co374 N391 1.989 . S
Co374 O399 1.967 . S
Co374 O406 1.920 1_554 S
Co375 O378 1.966 . S
Co375 N384 2.022 . S
Co375 N392 1.993 . S
Co375 O400 1.941 . S
C376 O377 1.258 . S
C376 O378 1.263 . S
O377 Co374 1.970 . S
O377 C376 1.258 . S
O378 Co375 1.966 . S
O378 C376 1.263 . S
C379 O380 1.235 . S
C379 O406 1.289 . S
O380 C379 1.235 . S
C381 C383 1.400 . S
C381 N384 1.351 . S
C381 C386 1.501 . S
C382 C383 1.387 . S
C382 N385 1.341 . S
C383 C381 1.400 . S
C383 C382 1.387 . S
N384 Co375 2.022 . S
N384 C381 1.351 . S
N384 N385 1.365 . S
N385 C382 1.341 . S
N385 N384 1.365 . S
N385 H405 0.862 . S
C386 C381 1.501 . S
C386 H387 0.961 . S
C386 H388 0.961 . S
C386 H389 0.960 . S
H387 C386 0.961 . S
H388 C386 0.961 . S
H389 C386 0.960 . S
C390 N391 1.342 . S
C390 C394 1.401 . S
C390 C395 1.499 . S
N391 Co374 1.989 . S
N391 C390 1.342 . S
N391 N392 1.388 . S
N392 Co375 1.993 . S
N392 N391 1.388 . S
N392 C393 1.346 . S
C393 N392 1.346 . S
C393 C394 1.396 . S
C393 C403 1.510 . S
C394 C390 1.401 . S
C394 C393 1.396 . S
C395 C390 1.499 . S
C395 H396 0.959 1_554 S
C395 H397 0.960 . S
C395 H398 0.961 . S
H396 C395 0.959 1_556 S
H397 C395 0.960 . S
H398 C395 0.961 . S
O399 Co374 1.967 . S
O399 C407 1.258 . S
O400 Co375 1.941 . S
O400 C407 1.266 . S
H401 C403 0.959 . S
H402 C403 0.961 . S
C403 C393 1.510 . S
C403 H401 0.959 . S
C403 H402 0.961 . S
C403 H404 0.960 . S
H404 C403 0.960 . S
H405 N385 0.862 . S
O406 Co374 1.920 1_556 S
O406 C379 1.289 . S
C407 O399 1.258 . S
C407 O400 1.266 . S
H408 C414 0.930 . S
H409 C417 0.930 . S
H410 C418 0.930 . S
H411 C419 0.930 . S
H412 C422 0.930 . S
H413 C423 0.930 . S
C414 H408 0.930 . S
C414 C415 1.355 . S
C414 C416 1.415 . S
C415 C414 1.355 . S
C415 C417 1.419 . S
C416 C414 1.415 . S
C416 C421 1.425 1_554 S
C416 C423 1.409 . S
C417 H409 0.930 . S
C417 C415 1.419 . S
C417 C418 1.362 1_554 S
C418 H410 0.930 . S
C418 C417 1.362 1_556 S
C418 C421 1.409 . S
C419 H411 0.930 . S
C419 C420 1.355 . S
C419 C421 1.415 . S
C420 C419 1.355 . S
C420 C422 1.419 . S
C421 C416 1.425 1_556 S
C421 C418 1.409 . S
C421 C419 1.415 . S
C422 H412 0.930 . S
C422 C420 1.419 . S
C422 C423 1.362 1_556 S
C423 H413 0.930 . S
C423 C416 1.409 . S
C423 C422 1.362 1_554 S
H424 C430 0.930 . S
H425 C433 0.930 . S
H426 C434 0.930 . S
H427 C435 0.930 . S
H428 C438 0.930 . S
H429 C439 0.930 . S
C430 H424 0.930 . S
C430 C431 1.355 . S
C430 C432 1.415 . S
C431 C430 1.355 . S
C431 C433 1.419 . S
C432 C430 1.415 . S
C432 C437 1.425 . S
C432 C439 1.409 . S
C433 H425 0.930 . S
C433 C431 1.419 . S
C433 C434 1.362 . S
C434 H426 0.930 . S
C434 C433 1.362 . S
C434 C437 1.409 . S
C435 H427 0.930 . S
C435 C436 1.355 . S
C435 C437 1.415 . S
C436 C435 1.355 . S
C436 C438 1.419 . S
C437 C432 1.425 . S
C437 C434 1.409 . S
C437 C435 1.415 . S
C438 H428 0.930 . S
C438 C436 1.419 . S
C438 C439 1.362 . S
C439 H429 0.930 . S
C439 C432 1.409 . S
C439 C438 1.362 . S
H440 C446 0.930 . S
H441 C449 0.930 . S
H442 C450 0.930 . S
H443 C451 0.930 . S
H444 C454 0.930 . S
H445 C455 0.930 . S
C446 H440 0.930 . S
C446 C447 1.355 . S
C446 C448 1.415 . S
C447 C446 1.355 . S
C447 C449 1.419 . S
C448 C446 1.415 . S
C448 C453 1.425 . S
C448 C455 1.409 . S
C449 H441 0.930 . S
C449 C447 1.419 . S
C449 C450 1.362 . S
C450 H442 0.930 . S
C450 C449 1.362 . S
C450 C453 1.409 . S
C451 H443 0.930 . S
C451 C452 1.355 . S
C451 C453 1.415 . S
C452 C451 1.355 . S
C452 C454 1.419 . S
C453 C448 1.425 . S
C453 C450 1.409 . S
C453 C451 1.415 . S
C454 H444 0.930 . S
C454 C452 1.419 . S
C454 C455 1.362 . S
C455 H445 0.930 . S
C455 C448 1.409 . S
C455 C454 1.362 . S
H456 C462 0.930 . S
H457 C465 0.930 . S
H458 C466 0.930 . S
H459 C467 0.930 . S
H460 C470 0.930 . S
H461 C471 0.930 . S
C462 H456 0.930 . S
C462 C463 1.355 . S
C462 C464 1.415 . S
C463 C462 1.355 . S
C463 C465 1.419 . S
C464 C462 1.415 . S
C464 C469 1.425 1_556 S
C464 C471 1.409 . S
C465 H457 0.930 . S
C465 C463 1.419 . S
C465 C466 1.362 1_556 S
C466 H458 0.930 . S
C466 C465 1.362 1_554 S
C466 C469 1.409 . S
C467 H459 0.930 . S
C467 C468 1.355 . S
C467 C469 1.415 . S
C468 C467 1.355 . S
C468 C470 1.419 . S
C469 C464 1.425 1_554 S
C469 C466 1.409 . S
C469 C467 1.415 . S
C470 H460 0.930 . S
C470 C468 1.419 . S
C470 C471 1.362 1_554 S
C471 H461 0.930 . S
C471 C464 1.409 . S
C471 C470 1.362 1_556 S
H472 C478 0.930 . S
H473 C481 0.930 . S
H474 C482 0.930 . S
H475 C483 0.930 . S
H476 C486 0.930 . S
H477 C487 0.930 . S
C478 H472 0.930 . S
C478 C479 1.355 . S
C478 C480 1.415 . S
C479 C478 1.355 . S
C479 C481 1.419 . S
C480 C478 1.415 . S
C480 C485 1.425 . S
C480 C487 1.409 . S
C481 H473 0.930 . S
C481 C479 1.419 . S
C481 C482 1.362 . S
C482 H474 0.930 . S
C482 C481 1.362 . S
C482 C485 1.409 . S
C483 H475 0.930 . S
C483 C484 1.355 . S
C483 C485 1.415 . S
C484 C483 1.355 . S
C484 C486 1.419 . S
C485 C480 1.425 . S
C485 C482 1.409 . S
C485 C483 1.415 . S
C486 H476 0.930 . S
C486 C484 1.419 . S
C486 C487 1.362 . S
C487 H477 0.930 . S
C487 C480 1.409 . S
C487 C486 1.362 . S
H488 C494 0.930 . S
H489 C497 0.930 . S
H490 C498 0.930 . S
H491 C499 0.930 . S
H492 C502 0.930 . S
H493 C503 0.930 . S
C494 H488 0.930 . S
C494 C495 1.355 . S
C494 C496 1.415 . S
C495 C494 1.355 . S
C495 C497 1.419 . S
C496 C494 1.415 . S
C496 C501 1.425 . S
C496 C503 1.409 . S
C497 H489 0.930 . S
C497 C495 1.419 . S
C497 C498 1.362 . S
C498 H490 0.930 . S
C498 C497 1.362 . S
C498 C501 1.409 . S
C499 H491 0.930 . S
C499 C500 1.355 . S
C499 C501 1.415 . S
C500 C499 1.355 . S
C500 C502 1.419 . S
C501 C496 1.425 . S
C501 C498 1.409 . S
C501 C499 1.415 . S
C502 H492 0.930 . S
C502 C500 1.419 . S
C502 C503 1.362 . S
C503 H493 0.930 . S
C503 C496 1.409 . S
C503 C502 1.362 . S
H504 C510 0.930 . S
H505 C513 0.930 . S
H506 C514 0.930 . S
H507 C515 0.930 . S
H508 C518 0.930 . S
H509 C519 0.930 . S
C510 H504 0.930 . S
C510 C511 1.355 . S
C510 C512 1.415 . S
C511 C510 1.355 . S
C511 C513 1.419 . S
C512 C510 1.415 . S
C512 C517 1.425 . S
C512 C519 1.409 . S
C513 H505 0.930 . S
C513 C511 1.419 . S
C513 C514 1.362 . S
C514 H506 0.930 . S
C514 C513 1.362 . S
C514 C517 1.409 . S
C515 H507 0.930 . S
C515 C516 1.355 . S
C515 C517 1.415 . S
C516 C515 1.355 . S
C516 C518 1.419 . S
C517 C512 1.425 . S
C517 C514 1.409 . S
C517 C515 1.415 . S
C518 H508 0.930 . S
C518 C516 1.419 . S
C518 C519 1.362 . S
C519 H509 0.930 . S
C519 C512 1.409 . S
C519 C518 1.362 . S
H520 C526 0.930 . S
H521 C529 0.930 . S
H522 C530 0.930 . S
H523 C531 0.930 . S
H524 C534 0.930 . S
H525 C535 0.930 . S
C526 H520 0.930 . S
C526 C527 1.355 . S
C526 C528 1.415 . S
C527 C526 1.355 . S
C527 C529 1.419 . S
C528 C526 1.415 . S
C528 C533 1.425 . S
C528 C535 1.409 . S
C529 H521 0.930 . S
C529 C527 1.419 . S
C529 C530 1.362 . S
C530 H522 0.930 . S
C530 C529 1.362 . S
C530 C533 1.409 . S
C531 H523 0.930 . S
C531 C532 1.355 . S
C531 C533 1.415 . S
C532 C531 1.355 . S
C532 C534 1.419 . S
C533 C528 1.425 . S
C533 C530 1.409 . S
C533 C531 1.415 . S
C534 H524 0.930 . S
C534 C532 1.419 . S
C534 C535 1.362 . S
C535 H525 0.930 . S
C535 C528 1.409 . S
C535 C534 1.362 . S
H536 C542 0.930 . S
H537 C545 0.930 . S
H538 C546 0.930 . S
H539 C547 0.930 . S
H540 C550 0.930 . S
H541 C551 0.930 . S
C542 H536 0.930 . S
C542 C543 1.355 . S
C542 C544 1.415 . S
C543 C542 1.355 . S
C543 C545 1.419 . S
C544 C542 1.415 . S
C544 C549 1.425 1_556 S
C544 C551 1.409 1_556 S
C545 H537 0.930 . S
C545 C543 1.419 . S
C545 C546 1.362 . S
C546 H538 0.930 . S
C546 C545 1.362 . S
C546 C549 1.409 1_556 S
C547 H539 0.930 . S
C547 C548 1.355 . S
C547 C549 1.415 . S
C548 C547 1.355 . S
C548 C550 1.419 . S
C549 C544 1.425 1_554 S
C549 C546 1.409 1_554 S
C549 C547 1.415 . S
C550 H540 0.930 . S
C550 C548 1.419 . S
C550 C551 1.362 . S
C551 H541 0.930 . S
C551 C544 1.409 1_554 S
C551 C550 1.362 . S
H552 C558 0.930 . S
H553 C561 0.930 . S
H554 C562 0.930 . S
H555 C563 0.930 . S
H556 C566 0.930 . S
H557 C567 0.930 . S
C558 H552 0.930 . S
C558 C559 1.355 . S
C558 C560 1.415 . S
C559 C558 1.355 . S
C559 C561 1.419 . S
C560 C558 1.415 . S
C560 C565 1.425 . S
C560 C567 1.409 . S
C561 H553 0.930 . S
C561 C559 1.419 . S
C561 C562 1.362 . S
C562 H554 0.930 . S
C562 C561 1.362 . S
C562 C565 1.409 . S
C563 H555 0.930 . S
C563 C564 1.355 . S
C563 C565 1.415 . S
C564 C563 1.355 . S
C564 C566 1.419 . S
C565 C560 1.425 . S
C565 C562 1.409 . S
C565 C563 1.415 . S
C566 H556 0.930 . S
C566 C564 1.419 . S
C566 C567 1.362 . S
C567 H557 0.930 . S
C567 C560 1.409 . S
C567 C566 1.362 . S
H568 C574 0.930 . S
H569 C577 0.930 . S
H570 C578 0.930 . S
H571 C579 0.930 . S
H572 C582 0.930 . S
H573 C583 0.930 . S
C574 H568 0.930 . S
C574 C575 1.355 . S
C574 C576 1.415 . S
C575 C574 1.355 . S
C575 C577 1.419 . S
C576 C574 1.415 . S
C576 C581 1.425 . S
C576 C583 1.409 . S
C577 H569 0.930 . S
C577 C575 1.419 . S
C577 C578 1.362 . S
C578 H570 0.930 . S
C578 C577 1.362 . S
C578 C581 1.409 . S
C579 H571 0.930 . S
C579 C580 1.355 . S
C579 C581 1.415 . S
C580 C579 1.355 . S
C580 C582 1.419 . S
C581 C576 1.425 . S
C581 C578 1.409 . S
C581 C579 1.415 . S
C582 H572 0.930 . S
C582 C580 1.419 . S
C582 C583 1.362 . S
C583 H573 0.930 . S
C583 C576 1.409 . S
C583 C582 1.362 . S
H584 C590 0.930 . S
H585 C593 0.930 . S
H586 C594 0.930 . S
H587 C595 0.930 . S
H588 C598 0.930 . S
H589 C599 0.930 . S
C590 H584 0.930 . S
C590 C591 1.355 . S
C590 C592 1.415 1_554 S
C591 C590 1.355 . S
C591 C593 1.419 . S
C592 C590 1.415 1_556 S
C592 C597 1.425 1_556 S
C592 C599 1.409 . S
C593 H585 0.930 . S
C593 C591 1.419 . S
C593 C594 1.362 . S
C594 H586 0.930 . S
C594 C593 1.362 . S
C594 C597 1.409 . S
C595 H587 0.930 . S
C595 C596 1.355 . S
C595 C597 1.415 1_556 S
C596 C595 1.355 . S
C596 C598 1.419 . S
C597 C592 1.425 1_554 S
C597 C594 1.409 . S
C597 C595 1.415 1_554 S
C598 H588 0.930 . S
C598 C596 1.419 . S
C598 C599 1.362 . S
C599 H589 0.930 . S
C599 C592 1.409 . S
C599 C598 1.362 . S
H600 C606 0.930 . S
H601 C609 0.930 . S
H602 C610 0.930 . S
H603 C611 0.930 . S
H604 C614 0.930 . S
H605 C615 0.930 . S
C606 H600 0.930 . S
C606 C607 1.355 . S
C606 C608 1.415 . S
C607 C606 1.355 . S
C607 C609 1.419 . S
C608 C606 1.415 . S
C608 C613 1.425 . S
C608 C615 1.409 . S
C609 H601 0.930 . S
C609 C607 1.419 . S
C609 C610 1.362 . S
C610 H602 0.930 . S
C610 C609 1.362 . S
C610 C613 1.409 . S
C611 H603 0.930 . S
C611 C612 1.355 . S
C611 C613 1.415 . S
C612 C611 1.355 . S
C612 C614 1.419 . S
C613 C608 1.425 . S
C613 C610 1.409 . S
C613 C611 1.415 . S
C614 H604 0.930 . S
C614 C612 1.419 . S
C614 C615 1.362 . S
C615 H605 0.930 . S
C615 C608 1.409 . S
C615 C614 1.362 . S
H616 C622 0.930 . S
H617 C625 0.930 . S
H618 C626 0.930 . S
H619 C627 0.930 . S
H620 C630 0.930 . S
H621 C631 0.930 . S
C622 H616 0.930 . S
C622 C623 1.355 . S
C622 C624 1.415 . S
C623 C622 1.355 . S
C623 C625 1.419 . S
C624 C622 1.415 . S
C624 C629 1.425 1_455 S
C624 C631 1.409 1_455 S
C625 H617 0.930 . S
C625 C623 1.419 . S
C625 C626 1.362 . S
C626 H618 0.930 . S
C626 C625 1.362 . S
C626 C629 1.409 1_455 S
C627 H619 0.930 . S
C627 C628 1.355 . S
C627 C629 1.415 . S
C628 C627 1.355 . S
C628 C630 1.419 . S
C629 C624 1.425 1_655 S
C629 C626 1.409 1_655 S
C629 C627 1.415 . S
C630 H620 0.930 . S
C630 C628 1.419 . S
C630 C631 1.362 . S
C631 H621 0.930 . S
C631 C624 1.409 1_655 S
C631 C630 1.362 . S
H632 C638 0.930 1_556 S
H633 C641 0.930 . S
H634 C642 0.975 . S
H635 C643 0.930 1_554 S
H636 C646 0.930 . S
H637 C647 0.975 . S
C638 H632 0.930 1_554 S
C638 C639 1.355 . S
C638 C640 1.415 1_554 S
C639 C638 1.355 . S
C639 C641 1.419 . S
C640 C638 1.415 1_556 S
C640 C645 1.425 1_546 S
C640 C647 1.414 . S
C641 H633 0.930 . S
C641 C639 1.419 . S
C641 C642 1.315 1_545 S
C642 H634 0.975 . S
C642 C641 1.315 1_565 S
C642 C645 1.414 . S
C643 H635 0.930 1_556 S
C643 C644 1.355 . S
C643 C645 1.415 1_556 S
C644 C643 1.355 . S
C644 C646 1.419 . S
C645 C640 1.425 1_564 S
C645 C642 1.414 . S
C645 C643 1.415 1_554 S
C646 H636 0.930 . S
C646 C644 1.419 . S
C646 C647 1.316 1_565 S
C647 H637 0.975 . S
C647 C640 1.414 . S
C647 C646 1.316 1_545 S
H648 C654 0.930 . S
H649 C657 0.930 . S
H650 C658 0.930 . S
H651 C659 0.930 . S
H652 C662 0.930 . S
H653 C663 0.930 . S
C654 H648 0.930 . S
C654 C655 1.355 . S
C654 C656 1.415 . S
C655 C654 1.355 . S
C655 C657 1.419 . S
C656 C654 1.415 . S
C656 C661 1.425 . S
C656 C663 1.409 . S
C657 H649 0.930 . S
C657 C655 1.419 . S
C657 C658 1.362 . S
C658 H650 0.930 . S
C658 C657 1.362 . S
C658 C661 1.409 . S
C659 H651 0.930 . S
C659 C660 1.355 . S
C659 C661 1.415 . S
C660 C659 1.355 . S
C660 C662 1.419 . S
C661 C656 1.425 . S
C661 C658 1.409 . S
C661 C659 1.415 . S
C662 H652 0.930 . S
C662 C660 1.419 . S
C662 C663 1.362 . S
C663 H653 0.930 . S
C663 C656 1.409 . S
C663 C662 1.362 . S
H664 C670 0.930 . S
H665 C673 0.930 . S
H666 C674 0.930 . S
H667 C675 0.930 . S
H668 C678 0.930 . S
H669 C679 0.930 . S
C670 H664 0.930 . S
C670 C671 1.355 . S
C670 C672 1.392 1_455 S
C671 C670 1.355 . S
C671 C673 1.419 . S
C672 C670 1.392 1_655 S
C672 C677 1.403 1_655 S
C672 C679 1.444 . S
C673 H665 0.930 . S
C673 C671 1.419 . S
C673 C674 1.362 . S
C674 H666 0.930 . S
C674 C673 1.362 . S
C674 C677 1.443 . S
C675 H667 0.930 . S
C675 C676 1.355 . S
C675 C677 1.392 1_655 S
C676 C675 1.355 . S
C676 C678 1.419 . S
C677 C672 1.403 1_455 S
C677 C674 1.443 . S
C677 C675 1.392 1_455 S
C678 H668 0.930 . S
C678 C676 1.419 . S
C678 C679 1.362 . S
C679 H669 0.930 . S
C679 C672 1.444 . S
C679 C678 1.362 . S
H680 C686 0.930 1_554 S
H681 C689 0.930 . S
H682 C690 0.930 1_565 S
H683 C691 0.930 1_556 S
H684 C694 0.930 . S
H685 C695 0.930 1_545 S
C686 H680 0.930 1_556 S
C686 C687 1.355 . S
C686 C688 1.415 1_556 S
C687 C686 1.355 . S
C687 C689 1.419 . S
C688 C686 1.415 1_554 S
C688 C693 1.425 1_544 S
C688 C695 1.409 1_545 S
C689 H681 0.930 . S
C689 C687 1.419 . S
C689 C690 1.362 . S
C690 H682 0.930 1_545 S
C690 C689 1.362 . S
C690 C693 1.409 1_545 S
C691 H683 0.930 1_554 S
C691 C692 1.355 . S
C691 C693 1.415 1_554 S
C692 C691 1.355 . S
C692 C694 1.419 . S
C693 C688 1.425 1_566 S
C693 C690 1.409 1_565 S
C693 C691 1.415 1_556 S
C694 H684 0.930 . S
C694 C692 1.419 . S
C694 C695 1.362 . S
C695 H685 0.930 1_565 S
C695 C688 1.409 1_565 S
C695 C694 1.362 . S
H696 C702 0.930 . S
H697 C705 0.930 . S
H698 C706 0.930 . S
H699 C707 0.930 . S
H700 C710 0.930 . S
H701 C711 0.930 . S
C702 H696 0.930 . S
C702 C703 1.355 . S
C702 C704 1.415 . S
C703 C702 1.355 . S
C703 C705 1.419 . S
C704 C702 1.415 . S
C704 C709 1.425 . S
C704 C711 1.409 . S
C705 H697 0.930 . S
C705 C703 1.419 . S
C705 C706 1.362 . S
C706 H698 0.930 . S
C706 C705 1.362 . S
C706 C709 1.409 . S
C707 H699 0.930 . S
C707 C708 1.355 . S
C707 C709 1.415 . S
C708 C707 1.355 . S
C708 C710 1.419 . S
C709 C704 1.425 . S
C709 C706 1.409 . S
C709 C707 1.415 . S
C710 H700 0.930 . S
C710 C708 1.419 . S
C710 C711 1.362 . S
C711 H701 0.930 . S
C711 C704 1.409 . S
C711 C710 1.362 . S
H712 C718 0.930 . S
H713 C721 0.930 . S
H714 C722 0.930 . S
H715 C723 0.930 . S
H716 C726 0.930 . S
H717 C727 0.930 . S
C718 H712 0.930 . S
C718 C719 1.355 . S
C718 C720 1.415 . S
C719 C718 1.355 . S
C719 C721 1.419 . S
C720 C718 1.415 . S
C720 C725 1.425 . S
C720 C727 1.409 1_554 S
C721 H713 0.930 . S
C721 C719 1.419 . S
C721 C722 1.362 . S
C722 H714 0.930 . S
C722 C721 1.362 . S
C722 C725 1.409 . S
C723 H715 0.930 . S
C723 C724 1.355 . S
C723 C725 1.415 1_556 S
C724 C723 1.355 . S
C724 C726 1.419 . S
C725 C720 1.425 . S
C725 C722 1.409 . S
C725 C723 1.415 1_554 S
C726 H716 0.930 . S
C726 C724 1.419 . S
C726 C727 1.362 . S
C727 H717 0.930 . S
C727 C720 1.409 1_556 S
C727 C726 1.362 . S
H728 C734 0.930 . S
H729 C737 0.930 . S
H730 C738 0.930 . S
H731 C739 0.930 . S
H732 C742 0.930 . S
H733 C743 0.930 . S
C734 H728 0.930 . S
C734 C735 1.355 . S
C734 C736 1.415 . S
C735 C734 1.355 . S
C735 C737 1.419 . S
C736 C734 1.415 . S
C736 C741 1.425 . S
C736 C743 1.409 . S
C737 H729 0.930 . S
C737 C735 1.419 . S
C737 C738 1.362 . S
C738 H730 0.930 . S
C738 C737 1.362 . S
C738 C741 1.409 . S
C739 H731 0.930 . S
C739 C740 1.355 . S
C739 C741 1.415 . S
C740 C739 1.355 . S
C740 C742 1.419 . S
C741 C736 1.425 . S
C741 C738 1.409 . S
C741 C739 1.415 . S
C742 H732 0.930 . S
C742 C740 1.419 . S
C742 C743 1.362 . S
C743 H733 0.930 . S
C743 C736 1.409 . S
C743 C742 1.362 . S
H744 C750 0.930 . S
H745 C753 0.930 . S
H746 C754 0.930 . S
H747 C755 0.930 . S
H748 C758 0.930 . S
H749 C759 0.930 . S
C750 H744 0.930 . S
C750 C751 1.355 . S
C750 C752 1.415 . S
C751 C750 1.355 . S
C751 C753 1.419 . S
C752 C750 1.415 . S
C752 C757 1.425 . S
C752 C759 1.409 . S
C753 H745 0.930 . S
C753 C751 1.419 . S
C753 C754 1.362 . S
C754 H746 0.930 . S
C754 C753 1.362 . S
C754 C757 1.409 . S
C755 H747 0.930 . S
C755 C756 1.355 . S
C755 C757 1.415 . S
C756 C755 1.355 . S
C756 C758 1.419 . S
C757 C752 1.425 . S
C757 C754 1.409 . S
C757 C755 1.415 . S
C758 H748 0.930 . S
C758 C756 1.419 . S
C758 C759 1.362 . S
C759 H749 0.930 . S
C759 C752 1.409 . S
C759 C758 1.362 . S
H760 C766 0.930 . S
H761 C769 0.930 . S
H762 C770 0.930 1_556 S
H763 C771 0.930 . S
H764 C774 0.930 . S
H765 C775 0.930 . S
C766 H760 0.930 . S
C766 C767 1.355 . S
C766 C768 1.415 . S
C767 C766 1.355 . S
C767 C769 1.419 . S
C768 C766 1.415 . S
C768 C773 1.425 1_554 S
C768 C775 1.409 . S
C769 H761 0.930 . S
C769 C767 1.419 . S
C769 C770 1.362 . S
C770 H762 0.930 1_554 S
C770 C769 1.362 . S
C770 C773 1.409 1_554 S
C771 H763 0.930 . S
C771 C772 1.355 . S
C771 C773 1.415 . S
C772 C771 1.355 . S
C772 C774 1.419 . S
C773 C768 1.425 1_556 S
C773 C770 1.409 1_556 S
C773 C771 1.415 . S
C774 H764 0.930 . S
C774 C772 1.419 . S
C774 C775 1.362 1_556 S
C775 H765 0.930 . S
C775 C768 1.409 . S
C775 C774 1.362 1_554 S
H776 C782 0.930 . S
H777 C785 0.930 . S
H778 C786 0.930 . S
H779 C787 0.930 . S
H780 C790 0.930 . S
H781 C791 0.930 . S
C782 H776 0.930 . S
C782 C783 1.355 . S
C782 C784 1.415 . S
C783 C782 1.355 . S
C783 C785 1.419 . S
C784 C782 1.415 . S
C784 C789 1.425 . S
C784 C791 1.409 . S
C785 H777 0.930 . S
C785 C783 1.419 . S
C785 C786 1.362 . S
C786 H778 0.930 . S
C786 C785 1.362 . S
C786 C789 1.409 . S
C787 H779 0.930 . S
C787 C788 1.355 . S
C787 C789 1.415 . S
C788 C787 1.355 . S
C788 C790 1.419 . S
C789 C784 1.425 . S
C789 C786 1.409 . S
C789 C787 1.415 . S
C790 H780 0.930 . S
C790 C788 1.419 . S
C790 C791 1.362 . S
C791 H781 0.930 . S
C791 C784 1.409 . S
C791 C790 1.362 . S
H792 C798 0.930 . S
H793 C801 0.930 . S
H794 C802 0.930 1_556 S
H795 C803 0.930 . S
H796 C806 0.930 . S
H797 C807 0.930 1_554 S
C798 H792 0.930 . S
C798 C799 1.355 . S
C798 C800 1.415 . S
C799 C798 1.355 . S
C799 C801 1.419 . S
C800 C798 1.415 . S
C800 C805 1.425 1_554 S
C800 C807 1.409 1_554 S
C801 H793 0.930 . S
C801 C799 1.419 . S
C801 C802 1.362 . S
C802 H794 0.930 1_554 S
C802 C801 1.362 . S
C802 C805 1.409 1_554 S
C803 H795 0.930 . S
C803 C804 1.355 . S
C803 C805 1.415 . S
C804 C803 1.355 . S
C804 C806 1.419 . S
C805 C800 1.425 1_556 S
C805 C802 1.409 1_556 S
C805 C803 1.415 . S
C806 H796 0.930 . S
C806 C804 1.419 . S
C806 C807 1.362 . S
C807 H797 0.930 1_556 S
C807 C800 1.409 1_556 S
C807 C806 1.362 . S
H808 C814 0.930 . S
H809 C817 0.930 . S
H810 C818 0.930 . S
H811 C819 0.930 . S
H812 C822 0.930 . S
H813 C823 0.930 . S
C814 H808 0.930 . S
C814 C815 1.355 . S
C814 C816 1.415 . S
C815 C814 1.355 . S
C815 C817 1.419 . S
C816 C814 1.415 . S
C816 C821 1.425 . S
C816 C823 1.409 . S
C817 H809 0.930 . S
C817 C815 1.419 . S
C817 C818 1.362 . S
C818 H810 0.930 . S
C818 C817 1.362 . S
C818 C821 1.409 . S
C819 H811 0.930 . S
C819 C820 1.355 . S
C819 C821 1.415 . S
C820 C819 1.355 . S
C820 C822 1.419 . S
C821 C816 1.425 . S
C821 C818 1.409 . S
C821 C819 1.415 . S
C822 H812 0.930 . S
C822 C820 1.419 . S
C822 C823 1.362 . S
C823 H813 0.930 . S
C823 C816 1.409 . S
C823 C822 1.362 . S
H824 C830 0.930 . S
H825 C833 0.930 . S
H826 C834 0.930 . S
H827 C835 0.930 . S
H828 C838 0.930 . S
H829 C839 0.930 . S
C830 H824 0.930 . S
C830 C831 1.355 . S
C830 C832 1.415 . S
C831 C830 1.355 . S
C831 C833 1.419 . S
C832 C830 1.415 . S
C832 C837 1.425 . S
C832 C839 1.409 . S
C833 H825 0.930 . S
C833 C831 1.419 . S
C833 C834 1.362 . S
C834 H826 0.930 . S
C834 C833 1.362 . S
C834 C837 1.409 . S
C835 H827 0.930 . S
C835 C836 1.355 . S
C835 C837 1.415 . S
C836 C835 1.355 . S
C836 C838 1.419 . S
C837 C832 1.425 . S
C837 C834 1.409 . S
C837 C835 1.415 . S
C838 H828 0.930 . S
C838 C836 1.419 . S
C838 C839 1.362 . S
C839 H829 0.930 . S
C839 C832 1.409 . S
C839 C838 1.362 . S
H840 C846 0.930 . S
H841 C849 0.930 . S
H842 C850 0.930 . S
H843 C851 0.930 . S
H844 C854 0.930 . S
H845 C855 0.930 . S
C846 H840 0.930 . S
C846 C847 1.355 . S
C846 C848 1.415 . S
C847 C846 1.355 . S
C847 C849 1.419 . S
C848 C846 1.415 . S
C848 C853 1.425 . S
C848 C855 1.409 1_556 S
C849 H841 0.930 . S
C849 C847 1.419 . S
C849 C850 1.362 . S
C850 H842 0.930 . S
C850 C849 1.362 . S
C850 C853 1.409 . S
C851 H843 0.930 . S
C851 C852 1.355 . S
C851 C853 1.415 1_554 S
C852 C851 1.355 . S
C852 C854 1.419 . S
C853 C848 1.425 . S
C853 C850 1.409 . S
C853 C851 1.415 1_556 S
C854 H844 0.930 . S
C854 C852 1.419 . S
C854 C855 1.362 . S
C855 H845 0.930 . S
C855 C848 1.409 1_554 S
C855 C854 1.362 . S
H856 C862 0.930 . S
H857 C865 0.930 . S
H858 C866 0.930 . S
H859 C867 0.930 . S
H860 C870 0.930 . S
H861 C871 0.930 . S
C862 H856 0.930 . S
C862 C863 1.355 . S
C862 C864 1.415 . S
C863 C862 1.355 . S
C863 C865 1.419 . S
C864 C862 1.415 . S
C864 C869 1.425 . S
C864 C871 1.409 . S
C865 H857 0.930 . S
C865 C863 1.419 . S
C865 C866 1.362 . S
C866 H858 0.930 . S
C866 C865 1.362 . S
C866 C869 1.409 . S
C867 H859 0.930 . S
C867 C868 1.355 . S
C867 C869 1.415 . S
C868 C867 1.355 . S
C868 C870 1.419 . S
C869 C864 1.425 . S
C869 C866 1.409 . S
C869 C867 1.415 . S
C870 H860 0.930 . S
C870 C868 1.419 . S
C870 C871 1.362 . S
C871 H861 0.930 . S
C871 C864 1.409 . S
C871 C870 1.362 . S
H872 C878 0.930 . S
H873 C881 0.930 . S
H874 C882 0.930 . S
H875 C883 0.930 . S
H876 C886 0.930 . S
H877 C887 0.930 . S
C878 H872 0.930 . S
C878 C879 1.355 . S
C878 C880 1.415 . S
C879 C878 1.355 . S
C879 C881 1.419 . S
C880 C878 1.415 . S
C880 C885 1.425 . S
C880 C887 1.409 . S
C881 H873 0.930 . S
C881 C879 1.419 . S
C881 C882 1.362 . S
C882 H874 0.930 . S
C882 C881 1.362 . S
C882 C885 1.409 . S
C883 H875 0.930 . S
C883 C884 1.355 . S
C883 C885 1.415 . S
C884 C883 1.355 . S
C884 C886 1.419 . S
C885 C880 1.425 . S
C885 C882 1.409 . S
C885 C883 1.415 . S
C886 H876 0.930 . S
C886 C884 1.419 . S
C886 C887 1.362 . S
C887 H877 0.930 . S
C887 C880 1.409 . S
C887 C886 1.362 . S
C415 C20 1.646 . S
C420 C360 1.652 . S
C431 C394 1.643 . S
C436 C54 1.639 . S
C447 C224 1.680 . S
C452 C88 1.673 . S
C463 C258 1.640 . S
C468 C122 1.638 . S
C479 C156 1.639 . S
C484 C292 1.641 . S
C495 C326 1.656 . S
C500 C190 1.650 . S
C511 C237 1.446 . S
C516 C33 1.461 . S
C527 C271 1.456 . S
C532 C67 1.441 . S
C543 C101 1.455 . S
C548 C305 1.440 . S
C559 C135 1.456 . S
C564 C339 1.464 . S
C575 C373 1.445 . S
C580 C169 1.436 . S
C591 C407 1.453 . S
C596 C203 1.464 . S
C607 C2 1.494 . S
C612 C308 1.506 . S
C623 C342 1.464 . S
C628 C36 1.473 . S
C639 C376 1.514 . S
C644 C70 1.511 . S
C655 C206 1.462 . S
C660 C104 1.462 . S
C671 C138 1.461 . S
C676 C240 1.465 . S
C687 C172 1.488 . S
C692 C274 1.501 . S
C703 C5 1.116 . S
C708 C9 1.046 . S
C719 C43 0.962 . S
C724 C39 1.035 . S
C735 C73 1.127 . S
C740 C77 1.077 . S
C751 C111 1.106 . S
C756 C107 1.106 . S
C767 C145 1.083 . S
C772 C141 1.128 . S
C783 C179 1.106 . S
C788 C175 1.107 . S
C799 C209 1.097 . S
C804 C213 1.013 . S
C815 C247 1.064 . S
C820 C243 1.123 . S
C831 C281 1.002 . S
C836 C277 1.088 . S
C847 C315 1.004 . S
C852 C311 1.024 . S
C863 C345 1.023 . S
C868 C349 1.000 . S
C879 C383 1.104 . S
C884 C379 1.102 . S
