# Generated by pormake.
# Topology wme, (6)-cn, num edge types: 1
# Building blocks:
#     Node 0, Type 0, BuildingBlock: BETDEL_clean_sbu_0, # of connection points: 6
#     Node 1, Type 0, BuildingBlock: BETDEL_clean_sbu_0, # of connection points: 6
#     Node 2, Type 0, BuildingBlock: BETDEL_clean_sbu_0, # of connection points: 6
#     Node 3, Type 0, BuildingBlock: BETDEL_clean_sbu_0, # of connection points: 6
#     Node 4, Type 0, BuildingBlock: BETDEL_clean_sbu_0, # of connection points: 6
#     Node 5, Type 0, BuildingBlock: BETDEL_clean_sbu_0, # of connection points: 6
#     Node 6, Type 0, BuildingBlock: BETDEL_clean_sbu_0, # of connection points: 6
#     Node 7, Type 0, BuildingBlock: BETDEL_clean_sbu_0, # of connection points: 6
#     Node 8, Type 0, BuildingBlock: BETDEL_clean_sbu_0, # of connection points: 6
#     Node 9, Type 0, BuildingBlock: BETDEL_clean_sbu_0, # of connection points: 6
#     Node 10, Type 0, BuildingBlock: BETDEL_clean_sbu_0, # of connection points: 6
#     Node 11, Type 0, BuildingBlock: BETDEL_clean_sbu_0, # of connection points: 6
#     Edge 12, Type (0, 0), BuildingBlock: UVAHIK_clean_linker_0, # of connection points: 2
#     Edge 13, Type (0, 0), BuildingBlock: UVAHIK_clean_linker_0, # of connection points: 2
#     Edge 14, Type (0, 0), BuildingBlock: UVAHIK_clean_linker_0, # of connection points: 2
#     Edge 15, Type (0, 0), BuildingBlock: UVAHIK_clean_linker_0, # of connection points: 2
#     Edge 16, Type (0, 0), BuildingBlock: UVAHIK_clean_linker_0, # of connection points: 2
#     Edge 17, Type (0, 0), BuildingBlock: UVAHIK_clean_linker_0, # of connection points: 2
#     Edge 18, Type (0, 0), BuildingBlock: UVAHIK_clean_linker_0, # of connection points: 2
#     Edge 19, Type (0, 0), BuildingBlock: UVAHIK_clean_linker_0, # of connection points: 2
#     Edge 20, Type (0, 0), BuildingBlock: UVAHIK_clean_linker_0, # of connection points: 2
#     Edge 21, Type (0, 0), BuildingBlock: UVAHIK_clean_linker_0, # of connection points: 2
#     Edge 22, Type (0, 0), BuildingBlock: UVAHIK_clean_linker_0, # of connection points: 2
#     Edge 23, Type (0, 0), BuildingBlock: UVAHIK_clean_linker_0, # of connection points: 2
#     Edge 24, Type (0, 0), BuildingBlock: UVAHIK_clean_linker_0, # of connection points: 2
#     Edge 25, Type (0, 0), BuildingBlock: UVAHIK_clean_linker_0, # of connection points: 2
#     Edge 26, Type (0, 0), BuildingBlock: UVAHIK_clean_linker_0, # of connection points: 2
#     Edge 27, Type (0, 0), BuildingBlock: UVAHIK_clean_linker_0, # of connection points: 2
#     Edge 28, Type (0, 0), BuildingBlock: UVAHIK_clean_linker_0, # of connection points: 2
#     Edge 29, Type (0, 0), BuildingBlock: UVAHIK_clean_linker_0, # of connection points: 2
#     Edge 30, Type (0, 0), BuildingBlock: UVAHIK_clean_linker_0, # of connection points: 2
#     Edge 31, Type (0, 0), BuildingBlock: UVAHIK_clean_linker_0, # of connection points: 2
#     Edge 32, Type (0, 0), BuildingBlock: UVAHIK_clean_linker_0, # of connection points: 2
#     Edge 33, Type (0, 0), BuildingBlock: UVAHIK_clean_linker_0, # of connection points: 2
#     Edge 34, Type (0, 0), BuildingBlock: UVAHIK_clean_linker_0, # of connection points: 2
#     Edge 35, Type (0, 0), BuildingBlock: UVAHIK_clean_linker_0, # of connection points: 2
#     Edge 36, Type (0, 0), BuildingBlock: UVAHIK_clean_linker_0, # of connection points: 2
#     Edge 37, Type (0, 0), BuildingBlock: UVAHIK_clean_linker_0, # of connection points: 2
#     Edge 38, Type (0, 0), BuildingBlock: UVAHIK_clean_linker_0, # of connection points: 2
#     Edge 39, Type (0, 0), BuildingBlock: UVAHIK_clean_linker_0, # of connection points: 2
#     Edge 40, Type (0, 0), BuildingBlock: UVAHIK_clean_linker_0, # of connection points: 2
#     Edge 41, Type (0, 0), BuildingBlock: UVAHIK_clean_linker_0, # of connection points: 2
#     Edge 42, Type (0, 0), BuildingBlock: UVAHIK_clean_linker_0, # of connection points: 2
#     Edge 43, Type (0, 0), BuildingBlock: UVAHIK_clean_linker_0, # of connection points: 2
#     Edge 44, Type (0, 0), BuildingBlock: UVAHIK_clean_linker_0, # of connection points: 2
#     Edge 45, Type (0, 0), BuildingBlock: UVAHIK_clean_linker_0, # of connection points: 2
#     Edge 46, Type (0, 0), BuildingBlock: UVAHIK_clean_linker_0, # of connection points: 2
#     Edge 47, Type (0, 0), BuildingBlock: UVAHIK_clean_linker_0, # of connection points: 2
# Relax obj value: 0.086
# Max RMSD: 0.164
# Mean RMSD: 0.164
data_MOF--net-wme--node1-BETDEL_clean_sbu_0--edge1-UVAHIK_clean_linker_0
_symmetry_space_group_name_H-M    P1
_symmetry_Int_Tables_number       1
_symmetry_cell_setting            triclinic
loop_
_symmetry_equiv_pos_as_xyz
'x, y, z'
_cell_length_a     41.893922
_cell_length_b     41.78925
_cell_length_c     69.123591
_cell_angle_alpha  90.089421
_cell_angle_beta   89.968887
_cell_angle_gamma 119.95351
loop_
_atom_site_label
_atom_site_type_symbol
_atom_site_fract_x
_atom_site_fract_y
_atom_site_fract_z
_atom_type_partial_charge
Dy0 Dy 0.18905 0.35584 0.13503 0.0
C1 C 0.23137 0.24399 0.1293 0.0
C2 C 0.17165 0.41049 0.13741 0.0
Dy3 Dy 0.21779 0.29869 0.13998 0.0
O4 O 0.19705 0.41116 0.1263 0.0
O5 O 0.15589 0.38003 0.14734 0.0
O6 O 0.17691 0.33713 0.10357 0.0
O7 O 0.22011 0.33674 0.1182 0.0
C8 C 0.20241 0.32809 0.10267 0.0
C9 C 0.1989 0.31335 0.17468 0.0
O10 O 0.27129 0.35265 0.1392 0.0
O11 O 0.24631 0.39035 0.14661 0.0
O12 O 0.24787 0.26701 0.14351 0.0
O13 O 0.20866 0.25193 0.12066 0.0
O14 O 0.21184 0.29106 0.17222 0.0
O15 O 0.19663 0.32562 0.15837 0.0
O16 O 0.13548 0.30451 0.1386 0.0
O17 O 0.15661 0.26275 0.13462 0.0
C18 C 0.27483 0.38493 0.14452 0.0
C19 C 0.12963 0.27063 0.13615 0.0
Dy20 Dy 0.81837 0.18783 0.63011 0.0
C21 C 0.9737 0.22968 0.62965 0.0
C22 C 0.74607 0.16999 0.63299 0.0
Dy23 Dy 0.90417 0.21548 0.63765 0.0
O24 O 0.76218 0.16872 0.61717 0.0
O25 O 0.76955 0.1813 0.64718 0.0
O26 O 0.82899 0.18207 0.59831 0.0
O27 O 0.87096 0.22148 0.61557 0.0
C28 C 0.86376 0.20694 0.59911 0.0
C29 C 0.86495 0.18968 0.67042 0.0
O30 O 0.90479 0.2699 0.63875 0.0
O31 O 0.84075 0.2469 0.63874 0.0
O32 O 0.96452 0.24203 0.64476 0.0
O33 O 0.94511 0.21093 0.61861 0.0
O34 O 0.90037 0.20293 0.66962 0.0
O35 O 0.85361 0.19108 0.65375 0.0
O36 O 0.81596 0.13407 0.6343 0.0
O37 O 0.87861 0.15492 0.62989 0.0
C38 C 0.87541 0.27424 0.64055 0.0
C39 C 0.84372 0.12796 0.63144 0.0
Dy40 Dy 0.63469 0.82433 0.1336 0.0
C41 C 0.75455 0.97318 0.1403 0.0
C42 C 0.5848 0.75084 0.13708 0.0
Dy43 Dy 0.69214 0.90565 0.13952 0.0
O44 O 0.60945 0.76522 0.12347 0.0
O45 O 0.5875 0.77659 0.14865 0.0
O46 O 0.62323 0.83879 0.10359 0.0
O47 O 0.67584 0.86807 0.11544 0.0
C48 C 0.65637 0.86651 0.10132 0.0
C49 C 0.65389 0.87196 0.17157 0.0
O50 O 0.64174 0.90924 0.13096 0.0
O51 O 0.60025 0.84949 0.14064 0.0
O52 O 0.74549 0.94717 0.15296 0.0
O53 O 0.72877 0.96282 0.12727 0.0
O54 O 0.66572 0.90631 0.16734 0.0
O55 O 0.66497 0.85766 0.15897 0.0
O56 O 0.68361 0.81738 0.13804 0.0
O57 O 0.72788 0.87961 0.1364 0.0
C58 C 0.60779 0.88311 0.13575 0.0
C59 C 0.7184 0.8442 0.13739 0.0
Dy60 Dy 0.80376 0.6407 0.63372 0.0
C61 C 0.76241 0.75128 0.64114 0.0
C62 C 0.82279 0.587 0.63611 0.0
Dy63 Dy 0.77241 0.69145 0.64101 0.0
O64 O 0.83446 0.61256 0.62296 0.0
O65 O 0.80061 0.59069 0.64784 0.0
O66 O 0.81966 0.66427 0.60323 0.0
O67 O 0.77318 0.65989 0.61661 0.0
C68 C 0.79323 0.67192 0.60195 0.0
C69 C 0.77685 0.65768 0.67279 0.0
O70 O 0.71827 0.63915 0.63615 0.0
O71 O 0.74334 0.60023 0.63573 0.0
O72 O 0.77656 0.74172 0.6551 0.0
O73 O 0.75229 0.72723 0.62718 0.0
O74 O 0.75117 0.66587 0.66962 0.0
O75 O 0.80074 0.67039 0.65937 0.0
O76 O 0.85463 0.69077 0.64299 0.0
O77 O 0.83279 0.72918 0.63365 0.0
C78 C 0.71469 0.60564 0.63562 0.0
C79 C 0.8605 0.72378 0.63824 0.0
Dy80 Dy 0.17103 0.81098 0.1312 0.0
C81 C 0.01545 0.76513 0.1301 0.0
C82 C 0.24444 0.83221 0.13133 0.0
Dy83 Dy 0.08417 0.77706 0.13861 0.0
O84 O 0.22066 0.81097 0.11841 0.0
O85 O 0.22798 0.84152 0.14425 0.0
O86 O 0.16086 0.82742 0.10129 0.0
O87 O 0.11985 0.78076 0.11517 0.0
C88 C 0.12679 0.80067 0.10051 0.0
C89 C 0.12026 0.79114 0.17244 0.0
O90 O 0.08693 0.72494 0.13429 0.0
O91 O 0.15103 0.75173 0.13804 0.0
O92 O 0.02237 0.74642 0.14288 0.0
O93 O 0.04582 0.78899 0.12168 0.0
O94 O 0.08462 0.77617 0.17112 0.0
O95 O 0.13366 0.79771 0.15558 0.0
O96 O 0.17076 0.86171 0.13974 0.0
O97 O 0.10769 0.83896 0.13601 0.0
C98 C 0.11737 0.72253 0.13635 0.0
C99 C 0.142 0.86654 0.13857 0.0
Dy100 Dy 0.34989 0.16615 0.63204 0.0
C101 C 0.23642 0.01295 0.6252 0.0
C102 C 0.40516 0.23796 0.6344 0.0
Dy103 Dy 0.29166 0.08077 0.63619 0.0
O104 O 0.40483 0.21327 0.6228 0.0
O105 O 0.37541 0.22332 0.64487 0.0
O106 O 0.33123 0.16037 0.60056 0.0
O107 O 0.33056 0.1163 0.61482 0.0
C108 C 0.32232 0.12585 0.59934 0.0
C109 C 0.30434 0.11284 0.67118 0.0
O110 O 0.3453 0.08019 0.63573 0.0
O111 O 0.38354 0.1425 0.64367 0.0
O112 O 0.25959 0.01881 0.6392 0.0
O113 O 0.24448 0.04398 0.61693 0.0
O114 O 0.28174 0.07791 0.66813 0.0
O115 O 0.31839 0.12826 0.65523 0.0
O116 O 0.29936 0.16971 0.63581 0.0
O117 O 0.25713 0.10764 0.63018 0.0
C118 C 0.37765 0.10841 0.64133 0.0
C119 C 0.26548 0.14261 0.63247 0.0
Dy120 Dy 0.63271 0.8057 0.40908 0.0
C121 C 0.74753 0.76643 0.41225 0.0
C122 C 0.57754 0.82214 0.4071 0.0
Dy123 Dy 0.69239 0.78005 0.40292 0.0
O124 O 0.57742 0.79695 0.41819 0.0
O125 O 0.60769 0.83815 0.39697 0.0
O126 O 0.64972 0.81461 0.44078 0.0
O127 O 0.65265 0.77396 0.42465 0.0
C128 C 0.65995 0.7899 0.44074 0.0
C129 C 0.67937 0.80426 0.36945 0.0
O130 O 0.63927 0.72553 0.40186 0.0
O131 O 0.6002 0.7495 0.39582 0.0
O132 O 0.72511 0.75145 0.39767 0.0
O133 O 0.73881 0.78763 0.42194 0.0
O134 O 0.70274 0.79249 0.37101 0.0
O135 O 0.66554 0.80263 0.38583 0.0
O136 O 0.68335 0.86037 0.40735 0.0
O137 O 0.72573 0.84022 0.41162 0.0
C138 C 0.60678 0.72153 0.39673 0.0
C139 C 0.71714 0.86685 0.4107 0.0
Dy140 Dy 0.82448 0.64025 0.91123 0.0
C141 C 0.97513 0.75143 0.90162 0.0
C142 C 0.75243 0.58501 0.90909 0.0
Dy143 Dy 0.90577 0.69149 0.90288 0.0
O144 O 0.76566 0.61111 0.92203 0.0
O145 O 0.77857 0.58905 0.8975 0.0
O146 O 0.83318 0.66522 0.94156 0.0
O147 O 0.87502 0.66102 0.92778 0.0
C148 C 0.8675 0.67357 0.94243 0.0
C149 C 0.86661 0.65551 0.87171 0.0
O150 O 0.90912 0.64012 0.90817 0.0
O151 O 0.8455 0.60045 0.90959 0.0
O152 O 0.95071 0.74117 0.88798 0.0
O153 O 0.96211 0.72812 0.91589 0.0
O154 O 0.90061 0.66413 0.87472 0.0
O155 O 0.85564 0.66879 0.885 0.0
O156 O 0.82213 0.6894 0.90158 0.0
O157 O 0.88261 0.72904 0.90992 0.0
C158 C 0.87975 0.60645 0.90928 0.0
C159 C 0.84912 0.72288 0.90566 0.0
Dy160 Dy 0.17871 0.82488 0.40934 0.0
C161 C 0.2259 0.98117 0.41335 0.0
C162 C 0.15853 0.75151 0.40746 0.0
Dy163 Dy 0.21294 0.91223 0.40387 0.0
O164 O 0.15566 0.76826 0.42264 0.0
O165 O 0.17255 0.77491 0.39327 0.0
O166 O 0.16174 0.83324 0.43953 0.0
O167 O 0.20892 0.87494 0.42643 0.0
C168 C 0.18877 0.86708 0.44104 0.0
C169 C 0.19864 0.87892 0.36913 0.0
O170 O 0.26515 0.90967 0.40814 0.0
O171 O 0.23909 0.84505 0.40761 0.0
O172 O 0.24506 0.97438 0.40081 0.0
O173 O 0.20079 0.95046 0.42101 0.0
O174 O 0.2133 0.91442 0.37146 0.0
O175 O 0.1923 0.86394 0.38563 0.0
O176 O 0.12942 0.82629 0.39921 0.0
O177 O 0.1512 0.88804 0.40701 0.0
C178 C 0.26791 0.87916 0.40807 0.0
C179 C 0.12403 0.85441 0.40244 0.0
Dy180 Dy 0.35752 0.18579 0.91042 0.0
C181 C 0.24529 0.22928 0.91092 0.0
C182 C 0.41003 0.16547 0.90823 0.0
Dy183 Dy 0.30059 0.2151 0.90272 0.0
O184 O 0.41306 0.19326 0.91826 0.0
O185 O 0.37845 0.14898 0.89938 0.0
O186 O 0.33888 0.17672 0.94186 0.0
O187 O 0.33732 0.21781 0.92553 0.0
C188 C 0.32856 0.20138 0.94147 0.0
C189 C 0.3168 0.19227 0.86967 0.0
O190 O 0.35482 0.26854 0.9032 0.0
O191 O 0.3927 0.24267 0.8983 0.0
O192 O 0.26733 0.24259 0.89608 0.0
O193 O 0.25466 0.20968 0.92157 0.0
O194 O 0.29451 0.20546 0.87038 0.0
O195 O 0.32811 0.19214 0.88651 0.0
O196 O 0.30565 0.13237 0.90724 0.0
O197 O 0.26413 0.15425 0.9089 0.0
C198 C 0.38734 0.27149 0.89913 0.0
C199 C 0.27183 0.127 0.90861 0.0
Dy200 Dy 0.16823 0.36316 0.40881 0.0
C201 C 0.01796 0.23661 0.41113 0.0
C202 C 0.24122 0.41342 0.40411 0.0
Dy203 Dy 0.08352 0.29938 0.40516 0.0
O204 O 0.22764 0.38955 0.41813 0.0
O205 O 0.21489 0.40986 0.39276 0.0
O206 O 0.15484 0.37486 0.43906 0.0
O207 O 0.12548 0.32191 0.42735 0.0
C208 C 0.12723 0.34155 0.4415 0.0
C209 C 0.11288 0.32492 0.36988 0.0
O210 O 0.07952 0.35109 0.40992 0.0
O211 O 0.14002 0.39445 0.40097 0.0
O212 O 0.04507 0.23936 0.40084 0.0
O213 O 0.02604 0.26888 0.4181 0.0
O214 O 0.07859 0.30022 0.37268 0.0
O215 O 0.12833 0.33417 0.38616 0.0
O216 O 0.17413 0.31374 0.40281 0.0
O217 O 0.11426 0.26882 0.41081 0.0
C218 C 0.10545 0.3852 0.40489 0.0
C219 C 0.14908 0.27906 0.40674 0.0
Dy220 Dy 0.80821 0.16823 0.90989 0.0
C221 C 0.76313 0.01407 0.91457 0.0
C222 C 0.82656 0.24073 0.90888 0.0
Dy223 Dy 0.7781 0.08292 0.90399 0.0
O224 O 0.80176 0.21577 0.92011 0.0
O225 O 0.84126 0.22603 0.89808 0.0
O226 O 0.81828 0.15949 0.94138 0.0
O227 O 0.77474 0.11765 0.92599 0.0
C228 C 0.79145 0.12546 0.94181 0.0
C229 C 0.80023 0.1166 0.86966 0.0
O230 O 0.72491 0.08467 0.90345 0.0
O231 O 0.75219 0.14803 0.89771 0.0
O232 O 0.74781 0.0211 0.90001 0.0
O233 O 0.78527 0.04448 0.92362 0.0
O234 O 0.78647 0.08128 0.87216 0.0
O235 O 0.80154 0.13168 0.88578 0.0
O236 O 0.86128 0.16999 0.90644 0.0
O237 O 0.83917 0.10705 0.91034 0.0
C238 C 0.7227 0.11465 0.89912 0.0
C239 C 0.86669 0.14178 0.909 0.0
C240 C 0.12669 0.91523 0.12908 0.0
C241 C 0.14945 0.905 0.13901 0.0
C242 C 0.13675 0.95252 0.12755 0.0
C243 C 0.19356 0.04357 0.14983 0.0
H244 H 0.19509 0.08213 0.09864 0.0
C245 C 0.25146 0.19898 0.13864 0.0
C246 C 0.2307 0.20868 0.1266 0.0
C247 C 0.24497 0.16274 0.13875 0.0
C248 C 0.1945 0.07181 0.11307 0.0
H249 H 0.19956 0.92541 0.1559 0.0
H250 H 0.21659 0.9902 0.15357 0.0
H251 H 0.17325 0.01639 0.10279 0.0
H252 H 0.18862 0.18896 0.10436 0.0
H253 H 0.17665 0.12582 0.10484 0.0
H254 H 0.21374 0.09844 0.16031 0.0
C255 C 0.19124 0.96957 0.14681 0.0
C256 C 0.18193 0.03413 0.11542 0.0
C257 C 0.18153 0.93249 0.14808 0.0
C258 C 0.20507 0.18223 0.11379 0.0
C259 C 0.1983 0.14597 0.11404 0.0
C260 C 0.20569 0.08112 0.14754 0.0
C261 C 0.16936 0.98003 0.13623 0.0
C262 C 0.18137 0.01968 0.13382 0.0
C263 C 0.21733 0.13544 0.12696 0.0
C264 C 0.20635 0.09578 0.12913 0.0
H265 H 0.10193 0.89463 0.12186 0.0
H266 H 0.11924 0.95989 0.11945 0.0
H267 H 0.19317 0.03307 0.16421 0.0
H268 H 0.2715 0.21893 0.1486 0.0
H269 H 0.26083 0.15587 0.14852 0.0
C270 C 0.19859 0.12532 0.63181 0.0
C271 C 0.23605 0.15241 0.63093 0.0
C272 C 0.17127 0.13533 0.63079 0.0
C273 C 0.15821 0.21684 0.63658 0.0
H274 H 0.06542 0.15375 0.61076 0.0
C275 C 0.03305 0.23917 0.64326 0.0
C276 C 0.00853 0.22916 0.62762 0.0
C277 C 0.06252 0.23236 0.64268 0.0
C278 C 0.09137 0.17203 0.6178 0.0
H279 H 0.27409 0.21118 0.62766 0.0
H280 H 0.22685 0.22833 0.62535 0.0
H281 H 0.1126 0.13604 0.61141 0.0
H282 H -0.00328 0.20622 0.59867 0.0
H283 H 0.0489 0.19557 0.5973 0.0
H284 H 0.13748 0.25338 0.64246 0.0
C285 C 0.21834 0.19948 0.62744 0.0
C286 C 0.11825 0.1615 0.61846 0.0
C287 C 0.24552 0.18956 0.62866 0.0
C288 C 0.01517 0.2141 0.61097 0.0
C289 C 0.04484 0.2076 0.61029 0.0
C290 C 0.13147 0.2275 0.63579 0.0
C291 C 0.18082 0.17261 0.62868 0.0
C292 C 0.15203 0.1837 0.62791 0.0
C293 C 0.06833 0.21568 0.62635 0.0
C294 C 0.09758 0.20518 0.62646 0.0
H295 H 0.19034 0.09646 0.6336 0.0
H296 H 0.14271 0.11386 0.63202 0.0
H297 H 0.18361 0.23447 0.64425 0.0
H298 H 0.02841 0.25054 0.65635 0.0
H299 H 0.0797 0.23866 0.6554 0.0
C300 C 0.79947 0.03506 0.12622 0.0
C301 C 0.79132 0.00654 0.13948 0.0
C302 C 0.83546 0.06507 0.12479 0.0
C303 C 0.93024 0.0885 0.13004 0.0
H304 H 0.95483 0.18933 0.14064 0.0
C305 C 0.0811 0.20419 0.14023 0.0
C306 C 0.09098 0.24034 0.13488 0.0
C307 C 0.04418 0.17607 0.13972 0.0
C308 C 0.94855 0.1615 0.13722 0.0
H309 H 0.81406 0.98705 0.16168 0.0
H310 H 0.87677 0.03877 0.15877 0.0
H311 H 0.89049 0.14019 0.14102 0.0
H312 H 0.07026 0.27519 0.12407 0.0
H313 H 0.0064 0.2261 0.12226 0.0
H314 H 0.98774 0.10931 0.1257 0.0
C315 C 0.85541 0.03813 0.14966 0.0
C316 C 0.91163 0.1334 0.13754 0.0
C317 C 0.8195 0.0087 0.15138 0.0
C318 C 0.0634 0.24765 0.12854 0.0
C319 C 0.02666 0.21945 0.12763 0.0
C320 C 0.96704 0.11662 0.12932 0.0
C321 C 0.86378 0.0664 0.13628 0.0
C322 C 0.90229 0.09664 0.13425 0.0
C323 C 0.01637 0.1833 0.13343 0.0
C324 C 0.97686 0.1535 0.13321 0.0
H325 H 0.77821 0.03392 0.11684 0.0
H326 H 0.84142 0.08667 0.11436 0.0
H327 H 0.92355 0.06028 0.12733 0.0
H328 H 0.10175 0.19781 0.14531 0.0
H329 H 0.03748 0.14885 0.14466 0.0
C330 C 0.74853 0.79654 0.62468 0.0
C331 C 0.7648 0.78769 0.63999 0.0
C332 C 0.75464 0.83259 0.62274 0.0
C333 C 0.82328 0.92632 0.62921 0.0
H334 H 0.74817 0.9533 0.63711 0.0
C335 C 0.86083 0.07896 0.63623 0.0
C336 C 0.83511 0.08912 0.63028 0.0
C337 C 0.85152 0.04178 0.63629 0.0
C338 C 0.76944 0.94635 0.63442 0.0
H339 H 0.79965 0.80924 0.66538 0.0
H340 H 0.811 0.87218 0.66161 0.0
H341 H 0.73172 0.88849 0.63876 0.0
H342 H 0.78006 0.06862 0.61894 0.0
H343 H 0.76444 0.00426 0.61803 0.0
H344 H 0.86096 0.98354 0.62428 0.0
C345 C 0.79327 0.85122 0.65132 0.0
C346 C 0.75991 0.90918 0.6355 0.0
C347 C 0.78659 0.81519 0.65349 0.0
C348 C 0.80033 0.06155 0.62383 0.0
C349 C 0.79128 0.02452 0.62347 0.0
C350 C 0.83272 0.96337 0.62771 0.0
C351 C 0.7777 0.86028 0.63584 0.0
C352 C 0.78687 0.89901 0.63316 0.0
C353 C 0.8165 0.01394 0.62998 0.0
C354 C 0.80606 0.97409 0.63057 0.0
H355 H 0.73178 0.77587 0.61404 0.0
H356 H 0.7424 0.83914 0.61069 0.0
H357 H 0.84446 0.91892 0.62728 0.0
H358 H 0.88775 0.09961 0.64144 0.0
H359 H 0.87157 0.03494 0.64176 0.0
C360 C 0.97956 0.79266 0.11659 0.0
C361 C 0.98055 0.7657 0.12828 0.0
C362 C 0.94934 0.79818 0.11716 0.0
C363 C 0.85206 0.75822 0.12909 0.0
H364 H 0.87807 0.8593 0.14046 0.0
C365 C 0.74059 0.7992 0.14326 0.0
C366 C 0.74776 0.83419 0.13703 0.0
C367 C 0.76814 0.78955 0.14255 0.0
C368 C 0.87016 0.83104 0.13694 0.0
H369 H 0.9498 0.72191 0.1489 0.0
H370 H 0.89613 0.73095 0.14948 0.0
H371 H 0.92629 0.84336 0.13735 0.0
H372 H 0.7894 0.88628 0.1249 0.0
H373 H 0.83683 0.86913 0.12293 0.0
H374 H 0.79603 0.74598 0.12798 0.0
C375 C 0.91908 0.74802 0.14005 0.0
C376 C 0.8979 0.8219 0.13529 0.0
C377 C 0.9497 0.74282 0.1397 0.0
C378 C 0.78305 0.85924 0.13002 0.0
C379 C 0.8104 0.8494 0.12901 0.0
C380 C 0.82423 0.76747 0.13041 0.0
C381 C 0.91916 0.77652 0.12921 0.0
C382 C 0.88919 0.78548 0.13127 0.0
C383 C 0.80345 0.81443 0.13532 0.0
C384 C 0.83289 0.80411 0.13428 0.0
H385 H 0.00287 0.81069 0.1076 0.0
H386 H 0.9499 0.82002 0.10847 0.0
H387 H 0.84464 0.72995 0.1259 0.0
H388 H 0.71374 0.77931 0.14886 0.0
H389 H 0.76176 0.76266 0.1479 0.0
C390 C 0.90835 0.78563 0.62551 0.0
C391 C 0.89905 0.75432 0.63684 0.0
C392 C 0.94532 0.81266 0.62284 0.0
C393 C 0.04023 0.82657 0.6271 0.0
H394 H 0.06933 0.93017 0.62368 0.0
C395 C 0.19054 0.94803 0.63448 0.0
C396 C 0.20112 0.97848 0.62224 0.0
C397 C 0.15428 0.91845 0.63418 0.0
C398 C 0.06155 0.90128 0.62436 0.0
H399 H 0.92106 0.72751 0.65493 0.0
H400 H 0.9851 0.77503 0.65091 0.0
H401 H 0.00464 0.88431 0.62823 0.0
H402 H 0.18302 0.00089 0.59921 0.0
H403 H 0.11981 0.94935 0.59873 0.0
H404 H 0.09756 0.84398 0.62386 0.0
C405 C 0.96415 0.7783 0.64348 0.0
C406 C 0.02443 0.87494 0.62695 0.0
C407 C 0.92733 0.75116 0.64594 0.0
C408 C 0.17556 0.97783 0.60888 0.0
C409 C 0.13932 0.94848 0.60869 0.0
C410 C 0.07743 0.853 0.62474 0.0
C411 C 0.97375 0.80913 0.63164 0.0
C412 C 0.01325 0.83722 0.62844 0.0
C413 C 0.12801 0.91904 0.62174 0.0
C414 C 0.08847 0.89062 0.62338 0.0
H415 H 0.88717 0.78869 0.61819 0.0
H416 H 0.95159 0.83579 0.61346 0.0
H417 H 0.03266 0.79775 0.62776 0.0
H418 H 0.2097 0.9479 0.64496 0.0
H419 H 0.14631 0.89613 0.64442 0.0
C420 C 0.07529 0.86833 0.4135 0.0
C421 C 0.08559 0.8468 0.40239 0.0
C422 C 0.03815 0.85825 0.41525 0.0
C423 C 0.94395 0.7771 0.40885 0.0
H424 H 0.91419 0.85094 0.4135 0.0
C425 C 0.79362 0.74862 0.40155 0.0
C426 C 0.78283 0.76712 0.41467 0.0
C427 C 0.82988 0.75534 0.40159 0.0
C428 C 0.92217 0.83001 0.41242 0.0
H429 H 0.06538 0.79897 0.38361 0.0
H430 H 0.001 0.78232 0.38595 0.0
H431 H 0.97908 0.87043 0.40925 0.0
H432 H 0.80055 0.80523 0.4389 0.0
H433 H 0.8638 0.81709 0.43885 0.0
H434 H 0.88658 0.73675 0.4114 0.0
C435 C 0.02124 0.80616 0.39395 0.0
C436 C 0.95939 0.84116 0.41002 0.0
C437 C 0.05824 0.81592 0.39244 0.0
C438 C 0.80817 0.79068 0.42856 0.0
C439 C 0.84441 0.79768 0.42847 0.0
C440 C 0.90664 0.76597 0.41099 0.0
C441 C 0.01057 0.82672 0.40569 0.0
C442 C 0.97083 0.81487 0.4082 0.0
C443 C 0.8559 0.78094 0.41462 0.0
C444 C 0.89542 0.79233 0.41285 0.0
H445 H 0.09572 0.89209 0.42149 0.0
H446 H 0.03104 0.87456 0.4246 0.0
H447 H 0.9517 0.756 0.40791 0.0
H448 H 0.77462 0.73039 0.39067 0.0
H449 H 0.83805 0.74209 0.39075 0.0
C450 C 0.014 0.81465 0.88844 0.0
C451 C 0.00908 0.78778 0.90215 0.0
C452 C 0.04337 0.8507 0.89009 0.0
C453 C 0.1355 0.90866 0.90662 0.0
H454 H 0.10921 0.98486 0.91299 0.0
C455 C 0.24717 0.06101 0.91772 0.0
C456 C 0.24127 0.08845 0.90967 0.0
C457 C 0.21891 0.0242 0.91811 0.0
C458 C 0.1172 0.96415 0.9109 0.0
H459 H 0.03168 0.77698 0.92788 0.0
H460 H 0.08434 0.84026 0.9303 0.0
H461 H 0.06092 0.92038 0.91042 0.0
H462 H 0.20124 0.099 0.89566 0.0
H463 H 0.15234 0.0346 0.8954 0.0
H464 H 0.19159 0.95206 0.90601 0.0
C465 C 0.06495 0.83325 0.9185 0.0
C466 C 0.08946 0.92718 0.90962 0.0
C467 C 0.035 0.7972 0.91709 0.0
C468 C 0.20644 0.07843 0.90212 0.0
C469 C 0.17834 0.04144 0.9021 0.0
C470 C 0.16331 0.94572 0.90747 0.0
C471 C 0.06881 0.8604 0.90523 0.0
C472 C 0.0984 0.8992 0.90742 0.0
C473 C 0.1842 0.01372 0.91003 0.0
C474 C 0.15457 0.97407 0.90958 0.0
H475 H -0.00564 0.80821 0.87682 0.0
H476 H 0.04601 0.87119 0.87964 0.0
H477 H 0.14293 0.88745 0.90475 0.0
H478 H 0.27367 0.06804 0.92387 0.0
H479 H 0.22438 0.00404 0.92481 0.0
C480 C 0.19481 0.25805 0.40001 0.0
C481 C 0.16082 0.25093 0.40777 0.0
C482 C 0.20607 0.23169 0.40139 0.0
C483 C 0.19271 0.15223 0.43029 0.0
H484 H 0.22694 0.12383 0.38483 0.0
C485 C 0.20094 0.01881 0.42779 0.0
C486 C 0.22703 0.01688 0.41584 0.0
C487 C 0.19762 0.05046 0.42807 0.0
C488 C 0.21822 0.13188 0.3978 0.0
H489 H 0.1121 0.21043 0.42312 0.0
H490 H 0.13201 0.16481 0.42573 0.0
H491 H 0.21171 0.17292 0.38252 0.0
H492 H 0.27149 0.04723 0.39557 0.0
H493 H 0.26664 0.10321 0.39649 0.0
H494 H 0.19945 0.11167 0.44569 0.0
C495 C 0.14991 0.19078 0.41857 0.0
C496 C 0.20929 0.15994 0.39642 0.0
C497 C 0.1384 0.21685 0.41694 0.0
C498 C 0.25108 0.04797 0.4049 0.0
C499 C 0.24797 0.07987 0.40528 0.0
C500 C 0.20208 0.12454 0.43176 0.0
C501 C 0.18387 0.1979 0.41083 0.0
C502 C 0.19579 0.16993 0.41256 0.0
C503 C 0.22058 0.08123 0.41652 0.0
C504 C 0.21429 0.11341 0.41544 0.0
H505 H 0.21273 0.28397 0.39281 0.0
H506 H 0.23243 0.23799 0.39534 0.0
H507 H 0.18297 0.15978 0.44307 0.0
H508 H 0.18191 0.99522 0.43635 0.0
H509 H 0.17586 0.05002 0.43672 0.0
C510 C 0.1877 0.21207 0.92927 0.0
C511 C 0.20973 0.22831 0.91289 0.0
C512 C 0.15128 0.20471 0.92977 0.0
C513 C 0.06945 0.16797 0.92146 0.0
H514 H 0.03888 0.23194 0.89732 0.0
C515 C 0.91538 0.12297 0.90836 0.0
C516 C 0.90547 0.15031 0.91065 0.0
C517 C 0.95255 0.13237 0.90905 0.0
C518 C 0.04689 0.21383 0.9043 0.0
H519 H 0.21159 0.25097 0.88449 0.0
H520 H 0.14795 0.23779 0.88517 0.0
H521 H 0.10397 0.25118 0.8988 0.0
H522 H 0.92682 0.20867 0.91633 0.0
H523 H 0.99075 0.22462 0.91801 0.0
H524 H 0.01234 0.13111 0.92745 0.0
C525 C 0.15876 0.2311 0.89779 0.0
C526 C 0.0843 0.22472 0.90493 0.0
C527 C 0.1953 0.23871 0.89738 0.0
C528 C 0.93337 0.18691 0.91418 0.0
C529 C 0.97024 0.19618 0.91503 0.0
C530 C 0.032 0.15717 0.92093 0.0
C531 C 0.13598 0.21316 0.91381 0.0
C532 C 0.09613 0.20198 0.91353 0.0
C533 C 0.98048 0.16923 0.9122 0.0
C534 C 0.02022 0.18002 0.9124 0.0
H535 H 0.1982 0.20385 0.94147 0.0
H536 H 0.1349 0.19172 0.94253 0.0
H537 H 0.07741 0.14939 0.9279 0.0
H538 H 0.89456 0.09455 0.9056 0.0
H539 H 0.95944 0.1109 0.90669 0.0
C540 C 0.98611 0.16843 0.41159 0.0
C541 C 0.98478 0.20082 0.41517 0.0
C542 C 0.95536 0.13389 0.41473 0.0
C543 C 0.85645 0.08471 0.4138 0.0
H544 H 0.86684 0.00794 0.43951 0.0
C545 C 0.73709 0.93343 0.41658 0.0
C546 C 0.74639 0.9057 0.41386 0.0
C547 C 0.76443 0.97017 0.41944 0.0
C548 C 0.86351 0.02893 0.43215 0.0
H549 H 0.95037 0.22268 0.42501 0.0
H550 H 0.8954 0.16139 0.43001 0.0
H551 H 0.91749 0.0716 0.44035 0.0
H552 H 0.79188 0.89497 0.41206 0.0
H553 H 0.83966 0.95916 0.41651 0.0
H554 H 0.80325 0.04196 0.40473 0.0
C555 C 0.92071 0.16315 0.42495 0.0
C556 C 0.8924 0.06543 0.43279 0.0
C557 C 0.952 0.19805 0.42214 0.0
C558 C 0.78373 0.91558 0.41418 0.0
C559 C 0.81112 0.95242 0.41689 0.0
C560 C 0.82761 0.04809 0.41299 0.0
C561 C 0.92226 0.13079 0.42129 0.0
C562 C 0.88947 0.09353 0.42327 0.0
C563 C 0.80184 0.98022 0.41952 0.0
C564 C 0.83111 0.0196 0.4218 0.0
H565 H 0.01107 0.1697 0.4063 0.0
H566 H 0.95722 0.10948 0.41154 0.0
H567 H 0.85367 0.10581 0.40615 0.0
H568 H 0.70858 0.92681 0.41662 0.0
H569 H 0.75618 0.99066 0.42172 0.0
C570 C 0.86258 0.78527 0.91737 0.0
C571 C 0.84072 0.75328 0.90646 0.0
C572 C 0.85249 0.8124 0.91936 0.0
C573 C 0.77159 0.82638 0.91355 0.0
H574 H 0.84607 0.9299 0.91673 0.0
C575 C 0.74434 0.94928 0.90476 0.0
C576 C 0.76341 0.97922 0.91744 0.0
C577 C 0.75071 0.91941 0.90515 0.0
C578 C 0.82497 0.90104 0.91607 0.0
H579 H 0.79199 0.72527 0.88842 0.0
H580 H 0.77527 0.77301 0.8912 0.0
H581 H 0.8648 0.88367 0.91301 0.0
H582 H 0.80224 0.00044 0.94127 0.0
H583 H 0.81347 0.94851 0.94184 0.0
H584 H 0.73182 0.84427 0.91594 0.0
C585 C 0.79945 0.77676 0.89886 0.0
C586 C 0.83568 0.87447 0.91398 0.0
C587 C 0.80923 0.74947 0.8971 0.0
C588 C 0.78722 0.97778 0.93127 0.0
C589 C 0.79388 0.94821 0.93152 0.0
C590 C 0.76089 0.85305 0.91536 0.0
C591 C 0.82058 0.80836 0.91025 0.0
C592 C 0.80917 0.83674 0.91267 0.0
C593 C 0.77653 0.91927 0.9181 0.0
C594 C 0.78748 0.89063 0.91668 0.0
H595 H 0.88684 0.78882 0.92488 0.0
H596 H 0.86925 0.83608 0.92846 0.0
H597 H 0.75033 0.79759 0.913 0.0
H598 H 0.72593 0.94977 0.89392 0.0
H599 H 0.73698 0.89745 0.89463 0.0
C600 C 0.08603 0.65424 0.14376 0.0
C601 C 0.11548 0.68628 0.13573 0.0
C602 C 0.08786 0.62159 0.14498 0.0
C603 C 0.15838 0.59289 0.14571 0.0
H604 H 0.07843 0.49446 0.13404 0.0
C605 C 0.18411 0.47363 0.12896 0.0
C606 C 0.16202 0.43992 0.1384 0.0
C607 C 0.17547 0.50181 0.12996 0.0
C608 C 0.10084 0.52179 0.13754 0.0
H609 H 0.16834 0.70855 0.12131 0.0
H610 H 0.17104 0.65215 0.12296 0.0
H611 H 0.06757 0.54702 0.13307 0.0
H612 H 0.11322 0.40883 0.156 0.0
H613 H 0.09778 0.45825 0.15755 0.0
H614 H 0.19192 0.56814 0.14964 0.0
C615 C 0.14722 0.65221 0.12902 0.0
C616 C 0.09461 0.55181 0.13703 0.0
C617 C 0.14556 0.68455 0.12798 0.0
C618 C 0.13077 0.43466 0.14865 0.0
C619 C 0.12183 0.46278 0.14945 0.0
C620 C 0.16462 0.56313 0.14606 0.0
C621 C 0.11906 0.62066 0.13807 0.0
C622 C 0.12364 0.58784 0.14063 0.0
C623 C 0.14434 0.49676 0.14026 0.0
C624 C 0.1362 0.52741 0.14157 0.0
H625 H 0.0625 0.65488 0.1498 0.0
H626 H 0.06561 0.59762 0.15194 0.0
H627 H 0.1811 0.62011 0.14911 0.0
H628 H 0.20827 0.47836 0.12091 0.0
H629 H 0.19307 0.52758 0.12255 0.0
C630 C 0.69381 0.16758 0.65173 0.0
C631 C 0.70689 0.15977 0.63469 0.0
C632 C 0.65687 0.15837 0.65332 0.0
C633 C 0.56377 0.09737 0.634 0.0
H634 H 0.54398 0.17323 0.65263 0.0
C635 C 0.41868 0.08443 0.62991 0.0
C636 C 0.4101 0.10365 0.64372 0.0
C637 C 0.45356 0.08732 0.62987 0.0
C638 C 0.54872 0.15131 0.64779 0.0
H639 H 0.69153 0.13559 0.60608 0.0
H640 H 0.62673 0.119 0.60895 0.0
H641 H 0.60713 0.18607 0.65051 0.0
H642 H 0.42982 0.13844 0.66916 0.0
H643 H 0.48941 0.14172 0.66986 0.0
H644 H 0.50526 0.06235 0.63153 0.0
C645 C 0.64509 0.13233 0.62105 0.0
C646 C 0.58512 0.15886 0.64646 0.0
C647 C 0.68219 0.14203 0.61936 0.0
C648 C 0.43586 0.12354 0.65826 0.0
C649 C 0.47026 0.12581 0.65848 0.0
C650 C 0.52718 0.08958 0.63557 0.0
C651 C 0.63209 0.14068 0.63799 0.0
C652 C 0.59313 0.13206 0.63953 0.0
C653 C 0.48029 0.10907 0.64382 0.0
C654 C 0.5191 0.11647 0.6425 0.0
H655 H 0.7122 0.18114 0.6638 0.0
H656 H 0.64763 0.16491 0.66661 0.0
H657 H 0.5691 0.07606 0.62872 0.0
H658 H 0.39945 0.06929 0.61839 0.0
H659 H 0.46014 0.07412 0.61829 0.0
C660 C 0.55578 0.68498 0.12591 0.0
C661 C 0.5568 0.71138 0.13889 0.0
C662 C 0.52803 0.64788 0.12734 0.0
C663 C 0.43352 0.59139 0.14522 0.0
H664 H 0.4509 0.50873 0.14131 0.0
C665 C 0.31629 0.44563 0.15985 0.0
C666 C 0.31178 0.41764 0.14701 0.0
C667 C 0.34884 0.47961 0.16 0.0
C668 C 0.44558 0.53151 0.14225 0.0
H669 H 0.5304 0.71969 0.16383 0.0
H670 H 0.48208 0.65522 0.16631 0.0
H671 H 0.5028 0.57205 0.13884 0.0
H672 H 0.33847 0.40243 0.12493 0.0
H673 H 0.39546 0.46246 0.12482 0.0
H674 H 0.37656 0.55151 0.14823 0.0
C675 C 0.5024 0.66308 0.15492 0.0
C676 C 0.47528 0.56773 0.14084 0.0
C677 C 0.53015 0.69998 0.15355 0.0
C678 C 0.34136 0.42352 0.13506 0.0
C679 C 0.37395 0.45791 0.135 0.0
C680 C 0.40397 0.5554 0.1465 0.0
C681 C 0.50072 0.63667 0.1417 0.0
C682 C 0.46955 0.59804 0.14255 0.0
C683 C 0.37753 0.48677 0.14704 0.0
C684 C 0.40957 0.52494 0.1453 0.0
H685 H 0.57609 0.69308 0.11449 0.0
H686 H 0.52732 0.62819 0.1169 0.0
H687 H 0.42807 0.6141 0.14613 0.0
H688 H 0.2941 0.44167 0.16942 0.0
H689 H 0.35104 0.50073 0.1699 0.0
C690 C 0.85887 0.55733 0.62491 0.0
C691 C 0.83282 0.55785 0.63753 0.0
C692 C 0.86768 0.52914 0.62614 0.0
C693 C 0.82831 0.43325 0.64244 0.0
H694 H 0.92846 0.45114 0.64034 0.0
C695 C 0.85565 0.31485 0.65615 0.0
C696 C 0.88018 0.31128 0.64374 0.0
C697 C 0.85429 0.34748 0.65667 0.0
C698 C 0.90033 0.44567 0.64077 0.0
H699 H 0.79604 0.52985 0.6615 0.0
H700 H 0.81114 0.48062 0.66359 0.0
H701 H 0.9171 0.50319 0.63822 0.0
H702 H 0.92387 0.33947 0.6228 0.0
H703 H 0.921 0.39674 0.6233 0.0
H704 H 0.81117 0.37601 0.64455 0.0
C705 C 0.82464 0.50177 0.65267 0.0
C706 C 0.89384 0.47547 0.63957 0.0
C707 C 0.81608 0.53002 0.65152 0.0
C708 C 0.90493 0.34175 0.63262 0.0
C709 C 0.90318 0.37445 0.6329 0.0
C710 C 0.83472 0.4036 0.6435 0.0
C711 C 0.85032 0.50082 0.6399 0.0
C712 C 0.85774 0.46955 0.64061 0.0
C713 C 0.87689 0.37718 0.64446 0.0
C714 C 0.87081 0.40936 0.64294 0.0
H715 H 0.87226 0.57854 0.61401 0.0
H716 H 0.88737 0.52901 0.61603 0.0
H717 H 0.80013 0.42766 0.64284 0.0
H718 H 0.8365 0.29181 0.665 0.0
H719 H 0.83455 0.34894 0.66622 0.0
C720 C 0.54819 0.8706 0.14984 0.0
C721 C 0.57658 0.89035 0.13644 0.0
C722 C 0.51576 0.87219 0.14936 0.0
C723 C 0.45679 0.88809 0.11612 0.0
H724 H 0.40378 0.88026 0.1635 0.0
C725 C 0.29895 0.83044 0.1175 0.0
C726 C 0.2843 0.84443 0.13121 0.0
C727 C 0.33657 0.84165 0.1176 0.0
C728 C 0.41821 0.88295 0.15007 0.0
H729 H 0.59368 0.92835 0.11233 0.0
H730 H 0.53639 0.93131 0.11143 0.0
H731 H 0.46699 0.89307 0.16512 0.0
H732 H 0.29769 0.88183 0.15548 0.0
H733 H 0.36331 0.90198 0.15547 0.0
H734 H 0.4079 0.87807 0.10107 0.0
C735 C 0.53943 0.91439 0.1223 0.0
C736 C 0.45449 0.88993 0.15101 0.0
C737 C 0.57236 0.91305 0.12292 0.0
C738 C 0.30813 0.87032 0.14483 0.0
C739 C 0.34577 0.88174 0.14486 0.0
C740 C 0.42042 0.88121 0.11516 0.0
C741 C 0.51051 0.89351 0.13539 0.0
C742 C 0.47401 0.8917 0.13409 0.0
C743 C 0.36054 0.86733 0.13135 0.0
C744 C 0.40033 0.87777 0.13215 0.0
H745 H 0.55061 0.85293 0.1605 0.0
H746 H 0.49411 0.85531 0.15949 0.0
H747 H 0.47083 0.88906 0.10279 0.0
H748 H 0.28123 0.81041 0.10683 0.0
H749 H 0.34663 0.82944 0.10716 0.0
C750 C 0.64738 0.56727 0.6443 0.0
C751 C 0.67813 0.57217 0.63372 0.0
C752 C 0.61506 0.53252 0.6447 0.0
C753 C 0.58782 0.4344 0.63803 0.0
H754 H 0.48743 0.41548 0.63564 0.0
C755 C 0.46653 0.28914 0.62394 0.0
C756 C 0.43469 0.27703 0.6352 0.0
C757 C 0.49461 0.32602 0.62457 0.0
C758 C 0.51535 0.42044 0.63653 0.0
H759 H 0.69833 0.5459 0.61401 0.0
H760 H 0.64229 0.4863 0.61425 0.0
H761 H 0.5389 0.47934 0.63481 0.0
H762 H 0.40688 0.29394 0.65577 0.0
H763 H 0.45618 0.35873 0.65688 0.0
H764 H 0.5647 0.37588 0.63953 0.0
C765 C 0.64318 0.50847 0.62282 0.0
C766 C 0.54477 0.45696 0.63607 0.0
C767 C 0.67525 0.54273 0.62257 0.0
C768 C 0.43124 0.30258 0.64698 0.0
C769 C 0.45931 0.33966 0.64752 0.0
C770 C 0.55862 0.39815 0.63842 0.0
C771 C 0.61318 0.50244 0.63443 0.0
C772 C 0.58137 0.46426 0.63641 0.0
C773 C 0.49144 0.3517 0.63643 0.0
C774 C 0.52206 0.39063 0.63732 0.0
H775 H 0.64901 0.58956 0.65305 0.0
H776 H 0.59232 0.52875 0.65373 0.0
H777 H 0.61563 0.43904 0.63889 0.0
H778 H 0.46982 0.27009 0.61465 0.0
H779 H 0.51878 0.33452 0.61564 0.0
C780 C 0.33542 0.90889 0.39982 0.0
C781 C 0.30428 0.88179 0.40966 0.0
C782 C 0.36777 0.90661 0.3991 0.0
C783 C 0.39501 0.83544 0.40299 0.0
H784 H 0.49503 0.91672 0.40846 0.0
C785 C 0.51553 0.81068 0.41705 0.0
C786 C 0.54801 0.83157 0.40644 0.0
C787 C 0.48741 0.81937 0.4165 0.0
C788 C 0.46723 0.89385 0.4067 0.0
H789 H 0.28339 0.83316 0.42782 0.0
H790 H 0.33946 0.82979 0.42701 0.0
H791 H 0.44337 0.92873 0.40969 0.0
H792 H 0.57695 0.87822 0.38713 0.0
H793 H 0.52759 0.89356 0.38621 0.0
H794 H 0.41843 0.80047 0.40029 0.0
C795 C 0.33884 0.85196 0.41923 0.0
C796 C 0.43772 0.90074 0.40739 0.0
C797 C 0.30676 0.85404 0.41979 0.0
C798 C 0.55208 0.8616 0.3954 0.0
C799 C 0.52399 0.87051 0.39497 0.0
C800 C 0.4243 0.82859 0.40239 0.0
C801 C 0.36927 0.87733 0.40832 0.0
C802 C 0.40123 0.87142 0.40597 0.0
C803 C 0.49124 0.84927 0.4054 0.0
C804 C 0.46068 0.85755 0.40461 0.0
H805 H 0.33413 0.93053 0.39187 0.0
H806 H 0.39088 0.92666 0.39064 0.0
H807 H 0.3673 0.81235 0.40129 0.0
H808 H 0.51176 0.7875 0.42574 0.0
H809 H 0.4627 0.80279 0.4249 0.0
C810 C 0.68633 0.55437 0.91975 0.0
C811 C 0.71358 0.5552 0.90756 0.0
C812 C 0.64963 0.52583 0.91818 0.0
C813 C 0.5944 0.42979 0.90125 0.0
H814 H 0.51203 0.44767 0.90188 0.0
C815 C 0.44939 0.31186 0.88495 0.0
C816 C 0.42048 0.3083 0.89672 0.0
C817 C 0.48357 0.34423 0.88517 0.0
C818 C 0.53469 0.44216 0.90187 0.0
H819 H 0.72383 0.52719 0.88403 0.0
H820 H 0.66006 0.47741 0.88135 0.0
H821 H 0.57502 0.49961 0.9051 0.0
H822 H 0.40405 0.33655 0.91726 0.0
H823 H 0.46428 0.39322 0.91799 0.0
H824 H 0.55464 0.37259 0.89842 0.0
C825 C 0.66694 0.49858 0.89221 0.0
C826 C 0.57077 0.47193 0.90371 0.0
C827 C 0.70346 0.52717 0.8937 0.0
C828 C 0.4258 0.33866 0.90793 0.0
C829 C 0.46035 0.37108 0.90835 0.0
C830 C 0.55852 0.40016 0.89955 0.0
C831 C 0.63959 0.49742 0.90449 0.0
C832 C 0.60105 0.46607 0.90321 0.0
C833 C 0.49002 0.37377 0.89743 0.0
C834 C 0.52813 0.40588 0.89959 0.0
H835 H 0.69339 0.57571 0.93054 0.0
H836 H 0.62926 0.52557 0.92793 0.0
H837 H 0.61702 0.4242 0.90124 0.0
H838 H 0.44595 0.28905 0.87598 0.0
H839 H 0.50531 0.34565 0.87608 0.0
C840 C 0.13182 0.68882 0.42268 0.0
C841 C 0.14791 0.71194 0.40659 0.0
C842 C 0.12251 0.6516 0.42202 0.0
C843 C 0.14613 0.58875 0.39612 0.0
H844 H 0.05629 0.51061 0.41892 0.0
C845 C 0.10967 0.4384 0.38696 0.0
C846 C 0.09701 0.41547 0.40329 0.0
C847 C 0.11061 0.47226 0.38674 0.0
C848 C 0.08164 0.53212 0.41263 0.0
H849 H 0.16629 0.71408 0.3771 0.0
H850 H 0.15009 0.64924 0.37589 0.0
H851 H 0.06885 0.57447 0.41987 0.0
H852 H 0.07397 0.40916 0.43196 0.0
H853 H 0.07601 0.46897 0.4318 0.0
H854 H 0.15948 0.54702 0.38917 0.0
C855 C 0.14495 0.65985 0.38911 0.0
C856 C 0.08885 0.56876 0.41317 0.0
C857 C 0.15409 0.69699 0.38976 0.0
C858 C 0.08328 0.4261 0.41907 0.0
C859 C 0.08465 0.46045 0.41897 0.0
C860 C 0.13903 0.55233 0.39565 0.0
C861 C 0.12926 0.63668 0.40528 0.0
C862 C 0.12115 0.59754 0.40482 0.0
C863 C 0.09964 0.48458 0.40304 0.0
C864 C 0.10657 0.52337 0.40375 0.0
H865 H 0.1267 0.69957 0.43587 0.0
H866 H 0.11082 0.63474 0.4348 0.0
H867 H 0.17167 0.6102 0.38995 0.0
H868 H 0.12044 0.43081 0.3746 0.0
H869 H 0.12127 0.48943 0.37399 0.0
C870 C 0.6859 0.14625 0.89624 0.0
C871 C 0.68648 0.1129 0.89723 0.0
C872 C 0.65287 0.14646 0.89559 0.0
C873 C 0.55363 0.09113 0.90674 0.0
H874 H 0.55315 0.17174 0.87916 0.0
C875 C 0.42976 0.11986 0.89925 0.0
C876 C 0.43855 0.15467 0.90666 0.0
C877 C 0.45707 0.11004 0.89728 0.0
C878 C 0.55287 0.14903 0.88686 0.0
H879 H 0.65211 0.05334 0.8982 0.0
H880 H 0.59357 0.05363 0.89649 0.0
H881 H 0.60505 0.16138 0.8754 0.0
H882 H 0.4825 0.20641 0.91791 0.0
H883 H 0.53049 0.18974 0.91381 0.0
H884 H 0.50065 0.07874 0.91783 0.0
C885 C 0.61919 0.07971 0.8965 0.0
C886 C 0.58266 0.14313 0.88483 0.0
C887 C 0.65269 0.07949 0.89736 0.0
C888 C 0.475 0.17941 0.91218 0.0
C889 C 0.50239 0.16992 0.90981 0.0
C890 C 0.52332 0.09664 0.90845 0.0
C891 C 0.61898 0.11334 0.89559 0.0
C892 C 0.58418 0.11501 0.8953 0.0
C893 C 0.49368 0.13523 0.90229 0.0
C894 C 0.52332 0.12637 0.89897 0.0
H895 H 0.7111 0.17274 0.89641 0.0
H896 H 0.65411 0.17297 0.89557 0.0
H897 H 0.55382 0.06931 0.91506 0.0
H898 H 0.4018 0.10025 0.89494 0.0
H899 H 0.44981 0.08322 0.89138 0.0
C900 C 0.29156 0.46701 0.38655 0.0
C901 C 0.28055 0.44123 0.40164 0.0
C902 C 0.32847 0.49441 0.38457 0.0
C903 C 0.42392 0.52122 0.39837 0.0
H904 H 0.44165 0.62025 0.38922 0.0
C905 C 0.56809 0.65443 0.40517 0.0
C906 C 0.57488 0.68438 0.39328 0.0
C907 C 0.53372 0.62182 0.40464 0.0
C908 C 0.43736 0.59273 0.39141 0.0
H909 H 0.29953 0.42315 0.42622 0.0
H910 H 0.36426 0.47122 0.42279 0.0
H911 H 0.37888 0.56931 0.39141 0.0
H912 H 0.55268 0.70278 0.37034 0.0
H913 H 0.49375 0.64574 0.36874 0.0
H914 H 0.48269 0.54492 0.39838 0.0
C915 C 0.34435 0.47013 0.41244 0.0
C916 C 0.40124 0.56348 0.39273 0.0
C917 C 0.3073 0.44278 0.41447 0.0
C918 C 0.54798 0.68021 0.37983 0.0
C919 C 0.51405 0.64762 0.37907 0.0
C920 C 0.46027 0.5506 0.39692 0.0
C921 C 0.35525 0.49658 0.39761 0.0
C922 C 0.39401 0.52736 0.39617 0.0
C923 C 0.50581 0.61859 0.39203 0.0
C924 C 0.46743 0.58674 0.39332 0.0
H925 H 0.27157 0.46633 0.37637 0.0
H926 H 0.33605 0.51404 0.37284 0.0
H927 H 0.41922 0.49364 0.40094 0.0
H928 H 0.58829 0.6571 0.41579 0.0
H929 H 0.52838 0.6001 0.41485 0.0
C930 C 0.85826 0.54413 0.92261 0.0
C931 C 0.88382 0.57352 0.91118 0.0
C932 C 0.85689 0.51019 0.92232 0.0
C933 C 0.90458 0.4597 0.90827 0.0
H934 H 0.80419 0.37787 0.90524 0.0
C935 C 0.86503 0.30554 0.89671 0.0
C936 C 0.83643 0.27991 0.90857 0.0
C937 C 0.87387 0.34261 0.89641 0.0
C938 C 0.83238 0.40035 0.90622 0.0
H939 H 0.9295 0.59129 0.89129 0.0
H940 H 0.92682 0.53105 0.89052 0.0
H941 H 0.81545 0.44076 0.90613 0.0
H942 H 0.79505 0.27284 0.9296 0.0
H943 H 0.81028 0.33725 0.92906 0.0
H944 H 0.92123 0.41869 0.90833 0.0
C945 C 0.908 0.53459 0.89982 0.0
C946 C 0.83887 0.43644 0.90676 0.0
C947 C 0.90961 0.56901 0.90027 0.0
C948 C 0.81708 0.29196 0.92023 0.0
C949 C 0.82572 0.32882 0.91986 0.0
C950 C 0.89803 0.42334 0.90767 0.0
C951 C 0.88071 0.50449 0.91036 0.0
C952 C 0.87494 0.46654 0.90824 0.0
C953 C 0.854 0.35452 0.90784 0.0
C954 C 0.86176 0.39329 0.90704 0.0
H955 H 0.83843 0.54703 0.93141 0.0
H956 H 0.83631 0.48797 0.93108 0.0
H957 H 0.93266 0.48232 0.9094 0.0
H958 H 0.88044 0.29692 0.88761 0.0
H959 H 0.89565 0.36174 0.88694 0.0
C960 C 0.10416 0.33008 0.33486 0.0
C961 C 0.12852 0.3395 0.35056 0.0
C962 C 0.1173 0.33936 0.31601 0.0
C963 C 0.1972 0.35666 0.28665 0.0
H964 H 0.13967 0.36867 0.24628 0.0
C965 C 0.1872 0.3546 0.19696 0.0
C966 C 0.19265 0.32439 0.19403 0.0
C967 C 0.18417 0.36542 0.21587 0.0
C968 C 0.15651 0.36599 0.25732 0.0
H969 H 0.18593 0.36745 0.35893 0.0
H970 H 0.20938 0.38416 0.32567 0.0
H971 H 0.12737 0.37512 0.28013 0.0
H972 H 0.1982 0.28133 0.2084 0.0
H973 H 0.1922 0.2994 0.24084 0.0
H974 H 0.22622 0.34737 0.26388 0.0
C975 C 0.1799 0.36923 0.32804 0.0
C976 C 0.1492 0.36928 0.27679 0.0
C977 C 0.16658 0.35993 0.34708 0.0
C978 C 0.19431 0.30493 0.21017 0.0
C979 C 0.19128 0.31559 0.22885 0.0
C980 C 0.20466 0.35364 0.26721 0.0
C981 C 0.15532 0.35839 0.31221 0.0
C982 C 0.16839 0.36308 0.29173 0.0
C983 C 0.18668 0.34624 0.23206 0.0
C984 C 0.18335 0.35664 0.25232 0.0
H985 H 0.07463 0.31436 0.33707 0.0
H986 H 0.09742 0.32985 0.30433 0.0
H987 H 0.21258 0.35167 0.29765 0.0
H988 H 0.18602 0.37018 0.18475 0.0
H989 H 0.18053 0.38912 0.21782 0.0
C990 C 0.84777 0.15256 0.70023 0.0
C991 C 0.84393 0.17782 0.68859 0.0
C992 C 0.83578 0.14685 0.7194 0.0
C993 C 0.82681 0.19513 0.76067 0.0
H994 H 0.77889 0.09741 0.78347 0.0
C995 C 0.80264 0.16165 0.84449 0.0
C996 C 0.80968 0.13352 0.85025 0.0
C997 C 0.80386 0.17054 0.82473 0.0
C998 C 0.79235 0.12495 0.77736 0.0
H999 H 0.82454 0.21705 0.6876 0.0
H1000 H 0.80387 0.20753 0.72161 0.0
H1001 H 0.78224 0.1039 0.74842 0.0
H1002 H 0.82623 0.09479 0.8403 0.0
H1003 H 0.82935 0.11076 0.80638 0.0
H1004 H 0.83826 0.21604 0.78984 0.0
C1005 C 0.81557 0.19163 0.7157 0.0
C1006 C 0.79408 0.12862 0.75727 0.0
C1007 C 0.8269 0.19671 0.69624 0.0
C1008 C 0.82038 0.11639 0.83625 0.0
C1009 C 0.82178 0.12527 0.81677 0.0
C1010 C 0.82519 0.19144 0.78092 0.0
C1011 C 0.82048 0.16703 0.72755 0.0
C1012 C 0.81239 0.16369 0.74866 0.0
C1013 C 0.8121 0.1513 0.81061 0.0
C1014 C 0.80913 0.15624 0.78945 0.0
H1015 H 0.86154 0.1383 0.69472 0.0
H1016 H 0.84038 0.12807 0.72817 0.0
H1017 H 0.84127 0.22254 0.75443 0.0
H1018 H 0.79398 0.175 0.85502 0.0
H1019 H 0.79652 0.19094 0.82042 0.0
C1020 C 0.63404 0.87887 0.20442 0.0
C1021 C 0.64261 0.8582 0.19154 0.0
C1022 C 0.62981 0.87079 0.22415 0.0
C1023 C 0.61608 0.8028 0.26177 0.0
H1024 H 0.68165 0.8893 0.29207 0.0
C1025 C 0.63379 0.80566 0.34632 0.0
C1026 C 0.67009 0.81498 0.35092 0.0
C1027 C 0.62492 0.81078 0.32739 0.0
C1028 C 0.66282 0.86504 0.28384 0.0
H1029 H 0.65059 0.811 0.18895 0.0
H1030 H 0.64287 0.79657 0.2237 0.0
H1031 H 0.67424 0.89563 0.2575 0.0
H1032 H 0.72565 0.83812 0.3399 0.0
H1033 H 0.71058 0.84875 0.30731 0.0
H1034 H 0.60535 0.77224 0.28829 0.0
C1035 C 0.63963 0.81919 0.21843 0.0
C1036 C 0.65852 0.86861 0.26407 0.0
C1037 C 0.64411 0.82745 0.19858 0.0
C1038 C 0.69752 0.83092 0.3367 0.0
C1039 C 0.68892 0.83694 0.31808 0.0
C1040 C 0.6199 0.79934 0.2817 0.0
C1041 C 0.63376 0.84166 0.23148 0.0
C1042 C 0.6356 0.83748 0.25274 0.0
C1043 C 0.65248 0.82624 0.31311 0.0
C1044 C 0.64386 0.83038 0.29281 0.0
H1045 H 0.63222 0.90245 0.19939 0.0
H1046 H 0.62471 0.88821 0.2338 0.0
H1047 H 0.59818 0.7784 0.25338 0.0
H1048 H 0.61212 0.79284 0.35703 0.0
H1049 H 0.59663 0.80239 0.32385 0.0
C1050 C 0.81486 0.64634 0.69718 0.0
C1051 C 0.78289 0.64747 0.69238 0.0
C1052 C 0.8214 0.64043 0.71641 0.0
C1053 C 0.776 0.61234 0.76532 0.0
H1054 H 0.87636 0.6706 0.78377 0.0
C1055 C 0.81965 0.64764 0.84649 0.0
C1056 C 0.85035 0.64481 0.85214 0.0
C1057 C 0.80847 0.64245 0.82702 0.0
C1058 C 0.84821 0.65392 0.77879 0.0
H1059 H 0.73202 0.64175 0.70375 0.0
H1060 H 0.74383 0.63288 0.73697 0.0
H1061 H 0.86334 0.67114 0.74952 0.0
H1062 H 0.89182 0.63196 0.84218 0.0
H1063 H 0.87263 0.62339 0.80848 0.0
H1064 H 0.76099 0.59654 0.79495 0.0
C1065 C 0.76368 0.6357 0.7261 0.0
C1066 C 0.84073 0.65398 0.75909 0.0
C1067 C 0.75704 0.64118 0.70697 0.0
C1068 C 0.86833 0.63481 0.83825 0.0
C1069 C 0.85746 0.63001 0.81891 0.0
C1070 C 0.78346 0.61278 0.7851 0.0
C1071 C 0.79621 0.63582 0.73122 0.0
C1072 C 0.80448 0.63338 0.75204 0.0
C1073 C 0.82804 0.63467 0.81298 0.0
C1074 C 0.81964 0.63364 0.79203 0.0
H1075 H 0.83514 0.65085 0.68619 0.0
H1076 H 0.84643 0.63998 0.71969 0.0
H1077 H 0.74781 0.59553 0.76047 0.0
H1078 H 0.80526 0.65526 0.8569 0.0
H1079 H 0.78563 0.64617 0.82281 0.0
C1080 C 0.12077 0.76336 0.2038 0.0
C1081 C 0.1388 0.79291 0.19085 0.0
C1082 C 0.13223 0.76678 0.223 0.0
C1083 C 0.20518 0.82727 0.25828 0.0
H1084 H 0.12271 0.78803 0.294 0.0
C1085 C 0.21529 0.88539 0.33448 0.0
C1086 C 0.19567 0.86195 0.34993 0.0
C1087 C 0.21172 0.87172 0.31575 0.0
C1088 C 0.14612 0.79849 0.28431 0.0
H1089 H 0.18401 0.84868 0.1874 0.0
H1090 H 0.20386 0.85535 0.22132 0.0
H1091 H 0.11149 0.77488 0.25963 0.0
H1092 H 0.15739 0.80542 0.35797 0.0
H1093 H 0.15053 0.7811 0.32475 0.0
H1094 H 0.2396 0.85215 0.28305 0.0
C1095 C 0.18123 0.82909 0.21655 0.0
C1096 C 0.13975 0.791 0.26451 0.0
C1097 C 0.17001 0.82537 0.1971 0.0
C1098 C 0.17288 0.82405 0.34632 0.0
C1099 C 0.16889 0.81027 0.32733 0.0
C1100 C 0.21153 0.83487 0.2781 0.0
C1101 C 0.16155 0.80022 0.22991 0.0
C1102 C 0.16912 0.80579 0.25115 0.0
C1103 C 0.18814 0.83414 0.31181 0.0
C1104 C 0.18199 0.82123 0.29131 0.0
H1105 H 0.09668 0.73794 0.19925 0.0
H1106 H 0.11709 0.74357 0.23263 0.0
H1107 H 0.22851 0.83862 0.24852 0.0
H1108 H 0.23318 0.91476 0.33677 0.0
H1109 H 0.22646 0.89103 0.3042 0.0
C1110 C 0.29944 0.1524 0.84076 0.0
C1111 C 0.3271 0.18121 0.85161 0.0
C1112 C 0.30596 0.14653 0.82164 0.0
C1113 C 0.3572 0.19659 0.77918 0.0
H1114 H 0.31844 0.09812 0.75803 0.0
C1115 C 0.3467 0.1598 0.69585 0.0
C1116 C 0.31275 0.12889 0.69084 0.0
C1117 C 0.35541 0.16971 0.71545 0.0
C1118 C 0.32945 0.12585 0.76368 0.0
H1119 H 0.38325 0.22664 0.85127 0.0
H1120 H 0.39473 0.21672 0.81741 0.0
H1121 H 0.32239 0.10695 0.79297 0.0
H1122 H 0.26052 0.08582 0.70205 0.0
H1123 H 0.2752 0.10328 0.73567 0.0
H1124 H 0.36259 0.21513 0.74971 0.0
C1125 C 0.36822 0.19826 0.82387 0.0
C1126 C 0.33181 0.13088 0.7837 0.0
C1127 C 0.36185 0.20364 0.84324 0.0
C1128 C 0.28709 0.10951 0.70548 0.0
C1129 C 0.29563 0.11932 0.7248 0.0
C1130 C 0.35466 0.19151 0.75902 0.0
C1131 C 0.34006 0.16998 0.81278 0.0
C1132 C 0.3445 0.16608 0.7917 0.0
C1133 C 0.33027 0.1487 0.73014 0.0
C1134 C 0.33942 0.15584 0.75111 0.0
H1135 H 0.27219 0.13537 0.84684 0.0
H1136 H 0.28354 0.12484 0.81343 0.0
H1137 H 0.36696 0.22405 0.78495 0.0
H1138 H 0.36701 0.17507 0.6848 0.0
H1139 H 0.38224 0.1927 0.71914 0.0
C1140 C 0.29709 0.18871 0.97392 0.0
C1141 C 0.3121 0.21155 0.95765 0.0
C1142 C 0.28208 0.19924 0.98917 0.0
C1143 C 0.29101 0.28153 1.01272 0.0
H1144 H 0.19488 0.2172 0.0352 0.0
C1145 C 0.24566 0.31302 0.08557 0.0
C1146 C 0.21185 0.31251 0.08578 0.0
C1147 C 0.25579 0.2993 0.06971 0.0
C1148 C 0.22171 0.23545 0.02899 0.0
H1149 H 0.32291 0.26309 0.94451 0.0
H1150 H 0.29762 0.28175 0.97121 0.0
H1151 H 0.21653 0.19524 1.00788 0.0
H1152 H 0.16168 0.29633 0.06973 0.0
H1153 H 0.1792 0.27143 0.04192 0.0
H1154 H 0.29668 0.32142 0.03398 0.0
C1155 C 0.29722 0.25567 0.97218 0.0
C1156 C 0.23419 0.22281 1.01349 0.0
C1157 C 0.31163 0.24493 0.95687 0.0
C1158 C 0.18797 0.29722 0.0699 0.0
C1159 C 0.1979 0.28284 0.05408 0.0
C1160 C 0.27888 0.29384 0.02839 0.0
C1161 C 0.28246 0.2331 0.98855 0.0
C1162 C 0.26895 0.24582 1.00516 0.0
C1163 C 0.23216 0.28419 0.05375 0.0
C1164 C 0.24411 0.271 0.03671 0.0
H1165 H 0.29698 0.16279 0.97485 0.0
H1166 H 0.27104 0.18139 1.00166 0.0
H1167 H 0.31799 0.29981 1.00668 0.0
H1168 H 0.26462 0.32448 0.09762 0.0
H1169 H 0.28218 0.30041 0.06995 0.0
C1170 C 0.10366 0.35171 0.47317 0.0
C1171 C 0.10086 0.3282 0.45793 0.0
C1172 C 0.0783 0.33847 0.48853 0.0
C1173 C 0.00545 0.25 0.51127 0.0
H1174 H 0.97789 0.3153 0.53679 0.0
C1175 C 0.88277 0.19935 0.56557 0.0
C1176 C 0.89049 0.21961 0.58286 0.0
C1177 C 0.90842 0.21203 0.55034 0.0
C1178 C 0.98544 0.29675 0.52986 0.0
H1179 H 0.06965 0.27226 0.44701 0.0
H1180 H 0.02452 0.24974 0.47291 0.0
H1181 H 0.02225 0.33867 0.51033 0.0
H1182 H 0.93106 0.26903 0.59774 0.0
H1183 H 0.97527 0.29138 0.57112 0.0
H1184 H 0.96759 0.20786 0.53057 0.0
C1185 C 0.04665 0.27815 0.47351 0.0
C1186 C 0.01115 0.31021 0.51472 0.0
C1187 C 0.0723 0.29124 0.4584 0.0
C1188 C 0.92426 0.25278 0.58458 0.0
C1189 C 0.94955 0.26571 0.5693 0.0
C1190 C 0.9793 0.23643 0.5262 0.0
C1191 C 0.04922 0.30145 0.48891 0.0
C1192 C 0.02173 0.28711 0.50519 0.0
C1193 C 0.94199 0.24555 0.55198 0.0
C1194 C 0.9691 0.25967 0.53574 0.0
H1195 H 0.12554 0.38028 0.47328 0.0
H1196 H 0.08187 0.35726 0.5002 0.0
H1197 H 0.01323 0.23135 0.50472 0.0
H1198 H 0.85701 0.17368 0.56384 0.0
H1199 H 0.90173 0.19594 0.53714 0.0
C1200 C 0.64693 0.89001 0.0695 0.0
C1201 C 0.6701 0.89275 0.08484 0.0
C1202 C 0.6605 0.91537 0.05415 0.0
C1203 C 0.749 0.98713 0.03132 0.0
H1204 H 0.6851 0.01677 1.00629 0.0
C1205 C 0.8008 0.10781 0.9754 0.0
C1206 C 0.77934 0.0999 0.95857 0.0
C1207 C 0.78836 0.08303 0.99105 0.0
C1208 C 0.70327 0.00864 1.01308 0.0
H1209 H 0.72574 0.92391 0.09601 0.0
H1210 H 0.7489 0.96884 0.06996 0.0
H1211 H 0.66142 0.97271 0.03288 0.0
H1212 H 0.72814 0.05983 0.94493 0.0
H1213 H 0.70641 0.01719 0.97214 0.0
H1214 H 0.79103 0.02388 1.01165 0.0
C1215 C 0.7205 0.9468 0.06934 0.0
C1216 C 0.68962 0.98312 0.02829 0.0
C1217 C 0.70706 0.92124 0.08449 0.0
C1218 C 0.74532 0.06683 0.95772 0.0
C1219 C 0.73273 0.04242 0.97336 0.0
C1220 C 0.76276 0.01302 1.01626 0.0
C1221 C 0.69752 0.94429 0.05386 0.0
C1222 C 0.71217 0.97175 0.03761 0.0
C1223 C 0.75398 0.05018 0.99025 0.0
C1224 C 0.73999 0.0239 1.00686 0.0
H1225 H 0.61836 0.86823 0.06933 0.0
H1226 H 0.64199 0.91196 0.0424 0.0
H1227 H 0.76719 0.97873 0.03778 0.0
H1228 H 0.82716 0.13304 0.97645 0.0
H1229 H 0.80533 0.08984 1.0039 0.0
C1230 C 0.7486 0.68374 0.5841 0.0
C1231 C 0.78357 0.68685 0.58491 0.0
C1232 C 0.73812 0.69673 0.56813 0.0
C1233 C 0.77081 0.76209 0.52823 0.0
H1234 H 0.67672 0.69384 0.50483 0.0
C1235 C 0.6912 0.8036 0.47328 0.0
C1236 C 0.67716 0.78076 0.45691 0.0
C1237 C 0.70722 0.79408 0.48844 0.0
C1238 C 0.7031 0.71321 0.51115 0.0
H1239 H 0.83541 0.70695 0.56984 0.0
H1240 H 0.81715 0.73055 0.54177 0.0
H1241 H 0.69956 0.67365 0.53196 0.0
H1242 H 0.66917 0.73037 0.44346 0.0
H1243 H 0.69632 0.71353 0.46993 0.0
H1244 H 0.77381 0.80191 0.50754 0.0
C1245 C 0.79787 0.71766 0.55357 0.0
C1246 C 0.7161 0.70169 0.52673 0.0
C1247 C 0.80824 0.70403 0.56952 0.0
C1248 C 0.67962 0.74847 0.45593 0.0
C1249 C 0.69512 0.73877 0.4711 0.0
C1250 C 0.75745 0.77387 0.51278 0.0
C1251 C 0.76247 0.71367 0.55264 0.0
C1252 C 0.75003 0.72596 0.53548 0.0
C1253 C 0.7089 0.76129 0.48758 0.0
C1254 C 0.72344 0.74948 0.50407 0.0
H1255 H 0.72897 0.67073 0.59574 0.0
H1256 H 0.71084 0.6936 0.56792 0.0
H1257 H 0.79695 0.78143 0.53479 0.0
H1258 H 0.6898 0.82872 0.47437 0.0
H1259 H 0.71745 0.81186 0.50103 0.0
C1260 C 0.9262 0.689 0.959 0.0
C1261 C 0.89329 0.69028 0.95894 0.0
C1262 C 0.95097 0.7037 0.97438 0.0
C1263 C 0.98262 0.71149 1.01467 0.0
H1264 H 0.01873 0.8099 0.03551 0.0
C1265 C 0.06673 0.75813 0.08483 0.0
C1266 C 0.09997 0.79204 0.08455 0.0
C1267 C 0.04123 0.74826 0.06983 0.0
C1268 C 0.00894 0.78242 0.02977 0.0
H1269 H 0.86102 0.70892 0.97481 0.0
H1270 H 0.90496 0.73523 1.00193 0.0
H1271 H 0.97383 0.78766 1.0088 0.0
H1272 H 0.13208 0.84269 0.06849 0.0
H1273 H 0.08696 0.82537 0.042 0.0
H1274 H 0.01726 0.70589 0.03549 0.0
C1275 C 0.91128 0.7226 0.98995 0.0
C1276 C 0.98302 0.76958 1.01463 0.0
C1277 C 0.88607 0.70738 0.97453 0.0
C1278 C 0.10677 0.81633 0.06904 0.0
C1279 C 0.08088 0.80652 0.05398 0.0
C1280 C 0.00796 0.72404 0.02988 0.0
C1281 C 0.94379 0.72043 0.99012 0.0
C1282 C 0.9698 0.73403 1.00683 0.0
C1283 C 0.04806 0.77205 0.0541 0.0
C1284 C 0.02154 0.75965 0.03761 0.0
H1285 H 0.9327 0.6761 0.94722 0.0
H1286 H 0.9759 0.70193 0.97395 0.0
H1287 H 0.97284 0.6839 1.00907 0.0
H1288 H 0.0605 0.7388 0.0966 0.0
H1289 H 0.01607 0.72176 0.0705 0.0
C1290 C 0.22959 0.92725 0.45727 0.0
C1291 C 0.19656 0.89316 0.45733 0.0
C1292 C 0.2382 0.95249 0.47236 0.0
C1293 C 0.21738 0.95916 0.52377 0.0
H1294 H 0.27347 0.06421 0.51306 0.0
C1295 C 0.30085 0.06513 0.58313 0.0
C1296 C 0.30421 0.10031 0.58285 0.0
C1297 C 0.28353 0.04014 0.568 0.0
C1298 C 0.2574 0.03505 0.51638 0.0
H1299 H 0.14652 0.85881 0.47336 0.0
H1300 H 0.16143 0.90318 0.49995 0.0
H1301 H 0.24951 0.02035 0.48638 0.0
H1302 H 0.292 0.13692 0.56641 0.0
H1303 H 0.26135 0.09307 0.53982 0.0
H1304 H 0.22484 0.9739 0.55378 0.0
C1305 C 0.18085 0.91026 0.48818 0.0
C1306 C 0.24402 0.00975 0.50102 0.0
C1307 C 0.17219 0.88485 0.47294 0.0
C1308 C 0.28992 0.11004 0.56698 0.0
C1309 C 0.27244 0.08489 0.55175 0.0
C1310 C 0.23061 0.98447 0.53914 0.0
C1311 C 0.21406 0.94448 0.48808 0.0
C1312 C 0.22457 0.9714 0.50448 0.0
C1313 C 0.26898 0.04952 0.55206 0.0
C1314 C 0.25157 0.02278 0.53568 0.0
H1315 H 0.24915 0.93445 0.44553 0.0
H1316 H 0.26434 0.97802 0.47188 0.0
H1317 H 0.20267 0.92994 0.52707 0.0
H1318 H 0.31179 0.05684 0.59509 0.0
H1319 H 0.28225 0.01363 0.56866 0.0
loop_
_geom_bond_atom_site_label_1
_geom_bond_atom_site_label_2
_geom_bond_distance
_geom_bond_site_symmetry_2
_ccdc_geom_bond_type
Dy0 O4 2.398 . S
Dy0 O5 2.491 . S
Dy0 O6 2.403 . S
Dy0 O7 2.664 . S
Dy0 O11 2.326 . S
Dy0 O15 2.310 . S
Dy0 O16 2.351 . S
C1 O12 1.185 . S
C1 O13 1.355 . S
C2 O4 1.185 . S
C2 O5 1.355 . S
Dy3 O7 2.310 . S
Dy3 O10 2.351 . S
Dy3 O12 2.398 . S
Dy3 O13 2.491 . S
Dy3 O14 2.403 . S
Dy3 O15 2.664 . S
Dy3 O17 2.326 . S
O4 Dy0 2.398 . S
O4 C2 1.185 . S
O5 Dy0 2.491 . S
O5 C2 1.355 . S
O6 Dy0 2.403 . S
O6 C8 1.254 . S
O7 Dy0 2.664 . S
O7 Dy3 2.310 . S
O7 C8 1.268 . S
C8 O6 1.254 . S
C8 O7 1.268 . S
C9 O14 1.254 . S
C9 O15 1.268 . S
O10 Dy3 2.351 . S
O10 C18 1.249 . S
O11 Dy0 2.326 . S
O11 C18 1.267 . S
O12 C1 1.185 . S
O12 Dy3 2.398 . S
O13 C1 1.355 . S
O13 Dy3 2.491 . S
O14 Dy3 2.403 . S
O14 C9 1.254 . S
O15 Dy0 2.310 . S
O15 Dy3 2.664 . S
O15 C9 1.268 . S
O16 Dy0 2.351 . S
O16 C19 1.249 . S
O17 Dy3 2.326 . S
O17 C19 1.267 . S
C18 O10 1.249 . S
C18 O11 1.267 . S
C19 O16 1.249 . S
C19 O17 1.267 . S
Dy20 O24 2.398 . S
Dy20 O25 2.491 . S
Dy20 O26 2.403 . S
Dy20 O27 2.664 . S
Dy20 O31 2.326 . S
Dy20 O35 2.310 . S
Dy20 O36 2.351 . S
C21 O32 1.185 . S
C21 O33 1.355 . S
C22 O24 1.185 . S
C22 O25 1.355 . S
Dy23 O27 2.310 . S
Dy23 O30 2.351 . S
Dy23 O32 2.398 . S
Dy23 O33 2.491 . S
Dy23 O34 2.403 . S
Dy23 O35 2.664 . S
Dy23 O37 2.326 . S
O24 Dy20 2.398 . S
O24 C22 1.185 . S
O25 Dy20 2.491 . S
O25 C22 1.355 . S
O26 Dy20 2.403 . S
O26 C28 1.254 . S
O27 Dy20 2.664 . S
O27 Dy23 2.310 . S
O27 C28 1.268 . S
C28 O26 1.254 . S
C28 O27 1.268 . S
C29 O34 1.254 . S
C29 O35 1.268 . S
O30 Dy23 2.351 . S
O30 C38 1.249 . S
O31 Dy20 2.326 . S
O31 C38 1.267 . S
O32 C21 1.185 . S
O32 Dy23 2.398 . S
O33 C21 1.355 . S
O33 Dy23 2.491 . S
O34 Dy23 2.403 . S
O34 C29 1.254 . S
O35 Dy20 2.310 . S
O35 Dy23 2.664 . S
O35 C29 1.268 . S
O36 Dy20 2.351 . S
O36 C39 1.249 . S
O37 Dy23 2.326 . S
O37 C39 1.267 . S
C38 O30 1.249 . S
C38 O31 1.267 . S
C39 O36 1.249 . S
C39 O37 1.267 . S
Dy40 O44 2.398 . S
Dy40 O45 2.491 . S
Dy40 O46 2.403 . S
Dy40 O47 2.664 . S
Dy40 O51 2.326 . S
Dy40 O55 2.310 . S
Dy40 O56 2.351 . S
C41 O52 1.185 . S
C41 O53 1.355 . S
C42 O44 1.185 . S
C42 O45 1.355 . S
Dy43 O47 2.310 . S
Dy43 O50 2.351 . S
Dy43 O52 2.398 . S
Dy43 O53 2.491 . S
Dy43 O54 2.403 . S
Dy43 O55 2.664 . S
Dy43 O57 2.326 . S
O44 Dy40 2.398 . S
O44 C42 1.185 . S
O45 Dy40 2.491 . S
O45 C42 1.355 . S
O46 Dy40 2.403 . S
O46 C48 1.254 . S
O47 Dy40 2.664 . S
O47 Dy43 2.310 . S
O47 C48 1.268 . S
C48 O46 1.254 . S
C48 O47 1.268 . S
C49 O54 1.254 . S
C49 O55 1.268 . S
O50 Dy43 2.351 . S
O50 C58 1.249 . S
O51 Dy40 2.326 . S
O51 C58 1.267 . S
O52 C41 1.185 . S
O52 Dy43 2.398 . S
O53 C41 1.355 . S
O53 Dy43 2.491 . S
O54 Dy43 2.403 . S
O54 C49 1.254 . S
O55 Dy40 2.310 . S
O55 Dy43 2.664 . S
O55 C49 1.268 . S
O56 Dy40 2.351 . S
O56 C59 1.249 . S
O57 Dy43 2.326 . S
O57 C59 1.267 . S
C58 O50 1.249 . S
C58 O51 1.267 . S
C59 O56 1.249 . S
C59 O57 1.267 . S
Dy60 O64 2.398 . S
Dy60 O65 2.491 . S
Dy60 O66 2.403 . S
Dy60 O67 2.664 . S
Dy60 O71 2.326 . S
Dy60 O75 2.310 . S
Dy60 O76 2.351 . S
C61 O72 1.185 . S
C61 O73 1.355 . S
C62 O64 1.185 . S
C62 O65 1.355 . S
Dy63 O67 2.310 . S
Dy63 O70 2.351 . S
Dy63 O72 2.398 . S
Dy63 O73 2.491 . S
Dy63 O74 2.403 . S
Dy63 O75 2.664 . S
Dy63 O77 2.326 . S
O64 Dy60 2.398 . S
O64 C62 1.185 . S
O65 Dy60 2.491 . S
O65 C62 1.355 . S
O66 Dy60 2.403 . S
O66 C68 1.254 . S
O67 Dy60 2.664 . S
O67 Dy63 2.310 . S
O67 C68 1.268 . S
C68 O66 1.254 . S
C68 O67 1.268 . S
C69 O74 1.254 . S
C69 O75 1.268 . S
O70 Dy63 2.351 . S
O70 C78 1.249 . S
O71 Dy60 2.326 . S
O71 C78 1.267 . S
O72 C61 1.185 . S
O72 Dy63 2.398 . S
O73 C61 1.355 . S
O73 Dy63 2.491 . S
O74 Dy63 2.403 . S
O74 C69 1.254 . S
O75 Dy60 2.310 . S
O75 Dy63 2.664 . S
O75 C69 1.268 . S
O76 Dy60 2.351 . S
O76 C79 1.249 . S
O77 Dy63 2.326 . S
O77 C79 1.267 . S
C78 O70 1.249 . S
C78 O71 1.267 . S
C79 O76 1.249 . S
C79 O77 1.267 . S
Dy80 O84 2.398 . S
Dy80 O85 2.491 . S
Dy80 O86 2.403 . S
Dy80 O87 2.664 . S
Dy80 O91 2.326 . S
Dy80 O95 2.310 . S
Dy80 O96 2.351 . S
C81 O92 1.185 . S
C81 O93 1.355 . S
C82 O84 1.185 . S
C82 O85 1.355 . S
Dy83 O87 2.310 . S
Dy83 O90 2.351 . S
Dy83 O92 2.398 . S
Dy83 O93 2.491 . S
Dy83 O94 2.403 . S
Dy83 O95 2.664 . S
Dy83 O97 2.326 . S
O84 Dy80 2.398 . S
O84 C82 1.185 . S
O85 Dy80 2.491 . S
O85 C82 1.355 . S
O86 Dy80 2.403 . S
O86 C88 1.254 . S
O87 Dy80 2.664 . S
O87 Dy83 2.310 . S
O87 C88 1.268 . S
C88 O86 1.254 . S
C88 O87 1.268 . S
C89 O94 1.254 . S
C89 O95 1.268 . S
O90 Dy83 2.351 . S
O90 C98 1.249 . S
O91 Dy80 2.326 . S
O91 C98 1.267 . S
O92 C81 1.185 . S
O92 Dy83 2.398 . S
O93 C81 1.355 . S
O93 Dy83 2.491 . S
O94 Dy83 2.403 . S
O94 C89 1.254 . S
O95 Dy80 2.310 . S
O95 Dy83 2.664 . S
O95 C89 1.268 . S
O96 Dy80 2.351 . S
O96 C99 1.249 . S
O97 Dy83 2.326 . S
O97 C99 1.267 . S
C98 O90 1.249 . S
C98 O91 1.267 . S
C99 O96 1.249 . S
C99 O97 1.267 . S
Dy100 O104 2.398 . S
Dy100 O105 2.491 . S
Dy100 O106 2.403 . S
Dy100 O107 2.664 . S
Dy100 O111 2.326 . S
Dy100 O115 2.310 . S
Dy100 O116 2.351 . S
C101 O112 1.185 . S
C101 O113 1.355 . S
C102 O104 1.185 . S
C102 O105 1.355 . S
Dy103 O107 2.310 . S
Dy103 O110 2.351 . S
Dy103 O112 2.398 . S
Dy103 O113 2.491 . S
Dy103 O114 2.403 . S
Dy103 O115 2.664 . S
Dy103 O117 2.326 . S
O104 Dy100 2.398 . S
O104 C102 1.185 . S
O105 Dy100 2.491 . S
O105 C102 1.355 . S
O106 Dy100 2.403 . S
O106 C108 1.254 . S
O107 Dy100 2.664 . S
O107 Dy103 2.310 . S
O107 C108 1.268 . S
C108 O106 1.254 . S
C108 O107 1.268 . S
C109 O114 1.254 . S
C109 O115 1.268 . S
O110 Dy103 2.351 . S
O110 C118 1.249 . S
O111 Dy100 2.326 . S
O111 C118 1.267 . S
O112 C101 1.185 . S
O112 Dy103 2.398 . S
O113 C101 1.355 . S
O113 Dy103 2.491 . S
O114 Dy103 2.403 . S
O114 C109 1.254 . S
O115 Dy100 2.310 . S
O115 Dy103 2.664 . S
O115 C109 1.268 . S
O116 Dy100 2.351 . S
O116 C119 1.249 . S
O117 Dy103 2.326 . S
O117 C119 1.267 . S
C118 O110 1.249 . S
C118 O111 1.267 . S
C119 O116 1.249 . S
C119 O117 1.267 . S
Dy120 O124 2.398 . S
Dy120 O125 2.491 . S
Dy120 O126 2.403 . S
Dy120 O127 2.664 . S
Dy120 O131 2.326 . S
Dy120 O135 2.310 . S
Dy120 O136 2.351 . S
C121 O132 1.185 . S
C121 O133 1.355 . S
C122 O124 1.185 . S
C122 O125 1.355 . S
Dy123 O127 2.310 . S
Dy123 O130 2.351 . S
Dy123 O132 2.398 . S
Dy123 O133 2.491 . S
Dy123 O134 2.403 . S
Dy123 O135 2.664 . S
Dy123 O137 2.326 . S
O124 Dy120 2.398 . S
O124 C122 1.185 . S
O125 Dy120 2.491 . S
O125 C122 1.355 . S
O126 Dy120 2.403 . S
O126 C128 1.254 . S
O127 Dy120 2.664 . S
O127 Dy123 2.310 . S
O127 C128 1.268 . S
C128 O126 1.254 . S
C128 O127 1.268 . S
C129 O134 1.254 . S
C129 O135 1.268 . S
O130 Dy123 2.351 . S
O130 C138 1.249 . S
O131 Dy120 2.326 . S
O131 C138 1.267 . S
O132 C121 1.185 . S
O132 Dy123 2.398 . S
O133 C121 1.355 . S
O133 Dy123 2.491 . S
O134 Dy123 2.403 . S
O134 C129 1.254 . S
O135 Dy120 2.310 . S
O135 Dy123 2.664 . S
O135 C129 1.268 . S
O136 Dy120 2.351 . S
O136 C139 1.249 . S
O137 Dy123 2.326 . S
O137 C139 1.267 . S
C138 O130 1.249 . S
C138 O131 1.267 . S
C139 O136 1.249 . S
C139 O137 1.267 . S
Dy140 O144 2.398 . S
Dy140 O145 2.491 . S
Dy140 O146 2.403 . S
Dy140 O147 2.664 . S
Dy140 O151 2.326 . S
Dy140 O155 2.310 . S
Dy140 O156 2.351 . S
C141 O152 1.185 . S
C141 O153 1.355 . S
C142 O144 1.185 . S
C142 O145 1.355 . S
Dy143 O147 2.310 . S
Dy143 O150 2.351 . S
Dy143 O152 2.398 . S
Dy143 O153 2.491 . S
Dy143 O154 2.403 . S
Dy143 O155 2.664 . S
Dy143 O157 2.326 . S
O144 Dy140 2.398 . S
O144 C142 1.185 . S
O145 Dy140 2.491 . S
O145 C142 1.355 . S
O146 Dy140 2.403 . S
O146 C148 1.254 . S
O147 Dy140 2.664 . S
O147 Dy143 2.310 . S
O147 C148 1.268 . S
C148 O146 1.254 . S
C148 O147 1.268 . S
C149 O154 1.254 . S
C149 O155 1.268 . S
O150 Dy143 2.351 . S
O150 C158 1.249 . S
O151 Dy140 2.326 . S
O151 C158 1.267 . S
O152 C141 1.185 . S
O152 Dy143 2.398 . S
O153 C141 1.355 . S
O153 Dy143 2.491 . S
O154 Dy143 2.403 . S
O154 C149 1.254 . S
O155 Dy140 2.310 . S
O155 Dy143 2.664 . S
O155 C149 1.268 . S
O156 Dy140 2.351 . S
O156 C159 1.249 . S
O157 Dy143 2.326 . S
O157 C159 1.267 . S
C158 O150 1.249 . S
C158 O151 1.267 . S
C159 O156 1.249 . S
C159 O157 1.267 . S
Dy160 O164 2.398 . S
Dy160 O165 2.491 . S
Dy160 O166 2.403 . S
Dy160 O167 2.664 . S
Dy160 O171 2.326 . S
Dy160 O175 2.310 . S
Dy160 O176 2.351 . S
C161 O172 1.185 . S
C161 O173 1.355 . S
C162 O164 1.185 . S
C162 O165 1.355 . S
Dy163 O167 2.310 . S
Dy163 O170 2.351 . S
Dy163 O172 2.398 . S
Dy163 O173 2.491 . S
Dy163 O174 2.403 . S
Dy163 O175 2.664 . S
Dy163 O177 2.326 . S
O164 Dy160 2.398 . S
O164 C162 1.185 . S
O165 Dy160 2.491 . S
O165 C162 1.355 . S
O166 Dy160 2.403 . S
O166 C168 1.254 . S
O167 Dy160 2.664 . S
O167 Dy163 2.310 . S
O167 C168 1.268 . S
C168 O166 1.254 . S
C168 O167 1.268 . S
C169 O174 1.254 . S
C169 O175 1.268 . S
O170 Dy163 2.351 . S
O170 C178 1.249 . S
O171 Dy160 2.326 . S
O171 C178 1.267 . S
O172 C161 1.185 . S
O172 Dy163 2.398 . S
O173 C161 1.355 . S
O173 Dy163 2.491 . S
O174 Dy163 2.403 . S
O174 C169 1.254 . S
O175 Dy160 2.310 . S
O175 Dy163 2.664 . S
O175 C169 1.268 . S
O176 Dy160 2.351 . S
O176 C179 1.249 . S
O177 Dy163 2.326 . S
O177 C179 1.267 . S
C178 O170 1.249 . S
C178 O171 1.267 . S
C179 O176 1.249 . S
C179 O177 1.267 . S
Dy180 O184 2.398 . S
Dy180 O185 2.491 . S
Dy180 O186 2.403 . S
Dy180 O187 2.664 . S
Dy180 O191 2.326 . S
Dy180 O195 2.310 . S
Dy180 O196 2.351 . S
C181 O192 1.185 . S
C181 O193 1.355 . S
C182 O184 1.185 . S
C182 O185 1.355 . S
Dy183 O187 2.310 . S
Dy183 O190 2.351 . S
Dy183 O192 2.398 . S
Dy183 O193 2.491 . S
Dy183 O194 2.403 . S
Dy183 O195 2.664 . S
Dy183 O197 2.326 . S
O184 Dy180 2.398 . S
O184 C182 1.185 . S
O185 Dy180 2.491 . S
O185 C182 1.355 . S
O186 Dy180 2.403 . S
O186 C188 1.254 . S
O187 Dy180 2.664 . S
O187 Dy183 2.310 . S
O187 C188 1.268 . S
C188 O186 1.254 . S
C188 O187 1.268 . S
C189 O194 1.254 . S
C189 O195 1.268 . S
O190 Dy183 2.351 . S
O190 C198 1.249 . S
O191 Dy180 2.326 . S
O191 C198 1.267 . S
O192 C181 1.185 . S
O192 Dy183 2.398 . S
O193 C181 1.355 . S
O193 Dy183 2.491 . S
O194 Dy183 2.403 . S
O194 C189 1.254 . S
O195 Dy180 2.310 . S
O195 Dy183 2.664 . S
O195 C189 1.268 . S
O196 Dy180 2.351 . S
O196 C199 1.249 . S
O197 Dy183 2.326 . S
O197 C199 1.267 . S
C198 O190 1.249 . S
C198 O191 1.267 . S
C199 O196 1.249 . S
C199 O197 1.267 . S
Dy200 O204 2.398 . S
Dy200 O205 2.491 . S
Dy200 O206 2.403 . S
Dy200 O207 2.664 . S
Dy200 O211 2.326 . S
Dy200 O215 2.310 . S
Dy200 O216 2.351 . S
C201 O212 1.185 . S
C201 O213 1.355 . S
C202 O204 1.185 . S
C202 O205 1.355 . S
Dy203 O207 2.310 . S
Dy203 O210 2.351 . S
Dy203 O212 2.398 . S
Dy203 O213 2.491 . S
Dy203 O214 2.403 . S
Dy203 O215 2.664 . S
Dy203 O217 2.326 . S
O204 Dy200 2.398 . S
O204 C202 1.185 . S
O205 Dy200 2.491 . S
O205 C202 1.355 . S
O206 Dy200 2.403 . S
O206 C208 1.254 . S
O207 Dy200 2.664 . S
O207 Dy203 2.310 . S
O207 C208 1.268 . S
C208 O206 1.254 . S
C208 O207 1.268 . S
C209 O214 1.254 . S
C209 O215 1.268 . S
O210 Dy203 2.351 . S
O210 C218 1.249 . S
O211 Dy200 2.326 . S
O211 C218 1.267 . S
O212 C201 1.185 . S
O212 Dy203 2.398 . S
O213 C201 1.355 . S
O213 Dy203 2.491 . S
O214 Dy203 2.403 . S
O214 C209 1.254 . S
O215 Dy200 2.310 . S
O215 Dy203 2.664 . S
O215 C209 1.268 . S
O216 Dy200 2.351 . S
O216 C219 1.249 . S
O217 Dy203 2.326 . S
O217 C219 1.267 . S
C218 O210 1.249 . S
C218 O211 1.267 . S
C219 O216 1.249 . S
C219 O217 1.267 . S
Dy220 O224 2.398 . S
Dy220 O225 2.491 . S
Dy220 O226 2.403 . S
Dy220 O227 2.664 . S
Dy220 O231 2.326 . S
Dy220 O235 2.310 . S
Dy220 O236 2.351 . S
C221 O232 1.185 . S
C221 O233 1.355 . S
C222 O224 1.185 . S
C222 O225 1.355 . S
Dy223 O227 2.310 . S
Dy223 O230 2.351 . S
Dy223 O232 2.398 . S
Dy223 O233 2.491 . S
Dy223 O234 2.403 . S
Dy223 O235 2.664 . S
Dy223 O237 2.326 . S
O224 Dy220 2.398 . S
O224 C222 1.185 . S
O225 Dy220 2.491 . S
O225 C222 1.355 . S
O226 Dy220 2.403 . S
O226 C228 1.254 . S
O227 Dy220 2.664 . S
O227 Dy223 2.310 . S
O227 C228 1.268 . S
C228 O226 1.254 . S
C228 O227 1.268 . S
C229 O234 1.254 . S
C229 O235 1.268 . S
O230 Dy223 2.351 . S
O230 C238 1.249 . S
O231 Dy220 2.326 . S
O231 C238 1.267 . S
O232 C221 1.185 . S
O232 Dy223 2.398 . S
O233 C221 1.355 . S
O233 Dy223 2.491 . S
O234 Dy223 2.403 . S
O234 C229 1.254 . S
O235 Dy220 2.310 . S
O235 Dy223 2.664 . S
O235 C229 1.268 . S
O236 Dy220 2.351 . S
O236 C239 1.249 . S
O237 Dy223 2.326 . S
O237 C239 1.267 . S
C238 O230 1.249 . S
C238 O231 1.267 . S
C239 O236 1.249 . S
C239 O237 1.267 . S
C240 C241 1.349 . S
C240 C242 1.327 . S
C240 H265 0.950 . S
C241 C240 1.349 . S
C241 C257 1.349 . S
C242 C240 1.327 . S
C242 C261 1.429 . S
C242 H266 0.950 . S
C243 C260 1.574 . S
C243 C262 1.368 . S
C243 H267 0.949 . S
H244 C248 0.949 . S
C245 C246 1.349 . S
C245 C247 1.327 . S
C245 H268 0.950 . S
C246 C245 1.349 . S
C246 C258 1.349 . S
C247 C245 1.327 . S
C247 C263 1.429 . S
C247 H269 0.950 . S
C248 H244 0.949 . S
C248 C256 1.574 . S
C248 C264 1.368 . S
H249 C257 0.950 . S
H250 C255 0.950 . S
H251 C256 0.949 . S
H252 C258 0.950 . S
H253 C259 0.950 . S
H254 C260 0.949 . S
C255 H250 0.950 . S
C255 C257 1.327 . S
C255 C261 1.429 . S
C256 C248 1.574 . S
C256 H251 0.949 . S
C256 C262 1.368 . S
C257 C241 1.349 . S
C257 H249 0.950 . S
C257 C255 1.327 . S
C258 C246 1.349 . S
C258 H252 0.950 . S
C258 C259 1.327 . S
C259 H253 0.950 . S
C259 C258 1.327 . S
C259 C263 1.429 . S
C260 C243 1.574 . S
C260 H254 0.949 . S
C260 C264 1.368 . S
C261 C242 1.429 . S
C261 C255 1.429 . S
C261 C262 1.523 1_565 S
C262 C243 1.368 . S
C262 C256 1.368 . S
C262 C261 1.523 1_545 S
C263 C247 1.429 . S
C263 C259 1.429 . S
C263 C264 1.523 . S
C264 C248 1.368 . S
C264 C260 1.368 . S
C264 C263 1.523 . S
H265 C240 0.950 . S
H266 C242 0.950 . S
H267 C243 0.949 . S
H268 C245 0.950 . S
H269 C247 0.950 . S
C270 C271 1.349 . S
C270 C272 1.327 . S
C270 H295 0.950 . S
C271 C270 1.349 . S
C271 C287 1.349 . S
C272 C270 1.327 . S
C272 C291 1.429 . S
C272 H296 0.950 . S
C273 C290 1.574 . S
C273 C292 1.368 . S
C273 H297 0.949 . S
H274 C278 0.949 . S
C275 C276 1.349 1_455 S
C275 C277 1.327 . S
C275 H298 0.950 . S
C276 C275 1.349 1_655 S
C276 C288 1.349 . S
C277 C275 1.327 . S
C277 C293 1.429 . S
C277 H299 0.950 . S
C278 H274 0.949 . S
C278 C286 1.574 . S
C278 C294 1.368 . S
H279 C287 0.950 . S
H280 C285 0.950 . S
H281 C286 0.949 . S
H282 C288 0.950 . S
H283 C289 0.950 . S
H284 C290 0.949 . S
C285 H280 0.950 . S
C285 C287 1.327 . S
C285 C291 1.429 . S
C286 C278 1.574 . S
C286 H281 0.949 . S
C286 C292 1.368 . S
C287 C271 1.349 . S
C287 H279 0.950 . S
C287 C285 1.327 . S
C288 C276 1.349 . S
C288 H282 0.950 . S
C288 C289 1.327 1_655 S
C289 H283 0.950 . S
C289 C288 1.327 1_455 S
C289 C293 1.429 . S
C290 C273 1.574 . S
C290 H284 0.949 . S
C290 C294 1.368 . S
C291 C272 1.429 . S
C291 C285 1.429 . S
C291 C292 1.523 . S
C292 C273 1.368 . S
C292 C286 1.368 . S
C292 C291 1.523 . S
C293 C277 1.429 . S
C293 C289 1.429 . S
C293 C294 1.523 . S
C294 C278 1.368 . S
C294 C290 1.368 . S
C294 C293 1.523 . S
H295 C270 0.950 . S
H296 C272 0.950 . S
H297 C273 0.949 . S
H298 C275 0.950 . S
H299 C277 0.950 . S
C300 C301 1.349 1_545 S
C300 C302 1.327 . S
C300 H325 0.950 . S
C301 C300 1.349 1_565 S
C301 C317 1.349 1_565 S
C302 C300 1.327 . S
C302 C321 1.429 . S
C302 H326 0.950 . S
C303 C320 1.574 . S
C303 C322 1.368 . S
C303 H327 0.949 . S
H304 C308 0.949 . S
C305 C306 1.349 . S
C305 C307 1.327 . S
C305 H328 0.950 . S
C306 C305 1.349 . S
C306 C318 1.349 . S
C307 C305 1.327 . S
C307 C323 1.429 . S
C307 H329 0.950 . S
C308 H304 0.949 . S
C308 C316 1.574 . S
C308 C324 1.368 . S
H309 C317 0.950 1_565 S
H310 C315 0.950 . S
H311 C316 0.949 . S
H312 C318 0.950 . S
H313 C319 0.950 . S
H314 C320 0.949 . S
C315 H310 0.950 . S
C315 C317 1.327 . S
C315 C321 1.429 . S
C316 C308 1.574 . S
C316 H311 0.949 . S
C316 C322 1.368 . S
C317 C301 1.349 1_545 S
C317 H309 0.950 1_545 S
C317 C315 1.327 . S
C318 C306 1.349 . S
C318 H312 0.950 . S
C318 C319 1.327 . S
C319 H313 0.950 . S
C319 C318 1.327 . S
C319 C323 1.429 . S
C320 C303 1.574 . S
C320 H314 0.949 . S
C320 C324 1.368 . S
C321 C302 1.429 . S
C321 C315 1.429 . S
C321 C322 1.523 . S
C322 C303 1.368 . S
C322 C316 1.368 . S
C322 C321 1.523 . S
C323 C307 1.429 . S
C323 C319 1.429 . S
C323 C324 1.523 1_455 S
C324 C308 1.368 . S
C324 C320 1.368 . S
C324 C323 1.523 1_655 S
H325 C300 0.950 . S
H326 C302 0.950 . S
H327 C303 0.949 . S
H328 C305 0.950 . S
H329 C307 0.950 . S
C330 C331 1.349 . S
C330 C332 1.327 . S
C330 H355 0.950 . S
C331 C330 1.349 . S
C331 C347 1.349 . S
C332 C330 1.327 . S
C332 C351 1.429 . S
C332 H356 0.950 . S
C333 C350 1.574 . S
C333 C352 1.368 . S
C333 H357 0.949 . S
H334 C338 0.949 . S
C335 C336 1.349 . S
C335 C337 1.327 . S
C335 H358 0.950 . S
C336 C335 1.349 . S
C336 C348 1.349 . S
C337 C335 1.327 . S
C337 C353 1.429 . S
C337 H359 0.950 . S
C338 H334 0.949 . S
C338 C346 1.574 . S
C338 C354 1.368 . S
H339 C347 0.950 . S
H340 C345 0.950 . S
H341 C346 0.949 . S
H342 C348 0.950 . S
H343 C349 0.950 . S
H344 C350 0.949 . S
C345 H340 0.950 . S
C345 C347 1.327 . S
C345 C351 1.429 . S
C346 C338 1.574 . S
C346 H341 0.949 . S
C346 C352 1.368 . S
C347 C331 1.349 . S
C347 H339 0.950 . S
C347 C345 1.327 . S
C348 C336 1.349 . S
C348 H342 0.950 . S
C348 C349 1.327 . S
C349 H343 0.950 . S
C349 C348 1.327 . S
C349 C353 1.429 . S
C350 C333 1.574 . S
C350 H344 0.949 . S
C350 C354 1.368 . S
C351 C332 1.429 . S
C351 C345 1.429 . S
C351 C352 1.523 . S
C352 C333 1.368 . S
C352 C346 1.368 . S
C352 C351 1.523 . S
C353 C337 1.429 . S
C353 C349 1.429 . S
C353 C354 1.523 1_545 S
C354 C338 1.368 . S
C354 C350 1.368 . S
C354 C353 1.523 1_565 S
H355 C330 0.950 . S
H356 C332 0.950 . S
H357 C333 0.949 . S
H358 C335 0.950 . S
H359 C337 0.950 . S
C360 C361 1.349 . S
C360 C362 1.327 1_455 S
C360 H385 0.950 . S
C361 C360 1.349 . S
C361 C377 1.349 1_455 S
C362 C360 1.327 1_655 S
C362 C381 1.429 . S
C362 H386 0.950 . S
C363 C380 1.574 . S
C363 C382 1.368 . S
C363 H387 0.949 . S
H364 C368 0.949 . S
C365 C366 1.349 . S
C365 C367 1.327 . S
C365 H388 0.950 . S
C366 C365 1.349 . S
C366 C378 1.349 . S
C367 C365 1.327 . S
C367 C383 1.429 . S
C367 H389 0.950 . S
C368 H364 0.949 . S
C368 C376 1.574 . S
C368 C384 1.368 . S
H369 C377 0.950 . S
H370 C375 0.950 . S
H371 C376 0.949 . S
H372 C378 0.950 . S
H373 C379 0.950 . S
H374 C380 0.949 . S
C375 H370 0.950 . S
C375 C377 1.327 . S
C375 C381 1.429 . S
C376 C368 1.574 . S
C376 H371 0.949 . S
C376 C382 1.368 . S
C377 C361 1.349 1_655 S
C377 H369 0.950 . S
C377 C375 1.327 . S
C378 C366 1.349 . S
C378 H372 0.950 . S
C378 C379 1.327 . S
C379 H373 0.950 . S
C379 C378 1.327 . S
C379 C383 1.429 . S
C380 C363 1.574 . S
C380 H374 0.949 . S
C380 C384 1.368 . S
C381 C362 1.429 . S
C381 C375 1.429 . S
C381 C382 1.523 . S
C382 C363 1.368 . S
C382 C376 1.368 . S
C382 C381 1.523 . S
C383 C367 1.429 . S
C383 C379 1.429 . S
C383 C384 1.523 . S
C384 C368 1.368 . S
C384 C380 1.368 . S
C384 C383 1.523 . S
H385 C360 0.950 . S
H386 C362 0.950 . S
H387 C363 0.949 . S
H388 C365 0.950 . S
H389 C367 0.950 . S
C390 C391 1.349 . S
C390 C392 1.327 . S
C390 H415 0.950 . S
C391 C390 1.349 . S
C391 C407 1.349 . S
C392 C390 1.327 . S
C392 C411 1.429 . S
C392 H416 0.950 . S
C393 C410 1.574 . S
C393 C412 1.368 . S
C393 H417 0.949 . S
H394 C398 0.949 . S
C395 C396 1.349 1_565 S
C395 C397 1.327 . S
C395 H418 0.950 . S
C396 C395 1.349 1_545 S
C396 C408 1.349 . S
C397 C395 1.327 . S
C397 C413 1.429 . S
C397 H419 0.950 . S
C398 H394 0.949 . S
C398 C406 1.574 . S
C398 C414 1.368 . S
H399 C407 0.950 . S
H400 C405 0.950 . S
H401 C406 0.949 . S
H402 C408 0.950 . S
H403 C409 0.950 . S
H404 C410 0.949 . S
C405 H400 0.950 . S
C405 C407 1.327 . S
C405 C411 1.429 . S
C406 C398 1.574 . S
C406 H401 0.949 . S
C406 C412 1.368 . S
C407 C391 1.349 . S
C407 H399 0.950 . S
C407 C405 1.327 . S
C408 C396 1.349 . S
C408 H402 0.950 . S
C408 C409 1.327 1_545 S
C409 H403 0.950 . S
C409 C408 1.327 1_565 S
C409 C413 1.429 . S
C410 C393 1.574 . S
C410 H404 0.949 . S
C410 C414 1.368 . S
C411 C392 1.429 . S
C411 C405 1.429 . S
C411 C412 1.523 1_655 S
C412 C393 1.368 . S
C412 C406 1.368 . S
C412 C411 1.523 1_455 S
C413 C397 1.429 . S
C413 C409 1.429 . S
C413 C414 1.523 . S
C414 C398 1.368 . S
C414 C410 1.368 . S
C414 C413 1.523 . S
H415 C390 0.950 . S
H416 C392 0.950 . S
H417 C393 0.949 . S
H418 C395 0.950 . S
H419 C397 0.950 . S
C420 C421 1.349 . S
C420 C422 1.327 . S
C420 H445 0.950 . S
C421 C420 1.349 . S
C421 C437 1.349 . S
C422 C420 1.327 . S
C422 C441 1.429 . S
C422 H446 0.950 . S
C423 C440 1.574 . S
C423 C442 1.368 . S
C423 H447 0.949 . S
H424 C428 0.949 . S
C425 C426 1.349 . S
C425 C427 1.327 . S
C425 H448 0.950 . S
C426 C425 1.349 . S
C426 C438 1.349 . S
C427 C425 1.327 . S
C427 C443 1.429 . S
C427 H449 0.950 . S
C428 H424 0.949 . S
C428 C436 1.574 . S
C428 C444 1.368 . S
H429 C437 0.950 . S
H430 C435 0.950 . S
H431 C436 0.949 . S
H432 C438 0.950 . S
H433 C439 0.950 . S
H434 C440 0.949 . S
C435 H430 0.950 . S
C435 C437 1.327 . S
C435 C441 1.429 . S
C436 C428 1.574 . S
C436 H431 0.949 . S
C436 C442 1.368 . S
C437 C421 1.349 . S
C437 H429 0.950 . S
C437 C435 1.327 . S
C438 C426 1.349 . S
C438 H432 0.950 . S
C438 C439 1.327 . S
C439 H433 0.950 . S
C439 C438 1.327 . S
C439 C443 1.429 . S
C440 C423 1.574 . S
C440 H434 0.949 . S
C440 C444 1.368 . S
C441 C422 1.429 . S
C441 C435 1.429 . S
C441 C442 1.523 1_455 S
C442 C423 1.368 . S
C442 C436 1.368 . S
C442 C441 1.523 1_655 S
C443 C427 1.429 . S
C443 C439 1.429 . S
C443 C444 1.523 . S
C444 C428 1.368 . S
C444 C440 1.368 . S
C444 C443 1.523 . S
H445 C420 0.950 . S
H446 C422 0.950 . S
H447 C423 0.949 . S
H448 C425 0.950 . S
H449 C427 0.950 . S
C450 C451 1.349 . S
C450 C452 1.327 1_655 S
C450 H475 0.951 . S
C451 C450 1.349 . S
C451 C467 1.349 1_655 S
C452 C450 1.327 1_455 S
C452 C471 1.429 . S
C452 H476 0.950 . S
C453 C470 1.574 . S
C453 C472 1.368 . S
C453 H477 0.949 . S
H454 C458 0.949 . S
C455 C456 1.349 . S
C455 C457 1.327 . S
C455 H478 0.950 . S
C456 C455 1.349 . S
C456 C468 1.349 . S
C457 C455 1.327 . S
C457 C473 1.429 . S
C457 H479 0.950 . S
C458 H454 0.949 . S
C458 C466 1.574 . S
C458 C474 1.368 . S
H459 C467 0.950 . S
H460 C465 0.950 . S
H461 C466 0.949 . S
H462 C468 0.950 . S
H463 C469 0.950 . S
H464 C470 0.949 . S
C465 H460 0.950 . S
C465 C467 1.327 . S
C465 C471 1.429 . S
C466 C458 1.574 . S
C466 H461 0.949 . S
C466 C472 1.368 . S
C467 C451 1.349 1_455 S
C467 H459 0.950 . S
C467 C465 1.327 . S
C468 C456 1.349 . S
C468 H462 0.950 . S
C468 C469 1.327 . S
C469 H463 0.950 . S
C469 C468 1.327 . S
C469 C473 1.429 . S
C470 C453 1.574 . S
C470 H464 0.949 . S
C470 C474 1.368 . S
C471 C452 1.429 . S
C471 C465 1.429 . S
C471 C472 1.523 . S
C472 C453 1.368 . S
C472 C466 1.368 . S
C472 C471 1.523 . S
C473 C457 1.429 . S
C473 C469 1.429 . S
C473 C474 1.523 1_545 S
C474 C458 1.368 . S
C474 C470 1.368 . S
C474 C473 1.523 1_565 S
H475 C450 0.951 . S
H476 C452 0.950 . S
H477 C453 0.949 . S
H478 C455 0.950 . S
H479 C457 0.950 . S
C480 C481 1.349 . S
C480 C482 1.327 . S
C480 H505 0.950 . S
C481 C480 1.349 . S
C481 C497 1.349 . S
C482 C480 1.327 . S
C482 C501 1.429 . S
C482 H506 0.950 . S
C483 C500 1.574 . S
C483 C502 1.368 . S
C483 H507 0.949 . S
H484 C488 0.949 . S
C485 C486 1.349 1_545 S
C485 C487 1.327 . S
C485 H508 0.950 1_545 S
C486 C485 1.349 1_565 S
C486 C498 1.349 1_565 S
C487 C485 1.327 . S
C487 C503 1.429 . S
C487 H509 0.950 . S
C488 H484 0.949 . S
C488 C496 1.574 . S
C488 C504 1.368 . S
H489 C497 0.950 . S
H490 C495 0.950 . S
H491 C496 0.949 . S
H492 C498 0.950 1_565 S
H493 C499 0.950 . S
H494 C500 0.949 . S
C495 H490 0.950 . S
C495 C497 1.327 . S
C495 C501 1.429 . S
C496 C488 1.574 . S
C496 H491 0.949 . S
C496 C502 1.368 . S
C497 C481 1.349 . S
C497 H489 0.950 . S
C497 C495 1.327 . S
C498 C486 1.349 1_545 S
C498 H492 0.950 1_545 S
C498 C499 1.327 . S
C499 H493 0.950 . S
C499 C498 1.327 . S
C499 C503 1.429 . S
C500 C483 1.574 . S
C500 H494 0.949 . S
C500 C504 1.368 . S
C501 C482 1.429 . S
C501 C495 1.429 . S
C501 C502 1.523 . S
C502 C483 1.368 . S
C502 C496 1.368 . S
C502 C501 1.523 . S
C503 C487 1.429 . S
C503 C499 1.429 . S
C503 C504 1.523 . S
C504 C488 1.368 . S
C504 C500 1.368 . S
C504 C503 1.523 . S
H505 C480 0.950 . S
H506 C482 0.950 . S
H507 C483 0.949 . S
H508 C485 0.950 1_565 S
H509 C487 0.950 . S
C510 C511 1.349 . S
C510 C512 1.327 . S
C510 H535 0.950 . S
C511 C510 1.349 . S
C511 C527 1.349 . S
C512 C510 1.327 . S
C512 C531 1.429 . S
C512 H536 0.950 . S
C513 C530 1.574 . S
C513 C532 1.368 . S
C513 H537 0.949 . S
H514 C518 0.949 . S
C515 C516 1.349 . S
C515 C517 1.327 . S
C515 H538 0.950 . S
C516 C515 1.349 . S
C516 C528 1.349 . S
C517 C515 1.327 . S
C517 C533 1.429 . S
C517 H539 0.950 . S
C518 H514 0.949 . S
C518 C526 1.574 . S
C518 C534 1.368 . S
H519 C527 0.950 . S
H520 C525 0.950 . S
H521 C526 0.949 . S
H522 C528 0.950 . S
H523 C529 0.950 . S
H524 C530 0.949 1_655 S
C525 H520 0.950 . S
C525 C527 1.327 . S
C525 C531 1.429 . S
C526 C518 1.574 . S
C526 H521 0.949 . S
C526 C532 1.368 . S
C527 C511 1.349 . S
C527 H519 0.950 . S
C527 C525 1.327 . S
C528 C516 1.349 . S
C528 H522 0.950 . S
C528 C529 1.327 . S
C529 H523 0.950 . S
C529 C528 1.327 . S
C529 C533 1.429 . S
C530 C513 1.574 . S
C530 H524 0.949 1_455 S
C530 C534 1.368 . S
C531 C512 1.429 . S
C531 C525 1.429 . S
C531 C532 1.523 . S
C532 C513 1.368 . S
C532 C526 1.368 . S
C532 C531 1.523 . S
C533 C517 1.429 . S
C533 C529 1.429 . S
C533 C534 1.523 1_655 S
C534 C518 1.368 . S
C534 C530 1.368 . S
C534 C533 1.523 1_455 S
H535 C510 0.950 . S
H536 C512 0.950 . S
H537 C513 0.949 . S
H538 C515 0.950 . S
H539 C517 0.950 . S
C540 C541 1.349 . S
C540 C542 1.327 1_455 S
C540 H565 0.950 . S
C541 C540 1.349 . S
C541 C557 1.349 1_455 S
C542 C540 1.327 1_655 S
C542 C561 1.429 . S
C542 H566 0.950 . S
C543 C560 1.574 . S
C543 C562 1.368 . S
C543 H567 0.949 . S
H544 C548 0.949 1_565 S
C545 C546 1.349 . S
C545 C547 1.327 . S
C545 H568 0.950 . S
C546 C545 1.349 . S
C546 C558 1.349 . S
C547 C545 1.327 . S
C547 C563 1.429 . S
C547 H569 0.950 . S
C548 H544 0.949 1_545 S
C548 C556 1.574 . S
C548 C564 1.368 . S
H549 C557 0.950 . S
H550 C555 0.950 . S
H551 C556 0.949 . S
H552 C558 0.950 . S
H553 C559 0.950 . S
H554 C560 0.949 . S
C555 H550 0.950 . S
C555 C557 1.327 . S
C555 C561 1.429 . S
C556 C548 1.574 . S
C556 H551 0.949 . S
C556 C562 1.368 . S
C557 C541 1.349 1_655 S
C557 H549 0.950 . S
C557 C555 1.327 . S
C558 C546 1.349 . S
C558 H552 0.950 . S
C558 C559 1.327 . S
C559 H553 0.950 . S
C559 C558 1.327 . S
C559 C563 1.429 . S
C560 C543 1.574 . S
C560 H554 0.949 . S
C560 C564 1.368 . S
C561 C542 1.429 . S
C561 C555 1.429 . S
C561 C562 1.523 . S
C562 C543 1.368 . S
C562 C556 1.368 . S
C562 C561 1.523 . S
C563 C547 1.429 . S
C563 C559 1.429 . S
C563 C564 1.523 1_565 S
C564 C548 1.368 . S
C564 C560 1.368 . S
C564 C563 1.523 1_545 S
H565 C540 0.950 . S
H566 C542 0.950 . S
H567 C543 0.949 . S
H568 C545 0.950 . S
H569 C547 0.950 . S
C570 C571 1.349 . S
C570 C572 1.327 . S
C570 H595 0.950 . S
C571 C570 1.349 . S
C571 C587 1.349 . S
C572 C570 1.327 . S
C572 C591 1.429 . S
C572 H596 0.950 . S
C573 C590 1.574 . S
C573 C592 1.368 . S
C573 H597 0.949 . S
H574 C578 0.949 . S
C575 C576 1.349 1_565 S
C575 C577 1.327 . S
C575 H598 0.950 . S
C576 C575 1.349 1_545 S
C576 C588 1.349 . S
C577 C575 1.327 . S
C577 C593 1.429 . S
C577 H599 0.950 . S
C578 H574 0.949 . S
C578 C586 1.574 . S
C578 C594 1.368 . S
H579 C587 0.950 . S
H580 C585 0.950 . S
H581 C586 0.949 . S
H582 C588 0.950 . S
H583 C589 0.950 . S
H584 C590 0.949 . S
C585 H580 0.950 . S
C585 C587 1.327 . S
C585 C591 1.429 . S
C586 C578 1.574 . S
C586 H581 0.949 . S
C586 C592 1.368 . S
C587 C571 1.349 . S
C587 H579 0.950 . S
C587 C585 1.327 . S
C588 C576 1.349 . S
C588 H582 0.950 . S
C588 C589 1.327 1_545 S
C589 H583 0.950 . S
C589 C588 1.327 1_565 S
C589 C593 1.429 . S
C590 C573 1.574 . S
C590 H584 0.949 . S
C590 C594 1.368 . S
C591 C572 1.429 . S
C591 C585 1.429 . S
C591 C592 1.523 . S
C592 C573 1.368 . S
C592 C586 1.368 . S
C592 C591 1.523 . S
C593 C577 1.429 . S
C593 C589 1.429 . S
C593 C594 1.523 . S
C594 C578 1.368 . S
C594 C590 1.368 . S
C594 C593 1.523 . S
H595 C570 0.950 . S
H596 C572 0.950 . S
H597 C573 0.949 . S
H598 C575 0.950 . S
H599 C577 0.950 . S
C600 C601 1.349 . S
C600 C602 1.327 . S
C600 H625 0.950 . S
C601 C600 1.349 . S
C601 C617 1.349 . S
C602 C600 1.327 . S
C602 C621 1.429 . S
C602 H626 0.950 . S
C603 C620 1.574 . S
C603 C622 1.368 . S
C603 H627 0.949 . S
H604 C608 0.949 . S
C605 C606 1.349 . S
C605 C607 1.327 . S
C605 H628 0.950 . S
C606 C605 1.349 . S
C606 C618 1.349 . S
C607 C605 1.327 . S
C607 C623 1.429 . S
C607 H629 0.950 . S
C608 H604 0.949 . S
C608 C616 1.574 . S
C608 C624 1.368 . S
H609 C617 0.950 . S
H610 C615 0.950 . S
H611 C616 0.949 . S
H612 C618 0.950 . S
H613 C619 0.950 . S
H614 C620 0.949 . S
C615 H610 0.950 . S
C615 C617 1.327 . S
C615 C621 1.429 . S
C616 C608 1.574 . S
C616 H611 0.949 . S
C616 C622 1.368 . S
C617 C601 1.349 . S
C617 H609 0.950 . S
C617 C615 1.327 . S
C618 C606 1.349 . S
C618 H612 0.950 . S
C618 C619 1.327 . S
C619 H613 0.950 . S
C619 C618 1.327 . S
C619 C623 1.429 . S
C620 C603 1.574 . S
C620 H614 0.949 . S
C620 C624 1.368 . S
C621 C602 1.429 . S
C621 C615 1.429 . S
C621 C622 1.523 . S
C622 C603 1.368 . S
C622 C616 1.368 . S
C622 C621 1.523 . S
C623 C607 1.429 . S
C623 C619 1.429 . S
C623 C624 1.523 . S
C624 C608 1.368 . S
C624 C620 1.368 . S
C624 C623 1.523 . S
H625 C600 0.950 . S
H626 C602 0.950 . S
H627 C603 0.949 . S
H628 C605 0.950 . S
H629 C607 0.950 . S
C630 C631 1.349 . S
C630 C632 1.327 . S
C630 H655 0.950 . S
C631 C630 1.349 . S
C631 C647 1.349 . S
C632 C630 1.327 . S
C632 C651 1.429 . S
C632 H656 0.950 . S
C633 C650 1.574 . S
C633 C652 1.368 . S
C633 H657 0.949 . S
H634 C638 0.949 . S
C635 C636 1.349 . S
C635 C637 1.327 . S
C635 H658 0.950 . S
C636 C635 1.349 . S
C636 C648 1.349 . S
C637 C635 1.327 . S
C637 C653 1.429 . S
C637 H659 0.950 . S
C638 H634 0.949 . S
C638 C646 1.574 . S
C638 C654 1.368 . S
H639 C647 0.950 . S
H640 C645 0.950 . S
H641 C646 0.949 . S
H642 C648 0.950 . S
H643 C649 0.950 . S
H644 C650 0.949 . S
C645 H640 0.950 . S
C645 C647 1.327 . S
C645 C651 1.429 . S
C646 C638 1.574 . S
C646 H641 0.949 . S
C646 C652 1.368 . S
C647 C631 1.349 . S
C647 H639 0.950 . S
C647 C645 1.327 . S
C648 C636 1.349 . S
C648 H642 0.950 . S
C648 C649 1.327 . S
C649 H643 0.950 . S
C649 C648 1.327 . S
C649 C653 1.429 . S
C650 C633 1.574 . S
C650 H644 0.949 . S
C650 C654 1.368 . S
C651 C632 1.429 . S
C651 C645 1.429 . S
C651 C652 1.523 . S
C652 C633 1.368 . S
C652 C646 1.368 . S
C652 C651 1.523 . S
C653 C637 1.429 . S
C653 C649 1.429 . S
C653 C654 1.523 . S
C654 C638 1.368 . S
C654 C650 1.368 . S
C654 C653 1.523 . S
H655 C630 0.950 . S
H656 C632 0.950 . S
H657 C633 0.949 . S
H658 C635 0.950 . S
H659 C637 0.950 . S
C660 C661 1.349 . S
C660 C662 1.327 . S
C660 H685 0.950 . S
C661 C660 1.349 . S
C661 C677 1.349 . S
C662 C660 1.327 . S
C662 C681 1.429 . S
C662 H686 0.950 . S
C663 C680 1.574 . S
C663 C682 1.368 . S
C663 H687 0.949 . S
H664 C668 0.949 . S
C665 C666 1.349 . S
C665 C667 1.327 . S
C665 H688 0.950 . S
C666 C665 1.349 . S
C666 C678 1.349 . S
C667 C665 1.327 . S
C667 C683 1.429 . S
C667 H689 0.950 . S
C668 H664 0.949 . S
C668 C676 1.574 . S
C668 C684 1.368 . S
H669 C677 0.950 . S
H670 C675 0.950 . S
H671 C676 0.949 . S
H672 C678 0.950 . S
H673 C679 0.950 . S
H674 C680 0.949 . S
C675 H670 0.950 . S
C675 C677 1.327 . S
C675 C681 1.429 . S
C676 C668 1.574 . S
C676 H671 0.949 . S
C676 C682 1.368 . S
C677 C661 1.349 . S
C677 H669 0.950 . S
C677 C675 1.327 . S
C678 C666 1.349 . S
C678 H672 0.950 . S
C678 C679 1.327 . S
C679 H673 0.950 . S
C679 C678 1.327 . S
C679 C683 1.429 . S
C680 C663 1.574 . S
C680 H674 0.949 . S
C680 C684 1.368 . S
C681 C662 1.429 . S
C681 C675 1.429 . S
C681 C682 1.523 . S
C682 C663 1.368 . S
C682 C676 1.368 . S
C682 C681 1.523 . S
C683 C667 1.429 . S
C683 C679 1.429 . S
C683 C684 1.523 . S
C684 C668 1.368 . S
C684 C680 1.368 . S
C684 C683 1.523 . S
H685 C660 0.950 . S
H686 C662 0.950 . S
H687 C663 0.949 . S
H688 C665 0.950 . S
H689 C667 0.950 . S
C690 C691 1.349 . S
C690 C692 1.327 . S
C690 H715 0.950 . S
C691 C690 1.349 . S
C691 C707 1.349 . S
C692 C690 1.327 . S
C692 C711 1.429 . S
C692 H716 0.950 . S
C693 C710 1.574 . S
C693 C712 1.368 . S
C693 H717 0.949 . S
H694 C698 0.949 . S
C695 C696 1.349 . S
C695 C697 1.327 . S
C695 H718 0.950 . S
C696 C695 1.349 . S
C696 C708 1.349 . S
C697 C695 1.327 . S
C697 C713 1.429 . S
C697 H719 0.950 . S
C698 H694 0.949 . S
C698 C706 1.574 . S
C698 C714 1.368 . S
H699 C707 0.950 . S
H700 C705 0.950 . S
H701 C706 0.949 . S
H702 C708 0.950 . S
H703 C709 0.950 . S
H704 C710 0.949 . S
C705 H700 0.950 . S
C705 C707 1.327 . S
C705 C711 1.429 . S
C706 C698 1.574 . S
C706 H701 0.949 . S
C706 C712 1.368 . S
C707 C691 1.349 . S
C707 H699 0.950 . S
C707 C705 1.327 . S
C708 C696 1.349 . S
C708 H702 0.950 . S
C708 C709 1.327 . S
C709 H703 0.950 . S
C709 C708 1.327 . S
C709 C713 1.429 . S
C710 C693 1.574 . S
C710 H704 0.949 . S
C710 C714 1.368 . S
C711 C692 1.429 . S
C711 C705 1.429 . S
C711 C712 1.523 . S
C712 C693 1.368 . S
C712 C706 1.368 . S
C712 C711 1.523 . S
C713 C697 1.429 . S
C713 C709 1.429 . S
C713 C714 1.523 . S
C714 C698 1.368 . S
C714 C710 1.368 . S
C714 C713 1.523 . S
H715 C690 0.950 . S
H716 C692 0.950 . S
H717 C693 0.949 . S
H718 C695 0.950 . S
H719 C697 0.950 . S
C720 C721 1.349 . S
C720 C722 1.327 . S
C720 H745 0.950 . S
C721 C720 1.349 . S
C721 C737 1.349 . S
C722 C720 1.327 . S
C722 C741 1.429 . S
C722 H746 0.950 . S
C723 C740 1.574 . S
C723 C742 1.368 . S
C723 H747 0.949 . S
H724 C728 0.949 . S
C725 C726 1.349 . S
C725 C727 1.327 . S
C725 H748 0.950 . S
C726 C725 1.349 . S
C726 C738 1.349 . S
C727 C725 1.327 . S
C727 C743 1.429 . S
C727 H749 0.950 . S
C728 H724 0.949 . S
C728 C736 1.574 . S
C728 C744 1.368 . S
H729 C737 0.950 . S
H730 C735 0.950 . S
H731 C736 0.949 . S
H732 C738 0.950 . S
H733 C739 0.950 . S
H734 C740 0.949 . S
C735 H730 0.950 . S
C735 C737 1.327 . S
C735 C741 1.429 . S
C736 C728 1.574 . S
C736 H731 0.949 . S
C736 C742 1.368 . S
C737 C721 1.349 . S
C737 H729 0.950 . S
C737 C735 1.327 . S
C738 C726 1.349 . S
C738 H732 0.950 . S
C738 C739 1.327 . S
C739 H733 0.950 . S
C739 C738 1.327 . S
C739 C743 1.429 . S
C740 C723 1.574 . S
C740 H734 0.949 . S
C740 C744 1.368 . S
C741 C722 1.429 . S
C741 C735 1.429 . S
C741 C742 1.523 . S
C742 C723 1.368 . S
C742 C736 1.368 . S
C742 C741 1.523 . S
C743 C727 1.429 . S
C743 C739 1.429 . S
C743 C744 1.523 . S
C744 C728 1.368 . S
C744 C740 1.368 . S
C744 C743 1.523 . S
H745 C720 0.950 . S
H746 C722 0.950 . S
H747 C723 0.949 . S
H748 C725 0.950 . S
H749 C727 0.950 . S
C750 C751 1.349 . S
C750 C752 1.327 . S
C750 H775 0.950 . S
C751 C750 1.349 . S
C751 C767 1.349 . S
C752 C750 1.327 . S
C752 C771 1.429 . S
C752 H776 0.950 . S
C753 C770 1.574 . S
C753 C772 1.368 . S
C753 H777 0.949 . S
H754 C758 0.949 . S
C755 C756 1.349 . S
C755 C757 1.327 . S
C755 H778 0.950 . S
C756 C755 1.349 . S
C756 C768 1.349 . S
C757 C755 1.327 . S
C757 C773 1.429 . S
C757 H779 0.950 . S
C758 H754 0.949 . S
C758 C766 1.574 . S
C758 C774 1.368 . S
H759 C767 0.950 . S
H760 C765 0.950 . S
H761 C766 0.949 . S
H762 C768 0.950 . S
H763 C769 0.950 . S
H764 C770 0.949 . S
C765 H760 0.950 . S
C765 C767 1.327 . S
C765 C771 1.429 . S
C766 C758 1.574 . S
C766 H761 0.949 . S
C766 C772 1.368 . S
C767 C751 1.349 . S
C767 H759 0.950 . S
C767 C765 1.327 . S
C768 C756 1.349 . S
C768 H762 0.950 . S
C768 C769 1.327 . S
C769 H763 0.950 . S
C769 C768 1.327 . S
C769 C773 1.429 . S
C770 C753 1.574 . S
C770 H764 0.949 . S
C770 C774 1.368 . S
C771 C752 1.429 . S
C771 C765 1.429 . S
C771 C772 1.523 . S
C772 C753 1.368 . S
C772 C766 1.368 . S
C772 C771 1.523 . S
C773 C757 1.429 . S
C773 C769 1.429 . S
C773 C774 1.523 . S
C774 C758 1.368 . S
C774 C770 1.368 . S
C774 C773 1.523 . S
H775 C750 0.950 . S
H776 C752 0.950 . S
H777 C753 0.949 . S
H778 C755 0.950 . S
H779 C757 0.950 . S
C780 C781 1.349 . S
C780 C782 1.327 . S
C780 H805 0.950 . S
C781 C780 1.349 . S
C781 C797 1.349 . S
C782 C780 1.327 . S
C782 C801 1.429 . S
C782 H806 0.950 . S
C783 C800 1.574 . S
C783 C802 1.368 . S
C783 H807 0.949 . S
H784 C788 0.949 . S
C785 C786 1.349 . S
C785 C787 1.327 . S
C785 H808 0.950 . S
C786 C785 1.349 . S
C786 C798 1.349 . S
C787 C785 1.327 . S
C787 C803 1.429 . S
C787 H809 0.950 . S
C788 H784 0.949 . S
C788 C796 1.574 . S
C788 C804 1.368 . S
H789 C797 0.950 . S
H790 C795 0.950 . S
H791 C796 0.949 . S
H792 C798 0.950 . S
H793 C799 0.950 . S
H794 C800 0.949 . S
C795 H790 0.950 . S
C795 C797 1.327 . S
C795 C801 1.429 . S
C796 C788 1.574 . S
C796 H791 0.949 . S
C796 C802 1.368 . S
C797 C781 1.349 . S
C797 H789 0.950 . S
C797 C795 1.327 . S
C798 C786 1.349 . S
C798 H792 0.950 . S
C798 C799 1.327 . S
C799 H793 0.950 . S
C799 C798 1.327 . S
C799 C803 1.429 . S
C800 C783 1.574 . S
C800 H794 0.949 . S
C800 C804 1.368 . S
C801 C782 1.429 . S
C801 C795 1.429 . S
C801 C802 1.523 . S
C802 C783 1.368 . S
C802 C796 1.368 . S
C802 C801 1.523 . S
C803 C787 1.429 . S
C803 C799 1.429 . S
C803 C804 1.523 . S
C804 C788 1.368 . S
C804 C800 1.368 . S
C804 C803 1.523 . S
H805 C780 0.950 . S
H806 C782 0.950 . S
H807 C783 0.949 . S
H808 C785 0.950 . S
H809 C787 0.950 . S
C810 C811 1.349 . S
C810 C812 1.327 . S
C810 H835 0.950 . S
C811 C810 1.349 . S
C811 C827 1.349 . S
C812 C810 1.327 . S
C812 C831 1.429 . S
C812 H836 0.950 . S
C813 C830 1.574 . S
C813 C832 1.368 . S
C813 H837 0.949 . S
H814 C818 0.949 . S
C815 C816 1.349 . S
C815 C817 1.327 . S
C815 H838 0.950 . S
C816 C815 1.349 . S
C816 C828 1.349 . S
C817 C815 1.327 . S
C817 C833 1.429 . S
C817 H839 0.950 . S
C818 H814 0.949 . S
C818 C826 1.574 . S
C818 C834 1.368 . S
H819 C827 0.950 . S
H820 C825 0.950 . S
H821 C826 0.949 . S
H822 C828 0.950 . S
H823 C829 0.950 . S
H824 C830 0.949 . S
C825 H820 0.950 . S
C825 C827 1.327 . S
C825 C831 1.429 . S
C826 C818 1.574 . S
C826 H821 0.949 . S
C826 C832 1.368 . S
C827 C811 1.349 . S
C827 H819 0.950 . S
C827 C825 1.327 . S
C828 C816 1.349 . S
C828 H822 0.950 . S
C828 C829 1.327 . S
C829 H823 0.950 . S
C829 C828 1.327 . S
C829 C833 1.429 . S
C830 C813 1.574 . S
C830 H824 0.949 . S
C830 C834 1.368 . S
C831 C812 1.429 . S
C831 C825 1.429 . S
C831 C832 1.523 . S
C832 C813 1.368 . S
C832 C826 1.368 . S
C832 C831 1.523 . S
C833 C817 1.429 . S
C833 C829 1.429 . S
C833 C834 1.523 . S
C834 C818 1.368 . S
C834 C830 1.368 . S
C834 C833 1.523 . S
H835 C810 0.950 . S
H836 C812 0.950 . S
H837 C813 0.949 . S
H838 C815 0.950 . S
H839 C817 0.950 . S
C840 C841 1.349 . S
C840 C842 1.327 . S
C840 H865 0.950 . S
C841 C840 1.349 . S
C841 C857 1.349 . S
C842 C840 1.327 . S
C842 C861 1.429 . S
C842 H866 0.950 . S
C843 C860 1.574 . S
C843 C862 1.368 . S
C843 H867 0.949 . S
H844 C848 0.949 . S
C845 C846 1.349 . S
C845 C847 1.327 . S
C845 H868 0.950 . S
C846 C845 1.349 . S
C846 C858 1.349 . S
C847 C845 1.327 . S
C847 C863 1.429 . S
C847 H869 0.950 . S
C848 H844 0.949 . S
C848 C856 1.574 . S
C848 C864 1.368 . S
H849 C857 0.950 . S
H850 C855 0.950 . S
H851 C856 0.949 . S
H852 C858 0.950 . S
H853 C859 0.950 . S
H854 C860 0.949 . S
C855 H850 0.950 . S
C855 C857 1.327 . S
C855 C861 1.429 . S
C856 C848 1.574 . S
C856 H851 0.949 . S
C856 C862 1.368 . S
C857 C841 1.349 . S
C857 H849 0.950 . S
C857 C855 1.327 . S
C858 C846 1.349 . S
C858 H852 0.950 . S
C858 C859 1.327 . S
C859 H853 0.950 . S
C859 C858 1.327 . S
C859 C863 1.429 . S
C860 C843 1.574 . S
C860 H854 0.949 . S
C860 C864 1.368 . S
C861 C842 1.429 . S
C861 C855 1.429 . S
C861 C862 1.523 . S
C862 C843 1.368 . S
C862 C856 1.368 . S
C862 C861 1.523 . S
C863 C847 1.429 . S
C863 C859 1.429 . S
C863 C864 1.523 . S
C864 C848 1.368 . S
C864 C860 1.368 . S
C864 C863 1.523 . S
H865 C840 0.950 . S
H866 C842 0.950 . S
H867 C843 0.949 . S
H868 C845 0.950 . S
H869 C847 0.950 . S
C870 C871 1.349 . S
C870 C872 1.327 . S
C870 H895 0.950 . S
C871 C870 1.349 . S
C871 C887 1.349 . S
C872 C870 1.327 . S
C872 C891 1.429 . S
C872 H896 0.950 . S
C873 C890 1.574 . S
C873 C892 1.368 . S
C873 H897 0.949 . S
H874 C878 0.949 . S
C875 C876 1.349 . S
C875 C877 1.327 . S
C875 H898 0.950 . S
C876 C875 1.349 . S
C876 C888 1.349 . S
C877 C875 1.327 . S
C877 C893 1.429 . S
C877 H899 0.950 . S
C878 H874 0.949 . S
C878 C886 1.574 . S
C878 C894 1.368 . S
H879 C887 0.950 . S
H880 C885 0.950 . S
H881 C886 0.949 . S
H882 C888 0.950 . S
H883 C889 0.950 . S
H884 C890 0.949 . S
C885 H880 0.950 . S
C885 C887 1.327 . S
C885 C891 1.429 . S
C886 C878 1.574 . S
C886 H881 0.949 . S
C886 C892 1.368 . S
C887 C871 1.349 . S
C887 H879 0.950 . S
C887 C885 1.327 . S
C888 C876 1.349 . S
C888 H882 0.950 . S
C888 C889 1.327 . S
C889 H883 0.950 . S
C889 C888 1.327 . S
C889 C893 1.429 . S
C890 C873 1.574 . S
C890 H884 0.949 . S
C890 C894 1.368 . S
C891 C872 1.429 . S
C891 C885 1.429 . S
C891 C892 1.523 . S
C892 C873 1.368 . S
C892 C886 1.368 . S
C892 C891 1.523 . S
C893 C877 1.429 . S
C893 C889 1.429 . S
C893 C894 1.523 . S
C894 C878 1.368 . S
C894 C890 1.368 . S
C894 C893 1.523 . S
H895 C870 0.950 . S
H896 C872 0.950 . S
H897 C873 0.949 . S
H898 C875 0.950 . S
H899 C877 0.950 . S
C900 C901 1.349 . S
C900 C902 1.327 . S
C900 H925 0.950 . S
C901 C900 1.349 . S
C901 C917 1.349 . S
C902 C900 1.327 . S
C902 C921 1.429 . S
C902 H926 0.950 . S
C903 C920 1.574 . S
C903 C922 1.368 . S
C903 H927 0.949 . S
H904 C908 0.949 . S
C905 C906 1.349 . S
C905 C907 1.327 . S
C905 H928 0.950 . S
C906 C905 1.349 . S
C906 C918 1.349 . S
C907 C905 1.327 . S
C907 C923 1.429 . S
C907 H929 0.950 . S
C908 H904 0.949 . S
C908 C916 1.574 . S
C908 C924 1.368 . S
H909 C917 0.950 . S
H910 C915 0.950 . S
H911 C916 0.949 . S
H912 C918 0.950 . S
H913 C919 0.950 . S
H914 C920 0.949 . S
C915 H910 0.950 . S
C915 C917 1.327 . S
C915 C921 1.429 . S
C916 C908 1.574 . S
C916 H911 0.949 . S
C916 C922 1.368 . S
C917 C901 1.349 . S
C917 H909 0.950 . S
C917 C915 1.327 . S
C918 C906 1.349 . S
C918 H912 0.950 . S
C918 C919 1.327 . S
C919 H913 0.950 . S
C919 C918 1.327 . S
C919 C923 1.429 . S
C920 C903 1.574 . S
C920 H914 0.949 . S
C920 C924 1.368 . S
C921 C902 1.429 . S
C921 C915 1.429 . S
C921 C922 1.523 . S
C922 C903 1.368 . S
C922 C916 1.368 . S
C922 C921 1.523 . S
C923 C907 1.429 . S
C923 C919 1.429 . S
C923 C924 1.523 . S
C924 C908 1.368 . S
C924 C920 1.368 . S
C924 C923 1.523 . S
H925 C900 0.950 . S
H926 C902 0.950 . S
H927 C903 0.949 . S
H928 C905 0.950 . S
H929 C907 0.950 . S
C930 C931 1.349 . S
C930 C932 1.327 . S
C930 H955 0.950 . S
C931 C930 1.349 . S
C931 C947 1.349 . S
C932 C930 1.327 . S
C932 C951 1.429 . S
C932 H956 0.950 . S
C933 C950 1.574 . S
C933 C952 1.368 . S
C933 H957 0.949 . S
H934 C938 0.949 . S
C935 C936 1.349 . S
C935 C937 1.327 . S
C935 H958 0.950 . S
C936 C935 1.349 . S
C936 C948 1.349 . S
C937 C935 1.327 . S
C937 C953 1.429 . S
C937 H959 0.950 . S
C938 H934 0.949 . S
C938 C946 1.574 . S
C938 C954 1.368 . S
H939 C947 0.950 . S
H940 C945 0.950 . S
H941 C946 0.949 . S
H942 C948 0.950 . S
H943 C949 0.950 . S
H944 C950 0.949 . S
C945 H940 0.950 . S
C945 C947 1.327 . S
C945 C951 1.429 . S
C946 C938 1.574 . S
C946 H941 0.949 . S
C946 C952 1.368 . S
C947 C931 1.349 . S
C947 H939 0.950 . S
C947 C945 1.327 . S
C948 C936 1.349 . S
C948 H942 0.950 . S
C948 C949 1.327 . S
C949 H943 0.950 . S
C949 C948 1.327 . S
C949 C953 1.429 . S
C950 C933 1.574 . S
C950 H944 0.949 . S
C950 C954 1.368 . S
C951 C932 1.429 . S
C951 C945 1.429 . S
C951 C952 1.523 . S
C952 C933 1.368 . S
C952 C946 1.368 . S
C952 C951 1.523 . S
C953 C937 1.429 . S
C953 C949 1.429 . S
C953 C954 1.523 . S
C954 C938 1.368 . S
C954 C950 1.368 . S
C954 C953 1.523 . S
H955 C930 0.950 . S
H956 C932 0.950 . S
H957 C933 0.949 . S
H958 C935 0.950 . S
H959 C937 0.950 . S
C960 C961 1.349 . S
C960 C962 1.327 . S
C960 H985 0.950 . S
C961 C960 1.349 . S
C961 C977 1.349 . S
C962 C960 1.327 . S
C962 C981 1.429 . S
C962 H986 0.950 . S
C963 C980 1.574 . S
C963 C982 1.368 . S
C963 H987 0.949 . S
H964 C968 0.949 . S
C965 C966 1.349 . S
C965 C967 1.327 . S
C965 H988 0.950 . S
C966 C965 1.349 . S
C966 C978 1.349 . S
C967 C965 1.327 . S
C967 C983 1.429 . S
C967 H989 0.950 . S
C968 H964 0.949 . S
C968 C976 1.574 . S
C968 C984 1.368 . S
H969 C977 0.950 . S
H970 C975 0.950 . S
H971 C976 0.949 . S
H972 C978 0.950 . S
H973 C979 0.950 . S
H974 C980 0.949 . S
C975 H970 0.950 . S
C975 C977 1.327 . S
C975 C981 1.429 . S
C976 C968 1.574 . S
C976 H971 0.949 . S
C976 C982 1.368 . S
C977 C961 1.349 . S
C977 H969 0.950 . S
C977 C975 1.327 . S
C978 C966 1.349 . S
C978 H972 0.950 . S
C978 C979 1.327 . S
C979 H973 0.950 . S
C979 C978 1.327 . S
C979 C983 1.429 . S
C980 C963 1.574 . S
C980 H974 0.949 . S
C980 C984 1.368 . S
C981 C962 1.429 . S
C981 C975 1.429 . S
C981 C982 1.523 . S
C982 C963 1.368 . S
C982 C976 1.368 . S
C982 C981 1.523 . S
C983 C967 1.429 . S
C983 C979 1.429 . S
C983 C984 1.523 . S
C984 C968 1.368 . S
C984 C980 1.368 . S
C984 C983 1.523 . S
H985 C960 0.950 . S
H986 C962 0.950 . S
H987 C963 0.949 . S
H988 C965 0.950 . S
H989 C967 0.950 . S
C990 C991 1.349 . S
C990 C992 1.327 . S
C990 H1015 0.950 . S
C991 C990 1.349 . S
C991 C1007 1.349 . S
C992 C990 1.327 . S
C992 C1011 1.429 . S
C992 H1016 0.950 . S
C993 C1010 1.574 . S
C993 C1012 1.368 . S
C993 H1017 0.949 . S
H994 C998 0.949 . S
C995 C996 1.349 . S
C995 C997 1.327 . S
C995 H1018 0.950 . S
C996 C995 1.349 . S
C996 C1008 1.349 . S
C997 C995 1.327 . S
C997 C1013 1.429 . S
C997 H1019 0.950 . S
C998 H994 0.949 . S
C998 C1006 1.574 . S
C998 C1014 1.368 . S
H999 C1007 0.950 . S
H1000 C1005 0.950 . S
H1001 C1006 0.949 . S
H1002 C1008 0.950 . S
H1003 C1009 0.950 . S
H1004 C1010 0.949 . S
C1005 H1000 0.950 . S
C1005 C1007 1.327 . S
C1005 C1011 1.429 . S
C1006 C998 1.574 . S
C1006 H1001 0.949 . S
C1006 C1012 1.368 . S
C1007 C991 1.349 . S
C1007 H999 0.950 . S
C1007 C1005 1.327 . S
C1008 C996 1.349 . S
C1008 H1002 0.950 . S
C1008 C1009 1.327 . S
C1009 H1003 0.950 . S
C1009 C1008 1.327 . S
C1009 C1013 1.429 . S
C1010 C993 1.574 . S
C1010 H1004 0.949 . S
C1010 C1014 1.368 . S
C1011 C992 1.429 . S
C1011 C1005 1.429 . S
C1011 C1012 1.523 . S
C1012 C993 1.368 . S
C1012 C1006 1.368 . S
C1012 C1011 1.523 . S
C1013 C997 1.429 . S
C1013 C1009 1.429 . S
C1013 C1014 1.523 . S
C1014 C998 1.368 . S
C1014 C1010 1.368 . S
C1014 C1013 1.523 . S
H1015 C990 0.950 . S
H1016 C992 0.950 . S
H1017 C993 0.949 . S
H1018 C995 0.950 . S
H1019 C997 0.950 . S
C1020 C1021 1.349 . S
C1020 C1022 1.327 . S
C1020 H1045 0.950 . S
C1021 C1020 1.349 . S
C1021 C1037 1.349 . S
C1022 C1020 1.327 . S
C1022 C1041 1.429 . S
C1022 H1046 0.950 . S
C1023 C1040 1.574 . S
C1023 C1042 1.368 . S
C1023 H1047 0.949 . S
H1024 C1028 0.949 . S
C1025 C1026 1.349 . S
C1025 C1027 1.327 . S
C1025 H1048 0.950 . S
C1026 C1025 1.349 . S
C1026 C1038 1.349 . S
C1027 C1025 1.327 . S
C1027 C1043 1.429 . S
C1027 H1049 0.950 . S
C1028 H1024 0.949 . S
C1028 C1036 1.574 . S
C1028 C1044 1.368 . S
H1029 C1037 0.950 . S
H1030 C1035 0.950 . S
H1031 C1036 0.949 . S
H1032 C1038 0.950 . S
H1033 C1039 0.950 . S
H1034 C1040 0.949 . S
C1035 H1030 0.950 . S
C1035 C1037 1.327 . S
C1035 C1041 1.429 . S
C1036 C1028 1.574 . S
C1036 H1031 0.949 . S
C1036 C1042 1.368 . S
C1037 C1021 1.349 . S
C1037 H1029 0.950 . S
C1037 C1035 1.327 . S
C1038 C1026 1.349 . S
C1038 H1032 0.950 . S
C1038 C1039 1.327 . S
C1039 H1033 0.950 . S
C1039 C1038 1.327 . S
C1039 C1043 1.429 . S
C1040 C1023 1.574 . S
C1040 H1034 0.949 . S
C1040 C1044 1.368 . S
C1041 C1022 1.429 . S
C1041 C1035 1.429 . S
C1041 C1042 1.523 . S
C1042 C1023 1.368 . S
C1042 C1036 1.368 . S
C1042 C1041 1.523 . S
C1043 C1027 1.429 . S
C1043 C1039 1.429 . S
C1043 C1044 1.523 . S
C1044 C1028 1.368 . S
C1044 C1040 1.368 . S
C1044 C1043 1.523 . S
H1045 C1020 0.950 . S
H1046 C1022 0.950 . S
H1047 C1023 0.949 . S
H1048 C1025 0.950 . S
H1049 C1027 0.950 . S
C1050 C1051 1.349 . S
C1050 C1052 1.327 . S
C1050 H1075 0.950 . S
C1051 C1050 1.349 . S
C1051 C1067 1.349 . S
C1052 C1050 1.327 . S
C1052 C1071 1.429 . S
C1052 H1076 0.950 . S
C1053 C1070 1.574 . S
C1053 C1072 1.368 . S
C1053 H1077 0.949 . S
H1054 C1058 0.949 . S
C1055 C1056 1.349 . S
C1055 C1057 1.327 . S
C1055 H1078 0.950 . S
C1056 C1055 1.349 . S
C1056 C1068 1.349 . S
C1057 C1055 1.327 . S
C1057 C1073 1.429 . S
C1057 H1079 0.950 . S
C1058 H1054 0.949 . S
C1058 C1066 1.574 . S
C1058 C1074 1.368 . S
H1059 C1067 0.950 . S
H1060 C1065 0.950 . S
H1061 C1066 0.949 . S
H1062 C1068 0.950 . S
H1063 C1069 0.950 . S
H1064 C1070 0.949 . S
C1065 H1060 0.950 . S
C1065 C1067 1.327 . S
C1065 C1071 1.429 . S
C1066 C1058 1.574 . S
C1066 H1061 0.949 . S
C1066 C1072 1.368 . S
C1067 C1051 1.349 . S
C1067 H1059 0.950 . S
C1067 C1065 1.327 . S
C1068 C1056 1.349 . S
C1068 H1062 0.950 . S
C1068 C1069 1.327 . S
C1069 H1063 0.950 . S
C1069 C1068 1.327 . S
C1069 C1073 1.429 . S
C1070 C1053 1.574 . S
C1070 H1064 0.949 . S
C1070 C1074 1.368 . S
C1071 C1052 1.429 . S
C1071 C1065 1.429 . S
C1071 C1072 1.523 . S
C1072 C1053 1.368 . S
C1072 C1066 1.368 . S
C1072 C1071 1.523 . S
C1073 C1057 1.429 . S
C1073 C1069 1.429 . S
C1073 C1074 1.523 . S
C1074 C1058 1.368 . S
C1074 C1070 1.368 . S
C1074 C1073 1.523 . S
H1075 C1050 0.950 . S
H1076 C1052 0.950 . S
H1077 C1053 0.949 . S
H1078 C1055 0.950 . S
H1079 C1057 0.950 . S
C1080 C1081 1.349 . S
C1080 C1082 1.327 . S
C1080 H1105 0.950 . S
C1081 C1080 1.349 . S
C1081 C1097 1.349 . S
C1082 C1080 1.327 . S
C1082 C1101 1.429 . S
C1082 H1106 0.950 . S
C1083 C1100 1.574 . S
C1083 C1102 1.368 . S
C1083 H1107 0.949 . S
H1084 C1088 0.949 . S
C1085 C1086 1.349 . S
C1085 C1087 1.327 . S
C1085 H1108 0.950 . S
C1086 C1085 1.349 . S
C1086 C1098 1.349 . S
C1087 C1085 1.327 . S
C1087 C1103 1.429 . S
C1087 H1109 0.950 . S
C1088 H1084 0.949 . S
C1088 C1096 1.574 . S
C1088 C1104 1.368 . S
H1089 C1097 0.950 . S
H1090 C1095 0.950 . S
H1091 C1096 0.949 . S
H1092 C1098 0.950 . S
H1093 C1099 0.950 . S
H1094 C1100 0.949 . S
C1095 H1090 0.950 . S
C1095 C1097 1.327 . S
C1095 C1101 1.429 . S
C1096 C1088 1.574 . S
C1096 H1091 0.949 . S
C1096 C1102 1.368 . S
C1097 C1081 1.349 . S
C1097 H1089 0.950 . S
C1097 C1095 1.327 . S
C1098 C1086 1.349 . S
C1098 H1092 0.950 . S
C1098 C1099 1.327 . S
C1099 H1093 0.950 . S
C1099 C1098 1.327 . S
C1099 C1103 1.429 . S
C1100 C1083 1.574 . S
C1100 H1094 0.949 . S
C1100 C1104 1.368 . S
C1101 C1082 1.429 . S
C1101 C1095 1.429 . S
C1101 C1102 1.523 . S
C1102 C1083 1.368 . S
C1102 C1096 1.368 . S
C1102 C1101 1.523 . S
C1103 C1087 1.429 . S
C1103 C1099 1.429 . S
C1103 C1104 1.523 . S
C1104 C1088 1.368 . S
C1104 C1100 1.368 . S
C1104 C1103 1.523 . S
H1105 C1080 0.950 . S
H1106 C1082 0.950 . S
H1107 C1083 0.949 . S
H1108 C1085 0.950 . S
H1109 C1087 0.950 . S
C1110 C1111 1.349 . S
C1110 C1112 1.327 . S
C1110 H1135 0.950 . S
C1111 C1110 1.349 . S
C1111 C1127 1.349 . S
C1112 C1110 1.327 . S
C1112 C1131 1.429 . S
C1112 H1136 0.950 . S
C1113 C1130 1.574 . S
C1113 C1132 1.368 . S
C1113 H1137 0.949 . S
H1114 C1118 0.949 . S
C1115 C1116 1.349 . S
C1115 C1117 1.327 . S
C1115 H1138 0.950 . S
C1116 C1115 1.349 . S
C1116 C1128 1.349 . S
C1117 C1115 1.327 . S
C1117 C1133 1.429 . S
C1117 H1139 0.950 . S
C1118 H1114 0.949 . S
C1118 C1126 1.574 . S
C1118 C1134 1.368 . S
H1119 C1127 0.950 . S
H1120 C1125 0.950 . S
H1121 C1126 0.949 . S
H1122 C1128 0.950 . S
H1123 C1129 0.950 . S
H1124 C1130 0.949 . S
C1125 H1120 0.950 . S
C1125 C1127 1.327 . S
C1125 C1131 1.429 . S
C1126 C1118 1.574 . S
C1126 H1121 0.949 . S
C1126 C1132 1.368 . S
C1127 C1111 1.349 . S
C1127 H1119 0.950 . S
C1127 C1125 1.327 . S
C1128 C1116 1.349 . S
C1128 H1122 0.950 . S
C1128 C1129 1.327 . S
C1129 H1123 0.950 . S
C1129 C1128 1.327 . S
C1129 C1133 1.429 . S
C1130 C1113 1.574 . S
C1130 H1124 0.949 . S
C1130 C1134 1.368 . S
C1131 C1112 1.429 . S
C1131 C1125 1.429 . S
C1131 C1132 1.523 . S
C1132 C1113 1.368 . S
C1132 C1126 1.368 . S
C1132 C1131 1.523 . S
C1133 C1117 1.429 . S
C1133 C1129 1.429 . S
C1133 C1134 1.523 . S
C1134 C1118 1.368 . S
C1134 C1130 1.368 . S
C1134 C1133 1.523 . S
H1135 C1110 0.950 . S
H1136 C1112 0.950 . S
H1137 C1113 0.949 . S
H1138 C1115 0.950 . S
H1139 C1117 0.950 . S
C1140 C1141 1.349 . S
C1140 C1142 1.327 . S
C1140 H1165 0.950 . S
C1141 C1140 1.349 . S
C1141 C1157 1.349 . S
C1142 C1140 1.327 . S
C1142 C1161 1.429 . S
C1142 H1166 0.950 . S
C1143 C1160 1.574 1_556 S
C1143 C1162 1.368 . S
C1143 H1167 0.949 . S
H1144 C1148 0.949 . S
C1145 C1146 1.349 . S
C1145 C1147 1.327 . S
C1145 H1168 0.950 . S
C1146 C1145 1.349 . S
C1146 C1158 1.349 . S
C1147 C1145 1.327 . S
C1147 C1163 1.429 . S
C1147 H1169 0.950 . S
C1148 H1144 0.949 . S
C1148 C1156 1.574 1_554 S
C1148 C1164 1.368 . S
H1149 C1157 0.950 . S
H1150 C1155 0.950 . S
H1151 C1156 0.949 . S
H1152 C1158 0.950 . S
H1153 C1159 0.950 . S
H1154 C1160 0.949 . S
C1155 H1150 0.950 . S
C1155 C1157 1.327 . S
C1155 C1161 1.429 . S
C1156 C1148 1.574 1_556 S
C1156 H1151 0.949 . S
C1156 C1162 1.368 . S
C1157 C1141 1.349 . S
C1157 H1149 0.950 . S
C1157 C1155 1.327 . S
C1158 C1146 1.349 . S
C1158 H1152 0.950 . S
C1158 C1159 1.327 . S
C1159 H1153 0.950 . S
C1159 C1158 1.327 . S
C1159 C1163 1.429 . S
C1160 C1143 1.574 1_554 S
C1160 H1154 0.949 . S
C1160 C1164 1.368 . S
C1161 C1142 1.429 . S
C1161 C1155 1.429 . S
C1161 C1162 1.523 . S
C1162 C1143 1.368 . S
C1162 C1156 1.368 . S
C1162 C1161 1.523 . S
C1163 C1147 1.429 . S
C1163 C1159 1.429 . S
C1163 C1164 1.523 . S
C1164 C1148 1.368 . S
C1164 C1160 1.368 . S
C1164 C1163 1.523 . S
H1165 C1140 0.950 . S
H1166 C1142 0.950 . S
H1167 C1143 0.949 . S
H1168 C1145 0.950 . S
H1169 C1147 0.950 . S
C1170 C1171 1.349 . S
C1170 C1172 1.327 . S
C1170 H1195 0.950 . S
C1171 C1170 1.349 . S
C1171 C1187 1.349 . S
C1172 C1170 1.327 . S
C1172 C1191 1.429 . S
C1172 H1196 0.950 . S
C1173 C1190 1.574 . S
C1173 C1192 1.368 1_655 S
C1173 H1197 0.949 . S
H1174 C1178 0.949 . S
C1175 C1176 1.349 . S
C1175 C1177 1.327 . S
C1175 H1198 0.950 . S
C1176 C1175 1.349 . S
C1176 C1188 1.349 . S
C1177 C1175 1.327 . S
C1177 C1193 1.429 . S
C1177 H1199 0.950 . S
C1178 H1174 0.949 . S
C1178 C1186 1.574 . S
C1178 C1194 1.368 1_455 S
H1179 C1187 0.950 . S
H1180 C1185 0.950 . S
H1181 C1186 0.949 . S
H1182 C1188 0.950 . S
H1183 C1189 0.950 . S
H1184 C1190 0.949 . S
C1185 H1180 0.950 . S
C1185 C1187 1.327 . S
C1185 C1191 1.429 . S
C1186 C1178 1.574 . S
C1186 H1181 0.949 . S
C1186 C1192 1.368 . S
C1187 C1171 1.349 . S
C1187 H1179 0.950 . S
C1187 C1185 1.327 . S
C1188 C1176 1.349 . S
C1188 H1182 0.950 . S
C1188 C1189 1.327 . S
C1189 H1183 0.950 . S
C1189 C1188 1.327 . S
C1189 C1193 1.429 . S
C1190 C1173 1.574 . S
C1190 H1184 0.949 . S
C1190 C1194 1.368 . S
C1191 C1172 1.429 . S
C1191 C1185 1.429 . S
C1191 C1192 1.523 . S
C1192 C1173 1.368 1_455 S
C1192 C1186 1.368 . S
C1192 C1191 1.523 . S
C1193 C1177 1.429 . S
C1193 C1189 1.429 . S
C1193 C1194 1.523 . S
C1194 C1178 1.368 1_655 S
C1194 C1190 1.368 . S
C1194 C1193 1.523 . S
H1195 C1170 0.950 . S
H1196 C1172 0.950 . S
H1197 C1173 0.949 . S
H1198 C1175 0.950 . S
H1199 C1177 0.950 . S
C1200 C1201 1.349 . S
C1200 C1202 1.327 . S
C1200 H1225 0.950 . S
C1201 C1200 1.349 . S
C1201 C1217 1.349 . S
C1202 C1200 1.327 . S
C1202 C1221 1.429 . S
C1202 H1226 0.950 . S
C1203 C1220 1.568 1_554 S
C1203 C1222 1.368 1_545 S
C1203 H1227 0.949 . S
H1204 C1208 0.949 . S
C1205 C1206 1.349 . S
C1205 C1207 1.327 . S
C1205 H1228 0.950 . S
C1206 C1205 1.349 . S
C1206 C1218 1.349 . S
C1207 C1205 1.327 . S
C1207 C1223 1.429 . S
C1207 H1229 0.950 . S
C1208 H1204 0.949 . S
C1208 C1216 1.568 1_556 S
C1208 C1224 1.368 1_565 S
H1209 C1217 0.950 . S
H1210 C1215 0.950 . S
H1211 C1216 0.949 . S
H1212 C1218 0.950 . S
H1213 C1219 0.950 . S
H1214 C1220 0.949 . S
C1215 H1210 0.950 . S
C1215 C1217 1.327 . S
C1215 C1221 1.429 . S
C1216 C1208 1.568 1_554 S
C1216 H1211 0.949 . S
C1216 C1222 1.374 . S
C1217 C1201 1.349 . S
C1217 H1209 0.950 . S
C1217 C1215 1.327 . S
C1218 C1206 1.349 . S
C1218 H1212 0.950 . S
C1218 C1219 1.327 . S
C1219 H1213 0.950 . S
C1219 C1218 1.327 . S
C1219 C1223 1.429 . S
C1220 C1203 1.568 1_556 S
C1220 H1214 0.949 . S
C1220 C1224 1.374 . S
C1221 C1202 1.429 . S
C1221 C1215 1.429 . S
C1221 C1222 1.523 . S
C1222 C1203 1.368 1_565 S
C1222 C1216 1.374 . S
C1222 C1221 1.523 . S
C1223 C1207 1.429 . S
C1223 C1219 1.429 . S
C1223 C1224 1.523 . S
C1224 C1208 1.368 1_545 S
C1224 C1220 1.374 . S
C1224 C1223 1.523 . S
H1225 C1200 0.950 . S
H1226 C1202 0.950 . S
H1227 C1203 0.949 . S
H1228 C1205 0.950 . S
H1229 C1207 0.950 . S
C1230 C1231 1.349 . S
C1230 C1232 1.327 . S
C1230 H1255 0.950 . S
C1231 C1230 1.349 . S
C1231 C1247 1.349 . S
C1232 C1230 1.327 . S
C1232 C1251 1.429 . S
C1232 H1256 0.950 . S
C1233 C1250 1.574 . S
C1233 C1252 1.368 . S
C1233 H1257 0.949 . S
H1234 C1238 0.949 . S
C1235 C1236 1.349 . S
C1235 C1237 1.327 . S
C1235 H1258 0.950 . S
C1236 C1235 1.349 . S
C1236 C1248 1.349 . S
C1237 C1235 1.327 . S
C1237 C1253 1.429 . S
C1237 H1259 0.950 . S
C1238 H1234 0.949 . S
C1238 C1246 1.574 . S
C1238 C1254 1.368 . S
H1239 C1247 0.950 . S
H1240 C1245 0.950 . S
H1241 C1246 0.949 . S
H1242 C1248 0.950 . S
H1243 C1249 0.950 . S
H1244 C1250 0.949 . S
C1245 H1240 0.950 . S
C1245 C1247 1.327 . S
C1245 C1251 1.429 . S
C1246 C1238 1.574 . S
C1246 H1241 0.949 . S
C1246 C1252 1.368 . S
C1247 C1231 1.349 . S
C1247 H1239 0.950 . S
C1247 C1245 1.327 . S
C1248 C1236 1.349 . S
C1248 H1242 0.950 . S
C1248 C1249 1.327 . S
C1249 H1243 0.950 . S
C1249 C1248 1.327 . S
C1249 C1253 1.429 . S
C1250 C1233 1.574 . S
C1250 H1244 0.949 . S
C1250 C1254 1.368 . S
C1251 C1232 1.429 . S
C1251 C1245 1.429 . S
C1251 C1252 1.523 . S
C1252 C1233 1.368 . S
C1252 C1246 1.368 . S
C1252 C1251 1.523 . S
C1253 C1237 1.429 . S
C1253 C1249 1.429 . S
C1253 C1254 1.523 . S
C1254 C1238 1.368 . S
C1254 C1250 1.368 . S
C1254 C1253 1.523 . S
H1255 C1230 0.950 . S
H1256 C1232 0.950 . S
H1257 C1233 0.949 . S
H1258 C1235 0.950 . S
H1259 C1237 0.950 . S
C1260 C1261 1.349 . S
C1260 C1262 1.327 . S
C1260 H1285 0.950 . S
C1261 C1260 1.349 . S
C1261 C1277 1.349 . S
C1262 C1260 1.327 . S
C1262 C1281 1.429 . S
C1262 H1286 0.950 . S
C1263 C1280 1.574 1_656 S
C1263 C1282 1.368 . S
C1263 H1287 0.949 . S
H1264 C1268 0.949 . S
C1265 C1266 1.349 . S
C1265 C1267 1.327 . S
C1265 H1288 0.950 . S
C1266 C1265 1.349 . S
C1266 C1278 1.349 . S
C1267 C1265 1.327 . S
C1267 C1283 1.429 . S
C1267 H1289 0.950 . S
C1268 H1264 0.949 . S
C1268 C1276 1.574 1_454 S
C1268 C1284 1.368 . S
H1269 C1277 0.950 . S
H1270 C1275 0.950 . S
H1271 C1276 0.949 . S
H1272 C1278 0.950 . S
H1273 C1279 0.950 . S
H1274 C1280 0.949 . S
C1275 H1270 0.950 . S
C1275 C1277 1.327 . S
C1275 C1281 1.429 . S
C1276 C1268 1.574 1_656 S
C1276 H1271 0.949 . S
C1276 C1282 1.368 . S
C1277 C1261 1.349 . S
C1277 H1269 0.950 . S
C1277 C1275 1.327 . S
C1278 C1266 1.349 . S
C1278 H1272 0.950 . S
C1278 C1279 1.327 . S
C1279 H1273 0.950 . S
C1279 C1278 1.327 . S
C1279 C1283 1.429 . S
C1280 C1263 1.574 1_454 S
C1280 H1274 0.949 . S
C1280 C1284 1.368 . S
C1281 C1262 1.429 . S
C1281 C1275 1.429 . S
C1281 C1282 1.523 . S
C1282 C1263 1.368 . S
C1282 C1276 1.368 . S
C1282 C1281 1.523 . S
C1283 C1267 1.429 . S
C1283 C1279 1.429 . S
C1283 C1284 1.523 . S
C1284 C1268 1.368 . S
C1284 C1280 1.368 . S
C1284 C1283 1.523 . S
H1285 C1260 0.950 . S
H1286 C1262 0.950 . S
H1287 C1263 0.949 . S
H1288 C1265 0.950 . S
H1289 C1267 0.950 . S
C1290 C1291 1.349 . S
C1290 C1292 1.327 . S
C1290 H1315 0.950 . S
C1291 C1290 1.349 . S
C1291 C1307 1.349 . S
C1292 C1290 1.327 . S
C1292 C1311 1.429 . S
C1292 H1316 0.950 . S
C1293 C1310 1.574 . S
C1293 C1312 1.368 . S
C1293 H1317 0.949 . S
H1294 C1298 0.949 . S
C1295 C1296 1.349 . S
C1295 C1297 1.327 . S
C1295 H1318 0.950 . S
C1296 C1295 1.349 . S
C1296 C1308 1.349 . S
C1297 C1295 1.327 . S
C1297 C1313 1.429 . S
C1297 H1319 0.950 . S
C1298 H1294 0.949 . S
C1298 C1306 1.574 . S
C1298 C1314 1.368 . S
H1299 C1307 0.950 . S
H1300 C1305 0.950 . S
H1301 C1306 0.949 . S
H1302 C1308 0.950 . S
H1303 C1309 0.950 . S
H1304 C1310 0.949 . S
C1305 H1300 0.950 . S
C1305 C1307 1.327 . S
C1305 C1311 1.429 . S
C1306 C1298 1.574 . S
C1306 H1301 0.949 . S
C1306 C1312 1.368 1_545 S
C1307 C1291 1.349 . S
C1307 H1299 0.950 . S
C1307 C1305 1.327 . S
C1308 C1296 1.349 . S
C1308 H1302 0.950 . S
C1308 C1309 1.327 . S
C1309 H1303 0.950 . S
C1309 C1308 1.327 . S
C1309 C1313 1.429 . S
C1310 C1293 1.574 . S
C1310 H1304 0.949 . S
C1310 C1314 1.368 1_565 S
C1311 C1292 1.429 . S
C1311 C1305 1.429 . S
C1311 C1312 1.523 . S
C1312 C1293 1.368 . S
C1312 C1306 1.368 1_565 S
C1312 C1311 1.523 . S
C1313 C1297 1.429 . S
C1313 C1309 1.429 . S
C1313 C1314 1.523 . S
C1314 C1298 1.368 . S
C1314 C1310 1.368 1_545 S
C1314 C1313 1.523 . S
H1315 C1290 0.950 . S
H1316 C1292 0.950 . S
H1317 C1293 0.949 . S
H1318 C1295 0.950 . S
H1319 C1297 0.950 . S
C241 C99 1.103 . S
C246 C1 1.122 . S
C271 C119 1.104 . S
C276 C21 1.122 . S
C301 C41 1.122 . S
C306 C19 1.104 . S
C331 C61 1.122 . S
C336 C39 1.103 . S
C361 C81 1.122 . S
C366 C59 1.104 . S
C391 C79 1.104 . S
C396 C101 1.122 . S
C421 C179 1.104 . S
C426 C121 1.122 . S
C451 C141 1.122 . S
C456 C199 1.104 . S
C481 C219 1.104 . S
C486 C161 1.122 . S
C511 C181 1.122 . S
C516 C239 1.104 . S
C541 C201 1.122 . S
C546 C139 1.104 . S
C571 C159 1.104 . S
C576 C221 1.122 . S
C601 C98 1.504 . S
C606 C2 1.487 . S
C631 C22 1.487 . S
C636 C118 1.504 . S
C661 C42 1.487 . S
C666 C18 1.505 . S
C691 C62 1.487 . S
C696 C38 1.504 . S
C721 C58 1.504 . S
C726 C82 1.487 . S
C751 C78 1.505 . S
C756 C102 1.487 . S
C781 C178 1.504 . S
C786 C122 1.487 . S
C811 C142 1.487 . S
C816 C198 1.505 . S
C841 C162 1.487 . S
C846 C218 1.504 . S
C871 C238 1.504 . S
C876 C182 1.487 . S
C901 C202 1.487 . S
C906 C138 1.505 . S
C931 C158 1.504 . S
C936 C222 1.487 . S
C961 C209 1.589 . S
C966 C9 1.589 . S
C991 C29 1.589 . S
C996 C229 1.589 . S
C1021 C49 1.589 . S
C1026 C129 1.589 . S
C1051 C69 1.589 . S
C1056 C149 1.589 . S
C1081 C89 1.589 . S
C1086 C169 1.589 . S
C1111 C189 1.589 . S
C1116 C109 1.589 . S
C1141 C188 1.921 . S
C1146 C8 1.921 . S
C1171 C208 1.921 . S
C1176 C28 1.921 . S
C1201 C48 1.921 . S
C1206 C228 1.921 . S
C1231 C68 1.921 . S
C1236 C128 1.921 . S
C1261 C148 1.921 . S
C1266 C88 1.921 . S
C1291 C168 1.921 . S
C1296 C108 1.921 . S
