# Generated by pormake.
# Topology snl, (6)-cn, num edge types: 1
# Building blocks:
#     Node 0, Type 0, BuildingBlock: BETFEN_clean_sbu_0, # of connection points: 6
#     Node 1, Type 0, BuildingBlock: BETFEN_clean_sbu_0, # of connection points: 6
#     Node 2, Type 0, BuildingBlock: BETFEN_clean_sbu_0, # of connection points: 6
#     Node 3, Type 0, BuildingBlock: BETFEN_clean_sbu_0, # of connection points: 6
#     Node 4, Type 0, BuildingBlock: BETFEN_clean_sbu_0, # of connection points: 6
#     Node 5, Type 0, BuildingBlock: BETFEN_clean_sbu_0, # of connection points: 6
#     Node 6, Type 0, BuildingBlock: BETFEN_clean_sbu_0, # of connection points: 6
#     Node 7, Type 0, BuildingBlock: BETFEN_clean_sbu_0, # of connection points: 6
#     Node 8, Type 0, BuildingBlock: BETFEN_clean_sbu_0, # of connection points: 6
#     Node 9, Type 0, BuildingBlock: BETFEN_clean_sbu_0, # of connection points: 6
#     Node 10, Type 0, BuildingBlock: BETFEN_clean_sbu_0, # of connection points: 6
#     Node 11, Type 0, BuildingBlock: BETFEN_clean_sbu_0, # of connection points: 6
#     Node 12, Type 0, BuildingBlock: BETFEN_clean_sbu_0, # of connection points: 6
#     Node 13, Type 0, BuildingBlock: BETFEN_clean_sbu_0, # of connection points: 6
#     Node 14, Type 0, BuildingBlock: BETFEN_clean_sbu_0, # of connection points: 6
#     Node 15, Type 0, BuildingBlock: BETFEN_clean_sbu_0, # of connection points: 6
#     Edge 16, Type (0, 0), None
#     Edge 17, Type (0, 0), None
#     Edge 18, Type (0, 0), None
#     Edge 19, Type (0, 0), None
#     Edge 20, Type (0, 0), None
#     Edge 21, Type (0, 0), None
#     Edge 22, Type (0, 0), None
#     Edge 23, Type (0, 0), None
#     Edge 24, Type (0, 0), None
#     Edge 25, Type (0, 0), None
#     Edge 26, Type (0, 0), None
#     Edge 27, Type (0, 0), None
#     Edge 28, Type (0, 0), None
#     Edge 29, Type (0, 0), None
#     Edge 30, Type (0, 0), None
#     Edge 31, Type (0, 0), None
#     Edge 32, Type (0, 0), None
#     Edge 33, Type (0, 0), None
#     Edge 34, Type (0, 0), None
#     Edge 35, Type (0, 0), None
#     Edge 36, Type (0, 0), None
#     Edge 37, Type (0, 0), None
#     Edge 38, Type (0, 0), None
#     Edge 39, Type (0, 0), None
#     Edge 40, Type (0, 0), None
#     Edge 41, Type (0, 0), None
#     Edge 42, Type (0, 0), None
#     Edge 43, Type (0, 0), None
#     Edge 44, Type (0, 0), None
#     Edge 45, Type (0, 0), None
#     Edge 46, Type (0, 0), None
#     Edge 47, Type (0, 0), None
#     Edge 48, Type (0, 0), None
#     Edge 49, Type (0, 0), None
#     Edge 50, Type (0, 0), None
#     Edge 51, Type (0, 0), None
#     Edge 52, Type (0, 0), None
#     Edge 53, Type (0, 0), None
#     Edge 54, Type (0, 0), None
#     Edge 55, Type (0, 0), None
#     Edge 56, Type (0, 0), None
#     Edge 57, Type (0, 0), None
#     Edge 58, Type (0, 0), None
#     Edge 59, Type (0, 0), None
#     Edge 60, Type (0, 0), None
#     Edge 61, Type (0, 0), None
#     Edge 62, Type (0, 0), None
#     Edge 63, Type (0, 0), None
# Relax obj value: 0.230
# Max RMSD: 0.295
# Mean RMSD: 0.295
data_MOF--net-snl--node1-BETFEN_clean_sbu_0--edge1-none
_symmetry_space_group_name_H-M    P1
_symmetry_Int_Tables_number       1
_symmetry_cell_setting            triclinic
loop_
_symmetry_equiv_pos_as_xyz
'x, y, z'
_cell_length_a     25.322933
_cell_length_b     24.29422
_cell_length_c     16.051107
_cell_angle_alpha  90.0
_cell_angle_beta   90.0
_cell_angle_gamma 90.0
loop_
_atom_site_label
_atom_site_type_symbol
_atom_site_fract_x
_atom_site_fract_y
_atom_site_fract_z
_atom_type_partial_charge
Pr0 Pr 0.12247 0.64732 0.11015 0.0
Pr1 Pr 0.07895 0.60913 0.22931 0.0
C2 C 0.14804 0.66914 0.95006 0.0
C3 C 0.12636 0.65469 0.867 0.0
C4 C 0.08102 0.68101 0.8353 0.0
C5 C 0.06237 0.66872 0.75537 0.0
C6 C 0.088 0.62907 0.70667 0.0
C7 C 0.13235 0.60171 0.73863 0.0
C8 C 0.15145 0.61446 0.818 0.0
C9 C 0.13155 0.73719 0.21573 0.0
C10 C -0.00348 0.67475 0.14423 0.0
C11 C 0.04398 0.56363 0.37155 0.0
C12 C 0.04716 0.5845 0.45728 0.0
C13 C 0.03016 0.55206 0.5241 0.0
C14 C 0.0407 0.56858 0.60596 0.0
C15 C 0.06963 0.61662 0.62167 0.0
C16 C 0.08452 0.65043 0.55501 0.0
C17 C 0.0729 0.6347 0.47327 0.0
C18 C 0.07719 0.53342 0.0893 0.0
C19 C 0.19836 0.62155 0.27624 0.0
O20 O 0.16952 0.62941 0.9929 0.0
O21 O 0.1204 0.70247 0.99641 0.0
O22 O 0.09004 0.70725 0.21077 0.0
O23 O 0.17076 0.71432 0.17718 0.0
O24 O 0.01993 0.67885 0.21551 0.0
O25 O 0.02603 0.6522 0.08538 0.0
O26 O 0.01316 0.59026 0.32017 0.0
O27 O 0.08981 0.55203 0.33885 0.0
O28 O 0.11717 0.55535 0.12176 0.0
O29 O 0.03546 0.55164 0.12703 0.0
O30 O 0.2002 0.62458 0.19339 0.0
O31 O 0.15244 0.6227 0.31043 0.0
H32 H 0.06008 0.71143 0.87188 0.0
H33 H 0.02803 0.69015 0.73156 0.0
H34 H 0.1527 0.57105 0.70157 0.0
H35 H 0.18619 0.59319 0.84071 0.0
H36 H 0.00988 0.51358 0.51285 0.0
H37 H 0.02717 0.54361 0.65719 0.0
H38 H 0.10659 0.68794 0.56605 0.0
H39 H 0.08588 0.66066 0.42241 0.0
Pr40 Pr 0.62247 0.89009 0.54478 0.0
Pr41 Pr 0.57895 0.92828 0.42563 0.0
C42 C 0.64804 0.86826 0.70488 0.0
C43 C 0.62636 0.88272 0.78793 0.0
C44 C 0.58102 0.85639 0.81963 0.0
C45 C 0.56237 0.86868 0.89956 0.0
C46 C 0.588 0.90834 0.94827 0.0
C47 C 0.63235 0.9357 0.91631 0.0
C48 C 0.65145 0.92295 0.83694 0.0
C49 C 0.63155 0.80021 0.4392 0.0
C50 C 0.49652 0.86266 0.51071 0.0
C51 C 0.54398 0.97378 0.28339 0.0
C52 C 0.54716 0.9529 0.19765 0.0
C53 C 0.53016 0.98535 0.13084 0.0
C54 C 0.5407 0.96883 1.04897 0.0
C55 C 0.56963 0.92079 1.03327 0.0
C56 C 0.58452 0.88698 0.09993 0.0
C57 C 0.5729 0.90271 0.18167 0.0
C58 C 0.57719 1.00399 0.56564 0.0
C59 C 0.69836 0.91586 0.3787 0.0
O60 O 0.66952 0.90799 0.66203 0.0
O61 O 0.6204 0.83493 0.65853 0.0
O62 O 0.59004 0.83016 0.44417 0.0
O63 O 0.67076 0.82309 0.47776 0.0
O64 O 0.51993 0.85856 0.43942 0.0
O65 O 0.52603 0.88521 0.56956 0.0
O66 O 0.51316 0.94715 0.33477 0.0
O67 O 0.58981 0.98538 0.31609 0.0
O68 O 0.61717 0.98206 0.53317 0.0
O69 O 0.53546 0.98577 0.52791 0.0
O70 O 0.7002 0.91282 0.46154 0.0
O71 O 0.65244 0.91471 0.34451 0.0
H72 H 0.56008 0.82598 0.78305 0.0
H73 H 0.52803 0.84725 0.92338 0.0
H74 H 0.6527 0.96636 0.95336 0.0
H75 H 0.68619 0.94422 0.81423 0.0
H76 H 0.50988 0.02383 0.14208 0.0
H77 H 0.52717 0.99379 0.99775 0.0
H78 H 0.60659 0.84947 0.08889 0.0
H79 H 0.58588 0.87675 0.23252 0.0
Pr80 Pr 0.32691 0.39009 0.61015 0.0
Pr81 Pr 0.37043 0.42828 0.72931 0.0
C82 C 0.30134 0.36826 0.45006 0.0
C83 C 0.32302 0.38272 0.367 0.0
C84 C 0.36835 0.35639 0.3353 0.0
C85 C 0.38701 0.36868 0.25537 0.0
C86 C 0.36137 0.40834 0.20667 0.0
C87 C 0.31702 0.4357 0.23863 0.0
C88 C 0.29793 0.42295 0.318 0.0
C89 C 0.31782 0.30021 0.71573 0.0
C90 C 0.45285 0.36266 0.64423 0.0
C91 C 0.40539 0.47378 0.87155 0.0
C92 C 0.40222 0.4529 0.95728 0.0
C93 C 0.41922 0.48535 1.0241 0.0
C94 C 0.40868 0.46883 0.10596 0.0
C95 C 0.37974 0.42079 0.12167 0.0
C96 C 0.36486 0.38698 1.05501 0.0
C97 C 0.37647 0.40271 0.97327 0.0
C98 C 0.37218 0.50399 0.5893 0.0
C99 C 0.25102 0.41586 0.77624 0.0
O100 O 0.27986 0.40799 0.4929 0.0
O101 O 0.32898 0.33493 0.49641 0.0
O102 O 0.35934 0.33016 0.71077 0.0
O103 O 0.27862 0.32309 0.67718 0.0
O104 O 0.42944 0.35856 0.71551 0.0
O105 O 0.42334 0.38521 0.58538 0.0
O106 O 0.43622 0.44715 0.82017 0.0
O107 O 0.35957 0.48538 0.83885 0.0
O108 O 0.33221 0.48206 0.62176 0.0
O109 O 0.41392 0.48577 0.62703 0.0
O110 O 0.24917 0.41282 0.69339 0.0
O111 O 0.29694 0.41471 0.81043 0.0
H112 H 0.3893 0.32598 0.37188 0.0
H113 H 0.42134 0.34725 0.23156 0.0
H114 H 0.29668 0.46636 0.20157 0.0
H115 H 0.26319 0.44422 0.34071 0.0
H116 H 0.43949 0.52383 1.01285 0.0
H117 H 0.42221 0.49379 0.15719 0.0
H118 H 0.34279 0.34947 1.06605 0.0
H119 H 0.3635 0.37675 0.92241 0.0
Pr120 Pr 0.82691 0.14732 1.04478 0.0
Pr121 Pr 0.87043 0.10913 0.92563 0.0
C122 C 0.80134 0.16914 0.20488 0.0
C123 C 0.82302 0.15469 0.28793 0.0
C124 C 0.86835 0.18101 0.31963 0.0
C125 C 0.88701 0.16872 0.39956 0.0
C126 C 0.86137 0.12907 0.44827 0.0
C127 C 0.81702 0.10171 0.41631 0.0
C128 C 0.79793 0.11446 0.33694 0.0
C129 C 0.81782 0.23719 0.9392 0.0
C130 C 0.95285 0.17475 1.01071 0.0
C131 C 0.90539 0.06363 0.78339 0.0
C132 C 0.90222 0.0845 0.69765 0.0
C133 C 0.91922 0.05206 0.63084 0.0
C134 C 0.90868 0.06858 0.54897 0.0
C135 C 0.87974 0.11662 0.53327 0.0
C136 C 0.86486 0.15043 0.59993 0.0
C137 C 0.87647 0.1347 0.68167 0.0
C138 C 0.87218 0.03342 1.06564 0.0
C139 C 0.75102 0.12155 0.8787 0.0
O140 O 0.77986 0.12941 0.16203 0.0
O141 O 0.82898 0.20247 0.15853 0.0
O142 O 0.85934 0.20725 0.94417 0.0
O143 O 0.77862 0.21432 0.97776 0.0
O144 O 0.92944 0.17885 0.93942 0.0
O145 O 0.92334 0.1522 1.06956 0.0
O146 O 0.93622 0.09026 0.83477 0.0
O147 O 0.85957 0.05203 0.81609 0.0
O148 O 0.83221 0.05535 1.03317 0.0
O149 O 0.91392 0.05164 1.02791 0.0
O150 O 0.74917 0.12458 0.96154 0.0
O151 O 0.79694 0.1227 0.84451 0.0
H152 H 0.8893 0.21143 0.28305 0.0
H153 H 0.92134 0.19015 0.42338 0.0
H154 H 0.79668 0.07105 0.45336 0.0
H155 H 0.76319 0.09319 0.31423 0.0
H156 H 0.93949 1.01358 0.64208 0.0
H157 H 0.92221 0.04361 0.49775 0.0
H158 H 0.84279 0.18794 0.58889 0.0
H159 H 0.8635 0.16066 0.73252 0.0
Pr160 Pr 0.1386 0.38768 1.00836 0.0
Pr161 Pr 0.08059 0.41784 0.87899 0.0
C162 C 0.17833 0.36881 0.16141 0.0
C163 C 0.15693 0.37814 0.24479 0.0
C164 C 0.18204 0.35579 0.3147 0.0
C165 C 0.16131 0.36505 0.39414 0.0
C166 C 0.11452 0.39546 0.40388 0.0
C167 C 0.08844 0.41605 0.33348 0.0
C168 C 0.10981 0.40791 0.2544 0.0
C169 C 0.14114 0.29888 0.89918 0.0
C170 C 0.01093 0.35902 1.00544 0.0
C171 C 0.03587 0.44268 0.73244 0.0
C172 C 0.05518 0.4324 0.64722 0.0
C173 C 0.02365 0.40359 0.59011 0.0
C174 C 0.0426 0.39201 0.51025 0.0
C175 C 0.094 0.40761 0.48758 0.0
C176 C 0.12581 0.43575 0.54484 0.0
C177 C 0.1065 0.44836 0.6238 0.0
C178 C 0.07768 0.49685 1.01317 0.0
C179 C 0.20381 0.41561 0.83239 0.0
O180 O 0.18914 0.41301 0.11828 0.0
O181 O 0.15352 0.33156 0.11805 0.0
O182 O 0.09995 0.32641 0.91637 0.0
O183 O 0.18268 0.32223 0.93006 0.0
O184 O 0.02639 0.35041 0.92942 0.0
O185 O 0.04602 0.38343 1.0541 0.0
O186 O 0.02276 0.39908 0.77499 0.0
O187 O 0.06218 0.47855 0.77659 0.0
O188 O 0.11854 0.47619 0.98076 0.0
O189 O 0.03609 0.47752 0.9758 0.0
O190 O 0.20841 0.41565 0.91509 0.0
O191 O 0.15719 0.40997 0.80022 0.0
H192 H 0.21773 0.33161 0.30786 0.0
H193 H 0.18154 0.3483 0.44793 0.0
H194 H 0.05224 0.43943 0.33989 0.0
H195 H 0.08963 0.42485 0.20071 0.0
H196 H -0.01532 0.38949 0.60754 0.0
H197 H 0.01758 0.37003 0.46677 0.0
H198 H 0.16543 0.4485 0.52811 0.0
H199 H 0.13198 0.47037 0.66645 0.0
Pr200 Pr 0.81078 0.88768 0.14657 0.0
Pr201 Pr 0.86878 0.91784 0.27594 0.0
C202 C 0.77105 0.86881 0.99353 0.0
C203 C 0.79245 0.87814 0.91015 0.0
C204 C 0.76734 0.85579 0.84024 0.0
C205 C 0.78806 0.86505 0.7608 0.0
C206 C 0.83485 0.89546 0.75106 0.0
C207 C 0.86093 0.91605 0.82146 0.0
C208 C 0.83956 0.90791 0.90054 0.0
C209 C 0.80824 0.79888 0.25575 0.0
C210 C 0.93845 0.85902 0.1495 0.0
C211 C 0.9135 0.94268 0.4225 0.0
C212 C 0.8942 0.9324 0.50771 0.0
C213 C 0.92572 0.90359 0.56482 0.0
C214 C 0.90677 0.89201 0.64468 0.0
C215 C 0.85538 0.90761 0.66736 0.0
C216 C 0.82356 0.93575 0.6101 0.0
C217 C 0.84287 0.94836 0.53114 0.0
C218 C 0.87169 0.99685 0.14177 0.0
C219 C 0.74557 0.91561 0.32255 0.0
O220 O 0.76024 0.91301 1.03666 0.0
O221 O 0.79585 0.83156 1.03689 0.0
O222 O 0.84943 0.82641 0.23857 0.0
O223 O 0.76669 0.82223 0.22487 0.0
O224 O 0.92299 0.85041 0.22551 0.0
O225 O 0.90336 0.88343 0.10083 0.0
O226 O 0.92661 0.89908 0.37994 0.0
O227 O 0.88719 0.97855 0.37834 0.0
O228 O 0.83084 0.97619 0.17417 0.0
O229 O 0.91328 0.97752 0.17914 0.0
O230 O 0.74097 0.91565 0.23985 0.0
O231 O 0.79219 0.90997 0.35471 0.0
H232 H 0.73165 0.83161 0.84708 0.0
H233 H 0.76784 0.8483 0.707 0.0
H234 H 0.89714 0.93943 0.81505 0.0
H235 H 0.85975 0.92485 0.95422 0.0
H236 H 0.96469 0.88949 0.5474 0.0
H237 H 0.9318 0.87003 0.68817 0.0
H238 H 0.78394 0.9485 0.62683 0.0
H239 H 0.81739 0.97037 0.48849 0.0
Pr240 Pr 0.31078 0.64973 0.50836 0.0
Pr241 Pr 0.36878 0.61957 0.37899 0.0
C242 C 0.27105 0.6686 0.66141 0.0
C243 C 0.29245 0.65926 0.74479 0.0
C244 C 0.26734 0.68162 0.8147 0.0
C245 C 0.28806 0.67235 0.89414 0.0
C246 C 0.33485 0.64195 0.90388 0.0
C247 C 0.36093 0.62136 0.83348 0.0
C248 C 0.33956 0.6295 0.7544 0.0
C249 C 0.30824 0.73853 0.39918 0.0
C250 C 0.43845 0.67839 0.50544 0.0
C251 C 0.4135 0.59473 0.23244 0.0
C252 C 0.3942 0.605 0.14722 0.0
C253 C 0.42572 0.63382 0.09011 0.0
C254 C 0.40677 0.6454 1.01025 0.0
C255 C 0.35538 0.6298 0.98758 0.0
C256 C 0.32356 0.60166 1.04484 0.0
C257 C 0.34287 0.58905 0.1238 0.0
C258 C 0.37169 0.54056 0.51317 0.0
C259 C 0.24557 0.6218 0.33239 0.0
O260 O 0.26024 0.6244 0.61828 0.0
O261 O 0.29585 0.70584 0.61805 0.0
O262 O 0.34943 0.711 0.41637 0.0
O263 O 0.26669 0.71517 0.43006 0.0
O264 O 0.42299 0.687 0.42942 0.0
O265 O 0.40336 0.65398 0.5541 0.0
O266 O 0.42661 0.63832 0.27499 0.0
O267 O 0.38719 0.55886 0.27659 0.0
O268 O 0.33084 0.56121 0.48076 0.0
O269 O 0.41328 0.55989 0.4758 0.0
O270 O 0.24097 0.62176 0.41509 0.0
O271 O 0.29219 0.62744 0.30022 0.0
H272 H 0.23165 0.7058 0.80786 0.0
H273 H 0.26784 0.6891 0.94793 0.0
H274 H 0.39714 0.59798 0.83989 0.0
H275 H 0.35975 0.61255 0.70071 0.0
H276 H 0.46469 0.64791 0.10754 0.0
H277 H 0.4318 0.66738 0.96677 0.0
H278 H 0.28394 0.58891 1.02811 0.0
H279 H 0.31739 0.56704 0.16645 0.0
Pr280 Pr 0.6386 0.14973 0.64657 0.0
Pr281 Pr 0.58059 0.11957 0.77594 0.0
C282 C 0.67833 0.1686 0.49353 0.0
C283 C 0.65693 0.15926 0.41015 0.0
C284 C 0.68204 0.18162 0.34024 0.0
C285 C 0.66131 0.17235 0.2608 0.0
C286 C 0.61452 0.14195 0.25106 0.0
C287 C 0.58844 0.12136 0.32146 0.0
C288 C 0.60981 0.1295 0.40054 0.0
C289 C 0.64114 0.23853 0.75575 0.0
C290 C 0.51093 0.17839 0.6495 0.0
C291 C 0.53587 0.09473 0.9225 0.0
C292 C 0.55518 0.105 1.00771 0.0
C293 C 0.52365 0.13382 1.06482 0.0
C294 C 0.5426 0.1454 0.14468 0.0
C295 C 0.594 0.1298 0.16736 0.0
C296 C 0.62581 0.10166 0.1101 0.0
C297 C 0.6065 0.08905 1.03114 0.0
C298 C 0.57768 0.04056 0.64177 0.0
C299 C 0.70381 0.1218 0.82255 0.0
O300 O 0.68914 0.1244 0.53666 0.0
O301 O 0.65352 0.20584 0.53689 0.0
O302 O 0.59995 0.211 0.73857 0.0
O303 O 0.68268 0.21517 0.72487 0.0
O304 O 0.52639 0.187 0.72551 0.0
O305 O 0.54602 0.15398 0.60083 0.0
O306 O 0.52276 0.13832 0.87994 0.0
O307 O 0.56218 0.05886 0.87834 0.0
O308 O 0.61854 0.06121 0.67417 0.0
O309 O 0.53609 0.05989 0.67914 0.0
O310 O 0.70841 0.12176 0.73985 0.0
O311 O 0.65719 0.12744 0.85471 0.0
H312 H 0.71773 0.2058 0.34708 0.0
H313 H 0.68154 0.1891 0.207 0.0
H314 H 0.55224 0.09798 0.31505 0.0
H315 H 0.58963 0.11255 0.45422 0.0
H316 H 0.48468 0.14791 1.0474 0.0
H317 H 0.51758 0.16738 0.18817 0.0
H318 H 0.66543 0.08891 0.12683 0.0
H319 H 0.63198 0.06704 0.98849 0.0
Pr320 Pr 0.8698 0.42687 0.92927 0.0
Pr321 Pr 0.82614 0.38744 1.04799 0.0
C322 C 0.90388 0.47197 0.78628 0.0
C323 C 0.89953 0.4503 0.701 0.0
C324 C 0.91236 0.48341 0.63276 0.0
C325 C 0.90004 0.46604 0.55194 0.0
C326 C 0.87319 0.41618 0.53813 0.0
C327 C 0.86263 0.38187 0.60661 0.0
C328 C 0.87597 0.39868 0.68728 0.0
C329 C 0.87201 0.5017 1.07086 0.0
C330 C 0.75041 0.41538 0.88228 0.0
C331 C 0.79898 0.36153 0.20637 0.0
C332 C 0.81707 0.37574 0.2915 0.0
C333 C 0.83937 0.33494 0.34254 0.0
C334 C 0.85783 0.34773 0.42246 0.0
C335 C 0.85389 0.40173 0.45328 0.0
C336 C 0.83002 0.4421 0.40303 0.0
C337 C 0.81212 0.42946 0.32294 0.0
C338 C 0.81774 0.29883 0.93938 0.0
C339 C 0.95224 0.36102 1.01297 0.0
O340 O 0.93508 0.44556 0.83742 0.0
O341 O 0.8585 0.48419 0.82 0.0
O342 O 0.83187 0.47973 1.03874 0.0
O343 O 0.91353 0.48433 1.03153 0.0
O344 O 0.74857 0.41161 0.96506 0.0
O345 O 0.7963 0.41415 0.8481 0.0
O346 O 0.77586 0.40006 0.16311 0.0
O347 O 0.83083 0.33169 0.16138 0.0
O348 O 0.85912 0.32866 0.94653 0.0
O349 O 0.77824 0.32143 0.97738 0.0
O350 O 0.92835 0.35661 0.94216 0.0
O351 O 0.92283 0.38344 1.07215 0.0
H352 H 0.93063 0.52317 0.64216 0.0
H353 H 0.9108 0.49189 0.50005 0.0
H354 H 0.84211 0.34314 0.59831 0.0
H355 H 0.86585 0.37236 0.73934 0.0
H356 H 0.84262 0.29314 0.32027 0.0
H357 H 0.87565 0.31551 0.45969 0.0
H358 H 0.82441 0.48342 0.42616 0.0
H359 H 0.79431 0.46182 0.286 0.0
Pr360 Pr 0.3698 0.11053 0.72567 0.0
Pr361 Pr 0.32614 0.14997 0.60695 0.0
C362 C 0.40388 0.06544 0.86865 0.0
C363 C 0.39953 0.08711 0.95393 0.0
C364 C 0.41236 0.054 1.02217 0.0
C365 C 0.40004 0.07137 0.10299 0.0
C366 C 0.37319 0.12122 0.11681 0.0
C367 C 0.36263 0.15554 1.04833 0.0
C368 C 0.37597 0.13873 0.96765 0.0
C369 C 0.37201 0.03571 0.58408 0.0
C370 C 0.25041 0.12202 0.77266 0.0
C371 C 0.29898 0.17588 0.44857 0.0
C372 C 0.31707 0.16167 0.36344 0.0
C373 C 0.33937 0.20247 0.3124 0.0
C374 C 0.35783 0.18968 0.23247 0.0
C375 C 0.35389 0.13568 0.20165 0.0
C376 C 0.33002 0.09531 0.25191 0.0
C377 C 0.31212 0.10795 0.33199 0.0
C378 C 0.31774 0.23857 0.71556 0.0
C379 C 0.45224 0.17639 0.64197 0.0
O380 O 0.43508 0.09184 0.81752 0.0
O381 O 0.3585 0.05322 0.83494 0.0
O382 O 0.33187 0.05768 0.61619 0.0
O383 O 0.41353 0.05307 0.6234 0.0
O384 O 0.24857 0.1258 0.68988 0.0
O385 O 0.2963 0.12326 0.80684 0.0
O386 O 0.27586 0.13735 0.49183 0.0
O387 O 0.33083 0.20571 0.49356 0.0
O388 O 0.35912 0.20874 0.7084 0.0
O389 O 0.27824 0.21597 0.67755 0.0
O390 O 0.42835 0.1808 0.71278 0.0
O391 O 0.42283 0.15397 0.58279 0.0
H392 H 0.43063 1.01423 1.01277 0.0
H393 H 0.4108 0.04552 0.15488 0.0
H394 H 0.34211 0.19427 1.05663 0.0
H395 H 0.36585 0.16505 0.91559 0.0
H396 H 0.34262 0.24427 0.33466 0.0
H397 H 0.37565 0.2219 0.19525 0.0
H398 H 0.32441 0.05398 0.22878 0.0
H399 H 0.29431 0.07559 0.36894 0.0
Pr400 Pr 0.57957 0.61053 0.42927 0.0
Pr401 Pr 0.62324 0.64997 0.54799 0.0
C402 C 0.54549 0.56544 0.28628 0.0
C403 C 0.54985 0.58711 0.201 0.0
C404 C 0.53701 0.554 0.13276 0.0
C405 C 0.54934 0.57137 1.05194 0.0
C406 C 0.57619 0.62122 1.03813 0.0
C407 C 0.58675 0.65554 0.10661 0.0
C408 C 0.5734 0.63873 0.18728 0.0
C409 C 0.57737 0.53571 0.57086 0.0
C410 C 0.69897 0.62202 0.38228 0.0
C411 C 0.65039 0.67588 0.70637 0.0
C412 C 0.63231 0.66167 0.7915 0.0
C413 C 0.61001 0.70247 0.84254 0.0
C414 C 0.59155 0.68968 0.92246 0.0
C415 C 0.59549 0.63568 0.95328 0.0
C416 C 0.61935 0.59531 0.90303 0.0
C417 C 0.63725 0.60795 0.82294 0.0
C418 C 0.63164 0.73857 0.43938 0.0
C419 C 0.49714 0.67639 0.51297 0.0
O420 O 0.5143 0.59184 0.33742 0.0
O421 O 0.59088 0.55322 0.32 0.0
O422 O 0.61751 0.55768 0.53874 0.0
O423 O 0.53585 0.55307 0.53153 0.0
O424 O 0.70081 0.6258 0.46506 0.0
O425 O 0.65307 0.62326 0.3481 0.0
O426 O 0.67351 0.63735 0.66311 0.0
O427 O 0.61855 0.70571 0.66138 0.0
O428 O 0.59026 0.70874 0.44653 0.0
O429 O 0.67113 0.71597 0.47738 0.0
O430 O 0.52103 0.6808 0.44216 0.0
O431 O 0.52655 0.65397 0.57215 0.0
H432 H 0.51875 0.51423 0.14216 0.0
H433 H 0.53858 0.54552 1.00005 0.0
H434 H 0.60726 0.69427 0.09831 0.0
H435 H 0.58353 0.66505 0.23934 0.0
H436 H 0.60676 0.74427 0.82027 0.0
H437 H 0.57372 0.7219 0.95969 0.0
H438 H 0.62497 0.55399 0.92616 0.0
H439 H 0.65506 0.57559 0.786 0.0
Pr440 Pr 0.07957 0.92687 0.22567 0.0
Pr441 Pr 0.12324 0.88744 0.10695 0.0
C442 C 0.04549 0.97197 0.36865 0.0
C443 C 0.04985 0.9503 0.45393 0.0
C444 C 0.03701 0.98341 0.52217 0.0
C445 C 0.04934 0.96604 0.60299 0.0
C446 C 0.07619 0.91618 0.61681 0.0
C447 C 0.08675 0.88187 0.54833 0.0
C448 C 0.0734 0.89868 0.46765 0.0
C449 C 0.07737 1.0017 0.08408 0.0
C450 C 0.19897 0.91538 0.27266 0.0
C451 C 0.15039 0.86153 0.94857 0.0
C452 C 0.13231 0.87574 0.86344 0.0
C453 C 0.11001 0.83494 0.8124 0.0
C454 C 0.09155 0.84773 0.73247 0.0
C455 C 0.09549 0.90173 0.70165 0.0
C456 C 0.11935 0.9421 0.75191 0.0
C457 C 0.13725 0.92946 0.83199 0.0
C458 C 0.13164 0.79883 0.21556 0.0
C459 C -0.00286 0.86102 0.14197 0.0
O460 O 0.0143 0.94556 0.31752 0.0
O461 O 0.09088 0.98419 0.33494 0.0
O462 O 0.11751 0.97973 0.11619 0.0
O463 O 0.03585 0.98433 0.1234 0.0
O464 O 0.20081 0.91161 0.18988 0.0
O465 O 0.15307 0.91415 0.30684 0.0
O466 O 0.17351 0.90006 0.99183 0.0
O467 O 0.11855 0.83169 0.99356 0.0
O468 O 0.09026 0.82866 0.2084 0.0
O469 O 0.17113 0.82143 0.17755 0.0
O470 O 0.02103 0.85661 0.21278 0.0
O471 O 0.02655 0.88344 0.08279 0.0
H472 H 0.01875 0.02317 0.51277 0.0
H473 H 0.03858 0.99189 0.65488 0.0
H474 H 0.10726 0.84314 0.55663 0.0
H475 H 0.08353 0.87236 0.41559 0.0
H476 H 0.10676 0.79314 0.83466 0.0
H477 H 0.07372 0.81551 0.69525 0.0
H478 H 0.12497 0.98342 0.72878 0.0
H479 H 0.15506 0.96182 0.86894 0.0
Pr480 Pr 0.86929 0.62019 0.27842 0.0
Pr481 Pr 0.81058 0.64853 0.14908 0.0
C482 C 0.91523 0.59835 0.42523 0.0
C483 C 0.8954 0.60837 0.51023 0.0
C484 C 0.92638 0.63732 0.56791 0.0
C485 C 0.90714 0.648 0.64791 0.0
C486 C 0.85589 0.63159 0.66997 0.0
C487 C 0.82437 0.60394 0.61184 0.0
C488 C 0.84399 0.59222 0.53281 0.0
C489 C 0.87181 0.53921 0.14625 0.0
C490 C 0.74608 0.62167 0.32593 0.0
C491 C 0.77023 0.66606 0.99618 0.0
C492 C 0.7917 0.65714 0.91279 0.0
C493 C 0.76705 0.68065 0.8434 0.0
C494 C 0.78834 0.67285 0.76401 0.0
C495 C 0.83507 0.64247 0.75381 0.0
C496 C 0.86063 0.62049 0.82372 0.0
C497 C 0.83881 0.62739 0.90278 0.0
C498 C 0.80836 0.73831 0.25645 0.0
C499 C 0.93786 0.678 0.15023 0.0
O500 O 0.92667 0.64211 0.38193 0.0
O501 O 0.89048 0.56115 0.38152 0.0
O502 O 0.83108 0.56028 0.17848 0.0
O503 O 0.91349 0.55927 0.18261 0.0
O504 O 0.7412 0.62105 0.2433 0.0
O505 O 0.79279 0.62768 0.35762 0.0
O506 O 0.76042 0.62172 1.03956 0.0
O507 O 0.79428 0.704 1.0392 0.0
O508 O 0.8495 0.71092 0.23865 0.0
O509 O 0.76665 0.71439 0.22712 0.0
O510 O 0.92196 0.68819 0.22548 0.0
O511 O 0.90303 0.65231 0.10266 0.0
H512 H 0.96515 0.65215 0.55085 0.0
H513 H 0.93178 0.6699 0.69199 0.0
H514 H 0.78476 0.59081 0.62796 0.0
H515 H 0.81865 0.57068 0.48956 0.0
H516 H 0.73161 0.7051 0.85075 0.0
H517 H 0.76869 0.69083 0.71061 0.0
H518 H 0.89679 0.59709 0.81689 0.0
H519 H 0.8587 0.60963 0.95615 0.0
Pr520 Pr 0.08009 0.12019 0.87652 0.0
Pr521 Pr 0.13879 0.14853 1.00585 0.0
C522 C 0.03415 0.09835 0.7297 0.0
C523 C 0.05398 0.10837 0.64471 0.0
C524 C 0.023 0.13732 0.58702 0.0
C525 C 0.04224 0.148 0.50703 0.0
C526 C 0.09349 0.13159 0.48497 0.0
C527 C 0.125 0.10394 0.5431 0.0
C528 C 0.10538 0.09222 0.62212 0.0
C529 C 0.07756 0.03921 1.00868 0.0
C530 C 0.2033 0.12167 0.829 0.0
C531 C 0.17914 0.16606 0.15876 0.0
C532 C 0.15767 0.15714 0.24215 0.0
C533 C 0.18233 0.18065 0.31154 0.0
C534 C 0.16104 0.17285 0.39092 0.0
C535 C 0.1143 0.14247 0.40112 0.0
C536 C 0.08875 0.12049 0.33121 0.0
C537 C 0.11057 0.12739 0.25215 0.0
C538 C 0.14101 0.23831 0.89848 0.0
C539 C 0.01151 0.178 1.00471 0.0
O540 O 0.0227 0.14211 0.77301 0.0
O541 O 0.0589 0.06115 0.77341 0.0
O542 O 0.1183 0.06028 0.97646 0.0
O543 O 0.03589 0.05927 0.97232 0.0
O544 O 0.20817 0.12105 0.91164 0.0
O545 O 0.15659 0.12768 0.79732 0.0
O546 O 0.18896 0.12172 0.11537 0.0
O547 O 0.1551 0.204 0.11573 0.0
O548 O 0.09988 0.21092 0.91629 0.0
O549 O 0.18272 0.21439 0.92781 0.0
O550 O 0.02742 0.18819 0.92945 0.0
O551 O 0.04634 0.15231 1.05228 0.0
H552 H -0.01578 0.15215 0.60408 0.0
H553 H 0.0176 0.1699 0.46294 0.0
H554 H 0.16461 0.09081 0.52698 0.0
H555 H 0.13073 0.07068 0.66537 0.0
H556 H 0.21777 0.2051 0.30418 0.0
H557 H 0.18069 0.19083 0.44432 0.0
H558 H 0.05258 0.09709 0.33805 0.0
H559 H 0.09068 0.10963 0.19879 0.0
Pr560 Pr 0.58009 0.41722 0.77842 0.0
Pr561 Pr 0.63879 0.38887 0.64908 0.0
C562 C 0.53415 0.43905 0.92523 0.0
C563 C 0.55398 0.42903 1.01023 0.0
C564 C 0.523 0.40009 1.06791 0.0
C565 C 0.54224 0.38941 0.14791 0.0
C566 C 0.59349 0.40581 0.16997 0.0
C567 C 0.625 0.43347 0.11184 0.0
C568 C 0.60538 0.44519 1.03281 0.0
C569 C 0.57756 0.4982 0.64625 0.0
C570 C 0.7033 0.41574 0.82593 0.0
C571 C 0.67914 0.37135 0.49618 0.0
C572 C 0.65767 0.38026 0.41279 0.0
C573 C 0.68233 0.35676 0.3434 0.0
C574 C 0.66104 0.36455 0.26401 0.0
C575 C 0.6143 0.39493 0.25381 0.0
C576 C 0.58875 0.41692 0.32372 0.0
C577 C 0.61057 0.41002 0.40278 0.0
C578 C 0.64101 0.2991 0.75645 0.0
C579 C 0.51151 0.35941 0.65023 0.0
O580 O 0.5227 0.3953 0.88193 0.0
O581 O 0.5589 0.47625 0.88152 0.0
O582 O 0.6183 0.47713 0.67848 0.0
O583 O 0.53589 0.47814 0.68261 0.0
O584 O 0.70817 0.41636 0.7433 0.0
O585 O 0.65659 0.40972 0.85762 0.0
O586 O 0.68896 0.41569 0.53956 0.0
O587 O 0.6551 0.33341 0.5392 0.0
O588 O 0.59988 0.32648 0.73865 0.0
O589 O 0.68272 0.32301 0.72712 0.0
O590 O 0.52742 0.34922 0.72548 0.0
O591 O 0.54634 0.3851 0.60266 0.0
H592 H 0.48422 0.38526 1.05085 0.0
H593 H 0.5176 0.36751 0.19199 0.0
H594 H 0.66461 0.44659 0.12796 0.0
H595 H 0.63073 0.46672 0.98956 0.0
H596 H 0.71777 0.3323 0.35075 0.0
H597 H 0.68069 0.34657 0.21061 0.0
H598 H 0.55258 0.44032 0.31689 0.0
H599 H 0.59068 0.42778 0.45615 0.0
Pr600 Pr 0.36929 0.91722 0.37652 0.0
Pr601 Pr 0.31058 0.88887 0.50585 0.0
C602 C 0.41523 0.93905 0.2297 0.0
C603 C 0.3954 0.92903 0.14471 0.0
C604 C 0.42638 0.90009 0.08702 0.0
C605 C 0.40714 0.88941 1.00703 0.0
C606 C 0.35589 0.90581 0.98497 0.0
C607 C 0.32437 0.93347 1.0431 0.0
C608 C 0.34399 0.94519 0.12212 0.0
C609 C 0.37181 0.9982 0.50868 0.0
C610 C 0.24608 0.91574 0.329 0.0
C611 C 0.27023 0.87135 0.65876 0.0
C612 C 0.2917 0.88026 0.74215 0.0
C613 C 0.26705 0.85676 0.81154 0.0
C614 C 0.28834 0.86455 0.89092 0.0
C615 C 0.33507 0.89493 0.90112 0.0
C616 C 0.36063 0.91692 0.83121 0.0
C617 C 0.33881 0.91002 0.75215 0.0
C618 C 0.30836 0.7991 0.39848 0.0
C619 C 0.43786 0.85941 0.50471 0.0
O620 O 0.42667 0.8953 0.27301 0.0
O621 O 0.39048 0.97625 0.27341 0.0
O622 O 0.33108 0.97713 0.47646 0.0
O623 O 0.41349 0.97814 0.47232 0.0
O624 O 0.2412 0.91636 0.41164 0.0
O625 O 0.29279 0.90972 0.29732 0.0
O626 O 0.26042 0.91569 0.61537 0.0
O627 O 0.29428 0.83341 0.61573 0.0
O628 O 0.3495 0.82648 0.41629 0.0
O629 O 0.26665 0.82301 0.42781 0.0
O630 O 0.42196 0.84922 0.42945 0.0
O631 O 0.40303 0.8851 0.55228 0.0
H632 H 0.46515 0.88526 0.10408 0.0
H633 H 0.43178 0.86751 0.96294 0.0
H634 H 0.28476 0.94659 1.02698 0.0
H635 H 0.31865 0.96672 0.16537 0.0
H636 H 0.23161 0.8323 0.80418 0.0
H637 H 0.26869 0.84657 0.94432 0.0
H638 H 0.39679 0.94032 0.83805 0.0
H639 H 0.3587 0.92778 0.69879 0.0
loop_
_geom_bond_atom_site_label_1
_geom_bond_atom_site_label_2
_geom_bond_distance
_geom_bond_site_symmetry_2
_ccdc_geom_bond_type
Pr0 C2 2.880 . S
Pr0 O20 2.562 . S
Pr0 O21 2.490 . S
Pr0 O22 2.695 1_556 S
Pr0 O23 2.512 1_556 S
Pr0 O25 2.437 . S
Pr0 O28 2.436 1_556 S
Pr0 O30 2.438 1_556 S
Pr1 C11 2.880 . S
Pr1 O22 2.436 . S
Pr1 O24 2.438 . S
Pr1 O26 2.562 . S
Pr1 O27 2.490 . S
Pr1 O28 2.695 . S
Pr1 O29 2.512 . S
Pr1 O31 2.437 . S
C2 Pr0 2.880 . S
C2 C3 1.491 . S
C2 O20 1.254 . S
C2 O21 1.225 . S
C3 C2 1.491 . S
C3 C4 1.392 . S
C3 C8 1.356 . S
C4 C3 1.392 . S
C4 C5 1.368 . S
C4 H32 0.929 . S
C5 C4 1.368 . S
C5 C6 1.386 . S
C5 H33 0.929 . S
C6 C5 1.386 . S
C6 C7 1.373 . S
C7 C6 1.373 . S
C7 C8 1.409 . S
C7 H34 0.931 . S
C8 C3 1.356 . S
C8 C7 1.409 . S
C8 H35 0.930 . S
C9 O22 1.270 . S
C9 O23 1.248 . S
C10 O24 1.267 . S
C10 O25 1.278 1_554 S
C11 Pr1 2.880 . S
C11 C12 1.491 . S
C11 O26 1.254 . S
C11 O27 1.225 . S
C12 C11 1.491 . S
C12 C13 1.392 . S
C12 C17 1.356 . S
C13 C12 1.392 . S
C13 C14 1.368 . S
C13 H36 0.929 . S
C14 C13 1.368 . S
C14 C15 1.386 . S
C14 H37 0.929 . S
C15 C14 1.386 . S
C15 C16 1.373 . S
C16 C15 1.373 . S
C16 C17 1.409 . S
C16 H38 0.931 . S
C17 C12 1.356 . S
C17 C16 1.409 . S
C17 H39 0.930 . S
C18 O28 1.270 . S
C18 O29 1.248 . S
C19 O30 1.267 . S
C19 O31 1.278 . S
O20 Pr0 2.562 . S
O20 C2 1.254 . S
O21 Pr0 2.490 . S
O21 C2 1.225 . S
O22 Pr0 2.695 1_554 S
O22 Pr1 2.436 . S
O22 C9 1.270 . S
O23 Pr0 2.512 1_554 S
O23 C9 1.248 . S
O24 Pr1 2.438 . S
O24 C10 1.267 . S
O25 Pr0 2.437 . S
O25 C10 1.278 1_556 S
O26 Pr1 2.562 . S
O26 C11 1.254 . S
O27 Pr1 2.490 . S
O27 C11 1.225 . S
O28 Pr0 2.436 1_554 S
O28 Pr1 2.695 . S
O28 C18 1.270 . S
O29 Pr1 2.512 . S
O29 C18 1.248 . S
O30 Pr0 2.438 1_554 S
O30 C19 1.267 . S
O31 Pr1 2.437 . S
O31 C19 1.278 . S
H32 C4 0.929 . S
H33 C5 0.929 . S
H34 C7 0.931 . S
H35 C8 0.930 . S
H36 C13 0.929 . S
H37 C14 0.929 . S
H38 C16 0.931 . S
H39 C17 0.930 . S
Pr40 C42 2.880 . S
Pr40 O60 2.562 . S
Pr40 O61 2.490 . S
Pr40 O62 2.695 . S
Pr40 O63 2.512 . S
Pr40 O65 2.437 . S
Pr40 O68 2.436 . S
Pr40 O70 2.438 . S
Pr41 C51 2.880 . S
Pr41 O62 2.436 . S
Pr41 O64 2.438 . S
Pr41 O66 2.562 . S
Pr41 O67 2.490 . S
Pr41 O68 2.695 . S
Pr41 O69 2.512 . S
Pr41 O71 2.437 . S
C42 Pr40 2.880 . S
C42 C43 1.491 . S
C42 O60 1.254 . S
C42 O61 1.225 . S
C43 C42 1.491 . S
C43 C44 1.392 . S
C43 C48 1.356 . S
C44 C43 1.392 . S
C44 C45 1.368 . S
C44 H72 0.929 . S
C45 C44 1.368 . S
C45 C46 1.386 . S
C45 H73 0.929 . S
C46 C45 1.386 . S
C46 C47 1.373 . S
C47 C46 1.373 . S
C47 C48 1.409 . S
C47 H74 0.931 . S
C48 C43 1.356 . S
C48 C47 1.409 . S
C48 H75 0.930 . S
C49 O62 1.270 . S
C49 O63 1.248 . S
C50 O64 1.267 . S
C50 O65 1.278 . S
C51 Pr41 2.880 . S
C51 C52 1.491 . S
C51 O66 1.254 . S
C51 O67 1.225 . S
C52 C51 1.491 . S
C52 C53 1.392 . S
C52 C57 1.356 . S
C53 C52 1.392 . S
C53 C54 1.368 1_554 S
C53 H76 0.929 . S
C54 C53 1.368 1_556 S
C54 C55 1.386 . S
C54 H77 0.929 . S
C55 C54 1.386 . S
C55 C56 1.373 . S
C56 C55 1.373 . S
C56 C57 1.409 1_556 S
C56 H78 0.931 . S
C57 C52 1.356 . S
C57 C56 1.409 1_554 S
C57 H79 0.930 . S
C58 O68 1.270 . S
C58 O69 1.248 . S
C59 O70 1.267 . S
C59 O71 1.278 . S
O60 Pr40 2.562 . S
O60 C42 1.254 . S
O61 Pr40 2.490 . S
O61 C42 1.225 . S
O62 Pr40 2.695 . S
O62 Pr41 2.436 . S
O62 C49 1.270 . S
O63 Pr40 2.512 . S
O63 C49 1.248 . S
O64 Pr41 2.438 . S
O64 C50 1.267 . S
O65 Pr40 2.437 . S
O65 C50 1.278 . S
O66 Pr41 2.562 . S
O66 C51 1.254 . S
O67 Pr41 2.490 . S
O67 C51 1.225 . S
O68 Pr40 2.436 . S
O68 Pr41 2.695 . S
O68 C58 1.270 . S
O69 Pr41 2.512 . S
O69 C58 1.248 . S
O70 Pr40 2.438 . S
O70 C59 1.267 . S
O71 Pr41 2.437 . S
O71 C59 1.278 . S
H72 C44 0.929 . S
H73 C45 0.929 . S
H74 C47 0.931 . S
H75 C48 0.930 . S
H76 C53 0.929 . S
H77 C54 0.929 . S
H78 C56 0.931 . S
H79 C57 0.930 . S
Pr80 C82 2.880 . S
Pr80 O100 2.562 . S
Pr80 O101 2.490 . S
Pr80 O102 2.695 . S
Pr80 O103 2.512 . S
Pr80 O105 2.437 . S
Pr80 O108 2.436 . S
Pr80 O110 2.438 . S
Pr81 C91 2.880 . S
Pr81 O102 2.436 . S
Pr81 O104 2.438 . S
Pr81 O106 2.562 . S
Pr81 O107 2.490 . S
Pr81 O108 2.695 . S
Pr81 O109 2.512 . S
Pr81 O111 2.437 . S
C82 Pr80 2.880 . S
C82 C83 1.491 . S
C82 O100 1.254 . S
C82 O101 1.225 . S
C83 C82 1.491 . S
C83 C84 1.392 . S
C83 C88 1.356 . S
C84 C83 1.392 . S
C84 C85 1.368 . S
C84 H112 0.929 . S
C85 C84 1.368 . S
C85 C86 1.386 . S
C85 H113 0.929 . S
C86 C85 1.386 . S
C86 C87 1.373 . S
C87 C86 1.373 . S
C87 C88 1.409 . S
C87 H114 0.931 . S
C88 C83 1.356 . S
C88 C87 1.409 . S
C88 H115 0.930 . S
C89 O102 1.270 . S
C89 O103 1.248 . S
C90 O104 1.267 . S
C90 O105 1.278 . S
C91 Pr81 2.880 . S
C91 C92 1.491 . S
C91 O106 1.254 . S
C91 O107 1.225 . S
C92 C91 1.491 . S
C92 C93 1.392 . S
C92 C97 1.356 . S
C93 C92 1.392 . S
C93 C94 1.368 1_556 S
C93 H116 0.929 . S
C94 C93 1.368 1_554 S
C94 C95 1.386 . S
C94 H117 0.929 . S
C95 C94 1.386 . S
C95 C96 1.373 . S
C96 C95 1.373 . S
C96 C97 1.409 1_554 S
C96 H118 0.931 . S
C97 C92 1.356 . S
C97 C96 1.409 1_556 S
C97 H119 0.930 . S
C98 O108 1.270 . S
C98 O109 1.248 . S
C99 O110 1.267 . S
C99 O111 1.278 . S
O100 Pr80 2.562 . S
O100 C82 1.254 . S
O101 Pr80 2.490 . S
O101 C82 1.225 . S
O102 Pr80 2.695 . S
O102 Pr81 2.436 . S
O102 C89 1.270 . S
O103 Pr80 2.512 . S
O103 C89 1.248 . S
O104 Pr81 2.438 . S
O104 C90 1.267 . S
O105 Pr80 2.437 . S
O105 C90 1.278 . S
O106 Pr81 2.562 . S
O106 C91 1.254 . S
O107 Pr81 2.490 . S
O107 C91 1.225 . S
O108 Pr80 2.436 . S
O108 Pr81 2.695 . S
O108 C98 1.270 . S
O109 Pr81 2.512 . S
O109 C98 1.248 . S
O110 Pr80 2.438 . S
O110 C99 1.267 . S
O111 Pr81 2.437 . S
O111 C99 1.278 . S
H112 C84 0.929 . S
H113 C85 0.929 . S
H114 C87 0.931 . S
H115 C88 0.930 . S
H116 C93 0.929 . S
H117 C94 0.929 . S
H118 C96 0.931 . S
H119 C97 0.930 . S
Pr120 C122 2.880 . S
Pr120 O140 2.562 . S
Pr120 O141 2.490 . S
Pr120 O142 2.695 1_554 S
Pr120 O143 2.512 1_554 S
Pr120 O145 2.437 . S
Pr120 O148 2.436 1_554 S
Pr120 O150 2.438 1_554 S
Pr121 C131 2.880 . S
Pr121 O142 2.436 . S
Pr121 O144 2.438 . S
Pr121 O146 2.562 . S
Pr121 O147 2.490 . S
Pr121 O148 2.695 . S
Pr121 O149 2.512 . S
Pr121 O151 2.437 . S
C122 Pr120 2.880 . S
C122 C123 1.491 . S
C122 O140 1.254 . S
C122 O141 1.225 . S
C123 C122 1.491 . S
C123 C124 1.392 . S
C123 C128 1.356 . S
C124 C123 1.392 . S
C124 C125 1.368 . S
C124 H152 0.929 . S
C125 C124 1.368 . S
C125 C126 1.386 . S
C125 H153 0.929 . S
C126 C125 1.386 . S
C126 C127 1.373 . S
C127 C126 1.373 . S
C127 C128 1.409 . S
C127 H154 0.931 . S
C128 C123 1.356 . S
C128 C127 1.409 . S
C128 H155 0.930 . S
C129 O142 1.270 . S
C129 O143 1.248 . S
C130 O144 1.267 . S
C130 O145 1.278 1_556 S
C131 Pr121 2.880 . S
C131 C132 1.491 . S
C131 O146 1.254 . S
C131 O147 1.225 . S
C132 C131 1.491 . S
C132 C133 1.392 . S
C132 C137 1.356 . S
C133 C132 1.392 . S
C133 C134 1.368 . S
C133 H156 0.929 . S
C134 C133 1.368 . S
C134 C135 1.386 . S
C134 H157 0.929 . S
C135 C134 1.386 . S
C135 C136 1.373 . S
C136 C135 1.373 . S
C136 C137 1.409 . S
C136 H158 0.931 . S
C137 C132 1.356 . S
C137 C136 1.409 . S
C137 H159 0.930 . S
C138 O148 1.270 . S
C138 O149 1.248 . S
C139 O150 1.267 . S
C139 O151 1.278 . S
O140 Pr120 2.562 . S
O140 C122 1.254 . S
O141 Pr120 2.490 . S
O141 C122 1.225 . S
O142 Pr120 2.695 1_556 S
O142 Pr121 2.436 . S
O142 C129 1.270 . S
O143 Pr120 2.512 1_556 S
O143 C129 1.248 . S
O144 Pr121 2.438 . S
O144 C130 1.267 . S
O145 Pr120 2.437 . S
O145 C130 1.278 1_554 S
O146 Pr121 2.562 . S
O146 C131 1.254 . S
O147 Pr121 2.490 . S
O147 C131 1.225 . S
O148 Pr120 2.436 1_556 S
O148 Pr121 2.695 . S
O148 C138 1.270 . S
O149 Pr121 2.512 . S
O149 C138 1.248 . S
O150 Pr120 2.438 1_556 S
O150 C139 1.267 . S
O151 Pr121 2.437 . S
O151 C139 1.278 . S
H152 C124 0.929 . S
H153 C125 0.929 . S
H154 C127 0.931 . S
H155 C128 0.930 . S
H156 C133 0.929 . S
H157 C134 0.929 . S
H158 C136 0.931 . S
H159 C137 0.930 . S
Pr160 C162 2.880 . S
Pr160 O180 2.562 . S
Pr160 O181 2.490 . S
Pr160 O182 2.695 1_554 S
Pr160 O183 2.512 1_554 S
Pr160 O185 2.437 . S
Pr160 O188 2.436 1_554 S
Pr160 O190 2.438 1_554 S
Pr161 C171 2.880 . S
Pr161 O182 2.436 . S
Pr161 O184 2.438 . S
Pr161 O186 2.562 . S
Pr161 O187 2.490 . S
Pr161 O188 2.695 . S
Pr161 O189 2.512 . S
Pr161 O191 2.437 . S
C162 Pr160 2.880 . S
C162 C163 1.491 . S
C162 O180 1.254 . S
C162 O181 1.225 . S
C163 C162 1.491 . S
C163 C164 1.392 . S
C163 C168 1.356 . S
C164 C163 1.392 . S
C164 C165 1.368 . S
C164 H192 0.929 . S
C165 C164 1.368 . S
C165 C166 1.386 . S
C165 H193 0.929 . S
C166 C165 1.386 . S
C166 C167 1.373 . S
C167 C166 1.373 . S
C167 C168 1.409 . S
C167 H194 0.931 . S
C168 C163 1.356 . S
C168 C167 1.409 . S
C168 H195 0.930 . S
C169 O182 1.270 . S
C169 O183 1.248 . S
C170 O184 1.267 . S
C170 O185 1.278 1_556 S
C171 Pr161 2.880 . S
C171 C172 1.491 . S
C171 O186 1.254 . S
C171 O187 1.225 . S
C172 C171 1.491 . S
C172 C173 1.392 . S
C172 C177 1.356 . S
C173 C172 1.392 . S
C173 C174 1.368 . S
C173 H196 0.929 . S
C174 C173 1.368 . S
C174 C175 1.386 . S
C174 H197 0.929 . S
C175 C174 1.386 . S
C175 C176 1.373 . S
C176 C175 1.373 . S
C176 C177 1.409 . S
C176 H198 0.931 . S
C177 C172 1.356 . S
C177 C176 1.409 . S
C177 H199 0.930 . S
C178 O188 1.270 . S
C178 O189 1.248 . S
C179 O190 1.267 . S
C179 O191 1.278 . S
O180 Pr160 2.562 . S
O180 C162 1.254 . S
O181 Pr160 2.490 . S
O181 C162 1.225 . S
O182 Pr160 2.695 1_556 S
O182 Pr161 2.436 . S
O182 C169 1.270 . S
O183 Pr160 2.512 1_556 S
O183 C169 1.248 . S
O184 Pr161 2.438 . S
O184 C170 1.267 . S
O185 Pr160 2.437 . S
O185 C170 1.278 1_554 S
O186 Pr161 2.562 . S
O186 C171 1.254 . S
O187 Pr161 2.490 . S
O187 C171 1.225 . S
O188 Pr160 2.436 1_556 S
O188 Pr161 2.695 . S
O188 C178 1.270 . S
O189 Pr161 2.512 . S
O189 C178 1.248 . S
O190 Pr160 2.438 1_556 S
O190 C179 1.267 . S
O191 Pr161 2.437 . S
O191 C179 1.278 . S
H192 C164 0.929 . S
H193 C165 0.929 . S
H194 C167 0.931 . S
H195 C168 0.930 . S
H196 C173 0.929 . S
H197 C174 0.929 . S
H198 C176 0.931 . S
H199 C177 0.930 . S
Pr200 C202 2.880 . S
Pr200 O220 2.562 . S
Pr200 O221 2.490 . S
Pr200 O222 2.695 1_556 S
Pr200 O223 2.512 1_556 S
Pr200 O225 2.437 . S
Pr200 O228 2.436 1_556 S
Pr200 O230 2.438 1_556 S
Pr201 C211 2.880 . S
Pr201 O222 2.436 . S
Pr201 O224 2.438 . S
Pr201 O226 2.562 . S
Pr201 O227 2.490 . S
Pr201 O228 2.695 . S
Pr201 O229 2.512 . S
Pr201 O231 2.437 . S
C202 Pr200 2.880 . S
C202 C203 1.491 . S
C202 O220 1.254 . S
C202 O221 1.225 . S
C203 C202 1.491 . S
C203 C204 1.392 . S
C203 C208 1.356 . S
C204 C203 1.392 . S
C204 C205 1.368 . S
C204 H232 0.929 . S
C205 C204 1.368 . S
C205 C206 1.386 . S
C205 H233 0.929 . S
C206 C205 1.386 . S
C206 C207 1.373 . S
C207 C206 1.373 . S
C207 C208 1.409 . S
C207 H234 0.931 . S
C208 C203 1.356 . S
C208 C207 1.409 . S
C208 H235 0.930 . S
C209 O222 1.270 . S
C209 O223 1.248 . S
C210 O224 1.267 . S
C210 O225 1.278 1_554 S
C211 Pr201 2.880 . S
C211 C212 1.491 . S
C211 O226 1.254 . S
C211 O227 1.225 . S
C212 C211 1.491 . S
C212 C213 1.392 . S
C212 C217 1.356 . S
C213 C212 1.392 . S
C213 C214 1.368 . S
C213 H236 0.929 . S
C214 C213 1.368 . S
C214 C215 1.386 . S
C214 H237 0.929 . S
C215 C214 1.386 . S
C215 C216 1.373 . S
C216 C215 1.373 . S
C216 C217 1.409 . S
C216 H238 0.931 . S
C217 C212 1.356 . S
C217 C216 1.409 . S
C217 H239 0.930 . S
C218 O228 1.270 . S
C218 O229 1.248 . S
C219 O230 1.267 . S
C219 O231 1.278 . S
O220 Pr200 2.562 . S
O220 C202 1.254 . S
O221 Pr200 2.490 . S
O221 C202 1.225 . S
O222 Pr200 2.695 1_554 S
O222 Pr201 2.436 . S
O222 C209 1.270 . S
O223 Pr200 2.512 1_554 S
O223 C209 1.248 . S
O224 Pr201 2.438 . S
O224 C210 1.267 . S
O225 Pr200 2.437 . S
O225 C210 1.278 1_556 S
O226 Pr201 2.562 . S
O226 C211 1.254 . S
O227 Pr201 2.490 . S
O227 C211 1.225 . S
O228 Pr200 2.436 1_554 S
O228 Pr201 2.695 . S
O228 C218 1.270 . S
O229 Pr201 2.512 . S
O229 C218 1.248 . S
O230 Pr200 2.438 1_554 S
O230 C219 1.267 . S
O231 Pr201 2.437 . S
O231 C219 1.278 . S
H232 C204 0.929 . S
H233 C205 0.929 . S
H234 C207 0.931 . S
H235 C208 0.930 . S
H236 C213 0.929 . S
H237 C214 0.929 . S
H238 C216 0.931 . S
H239 C217 0.930 . S
Pr240 C242 2.880 . S
Pr240 O260 2.562 . S
Pr240 O261 2.490 . S
Pr240 O262 2.695 . S
Pr240 O263 2.512 . S
Pr240 O265 2.437 . S
Pr240 O268 2.436 . S
Pr240 O270 2.438 . S
Pr241 C251 2.880 . S
Pr241 O262 2.436 . S
Pr241 O264 2.438 . S
Pr241 O266 2.562 . S
Pr241 O267 2.490 . S
Pr241 O268 2.695 . S
Pr241 O269 2.512 . S
Pr241 O271 2.437 . S
C242 Pr240 2.880 . S
C242 C243 1.491 . S
C242 O260 1.254 . S
C242 O261 1.225 . S
C243 C242 1.491 . S
C243 C244 1.392 . S
C243 C248 1.356 . S
C244 C243 1.392 . S
C244 C245 1.368 . S
C244 H272 0.929 . S
C245 C244 1.368 . S
C245 C246 1.386 . S
C245 H273 0.929 . S
C246 C245 1.386 . S
C246 C247 1.373 . S
C247 C246 1.373 . S
C247 C248 1.409 . S
C247 H274 0.931 . S
C248 C243 1.356 . S
C248 C247 1.409 . S
C248 H275 0.930 . S
C249 O262 1.270 . S
C249 O263 1.248 . S
C250 O264 1.267 . S
C250 O265 1.278 . S
C251 Pr241 2.880 . S
C251 C252 1.491 . S
C251 O266 1.254 . S
C251 O267 1.225 . S
C252 C251 1.491 . S
C252 C253 1.392 . S
C252 C257 1.356 . S
C253 C252 1.392 . S
C253 C254 1.368 1_554 S
C253 H276 0.929 . S
C254 C253 1.368 1_556 S
C254 C255 1.386 . S
C254 H277 0.929 . S
C255 C254 1.386 . S
C255 C256 1.373 . S
C256 C255 1.373 . S
C256 C257 1.409 1_556 S
C256 H278 0.931 . S
C257 C252 1.356 . S
C257 C256 1.409 1_554 S
C257 H279 0.930 . S
C258 O268 1.270 . S
C258 O269 1.248 . S
C259 O270 1.267 . S
C259 O271 1.278 . S
O260 Pr240 2.562 . S
O260 C242 1.254 . S
O261 Pr240 2.490 . S
O261 C242 1.225 . S
O262 Pr240 2.695 . S
O262 Pr241 2.436 . S
O262 C249 1.270 . S
O263 Pr240 2.512 . S
O263 C249 1.248 . S
O264 Pr241 2.438 . S
O264 C250 1.267 . S
O265 Pr240 2.437 . S
O265 C250 1.278 . S
O266 Pr241 2.562 . S
O266 C251 1.254 . S
O267 Pr241 2.490 . S
O267 C251 1.225 . S
O268 Pr240 2.436 . S
O268 Pr241 2.695 . S
O268 C258 1.270 . S
O269 Pr241 2.512 . S
O269 C258 1.248 . S
O270 Pr240 2.438 . S
O270 C259 1.267 . S
O271 Pr241 2.437 . S
O271 C259 1.278 . S
H272 C244 0.929 . S
H273 C245 0.929 . S
H274 C247 0.931 . S
H275 C248 0.930 . S
H276 C253 0.929 . S
H277 C254 0.929 . S
H278 C256 0.931 . S
H279 C257 0.930 . S
Pr280 C282 2.880 . S
Pr280 O300 2.562 . S
Pr280 O301 2.490 . S
Pr280 O302 2.695 . S
Pr280 O303 2.512 . S
Pr280 O305 2.437 . S
Pr280 O308 2.436 . S
Pr280 O310 2.438 . S
Pr281 C291 2.880 . S
Pr281 O302 2.436 . S
Pr281 O304 2.438 . S
Pr281 O306 2.562 . S
Pr281 O307 2.490 . S
Pr281 O308 2.695 . S
Pr281 O309 2.512 . S
Pr281 O311 2.437 . S
C282 Pr280 2.880 . S
C282 C283 1.491 . S
C282 O300 1.254 . S
C282 O301 1.225 . S
C283 C282 1.491 . S
C283 C284 1.392 . S
C283 C288 1.356 . S
C284 C283 1.392 . S
C284 C285 1.368 . S
C284 H312 0.929 . S
C285 C284 1.368 . S
C285 C286 1.386 . S
C285 H313 0.929 . S
C286 C285 1.386 . S
C286 C287 1.373 . S
C287 C286 1.373 . S
C287 C288 1.409 . S
C287 H314 0.931 . S
C288 C283 1.356 . S
C288 C287 1.409 . S
C288 H315 0.930 . S
C289 O302 1.270 . S
C289 O303 1.248 . S
C290 O304 1.267 . S
C290 O305 1.278 . S
C291 Pr281 2.880 . S
C291 C292 1.491 . S
C291 O306 1.254 . S
C291 O307 1.225 . S
C292 C291 1.491 . S
C292 C293 1.392 . S
C292 C297 1.356 . S
C293 C292 1.392 . S
C293 C294 1.368 1_556 S
C293 H316 0.929 . S
C294 C293 1.368 1_554 S
C294 C295 1.386 . S
C294 H317 0.929 . S
C295 C294 1.386 . S
C295 C296 1.373 . S
C296 C295 1.373 . S
C296 C297 1.409 1_554 S
C296 H318 0.931 . S
C297 C292 1.356 . S
C297 C296 1.409 1_556 S
C297 H319 0.930 . S
C298 O308 1.270 . S
C298 O309 1.248 . S
C299 O310 1.267 . S
C299 O311 1.278 . S
O300 Pr280 2.562 . S
O300 C282 1.254 . S
O301 Pr280 2.490 . S
O301 C282 1.225 . S
O302 Pr280 2.695 . S
O302 Pr281 2.436 . S
O302 C289 1.270 . S
O303 Pr280 2.512 . S
O303 C289 1.248 . S
O304 Pr281 2.438 . S
O304 C290 1.267 . S
O305 Pr280 2.437 . S
O305 C290 1.278 . S
O306 Pr281 2.562 . S
O306 C291 1.254 . S
O307 Pr281 2.490 . S
O307 C291 1.225 . S
O308 Pr280 2.436 . S
O308 Pr281 2.695 . S
O308 C298 1.270 . S
O309 Pr281 2.512 . S
O309 C298 1.248 . S
O310 Pr280 2.438 . S
O310 C299 1.267 . S
O311 Pr281 2.437 . S
O311 C299 1.278 . S
H312 C284 0.929 . S
H313 C285 0.929 . S
H314 C287 0.931 . S
H315 C288 0.930 . S
H316 C293 0.929 . S
H317 C294 0.929 . S
H318 C296 0.931 . S
H319 C297 0.930 . S
Pr320 C322 2.880 . S
Pr320 O340 2.562 . S
Pr320 O341 2.490 . S
Pr320 O342 2.695 . S
Pr320 O343 2.512 . S
Pr320 O345 2.437 . S
Pr320 O348 2.436 . S
Pr320 O350 2.438 . S
Pr321 C331 2.880 . S
Pr321 O342 2.436 1_554 S
Pr321 O344 2.438 1_554 S
Pr321 O346 2.562 . S
Pr321 O347 2.490 . S
Pr321 O348 2.695 1_554 S
Pr321 O349 2.512 1_554 S
Pr321 O351 2.437 . S
C322 Pr320 2.880 . S
C322 C323 1.491 . S
C322 O340 1.254 . S
C322 O341 1.225 . S
C323 C322 1.491 . S
C323 C324 1.392 . S
C323 C328 1.356 . S
C324 C323 1.392 . S
C324 C325 1.368 . S
C324 H352 0.929 . S
C325 C324 1.368 . S
C325 C326 1.386 . S
C325 H353 0.929 . S
C326 C325 1.386 . S
C326 C327 1.373 . S
C327 C326 1.373 . S
C327 C328 1.409 . S
C327 H354 0.931 . S
C328 C323 1.356 . S
C328 C327 1.409 . S
C328 H355 0.930 . S
C329 O342 1.270 . S
C329 O343 1.248 . S
C330 O344 1.267 . S
C330 O345 1.278 . S
C331 Pr321 2.880 . S
C331 C332 1.491 . S
C331 O346 1.254 . S
C331 O347 1.225 . S
C332 C331 1.491 . S
C332 C333 1.392 . S
C332 C337 1.356 . S
C333 C332 1.392 . S
C333 C334 1.368 . S
C333 H356 0.929 . S
C334 C333 1.368 . S
C334 C335 1.386 . S
C334 H357 0.929 . S
C335 C334 1.386 . S
C335 C336 1.373 . S
C336 C335 1.373 . S
C336 C337 1.409 . S
C336 H358 0.931 . S
C337 C332 1.356 . S
C337 C336 1.409 . S
C337 H359 0.930 . S
C338 O348 1.270 . S
C338 O349 1.248 . S
C339 O350 1.267 . S
C339 O351 1.278 1_556 S
O340 Pr320 2.562 . S
O340 C322 1.254 . S
O341 Pr320 2.490 . S
O341 C322 1.225 . S
O342 Pr320 2.695 . S
O342 Pr321 2.436 1_556 S
O342 C329 1.270 . S
O343 Pr320 2.512 . S
O343 C329 1.248 . S
O344 Pr321 2.438 1_556 S
O344 C330 1.267 . S
O345 Pr320 2.437 . S
O345 C330 1.278 . S
O346 Pr321 2.562 . S
O346 C331 1.254 . S
O347 Pr321 2.490 . S
O347 C331 1.225 . S
O348 Pr320 2.436 . S
O348 Pr321 2.695 1_556 S
O348 C338 1.270 . S
O349 Pr321 2.512 1_556 S
O349 C338 1.248 . S
O350 Pr320 2.438 . S
O350 C339 1.267 . S
O351 Pr321 2.437 . S
O351 C339 1.278 1_554 S
H352 C324 0.929 . S
H353 C325 0.929 . S
H354 C327 0.931 . S
H355 C328 0.930 . S
H356 C333 0.929 . S
H357 C334 0.929 . S
H358 C336 0.931 . S
H359 C337 0.930 . S
Pr360 C362 2.880 . S
Pr360 O380 2.562 . S
Pr360 O381 2.490 . S
Pr360 O382 2.695 . S
Pr360 O383 2.512 . S
Pr360 O385 2.437 . S
Pr360 O388 2.436 . S
Pr360 O390 2.438 . S
Pr361 C371 2.880 . S
Pr361 O382 2.436 . S
Pr361 O384 2.438 . S
Pr361 O386 2.562 . S
Pr361 O387 2.490 . S
Pr361 O388 2.695 . S
Pr361 O389 2.512 . S
Pr361 O391 2.437 . S
C362 Pr360 2.880 . S
C362 C363 1.491 . S
C362 O380 1.254 . S
C362 O381 1.225 . S
C363 C362 1.491 . S
C363 C364 1.392 . S
C363 C368 1.356 . S
C364 C363 1.392 . S
C364 C365 1.368 1_556 S
C364 H392 0.929 . S
C365 C364 1.368 1_554 S
C365 C366 1.386 . S
C365 H393 0.929 . S
C366 C365 1.386 . S
C366 C367 1.373 . S
C367 C366 1.373 . S
C367 C368 1.409 1_554 S
C367 H394 0.931 . S
C368 C363 1.356 . S
C368 C367 1.409 1_556 S
C368 H395 0.930 . S
C369 O382 1.270 . S
C369 O383 1.248 . S
C370 O384 1.267 . S
C370 O385 1.278 . S
C371 Pr361 2.880 . S
C371 C372 1.491 . S
C371 O386 1.254 . S
C371 O387 1.225 . S
C372 C371 1.491 . S
C372 C373 1.392 . S
C372 C377 1.356 . S
C373 C372 1.392 . S
C373 C374 1.368 . S
C373 H396 0.929 . S
C374 C373 1.368 . S
C374 C375 1.386 . S
C374 H397 0.929 . S
C375 C374 1.386 . S
C375 C376 1.373 . S
C376 C375 1.373 . S
C376 C377 1.409 . S
C376 H398 0.931 . S
C377 C372 1.356 . S
C377 C376 1.409 . S
C377 H399 0.930 . S
C378 O388 1.270 . S
C378 O389 1.248 . S
C379 O390 1.267 . S
C379 O391 1.278 . S
O380 Pr360 2.562 . S
O380 C362 1.254 . S
O381 Pr360 2.490 . S
O381 C362 1.225 . S
O382 Pr360 2.695 . S
O382 Pr361 2.436 . S
O382 C369 1.270 . S
O383 Pr360 2.512 . S
O383 C369 1.248 . S
O384 Pr361 2.438 . S
O384 C370 1.267 . S
O385 Pr360 2.437 . S
O385 C370 1.278 . S
O386 Pr361 2.562 . S
O386 C371 1.254 . S
O387 Pr361 2.490 . S
O387 C371 1.225 . S
O388 Pr360 2.436 . S
O388 Pr361 2.695 . S
O388 C378 1.270 . S
O389 Pr361 2.512 . S
O389 C378 1.248 . S
O390 Pr360 2.438 . S
O390 C379 1.267 . S
O391 Pr361 2.437 . S
O391 C379 1.278 . S
H392 C364 0.929 . S
H393 C365 0.929 . S
H394 C367 0.931 . S
H395 C368 0.930 . S
H396 C373 0.929 . S
H397 C374 0.929 . S
H398 C376 0.931 . S
H399 C377 0.930 . S
Pr400 C402 2.880 . S
Pr400 O420 2.562 . S
Pr400 O421 2.490 . S
Pr400 O422 2.695 . S
Pr400 O423 2.512 . S
Pr400 O425 2.437 . S
Pr400 O428 2.436 . S
Pr400 O430 2.438 . S
Pr401 C411 2.880 . S
Pr401 O422 2.436 . S
Pr401 O424 2.438 . S
Pr401 O426 2.562 . S
Pr401 O427 2.490 . S
Pr401 O428 2.695 . S
Pr401 O429 2.512 . S
Pr401 O431 2.437 . S
C402 Pr400 2.880 . S
C402 C403 1.491 . S
C402 O420 1.254 . S
C402 O421 1.225 . S
C403 C402 1.491 . S
C403 C404 1.392 . S
C403 C408 1.356 . S
C404 C403 1.392 . S
C404 C405 1.368 1_554 S
C404 H432 0.929 . S
C405 C404 1.368 1_556 S
C405 C406 1.386 . S
C405 H433 0.929 . S
C406 C405 1.386 . S
C406 C407 1.373 . S
C407 C406 1.373 . S
C407 C408 1.409 1_556 S
C407 H434 0.931 . S
C408 C403 1.356 . S
C408 C407 1.409 1_554 S
C408 H435 0.930 . S
C409 O422 1.270 . S
C409 O423 1.248 . S
C410 O424 1.267 . S
C410 O425 1.278 . S
C411 Pr401 2.880 . S
C411 C412 1.491 . S
C411 O426 1.254 . S
C411 O427 1.225 . S
C412 C411 1.491 . S
C412 C413 1.392 . S
C412 C417 1.356 . S
C413 C412 1.392 . S
C413 C414 1.368 . S
C413 H436 0.929 . S
C414 C413 1.368 . S
C414 C415 1.386 . S
C414 H437 0.929 . S
C415 C414 1.386 . S
C415 C416 1.373 . S
C416 C415 1.373 . S
C416 C417 1.409 . S
C416 H438 0.931 . S
C417 C412 1.356 . S
C417 C416 1.409 . S
C417 H439 0.930 . S
C418 O428 1.270 . S
C418 O429 1.248 . S
C419 O430 1.267 . S
C419 O431 1.278 . S
O420 Pr400 2.562 . S
O420 C402 1.254 . S
O421 Pr400 2.490 . S
O421 C402 1.225 . S
O422 Pr400 2.695 . S
O422 Pr401 2.436 . S
O422 C409 1.270 . S
O423 Pr400 2.512 . S
O423 C409 1.248 . S
O424 Pr401 2.438 . S
O424 C410 1.267 . S
O425 Pr400 2.437 . S
O425 C410 1.278 . S
O426 Pr401 2.562 . S
O426 C411 1.254 . S
O427 Pr401 2.490 . S
O427 C411 1.225 . S
O428 Pr400 2.436 . S
O428 Pr401 2.695 . S
O428 C418 1.270 . S
O429 Pr401 2.512 . S
O429 C418 1.248 . S
O430 Pr400 2.438 . S
O430 C419 1.267 . S
O431 Pr401 2.437 . S
O431 C419 1.278 . S
H432 C404 0.929 . S
H433 C405 0.929 . S
H434 C407 0.931 . S
H435 C408 0.930 . S
H436 C413 0.929 . S
H437 C414 0.929 . S
H438 C416 0.931 . S
H439 C417 0.930 . S
Pr440 C442 2.880 . S
Pr440 O460 2.562 . S
Pr440 O461 2.490 . S
Pr440 O462 2.695 . S
Pr440 O463 2.512 . S
Pr440 O465 2.437 . S
Pr440 O468 2.436 . S
Pr440 O470 2.438 . S
Pr441 C451 2.880 . S
Pr441 O462 2.436 1_556 S
Pr441 O464 2.438 1_556 S
Pr441 O466 2.562 . S
Pr441 O467 2.490 . S
Pr441 O468 2.695 1_556 S
Pr441 O469 2.512 1_556 S
Pr441 O471 2.437 . S
C442 Pr440 2.880 . S
C442 C443 1.491 . S
C442 O460 1.254 . S
C442 O461 1.225 . S
C443 C442 1.491 . S
C443 C444 1.392 . S
C443 C448 1.356 . S
C444 C443 1.392 . S
C444 C445 1.368 . S
C444 H472 0.929 . S
C445 C444 1.368 . S
C445 C446 1.386 . S
C445 H473 0.929 . S
C446 C445 1.386 . S
C446 C447 1.373 . S
C447 C446 1.373 . S
C447 C448 1.409 . S
C447 H474 0.931 . S
C448 C443 1.356 . S
C448 C447 1.409 . S
C448 H475 0.930 . S
C449 O462 1.270 . S
C449 O463 1.248 . S
C450 O464 1.267 . S
C450 O465 1.278 . S
C451 Pr441 2.880 . S
C451 C452 1.491 . S
C451 O466 1.254 . S
C451 O467 1.225 . S
C452 C451 1.491 . S
C452 C453 1.392 . S
C452 C457 1.356 . S
C453 C452 1.392 . S
C453 C454 1.368 . S
C453 H476 0.929 . S
C454 C453 1.368 . S
C454 C455 1.386 . S
C454 H477 0.929 . S
C455 C454 1.386 . S
C455 C456 1.373 . S
C456 C455 1.373 . S
C456 C457 1.409 . S
C456 H478 0.931 . S
C457 C452 1.356 . S
C457 C456 1.409 . S
C457 H479 0.930 . S
C458 O468 1.270 . S
C458 O469 1.248 . S
C459 O470 1.267 . S
C459 O471 1.278 1_554 S
O460 Pr440 2.562 . S
O460 C442 1.254 . S
O461 Pr440 2.490 . S
O461 C442 1.225 . S
O462 Pr440 2.695 . S
O462 Pr441 2.436 1_554 S
O462 C449 1.270 . S
O463 Pr440 2.512 . S
O463 C449 1.248 . S
O464 Pr441 2.438 1_554 S
O464 C450 1.267 . S
O465 Pr440 2.437 . S
O465 C450 1.278 . S
O466 Pr441 2.562 . S
O466 C451 1.254 . S
O467 Pr441 2.490 . S
O467 C451 1.225 . S
O468 Pr440 2.436 . S
O468 Pr441 2.695 1_554 S
O468 C458 1.270 . S
O469 Pr441 2.512 1_554 S
O469 C458 1.248 . S
O470 Pr440 2.438 . S
O470 C459 1.267 . S
O471 Pr441 2.437 . S
O471 C459 1.278 1_556 S
H472 C444 0.929 . S
H473 C445 0.929 . S
H474 C447 0.931 . S
H475 C448 0.930 . S
H476 C453 0.929 . S
H477 C454 0.929 . S
H478 C456 0.931 . S
H479 C457 0.930 . S
Pr480 C482 2.880 . S
Pr480 O500 2.562 . S
Pr480 O501 2.490 . S
Pr480 O502 2.695 . S
Pr480 O503 2.512 . S
Pr480 O505 2.437 . S
Pr480 O508 2.436 . S
Pr480 O510 2.438 . S
Pr481 C491 2.880 . S
Pr481 O502 2.436 1_556 S
Pr481 O504 2.438 1_556 S
Pr481 O506 2.562 . S
Pr481 O507 2.490 . S
Pr481 O508 2.695 1_556 S
Pr481 O509 2.512 1_556 S
Pr481 O511 2.437 . S
C482 Pr480 2.880 . S
C482 C483 1.491 . S
C482 O500 1.254 . S
C482 O501 1.225 . S
C483 C482 1.491 . S
C483 C484 1.392 . S
C483 C488 1.356 . S
C484 C483 1.392 . S
C484 C485 1.368 . S
C484 H512 0.929 . S
C485 C484 1.368 . S
C485 C486 1.386 . S
C485 H513 0.929 . S
C486 C485 1.386 . S
C486 C487 1.373 . S
C487 C486 1.373 . S
C487 C488 1.409 . S
C487 H514 0.931 . S
C488 C483 1.356 . S
C488 C487 1.409 . S
C488 H515 0.930 . S
C489 O502 1.270 . S
C489 O503 1.248 . S
C490 O504 1.267 . S
C490 O505 1.278 . S
C491 Pr481 2.880 . S
C491 C492 1.491 . S
C491 O506 1.254 . S
C491 O507 1.225 . S
C492 C491 1.491 . S
C492 C493 1.392 . S
C492 C497 1.356 . S
C493 C492 1.392 . S
C493 C494 1.368 . S
C493 H516 0.929 . S
C494 C493 1.368 . S
C494 C495 1.386 . S
C494 H517 0.929 . S
C495 C494 1.386 . S
C495 C496 1.373 . S
C496 C495 1.373 . S
C496 C497 1.409 . S
C496 H518 0.931 . S
C497 C492 1.356 . S
C497 C496 1.409 . S
C497 H519 0.930 . S
C498 O508 1.270 . S
C498 O509 1.248 . S
C499 O510 1.267 . S
C499 O511 1.278 1_554 S
O500 Pr480 2.562 . S
O500 C482 1.254 . S
O501 Pr480 2.490 . S
O501 C482 1.225 . S
O502 Pr480 2.695 . S
O502 Pr481 2.436 1_554 S
O502 C489 1.270 . S
O503 Pr480 2.512 . S
O503 C489 1.248 . S
O504 Pr481 2.438 1_554 S
O504 C490 1.267 . S
O505 Pr480 2.437 . S
O505 C490 1.278 . S
O506 Pr481 2.562 . S
O506 C491 1.254 . S
O507 Pr481 2.490 . S
O507 C491 1.225 . S
O508 Pr480 2.436 . S
O508 Pr481 2.695 1_554 S
O508 C498 1.270 . S
O509 Pr481 2.512 1_554 S
O509 C498 1.248 . S
O510 Pr480 2.438 . S
O510 C499 1.267 . S
O511 Pr481 2.437 . S
O511 C499 1.278 1_556 S
H512 C484 0.929 . S
H513 C485 0.929 . S
H514 C487 0.931 . S
H515 C488 0.930 . S
H516 C493 0.929 . S
H517 C494 0.929 . S
H518 C496 0.931 . S
H519 C497 0.930 . S
Pr520 C522 2.880 . S
Pr520 O540 2.562 . S
Pr520 O541 2.490 . S
Pr520 O542 2.695 . S
Pr520 O543 2.512 . S
Pr520 O545 2.437 . S
Pr520 O548 2.436 . S
Pr520 O550 2.438 . S
Pr521 C531 2.880 . S
Pr521 O542 2.436 1_554 S
Pr521 O544 2.438 1_554 S
Pr521 O546 2.562 . S
Pr521 O547 2.490 . S
Pr521 O548 2.695 1_554 S
Pr521 O549 2.512 1_554 S
Pr521 O551 2.437 . S
C522 Pr520 2.880 . S
C522 C523 1.491 . S
C522 O540 1.254 . S
C522 O541 1.225 . S
C523 C522 1.491 . S
C523 C524 1.392 . S
C523 C528 1.356 . S
C524 C523 1.392 . S
C524 C525 1.368 . S
C524 H552 0.929 . S
C525 C524 1.368 . S
C525 C526 1.386 . S
C525 H553 0.929 . S
C526 C525 1.386 . S
C526 C527 1.373 . S
C527 C526 1.373 . S
C527 C528 1.409 . S
C527 H554 0.931 . S
C528 C523 1.356 . S
C528 C527 1.409 . S
C528 H555 0.930 . S
C529 O542 1.270 . S
C529 O543 1.248 . S
C530 O544 1.267 . S
C530 O545 1.278 . S
C531 Pr521 2.880 . S
C531 C532 1.491 . S
C531 O546 1.254 . S
C531 O547 1.225 . S
C532 C531 1.491 . S
C532 C533 1.392 . S
C532 C537 1.356 . S
C533 C532 1.392 . S
C533 C534 1.368 . S
C533 H556 0.929 . S
C534 C533 1.368 . S
C534 C535 1.386 . S
C534 H557 0.929 . S
C535 C534 1.386 . S
C535 C536 1.373 . S
C536 C535 1.373 . S
C536 C537 1.409 . S
C536 H558 0.931 . S
C537 C532 1.356 . S
C537 C536 1.409 . S
C537 H559 0.930 . S
C538 O548 1.270 . S
C538 O549 1.248 . S
C539 O550 1.267 . S
C539 O551 1.278 1_556 S
O540 Pr520 2.562 . S
O540 C522 1.254 . S
O541 Pr520 2.490 . S
O541 C522 1.225 . S
O542 Pr520 2.695 . S
O542 Pr521 2.436 1_556 S
O542 C529 1.270 . S
O543 Pr520 2.512 . S
O543 C529 1.248 . S
O544 Pr521 2.438 1_556 S
O544 C530 1.267 . S
O545 Pr520 2.437 . S
O545 C530 1.278 . S
O546 Pr521 2.562 . S
O546 C531 1.254 . S
O547 Pr521 2.490 . S
O547 C531 1.225 . S
O548 Pr520 2.436 . S
O548 Pr521 2.695 1_556 S
O548 C538 1.270 . S
O549 Pr521 2.512 1_556 S
O549 C538 1.248 . S
O550 Pr520 2.438 . S
O550 C539 1.267 . S
O551 Pr521 2.437 . S
O551 C539 1.278 1_554 S
H552 C524 0.929 . S
H553 C525 0.929 . S
H554 C527 0.931 . S
H555 C528 0.930 . S
H556 C533 0.929 . S
H557 C534 0.929 . S
H558 C536 0.931 . S
H559 C537 0.930 . S
Pr560 C562 2.880 . S
Pr560 O580 2.562 . S
Pr560 O581 2.490 . S
Pr560 O582 2.695 . S
Pr560 O583 2.512 . S
Pr560 O585 2.437 . S
Pr560 O588 2.436 . S
Pr560 O590 2.438 . S
Pr561 C571 2.880 . S
Pr561 O582 2.436 . S
Pr561 O584 2.438 . S
Pr561 O586 2.562 . S
Pr561 O587 2.490 . S
Pr561 O588 2.695 . S
Pr561 O589 2.512 . S
Pr561 O591 2.437 . S
C562 Pr560 2.880 . S
C562 C563 1.491 . S
C562 O580 1.254 . S
C562 O581 1.225 . S
C563 C562 1.491 . S
C563 C564 1.392 . S
C563 C568 1.356 . S
C564 C563 1.392 . S
C564 C565 1.368 1_556 S
C564 H592 0.929 . S
C565 C564 1.368 1_554 S
C565 C566 1.386 . S
C565 H593 0.929 . S
C566 C565 1.386 . S
C566 C567 1.373 . S
C567 C566 1.373 . S
C567 C568 1.409 1_554 S
C567 H594 0.931 . S
C568 C563 1.356 . S
C568 C567 1.409 1_556 S
C568 H595 0.930 . S
C569 O582 1.270 . S
C569 O583 1.248 . S
C570 O584 1.267 . S
C570 O585 1.278 . S
C571 Pr561 2.880 . S
C571 C572 1.491 . S
C571 O586 1.254 . S
C571 O587 1.225 . S
C572 C571 1.491 . S
C572 C573 1.392 . S
C572 C577 1.356 . S
C573 C572 1.392 . S
C573 C574 1.368 . S
C573 H596 0.929 . S
C574 C573 1.368 . S
C574 C575 1.386 . S
C574 H597 0.929 . S
C575 C574 1.386 . S
C575 C576 1.373 . S
C576 C575 1.373 . S
C576 C577 1.409 . S
C576 H598 0.931 . S
C577 C572 1.356 . S
C577 C576 1.409 . S
C577 H599 0.930 . S
C578 O588 1.270 . S
C578 O589 1.248 . S
C579 O590 1.267 . S
C579 O591 1.278 . S
O580 Pr560 2.562 . S
O580 C562 1.254 . S
O581 Pr560 2.490 . S
O581 C562 1.225 . S
O582 Pr560 2.695 . S
O582 Pr561 2.436 . S
O582 C569 1.270 . S
O583 Pr560 2.512 . S
O583 C569 1.248 . S
O584 Pr561 2.438 . S
O584 C570 1.267 . S
O585 Pr560 2.437 . S
O585 C570 1.278 . S
O586 Pr561 2.562 . S
O586 C571 1.254 . S
O587 Pr561 2.490 . S
O587 C571 1.225 . S
O588 Pr560 2.436 . S
O588 Pr561 2.695 . S
O588 C578 1.270 . S
O589 Pr561 2.512 . S
O589 C578 1.248 . S
O590 Pr560 2.438 . S
O590 C579 1.267 . S
O591 Pr561 2.437 . S
O591 C579 1.278 . S
H592 C564 0.929 . S
H593 C565 0.929 . S
H594 C567 0.931 . S
H595 C568 0.930 . S
H596 C573 0.929 . S
H597 C574 0.929 . S
H598 C576 0.931 . S
H599 C577 0.930 . S
Pr600 C602 2.880 . S
Pr600 O620 2.562 . S
Pr600 O621 2.490 . S
Pr600 O622 2.695 . S
Pr600 O623 2.512 . S
Pr600 O625 2.437 . S
Pr600 O628 2.436 . S
Pr600 O630 2.438 . S
Pr601 C611 2.880 . S
Pr601 O622 2.436 . S
Pr601 O624 2.438 . S
Pr601 O626 2.562 . S
Pr601 O627 2.490 . S
Pr601 O628 2.695 . S
Pr601 O629 2.512 . S
Pr601 O631 2.437 . S
C602 Pr600 2.880 . S
C602 C603 1.491 . S
C602 O620 1.254 . S
C602 O621 1.225 . S
C603 C602 1.491 . S
C603 C604 1.392 . S
C603 C608 1.356 . S
C604 C603 1.392 . S
C604 C605 1.368 1_554 S
C604 H632 0.929 . S
C605 C604 1.368 1_556 S
C605 C606 1.386 . S
C605 H633 0.929 . S
C606 C605 1.386 . S
C606 C607 1.373 . S
C607 C606 1.373 . S
C607 C608 1.409 1_556 S
C607 H634 0.931 . S
C608 C603 1.356 . S
C608 C607 1.409 1_554 S
C608 H635 0.930 . S
C609 O622 1.270 . S
C609 O623 1.248 . S
C610 O624 1.267 . S
C610 O625 1.278 . S
C611 Pr601 2.880 . S
C611 C612 1.491 . S
C611 O626 1.254 . S
C611 O627 1.225 . S
C612 C611 1.491 . S
C612 C613 1.392 . S
C612 C617 1.356 . S
C613 C612 1.392 . S
C613 C614 1.368 . S
C613 H636 0.929 . S
C614 C613 1.368 . S
C614 C615 1.386 . S
C614 H637 0.929 . S
C615 C614 1.386 . S
C615 C616 1.373 . S
C616 C615 1.373 . S
C616 C617 1.409 . S
C616 H638 0.931 . S
C617 C612 1.356 . S
C617 C616 1.409 . S
C617 H639 0.930 . S
C618 O628 1.270 . S
C618 O629 1.248 . S
C619 O630 1.267 . S
C619 O631 1.278 . S
O620 Pr600 2.562 . S
O620 C602 1.254 . S
O621 Pr600 2.490 . S
O621 C602 1.225 . S
O622 Pr600 2.695 . S
O622 Pr601 2.436 . S
O622 C609 1.270 . S
O623 Pr600 2.512 . S
O623 C609 1.248 . S
O624 Pr601 2.438 . S
O624 C610 1.267 . S
O625 Pr600 2.437 . S
O625 C610 1.278 . S
O626 Pr601 2.562 . S
O626 C611 1.254 . S
O627 Pr601 2.490 . S
O627 C611 1.225 . S
O628 Pr600 2.436 . S
O628 Pr601 2.695 . S
O628 C618 1.270 . S
O629 Pr601 2.512 . S
O629 C618 1.248 . S
O630 Pr600 2.438 . S
O630 C619 1.267 . S
O631 Pr601 2.437 . S
O631 C619 1.278 . S
H632 C604 0.929 . S
H633 C605 0.929 . S
H634 C607 0.931 . S
H635 C608 0.930 . S
H636 C613 0.929 . S
H637 C614 0.929 . S
H638 C616 0.931 . S
H639 C617 0.930 . S
C6 C15 2.031 . S
C55 C46 2.031 . S
C86 C95 2.031 . S
C135 C126 2.031 . S
C166 C175 2.031 . S
C206 C215 2.031 . S
C246 C255 2.031 . S
C295 C286 2.031 . S
C335 C326 2.031 . S
C375 C366 2.031 . S
C406 C415 2.031 . S
C446 C455 2.031 . S
C495 C486 2.031 . S
C526 C535 2.031 . S
C575 C566 2.031 . S
C606 C615 2.031 . S
C9 C458 1.369 . S
C50 C619 2.521 . S
C89 C378 1.369 . S
C130 C539 2.521 1_655 S
C169 C538 1.369 . S
C459 C210 2.521 1_455 S
C249 C618 1.369 . S
C290 C379 2.521 . S
C129 C338 1.369 . S
C49 C418 1.369 . S
C498 C209 1.369 . S
C289 C578 1.369 . S
C339 C170 2.521 1_655 S
C250 C419 2.521 . S
C90 C579 2.521 . S
C10 C499 2.521 1_455 S
C18 C178 2.842 1_554 S
C59 C219 3.629 . S
C98 C258 2.842 . S
C139 C299 3.629 . S
C489 C329 2.842 1_554 S
C530 C370 3.629 . S
C409 C569 2.842 . S
C610 C450 3.629 . S
C58 C298 2.842 1_565 S
C179 C99 3.629 . S
C218 C138 2.842 1_564 S
C19 C259 3.629 . S
C609 C369 2.842 1_565 S
C490 C410 3.629 . S
C529 C449 2.842 1_546 S
C570 C330 3.629 . S
