# Generated by pormake.
# Topology uli, (4)-cn, num edge types: 1
# Building blocks:
#     Node 0, Type 0, BuildingBlock: AZAVOO_clean_sbu_0, # of connection points: 4
#     Node 1, Type 0, BuildingBlock: AZAVOO_clean_sbu_0, # of connection points: 4
#     Node 2, Type 0, BuildingBlock: AZAVOO_clean_sbu_0, # of connection points: 4
#     Node 3, Type 0, BuildingBlock: AZAVOO_clean_sbu_0, # of connection points: 4
#     Node 4, Type 0, BuildingBlock: AZAVOO_clean_sbu_0, # of connection points: 4
#     Node 5, Type 0, BuildingBlock: AZAVOO_clean_sbu_0, # of connection points: 4
#     Node 6, Type 0, BuildingBlock: AZAVOO_clean_sbu_0, # of connection points: 4
#     Node 7, Type 0, BuildingBlock: AZAVOO_clean_sbu_0, # of connection points: 4
#     Node 8, Type 0, BuildingBlock: AZAVOO_clean_sbu_0, # of connection points: 4
#     Node 9, Type 0, BuildingBlock: AZAVOO_clean_sbu_0, # of connection points: 4
#     Node 10, Type 0, BuildingBlock: AZAVOO_clean_sbu_0, # of connection points: 4
#     Node 11, Type 0, BuildingBlock: AZAVOO_clean_sbu_0, # of connection points: 4
#     Node 12, Type 0, BuildingBlock: AZAVOO_clean_sbu_0, # of connection points: 4
#     Node 13, Type 0, BuildingBlock: AZAVOO_clean_sbu_0, # of connection points: 4
#     Node 14, Type 0, BuildingBlock: AZAVOO_clean_sbu_0, # of connection points: 4
#     Node 15, Type 0, BuildingBlock: AZAVOO_clean_sbu_0, # of connection points: 4
#     Node 16, Type 0, BuildingBlock: AZAVOO_clean_sbu_0, # of connection points: 4
#     Node 17, Type 0, BuildingBlock: AZAVOO_clean_sbu_0, # of connection points: 4
#     Node 18, Type 0, BuildingBlock: AZAVOO_clean_sbu_0, # of connection points: 4
#     Node 19, Type 0, BuildingBlock: AZAVOO_clean_sbu_0, # of connection points: 4
#     Node 20, Type 0, BuildingBlock: AZAVOO_clean_sbu_0, # of connection points: 4
#     Node 21, Type 0, BuildingBlock: AZAVOO_clean_sbu_0, # of connection points: 4
#     Node 22, Type 0, BuildingBlock: AZAVOO_clean_sbu_0, # of connection points: 4
#     Node 23, Type 0, BuildingBlock: AZAVOO_clean_sbu_0, # of connection points: 4
#     Node 24, Type 0, BuildingBlock: AZAVOO_clean_sbu_0, # of connection points: 4
#     Node 25, Type 0, BuildingBlock: AZAVOO_clean_sbu_0, # of connection points: 4
#     Node 26, Type 0, BuildingBlock: AZAVOO_clean_sbu_0, # of connection points: 4
#     Node 27, Type 0, BuildingBlock: AZAVOO_clean_sbu_0, # of connection points: 4
#     Node 28, Type 0, BuildingBlock: AZAVOO_clean_sbu_0, # of connection points: 4
#     Node 29, Type 0, BuildingBlock: AZAVOO_clean_sbu_0, # of connection points: 4
#     Node 30, Type 0, BuildingBlock: AZAVOO_clean_sbu_0, # of connection points: 4
#     Node 31, Type 0, BuildingBlock: AZAVOO_clean_sbu_0, # of connection points: 4
#     Node 32, Type 0, BuildingBlock: AZAVOO_clean_sbu_0, # of connection points: 4
#     Node 33, Type 0, BuildingBlock: AZAVOO_clean_sbu_0, # of connection points: 4
#     Node 34, Type 0, BuildingBlock: AZAVOO_clean_sbu_0, # of connection points: 4
#     Node 35, Type 0, BuildingBlock: AZAVOO_clean_sbu_0, # of connection points: 4
#     Node 36, Type 0, BuildingBlock: AZAVOO_clean_sbu_0, # of connection points: 4
#     Node 37, Type 0, BuildingBlock: AZAVOO_clean_sbu_0, # of connection points: 4
#     Node 38, Type 0, BuildingBlock: AZAVOO_clean_sbu_0, # of connection points: 4
#     Node 39, Type 0, BuildingBlock: AZAVOO_clean_sbu_0, # of connection points: 4
#     Node 40, Type 0, BuildingBlock: AZAVOO_clean_sbu_0, # of connection points: 4
#     Node 41, Type 0, BuildingBlock: AZAVOO_clean_sbu_0, # of connection points: 4
#     Node 42, Type 0, BuildingBlock: AZAVOO_clean_sbu_0, # of connection points: 4
#     Node 43, Type 0, BuildingBlock: AZAVOO_clean_sbu_0, # of connection points: 4
#     Node 44, Type 0, BuildingBlock: AZAVOO_clean_sbu_0, # of connection points: 4
#     Node 45, Type 0, BuildingBlock: AZAVOO_clean_sbu_0, # of connection points: 4
#     Node 46, Type 0, BuildingBlock: AZAVOO_clean_sbu_0, # of connection points: 4
#     Node 47, Type 0, BuildingBlock: AZAVOO_clean_sbu_0, # of connection points: 4
#     Edge 48, Type (0, 0), BuildingBlock: XUDNAN_clean_linker_2, # of connection points: 2
#     Edge 49, Type (0, 0), BuildingBlock: XUDNAN_clean_linker_2, # of connection points: 2
#     Edge 50, Type (0, 0), BuildingBlock: XUDNAN_clean_linker_2, # of connection points: 2
#     Edge 51, Type (0, 0), BuildingBlock: XUDNAN_clean_linker_2, # of connection points: 2
#     Edge 52, Type (0, 0), BuildingBlock: XUDNAN_clean_linker_2, # of connection points: 2
#     Edge 53, Type (0, 0), BuildingBlock: XUDNAN_clean_linker_2, # of connection points: 2
#     Edge 54, Type (0, 0), BuildingBlock: XUDNAN_clean_linker_2, # of connection points: 2
#     Edge 55, Type (0, 0), BuildingBlock: XUDNAN_clean_linker_2, # of connection points: 2
#     Edge 56, Type (0, 0), BuildingBlock: XUDNAN_clean_linker_2, # of connection points: 2
#     Edge 57, Type (0, 0), BuildingBlock: XUDNAN_clean_linker_2, # of connection points: 2
#     Edge 58, Type (0, 0), BuildingBlock: XUDNAN_clean_linker_2, # of connection points: 2
#     Edge 59, Type (0, 0), BuildingBlock: XUDNAN_clean_linker_2, # of connection points: 2
#     Edge 60, Type (0, 0), BuildingBlock: XUDNAN_clean_linker_2, # of connection points: 2
#     Edge 61, Type (0, 0), BuildingBlock: XUDNAN_clean_linker_2, # of connection points: 2
#     Edge 62, Type (0, 0), BuildingBlock: XUDNAN_clean_linker_2, # of connection points: 2
#     Edge 63, Type (0, 0), BuildingBlock: XUDNAN_clean_linker_2, # of connection points: 2
#     Edge 64, Type (0, 0), BuildingBlock: XUDNAN_clean_linker_2, # of connection points: 2
#     Edge 65, Type (0, 0), BuildingBlock: XUDNAN_clean_linker_2, # of connection points: 2
#     Edge 66, Type (0, 0), BuildingBlock: XUDNAN_clean_linker_2, # of connection points: 2
#     Edge 67, Type (0, 0), BuildingBlock: XUDNAN_clean_linker_2, # of connection points: 2
#     Edge 68, Type (0, 0), BuildingBlock: XUDNAN_clean_linker_2, # of connection points: 2
#     Edge 69, Type (0, 0), BuildingBlock: XUDNAN_clean_linker_2, # of connection points: 2
#     Edge 70, Type (0, 0), BuildingBlock: XUDNAN_clean_linker_2, # of connection points: 2
#     Edge 71, Type (0, 0), BuildingBlock: XUDNAN_clean_linker_2, # of connection points: 2
#     Edge 72, Type (0, 0), BuildingBlock: XUDNAN_clean_linker_2, # of connection points: 2
#     Edge 73, Type (0, 0), BuildingBlock: XUDNAN_clean_linker_2, # of connection points: 2
#     Edge 74, Type (0, 0), BuildingBlock: XUDNAN_clean_linker_2, # of connection points: 2
#     Edge 75, Type (0, 0), BuildingBlock: XUDNAN_clean_linker_2, # of connection points: 2
#     Edge 76, Type (0, 0), BuildingBlock: XUDNAN_clean_linker_2, # of connection points: 2
#     Edge 77, Type (0, 0), BuildingBlock: XUDNAN_clean_linker_2, # of connection points: 2
#     Edge 78, Type (0, 0), BuildingBlock: XUDNAN_clean_linker_2, # of connection points: 2
#     Edge 79, Type (0, 0), BuildingBlock: XUDNAN_clean_linker_2, # of connection points: 2
#     Edge 80, Type (0, 0), BuildingBlock: XUDNAN_clean_linker_2, # of connection points: 2
#     Edge 81, Type (0, 0), BuildingBlock: XUDNAN_clean_linker_2, # of connection points: 2
#     Edge 82, Type (0, 0), BuildingBlock: XUDNAN_clean_linker_2, # of connection points: 2
#     Edge 83, Type (0, 0), BuildingBlock: XUDNAN_clean_linker_2, # of connection points: 2
#     Edge 84, Type (0, 0), BuildingBlock: XUDNAN_clean_linker_2, # of connection points: 2
#     Edge 85, Type (0, 0), BuildingBlock: XUDNAN_clean_linker_2, # of connection points: 2
#     Edge 86, Type (0, 0), BuildingBlock: XUDNAN_clean_linker_2, # of connection points: 2
#     Edge 87, Type (0, 0), BuildingBlock: XUDNAN_clean_linker_2, # of connection points: 2
#     Edge 88, Type (0, 0), BuildingBlock: XUDNAN_clean_linker_2, # of connection points: 2
#     Edge 89, Type (0, 0), BuildingBlock: XUDNAN_clean_linker_2, # of connection points: 2
#     Edge 90, Type (0, 0), BuildingBlock: XUDNAN_clean_linker_2, # of connection points: 2
#     Edge 91, Type (0, 0), BuildingBlock: XUDNAN_clean_linker_2, # of connection points: 2
#     Edge 92, Type (0, 0), BuildingBlock: XUDNAN_clean_linker_2, # of connection points: 2
#     Edge 93, Type (0, 0), BuildingBlock: XUDNAN_clean_linker_2, # of connection points: 2
#     Edge 94, Type (0, 0), BuildingBlock: XUDNAN_clean_linker_2, # of connection points: 2
#     Edge 95, Type (0, 0), BuildingBlock: XUDNAN_clean_linker_2, # of connection points: 2
#     Edge 96, Type (0, 0), BuildingBlock: XUDNAN_clean_linker_2, # of connection points: 2
#     Edge 97, Type (0, 0), BuildingBlock: XUDNAN_clean_linker_2, # of connection points: 2
#     Edge 98, Type (0, 0), BuildingBlock: XUDNAN_clean_linker_2, # of connection points: 2
#     Edge 99, Type (0, 0), BuildingBlock: XUDNAN_clean_linker_2, # of connection points: 2
#     Edge 100, Type (0, 0), BuildingBlock: XUDNAN_clean_linker_2, # of connection points: 2
#     Edge 101, Type (0, 0), BuildingBlock: XUDNAN_clean_linker_2, # of connection points: 2
#     Edge 102, Type (0, 0), BuildingBlock: XUDNAN_clean_linker_2, # of connection points: 2
#     Edge 103, Type (0, 0), BuildingBlock: XUDNAN_clean_linker_2, # of connection points: 2
#     Edge 104, Type (0, 0), BuildingBlock: XUDNAN_clean_linker_2, # of connection points: 2
#     Edge 105, Type (0, 0), BuildingBlock: XUDNAN_clean_linker_2, # of connection points: 2
#     Edge 106, Type (0, 0), BuildingBlock: XUDNAN_clean_linker_2, # of connection points: 2
#     Edge 107, Type (0, 0), BuildingBlock: XUDNAN_clean_linker_2, # of connection points: 2
#     Edge 108, Type (0, 0), BuildingBlock: XUDNAN_clean_linker_2, # of connection points: 2
#     Edge 109, Type (0, 0), BuildingBlock: XUDNAN_clean_linker_2, # of connection points: 2
#     Edge 110, Type (0, 0), BuildingBlock: XUDNAN_clean_linker_2, # of connection points: 2
#     Edge 111, Type (0, 0), BuildingBlock: XUDNAN_clean_linker_2, # of connection points: 2
#     Edge 112, Type (0, 0), BuildingBlock: XUDNAN_clean_linker_2, # of connection points: 2
#     Edge 113, Type (0, 0), BuildingBlock: XUDNAN_clean_linker_2, # of connection points: 2
#     Edge 114, Type (0, 0), BuildingBlock: XUDNAN_clean_linker_2, # of connection points: 2
#     Edge 115, Type (0, 0), BuildingBlock: XUDNAN_clean_linker_2, # of connection points: 2
#     Edge 116, Type (0, 0), BuildingBlock: XUDNAN_clean_linker_2, # of connection points: 2
#     Edge 117, Type (0, 0), BuildingBlock: XUDNAN_clean_linker_2, # of connection points: 2
#     Edge 118, Type (0, 0), BuildingBlock: XUDNAN_clean_linker_2, # of connection points: 2
#     Edge 119, Type (0, 0), BuildingBlock: XUDNAN_clean_linker_2, # of connection points: 2
#     Edge 120, Type (0, 0), BuildingBlock: XUDNAN_clean_linker_2, # of connection points: 2
#     Edge 121, Type (0, 0), BuildingBlock: XUDNAN_clean_linker_2, # of connection points: 2
#     Edge 122, Type (0, 0), BuildingBlock: XUDNAN_clean_linker_2, # of connection points: 2
#     Edge 123, Type (0, 0), BuildingBlock: XUDNAN_clean_linker_2, # of connection points: 2
#     Edge 124, Type (0, 0), BuildingBlock: XUDNAN_clean_linker_2, # of connection points: 2
#     Edge 125, Type (0, 0), BuildingBlock: XUDNAN_clean_linker_2, # of connection points: 2
#     Edge 126, Type (0, 0), BuildingBlock: XUDNAN_clean_linker_2, # of connection points: 2
#     Edge 127, Type (0, 0), BuildingBlock: XUDNAN_clean_linker_2, # of connection points: 2
#     Edge 128, Type (0, 0), BuildingBlock: XUDNAN_clean_linker_2, # of connection points: 2
#     Edge 129, Type (0, 0), BuildingBlock: XUDNAN_clean_linker_2, # of connection points: 2
#     Edge 130, Type (0, 0), BuildingBlock: XUDNAN_clean_linker_2, # of connection points: 2
#     Edge 131, Type (0, 0), BuildingBlock: XUDNAN_clean_linker_2, # of connection points: 2
#     Edge 132, Type (0, 0), BuildingBlock: XUDNAN_clean_linker_2, # of connection points: 2
#     Edge 133, Type (0, 0), BuildingBlock: XUDNAN_clean_linker_2, # of connection points: 2
#     Edge 134, Type (0, 0), BuildingBlock: XUDNAN_clean_linker_2, # of connection points: 2
#     Edge 135, Type (0, 0), BuildingBlock: XUDNAN_clean_linker_2, # of connection points: 2
#     Edge 136, Type (0, 0), BuildingBlock: XUDNAN_clean_linker_2, # of connection points: 2
#     Edge 137, Type (0, 0), BuildingBlock: XUDNAN_clean_linker_2, # of connection points: 2
#     Edge 138, Type (0, 0), BuildingBlock: XUDNAN_clean_linker_2, # of connection points: 2
#     Edge 139, Type (0, 0), BuildingBlock: XUDNAN_clean_linker_2, # of connection points: 2
#     Edge 140, Type (0, 0), BuildingBlock: XUDNAN_clean_linker_2, # of connection points: 2
#     Edge 141, Type (0, 0), BuildingBlock: XUDNAN_clean_linker_2, # of connection points: 2
#     Edge 142, Type (0, 0), BuildingBlock: XUDNAN_clean_linker_2, # of connection points: 2
#     Edge 143, Type (0, 0), BuildingBlock: XUDNAN_clean_linker_2, # of connection points: 2
# Relax obj value: 0.384
# Max RMSD: 0.223
# Mean RMSD: 0.223
data_MOF--net-uli--node1-AZAVOO_clean_sbu_0--edge1-XUDNAN_clean_linker_2
_symmetry_space_group_name_H-M    P1
_symmetry_Int_Tables_number       1
_symmetry_cell_setting            triclinic
loop_
_symmetry_equiv_pos_as_xyz
'x, y, z'
_cell_length_a     67.228353
_cell_length_b     67.158009
_cell_length_c     67.174352
_cell_angle_alpha  89.993218
_cell_angle_beta   89.995541
_cell_angle_gamma 89.994905
loop_
_atom_site_label
_atom_site_type_symbol
_atom_site_fract_x
_atom_site_fract_y
_atom_site_fract_z
_atom_type_partial_charge
Mg0 Mg 0.09006 0.27502 0.17675 0.0
O1 O 0.10124 0.24797 0.19378 0.0
O2 O 0.13408 0.24474 0.19139 0.0
Mg3 Mg 0.14478 0.27276 0.17447 0.0
C4 C 0.11718 0.23853 0.19737 0.0
C5 C 0.05532 0.24897 0.18682 0.0
O6 O 0.06556 0.23965 0.17304 0.0
O7 O 0.09962 0.29564 0.20255 0.0
O8 O 0.13264 0.2941 0.19801 0.0
O9 O 0.09197 0.2571 0.14811 0.0
O10 O 0.11609 0.27619 0.15925 0.0
C11 C 0.11735 0.30116 0.20683 0.0
C12 C 0.10992 0.26369 0.14631 0.0
O13 O 0.06014 0.26676 0.19121 0.0
Mg14 Mg 0.72381 0.09453 0.17942 0.0
O15 O 0.7518 0.10398 0.19592 0.0
O16 O 0.75523 0.13702 0.1946 0.0
Mg17 Mg 0.72652 0.14905 0.18093 0.0
C18 C 0.76158 0.11979 0.19948 0.0
C19 C 0.74171 0.05089 0.18923 0.0
O20 O 0.75148 0.05225 0.17236 0.0
O21 O 0.70472 0.10281 0.20638 0.0
O22 O 0.70826 0.13594 0.20626 0.0
O23 O 0.74187 0.09692 0.15109 0.0
O24 O 0.72382 0.12141 0.1633 0.0
C25 C 0.70132 0.11997 0.21375 0.0
C26 C 0.73688 0.11555 0.15063 0.0
O27 O 0.72922 0.06429 0.19396 0.0
Mg28 Mg 0.90287 0.72458 0.17806 0.0
O29 O 0.88877 0.7529 0.19242 0.0
O30 O 0.85773 0.75799 0.1807 0.0
Mg31 Mg 0.8466 0.72837 0.16789 0.0
C32 C 0.87319 0.7637 0.19026 0.0
C33 C 0.94048 0.74778 0.19155 0.0
O34 O 0.93341 0.75963 0.17769 0.0
O35 O 0.89271 0.7027 0.20362 0.0
O36 O 0.86871 0.71497 0.18716 0.0
O37 O 0.90396 0.74256 0.14967 0.0
O38 O 0.87797 0.72396 0.15695 0.0
C39 C 0.87426 0.70259 0.19996 0.0
C40 C 0.88596 0.73709 0.14561 0.0
O41 O 0.93157 0.73145 0.19504 0.0
Mg42 Mg 0.26989 0.90409 0.17795 0.0
O43 O 0.24591 0.88491 0.19281 0.0
O44 O 0.24757 0.85405 0.18062 0.0
Mg45 Mg 0.27505 0.85259 0.16051 0.0
C46 C 0.23926 0.86718 0.19158 0.0
C47 C 0.25743 0.94605 0.19656 0.0
O48 O 0.26059 0.95258 0.1784 0.0
O49 O 0.29394 0.89117 0.19854 0.0
O50 O 0.296 0.86033 0.1863 0.0
O51 O 0.24809 0.90831 0.15342 0.0
O52 O 0.27047 0.88426 0.15334 0.0
C53 C 0.30165 0.87377 0.19849 0.0
C54 C 0.25417 0.89148 0.14626 0.0
O55 O 0.26119 0.92795 0.20071 0.0
Mg56 Mg 0.09449 0.72605 0.82432 0.0
O57 O 0.10756 0.75153 0.80644 0.0
O58 O 0.13899 0.7573 0.8152 0.0
Mg59 Mg 0.14751 0.73156 0.83642 0.0
C60 C 0.12341 0.76176 0.80531 0.0
C61 C 0.05246 0.73904 0.81063 0.0
O62 O 0.0513 0.74214 0.82988 0.0
O63 O 0.10944 0.70257 0.80408 0.0
O64 O 0.14094 0.70662 0.81428 0.0
O65 O 0.09029 0.74844 0.84918 0.0
O66 O 0.11646 0.72893 0.84627 0.0
C67 C 0.12782 0.69756 0.80395 0.0
C68 C 0.10792 0.74349 0.85512 0.0
O69 O 0.06777 0.73035 0.80373 0.0
Mg70 Mg 0.27257 0.09652 0.82137 0.0
O71 O 0.24618 0.10637 0.80277 0.0
O72 O 0.24248 0.13924 0.8052 0.0
Mg73 Mg 0.26853 0.15089 0.82418 0.0
C74 C 0.23682 0.12229 0.79877 0.0
C75 C 0.26712 0.05012 0.81472 0.0
O76 O 0.27196 0.04902 0.83364 0.0
O77 O 0.29469 0.10705 0.79735 0.0
O78 O 0.29167 0.13991 0.80192 0.0
O79 O 0.25209 0.09678 0.84815 0.0
O80 O 0.27108 0.12205 0.83931 0.0
C81 C 0.29985 0.12498 0.79345 0.0
C82 C 0.25761 0.11505 0.85082 0.0
O83 O 0.26747 0.06686 0.80598 0.0
Mg84 Mg 0.90752 0.27537 0.82251 0.0
O85 O 0.89639 0.24894 0.80423 0.0
O86 O 0.86366 0.24524 0.8076 0.0
Mg87 Mg 0.85281 0.27244 0.82529 0.0
C88 C 0.88039 0.23953 0.80063 0.0
C89 C 0.94321 0.25052 0.8123 0.0
O90 O 0.9336 0.24109 0.82645 0.0
O91 O 0.89777 0.29702 0.79744 0.0
O92 O 0.86495 0.29278 0.80121 0.0
O93 O 0.90575 0.25591 0.85033 0.0
O94 O 0.88153 0.27545 0.84032 0.0
C95 C 0.87977 0.30073 0.79239 0.0
C96 C 0.88777 0.26227 0.85254 0.0
O97 O 0.93754 0.26799 0.80763 0.0
Mg98 Mg 0.72754 0.90412 0.81951 0.0
O99 O 0.75572 0.89459 0.80365 0.0
O100 O 0.76138 0.86212 0.8076 0.0
Mg101 Mg 0.73347 0.84947 0.82279 0.0
C102 C 0.76649 0.87925 0.80121 0.0
C103 C 0.74186 0.94761 0.81771 0.0
O104 O 0.74394 0.94275 0.83654 0.0
O105 O 0.70775 0.89335 0.79312 0.0
O106 O 0.71302 0.86103 0.79879 0.0
O107 O 0.74445 0.90218 0.8494 0.0
O108 O 0.72664 0.87805 0.83657 0.0
C109 C 0.70448 0.87495 0.78912 0.0
C110 C 0.7377 0.88421 0.85063 0.0
O111 O 0.73398 0.93502 0.80598 0.0
Mg112 Mg 0.17683 0.09582 0.27485 0.0
O113 O 0.19479 0.10745 0.24888 0.0
O114 O 0.19179 0.14036 0.24655 0.0
Mg115 Mg 0.17336 0.15034 0.27381 0.0
C116 C 0.19839 0.12376 0.24003 0.0
C117 C 0.18592 0.04906 0.27227 0.0
O118 O 0.16962 0.04737 0.28292 0.0
O119 O 0.20074 0.10563 0.29764 0.0
O120 O 0.19578 0.13865 0.29666 0.0
O121 O 0.1497 0.09717 0.25476 0.0
O122 O 0.1586 0.12119 0.27528 0.0
C123 C 0.20439 0.12329 0.30383 0.0
C124 C 0.1468 0.1149 0.26172 0.0
O125 O 0.19233 0.06629 0.26783 0.0
Mg126 Mg 0.90513 0.17883 0.2711 0.0
O127 O 0.89557 0.19402 0.24211 0.0
O128 O 0.86262 0.19188 0.23933 0.0
Mg129 Mg 0.85089 0.17565 0.26722 0.0
C130 C 0.87953 0.19724 0.23261 0.0
C131 C 0.94987 0.18201 0.26218 0.0
O132 O 0.94728 0.16269 0.26378 0.0
O133 O 0.89433 0.20445 0.29103 0.0
O134 O 0.86141 0.19945 0.28924 0.0
O135 O 0.90546 0.14984 0.25406 0.0
O136 O 0.87976 0.16067 0.27135 0.0
C137 C 0.87652 0.2085 0.29634 0.0
C138 C 0.88718 0.14757 0.25964 0.0
O139 O 0.93525 0.19344 0.26566 0.0
Mg140 Mg 0.82318 0.90382 0.27155 0.0
O141 O 0.80782 0.8878 0.2458 0.0
O142 O 0.81726 0.8559 0.2457 0.0
Mg143 Mg 0.83441 0.85043 0.27469 0.0
C144 C 0.80814 0.87059 0.23784 0.0
C145 C 0.8022 0.94673 0.27247 0.0
O146 O 0.80992 0.94807 0.29039 0.0
O147 O 0.79987 0.89257 0.29417 0.0
O148 O 0.80918 0.86066 0.29511 0.0
O149 O 0.84964 0.90586 0.25153 0.0
O150 O 0.84511 0.88127 0.27285 0.0
C151 C 0.79821 0.87493 0.3012 0.0
C152 C 0.85458 0.8883 0.25775 0.0
O153 O 0.80471 0.9309 0.26246 0.0
Mg154 Mg 0.09279 0.82852 0.27386 0.0
O155 O 0.10153 0.80748 0.24835 0.0
O156 O 0.13391 0.81053 0.24176 0.0
Mg157 Mg 0.14685 0.82992 0.26687 0.0
C158 C 0.11676 0.80337 0.23788 0.0
C159 C 0.05361 0.81507 0.25498 0.0
O160 O 0.06145 0.82684 0.24148 0.0
O161 O 0.10404 0.80647 0.29749 0.0
O162 O 0.13673 0.80812 0.29111 0.0
O163 O 0.09246 0.85312 0.25112 0.0
O164 O 0.11849 0.84604 0.26973 0.0
C165 C 0.12199 0.80124 0.30093 0.0
C166 C 0.11109 0.8558 0.2551 0.0
O167 O 0.06244 0.81315 0.27164 0.0
Mg168 Mg 0.17677 0.90609 0.72636 0.0
O169 O 0.19569 0.89226 0.75043 0.0
O170 O 0.19062 0.85971 0.75365 0.0
Mg171 Mg 0.17136 0.85175 0.72632 0.0
C172 C 0.19894 0.87586 0.75919 0.0
C173 C 0.19152 0.95183 0.73727 0.0
O174 O 0.17458 0.95942 0.73117 0.0
O175 O 0.19993 0.89667 0.70275 0.0
O176 O 0.1954 0.86378 0.7058 0.0
O177 O 0.15069 0.90425 0.74797 0.0
O178 O 0.15757 0.8814 0.72549 0.0
C179 C 0.20431 0.87871 0.69814 0.0
C180 C 0.14685 0.88706 0.74016 0.0
O181 O 0.1948 0.93329 0.73547 0.0
Mg182 Mg 0.09288 0.18082 0.72629 0.0
O183 O 0.10394 0.19905 0.75269 0.0
O184 O 0.13678 0.19577 0.75615 0.0
Mg185 Mg 0.14724 0.1776 0.72894 0.0
C186 C 0.12004 0.20252 0.762 0.0
C187 C 0.04854 0.18403 0.73627 0.0
O188 O 0.05137 0.1647 0.73511 0.0
O189 O 0.10298 0.20484 0.70428 0.0
O190 O 0.13609 0.2011 0.70679 0.0
O191 O 0.09354 0.1534 0.74581 0.0
O192 O 0.11818 0.16293 0.72626 0.0
C193 C 0.12075 0.20939 0.69923 0.0
C194 C 0.11141 0.15067 0.73918 0.0
O195 O 0.06288 0.19556 0.73206 0.0
Mg196 Mg 0.82084 0.09515 0.7271 0.0
O197 O 0.80664 0.10595 0.75611 0.0
O198 O 0.8093 0.13885 0.7585 0.0
Mg199 Mg 0.82539 0.14989 0.73029 0.0
C200 C 0.80378 0.1221 0.76548 0.0
C201 C 0.81141 0.05916 0.75256 0.0
O202 O 0.82601 0.06872 0.76135 0.0
O203 O 0.79435 0.10643 0.7075 0.0
O204 O 0.80123 0.13895 0.70954 0.0
O205 O 0.85087 0.09575 0.74313 0.0
O206 O 0.8395 0.12072 0.72551 0.0
C207 C 0.79125 0.12455 0.70224 0.0
C208 C 0.85303 0.11383 0.73695 0.0
O209 O 0.80579 0.06514 0.73545 0.0
Mg210 Mg 0.90906 0.82296 0.7267 0.0
O211 O 0.8971 0.80585 0.75346 0.0
O212 O 0.86434 0.81011 0.75637 0.0
Mg213 Mg 0.8547 0.82679 0.72809 0.0
C214 C 0.88081 0.80312 0.76273 0.0
C215 C 0.95353 0.81813 0.7387 0.0
O216 O 0.95189 0.83762 0.73872 0.0
O217 O 0.89921 0.7981 0.70542 0.0
O218 O 0.86614 0.80147 0.70833 0.0
O219 O 0.90832 0.85073 0.74574 0.0
O220 O 0.88393 0.84123 0.72587 0.0
C221 C 0.88145 0.79282 0.70112 0.0
C222 C 0.89051 0.85345 0.73896 0.0
O223 O 0.9387 0.80771 0.73336 0.0
Mg224 Mg 0.27266 0.17928 0.09387 0.0
O225 O 0.24542 0.19697 0.10338 0.0
O226 O 0.24123 0.19417 0.1361 0.0
Mg227 Mg 0.26719 0.17546 0.14816 0.0
C228 C 0.23568 0.20064 0.11915 0.0
C229 C 0.27297 0.19087 0.04692 0.0
O230 O 0.28639 0.1769 0.04428 0.0
O231 O 0.2939 0.20417 0.10519 0.0
O232 O 0.28902 0.19871 0.1376 0.0
O233 O 0.25313 0.15159 0.09383 0.0
O234 O 0.27147 0.16098 0.11927 0.0
C235 C 0.29765 0.20803 0.1235 0.0
C236 C 0.25862 0.14893 0.11209 0.0
O237 O 0.26662 0.19462 0.0643 0.0
Mg238 Mg 0.27225 0.82107 0.90582 0.0
O239 O 0.24201 0.80844 0.89664 0.0
O240 O 0.24028 0.80831 0.86349 0.0
Mg241 Mg 0.26981 0.82074 0.85115 0.0
C242 C 0.23265 0.80498 0.88057 0.0
C243 C 0.25609 0.82186 0.94865 0.0
O244 O 0.25413 0.84035 0.9426 0.0
O245 O 0.28884 0.79221 0.89724 0.0
O246 O 0.2884 0.79546 0.86401 0.0
O247 O 0.25852 0.85187 0.90288 0.0
O248 O 0.27512 0.83705 0.87893 0.0
C249 C 0.29404 0.78655 0.87981 0.0
C250 C 0.26467 0.85189 0.88466 0.0
O251 O 0.26453 0.80946 0.93713 0.0
Mg252 Mg 0.17686 0.27801 0.90543 0.0
O253 O 0.1914 0.2507 0.89271 0.0
O254 O 0.18736 0.24806 0.85995 0.0
Mg255 Mg 0.17262 0.27784 0.85095 0.0
C256 C 0.19379 0.2413 0.87652 0.0
C257 C 0.18897 0.26044 0.94934 0.0
O258 O 0.17005 0.25755 0.95326 0.0
O259 O 0.2036 0.29668 0.89547 0.0
O260 O 0.1997 0.2947 0.86237 0.0
O261 O 0.14759 0.26085 0.9036 0.0
O262 O 0.15867 0.28116 0.88038 0.0
C263 C 0.2091 0.30072 0.87773 0.0
C264 C 0.14563 0.26853 0.88603 0.0
O265 O 0.19407 0.26891 0.93322 0.0
Mg266 Mg 0.72673 0.17663 0.90687 0.0
O267 O 0.75369 0.19402 0.89581 0.0
O268 O 0.75921 0.18758 0.86372 0.0
Mg269 Mg 0.7322 0.16944 0.85308 0.0
C270 C 0.76414 0.1958 0.88012 0.0
C271 C 0.73418 0.18413 0.95175 0.0
O272 O 0.73234 0.16465 0.95171 0.0
O273 O 0.70528 0.20014 0.89424 0.0
O274 O 0.71022 0.19374 0.86199 0.0
O275 O 0.74692 0.14989 0.90911 0.0
O276 O 0.7284 0.15684 0.88293 0.0
C277 C 0.70154 0.20342 0.87586 0.0
C278 C 0.74194 0.14604 0.8909 0.0
O279 O 0.73124 0.19366 0.9357 0.0
Mg280 Mg 0.82209 0.72467 0.90448 0.0
O281 O 0.80336 0.75017 0.89191 0.0
O282 O 0.81153 0.75729 0.86038 0.0
Mg283 Mg 0.83179 0.73204 0.84943 0.0
C284 C 0.80189 0.7609 0.87635 0.0
C285 C 0.80744 0.74612 0.94205 0.0
O286 O 0.82021 0.75872 0.93429 0.0
O287 O 0.7995 0.70053 0.89296 0.0
O288 O 0.81223 0.711 0.86517 0.0
O289 O 0.84832 0.7463 0.90605 0.0
O290 O 0.84275 0.72735 0.88002 0.0
C291 C 0.80103 0.69893 0.87413 0.0
C292 C 0.85314 0.7409 0.88825 0.0
O293 O 0.80485 0.72935 0.93358 0.0
Mg294 Mg 0.72577 0.82417 0.09681 0.0
O295 O 0.75394 0.808 0.1073 0.0
O296 O 0.75746 0.81279 0.14001 0.0
Mg297 Mg 0.72975 0.82973 0.15092 0.0
C298 C 0.7636 0.80579 0.12345 0.0
C299 C 0.74576 0.81125 0.05749 0.0
O300 O 0.75835 0.82457 0.06431 0.0
O301 O 0.70559 0.79934 0.10882 0.0
O302 O 0.70798 0.8051 0.14152 0.0
O303 O 0.74463 0.85165 0.09486 0.0
O304 O 0.72701 0.8436 0.12137 0.0
C305 C 0.70061 0.79558 0.1268 0.0
C306 C 0.7404 0.85468 0.11342 0.0
O307 O 0.72986 0.80792 0.0672 0.0
Mg308 Mg 0.17796 0.72996 0.09543 0.0
O309 O 0.19292 0.75599 0.11142 0.0
O310 O 0.18618 0.75359 0.14387 0.0
Mg311 Mg 0.1707 0.7235 0.14956 0.0
C312 C 0.19398 0.76273 0.12909 0.0
C313 C 0.18796 0.75938 0.06272 0.0
O314 O 0.17433 0.76781 0.0739 0.0
O315 O 0.20487 0.71011 0.10421 0.0
O316 O 0.19746 0.70804 0.13659 0.0
O317 O 0.14859 0.74723 0.09809 0.0
O318 O 0.1585 0.7249 0.11974 0.0
C319 C 0.20839 0.70356 0.12177 0.0
C320 C 0.14601 0.73845 0.11499 0.0
O321 O 0.19325 0.74167 0.06689 0.0
Mg322 Mg 0.82543 0.27346 0.09384 0.0
O323 O 0.81241 0.24572 0.10842 0.0
O324 O 0.82011 0.24396 0.14065 0.0
Mg325 Mg 0.83729 0.27287 0.1471 0.0
C326 C 0.81194 0.23681 0.1251 0.0
C327 C 0.80777 0.26363 0.04962 0.0
O328 O 0.8235 0.27194 0.04153 0.0
O329 O 0.80121 0.29382 0.10726 0.0
O330 O 0.81059 0.29194 0.13908 0.0
O331 O 0.8532 0.25534 0.09024 0.0
O332 O 0.84748 0.27507 0.11589 0.0
C333 C 0.79906 0.29863 0.12557 0.0
C334 C 0.8581 0.26133 0.1079 0.0
O335 O 0.80541 0.26404 0.06836 0.0
Mg336 Mg 0.59302 0.77116 0.67525 0.0
O337 O 0.60689 0.74617 0.69309 0.0
O338 O 0.63983 0.74471 0.69041 0.0
Mg339 Mg 0.6476 0.77367 0.6735 0.0
C340 C 0.62338 0.73785 0.69689 0.0
C341 C 0.54627 0.76154 0.69019 0.0
O342 O 0.53802 0.77372 0.67732 0.0
O343 O 0.60008 0.79335 0.70051 0.0
O344 O 0.63334 0.79239 0.69779 0.0
O345 O 0.59774 0.75255 0.64714 0.0
O346 O 0.61871 0.77512 0.65816 0.0
C347 C 0.61747 0.79872 0.70609 0.0
C348 C 0.61455 0.76178 0.6453 0.0
O349 O 0.56507 0.75972 0.69079 0.0
Mg350 Mg 0.22724 0.59817 0.67688 0.0
O351 O 0.25451 0.61217 0.69082 0.0
O352 O 0.25301 0.64516 0.68698 0.0
Mg353 Mg 0.22206 0.65259 0.6744 0.0
C354 C 0.26204 0.62942 0.69263 0.0
C355 C 0.23356 0.55204 0.68331 0.0
O356 O 0.22079 0.55104 0.66854 0.0
O357 O 0.20835 0.60539 0.70475 0.0
O358 O 0.20558 0.63834 0.70025 0.0
O359 O 0.2428 0.60219 0.64692 0.0
O360 O 0.22154 0.6235 0.65986 0.0
C361 C 0.20144 0.62244 0.70977 0.0
C362 C 0.23399 0.61931 0.64608 0.0
O363 O 0.23857 0.56898 0.69002 0.0
Mg364 Mg 0.40688 0.22709 0.67582 0.0
O365 O 0.39568 0.25063 0.69736 0.0
O366 O 0.36245 0.25161 0.69737 0.0
Mg367 Mg 0.35217 0.22786 0.67494 0.0
C368 C 0.37931 0.25781 0.7035 0.0
C369 C 0.44615 0.24756 0.68796 0.0
O370 O 0.43918 0.25992 0.67451 0.0
O371 O 0.39806 0.20198 0.69739 0.0
O372 O 0.36482 0.20339 0.69476 0.0
O373 O 0.40508 0.25046 0.65173 0.0
O374 O 0.38079 0.22959 0.65916 0.0
C375 C 0.38067 0.19555 0.70163 0.0
C376 C 0.38687 0.24477 0.64932 0.0
O377 O 0.43693 0.23133 0.69115 0.0
Mg378 Mg 0.7741 0.41113 0.6756 0.0
O379 O 0.74743 0.39976 0.6935 0.0
O380 O 0.74281 0.3675 0.68726 0.0
Mg381 Mg 0.76908 0.35711 0.66812 0.0
C382 C 0.73749 0.38374 0.69558 0.0
C383 C 0.76487 0.45504 0.68046 0.0
O384 O 0.76643 0.45221 0.66117 0.0
O385 O 0.79628 0.3987 0.69893 0.0
O386 O 0.79088 0.36663 0.69204 0.0
O387 O 0.7531 0.41305 0.64957 0.0
O388 O 0.77198 0.38695 0.65552 0.0
C389 C 0.79972 0.38019 0.70196 0.0
C390 C 0.75773 0.3948 0.64558 0.0
O391 O 0.76923 0.44069 0.692 0.0
Mg392 Mg 0.5945 0.22156 0.32261 0.0
O393 O 0.6064 0.24958 0.30626 0.0
O394 O 0.63907 0.2544 0.31182 0.0
Mg395 Mg 0.65157 0.22601 0.32651 0.0
C396 C 0.62229 0.25995 0.30471 0.0
C397 C 0.55422 0.24299 0.31326 0.0
O398 O 0.56073 0.25445 0.3277 0.0
O399 O 0.60198 0.19882 0.29689 0.0
O400 O 0.62788 0.21128 0.3101 0.0
O401 O 0.59655 0.23994 0.35085 0.0
O402 O 0.62153 0.22129 0.3407 0.0
C403 C 0.62068 0.19822 0.29886 0.0
C404 C 0.61462 0.23382 0.35327 0.0
O405 O 0.56431 0.22776 0.30834 0.0
Mg406 Mg 0.77211 0.59833 0.31994 0.0
O407 O 0.7441 0.61453 0.30938 0.0
O408 O 0.74749 0.64713 0.3151 0.0
Mg409 Mg 0.77958 0.6522 0.32554 0.0
C410 C 0.73725 0.63223 0.30923 0.0
C411 C 0.75089 0.55598 0.31202 0.0
O412 O 0.74713 0.55589 0.33121 0.0
O413 O 0.788 0.60718 0.29112 0.0
O414 O 0.79126 0.64003 0.29616 0.0
O415 O 0.75966 0.60038 0.35155 0.0
O416 O 0.78008 0.6221 0.33799 0.0
C417 C 0.79368 0.62445 0.28559 0.0
C418 C 0.76905 0.61718 0.35269 0.0
O419 O 0.76035 0.5705 0.30445 0.0
Mg420 Mg 0.40955 0.7726 0.31946 0.0
O421 O 0.39845 0.74608 0.30168 0.0
O422 O 0.3658 0.7417 0.30546 0.0
Mg423 Mg 0.35498 0.76915 0.32298 0.0
C424 C 0.38262 0.73623 0.29857 0.0
C425 C 0.45024 0.75352 0.31297 0.0
O426 O 0.44598 0.74941 0.33159 0.0
O427 O 0.39881 0.79445 0.29529 0.0
O428 O 0.36582 0.79132 0.29943 0.0
O429 O 0.409 0.75282 0.34677 0.0
O430 O 0.38406 0.77199 0.33775 0.0
C431 C 0.38089 0.79913 0.29088 0.0
C432 C 0.39084 0.75851 0.34943 0.0
O433 O 0.43926 0.76586 0.30372 0.0
Mg434 Mg 0.22633 0.40422 0.31993 0.0
O435 O 0.25171 0.39045 0.30126 0.0
O436 O 0.24862 0.35765 0.30444 0.0
Mg437 Mg 0.22309 0.35009 0.32603 0.0
C438 C 0.25761 0.37285 0.29737 0.0
C439 C 0.24505 0.44575 0.30935 0.0
O440 O 0.25309 0.44295 0.32695 0.0
O441 O 0.20174 0.39478 0.29762 0.0
O442 O 0.19949 0.36239 0.30534 0.0
O443 O 0.24706 0.40308 0.34687 0.0
O444 O 0.22543 0.37973 0.33959 0.0
C445 C 0.1933 0.37776 0.2961 0.0
C446 C 0.23955 0.38579 0.35083 0.0
O447 O 0.23273 0.43299 0.30277 0.0
Mg448 Mg 0.67881 0.59385 0.77461 0.0
O449 O 0.69328 0.60513 0.74624 0.0
O450 O 0.69159 0.63809 0.74352 0.0
Mg451 Mg 0.67834 0.64869 0.7734 0.0
C452 C 0.6965 0.62107 0.7366 0.0
C453 C 0.68603 0.55866 0.74766 0.0
O454 O 0.67174 0.56907 0.73934 0.0
O455 O 0.70696 0.60226 0.79206 0.0
O456 O 0.70476 0.63558 0.79022 0.0
O457 O 0.64893 0.59697 0.75919 0.0
O458 O 0.66246 0.6204 0.7777 0.0
C459 C 0.71343 0.61972 0.79607 0.0
C460 C 0.64845 0.61496 0.76601 0.0
O461 O 0.69181 0.5636 0.76501 0.0
Mg462 Mg 0.40211 0.67721 0.77166 0.0
O463 O 0.39008 0.69557 0.74591 0.0
O464 O 0.35879 0.68684 0.73929 0.0
Mg465 Mg 0.34918 0.66589 0.7647 0.0
C466 C 0.37453 0.69662 0.73519 0.0
C467 C 0.44673 0.68787 0.76822 0.0
O468 O 0.44776 0.66879 0.77241 0.0
O469 O 0.38709 0.69743 0.79527 0.0
O470 O 0.35573 0.68751 0.79 0.0
O471 O 0.40669 0.65284 0.74901 0.0
O472 O 0.37999 0.65564 0.76787 0.0
C473 C 0.36855 0.6976 0.79971 0.0
C474 C 0.3888 0.64714 0.75325 0.0
O475 O 0.42988 0.69642 0.76853 0.0
Mg476 Mg 0.31722 0.40105 0.76931 0.0
O477 O 0.30496 0.38403 0.74203 0.0
O478 O 0.31505 0.35209 0.74057 0.0
Mg479 Mg 0.32458 0.34375 0.77248 0.0
C480 C 0.30666 0.36742 0.7329 0.0
C481 C 0.30645 0.44633 0.75404 0.0
O482 O 0.32284 0.45299 0.76235 0.0
O483 O 0.28943 0.39437 0.79 0.0
O484 O 0.3062 0.36919 0.78072 0.0
O485 O 0.34816 0.39704 0.75538 0.0
O486 O 0.33555 0.37543 0.77649 0.0
C487 C 0.29289 0.37593 0.79197 0.0
C488 C 0.3499 0.38049 0.76511 0.0
O489 O 0.30188 0.42803 0.75555 0.0
Mg490 Mg 0.59242 0.32795 0.7793 0.0
O491 O 0.6007 0.30832 0.75263 0.0
O492 O 0.6337 0.30831 0.74936 0.0
Mg493 Mg 0.64694 0.32687 0.77467 0.0
C494 C 0.61643 0.30296 0.74356 0.0
C495 C 0.55339 0.31716 0.75844 0.0
O496 O 0.56233 0.32872 0.74544 0.0
O497 O 0.60157 0.30301 0.8011 0.0
O498 O 0.63453 0.30425 0.7964 0.0
O499 O 0.59426 0.35501 0.75899 0.0
O500 O 0.61923 0.34389 0.77703 0.0
C501 C 0.61919 0.29687 0.80477 0.0
C502 C 0.61284 0.3561 0.76386 0.0
O503 O 0.56133 0.31475 0.77546 0.0
Mg504 Mg 0.67252 0.40524 0.22336 0.0
O505 O 0.69063 0.39523 0.2504 0.0
O506 O 0.68796 0.36239 0.25427 0.0
Mg507 Mg 0.67181 0.3506 0.22674 0.0
C508 C 0.69409 0.37939 0.26018 0.0
C509 C 0.68529 0.44277 0.24642 0.0
O510 O 0.67528 0.43274 0.2599 0.0
O511 O 0.69788 0.396 0.20212 0.0
O512 O 0.696 0.36303 0.20673 0.0
O513 O 0.64522 0.40358 0.24296 0.0
O514 O 0.65576 0.37891 0.22409 0.0
C515 C 0.70401 0.37829 0.19877 0.0
C516 C 0.64384 0.3851 0.23765 0.0
O517 O 0.68619 0.43599 0.22874 0.0
Mg518 Mg 0.59126 0.67411 0.22441 0.0
O519 O 0.59945 0.69468 0.24997 0.0
O520 O 0.63241 0.69543 0.25381 0.0
Mg521 Mg 0.6456 0.67474 0.23001 0.0
C522 C 0.61494 0.7008 0.25893 0.0
C523 C 0.54716 0.67657 0.2351 0.0
O524 O 0.55147 0.65761 0.23723 0.0
O525 O 0.6015 0.6969 0.20074 0.0
O526 O 0.6345 0.69493 0.20509 0.0
O527 O 0.59163 0.64996 0.24741 0.0
O528 O 0.61765 0.65757 0.2289 0.0
C529 C 0.61929 0.70179 0.19607 0.0
C530 C 0.61043 0.64803 0.24384 0.0
O531 O 0.5602 0.68793 0.22746 0.0
Mg532 Mg 0.32642 0.59794 0.22483 0.0
O533 O 0.31428 0.60847 0.25472 0.0
O534 O 0.32297 0.6401 0.26023 0.0
Mg535 Mg 0.33879 0.65112 0.23213 0.0
C536 C 0.31473 0.6239 0.26567 0.0
C537 C 0.3111 0.56034 0.24668 0.0
O538 O 0.32379 0.56778 0.25956 0.0
O539 O 0.29998 0.61351 0.20811 0.0
O540 O 0.3111 0.64392 0.21519 0.0
O541 O 0.35626 0.59381 0.24073 0.0
O542 O 0.34762 0.62091 0.22456 0.0
C543 C 0.29822 0.6325 0.20731 0.0
C544 C 0.36013 0.61198 0.23568 0.0
O545 O 0.30885 0.56905 0.22998 0.0
Mg546 Mg 0.40495 0.32784 0.22736 0.0
O547 O 0.38751 0.31052 0.25174 0.0
O548 O 0.35581 0.32007 0.24915 0.0
Mg549 Mg 0.35211 0.34022 0.22206 0.0
C550 C 0.36952 0.3102 0.25788 0.0
C551 C 0.43875 0.30853 0.25215 0.0
O552 O 0.43045 0.32036 0.26533 0.0
O553 O 0.39437 0.3062 0.20313 0.0
O554 O 0.36226 0.31486 0.20185 0.0
O555 O 0.40661 0.35299 0.24902 0.0
O556 O 0.38281 0.3503 0.22662 0.0
C557 C 0.37688 0.30428 0.19601 0.0
C558 C 0.38932 0.35857 0.24261 0.0
O559 O 0.43181 0.30815 0.23453 0.0
Mg560 Mg 0.77456 0.67567 0.59448 0.0
O561 O 0.74914 0.69476 0.60621 0.0
O562 O 0.74476 0.68943 0.63864 0.0
Mg563 Mg 0.76905 0.66721 0.64818 0.0
C564 C 0.73988 0.6979 0.62238 0.0
C565 C 0.76004 0.6904 0.55225 0.0
O566 O 0.75266 0.67232 0.55123 0.0
O567 O 0.79792 0.69704 0.6081 0.0
O568 O 0.79308 0.68956 0.64013 0.0
O569 O 0.75234 0.6503 0.59173 0.0
O570 O 0.77149 0.65515 0.61786 0.0
C571 C 0.80227 0.69914 0.62654 0.0
C572 C 0.75744 0.6453 0.60962 0.0
O573 O 0.77111 0.69509 0.56686 0.0
Mg574 Mg 0.77302 0.32433 0.40481 0.0
O575 O 0.74741 0.30536 0.39377 0.0
O576 O 0.74443 0.30811 0.36089 0.0
Mg577 Mg 0.76963 0.32904 0.35043 0.0
C578 C 0.73861 0.30117 0.37759 0.0
C579 C 0.7572 0.31162 0.44788 0.0
O580 O 0.74921 0.32946 0.44798 0.0
O581 O 0.79596 0.30149 0.39321 0.0
O582 O 0.79361 0.30726 0.36046 0.0
O583 O 0.75165 0.35065 0.40501 0.0
O584 O 0.77128 0.34322 0.37989 0.0
C585 C 0.80167 0.29851 0.37528 0.0
C586 C 0.75738 0.35414 0.38696 0.0
O587 O 0.7686 0.30661 0.4336 0.0
Mg588 Mg 0.67956 0.77229 0.40595 0.0
O589 O 0.69888 0.74631 0.39603 0.0
O590 O 0.70303 0.74664 0.36311 0.0
Mg591 Mg 0.68415 0.77259 0.35144 0.0
C592 C 0.7062 0.73904 0.38019 0.0
C593 C 0.69367 0.77432 0.45235 0.0
O594 O 0.68899 0.79331 0.45222 0.0
O595 O 0.7047 0.79528 0.39993 0.0
O596 O 0.70419 0.79515 0.36652 0.0
O597 O 0.65208 0.75345 0.401 0.0
O598 O 0.66527 0.77323 0.37842 0.0
C599 C 0.71059 0.80193 0.38304 0.0
C600 C 0.65194 0.76036 0.383 0.0
O601 O 0.69096 0.76394 0.43681 0.0
Mg602 Mg 0.2272 0.67928 0.40491 0.0
O603 O 0.25651 0.69396 0.39563 0.0
O604 O 0.26043 0.69181 0.36271 0.0
Mg605 Mg 0.23227 0.67762 0.35017 0.0
C606 C 0.26662 0.69686 0.3799 0.0
C607 C 0.25017 0.68651 0.44305 0.0
O608 O 0.2589 0.6713 0.43445 0.0
O609 O 0.20801 0.7065 0.39473 0.0
O610 O 0.2123 0.70155 0.36224 0.0
O611 O 0.24388 0.64978 0.40382 0.0
O612 O 0.22721 0.66195 0.37851 0.0
C613 C 0.20425 0.71097 0.37656 0.0
C614 C 0.23928 0.64878 0.38518 0.0
O615 O 0.23402 0.69302 0.43562 0.0
Mg616 Mg 0.32554 0.22527 0.40644 0.0
O617 O 0.30443 0.24972 0.39682 0.0
O618 O 0.30546 0.25161 0.36376 0.0
Mg619 Mg 0.32604 0.22696 0.35193 0.0
C620 C 0.29911 0.25782 0.3806 0.0
C621 C 0.32055 0.23734 0.45121 0.0
O622 O 0.33991 0.23946 0.44963 0.0
O623 O 0.30269 0.20115 0.39751 0.0
O624 O 0.30576 0.20274 0.36438 0.0
O625 O 0.34953 0.24857 0.40449 0.0
O626 O 0.34269 0.22796 0.37997 0.0
C627 C 0.29839 0.1949 0.38003 0.0
C628 C 0.35184 0.24361 0.38603 0.0
O629 O 0.31083 0.2302 0.43665 0.0
Mg630 Mg 0.22583 0.32591 0.59129 0.0
O631 O 0.25089 0.31006 0.60715 0.0
O632 O 0.25367 0.31813 0.63914 0.0
Mg633 Mg 0.22621 0.33794 0.64466 0.0
C634 C 0.25985 0.30884 0.62377 0.0
C635 C 0.23639 0.30863 0.54731 0.0
O636 O 0.22981 0.32546 0.53987 0.0
O637 O 0.20299 0.30382 0.60425 0.0
O638 O 0.20473 0.3131 0.63613 0.0
O639 O 0.24729 0.35105 0.58812 0.0
O640 O 0.22645 0.34825 0.61338 0.0
C641 C 0.19738 0.30224 0.62239 0.0
C642 C 0.24198 0.35649 0.60583 0.0
O643 O 0.23451 0.30511 0.56581 0.0
Mg644 Mg 0.67549 0.23198 0.59668 0.0
O645 O 0.69149 0.25982 0.60889 0.0
O646 O 0.68977 0.25894 0.64191 0.0
Mg647 Mg 0.67336 0.23025 0.65121 0.0
C648 C 0.69516 0.26746 0.62582 0.0
C649 C 0.69404 0.23034 0.55231 0.0
O650 O 0.6902 0.21118 0.55319 0.0
O651 O 0.7012 0.21048 0.60497 0.0
O652 O 0.69673 0.20948 0.63803 0.0
O653 O 0.64624 0.24874 0.59926 0.0
O654 O 0.65764 0.22872 0.62245 0.0
C655 C 0.70546 0.2036 0.62224 0.0
C656 C 0.64416 0.24091 0.61675 0.0
O657 O 0.68956 0.24135 0.56701 0.0
Mg658 Mg 0.32499 0.7741 0.59099 0.0
O659 O 0.30679 0.74895 0.60383 0.0
O660 O 0.31214 0.74531 0.63646 0.0
Mg661 Mg 0.332 0.77171 0.64536 0.0
C662 C 0.30404 0.73988 0.62017 0.0
C663 C 0.31954 0.76208 0.54741 0.0
O664 O 0.33894 0.7628 0.5497 0.0
O665 O 0.30139 0.79685 0.60216 0.0
O666 O 0.30805 0.7927 0.63448 0.0
O667 O 0.35147 0.75291 0.5911 0.0
O668 O 0.34437 0.77371 0.61542 0.0
C669 C 0.29813 0.8009 0.62052 0.0
C670 C 0.35524 0.75961 0.60874 0.0
O671 O 0.30857 0.76746 0.56183 0.0
H672 H 0.95818 0.22045 0.25 0.0
H673 H 0.98403 0.16139 0.25533 0.0
H674 H 0.01424 0.17314 0.23839 0.0
H675 H 0.97587 0.23056 0.20186 0.0
H676 H 0.98119 0.25652 0.20604 0.0
H677 H 0.9621 0.24432 0.22032 0.0
H678 H 0.97954 0.25477 0.25306 0.0
H679 H 0.99864 0.26717 0.23887 0.0
H680 H 0.00531 0.24843 0.25689 0.0
H681 H 0.0399 0.18962 0.2184 0.0
H682 H 0.06114 0.21085 0.19756 0.0
H683 H 0.0201 0.26017 0.20533 0.0
C684 C 0.97037 0.21012 0.24798 0.0
C685 C 0.96874 0.18997 0.25407 0.0
C686 C 0.98491 0.17686 0.25086 0.0
C687 C 0.00216 0.18339 0.24125 0.0
C688 C 0.00312 0.20314 0.23504 0.0
C689 C 0.98782 0.21643 0.23839 0.0
C690 C 0.99251 0.23663 0.22929 0.0
C691 C 0.97699 0.24233 0.21344 0.0
C692 C 0.9941 0.2527 0.2455 0.0
C693 C 0.01264 0.23239 0.21994 0.0
C694 C 0.01837 0.21294 0.22354 0.0
C695 C 0.03573 0.20494 0.21566 0.0
C696 C 0.04761 0.21709 0.20371 0.0
C697 C 0.04221 0.23711 0.19983 0.0
C698 C 0.02462 0.24497 0.20825 0.0
H699 H 0.79219 0.9522 0.23317 0.0
H700 H 0.78826 0.98002 0.29139 0.0
H701 H 0.7709 0.00875 0.27638 0.0
H702 H 0.80263 0.99669 0.20619 0.0
H703 H 0.7883 0.98974 0.18461 0.0
H704 H 0.79929 0.97077 0.20003 0.0
H705 H 0.7647 0.95447 0.20479 0.0
H706 H 0.75358 0.97344 0.18942 0.0
H707 H 0.74439 0.9692 0.21426 0.0
H708 H 0.75386 0.03418 0.25535 0.0
H709 H 0.74078 0.05634 0.22925 0.0
H710 H 0.75753 0.01327 0.18408 0.0
C711 C 0.78751 0.96425 0.24281 0.0
C712 C 0.79141 0.96378 0.26353 0.0
C713 C 0.78535 0.98 0.27554 0.0
C714 C 0.77543 0.99635 0.26715 0.0
C715 C 0.77183 0.99633 0.24671 0.0
C716 C 0.77782 0.98081 0.23464 0.0
C717 C 0.77293 0.98497 0.21296 0.0
C718 C 0.79192 0.98559 0.2002 0.0
C719 C 0.75801 0.96961 0.20489 0.0
C720 C 0.7635 0.00541 0.21472 0.0
C721 C 0.7627 0.01146 0.23438 0.0
C722 C 0.7544 0.02962 0.23991 0.0
C723 C 0.7469 0.04205 0.22496 0.0
C724 C 0.74806 0.03648 0.20464 0.0
C725 C 0.75646 0.01788 0.19949 0.0
H726 H 0.02907 0.81979 0.22303 0.0
H727 H 0.03884 0.78234 0.27476 0.0
H728 H 0.01128 0.76037 0.26392 0.0
H729 H 0.97549 0.81619 0.22276 0.0
H730 H 0.974 0.81604 0.19597 0.0
H731 H 0.99421 0.82871 0.20817 0.0
H732 H 0.01947 0.8078 0.18781 0.0
H733 H 0.99934 0.79492 0.1757 0.0
H734 H 0.01821 0.78101 0.18875 0.0
H735 H 0.98317 0.74184 0.24637 0.0
H736 H 0.95554 0.72987 0.22516 0.0
H737 H 0.96441 0.78013 0.18551 0.0
C738 C 0.02535 0.80706 0.2322 0.0
C739 C 0.03608 0.80279 0.24976 0.0
C740 C 0.03072 0.78598 0.26132 0.0
C741 C 0.01517 0.77336 0.25522 0.0
C742 C 0.0051 0.77787 0.23762 0.0
C743 C 0.00988 0.79445 0.22642 0.0
C744 C 0.99679 0.79618 0.20819 0.0
C745 C 0.98439 0.81542 0.20882 0.0
C746 C 0.0092 0.79489 0.18898 0.0
C747 C 0.98386 0.77796 0.2108 0.0
C748 C 0.98891 0.76748 0.22778 0.0
C749 C 0.97904 0.75001 0.23311 0.0
C750 C 0.96341 0.74329 0.22093 0.0
C751 C 0.95775 0.75409 0.20371 0.0
C752 C 0.96829 0.77155 0.1986 0.0
H753 H 0.25379 0.98692 0.1966 0.0
H754 H 0.23724 0.9339 0.22969 0.0
H755 H 0.21772 0.95452 0.25294 0.0
H756 H 0.25891 0.01932 0.24005 0.0
H757 H 0.24899 0.04081 0.22738 0.0
H758 H 0.26205 0.02192 0.21352 0.0
H759 H 0.23154 0.01783 0.19032 0.0
H760 H 0.21841 0.03665 0.20416 0.0
H761 H 0.20755 0.01231 0.20098 0.0
H762 H 0.19821 0.98054 0.27135 0.0
H763 H 0.18198 0.01057 0.28508 0.0
H764 H 0.21248 0.04697 0.24124 0.0
C765 C 0.24622 0.97969 0.20886 0.0
C766 C 0.24712 0.95879 0.21135 0.0
C767 C 0.23697 0.94989 0.22757 0.0
C768 C 0.22575 0.96147 0.24082 0.0
C769 C 0.22503 0.98199 0.23787 0.0
C770 C 0.23517 0.99108 0.22244 0.0
C771 C 0.23193 0.01343 0.22266 0.0
C772 C 0.25165 0.02452 0.22611 0.0
C773 C 0.22175 0.02046 0.20339 0.0
C774 C 0.21818 0.01542 0.24045 0.0
C775 C 0.2143 0.99709 0.24893 0.0
C776 C 0.20134 0.99502 0.265 0.0
C777 C 0.19215 0.01215 0.27268 0.0
C778 C 0.19611 0.03113 0.26441 0.0
C779 C 0.20938 0.03271 0.24812 0.0
H780 H 0.95886 0.7788 0.74909 0.0
H781 H 0.98908 0.83591 0.74702 0.0
H782 H 0.0185 0.82083 0.76291 0.0
H783 H 0.97555 0.76484 0.79649 0.0
H784 H 0.97862 0.73878 0.79081 0.0
H785 H 0.96068 0.75338 0.77732 0.0
H786 H 0.97725 0.74325 0.74401 0.0
H787 H 0.99526 0.72855 0.75741 0.0
H788 H 0.00346 0.74764 0.74043 0.0
H789 H 0.04377 0.80045 0.78061 0.0
H790 H 0.06309 0.77603 0.80022 0.0
H791 H 0.01653 0.73216 0.79204 0.0
C792 C 0.97181 0.78804 0.75162 0.0
C793 C 0.97172 0.80853 0.74664 0.0
C794 C 0.98883 0.82018 0.75058 0.0
C795 C 0.00564 0.81174 0.75957 0.0
C796 C 0.00515 0.79161 0.76454 0.0
C797 C 0.98872 0.77987 0.76072 0.0
C798 C 0.99165 0.75892 0.76871 0.0
C799 C 0.97568 0.75369 0.78426 0.0
C800 C 0.99192 0.74369 0.75162 0.0
C801 C 0.01206 0.76092 0.77815 0.0
C802 C 0.01967 0.77984 0.77522 0.0
C803 C 0.03805 0.78556 0.78286 0.0
C804 C 0.04889 0.77164 0.79394 0.0
C805 C 0.04125 0.75235 0.79741 0.0
C806 C 0.02269 0.74682 0.78935 0.0
H807 H 0.24164 0.04987 0.78297 0.0
H808 H 0.27377 0.01087 0.82323 0.0
H809 H 0.25896 0.98157 0.80654 0.0
H810 H 0.19681 0.02176 0.78307 0.0
H811 H 0.19103 0.02645 0.75729 0.0
H812 H 0.20533 0.0443 0.77124 0.0
H813 H 0.23349 0.04244 0.74503 0.0
H814 H 0.21928 0.02459 0.73092 0.0
H815 H 0.2442 0.01862 0.73881 0.0
H816 H 0.24086 0.95678 0.78568 0.0
H817 H 0.21859 0.93771 0.76383 0.0
H818 H 0.19614 0.99277 0.73838 0.0
C819 C 0.24581 0.03514 0.78807 0.0
C820 C 0.2591 0.03256 0.8042 0.0
C821 C 0.26375 0.01312 0.8108 0.0
C822 C 0.25545 0.99643 0.8014 0.0
C823 C 0.24232 0.9995 0.78561 0.0
C824 C 0.23736 0.01835 0.7791 0.0
C825 C 0.22192 0.01754 0.76264 0.0
C826 C 0.20263 0.02814 0.76895 0.0
C827 C 0.23023 0.02632 0.7432 0.0
C828 C 0.21893 0.99523 0.76094 0.0
C829 C 0.23109 0.98516 0.77415 0.0
C830 C 0.23126 0.96449 0.77529 0.0
C831 C 0.21859 0.9538 0.76271 0.0
C832 C 0.20562 0.96374 0.74933 0.0
C833 C 0.20584 0.98477 0.74846 0.0
H834 H 0.04015 0.22249 0.74837 0.0
H835 H 0.01467 0.1632 0.74376 0.0
H836 H 0.98458 0.17484 0.76098 0.0
H837 H 0.02276 0.23269 0.79677 0.0
H838 H 0.01729 0.25861 0.79248 0.0
H839 H 0.03635 0.24641 0.77814 0.0
H840 H 0.01864 0.25663 0.74547 0.0
H841 H 0.99958 0.26901 0.75972 0.0
H842 H 0.99287 0.25015 0.74184 0.0
H843 H 0.95901 0.19123 0.78097 0.0
H844 H 0.93774 0.21238 0.80182 0.0
H845 H 0.97822 0.26206 0.79341 0.0
C846 C 0.02805 0.21208 0.75062 0.0
C847 C 0.02974 0.19191 0.74462 0.0
C848 C 0.01373 0.17869 0.74814 0.0
C849 C 0.99655 0.18516 0.75791 0.0
C850 C 0.99551 0.20494 0.76399 0.0
C851 C 0.01068 0.21832 0.76039 0.0
C852 C 0.00591 0.23855 0.76942 0.0
C853 C 0.0215 0.2444 0.78513 0.0
C854 C 0.00414 0.25453 0.75314 0.0
C855 C 0.98586 0.23424 0.77893 0.0
C856 C 0.98028 0.21471 0.77552 0.0
C857 C 0.96305 0.20661 0.78356 0.0
C858 C 0.95115 0.21873 0.79549 0.0
C859 C 0.95634 0.23882 0.79918 0.0
C860 C 0.97382 0.2468 0.7906 0.0
H861 H 0.79124 0.02494 0.74016 0.0
H862 H 0.80536 0.06077 0.79208 0.0
H863 H 0.78739 0.03722 0.81343 0.0
H864 H 0.74161 0.00877 0.75647 0.0
H865 H 0.74437 0.98375 0.74716 0.0
H866 H 0.75729 0.00402 0.73522 0.0
H867 H 0.79078 0.98563 0.74013 0.0
H868 H 0.77797 0.96532 0.75205 0.0
H869 H 0.79802 0.97779 0.76475 0.0
H870 H 0.76943 0.01 0.82962 0.0
H871 H 0.7529 0.97919 0.84031 0.0
H872 H 0.75015 0.95925 0.77884 0.0
C873 C 0.79029 0.02785 0.75598 0.0
C874 C 0.79972 0.04471 0.76446 0.0
C875 C 0.79842 0.0479 0.78526 0.0
C876 C 0.78814 0.03466 0.79755 0.0
C877 C 0.77925 0.0181 0.78891 0.0
C878 C 0.78024 0.01447 0.76867 0.0
C879 C 0.77017 0.99477 0.7637 0.0
C880 C 0.75229 0.99803 0.74981 0.0
C881 C 0.78513 0.98001 0.75462 0.0
C882 C 0.76347 0.98807 0.7843 0.0
C883 C 0.76885 0.00191 0.7985 0.0
C884 C 0.765 0.99906 0.81865 0.0
C885 C 0.7556 0.98146 0.82458 0.0
C886 C 0.75009 0.96681 0.81046 0.0
C887 C 0.75391 0.97029 0.78997 0.0
H888 H 0.23713 0.2101 0.04592 0.0
H889 H 0.28795 0.19474 0.00913 0.0
H890 H 0.2723 0.21199 0.98056 0.0
H891 H 0.20039 0.20195 0.00821 0.0
H892 H 0.18465 0.22213 0.01624 0.0
H893 H 0.20027 0.20949 0.03397 0.0
H894 H 0.21622 0.2431 0.04396 0.0
H895 H 0.20071 0.25589 0.02622 0.0
H896 H 0.22736 0.25858 0.02507 0.0
H897 H 0.25155 0.23149 0.95644 0.0
H898 H 0.22592 0.24926 0.93723 0.0
H899 H 0.18736 0.24995 0.98908 0.0
C900 C 0.24508 0.21051 0.0319 0.0
C901 C 0.2639 0.20129 0.02977 0.0
C902 C 0.27359 0.2018 0.01109 0.0
C903 C 0.26484 0.21159 0.99482 0.0
C904 C 0.2463 0.22055 0.99747 0.0
C905 C 0.23642 0.2199 0.01547 0.0
C906 C 0.21622 0.22989 0.01413 0.0
C907 C 0.19939 0.21497 0.01838 0.0
C908 C 0.21507 0.24794 0.02818 0.0
C909 C 0.21627 0.23632 0.99251 0.0
C910 C 0.23389 0.231 0.98329 0.0
C911 C 0.23768 0.23566 0.96347 0.0
C912 C 0.22302 0.24584 0.95272 0.0
C913 C 0.20461 0.25099 0.96165 0.0
C914 C 0.20124 0.24615 0.98184 0.0
H915 H 0.25311 0.7838 0.96478 0.0
H916 H 0.23746 0.8457 0.97542 0.0
H917 H 0.21922 0.83594 0.00548 0.0
H918 H 0.20696 0.76289 0.98036 0.0
H919 H 0.21756 0.74148 0.99258 0.0
H920 H 0.2305 0.75301 0.97212 0.0
H921 H 0.26171 0.75766 0.9942 0.0
H922 H 0.24892 0.74596 0.01468 0.0
H923 H 0.25949 0.77044 0.01769 0.0
H924 H 0.20117 0.82026 0.03276 0.0
H925 H 0.1854 0.79926 0.058 0.0
H926 H 0.21261 0.74676 0.03169 0.0
C927 C 0.24607 0.7953 0.97361 0.0
C928 C 0.24676 0.81557 0.96767 0.0
C929 C 0.23721 0.83012 0.97956 0.0
C930 C 0.22676 0.82473 0.99671 0.0
C931 C 0.22605 0.80472 0.00196 0.0
C932 C 0.23555 0.79017 0.99099 0.0
C933 C 0.23202 0.76971 1.00011 0.0
C934 C 0.22111 0.75597 0.98542 0.0
C935 C 0.25171 0.7604 0.00708 0.0
C936 C 0.21882 0.77515 0.01771 0.0
C937 C 0.21565 0.79547 0.0183 0.0
C938 C 0.20364 0.80434 0.0326 0.0
C939 C 0.19466 0.79219 0.04686 0.0
C940 C 0.19774 0.77132 0.04692 0.0
C941 C 0.21006 0.76267 0.03212 0.0
H942 H 0.7521 0.22082 0.95334 0.0
H943 H 0.73495 0.17036 0.98994 0.0
H944 H 0.75078 0.18619 0.01908 0.0
H945 H 0.79975 0.2272 0.9743 0.0
H946 H 0.79957 0.25402 0.97322 0.0
H947 H 0.78526 0.23983 0.95557 0.0
H948 H 0.75333 0.25877 0.96592 0.0
H949 H 0.76757 0.27316 0.98352 0.0
H950 H 0.74612 0.25935 0.99177 0.0
H951 H 0.76874 0.20682 0.04384 0.0
H952 H 0.78938 0.2303 0.06286 0.0
H953 H 0.79712 0.26669 0.00997 0.0
C954 C 0.75134 0.21329 0.96758 0.0
C955 C 0.74208 0.19445 0.96948 0.0
C956 C 0.74182 0.18485 0.98822 0.0
C957 C 0.75076 0.19373 0.00483 0.0
C958 C 0.75999 0.21214 0.0024 0.0
C959 C 0.76043 0.22182 0.98427 0.0
C960 C 0.77236 0.24097 0.98552 0.0
C961 C 0.7903 0.24046 0.97131 0.0
C962 C 0.75905 0.25913 0.98144 0.0
C963 C 0.77886 0.24033 0.00712 0.0
C964 C 0.77121 0.22372 0.0166 0.0
C965 C 0.77477 0.2199 0.03662 0.0
C966 C 0.78646 0.23339 0.0473 0.0
C967 C 0.79477 0.25036 0.03789 0.0
C968 C 0.79097 0.25382 0.0175 0.0
H969 H 0.81367 0.77825 0.96618 0.0
H970 H 0.77416 0.7279 0.95741 0.0
H971 H 0.75333 0.73955 0.9855 0.0
H972 H 0.81157 0.7783 0.01978 0.0
H973 H 0.81247 0.80506 0.02154 0.0
H974 H 0.82406 0.79261 0.00082 0.0
H975 H 0.80322 0.81402 0.97639 0.0
H976 H 0.79144 0.82639 0.99704 0.0
H977 H 0.77649 0.81411 0.97846 0.0
H978 H 0.73639 0.75744 0.0142 0.0
H979 H 0.72612 0.77862 0.04253 0.0
H980 H 0.77733 0.81668 0.0324 0.0
C981 C 0.80067 0.7696 0.97016 0.0
C982 C 0.79551 0.75216 0.95957 0.0
C983 C 0.77843 0.74125 0.96536 0.0
C984 C 0.76647 0.74781 0.98123 0.0
C985 C 0.77189 0.76521 0.9912 0.0
C986 C 0.7887 0.77582 0.98599 0.0
C987 C 0.79151 0.79385 0.99921 0.0
C988 C 0.81106 0.79235 0.01104 0.0
C989 C 0.7906 0.81323 0.98704 0.0
C990 C 0.77361 0.79177 0.01268 0.0
C991 C 0.76238 0.77525 0.00778 0.0
C992 C 0.74511 0.77037 0.0182 0.0
C993 C 0.73936 0.78253 0.03422 0.0
C994 C 0.75093 0.79929 0.03972 0.0
C995 C 0.76816 0.80398 0.02862 0.0
H996 H 0.50539 0.76192 0.69569 0.0
H997 H 0.55965 0.73307 0.71586 0.0
H998 H 0.5402 0.71229 0.73878 0.0
H999 H 0.48087 0.763 0.74362 0.0
H1000 H 0.45654 0.75765 0.73369 0.0
H1001 H 0.47461 0.77054 0.71863 0.0
H1002 H 0.471 0.74378 0.69108 0.0
H1003 H 0.45282 0.73093 0.706 0.0
H1004 H 0.47459 0.71791 0.69729 0.0
H1005 H 0.51517 0.69371 0.75873 0.0
H1006 H 0.48567 0.67861 0.77466 0.0
H1007 H 0.44753 0.71998 0.74292 0.0
C1008 C 0.51317 0.75128 0.70497 0.0
C1009 C 0.5341 0.74925 0.70395 0.0
C1010 C 0.54367 0.73505 0.71634 0.0
C1011 C 0.53275 0.72312 0.72946 0.0
C1012 C 0.51223 0.72554 0.73017 0.0
C1013 C 0.50247 0.73923 0.7183 0.0
C1014 C 0.48021 0.73859 0.72195 0.0
C1015 C 0.47262 0.75864 0.72995 0.0
C1016 C 0.469 0.73243 0.70295 0.0
C1017 C 0.47907 0.72246 0.73775 0.0
C1018 C 0.49773 0.71508 0.74216 0.0
C1019 C 0.50048 0.69949 0.75557 0.0
C1020 C 0.48366 0.69103 0.76456 0.0
C1021 C 0.46438 0.69831 0.76027 0.0
C1022 C 0.46213 0.7144 0.74685 0.0
H1023 H 0.30796 0.48735 0.75048 0.0
H1024 H 0.27584 0.43511 0.7299 0.0
H1025 H 0.25435 0.4564 0.70932 0.0
H1026 H 0.26542 0.51954 0.75397 0.0
H1027 H 0.27839 0.54138 0.74528 0.0
H1028 H 0.2918 0.52204 0.75811 0.0
H1029 H 0.31602 0.51898 0.72826 0.0
H1030 H 0.30264 0.53832 0.71536 0.0
H1031 H 0.30621 0.51441 0.70371 0.0
H1032 H 0.23627 0.48297 0.6909 0.0
H1033 H 0.22199 0.51361 0.67652 0.0
H1034 H 0.26497 0.54896 0.7094 0.0
C1035 C 0.29643 0.48041 0.74162 0.0
C1036 C 0.29361 0.45954 0.74188 0.0
C1037 C 0.27828 0.45105 0.73009 0.0
C1038 C 0.266 0.46301 0.71826 0.0
C1039 C 0.26911 0.48348 0.71839 0.0
C1040 C 0.28388 0.49218 0.72977 0.0
C1041 C 0.28372 0.51465 0.72738 0.0
C1042 C 0.27958 0.525 0.74738 0.0
C1043 C 0.30331 0.52202 0.71812 0.0
C1044 C 0.26645 0.51714 0.71306 0.0
C1045 C 0.25838 0.49894 0.70794 0.0
C1046 C 0.24242 0.49734 0.69481 0.0
C1047 C 0.23441 0.51483 0.68671 0.0
C1048 C 0.24226 0.53369 0.6919 0.0
C1049 C 0.25853 0.53477 0.70524 0.0
H1050 H 0.47215 0.27814 0.68161 0.0
H1051 H 0.45726 0.23168 0.72397 0.0
H1052 H 0.48254 0.2449 0.74724 0.0
H1053 H 0.52541 0.27822 0.69153 0.0
H1054 H 0.52747 0.30477 0.68826 0.0
H1055 H 0.50868 0.29106 0.67495 0.0
H1056 H 0.4816 0.31431 0.68965 0.0
H1057 H 0.50026 0.32788 0.70326 0.0
H1058 H 0.47951 0.31694 0.71628 0.0
H1059 H 0.50849 0.2645 0.76657 0.0
H1060 H 0.53509 0.28678 0.77892 0.0
H1061 H 0.53288 0.31985 0.72343 0.0
C1062 C 0.47433 0.2706 0.69569 0.0
C1063 C 0.46274 0.25388 0.70098 0.0
C1064 C 0.46607 0.24443 0.71954 0.0
C1065 C 0.48031 0.2519 0.73291 0.0
C1066 C 0.49118 0.2687 0.72739 0.0
C1067 C 0.48854 0.27773 0.70908 0.0
C1068 C 0.50216 0.29549 0.70661 0.0
C1069 C 0.5168 0.29218 0.68932 0.0
C1070 C 0.49016 0.31479 0.70379 0.0
C1071 C 0.51272 0.29523 0.72648 0.0
C1072 C 0.50617 0.27974 0.73832 0.0
C1073 C 0.5138 0.27662 0.75738 0.0
C1074 C 0.52881 0.28942 0.76431 0.0
C1075 C 0.53608 0.30507 0.75216 0.0
C1076 C 0.52767 0.30806 0.73312 0.0
H1077 H 0.75613 0.46553 0.71955 0.0
H1078 H 0.75093 0.48587 0.65833 0.0
H1079 H 0.73096 0.51433 0.66943 0.0
H1080 H 0.70743 0.47813 0.73488 0.0
H1081 H 0.71419 0.48696 0.7593 0.0
H1082 H 0.72927 0.46846 0.74709 0.0
H1083 H 0.76032 0.49096 0.75088 0.0
H1084 H 0.74535 0.50945 0.7633 0.0
H1085 H 0.75961 0.51613 0.74157 0.0
H1086 H 0.70918 0.53839 0.68586 0.0
H1087 H 0.68923 0.55979 0.70766 0.0
H1088 H 0.70928 0.52634 0.75926 0.0
C1089 C 0.75108 0.47619 0.70855 0.0
C1090 C 0.75513 0.47338 0.68802 0.0
C1091 C 0.74812 0.48761 0.67411 0.0
C1092 C 0.73669 0.50386 0.68025 0.0
C1093 C 0.73256 0.50593 0.70042 0.0
C1094 C 0.73976 0.49278 0.71448 0.0
C1095 C 0.7328 0.49866 0.73523 0.0
C1096 C 0.72017 0.48206 0.74468 0.0
C1097 C 0.75058 0.50413 0.74853 0.0
C1098 C 0.72023 0.51688 0.73044 0.0
C1099 C 0.72031 0.52059 0.71021 0.0
C1100 C 0.70916 0.53583 0.70176 0.0
C1101 C 0.69774 0.54781 0.71431 0.0
C1102 C 0.69768 0.54475 0.73517 0.0
C1103 C 0.70916 0.52909 0.74338 0.0
H1104 H 0.45972 0.30964 0.28704 0.0
H1105 H 0.45639 0.27871 0.23039 0.0
H1106 H 0.48471 0.25744 0.24045 0.0
H1107 H 0.51267 0.31055 0.29024 0.0
H1108 H 0.51317 0.30695 0.31682 0.0
H1109 H 0.49223 0.31909 0.30537 0.0
H1110 H 0.46848 0.29324 0.32143 0.0
H1111 H 0.48939 0.28095 0.33286 0.0
H1112 H 0.47263 0.26707 0.31717 0.0
H1113 H 0.51354 0.23957 0.25689 0.0
H1114 H 0.54179 0.22798 0.27739 0.0
H1115 H 0.52656 0.27141 0.32276 0.0
C1116 C 0.46486 0.29834 0.27675 0.0
C1117 C 0.45578 0.29579 0.25794 0.0
C1118 C 0.46311 0.28094 0.24488 0.0
C1119 C 0.47914 0.26874 0.25049 0.0
C1120 C 0.48771 0.27165 0.26917 0.0
C1121 C 0.48089 0.28618 0.28203 0.0
C1122 C 0.49305 0.28676 0.30099 0.0
C1123 C 0.5034 0.30704 0.30349 0.0
C1124 C 0.48012 0.2817 0.31919 0.0
C1125 C 0.50792 0.27039 0.29674 0.0
C1126 C 0.50448 0.2617 0.27841 0.0
C1127 C 0.51636 0.24627 0.27126 0.0
C1128 C 0.53233 0.23975 0.28305 0.0
C1129 C 0.5364 0.2488 0.30167 0.0
C1130 C 0.52387 0.2642 0.30859 0.0
H1131 H 0.69028 0.45765 0.28403 0.0
H1132 H 0.70607 0.46842 0.22227 0.0
H1133 H 0.72552 0.49795 0.23254 0.0
H1134 H 0.68432 0.50836 0.29848 0.0
H1135 H 0.69497 0.50486 0.32286 0.0
H1136 H 0.68265 0.48446 0.31061 0.0
H1137 H 0.7144 0.46288 0.31444 0.0
H1138 H 0.72685 0.48325 0.32665 0.0
H1139 H 0.73774 0.47199 0.30487 0.0
H1140 H 0.74271 0.52656 0.24953 0.0
H1141 H 0.75599 0.55253 0.27175 0.0
H1142 H 0.72911 0.52285 0.32252 0.0
C1143 C 0.69774 0.46623 0.27261 0.0
C1144 C 0.69655 0.46079 0.2523 0.0
C1145 C 0.70671 0.47235 0.2379 0.0
C1146 C 0.71783 0.4891 0.24359 0.0
C1147 C 0.71872 0.49401 0.26375 0.0
C1148 C 0.70896 0.4829 0.27803 0.0
C1149 C 0.7122 0.49138 0.29868 0.0
C1150 C 0.69236 0.49764 0.30821 0.0
C1151 C 0.72347 0.47649 0.31194 0.0
C1152 C 0.72498 0.50928 0.29376 0.0
C1153 C 0.72869 0.51042 0.27355 0.0
C1154 C 0.73993 0.52579 0.26538 0.0
C1155 C 0.74741 0.54049 0.27816 0.0
C1156 C 0.74358 0.53979 0.29892 0.0
C1157 C 0.73233 0.52383 0.30676 0.0
H1158 H 0.53412 0.7158 0.23641 0.0
H1159 H 0.5201 0.65613 0.25716 0.0
H1160 H 0.49351 0.66968 0.27819 0.0
H1161 H 0.52683 0.74063 0.28175 0.0
H1162 H 0.51505 0.76245 0.27152 0.0
H1163 H 0.53223 0.74829 0.2566 0.0
H1164 H 0.50541 0.74388 0.2293 0.0
H1165 H 0.48819 0.75825 0.24402 0.0
H1166 H 0.48151 0.73359 0.23583 0.0
H1167 H 0.47165 0.68925 0.29988 0.0
H1168 H 0.45186 0.71389 0.31829 0.0
H1169 H 0.47718 0.7614 0.28255 0.0
C1170 C 0.52516 0.70556 0.24504 0.0
C1171 C 0.52929 0.68485 0.24511 0.0
C1172 C 0.51729 0.672 0.25676 0.0
C1173 C 0.50214 0.67956 0.26884 0.0
C1174 C 0.49885 0.7 0.26891 0.0
C1175 C 0.50965 0.71286 0.25706 0.0
C1176 C 0.50302 0.73427 0.26036 0.0
C1177 C 0.52032 0.74717 0.26801 0.0
C1178 C 0.49399 0.74301 0.24124 0.0
C1179 C 0.48724 0.73138 0.27631 0.0
C1180 C 0.48529 0.71143 0.28102 0.0
C1181 C 0.47276 0.70488 0.29612 0.0
C1182 C 0.46171 0.71902 0.30661 0.0
C1183 C 0.46299 0.73951 0.30182 0.0
C1184 C 0.47583 0.7458 0.28636 0.0
H1185 H 0.30774 0.54306 0.28338 0.0
H1186 H 0.2873 0.53758 0.22234 0.0
H1187 H 0.26725 0.50815 0.23185 0.0
H1188 H 0.31226 0.49126 0.29392 0.0
H1189 H 0.30344 0.49354 0.31916 0.0
H1190 H 0.31588 0.51418 0.30744 0.0
H1191 H 0.28551 0.53677 0.31493 0.0
H1192 H 0.27293 0.51615 0.32658 0.0
H1193 H 0.26119 0.52938 0.30641 0.0
H1194 H 0.24967 0.47897 0.24825 0.0
H1195 H 0.23667 0.45216 0.26985 0.0
H1196 H 0.26868 0.47724 0.32005 0.0
C1197 C 0.2991 0.53568 0.27196 0.0
C1198 C 0.29914 0.54261 0.25208 0.0
C1199 C 0.28748 0.53257 0.23766 0.0
C1200 C 0.27605 0.51585 0.24293 0.0
C1201 C 0.27631 0.50948 0.2627 0.0
C1202 C 0.28753 0.51912 0.27698 0.0
C1203 C 0.2853 0.50938 0.29718 0.0
C1204 C 0.30542 0.50163 0.30487 0.0
C1205 C 0.27566 0.52378 0.31215 0.0
C1206 C 0.27138 0.49246 0.292 0.0
C1207 C 0.26621 0.49284 0.27209 0.0
C1208 C 0.25358 0.47858 0.26387 0.0
C1209 C 0.24623 0.46343 0.27628 0.0
C1210 C 0.25163 0.46259 0.29667 0.0
C1211 C 0.26425 0.47744 0.30456 0.0
H1212 H 0.74516 0.6865 0.5143 0.0
H1213 H 0.75671 0.72991 0.56075 0.0
H1214 H 0.74038 0.75589 0.54061 0.0
H1215 H 0.75436 0.72098 0.47291 0.0
H1216 H 0.73534 0.71008 0.45746 0.0
H1217 H 0.74824 0.69497 0.47547 0.0
H1218 H 0.71448 0.68491 0.49109 0.0
H1219 H 0.70151 0.70018 0.4733 0.0
H1220 H 0.69766 0.70402 0.49958 0.0
H1221 H 0.72126 0.77683 0.51627 0.0
H1222 H 0.70359 0.79206 0.48782 0.0
H1223 H 0.70561 0.73544 0.45663 0.0
C1224 C 0.74443 0.70153 0.52009 0.0
C1225 C 0.75227 0.70621 0.53904 0.0
C1226 C 0.75104 0.72604 0.54616 0.0
C1227 C 0.74166 0.74088 0.53489 0.0
C1228 C 0.73385 0.73576 0.5164 0.0
C1229 C 0.73544 0.71666 0.50886 0.0
C1230 C 0.72617 0.71525 0.48834 0.0
C1231 C 0.74197 0.71002 0.47262 0.0
C1232 C 0.70893 0.7002 0.48808 0.0
C1233 C 0.71874 0.73642 0.48577 0.0
C1234 C 0.72327 0.74798 0.50214 0.0
C1235 C 0.71777 0.76798 0.50327 0.0
C1236 C 0.7077 0.77649 0.48706 0.0
C1237 C 0.70327 0.76504 0.46994 0.0
C1238 C 0.70877 0.74468 0.46946 0.0
H1239 H 0.74157 0.31707 0.48542 0.0
H1240 H 0.75642 0.27147 0.44211 0.0
H1241 H 0.74181 0.24587 0.46399 0.0
H1242 H 0.75266 0.28617 0.52928 0.0
H1243 H 0.73274 0.29675 0.5438 0.0
H1244 H 0.74482 0.31146 0.5249 0.0
H1245 H 0.71066 0.31811 0.50833 0.0
H1246 H 0.69853 0.30325 0.52704 0.0
H1247 H 0.69528 0.29735 0.50107 0.0
H1248 H 0.72398 0.2254 0.4896 0.0
H1249 H 0.70652 0.21103 0.51858 0.0
H1250 H 0.70429 0.26955 0.54601 0.0
C1251 C 0.74193 0.30166 0.48068 0.0
C1252 C 0.75022 0.29626 0.4621 0.0
C1253 C 0.75039 0.27594 0.45639 0.0
C1254 C 0.74202 0.26129 0.46866 0.0
C1255 C 0.73378 0.2671 0.48677 0.0
C1256 C 0.73395 0.28674 0.49295 0.0
C1257 C 0.72434 0.2889 0.51327 0.0
C1258 C 0.73954 0.29625 0.52873 0.0
C1259 C 0.70612 0.30272 0.51236 0.0
C1260 C 0.71831 0.26749 0.51728 0.0
C1261 C 0.7239 0.25518 0.50179 0.0
C1262 C 0.71969 0.23485 0.50192 0.0
C1263 C 0.70972 0.22683 0.51844 0.0
C1264 C 0.70408 0.23908 0.53465 0.0
C1265 C 0.70842 0.25972 0.53392 0.0
H1266 H 0.24006 0.70338 0.47949 0.0
H1267 H 0.28772 0.69787 0.43627 0.0
H1268 H 0.30953 0.71821 0.45749 0.0
H1269 H 0.25083 0.75409 0.49575 0.0
H1270 H 0.24589 0.74922 0.52167 0.0
H1271 H 0.23324 0.73507 0.50273 0.0
H1272 H 0.24594 0.70229 0.5185 0.0
H1273 H 0.25857 0.71632 0.53754 0.0
H1274 H 0.27225 0.69889 0.52242 0.0
H1275 H 0.32651 0.73804 0.48288 0.0
H1276 H 0.33886 0.75547 0.51257 0.0
H1277 H 0.28124 0.74811 0.54093 0.0
C1278 C 0.25502 0.7067 0.47453 0.0
C1279 C 0.26227 0.69918 0.45625 0.0
C1280 C 0.28199 0.70346 0.45028 0.0
C1281 C 0.29445 0.71506 0.46217 0.0
C1282 C 0.28707 0.72215 0.48016 0.0
C1283 C 0.26793 0.71806 0.48652 0.0
C1284 C 0.26441 0.72669 0.50716 0.0
C1285 C 0.24759 0.74219 0.50679 0.0
C1286 C 0.26004 0.71006 0.52229 0.0
C1287 C 0.28448 0.73638 0.51116 0.0
C1288 C 0.2972 0.73354 0.49528 0.0
C1289 C 0.3167 0.74047 0.49542 0.0
C1290 C 0.32358 0.75037 0.51238 0.0
C1291 C 0.31103 0.75329 0.52905 0.0
C1292 C 0.29111 0.74637 0.52831 0.0
H1293 H 0.23421 0.29703 0.50782 0.0
H1294 H 0.27081 0.29303 0.5608 0.0
H1295 H 0.29583 0.2737 0.54229 0.0
H1296 H 0.24489 0.24656 0.49043 0.0
H1297 H 0.24513 0.25342 0.46448 0.0
H1298 H 0.22994 0.26712 0.48183 0.0
H1299 H 0.24714 0.29993 0.47111 0.0
H1300 H 0.26236 0.28634 0.45374 0.0
H1301 H 0.27386 0.30181 0.47239 0.0
H1302 H 0.3179 0.25683 0.51778 0.0
H1303 H 0.33462 0.241 0.48907 0.0
H1304 H 0.28301 0.25331 0.45229 0.0
C1305 C 0.24745 0.29193 0.51546 0.0
C1306 C 0.2505 0.29627 0.53582 0.0
C1307 C 0.268 0.28944 0.54536 0.0
C1308 C 0.28238 0.2786 0.53493 0.0
C1309 C 0.27894 0.27442 0.51495 0.0
C1310 C 0.26184 0.28063 0.50531 0.0
C1311 C 0.26179 0.27369 0.48381 0.0
C1312 C 0.24441 0.25934 0.47991 0.0
C1313 C 0.26126 0.29151 0.46942 0.0
C1314 C 0.28164 0.26292 0.48288 0.0
C1315 C 0.29134 0.26371 0.50098 0.0
C1316 C 0.31034 0.25581 0.5036 0.0
C1317 C 0.31972 0.24686 0.48724 0.0
C1318 C 0.30996 0.24558 0.46864 0.0
C1319 C 0.29061 0.25362 0.46651 0.0
H1320 H 0.1465 0.12727 0.22312 0.0
H1321 H 0.1189 0.13675 0.2805 0.0
H1322 H 0.10369 0.16788 0.26822 0.0
H1323 H 0.16196 0.17328 0.2178 0.0
H1324 H 0.15816 0.17687 0.1915 0.0
H1325 H 0.16178 0.15213 0.20125 0.0
H1326 H 0.129 0.13947 0.18658 0.0
H1327 H 0.12538 0.16356 0.17528 0.0
H1328 H 0.10635 0.15313 0.19107 0.0
H1329 H 0.09667 0.20071 0.2519 0.0
H1330 H 0.09839 0.2322 0.23271 0.0
H1331 H 0.1313 0.20198 0.18633 0.0
C1332 C 0.13619 0.13529 0.23258 0.0
C1333 C 0.13319 0.12934 0.25247 0.0
C1334 C 0.12079 0.14083 0.26501 0.0
C1335 C 0.11215 0.15856 0.25817 0.0
C1336 C 0.11616 0.16464 0.23875 0.0
C1337 C 0.12766 0.15321 0.226 0.0
C1338 C 0.13238 0.16457 0.20709 0.0
C1339 C 0.15493 0.16686 0.20426 0.0
C1340 C 0.12269 0.15459 0.18893 0.0
C1341 C 0.12272 0.18439 0.21162 0.0
C1342 C 0.11302 0.18403 0.22973 0.0
C1343 C 0.10403 0.20105 0.23758 0.0
C1344 C 0.10519 0.21888 0.22669 0.0
C1345 C 0.11565 0.21962 0.20843 0.0
C1346 C 0.12405 0.20205 0.20064 0.0
H1347 H 0.87027 0.15558 0.22498 0.0
H1348 H 0.87109 0.11241 0.27226 0.0
H1349 H 0.84039 0.09699 0.25872 0.0
H1350 H 0.82281 0.16617 0.22849 0.0
H1351 H 0.81673 0.16975 0.20259 0.0
H1352 H 0.84168 0.17375 0.21097 0.0
H1353 H 0.85596 0.14826 0.18614 0.0
H1354 H 0.83124 0.14492 0.17635 0.0
H1355 H 0.84533 0.12369 0.18476 0.0
H1356 H 0.80698 0.08986 0.2428 0.0
H1357 H 0.77378 0.09227 0.22694 0.0
H1358 H 0.79402 0.14275 0.19218 0.0
C1359 C 0.86467 0.14212 0.23149 0.0
C1360 C 0.87342 0.13455 0.24886 0.0
C1361 C 0.86496 0.11783 0.25837 0.0
C1362 C 0.8475 0.1091 0.25083 0.0
C1363 C 0.83869 0.11755 0.23398 0.0
C1364 C 0.84713 0.13369 0.22434 0.0
C1365 C 0.83329 0.14227 0.20877 0.0
C1366 C 0.82834 0.16427 0.213 0.0
C1367 C 0.84198 0.13962 0.18776 0.0
C1368 C 0.81536 0.12912 0.2118 0.0
C1369 C 0.8189 0.11455 0.22592 0.0
C1370 C 0.80416 0.10109 0.23159 0.0
C1371 C 0.78535 0.10264 0.22262 0.0
C1372 C 0.78138 0.1179 0.20862 0.0
C1373 C 0.79664 0.13113 0.20307 0.0
H1374 H 0.87941 0.77789 0.22803 0.0
H1375 H 0.86844 0.79629 0.16723 0.0
H1376 H 0.86955 0.83161 0.17756 0.0
H1377 H 0.8467 0.81294 0.24876 0.0
H1378 H 0.86116 0.81707 0.27097 0.0
H1379 H 0.86287 0.79367 0.25812 0.0
H1380 H 0.90114 0.7983 0.25548 0.0
H1381 H 0.89932 0.82198 0.268 0.0
H1382 H 0.911 0.82042 0.24389 0.0
H1383 H 0.86911 0.86452 0.19465 0.0
H1384 H 0.86103 0.89191 0.21769 0.0
H1385 H 0.8712 0.85256 0.26786 0.0
C1386 C 0.87766 0.78945 0.21693 0.0
C1387 C 0.87409 0.78457 0.19683 0.0
C1388 C 0.87127 0.79989 0.18268 0.0
C1389 C 0.87208 0.81995 0.18838 0.0
C1390 C 0.87553 0.8244 0.20835 0.0
C1391 C 0.87793 0.80958 0.22248 0.0
C1392 C 0.87846 0.81827 0.24329 0.0
C1393 C 0.86128 0.81001 0.25602 0.0
C1394 C 0.89869 0.81452 0.25325 0.0
C1395 C 0.87555 0.84018 0.23866 0.0
C1396 C 0.87443 0.84345 0.21839 0.0
C1397 C 0.87022 0.86222 0.21056 0.0
C1398 C 0.86577 0.87776 0.22378 0.0
C1399 C 0.86537 0.87434 0.24457 0.0
C1400 C 0.87138 0.85559 0.25204 0.0
H1401 H 0.2203 0.88561 0.22316 0.0
H1402 H 0.21301 0.83897 0.17905 0.0
H1403 H 0.17718 0.83723 0.18692 0.0
H1404 H 0.18806 0.86042 0.25862 0.0
H1405 H 0.17875 0.88329 0.26914 0.0
H1406 H 0.20329 0.88253 0.25848 0.0
H1407 H 0.19364 0.912 0.23547 0.0
H1408 H 0.16881 0.91228 0.24561 0.0
H1409 H 0.17247 0.90961 0.21917 0.0
H1410 H 0.14182 0.84418 0.19553 0.0
H1411 H 0.11156 0.84502 0.21647 0.0
H1412 H 0.1428 0.88095 0.25995 0.0
C1413 C 0.21116 0.875 0.21517 0.0
C1414 C 0.21926 0.86306 0.1998 0.0
C1415 C 0.20702 0.84876 0.19034 0.0
C1416 C 0.18663 0.84785 0.19445 0.0
C1417 C 0.17885 0.8608 0.20858 0.0
C1418 C 0.19088 0.87316 0.21974 0.0
C1419 C 0.17918 0.88276 0.23652 0.0
C1420 C 0.18783 0.87688 0.2569 0.0
C1421 C 0.17849 0.90552 0.23404 0.0
C1422 C 0.15881 0.87359 0.23307 0.0
C1423 C 0.15879 0.86199 0.21612 0.0
C1424 C 0.14166 0.85263 0.20922 0.0
C1425 C 0.1245 0.85349 0.22099 0.0
C1426 C 0.12501 0.86286 0.2398 0.0
C1427 C 0.14206 0.87381 0.24552 0.0
H1428 H 0.13808 0.79843 0.81537 0.0
H1429 H 0.1062 0.76686 0.76902 0.0
H1430 H 0.10332 0.79809 0.74968 0.0
H1431 H 0.10781 0.84524 0.80994 0.0
H1432 H 0.12882 0.86091 0.81562 0.0
H1433 H 0.12694 0.83647 0.82658 0.0
H1434 H 0.16154 0.82718 0.81252 0.0
H1435 H 0.16307 0.85173 0.80194 0.0
H1436 H 0.16624 0.83014 0.7862 0.0
H1437 H 0.10756 0.83137 0.73382 0.0
H1438 H 0.12005 0.86371 0.72178 0.0
H1439 H 0.14724 0.87486 0.7791 0.0
C1440 C 0.13058 0.79816 0.8011 0.0
C1441 C 0.12273 0.78023 0.79341 0.0
C1442 C 0.11252 0.78044 0.77499 0.0
C1443 C 0.11063 0.79813 0.76403 0.0
C1444 C 0.11844 0.81562 0.77204 0.0
C1445 C 0.12802 0.81581 0.79023 0.0
C1446 C 0.13556 0.83649 0.79514 0.0
C1447 C 0.1241 0.84529 0.81288 0.0
C1448 C 0.15799 0.83629 0.79917 0.0
C1449 C 0.13056 0.84747 0.77603 0.0
C1450 C 0.12003 0.83526 0.76319 0.0
C1451 C 0.11534 0.84123 0.74391 0.0
C1452 C 0.12241 0.85967 0.73722 0.0
C1453 C 0.13409 0.87197 0.74971 0.0
C1454 C 0.13759 0.86612 0.7696 0.0
H1455 H 0.20157 0.13825 0.81 0.0
H1456 H 0.22867 0.10138 0.76475 0.0
H1457 H 0.19618 0.09908 0.74731 0.0
H1458 H 0.15122 0.11369 0.80914 0.0
H1459 H 0.13913 0.13726 0.81349 0.0
H1460 H 0.16345 0.13254 0.82362 0.0
H1461 H 0.1767 0.16478 0.80546 0.0
H1462 H 0.15213 0.16876 0.79598 0.0
H1463 H 0.17279 0.16711 0.77903 0.0
H1464 H 0.16232 0.10539 0.73253 0.0
H1465 H 0.1308 0.12052 0.7211 0.0
H1466 H 0.12555 0.15237 0.7768 0.0
C1467 C 0.20068 0.12986 0.79638 0.0
C1468 C 0.21764 0.12057 0.78833 0.0
C1469 C 0.2158 0.10887 0.77093 0.0
C1470 C 0.19741 0.10734 0.76109 0.0
C1471 C 0.18098 0.11712 0.76926 0.0
C1472 C 0.18244 0.12796 0.78666 0.0
C1473 C 0.16317 0.13848 0.79155 0.0
C1474 C 0.1537 0.13 0.81058 0.0
C1475 C 0.16641 0.16112 0.79308 0.0
C1476 C 0.15091 0.13297 0.77353 0.0
C1477 C 0.16125 0.1202 0.76107 0.0
C1478 C 0.15385 0.11484 0.74245 0.0
C1479 C 0.13589 0.12336 0.73613 0.0
C1480 C 0.12551 0.1369 0.74846 0.0
C1481 C 0.13275 0.14123 0.76761 0.0
H1482 H 0.85466 0.20858 0.80212 0.0
H1483 H 0.90881 0.22787 0.77329 0.0
H1484 H 0.9107 0.19548 0.75551 0.0
H1485 H 0.87544 0.15779 0.81087 0.0
H1486 H 0.85137 0.14622 0.80936 0.0
H1487 H 0.85364 0.17101 0.81909 0.0
H1488 H 0.82908 0.18566 0.79262 0.0
H1489 H 0.82526 0.16047 0.78508 0.0
H1490 H 0.83251 0.17886 0.76686 0.0
H1491 H 0.90279 0.16201 0.73757 0.0
H1492 H 0.88806 0.13073 0.72428 0.0
H1493 H 0.84454 0.13138 0.77122 0.0
C1494 C 0.86725 0.20579 0.79264 0.0
C1495 C 0.8816 0.22061 0.78934 0.0
C1496 C 0.89754 0.21667 0.77606 0.0
C1497 C 0.89881 0.19829 0.766 0.0
C1498 C 0.88457 0.18372 0.77018 0.0
C1499 C 0.86947 0.18719 0.78371 0.0
C1500 C 0.8566 0.16905 0.78665 0.0
C1501 C 0.85943 0.16053 0.80772 0.0
C1502 C 0.83459 0.17381 0.78248 0.0
C1503 C 0.86551 0.15534 0.77121 0.0
C1504 C 0.88175 0.16388 0.76187 0.0
C1505 C 0.89062 0.15486 0.74534 0.0
C1506 C 0.88231 0.13703 0.73796 0.0
C1507 C 0.86571 0.12826 0.74747 0.0
C1508 C 0.85776 0.13729 0.76453 0.0
H1509 H 0.87892 0.8547 0.77772 0.0
H1510 H 0.86847 0.88092 0.71988 0.0
H1511 H 0.83726 0.89585 0.7321 0.0
H1512 H 0.83493 0.83778 0.78464 0.0
H1513 H 0.83109 0.84259 0.81078 0.0
H1514 H 0.85596 0.84052 0.80119 0.0
H1515 H 0.86593 0.87461 0.81432 0.0
H1516 H 0.84152 0.87711 0.82517 0.0
H1517 H 0.85082 0.89601 0.80854 0.0
H1518 H 0.80453 0.90196 0.74798 0.0
H1519 H 0.77279 0.89864 0.76634 0.0
H1520 H 0.80297 0.86576 0.81288 0.0
C1521 C 0.87067 0.86472 0.76816 0.0
C1522 C 0.8763 0.86731 0.74812 0.0
C1523 C 0.8646 0.87936 0.73546 0.0
C1524 C 0.84685 0.88786 0.74228 0.0
C1525 C 0.84099 0.88412 0.76182 0.0
C1526 C 0.85271 0.87312 0.77475 0.0
C1527 C 0.84144 0.86842 0.79376 0.0
C1528 C 0.84076 0.84595 0.7978 0.0
C1529 C 0.85046 0.87972 0.81149 0.0
C1530 C 0.82111 0.87654 0.78861 0.0
C1531 C 0.82141 0.88642 0.77056 0.0
C1532 C 0.80421 0.89452 0.76227 0.0
C1533 C 0.78625 0.89243 0.77268 0.0
C1534 C 0.78555 0.8817 0.79077 0.0
C1535 C 0.8032 0.87382 0.79891 0.0
H1536 H 0.19595 0.1503 0.20937 0.0
H1537 H 0.22405 0.09487 0.2267 0.0
H1538 H 0.23976 0.09247 0.19343 0.0
H1539 H 0.18449 0.13572 0.15939 0.0
H1540 H 0.19074 0.15874 0.14725 0.0
H1541 H 0.18106 0.15907 0.17214 0.0
H1542 H 0.21039 0.1769 0.18787 0.0
H1543 H 0.22045 0.18047 0.16352 0.0
H1544 H 0.2354 0.1689 0.18228 0.0
H1545 H 0.25484 0.09832 0.15876 0.0
H1546 H 0.26762 0.11216 0.12692 0.0
H1547 H 0.22545 0.16055 0.13104 0.0
C1548 C 0.2052 0.13754 0.20612 0.0
C1549 C 0.20879 0.12284 0.22062 0.0
C1550 C 0.22116 0.1064 0.21581 0.0
C1551 C 0.23001 0.10481 0.1969 0.0
C1552 C 0.22587 0.11948 0.1828 0.0
C1553 C 0.21351 0.13534 0.18718 0.0
C1554 C 0.21208 0.14962 0.16993 0.0
C1555 C 0.19081 0.15085 0.16175 0.0
C1556 C 0.22005 0.17016 0.17625 0.0
C1557 C 0.2256 0.13951 0.1551 0.0
C1558 C 0.23359 0.12217 0.16274 0.0
C1559 C 0.24817 0.11154 0.1524 0.0
C1560 C 0.25513 0.11929 0.1342 0.0
C1561 C 0.24703 0.13705 0.12631 0.0
C1562 C 0.23154 0.14672 0.13654 0.0
H1563 H 0.87596 0.27295 0.14223 0.0
H1564 H 0.86619 0.22155 0.10447 0.0
H1565 H 0.87595 0.19948 0.13212 0.0
H1566 H 0.91711 0.25 0.17492 0.0
H1567 H 0.9072 0.26232 0.19659 0.0
H1568 H 0.90551 0.27407 0.1725 0.0
H1569 H 0.86741 0.27737 0.17719 0.0
H1570 H 0.86884 0.26519 0.20094 0.0
H1571 H 0.85279 0.25534 0.18184 0.0
H1572 H 0.87972 0.18317 0.16492 0.0
H1573 H 0.87926 0.17347 0.20004 0.0
H1574 H 0.88386 0.23527 0.21785 0.0
C1575 C 0.87684 0.25708 0.13953 0.0
C1576 C 0.87044 0.24894 0.1212 0.0
C1577 C 0.87139 0.22812 0.11824 0.0
C1578 C 0.87679 0.21546 0.13395 0.0
C1579 C 0.88144 0.22392 0.15235 0.0
C1580 C 0.88191 0.24429 0.15515 0.0
C1581 C 0.88455 0.24954 0.17699 0.0
C1582 C 0.9048 0.25957 0.18045 0.0
C1583 C 0.86737 0.26262 0.18467 0.0
C1584 C 0.88403 0.22898 0.18621 0.0
C1585 C 0.8828 0.21445 0.17165 0.0
C1586 C 0.88094 0.19441 0.1764 0.0
C1587 C 0.88033 0.18905 0.19649 0.0
C1588 C 0.88102 0.20363 0.21167 0.0
C1589 C 0.88325 0.22385 0.20648 0.0
H1590 H 0.77204 0.88202 0.22256 0.0
H1591 H 0.82858 0.85545 0.20668 0.0
H1592 H 0.81926 0.85655 0.17111 0.0
H1593 H 0.74412 0.85238 0.18961 0.0
H1594 H 0.72622 0.87151 0.18375 0.0
H1595 H 0.73893 0.87193 0.20727 0.0
H1596 H 0.75085 0.90793 0.19965 0.0
H1597 H 0.73861 0.90724 0.17577 0.0
H1598 H 0.7648 0.91274 0.17726 0.0
H1599 H 0.80413 0.86139 0.13732 0.0
H1600 H 0.78056 0.85687 0.10945 0.0
H1601 H 0.73192 0.87457 0.14785 0.0
C1602 C 0.78241 0.87653 0.21151 0.0
C1603 C 0.80112 0.86891 0.21718 0.0
C1604 C 0.81423 0.86145 0.2025 0.0
C1605 C 0.80919 0.86231 0.18228 0.0
C1606 C 0.79078 0.8703 0.17705 0.0
C1607 C 0.77727 0.87654 0.19128 0.0
C1608 C 0.7573 0.88128 0.18196 0.0
C1609 C 0.74067 0.8685 0.19119 0.0
C1610 C 0.75261 0.90362 0.18377 0.0
C1611 C 0.76139 0.87563 0.16049 0.0
C1612 C 0.78114 0.87064 0.15779 0.0
C1613 C 0.78855 0.86497 0.13927 0.0
C1614 C 0.7751 0.86261 0.12349 0.0
C1615 C 0.75447 0.86501 0.1267 0.0
C1616 C 0.74767 0.87263 0.14509 0.0
H1617 H 0.12252 0.81494 0.19962 0.0
H1618 H 0.10493 0.76454 0.23554 0.0
H1619 H 0.1036 0.74351 0.2052 0.0
H1620 H 0.09167 0.79862 0.15285 0.0
H1621 H 0.11062 0.80906 0.13698 0.0
H1622 H 0.10501 0.82058 0.16057 0.0
H1623 H 0.14138 0.81877 0.16869 0.0
H1624 H 0.14844 0.8045 0.14731 0.0
H1625 H 0.15308 0.79511 0.17237 0.0
H1626 H 0.11011 0.72716 0.17255 0.0
H1627 H 0.12503 0.71618 0.1409 0.0
H1628 H 0.13818 0.77743 0.12554 0.0
C1629 C 0.11784 0.79965 0.20096 0.0
C1630 C 0.11407 0.79123 0.2198 0.0
C1631 C 0.10798 0.77115 0.22115 0.0
C1632 C 0.10698 0.75922 0.20398 0.0
C1633 C 0.11134 0.76785 0.18556 0.0
C1634 C 0.11607 0.7878 0.18388 0.0
C1635 C 0.12225 0.79301 0.1628 0.0
C1636 C 0.10643 0.80608 0.15271 0.0
C1637 C 0.14256 0.8034 0.16271 0.0
C1638 C 0.12278 0.7724 0.15343 0.0
C1639 C 0.11538 0.75831 0.16656 0.0
C1640 C 0.11548 0.73809 0.16199 0.0
C1641 C 0.12395 0.73199 0.14395 0.0
C1642 C 0.1324 0.74596 0.13063 0.0
C1643 C 0.13123 0.76651 0.13515 0.0
H1644 H 0.19486 0.85339 0.7925 0.0
H1645 H 0.23112 0.8998 0.76665 0.0
H1646 H 0.2505 0.90206 0.79799 0.0
H1647 H 0.19219 0.87853 0.84136 0.0
H1648 H 0.19174 0.85569 0.85533 0.0
H1649 H 0.18075 0.85662 0.83103 0.0
H1650 H 0.20294 0.82799 0.8175 0.0
H1651 H 0.21246 0.82537 0.84221 0.0
H1652 H 0.22942 0.82897 0.82178 0.0
H1653 H 0.26809 0.89583 0.8314 0.0
H1654 H 0.28073 0.88294 0.8637 0.0
H1655 H 0.22872 0.84591 0.86934 0.0
C1656 C 0.20659 0.86422 0.7936 0.0
C1657 C 0.21144 0.87635 0.77728 0.0
C1658 C 0.22723 0.89024 0.77905 0.0
C1659 C 0.23819 0.89174 0.79681 0.0
C1660 C 0.2326 0.87985 0.81289 0.0
C1661 C 0.21683 0.8667 0.81151 0.0
C1662 C 0.21334 0.85592 0.83091 0.0
C1663 C 0.19334 0.86205 0.84017 0.0
C1664 C 0.21466 0.83324 0.82792 0.0
C1665 C 0.23047 0.86395 0.84306 0.0
C1666 C 0.24141 0.87784 0.83254 0.0
C1667 C 0.25923 0.88551 0.84003 0.0
C1668 C 0.26622 0.87831 0.85844 0.0
C1669 C 0.25511 0.86408 0.86925 0.0
C1670 C 0.23683 0.85739 0.8617 0.0
H1671 H 0.12758 0.19121 0.80031 0.0
H1672 H 0.10946 0.24141 0.76427 0.0
H1673 H 0.10793 0.26256 0.79447 0.0
H1674 H 0.09741 0.20477 0.84507 0.0
H1675 H 0.11632 0.19623 0.86207 0.0
H1676 H 0.11349 0.18445 0.8381 0.0
H1677 H 0.15035 0.19159 0.82967 0.0
H1678 H 0.15344 0.2027 0.85385 0.0
H1679 H 0.15976 0.21662 0.83174 0.0
H1680 H 0.11187 0.27881 0.82752 0.0
H1681 H 0.12393 0.29002 0.86027 0.0
H1682 H 0.13983 0.22942 0.87549 0.0
C1683 C 0.12343 0.20667 0.79888 0.0
C1684 C 0.11902 0.21489 0.78007 0.0
C1685 C 0.11297 0.23498 0.77864 0.0
C1686 C 0.11192 0.247 0.7957 0.0
C1687 C 0.11654 0.23852 0.8141 0.0
C1688 C 0.12213 0.2188 0.81582 0.0
C1689 C 0.12775 0.21375 0.8371 0.0
C1690 C 0.11286 0.19891 0.84612 0.0
C1691 C 0.14912 0.20571 0.83817 0.0
C1692 C 0.12585 0.23404 0.84685 0.0
C1693 C 0.11868 0.24794 0.83341 0.0
C1694 C 0.11707 0.26801 0.83829 0.0
C1695 C 0.12382 0.27422 0.85699 0.0
C1696 C 0.13226 0.2605 0.87059 0.0
C1697 C 0.13263 0.24004 0.86573 0.0
H1698 H 0.7662 0.1177 0.78116 0.0
H1699 H 0.82829 0.12255 0.79742 0.0
H1700 H 0.81942 0.12324 0.83279 0.0
H1701 H 0.74677 0.14941 0.81591 0.0
H1702 H 0.72498 0.13493 0.82184 0.0
H1703 H 0.73658 0.13228 0.79791 0.0
H1704 H 0.74006 0.09427 0.80395 0.0
H1705 H 0.72868 0.09692 0.82812 0.0
H1706 H 0.75281 0.08546 0.82584 0.0
H1707 H 0.8037 0.12858 0.86586 0.0
H1708 H 0.78201 0.13904 0.89367 0.0
H1709 H 0.73013 0.12778 0.85708 0.0
C1710 C 0.77785 0.1186 0.79226 0.0
C1711 C 0.7979 0.12084 0.78658 0.0
C1712 C 0.81282 0.12173 0.80138 0.0
C1713 C 0.80793 0.12169 0.82161 0.0
C1714 C 0.78802 0.12002 0.82686 0.0
C1715 C 0.77319 0.11819 0.81265 0.0
C1716 C 0.75286 0.11795 0.82233 0.0
C1717 C 0.73953 0.13464 0.81401 0.0
C1718 C 0.74302 0.09743 0.81991 0.0
C1719 C 0.75856 0.12164 0.84387 0.0
C1720 C 0.77895 0.1222 0.84628 0.0
C1721 C 0.78771 0.12759 0.86436 0.0
C1722 C 0.77529 0.13338 0.88015 0.0
C1723 C 0.75444 0.13395 0.87755 0.0
C1724 C 0.74605 0.12709 0.85952 0.0
H1725 H 0.84446 0.77669 0.87225 0.0
H1726 H 0.88837 0.72966 0.87257 0.0
H1727 H 0.90269 0.74269 0.84125 0.0
H1728 H 0.83271 0.77247 0.82366 0.0
H1729 H 0.82917 0.79851 0.81808 0.0
H1730 H 0.8255 0.78968 0.84292 0.0
H1731 H 0.85152 0.81421 0.85732 0.0
H1732 H 0.85403 0.82436 0.8327 0.0
H1733 H 0.87571 0.8158 0.84586 0.0
H1734 H 0.90927 0.7582 0.80768 0.0
H1735 H 0.90749 0.77474 0.7748 0.0
H1736 H 0.85559 0.80754 0.79427 0.0
C1737 C 0.85777 0.76988 0.86625 0.0
C1738 C 0.86595 0.75277 0.87519 0.0
C1739 C 0.8826 0.74339 0.86638 0.0
C1740 C 0.89062 0.75054 0.84847 0.0
C1741 C 0.88154 0.76685 0.83941 0.0
C1742 C 0.86546 0.77642 0.84802 0.0
C1743 C 0.85678 0.79191 0.83414 0.0
C1744 C 0.83475 0.78785 0.82943 0.0
C1745 C 0.8597 0.81281 0.843 0.0
C1746 C 0.8697 0.78874 0.81596 0.0
C1747 C 0.88434 0.77476 0.81951 0.0
C1748 C 0.89795 0.7693 0.80482 0.0
C1749 C 0.89673 0.77864 0.78615 0.0
C1750 C 0.88151 0.79266 0.7821 0.0
C1751 C 0.86765 0.79736 0.79713 0.0
H1752 H 0.12654 0.22802 0.15357 0.0
H1753 H 0.12858 0.27842 0.11355 0.0
H1754 H 0.16004 0.26568 0.09901 0.0
H1755 H 0.17848 0.23007 0.16466 0.0
H1756 H 0.17941 0.20348 0.16838 0.0
H1757 H 0.15668 0.21694 0.17236 0.0
H1758 H 0.14021 0.19149 0.14682 0.0
H1759 H 0.16398 0.18012 0.14235 0.0
H1760 H 0.15007 0.19028 0.12186 0.0
H1761 H 0.19383 0.24955 0.09234 0.0
H1762 H 0.22608 0.2316 0.09418 0.0
H1763 H 0.2017 0.19294 0.1396 0.0
C1764 C 0.13316 0.2358 0.14109 0.0
C1765 C 0.12482 0.25364 0.13397 0.0
C1766 C 0.13443 0.26423 0.11852 0.0
C1767 C 0.15236 0.25721 0.11035 0.0
C1768 C 0.16062 0.23982 0.11816 0.0
C1769 C 0.15131 0.22935 0.13327 0.0
C1770 C 0.16426 0.21265 0.14092 0.0
C1771 C 0.17003 0.21595 0.16287 0.0
C1772 C 0.15403 0.19244 0.13778 0.0
C1773 C 0.18225 0.21517 0.12774 0.0
C1774 C 0.18003 0.23093 0.11471 0.0
C1775 C 0.19559 0.23706 0.10236 0.0
C1776 C 0.21387 0.22689 0.10359 0.0
C1777 C 0.21648 0.21117 0.11739 0.0
C1778 C 0.20033 0.20514 0.12928 0.0
H1779 H 0.216 0.76829 0.88694 0.0
H1780 H 0.20137 0.83033 0.87778 0.0
H1781 H 0.16579 0.82205 0.87609 0.0
H1782 H 0.18232 0.74784 0.85501 0.0
H1783 H 0.17548 0.7269 0.87035 0.0
H1784 H 0.19945 0.73828 0.87333 0.0
H1785 H 0.19209 0.74392 0.91082 0.0
H1786 H 0.1679 0.73268 0.90786 0.0
H1787 H 0.17007 0.75739 0.9181 0.0
H1788 H 0.13268 0.80626 0.86961 0.0
H1789 H 0.10522 0.78413 0.85907 0.0
H1790 H 0.14019 0.7328 0.87644 0.0
C1791 C 0.2052 0.78009 0.88499 0.0
C1792 C 0.21138 0.79986 0.88182 0.0
C1793 C 0.19697 0.81501 0.87947 0.0
C1794 C 0.17666 0.81048 0.87885 0.0
C1795 C 0.17093 0.79075 0.88143 0.0
C1796 C 0.18475 0.77583 0.88483 0.0
C1797 C 0.17478 0.75567 0.88583 0.0
C1798 C 0.18352 0.74135 0.87019 0.0
C1799 C 0.1763 0.7469 0.90691 0.0
C1800 C 0.15352 0.76145 0.881 0.0
C1801 C 0.15147 0.7818 0.87889 0.0
C1802 C 0.13386 0.79035 0.87187 0.0
C1803 C 0.11824 0.7777 0.86605 0.0
C1804 C 0.12052 0.75681 0.8672 0.0
C1805 C 0.13795 0.74876 0.87578 0.0
H1806 H 0.19129 0.21044 0.85 0.0
H1807 H 0.21919 0.22806 0.90545 0.0
H1808 H 0.23579 0.19531 0.90756 0.0
H1809 H 0.18222 0.15945 0.86433 0.0
H1810 H 0.18808 0.14877 0.84055 0.0
H1811 H 0.17758 0.17338 0.84191 0.0
H1812 H 0.20618 0.18945 0.82289 0.0
H1813 H 0.21762 0.16565 0.8192 0.0
H1814 H 0.23148 0.18524 0.83078 0.0
H1815 H 0.252 0.16154 0.90143 0.0
H1816 H 0.26601 0.13032 0.88744 0.0
H1817 H 0.22433 0.13351 0.83856 0.0
C1818 C 0.2007 0.20735 0.86268 0.0
C1819 C 0.20391 0.22178 0.87751 0.0
C1820 C 0.21647 0.21718 0.89388 0.0
C1821 C 0.2259 0.19858 0.89527 0.0
C1822 C 0.22227 0.18459 0.88041 0.0
C1823 C 0.20981 0.18874 0.86458 0.0
C1824 C 0.20897 0.17161 0.85014 0.0
C1825 C 0.18793 0.16282 0.84916 0.0
C1826 C 0.21649 0.17836 0.82956 0.0
C1827 C 0.22314 0.15721 0.86002 0.0
C1828 C 0.23075 0.16492 0.8775 0.0
C1829 C 0.24568 0.15509 0.88809 0.0
C1830 C 0.25338 0.13727 0.88023 0.0
C1831 C 0.24573 0.1293 0.86232 0.0
C1832 C 0.23 0.13907 0.85254 0.0
H1833 H 0.79949 0.18707 0.86204 0.0
H1834 H 0.7713 0.22951 0.90162 0.0
H1835 H 0.8027 0.24867 0.90351 0.0
H1836 H 0.84908 0.18934 0.88768 0.0
H1837 H 0.86238 0.18622 0.86458 0.0
H1838 H 0.83826 0.17493 0.86778 0.0
H1839 H 0.82518 0.19297 0.83617 0.0
H1840 H 0.84965 0.20329 0.83346 0.0
H1841 H 0.82834 0.21963 0.83411 0.0
H1842 H 0.83515 0.26578 0.89658 0.0
H1843 H 0.86621 0.27905 0.88201 0.0
H1844 H 0.87474 0.22406 0.84961 0.0
C1845 C 0.80001 0.20036 0.87116 0.0
C1846 C 0.78296 0.20705 0.88142 0.0
C1847 C 0.78422 0.22426 0.89354 0.0
C1848 C 0.80201 0.23514 0.8948 0.0
C1849 C 0.81857 0.22822 0.88439 0.0
C1850 C 0.81781 0.21105 0.87308 0.0
C1851 C 0.83748 0.20717 0.86289 0.0
C1852 C 0.84738 0.1883 0.87124 0.0
C1853 C 0.83489 0.20572 0.84026 0.0
C1854 C 0.84897 0.22568 0.86877 0.0
C1855 C 0.8379 0.23745 0.88156 0.0
C1856 C 0.84423 0.25642 0.88712 0.0
C1857 C 0.86191 0.26383 0.87885 0.0
C1858 C 0.87315 0.25223 0.86537 0.0
C1859 C 0.8669 0.23274 0.8607 0.0
H1860 H 0.77606 0.87491 0.8617 0.0
H1861 H 0.71435 0.85815 0.86947 0.0
H1862 H 0.72455 0.82499 0.88103 0.0
H1863 H 0.79329 0.83468 0.84178 0.0
H1864 H 0.81655 0.83162 0.85477 0.0
H1865 H 0.80556 0.8559 0.85277 0.0
H1866 H 0.80553 0.86002 0.8911 0.0
H1867 H 0.81733 0.83598 0.89331 0.0
H1868 H 0.79451 0.84098 0.90645 0.0
H1869 H 0.74043 0.79189 0.88352 0.0
H1870 H 0.76194 0.76197 0.88184 0.0
H1871 H 0.8136 0.79967 0.87388 0.0
C1872 C 0.76486 0.86471 0.8672 0.0
C1873 C 0.74445 0.86915 0.86505 0.0
C1874 C 0.73007 0.85512 0.87143 0.0
C1875 C 0.73571 0.83617 0.87789 0.0
C1876 C 0.75586 0.83163 0.87846 0.0
C1877 C 0.77032 0.84568 0.87407 0.0
C1878 C 0.79084 0.83624 0.87433 0.0
C1879 C 0.8022 0.83982 0.85474 0.0
C1880 C 0.80276 0.84375 0.89236 0.0
C1881 C 0.78534 0.81451 0.877 0.0
C1882 C 0.76515 0.81225 0.88003 0.0
C1883 C 0.75635 0.7935 0.88171 0.0
C1884 C 0.76858 0.77662 0.88058 0.0
C1885 C 0.78923 0.77867 0.87736 0.0
C1886 C 0.79774 0.7978 0.87582 0.0
H1887 H 0.77637 0.76689 0.12148 0.0
H1888 H 0.79693 0.82786 0.12272 0.0
H1889 H 0.83173 0.81652 0.12132 0.0
H1890 H 0.81243 0.7486 0.15383 0.0
H1891 H 0.81536 0.7249 0.14157 0.0
H1892 H 0.79225 0.73816 0.13956 0.0
H1893 H 0.79515 0.73673 0.10106 0.0
H1894 H 0.81857 0.7238 0.10311 0.0
H1895 H 0.81701 0.74662 0.08906 0.0
H1896 H 0.864 0.7988 0.12416 0.0
H1897 H 0.89092 0.77608 0.13454 0.0
H1898 H 0.85029 0.72614 0.13008 0.0
C1899 C 0.78827 0.77775 0.12109 0.0
C1900 C 0.78412 0.79829 0.12219 0.0
C1901 C 0.79992 0.81214 0.12196 0.0
C1902 C 0.81971 0.8058 0.12094 0.0
C1903 C 0.82348 0.78546 0.12004 0.0
C1904 C 0.80822 0.77159 0.12018 0.0
C1905 C 0.81642 0.75063 0.12145 0.0
C1906 C 0.80867 0.73996 0.14022 0.0
C1907 C 0.8115 0.73875 0.10253 0.0
C1908 C 0.83853 0.75497 0.12283 0.0
C1909 C 0.84233 0.77513 0.12157 0.0
C1910 C 0.86133 0.78292 0.12473 0.0
C1911 C 0.87661 0.76988 0.13047 0.0
C1912 C 0.87267 0.74938 0.13312 0.0
C1913 C 0.85372 0.74177 0.12804 0.0
H1914 H 0.22507 0.78285 0.11022 0.0
H1915 H 0.17949 0.78898 0.15493 0.0
H1916 H 0.18427 0.82541 0.1553 0.0
H1917 H 0.25788 0.81476 0.13704 0.0
H1918 H 0.26979 0.82503 0.11528 0.0
H1919 H 0.25914 0.8005 0.11432 0.0
H1920 H 0.23787 0.81143 0.08398 0.0
H1921 H 0.24812 0.83622 0.08535 0.0
H1922 H 0.22157 0.83261 0.08625 0.0
H1923 H 0.19326 0.86083 0.15027 0.0
H1924 H 0.21468 0.89019 0.15389 0.0
H1925 H 0.26101 0.86051 0.12007 0.0
C1926 C 0.21613 0.79199 0.12005 0.0
C1927 C 0.20082 0.78347 0.13177 0.0
C1928 C 0.19025 0.79561 0.14514 0.0
C1929 C 0.19297 0.81621 0.14542 0.0
C1930 C 0.20752 0.82439 0.13321 0.0
C1931 C 0.21983 0.81256 0.12174 0.0
C1932 C 0.23722 0.82466 0.11379 0.0
C1933 C 0.25719 0.81571 0.12053 0.0
C1934 C 0.23613 0.82632 0.09099 0.0
C1935 C 0.23319 0.84472 0.12356 0.0
C1936 C 0.2151 0.8445 0.13326 0.0
C1937 C 0.20766 0.86116 0.14308 0.0
C1938 C 0.21989 0.87789 0.14485 0.0
C1939 C 0.23959 0.87756 0.13744 0.0
C1940 C 0.24598 0.86113 0.12583 0.0
H1941 H 0.72919 0.15537 0.14721 0.0
H1942 H 0.7719 0.11025 0.12971 0.0
H1943 H 0.79484 0.13682 0.11833 0.0
H1944 H 0.74048 0.19471 0.11203 0.0
H1945 H 0.73869 0.21391 0.13071 0.0
H1946 H 0.72414 0.19151 0.13309 0.0
H1947 H 0.7391 0.1857 0.16808 0.0
H1948 H 0.7541 0.20776 0.16579 0.0
H1949 H 0.76571 0.18412 0.17096 0.0
H1950 H 0.81429 0.16883 0.11176 0.0
H1951 H 0.82886 0.20279 0.11173 0.0
H1952 H 0.77539 0.22601 0.13915 0.0
C1953 C 0.74337 0.15094 0.14109 0.0
C1954 C 0.74889 0.13066 0.13981 0.0
C1955 C 0.7673 0.12566 0.13086 0.0
C1956 C 0.78046 0.14068 0.12446 0.0
C1957 C 0.7751 0.16056 0.12745 0.0
C1958 C 0.757 0.16565 0.13569 0.0
C1959 C 0.75574 0.18775 0.14004 0.0
C1960 C 0.73876 0.19754 0.12825 0.0
C1961 C 0.75354 0.19155 0.16255 0.0
C1962 C 0.77587 0.19449 0.13264 0.0
C1963 C 0.78676 0.17865 0.12518 0.0
C1964 C 0.8059 0.18127 0.11763 0.0
C1965 C 0.81408 0.20051 0.11774 0.0
C1966 C 0.80327 0.21674 0.1257 0.0
C1967 C 0.78396 0.21371 0.1332 0.0
H1968 H 0.64596 0.62568 0.72709 0.0
H1969 H 0.62512 0.64081 0.78611 0.0
H1970 H 0.61246 0.67297 0.77351 0.0
H1971 H 0.66602 0.66848 0.71813 0.0
H1972 H 0.66016 0.67282 0.69237 0.0
H1973 H 0.66158 0.64766 0.70164 0.0
H1974 H 0.62645 0.6382 0.69174 0.0
H1975 H 0.62463 0.66199 0.67943 0.0
H1976 H 0.60612 0.65473 0.69745 0.0
H1977 H 0.60684 0.70533 0.7558 0.0
H1978 H 0.60876 0.73528 0.73435 0.0
H1979 H 0.63618 0.7003 0.68768 0.0
C1980 C 0.63756 0.63525 0.73699 0.0
C1981 C 0.63573 0.63053 0.75736 0.0
C1982 C 0.62599 0.64396 0.77031 0.0
C1983 C 0.61884 0.66228 0.76329 0.0
C1984 C 0.6217 0.66699 0.74328 0.0
C1985 C 0.6306 0.65375 0.73022 0.0
C1986 C 0.63474 0.66364 0.71036 0.0
C1987 C 0.65698 0.6631 0.70534 0.0
C1988 C 0.62224 0.65408 0.69376 0.0
C1989 C 0.62791 0.68466 0.71459 0.0
C1990 C 0.61984 0.68615 0.73346 0.0
C1991 C 0.61298 0.70425 0.74095 0.0
C1992 C 0.61429 0.72119 0.72878 0.0
C1993 C 0.62299 0.72002 0.70963 0.0
C1994 C 0.62981 0.70154 0.70243 0.0
H1995 H 0.27988 0.61909 0.72785 0.0
H1996 H 0.29136 0.64086 0.66861 0.0
H1997 H 0.32767 0.64163 0.67551 0.0
H1998 H 0.31506 0.64954 0.75151 0.0
H1999 H 0.32218 0.63135 0.76993 0.0
H2000 H 0.29771 0.63059 0.7592 0.0
H2001 H 0.30351 0.59407 0.74833 0.0
H2002 H 0.32818 0.59467 0.75883 0.0
H2003 H 0.32471 0.58797 0.73307 0.0
H2004 H 0.36197 0.64297 0.69025 0.0
H2005 H 0.39066 0.64871 0.71255 0.0
H2006 H 0.35706 0.6243 0.76186 0.0
C2007 C 0.29015 0.62393 0.71641 0.0
C2008 C 0.28318 0.63055 0.6978 0.0
C2009 C 0.2968 0.63664 0.68308 0.0
C2010 C 0.31731 0.63664 0.6868 0.0
C2011 C 0.32388 0.6302 0.70538 0.0
C2012 C 0.31068 0.62409 0.72 0.0
C2013 C 0.32132 0.61984 0.73934 0.0
C2014 C 0.31363 0.63365 0.75597 0.0
C2015 C 0.31931 0.59782 0.74523 0.0
C2016 C 0.3425 0.62486 0.73345 0.0
C2017 C 0.34375 0.63053 0.71371 0.0
C2018 C 0.36133 0.6381 0.7056 0.0
C2019 C 0.37768 0.64108 0.71829 0.0
C2020 C 0.37611 0.63664 0.73881 0.0
C2021 C 0.35875 0.62732 0.7461 0.0
H2022 H 0.38337 0.29642 0.6927 0.0
H2023 H 0.37684 0.25778 0.74386 0.0
H2024 H 0.37765 0.28719 0.76615 0.0
H2025 H 0.41483 0.3365 0.72003 0.0
H2026 H 0.40289 0.35599 0.70595 0.0
H2027 H 0.40719 0.33196 0.69473 0.0
H2028 H 0.37068 0.33037 0.68601 0.0
H2029 H 0.36458 0.35313 0.69839 0.0
H2030 H 0.35207 0.33021 0.70534 0.0
H2031 H 0.37617 0.32017 0.78227 0.0
H2032 H 0.36401 0.3535 0.79089 0.0
H2033 H 0.36757 0.37127 0.72895 0.0
C2034 C 0.3826 0.29427 0.70866 0.0
C2035 C 0.38015 0.27507 0.71678 0.0
C2036 C 0.37879 0.27251 0.73756 0.0
C2037 C 0.37955 0.28906 0.75027 0.0
C2038 C 0.38189 0.30795 0.74186 0.0
C2039 C 0.38331 0.31067 0.72152 0.0
C2040 C 0.38264 0.33261 0.71615 0.0
C2041 C 0.4031 0.33968 0.70878 0.0
C2042 C 0.36645 0.33685 0.7006 0.0
C2043 C 0.37797 0.34162 0.73634 0.0
C2044 C 0.37924 0.32725 0.75108 0.0
C2045 C 0.37523 0.33155 0.7709 0.0
C2046 C 0.3684 0.3506 0.77564 0.0
C2047 C 0.36469 0.36488 0.76054 0.0
C2048 C 0.37056 0.36073 0.74078 0.0
H2049 H 0.63375 0.3413 0.73311 0.0
H2050 H 0.62607 0.39442 0.7686 0.0
H2051 H 0.65678 0.40874 0.75365 0.0
H2052 H 0.68515 0.33779 0.74222 0.0
H2053 H 0.69086 0.3274 0.71814 0.0
H2054 H 0.66681 0.32337 0.7291 0.0
H2055 H 0.64961 0.33912 0.6977 0.0
H2056 H 0.67408 0.34208 0.68685 0.0
H2057 H 0.65768 0.36317 0.68911 0.0
H2058 H 0.69038 0.41557 0.73621 0.0
H2059 H 0.72266 0.41441 0.71851 0.0
H2060 H 0.70909 0.35466 0.69795 0.0
C2061 C 0.63835 0.35606 0.73748 0.0
C2062 C 0.62749 0.36691 0.75171 0.0
C2063 C 0.63398 0.38615 0.75724 0.0
C2064 C 0.65149 0.39425 0.74899 0.0
C2065 C 0.66246 0.38264 0.73566 0.0
C2066 C 0.65606 0.36392 0.73003 0.0
C2067 C 0.67122 0.35347 0.71716 0.0
C2068 C 0.67895 0.33439 0.72725 0.0
C2069 C 0.66264 0.34919 0.69645 0.0
C2070 C 0.68721 0.36916 0.7162 0.0
C2071 C 0.68194 0.38599 0.72679 0.0
C2072 C 0.69458 0.40242 0.7279 0.0
C2073 C 0.71292 0.40159 0.71783 0.0
C2074 C 0.71854 0.38436 0.70693 0.0
C2075 C 0.70542 0.36799 0.70625 0.0
H2076 H 0.63439 0.34745 0.22646 0.0
H2077 H 0.62977 0.38855 0.27602 0.0
H2078 H 0.61927 0.36076 0.29784 0.0
H2079 H 0.59427 0.31177 0.24181 0.0
H2080 H 0.60876 0.29076 0.23355 0.0
H2081 H 0.61107 0.31441 0.22106 0.0
H2082 H 0.64908 0.31368 0.22717 0.0
H2083 H 0.64696 0.29032 0.24005 0.0
H2084 H 0.65834 0.31134 0.25225 0.0
H2085 H 0.61386 0.32786 0.31507 0.0
H2086 H 0.6142 0.29294 0.32643 0.0
H2087 H 0.62601 0.27306 0.26625 0.0
C2088 C 0.63063 0.35073 0.24178 0.0
C2089 C 0.63288 0.37016 0.24956 0.0
C2090 C 0.62788 0.37385 0.26968 0.0
C2091 C 0.62201 0.35811 0.28219 0.0
C2092 C 0.62116 0.33889 0.27427 0.0
C2093 C 0.6252 0.33519 0.25446 0.0
C2094 C 0.62581 0.31305 0.25009 0.0
C2095 C 0.60897 0.30715 0.23578 0.0
C2096 C 0.64626 0.30674 0.24192 0.0
C2097 C 0.62225 0.30475 0.27071 0.0
C2098 C 0.61912 0.31989 0.28435 0.0
C2099 C 0.61617 0.31594 0.30448 0.0
C2100 C 0.6166 0.29607 0.31084 0.0
C2101 C 0.62046 0.28046 0.29723 0.0
C2102 C 0.62305 0.28481 0.27689 0.0
H2103 H 0.71587 0.61156 0.2812 0.0
H2104 H 0.71192 0.66078 0.32257 0.0
H2105 H 0.67614 0.66441 0.31508 0.0
H2106 H 0.68805 0.63625 0.24448 0.0
H2107 H 0.67641 0.61409 0.23478 0.0
H2108 H 0.70031 0.61246 0.24666 0.0
H2109 H 0.68618 0.58606 0.27104 0.0
H2110 H 0.66208 0.58794 0.25939 0.0
H2111 H 0.66457 0.59196 0.2858 0.0
H2112 H 0.64079 0.66229 0.3034 0.0
H2113 H 0.61167 0.66272 0.28104 0.0
H2114 H 0.64074 0.62077 0.2418 0.0
C2115 C 0.70732 0.62285 0.28891 0.0
C2116 C 0.71632 0.63529 0.30328 0.0
C2117 C 0.705 0.65054 0.31231 0.0
C2118 C 0.6847 0.65267 0.30814 0.0
C2119 C 0.67612 0.63988 0.29424 0.0
C2120 C 0.68725 0.62582 0.28415 0.0
C2121 C 0.67539 0.61661 0.2673 0.0
C2122 C 0.68565 0.62008 0.24712 0.0
C2123 C 0.67185 0.59432 0.27112 0.0
C2124 C 0.65614 0.62826 0.26904 0.0
C2125 C 0.65652 0.64072 0.28543 0.0
C2126 C 0.64039 0.65273 0.29044 0.0
C2127 C 0.62389 0.65284 0.27773 0.0
C2128 C 0.62414 0.64195 0.25975 0.0
C2129 C 0.6402 0.62907 0.2556 0.0
H2130 H 0.3599 0.62281 0.27465 0.0
H2131 H 0.39018 0.63208 0.21862 0.0
H2132 H 0.40288 0.66432 0.23066 0.0
H2133 H 0.34124 0.66818 0.28016 0.0
H2134 H 0.34475 0.67102 0.30657 0.0
H2135 H 0.34291 0.64657 0.29613 0.0
H2136 H 0.3769 0.63726 0.31182 0.0
H2137 H 0.37856 0.66196 0.32226 0.0
H2138 H 0.39832 0.65259 0.30674 0.0
H2139 H 0.40604 0.69819 0.2455 0.0
H2140 H 0.40198 0.73006 0.2636 0.0
H2141 H 0.36792 0.69987 0.30927 0.0
C2142 C 0.37038 0.63101 0.26557 0.0
C2143 C 0.37468 0.62468 0.24598 0.0
C2144 C 0.38742 0.63633 0.23393 0.0
C2145 C 0.39448 0.65481 0.24058 0.0
C2146 C 0.38874 0.66139 0.25939 0.0
C2147 C 0.37737 0.64967 0.27197 0.0
C2148 C 0.37138 0.66125 0.29047 0.0
C2149 C 0.34871 0.66176 0.29345 0.0
C2150 C 0.38192 0.65277 0.30892 0.0
C2151 C 0.37936 0.68169 0.28532 0.0
C2152 C 0.38994 0.6813 0.26769 0.0
C2153 C 0.39807 0.69857 0.25949 0.0
C2154 C 0.39553 0.71661 0.26972 0.0
C2155 C 0.38438 0.71734 0.28757 0.0
C2156 C 0.37624 0.69967 0.29546 0.0
H2157 H 0.35926 0.38597 0.23571 0.0
H2158 H 0.38545 0.34808 0.28103 0.0
H2159 H 0.35451 0.34984 0.30035 0.0
H2160 H 0.32933 0.41628 0.27742 0.0
H2161 H 0.30949 0.42118 0.26006 0.0
H2162 H 0.33491 0.42028 0.25148 0.0
H2163 H 0.32468 0.39372 0.22557 0.0
H2164 H 0.29946 0.3938 0.23454 0.0
H2165 H 0.31335 0.37084 0.2339 0.0
H2166 H 0.31862 0.34227 0.30369 0.0
H2167 H 0.28261 0.34323 0.30715 0.0
H2168 H 0.27946 0.39495 0.26895 0.0
C2169 C 0.35875 0.37893 0.2502 0.0
C2170 C 0.37461 0.36662 0.25677 0.0
C2171 C 0.37355 0.35759 0.27574 0.0
C2172 C 0.35592 0.35824 0.28668 0.0
C2173 C 0.33991 0.36875 0.27885 0.0
C2174 C 0.34156 0.38045 0.26209 0.0
C2175 C 0.3219 0.39112 0.25798 0.0
C2176 C 0.32403 0.41355 0.26197 0.0
C2177 C 0.31442 0.38711 0.23673 0.0
C2178 C 0.3085 0.38142 0.27347 0.0
C2179 C 0.31936 0.36813 0.28478 0.0
C2180 C 0.31016 0.35388 0.29646 0.0
C2181 C 0.28955 0.35447 0.29825 0.0
C2182 C 0.27821 0.36999 0.28976 0.0
C2183 C 0.2878 0.38346 0.27659 0.0
H2184 H 0.69605 0.64867 0.7067 0.0
H2185 H 0.71744 0.58955 0.7211 0.0
H2186 H 0.73202 0.58666 0.68741 0.0
H2187 H 0.68155 0.63375 0.65651 0.0
H2188 H 0.68814 0.6564 0.64393 0.0
H2189 H 0.67905 0.65724 0.66912 0.0
H2190 H 0.71025 0.67362 0.68534 0.0
H2191 H 0.71636 0.67827 0.65994 0.0
H2192 H 0.7343 0.66629 0.676 0.0
H2193 H 0.74827 0.59289 0.65332 0.0
H2194 H 0.76278 0.60708 0.62242 0.0
H2195 H 0.7248 0.65863 0.62823 0.0
C2196 C 0.70341 0.63497 0.70266 0.0
C2197 C 0.70548 0.61938 0.71651 0.0
C2198 C 0.71564 0.60177 0.71073 0.0
C2199 C 0.7239 0.59993 0.69159 0.0
C2200 C 0.72131 0.61557 0.67818 0.0
C2201 C 0.7109 0.63253 0.6834 0.0
C2202 C 0.70973 0.64702 0.66629 0.0
C2203 C 0.68833 0.64871 0.65855 0.0
C2204 C 0.71823 0.66747 0.67224 0.0
C2205 C 0.72254 0.63647 0.65115 0.0
C2206 C 0.72896 0.61819 0.65809 0.0
C2207 C 0.74277 0.60685 0.64747 0.0
C2208 C 0.75075 0.61486 0.62981 0.0
C2209 C 0.7444 0.63365 0.62273 0.0
C2210 C 0.72948 0.64403 0.63308 0.0
H2211 H 0.35843 0.68672 0.69905 0.0
H2212 H 0.39455 0.73125 0.72868 0.0
H2213 H 0.39884 0.74905 0.69675 0.0
H2214 H 0.3882 0.68777 0.65183 0.0
H2215 H 0.36657 0.68352 0.63657 0.0
H2216 H 0.36774 0.67329 0.66137 0.0
H2217 H 0.33467 0.69088 0.67057 0.0
H2218 H 0.33333 0.70063 0.64575 0.0
H2219 H 0.33236 0.71738 0.66668 0.0
H2220 H 0.39626 0.76372 0.66296 0.0
H2221 H 0.38467 0.77582 0.63032 0.0
H2222 H 0.35163 0.72122 0.62155 0.0
C2223 C 0.36713 0.70029 0.69877 0.0
C2224 C 0.37588 0.70787 0.71634 0.0
C2225 C 0.3876 0.72535 0.71538 0.0
C2226 C 0.39027 0.73542 0.6973 0.0
C2227 C 0.38161 0.72749 0.68019 0.0
C2228 C 0.37034 0.71029 0.68072 0.0
C2229 C 0.36205 0.70539 0.6603 0.0
C2230 C 0.37171 0.68636 0.65203 0.0
C2231 C 0.33925 0.7035 0.66089 0.0
C2232 C 0.36882 0.72353 0.64863 0.0
C2233 C 0.38074 0.73568 0.66026 0.0
C2234 C 0.38741 0.75412 0.65352 0.0
C2235 C 0.38092 0.7608 0.63488 0.0
C2236 C 0.36788 0.74914 0.6232 0.0
C2237 C 0.36238 0.72995 0.62979 0.0
H2238 H 0.27132 0.37938 0.71643 0.0
H2239 H 0.32913 0.3553 0.702 0.0
H2240 H 0.32086 0.35625 0.66611 0.0
H2241 H 0.2449 0.35049 0.68132 0.0
H2242 H 0.22708 0.36967 0.67546 0.0
H2243 H 0.2388 0.36926 0.69951 0.0
H2244 H 0.25083 0.40556 0.69398 0.0
H2245 H 0.23945 0.40586 0.66968 0.0
H2246 H 0.26554 0.41144 0.67233 0.0
H2247 H 0.30528 0.357 0.63242 0.0
H2248 H 0.28244 0.35369 0.60392 0.0
H2249 H 0.23424 0.37689 0.63998 0.0
C2250 C 0.28218 0.37434 0.70563 0.0
C2251 C 0.30084 0.36697 0.71178 0.0
C2252 C 0.31468 0.36046 0.6974 0.0
C2253 C 0.31016 0.36123 0.67706 0.0
C2254 C 0.29158 0.36841 0.67138 0.0
C2255 C 0.27769 0.37462 0.68526 0.0
C2256 C 0.25812 0.37978 0.67537 0.0
C2257 C 0.24124 0.36651 0.68339 0.0
C2258 C 0.25321 0.40198 0.678 0.0
C2259 C 0.26301 0.37498 0.65386 0.0
C2260 C 0.28255 0.36889 0.65183 0.0
C2261 C 0.29006 0.36209 0.63371 0.0
C2262 C 0.27701 0.36046 0.6175 0.0
C2263 C 0.25661 0.36522 0.6197 0.0
C2264 C 0.24984 0.3735 0.63782 0.0
H2265 H 0.65379 0.27322 0.6364 0.0
H2266 H 0.60856 0.22815 0.63311 0.0
H2267 H 0.59361 0.24082 0.66468 0.0
H2268 H 0.66162 0.2658 0.68856 0.0
H2269 H 0.66883 0.29135 0.69233 0.0
H2270 H 0.67301 0.2795 0.66886 0.0
H2271 H 0.64324 0.30832 0.64883 0.0
H2272 H 0.65447 0.3175 0.67104 0.0
H2273 H 0.62782 0.31688 0.66861 0.0
H2274 H 0.5858 0.25825 0.69914 0.0
H2275 H 0.58745 0.27609 0.73163 0.0
H2276 H 0.64098 0.30612 0.71209 0.0
C2277 C 0.6404 0.26664 0.6421 0.0
C2278 C 0.63191 0.25047 0.63216 0.0
C2279 C 0.61482 0.24119 0.64024 0.0
C2280 C 0.6064 0.24818 0.65823 0.0
C2281 C 0.61574 0.26398 0.6681 0.0
C2282 C 0.63257 0.27283 0.66025 0.0
C2283 C 0.6417 0.2876 0.67442 0.0
C2284 C 0.66249 0.2807 0.68137 0.0
C2285 C 0.64182 0.30872 0.66528 0.0
C2286 C 0.62733 0.28611 0.69145 0.0
C2287 C 0.61227 0.2726 0.68776 0.0
C2288 C 0.59764 0.26877 0.70205 0.0
C2289 C 0.59872 0.27889 0.72046 0.0
C2290 C 0.61462 0.29218 0.72447 0.0
C2291 C 0.62887 0.29582 0.70965 0.0
H2292 H 0.69366 0.35219 0.29013 0.0
H2293 H 0.71696 0.41038 0.27455 0.0
H2294 H 0.73321 0.41261 0.30764 0.0
H2295 H 0.68261 0.36254 0.34009 0.0
H2296 H 0.69105 0.33941 0.35045 0.0
H2297 H 0.68109 0.34003 0.32548 0.0
H2298 H 0.71221 0.32571 0.30923 0.0
H2299 H 0.72276 0.32187 0.33338 0.0
H2300 H 0.73631 0.33588 0.31518 0.0
H2301 H 0.7497 0.40615 0.342 0.0
H2302 H 0.76371 0.39199 0.37321 0.0
H2303 H 0.72572 0.34047 0.36687 0.0
C2304 C 0.70217 0.36545 0.29359 0.0
C2305 C 0.70421 0.38098 0.27968 0.0
C2306 C 0.7153 0.39818 0.28497 0.0
C2307 C 0.72451 0.39962 0.30376 0.0
C2308 C 0.72217 0.3839 0.31715 0.0
C2309 C 0.7111 0.36728 0.31222 0.0
C2310 C 0.71127 0.35203 0.32861 0.0
C2311 C 0.69021 0.34826 0.33657 0.0
C2312 C 0.72121 0.33275 0.32118 0.0
C2313 C 0.72391 0.36259 0.34387 0.0
C2314 C 0.73041 0.38087 0.33699 0.0
C2315 C 0.74418 0.39214 0.34775 0.0
C2316 C 0.75186 0.38416 0.36558 0.0
C2317 C 0.74523 0.36547 0.37271 0.0
C2318 C 0.73061 0.35501 0.36202 0.0
H2319 H 0.63286 0.73522 0.27106 0.0
H2320 H 0.59135 0.68956 0.28966 0.0
H2321 H 0.59288 0.70203 0.32423 0.0
H2322 H 0.66329 0.73648 0.31028 0.0
H2323 H 0.66609 0.7631 0.31228 0.0
H2324 H 0.65984 0.75213 0.28873 0.0
H2325 H 0.62836 0.77432 0.28633 0.0
H2326 H 0.63468 0.78562 0.30985 0.0
H2327 H 0.61061 0.77431 0.30644 0.0
H2328 H 0.60593 0.71446 0.35756 0.0
H2329 H 0.6241 0.73011 0.38565 0.0
H2330 H 0.65029 0.77232 0.34438 0.0
C2331 C 0.62363 0.72832 0.28234 0.0
C2332 C 0.61238 0.71123 0.27797 0.0
C2333 C 0.60033 0.70253 0.29291 0.0
C2334 C 0.60102 0.70956 0.31254 0.0
C2335 C 0.61296 0.72598 0.31665 0.0
C2336 C 0.62328 0.73584 0.30176 0.0
C2337 C 0.63511 0.75303 0.31008 0.0
C2338 C 0.65739 0.75104 0.30505 0.0
C2339 C 0.62668 0.773 0.30274 0.0
C2340 C 0.63126 0.75017 0.33206 0.0
C2341 C 0.6185 0.7345 0.33568 0.0
C2342 C 0.61536 0.72726 0.35495 0.0
C2343 C 0.62578 0.73616 0.3708 0.0
C2344 C 0.63891 0.75223 0.36722 0.0
C2345 C 0.64081 0.75978 0.3477 0.0
H2346 H 0.23103 0.64305 0.34598 0.0
H2347 H 0.27438 0.62824 0.39144 0.0
H2348 H 0.29729 0.61603 0.36522 0.0
H2349 H 0.24307 0.60697 0.3072 0.0
H2350 H 0.24092 0.62536 0.28777 0.0
H2351 H 0.2262 0.62765 0.31006 0.0
H2352 H 0.24015 0.66305 0.31512 0.0
H2353 H 0.25568 0.6609 0.29347 0.0
H2354 H 0.26664 0.6667 0.31726 0.0
H2355 H 0.31682 0.60891 0.33333 0.0
H2356 H 0.33167 0.60954 0.29947 0.0
H2357 H 0.27755 0.63537 0.27599 0.0
C2358 C 0.24527 0.63713 0.35055 0.0
C2359 C 0.25102 0.6369 0.37077 0.0
C2360 C 0.26958 0.62845 0.37605 0.0
C2361 C 0.28272 0.62161 0.36123 0.0
C2362 C 0.27716 0.62366 0.34129 0.0
C2363 C 0.25888 0.63141 0.336 0.0
C2364 C 0.25758 0.63544 0.31387 0.0
C2365 C 0.24096 0.6231 0.30416 0.0
C2366 C 0.25486 0.65784 0.30971 0.0
C2367 C 0.27788 0.62844 0.30737 0.0
C2368 C 0.2889 0.62137 0.32329 0.0
C2369 C 0.3083 0.61443 0.32082 0.0
C2370 C 0.31662 0.61489 0.30164 0.0
C2371 C 0.30571 0.62275 0.28546 0.0
C2372 C 0.28612 0.62942 0.2883 0.0
H2373 H 0.37896 0.24044 0.35523 0.0
H2374 H 0.33588 0.28013 0.38232 0.0
H2375 H 0.33566 0.30066 0.35195 0.0
H2376 H 0.40658 0.28396 0.32972 0.0
H2377 H 0.41317 0.26864 0.3087 0.0
H2378 H 0.41107 0.25772 0.33314 0.0
H2379 H 0.38588 0.23218 0.31916 0.0
H2380 H 0.38738 0.24336 0.29485 0.0
H2381 H 0.36361 0.24093 0.30703 0.0
H2382 H 0.33382 0.31104 0.3167 0.0
H2383 H 0.33869 0.31994 0.28177 0.0
H2384 H 0.3893 0.27989 0.27863 0.0
C2385 C 0.37018 0.25396 0.355 0.0
C2386 C 0.3573 0.25869 0.37103 0.0
C2387 C 0.34585 0.27632 0.37025 0.0
C2388 C 0.3455 0.28797 0.35299 0.0
C2389 C 0.35754 0.28238 0.33706 0.0
C2390 C 0.37058 0.26656 0.33825 0.0
C2391 C 0.38253 0.26465 0.31904 0.0
C2392 C 0.40465 0.269 0.32288 0.0
C2393 C 0.37967 0.24405 0.30946 0.0
C2394 C 0.37308 0.28098 0.3065 0.0
C2395 C 0.35842 0.2906 0.31722 0.0
C2396 C 0.34576 0.30433 0.30842 0.0
C2397 C 0.34868 0.30923 0.28846 0.0
C2398 C 0.36491 0.30134 0.27761 0.0
C2399 C 0.37711 0.28666 0.28669 0.0
H2400 H 0.70129 0.68643 0.62728 0.0
H2401 H 0.73845 0.73766 0.61512 0.0
H2402 H 0.70841 0.75902 0.61329 0.0
H2403 H 0.65962 0.7028 0.59408 0.0
H2404 H 0.64088 0.69265 0.61035 0.0
H2405 H 0.66504 0.68105 0.60883 0.0
H2406 H 0.66932 0.68478 0.64705 0.0
H2407 H 0.6452 0.69589 0.64867 0.0
H2408 H 0.6666 0.70886 0.6584 0.0
H2409 H 0.67514 0.77505 0.61661 0.0
H2410 H 0.64166 0.78518 0.62741 0.0
H2411 H 0.62543 0.72341 0.63621 0.0
C2412 C 0.70302 0.70216 0.6243 0.0
C2413 C 0.72207 0.71061 0.62171 0.0
C2414 C 0.7239 0.73108 0.6173 0.0
C2415 C 0.70694 0.74322 0.61606 0.0
C2416 C 0.68829 0.73446 0.6187 0.0
C2417 C 0.68621 0.71438 0.62266 0.0
C2418 C 0.66453 0.7089 0.62579 0.0
C2419 C 0.65708 0.69555 0.60875 0.0
C2420 C 0.66122 0.69906 0.6462 0.0
C2421 C 0.65493 0.72926 0.62477 0.0
C2422 C 0.66884 0.7437 0.61997 0.0
C2423 C 0.66406 0.76384 0.61995 0.0
C2424 C 0.64496 0.76945 0.62603 0.0
C2425 C 0.63092 0.75502 0.63234 0.0
C2426 C 0.63565 0.73464 0.63082 0.0
H2427 H 0.70421 0.30721 0.35689 0.0
H2428 H 0.73082 0.2694 0.40178 0.0
H2429 H 0.69932 0.25038 0.40434 0.0
H2430 H 0.65395 0.30817 0.37951 0.0
H2431 H 0.64145 0.30792 0.35575 0.0
H2432 H 0.66525 0.31972 0.35818 0.0
H2433 H 0.68043 0.29746 0.33014 0.0
H2434 H 0.65604 0.2872 0.32692 0.0
H2435 H 0.67685 0.27087 0.33147 0.0
H2436 H 0.66624 0.23312 0.39869 0.0
H2437 H 0.63468 0.21947 0.38534 0.0
H2438 H 0.62871 0.27067 0.34696 0.0
C2439 C 0.70346 0.29488 0.36712 0.0
C2440 C 0.72006 0.28944 0.37873 0.0
C2441 C 0.7183 0.27359 0.39252 0.0
C2442 C 0.70045 0.26284 0.39418 0.0
C2443 C 0.68435 0.26855 0.38239 0.0
C2444 C 0.68562 0.28442 0.36933 0.0
C2445 C 0.66645 0.28717 0.35783 0.0
C2446 C 0.6562 0.30691 0.36316 0.0
C2447 C 0.67017 0.28554 0.33527 0.0
C2448 C 0.65453 0.26981 0.36573 0.0
C2449 C 0.66497 0.25934 0.38005 0.0
C2450 C 0.65769 0.24157 0.38797 0.0
C2451 C 0.63967 0.23402 0.38051 0.0
C2452 C 0.62899 0.24452 0.36572 0.0
C2453 C 0.6362 0.26291 0.35884 0.0
H2454 H 0.73322 0.62575 0.37106 0.0
H2455 H 0.79458 0.64483 0.36602 0.0
H2456 H 0.78553 0.67793 0.37845 0.0
H2457 H 0.70964 0.66488 0.35514 0.0
H2458 H 0.68986 0.66612 0.37305 0.0
H2459 H 0.70219 0.64283 0.36857 0.0
H2460 H 0.71011 0.64112 0.40669 0.0
H2461 H 0.6982 0.66493 0.41031 0.0
H2462 H 0.72354 0.66128 0.41822 0.0
H2463 H 0.76897 0.7103 0.37966 0.0
H2464 H 0.7463 0.73926 0.3778 0.0
H2465 H 0.69571 0.70023 0.38601 0.0
C2466 C 0.74486 0.63652 0.37387 0.0
C2467 C 0.76456 0.63282 0.36749 0.0
C2468 C 0.7794 0.6474 0.37083 0.0
C2469 C 0.77441 0.66629 0.37787 0.0
C2470 C 0.75461 0.67016 0.38238 0.0
C2471 C 0.74015 0.65547 0.38153 0.0
C2472 C 0.71976 0.66428 0.38591 0.0
C2473 C 0.70447 0.65916 0.36969 0.0
C2474 C 0.71247 0.6575 0.40651 0.0
C2475 C 0.72474 0.68634 0.38605 0.0
C2476 C 0.74504 0.68932 0.38462 0.0
C2477 C 0.75313 0.70824 0.38167 0.0
C2478 C 0.7402 0.72454 0.38034 0.0
C2479 C 0.71947 0.72179 0.38195 0.0
C2480 C 0.71163 0.70256 0.38513 0.0
H2481 H 0.28081 0.7349 0.37885 0.0
H2482 H 0.29868 0.67327 0.3846 0.0
H2483 H 0.33412 0.68336 0.384 0.0
H2484 H 0.31498 0.74829 0.34435 0.0
H2485 H 0.31992 0.77294 0.35375 0.0
H2486 H 0.29642 0.76129 0.35874 0.0
H2487 H 0.30193 0.7662 0.39664 0.0
H2488 H 0.3256 0.77786 0.39171 0.0
H2489 H 0.32421 0.75667 0.40813 0.0
H2490 H 0.36701 0.69945 0.37689 0.0
H2491 H 0.39422 0.72005 0.36305 0.0
H2492 H 0.3551 0.77136 0.36295 0.0
C2493 C 0.29228 0.7237 0.38059 0.0
C2494 C 0.28731 0.70341 0.38192 0.0
C2495 C 0.30245 0.68894 0.38374 0.0
C2496 C 0.32254 0.69454 0.38352 0.0
C2497 C 0.32713 0.7147 0.38171 0.0
C2498 C 0.31241 0.7291 0.38049 0.0
C2499 C 0.3212 0.74942 0.37642 0.0
C2500 C 0.31263 0.75849 0.35717 0.0
C2501 C 0.31805 0.76336 0.39429 0.0
C2502 C 0.34294 0.744 0.37412 0.0
C2503 C 0.3462 0.72401 0.37775 0.0
C2504 C 0.36475 0.71523 0.3745 0.0
C2505 C 0.38016 0.72703 0.36669 0.0
C2506 C 0.37674 0.74727 0.362 0.0
C2507 C 0.35815 0.75594 0.36655 0.0
H2508 H 0.29517 0.28476 0.35106 0.0
H2509 H 0.27854 0.2743 0.41254 0.0
H2510 H 0.2628 0.30783 0.41383 0.0
H2511 H 0.30998 0.33049 0.35683 0.0
H2512 H 0.30025 0.34375 0.33614 0.0
H2513 H 0.30639 0.3177 0.33357 0.0
H2514 H 0.2748 0.30427 0.32334 0.0
H2515 H 0.26023 0.3268 0.32306 0.0
H2516 H 0.25286 0.30682 0.33846 0.0
H2517 H 0.24678 0.34361 0.40585 0.0
H2518 H 0.23435 0.37502 0.39029 0.0
H2519 H 0.2673 0.36145 0.33688 0.0
C2520 C 0.28805 0.28923 0.36482 0.0
C2521 C 0.28785 0.27675 0.38153 0.0
C2522 C 0.27865 0.28357 0.39935 0.0
C2523 C 0.26977 0.30264 0.40026 0.0
C2524 C 0.27057 0.31473 0.38335 0.0
C2525 C 0.27965 0.30806 0.36616 0.0
C2526 C 0.2789 0.32315 0.34986 0.0
C2527 C 0.30008 0.3291 0.34364 0.0
C2528 C 0.26612 0.31485 0.33263 0.0
C2529 C 0.2686 0.33994 0.36037 0.0
C2530 C 0.26324 0.33491 0.37957 0.0
C2531 C 0.25146 0.34774 0.391 0.0
C2532 C 0.24468 0.36566 0.3822 0.0
C2533 C 0.25041 0.37079 0.36255 0.0
C2534 C 0.26305 0.35805 0.35199 0.0
H2535 H 0.36542 0.27428 0.66619 0.0
H2536 H 0.37366 0.24164 0.61129 0.0
H2537 H 0.34233 0.25595 0.59811 0.0
H2538 H 0.31528 0.26371 0.6699 0.0
H2539 H 0.30768 0.2871 0.68064 0.0
H2540 H 0.33254 0.27804 0.68463 0.0
H2541 H 0.34787 0.30995 0.66986 0.0
H2542 H 0.32308 0.31973 0.66732 0.0
H2543 H 0.33948 0.31908 0.64605 0.0
H2544 H 0.30829 0.26989 0.59302 0.0
H2545 H 0.27506 0.28502 0.59467 0.0
H2546 H 0.28817 0.30798 0.65366 0.0
C2547 C 0.36092 0.27075 0.65116 0.0
C2548 C 0.37204 0.25732 0.63948 0.0
C2549 C 0.36554 0.25242 0.62011 0.0
C2550 C 0.34771 0.26032 0.61265 0.0
C2551 C 0.33654 0.27279 0.62495 0.0
C2552 C 0.34297 0.27815 0.64373 0.0
C2553 C 0.32726 0.29006 0.65472 0.0
C2554 C 0.32028 0.27906 0.67358 0.0
C2555 C 0.33488 0.31099 0.65975 0.0
C2556 C 0.31101 0.29069 0.63916 0.0
C2557 C 0.31666 0.28055 0.62216 0.0
C2558 C 0.30385 0.27818 0.6061 0.0
C2559 C 0.28497 0.28685 0.60721 0.0
C2560 C 0.27902 0.29795 0.62418 0.0
C2561 C 0.29222 0.29965 0.64047 0.0
H2562 H 0.72974 0.28578 0.61173 0.0
H2563 H 0.674 0.29738 0.64147 0.0
H2564 H 0.68173 0.33269 0.64378 0.0
H2565 H 0.75842 0.31794 0.6412 0.0
H2566 H 0.77413 0.32692 0.62139 0.0
H2567 H 0.76287 0.30272 0.61952 0.0
H2568 H 0.74721 0.31299 0.58572 0.0
H2569 H 0.75815 0.33743 0.58782 0.0
H2570 H 0.73169 0.33483 0.58448 0.0
H2571 H 0.69562 0.36623 0.64478 0.0
H2572 H 0.71775 0.39495 0.65015 0.0
H2573 H 0.76602 0.36291 0.62178 0.0
C2574 C 0.71916 0.29588 0.6185 0.0
C2575 C 0.70116 0.28869 0.62672 0.0
C2576 C 0.68785 0.30232 0.63555 0.0
C2577 C 0.69202 0.32261 0.63657 0.0
C2578 C 0.70976 0.32931 0.62851 0.0
C2579 C 0.72334 0.31643 0.61989 0.0
C2580 C 0.74227 0.32753 0.6145 0.0
C2581 C 0.76049 0.31823 0.62478 0.0
C2582 C 0.74499 0.32823 0.59178 0.0
C2583 C 0.73754 0.34814 0.62268 0.0
C2584 C 0.71831 0.34898 0.62981 0.0
C2585 C 0.71063 0.36596 0.63895 0.0
C2586 C 0.72324 0.38231 0.64176 0.0
C2587 C 0.74343 0.38124 0.63604 0.0
C2588 C 0.75047 0.36421 0.6258 0.0
H2589 H 0.27163 0.62739 0.63097 0.0
H2590 H 0.21091 0.64918 0.63317 0.0
H2591 H 0.22217 0.68225 0.62262 0.0
H2592 H 0.2974 0.66699 0.64855 0.0
H2593 H 0.3173 0.66637 0.63078 0.0
H2594 H 0.30367 0.64397 0.63575 0.0
H2595 H 0.29679 0.64196 0.59735 0.0
H2596 H 0.30966 0.66526 0.59371 0.0
H2597 H 0.28439 0.66246 0.58525 0.0
H2598 H 0.24019 0.71396 0.62174 0.0
H2599 H 0.26409 0.74198 0.62266 0.0
H2600 H 0.31303 0.70051 0.61674 0.0
C2601 C 0.26066 0.63885 0.62813 0.0
C2602 C 0.24041 0.6358 0.63301 0.0
C2603 C 0.22649 0.65124 0.62954 0.0
C2604 C 0.23273 0.67012 0.62358 0.0
C2605 C 0.25289 0.67316 0.6203 0.0
C2606 C 0.26664 0.65784 0.62152 0.0
C2607 C 0.28751 0.66572 0.61761 0.0
C2608 C 0.30228 0.66037 0.63421 0.0
C2609 C 0.29503 0.65842 0.59727 0.0
C2610 C 0.28347 0.68792 0.61714 0.0
C2611 C 0.26332 0.69183 0.61817 0.0
C2612 C 0.25597 0.71114 0.62024 0.0
C2613 C 0.26957 0.72689 0.62105 0.0
C2614 C 0.29019 0.72314 0.62006 0.0
C2615 C 0.29725 0.70353 0.61776 0.0
H2616 H 0.18927 0.37835 0.25578 0.0
H2617 H 0.15724 0.36853 0.31071 0.0
H2618 H 0.12969 0.35294 0.29211 0.0
H2619 H 0.1424 0.38402 0.22201 0.0
H2620 H 0.15497 0.37095 0.20224 0.0
H2621 H 0.16888 0.38677 0.21889 0.0
H2622 H 0.19222 0.35719 0.22706 0.0
H2623 H 0.17828 0.34123 0.21086 0.0
H2624 H 0.18172 0.33438 0.23658 0.0
H2625 H 0.10959 0.3318 0.26887 0.0
H2626 H 0.09893 0.30768 0.24294 0.0
H2627 H 0.14452 0.33046 0.20347 0.0
C2628 C 0.17585 0.37406 0.26361 0.0
C2629 C 0.17497 0.37514 0.2845 0.0
C2630 C 0.1578 0.36832 0.29459 0.0
C2631 C 0.14211 0.35939 0.28414 0.0
C2632 C 0.14381 0.35747 0.26357 0.0
C2633 C 0.16012 0.36495 0.25334 0.0
C2634 C 0.1599 0.35825 0.23184 0.0
C2635 C 0.15632 0.37606 0.21792 0.0
C2636 C 0.17916 0.34709 0.22629 0.0
C2637 C 0.14206 0.3445 0.23207 0.0
C2638 C 0.13249 0.34475 0.25025 0.0
C2639 C 0.11665 0.33187 0.25439 0.0
C2640 C 0.11069 0.3182 0.23966 0.0
C2641 C 0.12094 0.31727 0.22132 0.0
C2642 C 0.13642 0.33093 0.21741 0.0
H2643 H 0.66133 0.12417 0.21693 0.0
H2644 H 0.71607 0.12325 0.25073 0.0
H2645 H 0.69888 0.13874 0.27923 0.0
H2646 H 0.64679 0.16889 0.22827 0.0
H2647 H 0.62043 0.165 0.23131 0.0
H2648 H 0.6346 0.14839 0.21593 0.0
H2649 H 0.62298 0.11807 0.23664 0.0
H2650 H 0.60815 0.13451 0.25184 0.0
H2651 H 0.62612 0.11821 0.26329 0.0
H2652 H 0.67928 0.1617 0.29936 0.0
H2653 H 0.65685 0.1873 0.31261 0.0
H2654 H 0.61343 0.17328 0.26691 0.0
C2655 C 0.66922 0.12609 0.23085 0.0
C2656 C 0.68977 0.12206 0.23206 0.0
C2657 C 0.70016 0.1257 0.24993 0.0
C2658 C 0.69052 0.13456 0.26611 0.0
C2659 C 0.67046 0.13945 0.26416 0.0
C2660 C 0.65969 0.13484 0.24722 0.0
C2661 C 0.63905 0.14403 0.24801 0.0
C2662 C 0.63501 0.15737 0.22981 0.0
C2663 C 0.62313 0.12774 0.25007 0.0
C2664 C 0.64067 0.15612 0.26699 0.0
C2665 C 0.65877 0.15284 0.27625 0.0
C2666 C 0.66481 0.1639 0.29266 0.0
C2667 C 0.65203 0.1786 0.29992 0.0
C2668 C 0.63336 0.18219 0.29082 0.0
C2669 C 0.62748 0.17058 0.27432 0.0
H2670 H 0.83306 0.62409 0.27765 0.0
H2671 H 0.77517 0.63425 0.25149 0.0
H2672 H 0.79087 0.65165 0.22321 0.0
H2673 H 0.85169 0.66809 0.2705 0.0
H2674 H 0.87686 0.66182 0.26364 0.0
H2675 H 0.86251 0.64482 0.27845 0.0
H2676 H 0.86778 0.61665 0.25271 0.0
H2677 H 0.88284 0.63334 0.23803 0.0
H2678 H 0.8618 0.62098 0.22691 0.0
H2679 H 0.81111 0.67462 0.20344 0.0
H2680 H 0.8353 0.69854 0.19021 0.0
H2681 H 0.88105 0.67378 0.22855 0.0
C2682 C 0.82395 0.62884 0.26523 0.0
C2683 C 0.80306 0.62736 0.26621 0.0
C2684 C 0.79125 0.63469 0.25047 0.0
C2685 C 0.80006 0.64468 0.23446 0.0
C2686 C 0.82067 0.64698 0.23443 0.0
C2687 C 0.83259 0.63878 0.24908 0.0
C2688 C 0.85401 0.64561 0.2469 0.0
C2689 C 0.86169 0.65569 0.266 0.0
C2690 C 0.8674 0.62811 0.24077 0.0
C2691 C 0.85186 0.66039 0.23001 0.0
C2692 C 0.8326 0.66053 0.22276 0.0
C2693 C 0.82638 0.6742 0.20852 0.0
C2694 C 0.84024 0.68789 0.20126 0.0
C2695 C 0.86012 0.68796 0.20829 0.0
C2696 C 0.86601 0.67392 0.22277 0.0
H2697 H 0.37432 0.79757 0.25097 0.0
H2698 H 0.37562 0.83744 0.30149 0.0
H2699 H 0.35905 0.86357 0.2815 0.0
H2700 H 0.38 0.83822 0.2111 0.0
H2701 H 0.36346 0.82499 0.19464 0.0
H2702 H 0.37935 0.81139 0.21147 0.0
H2703 H 0.34844 0.79329 0.22576 0.0
H2704 H 0.33247 0.80698 0.20929 0.0
H2705 H 0.3282 0.80779 0.23578 0.0
H2706 H 0.33701 0.88282 0.25798 0.0
H2707 H 0.31273 0.89389 0.23256 0.0
H2708 H 0.32611 0.84135 0.19742 0.0
C2709 C 0.37206 0.8122 0.25737 0.0
C2710 C 0.37678 0.81587 0.27745 0.0
C2711 C 0.37269 0.83473 0.28586 0.0
C2712 C 0.3632 0.84959 0.27465 0.0
C2713 C 0.35806 0.84534 0.255 0.0
C2714 C 0.3627 0.82721 0.24631 0.0
C2715 C 0.3537 0.82555 0.22573 0.0
C2716 C 0.3701 0.82501 0.20979 0.0
C2717 C 0.33988 0.80733 0.22407 0.0
C2718 C 0.34215 0.84488 0.22478 0.0
C2719 C 0.34517 0.85634 0.24157 0.0
C2720 C 0.33488 0.87416 0.24457 0.0
C2721 C 0.32106 0.88032 0.23008 0.0
C2722 C 0.31746 0.8685 0.213 0.0
C2723 C 0.32848 0.85077 0.21028 0.0
H2724 H 0.12273 0.68811 0.76449 0.0
H2725 H 0.1493 0.66749 0.81945 0.0
H2726 H 0.16617 0.64035 0.80138 0.0
H2727 H 0.11919 0.63713 0.73905 0.0
H2728 H 0.12594 0.64782 0.71538 0.0
H2729 H 0.11188 0.66226 0.73312 0.0
H2730 H 0.13857 0.69008 0.7317 0.0
H2731 H 0.15261 0.6758 0.71404 0.0
H2732 H 0.16418 0.68393 0.73685 0.0
H2733 H 0.18476 0.6194 0.77696 0.0
H2734 H 0.20473 0.60813 0.74798 0.0
H2735 H 0.16711 0.6429 0.70889 0.0
C2736 C 0.13139 0.6773 0.77273 0.0
C2737 C 0.13449 0.67957 0.79332 0.0
C2738 C 0.14661 0.66575 0.80364 0.0
C2739 C 0.15616 0.65023 0.79353 0.0
C2740 C 0.15348 0.64872 0.77304 0.0
C2741 C 0.14132 0.66184 0.76274 0.0
C2742 C 0.14342 0.65895 0.7405 0.0
C2743 C 0.12394 0.65107 0.73148 0.0
C2744 C 0.15011 0.67833 0.73019 0.0
C2745 C 0.15953 0.64319 0.73995 0.0
C2746 C 0.1647 0.63693 0.75884 0.0
C2747 C 0.18053 0.62379 0.76205 0.0
C2748 C 0.19177 0.6174 0.74557 0.0
C2749 C 0.18726 0.62455 0.72633 0.0
C2750 C 0.1706 0.63703 0.7235 0.0
H2751 H 0.37327 0.19888 0.74064 0.0
H2752 H 0.37898 0.15605 0.693 0.0
H2753 H 0.36289 0.13035 0.71404 0.0
H2754 H 0.37737 0.1624 0.78425 0.0
H2755 H 0.35879 0.17624 0.79778 0.0
H2756 H 0.37557 0.18901 0.78118 0.0
H2757 H 0.34531 0.20408 0.76263 0.0
H2758 H 0.32846 0.19106 0.77873 0.0
H2759 H 0.32684 0.18766 0.75216 0.0
H2760 H 0.34018 0.11165 0.73796 0.0
H2761 H 0.31418 0.10193 0.7624 0.0
H2762 H 0.32299 0.15791 0.79334 0.0
C2763 C 0.37222 0.18373 0.7352 0.0
C2764 C 0.37797 0.17908 0.71564 0.0
C2765 C 0.37532 0.15953 0.70832 0.0
C2766 C 0.36608 0.14492 0.72012 0.0
C2767 C 0.35963 0.15023 0.73915 0.0
C2768 C 0.3629 0.16914 0.74673 0.0
C2769 C 0.35204 0.17223 0.76616 0.0
C2770 C 0.36683 0.17513 0.78336 0.0
C2771 C 0.3373 0.18978 0.76481 0.0
C2772 C 0.34132 0.15255 0.76787 0.0
C2773 C 0.3461 0.13981 0.75246 0.0
C2774 C 0.33666 0.12137 0.7503 0.0
C2775 C 0.32188 0.11598 0.76418 0.0
C2776 C 0.31648 0.12921 0.77966 0.0
C2777 C 0.32669 0.14748 0.78162 0.0
H2778 H 0.80127 0.34382 0.71866 0.0
H2779 H 0.83208 0.40055 0.71819 0.0
H2780 H 0.85864 0.3859 0.73958 0.0
H2781 H 0.81195 0.33037 0.76864 0.0
H2782 H 0.81421 0.30434 0.7625 0.0
H2783 H 0.79822 0.32015 0.74799 0.0
H2784 H 0.81716 0.30949 0.71603 0.0
H2785 H 0.83356 0.29403 0.73053 0.0
H2786 H 0.84369 0.3131 0.7146 0.0
H2787 H 0.88206 0.3633 0.76165 0.0
H2788 H 0.89698 0.33724 0.78347 0.0
H2789 H 0.85036 0.29633 0.766 0.0
C2790 C 0.81354 0.35334 0.723 0.0
C2791 C 0.81465 0.37331 0.71666 0.0
C2792 C 0.83088 0.38521 0.72299 0.0
C2793 C 0.84609 0.37694 0.73496 0.0
C2794 C 0.84475 0.35683 0.74032 0.0
C2795 C 0.82867 0.34538 0.73456 0.0
C2796 C 0.83005 0.32433 0.74209 0.0
C2797 C 0.81258 0.31953 0.75614 0.0
C2798 C 0.83119 0.30937 0.72477 0.0
C2799 C 0.84946 0.32546 0.75316 0.0
C2800 C 0.85794 0.3442 0.75211 0.0
C2801 C 0.87554 0.34858 0.76235 0.0
C2802 C 0.88407 0.33367 0.77452 0.0
C2803 C 0.87485 0.31479 0.77624 0.0
C2804 C 0.85781 0.3106 0.76483 0.0
H2805 H 0.69403 0.83698 0.78097 0.0
H2806 H 0.67795 0.89793 0.76657 0.0
H2807 H 0.64919 0.88515 0.74691 0.0
H2808 H 0.68242 0.81486 0.73553 0.0
H2809 H 0.67356 0.79234 0.74713 0.0
H2810 H 0.69209 0.80719 0.75936 0.0
H2811 H 0.66926 0.80911 0.79052 0.0
H2812 H 0.65033 0.79485 0.778 0.0
H2813 H 0.64444 0.819 0.78813 0.0
H2814 H 0.62328 0.86403 0.72677 0.0
H2815 H 0.60596 0.83789 0.70714 0.0
H2816 H 0.63825 0.79239 0.73915 0.0
C2817 C 0.68463 0.84791 0.77377 0.0
C2818 C 0.6884 0.86855 0.77533 0.0
C2819 C 0.6755 0.88203 0.76549 0.0
C2820 C 0.65902 0.87489 0.75451 0.0
C2821 C 0.65552 0.85433 0.75394 0.0
C2822 C 0.66812 0.84117 0.76341 0.0
C2823 C 0.66197 0.81981 0.76057 0.0
C2824 C 0.67848 0.80786 0.75001 0.0
C2825 C 0.65615 0.81014 0.78049 0.0
C2826 C 0.64409 0.82268 0.74743 0.0
C2827 C 0.64034 0.84263 0.74372 0.0
C2828 C 0.62582 0.84845 0.73001 0.0
C2829 C 0.61582 0.83354 0.71913 0.0
C2830 C 0.62046 0.8132 0.72215 0.0
C2831 C 0.63397 0.80782 0.73715 0.0
H2832 H 0.30073 0.16522 0.35293 0.0
H2833 H 0.26288 0.18912 0.39928 0.0
H2834 H 0.23554 0.16702 0.38814 0.0
H2835 H 0.26829 0.16477 0.31622 0.0
H2836 H 0.27539 0.14159 0.30468 0.0
H2837 H 0.29316 0.15514 0.31926 0.0
H2838 H 0.29885 0.12428 0.34166 0.0
H2839 H 0.28117 0.11044 0.32695 0.0
H2840 H 0.27792 0.11243 0.35351 0.0
H2841 H 0.21082 0.14858 0.36739 0.0
H2842 H 0.19106 0.13455 0.33978 0.0
H2843 H 0.24501 0.12171 0.30712 0.0
C2844 C 0.28691 0.16516 0.36122 0.0
C2845 C 0.28387 0.17869 0.37703 0.0
C2846 C 0.26557 0.17857 0.38738 0.0
C2847 C 0.24999 0.16608 0.38111 0.0
C2848 C 0.2532 0.15349 0.36483 0.0
C2849 C 0.2714 0.15262 0.35532 0.0
C2850 C 0.27048 0.13957 0.33691 0.0
C2851 C 0.27721 0.15097 0.31818 0.0
C2852 C 0.28284 0.12055 0.33994 0.0
C2853 C 0.24848 0.13479 0.33637 0.0
C2854 C 0.23889 0.14244 0.35298 0.0
C2855 C 0.21825 0.14194 0.35473 0.0
C2856 C 0.20715 0.13394 0.33899 0.0
C2857 C 0.21663 0.12656 0.3217 0.0
C2858 C 0.23755 0.12653 0.32057 0.0
H2859 H 0.87372 0.2491 0.29818 0.0
H2860 H 0.86915 0.1953 0.33328 0.0
H2861 H 0.85476 0.21447 0.36116 0.0
H2862 H 0.88258 0.28446 0.34295 0.0
H2863 H 0.86797 0.30362 0.33116 0.0
H2864 H 0.88263 0.2868 0.31622 0.0
H2865 H 0.85112 0.27721 0.29618 0.0
H2866 H 0.8364 0.29379 0.31105 0.0
H2867 H 0.8296 0.26789 0.30924 0.0
H2868 H 0.83496 0.23788 0.38229 0.0
H2869 H 0.81129 0.26352 0.39434 0.0
H2870 H 0.82855 0.302 0.34551 0.0
C2871 C 0.87062 0.24168 0.31215 0.0
C2872 C 0.87297 0.22095 0.31395 0.0
C2873 C 0.8679 0.21134 0.33198 0.0
C2874 C 0.85973 0.2221 0.34787 0.0
C2875 C 0.85688 0.2425 0.34552 0.0
C2876 C 0.86246 0.25228 0.3282 0.0
C2877 C 0.85542 0.27368 0.3284 0.0
C2878 C 0.87321 0.28799 0.32977 0.0
C2879 C 0.84235 0.27839 0.31015 0.0
C2880 C 0.8435 0.27382 0.34753 0.0
C2881 C 0.84509 0.25597 0.35761 0.0
C2882 C 0.83398 0.25211 0.37479 0.0
C2883 C 0.82057 0.26671 0.38155 0.0
C2884 C 0.81813 0.28465 0.37082 0.0
C2885 C 0.83019 0.28839 0.35401 0.0
H2886 H 0.80109 0.84473 0.32785 0.0
H2887 H 0.7638 0.89495 0.3119 0.0
H2888 H 0.73971 0.88503 0.33812 0.0
H2889 H 0.76485 0.81046 0.33359 0.0
H2890 H 0.776 0.79774 0.35443 0.0
H2891 H 0.79142 0.81112 0.33724 0.0
H2892 H 0.80591 0.83173 0.36652 0.0
H2893 H 0.79019 0.8185 0.3838 0.0
H2894 H 0.78933 0.8453 0.38267 0.0
H2895 H 0.71762 0.86645 0.36239 0.0
H2896 H 0.6987 0.84004 0.37964 0.0
H2897 H 0.75069 0.80222 0.37949 0.0
C2898 C 0.78801 0.8539 0.33004 0.0
C2899 C 0.78425 0.87057 0.31775 0.0
C2900 C 0.76702 0.88217 0.3212 0.0
C2901 C 0.75334 0.87669 0.33613 0.0
C2902 C 0.7574 0.85987 0.34776 0.0
C2903 C 0.77444 0.84876 0.3449 0.0
C2904 C 0.77458 0.83023 0.35773 0.0
C2905 C 0.77682 0.81129 0.34498 0.0
C2906 C 0.79098 0.83153 0.37362 0.0
C2907 C 0.75421 0.83169 0.36715 0.0
C2908 C 0.74479 0.84927 0.36183 0.0
C2909 C 0.72508 0.85297 0.36711 0.0
C2910 C 0.71449 0.83797 0.37711 0.0
C2911 C 0.72354 0.81946 0.38151 0.0
C2912 C 0.7438 0.81661 0.37714 0.0
H2913 H 0.18725 0.71436 0.34035 0.0
H2914 H 0.18537 0.74027 0.39953 0.0
H2915 H 0.15955 0.76418 0.3877 0.0
H2916 H 0.18465 0.75804 0.31372 0.0
H2917 H 0.16988 0.74749 0.29396 0.0
H2918 H 0.18624 0.73183 0.30813 0.0
H2919 H 0.15651 0.70878 0.31692 0.0
H2920 H 0.13996 0.72458 0.30293 0.0
H2921 H 0.13477 0.71917 0.32869 0.0
H2922 H 0.13557 0.78712 0.36732 0.0
H2923 H 0.11874 0.80714 0.34111 0.0
H2924 H 0.13778 0.76485 0.29649 0.0
C2925 C 0.18152 0.72495 0.35107 0.0
C2926 C 0.18858 0.72553 0.37089 0.0
C2927 C 0.18028 0.73957 0.38425 0.0
C2928 C 0.16554 0.75311 0.37766 0.0
C2929 C 0.15915 0.75209 0.35782 0.0
C2930 C 0.16699 0.73823 0.34485 0.0
C2931 C 0.15902 0.74053 0.32399 0.0
C2932 C 0.17595 0.74473 0.30909 0.0
C2933 C 0.14684 0.72217 0.31778 0.0
C2934 C 0.14585 0.75842 0.32682 0.0
C2935 C 0.14568 0.76479 0.34644 0.0
C2936 C 0.13539 0.78197 0.35205 0.0
C2937 C 0.12573 0.79316 0.33715 0.0
C2938 C 0.12666 0.78714 0.31697 0.0
C2939 C 0.13643 0.76937 0.31192 0.0
H2940 H 0.28099 0.80244 0.6566 0.0
H2941 H 0.28069 0.83221 0.59929 0.0
H2942 H 0.25794 0.85805 0.61326 0.0
H2943 H 0.23065 0.81109 0.66967 0.0
H2944 H 0.23663 0.81415 0.69565 0.0
H2945 H 0.25187 0.79849 0.68021 0.0
H2946 H 0.28288 0.81912 0.69054 0.0
H2947 H 0.26762 0.8352 0.70559 0.0
H2948 H 0.28311 0.84563 0.68633 0.0
H2949 H 0.23468 0.88096 0.63538 0.0
H2950 H 0.21231 0.8955 0.66121 0.0
H2951 H 0.23151 0.85026 0.7029 0.0
C2952 C 0.27624 0.81433 0.64679 0.0
C2953 C 0.28276 0.81538 0.62688 0.0
C2954 C 0.27581 0.83108 0.61461 0.0
C2955 C 0.26306 0.84588 0.62249 0.0
C2956 C 0.25757 0.84467 0.64258 0.0
C2957 C 0.26395 0.82906 0.65437 0.0
C2958 C 0.25632 0.8305 0.67536 0.0
C2959 C 0.24308 0.8125 0.68051 0.0
C2960 C 0.27351 0.83275 0.69033 0.0
C2961 C 0.2444 0.84936 0.6738 0.0
C2962 C 0.24515 0.85756 0.65491 0.0
C2963 C 0.23421 0.87466 0.6502 0.0
C2964 C 0.22172 0.88297 0.66497 0.0
C2965 C 0.22039 0.87401 0.68401 0.0
C2966 C 0.23239 0.85748 0.68849 0.0
H2967 H 0.17662 0.30191 0.65707 0.0
H2968 H 0.18288 0.26991 0.6013 0.0
H2969 H 0.15861 0.24478 0.6133 0.0
H2970 H 0.1765 0.26139 0.68774 0.0
H2971 H 0.15869 0.27124 0.70522 0.0
H2972 H 0.17384 0.28792 0.69086 0.0
H2973 H 0.14208 0.30541 0.67758 0.0
H2974 H 0.12679 0.2886 0.69186 0.0
H2975 H 0.12312 0.29088 0.66538 0.0
H2976 H 0.13694 0.22112 0.63341 0.0
H2977 H 0.12163 0.20059 0.65997 0.0
H2978 H 0.13025 0.24839 0.70221 0.0
C2979 C 0.17272 0.28982 0.64716 0.0
C2980 C 0.1817 0.28786 0.62823 0.0
C2981 C 0.17611 0.27177 0.61581 0.0
C2982 C 0.16229 0.25749 0.62249 0.0
C2983 C 0.15402 0.25975 0.64146 0.0
C2984 C 0.15902 0.27562 0.65353 0.0
C2985 C 0.14966 0.27391 0.67393 0.0
C2986 C 0.16563 0.27358 0.69039 0.0
C2987 C 0.13451 0.2907 0.67738 0.0
C2988 C 0.13938 0.25403 0.67193 0.0
C2989 C 0.1416 0.24628 0.65295 0.0
C2990 C 0.13471 0.22729 0.64813 0.0
C2991 C 0.12593 0.21579 0.66322 0.0
C2992 C 0.12429 0.2233 0.68282 0.0
C2993 C 0.13071 0.24274 0.68711 0.0
H2994 H 0.79458 0.15622 0.67775 0.0
H2995 H 0.75699 0.10505 0.68935 0.0
H2996 H 0.73329 0.11713 0.66355 0.0
H2997 H 0.75839 0.19088 0.67464 0.0
H2998 H 0.76987 0.20537 0.65518 0.0
H2999 H 0.78502 0.19057 0.67141 0.0
H3000 H 0.8001 0.1725 0.6408 0.0
H3001 H 0.78475 0.18721 0.62442 0.0
H3002 H 0.78387 0.16042 0.6232 0.0
H3003 H 0.71168 0.13783 0.64018 0.0
H3004 H 0.69345 0.16544 0.62404 0.0
H3005 H 0.74544 0.203 0.62865 0.0
C3006 C 0.78151 0.14729 0.67473 0.0
C3007 C 0.77753 0.12975 0.68571 0.0
C3008 C 0.76036 0.11849 0.6811 0.0
C3009 C 0.74691 0.12523 0.66642 0.0
C3010 C 0.75114 0.14297 0.65626 0.0
C3011 C 0.76818 0.15371 0.66022 0.0
C3012 C 0.7686 0.17329 0.64904 0.0
C3013 C 0.77056 0.19106 0.66343 0.0
C3014 C 0.78532 0.17335 0.63344 0.0
C3015 C 0.74842 0.17272 0.63916 0.0
C3016 C 0.73883 0.15482 0.6429 0.0
C3017 C 0.71928 0.15162 0.63677 0.0
C3018 C 0.70908 0.16733 0.62746 0.0
C3019 C 0.71834 0.18604 0.62456 0.0
C3020 C 0.7384 0.18855 0.62993 0.0
H3021 H 0.81365 0.7063 0.66461 0.0
H3022 H 0.8275 0.72276 0.60366 0.0
H3023 H 0.8538 0.74558 0.61618 0.0
H3024 H 0.81708 0.7534 0.68455 0.0
H3025 H 0.8273 0.74514 0.70795 0.0
H3026 H 0.81175 0.72873 0.69371 0.0
H3027 H 0.83977 0.70213 0.69381 0.0
H3028 H 0.85553 0.71862 0.70792 0.0
H3029 H 0.86412 0.70856 0.68458 0.0
H3030 H 0.87701 0.76869 0.63645 0.0
H3031 H 0.89169 0.79138 0.66173 0.0
H3032 H 0.86111 0.75922 0.70837 0.0
C3033 C 0.82229 0.71443 0.6537 0.0
C3034 C 0.81848 0.71266 0.63309 0.0
C3035 C 0.83015 0.72383 0.61953 0.0
C3036 C 0.84519 0.73672 0.62651 0.0
C3037 C 0.8484 0.7381 0.64705 0.0
C3038 C 0.83713 0.72721 0.66035 0.0
C3039 C 0.84192 0.73234 0.68169 0.0
C3040 C 0.82342 0.74039 0.6926 0.0
C3041 C 0.85087 0.71434 0.69264 0.0
C3042 C 0.85728 0.74835 0.6785 0.0
C3043 C 0.86126 0.75127 0.65848 0.0
C3044 C 0.87419 0.76627 0.65213 0.0
C3045 C 0.8826 0.77896 0.66654 0.0
C3046 C 0.87775 0.77665 0.6869 0.0
C3047 C 0.86537 0.76089 0.69291 0.0
H3048 H 0.30578 0.21985 0.16111 0.0
H3049 H 0.32406 0.22987 0.09993 0.0
H3050 H 0.34992 0.25354 0.11199 0.0
H3051 H 0.31024 0.26872 0.17767 0.0
H3052 H 0.31875 0.26157 0.20209 0.0
H3053 H 0.30298 0.24509 0.18813 0.0
H3054 H 0.32933 0.21705 0.19167 0.0
H3055 H 0.34535 0.2336 0.2054 0.0
H3056 H 0.35443 0.2214 0.18329 0.0
H3057 H 0.37297 0.2777 0.13199 0.0
H3058 H 0.38809 0.30078 0.15678 0.0
H3059 H 0.35381 0.27291 0.2036 0.0
C3060 C 0.31519 0.22681 0.15003 0.0
C3061 C 0.31284 0.22291 0.1295 0.0
C3062 C 0.32552 0.23264 0.11573 0.0
C3063 C 0.34033 0.24598 0.12249 0.0
C3064 C 0.34226 0.24921 0.14299 0.0
C3065 C 0.32987 0.23983 0.15644 0.0
C3066 C 0.33387 0.24614 0.17758 0.0
C3067 C 0.31537 0.25597 0.1869 0.0
C3068 C 0.34119 0.22849 0.19022 0.0
C3069 C 0.35025 0.261 0.17413 0.0
C3070 C 0.35522 0.26253 0.15418 0.0
C3071 C 0.36933 0.27635 0.14763 0.0
C3072 C 0.37796 0.28926 0.16176 0.0
C3073 C 0.37229 0.28818 0.18201 0.0
C3074 C 0.35867 0.27362 0.18822 0.0
H3075 H 0.37483 0.73601 0.81329 0.0
H3076 H 0.34502 0.6805 0.82708 0.0
H3077 H 0.32758 0.69651 0.85499 0.0
H3078 H 0.3764 0.75521 0.86766 0.0
H3079 H 0.37172 0.78034 0.85953 0.0
H3080 H 0.38589 0.76362 0.84401 0.0
H3081 H 0.3615 0.76993 0.81482 0.0
H3082 H 0.3474 0.78663 0.83016 0.0
H3083 H 0.33526 0.76571 0.81852 0.0
H3084 H 0.30883 0.71917 0.87704 0.0
H3085 H 0.28904 0.74749 0.89 0.0
H3086 H 0.32974 0.78867 0.86178 0.0
C3087 C 0.36527 0.72715 0.82277 0.0
C3088 C 0.36139 0.70702 0.81823 0.0
C3089 C 0.34825 0.69595 0.83044 0.0
C3090 C 0.33838 0.70486 0.84643 0.0
C3091 C 0.34183 0.72492 0.85018 0.0
C3092 C 0.35506 0.73596 0.83881 0.0
C3093 C 0.35384 0.75784 0.8442 0.0
C3094 C 0.37311 0.76465 0.85446 0.0
C3095 C 0.3492 0.77077 0.82583 0.0
C3096 C 0.33666 0.7575 0.85887 0.0
C3097 C 0.33053 0.73827 0.86281 0.0
C3098 C 0.3138 0.73429 0.87454 0.0
C3099 C 0.30267 0.75039 0.8819 0.0
C3100 C 0.30816 0.77008 0.8771 0.0
C3101 C 0.32562 0.77365 0.86596 0.0
H3102 H 0.21577 0.34064 0.8746 0.0
H3103 H 0.24358 0.28273 0.86971 0.0
H3104 H 0.27103 0.29744 0.85044 0.0
H3105 H 0.22202 0.35653 0.8297 0.0
H3106 H 0.22911 0.3821 0.8338 0.0
H3107 H 0.21482 0.36914 0.85229 0.0
H3108 H 0.24134 0.37641 0.87919 0.0
H3109 H 0.25549 0.39017 0.86098 0.0
H3110 H 0.26697 0.37007 0.87455 0.0
H3111 H 0.2889 0.31527 0.8248 0.0
H3112 H 0.30146 0.33711 0.7987 0.0
H3113 H 0.26416 0.38529 0.82036 0.0
C3114 C 0.22839 0.33146 0.87058 0.0
C3115 C 0.22803 0.31072 0.87398 0.0
C3116 C 0.24408 0.29874 0.86771 0.0
C3117 C 0.25963 0.30697 0.85666 0.0
C3118 C 0.25902 0.32726 0.8524 0.0
C3119 C 0.24429 0.3396 0.85977 0.0
C3120 C 0.24626 0.36048 0.85119 0.0
C3121 C 0.2269 0.36744 0.84114 0.0
C3122 C 0.25291 0.37515 0.86744 0.0
C3123 C 0.26277 0.3572 0.83614 0.0
C3124 C 0.27013 0.33802 0.83754 0.0
C3125 C 0.28389 0.33057 0.82407 0.0
C3126 C 0.29079 0.34314 0.80909 0.0
C3127 C 0.28405 0.36309 0.80755 0.0
C3128 C 0.2698 0.37022 0.8213 0.0
H3129 H 0.63993 0.2641 0.7965 0.0
H3130 H 0.60873 0.2939 0.84428 0.0
H3131 H 0.62472 0.27118 0.86879 0.0
H3132 H 0.64117 0.21289 0.81856 0.0
H3133 H 0.66582 0.20887 0.80877 0.0
H3134 H 0.64856 0.22455 0.79554 0.0
H3135 H 0.67458 0.25304 0.79612 0.0
H3136 H 0.69166 0.23777 0.80989 0.0
H3137 H 0.68417 0.26161 0.81967 0.0
H3138 H 0.64898 0.24816 0.88815 0.0
H3139 H 0.67607 0.22575 0.89967 0.0
H3140 H 0.69117 0.21325 0.83809 0.0
C3141 C 0.63576 0.2652 0.81205 0.0
C3142 C 0.6229 0.28035 0.81859 0.0
C3143 C 0.61819 0.28194 0.83904 0.0
C3144 C 0.62736 0.26924 0.85302 0.0
C3145 C 0.641 0.2551 0.84612 0.0
C3146 C 0.64481 0.25285 0.82599 0.0
C3147 C 0.66141 0.23827 0.82216 0.0
C3148 C 0.65378 0.22006 0.81058 0.0
C3149 C 0.67898 0.24828 0.81133 0.0
C3150 C 0.6668 0.23292 0.84325 0.0
C3151 C 0.65491 0.24254 0.857 0.0
C3152 C 0.65813 0.24035 0.87744 0.0
C3153 C 0.67365 0.22773 0.88386 0.0
C3154 C 0.68579 0.21768 0.86983 0.0
C3155 C 0.6822 0.22054 0.84933 0.0
H3156 H 0.7178 0.62411 0.83603 0.0
H3157 H 0.74964 0.62451 0.78005 0.0
H3158 H 0.77827 0.64059 0.79639 0.0
H3159 H 0.72911 0.66927 0.85104 0.0
H3160 H 0.73314 0.66479 0.87721 0.0
H3161 H 0.71742 0.64835 0.86317 0.0
H3162 H 0.73887 0.61805 0.87349 0.0
H3163 H 0.75444 0.63437 0.88806 0.0
H3164 H 0.76535 0.61857 0.86933 0.0
H3165 H 0.79915 0.66256 0.81571 0.0
H3166 H 0.81348 0.68742 0.83785 0.0
H3167 H 0.76912 0.67368 0.88291 0.0
C3168 C 0.73136 0.62648 0.82765 0.0
C3169 C 0.73201 0.62246 0.80703 0.0
C3170 C 0.74934 0.62678 0.79602 0.0
C3171 C 0.76558 0.63601 0.80518 0.0
C3172 C 0.76424 0.64058 0.82538 0.0
C3173 C 0.74781 0.63559 0.8367 0.0
C3174 C 0.74932 0.64445 0.8575 0.0
C3175 C 0.73117 0.65749 0.86249 0.0
C3176 C 0.75216 0.62787 0.87302 0.0
C3177 C 0.76812 0.65677 0.8554 0.0
C3178 C 0.77666 0.65376 0.83689 0.0
C3179 C 0.79297 0.66461 0.83045 0.0
C3180 C 0.80087 0.6789 0.84318 0.0
C3181 C 0.79245 0.68251 0.86224 0.0
C3182 C 0.77602 0.67103 0.86859 0.0
H3183 H 0.67435 0.79595 0.15749 0.0
H3184 H 0.69192 0.76137 0.10592 0.0
H3185 H 0.66743 0.73533 0.1152 0.0
H3186 H 0.6699 0.75813 0.19082 0.0
H3187 H 0.6483 0.76776 0.20349 0.0
H3188 H 0.66492 0.78452 0.19097 0.0
H3189 H 0.63541 0.79826 0.17022 0.0
H3190 H 0.61869 0.7813 0.18261 0.0
H3191 H 0.62035 0.78136 0.15584 0.0
H3192 H 0.64475 0.71117 0.13307 0.0
H3193 H 0.62699 0.69086 0.15816 0.0
H3194 H 0.62352 0.74184 0.19728 0.0
C3195 C 0.67284 0.78302 0.14797 0.0
C3196 C 0.68508 0.78057 0.13105 0.0
C3197 C 0.68261 0.76354 0.11889 0.0
C3198 C 0.66869 0.74876 0.12402 0.0
C3199 C 0.65702 0.75153 0.14103 0.0
C3200 C 0.65884 0.7684 0.15267 0.0
C3201 C 0.64568 0.76732 0.17093 0.0
C3202 C 0.65794 0.76954 0.19017 0.0
C3203 C 0.62905 0.78299 0.16983 0.0
C3204 C 0.63731 0.74654 0.16865 0.0
C3205 C 0.64355 0.73786 0.15101 0.0
C3206 C 0.63929 0.71803 0.14659 0.0
C3207 C 0.62907 0.70663 0.16082 0.0
C3208 C 0.62329 0.71509 0.17921 0.0
C3209 C 0.627 0.73538 0.18292 0.0
H3210 H 0.2748 0.6204 0.17434 0.0
H3211 H 0.28433 0.66865 0.21651 0.0
H3212 H 0.26775 0.69182 0.19412 0.0
H3213 H 0.27778 0.64718 0.12916 0.0
H3214 H 0.25638 0.63658 0.11698 0.0
H3215 H 0.26966 0.6224 0.1355 0.0
H3216 H 0.23748 0.61771 0.15612 0.0
H3217 H 0.22397 0.63107 0.13721 0.0
H3218 H 0.22286 0.63922 0.16276 0.0
H3219 H 0.25834 0.71099 0.16503 0.0
H3220 H 0.23652 0.72451 0.13915 0.0
H3221 H 0.22271 0.66457 0.11934 0.0
C3222 C 0.27286 0.63569 0.17905 0.0
C3223 C 0.28195 0.64294 0.1967 0.0
C3224 C 0.27845 0.66291 0.20263 0.0
C3225 C 0.2692 0.67633 0.18995 0.0
C3226 C 0.26236 0.66936 0.17182 0.0
C3227 C 0.26239 0.64938 0.16696 0.0
C3228 C 0.25091 0.64616 0.14762 0.0
C3229 C 0.2645 0.63756 0.13135 0.0
C3230 C 0.23271 0.63275 0.15114 0.0
C3231 C 0.24483 0.66752 0.14265 0.0
C3232 C 0.25294 0.68052 0.15629 0.0
C3233 C 0.25128 0.70104 0.15452 0.0
C3234 C 0.2392 0.70858 0.13949 0.0
C3235 C 0.2279 0.69562 0.12738 0.0
C3236 C 0.23141 0.6748 0.12825 0.0
H3237 H 0.7355 0.3553 0.20647 0.0
H3238 H 0.70835 0.39056 0.15991 0.0
H3239 H 0.73088 0.37491 0.13502 0.0
H3240 H 0.7869 0.35395 0.18581 0.0
H3241 H 0.79016 0.32867 0.19422 0.0
H3242 H 0.7744 0.34544 0.20798 0.0
H3243 H 0.74549 0.32004 0.20493 0.0
H3244 H 0.76089 0.3035 0.19063 0.0
H3245 H 0.73753 0.31202 0.18059 0.0
H3246 H 0.7538 0.35104 0.11482 0.0
H3247 H 0.77686 0.32483 0.10244 0.0
H3248 H 0.78686 0.30563 0.16331 0.0
C3249 C 0.7349 0.36033 0.19114 0.0
C3250 C 0.72056 0.3743 0.18505 0.0
C3251 C 0.71968 0.38021 0.16485 0.0
C3252 C 0.73225 0.37122 0.15064 0.0
C3253 C 0.74558 0.35658 0.15705 0.0
C3254 C 0.74717 0.35156 0.17697 0.0
C3255 C 0.76131 0.33445 0.18022 0.0
C3256 C 0.77926 0.34103 0.19279 0.0
C3257 C 0.75066 0.31646 0.18964 0.0
C3258 C 0.76722 0.33023 0.15901 0.0
C3259 C 0.75817 0.34304 0.14571 0.0
C3260 C 0.76114 0.34114 0.12519 0.0
C3261 C 0.77408 0.3261 0.11827 0.0
C3262 C 0.78377 0.31322 0.13189 0.0
C3263 C 0.77993 0.31531 0.15243 0.0
loop_
_geom_bond_atom_site_label_1
_geom_bond_atom_site_label_2
_geom_bond_distance
_geom_bond_site_symmetry_2
_ccdc_geom_bond_type
Mg0 O1 2.028 . S
Mg0 O7 1.986 . S
Mg0 O9 2.114 . S
Mg0 O10 2.251 . S
Mg0 O13 2.010 . S
O1 Mg0 2.028 . S
O1 C4 1.250 . S
O2 Mg3 2.028 . S
O2 C4 1.248 . S
Mg3 O2 2.028 . S
Mg3 O8 2.032 . S
Mg3 O10 2.079 . S
C4 O1 1.250 . S
C4 O2 1.248 . S
C5 O6 1.264 . S
C5 O13 1.249 . S
O6 C5 1.264 . S
O7 Mg0 1.986 . S
O7 C11 1.246 . S
O8 Mg3 2.032 . S
O8 C11 1.259 . S
O9 Mg0 2.114 . S
O9 C12 1.252 . S
O10 Mg0 2.251 . S
O10 Mg3 2.079 . S
O10 C12 1.273 . S
C11 O7 1.246 . S
C11 O8 1.259 . S
C12 O9 1.252 . S
C12 O10 1.273 . S
O13 Mg0 2.010 . S
O13 C5 1.249 . S
Mg14 O15 2.028 . S
Mg14 O21 1.986 . S
Mg14 O23 2.114 . S
Mg14 O24 2.251 . S
Mg14 O27 2.010 . S
O15 Mg14 2.028 . S
O15 C18 1.250 . S
O16 Mg17 2.028 . S
O16 C18 1.248 . S
Mg17 O16 2.028 . S
Mg17 O22 2.032 . S
Mg17 O24 2.079 . S
C18 O15 1.250 . S
C18 O16 1.248 . S
C19 O20 1.264 . S
C19 O27 1.249 . S
O20 C19 1.264 . S
O21 Mg14 1.986 . S
O21 C25 1.246 . S
O22 Mg17 2.032 . S
O22 C25 1.259 . S
O23 Mg14 2.114 . S
O23 C26 1.252 . S
O24 Mg14 2.251 . S
O24 Mg17 2.079 . S
O24 C26 1.273 . S
C25 O21 1.246 . S
C25 O22 1.259 . S
C26 O23 1.252 . S
C26 O24 1.273 . S
O27 Mg14 2.010 . S
O27 C19 1.249 . S
Mg28 O29 2.028 . S
Mg28 O35 1.986 . S
Mg28 O37 2.114 . S
Mg28 O38 2.251 . S
Mg28 O41 2.010 . S
O29 Mg28 2.028 . S
O29 C32 1.250 . S
O30 Mg31 2.028 . S
O30 C32 1.248 . S
Mg31 O30 2.028 . S
Mg31 O36 2.032 . S
Mg31 O38 2.079 . S
C32 O29 1.250 . S
C32 O30 1.248 . S
C33 O34 1.264 . S
C33 O41 1.249 . S
O34 C33 1.264 . S
O35 Mg28 1.986 . S
O35 C39 1.246 . S
O36 Mg31 2.032 . S
O36 C39 1.259 . S
O37 Mg28 2.114 . S
O37 C40 1.252 . S
O38 Mg28 2.251 . S
O38 Mg31 2.079 . S
O38 C40 1.273 . S
C39 O35 1.246 . S
C39 O36 1.259 . S
C40 O37 1.252 . S
C40 O38 1.273 . S
O41 Mg28 2.010 . S
O41 C33 1.249 . S
Mg42 O43 2.028 . S
Mg42 O49 1.986 . S
Mg42 O51 2.114 . S
Mg42 O52 2.251 . S
Mg42 O55 2.010 . S
O43 Mg42 2.028 . S
O43 C46 1.250 . S
O44 Mg45 2.028 . S
O44 C46 1.248 . S
Mg45 O44 2.028 . S
Mg45 O50 2.032 . S
Mg45 O52 2.079 . S
C46 O43 1.250 . S
C46 O44 1.248 . S
C47 O48 1.264 . S
C47 O55 1.249 . S
O48 C47 1.264 . S
O49 Mg42 1.986 . S
O49 C53 1.246 . S
O50 Mg45 2.032 . S
O50 C53 1.259 . S
O51 Mg42 2.114 . S
O51 C54 1.252 . S
O52 Mg42 2.251 . S
O52 Mg45 2.079 . S
O52 C54 1.273 . S
C53 O49 1.246 . S
C53 O50 1.259 . S
C54 O51 1.252 . S
C54 O52 1.273 . S
O55 Mg42 2.010 . S
O55 C47 1.249 . S
Mg56 O57 2.028 . S
Mg56 O63 1.986 . S
Mg56 O65 2.114 . S
Mg56 O66 2.251 . S
Mg56 O69 2.010 . S
O57 Mg56 2.028 . S
O57 C60 1.250 . S
O58 Mg59 2.028 . S
O58 C60 1.248 . S
Mg59 O58 2.028 . S
Mg59 O64 2.032 . S
Mg59 O66 2.079 . S
C60 O57 1.250 . S
C60 O58 1.248 . S
C61 O62 1.264 . S
C61 O69 1.249 . S
O62 C61 1.264 . S
O63 Mg56 1.986 . S
O63 C67 1.246 . S
O64 Mg59 2.032 . S
O64 C67 1.259 . S
O65 Mg56 2.114 . S
O65 C68 1.252 . S
O66 Mg56 2.251 . S
O66 Mg59 2.079 . S
O66 C68 1.273 . S
C67 O63 1.246 . S
C67 O64 1.259 . S
C68 O65 1.252 . S
C68 O66 1.273 . S
O69 Mg56 2.010 . S
O69 C61 1.249 . S
Mg70 O71 2.028 . S
Mg70 O77 1.986 . S
Mg70 O79 2.114 . S
Mg70 O80 2.251 . S
Mg70 O83 2.010 . S
O71 Mg70 2.028 . S
O71 C74 1.250 . S
O72 Mg73 2.028 . S
O72 C74 1.248 . S
Mg73 O72 2.028 . S
Mg73 O78 2.032 . S
Mg73 O80 2.079 . S
C74 O71 1.250 . S
C74 O72 1.248 . S
C75 O76 1.264 . S
C75 O83 1.249 . S
O76 C75 1.264 . S
O77 Mg70 1.986 . S
O77 C81 1.246 . S
O78 Mg73 2.032 . S
O78 C81 1.259 . S
O79 Mg70 2.114 . S
O79 C82 1.252 . S
O80 Mg70 2.251 . S
O80 Mg73 2.079 . S
O80 C82 1.273 . S
C81 O77 1.246 . S
C81 O78 1.259 . S
C82 O79 1.252 . S
C82 O80 1.273 . S
O83 Mg70 2.010 . S
O83 C75 1.249 . S
Mg84 O85 2.028 . S
Mg84 O91 1.986 . S
Mg84 O93 2.114 . S
Mg84 O94 2.251 . S
Mg84 O97 2.010 . S
O85 Mg84 2.028 . S
O85 C88 1.250 . S
O86 Mg87 2.028 . S
O86 C88 1.248 . S
Mg87 O86 2.028 . S
Mg87 O92 2.032 . S
Mg87 O94 2.079 . S
C88 O85 1.250 . S
C88 O86 1.248 . S
C89 O90 1.264 . S
C89 O97 1.249 . S
O90 C89 1.264 . S
O91 Mg84 1.986 . S
O91 C95 1.246 . S
O92 Mg87 2.032 . S
O92 C95 1.259 . S
O93 Mg84 2.114 . S
O93 C96 1.252 . S
O94 Mg84 2.251 . S
O94 Mg87 2.079 . S
O94 C96 1.273 . S
C95 O91 1.246 . S
C95 O92 1.259 . S
C96 O93 1.252 . S
C96 O94 1.273 . S
O97 Mg84 2.010 . S
O97 C89 1.249 . S
Mg98 O99 2.028 . S
Mg98 O105 1.986 . S
Mg98 O107 2.114 . S
Mg98 O108 2.251 . S
Mg98 O111 2.010 . S
O99 Mg98 2.028 . S
O99 C102 1.250 . S
O100 Mg101 2.028 . S
O100 C102 1.248 . S
Mg101 O100 2.028 . S
Mg101 O106 2.032 . S
Mg101 O108 2.079 . S
C102 O99 1.250 . S
C102 O100 1.248 . S
C103 O104 1.264 . S
C103 O111 1.249 . S
O104 C103 1.264 . S
O105 Mg98 1.986 . S
O105 C109 1.246 . S
O106 Mg101 2.032 . S
O106 C109 1.259 . S
O107 Mg98 2.114 . S
O107 C110 1.252 . S
O108 Mg98 2.251 . S
O108 Mg101 2.079 . S
O108 C110 1.273 . S
C109 O105 1.246 . S
C109 O106 1.259 . S
C110 O107 1.252 . S
C110 O108 1.273 . S
O111 Mg98 2.010 . S
O111 C103 1.249 . S
Mg112 O113 2.028 . S
Mg112 O119 1.986 . S
Mg112 O121 2.114 . S
Mg112 O122 2.251 . S
Mg112 O125 2.010 . S
O113 Mg112 2.028 . S
O113 C116 1.250 . S
O114 Mg115 2.028 . S
O114 C116 1.248 . S
Mg115 O114 2.028 . S
Mg115 O120 2.032 . S
Mg115 O122 2.079 . S
C116 O113 1.250 . S
C116 O114 1.248 . S
C117 O118 1.264 . S
C117 O125 1.249 . S
O118 C117 1.264 . S
O119 Mg112 1.986 . S
O119 C123 1.246 . S
O120 Mg115 2.032 . S
O120 C123 1.259 . S
O121 Mg112 2.114 . S
O121 C124 1.252 . S
O122 Mg112 2.251 . S
O122 Mg115 2.079 . S
O122 C124 1.273 . S
C123 O119 1.246 . S
C123 O120 1.259 . S
C124 O121 1.252 . S
C124 O122 1.273 . S
O125 Mg112 2.010 . S
O125 C117 1.249 . S
Mg126 O127 2.028 . S
Mg126 O133 1.986 . S
Mg126 O135 2.114 . S
Mg126 O136 2.251 . S
Mg126 O139 2.010 . S
O127 Mg126 2.028 . S
O127 C130 1.250 . S
O128 Mg129 2.028 . S
O128 C130 1.248 . S
Mg129 O128 2.028 . S
Mg129 O134 2.032 . S
Mg129 O136 2.079 . S
C130 O127 1.250 . S
C130 O128 1.248 . S
C131 O132 1.264 . S
C131 O139 1.249 . S
O132 C131 1.264 . S
O133 Mg126 1.986 . S
O133 C137 1.246 . S
O134 Mg129 2.032 . S
O134 C137 1.259 . S
O135 Mg126 2.114 . S
O135 C138 1.252 . S
O136 Mg126 2.251 . S
O136 Mg129 2.079 . S
O136 C138 1.273 . S
C137 O133 1.246 . S
C137 O134 1.259 . S
C138 O135 1.252 . S
C138 O136 1.273 . S
O139 Mg126 2.010 . S
O139 C131 1.249 . S
Mg140 O141 2.028 . S
Mg140 O147 1.986 . S
Mg140 O149 2.114 . S
Mg140 O150 2.251 . S
Mg140 O153 2.010 . S
O141 Mg140 2.028 . S
O141 C144 1.250 . S
O142 Mg143 2.028 . S
O142 C144 1.248 . S
Mg143 O142 2.028 . S
Mg143 O148 2.032 . S
Mg143 O150 2.079 . S
C144 O141 1.250 . S
C144 O142 1.248 . S
C145 O146 1.264 . S
C145 O153 1.249 . S
O146 C145 1.264 . S
O147 Mg140 1.986 . S
O147 C151 1.246 . S
O148 Mg143 2.032 . S
O148 C151 1.259 . S
O149 Mg140 2.114 . S
O149 C152 1.252 . S
O150 Mg140 2.251 . S
O150 Mg143 2.079 . S
O150 C152 1.273 . S
C151 O147 1.246 . S
C151 O148 1.259 . S
C152 O149 1.252 . S
C152 O150 1.273 . S
O153 Mg140 2.010 . S
O153 C145 1.249 . S
Mg154 O155 2.028 . S
Mg154 O161 1.986 . S
Mg154 O163 2.114 . S
Mg154 O164 2.251 . S
Mg154 O167 2.010 . S
O155 Mg154 2.028 . S
O155 C158 1.250 . S
O156 Mg157 2.028 . S
O156 C158 1.248 . S
Mg157 O156 2.028 . S
Mg157 O162 2.032 . S
Mg157 O164 2.079 . S
C158 O155 1.250 . S
C158 O156 1.248 . S
C159 O160 1.264 . S
C159 O167 1.249 . S
O160 C159 1.264 . S
O161 Mg154 1.986 . S
O161 C165 1.246 . S
O162 Mg157 2.032 . S
O162 C165 1.259 . S
O163 Mg154 2.114 . S
O163 C166 1.252 . S
O164 Mg154 2.251 . S
O164 Mg157 2.079 . S
O164 C166 1.273 . S
C165 O161 1.246 . S
C165 O162 1.259 . S
C166 O163 1.252 . S
C166 O164 1.273 . S
O167 Mg154 2.010 . S
O167 C159 1.249 . S
Mg168 O169 2.028 . S
Mg168 O175 1.986 . S
Mg168 O177 2.114 . S
Mg168 O178 2.251 . S
Mg168 O181 2.010 . S
O169 Mg168 2.028 . S
O169 C172 1.250 . S
O170 Mg171 2.028 . S
O170 C172 1.248 . S
Mg171 O170 2.028 . S
Mg171 O176 2.032 . S
Mg171 O178 2.079 . S
C172 O169 1.250 . S
C172 O170 1.248 . S
C173 O174 1.264 . S
C173 O181 1.249 . S
O174 C173 1.264 . S
O175 Mg168 1.986 . S
O175 C179 1.246 . S
O176 Mg171 2.032 . S
O176 C179 1.259 . S
O177 Mg168 2.114 . S
O177 C180 1.252 . S
O178 Mg168 2.251 . S
O178 Mg171 2.079 . S
O178 C180 1.273 . S
C179 O175 1.246 . S
C179 O176 1.259 . S
C180 O177 1.252 . S
C180 O178 1.273 . S
O181 Mg168 2.010 . S
O181 C173 1.249 . S
Mg182 O183 2.028 . S
Mg182 O189 1.986 . S
Mg182 O191 2.114 . S
Mg182 O192 2.251 . S
Mg182 O195 2.010 . S
O183 Mg182 2.028 . S
O183 C186 1.250 . S
O184 Mg185 2.028 . S
O184 C186 1.248 . S
Mg185 O184 2.028 . S
Mg185 O190 2.032 . S
Mg185 O192 2.079 . S
C186 O183 1.250 . S
C186 O184 1.248 . S
C187 O188 1.264 . S
C187 O195 1.249 . S
O188 C187 1.264 . S
O189 Mg182 1.986 . S
O189 C193 1.246 . S
O190 Mg185 2.032 . S
O190 C193 1.259 . S
O191 Mg182 2.114 . S
O191 C194 1.252 . S
O192 Mg182 2.251 . S
O192 Mg185 2.079 . S
O192 C194 1.273 . S
C193 O189 1.246 . S
C193 O190 1.259 . S
C194 O191 1.252 . S
C194 O192 1.273 . S
O195 Mg182 2.010 . S
O195 C187 1.249 . S
Mg196 O197 2.028 . S
Mg196 O203 1.986 . S
Mg196 O205 2.114 . S
Mg196 O206 2.251 . S
Mg196 O209 2.010 . S
O197 Mg196 2.028 . S
O197 C200 1.250 . S
O198 Mg199 2.028 . S
O198 C200 1.248 . S
Mg199 O198 2.028 . S
Mg199 O204 2.032 . S
Mg199 O206 2.079 . S
C200 O197 1.250 . S
C200 O198 1.248 . S
C201 O202 1.264 . S
C201 O209 1.249 . S
O202 C201 1.264 . S
O203 Mg196 1.986 . S
O203 C207 1.246 . S
O204 Mg199 2.032 . S
O204 C207 1.259 . S
O205 Mg196 2.114 . S
O205 C208 1.252 . S
O206 Mg196 2.251 . S
O206 Mg199 2.079 . S
O206 C208 1.273 . S
C207 O203 1.246 . S
C207 O204 1.259 . S
C208 O205 1.252 . S
C208 O206 1.273 . S
O209 Mg196 2.010 . S
O209 C201 1.249 . S
Mg210 O211 2.028 . S
Mg210 O217 1.986 . S
Mg210 O219 2.114 . S
Mg210 O220 2.251 . S
Mg210 O223 2.010 . S
O211 Mg210 2.028 . S
O211 C214 1.250 . S
O212 Mg213 2.028 . S
O212 C214 1.248 . S
Mg213 O212 2.028 . S
Mg213 O218 2.032 . S
Mg213 O220 2.079 . S
C214 O211 1.250 . S
C214 O212 1.248 . S
C215 O216 1.264 . S
C215 O223 1.249 . S
O216 C215 1.264 . S
O217 Mg210 1.986 . S
O217 C221 1.246 . S
O218 Mg213 2.032 . S
O218 C221 1.259 . S
O219 Mg210 2.114 . S
O219 C222 1.252 . S
O220 Mg210 2.251 . S
O220 Mg213 2.079 . S
O220 C222 1.273 . S
C221 O217 1.246 . S
C221 O218 1.259 . S
C222 O219 1.252 . S
C222 O220 1.273 . S
O223 Mg210 2.010 . S
O223 C215 1.249 . S
Mg224 O225 2.028 . S
Mg224 O231 1.986 . S
Mg224 O233 2.114 . S
Mg224 O234 2.251 . S
Mg224 O237 2.010 . S
O225 Mg224 2.028 . S
O225 C228 1.250 . S
O226 Mg227 2.028 . S
O226 C228 1.248 . S
Mg227 O226 2.028 . S
Mg227 O232 2.032 . S
Mg227 O234 2.079 . S
C228 O225 1.250 . S
C228 O226 1.248 . S
C229 O230 1.264 . S
C229 O237 1.249 . S
O230 C229 1.264 . S
O231 Mg224 1.986 . S
O231 C235 1.246 . S
O232 Mg227 2.032 . S
O232 C235 1.259 . S
O233 Mg224 2.114 . S
O233 C236 1.252 . S
O234 Mg224 2.251 . S
O234 Mg227 2.079 . S
O234 C236 1.273 . S
C235 O231 1.246 . S
C235 O232 1.259 . S
C236 O233 1.252 . S
C236 O234 1.273 . S
O237 Mg224 2.010 . S
O237 C229 1.249 . S
Mg238 O239 2.028 . S
Mg238 O245 1.986 . S
Mg238 O247 2.114 . S
Mg238 O248 2.251 . S
Mg238 O251 2.010 . S
O239 Mg238 2.028 . S
O239 C242 1.250 . S
O240 Mg241 2.028 . S
O240 C242 1.248 . S
Mg241 O240 2.028 . S
Mg241 O246 2.032 . S
Mg241 O248 2.079 . S
C242 O239 1.250 . S
C242 O240 1.248 . S
C243 O244 1.264 . S
C243 O251 1.249 . S
O244 C243 1.264 . S
O245 Mg238 1.986 . S
O245 C249 1.246 . S
O246 Mg241 2.032 . S
O246 C249 1.259 . S
O247 Mg238 2.114 . S
O247 C250 1.252 . S
O248 Mg238 2.251 . S
O248 Mg241 2.079 . S
O248 C250 1.273 . S
C249 O245 1.246 . S
C249 O246 1.259 . S
C250 O247 1.252 . S
C250 O248 1.273 . S
O251 Mg238 2.010 . S
O251 C243 1.249 . S
Mg252 O253 2.028 . S
Mg252 O259 1.986 . S
Mg252 O261 2.114 . S
Mg252 O262 2.251 . S
Mg252 O265 2.010 . S
O253 Mg252 2.028 . S
O253 C256 1.250 . S
O254 Mg255 2.028 . S
O254 C256 1.248 . S
Mg255 O254 2.028 . S
Mg255 O260 2.032 . S
Mg255 O262 2.079 . S
C256 O253 1.250 . S
C256 O254 1.248 . S
C257 O258 1.264 . S
C257 O265 1.249 . S
O258 C257 1.264 . S
O259 Mg252 1.986 . S
O259 C263 1.246 . S
O260 Mg255 2.032 . S
O260 C263 1.259 . S
O261 Mg252 2.114 . S
O261 C264 1.252 . S
O262 Mg252 2.251 . S
O262 Mg255 2.079 . S
O262 C264 1.273 . S
C263 O259 1.246 . S
C263 O260 1.259 . S
C264 O261 1.252 . S
C264 O262 1.273 . S
O265 Mg252 2.010 . S
O265 C257 1.249 . S
Mg266 O267 2.028 . S
Mg266 O273 1.986 . S
Mg266 O275 2.114 . S
Mg266 O276 2.251 . S
Mg266 O279 2.010 . S
O267 Mg266 2.028 . S
O267 C270 1.250 . S
O268 Mg269 2.028 . S
O268 C270 1.248 . S
Mg269 O268 2.028 . S
Mg269 O274 2.032 . S
Mg269 O276 2.079 . S
C270 O267 1.250 . S
C270 O268 1.248 . S
C271 O272 1.264 . S
C271 O279 1.249 . S
O272 C271 1.264 . S
O273 Mg266 1.986 . S
O273 C277 1.246 . S
O274 Mg269 2.032 . S
O274 C277 1.259 . S
O275 Mg266 2.114 . S
O275 C278 1.252 . S
O276 Mg266 2.251 . S
O276 Mg269 2.079 . S
O276 C278 1.273 . S
C277 O273 1.246 . S
C277 O274 1.259 . S
C278 O275 1.252 . S
C278 O276 1.273 . S
O279 Mg266 2.010 . S
O279 C271 1.249 . S
Mg280 O281 2.028 . S
Mg280 O287 1.986 . S
Mg280 O289 2.114 . S
Mg280 O290 2.251 . S
Mg280 O293 2.010 . S
O281 Mg280 2.028 . S
O281 C284 1.250 . S
O282 Mg283 2.028 . S
O282 C284 1.248 . S
Mg283 O282 2.028 . S
Mg283 O288 2.032 . S
Mg283 O290 2.079 . S
C284 O281 1.250 . S
C284 O282 1.248 . S
C285 O286 1.264 . S
C285 O293 1.249 . S
O286 C285 1.264 . S
O287 Mg280 1.986 . S
O287 C291 1.246 . S
O288 Mg283 2.032 . S
O288 C291 1.259 . S
O289 Mg280 2.114 . S
O289 C292 1.252 . S
O290 Mg280 2.251 . S
O290 Mg283 2.079 . S
O290 C292 1.273 . S
C291 O287 1.246 . S
C291 O288 1.259 . S
C292 O289 1.252 . S
C292 O290 1.273 . S
O293 Mg280 2.010 . S
O293 C285 1.249 . S
Mg294 O295 2.028 . S
Mg294 O301 1.986 . S
Mg294 O303 2.114 . S
Mg294 O304 2.251 . S
Mg294 O307 2.010 . S
O295 Mg294 2.028 . S
O295 C298 1.250 . S
O296 Mg297 2.028 . S
O296 C298 1.248 . S
Mg297 O296 2.028 . S
Mg297 O302 2.032 . S
Mg297 O304 2.079 . S
C298 O295 1.250 . S
C298 O296 1.248 . S
C299 O300 1.264 . S
C299 O307 1.249 . S
O300 C299 1.264 . S
O301 Mg294 1.986 . S
O301 C305 1.246 . S
O302 Mg297 2.032 . S
O302 C305 1.259 . S
O303 Mg294 2.114 . S
O303 C306 1.252 . S
O304 Mg294 2.251 . S
O304 Mg297 2.079 . S
O304 C306 1.273 . S
C305 O301 1.246 . S
C305 O302 1.259 . S
C306 O303 1.252 . S
C306 O304 1.273 . S
O307 Mg294 2.010 . S
O307 C299 1.249 . S
Mg308 O309 2.028 . S
Mg308 O315 1.986 . S
Mg308 O317 2.114 . S
Mg308 O318 2.251 . S
Mg308 O321 2.010 . S
O309 Mg308 2.028 . S
O309 C312 1.250 . S
O310 Mg311 2.028 . S
O310 C312 1.248 . S
Mg311 O310 2.028 . S
Mg311 O316 2.032 . S
Mg311 O318 2.079 . S
C312 O309 1.250 . S
C312 O310 1.248 . S
C313 O314 1.264 . S
C313 O321 1.249 . S
O314 C313 1.264 . S
O315 Mg308 1.986 . S
O315 C319 1.246 . S
O316 Mg311 2.032 . S
O316 C319 1.259 . S
O317 Mg308 2.114 . S
O317 C320 1.252 . S
O318 Mg308 2.251 . S
O318 Mg311 2.079 . S
O318 C320 1.273 . S
C319 O315 1.246 . S
C319 O316 1.259 . S
C320 O317 1.252 . S
C320 O318 1.273 . S
O321 Mg308 2.010 . S
O321 C313 1.249 . S
Mg322 O323 2.028 . S
Mg322 O329 1.986 . S
Mg322 O331 2.114 . S
Mg322 O332 2.251 . S
Mg322 O335 2.010 . S
O323 Mg322 2.028 . S
O323 C326 1.250 . S
O324 Mg325 2.028 . S
O324 C326 1.248 . S
Mg325 O324 2.028 . S
Mg325 O330 2.032 . S
Mg325 O332 2.079 . S
C326 O323 1.250 . S
C326 O324 1.248 . S
C327 O328 1.264 . S
C327 O335 1.249 . S
O328 C327 1.264 . S
O329 Mg322 1.986 . S
O329 C333 1.246 . S
O330 Mg325 2.032 . S
O330 C333 1.259 . S
O331 Mg322 2.114 . S
O331 C334 1.252 . S
O332 Mg322 2.251 . S
O332 Mg325 2.079 . S
O332 C334 1.273 . S
C333 O329 1.246 . S
C333 O330 1.259 . S
C334 O331 1.252 . S
C334 O332 1.273 . S
O335 Mg322 2.010 . S
O335 C327 1.249 . S
Mg336 O337 2.028 . S
Mg336 O343 1.986 . S
Mg336 O345 2.114 . S
Mg336 O346 2.251 . S
Mg336 O349 2.010 . S
O337 Mg336 2.028 . S
O337 C340 1.250 . S
O338 Mg339 2.028 . S
O338 C340 1.248 . S
Mg339 O338 2.028 . S
Mg339 O344 2.032 . S
Mg339 O346 2.079 . S
C340 O337 1.250 . S
C340 O338 1.248 . S
C341 O342 1.264 . S
C341 O349 1.249 . S
O342 C341 1.264 . S
O343 Mg336 1.986 . S
O343 C347 1.246 . S
O344 Mg339 2.032 . S
O344 C347 1.259 . S
O345 Mg336 2.114 . S
O345 C348 1.252 . S
O346 Mg336 2.251 . S
O346 Mg339 2.079 . S
O346 C348 1.273 . S
C347 O343 1.246 . S
C347 O344 1.259 . S
C348 O345 1.252 . S
C348 O346 1.273 . S
O349 Mg336 2.010 . S
O349 C341 1.249 . S
Mg350 O351 2.028 . S
Mg350 O357 1.986 . S
Mg350 O359 2.114 . S
Mg350 O360 2.251 . S
Mg350 O363 2.010 . S
O351 Mg350 2.028 . S
O351 C354 1.250 . S
O352 Mg353 2.028 . S
O352 C354 1.248 . S
Mg353 O352 2.028 . S
Mg353 O358 2.032 . S
Mg353 O360 2.079 . S
C354 O351 1.250 . S
C354 O352 1.248 . S
C355 O356 1.264 . S
C355 O363 1.249 . S
O356 C355 1.264 . S
O357 Mg350 1.986 . S
O357 C361 1.246 . S
O358 Mg353 2.032 . S
O358 C361 1.259 . S
O359 Mg350 2.114 . S
O359 C362 1.252 . S
O360 Mg350 2.251 . S
O360 Mg353 2.079 . S
O360 C362 1.273 . S
C361 O357 1.246 . S
C361 O358 1.259 . S
C362 O359 1.252 . S
C362 O360 1.273 . S
O363 Mg350 2.010 . S
O363 C355 1.249 . S
Mg364 O365 2.028 . S
Mg364 O371 1.986 . S
Mg364 O373 2.114 . S
Mg364 O374 2.251 . S
Mg364 O377 2.010 . S
O365 Mg364 2.028 . S
O365 C368 1.250 . S
O366 Mg367 2.028 . S
O366 C368 1.248 . S
Mg367 O366 2.028 . S
Mg367 O372 2.032 . S
Mg367 O374 2.079 . S
C368 O365 1.250 . S
C368 O366 1.248 . S
C369 O370 1.264 . S
C369 O377 1.249 . S
O370 C369 1.264 . S
O371 Mg364 1.986 . S
O371 C375 1.246 . S
O372 Mg367 2.032 . S
O372 C375 1.259 . S
O373 Mg364 2.114 . S
O373 C376 1.252 . S
O374 Mg364 2.251 . S
O374 Mg367 2.079 . S
O374 C376 1.273 . S
C375 O371 1.246 . S
C375 O372 1.259 . S
C376 O373 1.252 . S
C376 O374 1.273 . S
O377 Mg364 2.010 . S
O377 C369 1.249 . S
Mg378 O379 2.028 . S
Mg378 O385 1.986 . S
Mg378 O387 2.114 . S
Mg378 O388 2.251 . S
Mg378 O391 2.010 . S
O379 Mg378 2.028 . S
O379 C382 1.250 . S
O380 Mg381 2.028 . S
O380 C382 1.248 . S
Mg381 O380 2.028 . S
Mg381 O386 2.032 . S
Mg381 O388 2.079 . S
C382 O379 1.250 . S
C382 O380 1.248 . S
C383 O384 1.264 . S
C383 O391 1.249 . S
O384 C383 1.264 . S
O385 Mg378 1.986 . S
O385 C389 1.246 . S
O386 Mg381 2.032 . S
O386 C389 1.259 . S
O387 Mg378 2.114 . S
O387 C390 1.252 . S
O388 Mg378 2.251 . S
O388 Mg381 2.079 . S
O388 C390 1.273 . S
C389 O385 1.246 . S
C389 O386 1.259 . S
C390 O387 1.252 . S
C390 O388 1.273 . S
O391 Mg378 2.010 . S
O391 C383 1.249 . S
Mg392 O393 2.028 . S
Mg392 O399 1.986 . S
Mg392 O401 2.114 . S
Mg392 O402 2.251 . S
Mg392 O405 2.010 . S
O393 Mg392 2.028 . S
O393 C396 1.250 . S
O394 Mg395 2.028 . S
O394 C396 1.248 . S
Mg395 O394 2.028 . S
Mg395 O400 2.032 . S
Mg395 O402 2.079 . S
C396 O393 1.250 . S
C396 O394 1.248 . S
C397 O398 1.264 . S
C397 O405 1.249 . S
O398 C397 1.264 . S
O399 Mg392 1.986 . S
O399 C403 1.246 . S
O400 Mg395 2.032 . S
O400 C403 1.259 . S
O401 Mg392 2.114 . S
O401 C404 1.252 . S
O402 Mg392 2.251 . S
O402 Mg395 2.079 . S
O402 C404 1.273 . S
C403 O399 1.246 . S
C403 O400 1.259 . S
C404 O401 1.252 . S
C404 O402 1.273 . S
O405 Mg392 2.010 . S
O405 C397 1.249 . S
Mg406 O407 2.028 . S
Mg406 O413 1.986 . S
Mg406 O415 2.114 . S
Mg406 O416 2.251 . S
Mg406 O419 2.010 . S
O407 Mg406 2.028 . S
O407 C410 1.250 . S
O408 Mg409 2.028 . S
O408 C410 1.248 . S
Mg409 O408 2.028 . S
Mg409 O414 2.032 . S
Mg409 O416 2.079 . S
C410 O407 1.250 . S
C410 O408 1.248 . S
C411 O412 1.264 . S
C411 O419 1.249 . S
O412 C411 1.264 . S
O413 Mg406 1.986 . S
O413 C417 1.246 . S
O414 Mg409 2.032 . S
O414 C417 1.259 . S
O415 Mg406 2.114 . S
O415 C418 1.252 . S
O416 Mg406 2.251 . S
O416 Mg409 2.079 . S
O416 C418 1.273 . S
C417 O413 1.246 . S
C417 O414 1.259 . S
C418 O415 1.252 . S
C418 O416 1.273 . S
O419 Mg406 2.010 . S
O419 C411 1.249 . S
Mg420 O421 2.028 . S
Mg420 O427 1.986 . S
Mg420 O429 2.114 . S
Mg420 O430 2.251 . S
Mg420 O433 2.010 . S
O421 Mg420 2.028 . S
O421 C424 1.250 . S
O422 Mg423 2.028 . S
O422 C424 1.248 . S
Mg423 O422 2.028 . S
Mg423 O428 2.032 . S
Mg423 O430 2.079 . S
C424 O421 1.250 . S
C424 O422 1.248 . S
C425 O426 1.264 . S
C425 O433 1.249 . S
O426 C425 1.264 . S
O427 Mg420 1.986 . S
O427 C431 1.246 . S
O428 Mg423 2.032 . S
O428 C431 1.259 . S
O429 Mg420 2.114 . S
O429 C432 1.252 . S
O430 Mg420 2.251 . S
O430 Mg423 2.079 . S
O430 C432 1.273 . S
C431 O427 1.246 . S
C431 O428 1.259 . S
C432 O429 1.252 . S
C432 O430 1.273 . S
O433 Mg420 2.010 . S
O433 C425 1.249 . S
Mg434 O435 2.028 . S
Mg434 O441 1.986 . S
Mg434 O443 2.114 . S
Mg434 O444 2.251 . S
Mg434 O447 2.010 . S
O435 Mg434 2.028 . S
O435 C438 1.250 . S
O436 Mg437 2.028 . S
O436 C438 1.248 . S
Mg437 O436 2.028 . S
Mg437 O442 2.032 . S
Mg437 O444 2.079 . S
C438 O435 1.250 . S
C438 O436 1.248 . S
C439 O440 1.264 . S
C439 O447 1.249 . S
O440 C439 1.264 . S
O441 Mg434 1.986 . S
O441 C445 1.246 . S
O442 Mg437 2.032 . S
O442 C445 1.259 . S
O443 Mg434 2.114 . S
O443 C446 1.252 . S
O444 Mg434 2.251 . S
O444 Mg437 2.079 . S
O444 C446 1.273 . S
C445 O441 1.246 . S
C445 O442 1.259 . S
C446 O443 1.252 . S
C446 O444 1.273 . S
O447 Mg434 2.010 . S
O447 C439 1.249 . S
Mg448 O449 2.028 . S
Mg448 O455 1.986 . S
Mg448 O457 2.114 . S
Mg448 O458 2.251 . S
Mg448 O461 2.010 . S
O449 Mg448 2.028 . S
O449 C452 1.250 . S
O450 Mg451 2.028 . S
O450 C452 1.248 . S
Mg451 O450 2.028 . S
Mg451 O456 2.032 . S
Mg451 O458 2.079 . S
C452 O449 1.250 . S
C452 O450 1.248 . S
C453 O454 1.264 . S
C453 O461 1.249 . S
O454 C453 1.264 . S
O455 Mg448 1.986 . S
O455 C459 1.246 . S
O456 Mg451 2.032 . S
O456 C459 1.259 . S
O457 Mg448 2.114 . S
O457 C460 1.252 . S
O458 Mg448 2.251 . S
O458 Mg451 2.079 . S
O458 C460 1.273 . S
C459 O455 1.246 . S
C459 O456 1.259 . S
C460 O457 1.252 . S
C460 O458 1.273 . S
O461 Mg448 2.010 . S
O461 C453 1.249 . S
Mg462 O463 2.028 . S
Mg462 O469 1.986 . S
Mg462 O471 2.114 . S
Mg462 O472 2.251 . S
Mg462 O475 2.010 . S
O463 Mg462 2.028 . S
O463 C466 1.250 . S
O464 Mg465 2.028 . S
O464 C466 1.248 . S
Mg465 O464 2.028 . S
Mg465 O470 2.032 . S
Mg465 O472 2.079 . S
C466 O463 1.250 . S
C466 O464 1.248 . S
C467 O468 1.264 . S
C467 O475 1.249 . S
O468 C467 1.264 . S
O469 Mg462 1.986 . S
O469 C473 1.246 . S
O470 Mg465 2.032 . S
O470 C473 1.259 . S
O471 Mg462 2.114 . S
O471 C474 1.252 . S
O472 Mg462 2.251 . S
O472 Mg465 2.079 . S
O472 C474 1.273 . S
C473 O469 1.246 . S
C473 O470 1.259 . S
C474 O471 1.252 . S
C474 O472 1.273 . S
O475 Mg462 2.010 . S
O475 C467 1.249 . S
Mg476 O477 2.028 . S
Mg476 O483 1.986 . S
Mg476 O485 2.114 . S
Mg476 O486 2.251 . S
Mg476 O489 2.010 . S
O477 Mg476 2.028 . S
O477 C480 1.250 . S
O478 Mg479 2.028 . S
O478 C480 1.248 . S
Mg479 O478 2.028 . S
Mg479 O484 2.032 . S
Mg479 O486 2.079 . S
C480 O477 1.250 . S
C480 O478 1.248 . S
C481 O482 1.264 . S
C481 O489 1.249 . S
O482 C481 1.264 . S
O483 Mg476 1.986 . S
O483 C487 1.246 . S
O484 Mg479 2.032 . S
O484 C487 1.259 . S
O485 Mg476 2.114 . S
O485 C488 1.252 . S
O486 Mg476 2.251 . S
O486 Mg479 2.079 . S
O486 C488 1.273 . S
C487 O483 1.246 . S
C487 O484 1.259 . S
C488 O485 1.252 . S
C488 O486 1.273 . S
O489 Mg476 2.010 . S
O489 C481 1.249 . S
Mg490 O491 2.028 . S
Mg490 O497 1.986 . S
Mg490 O499 2.114 . S
Mg490 O500 2.251 . S
Mg490 O503 2.010 . S
O491 Mg490 2.028 . S
O491 C494 1.250 . S
O492 Mg493 2.028 . S
O492 C494 1.248 . S
Mg493 O492 2.028 . S
Mg493 O498 2.032 . S
Mg493 O500 2.079 . S
C494 O491 1.250 . S
C494 O492 1.248 . S
C495 O496 1.264 . S
C495 O503 1.249 . S
O496 C495 1.264 . S
O497 Mg490 1.986 . S
O497 C501 1.246 . S
O498 Mg493 2.032 . S
O498 C501 1.259 . S
O499 Mg490 2.114 . S
O499 C502 1.252 . S
O500 Mg490 2.251 . S
O500 Mg493 2.079 . S
O500 C502 1.273 . S
C501 O497 1.246 . S
C501 O498 1.259 . S
C502 O499 1.252 . S
C502 O500 1.273 . S
O503 Mg490 2.010 . S
O503 C495 1.249 . S
Mg504 O505 2.028 . S
Mg504 O511 1.986 . S
Mg504 O513 2.114 . S
Mg504 O514 2.251 . S
Mg504 O517 2.010 . S
O505 Mg504 2.028 . S
O505 C508 1.250 . S
O506 Mg507 2.028 . S
O506 C508 1.248 . S
Mg507 O506 2.028 . S
Mg507 O512 2.032 . S
Mg507 O514 2.079 . S
C508 O505 1.250 . S
C508 O506 1.248 . S
C509 O510 1.264 . S
C509 O517 1.249 . S
O510 C509 1.264 . S
O511 Mg504 1.986 . S
O511 C515 1.246 . S
O512 Mg507 2.032 . S
O512 C515 1.259 . S
O513 Mg504 2.114 . S
O513 C516 1.252 . S
O514 Mg504 2.251 . S
O514 Mg507 2.079 . S
O514 C516 1.273 . S
C515 O511 1.246 . S
C515 O512 1.259 . S
C516 O513 1.252 . S
C516 O514 1.273 . S
O517 Mg504 2.010 . S
O517 C509 1.249 . S
Mg518 O519 2.028 . S
Mg518 O525 1.986 . S
Mg518 O527 2.114 . S
Mg518 O528 2.251 . S
Mg518 O531 2.010 . S
O519 Mg518 2.028 . S
O519 C522 1.250 . S
O520 Mg521 2.028 . S
O520 C522 1.248 . S
Mg521 O520 2.028 . S
Mg521 O526 2.032 . S
Mg521 O528 2.079 . S
C522 O519 1.250 . S
C522 O520 1.248 . S
C523 O524 1.264 . S
C523 O531 1.249 . S
O524 C523 1.264 . S
O525 Mg518 1.986 . S
O525 C529 1.246 . S
O526 Mg521 2.032 . S
O526 C529 1.259 . S
O527 Mg518 2.114 . S
O527 C530 1.252 . S
O528 Mg518 2.251 . S
O528 Mg521 2.079 . S
O528 C530 1.273 . S
C529 O525 1.246 . S
C529 O526 1.259 . S
C530 O527 1.252 . S
C530 O528 1.273 . S
O531 Mg518 2.010 . S
O531 C523 1.249 . S
Mg532 O533 2.028 . S
Mg532 O539 1.986 . S
Mg532 O541 2.114 . S
Mg532 O542 2.251 . S
Mg532 O545 2.010 . S
O533 Mg532 2.028 . S
O533 C536 1.250 . S
O534 Mg535 2.028 . S
O534 C536 1.248 . S
Mg535 O534 2.028 . S
Mg535 O540 2.032 . S
Mg535 O542 2.079 . S
C536 O533 1.250 . S
C536 O534 1.248 . S
C537 O538 1.264 . S
C537 O545 1.249 . S
O538 C537 1.264 . S
O539 Mg532 1.986 . S
O539 C543 1.246 . S
O540 Mg535 2.032 . S
O540 C543 1.259 . S
O541 Mg532 2.114 . S
O541 C544 1.252 . S
O542 Mg532 2.251 . S
O542 Mg535 2.079 . S
O542 C544 1.273 . S
C543 O539 1.246 . S
C543 O540 1.259 . S
C544 O541 1.252 . S
C544 O542 1.273 . S
O545 Mg532 2.010 . S
O545 C537 1.249 . S
Mg546 O547 2.028 . S
Mg546 O553 1.986 . S
Mg546 O555 2.114 . S
Mg546 O556 2.251 . S
Mg546 O559 2.010 . S
O547 Mg546 2.028 . S
O547 C550 1.250 . S
O548 Mg549 2.028 . S
O548 C550 1.248 . S
Mg549 O548 2.028 . S
Mg549 O554 2.032 . S
Mg549 O556 2.079 . S
C550 O547 1.250 . S
C550 O548 1.248 . S
C551 O552 1.264 . S
C551 O559 1.249 . S
O552 C551 1.264 . S
O553 Mg546 1.986 . S
O553 C557 1.246 . S
O554 Mg549 2.032 . S
O554 C557 1.259 . S
O555 Mg546 2.114 . S
O555 C558 1.252 . S
O556 Mg546 2.251 . S
O556 Mg549 2.079 . S
O556 C558 1.273 . S
C557 O553 1.246 . S
C557 O554 1.259 . S
C558 O555 1.252 . S
C558 O556 1.273 . S
O559 Mg546 2.010 . S
O559 C551 1.249 . S
Mg560 O561 2.028 . S
Mg560 O567 1.986 . S
Mg560 O569 2.114 . S
Mg560 O570 2.251 . S
Mg560 O573 2.010 . S
O561 Mg560 2.028 . S
O561 C564 1.250 . S
O562 Mg563 2.028 . S
O562 C564 1.248 . S
Mg563 O562 2.028 . S
Mg563 O568 2.032 . S
Mg563 O570 2.079 . S
C564 O561 1.250 . S
C564 O562 1.248 . S
C565 O566 1.264 . S
C565 O573 1.249 . S
O566 C565 1.264 . S
O567 Mg560 1.986 . S
O567 C571 1.246 . S
O568 Mg563 2.032 . S
O568 C571 1.259 . S
O569 Mg560 2.114 . S
O569 C572 1.252 . S
O570 Mg560 2.251 . S
O570 Mg563 2.079 . S
O570 C572 1.273 . S
C571 O567 1.246 . S
C571 O568 1.259 . S
C572 O569 1.252 . S
C572 O570 1.273 . S
O573 Mg560 2.010 . S
O573 C565 1.249 . S
Mg574 O575 2.028 . S
Mg574 O581 1.986 . S
Mg574 O583 2.114 . S
Mg574 O584 2.251 . S
Mg574 O587 2.010 . S
O575 Mg574 2.028 . S
O575 C578 1.250 . S
O576 Mg577 2.028 . S
O576 C578 1.248 . S
Mg577 O576 2.028 . S
Mg577 O582 2.032 . S
Mg577 O584 2.079 . S
C578 O575 1.250 . S
C578 O576 1.248 . S
C579 O580 1.264 . S
C579 O587 1.249 . S
O580 C579 1.264 . S
O581 Mg574 1.986 . S
O581 C585 1.246 . S
O582 Mg577 2.032 . S
O582 C585 1.259 . S
O583 Mg574 2.114 . S
O583 C586 1.252 . S
O584 Mg574 2.251 . S
O584 Mg577 2.079 . S
O584 C586 1.273 . S
C585 O581 1.246 . S
C585 O582 1.259 . S
C586 O583 1.252 . S
C586 O584 1.273 . S
O587 Mg574 2.010 . S
O587 C579 1.249 . S
Mg588 O589 2.028 . S
Mg588 O595 1.986 . S
Mg588 O597 2.114 . S
Mg588 O598 2.251 . S
Mg588 O601 2.010 . S
O589 Mg588 2.028 . S
O589 C592 1.250 . S
O590 Mg591 2.028 . S
O590 C592 1.248 . S
Mg591 O590 2.028 . S
Mg591 O596 2.032 . S
Mg591 O598 2.079 . S
C592 O589 1.250 . S
C592 O590 1.248 . S
C593 O594 1.264 . S
C593 O601 1.249 . S
O594 C593 1.264 . S
O595 Mg588 1.986 . S
O595 C599 1.246 . S
O596 Mg591 2.032 . S
O596 C599 1.259 . S
O597 Mg588 2.114 . S
O597 C600 1.252 . S
O598 Mg588 2.251 . S
O598 Mg591 2.079 . S
O598 C600 1.273 . S
C599 O595 1.246 . S
C599 O596 1.259 . S
C600 O597 1.252 . S
C600 O598 1.273 . S
O601 Mg588 2.010 . S
O601 C593 1.249 . S
Mg602 O603 2.028 . S
Mg602 O609 1.986 . S
Mg602 O611 2.114 . S
Mg602 O612 2.251 . S
Mg602 O615 2.010 . S
O603 Mg602 2.028 . S
O603 C606 1.250 . S
O604 Mg605 2.028 . S
O604 C606 1.248 . S
Mg605 O604 2.028 . S
Mg605 O610 2.032 . S
Mg605 O612 2.079 . S
C606 O603 1.250 . S
C606 O604 1.248 . S
C607 O608 1.264 . S
C607 O615 1.249 . S
O608 C607 1.264 . S
O609 Mg602 1.986 . S
O609 C613 1.246 . S
O610 Mg605 2.032 . S
O610 C613 1.259 . S
O611 Mg602 2.114 . S
O611 C614 1.252 . S
O612 Mg602 2.251 . S
O612 Mg605 2.079 . S
O612 C614 1.273 . S
C613 O609 1.246 . S
C613 O610 1.259 . S
C614 O611 1.252 . S
C614 O612 1.273 . S
O615 Mg602 2.010 . S
O615 C607 1.249 . S
Mg616 O617 2.028 . S
Mg616 O623 1.986 . S
Mg616 O625 2.114 . S
Mg616 O626 2.251 . S
Mg616 O629 2.010 . S
O617 Mg616 2.028 . S
O617 C620 1.250 . S
O618 Mg619 2.028 . S
O618 C620 1.248 . S
Mg619 O618 2.028 . S
Mg619 O624 2.032 . S
Mg619 O626 2.079 . S
C620 O617 1.250 . S
C620 O618 1.248 . S
C621 O622 1.264 . S
C621 O629 1.249 . S
O622 C621 1.264 . S
O623 Mg616 1.986 . S
O623 C627 1.246 . S
O624 Mg619 2.032 . S
O624 C627 1.259 . S
O625 Mg616 2.114 . S
O625 C628 1.252 . S
O626 Mg616 2.251 . S
O626 Mg619 2.079 . S
O626 C628 1.273 . S
C627 O623 1.246 . S
C627 O624 1.259 . S
C628 O625 1.252 . S
C628 O626 1.273 . S
O629 Mg616 2.010 . S
O629 C621 1.249 . S
Mg630 O631 2.028 . S
Mg630 O637 1.986 . S
Mg630 O639 2.114 . S
Mg630 O640 2.251 . S
Mg630 O643 2.010 . S
O631 Mg630 2.028 . S
O631 C634 1.250 . S
O632 Mg633 2.028 . S
O632 C634 1.248 . S
Mg633 O632 2.028 . S
Mg633 O638 2.032 . S
Mg633 O640 2.079 . S
C634 O631 1.250 . S
C634 O632 1.248 . S
C635 O636 1.264 . S
C635 O643 1.249 . S
O636 C635 1.264 . S
O637 Mg630 1.986 . S
O637 C641 1.246 . S
O638 Mg633 2.032 . S
O638 C641 1.259 . S
O639 Mg630 2.114 . S
O639 C642 1.252 . S
O640 Mg630 2.251 . S
O640 Mg633 2.079 . S
O640 C642 1.273 . S
C641 O637 1.246 . S
C641 O638 1.259 . S
C642 O639 1.252 . S
C642 O640 1.273 . S
O643 Mg630 2.010 . S
O643 C635 1.249 . S
Mg644 O645 2.028 . S
Mg644 O651 1.986 . S
Mg644 O653 2.114 . S
Mg644 O654 2.251 . S
Mg644 O657 2.010 . S
O645 Mg644 2.028 . S
O645 C648 1.250 . S
O646 Mg647 2.028 . S
O646 C648 1.248 . S
Mg647 O646 2.028 . S
Mg647 O652 2.032 . S
Mg647 O654 2.079 . S
C648 O645 1.250 . S
C648 O646 1.248 . S
C649 O650 1.264 . S
C649 O657 1.249 . S
O650 C649 1.264 . S
O651 Mg644 1.986 . S
O651 C655 1.246 . S
O652 Mg647 2.032 . S
O652 C655 1.259 . S
O653 Mg644 2.114 . S
O653 C656 1.252 . S
O654 Mg644 2.251 . S
O654 Mg647 2.079 . S
O654 C656 1.273 . S
C655 O651 1.246 . S
C655 O652 1.259 . S
C656 O653 1.252 . S
C656 O654 1.273 . S
O657 Mg644 2.010 . S
O657 C649 1.249 . S
Mg658 O659 2.028 . S
Mg658 O665 1.986 . S
Mg658 O667 2.114 . S
Mg658 O668 2.251 . S
Mg658 O671 2.010 . S
O659 Mg658 2.028 . S
O659 C662 1.250 . S
O660 Mg661 2.028 . S
O660 C662 1.248 . S
Mg661 O660 2.028 . S
Mg661 O666 2.032 . S
Mg661 O668 2.079 . S
C662 O659 1.250 . S
C662 O660 1.248 . S
C663 O664 1.264 . S
C663 O671 1.249 . S
O664 C663 1.264 . S
O665 Mg658 1.986 . S
O665 C669 1.246 . S
O666 Mg661 2.032 . S
O666 C669 1.259 . S
O667 Mg658 2.114 . S
O667 C670 1.252 . S
O668 Mg658 2.251 . S
O668 Mg661 2.079 . S
O668 C670 1.273 . S
C669 O665 1.246 . S
C669 O666 1.259 . S
C670 O667 1.252 . S
C670 O668 1.273 . S
O671 Mg658 2.010 . S
O671 C663 1.249 . S
H672 C684 0.930 . S
H673 C686 0.930 . S
H674 C687 0.930 1_455 S
H675 C691 0.959 . S
H676 C691 0.959 . S
H677 C691 0.961 . S
H678 C692 0.960 . S
H679 C692 0.961 . S
H680 C692 0.959 1_455 S
H681 C695 0.929 . S
H682 C696 0.931 . S
H683 C698 0.930 . S
C684 H672 0.930 . S
C684 C685 1.399 . S
C684 C689 1.399 . S
C685 C684 1.399 . S
C685 C686 1.376 . S
C686 H673 0.930 . S
C686 C685 1.376 . S
C686 C687 1.388 . S
C687 H674 0.930 1_655 S
C687 C686 1.388 . S
C687 C688 1.390 . S
C688 C687 1.390 . S
C688 C689 1.394 . S
C688 C694 1.465 1_655 S
C689 C684 1.399 . S
C689 C688 1.394 . S
C689 C690 1.516 . S
C690 C689 1.516 . S
C690 C691 1.502 . S
C690 C692 1.561 . S
C690 C693 1.526 1_655 S
C691 H675 0.959 . S
C691 H676 0.959 . S
C691 H677 0.961 . S
C691 C690 1.502 . S
C692 H678 0.960 . S
C692 H679 0.961 . S
C692 H680 0.959 1_655 S
C692 C690 1.561 . S
C693 C690 1.526 1_455 S
C693 C694 1.396 . S
C693 C698 1.390 . S
C694 C688 1.465 1_455 S
C694 C693 1.396 . S
C694 C695 1.399 . S
C695 H681 0.929 . S
C695 C694 1.399 . S
C695 C696 1.385 . S
C696 H682 0.931 . S
C696 C695 1.385 . S
C696 C697 1.389 . S
C697 C696 1.389 . S
C697 C698 1.387 . S
C698 H683 0.930 . S
C698 C693 1.390 . S
C698 C697 1.387 . S
H699 C711 0.930 . S
H700 C713 0.930 . S
H701 C714 0.930 1_545 S
H702 C718 0.959 . S
H703 C718 0.959 . S
H704 C718 0.961 . S
H705 C719 0.960 . S
H706 C719 0.961 . S
H707 C719 0.959 . S
H708 C722 0.929 . S
H709 C723 0.931 . S
H710 C725 0.930 . S
C711 H699 0.930 . S
C711 C712 1.399 . S
C711 C716 1.399 . S
C712 C711 1.399 . S
C712 C713 1.376 . S
C713 H700 0.930 . S
C713 C712 1.376 . S
C713 C714 1.388 . S
C714 H701 0.930 1_565 S
C714 C713 1.388 . S
C714 C715 1.390 . S
C715 C714 1.390 . S
C715 C716 1.394 . S
C715 C721 1.465 1_565 S
C716 C711 1.399 . S
C716 C715 1.394 . S
C716 C717 1.516 . S
C717 C716 1.516 . S
C717 C718 1.502 . S
C717 C719 1.561 . S
C717 C720 1.526 1_565 S
C718 H702 0.959 . S
C718 H703 0.959 . S
C718 H704 0.961 . S
C718 C717 1.502 . S
C719 H705 0.960 . S
C719 H706 0.961 . S
C719 H707 0.959 . S
C719 C717 1.561 . S
C720 C717 1.526 1_545 S
C720 C721 1.396 . S
C720 C725 1.390 . S
C721 C715 1.465 1_545 S
C721 C720 1.396 . S
C721 C722 1.399 . S
C722 H708 0.929 . S
C722 C721 1.399 . S
C722 C723 1.385 . S
C723 H709 0.931 . S
C723 C722 1.385 . S
C723 C724 1.389 . S
C724 C723 1.389 . S
C724 C725 1.387 . S
C725 H710 0.930 . S
C725 C720 1.390 . S
C725 C724 1.387 . S
H726 C738 0.930 . S
H727 C740 0.930 . S
H728 C741 0.930 . S
H729 C745 0.959 . S
H730 C745 0.959 . S
H731 C745 0.961 . S
H732 C746 0.960 . S
H733 C746 0.961 . S
H734 C746 0.959 . S
H735 C749 0.929 . S
H736 C750 0.931 . S
H737 C752 0.930 . S
C738 H726 0.930 . S
C738 C739 1.399 . S
C738 C743 1.399 . S
C739 C738 1.399 . S
C739 C740 1.376 . S
C740 H727 0.930 . S
C740 C739 1.376 . S
C740 C741 1.388 . S
C741 H728 0.930 . S
C741 C740 1.388 . S
C741 C742 1.390 . S
C742 C741 1.390 . S
C742 C743 1.394 . S
C742 C748 1.465 1_455 S
C743 C738 1.399 . S
C743 C742 1.394 . S
C743 C744 1.493 1_455 S
C744 C743 1.493 1_655 S
C744 C745 1.526 . S
C744 C746 1.539 1_655 S
C744 C747 1.547 . S
C745 H729 0.959 . S
C745 H730 0.959 . S
C745 H731 0.961 . S
C745 C744 1.526 . S
C746 H732 0.960 . S
C746 H733 0.961 . S
C746 H734 0.959 . S
C746 C744 1.539 1_455 S
C747 C744 1.547 . S
C747 C748 1.396 . S
C747 C752 1.390 . S
C748 C742 1.465 1_655 S
C748 C747 1.396 . S
C748 C749 1.399 . S
C749 H735 0.929 . S
C749 C748 1.399 . S
C749 C750 1.385 . S
C750 H736 0.931 . S
C750 C749 1.385 . S
C750 C751 1.389 . S
C751 C750 1.389 . S
C751 C752 1.387 . S
C752 H737 0.930 . S
C752 C747 1.390 . S
C752 C751 1.387 . S
H753 C765 0.930 . S
H754 C767 0.930 . S
H755 C768 0.930 . S
H756 C772 0.959 . S
H757 C772 0.959 . S
H758 C772 0.961 . S
H759 C773 0.960 . S
H760 C773 0.961 . S
H761 C773 0.959 . S
H762 C776 0.929 . S
H763 C777 0.931 . S
H764 C779 0.930 . S
C765 H753 0.930 . S
C765 C766 1.399 . S
C765 C770 1.399 . S
C766 C765 1.399 . S
C766 C767 1.376 . S
C767 H754 0.930 . S
C767 C766 1.376 . S
C767 C768 1.388 . S
C768 H755 0.930 . S
C768 C767 1.388 . S
C768 C769 1.390 . S
C769 C768 1.390 . S
C769 C770 1.394 . S
C769 C775 1.450 1_565 S
C770 C765 1.399 . S
C770 C769 1.394 . S
C770 C771 1.516 1_565 S
C771 C770 1.516 1_545 S
C771 C772 1.502 . S
C771 C773 1.561 . S
C771 C774 1.526 . S
C772 H756 0.959 . S
C772 H757 0.959 . S
C772 H758 0.961 . S
C772 C771 1.502 . S
C773 H759 0.960 . S
C773 H760 0.961 . S
C773 H761 0.959 . S
C773 C771 1.561 . S
C774 C771 1.526 . S
C774 C775 1.415 . S
C774 C779 1.390 . S
C775 C769 1.450 1_545 S
C775 C774 1.415 . S
C775 C776 1.397 1_545 S
C776 H762 0.929 . S
C776 C775 1.397 1_565 S
C776 C777 1.385 1_565 S
C777 H763 0.931 . S
C777 C776 1.385 1_545 S
C777 C778 1.389 . S
C778 C777 1.389 . S
C778 C779 1.387 . S
C779 H764 0.930 . S
C779 C774 1.390 . S
C779 C778 1.387 . S
H780 C792 0.930 . S
H781 C794 0.930 . S
H782 C795 0.930 1_455 S
H783 C799 0.959 . S
H784 C799 0.959 . S
H785 C799 0.961 . S
H786 C800 0.960 . S
H787 C800 0.961 . S
H788 C800 0.959 1_455 S
H789 C803 0.929 . S
H790 C804 0.931 . S
H791 C806 0.930 . S
C792 H780 0.930 . S
C792 C793 1.399 . S
C792 C797 1.399 . S
C793 C792 1.399 . S
C793 C794 1.376 . S
C794 H781 0.930 . S
C794 C793 1.376 . S
C794 C795 1.388 . S
C795 H782 0.930 1_655 S
C795 C794 1.388 . S
C795 C796 1.390 . S
C796 C795 1.390 . S
C796 C797 1.394 . S
C796 C802 1.465 1_655 S
C797 C792 1.399 . S
C797 C796 1.394 . S
C797 C798 1.516 . S
C798 C797 1.516 . S
C798 C799 1.502 . S
C798 C800 1.561 . S
C798 C801 1.526 1_655 S
C799 H783 0.959 . S
C799 H784 0.959 . S
C799 H785 0.961 . S
C799 C798 1.502 . S
C800 H786 0.960 . S
C800 H787 0.961 . S
C800 H788 0.959 1_655 S
C800 C798 1.561 . S
C801 C798 1.526 1_455 S
C801 C802 1.396 . S
C801 C806 1.390 . S
C802 C796 1.465 1_455 S
C802 C801 1.396 . S
C802 C803 1.399 . S
C803 H789 0.929 . S
C803 C802 1.399 . S
C803 C804 1.385 . S
C804 H790 0.931 . S
C804 C803 1.385 . S
C804 C805 1.389 . S
C805 C804 1.389 . S
C805 C806 1.387 . S
C806 H791 0.930 . S
C806 C801 1.390 . S
C806 C805 1.387 . S
H807 C819 0.930 . S
H808 C821 0.930 . S
H809 C822 0.972 . S
H810 C826 0.959 . S
H811 C826 0.959 . S
H812 C826 0.961 . S
H813 C827 0.960 . S
H814 C827 0.961 . S
H815 C827 0.959 . S
H816 C830 0.929 . S
H817 C831 0.931 . S
H818 C833 0.930 . S
C819 H807 0.930 . S
C819 C820 1.399 . S
C819 C824 1.399 . S
C820 C819 1.399 . S
C820 C821 1.376 . S
C821 H808 0.930 . S
C821 C820 1.376 . S
C821 C822 1.349 1_545 S
C822 H809 0.972 . S
C822 C821 1.349 1_565 S
C822 C823 1.387 1_565 S
C823 C822 1.387 1_545 S
C823 C824 1.416 . S
C823 C829 1.447 1_545 S
C824 C819 1.399 . S
C824 C823 1.416 . S
C824 C825 1.516 . S
C825 C824 1.516 . S
C825 C826 1.502 . S
C825 C827 1.561 . S
C825 C828 1.526 1_545 S
C826 H810 0.959 . S
C826 H811 0.959 . S
C826 H812 0.961 . S
C826 C825 1.502 . S
C827 H813 0.960 . S
C827 H814 0.961 . S
C827 H815 0.959 . S
C827 C825 1.561 . S
C828 C825 1.526 1_565 S
C828 C829 1.396 . S
C828 C833 1.390 . S
C829 C823 1.447 1_565 S
C829 C828 1.396 . S
C829 C830 1.399 . S
C830 H816 0.929 . S
C830 C829 1.399 . S
C830 C831 1.385 . S
C831 H817 0.931 . S
C831 C830 1.385 . S
C831 C832 1.389 . S
C832 C831 1.389 . S
C832 C833 1.387 . S
C833 H818 0.930 . S
C833 C828 1.390 . S
C833 C832 1.387 . S
H834 C846 0.930 . S
H835 C848 0.930 . S
H836 C849 0.930 1_655 S
H837 C853 0.959 . S
H838 C853 0.959 . S
H839 C853 0.961 . S
H840 C854 0.960 . S
H841 C854 0.961 . S
H842 C854 0.959 1_655 S
H843 C857 0.929 . S
H844 C858 0.931 . S
H845 C860 0.930 . S
C846 H834 0.930 . S
C846 C847 1.399 . S
C846 C851 1.399 . S
C847 C846 1.399 . S
C847 C848 1.376 . S
C848 H835 0.930 . S
C848 C847 1.376 . S
C848 C849 1.388 . S
C849 H836 0.930 1_455 S
C849 C848 1.388 . S
C849 C850 1.390 . S
C850 C849 1.390 . S
C850 C851 1.394 . S
C850 C856 1.465 1_455 S
C851 C846 1.399 . S
C851 C850 1.394 . S
C851 C852 1.516 . S
C852 C851 1.516 . S
C852 C853 1.502 . S
C852 C854 1.561 . S
C852 C855 1.526 1_455 S
C853 H837 0.959 . S
C853 H838 0.959 . S
C853 H839 0.961 . S
C853 C852 1.502 . S
C854 H840 0.960 . S
C854 H841 0.961 . S
C854 H842 0.959 1_455 S
C854 C852 1.561 . S
C855 C852 1.526 1_655 S
C855 C856 1.396 . S
C855 C860 1.390 . S
C856 C850 1.465 1_655 S
C856 C855 1.396 . S
C856 C857 1.399 . S
C857 H843 0.929 . S
C857 C856 1.399 . S
C857 C858 1.385 . S
C858 H844 0.931 . S
C858 C857 1.385 . S
C858 C859 1.389 . S
C859 C858 1.389 . S
C859 C860 1.387 . S
C860 H845 0.930 . S
C860 C855 1.390 . S
C860 C859 1.387 . S
H861 C873 0.930 . S
H862 C875 0.930 . S
H863 C876 0.930 . S
H864 C880 0.959 . S
H865 C880 0.959 . S
H866 C880 0.961 . S
H867 C881 0.960 . S
H868 C881 0.961 . S
H869 C881 0.959 . S
H870 C884 0.929 1_545 S
H871 C885 0.931 . S
H872 C887 0.930 . S
C873 H861 0.930 . S
C873 C874 1.399 . S
C873 C878 1.399 . S
C874 C873 1.399 . S
C874 C875 1.376 . S
C875 H862 0.930 . S
C875 C874 1.376 . S
C875 C876 1.388 . S
C876 H863 0.930 . S
C876 C875 1.388 . S
C876 C877 1.390 . S
C877 C876 1.390 . S
C877 C878 1.394 . S
C877 C883 1.465 1_545 S
C878 C873 1.399 . S
C878 C877 1.394 . S
C878 C879 1.516 1_545 S
C879 C878 1.516 1_565 S
C879 C880 1.502 . S
C879 C881 1.561 . S
C879 C882 1.526 . S
C880 H864 0.959 . S
C880 H865 0.959 . S
C880 H866 0.961 . S
C880 C879 1.502 . S
C881 H867 0.960 . S
C881 H868 0.961 . S
C881 H869 0.959 . S
C881 C879 1.561 . S
C882 C879 1.526 . S
C882 C883 1.396 . S
C882 C887 1.390 . S
C883 C877 1.465 1_565 S
C883 C882 1.396 . S
C883 C884 1.399 . S
C884 H870 0.929 1_565 S
C884 C883 1.399 . S
C884 C885 1.385 . S
C885 H871 0.931 . S
C885 C884 1.385 . S
C885 C886 1.389 . S
C886 C885 1.389 . S
C886 C887 1.387 . S
C887 H872 0.930 . S
C887 C882 1.390 . S
C887 C886 1.387 . S
H888 C900 0.930 . S
H889 C902 0.930 . S
H890 C903 0.930 1_556 S
H891 C907 0.959 . S
H892 C907 0.959 . S
H893 C907 0.961 . S
H894 C908 0.960 . S
H895 C908 0.961 . S
H896 C908 0.959 . S
H897 C911 0.929 . S
H898 C912 0.931 . S
H899 C914 0.930 . S
C900 H888 0.930 . S
C900 C901 1.399 . S
C900 C905 1.399 . S
C901 C900 1.399 . S
C901 C902 1.376 . S
C902 H889 0.930 . S
C902 C901 1.376 . S
C902 C903 1.388 . S
C903 H890 0.930 1_554 S
C903 C902 1.388 . S
C903 C904 1.390 . S
C904 C903 1.390 . S
C904 C905 1.394 . S
C904 C910 1.465 1_554 S
C905 C900 1.399 . S
C905 C904 1.394 . S
C905 C906 1.516 . S
C906 C905 1.516 . S
C906 C907 1.502 . S
C906 C908 1.561 . S
C906 C909 1.526 1_554 S
C907 H891 0.959 . S
C907 H892 0.959 . S
C907 H893 0.961 . S
C907 C906 1.502 . S
C908 H894 0.960 . S
C908 H895 0.961 . S
C908 H896 0.959 . S
C908 C906 1.561 . S
C909 C906 1.526 1_556 S
C909 C910 1.396 . S
C909 C914 1.390 . S
C910 C904 1.465 1_556 S
C910 C909 1.396 . S
C910 C911 1.399 . S
C911 H897 0.929 . S
C911 C910 1.399 . S
C911 C912 1.385 . S
C912 H898 0.931 . S
C912 C911 1.385 . S
C912 C913 1.389 . S
C913 C912 1.389 . S
C913 C914 1.387 . S
C914 H899 0.930 . S
C914 C909 1.390 . S
C914 C913 1.387 . S
H915 C927 0.930 . S
H916 C929 0.930 . S
H917 C930 0.909 1_554 S
H918 C934 0.959 . S
H919 C934 0.959 . S
H920 C934 0.961 . S
H921 C935 0.960 1_556 S
H922 C935 0.961 . S
H923 C935 0.959 . S
H924 C938 0.929 . S
H925 C939 0.931 . S
H926 C941 0.930 . S
C927 H915 0.930 . S
C927 C928 1.399 . S
C927 C932 1.399 . S
C928 C927 1.399 . S
C928 C929 1.376 . S
C929 H916 0.930 . S
C929 C928 1.376 . S
C929 C930 1.388 . S
C930 H917 0.909 1_556 S
C930 C929 1.388 . S
C930 C931 1.390 . S
C931 C930 1.390 . S
C931 C932 1.394 . S
C931 C937 1.465 1_556 S
C932 C927 1.399 . S
C932 C931 1.394 . S
C932 C933 1.516 . S
C933 C932 1.516 . S
C933 C934 1.502 . S
C933 C935 1.561 1_556 S
C933 C936 1.526 1_556 S
C934 H918 0.959 . S
C934 H919 0.959 . S
C934 H920 0.961 . S
C934 C933 1.502 . S
C935 H921 0.960 1_554 S
C935 H922 0.961 . S
C935 H923 0.959 . S
C935 C933 1.561 1_554 S
C936 C933 1.526 1_554 S
C936 C937 1.396 . S
C936 C941 1.390 . S
C937 C931 1.465 1_554 S
C937 C936 1.396 . S
C937 C938 1.399 . S
C938 H924 0.929 . S
C938 C937 1.399 . S
C938 C939 1.385 . S
C939 H925 0.931 . S
C939 C938 1.385 . S
C939 C940 1.389 . S
C940 C939 1.389 . S
C940 C941 1.387 . S
C941 H926 0.930 . S
C941 C936 1.390 . S
C941 C940 1.387 . S
H942 C954 0.930 . S
H943 C956 0.930 . S
H944 C957 0.930 1_554 S
H945 C961 0.959 . S
H946 C961 0.959 . S
H947 C961 0.961 . S
H948 C962 0.960 . S
H949 C962 0.961 . S
H950 C962 0.959 . S
H951 C965 0.929 . S
H952 C966 0.931 . S
H953 C968 0.930 . S
C954 H942 0.930 . S
C954 C955 1.399 . S
C954 C959 1.399 . S
C955 C954 1.399 . S
C955 C956 1.376 . S
C956 H943 0.930 . S
C956 C955 1.376 . S
C956 C957 1.388 . S
C957 H944 0.930 1_556 S
C957 C956 1.388 . S
C957 C958 1.392 . S
C958 C957 1.392 . S
C958 C959 1.435 . S
C958 C964 1.429 1_556 S
C959 C954 1.399 . S
C959 C958 1.435 . S
C959 C960 1.516 . S
C960 C959 1.516 . S
C960 C961 1.502 . S
C960 C962 1.561 . S
C960 C963 1.526 1_556 S
C961 H945 0.959 . S
C961 H946 0.959 . S
C961 H947 0.961 . S
C961 C960 1.502 . S
C962 H948 0.960 . S
C962 H949 0.961 . S
C962 H950 0.959 . S
C962 C960 1.561 . S
C963 C960 1.526 1_554 S
C963 C964 1.396 . S
C963 C968 1.390 . S
C964 C958 1.429 1_554 S
C964 C963 1.396 . S
C964 C965 1.399 . S
C965 H951 0.929 . S
C965 C964 1.399 . S
C965 C966 1.385 . S
C966 H952 0.931 . S
C966 C965 1.385 . S
C966 C967 1.389 . S
C967 C966 1.389 . S
C967 C968 1.387 . S
C968 H953 0.930 . S
C968 C963 1.390 . S
C968 C967 1.387 . S
H969 C981 0.930 . S
H970 C983 0.930 . S
H971 C984 0.930 . S
H972 C988 0.959 . S
H973 C988 0.959 . S
H974 C988 0.961 . S
H975 C989 0.960 . S
H976 C989 0.961 . S
H977 C989 0.959 . S
H978 C992 0.929 . S
H979 C993 0.931 . S
H980 C995 0.930 . S
C981 H969 0.930 . S
C981 C982 1.399 . S
C981 C986 1.399 . S
C982 C981 1.399 . S
C982 C983 1.376 . S
C983 H970 0.930 . S
C983 C982 1.376 . S
C983 C984 1.388 . S
C984 H971 0.930 . S
C984 C983 1.388 . S
C984 C985 1.390 . S
C985 C984 1.390 . S
C985 C986 1.394 . S
C985 C991 1.465 1_556 S
C986 C981 1.399 . S
C986 C985 1.394 . S
C986 C987 1.516 . S
C987 C986 1.516 . S
C987 C988 1.502 1_556 S
C987 C989 1.561 . S
C987 C990 1.526 1_556 S
C988 H972 0.959 . S
C988 H973 0.959 . S
C988 H974 0.961 . S
C988 C987 1.502 1_554 S
C989 H975 0.960 . S
C989 H976 0.961 . S
C989 H977 0.959 . S
C989 C987 1.561 . S
C990 C987 1.526 1_554 S
C990 C991 1.396 . S
C990 C995 1.390 . S
C991 C985 1.465 1_554 S
C991 C990 1.396 . S
C991 C992 1.399 . S
C992 H978 0.929 . S
C992 C991 1.399 . S
C992 C993 1.385 . S
C993 H979 0.931 . S
C993 C992 1.385 . S
C993 C994 1.389 . S
C994 C993 1.389 . S
C994 C995 1.387 . S
C995 H980 0.930 . S
C995 C990 1.390 . S
C995 C994 1.387 . S
H996 C1008 0.930 . S
H997 C1010 0.930 . S
H998 C1011 0.930 . S
H999 C1015 0.959 . S
H1000 C1015 0.959 . S
H1001 C1015 0.961 . S
H1002 C1016 0.960 . S
H1003 C1016 0.961 . S
H1004 C1016 0.959 . S
H1005 C1019 0.929 . S
H1006 C1020 0.931 . S
H1007 C1022 0.930 . S
C1008 H996 0.930 . S
C1008 C1009 1.399 . S
C1008 C1013 1.399 . S
C1009 C1008 1.399 . S
C1009 C1010 1.376 . S
C1010 H997 0.930 . S
C1010 C1009 1.376 . S
C1010 C1011 1.388 . S
C1011 H998 0.930 . S
C1011 C1010 1.388 . S
C1011 C1012 1.390 . S
C1012 C1011 1.390 . S
C1012 C1013 1.394 . S
C1012 C1018 1.465 . S
C1013 C1008 1.399 . S
C1013 C1012 1.394 . S
C1013 C1014 1.516 . S
C1014 C1013 1.516 . S
C1014 C1015 1.502 . S
C1014 C1016 1.561 . S
C1014 C1017 1.526 . S
C1015 H999 0.959 . S
C1015 H1000 0.959 . S
C1015 H1001 0.961 . S
C1015 C1014 1.502 . S
C1016 H1002 0.960 . S
C1016 H1003 0.961 . S
C1016 H1004 0.959 . S
C1016 C1014 1.561 . S
C1017 C1014 1.526 . S
C1017 C1018 1.396 . S
C1017 C1022 1.390 . S
C1018 C1012 1.465 . S
C1018 C1017 1.396 . S
C1018 C1019 1.399 . S
C1019 H1005 0.929 . S
C1019 C1018 1.399 . S
C1019 C1020 1.385 . S
C1020 H1006 0.931 . S
C1020 C1019 1.385 . S
C1020 C1021 1.389 . S
C1021 C1020 1.389 . S
C1021 C1022 1.387 . S
C1022 H1007 0.930 . S
C1022 C1017 1.390 . S
C1022 C1021 1.387 . S
H1023 C1035 0.930 . S
H1024 C1037 0.930 . S
H1025 C1038 0.930 . S
H1026 C1042 0.959 . S
H1027 C1042 0.959 . S
H1028 C1042 0.961 . S
H1029 C1043 0.960 . S
H1030 C1043 0.961 . S
H1031 C1043 0.959 . S
H1032 C1046 0.929 . S
H1033 C1047 0.931 . S
H1034 C1049 0.930 . S
C1035 H1023 0.930 . S
C1035 C1036 1.399 . S
C1035 C1040 1.399 . S
C1036 C1035 1.399 . S
C1036 C1037 1.376 . S
C1037 H1024 0.930 . S
C1037 C1036 1.376 . S
C1037 C1038 1.388 . S
C1038 H1025 0.930 . S
C1038 C1037 1.388 . S
C1038 C1039 1.390 . S
C1039 C1038 1.390 . S
C1039 C1040 1.394 . S
C1039 C1045 1.465 . S
C1040 C1035 1.399 . S
C1040 C1039 1.394 . S
C1040 C1041 1.516 . S
C1041 C1040 1.516 . S
C1041 C1042 1.502 . S
C1041 C1043 1.561 . S
C1041 C1044 1.526 . S
C1042 H1026 0.959 . S
C1042 H1027 0.959 . S
C1042 H1028 0.961 . S
C1042 C1041 1.502 . S
C1043 H1029 0.960 . S
C1043 H1030 0.961 . S
C1043 H1031 0.959 . S
C1043 C1041 1.561 . S
C1044 C1041 1.526 . S
C1044 C1045 1.396 . S
C1044 C1049 1.390 . S
C1045 C1039 1.465 . S
C1045 C1044 1.396 . S
C1045 C1046 1.399 . S
C1046 H1032 0.929 . S
C1046 C1045 1.399 . S
C1046 C1047 1.385 . S
C1047 H1033 0.931 . S
C1047 C1046 1.385 . S
C1047 C1048 1.389 . S
C1048 C1047 1.389 . S
C1048 C1049 1.387 . S
C1049 H1034 0.930 . S
C1049 C1044 1.390 . S
C1049 C1048 1.387 . S
H1050 C1062 0.930 . S
H1051 C1064 0.930 . S
H1052 C1065 0.930 . S
H1053 C1069 0.959 . S
H1054 C1069 0.959 . S
H1055 C1069 0.961 . S
H1056 C1070 0.960 . S
H1057 C1070 0.961 . S
H1058 C1070 0.959 . S
H1059 C1073 0.929 . S
H1060 C1074 0.931 . S
H1061 C1076 0.930 . S
C1062 H1050 0.930 . S
C1062 C1063 1.399 . S
C1062 C1067 1.399 . S
C1063 C1062 1.399 . S
C1063 C1064 1.376 . S
C1064 H1051 0.930 . S
C1064 C1063 1.376 . S
C1064 C1065 1.388 . S
C1065 H1052 0.930 . S
C1065 C1064 1.388 . S
C1065 C1066 1.390 . S
C1066 C1065 1.390 . S
C1066 C1067 1.394 . S
C1066 C1072 1.465 . S
C1067 C1062 1.399 . S
C1067 C1066 1.394 . S
C1067 C1068 1.516 . S
C1068 C1067 1.516 . S
C1068 C1069 1.502 . S
C1068 C1070 1.561 . S
C1068 C1071 1.526 . S
C1069 H1053 0.959 . S
C1069 H1054 0.959 . S
C1069 H1055 0.961 . S
C1069 C1068 1.502 . S
C1070 H1056 0.960 . S
C1070 H1057 0.961 . S
C1070 H1058 0.959 . S
C1070 C1068 1.561 . S
C1071 C1068 1.526 . S
C1071 C1072 1.396 . S
C1071 C1076 1.390 . S
C1072 C1066 1.465 . S
C1072 C1071 1.396 . S
C1072 C1073 1.399 . S
C1073 H1059 0.929 . S
C1073 C1072 1.399 . S
C1073 C1074 1.385 . S
C1074 H1060 0.931 . S
C1074 C1073 1.385 . S
C1074 C1075 1.389 . S
C1075 C1074 1.389 . S
C1075 C1076 1.387 . S
C1076 H1061 0.930 . S
C1076 C1071 1.390 . S
C1076 C1075 1.387 . S
H1077 C1089 0.930 . S
H1078 C1091 0.930 . S
H1079 C1092 0.930 . S
H1080 C1096 0.959 . S
H1081 C1096 0.959 . S
H1082 C1096 0.961 . S
H1083 C1097 0.960 . S
H1084 C1097 0.961 . S
H1085 C1097 0.959 . S
H1086 C1100 0.929 . S
H1087 C1101 0.931 . S
H1088 C1103 0.930 . S
C1089 H1077 0.930 . S
C1089 C1090 1.399 . S
C1089 C1094 1.399 . S
C1090 C1089 1.399 . S
C1090 C1091 1.376 . S
C1091 H1078 0.930 . S
C1091 C1090 1.376 . S
C1091 C1092 1.388 . S
C1092 H1079 0.930 . S
C1092 C1091 1.388 . S
C1092 C1093 1.390 . S
C1093 C1092 1.390 . S
C1093 C1094 1.394 . S
C1093 C1099 1.465 . S
C1094 C1089 1.399 . S
C1094 C1093 1.394 . S
C1094 C1095 1.516 . S
C1095 C1094 1.516 . S
C1095 C1096 1.502 . S
C1095 C1097 1.561 . S
C1095 C1098 1.526 . S
C1096 H1080 0.959 . S
C1096 H1081 0.959 . S
C1096 H1082 0.961 . S
C1096 C1095 1.502 . S
C1097 H1083 0.960 . S
C1097 H1084 0.961 . S
C1097 H1085 0.959 . S
C1097 C1095 1.561 . S
C1098 C1095 1.526 . S
C1098 C1099 1.396 . S
C1098 C1103 1.390 . S
C1099 C1093 1.465 . S
C1099 C1098 1.396 . S
C1099 C1100 1.399 . S
C1100 H1086 0.929 . S
C1100 C1099 1.399 . S
C1100 C1101 1.385 . S
C1101 H1087 0.931 . S
C1101 C1100 1.385 . S
C1101 C1102 1.389 . S
C1102 C1101 1.389 . S
C1102 C1103 1.387 . S
C1103 H1088 0.930 . S
C1103 C1098 1.390 . S
C1103 C1102 1.387 . S
H1104 C1116 0.930 . S
H1105 C1118 0.930 . S
H1106 C1119 0.930 . S
H1107 C1123 0.959 . S
H1108 C1123 0.959 . S
H1109 C1123 0.961 . S
H1110 C1124 0.960 . S
H1111 C1124 0.961 . S
H1112 C1124 0.959 . S
H1113 C1127 0.929 . S
H1114 C1128 0.931 . S
H1115 C1130 0.930 . S
C1116 H1104 0.930 . S
C1116 C1117 1.399 . S
C1116 C1121 1.399 . S
C1117 C1116 1.399 . S
C1117 C1118 1.376 . S
C1118 H1105 0.930 . S
C1118 C1117 1.376 . S
C1118 C1119 1.388 . S
C1119 H1106 0.930 . S
C1119 C1118 1.388 . S
C1119 C1120 1.390 . S
C1120 C1119 1.390 . S
C1120 C1121 1.394 . S
C1120 C1126 1.465 . S
C1121 C1116 1.399 . S
C1121 C1120 1.394 . S
C1121 C1122 1.516 . S
C1122 C1121 1.516 . S
C1122 C1123 1.502 . S
C1122 C1124 1.561 . S
C1122 C1125 1.526 . S
C1123 H1107 0.959 . S
C1123 H1108 0.959 . S
C1123 H1109 0.961 . S
C1123 C1122 1.502 . S
C1124 H1110 0.960 . S
C1124 H1111 0.961 . S
C1124 H1112 0.959 . S
C1124 C1122 1.561 . S
C1125 C1122 1.526 . S
C1125 C1126 1.396 . S
C1125 C1130 1.390 . S
C1126 C1120 1.465 . S
C1126 C1125 1.396 . S
C1126 C1127 1.399 . S
C1127 H1113 0.929 . S
C1127 C1126 1.399 . S
C1127 C1128 1.385 . S
C1128 H1114 0.931 . S
C1128 C1127 1.385 . S
C1128 C1129 1.389 . S
C1129 C1128 1.389 . S
C1129 C1130 1.387 . S
C1130 H1115 0.930 . S
C1130 C1125 1.390 . S
C1130 C1129 1.387 . S
H1131 C1143 0.930 . S
H1132 C1145 0.930 . S
H1133 C1146 0.930 . S
H1134 C1150 0.959 . S
H1135 C1150 0.959 . S
H1136 C1150 0.961 . S
H1137 C1151 0.960 . S
H1138 C1151 0.961 . S
H1139 C1151 0.959 . S
H1140 C1154 0.929 . S
H1141 C1155 0.931 . S
H1142 C1157 0.930 . S
C1143 H1131 0.930 . S
C1143 C1144 1.399 . S
C1143 C1148 1.399 . S
C1144 C1143 1.399 . S
C1144 C1145 1.376 . S
C1145 H1132 0.930 . S
C1145 C1144 1.376 . S
C1145 C1146 1.388 . S
C1146 H1133 0.930 . S
C1146 C1145 1.388 . S
C1146 C1147 1.390 . S
C1147 C1146 1.390 . S
C1147 C1148 1.394 . S
C1147 C1153 1.465 . S
C1148 C1143 1.399 . S
C1148 C1147 1.394 . S
C1148 C1149 1.516 . S
C1149 C1148 1.516 . S
C1149 C1150 1.502 . S
C1149 C1151 1.561 . S
C1149 C1152 1.526 . S
C1150 H1134 0.959 . S
C1150 H1135 0.959 . S
C1150 H1136 0.961 . S
C1150 C1149 1.502 . S
C1151 H1137 0.960 . S
C1151 H1138 0.961 . S
C1151 H1139 0.959 . S
C1151 C1149 1.561 . S
C1152 C1149 1.526 . S
C1152 C1153 1.396 . S
C1152 C1157 1.390 . S
C1153 C1147 1.465 . S
C1153 C1152 1.396 . S
C1153 C1154 1.399 . S
C1154 H1140 0.929 . S
C1154 C1153 1.399 . S
C1154 C1155 1.385 . S
C1155 H1141 0.931 . S
C1155 C1154 1.385 . S
C1155 C1156 1.389 . S
C1156 C1155 1.389 . S
C1156 C1157 1.387 . S
C1157 H1142 0.930 . S
C1157 C1152 1.390 . S
C1157 C1156 1.387 . S
H1158 C1170 0.930 . S
H1159 C1172 0.930 . S
H1160 C1173 0.930 . S
H1161 C1177 0.959 . S
H1162 C1177 0.959 . S
H1163 C1177 0.961 . S
H1164 C1178 0.960 . S
H1165 C1178 0.961 . S
H1166 C1178 0.959 . S
H1167 C1181 0.929 . S
H1168 C1182 0.931 . S
H1169 C1184 0.930 . S
C1170 H1158 0.930 . S
C1170 C1171 1.399 . S
C1170 C1175 1.399 . S
C1171 C1170 1.399 . S
C1171 C1172 1.376 . S
C1172 H1159 0.930 . S
C1172 C1171 1.376 . S
C1172 C1173 1.388 . S
C1173 H1160 0.930 . S
C1173 C1172 1.388 . S
C1173 C1174 1.390 . S
C1174 C1173 1.390 . S
C1174 C1175 1.394 . S
C1174 C1180 1.465 . S
C1175 C1170 1.399 . S
C1175 C1174 1.394 . S
C1175 C1176 1.516 . S
C1176 C1175 1.516 . S
C1176 C1177 1.502 . S
C1176 C1178 1.561 . S
C1176 C1179 1.526 . S
C1177 H1161 0.959 . S
C1177 H1162 0.959 . S
C1177 H1163 0.961 . S
C1177 C1176 1.502 . S
C1178 H1164 0.960 . S
C1178 H1165 0.961 . S
C1178 H1166 0.959 . S
C1178 C1176 1.561 . S
C1179 C1176 1.526 . S
C1179 C1180 1.396 . S
C1179 C1184 1.390 . S
C1180 C1174 1.465 . S
C1180 C1179 1.396 . S
C1180 C1181 1.399 . S
C1181 H1167 0.929 . S
C1181 C1180 1.399 . S
C1181 C1182 1.385 . S
C1182 H1168 0.931 . S
C1182 C1181 1.385 . S
C1182 C1183 1.389 . S
C1183 C1182 1.389 . S
C1183 C1184 1.387 . S
C1184 H1169 0.930 . S
C1184 C1179 1.390 . S
C1184 C1183 1.387 . S
H1185 C1197 0.930 . S
H1186 C1199 0.930 . S
H1187 C1200 0.930 . S
H1188 C1204 0.959 . S
H1189 C1204 0.959 . S
H1190 C1204 0.961 . S
H1191 C1205 0.960 . S
H1192 C1205 0.961 . S
H1193 C1205 0.959 . S
H1194 C1208 0.929 . S
H1195 C1209 0.931 . S
H1196 C1211 0.930 . S
C1197 H1185 0.930 . S
C1197 C1198 1.399 . S
C1197 C1202 1.399 . S
C1198 C1197 1.399 . S
C1198 C1199 1.376 . S
C1199 H1186 0.930 . S
C1199 C1198 1.376 . S
C1199 C1200 1.388 . S
C1200 H1187 0.930 . S
C1200 C1199 1.388 . S
C1200 C1201 1.390 . S
C1201 C1200 1.390 . S
C1201 C1202 1.394 . S
C1201 C1207 1.465 . S
C1202 C1197 1.399 . S
C1202 C1201 1.394 . S
C1202 C1203 1.516 . S
C1203 C1202 1.516 . S
C1203 C1204 1.502 . S
C1203 C1205 1.561 . S
C1203 C1206 1.526 . S
C1204 H1188 0.959 . S
C1204 H1189 0.959 . S
C1204 H1190 0.961 . S
C1204 C1203 1.502 . S
C1205 H1191 0.960 . S
C1205 H1192 0.961 . S
C1205 H1193 0.959 . S
C1205 C1203 1.561 . S
C1206 C1203 1.526 . S
C1206 C1207 1.396 . S
C1206 C1211 1.390 . S
C1207 C1201 1.465 . S
C1207 C1206 1.396 . S
C1207 C1208 1.399 . S
C1208 H1194 0.929 . S
C1208 C1207 1.399 . S
C1208 C1209 1.385 . S
C1209 H1195 0.931 . S
C1209 C1208 1.385 . S
C1209 C1210 1.389 . S
C1210 C1209 1.389 . S
C1210 C1211 1.387 . S
C1211 H1196 0.930 . S
C1211 C1206 1.390 . S
C1211 C1210 1.387 . S
H1212 C1224 0.930 . S
H1213 C1226 0.930 . S
H1214 C1227 0.930 . S
H1215 C1231 0.959 . S
H1216 C1231 0.959 . S
H1217 C1231 0.961 . S
H1218 C1232 0.960 . S
H1219 C1232 0.961 . S
H1220 C1232 0.959 . S
H1221 C1235 0.929 . S
H1222 C1236 0.931 . S
H1223 C1238 0.930 . S
C1224 H1212 0.930 . S
C1224 C1225 1.399 . S
C1224 C1229 1.399 . S
C1225 C1224 1.399 . S
C1225 C1226 1.376 . S
C1226 H1213 0.930 . S
C1226 C1225 1.376 . S
C1226 C1227 1.388 . S
C1227 H1214 0.930 . S
C1227 C1226 1.388 . S
C1227 C1228 1.390 . S
C1228 C1227 1.390 . S
C1228 C1229 1.394 . S
C1228 C1234 1.465 . S
C1229 C1224 1.399 . S
C1229 C1228 1.394 . S
C1229 C1230 1.516 . S
C1230 C1229 1.516 . S
C1230 C1231 1.502 . S
C1230 C1232 1.561 . S
C1230 C1233 1.526 . S
C1231 H1215 0.959 . S
C1231 H1216 0.959 . S
C1231 H1217 0.961 . S
C1231 C1230 1.502 . S
C1232 H1218 0.960 . S
C1232 H1219 0.961 . S
C1232 H1220 0.959 . S
C1232 C1230 1.561 . S
C1233 C1230 1.526 . S
C1233 C1234 1.396 . S
C1233 C1238 1.390 . S
C1234 C1228 1.465 . S
C1234 C1233 1.396 . S
C1234 C1235 1.399 . S
C1235 H1221 0.929 . S
C1235 C1234 1.399 . S
C1235 C1236 1.385 . S
C1236 H1222 0.931 . S
C1236 C1235 1.385 . S
C1236 C1237 1.389 . S
C1237 C1236 1.389 . S
C1237 C1238 1.387 . S
C1238 H1223 0.930 . S
C1238 C1233 1.390 . S
C1238 C1237 1.387 . S
H1239 C1251 0.930 . S
H1240 C1253 0.930 . S
H1241 C1254 0.930 . S
H1242 C1258 0.959 . S
H1243 C1258 0.959 . S
H1244 C1258 0.961 . S
H1245 C1259 0.960 . S
H1246 C1259 0.961 . S
H1247 C1259 0.959 . S
H1248 C1262 0.929 . S
H1249 C1263 0.931 . S
H1250 C1265 0.930 . S
C1251 H1239 0.930 . S
C1251 C1252 1.399 . S
C1251 C1256 1.399 . S
C1252 C1251 1.399 . S
C1252 C1253 1.376 . S
C1253 H1240 0.930 . S
C1253 C1252 1.376 . S
C1253 C1254 1.388 . S
C1254 H1241 0.930 . S
C1254 C1253 1.388 . S
C1254 C1255 1.390 . S
C1255 C1254 1.390 . S
C1255 C1256 1.394 . S
C1255 C1261 1.465 . S
C1256 C1251 1.399 . S
C1256 C1255 1.394 . S
C1256 C1257 1.516 . S
C1257 C1256 1.516 . S
C1257 C1258 1.502 . S
C1257 C1259 1.561 . S
C1257 C1260 1.526 . S
C1258 H1242 0.959 . S
C1258 H1243 0.959 . S
C1258 H1244 0.961 . S
C1258 C1257 1.502 . S
C1259 H1245 0.960 . S
C1259 H1246 0.961 . S
C1259 H1247 0.959 . S
C1259 C1257 1.561 . S
C1260 C1257 1.526 . S
C1260 C1261 1.396 . S
C1260 C1265 1.390 . S
C1261 C1255 1.465 . S
C1261 C1260 1.396 . S
C1261 C1262 1.399 . S
C1262 H1248 0.929 . S
C1262 C1261 1.399 . S
C1262 C1263 1.385 . S
C1263 H1249 0.931 . S
C1263 C1262 1.385 . S
C1263 C1264 1.389 . S
C1264 C1263 1.389 . S
C1264 C1265 1.387 . S
C1265 H1250 0.930 . S
C1265 C1260 1.390 . S
C1265 C1264 1.387 . S
H1266 C1278 0.930 . S
H1267 C1280 0.930 . S
H1268 C1281 0.930 . S
H1269 C1285 0.959 . S
H1270 C1285 0.959 . S
H1271 C1285 0.961 . S
H1272 C1286 0.960 . S
H1273 C1286 0.961 . S
H1274 C1286 0.959 . S
H1275 C1289 0.929 . S
H1276 C1290 0.931 . S
H1277 C1292 0.930 . S
C1278 H1266 0.930 . S
C1278 C1279 1.399 . S
C1278 C1283 1.399 . S
C1279 C1278 1.399 . S
C1279 C1280 1.376 . S
C1280 H1267 0.930 . S
C1280 C1279 1.376 . S
C1280 C1281 1.388 . S
C1281 H1268 0.930 . S
C1281 C1280 1.388 . S
C1281 C1282 1.390 . S
C1282 C1281 1.390 . S
C1282 C1283 1.394 . S
C1282 C1288 1.465 . S
C1283 C1278 1.399 . S
C1283 C1282 1.394 . S
C1283 C1284 1.516 . S
C1284 C1283 1.516 . S
C1284 C1285 1.502 . S
C1284 C1286 1.561 . S
C1284 C1287 1.526 . S
C1285 H1269 0.959 . S
C1285 H1270 0.959 . S
C1285 H1271 0.961 . S
C1285 C1284 1.502 . S
C1286 H1272 0.960 . S
C1286 H1273 0.961 . S
C1286 H1274 0.959 . S
C1286 C1284 1.561 . S
C1287 C1284 1.526 . S
C1287 C1288 1.396 . S
C1287 C1292 1.390 . S
C1288 C1282 1.465 . S
C1288 C1287 1.396 . S
C1288 C1289 1.399 . S
C1289 H1275 0.929 . S
C1289 C1288 1.399 . S
C1289 C1290 1.385 . S
C1290 H1276 0.931 . S
C1290 C1289 1.385 . S
C1290 C1291 1.389 . S
C1291 C1290 1.389 . S
C1291 C1292 1.387 . S
C1292 H1277 0.930 . S
C1292 C1287 1.390 . S
C1292 C1291 1.387 . S
H1293 C1305 0.930 . S
H1294 C1307 0.930 . S
H1295 C1308 0.930 . S
H1296 C1312 0.959 . S
H1297 C1312 0.959 . S
H1298 C1312 0.961 . S
H1299 C1313 0.960 . S
H1300 C1313 0.961 . S
H1301 C1313 0.959 . S
H1302 C1316 0.929 . S
H1303 C1317 0.931 . S
H1304 C1319 0.930 . S
C1305 H1293 0.930 . S
C1305 C1306 1.399 . S
C1305 C1310 1.399 . S
C1306 C1305 1.399 . S
C1306 C1307 1.376 . S
C1307 H1294 0.930 . S
C1307 C1306 1.376 . S
C1307 C1308 1.388 . S
C1308 H1295 0.930 . S
C1308 C1307 1.388 . S
C1308 C1309 1.390 . S
C1309 C1308 1.390 . S
C1309 C1310 1.394 . S
C1309 C1315 1.465 . S
C1310 C1305 1.399 . S
C1310 C1309 1.394 . S
C1310 C1311 1.516 . S
C1311 C1310 1.516 . S
C1311 C1312 1.502 . S
C1311 C1313 1.561 . S
C1311 C1314 1.526 . S
C1312 H1296 0.959 . S
C1312 H1297 0.959 . S
C1312 H1298 0.961 . S
C1312 C1311 1.502 . S
C1313 H1299 0.960 . S
C1313 H1300 0.961 . S
C1313 H1301 0.959 . S
C1313 C1311 1.561 . S
C1314 C1311 1.526 . S
C1314 C1315 1.396 . S
C1314 C1319 1.390 . S
C1315 C1309 1.465 . S
C1315 C1314 1.396 . S
C1315 C1316 1.399 . S
C1316 H1302 0.929 . S
C1316 C1315 1.399 . S
C1316 C1317 1.385 . S
C1317 H1303 0.931 . S
C1317 C1316 1.385 . S
C1317 C1318 1.389 . S
C1318 C1317 1.389 . S
C1318 C1319 1.387 . S
C1319 H1304 0.930 . S
C1319 C1314 1.390 . S
C1319 C1318 1.387 . S
H1320 C1332 0.930 . S
H1321 C1334 0.930 . S
H1322 C1335 0.930 . S
H1323 C1339 0.959 . S
H1324 C1339 0.959 . S
H1325 C1339 0.961 . S
H1326 C1340 0.960 . S
H1327 C1340 0.961 . S
H1328 C1340 0.959 . S
H1329 C1343 0.929 . S
H1330 C1344 0.931 . S
H1331 C1346 0.930 . S
C1332 H1320 0.930 . S
C1332 C1333 1.399 . S
C1332 C1337 1.399 . S
C1333 C1332 1.399 . S
C1333 C1334 1.376 . S
C1334 H1321 0.930 . S
C1334 C1333 1.376 . S
C1334 C1335 1.388 . S
C1335 H1322 0.930 . S
C1335 C1334 1.388 . S
C1335 C1336 1.390 . S
C1336 C1335 1.390 . S
C1336 C1337 1.394 . S
C1336 C1342 1.465 . S
C1337 C1332 1.399 . S
C1337 C1336 1.394 . S
C1337 C1338 1.516 . S
C1338 C1337 1.516 . S
C1338 C1339 1.502 . S
C1338 C1340 1.561 . S
C1338 C1341 1.526 . S
C1339 H1323 0.959 . S
C1339 H1324 0.959 . S
C1339 H1325 0.961 . S
C1339 C1338 1.502 . S
C1340 H1326 0.960 . S
C1340 H1327 0.961 . S
C1340 H1328 0.959 . S
C1340 C1338 1.561 . S
C1341 C1338 1.526 . S
C1341 C1342 1.396 . S
C1341 C1346 1.390 . S
C1342 C1336 1.465 . S
C1342 C1341 1.396 . S
C1342 C1343 1.399 . S
C1343 H1329 0.929 . S
C1343 C1342 1.399 . S
C1343 C1344 1.385 . S
C1344 H1330 0.931 . S
C1344 C1343 1.385 . S
C1344 C1345 1.389 . S
C1345 C1344 1.389 . S
C1345 C1346 1.387 . S
C1346 H1331 0.930 . S
C1346 C1341 1.390 . S
C1346 C1345 1.387 . S
H1347 C1359 0.930 . S
H1348 C1361 0.930 . S
H1349 C1362 0.930 . S
H1350 C1366 0.959 . S
H1351 C1366 0.959 . S
H1352 C1366 0.961 . S
H1353 C1367 0.960 . S
H1354 C1367 0.961 . S
H1355 C1367 0.959 . S
H1356 C1370 0.929 . S
H1357 C1371 0.931 . S
H1358 C1373 0.930 . S
C1359 H1347 0.930 . S
C1359 C1360 1.399 . S
C1359 C1364 1.399 . S
C1360 C1359 1.399 . S
C1360 C1361 1.376 . S
C1361 H1348 0.930 . S
C1361 C1360 1.376 . S
C1361 C1362 1.388 . S
C1362 H1349 0.930 . S
C1362 C1361 1.388 . S
C1362 C1363 1.390 . S
C1363 C1362 1.390 . S
C1363 C1364 1.394 . S
C1363 C1369 1.465 . S
C1364 C1359 1.399 . S
C1364 C1363 1.394 . S
C1364 C1365 1.516 . S
C1365 C1364 1.516 . S
C1365 C1366 1.502 . S
C1365 C1367 1.561 . S
C1365 C1368 1.526 . S
C1366 H1350 0.959 . S
C1366 H1351 0.959 . S
C1366 H1352 0.961 . S
C1366 C1365 1.502 . S
C1367 H1353 0.960 . S
C1367 H1354 0.961 . S
C1367 H1355 0.959 . S
C1367 C1365 1.561 . S
C1368 C1365 1.526 . S
C1368 C1369 1.396 . S
C1368 C1373 1.390 . S
C1369 C1363 1.465 . S
C1369 C1368 1.396 . S
C1369 C1370 1.399 . S
C1370 H1356 0.929 . S
C1370 C1369 1.399 . S
C1370 C1371 1.385 . S
C1371 H1357 0.931 . S
C1371 C1370 1.385 . S
C1371 C1372 1.389 . S
C1372 C1371 1.389 . S
C1372 C1373 1.387 . S
C1373 H1358 0.930 . S
C1373 C1368 1.390 . S
C1373 C1372 1.387 . S
H1374 C1386 0.930 . S
H1375 C1388 0.930 . S
H1376 C1389 0.930 . S
H1377 C1393 0.959 . S
H1378 C1393 0.959 . S
H1379 C1393 0.961 . S
H1380 C1394 0.960 . S
H1381 C1394 0.961 . S
H1382 C1394 0.959 . S
H1383 C1397 0.929 . S
H1384 C1398 0.931 . S
H1385 C1400 0.930 . S
C1386 H1374 0.930 . S
C1386 C1387 1.399 . S
C1386 C1391 1.399 . S
C1387 C1386 1.399 . S
C1387 C1388 1.376 . S
C1388 H1375 0.930 . S
C1388 C1387 1.376 . S
C1388 C1389 1.388 . S
C1389 H1376 0.930 . S
C1389 C1388 1.388 . S
C1389 C1390 1.390 . S
C1390 C1389 1.390 . S
C1390 C1391 1.394 . S
C1390 C1396 1.465 . S
C1391 C1386 1.399 . S
C1391 C1390 1.394 . S
C1391 C1392 1.516 . S
C1392 C1391 1.516 . S
C1392 C1393 1.502 . S
C1392 C1394 1.561 . S
C1392 C1395 1.526 . S
C1393 H1377 0.959 . S
C1393 H1378 0.959 . S
C1393 H1379 0.961 . S
C1393 C1392 1.502 . S
C1394 H1380 0.960 . S
C1394 H1381 0.961 . S
C1394 H1382 0.959 . S
C1394 C1392 1.561 . S
C1395 C1392 1.526 . S
C1395 C1396 1.396 . S
C1395 C1400 1.390 . S
C1396 C1390 1.465 . S
C1396 C1395 1.396 . S
C1396 C1397 1.399 . S
C1397 H1383 0.929 . S
C1397 C1396 1.399 . S
C1397 C1398 1.385 . S
C1398 H1384 0.931 . S
C1398 C1397 1.385 . S
C1398 C1399 1.389 . S
C1399 C1398 1.389 . S
C1399 C1400 1.387 . S
C1400 H1385 0.930 . S
C1400 C1395 1.390 . S
C1400 C1399 1.387 . S
H1401 C1413 0.930 . S
H1402 C1415 0.930 . S
H1403 C1416 0.930 . S
H1404 C1420 0.959 . S
H1405 C1420 0.959 . S
H1406 C1420 0.961 . S
H1407 C1421 0.960 . S
H1408 C1421 0.961 . S
H1409 C1421 0.959 . S
H1410 C1424 0.929 . S
H1411 C1425 0.931 . S
H1412 C1427 0.930 . S
C1413 H1401 0.930 . S
C1413 C1414 1.399 . S
C1413 C1418 1.399 . S
C1414 C1413 1.399 . S
C1414 C1415 1.376 . S
C1415 H1402 0.930 . S
C1415 C1414 1.376 . S
C1415 C1416 1.388 . S
C1416 H1403 0.930 . S
C1416 C1415 1.388 . S
C1416 C1417 1.390 . S
C1417 C1416 1.390 . S
C1417 C1418 1.394 . S
C1417 C1423 1.465 . S
C1418 C1413 1.399 . S
C1418 C1417 1.394 . S
C1418 C1419 1.516 . S
C1419 C1418 1.516 . S
C1419 C1420 1.502 . S
C1419 C1421 1.561 . S
C1419 C1422 1.526 . S
C1420 H1404 0.959 . S
C1420 H1405 0.959 . S
C1420 H1406 0.961 . S
C1420 C1419 1.502 . S
C1421 H1407 0.960 . S
C1421 H1408 0.961 . S
C1421 H1409 0.959 . S
C1421 C1419 1.561 . S
C1422 C1419 1.526 . S
C1422 C1423 1.396 . S
C1422 C1427 1.390 . S
C1423 C1417 1.465 . S
C1423 C1422 1.396 . S
C1423 C1424 1.399 . S
C1424 H1410 0.929 . S
C1424 C1423 1.399 . S
C1424 C1425 1.385 . S
C1425 H1411 0.931 . S
C1425 C1424 1.385 . S
C1425 C1426 1.389 . S
C1426 C1425 1.389 . S
C1426 C1427 1.387 . S
C1427 H1412 0.930 . S
C1427 C1422 1.390 . S
C1427 C1426 1.387 . S
H1428 C1440 0.930 . S
H1429 C1442 0.930 . S
H1430 C1443 0.930 . S
H1431 C1447 0.959 . S
H1432 C1447 0.959 . S
H1433 C1447 0.961 . S
H1434 C1448 0.960 . S
H1435 C1448 0.961 . S
H1436 C1448 0.959 . S
H1437 C1451 0.929 . S
H1438 C1452 0.931 . S
H1439 C1454 0.930 . S
C1440 H1428 0.930 . S
C1440 C1441 1.399 . S
C1440 C1445 1.399 . S
C1441 C1440 1.399 . S
C1441 C1442 1.376 . S
C1442 H1429 0.930 . S
C1442 C1441 1.376 . S
C1442 C1443 1.388 . S
C1443 H1430 0.930 . S
C1443 C1442 1.388 . S
C1443 C1444 1.390 . S
C1444 C1443 1.390 . S
C1444 C1445 1.394 . S
C1444 C1450 1.465 . S
C1445 C1440 1.399 . S
C1445 C1444 1.394 . S
C1445 C1446 1.516 . S
C1446 C1445 1.516 . S
C1446 C1447 1.502 . S
C1446 C1448 1.561 . S
C1446 C1449 1.526 . S
C1447 H1431 0.959 . S
C1447 H1432 0.959 . S
C1447 H1433 0.961 . S
C1447 C1446 1.502 . S
C1448 H1434 0.960 . S
C1448 H1435 0.961 . S
C1448 H1436 0.959 . S
C1448 C1446 1.561 . S
C1449 C1446 1.526 . S
C1449 C1450 1.396 . S
C1449 C1454 1.390 . S
C1450 C1444 1.465 . S
C1450 C1449 1.396 . S
C1450 C1451 1.399 . S
C1451 H1437 0.929 . S
C1451 C1450 1.399 . S
C1451 C1452 1.385 . S
C1452 H1438 0.931 . S
C1452 C1451 1.385 . S
C1452 C1453 1.389 . S
C1453 C1452 1.389 . S
C1453 C1454 1.387 . S
C1454 H1439 0.930 . S
C1454 C1449 1.390 . S
C1454 C1453 1.387 . S
H1455 C1467 0.930 . S
H1456 C1469 0.930 . S
H1457 C1470 0.930 . S
H1458 C1474 0.959 . S
H1459 C1474 0.959 . S
H1460 C1474 0.961 . S
H1461 C1475 0.960 . S
H1462 C1475 0.961 . S
H1463 C1475 0.959 . S
H1464 C1478 0.929 . S
H1465 C1479 0.931 . S
H1466 C1481 0.930 . S
C1467 H1455 0.930 . S
C1467 C1468 1.399 . S
C1467 C1472 1.399 . S
C1468 C1467 1.399 . S
C1468 C1469 1.376 . S
C1469 H1456 0.930 . S
C1469 C1468 1.376 . S
C1469 C1470 1.388 . S
C1470 H1457 0.930 . S
C1470 C1469 1.388 . S
C1470 C1471 1.390 . S
C1471 C1470 1.390 . S
C1471 C1472 1.394 . S
C1471 C1477 1.465 . S
C1472 C1467 1.399 . S
C1472 C1471 1.394 . S
C1472 C1473 1.516 . S
C1473 C1472 1.516 . S
C1473 C1474 1.502 . S
C1473 C1475 1.561 . S
C1473 C1476 1.526 . S
C1474 H1458 0.959 . S
C1474 H1459 0.959 . S
C1474 H1460 0.961 . S
C1474 C1473 1.502 . S
C1475 H1461 0.960 . S
C1475 H1462 0.961 . S
C1475 H1463 0.959 . S
C1475 C1473 1.561 . S
C1476 C1473 1.526 . S
C1476 C1477 1.396 . S
C1476 C1481 1.390 . S
C1477 C1471 1.465 . S
C1477 C1476 1.396 . S
C1477 C1478 1.399 . S
C1478 H1464 0.929 . S
C1478 C1477 1.399 . S
C1478 C1479 1.385 . S
C1479 H1465 0.931 . S
C1479 C1478 1.385 . S
C1479 C1480 1.389 . S
C1480 C1479 1.389 . S
C1480 C1481 1.387 . S
C1481 H1466 0.930 . S
C1481 C1476 1.390 . S
C1481 C1480 1.387 . S
H1482 C1494 0.930 . S
H1483 C1496 0.930 . S
H1484 C1497 0.930 . S
H1485 C1501 0.959 . S
H1486 C1501 0.959 . S
H1487 C1501 0.961 . S
H1488 C1502 0.960 . S
H1489 C1502 0.961 . S
H1490 C1502 0.959 . S
H1491 C1505 0.929 . S
H1492 C1506 0.931 . S
H1493 C1508 0.930 . S
C1494 H1482 0.930 . S
C1494 C1495 1.399 . S
C1494 C1499 1.399 . S
C1495 C1494 1.399 . S
C1495 C1496 1.376 . S
C1496 H1483 0.930 . S
C1496 C1495 1.376 . S
C1496 C1497 1.388 . S
C1497 H1484 0.930 . S
C1497 C1496 1.388 . S
C1497 C1498 1.390 . S
C1498 C1497 1.390 . S
C1498 C1499 1.394 . S
C1498 C1504 1.465 . S
C1499 C1494 1.399 . S
C1499 C1498 1.394 . S
C1499 C1500 1.516 . S
C1500 C1499 1.516 . S
C1500 C1501 1.502 . S
C1500 C1502 1.561 . S
C1500 C1503 1.526 . S
C1501 H1485 0.959 . S
C1501 H1486 0.959 . S
C1501 H1487 0.961 . S
C1501 C1500 1.502 . S
C1502 H1488 0.960 . S
C1502 H1489 0.961 . S
C1502 H1490 0.959 . S
C1502 C1500 1.561 . S
C1503 C1500 1.526 . S
C1503 C1504 1.396 . S
C1503 C1508 1.390 . S
C1504 C1498 1.465 . S
C1504 C1503 1.396 . S
C1504 C1505 1.399 . S
C1505 H1491 0.929 . S
C1505 C1504 1.399 . S
C1505 C1506 1.385 . S
C1506 H1492 0.931 . S
C1506 C1505 1.385 . S
C1506 C1507 1.389 . S
C1507 C1506 1.389 . S
C1507 C1508 1.387 . S
C1508 H1493 0.930 . S
C1508 C1503 1.390 . S
C1508 C1507 1.387 . S
H1509 C1521 0.930 . S
H1510 C1523 0.930 . S
H1511 C1524 0.930 . S
H1512 C1528 0.959 . S
H1513 C1528 0.959 . S
H1514 C1528 0.961 . S
H1515 C1529 0.960 . S
H1516 C1529 0.961 . S
H1517 C1529 0.959 . S
H1518 C1532 0.929 . S
H1519 C1533 0.931 . S
H1520 C1535 0.930 . S
C1521 H1509 0.930 . S
C1521 C1522 1.399 . S
C1521 C1526 1.399 . S
C1522 C1521 1.399 . S
C1522 C1523 1.376 . S
C1523 H1510 0.930 . S
C1523 C1522 1.376 . S
C1523 C1524 1.388 . S
C1524 H1511 0.930 . S
C1524 C1523 1.388 . S
C1524 C1525 1.390 . S
C1525 C1524 1.390 . S
C1525 C1526 1.394 . S
C1525 C1531 1.465 . S
C1526 C1521 1.399 . S
C1526 C1525 1.394 . S
C1526 C1527 1.516 . S
C1527 C1526 1.516 . S
C1527 C1528 1.502 . S
C1527 C1529 1.561 . S
C1527 C1530 1.526 . S
C1528 H1512 0.959 . S
C1528 H1513 0.959 . S
C1528 H1514 0.961 . S
C1528 C1527 1.502 . S
C1529 H1515 0.960 . S
C1529 H1516 0.961 . S
C1529 H1517 0.959 . S
C1529 C1527 1.561 . S
C1530 C1527 1.526 . S
C1530 C1531 1.396 . S
C1530 C1535 1.390 . S
C1531 C1525 1.465 . S
C1531 C1530 1.396 . S
C1531 C1532 1.399 . S
C1532 H1518 0.929 . S
C1532 C1531 1.399 . S
C1532 C1533 1.385 . S
C1533 H1519 0.931 . S
C1533 C1532 1.385 . S
C1533 C1534 1.389 . S
C1534 C1533 1.389 . S
C1534 C1535 1.387 . S
C1535 H1520 0.930 . S
C1535 C1530 1.390 . S
C1535 C1534 1.387 . S
H1536 C1548 0.930 . S
H1537 C1550 0.930 . S
H1538 C1551 0.930 . S
H1539 C1555 0.959 . S
H1540 C1555 0.959 . S
H1541 C1555 0.961 . S
H1542 C1556 0.960 . S
H1543 C1556 0.961 . S
H1544 C1556 0.959 . S
H1545 C1559 0.929 . S
H1546 C1560 0.931 . S
H1547 C1562 0.930 . S
C1548 H1536 0.930 . S
C1548 C1549 1.399 . S
C1548 C1553 1.399 . S
C1549 C1548 1.399 . S
C1549 C1550 1.376 . S
C1550 H1537 0.930 . S
C1550 C1549 1.376 . S
C1550 C1551 1.388 . S
C1551 H1538 0.930 . S
C1551 C1550 1.388 . S
C1551 C1552 1.390 . S
C1552 C1551 1.390 . S
C1552 C1553 1.394 . S
C1552 C1558 1.465 . S
C1553 C1548 1.399 . S
C1553 C1552 1.394 . S
C1553 C1554 1.516 . S
C1554 C1553 1.516 . S
C1554 C1555 1.502 . S
C1554 C1556 1.561 . S
C1554 C1557 1.526 . S
C1555 H1539 0.959 . S
C1555 H1540 0.959 . S
C1555 H1541 0.961 . S
C1555 C1554 1.502 . S
C1556 H1542 0.960 . S
C1556 H1543 0.961 . S
C1556 H1544 0.959 . S
C1556 C1554 1.561 . S
C1557 C1554 1.526 . S
C1557 C1558 1.396 . S
C1557 C1562 1.390 . S
C1558 C1552 1.465 . S
C1558 C1557 1.396 . S
C1558 C1559 1.399 . S
C1559 H1545 0.929 . S
C1559 C1558 1.399 . S
C1559 C1560 1.385 . S
C1560 H1546 0.931 . S
C1560 C1559 1.385 . S
C1560 C1561 1.389 . S
C1561 C1560 1.389 . S
C1561 C1562 1.387 . S
C1562 H1547 0.930 . S
C1562 C1557 1.390 . S
C1562 C1561 1.387 . S
H1563 C1575 0.930 . S
H1564 C1577 0.930 . S
H1565 C1578 0.930 . S
H1566 C1582 0.959 . S
H1567 C1582 0.959 . S
H1568 C1582 0.961 . S
H1569 C1583 0.960 . S
H1570 C1583 0.961 . S
H1571 C1583 0.959 . S
H1572 C1586 0.929 . S
H1573 C1587 0.931 . S
H1574 C1589 0.930 . S
C1575 H1563 0.930 . S
C1575 C1576 1.399 . S
C1575 C1580 1.399 . S
C1576 C1575 1.399 . S
C1576 C1577 1.376 . S
C1577 H1564 0.930 . S
C1577 C1576 1.376 . S
C1577 C1578 1.388 . S
C1578 H1565 0.930 . S
C1578 C1577 1.388 . S
C1578 C1579 1.390 . S
C1579 C1578 1.390 . S
C1579 C1580 1.394 . S
C1579 C1585 1.465 . S
C1580 C1575 1.399 . S
C1580 C1579 1.394 . S
C1580 C1581 1.516 . S
C1581 C1580 1.516 . S
C1581 C1582 1.502 . S
C1581 C1583 1.561 . S
C1581 C1584 1.526 . S
C1582 H1566 0.959 . S
C1582 H1567 0.959 . S
C1582 H1568 0.961 . S
C1582 C1581 1.502 . S
C1583 H1569 0.960 . S
C1583 H1570 0.961 . S
C1583 H1571 0.959 . S
C1583 C1581 1.561 . S
C1584 C1581 1.526 . S
C1584 C1585 1.396 . S
C1584 C1589 1.390 . S
C1585 C1579 1.465 . S
C1585 C1584 1.396 . S
C1585 C1586 1.399 . S
C1586 H1572 0.929 . S
C1586 C1585 1.399 . S
C1586 C1587 1.385 . S
C1587 H1573 0.931 . S
C1587 C1586 1.385 . S
C1587 C1588 1.389 . S
C1588 C1587 1.389 . S
C1588 C1589 1.387 . S
C1589 H1574 0.930 . S
C1589 C1584 1.390 . S
C1589 C1588 1.387 . S
H1590 C1602 0.930 . S
H1591 C1604 0.930 . S
H1592 C1605 0.930 . S
H1593 C1609 0.959 . S
H1594 C1609 0.959 . S
H1595 C1609 0.961 . S
H1596 C1610 0.960 . S
H1597 C1610 0.961 . S
H1598 C1610 0.959 . S
H1599 C1613 0.929 . S
H1600 C1614 0.931 . S
H1601 C1616 0.930 . S
C1602 H1590 0.930 . S
C1602 C1603 1.399 . S
C1602 C1607 1.399 . S
C1603 C1602 1.399 . S
C1603 C1604 1.376 . S
C1604 H1591 0.930 . S
C1604 C1603 1.376 . S
C1604 C1605 1.388 . S
C1605 H1592 0.930 . S
C1605 C1604 1.388 . S
C1605 C1606 1.390 . S
C1606 C1605 1.390 . S
C1606 C1607 1.394 . S
C1606 C1612 1.465 . S
C1607 C1602 1.399 . S
C1607 C1606 1.394 . S
C1607 C1608 1.516 . S
C1608 C1607 1.516 . S
C1608 C1609 1.502 . S
C1608 C1610 1.561 . S
C1608 C1611 1.526 . S
C1609 H1593 0.959 . S
C1609 H1594 0.959 . S
C1609 H1595 0.961 . S
C1609 C1608 1.502 . S
C1610 H1596 0.960 . S
C1610 H1597 0.961 . S
C1610 H1598 0.959 . S
C1610 C1608 1.561 . S
C1611 C1608 1.526 . S
C1611 C1612 1.396 . S
C1611 C1616 1.390 . S
C1612 C1606 1.465 . S
C1612 C1611 1.396 . S
C1612 C1613 1.399 . S
C1613 H1599 0.929 . S
C1613 C1612 1.399 . S
C1613 C1614 1.385 . S
C1614 H1600 0.931 . S
C1614 C1613 1.385 . S
C1614 C1615 1.389 . S
C1615 C1614 1.389 . S
C1615 C1616 1.387 . S
C1616 H1601 0.930 . S
C1616 C1611 1.390 . S
C1616 C1615 1.387 . S
H1617 C1629 0.930 . S
H1618 C1631 0.930 . S
H1619 C1632 0.930 . S
H1620 C1636 0.959 . S
H1621 C1636 0.959 . S
H1622 C1636 0.961 . S
H1623 C1637 0.960 . S
H1624 C1637 0.961 . S
H1625 C1637 0.959 . S
H1626 C1640 0.929 . S
H1627 C1641 0.931 . S
H1628 C1643 0.930 . S
C1629 H1617 0.930 . S
C1629 C1630 1.399 . S
C1629 C1634 1.399 . S
C1630 C1629 1.399 . S
C1630 C1631 1.376 . S
C1631 H1618 0.930 . S
C1631 C1630 1.376 . S
C1631 C1632 1.388 . S
C1632 H1619 0.930 . S
C1632 C1631 1.388 . S
C1632 C1633 1.390 . S
C1633 C1632 1.390 . S
C1633 C1634 1.394 . S
C1633 C1639 1.465 . S
C1634 C1629 1.399 . S
C1634 C1633 1.394 . S
C1634 C1635 1.516 . S
C1635 C1634 1.516 . S
C1635 C1636 1.502 . S
C1635 C1637 1.561 . S
C1635 C1638 1.526 . S
C1636 H1620 0.959 . S
C1636 H1621 0.959 . S
C1636 H1622 0.961 . S
C1636 C1635 1.502 . S
C1637 H1623 0.960 . S
C1637 H1624 0.961 . S
C1637 H1625 0.959 . S
C1637 C1635 1.561 . S
C1638 C1635 1.526 . S
C1638 C1639 1.396 . S
C1638 C1643 1.390 . S
C1639 C1633 1.465 . S
C1639 C1638 1.396 . S
C1639 C1640 1.399 . S
C1640 H1626 0.929 . S
C1640 C1639 1.399 . S
C1640 C1641 1.385 . S
C1641 H1627 0.931 . S
C1641 C1640 1.385 . S
C1641 C1642 1.389 . S
C1642 C1641 1.389 . S
C1642 C1643 1.387 . S
C1643 H1628 0.930 . S
C1643 C1638 1.390 . S
C1643 C1642 1.387 . S
H1644 C1656 0.930 . S
H1645 C1658 0.930 . S
H1646 C1659 0.930 . S
H1647 C1663 0.959 . S
H1648 C1663 0.959 . S
H1649 C1663 0.961 . S
H1650 C1664 0.960 . S
H1651 C1664 0.961 . S
H1652 C1664 0.959 . S
H1653 C1667 0.929 . S
H1654 C1668 0.931 . S
H1655 C1670 0.930 . S
C1656 H1644 0.930 . S
C1656 C1657 1.399 . S
C1656 C1661 1.399 . S
C1657 C1656 1.399 . S
C1657 C1658 1.376 . S
C1658 H1645 0.930 . S
C1658 C1657 1.376 . S
C1658 C1659 1.388 . S
C1659 H1646 0.930 . S
C1659 C1658 1.388 . S
C1659 C1660 1.390 . S
C1660 C1659 1.390 . S
C1660 C1661 1.394 . S
C1660 C1666 1.465 . S
C1661 C1656 1.399 . S
C1661 C1660 1.394 . S
C1661 C1662 1.516 . S
C1662 C1661 1.516 . S
C1662 C1663 1.502 . S
C1662 C1664 1.561 . S
C1662 C1665 1.526 . S
C1663 H1647 0.959 . S
C1663 H1648 0.959 . S
C1663 H1649 0.961 . S
C1663 C1662 1.502 . S
C1664 H1650 0.960 . S
C1664 H1651 0.961 . S
C1664 H1652 0.959 . S
C1664 C1662 1.561 . S
C1665 C1662 1.526 . S
C1665 C1666 1.396 . S
C1665 C1670 1.390 . S
C1666 C1660 1.465 . S
C1666 C1665 1.396 . S
C1666 C1667 1.399 . S
C1667 H1653 0.929 . S
C1667 C1666 1.399 . S
C1667 C1668 1.385 . S
C1668 H1654 0.931 . S
C1668 C1667 1.385 . S
C1668 C1669 1.389 . S
C1669 C1668 1.389 . S
C1669 C1670 1.387 . S
C1670 H1655 0.930 . S
C1670 C1665 1.390 . S
C1670 C1669 1.387 . S
H1671 C1683 0.930 . S
H1672 C1685 0.930 . S
H1673 C1686 0.930 . S
H1674 C1690 0.959 . S
H1675 C1690 0.959 . S
H1676 C1690 0.961 . S
H1677 C1691 0.960 . S
H1678 C1691 0.961 . S
H1679 C1691 0.959 . S
H1680 C1694 0.929 . S
H1681 C1695 0.931 . S
H1682 C1697 0.930 . S
C1683 H1671 0.930 . S
C1683 C1684 1.399 . S
C1683 C1688 1.399 . S
C1684 C1683 1.399 . S
C1684 C1685 1.376 . S
C1685 H1672 0.930 . S
C1685 C1684 1.376 . S
C1685 C1686 1.388 . S
C1686 H1673 0.930 . S
C1686 C1685 1.388 . S
C1686 C1687 1.390 . S
C1687 C1686 1.390 . S
C1687 C1688 1.394 . S
C1687 C1693 1.465 . S
C1688 C1683 1.399 . S
C1688 C1687 1.394 . S
C1688 C1689 1.516 . S
C1689 C1688 1.516 . S
C1689 C1690 1.502 . S
C1689 C1691 1.561 . S
C1689 C1692 1.526 . S
C1690 H1674 0.959 . S
C1690 H1675 0.959 . S
C1690 H1676 0.961 . S
C1690 C1689 1.502 . S
C1691 H1677 0.960 . S
C1691 H1678 0.961 . S
C1691 H1679 0.959 . S
C1691 C1689 1.561 . S
C1692 C1689 1.526 . S
C1692 C1693 1.396 . S
C1692 C1697 1.390 . S
C1693 C1687 1.465 . S
C1693 C1692 1.396 . S
C1693 C1694 1.399 . S
C1694 H1680 0.929 . S
C1694 C1693 1.399 . S
C1694 C1695 1.385 . S
C1695 H1681 0.931 . S
C1695 C1694 1.385 . S
C1695 C1696 1.389 . S
C1696 C1695 1.389 . S
C1696 C1697 1.387 . S
C1697 H1682 0.930 . S
C1697 C1692 1.390 . S
C1697 C1696 1.387 . S
H1698 C1710 0.930 . S
H1699 C1712 0.930 . S
H1700 C1713 0.930 . S
H1701 C1717 0.959 . S
H1702 C1717 0.959 . S
H1703 C1717 0.961 . S
H1704 C1718 0.960 . S
H1705 C1718 0.961 . S
H1706 C1718 0.959 . S
H1707 C1721 0.929 . S
H1708 C1722 0.931 . S
H1709 C1724 0.930 . S
C1710 H1698 0.930 . S
C1710 C1711 1.399 . S
C1710 C1715 1.399 . S
C1711 C1710 1.399 . S
C1711 C1712 1.376 . S
C1712 H1699 0.930 . S
C1712 C1711 1.376 . S
C1712 C1713 1.388 . S
C1713 H1700 0.930 . S
C1713 C1712 1.388 . S
C1713 C1714 1.390 . S
C1714 C1713 1.390 . S
C1714 C1715 1.394 . S
C1714 C1720 1.465 . S
C1715 C1710 1.399 . S
C1715 C1714 1.394 . S
C1715 C1716 1.516 . S
C1716 C1715 1.516 . S
C1716 C1717 1.502 . S
C1716 C1718 1.561 . S
C1716 C1719 1.526 . S
C1717 H1701 0.959 . S
C1717 H1702 0.959 . S
C1717 H1703 0.961 . S
C1717 C1716 1.502 . S
C1718 H1704 0.960 . S
C1718 H1705 0.961 . S
C1718 H1706 0.959 . S
C1718 C1716 1.561 . S
C1719 C1716 1.526 . S
C1719 C1720 1.396 . S
C1719 C1724 1.390 . S
C1720 C1714 1.465 . S
C1720 C1719 1.396 . S
C1720 C1721 1.399 . S
C1721 H1707 0.929 . S
C1721 C1720 1.399 . S
C1721 C1722 1.385 . S
C1722 H1708 0.931 . S
C1722 C1721 1.385 . S
C1722 C1723 1.389 . S
C1723 C1722 1.389 . S
C1723 C1724 1.387 . S
C1724 H1709 0.930 . S
C1724 C1719 1.390 . S
C1724 C1723 1.387 . S
H1725 C1737 0.930 . S
H1726 C1739 0.930 . S
H1727 C1740 0.930 . S
H1728 C1744 0.959 . S
H1729 C1744 0.959 . S
H1730 C1744 0.961 . S
H1731 C1745 0.960 . S
H1732 C1745 0.961 . S
H1733 C1745 0.959 . S
H1734 C1748 0.929 . S
H1735 C1749 0.931 . S
H1736 C1751 0.930 . S
C1737 H1725 0.930 . S
C1737 C1738 1.399 . S
C1737 C1742 1.399 . S
C1738 C1737 1.399 . S
C1738 C1739 1.376 . S
C1739 H1726 0.930 . S
C1739 C1738 1.376 . S
C1739 C1740 1.388 . S
C1740 H1727 0.930 . S
C1740 C1739 1.388 . S
C1740 C1741 1.390 . S
C1741 C1740 1.390 . S
C1741 C1742 1.394 . S
C1741 C1747 1.465 . S
C1742 C1737 1.399 . S
C1742 C1741 1.394 . S
C1742 C1743 1.516 . S
C1743 C1742 1.516 . S
C1743 C1744 1.502 . S
C1743 C1745 1.561 . S
C1743 C1746 1.526 . S
C1744 H1728 0.959 . S
C1744 H1729 0.959 . S
C1744 H1730 0.961 . S
C1744 C1743 1.502 . S
C1745 H1731 0.960 . S
C1745 H1732 0.961 . S
C1745 H1733 0.959 . S
C1745 C1743 1.561 . S
C1746 C1743 1.526 . S
C1746 C1747 1.396 . S
C1746 C1751 1.390 . S
C1747 C1741 1.465 . S
C1747 C1746 1.396 . S
C1747 C1748 1.399 . S
C1748 H1734 0.929 . S
C1748 C1747 1.399 . S
C1748 C1749 1.385 . S
C1749 H1735 0.931 . S
C1749 C1748 1.385 . S
C1749 C1750 1.389 . S
C1750 C1749 1.389 . S
C1750 C1751 1.387 . S
C1751 H1736 0.930 . S
C1751 C1746 1.390 . S
C1751 C1750 1.387 . S
H1752 C1764 0.930 . S
H1753 C1766 0.930 . S
H1754 C1767 0.930 . S
H1755 C1771 0.959 . S
H1756 C1771 0.959 . S
H1757 C1771 0.961 . S
H1758 C1772 0.960 . S
H1759 C1772 0.961 . S
H1760 C1772 0.959 . S
H1761 C1775 0.929 . S
H1762 C1776 0.931 . S
H1763 C1778 0.930 . S
C1764 H1752 0.930 . S
C1764 C1765 1.399 . S
C1764 C1769 1.399 . S
C1765 C1764 1.399 . S
C1765 C1766 1.376 . S
C1766 H1753 0.930 . S
C1766 C1765 1.376 . S
C1766 C1767 1.388 . S
C1767 H1754 0.930 . S
C1767 C1766 1.388 . S
C1767 C1768 1.390 . S
C1768 C1767 1.390 . S
C1768 C1769 1.394 . S
C1768 C1774 1.465 . S
C1769 C1764 1.399 . S
C1769 C1768 1.394 . S
C1769 C1770 1.516 . S
C1770 C1769 1.516 . S
C1770 C1771 1.502 . S
C1770 C1772 1.561 . S
C1770 C1773 1.526 . S
C1771 H1755 0.959 . S
C1771 H1756 0.959 . S
C1771 H1757 0.961 . S
C1771 C1770 1.502 . S
C1772 H1758 0.960 . S
C1772 H1759 0.961 . S
C1772 H1760 0.959 . S
C1772 C1770 1.561 . S
C1773 C1770 1.526 . S
C1773 C1774 1.396 . S
C1773 C1778 1.390 . S
C1774 C1768 1.465 . S
C1774 C1773 1.396 . S
C1774 C1775 1.399 . S
C1775 H1761 0.929 . S
C1775 C1774 1.399 . S
C1775 C1776 1.385 . S
C1776 H1762 0.931 . S
C1776 C1775 1.385 . S
C1776 C1777 1.389 . S
C1777 C1776 1.389 . S
C1777 C1778 1.387 . S
C1778 H1763 0.930 . S
C1778 C1773 1.390 . S
C1778 C1777 1.387 . S
H1779 C1791 0.930 . S
H1780 C1793 0.930 . S
H1781 C1794 0.930 . S
H1782 C1798 0.959 . S
H1783 C1798 0.959 . S
H1784 C1798 0.961 . S
H1785 C1799 0.960 . S
H1786 C1799 0.961 . S
H1787 C1799 0.959 . S
H1788 C1802 0.929 . S
H1789 C1803 0.931 . S
H1790 C1805 0.930 . S
C1791 H1779 0.930 . S
C1791 C1792 1.399 . S
C1791 C1796 1.399 . S
C1792 C1791 1.399 . S
C1792 C1793 1.376 . S
C1793 H1780 0.930 . S
C1793 C1792 1.376 . S
C1793 C1794 1.388 . S
C1794 H1781 0.930 . S
C1794 C1793 1.388 . S
C1794 C1795 1.390 . S
C1795 C1794 1.390 . S
C1795 C1796 1.394 . S
C1795 C1801 1.465 . S
C1796 C1791 1.399 . S
C1796 C1795 1.394 . S
C1796 C1797 1.516 . S
C1797 C1796 1.516 . S
C1797 C1798 1.502 . S
C1797 C1799 1.561 . S
C1797 C1800 1.526 . S
C1798 H1782 0.959 . S
C1798 H1783 0.959 . S
C1798 H1784 0.961 . S
C1798 C1797 1.502 . S
C1799 H1785 0.960 . S
C1799 H1786 0.961 . S
C1799 H1787 0.959 . S
C1799 C1797 1.561 . S
C1800 C1797 1.526 . S
C1800 C1801 1.396 . S
C1800 C1805 1.390 . S
C1801 C1795 1.465 . S
C1801 C1800 1.396 . S
C1801 C1802 1.399 . S
C1802 H1788 0.929 . S
C1802 C1801 1.399 . S
C1802 C1803 1.385 . S
C1803 H1789 0.931 . S
C1803 C1802 1.385 . S
C1803 C1804 1.389 . S
C1804 C1803 1.389 . S
C1804 C1805 1.387 . S
C1805 H1790 0.930 . S
C1805 C1800 1.390 . S
C1805 C1804 1.387 . S
H1806 C1818 0.930 . S
H1807 C1820 0.930 . S
H1808 C1821 0.930 . S
H1809 C1825 0.959 . S
H1810 C1825 0.959 . S
H1811 C1825 0.961 . S
H1812 C1826 0.960 . S
H1813 C1826 0.961 . S
H1814 C1826 0.959 . S
H1815 C1829 0.929 . S
H1816 C1830 0.931 . S
H1817 C1832 0.930 . S
C1818 H1806 0.930 . S
C1818 C1819 1.399 . S
C1818 C1823 1.399 . S
C1819 C1818 1.399 . S
C1819 C1820 1.376 . S
C1820 H1807 0.930 . S
C1820 C1819 1.376 . S
C1820 C1821 1.388 . S
C1821 H1808 0.930 . S
C1821 C1820 1.388 . S
C1821 C1822 1.390 . S
C1822 C1821 1.390 . S
C1822 C1823 1.394 . S
C1822 C1828 1.465 . S
C1823 C1818 1.399 . S
C1823 C1822 1.394 . S
C1823 C1824 1.516 . S
C1824 C1823 1.516 . S
C1824 C1825 1.502 . S
C1824 C1826 1.561 . S
C1824 C1827 1.526 . S
C1825 H1809 0.959 . S
C1825 H1810 0.959 . S
C1825 H1811 0.961 . S
C1825 C1824 1.502 . S
C1826 H1812 0.960 . S
C1826 H1813 0.961 . S
C1826 H1814 0.959 . S
C1826 C1824 1.561 . S
C1827 C1824 1.526 . S
C1827 C1828 1.396 . S
C1827 C1832 1.390 . S
C1828 C1822 1.465 . S
C1828 C1827 1.396 . S
C1828 C1829 1.399 . S
C1829 H1815 0.929 . S
C1829 C1828 1.399 . S
C1829 C1830 1.385 . S
C1830 H1816 0.931 . S
C1830 C1829 1.385 . S
C1830 C1831 1.389 . S
C1831 C1830 1.389 . S
C1831 C1832 1.387 . S
C1832 H1817 0.930 . S
C1832 C1827 1.390 . S
C1832 C1831 1.387 . S
H1833 C1845 0.930 . S
H1834 C1847 0.930 . S
H1835 C1848 0.930 . S
H1836 C1852 0.959 . S
H1837 C1852 0.959 . S
H1838 C1852 0.961 . S
H1839 C1853 0.960 . S
H1840 C1853 0.961 . S
H1841 C1853 0.959 . S
H1842 C1856 0.929 . S
H1843 C1857 0.931 . S
H1844 C1859 0.930 . S
C1845 H1833 0.930 . S
C1845 C1846 1.399 . S
C1845 C1850 1.399 . S
C1846 C1845 1.399 . S
C1846 C1847 1.376 . S
C1847 H1834 0.930 . S
C1847 C1846 1.376 . S
C1847 C1848 1.388 . S
C1848 H1835 0.930 . S
C1848 C1847 1.388 . S
C1848 C1849 1.390 . S
C1849 C1848 1.390 . S
C1849 C1850 1.394 . S
C1849 C1855 1.465 . S
C1850 C1845 1.399 . S
C1850 C1849 1.394 . S
C1850 C1851 1.516 . S
C1851 C1850 1.516 . S
C1851 C1852 1.502 . S
C1851 C1853 1.561 . S
C1851 C1854 1.526 . S
C1852 H1836 0.959 . S
C1852 H1837 0.959 . S
C1852 H1838 0.961 . S
C1852 C1851 1.502 . S
C1853 H1839 0.960 . S
C1853 H1840 0.961 . S
C1853 H1841 0.959 . S
C1853 C1851 1.561 . S
C1854 C1851 1.526 . S
C1854 C1855 1.396 . S
C1854 C1859 1.390 . S
C1855 C1849 1.465 . S
C1855 C1854 1.396 . S
C1855 C1856 1.399 . S
C1856 H1842 0.929 . S
C1856 C1855 1.399 . S
C1856 C1857 1.385 . S
C1857 H1843 0.931 . S
C1857 C1856 1.385 . S
C1857 C1858 1.389 . S
C1858 C1857 1.389 . S
C1858 C1859 1.387 . S
C1859 H1844 0.930 . S
C1859 C1854 1.390 . S
C1859 C1858 1.387 . S
H1860 C1872 0.930 . S
H1861 C1874 0.930 . S
H1862 C1875 0.930 . S
H1863 C1879 0.959 . S
H1864 C1879 0.959 . S
H1865 C1879 0.961 . S
H1866 C1880 0.960 . S
H1867 C1880 0.961 . S
H1868 C1880 0.959 . S
H1869 C1883 0.929 . S
H1870 C1884 0.931 . S
H1871 C1886 0.930 . S
C1872 H1860 0.930 . S
C1872 C1873 1.399 . S
C1872 C1877 1.399 . S
C1873 C1872 1.399 . S
C1873 C1874 1.376 . S
C1874 H1861 0.930 . S
C1874 C1873 1.376 . S
C1874 C1875 1.388 . S
C1875 H1862 0.930 . S
C1875 C1874 1.388 . S
C1875 C1876 1.390 . S
C1876 C1875 1.390 . S
C1876 C1877 1.394 . S
C1876 C1882 1.465 . S
C1877 C1872 1.399 . S
C1877 C1876 1.394 . S
C1877 C1878 1.516 . S
C1878 C1877 1.516 . S
C1878 C1879 1.502 . S
C1878 C1880 1.561 . S
C1878 C1881 1.526 . S
C1879 H1863 0.959 . S
C1879 H1864 0.959 . S
C1879 H1865 0.961 . S
C1879 C1878 1.502 . S
C1880 H1866 0.960 . S
C1880 H1867 0.961 . S
C1880 H1868 0.959 . S
C1880 C1878 1.561 . S
C1881 C1878 1.526 . S
C1881 C1882 1.396 . S
C1881 C1886 1.390 . S
C1882 C1876 1.465 . S
C1882 C1881 1.396 . S
C1882 C1883 1.399 . S
C1883 H1869 0.929 . S
C1883 C1882 1.399 . S
C1883 C1884 1.385 . S
C1884 H1870 0.931 . S
C1884 C1883 1.385 . S
C1884 C1885 1.389 . S
C1885 C1884 1.389 . S
C1885 C1886 1.387 . S
C1886 H1871 0.930 . S
C1886 C1881 1.390 . S
C1886 C1885 1.387 . S
H1887 C1899 0.930 . S
H1888 C1901 0.930 . S
H1889 C1902 0.930 . S
H1890 C1906 0.959 . S
H1891 C1906 0.959 . S
H1892 C1906 0.961 . S
H1893 C1907 0.960 . S
H1894 C1907 0.961 . S
H1895 C1907 0.959 . S
H1896 C1910 0.929 . S
H1897 C1911 0.931 . S
H1898 C1913 0.930 . S
C1899 H1887 0.930 . S
C1899 C1900 1.399 . S
C1899 C1904 1.399 . S
C1900 C1899 1.399 . S
C1900 C1901 1.376 . S
C1901 H1888 0.930 . S
C1901 C1900 1.376 . S
C1901 C1902 1.388 . S
C1902 H1889 0.930 . S
C1902 C1901 1.388 . S
C1902 C1903 1.390 . S
C1903 C1902 1.390 . S
C1903 C1904 1.394 . S
C1903 C1909 1.465 . S
C1904 C1899 1.399 . S
C1904 C1903 1.394 . S
C1904 C1905 1.516 . S
C1905 C1904 1.516 . S
C1905 C1906 1.502 . S
C1905 C1907 1.561 . S
C1905 C1908 1.526 . S
C1906 H1890 0.959 . S
C1906 H1891 0.959 . S
C1906 H1892 0.961 . S
C1906 C1905 1.502 . S
C1907 H1893 0.960 . S
C1907 H1894 0.961 . S
C1907 H1895 0.959 . S
C1907 C1905 1.561 . S
C1908 C1905 1.526 . S
C1908 C1909 1.396 . S
C1908 C1913 1.390 . S
C1909 C1903 1.465 . S
C1909 C1908 1.396 . S
C1909 C1910 1.399 . S
C1910 H1896 0.929 . S
C1910 C1909 1.399 . S
C1910 C1911 1.385 . S
C1911 H1897 0.931 . S
C1911 C1910 1.385 . S
C1911 C1912 1.389 . S
C1912 C1911 1.389 . S
C1912 C1913 1.387 . S
C1913 H1898 0.930 . S
C1913 C1908 1.390 . S
C1913 C1912 1.387 . S
H1914 C1926 0.930 . S
H1915 C1928 0.930 . S
H1916 C1929 0.930 . S
H1917 C1933 0.959 . S
H1918 C1933 0.959 . S
H1919 C1933 0.961 . S
H1920 C1934 0.960 . S
H1921 C1934 0.961 . S
H1922 C1934 0.959 . S
H1923 C1937 0.929 . S
H1924 C1938 0.931 . S
H1925 C1940 0.930 . S
C1926 H1914 0.930 . S
C1926 C1927 1.399 . S
C1926 C1931 1.399 . S
C1927 C1926 1.399 . S
C1927 C1928 1.376 . S
C1928 H1915 0.930 . S
C1928 C1927 1.376 . S
C1928 C1929 1.388 . S
C1929 H1916 0.930 . S
C1929 C1928 1.388 . S
C1929 C1930 1.390 . S
C1930 C1929 1.390 . S
C1930 C1931 1.394 . S
C1930 C1936 1.465 . S
C1931 C1926 1.399 . S
C1931 C1930 1.394 . S
C1931 C1932 1.516 . S
C1932 C1931 1.516 . S
C1932 C1933 1.502 . S
C1932 C1934 1.561 . S
C1932 C1935 1.526 . S
C1933 H1917 0.959 . S
C1933 H1918 0.959 . S
C1933 H1919 0.961 . S
C1933 C1932 1.502 . S
C1934 H1920 0.960 . S
C1934 H1921 0.961 . S
C1934 H1922 0.959 . S
C1934 C1932 1.561 . S
C1935 C1932 1.526 . S
C1935 C1936 1.396 . S
C1935 C1940 1.390 . S
C1936 C1930 1.465 . S
C1936 C1935 1.396 . S
C1936 C1937 1.399 . S
C1937 H1923 0.929 . S
C1937 C1936 1.399 . S
C1937 C1938 1.385 . S
C1938 H1924 0.931 . S
C1938 C1937 1.385 . S
C1938 C1939 1.389 . S
C1939 C1938 1.389 . S
C1939 C1940 1.387 . S
C1940 H1925 0.930 . S
C1940 C1935 1.390 . S
C1940 C1939 1.387 . S
H1941 C1953 0.930 . S
H1942 C1955 0.930 . S
H1943 C1956 0.930 . S
H1944 C1960 0.959 . S
H1945 C1960 0.959 . S
H1946 C1960 0.961 . S
H1947 C1961 0.960 . S
H1948 C1961 0.961 . S
H1949 C1961 0.959 . S
H1950 C1964 0.929 . S
H1951 C1965 0.931 . S
H1952 C1967 0.930 . S
C1953 H1941 0.930 . S
C1953 C1954 1.399 . S
C1953 C1958 1.399 . S
C1954 C1953 1.399 . S
C1954 C1955 1.376 . S
C1955 H1942 0.930 . S
C1955 C1954 1.376 . S
C1955 C1956 1.388 . S
C1956 H1943 0.930 . S
C1956 C1955 1.388 . S
C1956 C1957 1.390 . S
C1957 C1956 1.390 . S
C1957 C1958 1.394 . S
C1957 C1963 1.465 . S
C1958 C1953 1.399 . S
C1958 C1957 1.394 . S
C1958 C1959 1.516 . S
C1959 C1958 1.516 . S
C1959 C1960 1.502 . S
C1959 C1961 1.561 . S
C1959 C1962 1.526 . S
C1960 H1944 0.959 . S
C1960 H1945 0.959 . S
C1960 H1946 0.961 . S
C1960 C1959 1.502 . S
C1961 H1947 0.960 . S
C1961 H1948 0.961 . S
C1961 H1949 0.959 . S
C1961 C1959 1.561 . S
C1962 C1959 1.526 . S
C1962 C1963 1.396 . S
C1962 C1967 1.390 . S
C1963 C1957 1.465 . S
C1963 C1962 1.396 . S
C1963 C1964 1.399 . S
C1964 H1950 0.929 . S
C1964 C1963 1.399 . S
C1964 C1965 1.385 . S
C1965 H1951 0.931 . S
C1965 C1964 1.385 . S
C1965 C1966 1.389 . S
C1966 C1965 1.389 . S
C1966 C1967 1.387 . S
C1967 H1952 0.930 . S
C1967 C1962 1.390 . S
C1967 C1966 1.387 . S
H1968 C1980 0.930 . S
H1969 C1982 0.930 . S
H1970 C1983 0.930 . S
H1971 C1987 0.959 . S
H1972 C1987 0.959 . S
H1973 C1987 0.961 . S
H1974 C1988 0.960 . S
H1975 C1988 0.961 . S
H1976 C1988 0.959 . S
H1977 C1991 0.929 . S
H1978 C1992 0.931 . S
H1979 C1994 0.930 . S
C1980 H1968 0.930 . S
C1980 C1981 1.399 . S
C1980 C1985 1.399 . S
C1981 C1980 1.399 . S
C1981 C1982 1.376 . S
C1982 H1969 0.930 . S
C1982 C1981 1.376 . S
C1982 C1983 1.388 . S
C1983 H1970 0.930 . S
C1983 C1982 1.388 . S
C1983 C1984 1.390 . S
C1984 C1983 1.390 . S
C1984 C1985 1.394 . S
C1984 C1990 1.465 . S
C1985 C1980 1.399 . S
C1985 C1984 1.394 . S
C1985 C1986 1.516 . S
C1986 C1985 1.516 . S
C1986 C1987 1.502 . S
C1986 C1988 1.561 . S
C1986 C1989 1.526 . S
C1987 H1971 0.959 . S
C1987 H1972 0.959 . S
C1987 H1973 0.961 . S
C1987 C1986 1.502 . S
C1988 H1974 0.960 . S
C1988 H1975 0.961 . S
C1988 H1976 0.959 . S
C1988 C1986 1.561 . S
C1989 C1986 1.526 . S
C1989 C1990 1.396 . S
C1989 C1994 1.390 . S
C1990 C1984 1.465 . S
C1990 C1989 1.396 . S
C1990 C1991 1.399 . S
C1991 H1977 0.929 . S
C1991 C1990 1.399 . S
C1991 C1992 1.385 . S
C1992 H1978 0.931 . S
C1992 C1991 1.385 . S
C1992 C1993 1.389 . S
C1993 C1992 1.389 . S
C1993 C1994 1.387 . S
C1994 H1979 0.930 . S
C1994 C1989 1.390 . S
C1994 C1993 1.387 . S
H1995 C2007 0.930 . S
H1996 C2009 0.930 . S
H1997 C2010 0.930 . S
H1998 C2014 0.959 . S
H1999 C2014 0.959 . S
H2000 C2014 0.961 . S
H2001 C2015 0.960 . S
H2002 C2015 0.961 . S
H2003 C2015 0.959 . S
H2004 C2018 0.929 . S
H2005 C2019 0.931 . S
H2006 C2021 0.930 . S
C2007 H1995 0.930 . S
C2007 C2008 1.399 . S
C2007 C2012 1.399 . S
C2008 C2007 1.399 . S
C2008 C2009 1.376 . S
C2009 H1996 0.930 . S
C2009 C2008 1.376 . S
C2009 C2010 1.388 . S
C2010 H1997 0.930 . S
C2010 C2009 1.388 . S
C2010 C2011 1.390 . S
C2011 C2010 1.390 . S
C2011 C2012 1.394 . S
C2011 C2017 1.465 . S
C2012 C2007 1.399 . S
C2012 C2011 1.394 . S
C2012 C2013 1.516 . S
C2013 C2012 1.516 . S
C2013 C2014 1.502 . S
C2013 C2015 1.561 . S
C2013 C2016 1.526 . S
C2014 H1998 0.959 . S
C2014 H1999 0.959 . S
C2014 H2000 0.961 . S
C2014 C2013 1.502 . S
C2015 H2001 0.960 . S
C2015 H2002 0.961 . S
C2015 H2003 0.959 . S
C2015 C2013 1.561 . S
C2016 C2013 1.526 . S
C2016 C2017 1.396 . S
C2016 C2021 1.390 . S
C2017 C2011 1.465 . S
C2017 C2016 1.396 . S
C2017 C2018 1.399 . S
C2018 H2004 0.929 . S
C2018 C2017 1.399 . S
C2018 C2019 1.385 . S
C2019 H2005 0.931 . S
C2019 C2018 1.385 . S
C2019 C2020 1.389 . S
C2020 C2019 1.389 . S
C2020 C2021 1.387 . S
C2021 H2006 0.930 . S
C2021 C2016 1.390 . S
C2021 C2020 1.387 . S
H2022 C2034 0.930 . S
H2023 C2036 0.930 . S
H2024 C2037 0.930 . S
H2025 C2041 0.959 . S
H2026 C2041 0.959 . S
H2027 C2041 0.961 . S
H2028 C2042 0.960 . S
H2029 C2042 0.961 . S
H2030 C2042 0.959 . S
H2031 C2045 0.929 . S
H2032 C2046 0.931 . S
H2033 C2048 0.930 . S
C2034 H2022 0.930 . S
C2034 C2035 1.399 . S
C2034 C2039 1.399 . S
C2035 C2034 1.399 . S
C2035 C2036 1.376 . S
C2036 H2023 0.930 . S
C2036 C2035 1.376 . S
C2036 C2037 1.388 . S
C2037 H2024 0.930 . S
C2037 C2036 1.388 . S
C2037 C2038 1.390 . S
C2038 C2037 1.390 . S
C2038 C2039 1.394 . S
C2038 C2044 1.465 . S
C2039 C2034 1.399 . S
C2039 C2038 1.394 . S
C2039 C2040 1.516 . S
C2040 C2039 1.516 . S
C2040 C2041 1.502 . S
C2040 C2042 1.561 . S
C2040 C2043 1.526 . S
C2041 H2025 0.959 . S
C2041 H2026 0.959 . S
C2041 H2027 0.961 . S
C2041 C2040 1.502 . S
C2042 H2028 0.960 . S
C2042 H2029 0.961 . S
C2042 H2030 0.959 . S
C2042 C2040 1.561 . S
C2043 C2040 1.526 . S
C2043 C2044 1.396 . S
C2043 C2048 1.390 . S
C2044 C2038 1.465 . S
C2044 C2043 1.396 . S
C2044 C2045 1.399 . S
C2045 H2031 0.929 . S
C2045 C2044 1.399 . S
C2045 C2046 1.385 . S
C2046 H2032 0.931 . S
C2046 C2045 1.385 . S
C2046 C2047 1.389 . S
C2047 C2046 1.389 . S
C2047 C2048 1.387 . S
C2048 H2033 0.930 . S
C2048 C2043 1.390 . S
C2048 C2047 1.387 . S
H2049 C2061 0.930 . S
H2050 C2063 0.930 . S
H2051 C2064 0.930 . S
H2052 C2068 0.959 . S
H2053 C2068 0.959 . S
H2054 C2068 0.961 . S
H2055 C2069 0.960 . S
H2056 C2069 0.961 . S
H2057 C2069 0.959 . S
H2058 C2072 0.929 . S
H2059 C2073 0.931 . S
H2060 C2075 0.930 . S
C2061 H2049 0.930 . S
C2061 C2062 1.399 . S
C2061 C2066 1.399 . S
C2062 C2061 1.399 . S
C2062 C2063 1.376 . S
C2063 H2050 0.930 . S
C2063 C2062 1.376 . S
C2063 C2064 1.388 . S
C2064 H2051 0.930 . S
C2064 C2063 1.388 . S
C2064 C2065 1.390 . S
C2065 C2064 1.390 . S
C2065 C2066 1.394 . S
C2065 C2071 1.465 . S
C2066 C2061 1.399 . S
C2066 C2065 1.394 . S
C2066 C2067 1.516 . S
C2067 C2066 1.516 . S
C2067 C2068 1.502 . S
C2067 C2069 1.561 . S
C2067 C2070 1.526 . S
C2068 H2052 0.959 . S
C2068 H2053 0.959 . S
C2068 H2054 0.961 . S
C2068 C2067 1.502 . S
C2069 H2055 0.960 . S
C2069 H2056 0.961 . S
C2069 H2057 0.959 . S
C2069 C2067 1.561 . S
C2070 C2067 1.526 . S
C2070 C2071 1.396 . S
C2070 C2075 1.390 . S
C2071 C2065 1.465 . S
C2071 C2070 1.396 . S
C2071 C2072 1.399 . S
C2072 H2058 0.929 . S
C2072 C2071 1.399 . S
C2072 C2073 1.385 . S
C2073 H2059 0.931 . S
C2073 C2072 1.385 . S
C2073 C2074 1.389 . S
C2074 C2073 1.389 . S
C2074 C2075 1.387 . S
C2075 H2060 0.930 . S
C2075 C2070 1.390 . S
C2075 C2074 1.387 . S
H2076 C2088 0.930 . S
H2077 C2090 0.930 . S
H2078 C2091 0.930 . S
H2079 C2095 0.959 . S
H2080 C2095 0.959 . S
H2081 C2095 0.961 . S
H2082 C2096 0.960 . S
H2083 C2096 0.961 . S
H2084 C2096 0.959 . S
H2085 C2099 0.929 . S
H2086 C2100 0.931 . S
H2087 C2102 0.930 . S
C2088 H2076 0.930 . S
C2088 C2089 1.399 . S
C2088 C2093 1.399 . S
C2089 C2088 1.399 . S
C2089 C2090 1.376 . S
C2090 H2077 0.930 . S
C2090 C2089 1.376 . S
C2090 C2091 1.388 . S
C2091 H2078 0.930 . S
C2091 C2090 1.388 . S
C2091 C2092 1.390 . S
C2092 C2091 1.390 . S
C2092 C2093 1.394 . S
C2092 C2098 1.465 . S
C2093 C2088 1.399 . S
C2093 C2092 1.394 . S
C2093 C2094 1.516 . S
C2094 C2093 1.516 . S
C2094 C2095 1.502 . S
C2094 C2096 1.561 . S
C2094 C2097 1.526 . S
C2095 H2079 0.959 . S
C2095 H2080 0.959 . S
C2095 H2081 0.961 . S
C2095 C2094 1.502 . S
C2096 H2082 0.960 . S
C2096 H2083 0.961 . S
C2096 H2084 0.959 . S
C2096 C2094 1.561 . S
C2097 C2094 1.526 . S
C2097 C2098 1.396 . S
C2097 C2102 1.390 . S
C2098 C2092 1.465 . S
C2098 C2097 1.396 . S
C2098 C2099 1.399 . S
C2099 H2085 0.929 . S
C2099 C2098 1.399 . S
C2099 C2100 1.385 . S
C2100 H2086 0.931 . S
C2100 C2099 1.385 . S
C2100 C2101 1.389 . S
C2101 C2100 1.389 . S
C2101 C2102 1.387 . S
C2102 H2087 0.930 . S
C2102 C2097 1.390 . S
C2102 C2101 1.387 . S
H2103 C2115 0.930 . S
H2104 C2117 0.930 . S
H2105 C2118 0.930 . S
H2106 C2122 0.959 . S
H2107 C2122 0.959 . S
H2108 C2122 0.961 . S
H2109 C2123 0.960 . S
H2110 C2123 0.961 . S
H2111 C2123 0.959 . S
H2112 C2126 0.929 . S
H2113 C2127 0.931 . S
H2114 C2129 0.930 . S
C2115 H2103 0.930 . S
C2115 C2116 1.399 . S
C2115 C2120 1.399 . S
C2116 C2115 1.399 . S
C2116 C2117 1.376 . S
C2117 H2104 0.930 . S
C2117 C2116 1.376 . S
C2117 C2118 1.388 . S
C2118 H2105 0.930 . S
C2118 C2117 1.388 . S
C2118 C2119 1.390 . S
C2119 C2118 1.390 . S
C2119 C2120 1.394 . S
C2119 C2125 1.465 . S
C2120 C2115 1.399 . S
C2120 C2119 1.394 . S
C2120 C2121 1.516 . S
C2121 C2120 1.516 . S
C2121 C2122 1.502 . S
C2121 C2123 1.561 . S
C2121 C2124 1.526 . S
C2122 H2106 0.959 . S
C2122 H2107 0.959 . S
C2122 H2108 0.961 . S
C2122 C2121 1.502 . S
C2123 H2109 0.960 . S
C2123 H2110 0.961 . S
C2123 H2111 0.959 . S
C2123 C2121 1.561 . S
C2124 C2121 1.526 . S
C2124 C2125 1.396 . S
C2124 C2129 1.390 . S
C2125 C2119 1.465 . S
C2125 C2124 1.396 . S
C2125 C2126 1.399 . S
C2126 H2112 0.929 . S
C2126 C2125 1.399 . S
C2126 C2127 1.385 . S
C2127 H2113 0.931 . S
C2127 C2126 1.385 . S
C2127 C2128 1.389 . S
C2128 C2127 1.389 . S
C2128 C2129 1.387 . S
C2129 H2114 0.930 . S
C2129 C2124 1.390 . S
C2129 C2128 1.387 . S
H2130 C2142 0.930 . S
H2131 C2144 0.930 . S
H2132 C2145 0.930 . S
H2133 C2149 0.959 . S
H2134 C2149 0.959 . S
H2135 C2149 0.961 . S
H2136 C2150 0.960 . S
H2137 C2150 0.961 . S
H2138 C2150 0.959 . S
H2139 C2153 0.929 . S
H2140 C2154 0.931 . S
H2141 C2156 0.930 . S
C2142 H2130 0.930 . S
C2142 C2143 1.399 . S
C2142 C2147 1.399 . S
C2143 C2142 1.399 . S
C2143 C2144 1.376 . S
C2144 H2131 0.930 . S
C2144 C2143 1.376 . S
C2144 C2145 1.388 . S
C2145 H2132 0.930 . S
C2145 C2144 1.388 . S
C2145 C2146 1.390 . S
C2146 C2145 1.390 . S
C2146 C2147 1.394 . S
C2146 C2152 1.465 . S
C2147 C2142 1.399 . S
C2147 C2146 1.394 . S
C2147 C2148 1.516 . S
C2148 C2147 1.516 . S
C2148 C2149 1.502 . S
C2148 C2150 1.561 . S
C2148 C2151 1.526 . S
C2149 H2133 0.959 . S
C2149 H2134 0.959 . S
C2149 H2135 0.961 . S
C2149 C2148 1.502 . S
C2150 H2136 0.960 . S
C2150 H2137 0.961 . S
C2150 H2138 0.959 . S
C2150 C2148 1.561 . S
C2151 C2148 1.526 . S
C2151 C2152 1.396 . S
C2151 C2156 1.390 . S
C2152 C2146 1.465 . S
C2152 C2151 1.396 . S
C2152 C2153 1.399 . S
C2153 H2139 0.929 . S
C2153 C2152 1.399 . S
C2153 C2154 1.385 . S
C2154 H2140 0.931 . S
C2154 C2153 1.385 . S
C2154 C2155 1.389 . S
C2155 C2154 1.389 . S
C2155 C2156 1.387 . S
C2156 H2141 0.930 . S
C2156 C2151 1.390 . S
C2156 C2155 1.387 . S
H2157 C2169 0.930 . S
H2158 C2171 0.930 . S
H2159 C2172 0.930 . S
H2160 C2176 0.959 . S
H2161 C2176 0.959 . S
H2162 C2176 0.961 . S
H2163 C2177 0.960 . S
H2164 C2177 0.961 . S
H2165 C2177 0.959 . S
H2166 C2180 0.929 . S
H2167 C2181 0.931 . S
H2168 C2183 0.930 . S
C2169 H2157 0.930 . S
C2169 C2170 1.399 . S
C2169 C2174 1.399 . S
C2170 C2169 1.399 . S
C2170 C2171 1.376 . S
C2171 H2158 0.930 . S
C2171 C2170 1.376 . S
C2171 C2172 1.388 . S
C2172 H2159 0.930 . S
C2172 C2171 1.388 . S
C2172 C2173 1.390 . S
C2173 C2172 1.390 . S
C2173 C2174 1.394 . S
C2173 C2179 1.465 . S
C2174 C2169 1.399 . S
C2174 C2173 1.394 . S
C2174 C2175 1.516 . S
C2175 C2174 1.516 . S
C2175 C2176 1.502 . S
C2175 C2177 1.561 . S
C2175 C2178 1.526 . S
C2176 H2160 0.959 . S
C2176 H2161 0.959 . S
C2176 H2162 0.961 . S
C2176 C2175 1.502 . S
C2177 H2163 0.960 . S
C2177 H2164 0.961 . S
C2177 H2165 0.959 . S
C2177 C2175 1.561 . S
C2178 C2175 1.526 . S
C2178 C2179 1.396 . S
C2178 C2183 1.390 . S
C2179 C2173 1.465 . S
C2179 C2178 1.396 . S
C2179 C2180 1.399 . S
C2180 H2166 0.929 . S
C2180 C2179 1.399 . S
C2180 C2181 1.385 . S
C2181 H2167 0.931 . S
C2181 C2180 1.385 . S
C2181 C2182 1.389 . S
C2182 C2181 1.389 . S
C2182 C2183 1.387 . S
C2183 H2168 0.930 . S
C2183 C2178 1.390 . S
C2183 C2182 1.387 . S
H2184 C2196 0.930 . S
H2185 C2198 0.930 . S
H2186 C2199 0.930 . S
H2187 C2203 0.959 . S
H2188 C2203 0.959 . S
H2189 C2203 0.961 . S
H2190 C2204 0.960 . S
H2191 C2204 0.961 . S
H2192 C2204 0.959 . S
H2193 C2207 0.929 . S
H2194 C2208 0.931 . S
H2195 C2210 0.930 . S
C2196 H2184 0.930 . S
C2196 C2197 1.399 . S
C2196 C2201 1.399 . S
C2197 C2196 1.399 . S
C2197 C2198 1.376 . S
C2198 H2185 0.930 . S
C2198 C2197 1.376 . S
C2198 C2199 1.388 . S
C2199 H2186 0.930 . S
C2199 C2198 1.388 . S
C2199 C2200 1.390 . S
C2200 C2199 1.390 . S
C2200 C2201 1.394 . S
C2200 C2206 1.465 . S
C2201 C2196 1.399 . S
C2201 C2200 1.394 . S
C2201 C2202 1.516 . S
C2202 C2201 1.516 . S
C2202 C2203 1.502 . S
C2202 C2204 1.561 . S
C2202 C2205 1.526 . S
C2203 H2187 0.959 . S
C2203 H2188 0.959 . S
C2203 H2189 0.961 . S
C2203 C2202 1.502 . S
C2204 H2190 0.960 . S
C2204 H2191 0.961 . S
C2204 H2192 0.959 . S
C2204 C2202 1.561 . S
C2205 C2202 1.526 . S
C2205 C2206 1.396 . S
C2205 C2210 1.390 . S
C2206 C2200 1.465 . S
C2206 C2205 1.396 . S
C2206 C2207 1.399 . S
C2207 H2193 0.929 . S
C2207 C2206 1.399 . S
C2207 C2208 1.385 . S
C2208 H2194 0.931 . S
C2208 C2207 1.385 . S
C2208 C2209 1.389 . S
C2209 C2208 1.389 . S
C2209 C2210 1.387 . S
C2210 H2195 0.930 . S
C2210 C2205 1.390 . S
C2210 C2209 1.387 . S
H2211 C2223 0.930 . S
H2212 C2225 0.930 . S
H2213 C2226 0.930 . S
H2214 C2230 0.959 . S
H2215 C2230 0.959 . S
H2216 C2230 0.961 . S
H2217 C2231 0.960 . S
H2218 C2231 0.961 . S
H2219 C2231 0.959 . S
H2220 C2234 0.929 . S
H2221 C2235 0.931 . S
H2222 C2237 0.930 . S
C2223 H2211 0.930 . S
C2223 C2224 1.399 . S
C2223 C2228 1.399 . S
C2224 C2223 1.399 . S
C2224 C2225 1.376 . S
C2225 H2212 0.930 . S
C2225 C2224 1.376 . S
C2225 C2226 1.388 . S
C2226 H2213 0.930 . S
C2226 C2225 1.388 . S
C2226 C2227 1.390 . S
C2227 C2226 1.390 . S
C2227 C2228 1.394 . S
C2227 C2233 1.465 . S
C2228 C2223 1.399 . S
C2228 C2227 1.394 . S
C2228 C2229 1.516 . S
C2229 C2228 1.516 . S
C2229 C2230 1.502 . S
C2229 C2231 1.561 . S
C2229 C2232 1.526 . S
C2230 H2214 0.959 . S
C2230 H2215 0.959 . S
C2230 H2216 0.961 . S
C2230 C2229 1.502 . S
C2231 H2217 0.960 . S
C2231 H2218 0.961 . S
C2231 H2219 0.959 . S
C2231 C2229 1.561 . S
C2232 C2229 1.526 . S
C2232 C2233 1.396 . S
C2232 C2237 1.390 . S
C2233 C2227 1.465 . S
C2233 C2232 1.396 . S
C2233 C2234 1.399 . S
C2234 H2220 0.929 . S
C2234 C2233 1.399 . S
C2234 C2235 1.385 . S
C2235 H2221 0.931 . S
C2235 C2234 1.385 . S
C2235 C2236 1.389 . S
C2236 C2235 1.389 . S
C2236 C2237 1.387 . S
C2237 H2222 0.930 . S
C2237 C2232 1.390 . S
C2237 C2236 1.387 . S
H2238 C2250 0.930 . S
H2239 C2252 0.930 . S
H2240 C2253 0.930 . S
H2241 C2257 0.959 . S
H2242 C2257 0.959 . S
H2243 C2257 0.961 . S
H2244 C2258 0.960 . S
H2245 C2258 0.961 . S
H2246 C2258 0.959 . S
H2247 C2261 0.929 . S
H2248 C2262 0.931 . S
H2249 C2264 0.930 . S
C2250 H2238 0.930 . S
C2250 C2251 1.399 . S
C2250 C2255 1.399 . S
C2251 C2250 1.399 . S
C2251 C2252 1.376 . S
C2252 H2239 0.930 . S
C2252 C2251 1.376 . S
C2252 C2253 1.388 . S
C2253 H2240 0.930 . S
C2253 C2252 1.388 . S
C2253 C2254 1.390 . S
C2254 C2253 1.390 . S
C2254 C2255 1.394 . S
C2254 C2260 1.465 . S
C2255 C2250 1.399 . S
C2255 C2254 1.394 . S
C2255 C2256 1.516 . S
C2256 C2255 1.516 . S
C2256 C2257 1.502 . S
C2256 C2258 1.561 . S
C2256 C2259 1.526 . S
C2257 H2241 0.959 . S
C2257 H2242 0.959 . S
C2257 H2243 0.961 . S
C2257 C2256 1.502 . S
C2258 H2244 0.960 . S
C2258 H2245 0.961 . S
C2258 H2246 0.959 . S
C2258 C2256 1.561 . S
C2259 C2256 1.526 . S
C2259 C2260 1.396 . S
C2259 C2264 1.390 . S
C2260 C2254 1.465 . S
C2260 C2259 1.396 . S
C2260 C2261 1.399 . S
C2261 H2247 0.929 . S
C2261 C2260 1.399 . S
C2261 C2262 1.385 . S
C2262 H2248 0.931 . S
C2262 C2261 1.385 . S
C2262 C2263 1.389 . S
C2263 C2262 1.389 . S
C2263 C2264 1.387 . S
C2264 H2249 0.930 . S
C2264 C2259 1.390 . S
C2264 C2263 1.387 . S
H2265 C2277 0.930 . S
H2266 C2279 0.930 . S
H2267 C2280 0.930 . S
H2268 C2284 0.959 . S
H2269 C2284 0.959 . S
H2270 C2284 0.961 . S
H2271 C2285 0.960 . S
H2272 C2285 0.961 . S
H2273 C2285 0.959 . S
H2274 C2288 0.929 . S
H2275 C2289 0.931 . S
H2276 C2291 0.930 . S
C2277 H2265 0.930 . S
C2277 C2278 1.399 . S
C2277 C2282 1.399 . S
C2278 C2277 1.399 . S
C2278 C2279 1.376 . S
C2279 H2266 0.930 . S
C2279 C2278 1.376 . S
C2279 C2280 1.388 . S
C2280 H2267 0.930 . S
C2280 C2279 1.388 . S
C2280 C2281 1.390 . S
C2281 C2280 1.390 . S
C2281 C2282 1.394 . S
C2281 C2287 1.465 . S
C2282 C2277 1.399 . S
C2282 C2281 1.394 . S
C2282 C2283 1.516 . S
C2283 C2282 1.516 . S
C2283 C2284 1.502 . S
C2283 C2285 1.561 . S
C2283 C2286 1.526 . S
C2284 H2268 0.959 . S
C2284 H2269 0.959 . S
C2284 H2270 0.961 . S
C2284 C2283 1.502 . S
C2285 H2271 0.960 . S
C2285 H2272 0.961 . S
C2285 H2273 0.959 . S
C2285 C2283 1.561 . S
C2286 C2283 1.526 . S
C2286 C2287 1.396 . S
C2286 C2291 1.390 . S
C2287 C2281 1.465 . S
C2287 C2286 1.396 . S
C2287 C2288 1.399 . S
C2288 H2274 0.929 . S
C2288 C2287 1.399 . S
C2288 C2289 1.385 . S
C2289 H2275 0.931 . S
C2289 C2288 1.385 . S
C2289 C2290 1.389 . S
C2290 C2289 1.389 . S
C2290 C2291 1.387 . S
C2291 H2276 0.930 . S
C2291 C2286 1.390 . S
C2291 C2290 1.387 . S
H2292 C2304 0.930 . S
H2293 C2306 0.930 . S
H2294 C2307 0.930 . S
H2295 C2311 0.959 . S
H2296 C2311 0.959 . S
H2297 C2311 0.961 . S
H2298 C2312 0.960 . S
H2299 C2312 0.961 . S
H2300 C2312 0.959 . S
H2301 C2315 0.929 . S
H2302 C2316 0.931 . S
H2303 C2318 0.930 . S
C2304 H2292 0.930 . S
C2304 C2305 1.399 . S
C2304 C2309 1.399 . S
C2305 C2304 1.399 . S
C2305 C2306 1.376 . S
C2306 H2293 0.930 . S
C2306 C2305 1.376 . S
C2306 C2307 1.388 . S
C2307 H2294 0.930 . S
C2307 C2306 1.388 . S
C2307 C2308 1.390 . S
C2308 C2307 1.390 . S
C2308 C2309 1.394 . S
C2308 C2314 1.465 . S
C2309 C2304 1.399 . S
C2309 C2308 1.394 . S
C2309 C2310 1.516 . S
C2310 C2309 1.516 . S
C2310 C2311 1.502 . S
C2310 C2312 1.561 . S
C2310 C2313 1.526 . S
C2311 H2295 0.959 . S
C2311 H2296 0.959 . S
C2311 H2297 0.961 . S
C2311 C2310 1.502 . S
C2312 H2298 0.960 . S
C2312 H2299 0.961 . S
C2312 H2300 0.959 . S
C2312 C2310 1.561 . S
C2313 C2310 1.526 . S
C2313 C2314 1.396 . S
C2313 C2318 1.390 . S
C2314 C2308 1.465 . S
C2314 C2313 1.396 . S
C2314 C2315 1.399 . S
C2315 H2301 0.929 . S
C2315 C2314 1.399 . S
C2315 C2316 1.385 . S
C2316 H2302 0.931 . S
C2316 C2315 1.385 . S
C2316 C2317 1.389 . S
C2317 C2316 1.389 . S
C2317 C2318 1.387 . S
C2318 H2303 0.930 . S
C2318 C2313 1.390 . S
C2318 C2317 1.387 . S
H2319 C2331 0.930 . S
H2320 C2333 0.930 . S
H2321 C2334 0.930 . S
H2322 C2338 0.959 . S
H2323 C2338 0.959 . S
H2324 C2338 0.961 . S
H2325 C2339 0.960 . S
H2326 C2339 0.961 . S
H2327 C2339 0.959 . S
H2328 C2342 0.929 . S
H2329 C2343 0.931 . S
H2330 C2345 0.930 . S
C2331 H2319 0.930 . S
C2331 C2332 1.399 . S
C2331 C2336 1.399 . S
C2332 C2331 1.399 . S
C2332 C2333 1.376 . S
C2333 H2320 0.930 . S
C2333 C2332 1.376 . S
C2333 C2334 1.388 . S
C2334 H2321 0.930 . S
C2334 C2333 1.388 . S
C2334 C2335 1.390 . S
C2335 C2334 1.390 . S
C2335 C2336 1.394 . S
C2335 C2341 1.465 . S
C2336 C2331 1.399 . S
C2336 C2335 1.394 . S
C2336 C2337 1.516 . S
C2337 C2336 1.516 . S
C2337 C2338 1.502 . S
C2337 C2339 1.561 . S
C2337 C2340 1.526 . S
C2338 H2322 0.959 . S
C2338 H2323 0.959 . S
C2338 H2324 0.961 . S
C2338 C2337 1.502 . S
C2339 H2325 0.960 . S
C2339 H2326 0.961 . S
C2339 H2327 0.959 . S
C2339 C2337 1.561 . S
C2340 C2337 1.526 . S
C2340 C2341 1.396 . S
C2340 C2345 1.390 . S
C2341 C2335 1.465 . S
C2341 C2340 1.396 . S
C2341 C2342 1.399 . S
C2342 H2328 0.929 . S
C2342 C2341 1.399 . S
C2342 C2343 1.385 . S
C2343 H2329 0.931 . S
C2343 C2342 1.385 . S
C2343 C2344 1.389 . S
C2344 C2343 1.389 . S
C2344 C2345 1.387 . S
C2345 H2330 0.930 . S
C2345 C2340 1.390 . S
C2345 C2344 1.387 . S
H2346 C2358 0.930 . S
H2347 C2360 0.930 . S
H2348 C2361 0.930 . S
H2349 C2365 0.959 . S
H2350 C2365 0.959 . S
H2351 C2365 0.961 . S
H2352 C2366 0.960 . S
H2353 C2366 0.961 . S
H2354 C2366 0.959 . S
H2355 C2369 0.929 . S
H2356 C2370 0.931 . S
H2357 C2372 0.930 . S
C2358 H2346 0.930 . S
C2358 C2359 1.399 . S
C2358 C2363 1.399 . S
C2359 C2358 1.399 . S
C2359 C2360 1.376 . S
C2360 H2347 0.930 . S
C2360 C2359 1.376 . S
C2360 C2361 1.388 . S
C2361 H2348 0.930 . S
C2361 C2360 1.388 . S
C2361 C2362 1.390 . S
C2362 C2361 1.390 . S
C2362 C2363 1.394 . S
C2362 C2368 1.465 . S
C2363 C2358 1.399 . S
C2363 C2362 1.394 . S
C2363 C2364 1.516 . S
C2364 C2363 1.516 . S
C2364 C2365 1.502 . S
C2364 C2366 1.561 . S
C2364 C2367 1.526 . S
C2365 H2349 0.959 . S
C2365 H2350 0.959 . S
C2365 H2351 0.961 . S
C2365 C2364 1.502 . S
C2366 H2352 0.960 . S
C2366 H2353 0.961 . S
C2366 H2354 0.959 . S
C2366 C2364 1.561 . S
C2367 C2364 1.526 . S
C2367 C2368 1.396 . S
C2367 C2372 1.390 . S
C2368 C2362 1.465 . S
C2368 C2367 1.396 . S
C2368 C2369 1.399 . S
C2369 H2355 0.929 . S
C2369 C2368 1.399 . S
C2369 C2370 1.385 . S
C2370 H2356 0.931 . S
C2370 C2369 1.385 . S
C2370 C2371 1.389 . S
C2371 C2370 1.389 . S
C2371 C2372 1.387 . S
C2372 H2357 0.930 . S
C2372 C2367 1.390 . S
C2372 C2371 1.387 . S
H2373 C2385 0.930 . S
H2374 C2387 0.930 . S
H2375 C2388 0.930 . S
H2376 C2392 0.959 . S
H2377 C2392 0.959 . S
H2378 C2392 0.961 . S
H2379 C2393 0.960 . S
H2380 C2393 0.961 . S
H2381 C2393 0.959 . S
H2382 C2396 0.929 . S
H2383 C2397 0.931 . S
H2384 C2399 0.930 . S
C2385 H2373 0.930 . S
C2385 C2386 1.399 . S
C2385 C2390 1.399 . S
C2386 C2385 1.399 . S
C2386 C2387 1.376 . S
C2387 H2374 0.930 . S
C2387 C2386 1.376 . S
C2387 C2388 1.388 . S
C2388 H2375 0.930 . S
C2388 C2387 1.388 . S
C2388 C2389 1.390 . S
C2389 C2388 1.390 . S
C2389 C2390 1.394 . S
C2389 C2395 1.465 . S
C2390 C2385 1.399 . S
C2390 C2389 1.394 . S
C2390 C2391 1.516 . S
C2391 C2390 1.516 . S
C2391 C2392 1.502 . S
C2391 C2393 1.561 . S
C2391 C2394 1.526 . S
C2392 H2376 0.959 . S
C2392 H2377 0.959 . S
C2392 H2378 0.961 . S
C2392 C2391 1.502 . S
C2393 H2379 0.960 . S
C2393 H2380 0.961 . S
C2393 H2381 0.959 . S
C2393 C2391 1.561 . S
C2394 C2391 1.526 . S
C2394 C2395 1.396 . S
C2394 C2399 1.390 . S
C2395 C2389 1.465 . S
C2395 C2394 1.396 . S
C2395 C2396 1.399 . S
C2396 H2382 0.929 . S
C2396 C2395 1.399 . S
C2396 C2397 1.385 . S
C2397 H2383 0.931 . S
C2397 C2396 1.385 . S
C2397 C2398 1.389 . S
C2398 C2397 1.389 . S
C2398 C2399 1.387 . S
C2399 H2384 0.930 . S
C2399 C2394 1.390 . S
C2399 C2398 1.387 . S
H2400 C2412 0.930 . S
H2401 C2414 0.930 . S
H2402 C2415 0.930 . S
H2403 C2419 0.959 . S
H2404 C2419 0.959 . S
H2405 C2419 0.961 . S
H2406 C2420 0.960 . S
H2407 C2420 0.961 . S
H2408 C2420 0.959 . S
H2409 C2423 0.929 . S
H2410 C2424 0.931 . S
H2411 C2426 0.930 . S
C2412 H2400 0.930 . S
C2412 C2413 1.399 . S
C2412 C2417 1.399 . S
C2413 C2412 1.399 . S
C2413 C2414 1.376 . S
C2414 H2401 0.930 . S
C2414 C2413 1.376 . S
C2414 C2415 1.388 . S
C2415 H2402 0.930 . S
C2415 C2414 1.388 . S
C2415 C2416 1.390 . S
C2416 C2415 1.390 . S
C2416 C2417 1.394 . S
C2416 C2422 1.465 . S
C2417 C2412 1.399 . S
C2417 C2416 1.394 . S
C2417 C2418 1.516 . S
C2418 C2417 1.516 . S
C2418 C2419 1.502 . S
C2418 C2420 1.561 . S
C2418 C2421 1.526 . S
C2419 H2403 0.959 . S
C2419 H2404 0.959 . S
C2419 H2405 0.961 . S
C2419 C2418 1.502 . S
C2420 H2406 0.960 . S
C2420 H2407 0.961 . S
C2420 H2408 0.959 . S
C2420 C2418 1.561 . S
C2421 C2418 1.526 . S
C2421 C2422 1.396 . S
C2421 C2426 1.390 . S
C2422 C2416 1.465 . S
C2422 C2421 1.396 . S
C2422 C2423 1.399 . S
C2423 H2409 0.929 . S
C2423 C2422 1.399 . S
C2423 C2424 1.385 . S
C2424 H2410 0.931 . S
C2424 C2423 1.385 . S
C2424 C2425 1.389 . S
C2425 C2424 1.389 . S
C2425 C2426 1.387 . S
C2426 H2411 0.930 . S
C2426 C2421 1.390 . S
C2426 C2425 1.387 . S
H2427 C2439 0.930 . S
H2428 C2441 0.930 . S
H2429 C2442 0.930 . S
H2430 C2446 0.959 . S
H2431 C2446 0.959 . S
H2432 C2446 0.961 . S
H2433 C2447 0.960 . S
H2434 C2447 0.961 . S
H2435 C2447 0.959 . S
H2436 C2450 0.929 . S
H2437 C2451 0.931 . S
H2438 C2453 0.930 . S
C2439 H2427 0.930 . S
C2439 C2440 1.399 . S
C2439 C2444 1.399 . S
C2440 C2439 1.399 . S
C2440 C2441 1.376 . S
C2441 H2428 0.930 . S
C2441 C2440 1.376 . S
C2441 C2442 1.388 . S
C2442 H2429 0.930 . S
C2442 C2441 1.388 . S
C2442 C2443 1.390 . S
C2443 C2442 1.390 . S
C2443 C2444 1.394 . S
C2443 C2449 1.465 . S
C2444 C2439 1.399 . S
C2444 C2443 1.394 . S
C2444 C2445 1.516 . S
C2445 C2444 1.516 . S
C2445 C2446 1.502 . S
C2445 C2447 1.561 . S
C2445 C2448 1.526 . S
C2446 H2430 0.959 . S
C2446 H2431 0.959 . S
C2446 H2432 0.961 . S
C2446 C2445 1.502 . S
C2447 H2433 0.960 . S
C2447 H2434 0.961 . S
C2447 H2435 0.959 . S
C2447 C2445 1.561 . S
C2448 C2445 1.526 . S
C2448 C2449 1.396 . S
C2448 C2453 1.390 . S
C2449 C2443 1.465 . S
C2449 C2448 1.396 . S
C2449 C2450 1.399 . S
C2450 H2436 0.929 . S
C2450 C2449 1.399 . S
C2450 C2451 1.385 . S
C2451 H2437 0.931 . S
C2451 C2450 1.385 . S
C2451 C2452 1.389 . S
C2452 C2451 1.389 . S
C2452 C2453 1.387 . S
C2453 H2438 0.930 . S
C2453 C2448 1.390 . S
C2453 C2452 1.387 . S
H2454 C2466 0.930 . S
H2455 C2468 0.930 . S
H2456 C2469 0.930 . S
H2457 C2473 0.959 . S
H2458 C2473 0.959 . S
H2459 C2473 0.961 . S
H2460 C2474 0.960 . S
H2461 C2474 0.961 . S
H2462 C2474 0.959 . S
H2463 C2477 0.929 . S
H2464 C2478 0.931 . S
H2465 C2480 0.930 . S
C2466 H2454 0.930 . S
C2466 C2467 1.399 . S
C2466 C2471 1.399 . S
C2467 C2466 1.399 . S
C2467 C2468 1.376 . S
C2468 H2455 0.930 . S
C2468 C2467 1.376 . S
C2468 C2469 1.388 . S
C2469 H2456 0.930 . S
C2469 C2468 1.388 . S
C2469 C2470 1.390 . S
C2470 C2469 1.390 . S
C2470 C2471 1.394 . S
C2470 C2476 1.465 . S
C2471 C2466 1.399 . S
C2471 C2470 1.394 . S
C2471 C2472 1.516 . S
C2472 C2471 1.516 . S
C2472 C2473 1.502 . S
C2472 C2474 1.561 . S
C2472 C2475 1.526 . S
C2473 H2457 0.959 . S
C2473 H2458 0.959 . S
C2473 H2459 0.961 . S
C2473 C2472 1.502 . S
C2474 H2460 0.960 . S
C2474 H2461 0.961 . S
C2474 H2462 0.959 . S
C2474 C2472 1.561 . S
C2475 C2472 1.526 . S
C2475 C2476 1.396 . S
C2475 C2480 1.390 . S
C2476 C2470 1.465 . S
C2476 C2475 1.396 . S
C2476 C2477 1.399 . S
C2477 H2463 0.929 . S
C2477 C2476 1.399 . S
C2477 C2478 1.385 . S
C2478 H2464 0.931 . S
C2478 C2477 1.385 . S
C2478 C2479 1.389 . S
C2479 C2478 1.389 . S
C2479 C2480 1.387 . S
C2480 H2465 0.930 . S
C2480 C2475 1.390 . S
C2480 C2479 1.387 . S
H2481 C2493 0.930 . S
H2482 C2495 0.930 . S
H2483 C2496 0.930 . S
H2484 C2500 0.959 . S
H2485 C2500 0.959 . S
H2486 C2500 0.961 . S
H2487 C2501 0.960 . S
H2488 C2501 0.961 . S
H2489 C2501 0.959 . S
H2490 C2504 0.929 . S
H2491 C2505 0.931 . S
H2492 C2507 0.930 . S
C2493 H2481 0.930 . S
C2493 C2494 1.399 . S
C2493 C2498 1.399 . S
C2494 C2493 1.399 . S
C2494 C2495 1.376 . S
C2495 H2482 0.930 . S
C2495 C2494 1.376 . S
C2495 C2496 1.388 . S
C2496 H2483 0.930 . S
C2496 C2495 1.388 . S
C2496 C2497 1.390 . S
C2497 C2496 1.390 . S
C2497 C2498 1.394 . S
C2497 C2503 1.465 . S
C2498 C2493 1.399 . S
C2498 C2497 1.394 . S
C2498 C2499 1.516 . S
C2499 C2498 1.516 . S
C2499 C2500 1.502 . S
C2499 C2501 1.561 . S
C2499 C2502 1.526 . S
C2500 H2484 0.959 . S
C2500 H2485 0.959 . S
C2500 H2486 0.961 . S
C2500 C2499 1.502 . S
C2501 H2487 0.960 . S
C2501 H2488 0.961 . S
C2501 H2489 0.959 . S
C2501 C2499 1.561 . S
C2502 C2499 1.526 . S
C2502 C2503 1.396 . S
C2502 C2507 1.390 . S
C2503 C2497 1.465 . S
C2503 C2502 1.396 . S
C2503 C2504 1.399 . S
C2504 H2490 0.929 . S
C2504 C2503 1.399 . S
C2504 C2505 1.385 . S
C2505 H2491 0.931 . S
C2505 C2504 1.385 . S
C2505 C2506 1.389 . S
C2506 C2505 1.389 . S
C2506 C2507 1.387 . S
C2507 H2492 0.930 . S
C2507 C2502 1.390 . S
C2507 C2506 1.387 . S
H2508 C2520 0.930 . S
H2509 C2522 0.930 . S
H2510 C2523 0.930 . S
H2511 C2527 0.959 . S
H2512 C2527 0.959 . S
H2513 C2527 0.961 . S
H2514 C2528 0.960 . S
H2515 C2528 0.961 . S
H2516 C2528 0.959 . S
H2517 C2531 0.929 . S
H2518 C2532 0.931 . S
H2519 C2534 0.930 . S
C2520 H2508 0.930 . S
C2520 C2521 1.399 . S
C2520 C2525 1.399 . S
C2521 C2520 1.399 . S
C2521 C2522 1.376 . S
C2522 H2509 0.930 . S
C2522 C2521 1.376 . S
C2522 C2523 1.388 . S
C2523 H2510 0.930 . S
C2523 C2522 1.388 . S
C2523 C2524 1.390 . S
C2524 C2523 1.390 . S
C2524 C2525 1.394 . S
C2524 C2530 1.465 . S
C2525 C2520 1.399 . S
C2525 C2524 1.394 . S
C2525 C2526 1.516 . S
C2526 C2525 1.516 . S
C2526 C2527 1.502 . S
C2526 C2528 1.561 . S
C2526 C2529 1.526 . S
C2527 H2511 0.959 . S
C2527 H2512 0.959 . S
C2527 H2513 0.961 . S
C2527 C2526 1.502 . S
C2528 H2514 0.960 . S
C2528 H2515 0.961 . S
C2528 H2516 0.959 . S
C2528 C2526 1.561 . S
C2529 C2526 1.526 . S
C2529 C2530 1.396 . S
C2529 C2534 1.390 . S
C2530 C2524 1.465 . S
C2530 C2529 1.396 . S
C2530 C2531 1.399 . S
C2531 H2517 0.929 . S
C2531 C2530 1.399 . S
C2531 C2532 1.385 . S
C2532 H2518 0.931 . S
C2532 C2531 1.385 . S
C2532 C2533 1.389 . S
C2533 C2532 1.389 . S
C2533 C2534 1.387 . S
C2534 H2519 0.930 . S
C2534 C2529 1.390 . S
C2534 C2533 1.387 . S
H2535 C2547 0.930 . S
H2536 C2549 0.930 . S
H2537 C2550 0.930 . S
H2538 C2554 0.959 . S
H2539 C2554 0.959 . S
H2540 C2554 0.961 . S
H2541 C2555 0.960 . S
H2542 C2555 0.961 . S
H2543 C2555 0.959 . S
H2544 C2558 0.929 . S
H2545 C2559 0.931 . S
H2546 C2561 0.930 . S
C2547 H2535 0.930 . S
C2547 C2548 1.399 . S
C2547 C2552 1.399 . S
C2548 C2547 1.399 . S
C2548 C2549 1.376 . S
C2549 H2536 0.930 . S
C2549 C2548 1.376 . S
C2549 C2550 1.388 . S
C2550 H2537 0.930 . S
C2550 C2549 1.388 . S
C2550 C2551 1.390 . S
C2551 C2550 1.390 . S
C2551 C2552 1.394 . S
C2551 C2557 1.465 . S
C2552 C2547 1.399 . S
C2552 C2551 1.394 . S
C2552 C2553 1.516 . S
C2553 C2552 1.516 . S
C2553 C2554 1.502 . S
C2553 C2555 1.561 . S
C2553 C2556 1.526 . S
C2554 H2538 0.959 . S
C2554 H2539 0.959 . S
C2554 H2540 0.961 . S
C2554 C2553 1.502 . S
C2555 H2541 0.960 . S
C2555 H2542 0.961 . S
C2555 H2543 0.959 . S
C2555 C2553 1.561 . S
C2556 C2553 1.526 . S
C2556 C2557 1.396 . S
C2556 C2561 1.390 . S
C2557 C2551 1.465 . S
C2557 C2556 1.396 . S
C2557 C2558 1.399 . S
C2558 H2544 0.929 . S
C2558 C2557 1.399 . S
C2558 C2559 1.385 . S
C2559 H2545 0.931 . S
C2559 C2558 1.385 . S
C2559 C2560 1.389 . S
C2560 C2559 1.389 . S
C2560 C2561 1.387 . S
C2561 H2546 0.930 . S
C2561 C2556 1.390 . S
C2561 C2560 1.387 . S
H2562 C2574 0.930 . S
H2563 C2576 0.930 . S
H2564 C2577 0.930 . S
H2565 C2581 0.959 . S
H2566 C2581 0.959 . S
H2567 C2581 0.961 . S
H2568 C2582 0.960 . S
H2569 C2582 0.961 . S
H2570 C2582 0.959 . S
H2571 C2585 0.929 . S
H2572 C2586 0.931 . S
H2573 C2588 0.930 . S
C2574 H2562 0.930 . S
C2574 C2575 1.399 . S
C2574 C2579 1.399 . S
C2575 C2574 1.399 . S
C2575 C2576 1.376 . S
C2576 H2563 0.930 . S
C2576 C2575 1.376 . S
C2576 C2577 1.388 . S
C2577 H2564 0.930 . S
C2577 C2576 1.388 . S
C2577 C2578 1.390 . S
C2578 C2577 1.390 . S
C2578 C2579 1.394 . S
C2578 C2584 1.465 . S
C2579 C2574 1.399 . S
C2579 C2578 1.394 . S
C2579 C2580 1.516 . S
C2580 C2579 1.516 . S
C2580 C2581 1.502 . S
C2580 C2582 1.561 . S
C2580 C2583 1.526 . S
C2581 H2565 0.959 . S
C2581 H2566 0.959 . S
C2581 H2567 0.961 . S
C2581 C2580 1.502 . S
C2582 H2568 0.960 . S
C2582 H2569 0.961 . S
C2582 H2570 0.959 . S
C2582 C2580 1.561 . S
C2583 C2580 1.526 . S
C2583 C2584 1.396 . S
C2583 C2588 1.390 . S
C2584 C2578 1.465 . S
C2584 C2583 1.396 . S
C2584 C2585 1.399 . S
C2585 H2571 0.929 . S
C2585 C2584 1.399 . S
C2585 C2586 1.385 . S
C2586 H2572 0.931 . S
C2586 C2585 1.385 . S
C2586 C2587 1.389 . S
C2587 C2586 1.389 . S
C2587 C2588 1.387 . S
C2588 H2573 0.930 . S
C2588 C2583 1.390 . S
C2588 C2587 1.387 . S
H2589 C2601 0.930 . S
H2590 C2603 0.930 . S
H2591 C2604 0.930 . S
H2592 C2608 0.959 . S
H2593 C2608 0.959 . S
H2594 C2608 0.961 . S
H2595 C2609 0.960 . S
H2596 C2609 0.961 . S
H2597 C2609 0.959 . S
H2598 C2612 0.929 . S
H2599 C2613 0.931 . S
H2600 C2615 0.930 . S
C2601 H2589 0.930 . S
C2601 C2602 1.399 . S
C2601 C2606 1.399 . S
C2602 C2601 1.399 . S
C2602 C2603 1.376 . S
C2603 H2590 0.930 . S
C2603 C2602 1.376 . S
C2603 C2604 1.388 . S
C2604 H2591 0.930 . S
C2604 C2603 1.388 . S
C2604 C2605 1.390 . S
C2605 C2604 1.390 . S
C2605 C2606 1.394 . S
C2605 C2611 1.465 . S
C2606 C2601 1.399 . S
C2606 C2605 1.394 . S
C2606 C2607 1.516 . S
C2607 C2606 1.516 . S
C2607 C2608 1.502 . S
C2607 C2609 1.561 . S
C2607 C2610 1.526 . S
C2608 H2592 0.959 . S
C2608 H2593 0.959 . S
C2608 H2594 0.961 . S
C2608 C2607 1.502 . S
C2609 H2595 0.960 . S
C2609 H2596 0.961 . S
C2609 H2597 0.959 . S
C2609 C2607 1.561 . S
C2610 C2607 1.526 . S
C2610 C2611 1.396 . S
C2610 C2615 1.390 . S
C2611 C2605 1.465 . S
C2611 C2610 1.396 . S
C2611 C2612 1.399 . S
C2612 H2598 0.929 . S
C2612 C2611 1.399 . S
C2612 C2613 1.385 . S
C2613 H2599 0.931 . S
C2613 C2612 1.385 . S
C2613 C2614 1.389 . S
C2614 C2613 1.389 . S
C2614 C2615 1.387 . S
C2615 H2600 0.930 . S
C2615 C2610 1.390 . S
C2615 C2614 1.387 . S
H2616 C2628 0.930 . S
H2617 C2630 0.930 . S
H2618 C2631 0.930 . S
H2619 C2635 0.959 . S
H2620 C2635 0.959 . S
H2621 C2635 0.961 . S
H2622 C2636 0.960 . S
H2623 C2636 0.961 . S
H2624 C2636 0.959 . S
H2625 C2639 0.929 . S
H2626 C2640 0.931 . S
H2627 C2642 0.930 . S
C2628 H2616 0.930 . S
C2628 C2629 1.399 . S
C2628 C2633 1.399 . S
C2629 C2628 1.399 . S
C2629 C2630 1.376 . S
C2630 H2617 0.930 . S
C2630 C2629 1.376 . S
C2630 C2631 1.388 . S
C2631 H2618 0.930 . S
C2631 C2630 1.388 . S
C2631 C2632 1.390 . S
C2632 C2631 1.390 . S
C2632 C2633 1.394 . S
C2632 C2638 1.465 . S
C2633 C2628 1.399 . S
C2633 C2632 1.394 . S
C2633 C2634 1.516 . S
C2634 C2633 1.516 . S
C2634 C2635 1.502 . S
C2634 C2636 1.561 . S
C2634 C2637 1.526 . S
C2635 H2619 0.959 . S
C2635 H2620 0.959 . S
C2635 H2621 0.961 . S
C2635 C2634 1.502 . S
C2636 H2622 0.960 . S
C2636 H2623 0.961 . S
C2636 H2624 0.959 . S
C2636 C2634 1.561 . S
C2637 C2634 1.526 . S
C2637 C2638 1.396 . S
C2637 C2642 1.390 . S
C2638 C2632 1.465 . S
C2638 C2637 1.396 . S
C2638 C2639 1.399 . S
C2639 H2625 0.929 . S
C2639 C2638 1.399 . S
C2639 C2640 1.385 . S
C2640 H2626 0.931 . S
C2640 C2639 1.385 . S
C2640 C2641 1.389 . S
C2641 C2640 1.389 . S
C2641 C2642 1.387 . S
C2642 H2627 0.930 . S
C2642 C2637 1.390 . S
C2642 C2641 1.387 . S
H2643 C2655 0.930 . S
H2644 C2657 0.930 . S
H2645 C2658 0.930 . S
H2646 C2662 0.959 . S
H2647 C2662 0.959 . S
H2648 C2662 0.961 . S
H2649 C2663 0.960 . S
H2650 C2663 0.961 . S
H2651 C2663 0.959 . S
H2652 C2666 0.929 . S
H2653 C2667 0.931 . S
H2654 C2669 0.930 . S
C2655 H2643 0.930 . S
C2655 C2656 1.399 . S
C2655 C2660 1.399 . S
C2656 C2655 1.399 . S
C2656 C2657 1.376 . S
C2657 H2644 0.930 . S
C2657 C2656 1.376 . S
C2657 C2658 1.388 . S
C2658 H2645 0.930 . S
C2658 C2657 1.388 . S
C2658 C2659 1.390 . S
C2659 C2658 1.390 . S
C2659 C2660 1.394 . S
C2659 C2665 1.465 . S
C2660 C2655 1.399 . S
C2660 C2659 1.394 . S
C2660 C2661 1.516 . S
C2661 C2660 1.516 . S
C2661 C2662 1.502 . S
C2661 C2663 1.561 . S
C2661 C2664 1.526 . S
C2662 H2646 0.959 . S
C2662 H2647 0.959 . S
C2662 H2648 0.961 . S
C2662 C2661 1.502 . S
C2663 H2649 0.960 . S
C2663 H2650 0.961 . S
C2663 H2651 0.959 . S
C2663 C2661 1.561 . S
C2664 C2661 1.526 . S
C2664 C2665 1.396 . S
C2664 C2669 1.390 . S
C2665 C2659 1.465 . S
C2665 C2664 1.396 . S
C2665 C2666 1.399 . S
C2666 H2652 0.929 . S
C2666 C2665 1.399 . S
C2666 C2667 1.385 . S
C2667 H2653 0.931 . S
C2667 C2666 1.385 . S
C2667 C2668 1.389 . S
C2668 C2667 1.389 . S
C2668 C2669 1.387 . S
C2669 H2654 0.930 . S
C2669 C2664 1.390 . S
C2669 C2668 1.387 . S
H2670 C2682 0.930 . S
H2671 C2684 0.930 . S
H2672 C2685 0.930 . S
H2673 C2689 0.959 . S
H2674 C2689 0.959 . S
H2675 C2689 0.961 . S
H2676 C2690 0.960 . S
H2677 C2690 0.961 . S
H2678 C2690 0.959 . S
H2679 C2693 0.929 . S
H2680 C2694 0.931 . S
H2681 C2696 0.930 . S
C2682 H2670 0.930 . S
C2682 C2683 1.399 . S
C2682 C2687 1.399 . S
C2683 C2682 1.399 . S
C2683 C2684 1.376 . S
C2684 H2671 0.930 . S
C2684 C2683 1.376 . S
C2684 C2685 1.388 . S
C2685 H2672 0.930 . S
C2685 C2684 1.388 . S
C2685 C2686 1.390 . S
C2686 C2685 1.390 . S
C2686 C2687 1.394 . S
C2686 C2692 1.465 . S
C2687 C2682 1.399 . S
C2687 C2686 1.394 . S
C2687 C2688 1.516 . S
C2688 C2687 1.516 . S
C2688 C2689 1.502 . S
C2688 C2690 1.561 . S
C2688 C2691 1.526 . S
C2689 H2673 0.959 . S
C2689 H2674 0.959 . S
C2689 H2675 0.961 . S
C2689 C2688 1.502 . S
C2690 H2676 0.960 . S
C2690 H2677 0.961 . S
C2690 H2678 0.959 . S
C2690 C2688 1.561 . S
C2691 C2688 1.526 . S
C2691 C2692 1.396 . S
C2691 C2696 1.390 . S
C2692 C2686 1.465 . S
C2692 C2691 1.396 . S
C2692 C2693 1.399 . S
C2693 H2679 0.929 . S
C2693 C2692 1.399 . S
C2693 C2694 1.385 . S
C2694 H2680 0.931 . S
C2694 C2693 1.385 . S
C2694 C2695 1.389 . S
C2695 C2694 1.389 . S
C2695 C2696 1.387 . S
C2696 H2681 0.930 . S
C2696 C2691 1.390 . S
C2696 C2695 1.387 . S
H2697 C2709 0.930 . S
H2698 C2711 0.930 . S
H2699 C2712 0.930 . S
H2700 C2716 0.959 . S
H2701 C2716 0.959 . S
H2702 C2716 0.961 . S
H2703 C2717 0.960 . S
H2704 C2717 0.961 . S
H2705 C2717 0.959 . S
H2706 C2720 0.929 . S
H2707 C2721 0.931 . S
H2708 C2723 0.930 . S
C2709 H2697 0.930 . S
C2709 C2710 1.399 . S
C2709 C2714 1.399 . S
C2710 C2709 1.399 . S
C2710 C2711 1.376 . S
C2711 H2698 0.930 . S
C2711 C2710 1.376 . S
C2711 C2712 1.388 . S
C2712 H2699 0.930 . S
C2712 C2711 1.388 . S
C2712 C2713 1.390 . S
C2713 C2712 1.390 . S
C2713 C2714 1.394 . S
C2713 C2719 1.465 . S
C2714 C2709 1.399 . S
C2714 C2713 1.394 . S
C2714 C2715 1.516 . S
C2715 C2714 1.516 . S
C2715 C2716 1.502 . S
C2715 C2717 1.561 . S
C2715 C2718 1.526 . S
C2716 H2700 0.959 . S
C2716 H2701 0.959 . S
C2716 H2702 0.961 . S
C2716 C2715 1.502 . S
C2717 H2703 0.960 . S
C2717 H2704 0.961 . S
C2717 H2705 0.959 . S
C2717 C2715 1.561 . S
C2718 C2715 1.526 . S
C2718 C2719 1.396 . S
C2718 C2723 1.390 . S
C2719 C2713 1.465 . S
C2719 C2718 1.396 . S
C2719 C2720 1.399 . S
C2720 H2706 0.929 . S
C2720 C2719 1.399 . S
C2720 C2721 1.385 . S
C2721 H2707 0.931 . S
C2721 C2720 1.385 . S
C2721 C2722 1.389 . S
C2722 C2721 1.389 . S
C2722 C2723 1.387 . S
C2723 H2708 0.930 . S
C2723 C2718 1.390 . S
C2723 C2722 1.387 . S
H2724 C2736 0.930 . S
H2725 C2738 0.930 . S
H2726 C2739 0.930 . S
H2727 C2743 0.959 . S
H2728 C2743 0.959 . S
H2729 C2743 0.961 . S
H2730 C2744 0.960 . S
H2731 C2744 0.961 . S
H2732 C2744 0.959 . S
H2733 C2747 0.929 . S
H2734 C2748 0.931 . S
H2735 C2750 0.930 . S
C2736 H2724 0.930 . S
C2736 C2737 1.399 . S
C2736 C2741 1.399 . S
C2737 C2736 1.399 . S
C2737 C2738 1.376 . S
C2738 H2725 0.930 . S
C2738 C2737 1.376 . S
C2738 C2739 1.388 . S
C2739 H2726 0.930 . S
C2739 C2738 1.388 . S
C2739 C2740 1.390 . S
C2740 C2739 1.390 . S
C2740 C2741 1.394 . S
C2740 C2746 1.465 . S
C2741 C2736 1.399 . S
C2741 C2740 1.394 . S
C2741 C2742 1.516 . S
C2742 C2741 1.516 . S
C2742 C2743 1.502 . S
C2742 C2744 1.561 . S
C2742 C2745 1.526 . S
C2743 H2727 0.959 . S
C2743 H2728 0.959 . S
C2743 H2729 0.961 . S
C2743 C2742 1.502 . S
C2744 H2730 0.960 . S
C2744 H2731 0.961 . S
C2744 H2732 0.959 . S
C2744 C2742 1.561 . S
C2745 C2742 1.526 . S
C2745 C2746 1.396 . S
C2745 C2750 1.390 . S
C2746 C2740 1.465 . S
C2746 C2745 1.396 . S
C2746 C2747 1.399 . S
C2747 H2733 0.929 . S
C2747 C2746 1.399 . S
C2747 C2748 1.385 . S
C2748 H2734 0.931 . S
C2748 C2747 1.385 . S
C2748 C2749 1.389 . S
C2749 C2748 1.389 . S
C2749 C2750 1.387 . S
C2750 H2735 0.930 . S
C2750 C2745 1.390 . S
C2750 C2749 1.387 . S
H2751 C2763 0.930 . S
H2752 C2765 0.930 . S
H2753 C2766 0.930 . S
H2754 C2770 0.959 . S
H2755 C2770 0.959 . S
H2756 C2770 0.961 . S
H2757 C2771 0.960 . S
H2758 C2771 0.961 . S
H2759 C2771 0.959 . S
H2760 C2774 0.929 . S
H2761 C2775 0.931 . S
H2762 C2777 0.930 . S
C2763 H2751 0.930 . S
C2763 C2764 1.399 . S
C2763 C2768 1.399 . S
C2764 C2763 1.399 . S
C2764 C2765 1.376 . S
C2765 H2752 0.930 . S
C2765 C2764 1.376 . S
C2765 C2766 1.388 . S
C2766 H2753 0.930 . S
C2766 C2765 1.388 . S
C2766 C2767 1.390 . S
C2767 C2766 1.390 . S
C2767 C2768 1.394 . S
C2767 C2773 1.465 . S
C2768 C2763 1.399 . S
C2768 C2767 1.394 . S
C2768 C2769 1.516 . S
C2769 C2768 1.516 . S
C2769 C2770 1.502 . S
C2769 C2771 1.561 . S
C2769 C2772 1.526 . S
C2770 H2754 0.959 . S
C2770 H2755 0.959 . S
C2770 H2756 0.961 . S
C2770 C2769 1.502 . S
C2771 H2757 0.960 . S
C2771 H2758 0.961 . S
C2771 H2759 0.959 . S
C2771 C2769 1.561 . S
C2772 C2769 1.526 . S
C2772 C2773 1.396 . S
C2772 C2777 1.390 . S
C2773 C2767 1.465 . S
C2773 C2772 1.396 . S
C2773 C2774 1.399 . S
C2774 H2760 0.929 . S
C2774 C2773 1.399 . S
C2774 C2775 1.385 . S
C2775 H2761 0.931 . S
C2775 C2774 1.385 . S
C2775 C2776 1.389 . S
C2776 C2775 1.389 . S
C2776 C2777 1.387 . S
C2777 H2762 0.930 . S
C2777 C2772 1.390 . S
C2777 C2776 1.387 . S
H2778 C2790 0.930 . S
H2779 C2792 0.930 . S
H2780 C2793 0.930 . S
H2781 C2797 0.959 . S
H2782 C2797 0.959 . S
H2783 C2797 0.961 . S
H2784 C2798 0.960 . S
H2785 C2798 0.961 . S
H2786 C2798 0.959 . S
H2787 C2801 0.929 . S
H2788 C2802 0.931 . S
H2789 C2804 0.930 . S
C2790 H2778 0.930 . S
C2790 C2791 1.399 . S
C2790 C2795 1.399 . S
C2791 C2790 1.399 . S
C2791 C2792 1.376 . S
C2792 H2779 0.930 . S
C2792 C2791 1.376 . S
C2792 C2793 1.388 . S
C2793 H2780 0.930 . S
C2793 C2792 1.388 . S
C2793 C2794 1.390 . S
C2794 C2793 1.390 . S
C2794 C2795 1.394 . S
C2794 C2800 1.465 . S
C2795 C2790 1.399 . S
C2795 C2794 1.394 . S
C2795 C2796 1.516 . S
C2796 C2795 1.516 . S
C2796 C2797 1.502 . S
C2796 C2798 1.561 . S
C2796 C2799 1.526 . S
C2797 H2781 0.959 . S
C2797 H2782 0.959 . S
C2797 H2783 0.961 . S
C2797 C2796 1.502 . S
C2798 H2784 0.960 . S
C2798 H2785 0.961 . S
C2798 H2786 0.959 . S
C2798 C2796 1.561 . S
C2799 C2796 1.526 . S
C2799 C2800 1.396 . S
C2799 C2804 1.390 . S
C2800 C2794 1.465 . S
C2800 C2799 1.396 . S
C2800 C2801 1.399 . S
C2801 H2787 0.929 . S
C2801 C2800 1.399 . S
C2801 C2802 1.385 . S
C2802 H2788 0.931 . S
C2802 C2801 1.385 . S
C2802 C2803 1.389 . S
C2803 C2802 1.389 . S
C2803 C2804 1.387 . S
C2804 H2789 0.930 . S
C2804 C2799 1.390 . S
C2804 C2803 1.387 . S
H2805 C2817 0.930 . S
H2806 C2819 0.930 . S
H2807 C2820 0.930 . S
H2808 C2824 0.959 . S
H2809 C2824 0.959 . S
H2810 C2824 0.961 . S
H2811 C2825 0.960 . S
H2812 C2825 0.961 . S
H2813 C2825 0.959 . S
H2814 C2828 0.929 . S
H2815 C2829 0.931 . S
H2816 C2831 0.930 . S
C2817 H2805 0.930 . S
C2817 C2818 1.399 . S
C2817 C2822 1.399 . S
C2818 C2817 1.399 . S
C2818 C2819 1.376 . S
C2819 H2806 0.930 . S
C2819 C2818 1.376 . S
C2819 C2820 1.388 . S
C2820 H2807 0.930 . S
C2820 C2819 1.388 . S
C2820 C2821 1.390 . S
C2821 C2820 1.390 . S
C2821 C2822 1.394 . S
C2821 C2827 1.465 . S
C2822 C2817 1.399 . S
C2822 C2821 1.394 . S
C2822 C2823 1.516 . S
C2823 C2822 1.516 . S
C2823 C2824 1.502 . S
C2823 C2825 1.561 . S
C2823 C2826 1.526 . S
C2824 H2808 0.959 . S
C2824 H2809 0.959 . S
C2824 H2810 0.961 . S
C2824 C2823 1.502 . S
C2825 H2811 0.960 . S
C2825 H2812 0.961 . S
C2825 H2813 0.959 . S
C2825 C2823 1.561 . S
C2826 C2823 1.526 . S
C2826 C2827 1.396 . S
C2826 C2831 1.390 . S
C2827 C2821 1.465 . S
C2827 C2826 1.396 . S
C2827 C2828 1.399 . S
C2828 H2814 0.929 . S
C2828 C2827 1.399 . S
C2828 C2829 1.385 . S
C2829 H2815 0.931 . S
C2829 C2828 1.385 . S
C2829 C2830 1.389 . S
C2830 C2829 1.389 . S
C2830 C2831 1.387 . S
C2831 H2816 0.930 . S
C2831 C2826 1.390 . S
C2831 C2830 1.387 . S
H2832 C2844 0.930 . S
H2833 C2846 0.930 . S
H2834 C2847 0.930 . S
H2835 C2851 0.959 . S
H2836 C2851 0.959 . S
H2837 C2851 0.961 . S
H2838 C2852 0.960 . S
H2839 C2852 0.961 . S
H2840 C2852 0.959 . S
H2841 C2855 0.929 . S
H2842 C2856 0.931 . S
H2843 C2858 0.930 . S
C2844 H2832 0.930 . S
C2844 C2845 1.399 . S
C2844 C2849 1.399 . S
C2845 C2844 1.399 . S
C2845 C2846 1.376 . S
C2846 H2833 0.930 . S
C2846 C2845 1.376 . S
C2846 C2847 1.388 . S
C2847 H2834 0.930 . S
C2847 C2846 1.388 . S
C2847 C2848 1.390 . S
C2848 C2847 1.390 . S
C2848 C2849 1.394 . S
C2848 C2854 1.465 . S
C2849 C2844 1.399 . S
C2849 C2848 1.394 . S
C2849 C2850 1.516 . S
C2850 C2849 1.516 . S
C2850 C2851 1.502 . S
C2850 C2852 1.561 . S
C2850 C2853 1.526 . S
C2851 H2835 0.959 . S
C2851 H2836 0.959 . S
C2851 H2837 0.961 . S
C2851 C2850 1.502 . S
C2852 H2838 0.960 . S
C2852 H2839 0.961 . S
C2852 H2840 0.959 . S
C2852 C2850 1.561 . S
C2853 C2850 1.526 . S
C2853 C2854 1.396 . S
C2853 C2858 1.390 . S
C2854 C2848 1.465 . S
C2854 C2853 1.396 . S
C2854 C2855 1.399 . S
C2855 H2841 0.929 . S
C2855 C2854 1.399 . S
C2855 C2856 1.385 . S
C2856 H2842 0.931 . S
C2856 C2855 1.385 . S
C2856 C2857 1.389 . S
C2857 C2856 1.389 . S
C2857 C2858 1.387 . S
C2858 H2843 0.930 . S
C2858 C2853 1.390 . S
C2858 C2857 1.387 . S
H2859 C2871 0.930 . S
H2860 C2873 0.930 . S
H2861 C2874 0.930 . S
H2862 C2878 0.959 . S
H2863 C2878 0.959 . S
H2864 C2878 0.961 . S
H2865 C2879 0.960 . S
H2866 C2879 0.961 . S
H2867 C2879 0.959 . S
H2868 C2882 0.929 . S
H2869 C2883 0.931 . S
H2870 C2885 0.930 . S
C2871 H2859 0.930 . S
C2871 C2872 1.399 . S
C2871 C2876 1.399 . S
C2872 C2871 1.399 . S
C2872 C2873 1.376 . S
C2873 H2860 0.930 . S
C2873 C2872 1.376 . S
C2873 C2874 1.388 . S
C2874 H2861 0.930 . S
C2874 C2873 1.388 . S
C2874 C2875 1.390 . S
C2875 C2874 1.390 . S
C2875 C2876 1.394 . S
C2875 C2881 1.465 . S
C2876 C2871 1.399 . S
C2876 C2875 1.394 . S
C2876 C2877 1.516 . S
C2877 C2876 1.516 . S
C2877 C2878 1.502 . S
C2877 C2879 1.561 . S
C2877 C2880 1.526 . S
C2878 H2862 0.959 . S
C2878 H2863 0.959 . S
C2878 H2864 0.961 . S
C2878 C2877 1.502 . S
C2879 H2865 0.960 . S
C2879 H2866 0.961 . S
C2879 H2867 0.959 . S
C2879 C2877 1.561 . S
C2880 C2877 1.526 . S
C2880 C2881 1.396 . S
C2880 C2885 1.390 . S
C2881 C2875 1.465 . S
C2881 C2880 1.396 . S
C2881 C2882 1.399 . S
C2882 H2868 0.929 . S
C2882 C2881 1.399 . S
C2882 C2883 1.385 . S
C2883 H2869 0.931 . S
C2883 C2882 1.385 . S
C2883 C2884 1.389 . S
C2884 C2883 1.389 . S
C2884 C2885 1.387 . S
C2885 H2870 0.930 . S
C2885 C2880 1.390 . S
C2885 C2884 1.387 . S
H2886 C2898 0.930 . S
H2887 C2900 0.930 . S
H2888 C2901 0.930 . S
H2889 C2905 0.959 . S
H2890 C2905 0.959 . S
H2891 C2905 0.961 . S
H2892 C2906 0.960 . S
H2893 C2906 0.961 . S
H2894 C2906 0.959 . S
H2895 C2909 0.929 . S
H2896 C2910 0.931 . S
H2897 C2912 0.930 . S
C2898 H2886 0.930 . S
C2898 C2899 1.399 . S
C2898 C2903 1.399 . S
C2899 C2898 1.399 . S
C2899 C2900 1.376 . S
C2900 H2887 0.930 . S
C2900 C2899 1.376 . S
C2900 C2901 1.388 . S
C2901 H2888 0.930 . S
C2901 C2900 1.388 . S
C2901 C2902 1.390 . S
C2902 C2901 1.390 . S
C2902 C2903 1.394 . S
C2902 C2908 1.465 . S
C2903 C2898 1.399 . S
C2903 C2902 1.394 . S
C2903 C2904 1.516 . S
C2904 C2903 1.516 . S
C2904 C2905 1.502 . S
C2904 C2906 1.561 . S
C2904 C2907 1.526 . S
C2905 H2889 0.959 . S
C2905 H2890 0.959 . S
C2905 H2891 0.961 . S
C2905 C2904 1.502 . S
C2906 H2892 0.960 . S
C2906 H2893 0.961 . S
C2906 H2894 0.959 . S
C2906 C2904 1.561 . S
C2907 C2904 1.526 . S
C2907 C2908 1.396 . S
C2907 C2912 1.390 . S
C2908 C2902 1.465 . S
C2908 C2907 1.396 . S
C2908 C2909 1.399 . S
C2909 H2895 0.929 . S
C2909 C2908 1.399 . S
C2909 C2910 1.385 . S
C2910 H2896 0.931 . S
C2910 C2909 1.385 . S
C2910 C2911 1.389 . S
C2911 C2910 1.389 . S
C2911 C2912 1.387 . S
C2912 H2897 0.930 . S
C2912 C2907 1.390 . S
C2912 C2911 1.387 . S
H2913 C2925 0.930 . S
H2914 C2927 0.930 . S
H2915 C2928 0.930 . S
H2916 C2932 0.959 . S
H2917 C2932 0.959 . S
H2918 C2932 0.961 . S
H2919 C2933 0.960 . S
H2920 C2933 0.961 . S
H2921 C2933 0.959 . S
H2922 C2936 0.929 . S
H2923 C2937 0.931 . S
H2924 C2939 0.930 . S
C2925 H2913 0.930 . S
C2925 C2926 1.399 . S
C2925 C2930 1.399 . S
C2926 C2925 1.399 . S
C2926 C2927 1.376 . S
C2927 H2914 0.930 . S
C2927 C2926 1.376 . S
C2927 C2928 1.388 . S
C2928 H2915 0.930 . S
C2928 C2927 1.388 . S
C2928 C2929 1.390 . S
C2929 C2928 1.390 . S
C2929 C2930 1.394 . S
C2929 C2935 1.465 . S
C2930 C2925 1.399 . S
C2930 C2929 1.394 . S
C2930 C2931 1.516 . S
C2931 C2930 1.516 . S
C2931 C2932 1.502 . S
C2931 C2933 1.561 . S
C2931 C2934 1.526 . S
C2932 H2916 0.959 . S
C2932 H2917 0.959 . S
C2932 H2918 0.961 . S
C2932 C2931 1.502 . S
C2933 H2919 0.960 . S
C2933 H2920 0.961 . S
C2933 H2921 0.959 . S
C2933 C2931 1.561 . S
C2934 C2931 1.526 . S
C2934 C2935 1.396 . S
C2934 C2939 1.390 . S
C2935 C2929 1.465 . S
C2935 C2934 1.396 . S
C2935 C2936 1.399 . S
C2936 H2922 0.929 . S
C2936 C2935 1.399 . S
C2936 C2937 1.385 . S
C2937 H2923 0.931 . S
C2937 C2936 1.385 . S
C2937 C2938 1.389 . S
C2938 C2937 1.389 . S
C2938 C2939 1.387 . S
C2939 H2924 0.930 . S
C2939 C2934 1.390 . S
C2939 C2938 1.387 . S
H2940 C2952 0.930 . S
H2941 C2954 0.930 . S
H2942 C2955 0.930 . S
H2943 C2959 0.959 . S
H2944 C2959 0.959 . S
H2945 C2959 0.961 . S
H2946 C2960 0.960 . S
H2947 C2960 0.961 . S
H2948 C2960 0.959 . S
H2949 C2963 0.929 . S
H2950 C2964 0.931 . S
H2951 C2966 0.930 . S
C2952 H2940 0.930 . S
C2952 C2953 1.399 . S
C2952 C2957 1.399 . S
C2953 C2952 1.399 . S
C2953 C2954 1.376 . S
C2954 H2941 0.930 . S
C2954 C2953 1.376 . S
C2954 C2955 1.388 . S
C2955 H2942 0.930 . S
C2955 C2954 1.388 . S
C2955 C2956 1.390 . S
C2956 C2955 1.390 . S
C2956 C2957 1.394 . S
C2956 C2962 1.465 . S
C2957 C2952 1.399 . S
C2957 C2956 1.394 . S
C2957 C2958 1.516 . S
C2958 C2957 1.516 . S
C2958 C2959 1.502 . S
C2958 C2960 1.561 . S
C2958 C2961 1.526 . S
C2959 H2943 0.959 . S
C2959 H2944 0.959 . S
C2959 H2945 0.961 . S
C2959 C2958 1.502 . S
C2960 H2946 0.960 . S
C2960 H2947 0.961 . S
C2960 H2948 0.959 . S
C2960 C2958 1.561 . S
C2961 C2958 1.526 . S
C2961 C2962 1.396 . S
C2961 C2966 1.390 . S
C2962 C2956 1.465 . S
C2962 C2961 1.396 . S
C2962 C2963 1.399 . S
C2963 H2949 0.929 . S
C2963 C2962 1.399 . S
C2963 C2964 1.385 . S
C2964 H2950 0.931 . S
C2964 C2963 1.385 . S
C2964 C2965 1.389 . S
C2965 C2964 1.389 . S
C2965 C2966 1.387 . S
C2966 H2951 0.930 . S
C2966 C2961 1.390 . S
C2966 C2965 1.387 . S
H2967 C2979 0.930 . S
H2968 C2981 0.930 . S
H2969 C2982 0.930 . S
H2970 C2986 0.959 . S
H2971 C2986 0.959 . S
H2972 C2986 0.961 . S
H2973 C2987 0.960 . S
H2974 C2987 0.961 . S
H2975 C2987 0.959 . S
H2976 C2990 0.929 . S
H2977 C2991 0.931 . S
H2978 C2993 0.930 . S
C2979 H2967 0.930 . S
C2979 C2980 1.399 . S
C2979 C2984 1.399 . S
C2980 C2979 1.399 . S
C2980 C2981 1.376 . S
C2981 H2968 0.930 . S
C2981 C2980 1.376 . S
C2981 C2982 1.388 . S
C2982 H2969 0.930 . S
C2982 C2981 1.388 . S
C2982 C2983 1.390 . S
C2983 C2982 1.390 . S
C2983 C2984 1.394 . S
C2983 C2989 1.465 . S
C2984 C2979 1.399 . S
C2984 C2983 1.394 . S
C2984 C2985 1.516 . S
C2985 C2984 1.516 . S
C2985 C2986 1.502 . S
C2985 C2987 1.561 . S
C2985 C2988 1.526 . S
C2986 H2970 0.959 . S
C2986 H2971 0.959 . S
C2986 H2972 0.961 . S
C2986 C2985 1.502 . S
C2987 H2973 0.960 . S
C2987 H2974 0.961 . S
C2987 H2975 0.959 . S
C2987 C2985 1.561 . S
C2988 C2985 1.526 . S
C2988 C2989 1.396 . S
C2988 C2993 1.390 . S
C2989 C2983 1.465 . S
C2989 C2988 1.396 . S
C2989 C2990 1.399 . S
C2990 H2976 0.929 . S
C2990 C2989 1.399 . S
C2990 C2991 1.385 . S
C2991 H2977 0.931 . S
C2991 C2990 1.385 . S
C2991 C2992 1.389 . S
C2992 C2991 1.389 . S
C2992 C2993 1.387 . S
C2993 H2978 0.930 . S
C2993 C2988 1.390 . S
C2993 C2992 1.387 . S
H2994 C3006 0.930 . S
H2995 C3008 0.930 . S
H2996 C3009 0.930 . S
H2997 C3013 0.959 . S
H2998 C3013 0.959 . S
H2999 C3013 0.961 . S
H3000 C3014 0.960 . S
H3001 C3014 0.961 . S
H3002 C3014 0.959 . S
H3003 C3017 0.929 . S
H3004 C3018 0.931 . S
H3005 C3020 0.930 . S
C3006 H2994 0.930 . S
C3006 C3007 1.399 . S
C3006 C3011 1.399 . S
C3007 C3006 1.399 . S
C3007 C3008 1.376 . S
C3008 H2995 0.930 . S
C3008 C3007 1.376 . S
C3008 C3009 1.388 . S
C3009 H2996 0.930 . S
C3009 C3008 1.388 . S
C3009 C3010 1.390 . S
C3010 C3009 1.390 . S
C3010 C3011 1.394 . S
C3010 C3016 1.465 . S
C3011 C3006 1.399 . S
C3011 C3010 1.394 . S
C3011 C3012 1.516 . S
C3012 C3011 1.516 . S
C3012 C3013 1.502 . S
C3012 C3014 1.561 . S
C3012 C3015 1.526 . S
C3013 H2997 0.959 . S
C3013 H2998 0.959 . S
C3013 H2999 0.961 . S
C3013 C3012 1.502 . S
C3014 H3000 0.960 . S
C3014 H3001 0.961 . S
C3014 H3002 0.959 . S
C3014 C3012 1.561 . S
C3015 C3012 1.526 . S
C3015 C3016 1.396 . S
C3015 C3020 1.390 . S
C3016 C3010 1.465 . S
C3016 C3015 1.396 . S
C3016 C3017 1.399 . S
C3017 H3003 0.929 . S
C3017 C3016 1.399 . S
C3017 C3018 1.385 . S
C3018 H3004 0.931 . S
C3018 C3017 1.385 . S
C3018 C3019 1.389 . S
C3019 C3018 1.389 . S
C3019 C3020 1.387 . S
C3020 H3005 0.930 . S
C3020 C3015 1.390 . S
C3020 C3019 1.387 . S
H3021 C3033 0.930 . S
H3022 C3035 0.930 . S
H3023 C3036 0.930 . S
H3024 C3040 0.959 . S
H3025 C3040 0.959 . S
H3026 C3040 0.961 . S
H3027 C3041 0.960 . S
H3028 C3041 0.961 . S
H3029 C3041 0.959 . S
H3030 C3044 0.929 . S
H3031 C3045 0.931 . S
H3032 C3047 0.930 . S
C3033 H3021 0.930 . S
C3033 C3034 1.399 . S
C3033 C3038 1.399 . S
C3034 C3033 1.399 . S
C3034 C3035 1.376 . S
C3035 H3022 0.930 . S
C3035 C3034 1.376 . S
C3035 C3036 1.388 . S
C3036 H3023 0.930 . S
C3036 C3035 1.388 . S
C3036 C3037 1.390 . S
C3037 C3036 1.390 . S
C3037 C3038 1.394 . S
C3037 C3043 1.465 . S
C3038 C3033 1.399 . S
C3038 C3037 1.394 . S
C3038 C3039 1.516 . S
C3039 C3038 1.516 . S
C3039 C3040 1.502 . S
C3039 C3041 1.561 . S
C3039 C3042 1.526 . S
C3040 H3024 0.959 . S
C3040 H3025 0.959 . S
C3040 H3026 0.961 . S
C3040 C3039 1.502 . S
C3041 H3027 0.960 . S
C3041 H3028 0.961 . S
C3041 H3029 0.959 . S
C3041 C3039 1.561 . S
C3042 C3039 1.526 . S
C3042 C3043 1.396 . S
C3042 C3047 1.390 . S
C3043 C3037 1.465 . S
C3043 C3042 1.396 . S
C3043 C3044 1.399 . S
C3044 H3030 0.929 . S
C3044 C3043 1.399 . S
C3044 C3045 1.385 . S
C3045 H3031 0.931 . S
C3045 C3044 1.385 . S
C3045 C3046 1.389 . S
C3046 C3045 1.389 . S
C3046 C3047 1.387 . S
C3047 H3032 0.930 . S
C3047 C3042 1.390 . S
C3047 C3046 1.387 . S
H3048 C3060 0.930 . S
H3049 C3062 0.930 . S
H3050 C3063 0.930 . S
H3051 C3067 0.959 . S
H3052 C3067 0.959 . S
H3053 C3067 0.961 . S
H3054 C3068 0.960 . S
H3055 C3068 0.961 . S
H3056 C3068 0.959 . S
H3057 C3071 0.929 . S
H3058 C3072 0.931 . S
H3059 C3074 0.930 . S
C3060 H3048 0.930 . S
C3060 C3061 1.399 . S
C3060 C3065 1.399 . S
C3061 C3060 1.399 . S
C3061 C3062 1.376 . S
C3062 H3049 0.930 . S
C3062 C3061 1.376 . S
C3062 C3063 1.388 . S
C3063 H3050 0.930 . S
C3063 C3062 1.388 . S
C3063 C3064 1.390 . S
C3064 C3063 1.390 . S
C3064 C3065 1.394 . S
C3064 C3070 1.465 . S
C3065 C3060 1.399 . S
C3065 C3064 1.394 . S
C3065 C3066 1.516 . S
C3066 C3065 1.516 . S
C3066 C3067 1.502 . S
C3066 C3068 1.561 . S
C3066 C3069 1.526 . S
C3067 H3051 0.959 . S
C3067 H3052 0.959 . S
C3067 H3053 0.961 . S
C3067 C3066 1.502 . S
C3068 H3054 0.960 . S
C3068 H3055 0.961 . S
C3068 H3056 0.959 . S
C3068 C3066 1.561 . S
C3069 C3066 1.526 . S
C3069 C3070 1.396 . S
C3069 C3074 1.390 . S
C3070 C3064 1.465 . S
C3070 C3069 1.396 . S
C3070 C3071 1.399 . S
C3071 H3057 0.929 . S
C3071 C3070 1.399 . S
C3071 C3072 1.385 . S
C3072 H3058 0.931 . S
C3072 C3071 1.385 . S
C3072 C3073 1.389 . S
C3073 C3072 1.389 . S
C3073 C3074 1.387 . S
C3074 H3059 0.930 . S
C3074 C3069 1.390 . S
C3074 C3073 1.387 . S
H3075 C3087 0.930 . S
H3076 C3089 0.930 . S
H3077 C3090 0.930 . S
H3078 C3094 0.959 . S
H3079 C3094 0.959 . S
H3080 C3094 0.961 . S
H3081 C3095 0.960 . S
H3082 C3095 0.961 . S
H3083 C3095 0.959 . S
H3084 C3098 0.929 . S
H3085 C3099 0.931 . S
H3086 C3101 0.930 . S
C3087 H3075 0.930 . S
C3087 C3088 1.399 . S
C3087 C3092 1.399 . S
C3088 C3087 1.399 . S
C3088 C3089 1.376 . S
C3089 H3076 0.930 . S
C3089 C3088 1.376 . S
C3089 C3090 1.388 . S
C3090 H3077 0.930 . S
C3090 C3089 1.388 . S
C3090 C3091 1.390 . S
C3091 C3090 1.390 . S
C3091 C3092 1.394 . S
C3091 C3097 1.465 . S
C3092 C3087 1.399 . S
C3092 C3091 1.394 . S
C3092 C3093 1.516 . S
C3093 C3092 1.516 . S
C3093 C3094 1.502 . S
C3093 C3095 1.561 . S
C3093 C3096 1.526 . S
C3094 H3078 0.959 . S
C3094 H3079 0.959 . S
C3094 H3080 0.961 . S
C3094 C3093 1.502 . S
C3095 H3081 0.960 . S
C3095 H3082 0.961 . S
C3095 H3083 0.959 . S
C3095 C3093 1.561 . S
C3096 C3093 1.526 . S
C3096 C3097 1.396 . S
C3096 C3101 1.390 . S
C3097 C3091 1.465 . S
C3097 C3096 1.396 . S
C3097 C3098 1.399 . S
C3098 H3084 0.929 . S
C3098 C3097 1.399 . S
C3098 C3099 1.385 . S
C3099 H3085 0.931 . S
C3099 C3098 1.385 . S
C3099 C3100 1.389 . S
C3100 C3099 1.389 . S
C3100 C3101 1.387 . S
C3101 H3086 0.930 . S
C3101 C3096 1.390 . S
C3101 C3100 1.387 . S
H3102 C3114 0.930 . S
H3103 C3116 0.930 . S
H3104 C3117 0.930 . S
H3105 C3121 0.959 . S
H3106 C3121 0.959 . S
H3107 C3121 0.961 . S
H3108 C3122 0.960 . S
H3109 C3122 0.961 . S
H3110 C3122 0.959 . S
H3111 C3125 0.929 . S
H3112 C3126 0.931 . S
H3113 C3128 0.930 . S
C3114 H3102 0.930 . S
C3114 C3115 1.399 . S
C3114 C3119 1.399 . S
C3115 C3114 1.399 . S
C3115 C3116 1.376 . S
C3116 H3103 0.930 . S
C3116 C3115 1.376 . S
C3116 C3117 1.388 . S
C3117 H3104 0.930 . S
C3117 C3116 1.388 . S
C3117 C3118 1.390 . S
C3118 C3117 1.390 . S
C3118 C3119 1.394 . S
C3118 C3124 1.465 . S
C3119 C3114 1.399 . S
C3119 C3118 1.394 . S
C3119 C3120 1.516 . S
C3120 C3119 1.516 . S
C3120 C3121 1.502 . S
C3120 C3122 1.561 . S
C3120 C3123 1.526 . S
C3121 H3105 0.959 . S
C3121 H3106 0.959 . S
C3121 H3107 0.961 . S
C3121 C3120 1.502 . S
C3122 H3108 0.960 . S
C3122 H3109 0.961 . S
C3122 H3110 0.959 . S
C3122 C3120 1.561 . S
C3123 C3120 1.526 . S
C3123 C3124 1.396 . S
C3123 C3128 1.390 . S
C3124 C3118 1.465 . S
C3124 C3123 1.396 . S
C3124 C3125 1.399 . S
C3125 H3111 0.929 . S
C3125 C3124 1.399 . S
C3125 C3126 1.385 . S
C3126 H3112 0.931 . S
C3126 C3125 1.385 . S
C3126 C3127 1.389 . S
C3127 C3126 1.389 . S
C3127 C3128 1.387 . S
C3128 H3113 0.930 . S
C3128 C3123 1.390 . S
C3128 C3127 1.387 . S
H3129 C3141 0.930 . S
H3130 C3143 0.930 . S
H3131 C3144 0.930 . S
H3132 C3148 0.959 . S
H3133 C3148 0.959 . S
H3134 C3148 0.961 . S
H3135 C3149 0.960 . S
H3136 C3149 0.961 . S
H3137 C3149 0.959 . S
H3138 C3152 0.929 . S
H3139 C3153 0.931 . S
H3140 C3155 0.930 . S
C3141 H3129 0.930 . S
C3141 C3142 1.399 . S
C3141 C3146 1.399 . S
C3142 C3141 1.399 . S
C3142 C3143 1.376 . S
C3143 H3130 0.930 . S
C3143 C3142 1.376 . S
C3143 C3144 1.388 . S
C3144 H3131 0.930 . S
C3144 C3143 1.388 . S
C3144 C3145 1.390 . S
C3145 C3144 1.390 . S
C3145 C3146 1.394 . S
C3145 C3151 1.465 . S
C3146 C3141 1.399 . S
C3146 C3145 1.394 . S
C3146 C3147 1.516 . S
C3147 C3146 1.516 . S
C3147 C3148 1.502 . S
C3147 C3149 1.561 . S
C3147 C3150 1.526 . S
C3148 H3132 0.959 . S
C3148 H3133 0.959 . S
C3148 H3134 0.961 . S
C3148 C3147 1.502 . S
C3149 H3135 0.960 . S
C3149 H3136 0.961 . S
C3149 H3137 0.959 . S
C3149 C3147 1.561 . S
C3150 C3147 1.526 . S
C3150 C3151 1.396 . S
C3150 C3155 1.390 . S
C3151 C3145 1.465 . S
C3151 C3150 1.396 . S
C3151 C3152 1.399 . S
C3152 H3138 0.929 . S
C3152 C3151 1.399 . S
C3152 C3153 1.385 . S
C3153 H3139 0.931 . S
C3153 C3152 1.385 . S
C3153 C3154 1.389 . S
C3154 C3153 1.389 . S
C3154 C3155 1.387 . S
C3155 H3140 0.930 . S
C3155 C3150 1.390 . S
C3155 C3154 1.387 . S
H3156 C3168 0.930 . S
H3157 C3170 0.930 . S
H3158 C3171 0.930 . S
H3159 C3175 0.959 . S
H3160 C3175 0.959 . S
H3161 C3175 0.961 . S
H3162 C3176 0.960 . S
H3163 C3176 0.961 . S
H3164 C3176 0.959 . S
H3165 C3179 0.929 . S
H3166 C3180 0.931 . S
H3167 C3182 0.930 . S
C3168 H3156 0.930 . S
C3168 C3169 1.399 . S
C3168 C3173 1.399 . S
C3169 C3168 1.399 . S
C3169 C3170 1.376 . S
C3170 H3157 0.930 . S
C3170 C3169 1.376 . S
C3170 C3171 1.388 . S
C3171 H3158 0.930 . S
C3171 C3170 1.388 . S
C3171 C3172 1.390 . S
C3172 C3171 1.390 . S
C3172 C3173 1.394 . S
C3172 C3178 1.465 . S
C3173 C3168 1.399 . S
C3173 C3172 1.394 . S
C3173 C3174 1.516 . S
C3174 C3173 1.516 . S
C3174 C3175 1.502 . S
C3174 C3176 1.561 . S
C3174 C3177 1.526 . S
C3175 H3159 0.959 . S
C3175 H3160 0.959 . S
C3175 H3161 0.961 . S
C3175 C3174 1.502 . S
C3176 H3162 0.960 . S
C3176 H3163 0.961 . S
C3176 H3164 0.959 . S
C3176 C3174 1.561 . S
C3177 C3174 1.526 . S
C3177 C3178 1.396 . S
C3177 C3182 1.390 . S
C3178 C3172 1.465 . S
C3178 C3177 1.396 . S
C3178 C3179 1.399 . S
C3179 H3165 0.929 . S
C3179 C3178 1.399 . S
C3179 C3180 1.385 . S
C3180 H3166 0.931 . S
C3180 C3179 1.385 . S
C3180 C3181 1.389 . S
C3181 C3180 1.389 . S
C3181 C3182 1.387 . S
C3182 H3167 0.930 . S
C3182 C3177 1.390 . S
C3182 C3181 1.387 . S
H3183 C3195 0.930 . S
H3184 C3197 0.930 . S
H3185 C3198 0.930 . S
H3186 C3202 0.959 . S
H3187 C3202 0.959 . S
H3188 C3202 0.961 . S
H3189 C3203 0.960 . S
H3190 C3203 0.961 . S
H3191 C3203 0.959 . S
H3192 C3206 0.929 . S
H3193 C3207 0.931 . S
H3194 C3209 0.930 . S
C3195 H3183 0.930 . S
C3195 C3196 1.399 . S
C3195 C3200 1.399 . S
C3196 C3195 1.399 . S
C3196 C3197 1.376 . S
C3197 H3184 0.930 . S
C3197 C3196 1.376 . S
C3197 C3198 1.388 . S
C3198 H3185 0.930 . S
C3198 C3197 1.388 . S
C3198 C3199 1.390 . S
C3199 C3198 1.390 . S
C3199 C3200 1.394 . S
C3199 C3205 1.465 . S
C3200 C3195 1.399 . S
C3200 C3199 1.394 . S
C3200 C3201 1.516 . S
C3201 C3200 1.516 . S
C3201 C3202 1.502 . S
C3201 C3203 1.561 . S
C3201 C3204 1.526 . S
C3202 H3186 0.959 . S
C3202 H3187 0.959 . S
C3202 H3188 0.961 . S
C3202 C3201 1.502 . S
C3203 H3189 0.960 . S
C3203 H3190 0.961 . S
C3203 H3191 0.959 . S
C3203 C3201 1.561 . S
C3204 C3201 1.526 . S
C3204 C3205 1.396 . S
C3204 C3209 1.390 . S
C3205 C3199 1.465 . S
C3205 C3204 1.396 . S
C3205 C3206 1.399 . S
C3206 H3192 0.929 . S
C3206 C3205 1.399 . S
C3206 C3207 1.385 . S
C3207 H3193 0.931 . S
C3207 C3206 1.385 . S
C3207 C3208 1.389 . S
C3208 C3207 1.389 . S
C3208 C3209 1.387 . S
C3209 H3194 0.930 . S
C3209 C3204 1.390 . S
C3209 C3208 1.387 . S
H3210 C3222 0.930 . S
H3211 C3224 0.930 . S
H3212 C3225 0.930 . S
H3213 C3229 0.959 . S
H3214 C3229 0.959 . S
H3215 C3229 0.961 . S
H3216 C3230 0.960 . S
H3217 C3230 0.961 . S
H3218 C3230 0.959 . S
H3219 C3233 0.929 . S
H3220 C3234 0.931 . S
H3221 C3236 0.930 . S
C3222 H3210 0.930 . S
C3222 C3223 1.399 . S
C3222 C3227 1.399 . S
C3223 C3222 1.399 . S
C3223 C3224 1.376 . S
C3224 H3211 0.930 . S
C3224 C3223 1.376 . S
C3224 C3225 1.388 . S
C3225 H3212 0.930 . S
C3225 C3224 1.388 . S
C3225 C3226 1.390 . S
C3226 C3225 1.390 . S
C3226 C3227 1.394 . S
C3226 C3232 1.465 . S
C3227 C3222 1.399 . S
C3227 C3226 1.394 . S
C3227 C3228 1.516 . S
C3228 C3227 1.516 . S
C3228 C3229 1.502 . S
C3228 C3230 1.561 . S
C3228 C3231 1.526 . S
C3229 H3213 0.959 . S
C3229 H3214 0.959 . S
C3229 H3215 0.961 . S
C3229 C3228 1.502 . S
C3230 H3216 0.960 . S
C3230 H3217 0.961 . S
C3230 H3218 0.959 . S
C3230 C3228 1.561 . S
C3231 C3228 1.526 . S
C3231 C3232 1.396 . S
C3231 C3236 1.390 . S
C3232 C3226 1.465 . S
C3232 C3231 1.396 . S
C3232 C3233 1.399 . S
C3233 H3219 0.929 . S
C3233 C3232 1.399 . S
C3233 C3234 1.385 . S
C3234 H3220 0.931 . S
C3234 C3233 1.385 . S
C3234 C3235 1.389 . S
C3235 C3234 1.389 . S
C3235 C3236 1.387 . S
C3236 H3221 0.930 . S
C3236 C3231 1.390 . S
C3236 C3235 1.387 . S
H3237 C3249 0.930 . S
H3238 C3251 0.930 . S
H3239 C3252 0.930 . S
H3240 C3256 0.959 . S
H3241 C3256 0.959 . S
H3242 C3256 0.961 . S
H3243 C3257 0.960 . S
H3244 C3257 0.961 . S
H3245 C3257 0.959 . S
H3246 C3260 0.929 . S
H3247 C3261 0.931 . S
H3248 C3263 0.930 . S
C3249 H3237 0.930 . S
C3249 C3250 1.399 . S
C3249 C3254 1.399 . S
C3250 C3249 1.399 . S
C3250 C3251 1.376 . S
C3251 H3238 0.930 . S
C3251 C3250 1.376 . S
C3251 C3252 1.388 . S
C3252 H3239 0.930 . S
C3252 C3251 1.388 . S
C3252 C3253 1.390 . S
C3253 C3252 1.390 . S
C3253 C3254 1.394 . S
C3253 C3259 1.465 . S
C3254 C3249 1.399 . S
C3254 C3253 1.394 . S
C3254 C3255 1.516 . S
C3255 C3254 1.516 . S
C3255 C3256 1.502 . S
C3255 C3257 1.561 . S
C3255 C3258 1.526 . S
C3256 H3240 0.959 . S
C3256 H3241 0.959 . S
C3256 H3242 0.961 . S
C3256 C3255 1.502 . S
C3257 H3243 0.960 . S
C3257 H3244 0.961 . S
C3257 H3245 0.959 . S
C3257 C3255 1.561 . S
C3258 C3255 1.526 . S
C3258 C3259 1.396 . S
C3258 C3263 1.390 . S
C3259 C3253 1.465 . S
C3259 C3258 1.396 . S
C3259 C3260 1.399 . S
C3260 H3246 0.929 . S
C3260 C3259 1.399 . S
C3260 C3261 1.385 . S
C3261 H3247 0.931 . S
C3261 C3260 1.385 . S
C3261 C3262 1.389 . S
C3262 C3261 1.389 . S
C3262 C3263 1.387 . S
C3263 H3248 0.930 . S
C3263 C3258 1.390 . S
C3263 C3262 1.387 . S
C685 C131 1.683 . S
C697 C5 1.730 . S
C712 C145 1.679 . S
C724 C19 1.709 . S
C739 C159 1.704 . S
C751 C33 1.683 . S
C766 C47 1.730 . S
C778 C117 1.680 . S
C793 C215 1.684 . S
C805 C61 1.729 . S
C820 C75 1.675 . S
C832 C173 1.726 . S
C847 C187 1.682 . S
C859 C89 1.730 . S
C874 C201 1.722 . S
C886 C103 1.701 . S
C901 C229 1.676 . S
C913 C257 1.715 . S
C928 C243 1.691 . S
C940 C313 1.727 . S
C955 C271 1.680 . S
C967 C327 1.729 . S
C982 C285 1.703 . S
C994 C299 1.684 . S
C1009 C341 1.730 . S
C1021 C467 1.683 . S
C1036 C481 1.729 . S
C1048 C355 1.679 . S
C1063 C369 1.706 . S
C1075 C495 1.682 . S
C1090 C383 1.687 . S
C1102 C453 1.729 . S
C1117 C551 1.692 . S
C1129 C397 1.693 . S
C1144 C509 1.687 . S
C1156 C411 1.699 . S
C1171 C523 1.693 . S
C1183 C425 1.726 . S
C1198 C537 1.686 . S
C1210 C439 1.699 . S
C1225 C565 1.726 . S
C1237 C593 1.676 . S
C1252 C579 1.725 . S
C1264 C649 1.675 . S
C1279 C607 1.726 . S
C1291 C663 1.695 . S
C1306 C635 1.727 . S
C1318 C621 1.693 . S
C1333 C124 1.076 . S
C1345 C4 1.103 . S
C1360 C138 1.089 . S
C1372 C18 1.116 . S
C1387 C32 1.082 . S
C1399 C152 0.992 . S
C1414 C46 1.047 . S
C1426 C166 0.928 . S
C1441 C60 1.068 . S
C1453 C180 1.009 . S
C1468 C74 1.084 . S
C1480 C194 1.041 . S
C1495 C88 1.106 . S
C1507 C208 1.077 . S
C1522 C222 1.064 . S
C1534 C102 1.096 . S
C1549 C116 1.109 . S
C1561 C236 1.082 . S
C1576 C334 0.920 . S
C1588 C130 1.042 . S
C1603 C144 1.044 . S
C1615 C306 0.925 . S
C1630 C158 1.085 . S
C1642 C320 1.043 . S
C1657 C172 1.099 . S
C1669 C250 1.067 . S
C1684 C186 1.046 . S
C1696 C264 0.957 . S
C1711 C200 1.059 . S
C1723 C278 0.948 . S
C1738 C292 1.080 . S
C1750 C214 1.106 . S
C1765 C12 1.082 . S
C1777 C228 1.107 . S
C1792 C242 1.052 . S
C1804 C68 0.936 . S
C1819 C256 1.105 . S
C1831 C82 1.076 . S
C1846 C270 1.087 . S
C1858 C96 1.046 . S
C1873 C110 0.952 . S
C1885 C284 1.046 . S
C1900 C298 1.066 . S
C1912 C40 0.960 . S
C1927 C312 1.041 . S
C1939 C54 0.922 . S
C1954 C26 1.043 . S
C1966 C326 1.104 . S
C1981 C460 1.061 . S
C1993 C340 1.094 . S
C2008 C354 1.077 . S
C2020 C474 0.981 . S
C2035 C368 1.038 . S
C2047 C488 0.931 . S
C2062 C502 1.075 . S
C2074 C382 1.115 . S
C2089 C516 0.949 . S
C2101 C396 1.061 . S
C2116 C410 1.038 . S
C2128 C530 0.922 . S
C2143 C544 1.039 . S
C2155 C424 1.082 . S
C2170 C558 0.944 . S
C2182 C438 1.043 . S
C2197 C452 1.114 . S
C2209 C572 1.087 . S
C2224 C466 1.055 . S
C2236 C670 0.981 . S
C2251 C480 1.072 . S
C2263 C642 0.971 . S
C2278 C656 1.089 . S
C2290 C494 1.116 . S
C2305 C508 1.112 . S
C2317 C586 1.086 . S
C2332 C522 1.111 . S
C2344 C600 1.060 . S
C2359 C614 1.049 . S
C2371 C536 1.106 . S
C2386 C628 0.925 . S
C2398 C550 1.039 . S
C2413 C564 1.046 . S
C2425 C348 0.958 . S
C2440 C578 1.107 . S
C2452 C404 1.079 . S
C2467 C418 0.969 . S
C2479 C592 1.052 . S
C2494 C606 1.084 . S
C2506 C432 0.997 . S
C2521 C620 1.115 . S
C2533 C446 1.087 . S
C2548 C376 1.070 . S
C2560 C634 1.113 . S
C2575 C648 1.047 . S
C2587 C390 0.928 . S
C2602 C362 0.976 . S
C2614 C662 1.054 . S
C2629 C445 1.400 . S
C2641 C11 1.423 . S
C2656 C25 1.417 . S
C2668 C403 1.398 . S
C2683 C417 1.407 . S
C2695 C39 1.396 . S
C2710 C431 1.418 . S
C2722 C53 1.448 . S
C2737 C67 1.401 . S
C2749 C361 1.426 . S
C2764 C375 1.426 . S
C2776 C81 1.457 . S
C2791 C389 1.479 . S
C2803 C95 1.484 . S
C2818 C109 1.485 . S
C2830 C347 1.479 . S
C2845 C627 1.454 . S
C2857 C123 1.425 . S
C2872 C137 1.409 . S
C2884 C585 1.438 . S
C2899 C151 1.466 . S
C2911 C599 1.437 . S
C2926 C613 1.485 . S
C2938 C165 1.471 . S
C2953 C669 1.481 . S
C2965 C179 1.484 . S
C2980 C641 1.479 . S
C2992 C193 1.455 . S
C3007 C207 1.474 . S
C3019 C655 1.448 . S
C3034 C571 1.485 . S
C3046 C221 1.475 . S
C3061 C235 1.483 . S
C3073 C557 1.482 . S
C3088 C473 1.395 . S
C3100 C249 1.408 . S
C3115 C263 1.412 . S
C3127 C487 1.397 . S
C3142 C501 1.457 . S
C3154 C277 1.479 . S
C3169 C459 1.415 . S
C3181 C291 1.398 . S
C3196 C305 1.463 . S
C3208 C529 1.434 . S
C3223 C543 1.402 . S
C3235 C319 1.396 . S
C3250 C515 1.457 . S
C3262 C333 1.479 . S
