# Generated by pormake.
# Topology snz, (6)-cn, num edge types: 1
# Building blocks:
#     Node 0, Type 0, BuildingBlock: INOVEN_clean_sbu_0, # of connection points: 6
#     Node 1, Type 0, BuildingBlock: INOVEN_clean_sbu_0, # of connection points: 6
#     Node 2, Type 0, BuildingBlock: INOVEN_clean_sbu_0, # of connection points: 6
#     Node 3, Type 0, BuildingBlock: INOVEN_clean_sbu_0, # of connection points: 6
#     Node 4, Type 0, BuildingBlock: INOVEN_clean_sbu_0, # of connection points: 6
#     Node 5, Type 0, BuildingBlock: INOVEN_clean_sbu_0, # of connection points: 6
#     Node 6, Type 0, BuildingBlock: INOVEN_clean_sbu_0, # of connection points: 6
#     Node 7, Type 0, BuildingBlock: INOVEN_clean_sbu_0, # of connection points: 6
#     Node 8, Type 0, BuildingBlock: INOVEN_clean_sbu_0, # of connection points: 6
#     Edge 9, Type (0, 0), BuildingBlock: UVAHIK_clean_linker_0, # of connection points: 2
#     Edge 10, Type (0, 0), BuildingBlock: UVAHIK_clean_linker_0, # of connection points: 2
#     Edge 11, Type (0, 0), BuildingBlock: UVAHIK_clean_linker_0, # of connection points: 2
#     Edge 12, Type (0, 0), BuildingBlock: UVAHIK_clean_linker_0, # of connection points: 2
#     Edge 13, Type (0, 0), BuildingBlock: UVAHIK_clean_linker_0, # of connection points: 2
#     Edge 14, Type (0, 0), BuildingBlock: UVAHIK_clean_linker_0, # of connection points: 2
#     Edge 15, Type (0, 0), BuildingBlock: UVAHIK_clean_linker_0, # of connection points: 2
#     Edge 16, Type (0, 0), BuildingBlock: UVAHIK_clean_linker_0, # of connection points: 2
#     Edge 17, Type (0, 0), BuildingBlock: UVAHIK_clean_linker_0, # of connection points: 2
#     Edge 18, Type (0, 0), BuildingBlock: UVAHIK_clean_linker_0, # of connection points: 2
#     Edge 19, Type (0, 0), BuildingBlock: UVAHIK_clean_linker_0, # of connection points: 2
#     Edge 20, Type (0, 0), BuildingBlock: UVAHIK_clean_linker_0, # of connection points: 2
#     Edge 21, Type (0, 0), BuildingBlock: UVAHIK_clean_linker_0, # of connection points: 2
#     Edge 22, Type (0, 0), BuildingBlock: UVAHIK_clean_linker_0, # of connection points: 2
#     Edge 23, Type (0, 0), BuildingBlock: UVAHIK_clean_linker_0, # of connection points: 2
#     Edge 24, Type (0, 0), BuildingBlock: UVAHIK_clean_linker_0, # of connection points: 2
#     Edge 25, Type (0, 0), BuildingBlock: UVAHIK_clean_linker_0, # of connection points: 2
#     Edge 26, Type (0, 0), BuildingBlock: UVAHIK_clean_linker_0, # of connection points: 2
#     Edge 27, Type (0, 0), BuildingBlock: UVAHIK_clean_linker_0, # of connection points: 2
#     Edge 28, Type (0, 0), BuildingBlock: UVAHIK_clean_linker_0, # of connection points: 2
#     Edge 29, Type (0, 0), BuildingBlock: UVAHIK_clean_linker_0, # of connection points: 2
#     Edge 30, Type (0, 0), BuildingBlock: UVAHIK_clean_linker_0, # of connection points: 2
#     Edge 31, Type (0, 0), BuildingBlock: UVAHIK_clean_linker_0, # of connection points: 2
#     Edge 32, Type (0, 0), BuildingBlock: UVAHIK_clean_linker_0, # of connection points: 2
#     Edge 33, Type (0, 0), BuildingBlock: UVAHIK_clean_linker_0, # of connection points: 2
#     Edge 34, Type (0, 0), BuildingBlock: UVAHIK_clean_linker_0, # of connection points: 2
#     Edge 35, Type (0, 0), BuildingBlock: UVAHIK_clean_linker_0, # of connection points: 2
# Relax obj value: 0.304
# Max RMSD: 0.258
# Mean RMSD: 0.167
data_MOF--net-snz--node1-INOVEN_clean_sbu_0--edge1-UVAHIK_clean_linker_0
_symmetry_space_group_name_H-M    P1
_symmetry_Int_Tables_number       1
_symmetry_cell_setting            triclinic
loop_
_symmetry_equiv_pos_as_xyz
'x, y, z'
_cell_length_a     80.993592
_cell_length_b     69.120079
_cell_length_c     20.494316
_cell_angle_alpha  96.234635
_cell_angle_beta   97.58351
_cell_angle_gamma 120.08264
loop_
_atom_site_label
_atom_site_type_symbol
_atom_site_fract_x
_atom_site_fract_y
_atom_site_fract_z
_atom_type_partial_charge
Gd0 Gd 0.09469 0.48836 0.13782 0.0
Gd1 Gd 0.06087 0.49065 0.13319 0.0
C2 C 0.05231 0.44095 0.10605 0.0
C3 C 0.11938 0.4742 0.157 0.0
C4 C 0.11971 0.45243 0.15882 0.0
C5 C 0.12567 0.44364 0.1075 0.0
C6 C 0.116 0.44138 0.21393 0.0
C7 C 0.1259 0.41498 0.16901 0.0
C8 C 0.11911 0.42311 0.21901 0.0
C9 C 0.12855 0.42521 0.11221 0.0
C10 C 0.08184 0.49212 1.01036 0.0
C11 C 0.1017 0.54 0.16433 0.0
C12 C 0.03128 0.49353 0.08679 0.0
C13 C 0.02735 0.51184 0.09721 0.0
C14 C 1.00816 0.50677 0.09219 0.0
C15 C 0.04282 0.5346 0.10918 0.0
C16 C 1.01975 0.54699 0.10015 0.0
C17 C 0.03907 0.55208 0.11106 0.0
C18 C 1.00434 0.52433 0.09362 0.0
C19 C 0.07032 0.49052 0.26772 0.0
O20 O 0.07136 0.4507 0.11501 0.0
O21 O 0.04415 0.45302 0.109 0.0
O22 O 0.11319 0.47723 0.09927 0.0
O23 O 0.11416 0.48227 0.20562 0.0
O24 O 0.09972 0.50428 1.04532 0.0
O25 O 0.07121 0.47931 1.04737 0.0
O26 O 0.08246 0.52874 0.14875 0.0
O27 O 0.11064 0.52815 0.16845 0.0
O28 O 0.0321 0.48443 0.13874 0.0
O29 O 0.04534 0.49764 0.05506 0.0
O30 O 0.05654 0.49307 0.23934 0.0
O31 O 0.08016 0.48951 0.22398 0.0
H32 H 0.12878 0.45157 0.06432 0.0
H33 H 0.11124 0.44728 0.25442 0.0
H34 H 0.11651 0.41556 0.26303 0.0
H35 H 0.1338 0.41968 0.07257 0.0
H36 H 0.99612 0.48924 0.08379 0.0
H37 H 0.05776 0.5389 0.11355 0.0
H38 H 0.05117 0.56943 0.11655 0.0
H39 H 0.98927 0.51996 0.08447 0.0
Gd40 Gd 0.66564 0.50037 0.17598 0.0
Gd41 Gd 0.62921 0.50194 0.14828 0.0
C42 C 0.66966 0.55152 0.1874 0.0
C43 C 0.69786 0.50151 0.16966 0.0
C44 C 0.71735 0.51803 0.1607 0.0
C45 C 0.73374 0.51991 0.20064 0.0
C46 C 0.71992 0.53278 0.11595 0.0
C47 C 0.75518 0.55031 0.1485 0.0
C48 C 0.73869 0.54872 0.10966 0.0
C49 C 0.75252 0.53596 0.19474 0.0
C50 C 0.65373 0.49753 0.29772 0.0
C51 C 0.62367 0.45156 0.12068 0.0
C52 C 0.59576 0.49594 0.16187 0.0
C53 C 0.57706 0.47559 0.16631 0.0
C54 C 0.56017 0.46775 0.11662 0.0
C55 C 0.57578 0.46366 0.21873 0.0
C56 C 0.5406 0.43796 0.17515 0.0
C57 C 0.55776 0.44509 0.22307 0.0
C58 C 0.54218 0.44917 0.12083 0.0
C59 C 0.64075 0.502 1.02547 0.0
O60 O 0.67863 0.53967 0.18632 0.0
O61 O 0.6503 0.54049 0.1772 0.0
O62 O 0.69376 0.50702 0.22537 0.0
O63 O 0.68318 0.49302 0.11802 0.0
O64 O 0.66843 0.49656 0.28456 0.0
O65 O 0.64503 0.4991 0.24273 0.0
O66 O 0.61563 0.46378 0.13131 0.0
O67 O 0.64309 0.46182 0.13176 0.0
O68 O 0.60071 0.49567 0.10391 0.0
O69 O 0.6107 0.50427 0.21256 0.0
O70 O 0.62573 0.50284 1.03644 0.0
O71 O 0.64935 0.5015 0.08206 0.0
H72 H 0.73199 0.50894 0.23644 0.0
H73 H 0.70745 0.53186 0.08552 0.0
H74 H 0.74022 0.55929 0.07282 0.0
H75 H 0.76495 0.53699 0.22586 0.0
H76 H 0.56079 0.47636 0.07505 0.0
H77 H 0.5886 0.46884 0.257 0.0
H78 H 0.55723 0.43654 0.26472 0.0
H79 H 0.52936 0.44428 0.083 0.0
Gd80 Gd 0.6211 0.07904 0.15691 0.0
Gd81 Gd 0.66171 0.12547 0.18031 0.0
C82 C 0.61984 0.12493 0.13466 0.0
C83 C 0.58867 0.05122 0.18916 0.0
C84 C 0.56856 0.04681 0.18511 0.0
C85 C 0.55378 0.0341 0.1269 0.0
C86 C 0.5637 0.05417 0.24236 0.0
C87 C 0.52934 0.03438 0.18535 0.0
C88 C 0.54441 0.04805 0.24254 0.0
C89 C 0.53448 0.02818 0.12681 0.0
C90 C 0.6306 0.08818 1.03111 0.0
C91 C 0.65977 0.07591 0.18798 0.0
C92 C 0.69621 0.15289 0.15599 0.0
C93 C 0.71498 0.15358 0.15096 0.0
C94 C 0.73328 0.17393 0.1755 0.0
C95 C 0.71484 0.13491 0.11467 0.0
C96 C 0.75043 0.15757 0.12222 0.0
C97 C 0.73218 0.13685 0.10074 0.0
C98 C 0.75066 0.17591 0.16145 0.0
C99 C 0.65244 0.11655 0.30731 0.0
O100 O 0.61075 0.10344 0.14209 0.0
O101 O 0.63965 0.13747 0.14596 0.0
O102 O 0.59369 0.04606 0.13444 0.0
O103 O 0.60266 0.07032 0.22866 0.0
O104 O 0.61522 0.07013 1.04074 0.0
O105 O 0.64015 0.09973 0.09098 0.0
O106 O 0.66998 0.09796 0.18476 0.0
O107 O 0.64051 0.06487 0.1812 0.0
O108 O 0.69196 0.15497 0.21484 0.0
O109 O 0.68068 0.13803 0.11023 0.0
O110 O 0.66716 0.13499 0.29655 0.0
O111 O 0.64293 0.10478 0.24732 0.0
H112 H 0.55699 0.02827 0.08179 0.0
H113 H 0.57474 0.06401 0.2882 0.0
H114 H 0.54128 0.05316 0.28888 0.0
H115 H 0.52355 0.01828 0.08091 0.0
H116 H 0.73409 0.18867 0.20379 0.0
H117 H 0.70114 0.11891 0.09474 0.0
H118 H 0.73106 0.12226 0.0703 0.0
H119 H 0.76429 0.19203 0.18061 0.0
Gd120 Gd 0.81072 0.85663 0.32513 0.0
Gd121 Gd 0.77694 0.85899 0.31456 0.0
C122 C 0.77009 0.80753 0.29287 0.0
C123 C 0.83955 0.85318 0.37697 0.0
C124 C 0.84428 0.83535 0.36727 0.0
C125 C 0.85627 0.83584 0.32304 0.0
C126 C 0.83664 0.81749 0.40236 0.0
C127 C 0.85349 0.80133 0.3514 0.0
C128 C 0.84114 0.80063 0.39432 0.0
C129 C 0.86079 0.81886 0.31495 0.0
C130 C 0.80195 0.85528 0.18851 0.0
C131 C 0.8194 0.90639 0.34455 0.0
C132 C 0.75221 0.873 0.29157 0.0
C133 C 0.75155 0.89467 0.29272 0.0
C134 C 0.74348 0.90106 0.34149 0.0
C135 C 0.75694 0.90791 0.24263 0.0
C136 C 0.7443 0.93154 0.28663 0.0
C137 C 0.7535 0.92609 0.23992 0.0
C138 C 0.73997 0.91904 0.3386 0.0
C139 C 0.78971 0.85668 0.44491 0.0
O140 O 0.78913 0.81896 0.31605 0.0
O141 O 0.76137 0.8193 0.28045 0.0
O142 O 0.84012 0.86382 0.3275 0.0
O143 O 0.82449 0.84809 0.40411 0.0
O144 O 0.81539 0.85265 0.21971 0.0
O145 O 0.7919 0.8569 0.23061 0.0
O146 O 0.80027 0.89655 0.33078 0.0
O147 O 0.82749 0.89423 0.34799 0.0
O148 O 0.75688 0.86836 0.34862 0.0
O149 O 0.75905 0.8667 0.24484 0.0
O150 O 0.77185 0.84427 0.40992 0.0
O151 O 0.80018 0.86913 0.40705 0.0
H152 H 0.8624 0.84949 0.29556 0.0
H153 H 0.82749 0.81671 0.43731 0.0
H154 H 0.83579 0.78777 0.42479 0.0
H155 H 0.87048 0.81984 0.28201 0.0
H156 H 0.73921 0.89157 0.38115 0.0
H157 H 0.76327 0.9038 0.20409 0.0
H158 H 0.75724 0.93518 0.19921 0.0
H159 H 0.73342 0.92286 0.37689 0.0
Gd160 Gd 0.241 0.84478 0.29738 0.0
Gd161 Gd 0.20565 0.84732 0.27358 0.0
C162 C 0.24726 0.89554 0.33407 0.0
C163 C 0.27441 0.85153 0.28033 0.0
C164 C 0.29371 0.87235 0.28442 0.0
C165 C 0.3098 0.87694 0.33292 0.0
C166 C 0.2965 0.88754 0.24037 0.0
C167 C 0.33164 0.90957 0.28776 0.0
C168 C 0.3153 0.90595 0.24198 0.0
C169 C 0.32845 0.8954 0.33504 0.0
C170 C 0.23031 0.84387 0.42177 0.0
C171 C 0.20089 0.79571 0.25776 0.0
C172 C 0.17274 0.84489 0.27435 0.0
C173 C 0.15373 0.82885 0.28716 0.0
C174 C 0.13714 0.82844 0.25493 0.0
C175 C 0.15173 0.81294 0.32726 0.0
C176 C 0.11695 0.79805 0.30874 0.0
C177 C 0.13339 0.79767 0.33834 0.0
C178 C 0.11878 0.81311 0.26583 0.0
C179 C 0.21715 0.85118 0.15116 0.0
O180 O 0.25518 0.88325 0.32216 0.0
O181 O 0.22787 0.88544 0.32226 0.0
O182 O 0.2687 0.84803 0.3368 0.0
O183 O 0.26015 0.84652 0.23051 0.0
O184 O 0.24437 0.84155 0.40697 0.0
O185 O 0.22134 0.84512 0.36727 0.0
O186 O 0.19252 0.80802 0.26686 0.0
O187 O 0.21996 0.80649 0.2609 0.0
O188 O 0.17674 0.83715 0.22186 0.0
O189 O 0.18769 0.85584 0.32563 0.0
O190 O 0.20349 0.85373 0.16766 0.0
O191 O 0.22583 0.84885 0.20446 0.0
H192 H 0.30805 0.86585 0.36836 0.0
H193 H 0.28431 0.88482 0.2033 0.0
H194 H 0.31713 0.91657 0.20509 0.0
H195 H 0.34054 0.89807 0.37252 0.0
H196 H 0.13846 0.8403 0.22247 0.0
H197 H 0.16437 0.81268 0.35101 0.0
H198 H 0.13213 0.78628 0.37239 0.0
H199 H 0.10621 0.81376 0.24355 0.0
Gd200 Gd 0.20985 0.22172 0.26818 0.0
Gd201 Gd 0.25022 0.26876 0.29522 0.0
C202 C 0.21146 0.27135 0.26264 0.0
C203 C 0.17485 0.19336 0.28733 0.0
C204 C 0.15692 0.19363 0.3001 0.0
C205 C 0.13814 0.17737 0.2608 0.0
C206 C 0.15805 0.20889 0.35454 0.0
C207 C 0.12214 0.19087 0.33237 0.0
C208 C 0.14109 0.20752 0.37035 0.0
C209 C 0.1211 0.17602 0.27647 0.0
C210 C 0.22049 0.23093 0.14322 0.0
C211 C 0.25181 0.22285 0.31571 0.0
C212 C 0.28298 0.29768 0.26684 0.0
C213 C 0.30282 0.30139 0.2682 0.0
C214 C 0.31816 0.31469 0.32469 0.0
C215 C 0.30701 0.29324 0.21034 0.0
C216 C 0.34165 0.31348 0.26329 0.0
C217 C 0.32616 0.2991 0.20807 0.0
C218 C 0.33732 0.32062 0.32229 0.0
C219 C 0.23947 0.25907 0.41913 0.0
O220 O 0.20133 0.24912 0.26401 0.0
O221 O 0.23075 0.28274 0.27141 0.0
O222 O 0.17893 0.19511 0.22785 0.0
O223 O 0.19072 0.20452 0.33488 0.0
O224 O 0.20621 0.21185 0.15288 0.0
O225 O 0.22919 0.24284 0.2036 0.0
O226 O 0.26085 0.24451 0.30966 0.0
O227 O 0.23201 0.21003 0.30307 0.0
O228 O 0.27819 0.30107 0.32386 0.0
O229 O 0.26855 0.28006 0.22324 0.0
O230 O 0.25468 0.27762 0.41099 0.0
O231 O 0.23057 0.24751 0.35882 0.0
H232 H 0.13656 0.16531 0.21838 0.0
H233 H 0.17212 0.22169 0.38631 0.0
H234 H 0.14295 0.21921 0.41427 0.0
H235 H 0.10708 0.16319 0.24459 0.0
H236 H 0.31552 0.32122 0.37008 0.0
H237 H 0.29559 0.28303 0.16566 0.0
H238 H 0.32898 0.29342 0.16175 0.0
H239 H 0.34889 0.33145 0.36607 0.0
Gd240 Gd 0.4449 0.17772 0.6781 0.0
Gd241 Gd 0.42644 0.16955 0.77379 0.0
C242 C 0.408 0.18443 0.65005 0.0
C243 C 0.45888 0.17717 0.57398 0.0
C244 C 0.45108 0.18195 0.51296 0.0
C245 C 0.45852 0.20483 0.50784 0.0
C246 C 0.43266 0.16517 0.47379 0.0
C247 C 0.42769 0.19458 0.43596 0.0
C248 C 0.42109 0.17137 0.43632 0.0
C249 C 0.44682 0.21112 0.47158 0.0
C250 C 0.46243 0.21852 0.76832 0.0
C251 C 0.4635 0.16314 0.8023 0.0
C252 C 0.41225 0.16981 0.87757 0.0
C253 C 0.41998 0.16493 0.93853 0.0
C254 C 0.41281 0.14203 0.94282 0.0
C255 C 0.43819 0.18186 0.97871 0.0
C256 C 0.44357 0.15267 1.01599 0.0
C257 C 0.44986 0.17584 1.01639 0.0
C258 C 0.42462 0.13593 0.97936 0.0
C259 C 0.40914 0.12879 0.6836 0.0
O260 O 0.42127 0.18314 0.62163 0.0
O261 O 0.40833 0.18164 0.713 0.0
O262 O 0.46795 0.19447 0.62467 0.0
O263 O 0.4468 0.15826 0.59171 0.0
O264 O 0.45638 0.21554 0.70415 0.0
O265 O 0.45709 0.19903 0.78301 0.0
O266 O 0.4501 0.16421 0.83046 0.0
O267 O 0.46326 0.16602 0.73945 0.0
O268 O 0.40326 0.15261 0.82658 0.0
O269 O 0.4244 0.18879 0.86033 0.0
O270 O 0.4155 0.13186 0.74758 0.0
O271 O 0.41421 0.14825 0.66908 0.0
H272 H 0.47278 0.21822 0.53709 0.0
H273 H 0.4265 0.14731 0.47592 0.0
H274 H 0.40694 0.15763 0.4079 0.0
H275 H 0.4529 0.22912 0.47298 0.0
H276 H 0.39871 0.12853 0.91282 0.0
H277 H 0.44413 0.19973 0.97722 0.0
H278 H 0.46385 0.18968 1.04563 0.0
H279 H 0.4188 0.11795 0.97742 0.0
Gd280 Gd 0.94986 0.17789 0.78336 0.0
Gd281 Gd 0.92118 0.16915 0.66692 0.0
C282 C 0.90656 0.16908 0.80093 0.0
C283 C 0.96871 0.18754 0.90207 0.0
C284 C 0.9565 0.17557 0.94849 0.0
C285 C 0.94674 0.15157 0.9362 0.0
C286 C 0.94867 0.18635 0.98389 0.0
C287 C 0.91965 0.14934 0.98108 0.0
C288 C 0.93045 0.17349 0.99931 0.0
C289 C 0.92836 0.13867 0.95046 0.0
C290 C 0.9267 0.1333 0.72499 0.0
C291 C 0.9639 0.17669 0.64832 0.0
C292 C 0.90352 0.16199 0.54835 0.0
C293 C 0.91668 0.17524 0.50579 0.0
C294 C 0.92541 0.19917 0.51874 0.0
C295 C 0.92603 0.1658 0.47383 0.0
C296 C 0.95412 0.20391 0.4802 0.0
C297 C 0.94459 0.17984 0.46271 0.0
C298 C 0.94399 0.21331 0.50706 0.0
C299 C 0.94467 0.21368 0.72571 0.0
O300 O 0.9256 0.17978 0.82776 0.0
O301 O 0.90013 0.15906 0.73667 0.0
O302 O 0.97007 0.17439 0.85481 0.0
O303 O 0.96491 0.20211 0.87851 0.0
O304 O 0.94522 0.14316 0.74905 0.0
O305 O 0.92104 0.14704 0.73481 0.0
O306 O 0.94483 0.16589 0.622 0.0
O307 O 0.97038 0.18712 0.71219 0.0
O308 O 0.90173 0.17425 0.59703 0.0
O309 O 0.90653 0.14646 0.56895 0.0
O310 O 0.92598 0.20368 0.70667 0.0
O311 O 0.95014 0.19985 0.7145 0.0
H312 H 0.95238 0.14255 0.90947 0.0
H313 H 0.95575 0.2048 0.99403 0.0
H314 H 0.92504 0.18279 1.0258 0.0
H315 H 0.92093 0.12027 0.93633 0.0
H316 H 0.91863 0.20716 0.54317 0.0
H317 H 0.9198 0.14749 0.46309 0.0
H318 H 0.95118 0.17149 0.43902 0.0
H319 H 0.95048 0.23162 0.51977 0.0
Gd320 Gd 0.91953 0.66183 0.65906 0.0
Gd321 Gd 0.94873 0.68347 0.78962 0.0
C322 C 0.96508 0.6982 0.66431 0.0
C323 C 0.9021 0.64975 0.53678 0.0
C324 C 0.90994 0.64179 0.48616 0.0
C325 C 0.90986 0.6213 0.48656 0.0
C326 C 0.92145 0.65696 0.44827 0.0
C327 C 0.93361 0.63223 0.41627 0.0
C328 C 0.93324 0.65232 0.41426 0.0
C329 C 0.92146 0.61648 0.45134 0.0
C330 C 0.93608 0.63827 0.69616 0.0
C331 C 0.90312 0.64723 0.78333 0.0
C332 C 0.96611 0.69506 0.912 0.0
C333 C 0.95843 0.7031 0.96309 0.0
C334 C 0.96047 0.72476 0.96755 0.0
C335 C 0.94532 0.68739 0.99622 0.0
C336 C 0.93571 0.71424 1.03398 0.0
C337 C 0.93399 0.69279 1.03054 0.0
C338 C 0.94931 0.73031 1.00307 0.0
C339 C 0.93197 0.707 0.75318 0.0
O340 O 0.94671 0.69055 0.6361 0.0
O341 O 0.96977 0.6937 0.72235 0.0
O342 O 0.89509 0.63651 0.57954 0.0
O343 O 0.91319 0.67144 0.56587 0.0
O344 O 0.91782 0.62876 0.66892 0.0
O345 O 0.94461 0.65937 0.70138 0.0
O346 O 0.92136 0.65388 0.81044 0.0
O347 O 0.89893 0.65315 0.72741 0.0
O348 O 0.9732 0.70843 0.86966 0.0
O349 O 0.95487 0.67346 0.88227 0.0
O350 O 0.95012 0.71661 0.7822 0.0
O351 O 0.92367 0.68591 0.74731 0.0
H352 H 0.90133 0.60926 0.51586 0.0
H353 H 0.92207 0.67296 0.44751 0.0
H354 H 0.942 0.66448 0.3858 0.0
H355 H 0.92102 0.60056 0.45165 0.0
H356 H 0.97028 0.73726 0.94197 0.0
H357 H 0.94324 0.67054 0.99345 0.0
H358 H 0.92417 0.68023 0.0558 0.0
H359 H 0.95137 0.74717 1.00682 0.0
C360 C 0.08828 0.50866 0.90397 0.0
C361 C 0.07714 0.48975 0.93286 0.0
C362 C 0.0861 0.5073 0.83325 0.0
C363 C 0.06511 0.46595 0.65969 0.0
H364 H 0.08149 0.52229 0.59739 0.0
C365 C 0.06907 0.46976 0.36797 0.0
C366 C 0.0734 0.48983 0.3434 0.0
C367 C 0.06838 0.4685 0.43725 0.0
C368 C 0.07673 0.50603 0.61154 0.0
H369 H 0.05454 0.45389 0.90468 0.0
H370 H 0.05074 0.45135 0.78176 0.0
H371 H 0.08092 0.52167 0.71353 0.0
H372 H 0.07933 0.52386 0.37568 0.0
H373 H 0.0787 0.52229 0.49236 0.0
H374 H 0.0603 0.45014 0.5566 0.0
C375 C 0.06136 0.46765 0.81449 0.0
C376 C 0.07666 0.5058 0.68096 0.0
C377 C 0.06339 0.46913 0.88608 0.0
C378 C 0.07668 0.5083 0.39163 0.0
C379 C 0.07614 0.50717 0.46042 0.0
C380 C 0.0651 0.46614 0.58953 0.0
C381 C 0.07273 0.48678 0.78567 0.0
C382 C 0.07124 0.48595 0.7081 0.0
C383 C 0.07189 0.48724 0.48639 0.0
C384 C 0.07119 0.48634 0.56277 0.0
H385 H 0.09912 0.52489 0.9367 0.0
H386 H 0.09559 0.52262 0.81628 0.0
H387 H 0.06064 0.44999 0.67598 0.0
H388 H 0.06549 0.45459 0.33301 0.0
H389 H 0.06483 0.45248 0.45149 0.0
C390 C 0.66242 0.51261 0.93516 0.0
C391 C 0.64436 0.49907 0.95366 0.0
C392 C 0.66397 0.51197 0.86595 0.0
C393 C 0.6354 0.47821 0.68311 0.0
H394 H 0.67348 0.5327 0.63111 0.0
C395 C 0.63348 0.48419 0.39134 0.0
C396 C 0.65078 0.49924 0.37095 0.0
C397 C 0.63288 0.48373 0.46107 0.0
C398 C 0.66274 0.51701 0.64346 0.0
H399 H 0.614 0.47381 0.91016 0.0
H400 H 0.61667 0.47213 0.79301 0.0
H401 H 0.673 0.53222 0.74952 0.0
H402 H 0.68116 0.52511 0.41213 0.0
H403 H 0.6801 0.52483 0.5301 0.0
H404 H 0.62517 0.46295 0.57714 0.0
C405 C 0.62986 0.48348 0.83096 0.0
C406 C 0.66248 0.51677 0.71311 0.0
C407 C 0.62826 0.48445 0.8995 0.0
C408 C 0.66729 0.51367 0.42415 0.0
C409 C 0.66666 0.51344 0.4933 0.0
C410 C 0.63567 0.47844 0.61345 0.0
C411 C 0.64763 0.49753 0.81139 0.0
C412 C 0.64868 0.49744 0.73546 0.0
C413 C 0.64951 0.49835 0.51456 0.0
C414 C 0.64924 0.49792 0.59094 0.0
H415 H 0.67525 0.52446 0.97404 0.0
H416 H 0.67814 0.52306 0.85545 0.0
H417 H 0.62467 0.46254 0.69566 0.0
H418 H 0.62051 0.47208 0.35333 0.0
H419 H 0.61918 0.47166 0.47273 0.0
C420 C 0.65057 0.1119 0.94468 0.0
C421 C 0.63429 0.0927 0.95922 0.0
C422 C 0.65265 0.11465 0.87662 0.0
C423 C 0.62482 0.0868 0.68553 0.0
H424 H 0.67326 0.13276 0.64843 0.0
C425 C 0.63309 0.09338 0.39643 0.0
C426 C 0.64904 0.11257 0.38034 0.0
C427 C 0.63132 0.09107 0.46506 0.0
C428 C 0.65933 0.11973 0.656 0.0
H429 H 0.6075 0.06156 0.90764 0.0
H430 H 0.61096 0.06591 0.79389 0.0
H431 H 0.67055 0.12928 0.7637 0.0
H432 H 0.67565 0.14421 0.43066 0.0
H433 H 0.67269 0.14047 0.54552 0.0
H434 H 0.61356 0.07724 0.57811 0.0
C435 C 0.6224 0.07938 0.8338 0.0
C436 C 0.65776 0.11767 0.72458 0.0
C437 C 0.62038 0.07669 0.90118 0.0
C438 C 0.66297 0.12904 0.43799 0.0
C439 C 0.66126 0.12674 0.50604 0.0
C440 C 0.62639 0.08884 0.61707 0.0
C441 C 0.63857 0.09846 0.81808 0.0
C442 C 0.64043 0.10106 0.74251 0.0
C443 C 0.64539 0.10767 0.523 0.0
C444 C 0.6437 0.10537 0.59898 0.0
H445 H 0.66181 0.12501 0.98587 0.0
H446 H 0.66547 0.12986 0.87054 0.0
H447 H 0.61085 0.07381 0.69288 0.0
H448 H 0.62184 0.0799 0.35593 0.0
H449 H 0.61873 0.07579 0.47205 0.0
C450 C 0.80065 0.87979 0.56893 0.0
C451 C 0.79488 0.85956 0.52259 0.0
C452 C 0.80261 0.8808 0.64027 0.0
C453 C 0.79841 0.84342 0.77702 0.0
H454 H 0.80484 0.89484 0.89813 0.0
C455 C 0.80623 0.84482 0.07027 0.0
C456 C 0.79996 0.85631 0.11256 0.0
C457 C 0.80642 0.84645 1.00158 0.0
C458 C 0.80283 0.88005 0.86565 0.0
H459 H 0.78718 0.8247 0.51941 0.0
H460 H 0.7909 0.82626 0.63931 0.0
H461 H 0.80424 0.89555 0.77896 0.0
H462 H 0.78988 0.87996 0.11176 0.0
H463 H 0.79025 0.88298 0.9928 0.0
H464 H 0.79667 0.82779 0.86309 0.0
C465 C 0.79389 0.84176 0.62278 0.0
C466 C 0.80263 0.88049 0.7955 0.0
C467 C 0.7917 0.84072 0.55191 0.0
C468 C 0.79426 0.87013 0.08188 0.0
C469 C 0.79475 0.87208 1.01275 0.0
C470 C 0.79859 0.84299 0.84665 0.0
C471 C 0.79906 0.86168 0.67011 0.0
C472 C 0.80019 0.86202 0.74803 0.0
C473 C 0.80066 0.86007 0.96993 0.0
C474 C 0.80069 0.86117 0.89366 0.0
H475 H 0.80303 0.8948 0.5499 0.0
H476 H 0.80676 0.89682 0.67165 0.0
H477 H 0.79681 0.82863 0.74635 0.0
H478 H 0.81119 0.83435 0.09064 0.0
H479 H 0.8116 0.83717 0.97368 0.0
C480 C 0.21791 0.85561 0.52321 0.0
C481 C 0.22625 0.84397 0.49373 0.0
C482 C 0.21667 0.85693 0.5929 0.0
C483 C 0.22178 0.83042 0.74719 0.0
H484 H 0.22356 0.88176 0.85136 0.0
C485 C 0.22885 0.84082 1.04591 0.0
C486 C 0.22103 0.85236 0.07908 0.0
C487 C 0.22945 0.84014 0.9759 0.0
C488 C 0.22286 0.86701 0.82382 0.0
H489 H 0.23963 0.82462 0.51848 0.0
H490 H 0.23728 0.82648 0.6354 0.0
H491 H 0.22357 0.87968 0.73146 0.0
H492 H 0.20783 0.87239 0.0604 0.0
H493 H 0.20917 0.87162 0.94239 0.0
H494 H 0.22097 0.81765 0.83892 0.0
C495 C 0.23145 0.83461 0.60592 0.0
C496 C 0.22286 0.86582 0.75349 0.0
C497 C 0.23292 0.8336 0.53739 0.0
C498 C 0.21422 0.86344 1.03858 0.0
C499 C 0.21503 0.86302 0.96943 0.0
C500 C 0.22181 0.83162 0.81726 0.0
C501 C 0.22341 0.84639 0.63658 0.0
C502 C 0.2225 0.84755 0.71279 0.0
C503 C 0.22244 0.85114 0.93516 0.0
C504 C 0.22248 0.85 0.85832 0.0
H505 H 0.21282 0.86428 0.49305 0.0
H506 H 0.2103 0.86624 0.61233 0.0
H507 H 0.22091 0.81555 0.71977 0.0
H508 H 0.23398 0.83164 0.07338 0.0
H509 H 0.2355 0.83084 0.9538 0.0
C510 C 0.22528 0.23254 0.5074 0.0
C511 C 0.23495 0.25438 0.49003 0.0
C512 C 0.22363 0.22974 0.57573 0.0
C513 C 0.23181 0.26352 0.75713 0.0
H514 H 0.22444 0.20896 0.81538 0.0
C515 C 0.23391 0.25666 0.05179 0.0
C516 C 0.22469 0.23509 0.0711 0.0
C517 C 0.23511 0.25896 0.98278 0.0
C518 C 0.22633 0.22447 0.80137 0.0
H519 H 0.25019 0.29021 0.53633 0.0
H520 H 0.24703 0.28559 0.65086 0.0
H521 H 0.22569 0.21222 0.69844 0.0
H522 H 0.20956 0.19909 1.02633 0.0
H523 H 0.21201 0.20292 0.91066 0.0
H524 H 0.23243 0.27579 0.8598 0.0
C525 C 0.24055 0.27022 0.61268 0.0
C526 C 0.22707 0.22636 0.73219 0.0
C527 C 0.24246 0.27298 0.54521 0.0
C528 C 0.21706 0.21619 1.01644 0.0
C529 C 0.21852 0.21846 0.94815 0.0
C530 C 0.23109 0.26164 0.82623 0.0
C531 C 0.23125 0.24855 0.63131 0.0
C532 C 0.22992 0.24602 0.70709 0.0
C533 C 0.22742 0.2399 0.92793 0.0
C534 C 0.22836 0.24206 0.85156 0.0
H535 H 0.21943 0.21746 0.46846 0.0
H536 H 0.21621 0.21252 0.58462 0.0
H537 H 0.23363 0.279 0.7431 0.0
H538 H 0.23978 0.27196 0.08983 0.0
H539 H 0.24226 0.27604 0.97279 0.0
C540 C 0.39761 0.18339 0.35111 0.0
C541 C 0.41615 0.2009 0.38915 0.0
C542 C 0.39516 0.17892 0.28105 0.0
C543 C 0.43753 0.19236 0.1992 0.0
H544 H 0.43218 0.14084 0.27438 0.0
C545 C 0.47368 0.16409 0.10092 0.0
C546 C 0.45512 0.14651 0.06324 0.0
C547 C 0.47626 0.16867 0.17102 0.0
C548 C 0.43406 0.15541 0.25372 0.0
H549 H 0.43928 0.23532 0.38579 0.0
H550 H 0.43465 0.22749 0.26562 0.0
H551 H 0.40948 0.15311 0.28615 0.0
H552 H 0.43189 0.11224 0.06738 0.0
H553 H 0.43684 0.12022 0.18755 0.0
H554 H 0.46212 0.19467 0.16682 0.0
C555 C 0.42375 0.21495 0.28816 0.0
C556 C 0.42069 0.16226 0.25896 0.0
C557 C 0.4266 0.21938 0.35809 0.0
C558 C 0.44468 0.12815 0.09472 0.0
C559 C 0.4477 0.13269 0.16469 0.0
C560 C 0.45091 0.18551 0.19396 0.0
C561 C 0.41153 0.19206 0.25411 0.0
C562 C 0.42231 0.18106 0.23245 0.0
C563 C 0.45997 0.15561 0.19841 0.0
C564 C 0.44927 0.16668 0.22036 0.0
H565 H 0.38724 0.17046 0.37421 0.0
H566 H 0.38341 0.16231 0.25282 0.0
H567 H 0.43942 0.20694 0.17858 0.0
H568 H 0.48396 0.17699 0.0775 0.0
H569 H 0.48804 0.18531 0.19895 0.0
C570 C 0.97145 0.23349 0.41708 0.0
C571 C 0.97235 0.21849 0.45662 0.0
C572 C 0.97084 0.22861 0.34857 0.0
C573 C 0.93556 0.18251 0.29421 0.0
H574 H 0.93861 0.15573 0.12437 0.0
C575 C 0.90024 0.11772 1.03635 0.0
C576 C 0.90152 0.13571 1.00639 0.0
C577 C 0.90042 0.11954 0.10493 0.0
C578 C 0.93764 0.16272 0.17261 0.0
H579 H 0.98616 0.19896 0.47015 0.0
H580 H 0.98342 0.18863 0.35063 0.0
H581 H 0.96866 0.1867 0.20053 0.0
H582 H 0.89132 0.15933 1.0085 0.0
H583 H 0.89237 0.16319 0.12782 0.0
H584 H 0.90457 0.15892 0.26596 0.0
C585 C 0.98125 0.20237 0.36832 0.0
C586 C 0.95479 0.18062 0.2153 0.0
C587 C 0.98268 0.20822 0.43724 0.0
C588 C 0.89302 0.14727 1.03374 0.0
C589 C 0.89345 0.14938 0.10258 0.0
C590 C 0.91847 0.16458 0.25184 0.0
C591 C 0.97152 0.20933 0.32369 0.0
C592 C 0.95381 0.19088 0.27591 0.0
C593 C 0.90137 0.13884 0.13947 0.0
C594 C 0.91934 0.15463 0.19057 0.0
H595 H 0.96612 0.24439 0.43308 0.0
H596 H 0.9649 0.23572 0.31481 0.0
H597 H 0.93445 0.1901 0.34112 0.0
H598 H 0.90394 0.10595 1.01359 0.0
H599 H 0.90477 0.10967 0.1322 0.0
C600 C 0.96287 0.64373 0.36969 0.0
C601 C 0.94382 0.6264 0.37068 0.0
C602 C 0.96623 0.65206 0.31053 0.0
C603 C 0.92712 0.65243 0.18783 0.0
H604 H 0.95334 0.71311 0.2985 0.0
C605 C 0.90775 0.70416 0.0877 0.0
C606 C 0.92656 0.72096 0.08234 0.0
C607 C 0.90562 0.69625 0.14789 0.0
C608 C 0.94568 0.69628 0.26667 0.0
H609 H 0.91767 0.59705 0.30776 0.0
H610 H 0.92326 0.61166 0.20644 0.0
H611 H 0.9668 0.68982 0.31281 0.0
H612 H 0.95353 0.75051 0.14049 0.0
H613 H 0.95008 0.73677 0.24348 0.0
H614 H 0.90602 0.65897 0.14164 0.0
C615 C 0.9349 0.62085 0.25081 0.0
C616 C 0.9537 0.6827 0.2741 0.0
C617 C 0.93175 0.61202 0.30915 0.0
C618 C 0.93962 0.73577 0.14203 0.0
C619 C 0.93768 0.72748 0.20146 0.0
C620 C 0.91913 0.66604 0.18033 0.0
C621 C 0.95001 0.64375 0.25687 0.0
C622 C 0.94438 0.66022 0.23587 0.0
C623 C 0.92259 0.70481 0.19846 0.0
C624 C 0.92839 0.68845 0.21886 0.0
H625 H 0.97337 0.654 0.41633 0.0
H626 H 0.97971 0.66797 0.31311 0.0
H627 H 0.91941 0.63562 0.15595 0.0
H628 H 0.89648 0.69368 1.04285 0.0
H629 H 0.89235 0.68042 0.14791 0.0
C630 C 0.18043 0.27315 0.22951 0.0
C631 C 0.20095 0.28428 0.2513 0.0
C632 C 0.17104 0.28563 0.21896 0.0
C633 C 0.18047 0.34607 0.26001 0.0
H634 H 0.13199 0.32153 0.12996 0.0
C635 C 0.14286 0.39928 0.24027 0.0
C636 C 0.13167 0.3974 0.17847 0.0
C637 C 0.14969 0.38429 0.24872 0.0
C638 C 0.14563 0.32895 0.1663 0.0
H639 H 0.22737 0.3178 0.27761 0.0
H640 H 0.21145 0.33914 0.25914 0.0
H641 H 0.14692 0.2986 0.14313 0.0
H642 H 0.11824 0.3769 0.07761 0.0
H643 H 0.13005 0.35086 0.09184 0.0
H644 H 0.17986 0.37663 0.28159 0.0
C645 C 0.20229 0.32075 0.2512 0.0
C646 C 0.15418 0.31548 0.17457 0.0
C647 C 0.2116 0.30833 0.26138 0.0
C648 C 0.12704 0.37929 0.12585 0.0
C649 C 0.13377 0.3641 0.13441 0.0
C650 C 0.17207 0.35952 0.25145 0.0
C651 C 0.18175 0.30983 0.23027 0.0
C652 C 0.17192 0.32379 0.22147 0.0
C653 C 0.14568 0.36653 0.19577 0.0
C654 C 0.15442 0.35142 0.20451 0.0
H655 H 0.17154 0.25469 0.22036 0.0
H656 H 0.15528 0.27621 0.20304 0.0
H657 H 0.1938 0.35337 0.29785 0.0
H658 H 0.14689 0.41289 0.28218 0.0
H659 H 0.1582 0.38682 0.29762 0.0
C660 C 0.67176 0.58961 0.17941 0.0
C661 C 0.68121 0.57792 0.19871 0.0
C662 C 0.68177 0.61384 0.18933 0.0
C663 C 0.72833 0.66963 0.2853 0.0
H664 H 0.71022 0.69649 0.15978 0.0
C665 C 0.76922 0.7706 0.30864 0.0
C666 C 0.75934 0.78119 0.28266 0.0
C667 C 0.76027 0.74648 0.29924 0.0
C668 C 0.7155 0.68967 0.19659 0.0
H669 H 0.7095 0.58417 0.24544 0.0
H670 H 0.72682 0.62616 0.26383 0.0
H671 H 0.69478 0.65525 0.14265 0.0
H672 H 0.73148 0.77306 0.22549 0.0
H673 H 0.71586 0.73141 0.20926 0.0
H674 H 0.74906 0.70411 0.33941 0.0
C675 C 0.71142 0.61644 0.24022 0.0
C676 C 0.70647 0.66548 0.18649 0.0
C677 C 0.7014 0.59201 0.22919 0.0
C678 C 0.73984 0.76612 0.24676 0.0
C679 C 0.73086 0.74184 0.23692 0.0
C680 C 0.73735 0.6939 0.29562 0.0
C681 C 0.70189 0.62811 0.22014 0.0
C682 C 0.71244 0.65462 0.2307 0.0
C683 C 0.74079 0.7312 0.2628 0.0
C684 C 0.73114 0.70474 0.25175 0.0
H685 H 0.65636 0.57993 0.15579 0.0
H686 H 0.67339 0.62138 0.17353 0.0
H687 H 0.73364 0.66265 0.32155 0.0
H688 H 0.78421 0.78106 0.33677 0.0
H689 H 0.76899 0.7399 0.31994 0.0
C690 C 0.50259 0.03674 0.23185 0.0
C691 C 0.5083 0.02495 0.18867 0.0
C692 C 0.48321 0.02646 0.24018 0.0
C693 C 0.43692 0.96794 0.20221 0.0
H694 H 0.41538 1.00146 0.28101 0.0
C695 C 0.36594 0.91945 0.28962 0.0
C696 C 0.35203 0.92596 0.28155 0.0
C697 C 0.38473 0.93349 0.28002 0.0
C698 C 0.42106 0.99184 0.258 0.0
H699 H 0.49732 0.99316 0.11824 0.0
H700 H 0.46395 0.97669 0.12642 0.0
H701 H 0.44773 0.02224 0.25573 0.0
H702 H 0.34741 0.953 0.25846 0.0
H703 H 0.38034 0.97741 0.239 0.0
H704 H 0.40992 0.93773 0.19963 0.0
C705 C 0.47438 0.99325 0.15791 0.0
C706 C 0.43989 1.00379 0.2444 0.0
C707 C 0.49376 1.00315 0.15141 0.0
C708 C 0.35767 0.94731 0.26443 0.0
C709 C 0.37663 0.96141 0.25395 0.0
C710 C 0.41807 0.95618 0.21371 0.0
C711 C 0.46876 1.00424 0.20431 0.0
C712 C 0.44828 0.99201 0.21677 0.0
C713 C 0.39029 0.95438 0.26015 0.0
C714 C 0.40996 0.9678 0.24339 0.0
H715 H 0.51313 0.0538 0.26038 0.0
H716 H 0.47987 0.03583 0.27642 0.0
H717 H 0.44252 0.95773 0.18305 0.0
H718 H 0.3622 0.90305 0.30154 0.0
H719 H 0.39486 0.92765 0.28745 0.0
C720 C 0.58581 0.11999 0.11342 0.0
C721 C 0.60581 0.13318 0.11003 0.0
C722 C 0.5714 0.12446 0.08483 0.0
C723 C 0.56303 0.16685 0.99571 0.0
H724 H 0.50889 0.1176 0.96019 0.0
C725 C 0.49874 0.17092 0.82801 0.0
C726 C 0.47971 0.16034 0.84146 0.0
C727 C 0.514 0.1688 0.86339 0.0
C728 C 0.52382 0.13183 0.96995 0.0
H729 H 0.62546 0.16259 0.0725 0.0
H730 H 0.60059 0.17047 1.02261 0.0
H731 H 0.53452 0.11213 1.01246 0.0
H732 H 0.46269 0.13898 0.90583 0.0
H733 H 0.48869 0.13445 0.96495 0.0
H734 H 0.552 0.18621 0.95071 0.0
C735 C 0.59592 0.1563 0.04816 0.0
C736 C 0.53898 0.12872 1.00101 0.0
C737 C 0.61054 0.15182 0.07742 0.0
C738 C 0.47685 0.14744 0.89275 0.0
C739 C 0.492 0.14476 0.92693 0.0
C740 C 0.54784 0.16984 0.96374 0.0
C741 C 0.5757 0.14244 0.04974 0.0
C742 C 0.55919 0.14612 1.01535 0.0
C743 C 0.51112 0.15542 0.91343 0.0
C744 C 0.52771 0.15242 0.94975 0.0
H745 H 0.58095 0.10556 0.13806 0.0
H746 H 0.55669 0.11342 0.09092 0.0
H747 H 0.5779 0.18116 1.00543 0.0
H748 H 0.50201 0.18127 0.79004 0.0
H749 H 0.52811 0.17742 0.85007 0.0
C750 C 0.95595 0.23873 0.83768 0.0
C751 C 0.95683 0.2361 0.76972 0.0
C752 C 0.96687 0.26028 0.87952 0.0
C753 C 0.98149 0.31722 0.87809 0.0
H754 H 1.02305 0.3365 1.0339 0.0
C755 C 0.03181 0.41083 1.00608 0.0
C756 C 0.03984 0.41675 0.07508 0.0
C757 C 1.0204 0.38803 0.97371 0.0
C758 C 1.01119 0.33123 0.99146 0.0
H759 H 0.96929 0.25325 0.69094 0.0
H760 H 0.98774 0.29154 0.76389 0.0
H761 H 1.00686 0.29779 0.96648 0.0
H762 H 0.04174 0.4041 0.16599 0.0
H763 H 1.02103 0.36366 0.10962 0.0
H764 H 0.98512 0.35007 0.90335 0.0
C765 C 0.97912 0.27681 0.785 0.0
C766 C 1.00214 0.30923 0.95264 0.0
C767 C 0.96864 0.25511 0.74358 0.0
C768 C 0.03583 0.39967 0.11233 0.0
C769 C 0.02407 0.37667 0.08002 0.0
C770 C 0.99021 0.339 0.9175 0.0
C771 C 0.97816 0.27946 0.85304 0.0
C772 C 0.98756 0.30235 0.89504 0.0
C773 C 1.01649 0.37063 1.01006 0.0
C774 C 1.00551 0.34649 0.97371 0.0
H775 H 0.94658 0.22424 0.85819 0.0
H776 H 0.96584 0.26212 0.93177 0.0
H777 H 0.96993 0.31192 0.83445 0.0
H778 H 0.03478 0.42393 0.97681 0.0
H779 H 1.01518 0.38412 0.91974 0.0
C780 C 0.88828 0.62142 0.86129 0.0
C781 C 0.88813 0.63668 0.82187 0.0
C782 C 0.8749 0.61304 0.90256 0.0
C783 C 0.82924 0.60887 0.93424 0.0
H784 H 0.8461 0.59993 0.10863 0.0
C785 C 0.78012 0.58686 0.12114 0.0
C786 C 0.77481 0.56536 0.1358 0.0
C787 C 0.79669 0.5988 0.09506 0.0
C788 C 0.84135 0.60256 0.06024 0.0
H789 H 0.87433 0.65538 0.79386 0.0
H790 H 0.85172 0.64185 0.8682 0.0
H791 H 0.8687 0.61284 1.03282 0.0
H792 H 0.78365 0.54053 0.14067 0.0
H793 H 0.8127 0.56161 0.096 0.0
H794 H 0.80205 0.59898 0.9622 0.0
C795 C 0.86145 0.63547 0.86574 0.0
C796 C 0.85412 0.60963 1.01648 0.0
C797 C 0.87443 0.64331 0.82328 0.0
C798 C 0.78739 0.5571 0.13016 0.0
C799 C 0.80403 0.56914 0.10458 0.0
C800 C 0.81667 0.60226 0.97839 0.0
C801 C 0.86159 0.62035 0.90619 0.0
C802 C 0.84813 0.61271 0.95278 0.0
C803 C 0.80825 0.58952 0.08395 0.0
C804 C 0.82257 0.59892 1.04147 0.0
H805 H 0.89875 0.61607 0.86031 0.0
H806 H 0.87508 0.601 0.93184 0.0
H807 H 0.82396 0.61054 0.88508 0.0
H808 H 0.77095 0.5939 0.1266 0.0
H809 H 0.79989 0.6147 0.0802 0.0
C810 C 0.96413 0.63663 0.74841 0.0
C811 C 0.94403 0.62798 0.73727 0.0
C812 C 0.97256 0.6294 0.79542 0.0
C813 C 0.97307 0.61398 0.94949 0.0
H814 H 0.99134 0.5751 0.88196 0.0
C815 C 1.00019 0.56562 0.10163 0.0
C816 C 1.01548 0.56414 0.08143 0.0
C817 C 0.9929 0.57738 0.06945 0.0
C818 C 0.98654 0.58621 0.90143 0.0
H819 H 0.91679 0.60559 0.76541 0.0
H820 H 0.93183 0.59296 0.84924 0.0
H821 H 0.97407 0.58625 0.80292 0.0
H822 H 0.03628 0.57529 1.01624 0.0
H823 H 0.02392 0.59625 0.96194 0.0
H824 H 0.9859 0.61425 0.04828 0.0
C825 C 0.94083 0.60507 0.82094 0.0
C826 C 0.97655 0.59229 0.85643 0.0
C827 C 0.93229 0.61196 0.77277 0.0
C828 C 0.02463 0.57637 1.03353 0.0
C829 C 1.01745 0.58816 1.00185 0.0
C830 C 0.98323 0.60798 0.99487 0.0
C831 C 0.96095 0.6139 0.83226 0.0
C832 C 0.96996 0.60628 0.88038 0.0
C833 C 1.00088 0.58762 1.01696 0.0
C834 C 0.99025 0.59433 0.97082 0.0
H835 H 0.97331 0.64924 0.72162 0.0
H836 H 0.98814 0.63614 0.80389 0.0
H837 H 0.96805 0.62498 0.96798 0.0
H838 H 0.99309 0.55646 0.13895 0.0
H839 H 0.98011 0.57687 0.08177 0.0
C840 C 0.59025 0.41543 0.10357 0.0
C841 C 0.60958 0.42589 0.09355 0.0
C842 C 0.57578 0.3926 0.07264 0.0
C843 C 0.5635 0.34345 0.93083 0.0
H844 H 0.51838 0.31079 1.00817 0.0
C845 C 0.4927 0.25787 0.7762 0.0
C846 C 0.47988 0.2413 0.80897 0.0
C847 C 0.50903 0.27913 0.81229 0.0
C848 C 0.53082 0.31927 0.98533 0.0
H849 H 0.6284 0.4192 1.04198 0.0
H850 H 0.60338 0.3793 0.98876 0.0
H851 H 0.54544 0.34795 0.06824 0.0
H852 H 0.47486 0.23494 0.90754 0.0
H853 H 0.50291 0.27182 0.97045 0.0
H854 H 0.54907 0.3143 0.84891 0.0
C855 C 0.59924 0.38898 1.02048 0.0
C856 C 0.54654 0.34122 1.01994 0.0
C857 C 0.61388 0.41203 0.05203 0.0
C858 C 0.4842 0.24702 0.87989 0.0
C859 C 0.50043 0.26852 0.91617 0.0
C860 C 0.54778 0.3214 0.89629 0.0
C861 C 0.57967 0.37869 1.0294 0.0
C862 C 0.56325 0.35416 0.99336 0.0
C863 C 0.51335 0.28522 0.88336 0.0
C864 C 0.53085 0.30876 0.92214 0.0
H865 H 0.58602 0.42516 0.13478 0.0
H866 H 0.56121 0.38624 0.08132 0.0
H867 H 0.57571 0.35226 0.9072 0.0
H868 H 0.49022 0.25435 0.72186 0.0
H869 H 0.51805 0.29101 0.78361 0.0
C870 C 0.89349 0.18922 0.86928 0.0
C871 C 0.89238 0.16886 0.84228 0.0
C872 C 0.87932 0.18891 0.90366 0.0
C873 C 0.84144 0.15377 0.99735 0.0
H874 H 0.8191 0.19019 0.9548 0.0
C875 C 0.77195 0.14199 0.09185 0.0
C876 C 0.76869 0.16028 0.10051 0.0
C877 C 0.78801 0.14396 0.06625 0.0
C878 C 0.82529 0.18014 0.96874 0.0
H879 H 0.87555 0.1322 0.83218 0.0
H880 H 0.85138 0.13164 0.89431 0.0
H881 H 0.84478 0.192 0.90075 0.0
H882 H 0.78091 0.19549 0.09011 0.0
H883 H 0.80879 0.19908 1.04748 0.0
H884 H 0.82227 0.14215 0.06616 0.0
C885 C 0.86302 0.14793 0.88801 0.0
C886 C 0.84013 0.18114 0.93709 0.0
C887 C 0.8769 0.14822 0.85213 0.0
C888 C 0.78265 0.18089 0.08468 0.0
C889 C 0.79868 0.18285 0.05895 0.0
C890 C 0.82675 0.15295 1.02965 0.0
C891 C 0.8638 0.16824 0.9139 0.0
C892 C 0.84838 0.1678 0.95013 0.0
C893 C 0.80158 0.16431 0.04788 0.0
C894 C 0.81814 0.16594 1.01563 0.0
H895 H 0.90507 0.20543 0.86223 0.0
H896 H 0.88061 0.20496 0.92269 0.0
H897 H 0.84754 0.1435 1.00999 0.0
H898 H 0.76195 0.12591 0.10439 0.0
H899 H 0.78936 0.12911 0.05903 0.0
C900 C 0.66029 0.04078 0.21353 0.0
C901 C 0.67026 0.06301 0.2001 0.0
C902 C 0.66979 0.02862 0.22532 0.0
C903 C 0.71396 0.02528 0.20171 0.0
H904 H 0.69869 0.98606 0.33104 0.0
C905 C 0.74907 0.96933 0.25726 0.0
C906 C 0.73789 0.94876 0.27935 0.0
C907 C 0.7425 0.98479 0.25044 0.0
C908 C 0.70303 0.99644 0.29348 0.0
H909 H 0.69865 0.08953 0.18906 0.0
H910 H 0.71509 0.06831 0.20882 0.0
H911 H 0.68434 0.009 0.31308 0.0
H912 H 0.71046 0.92864 0.30913 0.0
H913 H 0.69898 0.95445 0.29575 0.0
H914 H 0.73245 0.01237 0.18125 0.0
C915 C 0.69975 0.06018 0.21002 0.0
C916 C 0.69471 0.0099 0.28337 0.0
C917 C 0.69026 0.07251 0.1989 0.0
C918 C 0.71988 0.94434 0.29357 0.0
C919 C 0.71325 0.95951 0.28601 0.0
C920 C 0.72215 0.01152 0.21124 0.0
C921 C 0.68973 0.03795 0.22379 0.0
C922 C 0.69972 0.02442 0.23661 0.0
C923 C 0.72434 0.98024 0.26462 0.0
C924 C 0.71664 0.9964 0.25664 0.0
H925 H 0.64498 0.03264 0.21524 0.0
H926 H 0.66126 0.01156 0.2347 0.0
H927 H 0.71838 0.03609 0.16517 0.0
H928 H 0.76308 0.9737 0.24604 0.0
H929 H 0.75187 1.00045 0.23462 0.0
C930 C 0.17105 0.75625 0.26417 0.0
C931 C 0.18904 0.76925 0.24461 0.0
C932 C 0.16105 0.73185 0.25461 0.0
C933 C 0.15973 0.67901 0.16119 0.0
H934 H 0.12879 0.64757 0.2858 0.0
C935 C 0.13003 0.58008 0.15547 0.0
C936 C 0.11249 0.56634 0.1764 0.0
C937 C 0.13853 0.60421 0.1616 0.0
C938 C 0.13716 0.65573 0.24954 0.0
H939 H 0.20982 0.76525 0.19734 0.0
H940 H 0.19269 0.72375 0.17989 0.0
H941 H 0.14396 0.68889 0.29905 0.0
H942 H 0.09037 0.56852 0.21996 0.0
H943 H 0.10515 0.60974 0.23249 0.0
H944 H 0.15292 0.64589 0.11162 0.0
C945 C 0.18608 0.73215 0.20315 0.0
C946 C 0.14603 0.67993 0.25731 0.0
C947 C 0.19618 0.75643 0.21373 0.0
C948 C 0.10399 0.57808 0.20389 0.0
C949 C 0.11263 0.60215 0.21129 0.0
C950 C 0.15089 0.65485 0.15347 0.0
C951 C 0.16828 0.71899 0.22376 0.0
C952 C 0.1578 0.69243 0.21381 0.0
C953 C 0.13016 0.61606 0.19013 0.0
C954 C 0.13946 0.6424 0.19774 0.0
H955 H 0.16479 0.76498 0.2883 0.0
H956 H 0.14745 0.72306 0.27118 0.0
H957 H 0.16802 0.68712 0.12472 0.0
H958 H 0.137 0.57208 0.13247 0.0
H959 H 0.15191 0.61361 0.14426 0.0
C960 C 0.50569 0.40495 0.13038 0.0
C961 C 0.52096 0.42054 0.18508 0.0
C962 C 0.48669 0.39071 0.13971 0.0
C963 C 0.45638 0.386 0.26905 0.0
H964 H 0.41687 0.33107 0.14088 0.0
C965 C 0.37574 0.34671 0.27908 0.0
C966 C 0.36237 0.32317 0.25703 0.0
C967 C 0.39492 0.35659 0.27038 0.0
C968 C 0.42774 0.34615 0.178 0.0
H969 H 0.52816 0.43244 0.29307 0.0
H970 H 0.49597 0.40686 0.31013 0.0
H971 H 0.45048 0.3505 0.12727 0.0
H972 H 0.35879 0.29145 0.20852 0.0
H973 H 0.3927 0.30854 0.19593 0.0
H974 H 0.4342 0.38089 0.32254 0.0
C975 C 0.4981 0.40613 0.25916 0.0
C976 C 0.44713 0.35766 0.16945 0.0
C977 C 0.51691 0.4206 0.24964 0.0
C978 C 0.36877 0.30967 0.2262 0.0
C979 C 0.38821 0.31955 0.21855 0.0
C980 C 0.43727 0.37418 0.27865 0.0
C981 C 0.48242 0.39144 0.20424 0.0
C982 C 0.46179 0.37804 0.21441 0.0
C983 C 0.40163 0.34325 0.24056 0.0
C984 C 0.42245 0.35439 0.23251 0.0
H985 H 0.50831 0.4041 0.07998 0.0
H986 H 0.4753 0.3798 0.09566 0.0
H987 H 0.46672 0.40177 0.30441 0.0
H988 H 0.37121 0.35773 0.30138 0.0
H989 H 0.40432 0.37494 0.28595 0.0
C990 C 0.90376 0.70549 0.68621 0.0
C991 C 0.92386 0.71766 0.714 0.0
C992 C 0.89621 0.71352 0.63894 0.0
C993 C 0.90623 0.76417 0.57412 0.0
H994 H 0.87165 0.72094 0.40933 0.0
C995 C 0.88172 0.79618 0.36776 0.0
C996 C 0.86138 0.78633 0.35536 0.0
C997 C 0.89004 0.78491 0.39639 0.0
C998 C 0.88136 0.73309 0.45502 0.0
H999 H 0.95187 0.74801 0.71795 0.0
H1000 H 0.93861 0.76222 0.63479 0.0
H1001 H 0.88461 0.7081 0.49843 0.0
H1002 H 0.83364 0.75573 0.35276 0.0
H1003 H 0.8483 0.73623 0.40477 0.0
H1004 H 0.90281 0.78907 0.53175 0.0
C1005 C 0.92872 0.74656 0.64969 0.0
C1006 C 0.88861 0.7258 0.5059 0.0
C1007 C 0.93627 0.73854 0.69718 0.0
C1008 C 0.84939 0.76377 0.36305 0.0
C1009 C 0.85775 0.75257 0.39233 0.0
C1010 C 0.89906 0.77145 0.52337 0.0
C1011 C 0.90873 0.73379 0.61924 0.0
C1012 C 0.90105 0.74134 0.56569 0.0
C1013 C 0.87812 0.76381 0.41315 0.0
C1014 C 0.88666 0.756 0.46343 0.0
H1015 H 0.89398 0.68938 0.69923 0.0
H1016 H 0.88068 0.70371 0.61689 0.0
H1017 H 0.91554 0.77629 0.62039 0.0
H1018 H 0.89134 0.81356 0.36255 0.0
H1019 H 0.90582 0.79365 0.41139 0.0
C1020 C 0.38204 0.08735 0.67568 0.0
C1021 C 0.39189 0.10573 0.64324 0.0
C1022 C 0.36572 0.06595 0.64052 0.0
C1023 C 0.33795 0.02954 0.46358 0.0
H1024 H 0.30004 0.9908 0.55992 0.0
C1025 C 0.27942 0.93278 0.34315 0.0
C1026 C 0.26126 0.92113 0.36223 0.0
C1027 C 0.29394 0.95567 0.37391 0.0
C1028 C 0.31025 1.00126 0.53133 0.0
H1029 H 0.39155 0.11509 0.54599 0.0
H1030 H 0.36337 0.07803 0.48453 0.0
H1031 H 0.32688 0.02867 0.6177 0.0
H1032 H 0.2446 0.92553 0.43034 0.0
H1033 H 0.26979 0.96528 0.48433 0.0
H1034 H 0.32101 1.00231 0.37679 0.0
C1035 C 0.3683 0.08001 0.53786 0.0
C1036 C 0.32612 0.02326 0.56529 0.0
C1037 C 0.3846 0.1016 0.57342 0.0
C1038 C 0.25815 0.9337 0.41312 0.0
C1039 C 0.2729 0.95665 0.44493 0.0
C1040 C 0.32208 0.00754 0.42964 0.0
C1041 C 0.35831 0.06155 0.57051 0.0
C1042 C 0.3406 0.03799 0.53268 0.0
C1043 C 0.29131 0.9682 0.42658 0.0
C1044 C 0.30788 0.99263 0.46266 0.0
H1045 H 0.38688 0.0895 0.72924 0.0
H1046 H 0.35913 0.05268 0.66885 0.0
H1047 H 0.34841 0.03971 0.43529 0.0
H1048 H 0.28262 0.92395 0.30454 0.0
H1049 H 0.30763 0.96321 0.35756 0.0
C1050 C 0.97337 0.15991 0.55217 0.0
C1051 C 0.97835 0.17748 0.60699 0.0
C1052 C 0.98765 0.1604 0.51768 0.0
C1053 C 0.04332 0.19277 0.5336 0.0
H1054 H 0.03011 0.15882 0.35232 0.0
C1055 C 0.10431 0.20788 0.38765 0.0
C1056 C 0.10384 0.18874 0.35278 0.0
C1057 C 0.08816 0.20577 0.4125 0.0
C1058 C 0.03412 0.1684 0.4031 0.0
H1059 H 1.00236 0.20988 0.66548 0.0
H1060 H 0.02648 0.21164 0.60433 0.0
H1061 H 1.00417 0.15677 0.40616 0.0
H1062 H 0.08459 0.15222 0.31437 0.0
H1063 H 0.05647 0.14878 0.35622 0.0
H1064 H 0.07321 0.20481 0.52988 0.0
C1065 C 1.01196 0.19662 0.58922 0.0
C1066 C 1.01909 0.16716 0.43459 0.0
C1067 C 0.99788 0.19582 0.62441 0.0
C1068 C 0.08592 0.16755 0.34066 0.0
C1069 C 0.06962 0.1655 0.365 0.0
C1070 C 0.05823 0.19434 0.50179 0.0
C1071 C 1.00743 0.17874 0.53581 0.0
C1072 C 0.02333 0.17946 0.50075 0.0
C1073 C 0.0706 0.1845 0.40306 0.0
C1074 C 0.05405 0.18231 0.43587 0.0
H1075 H 0.95852 0.14541 0.53704 0.0
H1076 H 0.98311 0.14607 0.47762 0.0
H1077 H 0.04774 0.20194 0.58498 0.0
H1078 H 0.11728 0.22472 0.39641 0.0
H1079 H 0.08951 0.22101 0.43968 0.0
C1080 C 0.37383 0.17988 0.63106 0.0
C1081 C 0.39188 0.18748 0.61123 0.0
C1082 C 0.35861 0.18207 0.59576 0.0
C1083 C 0.34789 0.21402 0.47023 0.0
H1084 H 0.29374 0.16987 0.46548 0.0
C1085 C 0.28561 0.22716 0.33414 0.0
C1086 C 0.26582 0.21456 0.34004 0.0
C1087 C 0.30004 0.22271 0.36272 0.0
C1088 C 0.30863 0.18277 0.46605 0.0
H1089 H 0.40718 0.20367 0.53564 0.0
H1090 H 0.38124 0.20809 0.47573 0.0
H1091 H 0.31948 0.1649 0.52059 0.0
H1092 H 0.24651 0.18635 0.38241 0.0
H1093 H 0.27128 0.17853 0.4323 0.0
H1094 H 0.33753 0.23227 0.41758 0.0
C1095 C 0.37868 0.20017 0.51906 0.0
C1096 C 0.32378 0.17982 0.49856 0.0
C1097 C 0.39379 0.19751 0.55368 0.0
C1098 C 0.26128 0.1966 0.37534 0.0
C1099 C 0.27591 0.19218 0.40478 0.0
C1100 C 0.33281 0.21714 0.43849 0.0
C1101 C 0.36053 0.19246 0.53889 0.0
C1102 C 0.34394 0.19537 0.50192 0.0
C1103 C 0.29599 0.20538 0.40054 0.0
C1104 C 0.31252 0.20166 0.43503 0.0
H1105 H 0.37127 0.17184 0.67419 0.0
H1106 H 0.34531 0.17588 0.61439 0.0
H1107 H 0.36289 0.2268 0.47117 0.0
H1108 H 0.29027 0.24111 0.30751 0.0
H1109 H 0.31457 0.23337 0.3546 0.0
C1110 C 0.8507 0.94093 0.40695 0.0
C1111 C 0.83194 0.93138 0.36644 0.0
C1112 C 0.86134 0.96386 0.43855 0.0
C1113 C 0.86639 0.01973 0.44605 0.0
H1114 H 0.8822 0.02607 0.63827 0.0
C1115 C 0.8961 0.10265 0.64547 0.0
C1116 C 0.91448 0.10999 0.68532 0.0
C1117 C 0.88531 0.08105 0.60343 0.0
C1118 C 0.87789 0.0245 0.58469 0.0
H1119 H 0.81043 0.93873 0.3218 0.0
H1120 H 0.82935 0.97922 0.37664 0.0
H1121 H 0.86595 0.9885 0.56471 0.0
H1122 H 0.93575 0.10058 0.71496 0.0
H1123 H 0.91658 0.06252 0.64317 0.0
H1124 H 0.87846 0.05595 0.46676 0.0
C1125 C 0.83557 0.96875 0.38454 0.0
C1126 C 0.86874 1.00312 0.54264 0.0
C1127 C 0.82474 0.94563 0.35354 0.0
C1128 C 0.92163 0.09527 0.68447 0.0
C1129 C 0.9107 0.07356 0.64359 0.0
C1130 C 0.87557 0.04122 0.48836 0.0
C1131 C 0.85355 0.97773 0.42957 0.0
C1132 C 0.86314 1.00059 0.47293 0.0
C1133 C 0.8926 0.06643 0.6022 0.0
C1134 C 0.88155 0.04371 0.55783 0.0
H1135 H 0.85672 0.93043 0.41768 0.0
H1136 H 0.87533 0.97054 0.47235 0.0
H1137 H 0.86219 0.01813 0.39241 0.0
H1138 H 0.89028 0.11375 0.6457 0.0
H1139 H 0.87128 0.07572 0.57218 0.0
C1140 C 0.99836 0.72716 0.65385 0.0
C1141 C 0.97975 0.70831 0.62448 0.0
C1142 C 1.01229 0.73614 0.61481 0.0
C1143 C 1.01777 0.73529 0.4378 0.0
H1144 H 0.07174 0.75827 0.52118 0.0
C1145 C 0.0833 0.765 0.30217 0.0
C1146 C 0.09919 0.78664 0.33466 0.0
C1147 C 0.06726 0.75406 0.33197 0.0
C1148 C 0.05669 0.75184 0.49739 0.0
H1149 H 0.96094 0.68348 0.53355 0.0
H1150 H 0.98541 0.69839 0.46576 0.0
H1151 H 0.04671 0.74197 0.5862 0.0
H1152 H 0.11093 0.81443 0.4204 0.0
H1153 H 0.08303 0.7954 0.47256 0.0
H1154 H 0.02804 0.74506 0.34853 0.0
C1155 C 0.98916 0.70695 0.51771 0.0
C1156 C 0.0424 0.74272 0.53467 0.0
C1157 C 0.97517 0.69837 0.55634 0.0
C1158 C 0.09876 0.79761 0.39528 0.0
C1159 C 0.08292 0.78676 0.42496 0.0
C1160 C 0.03211 0.7442 0.40018 0.0
C1161 C 1.00788 0.72593 0.5465 0.0
C1162 C 1.02285 0.73476 0.50572 0.0
C1163 C 0.06728 0.76476 0.39436 0.0
C1164 C 0.05168 0.75294 0.43034 0.0
H1165 H 1.00202 0.73503 0.70649 0.0
H1166 H 0.02647 0.75108 0.63811 0.0
H1167 H 1.00283 0.72942 0.4142 0.0
H1168 H 0.08354 0.75644 0.2551 0.0
H1169 H 0.05523 0.73706 0.30778 0.0
loop_
_geom_bond_atom_site_label_1
_geom_bond_atom_site_label_2
_geom_bond_distance
_geom_bond_site_symmetry_2
_ccdc_geom_bond_type
Gd0 C3 2.818 . S
Gd0 O20 2.377 . S
Gd0 O22 2.448 . S
Gd0 O23 2.506 . S
Gd0 O24 2.435 1_554 S
Gd0 O25 2.717 1_554 S
Gd0 O27 2.395 . S
Gd0 O31 2.327 . S
Gd1 C12 2.818 . S
Gd1 O21 2.395 . S
Gd1 O25 2.327 1_554 S
Gd1 O26 2.377 . S
Gd1 O28 2.385 1_455 S
Gd1 O29 2.506 1_554 S
Gd1 O30 2.435 . S
Gd1 O31 2.717 . S
C2 O20 1.240 . S
C2 O21 1.240 . S
C3 Gd0 2.818 . S
C3 C4 1.510 . S
C3 O22 1.249 . S
C3 O23 1.252 . S
C4 C3 1.510 . S
C4 C5 1.404 . S
C4 C6 1.352 . S
C5 C4 1.404 . S
C5 C9 1.389 . S
C5 H32 0.930 . S
C6 C4 1.352 . S
C6 C8 1.374 . S
C6 H33 0.931 . S
C7 C8 1.359 . S
C7 C9 1.364 . S
C8 C6 1.374 . S
C8 C7 1.359 . S
C8 H34 0.931 . S
C9 C5 1.389 . S
C9 C7 1.364 . S
C9 H35 0.931 . S
C10 O24 1.256 . S
C10 O25 1.257 . S
C11 O26 1.240 . S
C11 O27 1.240 . S
C12 Gd1 2.818 . S
C12 C13 1.510 1_455 S
C12 O28 1.243 1_455 S
C12 O29 1.252 1_554 S
C13 C12 1.510 1_655 S
C13 C14 1.404 . S
C13 C15 1.352 1_654 S
C14 C13 1.404 . S
C14 C18 1.389 . S
C14 H36 0.930 . S
C15 C13 1.352 1_456 S
C15 C17 1.374 1_455 S
C15 H37 0.931 . S
C16 C17 1.359 1_554 S
C16 C18 1.364 . S
C17 C15 1.374 1_655 S
C17 C16 1.359 1_556 S
C17 H38 0.931 1_655 S
C18 C14 1.389 . S
C18 C16 1.364 . S
C18 H39 0.931 . S
C19 O30 1.256 . S
C19 O31 1.257 . S
O20 Gd0 2.377 . S
O20 C2 1.240 . S
O21 Gd1 2.395 . S
O21 C2 1.240 . S
O22 Gd0 2.448 . S
O22 C3 1.249 . S
O23 Gd0 2.506 . S
O23 C3 1.252 . S
O24 Gd0 2.435 1_556 S
O24 C10 1.256 . S
O25 Gd0 2.717 1_556 S
O25 Gd1 2.327 1_556 S
O25 C10 1.257 . S
O26 Gd1 2.377 . S
O26 C11 1.240 . S
O27 Gd0 2.395 . S
O27 C11 1.240 . S
O28 Gd1 2.385 1_655 S
O28 C12 1.243 1_655 S
O29 Gd1 2.506 1_556 S
O29 C12 1.252 1_556 S
O30 Gd1 2.435 . S
O30 C19 1.256 . S
O31 Gd0 2.327 . S
O31 Gd1 2.717 . S
O31 C19 1.257 . S
H32 C5 0.930 . S
H33 C6 0.931 . S
H34 C8 0.931 . S
H35 C9 0.931 . S
H36 C14 0.930 . S
H37 C15 0.931 . S
H38 C17 0.931 1_455 S
H39 C18 0.931 . S
Gd40 C43 2.818 . S
Gd40 O60 2.377 . S
Gd40 O62 2.448 . S
Gd40 O63 2.506 . S
Gd40 O64 2.435 . S
Gd40 O65 2.717 . S
Gd40 O67 2.395 . S
Gd40 O71 2.327 . S
Gd41 C52 2.818 . S
Gd41 O61 2.395 . S
Gd41 O65 2.327 . S
Gd41 O66 2.377 . S
Gd41 O68 2.448 . S
Gd41 O69 2.506 . S
Gd41 O70 2.435 . S
Gd41 O71 2.717 . S
C42 O60 1.240 . S
C42 O61 1.240 . S
C43 Gd40 2.818 . S
C43 C44 1.510 . S
C43 O62 1.249 . S
C43 O63 1.252 . S
C44 C43 1.510 . S
C44 C45 1.404 . S
C44 C46 1.352 . S
C45 C44 1.404 . S
C45 C49 1.389 . S
C45 H72 0.930 . S
C46 C44 1.352 . S
C46 C48 1.374 . S
C46 H73 0.931 . S
C47 C48 1.359 . S
C47 C49 1.364 . S
C48 C46 1.374 . S
C48 C47 1.359 . S
C48 H74 0.931 . S
C49 C45 1.389 . S
C49 C47 1.364 . S
C49 H75 0.931 . S
C50 O64 1.256 . S
C50 O65 1.257 . S
C51 O66 1.240 . S
C51 O67 1.240 . S
C52 Gd41 2.818 . S
C52 C53 1.510 . S
C52 O68 1.249 . S
C52 O69 1.252 . S
C53 C52 1.510 . S
C53 C54 1.404 . S
C53 C55 1.352 . S
C54 C53 1.404 . S
C54 C58 1.389 . S
C54 H76 0.930 . S
C55 C53 1.352 . S
C55 C57 1.374 . S
C55 H77 0.931 . S
C56 C57 1.359 . S
C56 C58 1.364 . S
C57 C55 1.374 . S
C57 C56 1.359 . S
C57 H78 0.931 . S
C58 C54 1.389 . S
C58 C56 1.364 . S
C58 H79 0.931 . S
C59 O70 1.256 . S
C59 O71 1.257 . S
O60 Gd40 2.377 . S
O60 C42 1.240 . S
O61 Gd41 2.395 . S
O61 C42 1.240 . S
O62 Gd40 2.448 . S
O62 C43 1.249 . S
O63 Gd40 2.506 . S
O63 C43 1.252 . S
O64 Gd40 2.435 . S
O64 C50 1.256 . S
O65 Gd40 2.717 . S
O65 Gd41 2.327 . S
O65 C50 1.257 . S
O66 Gd41 2.377 . S
O66 C51 1.240 . S
O67 Gd40 2.395 . S
O67 C51 1.240 . S
O68 Gd41 2.448 . S
O68 C52 1.249 . S
O69 Gd41 2.506 . S
O69 C52 1.252 . S
O70 Gd41 2.435 . S
O70 C59 1.256 . S
O71 Gd40 2.327 . S
O71 Gd41 2.717 . S
O71 C59 1.257 . S
H72 C45 0.930 . S
H73 C46 0.931 . S
H74 C48 0.931 . S
H75 C49 0.931 . S
H76 C54 0.930 . S
H77 C55 0.931 . S
H78 C57 0.931 . S
H79 C58 0.931 . S
Gd80 C83 2.818 . S
Gd80 O100 2.377 . S
Gd80 O102 2.448 . S
Gd80 O103 2.506 . S
Gd80 O104 2.435 . S
Gd80 O105 2.717 . S
Gd80 O107 2.395 . S
Gd80 O111 2.327 . S
Gd81 C92 2.818 . S
Gd81 O101 2.395 . S
Gd81 O105 2.327 . S
Gd81 O106 2.377 . S
Gd81 O108 2.448 . S
Gd81 O109 2.506 . S
Gd81 O110 2.435 . S
Gd81 O111 2.717 . S
C82 O100 1.240 . S
C82 O101 1.240 . S
C83 Gd80 2.818 . S
C83 C84 1.510 . S
C83 O102 1.249 . S
C83 O103 1.252 . S
C84 C83 1.510 . S
C84 C85 1.404 . S
C84 C86 1.352 . S
C85 C84 1.404 . S
C85 C89 1.389 . S
C85 H112 0.930 . S
C86 C84 1.352 . S
C86 C88 1.374 . S
C86 H113 0.931 . S
C87 C88 1.359 . S
C87 C89 1.364 . S
C88 C86 1.374 . S
C88 C87 1.359 . S
C88 H114 0.931 . S
C89 C85 1.389 . S
C89 C87 1.364 . S
C89 H115 0.931 . S
C90 O104 1.256 . S
C90 O105 1.257 . S
C91 O106 1.240 . S
C91 O107 1.240 . S
C92 Gd81 2.818 . S
C92 C93 1.510 . S
C92 O108 1.249 . S
C92 O109 1.252 . S
C93 C92 1.510 . S
C93 C94 1.404 . S
C93 C95 1.352 . S
C94 C93 1.404 . S
C94 C98 1.389 . S
C94 H116 0.930 . S
C95 C93 1.352 . S
C95 C97 1.374 . S
C95 H117 0.931 . S
C96 C97 1.359 . S
C96 C98 1.364 . S
C97 C95 1.374 . S
C97 C96 1.359 . S
C97 H118 0.931 . S
C98 C94 1.389 . S
C98 C96 1.364 . S
C98 H119 0.931 . S
C99 O110 1.256 . S
C99 O111 1.257 . S
O100 Gd80 2.377 . S
O100 C82 1.240 . S
O101 Gd81 2.395 . S
O101 C82 1.240 . S
O102 Gd80 2.448 . S
O102 C83 1.249 . S
O103 Gd80 2.506 . S
O103 C83 1.252 . S
O104 Gd80 2.435 . S
O104 C90 1.256 . S
O105 Gd80 2.717 . S
O105 Gd81 2.327 . S
O105 C90 1.257 . S
O106 Gd81 2.377 . S
O106 C91 1.240 . S
O107 Gd80 2.395 . S
O107 C91 1.240 . S
O108 Gd81 2.448 . S
O108 C92 1.249 . S
O109 Gd81 2.506 . S
O109 C92 1.252 . S
O110 Gd81 2.435 . S
O110 C99 1.256 . S
O111 Gd80 2.327 . S
O111 Gd81 2.717 . S
O111 C99 1.257 . S
H112 C85 0.930 . S
H113 C86 0.931 . S
H114 C88 0.931 . S
H115 C89 0.931 . S
H116 C94 0.930 . S
H117 C95 0.931 . S
H118 C97 0.931 . S
H119 C98 0.931 . S
Gd120 C123 2.818 . S
Gd120 O140 2.377 . S
Gd120 O142 2.448 . S
Gd120 O143 2.506 . S
Gd120 O144 2.435 . S
Gd120 O145 2.717 . S
Gd120 O147 2.395 . S
Gd120 O151 2.327 . S
Gd121 C132 2.818 . S
Gd121 O141 2.395 . S
Gd121 O145 2.327 . S
Gd121 O146 2.377 . S
Gd121 O148 2.448 . S
Gd121 O149 2.506 . S
Gd121 O150 2.435 . S
Gd121 O151 2.717 . S
C122 O140 1.240 . S
C122 O141 1.240 . S
C123 Gd120 2.818 . S
C123 C124 1.510 . S
C123 O142 1.249 . S
C123 O143 1.252 . S
C124 C123 1.510 . S
C124 C125 1.404 . S
C124 C126 1.352 . S
C125 C124 1.404 . S
C125 C129 1.389 . S
C125 H152 0.930 . S
C126 C124 1.352 . S
C126 C128 1.374 . S
C126 H153 0.931 . S
C127 C128 1.359 . S
C127 C129 1.364 . S
C128 C126 1.374 . S
C128 C127 1.359 . S
C128 H154 0.931 . S
C129 C125 1.389 . S
C129 C127 1.364 . S
C129 H155 0.931 . S
C130 O144 1.256 . S
C130 O145 1.257 . S
C131 O146 1.240 . S
C131 O147 1.240 . S
C132 Gd121 2.818 . S
C132 C133 1.510 . S
C132 O148 1.249 . S
C132 O149 1.252 . S
C133 C132 1.510 . S
C133 C134 1.404 . S
C133 C135 1.352 . S
C134 C133 1.404 . S
C134 C138 1.389 . S
C134 H156 0.930 . S
C135 C133 1.352 . S
C135 C137 1.374 . S
C135 H157 0.931 . S
C136 C137 1.359 . S
C136 C138 1.364 . S
C137 C135 1.374 . S
C137 C136 1.359 . S
C137 H158 0.931 . S
C138 C134 1.389 . S
C138 C136 1.364 . S
C138 H159 0.931 . S
C139 O150 1.256 . S
C139 O151 1.257 . S
O140 Gd120 2.377 . S
O140 C122 1.240 . S
O141 Gd121 2.395 . S
O141 C122 1.240 . S
O142 Gd120 2.448 . S
O142 C123 1.249 . S
O143 Gd120 2.506 . S
O143 C123 1.252 . S
O144 Gd120 2.435 . S
O144 C130 1.256 . S
O145 Gd120 2.717 . S
O145 Gd121 2.327 . S
O145 C130 1.257 . S
O146 Gd121 2.377 . S
O146 C131 1.240 . S
O147 Gd120 2.395 . S
O147 C131 1.240 . S
O148 Gd121 2.448 . S
O148 C132 1.249 . S
O149 Gd121 2.506 . S
O149 C132 1.252 . S
O150 Gd121 2.435 . S
O150 C139 1.256 . S
O151 Gd120 2.327 . S
O151 Gd121 2.717 . S
O151 C139 1.257 . S
H152 C125 0.930 . S
H153 C126 0.931 . S
H154 C128 0.931 . S
H155 C129 0.931 . S
H156 C134 0.930 . S
H157 C135 0.931 . S
H158 C137 0.931 . S
H159 C138 0.931 . S
Gd160 C163 2.818 . S
Gd160 O180 2.377 . S
Gd160 O182 2.448 . S
Gd160 O183 2.506 . S
Gd160 O184 2.435 . S
Gd160 O185 2.717 . S
Gd160 O187 2.395 . S
Gd160 O191 2.327 . S
Gd161 C172 2.818 . S
Gd161 O181 2.395 . S
Gd161 O185 2.327 . S
Gd161 O186 2.377 . S
Gd161 O188 2.448 . S
Gd161 O189 2.506 . S
Gd161 O190 2.435 . S
Gd161 O191 2.717 . S
C162 O180 1.240 . S
C162 O181 1.240 . S
C163 Gd160 2.818 . S
C163 C164 1.510 . S
C163 O182 1.249 . S
C163 O183 1.252 . S
C164 C163 1.510 . S
C164 C165 1.404 . S
C164 C166 1.352 . S
C165 C164 1.404 . S
C165 C169 1.389 . S
C165 H192 0.930 . S
C166 C164 1.352 . S
C166 C168 1.374 . S
C166 H193 0.931 . S
C167 C168 1.359 . S
C167 C169 1.364 . S
C168 C166 1.374 . S
C168 C167 1.359 . S
C168 H194 0.931 . S
C169 C165 1.389 . S
C169 C167 1.364 . S
C169 H195 0.931 . S
C170 O184 1.256 . S
C170 O185 1.257 . S
C171 O186 1.240 . S
C171 O187 1.240 . S
C172 Gd161 2.818 . S
C172 C173 1.510 . S
C172 O188 1.249 . S
C172 O189 1.252 . S
C173 C172 1.510 . S
C173 C174 1.404 . S
C173 C175 1.352 . S
C174 C173 1.404 . S
C174 C178 1.389 . S
C174 H196 0.930 . S
C175 C173 1.352 . S
C175 C177 1.374 . S
C175 H197 0.931 . S
C176 C177 1.359 . S
C176 C178 1.364 . S
C177 C175 1.374 . S
C177 C176 1.359 . S
C177 H198 0.931 . S
C178 C174 1.389 . S
C178 C176 1.364 . S
C178 H199 0.931 . S
C179 O190 1.256 . S
C179 O191 1.257 . S
O180 Gd160 2.377 . S
O180 C162 1.240 . S
O181 Gd161 2.395 . S
O181 C162 1.240 . S
O182 Gd160 2.448 . S
O182 C163 1.249 . S
O183 Gd160 2.506 . S
O183 C163 1.252 . S
O184 Gd160 2.435 . S
O184 C170 1.256 . S
O185 Gd160 2.717 . S
O185 Gd161 2.327 . S
O185 C170 1.257 . S
O186 Gd161 2.377 . S
O186 C171 1.240 . S
O187 Gd160 2.395 . S
O187 C171 1.240 . S
O188 Gd161 2.448 . S
O188 C172 1.249 . S
O189 Gd161 2.506 . S
O189 C172 1.252 . S
O190 Gd161 2.435 . S
O190 C179 1.256 . S
O191 Gd160 2.327 . S
O191 Gd161 2.717 . S
O191 C179 1.257 . S
H192 C165 0.930 . S
H193 C166 0.931 . S
H194 C168 0.931 . S
H195 C169 0.931 . S
H196 C174 0.930 . S
H197 C175 0.931 . S
H198 C177 0.931 . S
H199 C178 0.931 . S
Gd200 C203 2.818 . S
Gd200 O220 2.377 . S
Gd200 O222 2.448 . S
Gd200 O223 2.506 . S
Gd200 O224 2.435 . S
Gd200 O225 2.717 . S
Gd200 O227 2.395 . S
Gd200 O231 2.327 . S
Gd201 C212 2.818 . S
Gd201 O221 2.395 . S
Gd201 O225 2.327 . S
Gd201 O226 2.377 . S
Gd201 O228 2.448 . S
Gd201 O229 2.506 . S
Gd201 O230 2.435 . S
Gd201 O231 2.717 . S
C202 O220 1.240 . S
C202 O221 1.240 . S
C203 Gd200 2.818 . S
C203 C204 1.510 . S
C203 O222 1.249 . S
C203 O223 1.252 . S
C204 C203 1.510 . S
C204 C205 1.404 . S
C204 C206 1.352 . S
C205 C204 1.404 . S
C205 C209 1.389 . S
C205 H232 0.930 . S
C206 C204 1.352 . S
C206 C208 1.374 . S
C206 H233 0.931 . S
C207 C208 1.359 . S
C207 C209 1.364 . S
C208 C206 1.374 . S
C208 C207 1.359 . S
C208 H234 0.931 . S
C209 C205 1.389 . S
C209 C207 1.364 . S
C209 H235 0.931 . S
C210 O224 1.256 . S
C210 O225 1.257 . S
C211 O226 1.240 . S
C211 O227 1.240 . S
C212 Gd201 2.818 . S
C212 C213 1.510 . S
C212 O228 1.249 . S
C212 O229 1.252 . S
C213 C212 1.510 . S
C213 C214 1.404 . S
C213 C215 1.352 . S
C214 C213 1.404 . S
C214 C218 1.389 . S
C214 H236 0.930 . S
C215 C213 1.352 . S
C215 C217 1.374 . S
C215 H237 0.931 . S
C216 C217 1.359 . S
C216 C218 1.364 . S
C217 C215 1.374 . S
C217 C216 1.359 . S
C217 H238 0.931 . S
C218 C214 1.389 . S
C218 C216 1.364 . S
C218 H239 0.931 . S
C219 O230 1.256 . S
C219 O231 1.257 . S
O220 Gd200 2.377 . S
O220 C202 1.240 . S
O221 Gd201 2.395 . S
O221 C202 1.240 . S
O222 Gd200 2.448 . S
O222 C203 1.249 . S
O223 Gd200 2.506 . S
O223 C203 1.252 . S
O224 Gd200 2.435 . S
O224 C210 1.256 . S
O225 Gd200 2.717 . S
O225 Gd201 2.327 . S
O225 C210 1.257 . S
O226 Gd201 2.377 . S
O226 C211 1.240 . S
O227 Gd200 2.395 . S
O227 C211 1.240 . S
O228 Gd201 2.448 . S
O228 C212 1.249 . S
O229 Gd201 2.506 . S
O229 C212 1.252 . S
O230 Gd201 2.435 . S
O230 C219 1.256 . S
O231 Gd200 2.327 . S
O231 Gd201 2.717 . S
O231 C219 1.257 . S
H232 C205 0.930 . S
H233 C206 0.931 . S
H234 C208 0.931 . S
H235 C209 0.931 . S
H236 C214 0.930 . S
H237 C215 0.931 . S
H238 C217 0.931 . S
H239 C218 0.931 . S
Gd240 C243 2.818 . S
Gd240 O260 2.377 . S
Gd240 O262 2.448 . S
Gd240 O263 2.506 . S
Gd240 O264 2.435 . S
Gd240 O265 2.717 . S
Gd240 O267 2.395 . S
Gd240 O271 2.327 . S
Gd241 C252 2.818 . S
Gd241 O261 2.395 . S
Gd241 O265 2.327 . S
Gd241 O266 2.377 . S
Gd241 O268 2.448 . S
Gd241 O269 2.506 . S
Gd241 O270 2.435 . S
Gd241 O271 2.717 . S
C242 O260 1.240 . S
C242 O261 1.240 . S
C243 Gd240 2.818 . S
C243 C244 1.510 . S
C243 O262 1.249 . S
C243 O263 1.252 . S
C244 C243 1.510 . S
C244 C245 1.404 . S
C244 C246 1.352 . S
C245 C244 1.404 . S
C245 C249 1.389 . S
C245 H272 0.930 . S
C246 C244 1.352 . S
C246 C248 1.374 . S
C246 H273 0.931 . S
C247 C248 1.359 . S
C247 C249 1.364 . S
C248 C246 1.374 . S
C248 C247 1.359 . S
C248 H274 0.931 . S
C249 C245 1.389 . S
C249 C247 1.364 . S
C249 H275 0.931 . S
C250 O264 1.256 . S
C250 O265 1.257 . S
C251 O266 1.240 . S
C251 O267 1.240 . S
C252 Gd241 2.818 . S
C252 C253 1.510 . S
C252 O268 1.249 . S
C252 O269 1.252 . S
C253 C252 1.510 . S
C253 C254 1.404 . S
C253 C255 1.352 . S
C254 C253 1.404 . S
C254 C258 1.389 1_556 S
C254 H276 0.930 . S
C255 C253 1.352 . S
C255 C257 1.374 1_556 S
C255 H277 0.931 . S
C256 C257 1.359 . S
C256 C258 1.364 . S
C257 C255 1.374 1_554 S
C257 C256 1.359 . S
C257 H278 0.931 . S
C258 C254 1.389 1_554 S
C258 C256 1.364 . S
C258 H279 0.931 . S
C259 O270 1.256 . S
C259 O271 1.257 . S
O260 Gd240 2.377 . S
O260 C242 1.240 . S
O261 Gd241 2.395 . S
O261 C242 1.240 . S
O262 Gd240 2.448 . S
O262 C243 1.249 . S
O263 Gd240 2.506 . S
O263 C243 1.252 . S
O264 Gd240 2.435 . S
O264 C250 1.256 . S
O265 Gd240 2.717 . S
O265 Gd241 2.327 . S
O265 C250 1.257 . S
O266 Gd241 2.377 . S
O266 C251 1.240 . S
O267 Gd240 2.395 . S
O267 C251 1.240 . S
O268 Gd241 2.448 . S
O268 C252 1.249 . S
O269 Gd241 2.506 . S
O269 C252 1.252 . S
O270 Gd241 2.435 . S
O270 C259 1.256 . S
O271 Gd240 2.327 . S
O271 Gd241 2.717 . S
O271 C259 1.257 . S
H272 C245 0.930 . S
H273 C246 0.931 . S
H274 C248 0.931 . S
H275 C249 0.931 . S
H276 C254 0.930 . S
H277 C255 0.931 . S
H278 C257 0.931 . S
H279 C258 0.931 . S
Gd280 C283 2.818 . S
Gd280 O300 2.377 . S
Gd280 O302 2.448 . S
Gd280 O303 2.506 . S
Gd280 O304 2.435 . S
Gd280 O305 2.717 . S
Gd280 O307 2.395 . S
Gd280 O311 2.327 . S
Gd281 C292 2.818 . S
Gd281 O301 2.395 . S
Gd281 O305 2.327 . S
Gd281 O306 2.377 . S
Gd281 O308 2.448 . S
Gd281 O309 2.506 . S
Gd281 O310 2.435 . S
Gd281 O311 2.717 . S
C282 O300 1.240 . S
C282 O301 1.240 . S
C283 Gd280 2.818 . S
C283 C284 1.510 . S
C283 O302 1.249 . S
C283 O303 1.252 . S
C284 C283 1.510 . S
C284 C285 1.404 . S
C284 C286 1.352 . S
C285 C284 1.404 . S
C285 C289 1.389 1_556 S
C285 H312 0.930 . S
C286 C284 1.352 . S
C286 C288 1.374 1_556 S
C286 H313 0.931 . S
C287 C288 1.359 . S
C287 C289 1.364 . S
C288 C286 1.374 1_554 S
C288 C287 1.359 . S
C288 H314 0.931 . S
C289 C285 1.389 1_554 S
C289 C287 1.364 . S
C289 H315 0.931 . S
C290 O304 1.256 . S
C290 O305 1.257 . S
C291 O306 1.240 . S
C291 O307 1.240 . S
C292 Gd281 2.818 . S
C292 C293 1.510 . S
C292 O308 1.249 . S
C292 O309 1.252 . S
C293 C292 1.510 . S
C293 C294 1.404 . S
C293 C295 1.352 . S
C294 C293 1.404 . S
C294 C298 1.389 . S
C294 H316 0.930 . S
C295 C293 1.352 . S
C295 C297 1.374 . S
C295 H317 0.931 . S
C296 C297 1.359 . S
C296 C298 1.364 . S
C297 C295 1.374 . S
C297 C296 1.359 . S
C297 H318 0.931 . S
C298 C294 1.389 . S
C298 C296 1.364 . S
C298 H319 0.931 . S
C299 O310 1.256 . S
C299 O311 1.257 . S
O300 Gd280 2.377 . S
O300 C282 1.240 . S
O301 Gd281 2.395 . S
O301 C282 1.240 . S
O302 Gd280 2.448 . S
O302 C283 1.249 . S
O303 Gd280 2.506 . S
O303 C283 1.252 . S
O304 Gd280 2.435 . S
O304 C290 1.256 . S
O305 Gd280 2.717 . S
O305 Gd281 2.327 . S
O305 C290 1.257 . S
O306 Gd281 2.377 . S
O306 C291 1.240 . S
O307 Gd280 2.395 . S
O307 C291 1.240 . S
O308 Gd281 2.448 . S
O308 C292 1.249 . S
O309 Gd281 2.506 . S
O309 C292 1.252 . S
O310 Gd281 2.435 . S
O310 C299 1.256 . S
O311 Gd280 2.327 . S
O311 Gd281 2.717 . S
O311 C299 1.257 . S
H312 C285 0.930 . S
H313 C286 0.931 . S
H314 C288 0.931 . S
H315 C289 0.931 . S
H316 C294 0.930 . S
H317 C295 0.931 . S
H318 C297 0.931 . S
H319 C298 0.931 . S
Gd320 C323 2.818 . S
Gd320 O340 2.377 . S
Gd320 O342 2.448 . S
Gd320 O343 2.506 . S
Gd320 O344 2.435 . S
Gd320 O345 2.717 . S
Gd320 O347 2.395 . S
Gd320 O351 2.327 . S
Gd321 C332 2.818 . S
Gd321 O341 2.395 . S
Gd321 O345 2.327 . S
Gd321 O346 2.377 . S
Gd321 O348 2.448 . S
Gd321 O349 2.506 . S
Gd321 O350 2.435 . S
Gd321 O351 2.717 . S
C322 O340 1.240 . S
C322 O341 1.240 . S
C323 Gd320 2.818 . S
C323 C324 1.510 . S
C323 O342 1.249 . S
C323 O343 1.252 . S
C324 C323 1.510 . S
C324 C325 1.404 . S
C324 C326 1.352 . S
C325 C324 1.404 . S
C325 C329 1.389 . S
C325 H352 0.930 . S
C326 C324 1.352 . S
C326 C328 1.374 . S
C326 H353 0.931 . S
C327 C328 1.359 . S
C327 C329 1.364 . S
C328 C326 1.374 . S
C328 C327 1.359 . S
C328 H354 0.931 . S
C329 C325 1.389 . S
C329 C327 1.364 . S
C329 H355 0.931 . S
C330 O344 1.256 . S
C330 O345 1.257 . S
C331 O346 1.240 . S
C331 O347 1.240 . S
C332 Gd321 2.818 . S
C332 C333 1.510 . S
C332 O348 1.249 . S
C332 O349 1.252 . S
C333 C332 1.510 . S
C333 C334 1.404 . S
C333 C335 1.352 . S
C334 C333 1.404 . S
C334 C338 1.389 1_556 S
C334 H356 0.930 . S
C335 C333 1.352 . S
C335 C337 1.374 1_556 S
C335 H357 0.931 . S
C336 C337 1.359 . S
C336 C338 1.364 . S
C337 C335 1.374 1_554 S
C337 C336 1.359 . S
C337 H358 0.931 . S
C338 C334 1.389 1_554 S
C338 C336 1.364 . S
C338 H359 0.931 . S
C339 O350 1.256 . S
C339 O351 1.257 . S
O340 Gd320 2.377 . S
O340 C322 1.240 . S
O341 Gd321 2.395 . S
O341 C322 1.240 . S
O342 Gd320 2.448 . S
O342 C323 1.249 . S
O343 Gd320 2.506 . S
O343 C323 1.252 . S
O344 Gd320 2.435 . S
O344 C330 1.256 . S
O345 Gd320 2.717 . S
O345 Gd321 2.327 . S
O345 C330 1.257 . S
O346 Gd321 2.377 . S
O346 C331 1.240 . S
O347 Gd320 2.395 . S
O347 C331 1.240 . S
O348 Gd321 2.448 . S
O348 C332 1.249 . S
O349 Gd321 2.506 . S
O349 C332 1.252 . S
O350 Gd321 2.435 . S
O350 C339 1.256 . S
O351 Gd320 2.327 . S
O351 Gd321 2.717 . S
O351 C339 1.257 . S
H352 C325 0.930 . S
H353 C326 0.931 . S
H354 C328 0.931 . S
H355 C329 0.931 . S
H356 C334 0.930 . S
H357 C335 0.931 . S
H358 C337 0.931 . S
H359 C338 0.931 . S
C360 C361 1.349 . S
C360 C362 1.327 . S
C360 H385 0.950 . S
C361 C360 1.349 . S
C361 C377 1.349 . S
C362 C360 1.327 . S
C362 C381 1.429 . S
C362 H386 0.950 . S
C363 C380 1.574 . S
C363 C382 1.368 . S
C363 H387 0.949 . S
H364 C368 0.949 . S
C365 C366 1.349 . S
C365 C367 1.327 . S
C365 H388 0.950 . S
C366 C365 1.349 . S
C366 C378 1.349 . S
C367 C365 1.327 . S
C367 C383 1.429 . S
C367 H389 0.950 . S
C368 H364 0.949 . S
C368 C376 1.574 . S
C368 C384 1.368 . S
H369 C377 0.950 . S
H370 C375 0.950 . S
H371 C376 0.949 . S
H372 C378 0.950 . S
H373 C379 0.950 . S
H374 C380 0.949 . S
C375 H370 0.950 . S
C375 C377 1.327 . S
C375 C381 1.429 . S
C376 C368 1.574 . S
C376 H371 0.949 . S
C376 C382 1.368 . S
C377 C361 1.349 . S
C377 H369 0.950 . S
C377 C375 1.327 . S
C378 C366 1.349 . S
C378 H372 0.950 . S
C378 C379 1.327 . S
C379 H373 0.950 . S
C379 C378 1.327 . S
C379 C383 1.429 . S
C380 C363 1.574 . S
C380 H374 0.949 . S
C380 C384 1.368 . S
C381 C362 1.429 . S
C381 C375 1.429 . S
C381 C382 1.523 . S
C382 C363 1.368 . S
C382 C376 1.368 . S
C382 C381 1.523 . S
C383 C367 1.429 . S
C383 C379 1.429 . S
C383 C384 1.523 . S
C384 C368 1.368 . S
C384 C380 1.368 . S
C384 C383 1.523 . S
H385 C360 0.950 . S
H386 C362 0.950 . S
H387 C363 0.949 . S
H388 C365 0.950 . S
H389 C367 0.950 . S
C390 C391 1.349 . S
C390 C392 1.327 . S
C390 H415 0.950 . S
C391 C390 1.349 . S
C391 C407 1.349 . S
C392 C390 1.327 . S
C392 C411 1.429 . S
C392 H416 0.950 . S
C393 C410 1.574 . S
C393 C412 1.368 . S
C393 H417 0.949 . S
H394 C398 0.949 . S
C395 C396 1.349 . S
C395 C397 1.327 . S
C395 H418 0.950 . S
C396 C395 1.349 . S
C396 C408 1.349 . S
C397 C395 1.327 . S
C397 C413 1.429 . S
C397 H419 0.950 . S
C398 H394 0.949 . S
C398 C406 1.574 . S
C398 C414 1.368 . S
H399 C407 0.950 . S
H400 C405 0.950 . S
H401 C406 0.949 . S
H402 C408 0.950 . S
H403 C409 0.950 . S
H404 C410 0.949 . S
C405 H400 0.950 . S
C405 C407 1.327 . S
C405 C411 1.429 . S
C406 C398 1.574 . S
C406 H401 0.949 . S
C406 C412 1.368 . S
C407 C391 1.349 . S
C407 H399 0.950 . S
C407 C405 1.327 . S
C408 C396 1.349 . S
C408 H402 0.950 . S
C408 C409 1.327 . S
C409 H403 0.950 . S
C409 C408 1.327 . S
C409 C413 1.429 . S
C410 C393 1.574 . S
C410 H404 0.949 . S
C410 C414 1.368 . S
C411 C392 1.429 . S
C411 C405 1.429 . S
C411 C412 1.523 . S
C412 C393 1.368 . S
C412 C406 1.368 . S
C412 C411 1.523 . S
C413 C397 1.429 . S
C413 C409 1.429 . S
C413 C414 1.523 . S
C414 C398 1.368 . S
C414 C410 1.368 . S
C414 C413 1.523 . S
H415 C390 0.950 . S
H416 C392 0.950 . S
H417 C393 0.949 . S
H418 C395 0.950 . S
H419 C397 0.950 . S
C420 C421 1.349 . S
C420 C422 1.327 . S
C420 H445 0.950 . S
C421 C420 1.349 . S
C421 C437 1.349 . S
C422 C420 1.327 . S
C422 C441 1.429 . S
C422 H446 0.950 . S
C423 C440 1.574 . S
C423 C442 1.368 . S
C423 H447 0.949 . S
H424 C428 0.949 . S
C425 C426 1.349 . S
C425 C427 1.327 . S
C425 H448 0.950 . S
C426 C425 1.349 . S
C426 C438 1.349 . S
C427 C425 1.327 . S
C427 C443 1.429 . S
C427 H449 0.950 . S
C428 H424 0.949 . S
C428 C436 1.574 . S
C428 C444 1.368 . S
H429 C437 0.950 . S
H430 C435 0.950 . S
H431 C436 0.949 . S
H432 C438 0.950 . S
H433 C439 0.950 . S
H434 C440 0.949 . S
C435 H430 0.950 . S
C435 C437 1.327 . S
C435 C441 1.429 . S
C436 C428 1.574 . S
C436 H431 0.949 . S
C436 C442 1.368 . S
C437 C421 1.349 . S
C437 H429 0.950 . S
C437 C435 1.327 . S
C438 C426 1.349 . S
C438 H432 0.950 . S
C438 C439 1.327 . S
C439 H433 0.950 . S
C439 C438 1.327 . S
C439 C443 1.429 . S
C440 C423 1.574 . S
C440 H434 0.949 . S
C440 C444 1.368 . S
C441 C422 1.429 . S
C441 C435 1.429 . S
C441 C442 1.523 . S
C442 C423 1.368 . S
C442 C436 1.368 . S
C442 C441 1.523 . S
C443 C427 1.429 . S
C443 C439 1.429 . S
C443 C444 1.523 . S
C444 C428 1.368 . S
C444 C440 1.368 . S
C444 C443 1.523 . S
H445 C420 0.950 . S
H446 C422 0.950 . S
H447 C423 0.949 . S
H448 C425 0.950 . S
H449 C427 0.950 . S
C450 C451 1.349 . S
C450 C452 1.327 . S
C450 H475 0.950 . S
C451 C450 1.349 . S
C451 C467 1.349 . S
C452 C450 1.327 . S
C452 C471 1.429 . S
C452 H476 0.950 . S
C453 C470 1.574 . S
C453 C472 1.368 . S
C453 H477 0.949 . S
H454 C458 0.949 . S
C455 C456 1.349 . S
C455 C457 1.327 1_554 S
C455 H478 0.950 . S
C456 C455 1.349 . S
C456 C468 1.349 . S
C457 C455 1.327 1_556 S
C457 C473 1.429 . S
C457 H479 0.950 . S
C458 H454 0.949 . S
C458 C466 1.574 . S
C458 C474 1.368 . S
H459 C467 0.950 . S
H460 C465 0.950 . S
H461 C466 0.949 . S
H462 C468 0.950 . S
H463 C469 0.950 . S
H464 C470 0.949 . S
C465 H460 0.950 . S
C465 C467 1.327 . S
C465 C471 1.429 . S
C466 C458 1.574 . S
C466 H461 0.949 . S
C466 C472 1.368 . S
C467 C451 1.349 . S
C467 H459 0.950 . S
C467 C465 1.327 . S
C468 C456 1.349 . S
C468 H462 0.950 . S
C468 C469 1.327 1_554 S
C469 H463 0.950 . S
C469 C468 1.327 1_556 S
C469 C473 1.429 . S
C470 C453 1.574 . S
C470 H464 0.949 . S
C470 C474 1.368 . S
C471 C452 1.429 . S
C471 C465 1.429 . S
C471 C472 1.523 . S
C472 C453 1.368 . S
C472 C466 1.368 . S
C472 C471 1.523 . S
C473 C457 1.429 . S
C473 C469 1.429 . S
C473 C474 1.523 . S
C474 C458 1.368 . S
C474 C470 1.368 . S
C474 C473 1.523 . S
H475 C450 0.950 . S
H476 C452 0.950 . S
H477 C453 0.949 . S
H478 C455 0.950 . S
H479 C457 0.950 . S
C480 C481 1.349 . S
C480 C482 1.327 . S
C480 H505 0.950 . S
C481 C480 1.349 . S
C481 C497 1.349 . S
C482 C480 1.327 . S
C482 C501 1.429 . S
C482 H506 0.950 . S
C483 C500 1.574 . S
C483 C502 1.368 . S
C483 H507 0.949 . S
H484 C488 0.949 . S
C485 C486 1.349 . S
C485 C487 1.327 . S
C485 H508 0.950 . S
C486 C485 1.349 . S
C486 C498 1.349 . S
C487 C485 1.327 . S
C487 C503 1.429 . S
C487 H509 0.950 . S
C488 H484 0.949 . S
C488 C496 1.574 . S
C488 C504 1.368 . S
H489 C497 0.950 . S
H490 C495 0.950 . S
H491 C496 0.949 . S
H492 C498 0.950 . S
H493 C499 0.950 . S
H494 C500 0.949 . S
C495 H490 0.950 . S
C495 C497 1.327 . S
C495 C501 1.429 . S
C496 C488 1.574 . S
C496 H491 0.949 . S
C496 C502 1.368 . S
C497 C481 1.349 . S
C497 H489 0.950 . S
C497 C495 1.327 . S
C498 C486 1.349 . S
C498 H492 0.950 . S
C498 C499 1.327 . S
C499 H493 0.950 . S
C499 C498 1.327 . S
C499 C503 1.429 . S
C500 C483 1.574 . S
C500 H494 0.949 . S
C500 C504 1.368 . S
C501 C482 1.429 . S
C501 C495 1.429 . S
C501 C502 1.523 . S
C502 C483 1.368 . S
C502 C496 1.368 . S
C502 C501 1.523 . S
C503 C487 1.429 . S
C503 C499 1.429 . S
C503 C504 1.523 . S
C504 C488 1.368 . S
C504 C500 1.368 . S
C504 C503 1.523 . S
H505 C480 0.950 . S
H506 C482 0.950 . S
H507 C483 0.949 . S
H508 C485 0.950 . S
H509 C487 0.950 . S
C510 C511 1.349 . S
C510 C512 1.327 . S
C510 H535 0.950 . S
C511 C510 1.349 . S
C511 C527 1.349 . S
C512 C510 1.327 . S
C512 C531 1.429 . S
C512 H536 0.950 . S
C513 C530 1.574 . S
C513 C532 1.368 . S
C513 H537 0.949 . S
H514 C518 0.949 . S
C515 C516 1.349 . S
C515 C517 1.327 . S
C515 H538 0.950 . S
C516 C515 1.349 . S
C516 C528 1.349 . S
C517 C515 1.327 . S
C517 C533 1.429 . S
C517 H539 0.950 . S
C518 H514 0.949 . S
C518 C526 1.574 . S
C518 C534 1.368 . S
H519 C527 0.950 . S
H520 C525 0.950 . S
H521 C526 0.949 . S
H522 C528 0.950 . S
H523 C529 0.950 . S
H524 C530 0.949 . S
C525 H520 0.950 . S
C525 C527 1.327 . S
C525 C531 1.429 . S
C526 C518 1.574 . S
C526 H521 0.949 . S
C526 C532 1.368 . S
C527 C511 1.349 . S
C527 H519 0.950 . S
C527 C525 1.327 . S
C528 C516 1.349 . S
C528 H522 0.950 . S
C528 C529 1.327 . S
C529 H523 0.950 . S
C529 C528 1.327 . S
C529 C533 1.429 . S
C530 C513 1.574 . S
C530 H524 0.949 . S
C530 C534 1.368 . S
C531 C512 1.429 . S
C531 C525 1.429 . S
C531 C532 1.523 . S
C532 C513 1.368 . S
C532 C526 1.368 . S
C532 C531 1.523 . S
C533 C517 1.429 . S
C533 C529 1.429 . S
C533 C534 1.523 . S
C534 C518 1.368 . S
C534 C530 1.368 . S
C534 C533 1.523 . S
H535 C510 0.950 . S
H536 C512 0.950 . S
H537 C513 0.949 . S
H538 C515 0.950 . S
H539 C517 0.950 . S
C540 C541 1.349 . S
C540 C542 1.327 . S
C540 H565 0.950 . S
C541 C540 1.349 . S
C541 C557 1.349 . S
C542 C540 1.327 . S
C542 C561 1.429 . S
C542 H566 0.950 . S
C543 C560 1.574 . S
C543 C562 1.368 . S
C543 H567 0.949 . S
H544 C548 0.949 . S
C545 C546 1.349 . S
C545 C547 1.327 1_556 S
C545 H568 0.950 . S
C546 C545 1.349 . S
C546 C558 1.349 . S
C547 C545 1.327 1_554 S
C547 C563 1.429 . S
C547 H569 0.950 . S
C548 H544 0.949 . S
C548 C556 1.574 . S
C548 C564 1.368 . S
H549 C557 0.950 . S
H550 C555 0.950 . S
H551 C556 0.949 . S
H552 C558 0.950 . S
H553 C559 0.950 . S
H554 C560 0.949 . S
C555 H550 0.950 . S
C555 C557 1.327 . S
C555 C561 1.429 . S
C556 C548 1.574 . S
C556 H551 0.949 . S
C556 C562 1.368 . S
C557 C541 1.349 . S
C557 H549 0.950 . S
C557 C555 1.327 . S
C558 C546 1.349 . S
C558 H552 0.950 . S
C558 C559 1.327 1_556 S
C559 H553 0.950 . S
C559 C558 1.327 1_554 S
C559 C563 1.429 . S
C560 C543 1.574 . S
C560 H554 0.949 . S
C560 C564 1.368 . S
C561 C542 1.429 . S
C561 C555 1.429 . S
C561 C562 1.523 . S
C562 C543 1.368 . S
C562 C556 1.368 . S
C562 C561 1.523 . S
C563 C547 1.429 . S
C563 C559 1.429 . S
C563 C564 1.523 . S
C564 C548 1.368 . S
C564 C560 1.368 . S
C564 C563 1.523 . S
H565 C540 0.950 . S
H566 C542 0.950 . S
H567 C543 0.949 . S
H568 C545 0.950 . S
H569 C547 0.950 . S
C570 C571 1.349 . S
C570 C572 1.327 . S
C570 H595 0.950 . S
C571 C570 1.349 . S
C571 C587 1.349 . S
C572 C570 1.327 . S
C572 C591 1.429 . S
C572 H596 0.950 . S
C573 C590 1.574 . S
C573 C592 1.368 . S
C573 H597 0.949 . S
H574 C578 0.949 . S
C575 C576 1.349 . S
C575 C577 1.327 1_556 S
C575 H598 0.950 . S
C576 C575 1.349 . S
C576 C588 1.349 . S
C577 C575 1.327 1_554 S
C577 C593 1.429 . S
C577 H599 0.950 . S
C578 H574 0.949 . S
C578 C586 1.574 . S
C578 C594 1.368 . S
H579 C587 0.950 . S
H580 C585 0.950 . S
H581 C586 0.949 . S
H582 C588 0.950 . S
H583 C589 0.950 . S
H584 C590 0.949 . S
C585 H580 0.950 . S
C585 C587 1.327 . S
C585 C591 1.429 . S
C586 C578 1.574 . S
C586 H581 0.949 . S
C586 C592 1.368 . S
C587 C571 1.349 . S
C587 H579 0.950 . S
C587 C585 1.327 . S
C588 C576 1.349 . S
C588 H582 0.950 . S
C588 C589 1.327 1_556 S
C589 H583 0.950 . S
C589 C588 1.327 1_554 S
C589 C593 1.429 . S
C590 C573 1.574 . S
C590 H584 0.949 . S
C590 C594 1.368 . S
C591 C572 1.429 . S
C591 C585 1.429 . S
C591 C592 1.523 . S
C592 C573 1.368 . S
C592 C586 1.368 . S
C592 C591 1.523 . S
C593 C577 1.429 . S
C593 C589 1.429 . S
C593 C594 1.523 . S
C594 C578 1.368 . S
C594 C590 1.368 . S
C594 C593 1.523 . S
H595 C570 0.950 . S
H596 C572 0.950 . S
H597 C573 0.949 . S
H598 C575 0.950 . S
H599 C577 0.950 . S
C600 C601 1.349 . S
C600 C602 1.327 . S
C600 H625 0.950 . S
C601 C600 1.349 . S
C601 C617 1.349 . S
C602 C600 1.327 . S
C602 C621 1.429 . S
C602 H626 0.950 . S
C603 C620 1.574 . S
C603 C622 1.368 . S
C603 H627 0.949 . S
H604 C608 0.949 . S
C605 C606 1.348 . S
C605 C607 1.329 1_556 S
C605 H628 0.949 . S
C606 C605 1.348 . S
C606 C618 1.349 1_556 S
C607 C605 1.329 1_554 S
C607 C623 1.429 . S
C607 H629 0.950 . S
C608 H604 0.949 . S
C608 C616 1.574 . S
C608 C624 1.368 . S
H609 C617 0.950 . S
H610 C615 0.950 . S
H611 C616 0.949 . S
H612 C618 0.950 . S
H613 C619 0.950 . S
H614 C620 0.949 . S
C615 H610 0.950 . S
C615 C617 1.327 . S
C615 C621 1.429 . S
C616 C608 1.574 . S
C616 H611 0.949 . S
C616 C622 1.368 . S
C617 C601 1.349 . S
C617 H609 0.950 . S
C617 C615 1.327 . S
C618 C606 1.349 1_554 S
C618 H612 0.950 . S
C618 C619 1.327 . S
C619 H613 0.950 . S
C619 C618 1.327 . S
C619 C623 1.429 . S
C620 C603 1.574 . S
C620 H614 0.949 . S
C620 C624 1.368 . S
C621 C602 1.429 . S
C621 C615 1.429 . S
C621 C622 1.523 . S
C622 C603 1.368 . S
C622 C616 1.368 . S
C622 C621 1.523 . S
C623 C607 1.429 . S
C623 C619 1.429 . S
C623 C624 1.523 . S
C624 C608 1.368 . S
C624 C620 1.368 . S
C624 C623 1.523 . S
H625 C600 0.950 . S
H626 C602 0.950 . S
H627 C603 0.949 . S
H628 C605 0.949 . S
H629 C607 0.950 . S
C630 C631 1.349 . S
C630 C632 1.327 . S
C630 H655 0.950 . S
C631 C630 1.349 . S
C631 C647 1.349 . S
C632 C630 1.327 . S
C632 C651 1.429 . S
C632 H656 0.950 . S
C633 C650 1.574 . S
C633 C652 1.368 . S
C633 H657 0.949 . S
H634 C638 0.949 . S
C635 C636 1.349 . S
C635 C637 1.327 . S
C635 H658 0.950 . S
C636 C635 1.349 . S
C636 C648 1.349 . S
C637 C635 1.327 . S
C637 C653 1.429 . S
C637 H659 0.950 . S
C638 H634 0.949 . S
C638 C646 1.574 . S
C638 C654 1.368 . S
H639 C647 0.950 . S
H640 C645 0.950 . S
H641 C646 0.949 . S
H642 C648 0.950 . S
H643 C649 0.950 . S
H644 C650 0.949 . S
C645 H640 0.950 . S
C645 C647 1.327 . S
C645 C651 1.429 . S
C646 C638 1.574 . S
C646 H641 0.949 . S
C646 C652 1.368 . S
C647 C631 1.349 . S
C647 H639 0.950 . S
C647 C645 1.327 . S
C648 C636 1.349 . S
C648 H642 0.950 . S
C648 C649 1.327 . S
C649 H643 0.950 . S
C649 C648 1.327 . S
C649 C653 1.429 . S
C650 C633 1.574 . S
C650 H644 0.949 . S
C650 C654 1.368 . S
C651 C632 1.429 . S
C651 C645 1.429 . S
C651 C652 1.523 . S
C652 C633 1.368 . S
C652 C646 1.368 . S
C652 C651 1.523 . S
C653 C637 1.429 . S
C653 C649 1.429 . S
C653 C654 1.523 . S
C654 C638 1.368 . S
C654 C650 1.368 . S
C654 C653 1.523 . S
H655 C630 0.950 . S
H656 C632 0.950 . S
H657 C633 0.949 . S
H658 C635 0.950 . S
H659 C637 0.950 . S
C660 C661 1.349 . S
C660 C662 1.327 . S
C660 H685 0.950 . S
C661 C660 1.349 . S
C661 C677 1.349 . S
C662 C660 1.327 . S
C662 C681 1.429 . S
C662 H686 0.950 . S
C663 C680 1.574 . S
C663 C682 1.368 . S
C663 H687 0.949 . S
H664 C668 0.949 . S
C665 C666 1.349 . S
C665 C667 1.327 . S
C665 H688 0.950 . S
C666 C665 1.349 . S
C666 C678 1.349 . S
C667 C665 1.327 . S
C667 C683 1.429 . S
C667 H689 0.950 . S
C668 H664 0.949 . S
C668 C676 1.574 . S
C668 C684 1.368 . S
H669 C677 0.950 . S
H670 C675 0.950 . S
H671 C676 0.949 . S
H672 C678 0.950 . S
H673 C679 0.950 . S
H674 C680 0.949 . S
C675 H670 0.950 . S
C675 C677 1.327 . S
C675 C681 1.429 . S
C676 C668 1.574 . S
C676 H671 0.949 . S
C676 C682 1.368 . S
C677 C661 1.349 . S
C677 H669 0.950 . S
C677 C675 1.327 . S
C678 C666 1.349 . S
C678 H672 0.950 . S
C678 C679 1.327 . S
C679 H673 0.950 . S
C679 C678 1.327 . S
C679 C683 1.429 . S
C680 C663 1.574 . S
C680 H674 0.949 . S
C680 C684 1.368 . S
C681 C662 1.429 . S
C681 C675 1.429 . S
C681 C682 1.523 . S
C682 C663 1.368 . S
C682 C676 1.368 . S
C682 C681 1.523 . S
C683 C667 1.429 . S
C683 C679 1.429 . S
C683 C684 1.523 . S
C684 C668 1.368 . S
C684 C680 1.368 . S
C684 C683 1.523 . S
H685 C660 0.950 . S
H686 C662 0.950 . S
H687 C663 0.949 . S
H688 C665 0.950 . S
H689 C667 0.950 . S
C690 C691 1.349 . S
C690 C692 1.327 . S
C690 H715 0.950 . S
C691 C690 1.349 . S
C691 C707 1.347 . S
C692 C690 1.327 . S
C692 C711 1.424 1_545 S
C692 H716 0.950 . S
C693 C710 1.574 . S
C693 C712 1.368 . S
C693 H717 0.949 . S
H694 C698 0.949 . S
C695 C696 1.349 . S
C695 C697 1.327 . S
C695 H718 0.950 . S
C696 C695 1.349 . S
C696 C708 1.349 . S
C697 C695 1.327 . S
C697 C713 1.429 . S
C697 H719 0.950 . S
C698 H694 0.949 . S
C698 C706 1.574 1_565 S
C698 C714 1.368 . S
H699 C707 0.951 1_565 S
H700 C705 0.950 . S
H701 C706 0.949 . S
H702 C708 0.950 . S
H703 C709 0.950 . S
H704 C710 0.949 . S
C705 H700 0.950 . S
C705 C707 1.327 1_565 S
C705 C711 1.433 . S
C706 C698 1.574 1_545 S
C706 H701 0.949 . S
C706 C712 1.368 1_545 S
C707 C691 1.347 . S
C707 H699 0.951 1_545 S
C707 C705 1.327 1_545 S
C708 C696 1.349 . S
C708 H702 0.950 . S
C708 C709 1.327 . S
C709 H703 0.950 . S
C709 C708 1.327 . S
C709 C713 1.429 . S
C710 C693 1.574 . S
C710 H704 0.949 . S
C710 C714 1.368 . S
C711 C692 1.424 1_565 S
C711 C705 1.433 . S
C711 C712 1.523 . S
C712 C693 1.368 . S
C712 C706 1.368 1_565 S
C712 C711 1.523 . S
C713 C697 1.429 . S
C713 C709 1.429 . S
C713 C714 1.523 . S
C714 C698 1.368 . S
C714 C710 1.368 . S
C714 C713 1.523 . S
H715 C690 0.950 . S
H716 C692 0.950 . S
H717 C693 0.949 . S
H718 C695 0.950 . S
H719 C697 0.950 . S
C720 C721 1.349 . S
C720 C722 1.327 . S
C720 H745 0.950 . S
C721 C720 1.349 . S
C721 C737 1.349 . S
C722 C720 1.327 . S
C722 C741 1.429 . S
C722 H746 0.950 . S
C723 C740 1.574 . S
C723 C742 1.368 . S
C723 H747 0.949 . S
H724 C728 0.949 . S
C725 C726 1.349 . S
C725 C727 1.327 . S
C725 H748 0.950 . S
C726 C725 1.349 . S
C726 C738 1.349 . S
C727 C725 1.327 . S
C727 C743 1.429 . S
C727 H749 0.950 . S
C728 H724 0.949 . S
C728 C736 1.574 . S
C728 C744 1.368 . S
H729 C737 0.950 . S
H730 C735 0.950 . S
H731 C736 0.949 . S
H732 C738 0.950 . S
H733 C739 0.950 . S
H734 C740 0.949 . S
C735 H730 0.950 . S
C735 C737 1.327 . S
C735 C741 1.429 . S
C736 C728 1.574 . S
C736 H731 0.949 . S
C736 C742 1.368 . S
C737 C721 1.349 . S
C737 H729 0.950 . S
C737 C735 1.327 . S
C738 C726 1.349 . S
C738 H732 0.950 . S
C738 C739 1.327 . S
C739 H733 0.950 . S
C739 C738 1.327 . S
C739 C743 1.429 . S
C740 C723 1.574 . S
C740 H734 0.949 . S
C740 C744 1.368 . S
C741 C722 1.429 . S
C741 C735 1.429 . S
C741 C742 1.523 1_554 S
C742 C723 1.368 . S
C742 C736 1.368 . S
C742 C741 1.523 1_556 S
C743 C727 1.429 . S
C743 C739 1.429 . S
C743 C744 1.523 . S
C744 C728 1.368 . S
C744 C740 1.368 . S
C744 C743 1.523 . S
H745 C720 0.950 . S
H746 C722 0.950 . S
H747 C723 0.949 . S
H748 C725 0.950 . S
H749 C727 0.950 . S
C750 C751 1.349 . S
C750 C752 1.327 . S
C750 H775 0.950 . S
C751 C750 1.349 . S
C751 C767 1.349 . S
C752 C750 1.327 . S
C752 C771 1.429 . S
C752 H776 0.950 . S
C753 C770 1.574 . S
C753 C772 1.368 . S
C753 H777 0.949 . S
H754 C758 0.949 . S
C755 C756 1.349 1_556 S
C755 C757 1.327 1_455 S
C755 H778 0.950 . S
C756 C755 1.349 1_554 S
C756 C768 1.349 . S
C757 C755 1.327 1_655 S
C757 C773 1.429 . S
C757 H779 0.950 . S
C758 H754 0.949 . S
C758 C766 1.574 . S
C758 C774 1.368 . S
H759 C767 0.950 . S
H760 C765 0.950 . S
H761 C766 0.949 . S
H762 C768 0.950 . S
H763 C769 0.935 . S
H764 C770 0.949 . S
C765 H760 0.950 . S
C765 C767 1.327 . S
C765 C771 1.429 . S
C766 C758 1.574 . S
C766 H761 0.949 . S
C766 C772 1.368 . S
C767 C751 1.349 . S
C767 H759 0.950 . S
C767 C765 1.327 . S
C768 C756 1.349 . S
C768 H762 0.950 . S
C768 C769 1.327 . S
C769 H763 0.935 . S
C769 C768 1.327 . S
C769 C773 1.429 1_454 S
C770 C753 1.574 . S
C770 H764 0.949 . S
C770 C774 1.368 . S
C771 C752 1.429 . S
C771 C765 1.429 . S
C771 C772 1.523 . S
C772 C753 1.368 . S
C772 C766 1.368 . S
C772 C771 1.523 . S
C773 C757 1.429 . S
C773 C769 1.429 1_656 S
C773 C774 1.523 . S
C774 C758 1.368 . S
C774 C770 1.368 . S
C774 C773 1.523 . S
H775 C750 0.950 . S
H776 C752 0.950 . S
H777 C753 0.949 . S
H778 C755 0.950 . S
H779 C757 0.950 . S
C780 C781 1.349 . S
C780 C782 1.327 . S
C780 H805 0.950 . S
C781 C780 1.349 . S
C781 C797 1.349 . S
C782 C780 1.327 . S
C782 C801 1.429 . S
C782 H806 0.950 . S
C783 C800 1.574 . S
C783 C802 1.368 . S
C783 H807 0.949 . S
H784 C788 0.949 . S
C785 C786 1.349 . S
C785 C787 1.327 . S
C785 H808 0.950 . S
C786 C785 1.349 . S
C786 C798 1.349 . S
C787 C785 1.327 . S
C787 C803 1.429 . S
C787 H809 0.950 1_554 S
C788 H784 0.949 . S
C788 C796 1.574 . S
C788 C804 1.368 . S
H789 C797 0.950 . S
H790 C795 0.950 . S
H791 C796 0.949 . S
H792 C798 0.950 . S
H793 C799 0.950 . S
H794 C800 0.949 . S
C795 H790 0.950 . S
C795 C797 1.327 . S
C795 C801 1.429 . S
C796 C788 1.574 . S
C796 H791 0.949 . S
C796 C802 1.368 . S
C797 C781 1.349 . S
C797 H789 0.950 . S
C797 C795 1.327 . S
C798 C786 1.349 . S
C798 H792 0.950 . S
C798 C799 1.327 . S
C799 H793 0.950 . S
C799 C798 1.327 . S
C799 C803 1.429 . S
C800 C783 1.574 . S
C800 H794 0.949 . S
C800 C804 1.368 . S
C801 C782 1.429 . S
C801 C795 1.429 . S
C801 C802 1.523 . S
C802 C783 1.368 . S
C802 C796 1.368 . S
C802 C801 1.523 . S
C803 C787 1.429 . S
C803 C799 1.429 . S
C803 C804 1.523 1_554 S
C804 C788 1.368 . S
C804 C800 1.368 . S
C804 C803 1.523 1_556 S
H805 C780 0.950 . S
H806 C782 0.950 . S
H807 C783 0.949 . S
H808 C785 0.950 . S
H809 C787 0.950 1_556 S
C810 C811 1.349 . S
C810 C812 1.327 . S
C810 H835 0.950 . S
C811 C810 1.349 . S
C811 C827 1.349 . S
C812 C810 1.327 . S
C812 C831 1.429 . S
C812 H836 0.950 . S
C813 C830 1.574 . S
C813 C832 1.368 . S
C813 H837 0.949 . S
H814 C818 0.949 . S
C815 C816 1.349 . S
C815 C817 1.327 1_554 S
C815 H838 0.950 . S
C816 C815 1.349 . S
C816 C828 1.349 1_554 S
C817 C815 1.327 1_556 S
C817 C833 1.429 . S
C817 H839 0.950 1_556 S
C818 H814 0.949 . S
C818 C826 1.574 . S
C818 C834 1.368 . S
H819 C827 0.950 . S
H820 C825 0.950 . S
H821 C826 0.949 . S
H822 C828 0.950 . S
H823 C829 0.950 . S
H824 C830 0.949 . S
C825 H820 0.950 . S
C825 C827 1.327 . S
C825 C831 1.429 . S
C826 C818 1.574 . S
C826 H821 0.949 . S
C826 C832 1.368 . S
C827 C811 1.349 . S
C827 H819 0.950 . S
C827 C825 1.327 . S
C828 C816 1.349 1_556 S
C828 H822 0.950 . S
C828 C829 1.327 . S
C829 H823 0.950 . S
C829 C828 1.327 . S
C829 C833 1.429 . S
C830 C813 1.574 . S
C830 H824 0.949 . S
C830 C834 1.368 . S
C831 C812 1.429 . S
C831 C825 1.429 . S
C831 C832 1.523 . S
C832 C813 1.368 . S
C832 C826 1.368 . S
C832 C831 1.523 . S
C833 C817 1.429 . S
C833 C829 1.429 . S
C833 C834 1.523 . S
C834 C818 1.368 . S
C834 C830 1.368 . S
C834 C833 1.523 . S
H835 C810 0.950 . S
H836 C812 0.950 . S
H837 C813 0.949 . S
H838 C815 0.950 . S
H839 C817 0.950 1_554 S
C840 C841 1.349 . S
C840 C842 1.327 . S
C840 H865 0.950 . S
C841 C840 1.349 . S
C841 C857 1.349 . S
C842 C840 1.327 . S
C842 C861 1.429 1_554 S
C842 H866 0.950 . S
C843 C860 1.574 . S
C843 C862 1.368 . S
C843 H867 0.949 . S
H844 C848 0.949 . S
C845 C846 1.349 . S
C845 C847 1.327 . S
C845 H868 0.950 . S
C846 C845 1.349 . S
C846 C858 1.349 . S
C847 C845 1.327 . S
C847 C863 1.429 . S
C847 H869 0.950 . S
C848 H844 0.949 . S
C848 C856 1.574 . S
C848 C864 1.368 . S
H849 C857 0.950 1_556 S
H850 C855 0.950 . S
H851 C856 0.949 1_554 S
H852 C858 0.950 . S
H853 C859 0.950 . S
H854 C860 0.949 . S
C855 H850 0.950 . S
C855 C857 1.327 1_556 S
C855 C861 1.429 . S
C856 C848 1.574 . S
C856 H851 0.949 1_556 S
C856 C862 1.368 . S
C857 C841 1.349 . S
C857 H849 0.950 1_554 S
C857 C855 1.327 1_554 S
C858 C846 1.349 . S
C858 H852 0.950 . S
C858 C859 1.327 . S
C859 H853 0.950 . S
C859 C858 1.327 . S
C859 C863 1.429 . S
C860 C843 1.574 . S
C860 H854 0.949 . S
C860 C864 1.368 . S
C861 C842 1.429 1_556 S
C861 C855 1.429 . S
C861 C862 1.523 . S
C862 C843 1.368 . S
C862 C856 1.368 . S
C862 C861 1.523 . S
C863 C847 1.429 . S
C863 C859 1.429 . S
C863 C864 1.523 . S
C864 C848 1.368 . S
C864 C860 1.368 . S
C864 C863 1.523 . S
H865 C840 0.950 . S
H866 C842 0.950 . S
H867 C843 0.949 . S
H868 C845 0.950 . S
H869 C847 0.950 . S
C870 C871 1.349 . S
C870 C872 1.327 . S
C870 H895 0.950 . S
C871 C870 1.349 . S
C871 C887 1.349 . S
C872 C870 1.327 . S
C872 C891 1.429 . S
C872 H896 0.950 . S
C873 C890 1.574 . S
C873 C892 1.368 . S
C873 H897 0.949 . S
H874 C878 0.949 . S
C875 C876 1.349 . S
C875 C877 1.327 . S
C875 H898 0.950 . S
C876 C875 1.349 . S
C876 C888 1.349 . S
C877 C875 1.327 . S
C877 C893 1.429 . S
C877 H899 0.950 . S
C878 H874 0.949 . S
C878 C886 1.574 . S
C878 C894 1.368 . S
H879 C887 0.950 . S
H880 C885 0.950 . S
H881 C886 0.949 . S
H882 C888 0.950 . S
H883 C889 0.950 1_556 S
H884 C890 0.949 1_554 S
C885 H880 0.950 . S
C885 C887 1.327 . S
C885 C891 1.429 . S
C886 C878 1.574 . S
C886 H881 0.949 . S
C886 C892 1.368 . S
C887 C871 1.349 . S
C887 H879 0.950 . S
C887 C885 1.327 . S
C888 C876 1.349 . S
C888 H882 0.950 . S
C888 C889 1.327 . S
C889 H883 0.950 1_554 S
C889 C888 1.327 . S
C889 C893 1.429 . S
C890 C873 1.574 . S
C890 H884 0.949 1_556 S
C890 C894 1.368 . S
C891 C872 1.429 . S
C891 C885 1.429 . S
C891 C892 1.523 . S
C892 C873 1.368 . S
C892 C886 1.368 . S
C892 C891 1.523 . S
C893 C877 1.429 . S
C893 C889 1.429 . S
C893 C894 1.523 1_554 S
C894 C878 1.368 . S
C894 C890 1.368 . S
C894 C893 1.523 1_556 S
H895 C870 0.950 . S
H896 C872 0.950 . S
H897 C873 0.949 . S
H898 C875 0.950 . S
H899 C877 0.950 . S
C900 C901 1.349 . S
C900 C902 1.327 . S
C900 H925 0.950 . S
C901 C900 1.349 . S
C901 C917 1.349 . S
C902 C900 1.327 . S
C902 C921 1.429 . S
C902 H926 0.950 . S
C903 C920 1.574 . S
C903 C922 1.368 . S
C903 H927 0.949 . S
H904 C908 0.949 . S
C905 C906 1.349 . S
C905 C907 1.327 . S
C905 H928 0.950 . S
C906 C905 1.349 . S
C906 C918 1.349 . S
C907 C905 1.327 . S
C907 C923 1.429 . S
C907 H929 0.950 1_565 S
C908 H904 0.949 . S
C908 C916 1.574 1_565 S
C908 C924 1.368 . S
H909 C917 0.950 . S
H910 C915 0.950 . S
H911 C916 0.938 . S
H912 C918 0.950 . S
H913 C919 0.950 . S
H914 C920 0.949 . S
C915 H910 0.950 . S
C915 C917 1.327 . S
C915 C921 1.429 . S
C916 C908 1.574 1_545 S
C916 H911 0.938 . S
C916 C922 1.368 . S
C917 C901 1.349 . S
C917 H909 0.950 . S
C917 C915 1.327 . S
C918 C906 1.349 . S
C918 H912 0.950 . S
C918 C919 1.327 . S
C919 H913 0.950 . S
C919 C918 1.327 . S
C919 C923 1.429 . S
C920 C903 1.574 . S
C920 H914 0.949 . S
C920 C924 1.343 1_545 S
C921 C902 1.429 . S
C921 C915 1.429 . S
C921 C922 1.523 . S
C922 C903 1.368 . S
C922 C916 1.368 . S
C922 C921 1.523 . S
C923 C907 1.429 . S
C923 C919 1.429 . S
C923 C924 1.558 . S
C924 C908 1.368 . S
C924 C920 1.343 1_565 S
C924 C923 1.558 . S
H925 C900 0.950 . S
H926 C902 0.950 . S
H927 C903 0.949 . S
H928 C905 0.950 . S
H929 C907 0.950 1_545 S
C930 C931 1.349 . S
C930 C932 1.327 . S
C930 H955 0.950 . S
C931 C930 1.349 . S
C931 C947 1.349 . S
C932 C930 1.327 . S
C932 C951 1.429 . S
C932 H956 0.950 . S
C933 C950 1.574 . S
C933 C952 1.368 . S
C933 H957 0.949 . S
H934 C938 0.949 . S
C935 C936 1.349 . S
C935 C937 1.327 . S
C935 H958 0.950 . S
C936 C935 1.349 . S
C936 C948 1.349 . S
C937 C935 1.327 . S
C937 C953 1.429 . S
C937 H959 0.950 . S
C938 H934 0.949 . S
C938 C946 1.574 . S
C938 C954 1.368 . S
H939 C947 0.950 . S
H940 C945 0.950 . S
H941 C946 0.949 . S
H942 C948 0.950 . S
H943 C949 0.950 . S
H944 C950 0.949 . S
C945 H940 0.950 . S
C945 C947 1.327 . S
C945 C951 1.429 . S
C946 C938 1.574 . S
C946 H941 0.949 . S
C946 C952 1.368 . S
C947 C931 1.349 . S
C947 H939 0.950 . S
C947 C945 1.327 . S
C948 C936 1.349 . S
C948 H942 0.950 . S
C948 C949 1.327 . S
C949 H943 0.950 . S
C949 C948 1.327 . S
C949 C953 1.429 . S
C950 C933 1.574 . S
C950 H944 0.949 . S
C950 C954 1.368 . S
C951 C932 1.429 . S
C951 C945 1.429 . S
C951 C952 1.523 . S
C952 C933 1.368 . S
C952 C946 1.368 . S
C952 C951 1.523 . S
C953 C937 1.429 . S
C953 C949 1.429 . S
C953 C954 1.523 . S
C954 C938 1.368 . S
C954 C950 1.368 . S
C954 C953 1.523 . S
H955 C930 0.950 . S
H956 C932 0.950 . S
H957 C933 0.949 . S
H958 C935 0.950 . S
H959 C937 0.950 . S
C960 C961 1.349 . S
C960 C962 1.327 . S
C960 H985 0.950 . S
C961 C960 1.349 . S
C961 C977 1.349 . S
C962 C960 1.327 . S
C962 C981 1.429 . S
C962 H986 0.950 . S
C963 C980 1.574 . S
C963 C982 1.368 . S
C963 H987 0.949 . S
H964 C968 0.949 . S
C965 C966 1.349 . S
C965 C967 1.327 . S
C965 H988 0.950 . S
C966 C965 1.349 . S
C966 C978 1.349 . S
C967 C965 1.327 . S
C967 C983 1.429 . S
C967 H989 0.950 . S
C968 H964 0.949 . S
C968 C976 1.574 . S
C968 C984 1.368 . S
H969 C977 0.950 . S
H970 C975 0.950 . S
H971 C976 0.949 . S
H972 C978 0.950 . S
H973 C979 0.950 . S
H974 C980 0.949 . S
C975 H970 0.950 . S
C975 C977 1.327 . S
C975 C981 1.429 . S
C976 C968 1.574 . S
C976 H971 0.949 . S
C976 C982 1.368 . S
C977 C961 1.349 . S
C977 H969 0.950 . S
C977 C975 1.327 . S
C978 C966 1.349 . S
C978 H972 0.950 . S
C978 C979 1.327 . S
C979 H973 0.950 . S
C979 C978 1.327 . S
C979 C983 1.429 . S
C980 C963 1.574 . S
C980 H974 0.949 . S
C980 C984 1.368 . S
C981 C962 1.429 . S
C981 C975 1.429 . S
C981 C982 1.523 . S
C982 C963 1.368 . S
C982 C976 1.368 . S
C982 C981 1.523 . S
C983 C967 1.429 . S
C983 C979 1.429 . S
C983 C984 1.523 . S
C984 C968 1.368 . S
C984 C980 1.368 . S
C984 C983 1.523 . S
H985 C960 0.950 . S
H986 C962 0.950 . S
H987 C963 0.949 . S
H988 C965 0.950 . S
H989 C967 0.950 . S
C990 C991 1.349 . S
C990 C992 1.327 . S
C990 H1015 0.950 . S
C991 C990 1.349 . S
C991 C1007 1.349 . S
C992 C990 1.327 . S
C992 C1011 1.429 . S
C992 H1016 0.950 . S
C993 C1010 1.574 . S
C993 C1012 1.368 . S
C993 H1017 0.949 . S
H994 C998 0.949 . S
C995 C996 1.349 . S
C995 C997 1.327 . S
C995 H1018 0.950 . S
C996 C995 1.349 . S
C996 C1008 1.349 . S
C997 C995 1.327 . S
C997 C1013 1.429 . S
C997 H1019 0.950 . S
C998 H994 0.949 . S
C998 C1006 1.574 . S
C998 C1014 1.368 . S
H999 C1007 0.950 . S
H1000 C1005 0.950 . S
H1001 C1006 0.949 . S
H1002 C1008 0.950 . S
H1003 C1009 0.950 . S
H1004 C1010 0.949 . S
C1005 H1000 0.950 . S
C1005 C1007 1.327 . S
C1005 C1011 1.429 . S
C1006 C998 1.574 . S
C1006 H1001 0.949 . S
C1006 C1012 1.368 . S
C1007 C991 1.349 . S
C1007 H999 0.950 . S
C1007 C1005 1.327 . S
C1008 C996 1.349 . S
C1008 H1002 0.950 . S
C1008 C1009 1.327 . S
C1009 H1003 0.950 . S
C1009 C1008 1.327 . S
C1009 C1013 1.429 . S
C1010 C993 1.574 . S
C1010 H1004 0.949 . S
C1010 C1014 1.368 . S
C1011 C992 1.429 . S
C1011 C1005 1.429 . S
C1011 C1012 1.523 . S
C1012 C993 1.368 . S
C1012 C1006 1.368 . S
C1012 C1011 1.523 . S
C1013 C997 1.429 . S
C1013 C1009 1.429 . S
C1013 C1014 1.523 . S
C1014 C998 1.368 . S
C1014 C1010 1.368 . S
C1014 C1013 1.523 . S
H1015 C990 0.950 . S
H1016 C992 0.950 . S
H1017 C993 0.949 . S
H1018 C995 0.950 . S
H1019 C997 0.950 . S
C1020 C1021 1.349 . S
C1020 C1022 1.327 . S
C1020 H1045 0.950 . S
C1021 C1020 1.349 . S
C1021 C1037 1.349 . S
C1022 C1020 1.327 . S
C1022 C1041 1.429 . S
C1022 H1046 0.950 . S
C1023 C1040 1.574 . S
C1023 C1042 1.368 . S
C1023 H1047 0.949 . S
H1024 C1028 0.949 . S
C1025 C1026 1.349 . S
C1025 C1027 1.327 . S
C1025 H1048 0.950 . S
C1026 C1025 1.349 . S
C1026 C1038 1.349 . S
C1027 C1025 1.327 . S
C1027 C1043 1.429 . S
C1027 H1049 0.950 . S
C1028 H1024 0.949 . S
C1028 C1036 1.574 1_565 S
C1028 C1044 1.368 . S
H1029 C1037 0.950 . S
H1030 C1035 0.950 . S
H1031 C1036 0.949 . S
H1032 C1038 0.950 . S
H1033 C1039 0.950 . S
H1034 C1040 0.949 1_565 S
C1035 H1030 0.950 . S
C1035 C1037 1.327 . S
C1035 C1041 1.429 . S
C1036 C1028 1.574 1_545 S
C1036 H1031 0.949 . S
C1036 C1042 1.368 . S
C1037 C1021 1.349 . S
C1037 H1029 0.950 . S
C1037 C1035 1.327 . S
C1038 C1026 1.349 . S
C1038 H1032 0.950 . S
C1038 C1039 1.327 . S
C1039 H1033 0.950 . S
C1039 C1038 1.327 . S
C1039 C1043 1.429 . S
C1040 C1023 1.574 . S
C1040 H1034 0.949 1_545 S
C1040 C1044 1.368 1_545 S
C1041 C1022 1.429 . S
C1041 C1035 1.429 . S
C1041 C1042 1.523 . S
C1042 C1023 1.368 . S
C1042 C1036 1.368 . S
C1042 C1041 1.523 . S
C1043 C1027 1.429 . S
C1043 C1039 1.429 . S
C1043 C1044 1.523 . S
C1044 C1028 1.368 . S
C1044 C1040 1.368 1_565 S
C1044 C1043 1.523 . S
H1045 C1020 0.950 . S
H1046 C1022 0.950 . S
H1047 C1023 0.949 . S
H1048 C1025 0.950 . S
H1049 C1027 0.950 . S
C1050 C1051 1.349 . S
C1050 C1052 1.327 . S
C1050 H1075 0.950 . S
C1051 C1050 1.349 . S
C1051 C1067 1.349 . S
C1052 C1050 1.327 . S
C1052 C1071 1.429 . S
C1052 H1076 0.950 . S
C1053 C1070 1.574 . S
C1053 C1072 1.368 . S
C1053 H1077 0.949 . S
H1054 C1058 0.946 . S
C1055 C1056 1.349 . S
C1055 C1057 1.327 . S
C1055 H1078 0.950 . S
C1056 C1055 1.349 . S
C1056 C1068 1.349 . S
C1057 C1055 1.327 . S
C1057 C1073 1.429 . S
C1057 H1079 0.950 . S
C1058 H1054 0.946 . S
C1058 C1066 1.574 1_455 S
C1058 C1074 1.368 . S
H1059 C1067 0.950 . S
H1060 C1065 0.950 1_455 S
H1061 C1066 0.949 . S
H1062 C1068 0.950 . S
H1063 C1069 0.950 . S
H1064 C1070 0.949 . S
C1065 H1060 0.950 1_655 S
C1065 C1067 1.327 . S
C1065 C1071 1.429 . S
C1066 C1058 1.574 1_655 S
C1066 H1061 0.949 . S
C1066 C1072 1.368 1_655 S
C1067 C1051 1.349 . S
C1067 H1059 0.950 . S
C1067 C1065 1.327 . S
C1068 C1056 1.349 . S
C1068 H1062 0.950 . S
C1068 C1069 1.327 . S
C1069 H1063 0.950 . S
C1069 C1068 1.327 . S
C1069 C1073 1.429 . S
C1070 C1053 1.574 . S
C1070 H1064 0.949 . S
C1070 C1074 1.368 . S
C1071 C1052 1.429 . S
C1071 C1065 1.429 . S
C1071 C1072 1.523 1_655 S
C1072 C1053 1.368 . S
C1072 C1066 1.368 1_455 S
C1072 C1071 1.523 1_455 S
C1073 C1057 1.429 . S
C1073 C1069 1.429 . S
C1073 C1074 1.523 . S
C1074 C1058 1.368 . S
C1074 C1070 1.368 . S
C1074 C1073 1.523 . S
H1075 C1050 0.950 . S
H1076 C1052 0.950 . S
H1077 C1053 0.949 . S
H1078 C1055 0.950 . S
H1079 C1057 0.950 . S
C1080 C1081 1.349 . S
C1080 C1082 1.327 . S
C1080 H1105 0.950 . S
C1081 C1080 1.349 . S
C1081 C1097 1.349 . S
C1082 C1080 1.327 . S
C1082 C1101 1.429 . S
C1082 H1106 0.950 . S
C1083 C1100 1.574 . S
C1083 C1102 1.368 . S
C1083 H1107 0.949 . S
H1084 C1088 0.949 . S
C1085 C1086 1.349 . S
C1085 C1087 1.327 . S
C1085 H1108 0.950 . S
C1086 C1085 1.349 . S
C1086 C1098 1.349 . S
C1087 C1085 1.327 . S
C1087 C1103 1.429 . S
C1087 H1109 0.950 . S
C1088 H1084 0.949 . S
C1088 C1096 1.574 . S
C1088 C1104 1.368 . S
H1089 C1097 0.950 . S
H1090 C1095 0.950 . S
H1091 C1096 0.949 . S
H1092 C1098 0.950 . S
H1093 C1099 0.950 . S
H1094 C1100 0.949 . S
C1095 H1090 0.950 . S
C1095 C1097 1.327 . S
C1095 C1101 1.429 . S
C1096 C1088 1.574 . S
C1096 H1091 0.949 . S
C1096 C1102 1.368 . S
C1097 C1081 1.349 . S
C1097 H1089 0.950 . S
C1097 C1095 1.327 . S
C1098 C1086 1.349 . S
C1098 H1092 0.950 . S
C1098 C1099 1.327 . S
C1099 H1093 0.950 . S
C1099 C1098 1.327 . S
C1099 C1103 1.429 . S
C1100 C1083 1.574 . S
C1100 H1094 0.949 . S
C1100 C1104 1.368 . S
C1101 C1082 1.429 . S
C1101 C1095 1.429 . S
C1101 C1102 1.523 . S
C1102 C1083 1.368 . S
C1102 C1096 1.368 . S
C1102 C1101 1.523 . S
C1103 C1087 1.429 . S
C1103 C1099 1.429 . S
C1103 C1104 1.523 . S
C1104 C1088 1.368 . S
C1104 C1100 1.368 . S
C1104 C1103 1.523 . S
H1105 C1080 0.950 . S
H1106 C1082 0.950 . S
H1107 C1083 0.949 . S
H1108 C1085 0.950 . S
H1109 C1087 0.950 . S
C1110 C1111 1.349 . S
C1110 C1112 1.327 . S
C1110 H1135 0.950 . S
C1111 C1110 1.349 . S
C1111 C1127 1.349 . S
C1112 C1110 1.327 . S
C1112 C1131 1.429 . S
C1112 H1136 0.950 . S
C1113 C1130 1.574 . S
C1113 C1132 1.368 1_545 S
C1113 H1137 0.949 . S
H1114 C1118 0.949 . S
C1115 C1116 1.349 . S
C1115 C1117 1.327 . S
C1115 H1138 0.950 . S
C1116 C1115 1.349 . S
C1116 C1128 1.349 . S
C1117 C1115 1.327 . S
C1117 C1133 1.429 . S
C1117 H1139 0.950 . S
C1118 H1114 0.949 . S
C1118 C1126 1.590 . S
C1118 C1134 1.368 . S
H1119 C1127 0.950 . S
H1120 C1125 0.950 . S
H1121 C1126 0.929 1_565 S
H1122 C1128 0.950 . S
H1123 C1129 0.950 . S
H1124 C1130 0.949 . S
C1125 H1120 0.950 . S
C1125 C1127 1.327 . S
C1125 C1131 1.429 . S
C1126 C1118 1.590 . S
C1126 H1121 0.929 1_545 S
C1126 C1132 1.375 1_545 S
C1127 C1111 1.349 . S
C1127 H1119 0.950 . S
C1127 C1125 1.327 . S
C1128 C1116 1.349 . S
C1128 H1122 0.950 . S
C1128 C1129 1.327 . S
C1129 H1123 0.950 . S
C1129 C1128 1.327 . S
C1129 C1133 1.429 . S
C1130 C1113 1.574 . S
C1130 H1124 0.949 . S
C1130 C1134 1.368 . S
C1131 C1112 1.429 . S
C1131 C1125 1.429 . S
C1131 C1132 1.523 . S
C1132 C1113 1.368 1_565 S
C1132 C1126 1.375 1_565 S
C1132 C1131 1.523 . S
C1133 C1117 1.429 . S
C1133 C1129 1.429 . S
C1133 C1134 1.523 . S
C1134 C1118 1.368 . S
C1134 C1130 1.368 . S
C1134 C1133 1.523 . S
H1135 C1110 0.950 . S
H1136 C1112 0.950 . S
H1137 C1113 0.949 . S
H1138 C1115 0.950 . S
H1139 C1117 0.950 . S
C1140 C1141 1.349 . S
C1140 C1142 1.327 . S
C1140 H1165 0.950 . S
C1141 C1140 1.349 . S
C1141 C1157 1.349 . S
C1142 C1140 1.327 . S
C1142 C1161 1.429 . S
C1142 H1166 0.950 1_655 S
C1143 C1160 1.574 1_655 S
C1143 C1162 1.368 . S
C1143 H1167 0.949 . S
H1144 C1148 0.949 . S
C1145 C1146 1.349 . S
C1145 C1147 1.327 . S
C1145 H1168 0.950 . S
C1146 C1145 1.349 . S
C1146 C1158 1.349 . S
C1147 C1145 1.327 . S
C1147 C1163 1.429 . S
C1147 H1169 0.950 . S
C1148 H1144 0.949 . S
C1148 C1156 1.574 . S
C1148 C1164 1.368 . S
H1149 C1157 0.950 . S
H1150 C1155 0.950 . S
H1151 C1156 0.949 . S
H1152 C1158 0.950 . S
H1153 C1159 0.950 . S
H1154 C1160 0.951 1_655 S
C1155 H1150 0.950 . S
C1155 C1157 1.327 . S
C1155 C1161 1.429 . S
C1156 C1148 1.574 . S
C1156 H1151 0.949 . S
C1156 C1162 1.368 1_455 S
C1157 C1141 1.349 . S
C1157 H1149 0.950 . S
C1157 C1155 1.327 . S
C1158 C1146 1.349 . S
C1158 H1152 0.950 . S
C1158 C1159 1.327 . S
C1159 H1153 0.950 . S
C1159 C1158 1.327 . S
C1159 C1163 1.429 . S
C1160 C1143 1.574 1_455 S
C1160 H1154 0.951 1_455 S
C1160 C1164 1.368 . S
C1161 C1142 1.429 . S
C1161 C1155 1.429 . S
C1161 C1162 1.523 . S
C1162 C1143 1.368 . S
C1162 C1156 1.368 1_655 S
C1162 C1161 1.523 . S
C1163 C1147 1.429 . S
C1163 C1159 1.429 . S
C1163 C1164 1.523 . S
C1164 C1148 1.368 . S
C1164 C1160 1.368 . S
C1164 C1163 1.523 . S
H1165 C1140 0.950 . S
H1166 C1142 0.950 1_455 S
H1167 C1143 0.949 . S
H1168 C1145 0.950 . S
H1169 C1147 0.950 . S
C361 C10 3.181 . S
C366 C19 3.181 . S
C391 C59 3.243 1_556 S
C396 C50 3.243 . S
C421 C90 3.278 1_556 S
C426 C99 3.278 . S
C451 C139 3.181 . S
C456 C130 3.181 . S
C481 C170 3.243 . S
C486 C179 3.243 1_556 S
C511 C219 3.278 . S
C516 C210 3.278 1_556 S
C541 C247 2.786 . S
C546 C256 2.786 1_556 S
C571 C296 2.877 . S
C576 C287 2.877 1_556 S
C601 C327 2.537 . S
C606 C336 2.537 1_556 S
C631 C202 1.943 . S
C636 C7 1.959 . S
C661 C42 2.850 . S
C666 C122 2.867 . S
C691 C87 1.381 . S
C696 C167 1.388 . S
C721 C82 2.820 . S
C726 C251 2.934 . S
C751 C299 1.036 . S
C756 C2 1.017 . S
C781 C331 1.766 . S
C786 C47 1.676 . S
C811 C330 0.683 . S
C816 C16 0.692 . S
C841 C51 2.003 . S
C846 C250 2.042 . S
C871 C282 2.685 . S
C876 C96 2.550 . S
C901 C91 1.943 . S
C906 C136 1.959 . S
C931 C171 2.850 . S
C936 C11 2.867 . S
C961 C56 1.388 . S
C966 C216 1.381 . S
C991 C339 0.682 . S
C996 C127 0.691 . S
C1021 C259 2.042 . S
C1026 C162 2.003 . S
C1051 C291 2.685 . S
C1056 C207 2.550 . S
C1081 C242 2.934 . S
C1086 C211 2.820 . S
C1111 C131 1.017 . S
C1116 C290 1.036 . S
C1141 C322 1.766 . S
C1146 C176 1.675 . S
