# Generated by pormake.
# Topology hcp, (12)-cn, num edge types: 1
# Building blocks:
#     Node 0, Type 0, BuildingBlock: ZALLEG_clean_sbu_0, # of connection points: 12
#     Node 1, Type 0, BuildingBlock: ZALLEG_clean_sbu_0, # of connection points: 12
#     Edge 2, Type (0, 0), BuildingBlock: XIVTED_clean_linker_0, # of connection points: 2
#     Edge 3, Type (0, 0), BuildingBlock: XIVTED_clean_linker_0, # of connection points: 2
#     Edge 4, Type (0, 0), BuildingBlock: XIVTED_clean_linker_0, # of connection points: 2
#     Edge 5, Type (0, 0), BuildingBlock: XIVTED_clean_linker_0, # of connection points: 2
#     Edge 6, Type (0, 0), BuildingBlock: XIVTED_clean_linker_0, # of connection points: 2
#     Edge 7, Type (0, 0), BuildingBlock: XIVTED_clean_linker_0, # of connection points: 2
#     Edge 8, Type (0, 0), BuildingBlock: XIVTED_clean_linker_0, # of connection points: 2
#     Edge 9, Type (0, 0), BuildingBlock: XIVTED_clean_linker_0, # of connection points: 2
#     Edge 10, Type (0, 0), BuildingBlock: XIVTED_clean_linker_0, # of connection points: 2
#     Edge 11, Type (0, 0), BuildingBlock: XIVTED_clean_linker_0, # of connection points: 2
#     Edge 12, Type (0, 0), BuildingBlock: XIVTED_clean_linker_0, # of connection points: 2
#     Edge 13, Type (0, 0), BuildingBlock: XIVTED_clean_linker_0, # of connection points: 2
# Relax obj value: 0.186
# Max RMSD: 0.270
# Mean RMSD: 0.270
data_MOF--net-hcp--node1-ZALLEG_clean_sbu_0--edge1-XIVTED_clean_linker_0
_symmetry_space_group_name_H-M    P1
_symmetry_Int_Tables_number       1
_symmetry_cell_setting            triclinic
loop_
_symmetry_equiv_pos_as_xyz
'x, y, z'
_cell_length_a     18.90283
_cell_length_b     18.90703
_cell_length_c     27.857559
_cell_angle_alpha  90.00791
_cell_angle_beta   89.983604
_cell_angle_gamma 119.99404
loop_
_atom_site_label
_atom_site_type_symbol
_atom_site_fract_x
_atom_site_fract_y
_atom_site_fract_z
_atom_type_partial_charge
H0 H 0.55485 0.14147 0.27618 0.0
O1 O 0.58342 0.1985 0.28763 0.0
Tb2 Tb 0.52628 0.26362 0.26283 0.0
Tb3 Tb 0.5884 0.19967 0.36298 0.0
Tb4 Tb 0.70285 0.25777 0.26245 0.0
O5 O 0.52337 0.25728 0.33858 0.0
O6 O 0.64604 0.32091 0.23518 0.0
O7 O 0.58672 0.38269 0.28859 0.0
O8 O 0.64574 0.31891 0.38983 0.0
O9 O 0.76762 0.37943 0.28819 0.0
O10 O 0.70812 0.25937 0.33823 0.0
H11 H 0.4668 0.22913 0.35093 0.0
H12 H 0.64614 0.32135 0.19967 0.0
Tb13 Tb 0.58361 0.37659 0.36391 0.0
Tb14 Tb 0.70878 0.44025 0.2634 0.0
H15 H 0.55819 0.41145 0.2776 0.0
H16 H 0.64559 0.31848 0.42523 0.0
Tb17 Tb 0.76538 0.38143 0.36354 0.0
H18 H 0.82482 0.4081 0.27704 0.0
H19 H 0.73616 0.23075 0.35041 0.0
O20 O 0.70606 0.44205 0.3392 0.0
H21 H 0.73452 0.49841 0.35186 0.0
O22 O 0.42292 0.14107 0.27808 0.0
O23 O 0.86916 0.50351 0.34982 0.0
O24 O 0.78324 0.32289 0.42431 0.0
O25 O 0.51738 0.33882 0.20286 0.0
O26 O 0.60682 0.09619 0.34824 0.0
O27 O 0.68962 0.54336 0.27975 0.0
O28 O 0.79263 0.45005 0.20299 0.0
O29 O 0.51247 0.18102 0.42418 0.0
O30 O 0.62858 0.17499 0.20182 0.0
O31 O 0.64122 0.45136 0.42542 0.0
O32 O 0.4618 0.35871 0.34993 0.0
O33 O 0.82517 0.2766 0.27787 0.0
O34 O 0.4657 0.09688 0.34702 0.0
O35 O 0.82968 0.54459 0.27891 0.0
O36 O 0.64969 0.45739 0.20147 0.0
O37 O 0.65704 0.1973 0.4291 0.0
O38 O 0.42171 0.27986 0.27836 0.0
O39 O 0.86845 0.36194 0.3475 0.0
O40 O 0.76709 0.45121 0.43008 0.0
O41 O 0.51002 0.1888 0.20034 0.0
O42 O 0.51254 0.30689 0.42972 0.0
O43 O 0.7786 0.31767 0.20051 0.0
O44 O 0.68668 0.13681 0.27703 0.0
O45 O 0.60322 0.49941 0.34895 0.0
C46 C 0.41175 0.08657 0.31245 0.0
C47 C 0.88205 0.55661 0.31451 0.0
C48 C 0.73268 0.25219 0.44514 0.0
C49 C 0.57351 0.41254 0.1852 0.0
C50 C 0.64683 0.08394 0.3125 0.0
C51 C 0.6465 0.55391 0.31456 0.0
C52 C 0.81 0.39412 0.18474 0.0
C53 C 0.49207 0.23114 0.44537 0.0
C54 C 0.55515 0.15787 0.18394 0.0
C55 C 0.71182 0.47129 0.44633 0.0
C56 C 0.40919 0.31936 0.31427 0.0
C57 C 0.87924 0.31915 0.31258 0.0
H58 H 0.13262 0.56032 0.77747 0.0
O59 O 0.18988 0.58905 0.78853 0.0
Tb60 Tb 0.19285 0.59516 0.86386 0.0
Tb61 Tb 0.25443 0.5315 0.7634 0.0
Tb62 Tb 0.24855 0.70812 0.76278 0.0
O63 O 0.24985 0.5297 0.83919 0.0
O64 O 0.25191 0.71446 0.83854 0.0
O65 O 0.31264 0.65282 0.88983 0.0
O66 O 0.37406 0.59231 0.78825 0.0
O67 O 0.37079 0.77322 0.78762 0.0
O68 O 0.31108 0.65085 0.73517 0.0
H69 H 0.22192 0.47332 0.85182 0.0
H70 H 0.2235 0.74262 0.85089 0.0
Tb71 Tb 0.36976 0.59027 0.8636 0.0
Tb72 Tb 0.37454 0.77206 0.86294 0.0
H73 H 0.3129 0.65317 0.92522 0.0
H74 H 0.40262 0.56365 0.77712 0.0
Tb75 Tb 0.43098 0.71395 0.76249 0.0
H76 H 0.39927 0.83026 0.77622 0.0
H77 H 0.31086 0.65048 0.69966 0.0
O78 O 0.43459 0.71235 0.83827 0.0
H79 H 0.49123 0.74098 0.85048 0.0
O80 O 0.08963 0.47238 0.84887 0.0
O81 O 0.53579 0.83489 0.77707 0.0
O82 O 0.44687 0.65403 0.70056 0.0
O83 O 0.1917 0.66472 0.92982 0.0
O84 O 0.17848 0.51445 0.70136 0.0
O85 O 0.44559 0.77463 0.92904 0.0
O86 O 0.35467 0.87486 0.84695 0.0
O87 O 0.27096 0.42715 0.77894 0.0
O88 O 0.12769 0.69182 0.77828 0.0
O89 O 0.49239 0.60985 0.84763 0.0
O90 O 0.30139 0.52018 0.93002 0.0
O91 O 0.3073 0.78316 0.70038 0.0
O92 O 0.13212 0.42842 0.7797 0.0
O93 O 0.49645 0.87556 0.84821 0.0
O94 O 0.31727 0.79078 0.92409 0.0
O95 O 0.32855 0.52163 0.70306 0.0
O96 O 0.17547 0.52022 0.92531 0.0
O97 O 0.43965 0.79699 0.70197 0.0
O98 O 0.53446 0.69514 0.77797 0.0
O99 O 0.08899 0.61313 0.84992 0.0
O100 O 0.35154 0.46824 0.84984 0.0
O101 O 0.2677 0.83066 0.77801 0.0
O102 O 0.16485 0.63312 0.70262 0.0
O103 O 0.44591 0.64885 0.92451 0.0
C104 C 0.07841 0.41787 0.81449 0.0
C105 C 0.54875 0.8878 0.8125 0.0
C106 C 0.40187 0.57756 0.68481 0.0
C107 C 0.24693 0.74055 0.94541 0.0
C108 C 0.14745 0.55947 0.68495 0.0
C109 C 0.4661 0.71966 0.94523 0.0
C110 C 0.31105 0.88518 0.81237 0.0
C111 C 0.31132 0.41513 0.81453 0.0
C112 C 0.07571 0.65242 0.81424 0.0
C113 C 0.54598 0.65264 0.81272 0.0
C114 C 0.22599 0.50008 0.94621 0.0
C115 C 0.38345 0.81427 0.68408 0.0
H116 H 0.27217 0.69574 1.03343 0.0
H117 H 0.47284 0.16703 0.10707 0.0
H118 H 0.22325 0.86821 0.96234 0.0
H119 H 0.53543 0.00306 0.17773 0.0
H120 H 0.37477 0.05463 1.05727 0.0
H121 H 0.35297 0.79949 0.09393 0.0
C122 C 0.27454 0.75393 1.03207 0.0
C123 C 0.24116 0.77308 0.99252 0.0
C124 C 0.41029 0.04284 0.08321 0.0
C125 C 0.33608 0.89381 1.06056 0.0
C126 C 0.46737 0.10749 0.11123 0.0
C127 C 0.51371 0.09498 0.14605 0.0
C128 C 0.39809 0.9639 0.09003 0.0
C129 C 0.50256 0.01597 0.15051 0.0
C130 C 0.32255 0.81404 1.06595 0.0
C131 C 0.24712 0.85019 0.99237 0.0
N132 N 0.4456 0.9533 0.12301 0.0
N133 N 0.29526 0.90809 1.02496 0.0
H134 H 0.41445 0.43826 0.67804 0.0
H135 H 0.7413 0.62434 0.46392 0.0
H136 H 0.49162 0.67017 0.60986 0.0
H137 H 0.68196 0.39907 0.53398 0.0
H138 H 0.66317 0.64924 0.52452 0.0
H139 H 0.5136 0.42225 0.62819 0.0
C140 C 0.45039 0.48456 0.65165 0.0
C141 C 0.44372 0.55508 0.64762 0.0
C142 C 0.66861 0.59507 0.52766 0.0
C143 C 0.55974 0.53908 0.59203 0.0
C144 C 0.71573 0.58219 0.49377 0.0
C145 C 0.71808 0.50913 0.49364 0.0
C146 C 0.62292 0.53425 0.56182 0.0
C147 C 0.68143 0.45583 0.5326 0.0
C148 C 0.50821 0.47628 0.62391 0.0
C149 C 0.49401 0.61443 0.61391 0.0
N150 N 0.63329 0.46793 0.56427 0.0
N151 N 0.54959 0.60521 0.58774 0.0
H152 H 0.9623 0.53285 0.17819 0.0
H153 H 0.10138 0.34727 0.963 0.0
H154 H 0.80638 0.30182 0.10942 0.0
H155 H 0.26856 0.5706 1.03436 0.0
H156 H -0.00172 0.3224 1.02355 0.0
H157 H 0.07717 0.54841 0.12824 0.0
C158 C 0.95164 0.48668 0.15164 0.0
C159 C 0.8742 0.41654 0.14746 0.0
C160 C 0.05815 0.37612 1.02697 0.0
C161 C 0.00587 0.43199 0.09176 0.0
C162 C 0.11817 0.38895 0.9931 0.0
C163 C 0.19398 0.46159 0.99333 0.0
C164 C 0.07371 0.43655 1.0615 0.0
C165 C 0.21093 0.51428 1.03264 0.0
C166 C 0.01756 0.49468 0.12384 0.0
C167 C 0.86472 0.3573 0.11356 0.0
N168 N 0.15071 0.50229 1.06429 0.0
N169 N 0.92936 0.36625 0.08733 0.0
H170 H 0.52321 0.96545 0.67633 0.0
H171 H 0.33922 0.10587 0.46128 0.0
H172 H 0.28952 0.81138 0.60982 0.0
H173 H 0.56138 0.27274 0.53383 0.0
H174 H 0.31333 0.00253 0.52186 0.0
H175 H 0.53933 0.08029 0.62623 0.0
C176 C 0.4765 0.95516 0.65025 0.0
C177 C 0.40548 0.87827 0.64676 0.0
C178 C 0.36698 0.06239 0.52553 0.0
C179 C 0.42171 0.00994 0.59084 0.0
C180 C 0.38041 0.12251 0.49163 0.0
C181 C 0.45299 0.19836 0.49226 0.0
C182 C 0.42683 0.07782 0.56043 0.0
C183 C 0.5051 0.21512 0.53183 0.0
C184 C 0.48485 0.02109 0.62238 0.0
C185 C 0.34564 0.86928 0.61344 0.0
N186 N 0.49257 0.15478 0.5635 0.0
N187 N 0.35502 0.93392 0.58706 0.0
H188 H 0.43347 0.42362 0.17704 0.0
H189 H 0.61923 0.74884 0.96237 0.0
H190 H 0.66793 0.50414 0.11126 0.0
H191 H 0.39484 0.69115 1.03308 0.0
H192 H 0.64474 0.67179 1.0234 0.0
H193 H 0.41732 0.52212 0.12671 0.0
C194 C 0.48038 0.46022 0.1511 0.0
C195 C 0.55162 0.45466 0.14788 0.0
C196 C 0.59066 0.67739 1.02658 0.0
C197 C 0.53532 0.56983 0.09168 0.0
C198 C 0.57743 0.72388 0.99243 0.0
C199 C 0.50445 0.7264 0.99241 0.0
C200 C 0.5302 0.63242 1.06108 0.0
C201 C 0.45155 0.69051 1.03163 0.0
C202 C 0.47198 0.51766 0.12308 0.0
C203 C 0.61166 0.5057 0.1147 0.0
N204 N 0.46393 0.6429 1.06354 0.0
N205 N 0.60225 0.56082 0.08819 0.0
H206 H 0.68653 0.27643 0.53301 0.0
H207 H 0.15735 0.47785 0.60797 0.0
H208 H 0.86003 0.22815 0.46257 0.0
H209 H -0.0078 0.53891 0.67865 0.0
H210 H 0.04545 0.37984 0.55787 0.0
H211 H 0.78955 0.35697 0.59391 0.0
C212 C 0.74477 0.27885 0.53188 0.0
C213 C 0.76445 0.24578 0.49237 0.0
C214 C 0.03328 0.41499 0.58389 0.0
C215 C 0.88437 0.34042 0.56089 0.0
C216 C 0.09764 0.47204 0.61208 0.0
C217 C 0.08466 0.51795 0.647 0.0
C218 C 0.95414 0.40239 0.5906 0.0
C219 C 0.00546 0.50639 0.65137 0.0
C220 C 0.80448 0.32673 0.56599 0.0
C221 C 0.8416 0.2518 0.49254 0.0
N222 N 0.94308 0.44947 0.62369 0.0
N223 N 0.89911 0.29982 0.52535 0.0
H224 H 0.71096 0.02753 0.24422 0.0
H225 H 0.58387 0.61097 0.38337 0.0
H226 H 0.58354 0.96231 0.38014 0.0
H227 H 0.70861 0.67493 0.24658 0.0
H228 H 0.58367 0.73972 0.38291 0.0
H229 H 0.71105 0.89875 0.24468 0.0
C230 C 0.68308 -0.01367 0.27423 0.0
C231 C 0.64727 0.00604 0.31226 0.0
C232 C 0.61105 0.72553 0.353 0.0
C233 C 0.6472 0.85826 0.31289 0.0
C234 C 0.61112 0.65189 0.35317 0.0
C235 C 0.6463 0.6319 0.31492 0.0
C236 C 0.6463 0.77963 0.3143 0.0
C237 C 0.68104 0.68773 0.27695 0.0
C238 C 0.68312 0.91267 0.27441 0.0
C239 C 0.61183 0.94986 0.35001 0.0
N240 N 0.68009 0.75902 0.27761 0.0
N241 N 0.61277 0.87857 0.34937 0.0
H242 H 0.95669 0.59096 0.88344 0.0
H243 H 0.66375 0.71173 0.74283 0.0
H244 H 0.0159 0.71305 0.74585 0.0
H245 H 0.60668 0.59398 0.88171 0.0
H246 H 0.79261 0.71177 0.74309 0.0
H247 H 0.82771 0.59065 0.88308 0.0
C248 C 0.94273 0.6177 0.8531 0.0
C249 C -0.00252 0.65218 0.81461 0.0
C250 C 0.75191 0.68599 0.77352 0.0
C251 C 0.84958 0.65187 0.81407 0.0
C252 C 0.67825 0.68603 0.77346 0.0
C253 C 0.62416 0.65285 0.81235 0.0
C254 C 0.77179 0.65266 0.81275 0.0
C255 C 0.64623 0.61995 0.85085 0.0
C256 C 0.86895 0.61751 0.85298 0.0
C257 C 0.97585 0.68601 0.7764 0.0
N258 N 0.71842 0.62078 0.85007 0.0
N259 N 0.90354 0.68494 0.77711 0.0
H260 H 0.29302 0.02861 0.24313 0.0
H261 H 0.00193 0.61354 0.38319 0.0
H262 H 0.35195 0.96652 0.38103 0.0
H263 H 0.94108 0.67763 0.24651 0.0
H264 H 0.13092 0.74221 0.38269 0.0
H265 H 0.16417 0.89977 0.24354 0.0
C266 C 0.27893 -0.01191 0.27358 0.0
C267 C 0.33356 0.00862 0.31214 0.0
C268 C 0.08931 0.7281 0.35282 0.0
C269 C 0.18595 0.86078 0.31271 0.0
C270 C 0.01553 0.65451 0.35303 0.0
C271 C 0.9603 0.63458 0.31484 0.0
C272 C 0.10819 0.78217 0.31412 0.0
C273 C -0.01852 0.69037 0.27684 0.0
C274 C 0.20529 0.91438 0.27372 0.0
C275 C 0.31201 0.95326 0.3504 0.0
N276 N 0.05378 0.76159 0.27745 0.0
N277 N 0.23983 0.88191 0.34972 0.0
H278 H 0.37457 0.35832 0.88309 0.0
H279 H 0.24981 0.94293 0.7432 0.0
H280 H 0.24911 0.29405 0.74657 0.0
H281 H 0.3719 0.00552 0.88077 0.0
H282 H 0.24986 0.0718 0.74361 0.0
H283 H 0.37493 0.22967 0.88254 0.0
C284 C 0.34709 0.31731 0.85296 0.0
C285 C 0.31164 0.33719 0.81483 0.0
C286 C 0.27658 0.05728 0.77371 0.0
C287 C 0.31199 0.18962 0.81405 0.0
C288 C 0.27649 0.98356 0.77357 0.0
C289 C 0.31085 0.96315 0.81205 0.0
C290 C 0.31114 0.11102 0.81262 0.0
C291 C 0.34497 0.01866 0.85022 0.0
C292 C 0.34732 0.24374 0.85272 0.0
C293 C 0.2769 0.28135 0.77686 0.0
N294 N 0.34416 0.09001 0.84954 0.0
N295 N 0.27801 0.21015 0.77744 0.0
H296 H 0.35159 0.38085 0.38344 0.0
H297 H 0.9378 0.25975 0.24279 0.0
H298 H 0.2889 0.25891 0.24581 0.0
H299 H -0.00118 0.37829 0.38144 0.0
H300 H 0.06667 0.25979 0.24307 0.0
H301 H 0.22297 0.38125 0.383 0.0
C302 C 0.31093 0.35416 0.35308 0.0
C303 C 0.33124 0.31968 0.3146 0.0
C304 C 0.05181 0.28574 0.27344 0.0
C305 C 0.1837 0.32008 0.31397 0.0
C306 C 0.97809 0.28564 0.27338 0.0
C307 C 0.95724 0.319 0.3122 0.0
C308 C 0.10511 0.31928 0.31261 0.0
C309 C 0.01232 0.35215 0.35063 0.0
C310 C 0.23737 0.3544 0.35291 0.0
C311 C 0.27585 0.28592 0.27635 0.0
N312 N 0.0837 0.35136 0.34987 0.0
N313 N 0.20463 0.28703 0.27702 0.0
H314 H 0.95883 0.36072 0.88337 0.0
H315 H 0.669 0.94447 0.74403 0.0
H316 H 0.01938 0.29696 0.74644 0.0
H317 H 0.6073 0.00923 0.88027 0.0
H318 H 0.79784 0.07329 0.74446 0.0
H319 H 0.82987 0.23199 0.88291 0.0
C320 C 0.9451 0.31986 0.85313 0.0
C321 C 0.00021 0.3399 0.81485 0.0
C322 C 0.75611 0.05926 0.77426 0.0
C323 C 0.85247 0.19218 0.81423 0.0
C324 C 0.68243 0.98557 0.77411 0.0
C325 C 0.62706 0.96572 0.81223 0.0
C326 C 0.77473 0.11354 0.81283 0.0
C327 C 0.64792 0.02179 0.85006 0.0
C328 C 0.87138 0.24622 0.85296 0.0
C329 C -0.02095 0.28412 0.77684 0.0
N330 N 0.72013 0.09311 0.8494 0.0
N331 N 0.90681 0.21284 0.7775 0.0
loop_
_geom_bond_atom_site_label_1
_geom_bond_atom_site_label_2
_geom_bond_distance
_geom_bond_site_symmetry_2
_ccdc_geom_bond_type
H0 O1 0.850 . S
O1 H0 0.850 . S
O1 Tb2 2.341 . S
O1 Tb3 2.341 . S
O1 Tb4 2.341 . S
Tb2 O1 2.341 . S
Tb2 O5 2.341 . S
Tb2 O6 2.341 . S
Tb2 O7 2.341 . S
Tb2 O22 2.344 . S
Tb2 O25 2.344 . S
Tb2 O38 2.344 . S
Tb2 O41 2.344 . S
Tb3 O1 2.341 . S
Tb3 O5 2.341 . S
Tb3 O8 2.341 . S
Tb3 O10 2.341 . S
Tb3 O26 2.344 . S
Tb3 O29 2.344 . S
Tb3 O34 2.344 . S
Tb3 O37 2.344 . S
Tb4 O1 2.341 . S
Tb4 O6 2.341 . S
Tb4 O9 2.341 . S
Tb4 O10 2.341 . S
Tb4 O30 2.344 . S
Tb4 O33 2.344 . S
Tb4 O43 2.344 . S
Tb4 O44 2.344 . S
O5 Tb2 2.341 . S
O5 Tb3 2.341 . S
O5 H11 0.850 . S
O5 Tb13 2.341 . S
O6 Tb2 2.341 . S
O6 Tb4 2.341 . S
O6 H12 0.850 . S
O6 Tb14 2.341 . S
O7 Tb2 2.341 . S
O7 Tb13 2.341 . S
O7 Tb14 2.341 . S
O7 H15 0.850 . S
O8 Tb3 2.341 . S
O8 Tb13 2.341 . S
O8 H16 0.850 . S
O8 Tb17 2.341 . S
O9 Tb4 2.341 . S
O9 Tb14 2.341 . S
O9 Tb17 2.341 . S
O9 H18 0.850 . S
O10 Tb3 2.341 . S
O10 Tb4 2.341 . S
O10 Tb17 2.341 . S
O10 H19 0.850 . S
H11 O5 0.850 . S
H12 O6 0.850 . S
Tb13 O5 2.341 . S
Tb13 O7 2.341 . S
Tb13 O8 2.341 . S
Tb13 O20 2.341 . S
Tb13 O31 2.344 . S
Tb13 O32 2.344 . S
Tb13 O42 2.344 . S
Tb13 O45 2.344 . S
Tb14 O6 2.341 . S
Tb14 O7 2.341 . S
Tb14 O9 2.341 . S
Tb14 O20 2.341 . S
Tb14 O27 2.344 . S
Tb14 O28 2.344 . S
Tb14 O35 2.344 . S
Tb14 O36 2.344 . S
H15 O7 0.850 . S
H16 O8 0.850 . S
Tb17 O8 2.341 . S
Tb17 O9 2.341 . S
Tb17 O10 2.341 . S
Tb17 O20 2.341 . S
Tb17 O23 2.344 . S
Tb17 O24 2.344 . S
Tb17 O39 2.344 . S
Tb17 O40 2.344 . S
H18 O9 0.850 . S
H19 O10 0.850 . S
O20 Tb13 2.341 . S
O20 Tb14 2.341 . S
O20 Tb17 2.341 . S
O20 H21 0.850 . S
H21 O20 0.850 . S
O22 Tb2 2.344 . S
O22 C46 1.272 . S
O23 Tb17 2.344 . S
O23 C47 1.272 . S
O24 Tb17 2.344 . S
O24 C48 1.272 . S
O25 Tb2 2.344 . S
O25 C49 1.272 . S
O26 Tb3 2.344 . S
O26 C50 1.272 . S
O27 Tb14 2.344 . S
O27 C51 1.272 . S
O28 Tb14 2.344 . S
O28 C52 1.272 . S
O29 Tb3 2.344 . S
O29 C53 1.272 . S
O30 Tb4 2.344 . S
O30 C54 1.272 . S
O31 Tb13 2.344 . S
O31 C55 1.272 . S
O32 Tb13 2.344 . S
O32 C56 1.272 . S
O33 Tb4 2.344 . S
O33 C57 1.272 . S
O34 Tb3 2.344 . S
O34 C46 1.272 . S
O35 Tb14 2.344 . S
O35 C47 1.272 . S
O36 Tb14 2.344 . S
O36 C49 1.272 . S
O37 Tb3 2.344 . S
O37 C48 1.272 . S
O38 Tb2 2.344 . S
O38 C56 1.272 . S
O39 Tb17 2.344 . S
O39 C57 1.272 . S
O40 Tb17 2.344 . S
O40 C55 1.272 . S
O41 Tb2 2.344 . S
O41 C54 1.272 . S
O42 Tb13 2.344 . S
O42 C53 1.272 . S
O43 Tb4 2.344 . S
O43 C52 1.272 . S
O44 Tb4 2.344 . S
O44 C50 1.272 . S
O45 Tb13 2.344 . S
O45 C51 1.272 . S
C46 O22 1.272 . S
C46 O34 1.272 . S
C47 O23 1.272 . S
C47 O35 1.272 . S
C48 O24 1.272 . S
C48 O37 1.272 . S
C49 O25 1.272 . S
C49 O36 1.272 . S
C50 O26 1.272 . S
C50 O44 1.272 . S
C51 O27 1.272 . S
C51 O45 1.272 . S
C52 O28 1.272 . S
C52 O43 1.272 . S
C53 O29 1.272 . S
C53 O42 1.272 . S
C54 O30 1.272 . S
C54 O41 1.272 . S
C55 O31 1.272 . S
C55 O40 1.272 . S
C56 O32 1.272 . S
C56 O38 1.272 . S
C57 O33 1.272 . S
C57 O39 1.272 . S
H58 O59 0.850 . S
O59 H58 0.850 . S
O59 Tb60 2.341 . S
O59 Tb61 2.341 . S
O59 Tb62 2.341 . S
Tb60 O59 2.341 . S
Tb60 O63 2.341 . S
Tb60 O64 2.341 . S
Tb60 O65 2.341 . S
Tb60 O80 2.344 . S
Tb60 O83 2.344 . S
Tb60 O96 2.344 . S
Tb60 O99 2.344 . S
Tb61 O59 2.341 . S
Tb61 O63 2.341 . S
Tb61 O66 2.341 . S
Tb61 O68 2.341 . S
Tb61 O84 2.344 . S
Tb61 O87 2.344 . S
Tb61 O92 2.344 . S
Tb61 O95 2.344 . S
Tb62 O59 2.341 . S
Tb62 O64 2.341 . S
Tb62 O67 2.341 . S
Tb62 O68 2.341 . S
Tb62 O88 2.344 . S
Tb62 O91 2.344 . S
Tb62 O101 2.344 . S
Tb62 O102 2.344 . S
O63 Tb60 2.341 . S
O63 Tb61 2.341 . S
O63 H69 0.850 . S
O63 Tb71 2.341 . S
O64 Tb60 2.341 . S
O64 Tb62 2.341 . S
O64 H70 0.850 . S
O64 Tb72 2.341 . S
O65 Tb60 2.341 . S
O65 Tb71 2.341 . S
O65 Tb72 2.341 . S
O65 H73 0.850 . S
O66 Tb61 2.341 . S
O66 Tb71 2.341 . S
O66 H74 0.850 . S
O66 Tb75 2.341 . S
O67 Tb62 2.341 . S
O67 Tb72 2.341 . S
O67 Tb75 2.341 . S
O67 H76 0.850 . S
O68 Tb61 2.341 . S
O68 Tb62 2.341 . S
O68 Tb75 2.341 . S
O68 H77 0.850 . S
H69 O63 0.850 . S
H70 O64 0.850 . S
Tb71 O63 2.341 . S
Tb71 O65 2.341 . S
Tb71 O66 2.341 . S
Tb71 O78 2.341 . S
Tb71 O89 2.344 . S
Tb71 O90 2.344 . S
Tb71 O100 2.344 . S
Tb71 O103 2.344 . S
Tb72 O64 2.341 . S
Tb72 O65 2.341 . S
Tb72 O67 2.341 . S
Tb72 O78 2.341 . S
Tb72 O85 2.344 . S
Tb72 O86 2.344 . S
Tb72 O93 2.344 . S
Tb72 O94 2.344 . S
H73 O65 0.850 . S
H74 O66 0.850 . S
Tb75 O66 2.341 . S
Tb75 O67 2.341 . S
Tb75 O68 2.341 . S
Tb75 O78 2.341 . S
Tb75 O81 2.344 . S
Tb75 O82 2.344 . S
Tb75 O97 2.344 . S
Tb75 O98 2.344 . S
H76 O67 0.850 . S
H77 O68 0.850 . S
O78 Tb71 2.341 . S
O78 Tb72 2.341 . S
O78 Tb75 2.341 . S
O78 H79 0.850 . S
H79 O78 0.850 . S
O80 Tb60 2.344 . S
O80 C104 1.272 . S
O81 Tb75 2.344 . S
O81 C105 1.272 . S
O82 Tb75 2.344 . S
O82 C106 1.272 . S
O83 Tb60 2.344 . S
O83 C107 1.272 . S
O84 Tb61 2.344 . S
O84 C108 1.272 . S
O85 Tb72 2.344 . S
O85 C109 1.272 . S
O86 Tb72 2.344 . S
O86 C110 1.272 . S
O87 Tb61 2.344 . S
O87 C111 1.272 . S
O88 Tb62 2.344 . S
O88 C112 1.272 . S
O89 Tb71 2.344 . S
O89 C113 1.272 . S
O90 Tb71 2.344 . S
O90 C114 1.272 . S
O91 Tb62 2.344 . S
O91 C115 1.272 . S
O92 Tb61 2.344 . S
O92 C104 1.272 . S
O93 Tb72 2.344 . S
O93 C105 1.272 . S
O94 Tb72 2.344 . S
O94 C107 1.272 . S
O95 Tb61 2.344 . S
O95 C106 1.272 . S
O96 Tb60 2.344 . S
O96 C114 1.272 . S
O97 Tb75 2.344 . S
O97 C115 1.272 . S
O98 Tb75 2.344 . S
O98 C113 1.272 . S
O99 Tb60 2.344 . S
O99 C112 1.272 . S
O100 Tb71 2.344 . S
O100 C111 1.272 . S
O101 Tb62 2.344 . S
O101 C110 1.272 . S
O102 Tb62 2.344 . S
O102 C108 1.272 . S
O103 Tb71 2.344 . S
O103 C109 1.272 . S
C104 O80 1.272 . S
C104 O92 1.272 . S
C105 O81 1.272 . S
C105 O93 1.272 . S
C106 O82 1.272 . S
C106 O95 1.272 . S
C107 O83 1.272 . S
C107 O94 1.272 . S
C108 O84 1.272 . S
C108 O102 1.272 . S
C109 O85 1.272 . S
C109 O103 1.272 . S
C110 O86 1.272 . S
C110 O101 1.272 . S
C111 O87 1.272 . S
C111 O100 1.272 . S
C112 O88 1.272 . S
C112 O99 1.272 . S
C113 O89 1.272 . S
C113 O98 1.272 . S
C114 O90 1.272 . S
C114 O96 1.272 . S
C115 O91 1.272 . S
C115 O97 1.272 . S
H116 C122 0.930 . S
H117 C126 0.930 . S
H118 C131 0.929 . S
H119 C129 0.929 1_565 S
H120 C124 0.929 1_556 S
H121 C130 0.929 1_554 S
C122 H116 0.930 . S
C122 C123 1.367 . S
C122 C130 1.378 . S
C123 C122 1.367 . S
C123 C131 1.433 . S
C124 H120 0.929 1_554 S
C124 C126 1.378 . S
C124 C128 1.350 1_545 S
C125 C128 1.463 1_556 S
C125 C130 1.350 . S
C125 N133 1.427 . S
C126 H117 0.930 . S
C126 C124 1.378 . S
C126 C127 1.367 . S
C127 C126 1.367 . S
C127 C129 1.433 . S
C128 C124 1.350 1_565 S
C128 C125 1.463 1_554 S
C128 N132 1.427 . S
C129 H119 0.929 1_545 S
C129 C127 1.433 . S
C129 N132 1.384 1_545 S
C130 H121 0.929 1_556 S
C130 C122 1.378 . S
C130 C125 1.350 . S
C131 H118 0.929 . S
C131 C123 1.433 . S
C131 N133 1.384 . S
N132 C128 1.427 . S
N132 C129 1.384 1_565 S
N133 C125 1.427 . S
N133 C131 1.384 . S
H134 C140 0.930 . S
H135 C144 0.930 . S
H136 C149 0.929 . S
H137 C147 0.929 . S
H138 C142 0.929 . S
H139 C148 0.929 . S
C140 H134 0.930 . S
C140 C141 1.367 . S
C140 C148 1.378 . S
C141 C140 1.367 . S
C141 C149 1.433 . S
C142 H138 0.929 . S
C142 C144 1.378 . S
C142 C146 1.350 . S
C143 C146 1.463 . S
C143 C148 1.350 . S
C143 N151 1.427 . S
C144 H135 0.930 . S
C144 C142 1.378 . S
C144 C145 1.367 . S
C145 C144 1.367 . S
C145 C147 1.433 . S
C146 C142 1.350 . S
C146 C143 1.463 . S
C146 N150 1.427 . S
C147 H137 0.929 . S
C147 C145 1.433 . S
C147 N150 1.384 . S
C148 H139 0.929 . S
C148 C140 1.378 . S
C148 C143 1.350 . S
C149 H136 0.929 . S
C149 C141 1.433 . S
C149 N151 1.384 . S
N150 C146 1.427 . S
N150 C147 1.384 . S
N151 C143 1.427 . S
N151 C149 1.384 . S
H152 C158 0.930 . S
H153 C162 0.930 . S
H154 C167 0.929 . S
H155 C165 0.929 . S
H156 C160 0.929 . S
H157 C166 0.928 1_455 S
C158 H152 0.930 . S
C158 C159 1.367 . S
C158 C166 1.382 . S
C159 C158 1.367 . S
C159 C167 1.433 . S
C160 H156 0.929 . S
C160 C162 1.378 . S
C160 C164 1.350 . S
C161 C164 1.463 1_554 S
C161 C166 1.346 1_455 S
C161 N169 1.427 1_455 S
C162 H153 0.930 . S
C162 C160 1.378 . S
C162 C163 1.367 . S
C163 C162 1.367 . S
C163 C165 1.433 . S
C164 C160 1.350 . S
C164 C161 1.463 1_556 S
C164 N168 1.427 . S
C165 H155 0.929 . S
C165 C163 1.433 . S
C165 N168 1.384 . S
C166 H157 0.928 1_655 S
C166 C158 1.382 . S
C166 C161 1.346 1_655 S
C167 H154 0.929 . S
C167 C159 1.433 . S
C167 N169 1.384 . S
N168 C164 1.427 . S
N168 C165 1.384 . S
N169 C161 1.427 1_655 S
N169 C167 1.384 . S
H170 C176 0.930 1_545 S
H171 C180 0.930 . S
H172 C185 0.929 . S
H173 C183 0.929 . S
H174 C178 0.929 1_565 S
H175 C184 0.929 . S
C176 H170 0.930 1_565 S
C176 C177 1.367 . S
C176 C184 1.378 1_565 S
C177 C176 1.367 . S
C177 C185 1.433 . S
C178 H174 0.929 1_545 S
C178 C180 1.378 . S
C178 C182 1.350 . S
C179 C182 1.463 . S
C179 C184 1.350 . S
C179 N187 1.427 1_545 S
C180 H171 0.930 . S
C180 C178 1.378 . S
C180 C181 1.367 . S
C181 C180 1.367 . S
C181 C183 1.433 . S
C182 C178 1.350 . S
C182 C179 1.463 . S
C182 N186 1.427 . S
C183 H173 0.929 . S
C183 C181 1.433 . S
C183 N186 1.384 . S
C184 H175 0.929 . S
C184 C176 1.378 1_545 S
C184 C179 1.350 . S
C185 H172 0.929 . S
C185 C177 1.433 . S
C185 N187 1.384 . S
N186 C182 1.427 . S
N186 C183 1.384 . S
N187 C179 1.427 1_565 S
N187 C185 1.384 . S
H188 C194 0.930 . S
H189 C198 0.930 . S
H190 C203 0.929 . S
H191 C201 0.929 . S
H192 C196 0.929 . S
H193 C202 0.929 . S
C194 H188 0.930 . S
C194 C195 1.367 . S
C194 C202 1.378 . S
C195 C194 1.367 . S
C195 C203 1.433 . S
C196 H192 0.929 . S
C196 C198 1.378 . S
C196 C200 1.350 . S
C197 C200 1.463 1_554 S
C197 C202 1.350 . S
C197 N205 1.427 . S
C198 H189 0.930 . S
C198 C196 1.378 . S
C198 C199 1.367 . S
C199 C198 1.367 . S
C199 C201 1.433 . S
C200 C196 1.350 . S
C200 C197 1.463 1_556 S
C200 N204 1.427 . S
C201 H191 0.929 . S
C201 C199 1.433 . S
C201 N204 1.384 . S
C202 H193 0.929 . S
C202 C194 1.378 . S
C202 C197 1.350 . S
C203 H190 0.929 . S
C203 C195 1.433 . S
C203 N205 1.384 . S
N204 C200 1.427 . S
N204 C201 1.384 . S
N205 C197 1.427 . S
N205 C203 1.384 . S
H206 C212 0.930 . S
H207 C216 0.930 . S
H208 C221 0.929 . S
H209 C219 0.929 . S
H210 C214 0.929 . S
H211 C220 0.929 . S
C212 H206 0.930 . S
C212 C213 1.367 . S
C212 C220 1.378 . S
C213 C212 1.367 . S
C213 C221 1.433 . S
C214 H210 0.929 . S
C214 C216 1.378 1_655 S
C214 C218 1.350 . S
C215 C218 1.463 . S
C215 C220 1.350 . S
C215 N223 1.427 . S
C216 H207 0.930 . S
C216 C214 1.378 1_455 S
C216 C217 1.367 . S
C217 C216 1.367 . S
C217 C219 1.433 . S
C218 C214 1.350 . S
C218 C215 1.463 . S
C218 N222 1.427 1_655 S
C219 H209 0.929 . S
C219 C217 1.433 . S
C219 N222 1.384 . S
C220 H211 0.929 . S
C220 C212 1.378 . S
C220 C215 1.350 . S
C221 H208 0.929 . S
C221 C213 1.433 . S
C221 N223 1.384 . S
N222 C218 1.427 1_455 S
N222 C219 1.384 . S
N223 C215 1.427 . S
N223 C221 1.384 . S
H224 C230 0.930 1_545 S
H225 C234 0.930 . S
H226 C239 0.929 . S
H227 C237 0.929 . S
H228 C232 0.929 . S
H229 C238 0.929 . S
C230 H224 0.930 1_565 S
C230 C231 1.367 1_565 S
C230 C238 1.378 . S
C231 C230 1.367 1_545 S
C231 C239 1.433 . S
C232 H228 0.929 . S
C232 C234 1.378 . S
C232 C236 1.350 . S
C233 C236 1.463 . S
C233 C238 1.350 . S
C233 N241 1.427 . S
C234 H225 0.930 . S
C234 C232 1.378 . S
C234 C235 1.367 . S
C235 C234 1.367 . S
C235 C237 1.433 . S
C236 C232 1.350 . S
C236 C233 1.463 . S
C236 N240 1.427 . S
C237 H227 0.929 . S
C237 C235 1.433 . S
C237 N240 1.384 . S
C238 H229 0.929 . S
C238 C230 1.378 . S
C238 C233 1.350 . S
C239 H226 0.929 . S
C239 C231 1.433 . S
C239 N241 1.384 1_545 S
N240 C236 1.427 . S
N240 C237 1.384 . S
N241 C233 1.427 . S
N241 C239 1.384 1_565 S
H242 C248 0.930 . S
H243 C252 0.930 . S
H244 C257 0.929 1_455 S
H245 C255 0.929 . S
H246 C250 0.929 . S
H247 C256 0.929 . S
C248 H242 0.930 . S
C248 C249 1.367 . S
C248 C256 1.378 1_455 S
C249 C248 1.367 . S
C249 C257 1.433 1_455 S
C250 H246 0.929 . S
C250 C252 1.378 . S
C250 C254 1.350 . S
C251 C254 1.463 . S
C251 C256 1.350 . S
C251 N259 1.427 . S
C252 H243 0.930 . S
C252 C250 1.378 . S
C252 C253 1.367 . S
C253 C252 1.367 . S
C253 C255 1.433 . S
C254 C250 1.350 . S
C254 C251 1.463 . S
C254 N258 1.427 . S
C255 H245 0.929 . S
C255 C253 1.433 . S
C255 N258 1.384 . S
C256 H247 0.929 . S
C256 C248 1.378 1_655 S
C256 C251 1.350 . S
C257 H244 0.929 1_655 S
C257 C249 1.433 1_655 S
C257 N259 1.384 . S
N258 C254 1.427 . S
N258 C255 1.384 . S
N259 C251 1.427 . S
N259 C257 1.384 . S
H260 C266 0.930 . S
H261 C270 0.930 . S
H262 C275 0.929 1_545 S
H263 C273 0.929 1_655 S
H264 C268 0.929 . S
H265 C274 0.929 . S
C266 H260 0.930 . S
C266 C267 1.360 1_565 S
C266 C274 1.378 . S
C267 C266 1.360 1_545 S
C267 C275 1.436 1_545 S
C268 H264 0.929 . S
C268 C270 1.378 1_455 S
C268 C272 1.350 . S
C269 C272 1.463 . S
C269 C274 1.350 . S
C269 N277 1.427 . S
C270 H261 0.930 . S
C270 C268 1.378 1_655 S
C270 C271 1.367 . S
C271 C270 1.367 . S
C271 C273 1.433 1_655 S
C272 C268 1.350 . S
C272 C269 1.463 . S
C272 N276 1.427 . S
C273 H263 0.929 1_455 S
C273 C271 1.433 1_455 S
C273 N276 1.384 . S
C274 H265 0.929 . S
C274 C266 1.378 . S
C274 C269 1.350 . S
C275 H262 0.929 1_565 S
C275 C267 1.436 1_565 S
C275 N277 1.384 . S
N276 C272 1.427 . S
N276 C273 1.384 . S
N277 C269 1.427 . S
N277 C275 1.384 . S
H278 C284 0.930 . S
H279 C288 0.930 . S
H280 C293 0.929 . S
H281 C291 0.929 . S
H282 C286 0.929 . S
H283 C292 0.929 . S
C284 H278 0.930 . S
C284 C285 1.367 . S
C284 C292 1.378 . S
C285 C284 1.367 . S
C285 C293 1.433 . S
C286 H282 0.929 . S
C286 C288 1.378 1_545 S
C286 C290 1.350 . S
C287 C290 1.463 . S
C287 C292 1.350 . S
C287 N295 1.427 . S
C288 H279 0.930 . S
C288 C286 1.378 1_565 S
C288 C289 1.367 . S
C289 C288 1.367 . S
C289 C291 1.433 1_565 S
C290 C286 1.350 . S
C290 C287 1.463 . S
C290 N294 1.427 . S
C291 H281 0.929 . S
C291 C289 1.433 1_545 S
C291 N294 1.384 . S
C292 H283 0.929 . S
C292 C284 1.378 . S
C292 C287 1.350 . S
C293 H280 0.929 . S
C293 C285 1.433 . S
C293 N295 1.384 . S
N294 C290 1.427 . S
N294 C291 1.384 . S
N295 C287 1.427 . S
N295 C293 1.384 . S
H296 C302 0.930 . S
H297 C306 0.930 1_655 S
H298 C311 0.929 . S
H299 C309 0.929 . S
H300 C304 0.929 . S
H301 C310 0.929 . S
C302 H296 0.930 . S
C302 C303 1.367 . S
C302 C310 1.378 . S
C303 C302 1.367 . S
C303 C311 1.433 . S
C304 H300 0.929 . S
C304 C306 1.378 . S
C304 C308 1.350 . S
C305 C308 1.463 . S
C305 C310 1.350 . S
C305 N313 1.427 . S
C306 H297 0.930 1_455 S
C306 C304 1.378 . S
C306 C307 1.367 1_455 S
C307 C306 1.367 1_655 S
C307 C309 1.433 1_655 S
C308 C304 1.350 . S
C308 C305 1.463 . S
C308 N312 1.427 . S
C309 H299 0.929 . S
C309 C307 1.433 1_455 S
C309 N312 1.384 . S
C310 H301 0.929 . S
C310 C302 1.378 . S
C310 C305 1.350 . S
C311 H298 0.929 . S
C311 C303 1.433 . S
C311 N313 1.384 . S
N312 C308 1.427 . S
N312 C309 1.384 . S
N313 C305 1.427 . S
N313 C311 1.384 . S
H314 C320 0.930 . S
H315 C324 0.930 . S
H316 C329 0.929 . S
H317 C327 0.929 . S
H318 C322 0.929 . S
H319 C328 0.929 . S
C320 H314 0.930 . S
C320 C321 1.362 1_655 S
C320 C328 1.378 . S
C321 C320 1.362 1_455 S
C321 C329 1.436 . S
C322 H318 0.929 . S
C322 C324 1.378 1_545 S
C322 C326 1.350 . S
C323 C326 1.463 . S
C323 C328 1.350 . S
C323 N331 1.427 . S
C324 H315 0.930 . S
C324 C322 1.378 1_565 S
C324 C325 1.367 . S
C325 C324 1.367 . S
C325 C327 1.433 1_565 S
C326 C322 1.350 . S
C326 C323 1.463 . S
C326 N330 1.427 . S
C327 H317 0.929 . S
C327 C325 1.433 1_545 S
C327 N330 1.384 . S
C328 H319 0.929 . S
C328 C320 1.378 . S
C328 C323 1.350 . S
C329 H316 0.929 . S
C329 C321 1.436 . S
C329 N331 1.384 1_455 S
N330 C326 1.427 . S
N330 C327 1.384 . S
N331 C323 1.427 . S
N331 C329 1.384 1_655 S
C123 C107 1.819 . S
C127 C54 1.948 . S
C141 C106 1.951 . S
C145 C55 1.824 . S
C159 C52 1.953 . S
C163 C114 1.828 . S
C177 C115 1.951 . S
C181 C53 1.823 . S
C195 C49 1.953 . S
C199 C109 1.828 . S
C213 C48 1.812 . S
C217 C108 1.945 . S
C231 C50 1.124 . S
C235 C51 1.124 . S
C249 C112 1.127 . S
C253 C113 1.127 . S
C267 C46 1.134 . S
C271 C47 1.128 . S
C285 C111 1.122 . S
C289 C110 1.122 . S
C303 C56 1.124 . S
C307 C57 1.124 . S
C321 C104 1.132 . S
C325 C105 1.129 . S
