# Generated by pormake.
# Topology uku, (4)-cn, num edge types: 1
# Building blocks:
#     Node 0, Type 0, BuildingBlock: ESEHIV_clean_sbu_0, # of connection points: 4
#     Node 1, Type 0, BuildingBlock: ESEHIV_clean_sbu_0, # of connection points: 4
#     Node 2, Type 0, BuildingBlock: ESEHIV_clean_sbu_0, # of connection points: 4
#     Node 3, Type 0, BuildingBlock: ESEHIV_clean_sbu_0, # of connection points: 4
#     Node 4, Type 0, BuildingBlock: ESEHIV_clean_sbu_0, # of connection points: 4
#     Node 5, Type 0, BuildingBlock: ESEHIV_clean_sbu_0, # of connection points: 4
#     Node 6, Type 0, BuildingBlock: ESEHIV_clean_sbu_0, # of connection points: 4
#     Node 7, Type 0, BuildingBlock: ESEHIV_clean_sbu_0, # of connection points: 4
#     Node 8, Type 0, BuildingBlock: ESEHIV_clean_sbu_0, # of connection points: 4
#     Node 9, Type 0, BuildingBlock: ESEHIV_clean_sbu_0, # of connection points: 4
#     Node 10, Type 0, BuildingBlock: ESEHIV_clean_sbu_0, # of connection points: 4
#     Node 11, Type 0, BuildingBlock: ESEHIV_clean_sbu_0, # of connection points: 4
#     Edge 12, Type (0, 0), BuildingBlock: XUDNAN_clean_linker_2, # of connection points: 2
#     Edge 13, Type (0, 0), BuildingBlock: XUDNAN_clean_linker_2, # of connection points: 2
#     Edge 14, Type (0, 0), BuildingBlock: XUDNAN_clean_linker_2, # of connection points: 2
#     Edge 15, Type (0, 0), BuildingBlock: XUDNAN_clean_linker_2, # of connection points: 2
#     Edge 16, Type (0, 0), BuildingBlock: XUDNAN_clean_linker_2, # of connection points: 2
#     Edge 17, Type (0, 0), BuildingBlock: XUDNAN_clean_linker_2, # of connection points: 2
#     Edge 18, Type (0, 0), BuildingBlock: XUDNAN_clean_linker_2, # of connection points: 2
#     Edge 19, Type (0, 0), BuildingBlock: XUDNAN_clean_linker_2, # of connection points: 2
#     Edge 20, Type (0, 0), BuildingBlock: XUDNAN_clean_linker_2, # of connection points: 2
#     Edge 21, Type (0, 0), BuildingBlock: XUDNAN_clean_linker_2, # of connection points: 2
#     Edge 22, Type (0, 0), BuildingBlock: XUDNAN_clean_linker_2, # of connection points: 2
#     Edge 23, Type (0, 0), BuildingBlock: XUDNAN_clean_linker_2, # of connection points: 2
#     Edge 24, Type (0, 0), BuildingBlock: XUDNAN_clean_linker_2, # of connection points: 2
#     Edge 25, Type (0, 0), BuildingBlock: XUDNAN_clean_linker_2, # of connection points: 2
#     Edge 26, Type (0, 0), BuildingBlock: XUDNAN_clean_linker_2, # of connection points: 2
#     Edge 27, Type (0, 0), BuildingBlock: XUDNAN_clean_linker_2, # of connection points: 2
#     Edge 28, Type (0, 0), BuildingBlock: XUDNAN_clean_linker_2, # of connection points: 2
#     Edge 29, Type (0, 0), BuildingBlock: XUDNAN_clean_linker_2, # of connection points: 2
#     Edge 30, Type (0, 0), BuildingBlock: XUDNAN_clean_linker_2, # of connection points: 2
#     Edge 31, Type (0, 0), BuildingBlock: XUDNAN_clean_linker_2, # of connection points: 2
#     Edge 32, Type (0, 0), BuildingBlock: XUDNAN_clean_linker_2, # of connection points: 2
#     Edge 33, Type (0, 0), BuildingBlock: XUDNAN_clean_linker_2, # of connection points: 2
#     Edge 34, Type (0, 0), BuildingBlock: XUDNAN_clean_linker_2, # of connection points: 2
#     Edge 35, Type (0, 0), BuildingBlock: XUDNAN_clean_linker_2, # of connection points: 2
# Relax obj value: 0.123
# Max RMSD: 0.255
# Mean RMSD: 0.255
data_MOF--net-uku--node1-ESEHIV_clean_sbu_0--edge1-XUDNAN_clean_linker_2
_symmetry_space_group_name_H-M    P1
_symmetry_Int_Tables_number       1
_symmetry_cell_setting            triclinic
loop_
_symmetry_equiv_pos_as_xyz
'x, y, z'
_cell_length_a     47.681653
_cell_length_b     47.708089
_cell_length_c     47.755881
_cell_angle_alpha  90.072441
_cell_angle_beta   90.102126
_cell_angle_gamma 90.082383
loop_
_atom_site_label
_atom_site_type_symbol
_atom_site_fract_x
_atom_site_fract_y
_atom_site_fract_z
_atom_type_partial_charge
Cu0 Cu 0.09729 0.11962 0.65379 0.0
N1 N 0.13623 0.11707 0.65529 0.0
N2 N 0.17905 0.11213 0.67376 0.0
C3 C 0.1512 0.11295 0.67881 0.0
C4 C 0.18159 0.11584 0.64583 0.0
C5 C 0.15511 0.1189 0.63449 0.0
O6 O 0.08588 0.14477 0.68373 0.0
C7 C 0.05703 0.07704 0.66474 0.0
O8 O 0.03916 0.09788 0.66671 0.0
H9 H 0.14165 0.11029 0.69917 0.0
H10 H 0.14999 0.12229 0.61268 0.0
N11 N 0.08537 0.13293 0.61888 0.0
N12 N 0.06164 0.13695 0.57859 0.0
C13 C 0.065 0.12211 0.60247 0.0
C14 C 0.09534 0.15524 0.60485 0.0
C15 C 0.08073 0.15783 0.58007 0.0
C16 C 0.09776 0.16861 0.68571 0.0
O17 O 0.11619 0.17591 0.66665 0.0
H18 H 0.05271 0.10389 0.60808 0.0
H19 H 0.11227 0.16857 0.61197 0.0
O20 O 0.08266 0.08225 0.65965 0.0
H21 H 0.20114 0.11669 0.63439 0.0
H22 H 0.08427 0.17357 0.56416 0.0
Cu23 Cu 0.90297 0.87366 0.65213 0.0
N24 N 0.86728 0.88851 0.65775 0.0
N25 N 0.82871 0.90458 0.67893 0.0
C26 C 0.85513 0.89491 0.68236 0.0
C27 C 0.82424 0.90431 0.65098 0.0
C28 C 0.84805 0.89444 0.63802 0.0
O29 O 0.9072 0.84047 0.67506 0.0
C30 C 0.95669 0.89735 0.66101 0.0
O31 O 0.96563 0.87166 0.65671 0.0
H32 H 0.86553 0.89264 0.70234 0.0
H33 H 0.85102 0.89147 0.61577 0.0
N34 N 0.90619 0.8623 0.61492 0.0
N35 N 0.92103 0.85634 0.57095 0.0
C36 C 0.92528 0.86984 0.59552 0.0
C37 C 0.8895 0.84337 0.60231 0.0
C38 C 0.89852 0.83969 0.57523 0.0
C39 C 0.9092 0.8402 0.70161 0.0
O40 O 0.9101 0.864 0.71545 0.0
H41 H 0.9418 0.88496 0.59933 0.0
H42 H 0.87211 0.83281 0.61231 0.0
O43 O 0.93051 0.90224 0.66048 0.0
H44 H 0.80495 0.91014 0.64057 0.0
H45 H 0.88953 0.82536 0.56008 0.0
Cu46 Cu 0.09427 0.87976 0.34487 0.0
N47 N 0.13111 0.89209 0.34074 0.0
N48 N 0.17309 0.89852 0.32106 0.0
C49 C 0.14969 0.8826 0.32184 0.0
C50 C 0.16914 0.91877 0.34041 0.0
C51 C 0.1432 0.91471 0.35256 0.0
O52 O 0.08944 0.84466 0.32467 0.0
C53 C 0.04468 0.9052 0.32364 0.0
O54 O 0.0347 0.87954 0.32259 0.0
H55 H 0.14544 0.86532 0.30778 0.0
H56 H 0.1333 0.92798 0.36803 0.0
N57 N 0.08578 0.87399 0.38251 0.0
N58 N 0.06003 0.86881 0.42127 0.0
C59 C 0.05978 0.87332 0.39334 0.0
C60 C 0.10326 0.86987 0.40424 0.0
C61 C 0.08742 0.86669 0.42823 0.0
C62 C 0.09042 0.84276 0.2981 0.0
O63 O 0.09339 0.86566 0.28313 0.0
H64 H 0.04108 0.87643 0.38091 0.0
H65 H 0.12588 0.86914 0.40272 0.0
O66 O 0.06986 0.90918 0.33144 0.0
H67 H 0.1836 0.93569 0.34495 0.0
H68 H 0.09548 0.86266 0.44903 0.0
Cu69 Cu 0.90067 0.12395 0.34149 0.0
N70 N 0.86215 0.11764 0.34186 0.0
N71 N 0.81924 0.10603 0.32698 0.0
C72 C 0.84581 0.11227 0.31945 0.0
C73 C 0.8189 0.10765 0.3552 0.0
C74 C 0.84541 0.11486 0.36432 0.0
O75 O 0.90847 0.15284 0.31401 0.0
C76 C 0.94461 0.08426 0.33216 0.0
O77 O 0.96181 0.10486 0.33853 0.0
H78 H 0.85356 0.11183 0.29816 0.0
H79 H 0.85222 0.1172 0.38581 0.0
N80 N 0.91263 0.13665 0.37655 0.0
N81 N 0.93464 0.14015 0.41782 0.0
C82 C 0.92872 0.12344 0.39566 0.0
C83 C 0.90802 0.16239 0.38704 0.0
C84 C 0.92156 0.16464 0.41244 0.0
C85 C 0.91755 0.14779 0.2895 0.0
O86 O 0.92254 0.12178 0.282 0.0
H87 H 0.93663 0.10236 0.39296 0.0
H88 H 0.89599 0.17854 0.37665 0.0
O89 O 0.91832 0.0886 0.33214 0.0
H90 H 0.80086 0.10364 0.36835 0.0
H91 H 0.92176 0.18293 0.42587 0.0
Cu92 Cu 0.66027 0.09046 0.12615 0.0
N93 N 0.66416 0.12569 0.10966 0.0
N94 N 0.68247 0.16762 0.09998 0.0
C95 C 0.68131 0.14634 0.1185 0.0
C96 C 0.66534 0.16023 0.07872 0.0
C97 C 0.65383 0.1344 0.08489 0.0
O98 O 0.68488 0.08882 0.15855 0.0
C99 C 0.68441 0.06476 0.07759 0.0
O100 O 0.69605 0.08924 0.07273 0.0
H101 H 0.69384 0.14512 0.13739 0.0
H102 H 0.64002 0.12217 0.07165 0.0
N103 N 0.6231 0.08438 0.13683 0.0
N104 N 0.58071 0.06438 0.13919 0.0
C105 C 0.60531 0.0657 0.12525 0.0
C106 C 0.60931 0.09541 0.15877 0.0
C107 C 0.58315 0.08306 0.16033 0.0
C108 C 0.68147 0.07119 0.17821 0.0
O109 O 0.66098 0.05283 0.17641 0.0
H110 H 0.61076 0.05256 0.10759 0.0
H111 H 0.61798 0.11079 0.17304 0.0
O112 O 0.66976 0.0612 0.09954 0.0
H113 H 0.66189 0.17238 0.0599 0.0
H114 H 0.56727 0.08738 0.1759 0.0
Cu115 Cu 0.34337 0.9042 0.12197 0.0
N116 N 0.34354 0.86788 0.10778 0.0
N117 N 0.32505 0.82626 0.09627 0.0
C118 C 0.31995 0.8535 0.1021 0.0
C119 C 0.35326 0.82364 0.0981 0.0
C120 C 0.36459 0.84935 0.10533 0.0
O121 O 0.31697 0.90205 0.15252 0.0
C122 C 0.33358 0.95536 0.09277 0.0
O123 O 0.3447 0.96753 0.11484 0.0
H124 H 0.29936 0.86289 0.10323 0.0
H125 H 0.38638 0.85386 0.10981 0.0
N126 N 0.37879 0.91479 0.1352 0.0
N127 N 0.42008 0.93677 0.13942 0.0
C128 C 0.39808 0.93101 0.12243 0.0
C129 C 0.38904 0.90983 0.16096 0.0
C130 C 0.41447 0.92335 0.16365 0.0
C131 C 0.31142 0.91981 0.17154 0.0
O132 O 0.32357 0.94453 0.17137 0.0
H133 H 0.39544 0.93939 0.10155 0.0
H134 H 0.37836 0.89781 0.17692 0.0
O135 O 0.33064 0.92888 0.0924 0.0
H136 H 0.36486 0.80431 0.09582 0.0
H137 H 0.42764 0.92347 0.18213 0.0
Cu138 Cu 0.65492 0.90554 0.87043 0.0
N139 N 0.66057 0.86721 0.87644 0.0
N140 N 0.68117 0.82684 0.88834 0.0
C141 C 0.68429 0.85482 0.88551 0.0
C142 C 0.65437 0.82143 0.88099 0.0
C143 C 0.64172 0.84634 0.87373 0.0
O144 O 0.67935 0.91814 0.84055 0.0
C145 C 0.66943 0.94992 0.90807 0.0
O146 O 0.67269 0.96543 0.8856 0.0
H147 H 0.70322 0.86615 0.89072 0.0
H148 H 0.62018 0.849 0.86722 0.0
N149 N 0.61796 0.91169 0.85901 0.0
N150 N 0.57424 0.92803 0.85544 0.0
C151 C 0.59903 0.93011 0.86907 0.0
C152 C 0.60486 0.89798 0.83811 0.0
C153 C 0.57784 0.90782 0.83601 0.0
C154 C 0.70598 0.91749 0.84173 0.0
O155 O 0.71843 0.90961 0.86495 0.0
H156 H 0.60317 0.94441 0.88622 0.0
H157 H 0.61435 0.88187 0.82532 0.0
O158 O 0.66208 0.92444 0.90551 0.0
H159 H 0.64461 0.80094 0.88064 0.0
H160 H 0.56213 0.90093 0.82111 0.0
Cu161 Cu 0.34712 0.10016 0.87575 0.0
N162 N 0.34046 0.13692 0.88772 0.0
N163 N 0.31602 0.17309 0.90486 0.0
C164 C 0.31778 0.14494 0.90242 0.0
C165 C 0.33875 0.18315 0.89135 0.0
C166 C 0.35373 0.16082 0.88076 0.0
O167 O 0.32806 0.09461 0.84022 0.0
C168 C 0.34166 0.07764 0.92883 0.0
O169 O 0.35974 0.09774 0.9343 0.0
H170 H 0.30197 0.13038 0.90966 0.0
H171 H 0.37218 0.16215 0.86777 0.0
N172 N 0.38523 0.09193 0.87143 0.0
N173 N 0.42412 0.06574 0.86949 0.0
C174 C 0.39661 0.06657 0.87621 0.0
C175 C 0.40624 0.10778 0.86126 0.0
C176 C 0.43029 0.09173 0.86019 0.0
C177 C 0.30175 0.09846 0.83804 0.0
O178 O 0.2873 0.10493 0.86051 0.0
H179 H 0.3847 0.04894 0.88406 0.0
H180 H 0.40414 0.12912 0.85409 0.0
O181 O 0.33259 0.07486 0.90391 0.0
H182 H 0.34378 0.20508 0.8885 0.0
H183 H 0.45039 0.09833 0.852 0.0
Cu184 Cu 0.12666 0.65333 0.09838 0.0
N185 N 0.11648 0.65711 0.136 0.0
N186 N 0.10685 0.67686 0.17745 0.0
C187 C 0.11923 0.68011 0.15221 0.0
C188 C 0.09603 0.65067 0.17706 0.0
C189 C 0.10189 0.63864 0.15147 0.0
O190 O 0.16083 0.67443 0.09114 0.0
C191 C 0.09782 0.67475 0.0509 0.0
O192 O 0.12289 0.67656 0.03966 0.0
H193 H 0.12972 0.699 0.14547 0.0
H194 H 0.09509 0.61823 0.14426 0.0
N195 N 0.13281 0.61571 0.0892 0.0
N196 N 0.13629 0.57663 0.06342 0.0
C197 C 0.13031 0.60433 0.06349 0.0
C198 C 0.1407 0.59455 0.10605 0.0
C199 C 0.14277 0.57039 0.09023 0.0
C200 C 0.16176 0.70109 0.09089 0.0
O201 O 0.13856 0.71542 0.09466 0.0
H202 H 0.12404 0.61618 0.04524 0.0
H203 H 0.14487 0.59659 0.12823 0.0
O204 O 0.09538 0.66616 0.07595 0.0
H205 H 0.08371 0.64125 0.19356 0.0
H206 H 0.1492 0.55001 0.09779 0.0
Cu207 Cu 0.12628 0.34196 0.90989 0.0
N208 N 0.11748 0.33425 0.87261 0.0
N209 N 0.10692 0.30988 0.83401 0.0
C210 C 0.11151 0.3088 0.8619 0.0
C211 C 0.11007 0.33709 0.82695 0.0
C212 C 0.11647 0.35209 0.85084 0.0
O213 O 0.15661 0.31696 0.92025 0.0
C214 C 0.09133 0.33772 0.95813 0.0
O215 O 0.11391 0.34467 0.97236 0.0
H216 H 0.11122 0.28979 0.87425 0.0
H217 H 0.12026 0.3744 0.85219 0.0
N218 N 0.13861 0.37905 0.91346 0.0
N219 N 0.14456 0.42332 0.92781 0.0
C220 C 0.13046 0.39903 0.93176 0.0
C221 C 0.15859 0.39106 0.89765 0.0
C222 C 0.16222 0.41835 0.90633 0.0
C223 C 0.1528 0.29308 0.93144 0.0
O224 O 0.12727 0.28508 0.93796 0.0
H225 H 0.11435 0.396 0.94739 0.0
H226 H 0.1698 0.38059 0.88099 0.0
O227 O 0.09269 0.33548 0.93165 0.0
H228 H 0.10774 0.34557 0.80606 0.0
H229 H 0.17707 0.43323 0.89781 0.0
Cu230 Cu 0.87756 0.65876 0.91032 0.0
N231 N 0.88593 0.66245 0.87235 0.0
N232 N 0.89356 0.68061 0.82988 0.0
C233 C 0.88314 0.68514 0.85581 0.0
C234 C 0.90315 0.65399 0.83024 0.0
C235 C 0.89848 0.64292 0.85642 0.0
O236 O 0.84551 0.68199 0.91927 0.0
C237 C 0.91531 0.66899 0.95664 0.0
O238 O 0.89508 0.66085 0.97342 0.0
H239 H 0.87384 0.7046 0.86266 0.0
H240 H 0.90446 0.62229 0.86362 0.0
N241 N 0.86764 0.62138 0.91652 0.0
N242 N 0.86398 0.57749 0.93239 0.0
C243 C 0.87571 0.60301 0.93647 0.0
C244 C 0.85018 0.60705 0.89962 0.0
C245 C 0.84794 0.58002 0.90925 0.0
C246 C 0.8456 0.70863 0.9187 0.0
O247 O 0.86913 0.72206 0.91367 0.0
H248 H 0.89033 0.60794 0.95312 0.0
H249 H 0.83998 0.6157 0.88132 0.0
O250 O 0.91121 0.66949 0.93035 0.0
H251 H 0.91371 0.64349 0.81315 0.0
H252 H 0.83536 0.5635 0.90001 0.0
Cu253 Cu 0.87249 0.34815 0.10166 0.0
N254 N 0.88749 0.34083 0.13694 0.0
N255 N 0.90415 0.31416 0.17157 0.0
C256 C 0.8976 0.31557 0.14414 0.0
C257 C 0.8979 0.33966 0.18211 0.0
C258 C 0.88765 0.35616 0.16061 0.0
O259 O 0.83677 0.3287 0.10084 0.0
C260 C 0.92422 0.34316 0.07708 0.0
O261 O 0.93016 0.35992 0.09814 0.0
H262 H 0.89865 0.29808 0.12971 0.0
H263 H 0.87996 0.37739 0.16238 0.0
N264 N 0.86747 0.3863 0.09449 0.0
N265 N 0.86636 0.42586 0.06932 0.0
C266 C 0.87361 0.3985 0.06987 0.0
C267 C 0.85591 0.4066 0.11028 0.0
C268 C 0.85532 0.4311 0.09483 0.0
C269 C 0.82935 0.3096 0.08375 0.0
O270 O 0.84581 0.30307 0.06271 0.0
H271 H 0.88297 0.38727 0.05257 0.0
H272 H 0.84776 0.40363 0.13117 0.0
O273 O 0.89914 0.33439 0.07426 0.0
H274 H 0.90001 0.34576 0.20385 0.0
H275 H 0.84646 0.45088 0.1015 0.0
H276 H 0.96557 0.17699 0.44855 0.0
H277 H 0.94391 0.08896 0.44106 0.0
H278 H 0.974 0.07832 0.48194 0.0
H279 H 0.03738 0.16689 0.46782 0.0
H280 H 0.03807 0.19599 0.49192 0.0
H281 H 0.01461 0.19653 0.46234 0.0
H282 H 0.97244 0.2043 0.4956 0.0
H283 H 0.99577 0.20384 0.52529 0.0
H284 H 0.96641 0.18003 0.52387 0.0
H285 H 0.00625 0.07765 0.52435 0.0
H286 H 0.03925 0.08668 0.56332 0.0
H287 H 0.0394 0.17521 0.54268 0.0
C288 C 0.96688 0.1555 0.45563 0.0
C289 C 0.95223 0.13382 0.44163 0.0
C290 C 0.95507 0.10589 0.45129 0.0
C291 C 0.972 0.09967 0.47459 0.0
C292 C 0.98608 0.12161 0.48793 0.0
C293 C 0.98376 0.14894 0.47869 0.0
C294 C 1.00138 0.16867 0.49632 0.0
C295 C 0.02422 0.18285 0.47854 0.0
C296 C 0.98289 0.19049 0.51115 0.0
C297 C 0.01397 0.1482 0.517 0.0
C298 C 0.00482 0.12117 0.51193 0.0
C299 C 0.01353 0.09875 0.52849 0.0
C300 C 0.03217 0.10411 0.5507 0.0
C301 C 0.04203 0.13165 0.5561 0.0
C302 C 0.03262 0.15388 0.53894 0.0
H303 H 0.05815 0.87744 0.4779 0.0
H304 H 0.00702 0.85407 0.40618 0.0
H305 H 0.96576 0.85028 0.4367 0.0
H306 H 0.02554 0.83005 0.52653 0.0
H307 H 0.02761 0.85396 0.55572 0.0
H308 H 0.0532 0.85581 0.52808 0.0
H309 H 0.04126 0.90823 0.52056 0.0
H310 H 0.01553 0.90649 0.54809 0.0
H311 H 0.00548 0.9183 0.51367 0.0
H312 H 0.93011 0.84823 0.47466 0.0
H313 H 0.90239 0.84713 0.51808 0.0
H314 H 0.97638 0.87043 0.56589 0.0
C315 C 0.03835 0.8714 0.46859 0.0
C316 C 0.03596 0.8663 0.43945 0.0
C317 C 0.00946 0.85865 0.42823 0.0
C318 C 0.98584 0.85627 0.44545 0.0
C319 C 0.98893 0.86155 0.47395 0.0
C320 C 0.01448 0.86888 0.48552 0.0
C321 C 0.01204 0.87292 0.51696 0.0
C322 C 0.0307 0.85193 0.53275 0.0
C323 C 0.01899 0.90329 0.5253 0.0
C324 C 0.98117 0.86652 0.52119 0.0
C325 C 0.96828 0.86011 0.49605 0.0
C326 C 0.93997 0.85314 0.4945 0.0
C327 C 0.92443 0.85241 0.51934 0.0
C328 C 0.93716 0.85852 0.54549 0.0
C329 C 0.96592 0.86593 0.54626 0.0
H330 H 0.45041 0.9673 0.17707 0.0
H331 H 0.44331 0.94761 0.08862 0.0
H332 H 0.48354 0.97879 0.07872 0.0
H333 H 0.46849 0.03984 0.1687 0.0
H334 H 0.49272 0.04021 0.19771 0.0
H335 H 0.46346 0.0163 0.19777 0.0
H336 H 0.49742 0.97447 0.20444 0.0
H337 H 0.52678 0.99826 0.20451 0.0
H338 H 0.52577 0.9695 0.18001 0.0
H339 H 0.52545 0.01147 0.07875 0.0
H340 H 0.56467 0.044 0.08853 0.0
H341 H 0.54401 0.04241 0.17692 0.0
C342 C 0.45743 0.96929 0.15563 0.0
C343 C 0.4437 0.95486 0.13362 0.0
C344 C 0.45331 0.95858 0.1058 0.0
C345 C 0.47623 0.97616 0.1 0.0
C346 C 0.48927 0.99002 0.12221 0.0
C347 C 0.48015 0.98686 0.14947 0.0
C348 C 0.4976 0.00428 0.16956 0.0
C349 C 0.47948 0.02647 0.1843 0.0
C350 C 0.5128 0.9855 0.19088 0.0
C351 C 0.51807 0.01769 0.14938 0.0
C352 C 0.513 0.00913 0.12218 0.0
C353 C 0.52955 0.01834 0.09998 0.0
C354 C 0.55187 0.03671 0.10574 0.0
C355 C 0.55741 0.04585 0.13346 0.0
C356 C 0.54011 0.03619 0.15547 0.0
H357 H 0.56984 0.98365 0.86724 0.0
H358 H 0.52146 0.90786 0.85376 0.0
H359 H 0.47753 0.9348 0.85867 0.0
H360 H 0.52202 0.01686 0.91785 0.0
H361 H 0.52727 0.05147 0.9037 0.0
H362 H 0.55494 0.02585 0.90164 0.0
H363 H 0.55712 0.03258 0.84787 0.0
H364 H 0.5294 0.05809 0.84974 0.0
H365 H 0.52573 0.02792 0.82727 0.0
H366 H 0.43912 0.96991 0.86281 0.0
H367 H 0.40836 0.01125 0.8644 0.0
H368 H 0.48119 0.06509 0.87432 0.0
C369 C 0.54995 0.97275 0.86589 0.0
C370 C 0.54892 0.94367 0.86029 0.0
C371 C 0.52259 0.93014 0.85796 0.0
C372 C 0.49758 0.94523 0.86084 0.0
C373 C 0.49925 0.97394 0.86589 0.0
C374 C 0.52471 0.98765 0.86834 0.0
C375 C 0.5205 0.01896 0.872 0.0
C376 C 0.53185 0.02886 0.9005 0.0
C377 C 0.53399 0.03534 0.84777 0.0
C378 C 0.48874 0.02069 0.8709 0.0
C379 C 0.47695 0.99442 0.86768 0.0
C380 C 0.44808 0.99059 0.86558 0.0
C381 C 0.43073 0.01425 0.86666 0.0
C382 C 0.44224 0.04151 0.86964 0.0
C383 C 0.47171 0.04461 0.8719 0.0
H384 H 0.13263 0.42961 0.9833 0.0
H385 H 0.1509 0.47573 0.90729 0.0
H386 H 0.14916 0.52018 0.9337 0.0
H387 H 0.08478 0.48119 0.01399 0.0
H388 H 0.09736 0.47556 0.04915 0.0
H389 H 0.09843 0.44742 0.02397 0.0
H390 H 0.15173 0.44173 0.03275 0.0
H391 H 0.15088 0.46992 0.05783 0.0
H392 H 0.1746 0.47155 0.02853 0.0
H393 H 0.14698 0.55941 0.96835 0.0
H394 H 0.14533 0.59097 0.00916 0.0
H395 H 0.12868 0.51983 0.06325 0.0
C396 C 0.13581 0.44911 0.97219 0.0
C397 C 0.14188 0.44922 0.9432 0.0
C398 C 0.14647 0.47514 0.92949 0.0
C399 C 0.14537 0.5005 0.9443 0.0
C400 C 0.13974 0.49966 0.97289 0.0
C401 C 0.13503 0.47468 0.98675 0.0
C402 C 0.13059 0.47966 0.01783 0.0
C403 C 0.10103 0.47041 0.02675 0.0
C404 C 0.15331 0.46483 0.03526 0.0
C405 C 0.13379 0.51129 0.01924 0.0
C406 C 0.13884 0.52238 0.99303 0.0
C407 C 0.14285 0.551 0.98897 0.0
C408 C 0.14172 0.56882 0.01232 0.0
C409 C 0.13676 0.55802 0.03951 0.0
C410 C 0.13271 0.52879 0.04285 0.0
H411 H 0.86886 0.57294 0.98912 0.0
H412 H 0.86721 0.52493 0.912 0.0
H413 H 0.86973 0.48101 0.93902 0.0
H414 H 0.91656 0.52598 0.02803 0.0
H415 H 0.89809 0.53043 0.06063 0.0
H416 H 0.89845 0.55834 0.03523 0.0
H417 H 0.84413 0.55905 0.03531 0.0
H418 H 0.84359 0.53103 0.06053 0.0
H419 H 0.82508 0.52723 0.0278 0.0
H420 H 0.86965 0.44254 0.97374 0.0
H421 H 0.86714 0.41119 0.01436 0.0
H422 H 0.86888 0.48322 0.07008 0.0
C423 C 0.8696 0.55316 0.97803 0.0
C424 C 0.86786 0.55227 0.94846 0.0
C425 C 0.8683 0.52602 0.93461 0.0
C426 C 0.86986 0.50099 0.94978 0.0
C427 C 0.87093 0.5025 0.97886 0.0
C428 C 0.87089 0.52783 0.99294 0.0
C429 C 0.87078 0.52326 0.02442 0.0
C430 C 0.89756 0.53521 0.03787 0.0
C431 C 0.84432 0.53589 0.03779 0.0
C432 C 0.87034 0.49145 0.02571 0.0
C433 C 0.87067 0.48002 0.99914 0.0
C434 C 0.86972 0.45121 0.99469 0.0
C435 C 0.86845 0.43352 0.01801 0.0
C436 C 0.86809 0.44458 0.0456 0.0
C437 C 0.86905 0.47404 0.04935 0.0
H438 H 0.17681 0.12279 0.7298 0.0
H439 H 0.23177 0.09241 0.66407 0.0
H440 H 0.26935 0.08527 0.69896 0.0
H441 H 0.22899 0.15939 0.76935 0.0
H442 H 0.2142 0.15004 0.80277 0.0
H443 H 0.19186 0.15298 0.77248 0.0
H444 H 0.17404 0.10227 0.78039 0.0
H445 H 0.19635 0.09913 0.81069 0.0
H446 H 0.19897 0.07398 0.78262 0.0
H447 H 0.30106 0.08149 0.74144 0.0
H448 H 0.32421 0.08166 0.78782 0.0
H449 H 0.24767 0.1132 0.82548 0.0
C450 C 0.19659 0.11436 0.72265 0.0
C451 C 0.20119 0.10813 0.69406 0.0
C452 C 0.22773 0.09767 0.68573 0.0
C453 C 0.24918 0.09337 0.70545 0.0
C454 C 0.2438 0.09959 0.73345 0.0
C455 C 0.21814 0.10987 0.74201 0.0
C456 C 0.21764 0.11498 0.7733 0.0
C457 C 0.2129 0.1462 0.77985 0.0
C458 C 0.19544 0.09648 0.78758 0.0
C459 C 0.24704 0.10591 0.78106 0.0
C460 C 0.26185 0.09715 0.7578 0.0
C461 C 0.28962 0.08823 0.7598 0.0
C462 C 0.30259 0.08839 0.78623 0.0
C463 C 0.28775 0.09733 0.81033 0.0
C464 C 0.25957 0.10605 0.80755 0.0
H465 H 0.75873 0.89836 0.82976 0.0
H466 H 0.69008 0.94716 0.79548 0.0
H467 H 0.71588 0.95202 0.75091 0.0
H468 H 0.81636 0.93528 0.79394 0.0
H469 H 0.83574 0.90342 0.78802 0.0
H470 H 0.81335 0.90654 0.81823 0.0
H471 H 0.78686 0.86147 0.80326 0.0
H472 H 0.80907 0.85829 0.77302 0.0
H473 H 0.77152 0.85951 0.76878 0.0
H474 H 0.74775 0.94918 0.70932 0.0
H475 H 0.78281 0.938 0.67321 0.0
H476 H 0.82949 0.88886 0.73393 0.0
C477 C 0.74943 0.91063 0.8131 0.0
C478 C 0.72255 0.92267 0.81613 0.0
C479 C 0.71072 0.9379 0.7936 0.0
C480 C 0.72523 0.94082 0.76826 0.0
C481 C 0.75146 0.92823 0.76574 0.0
C482 C 0.76346 0.9134 0.78753 0.0
C483 C 0.79089 0.90009 0.77869 0.0
C484 C 0.81554 0.91206 0.79573 0.0
C485 C 0.78948 0.86794 0.78107 0.0
C486 C 0.79222 0.90941 0.74841 0.0
C487 C 0.76946 0.92588 0.74147 0.0
C488 C 0.76572 0.93636 0.71452 0.0
C489 C 0.78568 0.92968 0.69406 0.0
C490 C 0.80901 0.91242 0.70051 0.0
C491 C 0.81226 0.90242 0.72822 0.0
H492 H 0.28624 0.95348 0.21142 0.0
H493 H 0.2928 0.86713 0.18314 0.0
H494 H 0.2606 0.85232 0.22042 0.0
H495 H 0.28158 0.93835 0.28626 0.0
H496 H 0.25605 0.96538 0.29284 0.0
H497 H 0.28102 0.96943 0.26484 0.0
H498 H 0.24038 0.97673 0.22951 0.0
H499 H 0.21533 0.97285 0.25741 0.0
H500 H 0.21307 0.95068 0.22689 0.0
H501 H 0.22692 0.84658 0.25942 0.0
H502 H 0.19166 0.85075 0.29686 0.0
H503 H 0.20539 0.94066 0.29974 0.0
C504 C 0.28107 0.93145 0.21326 0.0
C505 C 0.29215 0.91149 0.19437 0.0
C506 C 0.2846 0.88288 0.19727 0.0
C507 C 0.2664 0.87417 0.21849 0.0
C508 C 0.2558 0.8943 0.23668 0.0
C509 C 0.26267 0.92235 0.23428 0.0
C510 C 0.24709 0.93974 0.25584 0.0
C511 C 0.26767 0.95407 0.27615 0.0
C512 C 0.22782 0.96126 0.24155 0.0
C513 C 0.23028 0.91706 0.27046 0.0
C514 C 0.23585 0.891 0.25917 0.0
C515 C 0.22238 0.86686 0.2685 0.0
C516 C 0.20229 0.86946 0.28968 0.0
C517 C 0.19569 0.896 0.30122 0.0
C518 C 0.21025 0.92003 0.29169 0.0
H519 H 0.72901 0.1029 0.18656 0.0
H520 H 0.67521 0.04156 0.22686 0.0
H521 H 0.70466 0.04398 0.26935 0.0
H522 H 0.79425 0.07724 0.21542 0.0
H523 H 0.80924 0.11172 0.21949 0.0
H524 H 0.78393 0.10517 0.1922 0.0
H525 H 0.75299 0.14557 0.2111 0.0
H526 H 0.77817 0.1522 0.23848 0.0
H527 H 0.74207 0.14521 0.24723 0.0
H528 H 0.73908 0.05408 0.308 0.0
H529 H 0.77755 0.06936 0.3392 0.0
H530 H 0.8096 0.12328 0.27355 0.0
C531 C 0.72344 0.08992 0.20429 0.0
C532 C 0.69973 0.07206 0.20336 0.0
C533 C 0.69326 0.05536 0.22701 0.0
C534 C 0.70983 0.05663 0.25129 0.0
C535 C 0.73293 0.07455 0.25155 0.0
C536 C 0.73987 0.09075 0.22862 0.0
C537 C 0.76593 0.10812 0.23429 0.0
C538 C 0.78975 0.10007 0.21415 0.0
C539 C 0.75939 0.13964 0.23268 0.0
C540 C 0.7725 0.09921 0.26403 0.0
C541 C 0.7531 0.07996 0.27364 0.0
C542 C 0.75444 0.06909 0.30067 0.0
C543 C 0.77625 0.07802 0.31831 0.0
C544 C 0.79658 0.09749 0.30882 0.0
C545 C 0.79457 0.10814 0.28128 0.0
H546 H 0.71534 0.18867 0.0588 0.0
H547 H 0.69069 0.20035 0.14523 0.0
H548 H 0.72317 0.24075 0.1492 0.0
H549 H 0.78756 0.20182 0.07027 0.0
H550 H 0.79328 0.21934 0.03735 0.0
H551 H 0.76596 0.19346 0.04038 0.0
H552 H 0.72945 0.22964 0.02293 0.0
H553 H 0.7567 0.25567 0.01983 0.0
H554 H 0.72613 0.26277 0.04082 0.0
H555 H 0.75893 0.27877 0.14407 0.0
H556 H 0.79865 0.30944 0.13196 0.0
H557 H 0.80267 0.27131 0.04943 0.0
C558 C 0.71646 0.20018 0.07832 0.0
C559 C 0.70032 0.19185 0.10165 0.0
C560 C 0.70285 0.20667 0.12718 0.0
C561 C 0.72111 0.22963 0.12954 0.0
C562 C 0.73694 0.23722 0.10622 0.0
C563 C 0.73504 0.2228 0.08116 0.0
C564 C 0.75613 0.23379 0.06009 0.0
C565 C 0.77697 0.21073 0.05153 0.0
C566 C 0.7412 0.24621 0.0344 0.0
C567 C 0.77035 0.25646 0.0773 0.0
C568 C 0.7586 0.25837 0.10367 0.0
C569 C 0.76828 0.27751 0.12348 0.0
C570 C 0.79085 0.29491 0.11633 0.0
C571 C 0.80385 0.29281 0.08973 0.0
C572 C 0.7932 0.27346 0.06991 0.0
H573 H 0.17397 0.75562 0.10428 0.0
H574 H 0.21119 0.67963 0.07102 0.0
H575 H 0.25695 0.70383 0.0673 0.0
H576 H 0.21326 0.80518 0.06244 0.0
H577 H 0.21683 0.83011 0.09062 0.0
H578 H 0.18683 0.80716 0.08932 0.0
H579 H 0.19827 0.78934 0.1393 0.0
H580 H 0.22828 0.81224 0.14075 0.0
H581 H 0.23254 0.77517 0.14658 0.0
H582 H 0.29894 0.73656 0.06773 0.0
H583 H 0.33381 0.77436 0.07369 0.0
H584 H 0.26905 0.82778 0.1089 0.0
C585 C 0.19165 0.74414 0.09591 0.0
C586 C 0.18896 0.71579 0.08774 0.0
C587 C 0.21276 0.70138 0.07736 0.0
C588 C 0.23882 0.71496 0.07512 0.0
C589 C 0.24079 0.74289 0.08355 0.0
C590 C 0.21786 0.75725 0.09386 0.0
C591 C 0.22576 0.78674 0.10262 0.0
C592 C 0.20972 0.80858 0.0852 0.0
C593 C 0.22093 0.79111 0.13418 0.0
C594 C 0.25671 0.78676 0.09558 0.0
C595 C 0.26499 0.76137 0.08446 0.0
C596 C 0.29268 0.75651 0.0765 0.0
C597 C 0.31241 0.77814 0.08012 0.0
C598 C 0.30449 0.80431 0.0918 0.0
C599 C 0.2761 0.80842 0.09952 0.0
H600 H 0.83444 0.7624 0.90143 0.0
H601 H 0.7957 0.68906 0.9388 0.0
H602 H 0.74968 0.7126 0.93734 0.0
H603 H 0.79015 0.8153 0.93589 0.0
H604 H 0.78867 0.83718 0.90518 0.0
H605 H 0.81901 0.81562 0.91155 0.0
H606 H 0.81291 0.79272 0.86269 0.0
H607 H 0.7825 0.81408 0.85625 0.0
H608 H 0.77993 0.77646 0.85373 0.0
H609 H 0.7075 0.74257 0.92896 0.0
H610 H 0.67199 0.7774 0.91487 0.0
H611 H 0.73779 0.83093 0.88202 0.0
C612 C 0.81638 0.75153 0.90987 0.0
C613 C 0.81869 0.72396 0.92044 0.0
C614 C 0.79444 0.71022 0.9307 0.0
C615 C 0.76821 0.72342 0.92998 0.0
C616 C 0.76654 0.75036 0.9189 0.0
C617 C 0.78996 0.76433 0.9091 0.0
C618 C 0.78211 0.79253 0.89676 0.0
C619 C 0.7958 0.81658 0.91335 0.0
C620 C 0.78982 0.79402 0.86551 0.0
C621 C 0.7506 0.79204 0.90088 0.0
C622 C 0.74209 0.76758 0.9138 0.0
C623 C 0.71392 0.76189 0.91898 0.0
C624 C 0.69387 0.78171 0.91071 0.0
C625 C 0.70205 0.80693 0.89736 0.0
C626 C 0.73087 0.8121 0.89258 0.0
H627 H 0.29944 0.22573 0.89004 0.0
H628 H 0.27897 0.15593 0.94454 0.0
H629 H 0.23622 0.18059 0.95988 0.0
H630 H 0.27352 0.28149 0.93705 0.0
H631 H 0.26039 0.30211 0.90829 0.0
H632 H 0.29053 0.2799 0.9034 0.0
H633 H 0.26548 0.25518 0.86194 0.0
H634 H 0.23525 0.27716 0.86679 0.0
H635 H 0.23146 0.23957 0.86737 0.0
H636 H 0.19343 0.2109 0.96584 0.0
H637 H 0.15483 0.24535 0.9632 0.0
H638 H 0.20431 0.29608 0.90627 0.0
C639 C 0.28644 0.21587 0.90573 0.0
C640 C 0.29266 0.18877 0.916 0.0
C641 C 0.27455 0.17648 0.93608 0.0
C642 C 0.25029 0.19041 0.94507 0.0
C643 C 0.2445 0.2168 0.93404 0.0
C644 C 0.2622 0.22953 0.91502 0.0
C645 C 0.25051 0.25738 0.9053 0.0
C646 C 0.26989 0.28166 0.91404 0.0
C647 C 0.24537 0.2573 0.87347 0.0
C648 C 0.22319 0.25806 0.92138 0.0
C649 C 0.22013 0.23451 0.93792 0.0
C650 C 0.19578 0.22964 0.95331 0.0
C651 C 0.17395 0.24928 0.95162 0.0
C652 C 0.17665 0.27352 0.93475 0.0
C653 C 0.20178 0.27802 0.91975 0.0
H654 H 0.09859 0.83061 0.24236 0.0
H655 H 0.08314 0.79154 0.32296 0.0
H656 H 0.08584 0.74487 0.30079 0.0
H657 H 0.05853 0.78124 0.20071 0.0
H658 H 0.08285 0.78191 0.17187 0.0
H659 H 0.07909 0.81225 0.19402 0.0
H660 H 0.13253 0.81163 0.20403 0.0
H661 H 0.13641 0.78117 0.18207 0.0
H662 H 0.14843 0.78029 0.21786 0.0
H663 H 0.09121 0.70234 0.27005 0.0
H664 H 0.0978 0.66712 0.23281 0.0
H665 H 0.10921 0.73388 0.17216 0.0
C666 C 0.09555 0.81227 0.25534 0.0
C667 C 0.09059 0.8148 0.28444 0.0
C668 C 0.08693 0.7902 0.30065 0.0
C669 C 0.08846 0.76356 0.28825 0.0
C670 C 0.09368 0.76182 0.2596 0.0
C671 C 0.09708 0.7855 0.24332 0.0
C672 C 0.10273 0.7778 0.21304 0.0
C673 C 0.0794 0.78896 0.19378 0.0
C674 C 0.13175 0.78835 0.20371 0.0
C675 C 0.10199 0.74609 0.21486 0.0
C676 C 0.09676 0.73731 0.24189 0.0
C677 C 0.09517 0.70898 0.24876 0.0
C678 C 0.09882 0.6891 0.2274 0.0
C679 C 0.10397 0.69755 0.19941 0.0
C680 C 0.10566 0.72654 0.19327 0.0
H681 H 0.11643 0.22232 0.69307 0.0
H682 H 0.0689 0.15648 0.73404 0.0
H683 H 0.06461 0.18627 0.77628 0.0
H684 H 0.15547 0.24367 0.75208 0.0
H685 H 0.15482 0.28044 0.74349 0.0
H686 H 0.15267 0.25461 0.71606 0.0
H687 H 0.10628 0.27673 0.69841 0.0
H688 H 0.10835 0.30274 0.72571 0.0
H689 H 0.07747 0.28114 0.7224 0.0
H690 H 0.06852 0.2223 0.81525 0.0
H691 H 0.07808 0.26247 0.8467 0.0
H692 H 0.12233 0.30459 0.77957 0.0
C693 C 0.10484 0.21421 0.71079 0.0
C694 C 0.09299 0.18704 0.71024 0.0
C695 C 0.07804 0.17727 0.73392 0.0
C696 C 0.07555 0.19402 0.75803 0.0
C697 C 0.08791 0.22054 0.75799 0.0
C698 C 0.10202 0.23066 0.73486 0.0
C699 C 0.11395 0.2596 0.74027 0.0
C700 C 0.14613 0.25956 0.73784 0.0
C701 C 0.10071 0.28133 0.72052 0.0
C702 C 0.10469 0.2641 0.77021 0.0
C703 C 0.08973 0.24135 0.78012 0.0
C704 C 0.08 0.24031 0.80761 0.0
C705 C 0.08567 0.26313 0.82537 0.0
C706 C 0.10081 0.28672 0.81555 0.0
C707 C 0.11028 0.28711 0.78754 0.0
H708 H 0.89369 0.73784 0.83322 0.0
H709 H 0.89797 0.6684 0.77448 0.0
H710 H 0.90346 0.70179 0.73561 0.0
H711 H 0.85337 0.78395 0.78817 0.0
H712 H 0.87136 0.81513 0.79978 0.0
H713 H 0.86769 0.7857 0.82309 0.0
H714 H 0.92159 0.78455 0.83002 0.0
H715 H 0.92546 0.81383 0.80657 0.0
H716 H 0.94412 0.78169 0.79988 0.0
H717 H 0.90883 0.74238 0.70313 0.0
H718 H 0.9124 0.78776 0.67881 0.0
H719 H 0.90404 0.83118 0.75837 0.0
C720 C 0.89543 0.72958 0.8122 0.0
C721 C 0.89554 0.70033 0.80705 0.0
C722 C 0.89827 0.69059 0.77913 0.0
C723 C 0.90126 0.70942 0.75684 0.0
C724 C 0.90138 0.738 0.76272 0.0
C725 C 0.89838 0.7481 0.78966 0.0
C726 C 0.89916 0.77988 0.79019 0.0
C727 C 0.87123 0.79186 0.80094 0.0
C728 C 0.92407 0.79061 0.8077 0.0
C729 C 0.90325 0.78602 0.75933 0.0
C730 C 0.90443 0.76153 0.74389 0.0
C731 C 0.90791 0.76172 0.71496 0.0
C732 C 0.90995 0.78763 0.70135 0.0
C733 C 0.90857 0.81307 0.71665 0.0
C734 C 0.90536 0.81213 0.74608 0.0
H735 H 0.89931 0.20216 0.29422 0.0
H736 H 0.94411 0.14568 0.23879 0.0
H737 H 0.94889 0.18373 0.20412 0.0
H738 H 0.8599 0.23554 0.24139 0.0
H739 H 0.86099 0.26976 0.25739 0.0
H740 H 0.86326 0.23887 0.27886 0.0
H741 H 0.91002 0.25694 0.3 0.0
H742 H 0.90791 0.2879 0.27852 0.0
H743 H 0.9386 0.26594 0.27703 0.0
H744 H 0.94653 0.22692 0.17446 0.0
H745 H 0.93578 0.27178 0.15115 0.0
H746 H 0.89177 0.3 0.22539 0.0
C747 C 0.91049 0.19789 0.27497 0.0
C748 C 0.92148 0.17096 0.26928 0.0
C749 C 0.93556 0.16613 0.24363 0.0
C750 C 0.93848 0.18765 0.22385 0.0
C751 C 0.92719 0.21387 0.23002 0.0
C752 C 0.91343 0.21907 0.25492 0.0
C753 C 0.90171 0.24859 0.25565 0.0
C754 C 0.86956 0.24815 0.25848 0.0
C755 C 0.91539 0.26586 0.2792 0.0
C756 C 0.91067 0.25903 0.22708 0.0
C757 C 0.92555 0.23874 0.21276 0.0
C758 C 0.93502 0.24301 0.18553 0.0
C759 C 0.9287 0.2685 0.17242 0.0
C760 C 0.91294 0.28939 0.18643 0.0
C761 C 0.90426 0.28467 0.21432 0.0
H762 H 0.00292 0.0578 0.66994 0.0
H763 H 0.08925 0.02958 0.66385 0.0
H764 H 0.07315 0.98044 0.6649 0.0
H765 H 0.9785 0.00203 0.71649 0.0
H766 H 0.94482 0.99945 0.69949 0.0
H767 H 0.96327 0.03244 0.70009 0.0
H768 H 0.96045 0.03496 0.64594 0.0
H769 H 0.94204 0.00201 0.64517 0.0
H770 H 0.97388 0.0063 0.62533 0.0
H771 H 0.04753 0.93432 0.66411 0.0
H772 H 0.01416 0.89475 0.6613 0.0
H773 H 0.94468 0.95314 0.66789 0.0
C774 C 0.01848 0.04132 0.66917 0.0
C775 C 0.04736 0.0476 0.66688 0.0
C776 C 0.067 0.02534 0.66565 0.0
C777 C 0.05808 0.99733 0.66628 0.0
C778 C 0.02945 0.99188 0.66823 0.0
C779 C 0.00995 0.01323 0.66973 0.0
C780 C 0.98035 1.00171 0.67059 0.0
C781 C 0.96589 0.00936 0.69832 0.0
C782 C 0.96318 0.01184 0.64524 0.0
C783 C 0.98625 0.97058 0.66886 0.0
C784 C 0.0147 0.96531 0.66772 0.0
C785 C 0.0252 0.93817 0.66521 0.0
C786 C 0.00607 0.91583 0.66362 0.0
C787 C 0.9768 0.92079 0.66444 0.0
C788 C 0.96691 0.94857 0.66736 0.0
H789 H 0.99864 0.06502 0.33783 0.0
H790 H 0.91496 0.0391 0.31271 0.0
H791 H 0.93226 0.99111 0.30443 0.0
H792 H 0.0372 0.02083 0.28828 0.0
H793 H 0.06464 0.01314 0.3131 0.0
H794 H 0.04615 0.046 0.31504 0.0
H795 H 0.03315 0.03575 0.36671 0.0
H796 H 0.0516 0.00292 0.36493 0.0
H797 H 0.01526 0.00356 0.37524 0.0
H798 H 0.95794 0.94522 0.30173 0.0
H799 H 0.99008 0.9048 0.30541 0.0
H800 H 0.05694 0.96073 0.33208 0.0
C801 C 0.98403 0.04937 0.33021 0.0
C802 C 0.95546 0.05588 0.32585 0.0
C803 C 0.93695 0.03465 0.31621 0.0
C804 C 0.94659 0.00732 0.31136 0.0
C805 C 0.9748 1.00153 0.31616 0.0
C806 C 0.99327 0.02195 0.32534 0.0
C807 C 0.02223 0.00989 0.33028 0.0
C808 C 0.04383 0.02326 0.31049 0.0
C809 C 0.03106 0.01323 0.36112 0.0
C810 C 0.01702 0.97945 0.32287 0.0
C811 C 0.98959 0.97507 0.31459 0.0
C812 C 0.97955 0.94842 0.30792 0.0
C813 C 0.99796 0.92559 0.31008 0.0
C814 C 0.02606 0.92956 0.3189 0.0
C815 C 0.03568 0.95697 0.32498 0.0
H816 H 0.68482 0.00382 0.92219 0.0
H817 H 0.66304 0.9231 0.95819 0.0
H818 H 0.66796 0.94301 0.00553 0.0
H819 H 0.73644 0.02374 0.97566 0.0
H820 H 0.72625 0.06011 0.97532 0.0
H821 H 0.72266 0.03918 0.94407 0.0
H822 H 0.66992 0.05196 0.94128 0.0
H823 H 0.67337 0.07294 0.97244 0.0
H824 H 0.64764 0.04526 0.97099 0.0
H825 H 0.67165 0.97218 0.04877 0.0
H826 H 0.67454 0.00889 0.08517 0.0
H827 H 0.6954 0.07036 0.02157 0.0
C828 C 0.68137 0.99025 0.94002 0.0
C829 C 0.67355 0.96188 0.93642 0.0
C830 C 0.66907 0.9449 0.96035 0.0
C831 C 0.67187 0.95598 0.98738 0.0
C832 C 0.67937 0.98404 0.9902 0.0
C833 C 0.68419 1.00095 0.96722 0.0
C834 C 0.69098 0.0307 0.97613 0.0
C835 C 0.72086 0.0389 0.96727 0.0
C836 C 0.66917 0.05143 0.96452 0.0
C837 C 0.68873 0.02793 0.00765 0.0
C838 C 0.68208 1.00081 0.01531 0.0
C839 C 0.67723 0.99342 0.0431 0.0
C840 C 0.67888 0.0144 0.06361 0.0
C841 C 0.68549 0.04238 0.05623 0.0
C842 C 0.69087 0.04905 0.02791 0.0
H843 H 0.35169 0.00832 0.07993 0.0
H844 H 0.30224 0.93903 0.04751 0.0
H845 H 0.29563 0.96457 0.00302 0.0
H846 H 0.31268 0.06524 0.04515 0.0
H847 H 0.34413 0.08507 0.03831 0.0
H848 H 0.3422 0.06272 0.06864 0.0
H849 H 0.38714 0.03686 0.05249 0.0
H850 H 0.38914 0.05899 0.02209 0.0
H851 H 0.38821 0.02144 0.01802 0.0
H852 H 0.29743 0.99615 0.96079 0.0
H853 H 0.30816 0.03097 0.92402 0.0
H854 H 0.35719 0.07895 0.98399 0.0
C855 C 0.33893 0.99878 0.06373 0.0
C856 C 0.32729 0.97178 0.06726 0.0
C857 C 0.31127 0.95975 0.04529 0.0
C858 C 0.30734 0.97412 0.01997 0.0
C859 C 0.31958 1.00047 0.01695 0.0
C860 C 0.33501 0.01271 0.03826 0.0
C861 C 0.34771 0.04027 0.029 0.0
C862 C 0.33597 0.06477 0.0463 0.0
C863 C 0.37995 0.03931 0.03049 0.0
C864 C 0.33746 0.04138 0.99901 0.0
C865 C 0.32101 0.0184 0.99252 0.0
C866 C 0.31006 0.01437 0.96571 0.0
C867 C 0.31629 0.03424 0.94496 0.0
C868 C 0.33348 0.0577 0.9511 0.0
C869 C 0.34388 0.06133 0.9786 0.0
H870 H 0.93641 0.65928 0.00949 0.0
H871 H 0.95824 0.69412 0.92843 0.0
H872 H 0.00643 0.7027 0.94505 0.0
H873 H 0.98079 0.70652 0.05194 0.0
H874 H 0.99038 0.67916 0.07611 0.0
H875 H 0.95679 0.67812 0.05877 0.0
H876 H 0.96796 0.62845 0.03985 0.0
H877 H 1.00156 0.62937 0.05704 0.0
H878 H 0.99955 0.62294 0.01989 0.0
H879 H 0.05313 0.70403 0.96888 0.0
H880 H 0.09512 0.69822 0.99866 0.0
H881 H 0.04315 0.66285 0.06435 0.0
C882 C 0.95118 0.6692 0.99542 0.0
C883 C 0.94349 0.6761 0.96768 0.0
C884 C 0.9636 0.68863 0.94978 0.0
C885 C 0.99104 0.69368 0.95904 0.0
C886 C 0.99809 0.68617 0.9863 0.0
C887 C 0.97876 0.67431 0.0043 0.0
C888 C 0.99225 0.66671 0.03202 0.0
C889 C 0.97928 0.68365 0.05613 0.0
C890 C 0.99021 0.63499 0.0375 0.0
C891 C 0.02226 0.67566 0.02654 0.0
C892 C 0.02513 0.68701 1.00011 0.0
C893 C 0.05111 0.69548 0.98976 0.0
C894 C 0.07485 0.69205 0.0068 0.0
C895 C 0.07244 0.68024 0.03388 0.0
C896 C 0.04568 0.67228 0.04389 0.0
H897 H 0.0775 0.35181 0.01205 0.0
H898 H 0.04371 0.314 0.93644 0.0
H899 H 0.9978 0.30838 0.95962 0.0
H900 H 0.03848 0.30905 0.0621 0.0
H901 H 0.03319 0.33793 0.08588 0.0
H902 H 0.06392 0.33699 0.064 0.0
H903 H 0.05135 0.38595 0.04413 0.0
H904 H 0.02062 0.38703 0.06593 0.0
H905 H 0.01731 0.39143 0.02859 0.0
H906 H 0.95485 0.30869 0.99057 0.0
H907 H 0.9181 0.31656 0.02628 0.0
H908 H 0.98011 0.35495 0.08092 0.0
C909 C 0.06057 0.34199 1.00049 0.0
C910 C 0.06424 0.33322 0.97249 0.0
C911 C 0.0414 0.32087 0.95794 0.0
C912 C 0.01526 0.3175 0.97094 0.0
C913 C 0.01226 0.32663 0.99848 0.0
C914 C 0.0343 0.33867 0.01306 0.0
C915 C 0.02522 0.34814 0.0419 0.0
C916 C 0.04115 0.33206 0.06482 0.0
C917 C 0.02884 0.38002 0.04532 0.0
C918 C 0.99457 0.33988 0.04112 0.0
C919 C 0.98751 0.32724 0.01605 0.0
C920 C 0.96017 0.31843 0.01036 0.0
C921 C 0.93945 0.32295 0.03076 0.0
C922 C 0.94621 0.33637 0.05636 0.0
C923 C 0.97422 0.34461 0.06157 0.0
loop_
_geom_bond_atom_site_label_1
_geom_bond_atom_site_label_2
_geom_bond_distance
_geom_bond_site_symmetry_2
_ccdc_geom_bond_type
Cu0 N1 1.999 . S
Cu0 O6 1.974 . S
Cu0 N11 1.985 . S
Cu0 O20 1.959 . S
N1 Cu0 1.999 . S
N1 C3 1.263 . S
N1 C5 1.389 . S
N2 C3 1.358 . S
N2 C4 1.400 . S
C3 N1 1.263 . S
C3 N2 1.358 . S
C3 H9 0.930 . S
C4 N2 1.400 . S
C4 C5 1.351 . S
C4 H21 0.930 . S
C5 N1 1.389 . S
C5 C4 1.351 . S
C5 H10 0.930 . S
O6 Cu0 1.974 . S
O6 C16 1.282 . S
C7 O8 1.261 . S
C7 O20 1.251 . S
O8 C7 1.261 . S
H9 C3 0.930 . S
H10 C5 0.930 . S
N11 Cu0 1.985 . S
N11 C13 1.335 . S
N11 C14 1.390 . S
N12 C13 1.345 . S
N12 C15 1.336 . S
C13 N11 1.335 . S
C13 N12 1.345 . S
C13 H18 0.930 . S
C14 N11 1.390 . S
C14 C15 1.346 . S
C14 H19 0.930 . S
C15 N12 1.336 . S
C15 C14 1.346 . S
C15 H22 0.929 . S
C16 O6 1.282 . S
C16 O17 1.216 . S
O17 C16 1.216 . S
H18 C13 0.930 . S
H19 C14 0.930 . S
O20 Cu0 1.959 . S
O20 C7 1.251 . S
H21 C4 0.930 . S
H22 C15 0.929 . S
Cu23 N24 1.999 . S
Cu23 O29 1.974 . S
Cu23 N34 1.985 . S
Cu23 O43 1.959 . S
N24 Cu23 1.999 . S
N24 C26 1.263 . S
N24 C28 1.389 . S
N25 C26 1.358 . S
N25 C27 1.400 . S
C26 N24 1.263 . S
C26 N25 1.358 . S
C26 H32 0.930 . S
C27 N25 1.400 . S
C27 C28 1.351 . S
C27 H44 0.930 . S
C28 N24 1.389 . S
C28 C27 1.351 . S
C28 H33 0.930 . S
O29 Cu23 1.974 . S
O29 C39 1.282 . S
C30 O31 1.261 . S
C30 O43 1.251 . S
O31 C30 1.261 . S
H32 C26 0.930 . S
H33 C28 0.930 . S
N34 Cu23 1.985 . S
N34 C36 1.335 . S
N34 C37 1.390 . S
N35 C36 1.345 . S
N35 C38 1.336 . S
C36 N34 1.335 . S
C36 N35 1.345 . S
C36 H41 0.930 . S
C37 N34 1.390 . S
C37 C38 1.346 . S
C37 H42 0.930 . S
C38 N35 1.336 . S
C38 C37 1.346 . S
C38 H45 0.929 . S
C39 O29 1.282 . S
C39 O40 1.216 . S
O40 C39 1.216 . S
H41 C36 0.930 . S
H42 C37 0.930 . S
O43 Cu23 1.959 . S
O43 C30 1.251 . S
H44 C27 0.930 . S
H45 C38 0.929 . S
Cu46 N47 1.999 . S
Cu46 O52 1.974 . S
Cu46 N57 1.985 . S
Cu46 O66 1.959 . S
N47 Cu46 1.999 . S
N47 C49 1.263 . S
N47 C51 1.389 . S
N48 C49 1.358 . S
N48 C50 1.400 . S
C49 N47 1.263 . S
C49 N48 1.358 . S
C49 H55 0.930 . S
C50 N48 1.400 . S
C50 C51 1.351 . S
C50 H67 0.930 . S
C51 N47 1.389 . S
C51 C50 1.351 . S
C51 H56 0.930 . S
O52 Cu46 1.974 . S
O52 C62 1.282 . S
C53 O54 1.261 . S
C53 O66 1.251 . S
O54 C53 1.261 . S
H55 C49 0.930 . S
H56 C51 0.930 . S
N57 Cu46 1.985 . S
N57 C59 1.335 . S
N57 C60 1.390 . S
N58 C59 1.345 . S
N58 C61 1.336 . S
C59 N57 1.335 . S
C59 N58 1.345 . S
C59 H64 0.930 . S
C60 N57 1.390 . S
C60 C61 1.346 . S
C60 H65 0.930 . S
C61 N58 1.336 . S
C61 C60 1.346 . S
C61 H68 0.929 . S
C62 O52 1.282 . S
C62 O63 1.216 . S
O63 C62 1.216 . S
H64 C59 0.930 . S
H65 C60 0.930 . S
O66 Cu46 1.959 . S
O66 C53 1.251 . S
H67 C50 0.930 . S
H68 C61 0.929 . S
Cu69 N70 1.999 . S
Cu69 O75 1.974 . S
Cu69 N80 1.985 . S
Cu69 O89 1.959 . S
N70 Cu69 1.999 . S
N70 C72 1.263 . S
N70 C74 1.389 . S
N71 C72 1.358 . S
N71 C73 1.400 . S
C72 N70 1.263 . S
C72 N71 1.358 . S
C72 H78 0.930 . S
C73 N71 1.400 . S
C73 C74 1.351 . S
C73 H90 0.930 . S
C74 N70 1.389 . S
C74 C73 1.351 . S
C74 H79 0.930 . S
O75 Cu69 1.974 . S
O75 C85 1.282 . S
C76 O77 1.261 . S
C76 O89 1.251 . S
O77 C76 1.261 . S
H78 C72 0.930 . S
H79 C74 0.930 . S
N80 Cu69 1.985 . S
N80 C82 1.335 . S
N80 C83 1.390 . S
N81 C82 1.345 . S
N81 C84 1.336 . S
C82 N80 1.335 . S
C82 N81 1.345 . S
C82 H87 0.930 . S
C83 N80 1.390 . S
C83 C84 1.346 . S
C83 H88 0.930 . S
C84 N81 1.336 . S
C84 C83 1.346 . S
C84 H91 0.929 . S
C85 O75 1.282 . S
C85 O86 1.216 . S
O86 C85 1.216 . S
H87 C82 0.930 . S
H88 C83 0.930 . S
O89 Cu69 1.959 . S
O89 C76 1.251 . S
H90 C73 0.930 . S
H91 C84 0.929 . S
Cu92 N93 1.999 . S
Cu92 O98 1.974 . S
Cu92 N103 1.985 . S
Cu92 O112 1.959 . S
N93 Cu92 1.999 . S
N93 C95 1.263 . S
N93 C97 1.389 . S
N94 C95 1.358 . S
N94 C96 1.400 . S
C95 N93 1.263 . S
C95 N94 1.358 . S
C95 H101 0.930 . S
C96 N94 1.400 . S
C96 C97 1.351 . S
C96 H113 0.930 . S
C97 N93 1.389 . S
C97 C96 1.351 . S
C97 H102 0.930 . S
O98 Cu92 1.974 . S
O98 C108 1.282 . S
C99 O100 1.261 . S
C99 O112 1.251 . S
O100 C99 1.261 . S
H101 C95 0.930 . S
H102 C97 0.930 . S
N103 Cu92 1.985 . S
N103 C105 1.335 . S
N103 C106 1.390 . S
N104 C105 1.345 . S
N104 C107 1.336 . S
C105 N103 1.335 . S
C105 N104 1.345 . S
C105 H110 0.930 . S
C106 N103 1.390 . S
C106 C107 1.346 . S
C106 H111 0.930 . S
C107 N104 1.336 . S
C107 C106 1.346 . S
C107 H114 0.929 . S
C108 O98 1.282 . S
C108 O109 1.216 . S
O109 C108 1.216 . S
H110 C105 0.930 . S
H111 C106 0.930 . S
O112 Cu92 1.959 . S
O112 C99 1.251 . S
H113 C96 0.930 . S
H114 C107 0.929 . S
Cu115 N116 1.999 . S
Cu115 O121 1.974 . S
Cu115 N126 1.985 . S
Cu115 O135 1.959 . S
N116 Cu115 1.999 . S
N116 C118 1.263 . S
N116 C120 1.389 . S
N117 C118 1.358 . S
N117 C119 1.400 . S
C118 N116 1.263 . S
C118 N117 1.358 . S
C118 H124 0.930 . S
C119 N117 1.400 . S
C119 C120 1.351 . S
C119 H136 0.930 . S
C120 N116 1.389 . S
C120 C119 1.351 . S
C120 H125 0.930 . S
O121 Cu115 1.974 . S
O121 C131 1.282 . S
C122 O123 1.261 . S
C122 O135 1.251 . S
O123 C122 1.261 . S
H124 C118 0.930 . S
H125 C120 0.930 . S
N126 Cu115 1.985 . S
N126 C128 1.335 . S
N126 C129 1.390 . S
N127 C128 1.345 . S
N127 C130 1.336 . S
C128 N126 1.335 . S
C128 N127 1.345 . S
C128 H133 0.930 . S
C129 N126 1.390 . S
C129 C130 1.346 . S
C129 H134 0.930 . S
C130 N127 1.336 . S
C130 C129 1.346 . S
C130 H137 0.929 . S
C131 O121 1.282 . S
C131 O132 1.216 . S
O132 C131 1.216 . S
H133 C128 0.930 . S
H134 C129 0.930 . S
O135 Cu115 1.959 . S
O135 C122 1.251 . S
H136 C119 0.930 . S
H137 C130 0.929 . S
Cu138 N139 1.999 . S
Cu138 O144 1.974 . S
Cu138 N149 1.985 . S
Cu138 O158 1.959 . S
N139 Cu138 1.999 . S
N139 C141 1.263 . S
N139 C143 1.389 . S
N140 C141 1.358 . S
N140 C142 1.400 . S
C141 N139 1.263 . S
C141 N140 1.358 . S
C141 H147 0.930 . S
C142 N140 1.400 . S
C142 C143 1.351 . S
C142 H159 0.930 . S
C143 N139 1.389 . S
C143 C142 1.351 . S
C143 H148 0.930 . S
O144 Cu138 1.974 . S
O144 C154 1.282 . S
C145 O146 1.261 . S
C145 O158 1.251 . S
O146 C145 1.261 . S
H147 C141 0.930 . S
H148 C143 0.930 . S
N149 Cu138 1.985 . S
N149 C151 1.335 . S
N149 C152 1.390 . S
N150 C151 1.345 . S
N150 C153 1.336 . S
C151 N149 1.335 . S
C151 N150 1.345 . S
C151 H156 0.930 . S
C152 N149 1.390 . S
C152 C153 1.346 . S
C152 H157 0.930 . S
C153 N150 1.336 . S
C153 C152 1.346 . S
C153 H160 0.929 . S
C154 O144 1.282 . S
C154 O155 1.216 . S
O155 C154 1.216 . S
H156 C151 0.930 . S
H157 C152 0.930 . S
O158 Cu138 1.959 . S
O158 C145 1.251 . S
H159 C142 0.930 . S
H160 C153 0.929 . S
Cu161 N162 1.999 . S
Cu161 O167 1.974 . S
Cu161 N172 1.985 . S
Cu161 O181 1.959 . S
N162 Cu161 1.999 . S
N162 C164 1.263 . S
N162 C166 1.389 . S
N163 C164 1.358 . S
N163 C165 1.400 . S
C164 N162 1.263 . S
C164 N163 1.358 . S
C164 H170 0.930 . S
C165 N163 1.400 . S
C165 C166 1.351 . S
C165 H182 0.930 . S
C166 N162 1.389 . S
C166 C165 1.351 . S
C166 H171 0.930 . S
O167 Cu161 1.974 . S
O167 C177 1.282 . S
C168 O169 1.261 . S
C168 O181 1.251 . S
O169 C168 1.261 . S
H170 C164 0.930 . S
H171 C166 0.930 . S
N172 Cu161 1.985 . S
N172 C174 1.335 . S
N172 C175 1.390 . S
N173 C174 1.345 . S
N173 C176 1.336 . S
C174 N172 1.335 . S
C174 N173 1.345 . S
C174 H179 0.930 . S
C175 N172 1.390 . S
C175 C176 1.346 . S
C175 H180 0.930 . S
C176 N173 1.336 . S
C176 C175 1.346 . S
C176 H183 0.929 . S
C177 O167 1.282 . S
C177 O178 1.216 . S
O178 C177 1.216 . S
H179 C174 0.930 . S
H180 C175 0.930 . S
O181 Cu161 1.959 . S
O181 C168 1.251 . S
H182 C165 0.930 . S
H183 C176 0.929 . S
Cu184 N185 1.999 . S
Cu184 O190 1.974 . S
Cu184 N195 1.985 . S
Cu184 O204 1.959 . S
N185 Cu184 1.999 . S
N185 C187 1.263 . S
N185 C189 1.389 . S
N186 C187 1.358 . S
N186 C188 1.400 . S
C187 N185 1.263 . S
C187 N186 1.358 . S
C187 H193 0.930 . S
C188 N186 1.400 . S
C188 C189 1.351 . S
C188 H205 0.930 . S
C189 N185 1.389 . S
C189 C188 1.351 . S
C189 H194 0.930 . S
O190 Cu184 1.974 . S
O190 C200 1.282 . S
C191 O192 1.261 . S
C191 O204 1.251 . S
O192 C191 1.261 . S
H193 C187 0.930 . S
H194 C189 0.930 . S
N195 Cu184 1.985 . S
N195 C197 1.335 . S
N195 C198 1.390 . S
N196 C197 1.345 . S
N196 C199 1.336 . S
C197 N195 1.335 . S
C197 N196 1.345 . S
C197 H202 0.930 . S
C198 N195 1.390 . S
C198 C199 1.346 . S
C198 H203 0.930 . S
C199 N196 1.336 . S
C199 C198 1.346 . S
C199 H206 0.929 . S
C200 O190 1.282 . S
C200 O201 1.216 . S
O201 C200 1.216 . S
H202 C197 0.930 . S
H203 C198 0.930 . S
O204 Cu184 1.959 . S
O204 C191 1.251 . S
H205 C188 0.930 . S
H206 C199 0.929 . S
Cu207 N208 1.999 . S
Cu207 O213 1.974 . S
Cu207 N218 1.985 . S
Cu207 O227 1.959 . S
N208 Cu207 1.999 . S
N208 C210 1.263 . S
N208 C212 1.389 . S
N209 C210 1.358 . S
N209 C211 1.400 . S
C210 N208 1.263 . S
C210 N209 1.358 . S
C210 H216 0.930 . S
C211 N209 1.400 . S
C211 C212 1.351 . S
C211 H228 0.930 . S
C212 N208 1.389 . S
C212 C211 1.351 . S
C212 H217 0.930 . S
O213 Cu207 1.974 . S
O213 C223 1.282 . S
C214 O215 1.261 . S
C214 O227 1.251 . S
O215 C214 1.261 . S
H216 C210 0.930 . S
H217 C212 0.930 . S
N218 Cu207 1.985 . S
N218 C220 1.335 . S
N218 C221 1.390 . S
N219 C220 1.345 . S
N219 C222 1.336 . S
C220 N218 1.335 . S
C220 N219 1.345 . S
C220 H225 0.930 . S
C221 N218 1.390 . S
C221 C222 1.346 . S
C221 H226 0.930 . S
C222 N219 1.336 . S
C222 C221 1.346 . S
C222 H229 0.929 . S
C223 O213 1.282 . S
C223 O224 1.216 . S
O224 C223 1.216 . S
H225 C220 0.930 . S
H226 C221 0.930 . S
O227 Cu207 1.959 . S
O227 C214 1.251 . S
H228 C211 0.930 . S
H229 C222 0.929 . S
Cu230 N231 1.999 . S
Cu230 O236 1.974 . S
Cu230 N241 1.985 . S
Cu230 O250 1.959 . S
N231 Cu230 1.999 . S
N231 C233 1.263 . S
N231 C235 1.389 . S
N232 C233 1.358 . S
N232 C234 1.400 . S
C233 N231 1.263 . S
C233 N232 1.358 . S
C233 H239 0.930 . S
C234 N232 1.400 . S
C234 C235 1.351 . S
C234 H251 0.930 . S
C235 N231 1.389 . S
C235 C234 1.351 . S
C235 H240 0.930 . S
O236 Cu230 1.974 . S
O236 C246 1.282 . S
C237 O238 1.261 . S
C237 O250 1.251 . S
O238 C237 1.261 . S
H239 C233 0.930 . S
H240 C235 0.930 . S
N241 Cu230 1.985 . S
N241 C243 1.335 . S
N241 C244 1.390 . S
N242 C243 1.345 . S
N242 C245 1.336 . S
C243 N241 1.335 . S
C243 N242 1.345 . S
C243 H248 0.930 . S
C244 N241 1.390 . S
C244 C245 1.346 . S
C244 H249 0.930 . S
C245 N242 1.336 . S
C245 C244 1.346 . S
C245 H252 0.929 . S
C246 O236 1.282 . S
C246 O247 1.216 . S
O247 C246 1.216 . S
H248 C243 0.930 . S
H249 C244 0.930 . S
O250 Cu230 1.959 . S
O250 C237 1.251 . S
H251 C234 0.930 . S
H252 C245 0.929 . S
Cu253 N254 1.999 . S
Cu253 O259 1.974 . S
Cu253 N264 1.985 . S
Cu253 O273 1.959 . S
N254 Cu253 1.999 . S
N254 C256 1.263 . S
N254 C258 1.389 . S
N255 C256 1.358 . S
N255 C257 1.400 . S
C256 N254 1.263 . S
C256 N255 1.358 . S
C256 H262 0.930 . S
C257 N255 1.400 . S
C257 C258 1.351 . S
C257 H274 0.930 . S
C258 N254 1.389 . S
C258 C257 1.351 . S
C258 H263 0.930 . S
O259 Cu253 1.974 . S
O259 C269 1.282 . S
C260 O261 1.261 . S
C260 O273 1.251 . S
O261 C260 1.261 . S
H262 C256 0.930 . S
H263 C258 0.930 . S
N264 Cu253 1.985 . S
N264 C266 1.335 . S
N264 C267 1.390 . S
N265 C266 1.345 . S
N265 C268 1.336 . S
C266 N264 1.335 . S
C266 N265 1.345 . S
C266 H271 0.930 . S
C267 N264 1.390 . S
C267 C268 1.346 . S
C267 H272 0.930 . S
C268 N265 1.336 . S
C268 C267 1.346 . S
C268 H275 0.929 . S
C269 O259 1.282 . S
C269 O270 1.216 . S
O270 C269 1.216 . S
H271 C266 0.930 . S
H272 C267 0.930 . S
O273 Cu253 1.959 . S
O273 C260 1.251 . S
H274 C257 0.930 . S
H275 C268 0.929 . S
H276 C288 0.930 . S
H277 C290 0.930 . S
H278 C291 0.930 . S
H279 C295 0.959 . S
H280 C295 0.959 . S
H281 C295 0.961 . S
H282 C296 0.960 . S
H283 C296 0.961 . S
H284 C296 0.959 . S
H285 C299 0.929 1_655 S
H286 C300 0.931 . S
H287 C302 0.930 . S
C288 H276 0.930 . S
C288 C289 1.399 . S
C288 C293 1.399 . S
C289 C288 1.399 . S
C289 C290 1.376 . S
C290 H277 0.930 . S
C290 C289 1.376 . S
C290 C291 1.388 . S
C291 H278 0.930 . S
C291 C290 1.388 . S
C291 C292 1.390 . S
C292 C291 1.390 . S
C292 C293 1.394 . S
C292 C298 1.465 1_655 S
C293 C288 1.399 . S
C293 C292 1.394 . S
C293 C294 1.516 1_655 S
C294 C293 1.516 1_455 S
C294 C295 1.502 . S
C294 C296 1.561 1_455 S
C294 C297 1.526 . S
C295 H279 0.959 . S
C295 H280 0.959 . S
C295 H281 0.961 . S
C295 C294 1.502 . S
C296 H282 0.960 . S
C296 H283 0.961 . S
C296 H284 0.959 . S
C296 C294 1.561 1_655 S
C297 C294 1.526 . S
C297 C298 1.396 . S
C297 C302 1.390 . S
C298 C292 1.465 1_455 S
C298 C297 1.396 . S
C298 C299 1.399 . S
C299 H285 0.929 1_455 S
C299 C298 1.399 . S
C299 C300 1.385 . S
C300 H286 0.931 . S
C300 C299 1.385 . S
C300 C301 1.389 . S
C301 C300 1.389 . S
C301 C302 1.387 . S
C302 H287 0.930 . S
C302 C297 1.390 . S
C302 C301 1.387 . S
H303 C315 0.930 . S
H304 C317 0.930 . S
H305 C318 0.930 . S
H306 C322 0.959 . S
H307 C322 0.959 . S
H308 C322 0.961 . S
H309 C323 0.960 . S
H310 C323 0.961 . S
H311 C323 0.959 1_655 S
H312 C326 0.929 . S
H313 C327 0.931 . S
H314 C329 0.930 . S
C315 H303 0.930 . S
C315 C316 1.399 . S
C315 C320 1.399 . S
C316 C315 1.399 . S
C316 C317 1.376 . S
C317 H304 0.930 . S
C317 C316 1.376 . S
C317 C318 1.388 1_455 S
C318 H305 0.930 . S
C318 C317 1.388 1_655 S
C318 C319 1.390 . S
C319 C318 1.390 . S
C319 C320 1.394 1_655 S
C319 C325 1.465 . S
C320 C315 1.399 . S
C320 C319 1.394 1_455 S
C320 C321 1.516 . S
C321 C320 1.516 . S
C321 C322 1.502 . S
C321 C323 1.561 . S
C321 C324 1.526 1_455 S
C322 H306 0.959 . S
C322 H307 0.959 . S
C322 H308 0.961 . S
C322 C321 1.502 . S
C323 H309 0.960 . S
C323 H310 0.961 . S
C323 H311 0.959 1_455 S
C323 C321 1.561 . S
C324 C321 1.526 1_655 S
C324 C325 1.396 . S
C324 C329 1.390 . S
C325 C319 1.465 . S
C325 C324 1.396 . S
C325 C326 1.399 . S
C326 H312 0.929 . S
C326 C325 1.399 . S
C326 C327 1.385 . S
C327 H313 0.931 . S
C327 C326 1.385 . S
C327 C328 1.389 . S
C328 C327 1.389 . S
C328 C329 1.387 . S
C329 H314 0.930 . S
C329 C324 1.390 . S
C329 C328 1.387 . S
H330 C342 0.930 . S
H331 C344 0.930 . S
H332 C345 0.930 . S
H333 C349 0.959 . S
H334 C349 0.959 . S
H335 C349 0.961 . S
H336 C350 0.960 . S
H337 C350 0.961 . S
H338 C350 0.959 . S
H339 C353 0.929 . S
H340 C354 0.931 . S
H341 C356 0.930 . S
C342 H330 0.930 . S
C342 C343 1.399 . S
C342 C347 1.399 . S
C343 C342 1.399 . S
C343 C344 1.376 . S
C344 H331 0.930 . S
C344 C343 1.376 . S
C344 C345 1.388 . S
C345 H332 0.930 . S
C345 C344 1.388 . S
C345 C346 1.390 . S
C346 C345 1.390 . S
C346 C347 1.394 . S
C346 C352 1.465 1_565 S
C347 C342 1.399 . S
C347 C346 1.394 . S
C347 C348 1.516 . S
C348 C347 1.516 . S
C348 C349 1.502 1_565 S
C348 C350 1.561 . S
C348 C351 1.526 1_565 S
C349 H333 0.959 . S
C349 H334 0.959 . S
C349 H335 0.961 . S
C349 C348 1.502 1_545 S
C350 H336 0.960 . S
C350 H337 0.961 . S
C350 H338 0.959 . S
C350 C348 1.561 . S
C351 C348 1.526 1_545 S
C351 C352 1.396 . S
C351 C356 1.390 . S
C352 C346 1.465 1_545 S
C352 C351 1.396 . S
C352 C353 1.399 . S
C353 H339 0.929 . S
C353 C352 1.399 . S
C353 C354 1.385 . S
C354 H340 0.931 . S
C354 C353 1.385 . S
C354 C355 1.389 . S
C355 C354 1.389 . S
C355 C356 1.387 . S
C356 H341 0.930 . S
C356 C351 1.390 . S
C356 C355 1.387 . S
H357 C369 0.930 1_545 S
H358 C371 0.930 . S
H359 C372 0.930 . S
H360 C376 0.959 . S
H361 C376 0.959 . S
H362 C376 0.961 . S
H363 C377 0.960 . S
H364 C377 0.961 . S
H365 C377 0.959 . S
H366 C380 0.929 . S
H367 C381 0.934 . S
H368 C383 0.930 . S
C369 H357 0.930 1_565 S
C369 C370 1.399 . S
C369 C374 1.408 . S
C370 C369 1.399 . S
C370 C371 1.376 . S
C371 H358 0.930 . S
C371 C370 1.376 . S
C371 C372 1.388 . S
C372 H359 0.930 . S
C372 C371 1.388 . S
C372 C373 1.390 . S
C373 C372 1.390 . S
C373 C374 1.410 . S
C373 C379 1.465 . S
C374 C369 1.408 . S
C374 C373 1.410 . S
C374 C375 1.492 1_565 S
C375 C374 1.492 1_545 S
C375 C376 1.502 . S
C375 C377 1.561 . S
C375 C378 1.526 . S
C376 H360 0.959 . S
C376 H361 0.959 . S
C376 H362 0.961 . S
C376 C375 1.502 . S
C377 H363 0.960 . S
C377 H364 0.961 . S
C377 H365 0.959 . S
C377 C375 1.561 . S
C378 C375 1.526 . S
C378 C379 1.396 1_545 S
C378 C383 1.390 . S
C379 C373 1.465 . S
C379 C378 1.396 1_565 S
C379 C380 1.399 . S
C380 H366 0.929 . S
C380 C379 1.399 . S
C380 C381 1.385 1_565 S
C381 H367 0.934 . S
C381 C380 1.385 1_545 S
C381 C382 1.389 . S
C382 C381 1.389 . S
C382 C383 1.387 . S
C383 H368 0.930 . S
C383 C378 1.390 . S
C383 C382 1.387 . S
H384 C396 0.918 1_554 S
H385 C398 0.930 . S
H386 C399 0.930 . S
H387 C403 0.959 . S
H388 C403 0.959 . S
H389 C403 0.961 . S
H390 C404 0.960 . S
H391 C404 0.961 . S
H392 C404 0.959 . S
H393 C407 0.929 . S
H394 C408 0.931 . S
H395 C410 0.930 . S
C396 H384 0.918 1_556 S
C396 C397 1.399 . S
C396 C401 1.411 . S
C397 C396 1.399 . S
C397 C398 1.376 . S
C398 H385 0.930 . S
C398 C397 1.376 . S
C398 C399 1.388 . S
C399 H386 0.930 . S
C399 C398 1.388 . S
C399 C400 1.390 . S
C400 C399 1.390 . S
C400 C401 1.414 . S
C400 C406 1.465 . S
C401 C396 1.411 . S
C401 C400 1.414 . S
C401 C402 1.485 1_556 S
C402 C401 1.485 1_554 S
C402 C403 1.502 . S
C402 C404 1.561 . S
C402 C405 1.526 . S
C403 H387 0.959 . S
C403 H388 0.959 . S
C403 H389 0.961 . S
C403 C402 1.502 . S
C404 H390 0.960 . S
C404 H391 0.961 . S
C404 H392 0.959 . S
C404 C402 1.561 . S
C405 C402 1.526 . S
C405 C406 1.396 1_554 S
C405 C410 1.390 . S
C406 C400 1.465 . S
C406 C405 1.396 1_556 S
C406 C407 1.399 . S
C407 H393 0.929 . S
C407 C406 1.399 . S
C407 C408 1.385 1_556 S
C408 H394 0.931 . S
C408 C407 1.385 1_554 S
C408 C409 1.389 . S
C409 C408 1.389 . S
C409 C410 1.387 . S
C410 H395 0.930 . S
C410 C405 1.390 . S
C410 C409 1.387 . S
H411 C423 0.930 . S
H412 C425 0.930 . S
H413 C426 0.930 . S
H414 C430 0.959 . S
H415 C430 0.959 . S
H416 C430 0.961 . S
H417 C431 0.960 . S
H418 C431 0.961 . S
H419 C431 0.959 . S
H420 C434 0.929 . S
H421 C435 0.931 . S
H422 C437 0.930 . S
C423 H411 0.930 . S
C423 C424 1.399 . S
C423 C428 1.399 . S
C424 C423 1.399 . S
C424 C425 1.376 . S
C425 H412 0.930 . S
C425 C424 1.376 . S
C425 C426 1.388 . S
C426 H413 0.930 . S
C426 C425 1.388 . S
C426 C427 1.390 . S
C427 C426 1.390 . S
C427 C428 1.394 . S
C427 C433 1.465 . S
C428 C423 1.399 . S
C428 C427 1.394 . S
C428 C429 1.516 1_556 S
C429 C428 1.516 1_554 S
C429 C430 1.502 . S
C429 C431 1.561 . S
C429 C432 1.526 . S
C430 H414 0.959 . S
C430 H415 0.959 . S
C430 H416 0.961 . S
C430 C429 1.502 . S
C431 H417 0.960 . S
C431 H418 0.961 . S
C431 H419 0.959 . S
C431 C429 1.561 . S
C432 C429 1.526 . S
C432 C433 1.396 1_554 S
C432 C437 1.390 . S
C433 C427 1.465 . S
C433 C432 1.396 1_556 S
C433 C434 1.399 . S
C434 H420 0.929 . S
C434 C433 1.399 . S
C434 C435 1.385 1_556 S
C435 H421 0.931 . S
C435 C434 1.385 1_554 S
C435 C436 1.389 . S
C436 C435 1.389 . S
C436 C437 1.387 . S
C437 H422 0.930 . S
C437 C432 1.390 . S
C437 C436 1.387 . S
H438 C450 0.930 . S
H439 C452 0.930 . S
H440 C453 0.930 . S
H441 C457 0.959 . S
H442 C457 0.959 . S
H443 C457 0.961 . S
H444 C458 0.960 . S
H445 C458 0.961 . S
H446 C458 0.959 . S
H447 C461 0.929 . S
H448 C462 0.931 . S
H449 C464 0.930 . S
C450 H438 0.930 . S
C450 C451 1.399 . S
C450 C455 1.399 . S
C451 C450 1.399 . S
C451 C452 1.376 . S
C452 H439 0.930 . S
C452 C451 1.376 . S
C452 C453 1.388 . S
C453 H440 0.930 . S
C453 C452 1.388 . S
C453 C454 1.390 . S
C454 C453 1.390 . S
C454 C455 1.394 . S
C454 C460 1.465 . S
C455 C450 1.399 . S
C455 C454 1.394 . S
C455 C456 1.516 . S
C456 C455 1.516 . S
C456 C457 1.502 . S
C456 C458 1.561 . S
C456 C459 1.526 . S
C457 H441 0.959 . S
C457 H442 0.959 . S
C457 H443 0.961 . S
C457 C456 1.502 . S
C458 H444 0.960 . S
C458 H445 0.961 . S
C458 H446 0.959 . S
C458 C456 1.561 . S
C459 C456 1.526 . S
C459 C460 1.396 . S
C459 C464 1.390 . S
C460 C454 1.465 . S
C460 C459 1.396 . S
C460 C461 1.399 . S
C461 H447 0.929 . S
C461 C460 1.399 . S
C461 C462 1.385 . S
C462 H448 0.931 . S
C462 C461 1.385 . S
C462 C463 1.389 . S
C463 C462 1.389 . S
C463 C464 1.387 . S
C464 H449 0.930 . S
C464 C459 1.390 . S
C464 C463 1.387 . S
H465 C477 0.930 . S
H466 C479 0.930 . S
H467 C480 0.930 . S
H468 C484 0.959 . S
H469 C484 0.959 . S
H470 C484 0.961 . S
H471 C485 0.960 . S
H472 C485 0.961 . S
H473 C485 0.959 . S
H474 C488 0.929 . S
H475 C489 0.931 . S
H476 C491 0.930 . S
C477 H465 0.930 . S
C477 C478 1.399 . S
C477 C482 1.399 . S
C478 C477 1.399 . S
C478 C479 1.376 . S
C479 H466 0.930 . S
C479 C478 1.376 . S
C479 C480 1.388 . S
C480 H467 0.930 . S
C480 C479 1.388 . S
C480 C481 1.390 . S
C481 C480 1.390 . S
C481 C482 1.394 . S
C481 C487 1.465 . S
C482 C477 1.399 . S
C482 C481 1.394 . S
C482 C483 1.516 . S
C483 C482 1.516 . S
C483 C484 1.502 . S
C483 C485 1.561 . S
C483 C486 1.526 . S
C484 H468 0.959 . S
C484 H469 0.959 . S
C484 H470 0.961 . S
C484 C483 1.502 . S
C485 H471 0.960 . S
C485 H472 0.961 . S
C485 H473 0.959 . S
C485 C483 1.561 . S
C486 C483 1.526 . S
C486 C487 1.396 . S
C486 C491 1.390 . S
C487 C481 1.465 . S
C487 C486 1.396 . S
C487 C488 1.399 . S
C488 H474 0.929 . S
C488 C487 1.399 . S
C488 C489 1.385 . S
C489 H475 0.931 . S
C489 C488 1.385 . S
C489 C490 1.389 . S
C490 C489 1.389 . S
C490 C491 1.387 . S
C491 H476 0.930 . S
C491 C486 1.390 . S
C491 C490 1.387 . S
H492 C504 0.930 . S
H493 C506 0.930 . S
H494 C507 0.930 . S
H495 C511 0.959 . S
H496 C511 0.959 . S
H497 C511 0.961 . S
H498 C512 0.960 . S
H499 C512 0.961 . S
H500 C512 0.959 . S
H501 C515 0.929 . S
H502 C516 0.931 . S
H503 C518 0.930 . S
C504 H492 0.930 . S
C504 C505 1.399 . S
C504 C509 1.399 . S
C505 C504 1.399 . S
C505 C506 1.376 . S
C506 H493 0.930 . S
C506 C505 1.376 . S
C506 C507 1.388 . S
C507 H494 0.930 . S
C507 C506 1.388 . S
C507 C508 1.390 . S
C508 C507 1.390 . S
C508 C509 1.394 . S
C508 C514 1.465 . S
C509 C504 1.399 . S
C509 C508 1.394 . S
C509 C510 1.516 . S
C510 C509 1.516 . S
C510 C511 1.502 . S
C510 C512 1.561 . S
C510 C513 1.526 . S
C511 H495 0.959 . S
C511 H496 0.959 . S
C511 H497 0.961 . S
C511 C510 1.502 . S
C512 H498 0.960 . S
C512 H499 0.961 . S
C512 H500 0.959 . S
C512 C510 1.561 . S
C513 C510 1.526 . S
C513 C514 1.396 . S
C513 C518 1.390 . S
C514 C508 1.465 . S
C514 C513 1.396 . S
C514 C515 1.399 . S
C515 H501 0.929 . S
C515 C514 1.399 . S
C515 C516 1.385 . S
C516 H502 0.931 . S
C516 C515 1.385 . S
C516 C517 1.389 . S
C517 C516 1.389 . S
C517 C518 1.387 . S
C518 H503 0.930 . S
C518 C513 1.390 . S
C518 C517 1.387 . S
H519 C531 0.930 . S
H520 C533 0.930 . S
H521 C534 0.930 . S
H522 C538 0.959 . S
H523 C538 0.959 . S
H524 C538 0.961 . S
H525 C539 0.960 . S
H526 C539 0.961 . S
H527 C539 0.959 . S
H528 C542 0.929 . S
H529 C543 0.931 . S
H530 C545 0.930 . S
C531 H519 0.930 . S
C531 C532 1.399 . S
C531 C536 1.399 . S
C532 C531 1.399 . S
C532 C533 1.376 . S
C533 H520 0.930 . S
C533 C532 1.376 . S
C533 C534 1.388 . S
C534 H521 0.930 . S
C534 C533 1.388 . S
C534 C535 1.390 . S
C535 C534 1.390 . S
C535 C536 1.394 . S
C535 C541 1.465 . S
C536 C531 1.399 . S
C536 C535 1.394 . S
C536 C537 1.516 . S
C537 C536 1.516 . S
C537 C538 1.502 . S
C537 C539 1.561 . S
C537 C540 1.526 . S
C538 H522 0.959 . S
C538 H523 0.959 . S
C538 H524 0.961 . S
C538 C537 1.502 . S
C539 H525 0.960 . S
C539 H526 0.961 . S
C539 H527 0.959 . S
C539 C537 1.561 . S
C540 C537 1.526 . S
C540 C541 1.396 . S
C540 C545 1.390 . S
C541 C535 1.465 . S
C541 C540 1.396 . S
C541 C542 1.399 . S
C542 H528 0.929 . S
C542 C541 1.399 . S
C542 C543 1.385 . S
C543 H529 0.931 . S
C543 C542 1.385 . S
C543 C544 1.389 . S
C544 C543 1.389 . S
C544 C545 1.387 . S
C545 H530 0.930 . S
C545 C540 1.390 . S
C545 C544 1.387 . S
H546 C558 0.930 . S
H547 C560 0.930 . S
H548 C561 0.930 . S
H549 C565 0.959 . S
H550 C565 0.959 . S
H551 C565 0.961 . S
H552 C566 0.960 . S
H553 C566 0.961 . S
H554 C566 0.959 . S
H555 C569 0.929 . S
H556 C570 0.931 . S
H557 C572 0.930 . S
C558 H546 0.930 . S
C558 C559 1.399 . S
C558 C563 1.399 . S
C559 C558 1.399 . S
C559 C560 1.376 . S
C560 H547 0.930 . S
C560 C559 1.376 . S
C560 C561 1.388 . S
C561 H548 0.930 . S
C561 C560 1.388 . S
C561 C562 1.390 . S
C562 C561 1.390 . S
C562 C563 1.394 . S
C562 C568 1.465 . S
C563 C558 1.399 . S
C563 C562 1.394 . S
C563 C564 1.516 . S
C564 C563 1.516 . S
C564 C565 1.502 . S
C564 C566 1.561 . S
C564 C567 1.526 . S
C565 H549 0.959 . S
C565 H550 0.959 . S
C565 H551 0.961 . S
C565 C564 1.502 . S
C566 H552 0.960 . S
C566 H553 0.961 . S
C566 H554 0.959 . S
C566 C564 1.561 . S
C567 C564 1.526 . S
C567 C568 1.396 . S
C567 C572 1.390 . S
C568 C562 1.465 . S
C568 C567 1.396 . S
C568 C569 1.399 . S
C569 H555 0.929 . S
C569 C568 1.399 . S
C569 C570 1.385 . S
C570 H556 0.931 . S
C570 C569 1.385 . S
C570 C571 1.389 . S
C571 C570 1.389 . S
C571 C572 1.387 . S
C572 H557 0.930 . S
C572 C567 1.390 . S
C572 C571 1.387 . S
H573 C585 0.930 . S
H574 C587 0.930 . S
H575 C588 0.930 . S
H576 C592 0.959 . S
H577 C592 0.959 . S
H578 C592 0.961 . S
H579 C593 0.960 . S
H580 C593 0.961 . S
H581 C593 0.959 . S
H582 C596 0.929 . S
H583 C597 0.931 . S
H584 C599 0.930 . S
C585 H573 0.930 . S
C585 C586 1.399 . S
C585 C590 1.399 . S
C586 C585 1.399 . S
C586 C587 1.376 . S
C587 H574 0.930 . S
C587 C586 1.376 . S
C587 C588 1.388 . S
C588 H575 0.930 . S
C588 C587 1.388 . S
C588 C589 1.390 . S
C589 C588 1.390 . S
C589 C590 1.394 . S
C589 C595 1.465 . S
C590 C585 1.399 . S
C590 C589 1.394 . S
C590 C591 1.516 . S
C591 C590 1.516 . S
C591 C592 1.502 . S
C591 C593 1.561 . S
C591 C594 1.526 . S
C592 H576 0.959 . S
C592 H577 0.959 . S
C592 H578 0.961 . S
C592 C591 1.502 . S
C593 H579 0.960 . S
C593 H580 0.961 . S
C593 H581 0.959 . S
C593 C591 1.561 . S
C594 C591 1.526 . S
C594 C595 1.396 . S
C594 C599 1.390 . S
C595 C589 1.465 . S
C595 C594 1.396 . S
C595 C596 1.399 . S
C596 H582 0.929 . S
C596 C595 1.399 . S
C596 C597 1.385 . S
C597 H583 0.931 . S
C597 C596 1.385 . S
C597 C598 1.389 . S
C598 C597 1.389 . S
C598 C599 1.387 . S
C599 H584 0.930 . S
C599 C594 1.390 . S
C599 C598 1.387 . S
H600 C612 0.930 . S
H601 C614 0.930 . S
H602 C615 0.930 . S
H603 C619 0.959 . S
H604 C619 0.959 . S
H605 C619 0.961 . S
H606 C620 0.960 . S
H607 C620 0.961 . S
H608 C620 0.959 . S
H609 C623 0.929 . S
H610 C624 0.931 . S
H611 C626 0.930 . S
C612 H600 0.930 . S
C612 C613 1.399 . S
C612 C617 1.399 . S
C613 C612 1.399 . S
C613 C614 1.376 . S
C614 H601 0.930 . S
C614 C613 1.376 . S
C614 C615 1.388 . S
C615 H602 0.930 . S
C615 C614 1.388 . S
C615 C616 1.390 . S
C616 C615 1.390 . S
C616 C617 1.394 . S
C616 C622 1.465 . S
C617 C612 1.399 . S
C617 C616 1.394 . S
C617 C618 1.516 . S
C618 C617 1.516 . S
C618 C619 1.502 . S
C618 C620 1.561 . S
C618 C621 1.526 . S
C619 H603 0.959 . S
C619 H604 0.959 . S
C619 H605 0.961 . S
C619 C618 1.502 . S
C620 H606 0.960 . S
C620 H607 0.961 . S
C620 H608 0.959 . S
C620 C618 1.561 . S
C621 C618 1.526 . S
C621 C622 1.396 . S
C621 C626 1.390 . S
C622 C616 1.465 . S
C622 C621 1.396 . S
C622 C623 1.399 . S
C623 H609 0.929 . S
C623 C622 1.399 . S
C623 C624 1.385 . S
C624 H610 0.931 . S
C624 C623 1.385 . S
C624 C625 1.389 . S
C625 C624 1.389 . S
C625 C626 1.387 . S
C626 H611 0.930 . S
C626 C621 1.390 . S
C626 C625 1.387 . S
H627 C639 0.930 . S
H628 C641 0.930 . S
H629 C642 0.930 . S
H630 C646 0.959 . S
H631 C646 0.959 . S
H632 C646 0.961 . S
H633 C647 0.960 . S
H634 C647 0.961 . S
H635 C647 0.959 . S
H636 C650 0.929 . S
H637 C651 0.931 . S
H638 C653 0.930 . S
C639 H627 0.930 . S
C639 C640 1.399 . S
C639 C644 1.399 . S
C640 C639 1.399 . S
C640 C641 1.376 . S
C641 H628 0.930 . S
C641 C640 1.376 . S
C641 C642 1.388 . S
C642 H629 0.930 . S
C642 C641 1.388 . S
C642 C643 1.390 . S
C643 C642 1.390 . S
C643 C644 1.394 . S
C643 C649 1.465 . S
C644 C639 1.399 . S
C644 C643 1.394 . S
C644 C645 1.516 . S
C645 C644 1.516 . S
C645 C646 1.502 . S
C645 C647 1.561 . S
C645 C648 1.526 . S
C646 H630 0.959 . S
C646 H631 0.959 . S
C646 H632 0.961 . S
C646 C645 1.502 . S
C647 H633 0.960 . S
C647 H634 0.961 . S
C647 H635 0.959 . S
C647 C645 1.561 . S
C648 C645 1.526 . S
C648 C649 1.396 . S
C648 C653 1.390 . S
C649 C643 1.465 . S
C649 C648 1.396 . S
C649 C650 1.399 . S
C650 H636 0.929 . S
C650 C649 1.399 . S
C650 C651 1.385 . S
C651 H637 0.931 . S
C651 C650 1.385 . S
C651 C652 1.389 . S
C652 C651 1.389 . S
C652 C653 1.387 . S
C653 H638 0.930 . S
C653 C648 1.390 . S
C653 C652 1.387 . S
H654 C666 0.930 . S
H655 C668 0.930 . S
H656 C669 0.930 . S
H657 C673 0.959 . S
H658 C673 0.959 . S
H659 C673 0.961 . S
H660 C674 0.960 . S
H661 C674 0.961 . S
H662 C674 0.959 . S
H663 C677 0.929 . S
H664 C678 0.931 . S
H665 C680 0.930 . S
C666 H654 0.930 . S
C666 C667 1.399 . S
C666 C671 1.399 . S
C667 C666 1.399 . S
C667 C668 1.376 . S
C668 H655 0.930 . S
C668 C667 1.376 . S
C668 C669 1.388 . S
C669 H656 0.930 . S
C669 C668 1.388 . S
C669 C670 1.390 . S
C670 C669 1.390 . S
C670 C671 1.394 . S
C670 C676 1.465 . S
C671 C666 1.399 . S
C671 C670 1.394 . S
C671 C672 1.516 . S
C672 C671 1.516 . S
C672 C673 1.502 . S
C672 C674 1.561 . S
C672 C675 1.526 . S
C673 H657 0.959 . S
C673 H658 0.959 . S
C673 H659 0.961 . S
C673 C672 1.502 . S
C674 H660 0.960 . S
C674 H661 0.961 . S
C674 H662 0.959 . S
C674 C672 1.561 . S
C675 C672 1.526 . S
C675 C676 1.396 . S
C675 C680 1.390 . S
C676 C670 1.465 . S
C676 C675 1.396 . S
C676 C677 1.399 . S
C677 H663 0.929 . S
C677 C676 1.399 . S
C677 C678 1.385 . S
C678 H664 0.931 . S
C678 C677 1.385 . S
C678 C679 1.389 . S
C679 C678 1.389 . S
C679 C680 1.387 . S
C680 H665 0.930 . S
C680 C675 1.390 . S
C680 C679 1.387 . S
H681 C693 0.930 . S
H682 C695 0.930 . S
H683 C696 0.930 . S
H684 C700 0.959 . S
H685 C700 0.959 . S
H686 C700 0.961 . S
H687 C701 0.960 . S
H688 C701 0.961 . S
H689 C701 0.959 . S
H690 C704 0.929 . S
H691 C705 0.931 . S
H692 C707 0.930 . S
C693 H681 0.930 . S
C693 C694 1.399 . S
C693 C698 1.399 . S
C694 C693 1.399 . S
C694 C695 1.376 . S
C695 H682 0.930 . S
C695 C694 1.376 . S
C695 C696 1.388 . S
C696 H683 0.930 . S
C696 C695 1.388 . S
C696 C697 1.390 . S
C697 C696 1.390 . S
C697 C698 1.394 . S
C697 C703 1.465 . S
C698 C693 1.399 . S
C698 C697 1.394 . S
C698 C699 1.516 . S
C699 C698 1.516 . S
C699 C700 1.502 . S
C699 C701 1.561 . S
C699 C702 1.526 . S
C700 H684 0.959 . S
C700 H685 0.959 . S
C700 H686 0.961 . S
C700 C699 1.502 . S
C701 H687 0.960 . S
C701 H688 0.961 . S
C701 H689 0.959 . S
C701 C699 1.561 . S
C702 C699 1.526 . S
C702 C703 1.396 . S
C702 C707 1.390 . S
C703 C697 1.465 . S
C703 C702 1.396 . S
C703 C704 1.399 . S
C704 H690 0.929 . S
C704 C703 1.399 . S
C704 C705 1.385 . S
C705 H691 0.931 . S
C705 C704 1.385 . S
C705 C706 1.389 . S
C706 C705 1.389 . S
C706 C707 1.387 . S
C707 H692 0.930 . S
C707 C702 1.390 . S
C707 C706 1.387 . S
H708 C720 0.930 . S
H709 C722 0.930 . S
H710 C723 0.930 . S
H711 C727 0.959 . S
H712 C727 0.959 . S
H713 C727 0.961 . S
H714 C728 0.960 . S
H715 C728 0.961 . S
H716 C728 0.959 . S
H717 C731 0.929 . S
H718 C732 0.931 . S
H719 C734 0.930 . S
C720 H708 0.930 . S
C720 C721 1.399 . S
C720 C725 1.399 . S
C721 C720 1.399 . S
C721 C722 1.376 . S
C722 H709 0.930 . S
C722 C721 1.376 . S
C722 C723 1.388 . S
C723 H710 0.930 . S
C723 C722 1.388 . S
C723 C724 1.390 . S
C724 C723 1.390 . S
C724 C725 1.394 . S
C724 C730 1.465 . S
C725 C720 1.399 . S
C725 C724 1.394 . S
C725 C726 1.516 . S
C726 C725 1.516 . S
C726 C727 1.502 . S
C726 C728 1.561 . S
C726 C729 1.526 . S
C727 H711 0.959 . S
C727 H712 0.959 . S
C727 H713 0.961 . S
C727 C726 1.502 . S
C728 H714 0.960 . S
C728 H715 0.961 . S
C728 H716 0.959 . S
C728 C726 1.561 . S
C729 C726 1.526 . S
C729 C730 1.396 . S
C729 C734 1.390 . S
C730 C724 1.465 . S
C730 C729 1.396 . S
C730 C731 1.399 . S
C731 H717 0.929 . S
C731 C730 1.399 . S
C731 C732 1.385 . S
C732 H718 0.931 . S
C732 C731 1.385 . S
C732 C733 1.389 . S
C733 C732 1.389 . S
C733 C734 1.387 . S
C734 H719 0.930 . S
C734 C729 1.390 . S
C734 C733 1.387 . S
H735 C747 0.930 . S
H736 C749 0.930 . S
H737 C750 0.930 . S
H738 C754 0.959 . S
H739 C754 0.959 . S
H740 C754 0.961 . S
H741 C755 0.960 . S
H742 C755 0.961 . S
H743 C755 0.959 . S
H744 C758 0.929 . S
H745 C759 0.931 . S
H746 C761 0.930 . S
C747 H735 0.930 . S
C747 C748 1.399 . S
C747 C752 1.399 . S
C748 C747 1.399 . S
C748 C749 1.376 . S
C749 H736 0.930 . S
C749 C748 1.376 . S
C749 C750 1.388 . S
C750 H737 0.930 . S
C750 C749 1.388 . S
C750 C751 1.390 . S
C751 C750 1.390 . S
C751 C752 1.394 . S
C751 C757 1.465 . S
C752 C747 1.399 . S
C752 C751 1.394 . S
C752 C753 1.516 . S
C753 C752 1.516 . S
C753 C754 1.502 . S
C753 C755 1.561 . S
C753 C756 1.526 . S
C754 H738 0.959 . S
C754 H739 0.959 . S
C754 H740 0.961 . S
C754 C753 1.502 . S
C755 H741 0.960 . S
C755 H742 0.961 . S
C755 H743 0.959 . S
C755 C753 1.561 . S
C756 C753 1.526 . S
C756 C757 1.396 . S
C756 C761 1.390 . S
C757 C751 1.465 . S
C757 C756 1.396 . S
C757 C758 1.399 . S
C758 H744 0.929 . S
C758 C757 1.399 . S
C758 C759 1.385 . S
C759 H745 0.931 . S
C759 C758 1.385 . S
C759 C760 1.389 . S
C760 C759 1.389 . S
C760 C761 1.387 . S
C761 H746 0.930 . S
C761 C756 1.390 . S
C761 C760 1.387 . S
H762 C774 0.930 . S
H763 C776 0.930 . S
H764 C777 0.930 . S
H765 C781 0.959 . S
H766 C781 0.959 . S
H767 C781 0.961 . S
H768 C782 0.960 1_455 S
H769 C782 0.961 . S
H770 C782 0.959 . S
H771 C785 0.929 . S
H772 C786 0.931 . S
H773 C788 0.930 . S
C774 H762 0.930 . S
C774 C775 1.399 . S
C774 C779 1.399 . S
C775 C774 1.399 . S
C775 C776 1.376 . S
C776 H763 0.930 . S
C776 C775 1.376 . S
C776 C777 1.388 . S
C777 H764 0.930 . S
C777 C776 1.388 . S
C777 C778 1.390 . S
C778 C777 1.390 . S
C778 C779 1.394 . S
C778 C784 1.465 1_445 S
C779 C774 1.399 . S
C779 C778 1.394 . S
C779 C780 1.516 1_545 S
C780 C779 1.516 1_565 S
C780 C781 1.502 . S
C780 C782 1.561 1_465 S
C780 C783 1.526 1_455 S
C781 H765 0.959 . S
C781 H766 0.959 . S
C781 H767 0.961 . S
C781 C780 1.502 . S
C782 H768 0.960 1_655 S
C782 H769 0.961 . S
C782 H770 0.959 . S
C782 C780 1.561 1_645 S
C783 C780 1.526 1_655 S
C783 C784 1.396 . S
C783 C788 1.390 . S
C784 C778 1.465 1_665 S
C784 C783 1.396 . S
C784 C785 1.399 . S
C785 H771 0.929 . S
C785 C784 1.399 . S
C785 C786 1.385 . S
C786 H772 0.931 . S
C786 C785 1.385 . S
C786 C787 1.389 . S
C787 C786 1.389 . S
C787 C788 1.387 . S
C788 H773 0.930 . S
C788 C783 1.390 . S
C788 C787 1.387 . S
H789 C801 0.930 . S
H790 C803 0.930 . S
H791 C804 0.930 . S
H792 C808 0.959 . S
H793 C808 0.959 . S
H794 C808 0.961 . S
H795 C809 0.983 . S
H796 C809 0.961 1_455 S
H797 C809 0.959 . S
H798 C812 0.929 . S
H799 C813 0.931 . S
H800 C815 0.930 . S
C801 H789 0.930 . S
C801 C802 1.399 . S
C801 C806 1.399 . S
C802 C801 1.399 . S
C802 C803 1.376 . S
C803 H790 0.930 . S
C803 C802 1.376 . S
C803 C804 1.388 . S
C804 H791 0.930 . S
C804 C803 1.388 . S
C804 C805 1.390 . S
C805 C804 1.390 . S
C805 C806 1.394 . S
C805 C811 1.465 1_645 S
C806 C801 1.399 . S
C806 C805 1.394 . S
C806 C807 1.516 1_655 S
C807 C806 1.516 1_455 S
C807 C808 1.502 . S
C807 C809 1.561 1_445 S
C807 C810 1.526 1_545 S
C808 H792 0.959 . S
C808 H793 0.959 . S
C808 H794 0.961 . S
C808 C807 1.502 . S
C809 H795 0.983 . S
C809 H796 0.961 1_655 S
C809 H797 0.959 . S
C809 C807 1.561 1_665 S
C810 C807 1.526 1_565 S
C810 C811 1.396 . S
C810 C815 1.390 . S
C811 C805 1.465 1_465 S
C811 C810 1.396 . S
C811 C812 1.399 . S
C812 H798 0.929 . S
C812 C811 1.399 . S
C812 C813 1.385 . S
C813 H799 0.931 . S
C813 C812 1.385 . S
C813 C814 1.389 . S
C814 C813 1.389 . S
C814 C815 1.387 . S
C815 H800 0.930 . S
C815 C810 1.390 . S
C815 C814 1.387 . S
H816 C828 0.930 . S
H817 C830 0.930 . S
H818 C831 0.912 1_554 S
H819 C835 0.959 . S
H820 C835 0.959 . S
H821 C835 0.961 . S
H822 C836 0.960 . S
H823 C836 0.961 . S
H824 C836 0.959 . S
H825 C839 0.929 1_565 S
H826 C840 0.931 . S
H827 C842 0.930 . S
C828 H816 0.930 . S
C828 C829 1.399 . S
C828 C833 1.399 . S
C829 C828 1.399 . S
C829 C830 1.376 . S
C830 H817 0.930 . S
C830 C829 1.376 . S
C830 C831 1.405 . S
C831 H818 0.912 1_556 S
C831 C830 1.405 . S
C831 C832 1.391 . S
C832 C831 1.391 . S
C832 C833 1.394 . S
C832 C838 1.465 1_566 S
C833 C828 1.399 . S
C833 C832 1.394 . S
C833 C834 1.516 1_565 S
C834 C833 1.516 1_545 S
C834 C835 1.502 . S
C834 C836 1.561 . S
C834 C837 1.526 1_556 S
C835 H819 0.959 . S
C835 H820 0.959 . S
C835 H821 0.961 . S
C835 C834 1.502 . S
C836 H822 0.960 . S
C836 H823 0.961 . S
C836 H824 0.959 . S
C836 C834 1.561 . S
C837 C834 1.526 1_554 S
C837 C838 1.396 . S
C837 C842 1.390 . S
C838 C832 1.465 1_544 S
C838 C837 1.396 . S
C838 C839 1.399 . S
C839 H825 0.929 1_545 S
C839 C838 1.399 . S
C839 C840 1.385 . S
C840 H826 0.931 . S
C840 C839 1.385 . S
C840 C841 1.389 . S
C841 C840 1.389 . S
C841 C842 1.387 . S
C842 H827 0.930 . S
C842 C837 1.390 . S
C842 C841 1.387 . S
H843 C855 0.930 . S
H844 C857 0.930 . S
H845 C858 0.930 . S
H846 C862 0.959 . S
H847 C862 0.959 . S
H848 C862 0.961 . S
H849 C863 0.960 . S
H850 C863 0.961 . S
H851 C863 0.959 . S
H852 C866 0.929 1_565 S
H853 C867 0.931 . S
H854 C869 0.930 . S
C855 H843 0.930 . S
C855 C856 1.399 . S
C855 C860 1.399 . S
C856 C855 1.399 . S
C856 C857 1.376 . S
C857 H844 0.930 . S
C857 C856 1.376 . S
C857 C858 1.388 1_554 S
C858 H845 0.930 . S
C858 C857 1.388 1_556 S
C858 C859 1.394 . S
C859 C858 1.394 . S
C859 C860 1.366 1_556 S
C859 C865 1.486 1_565 S
C860 C855 1.399 . S
C860 C859 1.366 1_554 S
C860 C861 1.516 1_565 S
C861 C860 1.516 1_545 S
C861 C862 1.502 . S
C861 C863 1.561 . S
C861 C864 1.526 1_554 S
C862 H846 0.959 . S
C862 H847 0.959 . S
C862 H848 0.961 . S
C862 C861 1.502 . S
C863 H849 0.960 . S
C863 H850 0.961 . S
C863 H851 0.959 . S
C863 C861 1.561 . S
C864 C861 1.526 1_556 S
C864 C865 1.396 . S
C864 C869 1.390 . S
C865 C859 1.486 1_545 S
C865 C864 1.396 . S
C865 C866 1.399 . S
C866 H852 0.929 1_545 S
C866 C865 1.399 . S
C866 C867 1.385 . S
C867 H853 0.931 . S
C867 C866 1.385 . S
C867 C868 1.389 . S
C868 C867 1.389 . S
C868 C869 1.387 . S
C869 H854 0.930 . S
C869 C864 1.390 . S
C869 C868 1.387 . S
H870 C882 0.930 . S
H871 C884 0.930 . S
H872 C885 0.930 . S
H873 C889 0.959 . S
H874 C889 0.959 . S
H875 C889 0.961 . S
H876 C890 0.960 1_655 S
H877 C890 0.961 1_554 S
H878 C890 0.959 . S
H879 C893 0.929 . S
H880 C894 0.931 . S
H881 C896 0.930 . S
C882 H870 0.930 . S
C882 C883 1.399 . S
C882 C887 1.399 . S
C883 C882 1.399 . S
C883 C884 1.376 . S
C884 H871 0.930 . S
C884 C883 1.376 . S
C884 C885 1.388 . S
C885 H872 0.930 . S
C885 C884 1.388 . S
C885 C886 1.390 . S
C886 C885 1.390 . S
C886 C887 1.394 . S
C886 C892 1.465 1_656 S
C887 C882 1.399 . S
C887 C886 1.394 . S
C887 C888 1.516 1_556 S
C888 C887 1.516 1_554 S
C888 C889 1.502 . S
C888 C890 1.561 1_654 S
C888 C891 1.526 1_655 S
C889 H873 0.959 . S
C889 H874 0.959 . S
C889 H875 0.961 . S
C889 C888 1.502 . S
C890 H876 0.960 1_455 S
C890 H877 0.961 1_556 S
C890 H878 0.959 . S
C890 C888 1.561 1_456 S
C891 C888 1.526 1_455 S
C891 C892 1.396 . S
C891 C896 1.390 . S
C892 C886 1.465 1_454 S
C892 C891 1.396 . S
C892 C893 1.399 . S
C893 H879 0.929 . S
C893 C892 1.399 . S
C893 C894 1.385 . S
C894 H880 0.931 . S
C894 C893 1.385 . S
C894 C895 1.389 . S
C895 C894 1.389 . S
C895 C896 1.387 . S
C896 H881 0.930 . S
C896 C891 1.390 . S
C896 C895 1.387 . S
H897 C909 0.930 . S
H898 C911 0.930 . S
H899 C912 0.930 1_655 S
H900 C916 0.959 1_655 S
H901 C916 0.959 . S
H902 C916 0.961 . S
H903 C917 0.960 . S
H904 C917 0.961 . S
H905 C917 0.959 . S
H906 C920 0.935 . S
H907 C921 0.931 . S
H908 C923 0.930 . S
C909 H897 0.930 . S
C909 C910 1.399 . S
C909 C914 1.399 . S
C910 C909 1.399 . S
C910 C911 1.376 . S
C911 H898 0.930 . S
C911 C910 1.376 . S
C911 C912 1.388 . S
C912 H899 0.930 1_455 S
C912 C911 1.388 . S
C912 C913 1.390 . S
C913 C912 1.390 . S
C913 C914 1.394 . S
C913 C919 1.465 1_456 S
C914 C909 1.399 . S
C914 C913 1.394 . S
C914 C915 1.516 1_556 S
C915 C914 1.516 1_554 S
C915 C916 1.502 . S
C915 C917 1.561 . S
C915 C918 1.526 1_455 S
C916 H900 0.959 1_455 S
C916 H901 0.959 . S
C916 H902 0.961 . S
C916 C915 1.502 . S
C917 H903 0.960 . S
C917 H904 0.961 . S
C917 H905 0.959 . S
C917 C915 1.561 . S
C918 C915 1.526 1_655 S
C918 C919 1.396 . S
C918 C923 1.390 . S
C919 C913 1.465 1_654 S
C919 C918 1.396 . S
C919 C920 1.399 . S
C920 H906 0.935 . S
C920 C919 1.399 . S
C920 C921 1.385 . S
C921 H907 0.931 . S
C921 C920 1.385 . S
C921 C922 1.389 . S
C922 C921 1.389 . S
C922 C923 1.387 . S
C923 H908 0.930 . S
C923 C918 1.390 . S
C923 C922 1.387 . S
C289 N81 1.152 . S
C301 N12 1.162 . S
C316 N58 1.138 . S
C328 N35 1.122 . S
C343 N127 1.156 . S
C355 N104 1.162 . S
C370 N150 1.123 . S
C382 N173 1.141 . S
C397 N219 1.121 . S
C409 N196 1.138 . S
C424 N242 1.120 . S
C436 N265 1.135 . S
C451 N2 1.489 . S
C463 C177 1.371 . S
C478 C154 1.424 . S
C490 N25 1.456 . S
C505 C131 1.433 . S
C517 N48 1.491 . S
C532 C108 1.368 . S
C544 N71 1.491 . S
C559 N94 1.456 . S
C571 C269 1.463 . S
C586 C200 1.420 . S
C598 N117 1.457 . S
C613 C246 1.400 . S
C625 N140 1.468 . S
C640 N163 1.518 . S
C652 C223 1.346 . S
C667 C62 1.463 . S
C679 N186 1.461 . S
C694 C16 1.347 . S
C706 N209 1.513 . S
C721 N232 1.469 . S
C733 C39 1.398 . S
C748 C85 1.355 . S
C760 N255 1.503 . S
C775 C7 2.068 . S
C787 C30 2.094 . S
C802 C76 2.069 . S
C814 C53 2.042 . S
C829 C145 2.096 . S
C841 C99 2.063 . S
C856 C122 2.093 . S
C868 C168 2.044 . S
C883 C237 2.070 . S
C895 C191 2.041 . S
C910 C214 2.092 . S
C922 C260 2.074 . S
