# Generated by pormake.
# Topology wna, (6)-cn, num edge types: 1
# Building blocks:
#     Node 0, Type 0, BuildingBlock: FUNLAD_clean_sbu_0, # of connection points: 6
#     Node 1, Type 0, BuildingBlock: FUNLAD_clean_sbu_0, # of connection points: 6
#     Node 2, Type 0, BuildingBlock: FUNLAD_clean_sbu_0, # of connection points: 6
#     Node 3, Type 0, BuildingBlock: FUNLAD_clean_sbu_0, # of connection points: 6
#     Node 4, Type 0, BuildingBlock: FUNLAD_clean_sbu_0, # of connection points: 6
#     Node 5, Type 0, BuildingBlock: FUNLAD_clean_sbu_0, # of connection points: 6
#     Node 6, Type 0, BuildingBlock: FUNLAD_clean_sbu_0, # of connection points: 6
#     Node 7, Type 0, BuildingBlock: FUNLAD_clean_sbu_0, # of connection points: 6
#     Node 8, Type 0, BuildingBlock: FUNLAD_clean_sbu_0, # of connection points: 6
#     Node 9, Type 0, BuildingBlock: FUNLAD_clean_sbu_0, # of connection points: 6
#     Node 10, Type 0, BuildingBlock: FUNLAD_clean_sbu_0, # of connection points: 6
#     Node 11, Type 0, BuildingBlock: FUNLAD_clean_sbu_0, # of connection points: 6
#     Node 12, Type 0, BuildingBlock: FUNLAD_clean_sbu_0, # of connection points: 6
#     Node 13, Type 0, BuildingBlock: FUNLAD_clean_sbu_0, # of connection points: 6
#     Node 14, Type 0, BuildingBlock: FUNLAD_clean_sbu_0, # of connection points: 6
#     Node 15, Type 0, BuildingBlock: FUNLAD_clean_sbu_0, # of connection points: 6
#     Node 16, Type 0, BuildingBlock: FUNLAD_clean_sbu_0, # of connection points: 6
#     Node 17, Type 0, BuildingBlock: FUNLAD_clean_sbu_0, # of connection points: 6
#     Node 18, Type 0, BuildingBlock: FUNLAD_clean_sbu_0, # of connection points: 6
#     Node 19, Type 0, BuildingBlock: FUNLAD_clean_sbu_0, # of connection points: 6
#     Node 20, Type 0, BuildingBlock: FUNLAD_clean_sbu_0, # of connection points: 6
#     Node 21, Type 0, BuildingBlock: FUNLAD_clean_sbu_0, # of connection points: 6
#     Node 22, Type 0, BuildingBlock: FUNLAD_clean_sbu_0, # of connection points: 6
#     Node 23, Type 0, BuildingBlock: FUNLAD_clean_sbu_0, # of connection points: 6
#     Node 24, Type 0, BuildingBlock: FUNLAD_clean_sbu_0, # of connection points: 6
#     Node 25, Type 0, BuildingBlock: FUNLAD_clean_sbu_0, # of connection points: 6
#     Node 26, Type 0, BuildingBlock: FUNLAD_clean_sbu_0, # of connection points: 6
#     Node 27, Type 0, BuildingBlock: FUNLAD_clean_sbu_0, # of connection points: 6
#     Node 28, Type 0, BuildingBlock: FUNLAD_clean_sbu_0, # of connection points: 6
#     Node 29, Type 0, BuildingBlock: FUNLAD_clean_sbu_0, # of connection points: 6
#     Node 30, Type 0, BuildingBlock: FUNLAD_clean_sbu_0, # of connection points: 6
#     Node 31, Type 0, BuildingBlock: FUNLAD_clean_sbu_0, # of connection points: 6
#     Node 32, Type 0, BuildingBlock: FUNLAD_clean_sbu_0, # of connection points: 6
#     Node 33, Type 0, BuildingBlock: FUNLAD_clean_sbu_0, # of connection points: 6
#     Node 34, Type 0, BuildingBlock: FUNLAD_clean_sbu_0, # of connection points: 6
#     Node 35, Type 0, BuildingBlock: FUNLAD_clean_sbu_0, # of connection points: 6
#     Edge 36, Type (0, 0), None
#     Edge 37, Type (0, 0), None
#     Edge 38, Type (0, 0), None
#     Edge 39, Type (0, 0), None
#     Edge 40, Type (0, 0), None
#     Edge 41, Type (0, 0), None
#     Edge 42, Type (0, 0), None
#     Edge 43, Type (0, 0), None
#     Edge 44, Type (0, 0), None
#     Edge 45, Type (0, 0), None
#     Edge 46, Type (0, 0), None
#     Edge 47, Type (0, 0), None
#     Edge 48, Type (0, 0), None
#     Edge 49, Type (0, 0), None
#     Edge 50, Type (0, 0), None
#     Edge 51, Type (0, 0), None
#     Edge 52, Type (0, 0), None
#     Edge 53, Type (0, 0), None
#     Edge 54, Type (0, 0), None
#     Edge 55, Type (0, 0), None
#     Edge 56, Type (0, 0), None
#     Edge 57, Type (0, 0), None
#     Edge 58, Type (0, 0), None
#     Edge 59, Type (0, 0), None
#     Edge 60, Type (0, 0), None
#     Edge 61, Type (0, 0), None
#     Edge 62, Type (0, 0), None
#     Edge 63, Type (0, 0), None
#     Edge 64, Type (0, 0), None
#     Edge 65, Type (0, 0), None
#     Edge 66, Type (0, 0), None
#     Edge 67, Type (0, 0), None
#     Edge 68, Type (0, 0), None
#     Edge 69, Type (0, 0), None
#     Edge 70, Type (0, 0), None
#     Edge 71, Type (0, 0), None
#     Edge 72, Type (0, 0), None
#     Edge 73, Type (0, 0), None
#     Edge 74, Type (0, 0), None
#     Edge 75, Type (0, 0), None
#     Edge 76, Type (0, 0), None
#     Edge 77, Type (0, 0), None
#     Edge 78, Type (0, 0), None
#     Edge 79, Type (0, 0), None
#     Edge 80, Type (0, 0), None
#     Edge 81, Type (0, 0), None
#     Edge 82, Type (0, 0), None
#     Edge 83, Type (0, 0), None
#     Edge 84, Type (0, 0), None
#     Edge 85, Type (0, 0), None
#     Edge 86, Type (0, 0), None
#     Edge 87, Type (0, 0), None
#     Edge 88, Type (0, 0), None
#     Edge 89, Type (0, 0), None
#     Edge 90, Type (0, 0), None
#     Edge 91, Type (0, 0), None
#     Edge 92, Type (0, 0), None
#     Edge 93, Type (0, 0), None
#     Edge 94, Type (0, 0), None
#     Edge 95, Type (0, 0), None
#     Edge 96, Type (0, 0), None
#     Edge 97, Type (0, 0), None
#     Edge 98, Type (0, 0), None
#     Edge 99, Type (0, 0), None
#     Edge 100, Type (0, 0), None
#     Edge 101, Type (0, 0), None
#     Edge 102, Type (0, 0), None
#     Edge 103, Type (0, 0), None
#     Edge 104, Type (0, 0), None
#     Edge 105, Type (0, 0), None
#     Edge 106, Type (0, 0), None
#     Edge 107, Type (0, 0), None
#     Edge 108, Type (0, 0), None
#     Edge 109, Type (0, 0), None
#     Edge 110, Type (0, 0), None
#     Edge 111, Type (0, 0), None
#     Edge 112, Type (0, 0), None
#     Edge 113, Type (0, 0), None
#     Edge 114, Type (0, 0), None
#     Edge 115, Type (0, 0), None
#     Edge 116, Type (0, 0), None
#     Edge 117, Type (0, 0), None
#     Edge 118, Type (0, 0), None
#     Edge 119, Type (0, 0), None
#     Edge 120, Type (0, 0), None
#     Edge 121, Type (0, 0), None
#     Edge 122, Type (0, 0), None
#     Edge 123, Type (0, 0), None
#     Edge 124, Type (0, 0), None
#     Edge 125, Type (0, 0), None
#     Edge 126, Type (0, 0), None
#     Edge 127, Type (0, 0), None
#     Edge 128, Type (0, 0), None
#     Edge 129, Type (0, 0), None
#     Edge 130, Type (0, 0), None
#     Edge 131, Type (0, 0), None
#     Edge 132, Type (0, 0), None
#     Edge 133, Type (0, 0), None
#     Edge 134, Type (0, 0), None
#     Edge 135, Type (0, 0), None
#     Edge 136, Type (0, 0), None
#     Edge 137, Type (0, 0), None
#     Edge 138, Type (0, 0), None
#     Edge 139, Type (0, 0), None
#     Edge 140, Type (0, 0), None
#     Edge 141, Type (0, 0), None
#     Edge 142, Type (0, 0), None
#     Edge 143, Type (0, 0), None
# Relax obj value: 0.651
# Max RMSD: 0.442
# Mean RMSD: 0.391
data_MOF--net-wna--node1-FUNLAD_clean_sbu_0--edge1-none
_symmetry_space_group_name_H-M    P1
_symmetry_Int_Tables_number       1
_symmetry_cell_setting            triclinic
loop_
_symmetry_equiv_pos_as_xyz
'x, y, z'
_cell_length_a     25.272198
_cell_length_b     25.276507
_cell_length_c     33.29758
_cell_angle_alpha  90.01055
_cell_angle_beta   90.006684
_cell_angle_gamma 119.99279
loop_
_atom_site_label
_atom_site_type_symbol
_atom_site_fract_x
_atom_site_fract_y
_atom_site_fract_z
_atom_type_partial_charge
C0 C 0.04376 0.2017 0.16934 0.0
N1 N 0.14338 0.15765 0.08187 0.0
C2 C 0.17212 0.14508 0.11181 0.0
C3 C 0.19165 0.10289 0.10573 0.0
C4 C 0.17902 0.07113 0.06916 0.0
C5 C 0.15113 0.08626 0.03834 0.0
C6 C 0.13474 0.13081 0.04511 0.0
Zn7 Zn 0.11419 0.21947 0.09157 0.0
C8 C 0.98964 0.16718 0.06779 0.0
N9 N 0.06229 0.34885 0.10516 0.0
C10 C 0.10274 0.40548 0.09036 0.0
C11 C 1.00128 0.32714 0.10311 0.0
C12 C 0.97888 0.35749 0.08015 0.0
C13 C 0.01936 0.41323 0.0612 0.0
C14 C 0.08198 0.43899 0.06857 0.0
Zn15 Zn 0.08776 0.28344 0.10395 0.0
O16 O 0.05535 0.16906 0.14525 0.0
C17 C 0.2157 0.32656 0.12089 0.0
O18 O 0.06778 0.25875 0.16254 0.0
H19 H 0.96954 0.28336 0.11604 0.0
H20 H 0.17875 0.16667 0.14083 0.0
H21 H 0.15127 0.42234 0.09154 0.0
O22 O 0.18943 0.26997 0.12814 0.0
O23 O 0.18206 0.35006 0.11528 0.0
H24 H 0.11323 0.14241 0.02132 0.0
O25 O 0.10328 0.30702 0.04728 0.0
O26 O 0.16957 0.27728 0.03881 0.0
O27 O 0.99644 0.21131 0.0898 0.0
O28 O 0.03691 0.1667 0.05557 0.0
C29 C 0.14887 0.31227 0.02889 0.0
H30 H 0.21205 0.09184 0.13057 0.0
H31 H 0.13986 0.0621 0.00995 0.0
H32 H 0.9299 0.33693 0.07733 0.0
H33 H 0.11456 0.48295 0.05602 0.0
C34 C 0.80142 0.84251 0.16936 0.0
N35 N 0.84546 0.98615 0.08191 0.0
C36 C 0.85805 0.02746 0.11185 0.0
C37 C 0.90021 0.08918 0.10577 0.0
C38 C 0.93193 0.1083 0.06919 0.0
C39 C 0.91679 0.06528 0.03838 0.0
C40 C 0.87225 0.00434 0.04515 0.0
Zn41 Zn 0.78362 0.89516 0.0916 0.0
C42 C 0.83586 0.82289 0.0678 0.0
N43 N 0.6542 0.71392 0.10517 0.0
C44 C 0.59756 0.69773 0.09034 0.0
C45 C 0.67592 0.67463 0.10317 0.0
C46 C 0.64557 0.62187 0.08022 0.0
C47 C 0.58982 0.6066 0.06124 0.0
C48 C 0.56405 0.64345 0.06856 0.0
Zn49 Zn 0.71962 0.80479 0.10397 0.0
O50 O 0.83406 0.88672 0.14529 0.0
C51 C 0.67654 0.88962 0.12092 0.0
O52 O 0.74435 0.8095 0.16257 0.0
H53 H 0.7197 0.68668 0.11612 0.0
H54 H 0.83649 0.01252 0.14088 0.0
H55 H 0.5807 0.72941 0.09149 0.0
O56 O 0.73314 0.91991 0.12818 0.0
O57 O 0.65301 0.83249 0.1153 0.0
H58 H 0.86064 0.97122 0.02135 0.0
O59 O 0.69601 0.79674 0.04732 0.0
O60 O 0.72581 0.89276 0.03884 0.0
O61 O 0.79174 0.78557 0.08982 0.0
O62 O 0.83635 0.87064 0.0556 0.0
C63 C 0.6908 0.83708 0.02891 0.0
H64 H 0.91128 0.12064 0.13061 0.0
H65 H 0.94091 0.07815 0.00998 0.0
H66 H 0.66613 0.59345 0.07744 0.0
H67 H 0.52009 0.63207 0.05599 0.0
C68 C 0.16061 0.95939 0.16932 0.0
N69 N 0.01692 0.85972 0.08188 0.0
C70 C 0.97564 0.83102 0.11182 0.0
C71 C 0.91391 0.81146 0.10576 0.0
C72 C 0.89473 0.82402 0.06918 0.0
C73 C 0.93772 0.85187 0.03835 0.0
C74 C 0.99868 0.86829 0.04511 0.0
Zn75 Zn 0.10793 0.88891 0.09156 0.0
C76 C 0.18016 0.01339 0.06777 0.0
N77 N 0.28923 0.9408 0.10516 0.0
C78 C 0.30544 0.90036 0.09034 0.0
C79 C 0.3285 0.0018 0.10314 0.0
C80 C 0.38125 0.02421 0.08019 0.0
C81 C 0.39653 0.98375 0.06121 0.0
C82 C 0.35971 0.92114 0.06855 0.0
Zn83 Zn 0.19834 0.91532 0.10394 0.0
O84 O 0.11637 0.94779 0.14524 0.0
C85 C 0.11356 0.78742 0.12088 0.0
O86 O 0.19365 0.93536 0.16253 0.0
H87 H 0.31644 0.03352 0.11609 0.0
H88 H 0.99063 0.82443 0.14085 0.0
H89 H 0.27378 0.85184 0.09149 0.0
O90 O 0.08324 0.81372 0.12813 0.0
O91 O 0.17069 0.82104 0.11527 0.0
H92 H 0.03177 0.88977 0.02131 0.0
O93 O 0.20637 0.89974 0.04729 0.0
O94 O 0.11033 0.83351 0.03879 0.0
O95 O 0.21751 0.00662 0.08978 0.0
O96 O 0.13239 0.96614 0.05556 0.0
C97 C 0.16602 0.85419 0.02887 0.0
H98 H 0.88247 0.79109 0.1306 0.0
H99 H 0.9248 0.86309 0.00996 0.0
H100 H 0.40964 0.07319 0.0774 0.0
H101 H 0.3711 0.88857 0.05599 0.0
C102 C 0.18717 0.01054 0.19879 0.0
N103 N 0.15477 0.13059 0.28124 0.0
C104 C 0.14918 0.16854 0.25467 0.0
C105 C 0.11372 0.19516 0.26412 0.0
C106 C 0.08083 0.18035 0.30034 0.0
C107 C 0.08936 0.14348 0.32792 0.0
C108 C 0.12781 0.12039 0.31819 0.0
Zn109 Zn 0.21391 0.09674 0.2699 0.0
C110 C 0.16386 0.97671 0.30317 0.0
N111 N 0.33989 0.04022 0.26 0.0
C112 C 0.38839 0.06473 0.23448 0.0
C113 C 0.33822 0.00658 0.29243 0.0
C114 C 0.38505 0.99429 0.29939 0.0
C115 C 0.43399 0.01623 0.27253 0.0
C116 C 0.43649 0.05326 0.2403 0.0
Zn117 Zn 0.2763 0.06633 0.26022 0.0
O118 O 0.15725 0.02865 0.22077 0.0
C119 C 0.31576 0.18475 0.22433 0.0
O120 O 0.24381 0.03203 0.20532 0.0
H121 H 0.30085 0.98988 0.31349 0.0
H122 H 0.17144 0.178 0.22577 0.0
H123 H 0.38964 0.09276 0.20956 0.0
O124 O 0.25879 0.16247 0.22763 0.0
O125 O 0.3402 0.15474 0.23741 0.0
H126 H 0.13513 0.09364 0.3404 0.0
O127 O 0.31015 0.09811 0.31383 0.0
O128 O 0.27802 0.16295 0.31647 0.0
O129 O 0.2072 0.97885 0.28252 0.0
O130 O 0.1663 0.02661 0.31202 0.0
C131 C 0.31593 0.14672 0.32782 0.0
H132 H 0.10864 0.22349 0.2419 0.0
H133 H 0.06468 0.13072 0.35613 0.0
H134 H 0.38096 0.96426 0.32393 0.0
H135 H 0.4726 0.06904 0.2181 0.0
C136 C 0.99263 0.17711 0.19881 0.0
N137 N 0.87261 0.02466 0.28124 0.0
C138 C 0.83461 0.98111 0.25468 0.0
C139 C 0.80801 0.91906 0.26413 0.0
C140 C 0.82289 0.901 0.30033 0.0
C141 C 0.85982 0.94641 0.32791 0.0
C142 C 0.88289 0.00794 0.31818 0.0
Zn143 Zn 0.90642 0.11765 0.2699 0.0
C144 C 0.02643 0.18767 0.30321 0.0
N145 N 0.96288 0.30012 0.26 0.0
C146 C 0.93837 0.32411 0.23447 0.0
C147 C 0.99653 0.3321 0.29244 0.0
C148 C 0.00883 0.39121 0.29941 0.0
C149 C 0.98689 0.4182 0.27253 0.0
C150 C 0.94985 0.38366 0.24029 0.0
Zn151 Zn 0.93681 0.21044 0.26022 0.0
O152 O 0.97454 0.12911 0.22079 0.0
C153 C 0.81838 0.13144 0.22428 0.0
O154 O 0.97113 0.21226 0.20533 0.0
H155 H 0.01323 0.31143 0.31352 0.0
H156 H 0.82508 0.99389 0.22579 0.0
H157 H 0.91034 0.29732 0.20955 0.0
O158 O 0.84069 0.09678 0.2276 0.0
O159 O 0.84837 0.18588 0.23737 0.0
H160 H 0.90969 0.042 0.34037 0.0
O161 O 0.90499 0.21249 0.31381 0.0
O162 O 0.84019 0.11553 0.31644 0.0
O163 O 0.02431 0.22886 0.28256 0.0
O164 O 0.97655 0.1402 0.31205 0.0
C165 C 0.85638 0.16965 0.32779 0.0
H166 H 0.77964 0.88564 0.24191 0.0
H167 H 0.87264 0.93452 0.3561 0.0
H168 H 0.03887 0.41715 0.32395 0.0
H169 H 0.93406 0.40399 0.21809 0.0
C170 C 0.82601 0.81595 0.19883 0.0
N171 N 0.97848 0.84831 0.28127 0.0
C172 C 0.022 0.85391 0.25467 0.0
C173 C 0.08407 0.8894 0.26409 0.0
C174 C 0.10216 0.92231 0.30031 0.0
C175 C 0.0568 0.91378 0.32793 0.0
C176 C 0.99525 0.87529 0.31822 0.0
Zn177 Zn 0.88547 0.78919 0.26992 0.0
C178 C 0.81553 0.83928 0.30322 0.0
N179 N 0.70296 0.66329 0.26001 0.0
C180 C 0.67897 0.61476 0.23451 0.0
C181 C 0.671 0.665 0.29244 0.0
C182 C 0.6119 0.61818 0.29942 0.0
C183 C 0.5849 0.56921 0.27257 0.0
C184 C 0.61943 0.56668 0.24034 0.0
Zn185 Zn 0.79267 0.72685 0.26024 0.0
O186 O 0.87403 0.84586 0.22082 0.0
C187 C 0.8716 0.68734 0.22432 0.0
O188 O 0.79085 0.75932 0.20535 0.0
H189 H 0.69168 0.7024 0.3135 0.0
H190 H 0.00918 0.83163 0.22577 0.0
H191 H 0.70575 0.61348 0.20959 0.0
O192 O 0.9063 0.7443 0.22762 0.0
O193 O 0.81718 0.66294 0.23742 0.0
H194 H 0.9612 0.86797 0.34043 0.0
O195 O 0.7906 0.69302 0.31385 0.0
O196 O 0.88756 0.72504 0.31647 0.0
O197 O 0.7743 0.79598 0.28256 0.0
O198 O 0.86298 0.83682 0.31208 0.0
C199 C 0.83342 0.68717 0.32782 0.0
H200 H 0.11748 0.8945 0.24185 0.0
H201 H 0.06873 0.93848 0.35613 0.0
H202 H 0.58596 0.6223 0.32396 0.0
H203 H 0.5991 0.53054 0.21816 0.0
C204 C 0.85498 0.69011 0.79744 0.0
N205 N 0.94151 0.65348 0.72117 0.0
C206 C 0.00253 0.67524 0.72325 0.0
C207 C 0.02493 0.6449 0.74621 0.0
C208 C 0.98446 0.58914 0.76514 0.0
C209 C 0.92184 0.56334 0.75775 0.0
C210 C 0.90107 0.59683 0.73594 0.0
Zn211 Zn 0.91609 0.71894 0.72238 0.0
C212 C 0.78815 0.67582 0.70544 0.0
N213 N 0.86048 0.84473 0.74446 0.0
C214 C 0.8691 0.87156 0.78123 0.0
C215 C 0.83174 0.8573 0.71452 0.0
C216 C 0.8122 0.89948 0.7206 0.0
C217 C 0.82481 0.93124 0.75717 0.0
C218 C 0.8527 0.91611 0.78799 0.0
Zn219 Zn 0.88967 0.78291 0.73476 0.0
O220 O 0.90056 0.69534 0.77904 0.0
C221 C 0.01421 0.8352 0.75855 0.0
O222 O 0.83429 0.72511 0.78752 0.0
H223 H 0.82511 0.83571 0.6855 0.0
H224 H 0.03426 0.71902 0.71032 0.0
H225 H 0.89062 0.85997 0.80502 0.0
O226 O 0.00741 0.79106 0.73653 0.0
O227 O 0.96694 0.83568 0.77076 0.0
H228 H 0.85254 0.57995 0.73474 0.0
O229 O 0.9485 0.83332 0.68108 0.0
O230 O 0.93607 0.74364 0.66379 0.0
O231 O 0.81443 0.73241 0.69819 0.0
O232 O 0.82179 0.65232 0.71106 0.0
C233 C 0.96009 0.80069 0.657 0.0
H234 H 0.07392 0.66549 0.74905 0.0
H235 H 0.88927 0.51937 0.77027 0.0
H236 H 0.7918 0.91054 0.69576 0.0
H237 H 0.86397 0.94027 0.81639 0.0
C238 C 0.31305 0.16531 0.79743 0.0
N239 N 0.34969 0.28845 0.72116 0.0
C240 C 0.32793 0.32771 0.7232 0.0
C241 C 0.35827 0.38047 0.74615 0.0
C242 C 0.41403 0.39577 0.76511 0.0
C243 C 0.43984 0.35895 0.75776 0.0
C244 C 0.40634 0.30467 0.73597 0.0
Zn245 Zn 0.28422 0.19759 0.72237 0.0
C246 C 0.3273 0.11275 0.70542 0.0
N247 N 0.15838 0.01623 0.74442 0.0
C248 C 0.13159 0.99804 0.78119 0.0
C249 C 0.14579 0.97492 0.71448 0.0
C250 C 0.10363 0.91321 0.72056 0.0
C251 C 0.07192 0.89408 0.75714 0.0
C252 C 0.08706 0.9371 0.78796 0.0
Zn253 Zn 0.22022 0.10722 0.73474 0.0
O254 O 0.30785 0.20565 0.77902 0.0
C255 C 0.16798 0.1795 0.75854 0.0
O256 O 0.27802 0.10963 0.7875 0.0
H257 H 0.16735 0.98987 0.68545 0.0
H258 H 0.28414 0.31565 0.71025 0.0
H259 H 0.1432 0.03115 0.80499 0.0
O260 O 0.21211 0.21681 0.73653 0.0
O261 O 0.16749 0.13174 0.77074 0.0
H262 H 0.42323 0.27302 0.7348 0.0
O263 O 0.16978 0.11566 0.68105 0.0
O264 O 0.25948 0.19288 0.66377 0.0
O265 O 0.27069 0.08247 0.69816 0.0
O266 O 0.35083 0.16989 0.71104 0.0
C267 C 0.20242 0.15986 0.65697 0.0
H268 H 0.33767 0.40886 0.74895 0.0
H269 H 0.48381 0.37035 0.77031 0.0
H270 H 0.09256 0.88174 0.69572 0.0
H271 H 0.06294 0.92422 0.81636 0.0
C272 C 0.8378 0.14818 0.79746 0.0
N273 N 0.71462 0.06163 0.72116 0.0
C274 C 0.67539 1.00062 0.72321 0.0
C275 C 0.62265 0.9782 0.74617 0.0
C276 C 0.60733 0.01865 0.76513 0.0
C277 C 0.64412 0.08126 0.75776 0.0
C278 C 0.69838 0.10205 0.73596 0.0
Zn279 Zn 0.8055 0.08706 0.72239 0.0
C280 C 0.89029 0.21495 0.70545 0.0
N281 N 0.98691 0.14265 0.74446 0.0
C282 C 0.00516 0.13409 0.78122 0.0
C283 C 0.0282 0.17135 0.71451 0.0
C284 C 0.08993 0.19091 0.72058 0.0
C285 C 0.10911 0.17836 0.75716 0.0
C286 C 0.06612 0.15051 0.78799 0.0
Zn287 Zn 0.8959 0.11345 0.73477 0.0
O288 O 0.79745 0.10264 0.77904 0.0
C289 C 0.82367 0.98897 0.75857 0.0
O290 O 0.89349 0.16884 0.78754 0.0
H291 H 0.0132 0.17792 0.68548 0.0
H292 H 0.68745 0.9689 0.71026 0.0
H293 H 0.97207 0.1126 0.80502 0.0
O294 O 0.78632 0.99575 0.73655 0.0
O295 O 0.87145 0.03622 0.77077 0.0
H296 H 0.73002 0.15058 0.73478 0.0
O297 O 0.88747 0.05458 0.68109 0.0
O298 O 0.8102 0.06701 0.6638 0.0
O299 O 0.9206 0.18865 0.6982 0.0
O300 O 0.83316 0.18133 0.71106 0.0
C301 C 0.84324 0.04298 0.65701 0.0
H302 H 0.59427 0.92922 0.74899 0.0
H303 H 0.6327 0.11382 0.7703 0.0
H304 H 0.12137 0.21128 0.69573 0.0
H305 H 0.07904 0.13929 0.81638 0.0
C306 C 0.68791 0.85564 0.49851 0.0
N307 N 0.66395 0.96215 0.56635 0.0
C308 C 0.66562 0.99578 0.53392 0.0
C309 C 0.61879 0.00807 0.52694 0.0
C310 C 0.56985 0.98614 0.55381 0.0
C311 C 0.56734 0.94909 0.58603 0.0
C312 C 0.61543 0.93762 0.59186 0.0
Zn313 Zn 0.72754 0.93604 0.56611 0.0
C314 C 0.68809 0.81762 0.602 0.0
N315 N 0.84908 0.87178 0.54509 0.0
C316 C 0.87603 0.88198 0.50814 0.0
C317 C 0.85467 0.83383 0.57166 0.0
C318 C 0.89012 0.80721 0.56221 0.0
C319 C 0.92302 0.82203 0.52599 0.0
C320 C 0.91449 0.85889 0.49841 0.0
Zn321 Zn 0.78994 0.90563 0.55643 0.0
O322 O 0.69368 0.90425 0.51251 0.0
C323 C 0.83998 0.02565 0.52316 0.0
O324 O 0.72583 0.83943 0.50986 0.0
H325 H 0.83241 0.82436 0.60056 0.0
H326 H 0.703 0.01248 0.51285 0.0
H327 H 0.86871 0.90873 0.48594 0.0
O328 O 0.79664 0.02352 0.54381 0.0
O329 O 0.83755 0.97576 0.51431 0.0
H330 H 0.61418 0.90958 0.61677 0.0
O331 O 0.8466 0.97373 0.60556 0.0
O332 O 0.76003 0.97033 0.62101 0.0
O333 O 0.74506 0.8399 0.5987 0.0
O334 O 0.66365 0.84763 0.58892 0.0
C335 C 0.81668 0.99183 0.62754 0.0
H336 H 0.62289 0.0381 0.50241 0.0
H337 H 0.53122 0.9333 0.60822 0.0
H338 H 0.89521 0.77888 0.58443 0.0
H339 H 0.93916 0.87166 0.4702 0.0
C340 C 0.14747 0.83272 0.49854 0.0
N341 N 0.04096 0.70225 0.56635 0.0
C342 C 0.00732 0.67029 0.5339 0.0
C343 C 0.99502 0.61118 0.52693 0.0
C344 C 0.01696 0.58418 0.5538 0.0
C345 C 0.05401 0.61871 0.58604 0.0
C346 C 0.06549 0.67826 0.59186 0.0
Zn347 Zn 0.06705 0.79194 0.56612 0.0
C348 C 0.18546 0.87094 0.60205 0.0
N349 N 0.13124 0.97771 0.5451 0.0
C350 C 0.12097 0.99444 0.50816 0.0
C351 C 0.16924 0.02127 0.57165 0.0
C352 C 0.19583 0.08332 0.56221 0.0
C353 C 0.18096 0.10138 0.526 0.0
C354 C 0.14404 0.05597 0.49843 0.0
Zn355 Zn 0.09743 0.88473 0.55643 0.0
O356 O 0.09887 0.78988 0.51253 0.0
C357 C 0.97742 0.81471 0.52312 0.0
O358 O 0.16366 0.88685 0.50989 0.0
H359 H 0.17877 0.00849 0.60055 0.0
H360 H 0.99062 0.69096 0.51283 0.0
H361 H 0.09418 0.96037 0.48596 0.0
O362 O 0.97954 0.77352 0.54377 0.0
O363 O 0.0273 0.86218 0.51428 0.0
H364 H 0.09354 0.70505 0.61678 0.0
O365 O 0.02931 0.87327 0.60555 0.0
O366 O 0.03273 0.79013 0.621 0.0
O367 O 0.16316 0.9056 0.59873 0.0
O368 O 0.15548 0.8165 0.58897 0.0
C369 C 0.01122 0.82527 0.62752 0.0
H370 H 0.96498 0.58524 0.50239 0.0
H371 H 0.06981 0.59839 0.60823 0.0
H372 H 0.2242 0.11674 0.58442 0.0
H373 H 0.13122 0.06786 0.47023 0.0
C374 C 0.17042 0.3152 0.49851 0.0
N375 N 0.30088 0.33909 0.56634 0.0
C376 C 0.33283 0.33737 0.5339 0.0
C377 C 0.39193 0.38419 0.52692 0.0
C378 C 0.41893 0.43317 0.55376 0.0
C379 C 0.38441 0.43571 0.58599 0.0
C380 C 0.32487 0.38763 0.59183 0.0
Zn381 Zn 0.21117 0.27552 0.56609 0.0
C382 C 0.13223 0.31503 0.60201 0.0
N383 N 0.02536 0.15406 0.54507 0.0
C384 C 0.0086 0.12708 0.50812 0.0
C385 C 0.98184 0.14846 0.57166 0.0
C386 C 0.91976 0.11297 0.56223 0.0
C387 C 0.90168 0.08006 0.52602 0.0
C388 C 0.94704 0.08859 0.49841 0.0
Zn389 Zn 0.11837 0.21318 0.55641 0.0
O390 O 0.21324 0.30936 0.51249 0.0
C391 C 0.18832 0.1631 0.52311 0.0
O392 O 0.11628 0.27732 0.50986 0.0
H393 H 0.99465 0.17074 0.60056 0.0
H394 H 0.31215 0.29998 0.51285 0.0
H395 H 0.04265 0.1344 0.4859 0.0
O396 O 0.22954 0.2064 0.54377 0.0
O397 O 0.14086 0.16555 0.51426 0.0
H398 H 0.29809 0.38892 0.61674 0.0
O399 O 0.12981 0.15651 0.60552 0.0
O400 O 0.21299 0.24305 0.62098 0.0
O401 O 0.09754 0.25806 0.59871 0.0
O402 O 0.18666 0.33943 0.58892 0.0
C403 C 0.17783 0.18642 0.6275 0.0
H404 H 0.41786 0.38007 0.50238 0.0
H405 H 0.40474 0.47186 0.60817 0.0
H406 H 0.88636 0.10787 0.58448 0.0
H407 H 0.93512 0.0639 0.4702 0.0
C408 C 0.71044 0.53502 0.50266 0.0
N409 N 0.81005 0.49097 0.41521 0.0
C410 C 0.83879 0.4784 0.44515 0.0
C411 C 0.85832 0.43621 0.43908 0.0
C412 C 0.84569 0.40443 0.40251 0.0
C413 C 0.8178 0.41956 0.37169 0.0
C414 C 0.80142 0.46412 0.37845 0.0
Zn415 Zn 0.78086 0.55279 0.4249 0.0
C416 C 0.65631 0.50049 0.40112 0.0
N417 N 0.72895 0.68217 0.43847 0.0
C418 C 0.7694 0.7388 0.42367 0.0
C419 C 0.66794 0.66045 0.43642 0.0
C420 C 0.64554 0.69081 0.41347 0.0
C421 C 0.68603 0.74655 0.39452 0.0
C422 C 0.74865 0.77231 0.40188 0.0
Zn423 Zn 0.75442 0.61675 0.43726 0.0
O424 O 0.72203 0.50239 0.47859 0.0
C425 C 0.88237 0.65989 0.45422 0.0
O426 O 0.73444 0.59207 0.49586 0.0
H427 H 0.6362 0.61668 0.44935 0.0
H428 H 0.84543 0.5 0.47417 0.0
H429 H 0.81794 0.75565 0.42484 0.0
O430 O 0.8561 0.6033 0.46147 0.0
O431 O 0.84872 0.68338 0.44859 0.0
H432 H 0.7799 0.47571 0.35466 0.0
O433 O 0.76995 0.64032 0.3806 0.0
O434 O 0.83624 0.61058 0.37214 0.0
O435 O 0.66311 0.54463 0.42312 0.0
O436 O 0.70359 0.50001 0.3889 0.0
C437 C 0.81552 0.64555 0.3622 0.0
H438 H 0.87872 0.42516 0.46392 0.0
H439 H 0.80653 0.3954 0.3433 0.0
H440 H 0.59656 0.67025 0.41065 0.0
H441 H 0.78123 0.81626 0.38934 0.0
C442 C 0.46809 0.17583 0.50271 0.0
N443 N 0.51213 0.31946 0.41526 0.0
C444 C 0.52473 0.36078 0.4452 0.0
C445 C 0.56689 0.42249 0.43911 0.0
C446 C 0.5986 0.44161 0.40253 0.0
C447 C 0.58346 0.39858 0.37172 0.0
C448 C 0.53893 0.33764 0.37849 0.0
Zn449 Zn 0.45029 0.22848 0.42495 0.0
C450 C 0.50253 0.15619 0.40114 0.0
N451 N 0.32086 0.04724 0.43851 0.0
C452 C 0.26422 0.03105 0.42368 0.0
C453 C 0.34258 0.00795 0.4365 0.0
C454 C 0.31223 0.95519 0.41354 0.0
C455 C 0.25649 0.93992 0.39456 0.0
C456 C 0.23072 0.97678 0.40189 0.0
Zn457 Zn 0.38629 0.13811 0.43731 0.0
O458 O 0.50073 0.22004 0.47863 0.0
C459 C 0.34321 0.22294 0.45426 0.0
O460 O 0.41102 0.14281 0.4959 0.0
H461 H 0.38636 0.01999 0.44945 0.0
H462 H 0.50316 0.34584 0.47423 0.0
H463 H 0.24737 0.06273 0.42482 0.0
O464 O 0.39982 0.25323 0.46152 0.0
O465 O 0.31969 0.16581 0.44864 0.0
H466 H 0.52731 0.30452 0.3547 0.0
O467 O 0.36267 0.13006 0.38065 0.0
O468 O 0.3925 0.22609 0.37219 0.0
O469 O 0.4584 0.11888 0.42316 0.0
O470 O 0.50303 0.20395 0.38895 0.0
C471 C 0.35749 0.17041 0.36224 0.0
H472 H 0.57796 0.45396 0.46394 0.0
H473 H 0.60758 0.41145 0.34331 0.0
H474 H 0.3328 0.92677 0.41076 0.0
H475 H 0.18676 0.9654 0.38932 0.0
C476 C 0.82727 0.29269 0.50268 0.0
N477 N 0.68359 0.19302 0.41523 0.0
C478 C 0.6423 0.16432 0.44518 0.0
C479 C 0.58057 0.14476 0.43911 0.0
C480 C 0.5614 0.15732 0.40253 0.0
C481 C 0.60439 0.18517 0.3717 0.0
C482 C 0.66535 0.20159 0.37846 0.0
Zn483 Zn 0.7746 0.22222 0.42491 0.0
C484 C 0.84683 0.3467 0.40112 0.0
N485 N 0.95589 0.2741 0.43851 0.0
C486 C 0.9721 0.23367 0.42369 0.0
C487 C 0.99516 0.3351 0.4365 0.0
C488 C 0.04791 0.35752 0.41354 0.0
C489 C 0.06319 0.31706 0.39456 0.0
C490 C 0.02637 0.25445 0.4019 0.0
Zn491 Zn 0.865 0.24862 0.43729 0.0
O492 O 0.78303 0.28109 0.47859 0.0
C493 C 0.78022 0.12073 0.45423 0.0
O494 O 0.86031 0.26866 0.49589 0.0
H495 H 0.9831 0.36682 0.44945 0.0
H496 H 0.65729 0.15774 0.4742 0.0
H497 H 0.94045 0.18514 0.42484 0.0
O498 O 0.74991 0.14702 0.46148 0.0
O499 O 0.83736 0.15434 0.44862 0.0
H500 H 0.69844 0.22308 0.35466 0.0
O501 O 0.87304 0.23304 0.38064 0.0
O502 O 0.777 0.16683 0.37214 0.0
O503 O 0.88418 0.33992 0.42314 0.0
O504 O 0.79905 0.29945 0.38891 0.0
C505 C 0.83269 0.18751 0.36221 0.0
H506 H 0.54913 0.1244 0.46395 0.0
H507 H 0.59147 0.19639 0.3433 0.0
H508 H 0.0763 0.4065 0.41075 0.0
H509 H 0.03777 0.22189 0.38934 0.0
C510 C 0.85383 0.34385 0.53214 0.0
N511 N 0.82143 0.46392 0.61457 0.0
C512 C 0.81584 0.50187 0.588 0.0
C513 C 0.78039 0.52849 0.59745 0.0
C514 C 0.7475 0.51368 0.63367 0.0
C515 C 0.75603 0.47681 0.66125 0.0
C516 C 0.79448 0.45372 0.65152 0.0
Zn517 Zn 0.88058 0.43007 0.60323 0.0
C518 C 0.83055 0.31006 0.63652 0.0
N519 N 0.00657 0.37356 0.59334 0.0
C520 C 0.05507 0.39807 0.56783 0.0
C521 C 0.0049 0.33992 0.62578 0.0
C522 C 0.05173 0.32764 0.63276 0.0
C523 C 0.10067 0.3496 0.60589 0.0
C524 C 0.10317 0.38662 0.57365 0.0
Zn525 Zn 0.94297 0.39966 0.59356 0.0
O526 O 0.82391 0.36195 0.55411 0.0
C527 C 0.9824 0.51804 0.55764 0.0
O528 O 0.91048 0.36534 0.53866 0.0
H529 H 0.96752 0.32322 0.64684 0.0
H530 H 0.8381 0.51133 0.5591 0.0
H531 H 0.05631 0.42609 0.5429 0.0
O532 O 0.92543 0.49578 0.56094 0.0
O533 O 0.00686 0.48807 0.57074 0.0
H534 H 0.8018 0.42697 0.67373 0.0
O535 O 0.97682 0.43146 0.64716 0.0
O536 O 0.9447 0.49631 0.64979 0.0
O537 O 0.87388 0.31219 0.61587 0.0
O538 O 0.83299 0.35997 0.64537 0.0
C539 C 0.98261 0.48009 0.66114 0.0
H540 H 0.7753 0.55681 0.57523 0.0
H541 H 0.73135 0.46405 0.68946 0.0
H542 H 0.04765 0.29761 0.65729 0.0
H543 H 0.13929 0.4024 0.55146 0.0
C544 C 0.65931 0.51044 0.53214 0.0
N545 N 0.53928 0.35799 0.61457 0.0
C546 C 0.50128 0.31444 0.58802 0.0
C547 C 0.47468 0.25239 0.59747 0.0
C548 C 0.48956 0.23433 0.63368 0.0
C549 C 0.52649 0.27974 0.66125 0.0
C550 C 0.54956 0.34127 0.65151 0.0
Zn551 Zn 0.5731 0.45098 0.60322 0.0
C552 C 0.6931 0.521 0.63655 0.0
N553 N 0.62955 0.63345 0.59333 0.0
C554 C 0.60503 0.65743 0.5678 0.0
C555 C 0.6632 0.66543 0.62578 0.0
C556 C 0.67549 0.72454 0.63275 0.0
C557 C 0.65352 0.75149 0.60587 0.0
C558 C 0.61649 0.71697 0.57362 0.0
Zn559 Zn 0.60348 0.54377 0.59355 0.0
O560 O 0.64122 0.46244 0.55412 0.0
C561 C 0.48508 0.46477 0.5576 0.0
O562 O 0.6378 0.54559 0.53867 0.0
H563 H 0.67991 0.64476 0.64685 0.0
H564 H 0.49175 0.32721 0.55912 0.0
H565 H 0.577 0.63064 0.54288 0.0
O566 O 0.50738 0.4301 0.56092 0.0
O567 O 0.51504 0.5192 0.5707 0.0
H568 H 0.57635 0.37534 0.67371 0.0
O569 O 0.57166 0.54582 0.64714 0.0
O570 O 0.50685 0.44886 0.64977 0.0
O571 O 0.69098 0.56219 0.61589 0.0
O572 O 0.64322 0.47353 0.64538 0.0
C573 C 0.52305 0.50298 0.66112 0.0
H574 H 0.44631 0.21896 0.57526 0.0
H575 H 0.5393 0.26786 0.68945 0.0
H576 H 0.70553 0.75049 0.65728 0.0
H577 H 0.60071 0.7373 0.55142 0.0
C578 C 0.49267 0.14928 0.53218 0.0
N579 N 0.64515 0.18166 0.61462 0.0
C580 C 0.68868 0.18725 0.58803 0.0
C581 C 0.75075 0.22273 0.59746 0.0
C582 C 0.76884 0.25567 0.63367 0.0
C583 C 0.72347 0.24715 0.66127 0.0
C584 C 0.66192 0.20866 0.65156 0.0
Zn585 Zn 0.55215 0.12253 0.60327 0.0
C586 C 0.48219 0.17261 0.63657 0.0
N587 N 0.36964 0.99661 0.59337 0.0
C588 C 0.34566 0.94809 0.56786 0.0
C589 C 0.33767 0.99832 0.6258 0.0
C590 C 0.27857 0.95149 0.63278 0.0
C591 C 0.25161 0.90253 0.60593 0.0
C592 C 0.28612 0.89999 0.57369 0.0
Zn593 Zn 0.45934 0.06018 0.5936 0.0
O594 O 0.5407 0.17919 0.55417 0.0
C595 C 0.53827 0.0207 0.55767 0.0
O596 O 0.45751 0.09265 0.53871 0.0
H597 H 0.35834 0.03571 0.64686 0.0
H598 H 0.67586 0.16495 0.55913 0.0
H599 H 0.37245 0.94683 0.54294 0.0
O600 O 0.57298 0.07766 0.56097 0.0
O601 O 0.48386 0.99627 0.57078 0.0
H602 H 0.62787 0.20136 0.67377 0.0
O603 O 0.45729 0.02636 0.64721 0.0
O604 O 0.55424 0.05839 0.64982 0.0
O605 O 0.44096 0.1293 0.61592 0.0
O606 O 0.52965 0.17015 0.64543 0.0
C607 C 0.50011 0.02052 0.66117 0.0
H608 H 0.78416 0.22782 0.57522 0.0
H609 H 0.7354 0.27186 0.68947 0.0
H610 H 0.25261 0.9556 0.65731 0.0
H611 H 0.2658 0.86386 0.5515 0.0
C612 C 0.52163 0.02345 0.13077 0.0
N613 N 0.60816 0.98683 0.0545 0.0
C614 C 0.66917 0.00858 0.05658 0.0
C615 C 0.69158 0.97824 0.07954 0.0
C616 C 0.6511 0.92248 0.09846 0.0
C617 C 0.58848 0.89668 0.09107 0.0
C618 C 0.56772 0.93017 0.06927 0.0
Zn619 Zn 0.58273 0.05228 0.05572 0.0
C620 C 0.45482 0.00919 0.03875 0.0
N621 N 0.52714 0.17809 0.0778 0.0
C622 C 0.53576 0.20492 0.11456 0.0
C623 C 0.49841 0.19067 0.04786 0.0
C624 C 0.47887 0.23286 0.05393 0.0
C625 C 0.49148 0.26461 0.09051 0.0
C626 C 0.51937 0.24948 0.12132 0.0
Zn627 Zn 0.55631 0.11626 0.06809 0.0
O628 O 0.5672 0.02869 0.11237 0.0
C629 C 0.68085 0.16853 0.09188 0.0
O630 O 0.50093 0.05845 0.12085 0.0
H631 H 0.49178 0.16909 0.01883 0.0
H632 H 0.70091 0.05236 0.04365 0.0
H633 H 0.55727 0.19332 0.13836 0.0
O634 O 0.67405 0.1244 0.06987 0.0
O635 O 0.63358 0.16901 0.1041 0.0
H636 H 0.51918 0.91329 0.06807 0.0
O637 O 0.61516 0.16667 0.01441 0.0
O638 O 0.60272 0.07698 -0.00288 0.0
O639 O 0.48107 0.06578 0.03152 0.0
O640 O 0.48843 0.98566 0.04439 0.0
C641 C 0.62674 0.13403 -0.00967 0.0
H642 H 0.74056 0.99883 0.08238 0.0
H643 H 0.55591 0.85271 0.10359 0.0
H644 H 0.45848 0.24392 0.02909 0.0
H645 H 0.53063 0.27363 0.14972 0.0
C646 C 0.9797 0.49862 0.13076 0.0
N647 N 0.01635 0.62179 0.0545 0.0
C648 C 0.99459 0.66104 0.05654 0.0
C649 C 0.02493 0.71381 0.07948 0.0
C650 C 0.0807 0.72911 0.09843 0.0
C651 C 0.1065 0.69229 0.09109 0.0
C652 C 0.07301 0.63801 0.06931 0.0
Zn653 Zn 0.95089 0.53092 0.0557 0.0
C654 C 0.99394 0.44609 0.03873 0.0
N655 N 0.82503 0.34956 0.07775 0.0
C656 C 0.79824 0.33137 0.11452 0.0
C657 C 0.81243 0.30825 0.04781 0.0
C658 C 0.77027 0.24654 0.05389 0.0
C659 C 0.73857 0.22741 0.09048 0.0
C660 C 0.75371 0.27043 0.1213 0.0
Zn661 Zn 0.88687 0.44055 0.06807 0.0
O662 O 0.97451 0.53898 0.11235 0.0
C663 C 0.83465 0.51284 0.09188 0.0
O664 O 0.94468 0.44294 0.12083 0.0
H665 H 0.83399 0.3232 0.01878 0.0
H666 H 0.9508 0.64898 0.04359 0.0
H667 H 0.80986 0.36449 0.13832 0.0
O668 O 0.87878 0.55015 0.06987 0.0
O669 O 0.83415 0.46508 0.10408 0.0
H670 H 0.08989 0.60635 0.06815 0.0
O671 O 0.83644 0.449 0.01439 0.0
O672 O 0.92615 0.52622 -0.00289 0.0
O673 O 0.93733 0.41578 0.03149 0.0
O674 O 0.01749 0.50322 0.04437 0.0
C675 C 0.86908 0.49321 -0.00969 0.0
H676 H 0.00435 0.74221 0.08228 0.0
H677 H 0.15048 0.7037 0.10364 0.0
H678 H 0.7592 0.21507 0.02906 0.0
H679 H 0.72959 0.25756 0.1497 0.0
C680 C 0.50448 0.48155 0.13079 0.0
N681 N 0.3813 0.395 0.05449 0.0
C682 C 0.34206 0.33399 0.05654 0.0
C683 C 0.28932 0.31157 0.0795 0.0
C684 C 0.274 0.35202 0.09844 0.0
C685 C 0.31079 0.41463 0.09108 0.0
C686 C 0.36505 0.43542 0.06929 0.0
Zn687 Zn 0.47218 0.42043 0.05572 0.0
C688 C 0.55697 0.5483 0.03877 0.0
N689 N 0.65359 0.476 0.0778 0.0
C690 C 0.67183 0.46744 0.11457 0.0
C691 C 0.69487 0.5047 0.04785 0.0
C692 C 0.75661 0.52426 0.05392 0.0
C693 C 0.77578 0.51171 0.0905 0.0
C694 C 0.73279 0.48386 0.12133 0.0
Zn695 Zn 0.56258 0.44682 0.06811 0.0
O696 O 0.46412 0.43601 0.11237 0.0
C697 C 0.49034 0.32235 0.0919 0.0
O698 O 0.56017 0.50221 0.12087 0.0
H699 H 0.67988 0.51128 0.01882 0.0
H700 H 0.35413 0.30227 0.04359 0.0
H701 H 0.63874 0.44596 0.13836 0.0
O702 O 0.453 0.32912 0.06988 0.0
O703 O 0.53812 0.36959 0.10411 0.0
H704 H 0.39669 0.48395 0.06812 0.0
O705 O 0.55415 0.38795 0.01443 0.0
O706 O 0.47688 0.40039 -0.00287 0.0
O707 O 0.58731 0.52203 0.03154 0.0
O708 O 0.49983 0.51471 0.0444 0.0
C709 C 0.50992 0.37636 -0.00966 0.0
H710 H 0.26094 0.26259 0.08231 0.0
H711 H 0.29936 0.44718 0.10363 0.0
H712 H 0.78804 0.54462 0.02907 0.0
H713 H 0.74571 0.47264 0.14973 0.0
C714 C 0.35461 0.18901 0.83185 0.0
N715 N 0.33062 0.2955 0.89969 0.0
C716 C 0.33229 0.32913 0.86725 0.0
C717 C 0.28545 0.34141 0.86028 0.0
C718 C 0.23651 0.31948 0.88714 0.0
C719 C 0.23401 0.28244 -0.08063 0.0
C720 C 0.2821 0.27098 -0.07481 0.0
Zn721 Zn 0.39422 0.2694 0.89945 0.0
C722 C 0.35477 0.15098 -0.06465 0.0
N723 N 0.51576 0.20514 0.87844 0.0
C724 C 0.54272 0.21535 0.84149 0.0
C725 C 0.52134 0.16717 0.905 0.0
C726 C 0.55678 0.14055 0.89555 0.0
C727 C 0.58969 0.15537 0.85933 0.0
C728 C 0.58117 0.19225 0.83175 0.0
Zn729 Zn 0.45661 0.23899 0.88978 0.0
O730 O 0.36036 0.23761 0.84585 0.0
C731 C 0.50665 0.35901 0.85649 0.0
O732 O 0.3925 0.17277 0.84321 0.0
H733 H 0.49907 0.1577 -0.0661 0.0
H734 H 0.36966 0.34583 0.84619 0.0
H735 H 0.53541 0.24211 0.81929 0.0
O736 O 0.46331 0.35688 0.87714 0.0
O737 O 0.50421 0.30911 0.84765 0.0
H738 H 0.28085 0.24294 -0.04989 0.0
O739 O 0.51328 0.30709 -0.0611 0.0
O740 O 0.42671 0.3037 -0.04565 0.0
O741 O 0.41174 0.17327 -0.06795 0.0
O742 O 0.33033 0.18098 -0.07774 0.0
C743 C 0.48336 0.3252 -0.03912 0.0
H744 H 0.28954 0.37144 0.83574 0.0
H745 H 0.19789 0.26665 -0.05844 0.0
H746 H 0.56186 0.11221 -0.08223 0.0
H747 H 0.60585 0.20503 0.80355 0.0
C748 C 0.8141 0.16604 0.83187 0.0
N749 N 0.70761 0.03558 0.8997 0.0
C750 C 0.67396 0.00361 0.86725 0.0
C751 C 0.66166 0.9445 0.86028 0.0
C752 C 0.68361 0.9175 0.88715 0.0
C753 C 0.72066 0.95204 -0.08061 0.0
C754 C 0.73214 0.01159 -0.07479 0.0
Zn755 Zn 0.7337 0.12527 0.89946 0.0
C756 C 0.85212 0.20426 -0.06461 0.0
N757 N 0.79791 0.31104 0.87843 0.0
C758 C 0.78765 0.32776 0.84149 0.0
C759 C 0.8359 0.35459 0.905 0.0
C760 C 0.8625 0.41664 0.89555 0.0
C761 C 0.84764 0.4347 0.85934 0.0
C762 C 0.81072 0.3893 0.83176 0.0
Zn763 Zn 0.76409 0.21806 0.88978 0.0
O764 O 0.76551 0.12319 0.84587 0.0
C765 C 0.64408 0.14804 0.85646 0.0
O766 O 0.83032 0.22016 0.84323 0.0
H767 H 0.84542 0.34181 -0.06611 0.0
H768 H 0.65726 0.02428 0.84618 0.0
H769 H 0.76087 0.2937 0.81929 0.0
O770 O 0.64619 0.10685 0.87712 0.0
O771 O 0.69397 0.19551 0.84762 0.0
H772 H 0.76019 0.03838 -0.04987 0.0
O773 O 0.69597 0.20661 -0.06112 0.0
O774 O 0.69938 0.12347 -0.04566 0.0
O775 O 0.82981 0.23892 -0.06792 0.0
O776 O 0.82213 0.14983 -0.07769 0.0
C777 C 0.67788 0.15861 -0.03914 0.0
H778 H 0.63162 0.91856 0.83574 0.0
H779 H 0.73646 0.93171 -0.05842 0.0
H780 H 0.89086 0.45006 -0.08223 0.0
H781 H 0.79792 0.40119 0.80356 0.0
C782 C 0.8371 0.6485 0.83182 0.0
N783 N 0.96756 0.67242 0.89966 0.0
C784 C 0.99952 0.67071 0.86723 0.0
C785 C 0.05862 0.71754 0.86024 0.0
C786 C 0.08561 0.76651 0.88709 0.0
C787 C 0.05108 0.76906 -0.08069 0.0
C788 C 0.99154 0.72097 -0.07485 0.0
Zn789 Zn 0.87785 0.60885 0.89942 0.0
C790 C 0.79891 0.64837 -0.06467 0.0
N791 N 0.69204 0.48739 0.8784 0.0
C792 C 0.67527 0.46041 0.84145 0.0
C793 C 0.64851 0.48181 0.90499 0.0
C794 C 0.58644 0.44633 0.89556 0.0
C795 C 0.56835 0.4134 0.85935 0.0
C796 C 0.61372 0.42192 0.83174 0.0
Zn797 Zn 0.78504 0.54651 0.88974 0.0
O798 O 0.87993 0.64268 0.8458 0.0
C799 C 0.85499 0.49642 0.85645 0.0
O800 O 0.78296 0.61065 0.84319 0.0
H801 H 0.66133 0.50409 -0.06611 0.0
H802 H 0.97884 0.63331 0.84618 0.0
H803 H 0.70932 0.46772 0.81924 0.0
O804 O 0.89622 0.53973 0.87711 0.0
O805 O 0.80754 0.49888 0.84759 0.0
H806 H 0.96476 0.72226 -0.04994 0.0
O807 O 0.79648 0.48985 -0.06115 0.0
O808 O 0.87966 0.57639 -0.04569 0.0
O809 O 0.76422 0.5914 -0.06797 0.0
O810 O 0.85333 0.67277 -0.07777 0.0
C811 C 0.8445 0.51976 -0.03916 0.0
H812 H 0.08455 0.71341 0.83571 0.0
H813 H 0.07141 0.80521 -0.05851 0.0
H814 H 0.55304 0.44124 -0.08219 0.0
H815 H 0.60179 0.39722 0.80354 0.0
C816 C 0.37713 0.86836 0.83601 0.0
N817 N 0.47673 0.8243 0.74855 0.0
C818 C 0.50546 0.81172 0.77849 0.0
C819 C 0.52498 0.76952 0.77242 0.0
C820 C 0.51236 0.73776 0.73584 0.0
C821 C 0.48448 0.7529 0.70503 0.0
C822 C 0.4681 0.79746 0.71179 0.0
Zn823 Zn 0.44756 0.88613 0.75825 0.0
C824 C 0.32301 0.83385 0.73446 0.0
N825 N 0.39565 0.01552 0.77183 0.0
C826 C 0.43611 0.07215 0.75703 0.0
C827 C 0.33464 0.9938 0.76979 0.0
C828 C 0.31224 0.02415 0.74683 0.0
C829 C 0.35273 0.07989 0.72789 0.0
C830 C 0.41535 0.10566 0.73524 0.0
Zn831 Zn 0.42113 0.9501 0.77062 0.0
O832 O 0.38871 0.83572 0.81193 0.0
C833 C 0.54904 0.9932 0.78759 0.0
O834 O 0.40114 0.92541 0.82922 0.0
H835 H 0.3029 0.95003 0.78271 0.0
H836 H 0.51209 0.83331 0.80752 0.0
H837 H 0.48464 0.089 0.75821 0.0
O838 O 0.52279 0.93661 0.79483 0.0
O839 O 0.51543 0.01673 0.78195 0.0
H840 H 0.44659 0.80906 0.688 0.0
O841 O 0.43665 0.97368 0.71396 0.0
O842 O 0.50294 0.94393 0.70549 0.0
O843 O 0.32981 0.87798 0.75648 0.0
O844 O 0.37028 0.83336 0.72225 0.0
C845 C 0.48222 0.97891 0.69556 0.0
H846 H 0.54538 0.75846 0.79725 0.0
H847 H 0.47321 0.72874 0.67663 0.0
H848 H 0.26326 0.00359 0.74401 0.0
H849 H 0.44793 0.14961 0.7227 0.0
C850 C 0.13475 0.50917 0.83603 0.0
N851 N 0.17881 0.65282 0.74859 0.0
C852 C 0.19141 0.69414 0.77853 0.0
C853 C 0.23358 0.75585 0.77245 0.0
C854 C 0.26529 0.77497 0.73587 0.0
C855 C 0.25015 0.73195 0.70505 0.0
C856 C 0.20561 0.67101 0.71182 0.0
Zn857 Zn 0.11697 0.56184 0.75828 0.0
C858 C 0.1692 0.48955 0.73446 0.0
N859 N 0.98754 0.38059 0.77182 0.0
C860 C 0.9309 0.3644 0.75699 0.0
C861 C 0.00926 0.3413 0.76982 0.0
C862 C 0.9789 0.28853 0.74688 0.0
C863 C 0.92315 0.27325 0.7279 0.0
C864 C 0.89738 0.31011 0.73522 0.0
Zn865 Zn 0.05296 0.47146 0.77063 0.0
O866 O 0.16739 0.55339 0.81196 0.0
C867 C 0.00989 0.55628 0.78761 0.0
O868 O 0.07769 0.47615 0.82922 0.0
H869 H 0.05304 0.35335 0.78277 0.0
H870 H 0.16985 0.67919 0.80756 0.0
H871 H 0.91405 0.39608 0.75813 0.0
O872 O 0.0665 0.5866 0.79485 0.0
O873 O 0.98634 0.49915 0.78196 0.0
H874 H 0.19399 0.6379 0.68803 0.0
O875 O 0.02935 0.46342 0.71397 0.0
O876 O 0.05917 0.55945 0.70551 0.0
O877 O 0.12507 0.45224 0.75647 0.0
O878 O 0.1697 0.53732 0.72227 0.0
C879 C 0.02417 0.50378 0.69556 0.0
H880 H 0.24465 0.78732 0.79729 0.0
H881 H 0.27427 0.74482 0.67665 0.0
H882 H 0.99946 0.2601 0.7441 0.0
H883 H 0.85342 0.29873 0.72265 0.0
C884 C 0.49393 0.62601 0.836 0.0
N885 N 0.35025 0.52636 0.74855 0.0
C886 C 0.30896 0.49767 0.7785 0.0
C887 C 0.24724 0.47812 0.77243 0.0
C888 C 0.22807 0.49068 0.73585 0.0
C889 C 0.27106 0.51853 0.70502 0.0
C890 C 0.33201 0.53493 0.71178 0.0
Zn891 Zn 0.44125 0.55554 0.75824 0.0
C892 C 0.5135 0.68002 0.73445 0.0
N893 N 0.62256 0.60742 0.77184 0.0
C894 C 0.63876 0.56699 0.75702 0.0
C895 C 0.66182 0.66843 0.76982 0.0
C896 C 0.71457 0.69084 0.74687 0.0
C897 C 0.72986 0.65038 0.7279 0.0
C898 C 0.69304 0.58777 0.73523 0.0
Zn899 Zn 0.53166 0.58194 0.77062 0.0
O900 O 0.4497 0.61441 0.81192 0.0
C901 C 0.44689 0.45407 0.78757 0.0
O902 O 0.52697 0.60198 0.82921 0.0
H903 H 0.64977 0.70015 0.78277 0.0
H904 H 0.32395 0.49108 0.80753 0.0
H905 H 0.60711 0.51846 0.75817 0.0
O906 O 0.41654 0.48034 0.79481 0.0
O907 O 0.50402 0.48766 0.78194 0.0
H908 H 0.36511 0.55642 0.68799 0.0
O909 O 0.53971 0.56637 0.71396 0.0
O910 O 0.44366 0.50015 0.70547 0.0
O911 O 0.55085 0.67325 0.75647 0.0
O912 O 0.46572 0.63278 0.72224 0.0
C913 C 0.49935 0.52083 0.69554 0.0
H914 H 0.21579 0.45775 0.79727 0.0
H915 H 0.25814 0.52975 0.67662 0.0
H916 H 0.74297 0.73982 0.74407 0.0
H917 H 0.70444 0.5552 0.72267 0.0
C918 C 0.52049 0.67717 0.86547 0.0
N919 N 0.48808 0.79723 -0.05209 0.0
C920 C 0.48251 0.8352 -0.07865 0.0
C921 C 0.44706 0.86182 -0.0692 0.0
C922 C 0.41415 0.847 -0.03299 0.0
C923 C 0.42265 0.8101 -0.00542 0.0
C924 C 0.46111 0.787 -0.01515 0.0
Zn925 Zn 0.54723 0.76339 -0.06344 0.0
C926 C 0.4972 0.64337 -0.03015 0.0
N927 N 0.67323 0.70688 -0.07332 0.0
C928 C 0.72173 0.7314 0.90116 0.0
C929 C 0.67157 0.67324 -0.04089 0.0
C930 C 0.71841 0.66098 -0.03392 0.0
C931 C 0.76734 0.68294 -0.06079 0.0
C932 C 0.76983 0.71995 0.90697 0.0
Zn933 Zn 0.60962 0.73297 -0.0731 0.0
O934 O 0.49057 0.69527 0.88745 0.0
C935 C 0.64905 0.85137 0.89099 0.0
O936 O 0.57714 0.69867 0.872 0.0
H937 H 0.63419 0.65654 -0.01983 0.0
H938 H 0.50478 0.84468 0.89245 0.0
H939 H 0.72296 0.75941 0.87623 0.0
O940 O 0.59208 0.82909 0.89427 0.0
O941 O 0.67351 0.8214 0.90409 0.0
H942 H 0.4684 0.76024 0.00705 0.0
O943 O 0.64346 0.76476 -0.0195 0.0
O944 O 0.61135 0.82962 -0.01688 0.0
O945 O 0.54053 0.6455 -0.0508 0.0
O946 O 0.49965 0.69328 -0.0213 0.0
C947 C 0.64923 0.81337 -0.00551 0.0
H948 H 0.44199 0.89017 0.90858 0.0
H949 H 0.39797 0.79733 0.02279 0.0
H950 H 0.71433 0.63094 -0.00939 0.0
H951 H 0.80594 0.73573 0.88478 0.0
C952 C 0.32599 0.84378 0.86548 0.0
N953 N 0.20594 0.69134 -0.0521 0.0
C954 C 0.16795 0.64779 -0.07866 0.0
C955 C 0.14135 0.58574 -0.06921 0.0
C956 C 0.15621 0.56768 -0.033 0.0
C957 C 0.19313 0.61308 -0.00542 0.0
C958 C 0.21621 0.67461 -0.01516 0.0
Zn959 Zn 0.23976 0.78432 -0.06344 0.0
C960 C 0.35976 0.85434 -0.03011 0.0
N961 N 0.29624 0.9668 -0.07333 0.0
C962 C 0.27172 0.99078 0.90114 0.0
C963 C 0.32989 0.99878 -0.04089 0.0
C964 C 0.34218 0.05789 -0.03392 0.0
C965 C 0.3202 0.08485 -0.06079 0.0
C966 C 0.28318 0.05033 0.90696 0.0
Zn967 Zn 0.27015 0.87712 -0.07312 0.0
O968 O 0.3079 0.79578 0.88746 0.0
C969 C 0.15176 0.79813 0.89093 0.0
O970 O 0.30448 0.87893 0.872 0.0
H971 H 0.3466 0.97811 -0.01982 0.0
H972 H 0.15843 0.66056 0.89245 0.0
H973 H 0.24369 0.964 0.87621 0.0
O974 O 0.17406 0.76345 0.89424 0.0
O975 O 0.18171 0.85255 0.90403 0.0
H976 H 0.243 0.70868 0.00704 0.0
O977 O 0.23834 0.87918 -0.01953 0.0
O978 O 0.17351 0.78221 -0.01691 0.0
O979 O 0.35766 0.89553 -0.05077 0.0
O980 O 0.30987 0.80688 -0.02128 0.0
C981 C 0.18974 0.83633 -0.00554 0.0
H982 H 0.11298 0.55232 0.90857 0.0
H983 H 0.20594 0.60119 0.02278 0.0
H984 H 0.37222 0.08384 -0.00938 0.0
H985 H 0.26739 0.07066 0.88476 0.0
C986 C 0.15933 0.48262 0.8655 0.0
N987 N 0.31181 0.51499 -0.05206 0.0
C988 C 0.35533 0.52058 -0.07865 0.0
C989 C 0.41741 0.55605 -0.06922 0.0
C990 C 0.43549 0.58898 -0.03301 0.0
C991 C 0.39013 0.58047 -0.0054 0.0
C992 C 0.32857 0.54198 -0.01512 0.0
Zn993 Zn 0.2188 0.45587 -0.06341 0.0
C994 C 0.14885 0.50595 -0.03011 0.0
N995 N 0.03629 0.32995 -0.0733 0.0
C996 C 0.01231 0.28142 0.90119 0.0
C997 C 0.00432 0.33166 -0.04088 0.0
C998 C 0.94522 0.28483 -0.03389 0.0
C999 C 0.91827 0.23586 -0.06074 0.0
C1000 C 0.95278 0.23332 0.90702 0.0
Zn1001 Zn 0.12599 0.39353 -0.07307 0.0
O1002 O 0.20736 0.51253 0.88749 0.0
C1003 C 0.20493 0.35404 0.891 0.0
O1004 O 0.12417 0.42599 0.87203 0.0
H1005 H 0.02498 0.36906 -0.01983 0.0
H1006 H 0.34252 0.49829 0.89245 0.0
H1007 H 0.0391 0.28016 0.87628 0.0
O1008 O 0.23963 0.411 0.89429 0.0
O1009 O 0.15051 0.32961 0.90411 0.0
H1010 H 0.29453 0.53469 0.0071 0.0
O1011 O 0.12393 0.35972 -0.01946 0.0
O1012 O 0.22089 0.39172 -0.01686 0.0
O1013 O 0.10762 0.46265 -0.05076 0.0
O1014 O 0.1963 0.50349 -0.02125 0.0
C1015 C 0.16676 0.35389 -0.00549 0.0
H1016 H 0.45081 0.56114 0.90854 0.0
H1017 H 0.40205 0.60517 0.0228 0.0
H1018 H 0.91927 0.28894 -0.00936 0.0
H1019 H 0.93246 0.19718 0.88484 0.0
C1020 C 0.18831 0.35681 0.46413 0.0
N1021 N 0.27483 0.32016 0.38786 0.0
C1022 C 0.33584 0.34191 0.38993 0.0
C1023 C 0.35825 0.31157 0.41289 0.0
C1024 C 0.31777 0.2558 0.43181 0.0
C1025 C 0.25516 0.23001 0.42443 0.0
C1026 C 0.23439 0.2635 0.40263 0.0
Zn1027 Zn 0.2494 0.38561 0.38907 0.0
C1028 C 0.12148 0.34251 0.3721 0.0
N1029 N 0.19379 0.51141 0.41113 0.0
C1030 C 0.20242 0.53825 0.44789 0.0
C1031 C 0.16506 0.52399 0.38119 0.0
C1032 C 0.14553 0.56618 0.38726 0.0
C1033 C 0.15815 0.59794 0.42383 0.0
C1034 C 0.18603 0.58281 0.45465 0.0
Zn1035 Zn 0.22297 0.44959 0.40143 0.0
O1036 O 0.23388 0.36202 0.44573 0.0
C1037 C 0.34751 0.50187 0.42522 0.0
O1038 O 0.1676 0.39179 0.45419 0.0
H1039 H 0.15843 0.5024 0.35216 0.0
H1040 H 0.36758 0.38569 0.37701 0.0
H1041 H 0.22393 0.52666 0.47169 0.0
O1042 O 0.34072 0.45773 0.40321 0.0
O1043 O 0.30025 0.50235 0.43743 0.0
H1044 H 0.18585 0.24662 0.40144 0.0
O1045 O 0.2818 0.49999 0.34775 0.0
O1046 O 0.26938 0.4103 0.33047 0.0
O1047 O 0.14773 0.3991 0.36486 0.0
O1048 O 0.1551 0.31899 0.37774 0.0
C1049 C 0.29339 0.46735 0.32367 0.0
H1050 H 0.40723 0.33215 0.41572 0.0
H1051 H 0.22258 0.18604 0.43695 0.0
H1052 H 0.12514 0.57724 0.36242 0.0
H1053 H 0.1973 0.60697 0.48304 0.0
C1054 C 0.64636 0.83195 0.46409 0.0
N1055 N 0.68303 0.95512 0.38782 0.0
C1056 C 0.66127 0.99437 0.38986 0.0
C1057 C 0.6916 0.04713 0.41281 0.0
C1058 C 0.74737 0.06242 0.43177 0.0
C1059 C 0.77318 0.0256 0.42442 0.0
C1060 C 0.73968 0.97133 0.40262 0.0
Zn1061 Zn 0.61756 0.86426 0.38902 0.0
C1062 C 0.6606 0.77942 0.37205 0.0
N1063 N 0.49169 0.6829 0.41108 0.0
C1064 C 0.46491 0.66471 0.44785 0.0
C1065 C 0.47909 0.64158 0.38114 0.0
C1066 C 0.43693 0.57987 0.38722 0.0
C1067 C 0.40523 0.56075 0.42381 0.0
C1068 C 0.42037 0.60378 0.45462 0.0
Zn1069 Zn 0.55354 0.77388 0.40138 0.0
O1070 O 0.64119 0.87232 0.44567 0.0
C1071 C 0.50133 0.84618 0.4252 0.0
O1072 O 0.61134 0.77628 0.45414 0.0
H1073 H 0.50065 0.65652 0.3521 0.0
H1074 H 0.61749 0.98232 0.37691 0.0
H1075 H 0.47653 0.69783 0.47164 0.0
O1076 O 0.54545 0.88349 0.40318 0.0
O1077 O 0.50082 0.79842 0.43739 0.0
H1078 H 0.75656 0.93967 0.40146 0.0
O1079 O 0.50311 0.78232 0.3477 0.0
O1080 O 0.59282 0.85955 0.33043 0.0
O1081 O 0.604 0.7491 0.3648 0.0
O1082 O 0.68416 0.83655 0.37769 0.0
C1083 C 0.53575 0.82653 0.32363 0.0
H1084 H 0.67102 0.07552 0.41562 0.0
H1085 H 0.81715 0.03701 0.43697 0.0
H1086 H 0.42585 0.5484 0.36239 0.0
H1087 H 0.39626 0.59091 0.48303 0.0
C1088 C 0.17116 0.81487 0.46412 0.0
N1089 N 0.04796 0.72833 0.38781 0.0
C1090 C 0.00873 0.66732 0.38986 0.0
C1091 C 0.95599 0.6449 0.41282 0.0
C1092 C 0.94067 0.68535 0.43177 0.0
C1093 C 0.97745 0.74796 0.42441 0.0
C1094 C 0.03172 0.76875 0.40261 0.0
Zn1095 Zn 0.13885 0.75377 0.38904 0.0
C1096 C 0.22363 0.88163 0.37209 0.0
N1097 N 0.32027 0.80934 0.41111 0.0
C1098 C 0.33851 0.80078 0.44788 0.0
C1099 C 0.36155 0.83803 0.38116 0.0
C1100 C 0.42328 0.8576 0.38723 0.0
C1101 C 0.44245 0.84505 0.42381 0.0
C1102 C 0.39947 0.8172 0.45464 0.0
Zn1103 Zn 0.22926 0.78016 0.40142 0.0
O1104 O 0.1308 0.76935 0.44569 0.0
C1105 C 0.15702 0.65568 0.42522 0.0
O1106 O 0.22685 0.83554 0.45419 0.0
H1107 H 0.34656 0.84461 0.35213 0.0
H1108 H 0.0208 0.63561 0.37691 0.0
H1109 H 0.30541 0.7793 0.47168 0.0
O1110 O 0.11967 0.66246 0.4032 0.0
O1111 O 0.20479 0.70293 0.43742 0.0
H1112 H 0.06336 0.81728 0.40144 0.0
O1113 O 0.22082 0.72129 0.34774 0.0
O1114 O 0.14355 0.73373 0.33045 0.0
O1115 O 0.25397 0.85536 0.36485 0.0
O1116 O 0.1665 0.84805 0.37772 0.0
C1117 C 0.17658 0.70969 0.32366 0.0
H1118 H 0.92761 0.59592 0.41563 0.0
H1119 H 0.96602 0.78051 0.43695 0.0
H1120 H 0.45472 0.87796 0.36238 0.0
H1121 H 0.41238 0.80599 0.48304 0.0
C1122 C 0.02126 0.52232 0.16518 0.0
N1123 N 0.99728 0.62883 0.23301 0.0
C1124 C 0.99895 0.66246 0.20057 0.0
C1125 C 0.95211 0.67473 0.19358 0.0
C1126 C 0.90316 0.65276 0.22044 0.0
C1127 C 0.90065 0.61574 0.25268 0.0
C1128 C 0.94875 0.60429 0.25851 0.0
Zn1129 Zn 0.06088 0.60272 0.23278 0.0
C1130 C 0.02144 0.48434 0.26869 0.0
N1131 N 0.18242 0.53846 0.21177 0.0
C1132 C 0.20936 0.54866 0.17481 0.0
C1133 C 0.188 0.5005 0.23833 0.0
C1134 C 0.22344 0.47388 0.22888 0.0
C1135 C 0.25634 0.48869 0.19267 0.0
C1136 C 0.24781 0.52556 0.16508 0.0
Zn1137 Zn 0.12327 0.57231 0.22311 0.0
O1138 O 0.02702 0.57093 0.17918 0.0
C1139 C 0.1733 0.69232 0.18981 0.0
O1140 O 0.05915 0.50608 0.17654 0.0
H1141 H 0.16574 0.49104 0.26723 0.0
H1142 H 0.03633 0.67917 0.17951 0.0
H1143 H 0.20205 0.57541 0.15261 0.0
O1144 O 0.12997 0.6902 0.21046 0.0
O1145 O 0.17086 0.64242 0.18097 0.0
H1146 H 0.94751 0.57626 0.28343 0.0
O1147 O 0.17994 0.64043 0.27222 0.0
O1148 O 0.09337 0.63703 0.28767 0.0
O1149 O 0.07842 0.50661 0.26539 0.0
O1150 O 0.99698 0.51431 0.25559 0.0
C1151 C 0.15002 0.65853 0.2942 0.0
H1152 H 0.9562 0.70477 0.16905 0.0
H1153 H 0.86452 0.59995 0.27486 0.0
H1154 H 0.22852 0.44555 0.25111 0.0
H1155 H 0.27249 0.53833 0.13687 0.0
C1156 C 0.48077 0.49939 0.16521 0.0
N1157 N 0.37428 0.36892 0.23302 0.0
C1158 C 0.34064 0.33695 0.20057 0.0
C1159 C 0.32836 0.27784 0.1936 0.0
C1160 C 0.35033 0.25088 0.22047 0.0
C1161 C 0.38737 0.2854 0.25271 0.0
C1162 C 0.39882 0.34494 0.25854 0.0
Zn1163 Zn 0.40036 0.4586 0.23279 0.0
C1164 C 0.51875 0.5376 0.26873 0.0
N1165 N 0.46455 0.64438 0.21177 0.0
C1166 C 0.45427 0.66109 0.17483 0.0
C1167 C 0.50256 0.68793 0.23832 0.0
C1168 C 0.52916 0.74998 0.22886 0.0
C1169 C 0.51429 0.76804 0.19266 0.0
C1170 C 0.47735 0.72262 0.16509 0.0
Zn1171 Zn 0.43074 0.55139 0.22312 0.0
O1172 O 0.43217 0.45654 0.1792 0.0
C1173 C 0.31073 0.48136 0.18979 0.0
O1174 O 0.49698 0.55351 0.17657 0.0
H1175 H 0.51209 0.67517 0.26721 0.0
H1176 H 0.32393 0.35761 0.1795 0.0
H1177 H 0.42748 0.62703 0.15263 0.0
O1178 O 0.31285 0.44017 0.21045 0.0
O1179 O 0.36062 0.52883 0.18095 0.0
H1180 H 0.42686 0.37173 0.28346 0.0
O1181 O 0.36261 0.53993 0.27222 0.0
O1182 O 0.36603 0.45679 0.28767 0.0
O1183 O 0.49645 0.57227 0.26543 0.0
O1184 O 0.4888 0.48317 0.25563 0.0
C1185 C 0.34452 0.49193 0.2942 0.0
H1186 H 0.29832 0.25189 0.16906 0.0
H1187 H 0.40316 0.26507 0.2749 0.0
H1188 H 0.55755 0.78341 0.25108 0.0
H1189 H 0.46453 0.73451 0.13689 0.0
C1190 C 0.50375 0.98183 0.16515 0.0
N1191 N 0.63421 0.00576 0.23298 0.0
C1192 C 0.66618 0.00405 0.20055 0.0
C1193 C 0.72528 0.05088 0.19356 0.0
C1194 C 0.75224 0.09985 0.22041 0.0
C1195 C 0.71773 0.10239 0.25265 0.0
C1196 C 0.65819 0.0543 0.25848 0.0
Zn1197 Zn 0.54451 0.94219 0.23274 0.0
C1198 C 0.46557 0.98167 0.26867 0.0
N1199 N 0.35869 0.82071 0.21172 0.0
C1200 C 0.34193 0.79372 0.17478 0.0
C1201 C 0.31517 0.81513 0.23831 0.0
C1202 C 0.25309 0.77965 0.22888 0.0
C1203 C 0.23501 0.74672 0.19267 0.0
C1204 C 0.28037 0.75523 0.16507 0.0
Zn1205 Zn 0.4517 0.87984 0.22306 0.0
O1206 O 0.54658 0.97602 0.17913 0.0
C1207 C 0.52166 0.82976 0.18976 0.0
O1208 O 0.44961 0.94399 0.17652 0.0
H1209 H 0.32798 0.83742 0.26721 0.0
H1210 H 0.64551 0.96665 0.1795 0.0
H1211 H 0.37598 0.80102 0.15256 0.0
O1212 O 0.56288 0.87307 0.21042 0.0
O1213 O 0.4742 0.83222 0.18091 0.0
H1214 H 0.63141 0.05557 0.28339 0.0
O1215 O 0.46315 0.82317 0.27216 0.0
O1216 O 0.54632 0.90972 0.28763 0.0
O1217 O 0.43087 0.92471 0.26537 0.0
O1218 O 0.51999 0.0061 0.25556 0.0
C1219 C 0.51116 0.85308 0.29415 0.0
H1220 H 0.75122 0.04677 0.16904 0.0
H1221 H 0.73805 0.13854 0.27482 0.0
H1222 H 0.21969 0.77456 0.25112 0.0
H1223 H 0.26845 0.73052 0.13686 0.0
loop_
_geom_bond_atom_site_label_1
_geom_bond_atom_site_label_2
_geom_bond_distance
_geom_bond_site_symmetry_2
_ccdc_geom_bond_type
C0 O16 1.251 . S
C0 O18 1.254 . S
N1 C2 1.333 . S
N1 C6 1.307 . S
N1 Zn7 2.020 . S
C2 N1 1.333 . S
C2 C3 1.379 . S
C2 H20 0.952 . S
C3 C2 1.379 . S
C3 C4 1.390 . S
C3 H30 0.949 . S
C4 C3 1.390 . S
C4 C5 1.357 . S
C5 C4 1.357 . S
C5 C6 1.370 . S
C5 H31 0.950 . S
C6 N1 1.307 . S
C6 C5 1.370 . S
C6 H24 0.948 . S
Zn7 N1 2.020 . S
Zn7 O16 2.039 . S
Zn7 O22 2.034 . S
Zn7 O26 2.025 . S
Zn7 O28 2.024 . S
C8 O27 1.246 1_655 S
C8 O28 1.249 1_655 S
N9 C10 1.307 . S
N9 C11 1.333 . S
N9 Zn15 2.020 . S
C10 N9 1.307 . S
C10 C14 1.370 . S
C10 H21 0.948 . S
C11 N9 1.333 . S
C11 C12 1.379 . S
C11 H19 0.952 . S
C12 C11 1.379 . S
C12 C13 1.390 . S
C12 H32 0.949 . S
C13 C12 1.390 . S
C13 C14 1.357 . S
C14 C10 1.370 . S
C14 C13 1.357 . S
C14 H33 0.950 . S
Zn15 N9 2.020 . S
Zn15 O18 2.025 . S
Zn15 O23 2.024 . S
Zn15 O25 2.039 . S
Zn15 O27 2.034 . S
O16 C0 1.251 . S
O16 Zn7 2.039 . S
C17 O22 1.246 . S
C17 O23 1.249 . S
O18 C0 1.254 . S
O18 Zn15 2.025 . S
H19 C11 0.952 . S
H20 C2 0.952 . S
H21 C10 0.948 . S
O22 Zn7 2.034 . S
O22 C17 1.246 . S
O23 Zn15 2.024 . S
O23 C17 1.249 . S
H24 C6 0.948 . S
O25 Zn15 2.039 . S
O25 C29 1.251 . S
O26 Zn7 2.025 . S
O26 C29 1.254 . S
O27 C8 1.246 1_455 S
O27 Zn15 2.034 . S
O28 Zn7 2.024 . S
O28 C8 1.249 1_455 S
C29 O25 1.251 . S
C29 O26 1.254 . S
H30 C3 0.949 . S
H31 C5 0.950 . S
H32 C12 0.949 . S
H33 C14 0.950 . S
C34 O50 1.251 . S
C34 O52 1.254 . S
N35 C36 1.333 . S
N35 C40 1.307 . S
N35 Zn41 2.020 1_545 S
C36 N35 1.333 . S
C36 C37 1.379 . S
C36 H54 0.952 . S
C37 C36 1.379 . S
C37 C38 1.390 . S
C37 H64 0.949 . S
C38 C37 1.390 . S
C38 C39 1.357 . S
C39 C38 1.357 . S
C39 C40 1.370 . S
C39 H65 0.950 . S
C40 N35 1.307 . S
C40 C39 1.370 . S
C40 H58 0.948 . S
Zn41 N35 2.020 1_565 S
Zn41 O50 2.039 . S
Zn41 O56 2.034 . S
Zn41 O60 2.025 . S
Zn41 O62 2.024 . S
C42 O61 1.246 . S
C42 O62 1.249 . S
N43 C44 1.307 . S
N43 C45 1.333 . S
N43 Zn49 2.020 . S
C44 N43 1.307 . S
C44 C48 1.370 . S
C44 H55 0.948 . S
C45 N43 1.333 . S
C45 C46 1.379 . S
C45 H53 0.952 . S
C46 C45 1.379 . S
C46 C47 1.390 . S
C46 H66 0.949 . S
C47 C46 1.390 . S
C47 C48 1.357 . S
C48 C44 1.370 . S
C48 C47 1.357 . S
C48 H67 0.950 . S
Zn49 N43 2.020 . S
Zn49 O52 2.025 . S
Zn49 O57 2.024 . S
Zn49 O59 2.039 . S
Zn49 O61 2.034 . S
O50 C34 1.251 . S
O50 Zn41 2.039 . S
C51 O56 1.246 . S
C51 O57 1.249 . S
O52 C34 1.254 . S
O52 Zn49 2.025 . S
H53 C45 0.952 . S
H54 C36 0.952 . S
H55 C44 0.948 . S
O56 Zn41 2.034 . S
O56 C51 1.246 . S
O57 Zn49 2.024 . S
O57 C51 1.249 . S
H58 C40 0.948 . S
O59 Zn49 2.039 . S
O59 C63 1.251 . S
O60 Zn41 2.025 . S
O60 C63 1.254 . S
O61 C42 1.246 . S
O61 Zn49 2.034 . S
O62 Zn41 2.024 . S
O62 C42 1.249 . S
C63 O59 1.251 . S
C63 O60 1.254 . S
H64 C37 0.949 . S
H65 C39 0.950 . S
H66 C46 0.949 . S
H67 C48 0.950 . S
C68 O84 1.251 . S
C68 O86 1.254 . S
N69 C70 1.333 . S
N69 C74 1.307 . S
N69 Zn75 2.020 1_655 S
C70 N69 1.333 . S
C70 C71 1.379 . S
C70 H88 0.952 . S
C71 C70 1.379 . S
C71 C72 1.390 . S
C71 H98 0.949 . S
C72 C71 1.390 . S
C72 C73 1.357 . S
C73 C72 1.357 . S
C73 C74 1.370 . S
C73 H99 0.950 . S
C74 N69 1.307 . S
C74 C73 1.370 . S
C74 H92 0.948 . S
Zn75 N69 2.020 1_455 S
Zn75 O84 2.039 . S
Zn75 O90 2.034 . S
Zn75 O94 2.025 . S
Zn75 O96 2.024 . S
C76 O95 1.246 1_545 S
C76 O96 1.249 1_545 S
N77 C78 1.307 . S
N77 C79 1.333 . S
N77 Zn83 2.020 . S
C78 N77 1.307 . S
C78 C82 1.370 . S
C78 H89 0.948 . S
C79 N77 1.333 . S
C79 C80 1.379 . S
C79 H87 0.952 . S
C80 C79 1.379 . S
C80 C81 1.390 . S
C80 H100 0.949 . S
C81 C80 1.390 . S
C81 C82 1.357 . S
C82 C78 1.370 . S
C82 C81 1.357 . S
C82 H101 0.950 . S
Zn83 N77 2.020 . S
Zn83 O86 2.025 . S
Zn83 O91 2.024 . S
Zn83 O93 2.039 . S
Zn83 O95 2.034 . S
O84 C68 1.251 . S
O84 Zn75 2.039 . S
C85 O90 1.246 . S
C85 O91 1.249 . S
O86 C68 1.254 . S
O86 Zn83 2.025 . S
H87 C79 0.952 . S
H88 C70 0.952 . S
H89 C78 0.948 . S
O90 Zn75 2.034 . S
O90 C85 1.246 . S
O91 Zn83 2.024 . S
O91 C85 1.249 . S
H92 C74 0.948 . S
O93 Zn83 2.039 . S
O93 C97 1.251 . S
O94 Zn75 2.025 . S
O94 C97 1.254 . S
O95 C76 1.246 1_565 S
O95 Zn83 2.034 . S
O96 Zn75 2.024 . S
O96 C76 1.249 1_565 S
C97 O93 1.251 . S
C97 O94 1.254 . S
H98 C71 0.949 . S
H99 C73 0.950 . S
H100 C80 0.949 . S
H101 C82 0.950 . S
C102 O118 1.251 . S
C102 O120 1.254 . S
N103 C104 1.333 . S
N103 C108 1.307 . S
N103 Zn109 2.020 . S
C104 N103 1.333 . S
C104 C105 1.379 . S
C104 H122 0.952 . S
C105 C104 1.379 . S
C105 C106 1.390 . S
C105 H132 0.949 . S
C106 C105 1.390 . S
C106 C107 1.357 . S
C107 C106 1.357 . S
C107 C108 1.370 . S
C107 H133 0.950 . S
C108 N103 1.307 . S
C108 C107 1.370 . S
C108 H126 0.948 . S
Zn109 N103 2.020 . S
Zn109 O118 2.039 . S
Zn109 O124 2.034 . S
Zn109 O128 2.025 . S
Zn109 O130 2.024 . S
C110 O129 1.246 1_565 S
C110 O130 1.249 1_565 S
N111 C112 1.307 . S
N111 C113 1.333 . S
N111 Zn117 2.020 . S
C112 N111 1.307 . S
C112 C116 1.370 . S
C112 H123 0.948 . S
C113 N111 1.333 . S
C113 C114 1.379 . S
C113 H121 0.952 . S
C114 C113 1.379 . S
C114 C115 1.390 . S
C114 H134 0.949 . S
C115 C114 1.390 . S
C115 C116 1.357 . S
C116 C112 1.370 . S
C116 C115 1.357 . S
C116 H135 0.950 . S
Zn117 N111 2.020 . S
Zn117 O120 2.025 . S
Zn117 O125 2.024 . S
Zn117 O127 2.039 . S
Zn117 O129 2.034 . S
O118 C102 1.251 . S
O118 Zn109 2.039 . S
C119 O124 1.246 . S
C119 O125 1.249 . S
O120 C102 1.254 . S
O120 Zn117 2.025 . S
H121 C113 0.952 . S
H122 C104 0.952 . S
H123 C112 0.948 . S
O124 Zn109 2.034 . S
O124 C119 1.246 . S
O125 Zn117 2.024 . S
O125 C119 1.249 . S
H126 C108 0.948 . S
O127 Zn117 2.039 . S
O127 C131 1.251 . S
O128 Zn109 2.025 . S
O128 C131 1.254 . S
O129 C110 1.246 1_545 S
O129 Zn117 2.034 . S
O130 Zn109 2.024 . S
O130 C110 1.249 1_545 S
C131 O127 1.251 . S
C131 O128 1.254 . S
H132 C105 0.949 . S
H133 C107 0.950 . S
H134 C114 0.949 . S
H135 C116 0.950 . S
C136 O152 1.251 . S
C136 O154 1.254 . S
N137 C138 1.333 1_545 S
N137 C142 1.307 1_545 S
N137 Zn143 2.020 . S
C138 N137 1.333 1_565 S
C138 C139 1.379 . S
C138 H156 0.952 . S
C139 C138 1.379 . S
C139 C140 1.390 . S
C139 H166 0.949 . S
C140 C139 1.390 . S
C140 C141 1.357 . S
C141 C140 1.357 . S
C141 C142 1.370 . S
C141 H167 0.950 . S
C142 N137 1.307 1_565 S
C142 C141 1.370 . S
C142 H160 0.940 1_565 S
Zn143 N137 2.020 . S
Zn143 O152 2.039 . S
Zn143 O158 2.034 . S
Zn143 O162 2.025 . S
Zn143 O164 2.024 . S
C144 O163 1.246 1_455 S
C144 O164 1.249 1_455 S
N145 C146 1.307 . S
N145 C147 1.333 . S
N145 Zn151 2.020 . S
C146 N145 1.307 . S
C146 C150 1.370 . S
C146 H157 0.948 . S
C147 N145 1.333 . S
C147 C148 1.379 . S
C147 H155 0.952 . S
C148 C147 1.379 . S
C148 C149 1.390 . S
C148 H168 0.949 . S
C149 C148 1.390 . S
C149 C150 1.357 . S
C150 C146 1.370 . S
C150 C149 1.357 . S
C150 H169 0.950 . S
Zn151 N145 2.020 . S
Zn151 O154 2.025 . S
Zn151 O159 2.024 . S
Zn151 O161 2.039 . S
Zn151 O163 2.034 . S
O152 C136 1.251 . S
O152 Zn143 2.039 . S
C153 O158 1.246 . S
C153 O159 1.249 . S
O154 C136 1.254 . S
O154 Zn151 2.025 . S
H155 C147 0.952 . S
H156 C138 0.952 . S
H157 C146 0.948 . S
O158 Zn143 2.034 . S
O158 C153 1.246 . S
O159 Zn151 2.024 . S
O159 C153 1.249 . S
H160 C142 0.940 1_545 S
O161 Zn151 2.039 . S
O161 C165 1.251 . S
O162 Zn143 2.025 . S
O162 C165 1.254 . S
O163 C144 1.246 1_655 S
O163 Zn151 2.034 . S
O164 Zn143 2.024 . S
O164 C144 1.249 1_655 S
C165 O161 1.251 . S
C165 O162 1.254 . S
H166 C139 0.949 . S
H167 C141 0.950 . S
H168 C148 0.949 . S
H169 C150 0.950 . S
C170 O186 1.251 . S
C170 O188 1.254 . S
N171 C172 1.333 1_655 S
N171 C176 1.307 1_655 S
N171 Zn177 2.020 . S
C172 N171 1.333 1_455 S
C172 C173 1.379 . S
C172 H190 0.952 . S
C173 C172 1.379 . S
C173 C174 1.390 . S
C173 H200 0.949 . S
C174 C173 1.390 . S
C174 C175 1.357 . S
C175 C174 1.357 . S
C175 C176 1.370 . S
C175 H201 0.950 . S
C176 N171 1.307 1_455 S
C176 C175 1.370 . S
C176 H194 0.941 1_455 S
Zn177 N171 2.020 . S
Zn177 O186 2.039 . S
Zn177 O192 2.034 . S
Zn177 O196 2.025 . S
Zn177 O198 2.024 . S
C178 O197 1.246 . S
C178 O198 1.249 . S
N179 C180 1.307 . S
N179 C181 1.333 . S
N179 Zn185 2.020 . S
C180 N179 1.307 . S
C180 C184 1.370 . S
C180 H191 0.948 . S
C181 N179 1.333 . S
C181 C182 1.379 . S
C181 H189 0.952 . S
C182 C181 1.379 . S
C182 C183 1.390 . S
C182 H202 0.949 . S
C183 C182 1.390 . S
C183 C184 1.357 . S
C184 C180 1.370 . S
C184 C183 1.357 . S
C184 H203 0.950 . S
Zn185 N179 2.020 . S
Zn185 O188 2.025 . S
Zn185 O193 2.024 . S
Zn185 O195 2.039 . S
Zn185 O197 2.034 . S
O186 C170 1.251 . S
O186 Zn177 2.039 . S
C187 O192 1.246 . S
C187 O193 1.249 . S
O188 C170 1.254 . S
O188 Zn185 2.025 . S
H189 C181 0.952 . S
H190 C172 0.952 . S
H191 C180 0.948 . S
O192 Zn177 2.034 . S
O192 C187 1.246 . S
O193 Zn185 2.024 . S
O193 C187 1.249 . S
H194 C176 0.941 1_655 S
O195 Zn185 2.039 . S
O195 C199 1.251 . S
O196 Zn177 2.025 . S
O196 C199 1.254 . S
O197 C178 1.246 . S
O197 Zn185 2.034 . S
O198 Zn177 2.024 . S
O198 C178 1.249 . S
C199 O195 1.251 . S
C199 O196 1.254 . S
H200 C173 0.949 . S
H201 C175 0.950 . S
H202 C182 0.949 . S
H203 C184 0.950 . S
C204 O220 1.251 . S
C204 O222 1.254 . S
N205 C206 1.333 . S
N205 C210 1.307 . S
N205 Zn211 2.020 . S
C206 N205 1.333 . S
C206 C207 1.379 . S
C206 H224 0.952 . S
C207 C206 1.379 . S
C207 C208 1.390 . S
C207 H234 0.949 . S
C208 C207 1.390 . S
C208 C209 1.357 . S
C209 C208 1.357 . S
C209 C210 1.370 . S
C209 H235 0.950 . S
C210 N205 1.307 . S
C210 C209 1.370 . S
C210 H228 0.948 . S
Zn211 N205 2.020 . S
Zn211 O220 2.039 . S
Zn211 O226 2.034 . S
Zn211 O230 2.025 . S
Zn211 O232 2.024 . S
C212 O231 1.246 . S
C212 O232 1.249 . S
N213 C214 1.307 . S
N213 C215 1.333 . S
N213 Zn219 2.020 . S
C214 N213 1.307 . S
C214 C218 1.370 . S
C214 H225 0.948 . S
C215 N213 1.333 . S
C215 C216 1.379 . S
C215 H223 0.952 . S
C216 C215 1.379 . S
C216 C217 1.390 . S
C216 H236 0.949 . S
C217 C216 1.390 . S
C217 C218 1.357 . S
C218 C214 1.370 . S
C218 C217 1.357 . S
C218 H237 0.950 . S
Zn219 N213 2.020 . S
Zn219 O222 2.025 . S
Zn219 O227 2.024 . S
Zn219 O229 2.039 . S
Zn219 O231 2.034 . S
O220 C204 1.251 . S
O220 Zn211 2.039 . S
C221 O226 1.246 1_455 S
C221 O227 1.249 1_455 S
O222 C204 1.254 . S
O222 Zn219 2.025 . S
H223 C215 0.952 . S
H224 C206 0.952 . S
H225 C214 0.948 . S
O226 Zn211 2.034 . S
O226 C221 1.246 1_655 S
O227 Zn219 2.024 . S
O227 C221 1.249 1_655 S
H228 C210 0.948 . S
O229 Zn219 2.039 . S
O229 C233 1.251 . S
O230 Zn211 2.025 . S
O230 C233 1.254 . S
O231 C212 1.246 . S
O231 Zn219 2.034 . S
O232 Zn211 2.024 . S
O232 C212 1.249 . S
C233 O229 1.251 . S
C233 O230 1.254 . S
H234 C207 0.949 . S
H235 C209 0.950 . S
H236 C216 0.949 . S
H237 C218 0.950 . S
C238 O254 1.251 . S
C238 O256 1.254 . S
N239 C240 1.333 . S
N239 C244 1.307 . S
N239 Zn245 2.020 . S
C240 N239 1.333 . S
C240 C241 1.379 . S
C240 H258 0.952 . S
C241 C240 1.379 . S
C241 C242 1.390 . S
C241 H268 0.949 . S
C242 C241 1.390 . S
C242 C243 1.357 . S
C243 C242 1.357 . S
C243 C244 1.370 . S
C243 H269 0.950 . S
C244 N239 1.307 . S
C244 C243 1.370 . S
C244 H262 0.948 . S
Zn245 N239 2.020 . S
Zn245 O254 2.039 . S
Zn245 O260 2.034 . S
Zn245 O264 2.025 . S
Zn245 O266 2.024 . S
C246 O265 1.246 . S
C246 O266 1.249 . S
N247 C248 1.307 . S
N247 C249 1.333 . S
N247 Zn253 2.020 1_565 S
C248 N247 1.307 . S
C248 C252 1.370 . S
C248 H259 0.948 . S
C249 N247 1.333 . S
C249 C250 1.379 . S
C249 H257 0.952 . S
C250 C249 1.379 . S
C250 C251 1.390 . S
C250 H270 0.949 . S
C251 C250 1.390 . S
C251 C252 1.357 . S
C252 C248 1.370 . S
C252 C251 1.357 . S
C252 H271 0.950 . S
Zn253 N247 2.020 1_545 S
Zn253 O256 2.025 . S
Zn253 O261 2.024 . S
Zn253 O263 2.039 . S
Zn253 O265 2.034 . S
O254 C238 1.251 . S
O254 Zn245 2.039 . S
C255 O260 1.246 . S
C255 O261 1.249 . S
O256 C238 1.254 . S
O256 Zn253 2.025 . S
H257 C249 0.952 . S
H258 C240 0.952 . S
H259 C248 0.948 . S
O260 Zn245 2.034 . S
O260 C255 1.246 . S
O261 Zn253 2.024 . S
O261 C255 1.249 . S
H262 C244 0.948 . S
O263 Zn253 2.039 . S
O263 C267 1.251 . S
O264 Zn245 2.025 . S
O264 C267 1.254 . S
O265 C246 1.246 . S
O265 Zn253 2.034 . S
O266 Zn245 2.024 . S
O266 C246 1.249 . S
C267 O263 1.251 . S
C267 O264 1.254 . S
H268 C241 0.949 . S
H269 C243 0.950 . S
H270 C250 0.949 . S
H271 C252 0.950 . S
C272 O288 1.251 . S
C272 O290 1.254 . S
N273 C274 1.333 . S
N273 C278 1.307 . S
N273 Zn279 2.020 . S
C274 N273 1.333 . S
C274 C275 1.379 . S
C274 H292 0.952 . S
C275 C274 1.379 . S
C275 C276 1.390 . S
C275 H302 0.949 . S
C276 C275 1.390 . S
C276 C277 1.357 . S
C277 C276 1.357 . S
C277 C278 1.370 . S
C277 H303 0.950 . S
C278 N273 1.307 . S
C278 C277 1.370 . S
C278 H296 0.948 . S
Zn279 N273 2.020 . S
Zn279 O288 2.039 . S
Zn279 O294 2.034 . S
Zn279 O298 2.025 . S
Zn279 O300 2.024 . S
C280 O299 1.246 . S
C280 O300 1.249 . S
N281 C282 1.307 . S
N281 C283 1.333 . S
N281 Zn287 2.020 1_455 S
C282 N281 1.307 . S
C282 C286 1.370 . S
C282 H293 0.948 . S
C283 N281 1.333 . S
C283 C284 1.379 . S
C283 H291 0.952 . S
C284 C283 1.379 . S
C284 C285 1.390 . S
C284 H304 0.949 . S
C285 C284 1.390 . S
C285 C286 1.357 . S
C286 C282 1.370 . S
C286 C285 1.357 . S
C286 H305 0.950 . S
Zn287 N281 2.020 1_655 S
Zn287 O290 2.025 . S
Zn287 O295 2.024 . S
Zn287 O297 2.039 . S
Zn287 O299 2.034 . S
O288 C272 1.251 . S
O288 Zn279 2.039 . S
C289 O294 1.246 1_565 S
C289 O295 1.249 1_565 S
O290 C272 1.254 . S
O290 Zn287 2.025 . S
H291 C283 0.952 . S
H292 C274 0.952 . S
H293 C282 0.948 . S
O294 Zn279 2.034 . S
O294 C289 1.246 1_545 S
O295 Zn287 2.024 . S
O295 C289 1.249 1_545 S
H296 C278 0.948 . S
O297 Zn287 2.039 . S
O297 C301 1.251 . S
O298 Zn279 2.025 . S
O298 C301 1.254 . S
O299 C280 1.246 . S
O299 Zn287 2.034 . S
O300 Zn279 2.024 . S
O300 C280 1.249 . S
C301 O297 1.251 . S
C301 O298 1.254 . S
H302 C275 0.949 . S
H303 C277 0.950 . S
H304 C284 0.949 . S
H305 C286 0.950 . S
C306 O322 1.251 . S
C306 O324 1.254 . S
N307 C308 1.333 . S
N307 C312 1.307 . S
N307 Zn313 2.020 . S
C308 N307 1.333 . S
C308 C309 1.379 . S
C308 H326 0.952 . S
C309 C308 1.379 . S
C309 C310 1.390 . S
C309 H336 0.949 . S
C310 C309 1.390 . S
C310 C311 1.357 . S
C311 C310 1.357 . S
C311 C312 1.370 . S
C311 H337 0.950 . S
C312 N307 1.307 . S
C312 C311 1.370 . S
C312 H330 0.948 . S
Zn313 N307 2.020 . S
Zn313 O322 2.039 . S
Zn313 O328 2.034 . S
Zn313 O332 2.025 . S
Zn313 O334 2.024 . S
C314 O333 1.246 . S
C314 O334 1.249 . S
N315 C316 1.307 . S
N315 C317 1.333 . S
N315 Zn321 2.020 . S
C316 N315 1.307 . S
C316 C320 1.370 . S
C316 H327 0.948 . S
C317 N315 1.333 . S
C317 C318 1.379 . S
C317 H325 0.952 . S
C318 C317 1.379 . S
C318 C319 1.390 . S
C318 H338 0.949 . S
C319 C318 1.390 . S
C319 C320 1.357 . S
C320 C316 1.370 . S
C320 C319 1.357 . S
C320 H339 0.950 . S
Zn321 N315 2.020 . S
Zn321 O324 2.025 . S
Zn321 O329 2.024 . S
Zn321 O331 2.039 . S
Zn321 O333 2.034 . S
O322 C306 1.251 . S
O322 Zn313 2.039 . S
C323 O328 1.246 1_545 S
C323 O329 1.249 1_545 S
O324 C306 1.254 . S
O324 Zn321 2.025 . S
H325 C317 0.952 . S
H326 C308 0.952 . S
H327 C316 0.948 . S
O328 Zn313 2.034 . S
O328 C323 1.246 1_565 S
O329 Zn321 2.024 . S
O329 C323 1.249 1_565 S
H330 C312 0.948 . S
O331 Zn321 2.039 . S
O331 C335 1.251 . S
O332 Zn313 2.025 . S
O332 C335 1.254 . S
O333 C314 1.246 . S
O333 Zn321 2.034 . S
O334 Zn313 2.024 . S
O334 C314 1.249 . S
C335 O331 1.251 . S
C335 O332 1.254 . S
H336 C309 0.949 . S
H337 C311 0.950 . S
H338 C318 0.949 . S
H339 C320 0.950 . S
C340 O356 1.251 . S
C340 O358 1.254 . S
N341 C342 1.333 . S
N341 C346 1.307 . S
N341 Zn347 2.020 . S
C342 N341 1.333 . S
C342 C343 1.379 . S
C342 H360 0.952 . S
C343 C342 1.379 . S
C343 C344 1.390 . S
C343 H370 0.949 . S
C344 C343 1.390 . S
C344 C345 1.357 . S
C345 C344 1.357 . S
C345 C346 1.370 . S
C345 H371 0.950 . S
C346 N341 1.307 . S
C346 C345 1.370 . S
C346 H364 0.948 . S
Zn347 N341 2.020 . S
Zn347 O356 2.039 . S
Zn347 O362 2.034 . S
Zn347 O366 2.025 . S
Zn347 O368 2.024 . S
C348 O367 1.246 . S
C348 O368 1.249 . S
N349 C350 1.307 1_565 S
N349 C351 1.333 1_565 S
N349 Zn355 2.020 . S
C350 N349 1.307 1_545 S
C350 C354 1.370 . S
C350 H361 0.940 1_545 S
C351 N349 1.333 1_545 S
C351 C352 1.379 . S
C351 H359 0.952 . S
C352 C351 1.379 . S
C352 C353 1.390 . S
C352 H372 0.949 . S
C353 C352 1.390 . S
C353 C354 1.357 . S
C354 C350 1.370 . S
C354 C353 1.357 . S
C354 H373 0.950 . S
Zn355 N349 2.020 . S
Zn355 O358 2.025 . S
Zn355 O363 2.024 . S
Zn355 O365 2.039 . S
Zn355 O367 2.034 . S
O356 C340 1.251 . S
O356 Zn347 2.039 . S
C357 O362 1.246 1_655 S
C357 O363 1.249 1_655 S
O358 C340 1.254 . S
O358 Zn355 2.025 . S
H359 C351 0.952 . S
H360 C342 0.952 . S
H361 C350 0.940 1_565 S
O362 Zn347 2.034 . S
O362 C357 1.246 1_455 S
O363 Zn355 2.024 . S
O363 C357 1.249 1_455 S
H364 C346 0.948 . S
O365 Zn355 2.039 . S
O365 C369 1.251 . S
O366 Zn347 2.025 . S
O366 C369 1.254 . S
O367 C348 1.246 . S
O367 Zn355 2.034 . S
O368 Zn347 2.024 . S
O368 C348 1.249 . S
C369 O365 1.251 . S
C369 O366 1.254 . S
H370 C343 0.949 . S
H371 C345 0.950 . S
H372 C352 0.949 . S
H373 C354 0.950 . S
C374 O390 1.251 . S
C374 O392 1.254 . S
N375 C376 1.333 . S
N375 C380 1.307 . S
N375 Zn381 2.020 . S
C376 N375 1.333 . S
C376 C377 1.379 . S
C376 H394 0.952 . S
C377 C376 1.379 . S
C377 C378 1.390 . S
C377 H404 0.949 . S
C378 C377 1.390 . S
C378 C379 1.357 . S
C379 C378 1.357 . S
C379 C380 1.370 . S
C379 H405 0.950 . S
C380 N375 1.307 . S
C380 C379 1.370 . S
C380 H398 0.948 . S
Zn381 N375 2.020 . S
Zn381 O390 2.039 . S
Zn381 O396 2.034 . S
Zn381 O400 2.025 . S
Zn381 O402 2.024 . S
C382 O401 1.246 . S
C382 O402 1.249 . S
N383 C384 1.307 1_455 S
N383 C385 1.333 1_455 S
N383 Zn389 2.020 . S
C384 N383 1.307 1_655 S
C384 C388 1.370 . S
C384 H395 0.941 1_655 S
C385 N383 1.333 1_655 S
C385 C386 1.379 . S
C385 H393 0.952 . S
C386 C385 1.379 . S
C386 C387 1.390 . S
C386 H406 0.949 . S
C387 C386 1.390 . S
C387 C388 1.357 . S
C388 C384 1.370 . S
C388 C387 1.357 . S
C388 H407 0.950 . S
Zn389 N383 2.020 . S
Zn389 O392 2.025 . S
Zn389 O397 2.024 . S
Zn389 O399 2.039 . S
Zn389 O401 2.034 . S
O390 C374 1.251 . S
O390 Zn381 2.039 . S
C391 O396 1.246 . S
C391 O397 1.249 . S
O392 C374 1.254 . S
O392 Zn389 2.025 . S
H393 C385 0.952 . S
H394 C376 0.952 . S
H395 C384 0.941 1_455 S
O396 Zn381 2.034 . S
O396 C391 1.246 . S
O397 Zn389 2.024 . S
O397 C391 1.249 . S
H398 C380 0.948 . S
O399 Zn389 2.039 . S
O399 C403 1.251 . S
O400 Zn381 2.025 . S
O400 C403 1.254 . S
O401 C382 1.246 . S
O401 Zn389 2.034 . S
O402 Zn381 2.024 . S
O402 C382 1.249 . S
C403 O399 1.251 . S
C403 O400 1.254 . S
H404 C377 0.949 . S
H405 C379 0.950 . S
H406 C386 0.949 . S
H407 C388 0.950 . S
C408 O424 1.251 . S
C408 O426 1.254 . S
N409 C410 1.333 . S
N409 C414 1.307 . S
N409 Zn415 2.020 . S
C410 N409 1.333 . S
C410 C411 1.379 . S
C410 H428 0.952 . S
C411 C410 1.379 . S
C411 C412 1.390 . S
C411 H438 0.949 . S
C412 C411 1.390 . S
C412 C413 1.357 . S
C413 C412 1.357 . S
C413 C414 1.370 . S
C413 H439 0.950 . S
C414 N409 1.307 . S
C414 C413 1.370 . S
C414 H432 0.948 . S
Zn415 N409 2.020 . S
Zn415 O424 2.039 . S
Zn415 O430 2.034 . S
Zn415 O434 2.025 . S
Zn415 O436 2.024 . S
C416 O435 1.246 . S
C416 O436 1.249 . S
N417 C418 1.307 . S
N417 C419 1.333 . S
N417 Zn423 2.020 . S
C418 N417 1.307 . S
C418 C422 1.370 . S
C418 H429 0.948 . S
C419 N417 1.333 . S
C419 C420 1.379 . S
C419 H427 0.952 . S
C420 C419 1.379 . S
C420 C421 1.390 . S
C420 H440 0.949 . S
C421 C420 1.390 . S
C421 C422 1.357 . S
C422 C418 1.370 . S
C422 C421 1.357 . S
C422 H441 0.950 . S
Zn423 N417 2.020 . S
Zn423 O426 2.025 . S
Zn423 O431 2.024 . S
Zn423 O433 2.039 . S
Zn423 O435 2.034 . S
O424 C408 1.251 . S
O424 Zn415 2.039 . S
C425 O430 1.246 . S
C425 O431 1.249 . S
O426 C408 1.254 . S
O426 Zn423 2.025 . S
H427 C419 0.952 . S
H428 C410 0.952 . S
H429 C418 0.948 . S
O430 Zn415 2.034 . S
O430 C425 1.246 . S
O431 Zn423 2.024 . S
O431 C425 1.249 . S
H432 C414 0.948 . S
O433 Zn423 2.039 . S
O433 C437 1.251 . S
O434 Zn415 2.025 . S
O434 C437 1.254 . S
O435 C416 1.246 . S
O435 Zn423 2.034 . S
O436 Zn415 2.024 . S
O436 C416 1.249 . S
C437 O433 1.251 . S
C437 O434 1.254 . S
H438 C411 0.949 . S
H439 C413 0.950 . S
H440 C420 0.949 . S
H441 C422 0.950 . S
C442 O458 1.251 . S
C442 O460 1.254 . S
N443 C444 1.333 . S
N443 C448 1.307 . S
N443 Zn449 2.020 . S
C444 N443 1.333 . S
C444 C445 1.379 . S
C444 H462 0.952 . S
C445 C444 1.379 . S
C445 C446 1.390 . S
C445 H472 0.949 . S
C446 C445 1.390 . S
C446 C447 1.357 . S
C447 C446 1.357 . S
C447 C448 1.370 . S
C447 H473 0.950 . S
C448 N443 1.307 . S
C448 C447 1.370 . S
C448 H466 0.948 . S
Zn449 N443 2.020 . S
Zn449 O458 2.039 . S
Zn449 O464 2.034 . S
Zn449 O468 2.025 . S
Zn449 O470 2.024 . S
C450 O469 1.246 . S
C450 O470 1.249 . S
N451 C452 1.307 1_545 S
N451 C453 1.333 . S
N451 Zn457 2.020 . S
C452 N451 1.307 1_565 S
C452 C456 1.370 . S
C452 H463 0.948 1_565 S
C453 N451 1.333 . S
C453 C454 1.379 1_545 S
C453 H461 0.952 . S
C454 C453 1.379 1_565 S
C454 C455 1.390 . S
C454 H474 0.949 . S
C455 C454 1.390 . S
C455 C456 1.357 . S
C456 C452 1.370 . S
C456 C455 1.357 . S
C456 H475 0.950 . S
Zn457 N451 2.020 . S
Zn457 O460 2.025 . S
Zn457 O465 2.024 . S
Zn457 O467 2.039 . S
Zn457 O469 2.034 . S
O458 C442 1.251 . S
O458 Zn449 2.039 . S
C459 O464 1.246 . S
C459 O465 1.249 . S
O460 C442 1.254 . S
O460 Zn457 2.025 . S
H461 C453 0.952 . S
H462 C444 0.952 . S
H463 C452 0.948 1_545 S
O464 Zn449 2.034 . S
O464 C459 1.246 . S
O465 Zn457 2.024 . S
O465 C459 1.249 . S
H466 C448 0.948 . S
O467 Zn457 2.039 . S
O467 C471 1.251 . S
O468 Zn449 2.025 . S
O468 C471 1.254 . S
O469 C450 1.246 . S
O469 Zn457 2.034 . S
O470 Zn449 2.024 . S
O470 C450 1.249 . S
C471 O467 1.251 . S
C471 O468 1.254 . S
H472 C445 0.949 . S
H473 C447 0.950 . S
H474 C454 0.949 . S
H475 C456 0.950 . S
C476 O492 1.251 . S
C476 O494 1.254 . S
N477 C478 1.333 . S
N477 C482 1.307 . S
N477 Zn483 2.020 . S
C478 N477 1.333 . S
C478 C479 1.379 . S
C478 H496 0.952 . S
C479 C478 1.379 . S
C479 C480 1.390 . S
C479 H506 0.949 . S
C480 C479 1.390 . S
C480 C481 1.357 . S
C481 C480 1.357 . S
C481 C482 1.370 . S
C481 H507 0.950 . S
C482 N477 1.307 . S
C482 C481 1.370 . S
C482 H500 0.948 . S
Zn483 N477 2.020 . S
Zn483 O492 2.039 . S
Zn483 O498 2.034 . S
Zn483 O502 2.025 . S
Zn483 O504 2.024 . S
C484 O503 1.246 . S
C484 O504 1.249 . S
N485 C486 1.307 1_655 S
N485 C487 1.333 . S
N485 Zn491 2.020 . S
C486 N485 1.307 1_455 S
C486 C490 1.370 . S
C486 H497 0.948 1_455 S
C487 N485 1.333 . S
C487 C488 1.379 1_655 S
C487 H495 0.952 . S
C488 C487 1.379 1_455 S
C488 C489 1.390 . S
C488 H508 0.949 . S
C489 C488 1.390 . S
C489 C490 1.357 . S
C490 C486 1.370 . S
C490 C489 1.357 . S
C490 H509 0.950 . S
Zn491 N485 2.020 . S
Zn491 O494 2.025 . S
Zn491 O499 2.024 . S
Zn491 O501 2.039 . S
Zn491 O503 2.034 . S
O492 C476 1.251 . S
O492 Zn483 2.039 . S
C493 O498 1.246 . S
C493 O499 1.249 . S
O494 C476 1.254 . S
O494 Zn491 2.025 . S
H495 C487 0.952 . S
H496 C478 0.952 . S
H497 C486 0.948 1_655 S
O498 Zn483 2.034 . S
O498 C493 1.246 . S
O499 Zn491 2.024 . S
O499 C493 1.249 . S
H500 C482 0.948 . S
O501 Zn491 2.039 . S
O501 C505 1.251 . S
O502 Zn483 2.025 . S
O502 C505 1.254 . S
O503 C484 1.246 . S
O503 Zn491 2.034 . S
O504 Zn483 2.024 . S
O504 C484 1.249 . S
C505 O501 1.251 . S
C505 O502 1.254 . S
H506 C479 0.949 . S
H507 C481 0.950 . S
H508 C488 0.949 . S
H509 C490 0.950 . S
C510 O526 1.251 . S
C510 O528 1.254 . S
N511 C512 1.333 . S
N511 C516 1.307 . S
N511 Zn517 2.020 . S
C512 N511 1.333 . S
C512 C513 1.379 . S
C512 H530 0.952 . S
C513 C512 1.379 . S
C513 C514 1.390 . S
C513 H540 0.949 . S
C514 C513 1.390 . S
C514 C515 1.357 . S
C515 C514 1.357 . S
C515 C516 1.370 . S
C515 H541 0.950 . S
C516 N511 1.307 . S
C516 C515 1.370 . S
C516 H534 0.948 . S
Zn517 N511 2.020 . S
Zn517 O526 2.039 . S
Zn517 O532 2.034 . S
Zn517 O536 2.025 . S
Zn517 O538 2.024 . S
C518 O537 1.246 . S
C518 O538 1.249 . S
N519 C520 1.307 . S
N519 C521 1.333 . S
N519 Zn525 2.020 1_455 S
C520 N519 1.307 . S
C520 C524 1.370 . S
C520 H531 0.948 . S
C521 N519 1.333 . S
C521 C522 1.379 . S
C521 H529 0.952 . S
C522 C521 1.379 . S
C522 C523 1.390 . S
C522 H542 0.949 . S
C523 C522 1.390 . S
C523 C524 1.357 . S
C524 C520 1.370 . S
C524 C523 1.357 . S
C524 H543 0.950 . S
Zn525 N519 2.020 1_655 S
Zn525 O528 2.025 . S
Zn525 O533 2.024 1_655 S
Zn525 O535 2.039 . S
Zn525 O537 2.034 . S
O526 C510 1.251 . S
O526 Zn517 2.039 . S
C527 O532 1.246 . S
C527 O533 1.249 1_655 S
O528 C510 1.254 . S
O528 Zn525 2.025 . S
H529 C521 0.952 . S
H530 C512 0.952 . S
H531 C520 0.948 . S
O532 Zn517 2.034 . S
O532 C527 1.246 . S
O533 Zn525 2.024 1_455 S
O533 C527 1.249 1_455 S
H534 C516 0.948 . S
O535 Zn525 2.039 . S
O535 C539 1.251 . S
O536 Zn517 2.025 . S
O536 C539 1.254 . S
O537 C518 1.246 . S
O537 Zn525 2.034 . S
O538 Zn517 2.024 . S
O538 C518 1.249 . S
C539 O535 1.251 . S
C539 O536 1.254 . S
H540 C513 0.949 . S
H541 C515 0.950 . S
H542 C522 0.949 . S
H543 C524 0.950 . S
C544 O560 1.251 . S
C544 O562 1.254 . S
N545 C546 1.333 . S
N545 C550 1.307 . S
N545 Zn551 2.020 . S
C546 N545 1.333 . S
C546 C547 1.379 . S
C546 H564 0.952 . S
C547 C546 1.379 . S
C547 C548 1.390 . S
C547 H574 0.949 . S
C548 C547 1.390 . S
C548 C549 1.357 . S
C549 C548 1.357 . S
C549 C550 1.370 . S
C549 H575 0.950 . S
C550 N545 1.307 . S
C550 C549 1.370 . S
C550 H568 0.948 . S
Zn551 N545 2.020 . S
Zn551 O560 2.039 . S
Zn551 O566 2.034 . S
Zn551 O570 2.025 . S
Zn551 O572 2.024 . S
C552 O571 1.246 . S
C552 O572 1.249 . S
N553 C554 1.307 . S
N553 C555 1.333 . S
N553 Zn559 2.020 . S
C554 N553 1.307 . S
C554 C558 1.370 . S
C554 H565 0.948 . S
C555 N553 1.333 . S
C555 C556 1.379 . S
C555 H563 0.952 . S
C556 C555 1.379 . S
C556 C557 1.390 . S
C556 H576 0.949 . S
C557 C556 1.390 . S
C557 C558 1.357 . S
C558 C554 1.370 . S
C558 C557 1.357 . S
C558 H577 0.950 . S
Zn559 N553 2.020 . S
Zn559 O562 2.025 . S
Zn559 O567 2.024 . S
Zn559 O569 2.039 . S
Zn559 O571 2.034 . S
O560 C544 1.251 . S
O560 Zn551 2.039 . S
C561 O566 1.246 . S
C561 O567 1.249 . S
O562 C544 1.254 . S
O562 Zn559 2.025 . S
H563 C555 0.952 . S
H564 C546 0.952 . S
H565 C554 0.948 . S
O566 Zn551 2.034 . S
O566 C561 1.246 . S
O567 Zn559 2.024 . S
O567 C561 1.249 . S
H568 C550 0.948 . S
O569 Zn559 2.039 . S
O569 C573 1.251 . S
O570 Zn551 2.025 . S
O570 C573 1.254 . S
O571 C552 1.246 . S
O571 Zn559 2.034 . S
O572 Zn551 2.024 . S
O572 C552 1.249 . S
C573 O569 1.251 . S
C573 O570 1.254 . S
H574 C547 0.949 . S
H575 C549 0.950 . S
H576 C556 0.949 . S
H577 C558 0.950 . S
C578 O594 1.251 . S
C578 O596 1.254 . S
N579 C580 1.333 . S
N579 C584 1.307 . S
N579 Zn585 2.020 . S
C580 N579 1.333 . S
C580 C581 1.379 . S
C580 H598 0.952 . S
C581 C580 1.379 . S
C581 C582 1.390 . S
C581 H608 0.949 . S
C582 C581 1.390 . S
C582 C583 1.357 . S
C583 C582 1.357 . S
C583 C584 1.370 . S
C583 H609 0.950 . S
C584 N579 1.307 . S
C584 C583 1.370 . S
C584 H602 0.948 . S
Zn585 N579 2.020 . S
Zn585 O594 2.039 . S
Zn585 O600 2.034 . S
Zn585 O604 2.025 . S
Zn585 O606 2.024 . S
C586 O605 1.246 . S
C586 O606 1.249 . S
N587 C588 1.307 . S
N587 C589 1.333 . S
N587 Zn593 2.020 1_565 S
C588 N587 1.307 . S
C588 C592 1.370 . S
C588 H599 0.948 . S
C589 N587 1.333 . S
C589 C590 1.379 . S
C589 H597 0.952 . S
C590 C589 1.379 . S
C590 C591 1.390 . S
C590 H610 0.949 . S
C591 C590 1.390 . S
C591 C592 1.357 . S
C592 C588 1.370 . S
C592 C591 1.357 . S
C592 H611 0.950 . S
Zn593 N587 2.020 1_545 S
Zn593 O596 2.025 . S
Zn593 O601 2.024 1_545 S
Zn593 O603 2.039 . S
Zn593 O605 2.034 . S
O594 C578 1.251 . S
O594 Zn585 2.039 . S
C595 O600 1.246 . S
C595 O601 1.249 1_545 S
O596 C578 1.254 . S
O596 Zn593 2.025 . S
H597 C589 0.952 . S
H598 C580 0.952 . S
H599 C588 0.948 . S
O600 Zn585 2.034 . S
O600 C595 1.246 . S
O601 Zn593 2.024 1_565 S
O601 C595 1.249 1_565 S
H602 C584 0.948 . S
O603 Zn593 2.039 . S
O603 C607 1.251 . S
O604 Zn585 2.025 . S
O604 C607 1.254 . S
O605 C586 1.246 . S
O605 Zn593 2.034 . S
O606 Zn585 2.024 . S
O606 C586 1.249 . S
C607 O603 1.251 . S
C607 O604 1.254 . S
H608 C581 0.949 . S
H609 C583 0.950 . S
H610 C590 0.949 . S
H611 C592 0.950 . S
C612 O628 1.251 . S
C612 O630 1.254 . S
N613 C614 1.333 . S
N613 C618 1.307 . S
N613 Zn619 2.020 1_565 S
C614 N613 1.333 . S
C614 C615 1.379 . S
C614 H632 0.952 . S
C615 C614 1.379 . S
C615 C616 1.390 . S
C615 H642 0.949 . S
C616 C615 1.390 . S
C616 C617 1.357 . S
C617 C616 1.357 . S
C617 C618 1.370 . S
C617 H643 0.950 . S
C618 N613 1.307 . S
C618 C617 1.370 . S
C618 H636 0.948 . S
Zn619 N613 2.020 1_545 S
Zn619 O628 2.039 . S
Zn619 O634 2.034 . S
Zn619 O638 2.025 . S
Zn619 O640 2.024 1_545 S
C620 O639 1.246 1_565 S
C620 O640 1.249 . S
N621 C622 1.307 . S
N621 C623 1.333 . S
N621 Zn627 2.020 . S
C622 N621 1.307 . S
C622 C626 1.370 . S
C622 H633 0.948 . S
C623 N621 1.333 . S
C623 C624 1.379 . S
C623 H631 0.952 . S
C624 C623 1.379 . S
C624 C625 1.390 . S
C624 H644 0.949 . S
C625 C624 1.390 . S
C625 C626 1.357 . S
C626 C622 1.370 . S
C626 C625 1.357 . S
C626 H645 0.950 . S
Zn627 N621 2.020 . S
Zn627 O630 2.025 . S
Zn627 O635 2.024 . S
Zn627 O637 2.039 . S
Zn627 O639 2.034 . S
O628 C612 1.251 . S
O628 Zn619 2.039 . S
C629 O634 1.246 . S
C629 O635 1.249 . S
O630 C612 1.254 . S
O630 Zn627 2.025 . S
H631 C623 0.952 . S
H632 C614 0.952 . S
H633 C622 0.948 . S
O634 Zn619 2.034 . S
O634 C629 1.246 . S
O635 Zn627 2.024 . S
O635 C629 1.249 . S
H636 C618 0.948 . S
O637 Zn627 2.039 . S
O637 C641 1.251 . S
O638 Zn619 2.025 . S
O638 C641 1.254 . S
O639 C620 1.246 1_545 S
O639 Zn627 2.034 . S
O640 Zn619 2.024 1_565 S
O640 C620 1.249 . S
C641 O637 1.251 . S
C641 O638 1.254 . S
H642 C615 0.949 . S
H643 C617 0.950 . S
H644 C624 0.949 . S
H645 C626 0.950 . S
C646 O662 1.251 . S
C646 O664 1.254 . S
N647 C648 1.333 . S
N647 C652 1.307 . S
N647 Zn653 2.020 1_455 S
C648 N647 1.333 . S
C648 C649 1.379 . S
C648 H666 0.952 . S
C649 C648 1.379 . S
C649 C650 1.390 . S
C649 H676 0.949 . S
C650 C649 1.390 . S
C650 C651 1.357 . S
C651 C650 1.357 . S
C651 C652 1.370 . S
C651 H677 0.950 . S
C652 N647 1.307 . S
C652 C651 1.370 . S
C652 H670 0.948 . S
Zn653 N647 2.020 1_655 S
Zn653 O662 2.039 . S
Zn653 O668 2.034 . S
Zn653 O672 2.025 . S
Zn653 O674 2.024 1_655 S
C654 O673 1.246 1_455 S
C654 O674 1.249 . S
N655 C656 1.307 . S
N655 C657 1.333 . S
N655 Zn661 2.020 . S
C656 N655 1.307 . S
C656 C660 1.370 . S
C656 H667 0.948 . S
C657 N655 1.333 . S
C657 C658 1.379 . S
C657 H665 0.952 . S
C658 C657 1.379 . S
C658 C659 1.390 . S
C658 H678 0.949 . S
C659 C658 1.390 . S
C659 C660 1.357 . S
C660 C656 1.370 . S
C660 C659 1.357 . S
C660 H679 0.950 . S
Zn661 N655 2.020 . S
Zn661 O664 2.025 . S
Zn661 O669 2.024 . S
Zn661 O671 2.039 . S
Zn661 O673 2.034 . S
O662 C646 1.251 . S
O662 Zn653 2.039 . S
C663 O668 1.246 . S
C663 O669 1.249 . S
O664 C646 1.254 . S
O664 Zn661 2.025 . S
H665 C657 0.952 . S
H666 C648 0.952 . S
H667 C656 0.948 . S
O668 Zn653 2.034 . S
O668 C663 1.246 . S
O669 Zn661 2.024 . S
O669 C663 1.249 . S
H670 C652 0.948 . S
O671 Zn661 2.039 . S
O671 C675 1.251 . S
O672 Zn653 2.025 . S
O672 C675 1.254 . S
O673 C654 1.246 1_655 S
O673 Zn661 2.034 . S
O674 Zn653 2.024 1_455 S
O674 C654 1.249 . S
C675 O671 1.251 . S
C675 O672 1.254 . S
H676 C649 0.949 . S
H677 C651 0.950 . S
H678 C658 0.949 . S
H679 C660 0.950 . S
C680 O696 1.251 . S
C680 O698 1.254 . S
N681 C682 1.333 . S
N681 C686 1.307 . S
N681 Zn687 2.020 . S
C682 N681 1.333 . S
C682 C683 1.379 . S
C682 H700 0.952 . S
C683 C682 1.379 . S
C683 C684 1.390 . S
C683 H710 0.949 . S
C684 C683 1.390 . S
C684 C685 1.357 . S
C685 C684 1.357 . S
C685 C686 1.370 . S
C685 H711 0.950 . S
C686 N681 1.307 . S
C686 C685 1.370 . S
C686 H704 0.948 . S
Zn687 N681 2.020 . S
Zn687 O696 2.039 . S
Zn687 O702 2.034 . S
Zn687 O706 2.025 . S
Zn687 O708 2.024 . S
C688 O707 1.246 . S
C688 O708 1.249 . S
N689 C690 1.307 . S
N689 C691 1.333 . S
N689 Zn695 2.020 . S
C690 N689 1.307 . S
C690 C694 1.370 . S
C690 H701 0.948 . S
C691 N689 1.333 . S
C691 C692 1.379 . S
C691 H699 0.952 . S
C692 C691 1.379 . S
C692 C693 1.390 . S
C692 H712 0.949 . S
C693 C692 1.390 . S
C693 C694 1.357 . S
C694 C690 1.370 . S
C694 C693 1.357 . S
C694 H713 0.950 . S
Zn695 N689 2.020 . S
Zn695 O698 2.025 . S
Zn695 O703 2.024 . S
Zn695 O705 2.039 . S
Zn695 O707 2.034 . S
O696 C680 1.251 . S
O696 Zn687 2.039 . S
C697 O702 1.246 . S
C697 O703 1.249 . S
O698 C680 1.254 . S
O698 Zn695 2.025 . S
H699 C691 0.952 . S
H700 C682 0.952 . S
H701 C690 0.948 . S
O702 Zn687 2.034 . S
O702 C697 1.246 . S
O703 Zn695 2.024 . S
O703 C697 1.249 . S
H704 C686 0.948 . S
O705 Zn695 2.039 . S
O705 C709 1.251 . S
O706 Zn687 2.025 . S
O706 C709 1.254 . S
O707 C688 1.246 . S
O707 Zn695 2.034 . S
O708 Zn687 2.024 . S
O708 C688 1.249 . S
C709 O705 1.251 . S
C709 O706 1.254 . S
H710 C683 0.949 . S
H711 C685 0.950 . S
H712 C692 0.949 . S
H713 C694 0.950 . S
C714 O730 1.251 . S
C714 O732 1.254 . S
N715 C716 1.333 . S
N715 C720 1.307 . S
N715 Zn721 2.020 . S
C716 N715 1.333 . S
C716 C717 1.379 . S
C716 H734 0.952 . S
C717 C716 1.379 . S
C717 C718 1.390 . S
C717 H744 0.949 . S
C718 C717 1.390 . S
C718 C719 1.357 . S
C719 C718 1.357 . S
C719 C720 1.370 . S
C719 H745 0.950 1_556 S
C720 N715 1.307 . S
C720 C719 1.370 . S
C720 H738 0.948 1_556 S
Zn721 N715 2.020 . S
Zn721 O730 2.039 . S
Zn721 O736 2.034 . S
Zn721 O740 2.025 . S
Zn721 O742 2.024 . S
C722 O741 1.246 . S
C722 O742 1.249 . S
N723 C724 1.307 . S
N723 C725 1.333 . S
N723 Zn729 2.020 . S
C724 N723 1.307 . S
C724 C728 1.370 . S
C724 H735 0.948 . S
C725 N723 1.333 . S
C725 C726 1.379 . S
C725 H733 0.952 . S
C726 C725 1.379 . S
C726 C727 1.390 . S
C726 H746 0.949 . S
C727 C726 1.390 . S
C727 C728 1.357 . S
C728 C724 1.370 . S
C728 C727 1.357 . S
C728 H747 0.950 . S
Zn729 N723 2.020 . S
Zn729 O732 2.025 . S
Zn729 O737 2.024 . S
Zn729 O739 2.039 . S
Zn729 O741 2.034 . S
O730 C714 1.251 . S
O730 Zn721 2.039 . S
C731 O736 1.246 . S
C731 O737 1.249 . S
O732 C714 1.254 . S
O732 Zn729 2.025 . S
H733 C725 0.952 . S
H734 C716 0.952 . S
H735 C724 0.948 . S
O736 Zn721 2.034 . S
O736 C731 1.246 . S
O737 Zn729 2.024 . S
O737 C731 1.249 . S
H738 C720 0.948 1_554 S
O739 Zn729 2.039 . S
O739 C743 1.251 1_556 S
O740 Zn721 2.025 . S
O740 C743 1.254 1_556 S
O741 C722 1.246 . S
O741 Zn729 2.034 . S
O742 Zn721 2.024 . S
O742 C722 1.249 . S
C743 O739 1.251 1_554 S
C743 O740 1.254 1_554 S
H744 C717 0.949 . S
H745 C719 0.950 1_554 S
H746 C726 0.949 . S
H747 C728 0.950 . S
C748 O764 1.251 . S
C748 O766 1.254 . S
N749 C750 1.333 1_545 S
N749 C754 1.307 1_545 S
N749 Zn755 2.020 . S
C750 N749 1.333 1_565 S
C750 C751 1.379 . S
C750 H768 0.952 1_565 S
C751 C750 1.379 . S
C751 C752 1.390 . S
C751 H778 0.949 . S
C752 C751 1.390 . S
C752 C753 1.357 . S
C753 C752 1.357 . S
C753 C754 1.370 . S
C753 H779 0.950 1_556 S
C754 N749 1.307 1_565 S
C754 C753 1.370 . S
C754 H772 0.948 1_566 S
Zn755 N749 2.020 . S
Zn755 O764 2.039 . S
Zn755 O770 2.034 . S
Zn755 O774 2.025 . S
Zn755 O776 2.024 . S
C756 O775 1.246 . S
C756 O776 1.249 . S
N757 C758 1.307 . S
N757 C759 1.333 . S
N757 Zn763 2.020 . S
C758 N757 1.307 . S
C758 C762 1.370 . S
C758 H769 0.948 . S
C759 N757 1.333 . S
C759 C760 1.379 . S
C759 H767 0.952 . S
C760 C759 1.379 . S
C760 C761 1.390 . S
C760 H780 0.949 . S
C761 C760 1.390 . S
C761 C762 1.357 . S
C762 C758 1.370 . S
C762 C761 1.357 . S
C762 H781 0.950 . S
Zn763 N757 2.020 . S
Zn763 O766 2.025 . S
Zn763 O771 2.024 . S
Zn763 O773 2.039 . S
Zn763 O775 2.034 . S
O764 C748 1.251 . S
O764 Zn755 2.039 . S
C765 O770 1.246 . S
C765 O771 1.249 . S
O766 C748 1.254 . S
O766 Zn763 2.025 . S
H767 C759 0.952 . S
H768 C750 0.952 1_545 S
H769 C758 0.948 . S
O770 Zn755 2.034 . S
O770 C765 1.246 . S
O771 Zn763 2.024 . S
O771 C765 1.249 . S
H772 C754 0.948 1_544 S
O773 Zn763 2.039 . S
O773 C777 1.251 1_556 S
O774 Zn755 2.025 . S
O774 C777 1.254 1_556 S
O775 C756 1.246 . S
O775 Zn763 2.034 . S
O776 Zn755 2.024 . S
O776 C756 1.249 . S
C777 O773 1.251 1_554 S
C777 O774 1.254 1_554 S
H778 C751 0.949 . S
H779 C753 0.950 1_554 S
H780 C760 0.949 . S
H781 C762 0.950 . S
C782 O798 1.251 . S
C782 O800 1.254 . S
N783 C784 1.333 1_655 S
N783 C788 1.307 1_655 S
N783 Zn789 2.020 . S
C784 N783 1.333 1_455 S
C784 C785 1.379 . S
C784 H802 0.952 1_455 S
C785 C784 1.379 . S
C785 C786 1.390 . S
C785 H812 0.949 . S
C786 C785 1.390 . S
C786 C787 1.357 . S
C787 C786 1.357 . S
C787 C788 1.370 . S
C787 H813 0.950 1_556 S
C788 N783 1.307 1_455 S
C788 C787 1.370 . S
C788 H806 0.948 1_456 S
Zn789 N783 2.020 . S
Zn789 O798 2.039 . S
Zn789 O804 2.034 . S
Zn789 O808 2.025 . S
Zn789 O810 2.024 . S
C790 O809 1.246 . S
C790 O810 1.249 . S
N791 C792 1.307 . S
N791 C793 1.333 . S
N791 Zn797 2.020 . S
C792 N791 1.307 . S
C792 C796 1.370 . S
C792 H803 0.948 . S
C793 N791 1.333 . S
C793 C794 1.379 . S
C793 H801 0.952 . S
C794 C793 1.379 . S
C794 C795 1.390 . S
C794 H814 0.949 . S
C795 C794 1.390 . S
C795 C796 1.357 . S
C796 C792 1.370 . S
C796 C795 1.357 . S
C796 H815 0.950 . S
Zn797 N791 2.020 . S
Zn797 O800 2.025 . S
Zn797 O805 2.024 . S
Zn797 O807 2.039 . S
Zn797 O809 2.034 . S
O798 C782 1.251 . S
O798 Zn789 2.039 . S
C799 O804 1.246 . S
C799 O805 1.249 . S
O800 C782 1.254 . S
O800 Zn797 2.025 . S
H801 C793 0.952 . S
H802 C784 0.952 1_655 S
H803 C792 0.948 . S
O804 Zn789 2.034 . S
O804 C799 1.246 . S
O805 Zn797 2.024 . S
O805 C799 1.249 . S
H806 C788 0.948 1_654 S
O807 Zn797 2.039 . S
O807 C811 1.251 1_556 S
O808 Zn789 2.025 . S
O808 C811 1.254 1_556 S
O809 C790 1.246 . S
O809 Zn797 2.034 . S
O810 Zn789 2.024 . S
O810 C790 1.249 . S
C811 O807 1.251 1_554 S
C811 O808 1.254 1_554 S
H812 C785 0.949 . S
H813 C787 0.950 1_554 S
H814 C794 0.949 . S
H815 C796 0.950 . S
C816 O832 1.251 . S
C816 O834 1.254 . S
N817 C818 1.333 . S
N817 C822 1.307 . S
N817 Zn823 2.020 . S
C818 N817 1.333 . S
C818 C819 1.379 . S
C818 H836 0.952 . S
C819 C818 1.379 . S
C819 C820 1.390 . S
C819 H846 0.949 . S
C820 C819 1.390 . S
C820 C821 1.357 . S
C821 C820 1.357 . S
C821 C822 1.370 . S
C821 H847 0.950 . S
C822 N817 1.307 . S
C822 C821 1.370 . S
C822 H840 0.948 . S
Zn823 N817 2.020 . S
Zn823 O832 2.039 . S
Zn823 O838 2.034 . S
Zn823 O842 2.025 . S
Zn823 O844 2.024 . S
C824 O843 1.246 . S
C824 O844 1.249 . S
N825 C826 1.307 . S
N825 C827 1.333 . S
N825 Zn831 2.020 1_545 S
C826 N825 1.307 . S
C826 C830 1.370 . S
C826 H837 0.948 . S
C827 N825 1.333 . S
C827 C828 1.379 . S
C827 H835 0.952 . S
C828 C827 1.379 . S
C828 C829 1.390 . S
C828 H848 0.949 . S
C829 C828 1.390 . S
C829 C830 1.357 . S
C830 C826 1.370 . S
C830 C829 1.357 . S
C830 H849 0.950 . S
Zn831 N825 2.020 1_565 S
Zn831 O834 2.025 . S
Zn831 O839 2.024 1_565 S
Zn831 O841 2.039 . S
Zn831 O843 2.034 . S
O832 C816 1.251 . S
O832 Zn823 2.039 . S
C833 O838 1.246 1_545 S
C833 O839 1.249 . S
O834 C816 1.254 . S
O834 Zn831 2.025 . S
H835 C827 0.952 . S
H836 C818 0.952 . S
H837 C826 0.948 . S
O838 Zn823 2.034 . S
O838 C833 1.246 1_565 S
O839 Zn831 2.024 1_545 S
O839 C833 1.249 . S
H840 C822 0.948 . S
O841 Zn831 2.039 . S
O841 C845 1.251 . S
O842 Zn823 2.025 . S
O842 C845 1.254 . S
O843 C824 1.246 . S
O843 Zn831 2.034 . S
O844 Zn823 2.024 . S
O844 C824 1.249 . S
C845 O841 1.251 . S
C845 O842 1.254 . S
H846 C819 0.949 . S
H847 C821 0.950 . S
H848 C828 0.949 . S
H849 C830 0.950 . S
C850 O866 1.251 . S
C850 O868 1.254 . S
N851 C852 1.333 . S
N851 C856 1.307 . S
N851 Zn857 2.020 . S
C852 N851 1.333 . S
C852 C853 1.379 . S
C852 H870 0.952 . S
C853 C852 1.379 . S
C853 C854 1.390 . S
C853 H880 0.949 . S
C854 C853 1.390 . S
C854 C855 1.357 . S
C855 C854 1.357 . S
C855 C856 1.370 . S
C855 H881 0.950 . S
C856 N851 1.307 . S
C856 C855 1.370 . S
C856 H874 0.948 . S
Zn857 N851 2.020 . S
Zn857 O866 2.039 . S
Zn857 O872 2.034 . S
Zn857 O876 2.025 . S
Zn857 O878 2.024 . S
C858 O877 1.246 . S
C858 O878 1.249 . S
N859 C860 1.307 . S
N859 C861 1.333 . S
N859 Zn865 2.020 1_655 S
C860 N859 1.307 . S
C860 C864 1.370 . S
C860 H871 0.948 . S
C861 N859 1.333 . S
C861 C862 1.379 . S
C861 H869 0.952 . S
C862 C861 1.379 . S
C862 C863 1.390 . S
C862 H882 0.949 . S
C863 C862 1.390 . S
C863 C864 1.357 . S
C864 C860 1.370 . S
C864 C863 1.357 . S
C864 H883 0.950 . S
Zn865 N859 2.020 1_455 S
Zn865 O868 2.025 . S
Zn865 O873 2.024 1_455 S
Zn865 O875 2.039 . S
Zn865 O877 2.034 . S
O866 C850 1.251 . S
O866 Zn857 2.039 . S
C867 O872 1.246 1_655 S
C867 O873 1.249 . S
O868 C850 1.254 . S
O868 Zn865 2.025 . S
H869 C861 0.952 . S
H870 C852 0.952 . S
H871 C860 0.948 . S
O872 Zn857 2.034 . S
O872 C867 1.246 1_455 S
O873 Zn865 2.024 1_655 S
O873 C867 1.249 . S
H874 C856 0.948 . S
O875 Zn865 2.039 . S
O875 C879 1.251 . S
O876 Zn857 2.025 . S
O876 C879 1.254 . S
O877 C858 1.246 . S
O877 Zn865 2.034 . S
O878 Zn857 2.024 . S
O878 C858 1.249 . S
C879 O875 1.251 . S
C879 O876 1.254 . S
H880 C853 0.949 . S
H881 C855 0.950 . S
H882 C862 0.949 . S
H883 C864 0.950 . S
C884 O900 1.251 . S
C884 O902 1.254 . S
N885 C886 1.333 . S
N885 C890 1.307 . S
N885 Zn891 2.020 . S
C886 N885 1.333 . S
C886 C887 1.379 . S
C886 H904 0.952 . S
C887 C886 1.379 . S
C887 C888 1.390 . S
C887 H914 0.949 . S
C888 C887 1.390 . S
C888 C889 1.357 . S
C889 C888 1.357 . S
C889 C890 1.370 . S
C889 H915 0.950 . S
C890 N885 1.307 . S
C890 C889 1.370 . S
C890 H908 0.948 . S
Zn891 N885 2.020 . S
Zn891 O900 2.039 . S
Zn891 O906 2.034 . S
Zn891 O910 2.025 . S
Zn891 O912 2.024 . S
C892 O911 1.246 . S
C892 O912 1.249 . S
N893 C894 1.307 . S
N893 C895 1.333 . S
N893 Zn899 2.020 . S
C894 N893 1.307 . S
C894 C898 1.370 . S
C894 H905 0.948 . S
C895 N893 1.333 . S
C895 C896 1.379 . S
C895 H903 0.952 . S
C896 C895 1.379 . S
C896 C897 1.390 . S
C896 H916 0.949 . S
C897 C896 1.390 . S
C897 C898 1.357 . S
C898 C894 1.370 . S
C898 C897 1.357 . S
C898 H917 0.950 . S
Zn899 N893 2.020 . S
Zn899 O902 2.025 . S
Zn899 O907 2.024 . S
Zn899 O909 2.039 . S
Zn899 O911 2.034 . S
O900 C884 1.251 . S
O900 Zn891 2.039 . S
C901 O906 1.246 . S
C901 O907 1.249 . S
O902 C884 1.254 . S
O902 Zn899 2.025 . S
H903 C895 0.952 . S
H904 C886 0.952 . S
H905 C894 0.948 . S
O906 Zn891 2.034 . S
O906 C901 1.246 . S
O907 Zn899 2.024 . S
O907 C901 1.249 . S
H908 C890 0.948 . S
O909 Zn899 2.039 . S
O909 C913 1.251 . S
O910 Zn891 2.025 . S
O910 C913 1.254 . S
O911 C892 1.246 . S
O911 Zn899 2.034 . S
O912 Zn891 2.024 . S
O912 C892 1.249 . S
C913 O909 1.251 . S
C913 O910 1.254 . S
H914 C887 0.949 . S
H915 C889 0.950 . S
H916 C896 0.949 . S
H917 C898 0.950 . S
C918 O934 1.251 1_556 S
C918 O936 1.254 1_556 S
N919 C920 1.333 . S
N919 C924 1.307 . S
N919 Zn925 2.020 . S
C920 N919 1.333 . S
C920 C921 1.379 . S
C920 H938 0.952 . S
C921 C920 1.379 . S
C921 C922 1.390 . S
C921 H948 0.949 . S
C922 C921 1.390 . S
C922 C923 1.357 . S
C923 C922 1.357 . S
C923 C924 1.370 . S
C923 H949 0.950 . S
C924 N919 1.307 . S
C924 C923 1.370 . S
C924 H942 0.948 . S
Zn925 N919 2.020 . S
Zn925 O934 2.039 . S
Zn925 O940 2.034 . S
Zn925 O944 2.025 . S
Zn925 O946 2.024 . S
C926 O945 1.246 . S
C926 O946 1.249 . S
N927 C928 1.307 . S
N927 C929 1.333 . S
N927 Zn933 2.020 . S
C928 N927 1.307 . S
C928 C932 1.370 . S
C928 H939 0.948 1_554 S
C929 N927 1.333 . S
C929 C930 1.379 . S
C929 H937 0.952 . S
C930 C929 1.379 . S
C930 C931 1.390 . S
C930 H950 0.949 . S
C931 C930 1.390 . S
C931 C932 1.357 . S
C932 C928 1.370 . S
C932 C931 1.357 . S
C932 H951 0.950 1_554 S
Zn933 N927 2.020 . S
Zn933 O936 2.025 . S
Zn933 O941 2.024 . S
Zn933 O943 2.039 . S
Zn933 O945 2.034 . S
O934 C918 1.251 1_554 S
O934 Zn925 2.039 . S
C935 O940 1.246 . S
C935 O941 1.249 . S
O936 C918 1.254 1_554 S
O936 Zn933 2.025 . S
H937 C929 0.952 . S
H938 C920 0.952 . S
H939 C928 0.948 1_556 S
O940 Zn925 2.034 . S
O940 C935 1.246 . S
O941 Zn933 2.024 . S
O941 C935 1.249 . S
H942 C924 0.948 . S
O943 Zn933 2.039 . S
O943 C947 1.251 . S
O944 Zn925 2.025 . S
O944 C947 1.254 . S
O945 C926 1.246 . S
O945 Zn933 2.034 . S
O946 Zn925 2.024 . S
O946 C926 1.249 . S
C947 O943 1.251 . S
C947 O944 1.254 . S
H948 C921 0.949 . S
H949 C923 0.950 . S
H950 C930 0.949 . S
H951 C932 0.950 1_556 S
C952 O968 1.251 1_556 S
C952 O970 1.254 1_556 S
N953 C954 1.333 . S
N953 C958 1.307 . S
N953 Zn959 2.020 . S
C954 N953 1.333 . S
C954 C955 1.379 . S
C954 H972 0.952 . S
C955 C954 1.379 . S
C955 C956 1.390 . S
C955 H982 0.949 . S
C956 C955 1.390 . S
C956 C957 1.357 . S
C957 C956 1.357 . S
C957 C958 1.370 . S
C957 H983 0.950 . S
C958 N953 1.307 . S
C958 C957 1.370 . S
C958 H976 0.948 . S
Zn959 N953 2.020 . S
Zn959 O968 2.039 . S
Zn959 O974 2.034 . S
Zn959 O978 2.025 . S
Zn959 O980 2.024 . S
C960 O979 1.246 . S
C960 O980 1.249 . S
N961 C962 1.307 1_565 S
N961 C963 1.333 1_565 S
N961 Zn967 2.020 . S
C962 N961 1.307 1_545 S
C962 C966 1.370 . S
C962 H973 0.948 1_544 S
C963 N961 1.333 1_545 S
C963 C964 1.379 . S
C963 H971 0.952 1_545 S
C964 C963 1.379 . S
C964 C965 1.390 . S
C964 H984 0.949 . S
C965 C964 1.390 . S
C965 C966 1.357 . S
C966 C962 1.370 . S
C966 C965 1.357 . S
C966 H985 0.950 1_554 S
Zn967 N961 2.020 . S
Zn967 O970 2.025 . S
Zn967 O975 2.024 . S
Zn967 O977 2.039 . S
Zn967 O979 2.034 . S
O968 C952 1.251 1_554 S
O968 Zn959 2.039 . S
C969 O974 1.246 . S
C969 O975 1.249 . S
O970 C952 1.254 1_554 S
O970 Zn967 2.025 . S
H971 C963 0.952 1_565 S
H972 C954 0.952 . S
H973 C962 0.948 1_566 S
O974 Zn959 2.034 . S
O974 C969 1.246 . S
O975 Zn967 2.024 . S
O975 C969 1.249 . S
H976 C958 0.948 . S
O977 Zn967 2.039 . S
O977 C981 1.251 . S
O978 Zn959 2.025 . S
O978 C981 1.254 . S
O979 C960 1.246 . S
O979 Zn967 2.034 . S
O980 Zn959 2.024 . S
O980 C960 1.249 . S
C981 O977 1.251 . S
C981 O978 1.254 . S
H982 C955 0.949 . S
H983 C957 0.950 . S
H984 C964 0.949 . S
H985 C966 0.950 1_556 S
C986 O1002 1.251 1_556 S
C986 O1004 1.254 1_556 S
N987 C988 1.333 . S
N987 C992 1.307 . S
N987 Zn993 2.020 . S
C988 N987 1.333 . S
C988 C989 1.379 . S
C988 H1006 0.952 . S
C989 C988 1.379 . S
C989 C990 1.390 . S
C989 H1016 0.949 . S
C990 C989 1.390 . S
C990 C991 1.357 . S
C991 C990 1.357 . S
C991 C992 1.370 . S
C991 H1017 0.950 . S
C992 N987 1.307 . S
C992 C991 1.370 . S
C992 H1010 0.948 . S
Zn993 N987 2.020 . S
Zn993 O1002 2.039 . S
Zn993 O1008 2.034 . S
Zn993 O1012 2.025 . S
Zn993 O1014 2.024 . S
C994 O1013 1.246 . S
C994 O1014 1.249 . S
N995 C996 1.307 1_455 S
N995 C997 1.333 1_455 S
N995 Zn1001 2.020 . S
C996 N995 1.307 1_655 S
C996 C1000 1.370 . S
C996 H1007 0.948 1_654 S
C997 N995 1.333 1_655 S
C997 C998 1.379 . S
C997 H1005 0.952 1_655 S
C998 C997 1.379 . S
C998 C999 1.390 . S
C998 H1018 0.949 . S
C999 C998 1.390 . S
C999 C1000 1.357 . S
C1000 C996 1.370 . S
C1000 C999 1.357 . S
C1000 H1019 0.950 1_554 S
Zn1001 N995 2.020 . S
Zn1001 O1004 2.025 . S
Zn1001 O1009 2.024 . S
Zn1001 O1011 2.039 . S
Zn1001 O1013 2.034 . S
O1002 C986 1.251 1_554 S
O1002 Zn993 2.039 . S
C1003 O1008 1.246 . S
C1003 O1009 1.249 . S
O1004 C986 1.254 1_554 S
O1004 Zn1001 2.025 . S
H1005 C997 0.952 1_455 S
H1006 C988 0.952 . S
H1007 C996 0.948 1_456 S
O1008 Zn993 2.034 . S
O1008 C1003 1.246 . S
O1009 Zn1001 2.024 . S
O1009 C1003 1.249 . S
H1010 C992 0.948 . S
O1011 Zn1001 2.039 . S
O1011 C1015 1.251 . S
O1012 Zn993 2.025 . S
O1012 C1015 1.254 . S
O1013 C994 1.246 . S
O1013 Zn1001 2.034 . S
O1014 Zn993 2.024 . S
O1014 C994 1.249 . S
C1015 O1011 1.251 . S
C1015 O1012 1.254 . S
H1016 C989 0.949 . S
H1017 C991 0.950 . S
H1018 C998 0.949 . S
H1019 C1000 0.950 1_556 S
C1020 O1036 1.251 . S
C1020 O1038 1.254 . S
N1021 C1022 1.333 . S
N1021 C1026 1.307 . S
N1021 Zn1027 2.020 . S
C1022 N1021 1.333 . S
C1022 C1023 1.379 . S
C1022 H1040 0.952 . S
C1023 C1022 1.379 . S
C1023 C1024 1.390 . S
C1023 H1050 0.949 . S
C1024 C1023 1.390 . S
C1024 C1025 1.357 . S
C1025 C1024 1.357 . S
C1025 C1026 1.370 . S
C1025 H1051 0.950 . S
C1026 N1021 1.307 . S
C1026 C1025 1.370 . S
C1026 H1044 0.948 . S
Zn1027 N1021 2.020 . S
Zn1027 O1036 2.039 . S
Zn1027 O1042 2.034 . S
Zn1027 O1046 2.025 . S
Zn1027 O1048 2.024 . S
C1028 O1047 1.246 . S
C1028 O1048 1.249 . S
N1029 C1030 1.307 . S
N1029 C1031 1.333 . S
N1029 Zn1035 2.020 . S
C1030 N1029 1.307 . S
C1030 C1034 1.370 . S
C1030 H1041 0.948 . S
C1031 N1029 1.333 . S
C1031 C1032 1.379 . S
C1031 H1039 0.952 . S
C1032 C1031 1.379 . S
C1032 C1033 1.390 . S
C1032 H1052 0.949 . S
C1033 C1032 1.390 . S
C1033 C1034 1.357 . S
C1034 C1030 1.370 . S
C1034 C1033 1.357 . S
C1034 H1053 0.950 . S
Zn1035 N1029 2.020 . S
Zn1035 O1038 2.025 . S
Zn1035 O1043 2.024 . S
Zn1035 O1045 2.039 . S
Zn1035 O1047 2.034 . S
O1036 C1020 1.251 . S
O1036 Zn1027 2.039 . S
C1037 O1042 1.246 . S
C1037 O1043 1.249 . S
O1038 C1020 1.254 . S
O1038 Zn1035 2.025 . S
H1039 C1031 0.952 . S
H1040 C1022 0.952 . S
H1041 C1030 0.948 . S
O1042 Zn1027 2.034 . S
O1042 C1037 1.246 . S
O1043 Zn1035 2.024 . S
O1043 C1037 1.249 . S
H1044 C1026 0.948 . S
O1045 Zn1035 2.039 . S
O1045 C1049 1.251 . S
O1046 Zn1027 2.025 . S
O1046 C1049 1.254 . S
O1047 C1028 1.246 . S
O1047 Zn1035 2.034 . S
O1048 Zn1027 2.024 . S
O1048 C1028 1.249 . S
C1049 O1045 1.251 . S
C1049 O1046 1.254 . S
H1050 C1023 0.949 . S
H1051 C1025 0.950 . S
H1052 C1032 0.949 . S
H1053 C1034 0.950 . S
C1054 O1070 1.251 . S
C1054 O1072 1.254 . S
N1055 C1056 1.333 . S
N1055 C1060 1.307 1_565 S
N1055 Zn1061 2.020 . S
C1056 N1055 1.333 . S
C1056 C1057 1.379 1_565 S
C1056 H1074 0.952 . S
C1057 C1056 1.379 1_545 S
C1057 C1058 1.390 . S
C1057 H1084 0.949 . S
C1058 C1057 1.390 . S
C1058 C1059 1.357 . S
C1059 C1058 1.357 . S
C1059 C1060 1.370 . S
C1059 H1085 0.950 . S
C1060 N1055 1.307 1_545 S
C1060 C1059 1.370 . S
C1060 H1078 0.948 1_545 S
Zn1061 N1055 2.020 . S
Zn1061 O1070 2.039 . S
Zn1061 O1076 2.034 . S
Zn1061 O1080 2.025 . S
Zn1061 O1082 2.024 . S
C1062 O1081 1.246 . S
C1062 O1082 1.249 . S
N1063 C1064 1.307 . S
N1063 C1065 1.333 . S
N1063 Zn1069 2.020 . S
C1064 N1063 1.307 . S
C1064 C1068 1.370 . S
C1064 H1075 0.948 . S
C1065 N1063 1.333 . S
C1065 C1066 1.379 . S
C1065 H1073 0.952 . S
C1066 C1065 1.379 . S
C1066 C1067 1.390 . S
C1066 H1086 0.949 . S
C1067 C1066 1.390 . S
C1067 C1068 1.357 . S
C1068 C1064 1.370 . S
C1068 C1067 1.357 . S
C1068 H1087 0.950 . S
Zn1069 N1063 2.020 . S
Zn1069 O1072 2.025 . S
Zn1069 O1077 2.024 . S
Zn1069 O1079 2.039 . S
Zn1069 O1081 2.034 . S
O1070 C1054 1.251 . S
O1070 Zn1061 2.039 . S
C1071 O1076 1.246 . S
C1071 O1077 1.249 . S
O1072 C1054 1.254 . S
O1072 Zn1069 2.025 . S
H1073 C1065 0.952 . S
H1074 C1056 0.952 . S
H1075 C1064 0.948 . S
O1076 Zn1061 2.034 . S
O1076 C1071 1.246 . S
O1077 Zn1069 2.024 . S
O1077 C1071 1.249 . S
H1078 C1060 0.948 1_565 S
O1079 Zn1069 2.039 . S
O1079 C1083 1.251 . S
O1080 Zn1061 2.025 . S
O1080 C1083 1.254 . S
O1081 C1062 1.246 . S
O1081 Zn1069 2.034 . S
O1082 Zn1061 2.024 . S
O1082 C1062 1.249 . S
C1083 O1079 1.251 . S
C1083 O1080 1.254 . S
H1084 C1057 0.949 . S
H1085 C1059 0.950 . S
H1086 C1066 0.949 . S
H1087 C1068 0.950 . S
C1088 O1104 1.251 . S
C1088 O1106 1.254 . S
N1089 C1090 1.333 . S
N1089 C1094 1.307 1_455 S
N1089 Zn1095 2.020 . S
C1090 N1089 1.333 . S
C1090 C1091 1.379 1_455 S
C1090 H1108 0.952 . S
C1091 C1090 1.379 1_655 S
C1091 C1092 1.390 . S
C1091 H1118 0.949 . S
C1092 C1091 1.390 . S
C1092 C1093 1.357 . S
C1093 C1092 1.357 . S
C1093 C1094 1.370 . S
C1093 H1119 0.950 . S
C1094 N1089 1.307 1_655 S
C1094 C1093 1.370 . S
C1094 H1112 0.948 1_655 S
Zn1095 N1089 2.020 . S
Zn1095 O1104 2.039 . S
Zn1095 O1110 2.034 . S
Zn1095 O1114 2.025 . S
Zn1095 O1116 2.024 . S
C1096 O1115 1.246 . S
C1096 O1116 1.249 . S
N1097 C1098 1.307 . S
N1097 C1099 1.333 . S
N1097 Zn1103 2.020 . S
C1098 N1097 1.307 . S
C1098 C1102 1.370 . S
C1098 H1109 0.948 . S
C1099 N1097 1.333 . S
C1099 C1100 1.379 . S
C1099 H1107 0.952 . S
C1100 C1099 1.379 . S
C1100 C1101 1.390 . S
C1100 H1120 0.949 . S
C1101 C1100 1.390 . S
C1101 C1102 1.357 . S
C1102 C1098 1.370 . S
C1102 C1101 1.357 . S
C1102 H1121 0.950 . S
Zn1103 N1097 2.020 . S
Zn1103 O1106 2.025 . S
Zn1103 O1111 2.024 . S
Zn1103 O1113 2.039 . S
Zn1103 O1115 2.034 . S
O1104 C1088 1.251 . S
O1104 Zn1095 2.039 . S
C1105 O1110 1.246 . S
C1105 O1111 1.249 . S
O1106 C1088 1.254 . S
O1106 Zn1103 2.025 . S
H1107 C1099 0.952 . S
H1108 C1090 0.952 . S
H1109 C1098 0.948 . S
O1110 Zn1095 2.034 . S
O1110 C1105 1.246 . S
O1111 Zn1103 2.024 . S
O1111 C1105 1.249 . S
H1112 C1094 0.948 1_455 S
O1113 Zn1103 2.039 . S
O1113 C1117 1.251 . S
O1114 Zn1095 2.025 . S
O1114 C1117 1.254 . S
O1115 C1096 1.246 . S
O1115 Zn1103 2.034 . S
O1116 Zn1095 2.024 . S
O1116 C1096 1.249 . S
C1117 O1113 1.251 . S
C1117 O1114 1.254 . S
H1118 C1091 0.949 . S
H1119 C1093 0.950 . S
H1120 C1100 0.949 . S
H1121 C1102 0.950 . S
C1122 O1138 1.251 . S
C1122 O1140 1.254 . S
N1123 C1124 1.333 . S
N1123 C1128 1.307 . S
N1123 Zn1129 2.020 1_655 S
C1124 N1123 1.333 . S
C1124 C1125 1.379 . S
C1124 H1142 0.952 . S
C1125 C1124 1.379 . S
C1125 C1126 1.390 . S
C1125 H1152 0.949 . S
C1126 C1125 1.390 . S
C1126 C1127 1.357 . S
C1127 C1126 1.357 . S
C1127 C1128 1.370 . S
C1127 H1153 0.950 . S
C1128 N1123 1.307 . S
C1128 C1127 1.370 . S
C1128 H1146 0.948 . S
Zn1129 N1123 2.020 1_455 S
Zn1129 O1138 2.039 . S
Zn1129 O1144 2.034 . S
Zn1129 O1148 2.025 . S
Zn1129 O1150 2.024 1_455 S
C1130 O1149 1.246 . S
C1130 O1150 1.249 1_455 S
N1131 C1132 1.307 . S
N1131 C1133 1.333 . S
N1131 Zn1137 2.020 . S
C1132 N1131 1.307 . S
C1132 C1136 1.370 . S
C1132 H1143 0.948 . S
C1133 N1131 1.333 . S
C1133 C1134 1.379 . S
C1133 H1141 0.952 . S
C1134 C1133 1.379 . S
C1134 C1135 1.390 . S
C1134 H1154 0.949 . S
C1135 C1134 1.390 . S
C1135 C1136 1.357 . S
C1136 C1132 1.370 . S
C1136 C1135 1.357 . S
C1136 H1155 0.950 . S
Zn1137 N1131 2.020 . S
Zn1137 O1140 2.025 . S
Zn1137 O1145 2.024 . S
Zn1137 O1147 2.039 . S
Zn1137 O1149 2.034 . S
O1138 C1122 1.251 . S
O1138 Zn1129 2.039 . S
C1139 O1144 1.246 . S
C1139 O1145 1.249 . S
O1140 C1122 1.254 . S
O1140 Zn1137 2.025 . S
H1141 C1133 0.952 . S
H1142 C1124 0.952 . S
H1143 C1132 0.948 . S
O1144 Zn1129 2.034 . S
O1144 C1139 1.246 . S
O1145 Zn1137 2.024 . S
O1145 C1139 1.249 . S
H1146 C1128 0.948 . S
O1147 Zn1137 2.039 . S
O1147 C1151 1.251 . S
O1148 Zn1129 2.025 . S
O1148 C1151 1.254 . S
O1149 C1130 1.246 . S
O1149 Zn1137 2.034 . S
O1150 Zn1129 2.024 1_655 S
O1150 C1130 1.249 1_655 S
C1151 O1147 1.251 . S
C1151 O1148 1.254 . S
H1152 C1125 0.949 . S
H1153 C1127 0.950 . S
H1154 C1134 0.949 . S
H1155 C1136 0.950 . S
C1156 O1172 1.251 . S
C1156 O1174 1.254 . S
N1157 C1158 1.333 . S
N1157 C1162 1.307 . S
N1157 Zn1163 2.020 . S
C1158 N1157 1.333 . S
C1158 C1159 1.379 . S
C1158 H1176 0.952 . S
C1159 C1158 1.379 . S
C1159 C1160 1.390 . S
C1159 H1186 0.949 . S
C1160 C1159 1.390 . S
C1160 C1161 1.357 . S
C1161 C1160 1.357 . S
C1161 C1162 1.370 . S
C1161 H1187 0.950 . S
C1162 N1157 1.307 . S
C1162 C1161 1.370 . S
C1162 H1180 0.948 . S
Zn1163 N1157 2.020 . S
Zn1163 O1172 2.039 . S
Zn1163 O1178 2.034 . S
Zn1163 O1182 2.025 . S
Zn1163 O1184 2.024 . S
C1164 O1183 1.246 . S
C1164 O1184 1.249 . S
N1165 C1166 1.307 . S
N1165 C1167 1.333 . S
N1165 Zn1171 2.020 . S
C1166 N1165 1.307 . S
C1166 C1170 1.370 . S
C1166 H1177 0.948 . S
C1167 N1165 1.333 . S
C1167 C1168 1.379 . S
C1167 H1175 0.952 . S
C1168 C1167 1.379 . S
C1168 C1169 1.390 . S
C1168 H1188 0.949 . S
C1169 C1168 1.390 . S
C1169 C1170 1.357 . S
C1170 C1166 1.370 . S
C1170 C1169 1.357 . S
C1170 H1189 0.950 . S
Zn1171 N1165 2.020 . S
Zn1171 O1174 2.025 . S
Zn1171 O1179 2.024 . S
Zn1171 O1181 2.039 . S
Zn1171 O1183 2.034 . S
O1172 C1156 1.251 . S
O1172 Zn1163 2.039 . S
C1173 O1178 1.246 . S
C1173 O1179 1.249 . S
O1174 C1156 1.254 . S
O1174 Zn1171 2.025 . S
H1175 C1167 0.952 . S
H1176 C1158 0.952 . S
H1177 C1166 0.948 . S
O1178 Zn1163 2.034 . S
O1178 C1173 1.246 . S
O1179 Zn1171 2.024 . S
O1179 C1173 1.249 . S
H1180 C1162 0.948 . S
O1181 Zn1171 2.039 . S
O1181 C1185 1.251 . S
O1182 Zn1163 2.025 . S
O1182 C1185 1.254 . S
O1183 C1164 1.246 . S
O1183 Zn1171 2.034 . S
O1184 Zn1163 2.024 . S
O1184 C1164 1.249 . S
C1185 O1181 1.251 . S
C1185 O1182 1.254 . S
H1186 C1159 0.949 . S
H1187 C1161 0.950 . S
H1188 C1168 0.949 . S
H1189 C1170 0.950 . S
C1190 O1206 1.251 . S
C1190 O1208 1.254 . S
N1191 C1192 1.333 . S
N1191 C1196 1.307 . S
N1191 Zn1197 2.020 1_545 S
C1192 N1191 1.333 . S
C1192 C1193 1.379 . S
C1192 H1210 0.952 . S
C1193 C1192 1.379 . S
C1193 C1194 1.390 . S
C1193 H1220 0.949 . S
C1194 C1193 1.390 . S
C1194 C1195 1.357 . S
C1195 C1194 1.357 . S
C1195 C1196 1.370 . S
C1195 H1221 0.950 . S
C1196 N1191 1.307 . S
C1196 C1195 1.370 . S
C1196 H1214 0.948 . S
Zn1197 N1191 2.020 1_565 S
Zn1197 O1206 2.039 . S
Zn1197 O1212 2.034 . S
Zn1197 O1216 2.025 . S
Zn1197 O1218 2.024 1_565 S
C1198 O1217 1.246 . S
C1198 O1218 1.249 1_565 S
N1199 C1200 1.307 . S
N1199 C1201 1.333 . S
N1199 Zn1205 2.020 . S
C1200 N1199 1.307 . S
C1200 C1204 1.370 . S
C1200 H1211 0.948 . S
C1201 N1199 1.333 . S
C1201 C1202 1.379 . S
C1201 H1209 0.952 . S
C1202 C1201 1.379 . S
C1202 C1203 1.390 . S
C1202 H1222 0.949 . S
C1203 C1202 1.390 . S
C1203 C1204 1.357 . S
C1204 C1200 1.370 . S
C1204 C1203 1.357 . S
C1204 H1223 0.950 . S
Zn1205 N1199 2.020 . S
Zn1205 O1208 2.025 . S
Zn1205 O1213 2.024 . S
Zn1205 O1215 2.039 . S
Zn1205 O1217 2.034 . S
O1206 C1190 1.251 . S
O1206 Zn1197 2.039 . S
C1207 O1212 1.246 . S
C1207 O1213 1.249 . S
O1208 C1190 1.254 . S
O1208 Zn1205 2.025 . S
H1209 C1201 0.952 . S
H1210 C1192 0.952 . S
H1211 C1200 0.948 . S
O1212 Zn1197 2.034 . S
O1212 C1207 1.246 . S
O1213 Zn1205 2.024 . S
O1213 C1207 1.249 . S
H1214 C1196 0.948 . S
O1215 Zn1205 2.039 . S
O1215 C1219 1.251 . S
O1216 Zn1197 2.025 . S
O1216 C1219 1.254 . S
O1217 C1198 1.246 . S
O1217 Zn1205 2.034 . S
O1218 Zn1197 2.024 1_545 S
O1218 C1198 1.249 1_545 S
C1219 O1215 1.251 . S
C1219 O1216 1.254 . S
H1220 C1193 0.949 . S
H1221 C1195 0.950 . S
H1222 C1202 0.949 . S
H1223 C1204 0.950 . S
C4 C76 1.635 . S
C8 C38 1.635 . S
C72 C42 1.636 . S
C106 C144 1.619 . S
C178 C140 1.619 . S
C174 C110 1.619 . S
C217 C289 1.635 . S
C251 C221 1.635 . S
C285 C255 1.636 . S
C319 C357 1.619 . S
C391 C353 1.619 . S
C323 C387 1.619 . S
C484 C412 1.636 . S
C446 C416 1.635 . S
C450 C480 1.636 . S
C514 C552 1.619 . S
C586 C548 1.619 . S
C518 C582 1.619 . S
C625 C697 1.635 . S
C659 C629 1.635 . S
C663 C693 1.636 . S
C765 C727 1.619 . S
C761 C799 1.619 . S
C731 C795 1.619 . S
C820 C892 1.635 . S
C854 C824 1.635 . S
C888 C858 1.636 . S
C922 C960 1.619 . S
C956 C994 1.619 . S
C990 C926 1.619 . S
C1033 C1105 1.636 . S
C1067 C1037 1.635 . S
C1071 C1101 1.636 . S
C1135 C1173 1.619 . S
C1169 C1207 1.619 . S
C1139 C1203 1.619 . S
C17 C684 3.874 . S
C616 C51 3.874 . S
C85 C650 3.874 . S
C119 C1160 2.456 . S
C1194 C153 2.457 . S
C187 C1126 2.457 . S
C897 C212 3.874 . S
C246 C829 3.874 . S
C280 C863 3.874 . S
C557 C314 2.456 . S
C591 C348 2.457 . S
C523 C382 2.457 . S
C425 C1092 3.874 . S
C459 C1024 3.874 . S
C1058 C493 3.875 . S
C344 C527 2.456 1_455 S
C378 C561 2.457 . S
C310 C595 2.457 1_565 S
C81 C620 3.874 . S
C654 C13 3.874 . S
C688 C47 3.874 . S
C965 C722 2.456 1_554 S
C999 C756 2.457 1_554 S
C790 C931 2.457 1_556 S
C276 C833 3.874 . S
C208 C867 3.874 . S
C242 C901 3.874 . S
C935 C752 2.456 1_554 S
C786 C969 2.457 1_556 S
C1003 C718 2.457 1_554 S
C1028 C489 3.874 . S
C1062 C421 3.874 . S
C1096 C455 3.875 . S
C1130 C149 2.456 1_455 S
C183 C1164 2.457 . S
C115 C1198 2.457 1_545 S
C1015 C29 1.874 . S
C947 C63 1.875 . S
C97 C981 1.875 . S
C471 C131 1.875 . S
C165 C505 1.875 . S
C199 C437 1.874 . S
C204 C782 1.874 . S
C238 C714 1.875 . S
C272 C748 1.875 . S
C1054 C306 1.875 . S
C1088 C340 1.875 . S
C1020 C374 1.874 . S
C539 C879 1.875 1_655 S
C573 C913 1.875 . S
C607 C845 1.874 1_545 S
C612 C1190 1.874 1_545 S
C1122 C646 1.875 1_455 S
C680 C1156 1.875 . S
C136 C0 2.880 1_655 S
C170 C34 2.880 . S
C102 C68 2.881 1_545 S
C233 C369 2.880 1_655 S
C403 C267 2.880 . S
C301 C335 2.881 1_545 S
C544 C408 2.880 . S
C578 C442 2.880 . S
C510 C476 2.881 . S
C777 C641 2.880 . S
C675 C811 2.880 . S
C709 C743 2.881 . S
C816 C952 2.880 . S
C986 C850 2.880 . S
C884 C918 2.881 . S
C1049 C1185 2.880 . S
C1219 C1083 2.880 . S
C1117 C1151 2.881 . S
