# Generated by pormake.
# Topology tfs, (6)-cn, num edge types: 1
# Building blocks:
#     Node 0, Type 0, BuildingBlock: HISSIN_clean_sbu_0, # of connection points: 6
#     Node 1, Type 0, BuildingBlock: HISSIN_clean_sbu_0, # of connection points: 6
#     Node 2, Type 0, BuildingBlock: HISSIN_clean_sbu_0, # of connection points: 6
#     Node 3, Type 0, BuildingBlock: HISSIN_clean_sbu_0, # of connection points: 6
#     Node 4, Type 0, BuildingBlock: HISSIN_clean_sbu_0, # of connection points: 6
#     Node 5, Type 0, BuildingBlock: HISSIN_clean_sbu_0, # of connection points: 6
#     Edge 6, Type (0, 0), BuildingBlock: KIFKEQ_clean_linker_1, # of connection points: 2
#     Edge 7, Type (0, 0), BuildingBlock: KIFKEQ_clean_linker_1, # of connection points: 2
#     Edge 8, Type (0, 0), BuildingBlock: KIFKEQ_clean_linker_1, # of connection points: 2
#     Edge 9, Type (0, 0), BuildingBlock: KIFKEQ_clean_linker_1, # of connection points: 2
#     Edge 10, Type (0, 0), BuildingBlock: KIFKEQ_clean_linker_1, # of connection points: 2
#     Edge 11, Type (0, 0), BuildingBlock: KIFKEQ_clean_linker_1, # of connection points: 2
#     Edge 12, Type (0, 0), BuildingBlock: KIFKEQ_clean_linker_1, # of connection points: 2
#     Edge 13, Type (0, 0), BuildingBlock: KIFKEQ_clean_linker_1, # of connection points: 2
#     Edge 14, Type (0, 0), BuildingBlock: KIFKEQ_clean_linker_1, # of connection points: 2
#     Edge 15, Type (0, 0), BuildingBlock: KIFKEQ_clean_linker_1, # of connection points: 2
#     Edge 16, Type (0, 0), BuildingBlock: KIFKEQ_clean_linker_1, # of connection points: 2
#     Edge 17, Type (0, 0), BuildingBlock: KIFKEQ_clean_linker_1, # of connection points: 2
#     Edge 18, Type (0, 0), BuildingBlock: KIFKEQ_clean_linker_1, # of connection points: 2
#     Edge 19, Type (0, 0), BuildingBlock: KIFKEQ_clean_linker_1, # of connection points: 2
#     Edge 20, Type (0, 0), BuildingBlock: KIFKEQ_clean_linker_1, # of connection points: 2
#     Edge 21, Type (0, 0), BuildingBlock: KIFKEQ_clean_linker_1, # of connection points: 2
#     Edge 22, Type (0, 0), BuildingBlock: KIFKEQ_clean_linker_1, # of connection points: 2
#     Edge 23, Type (0, 0), BuildingBlock: KIFKEQ_clean_linker_1, # of connection points: 2
# Relax obj value: 0.543
# Max RMSD: 0.295
# Mean RMSD: 0.295
data_MOF--net-tfs--node1-HISSIN_clean_sbu_0--edge1-KIFKEQ_clean_linker_1
_symmetry_space_group_name_H-M    P1
_symmetry_Int_Tables_number       1
_symmetry_cell_setting            triclinic
loop_
_symmetry_equiv_pos_as_xyz
'x, y, z'
_cell_length_a     55.344902
_cell_length_b     54.886664
_cell_length_c     15.46344
_cell_angle_alpha  90.292948
_cell_angle_beta   89.736214
_cell_angle_gamma 119.84146
loop_
_atom_site_label
_atom_site_type_symbol
_atom_site_fract_x
_atom_site_fract_y
_atom_site_fract_z
_atom_type_partial_charge
Eu0 Eu 0.23384 0.40917 0.00089 0.0
Eu1 Eu 0.20303 0.44663 -0.00029 0.0
C2 C 0.21785 0.42781 0.17222 0.0
C3 C 0.25498 0.35135 0.98983 0.0
C4 C 0.2551 0.33439 0.05717 0.0
C5 C 0.25807 0.31972 0.88573 0.0
C6 C 0.25768 0.31086 0.03919 0.0
C7 C 0.2554 0.34324 0.90374 0.0
C8 C 0.26041 0.30401 0.95341 0.0
C9 C 0.2581 0.37895 0.01135 0.0
O10 O 0.24828 0.47816 0.02272 0.0
O11 O 0.26764 0.45279 0.96781 0.0
C12 C 0.26977 0.47666 -0.00711 0.0
O13 O 0.21808 0.40676 0.86504 0.0
O14 O 0.1893 0.4712 0.07511 0.0
O15 O 0.17933 0.46387 0.93863 0.0
O16 O 0.22112 0.44993 0.86629 0.0
C17 C 0.21968 0.42841 0.82388 0.0
O18 O 0.18813 0.37788 0.01723 0.0
O19 O 0.17036 0.40369 0.95612 0.0
O20 O 0.19644 0.42515 0.12879 0.0
O21 O 0.26234 0.39635 0.94817 0.0
O22 O 0.24197 0.37974 0.07178 0.0
O23 O 0.23948 0.4303 0.13011 0.0
C24 C 0.18692 0.50693 -0.00057 0.0
C25 C 0.20522 0.52391 0.93416 0.0
C26 C 0.18428 0.547 0.05451 0.0
C27 C 0.21277 0.55226 0.92873 0.0
C28 C 0.17655 0.51867 0.0594 0.0
C29 C 0.20244 0.56408 0.98911 0.0
C30 C 0.179 0.47722 0.00831 0.0
C31 C 0.1677 0.37967 0.98091 0.0
H32 H 0.2549 0.34028 0.12405 0.0
H33 H 0.25987 0.31473 0.81898 0.0
H34 H 0.25973 0.29939 0.09278 0.0
H35 H 0.25515 0.35583 0.8504 0.0
H36 H 0.21375 0.51535 0.88774 0.0
H37 H 0.17574 0.55547 0.10122 0.0
H38 H 0.22696 0.56503 0.87807 0.0
H39 H 0.16249 0.50589 0.11034 0.0
Eu40 Eu 0.83876 0.23254 0.05435 0.0
Eu41 Eu 0.77043 0.20281 0.05162 0.0
C42 C 0.80399 0.21703 0.22567 0.0
C43 C 0.91611 0.25171 0.03351 0.0
C44 C 0.93448 0.25176 0.09576 0.0
C45 C 0.94738 0.25327 0.92018 0.0
C46 C 0.95954 0.25355 0.07064 0.0
C47 C 0.9222 0.25134 0.94534 0.0
C48 C 0.96677 0.25555 0.9827 0.0
C49 C 0.89278 0.25547 0.06222 0.0
O50 O 0.78465 0.24865 0.07239 0.0
O51 O 0.83049 0.26805 0.03003 0.0
C52 C 0.80865 0.27039 0.05028 0.0
O53 O 0.82532 0.21785 0.91794 0.0
O54 O 0.73193 0.19114 0.12099 0.0
O55 O 0.73023 0.17744 0.98825 0.0
O56 O 0.78568 0.22118 0.91951 0.0
C57 C 0.80554 0.21971 0.87711 0.0
O58 O 0.82324 0.1862 0.06883 0.0
O59 O 0.77972 0.16912 0.01017 0.0
O60 O 0.78405 0.19625 0.18232 0.0
O61 O 0.87984 0.26177 0.00375 0.0
O62 O 0.87598 0.23815 0.12054 0.0
O63 O 0.82421 0.23806 0.18444 0.0
C64 C 0.69473 0.18622 0.03527 0.0
C65 C 0.70067 0.21422 0.03918 0.0
C66 C 0.64666 0.17132 0.00107 0.0
C67 C 0.67954 0.22067 0.02553 0.0
C68 C 0.66774 0.16489 0.01524 0.0
C69 C 0.65226 0.19923 0.00706 0.0
C70 C 0.71616 0.17877 0.05417 0.0
C71 C 0.80059 0.16576 0.03388 0.0
H72 H 0.93019 0.25209 0.16409 0.0
H73 H 0.95235 0.25453 0.85192 0.0
H74 H 0.97417 0.25558 0.12035 0.0
H75 H 0.90827 0.25103 0.89586 0.0
H76 H 0.72152 0.231 0.05393 0.0
H77 H 0.62579 0.15433 0.98795 0.0
H78 H 0.68448 0.24238 0.02967 0.0
H79 H 0.66286 0.14318 0.01198 0.0
Eu80 Eu 0.61661 0.83403 0.04265 0.0
Eu81 Eu 0.57769 0.76493 0.04515 0.0
C82 C 0.59707 0.80032 0.21696 0.0
C83 C 0.67457 0.91247 0.02286 0.0
C84 C 0.69776 0.91941 0.07564 0.0
C85 C 0.70181 0.95601 0.94417 0.0
C86 C 0.72248 0.94493 0.06449 0.0
C87 C 0.67715 0.9306 0.95542 0.0
C88 C 0.7244 0.96395 0.00058 0.0
C89 C 0.64674 0.88873 0.04397 0.0
O90 O 0.54736 0.78045 0.06558 0.0
O91 O 0.57331 0.82472 0.00869 0.0
C92 C 0.54939 0.80357 0.03412 0.0
O93 O 0.61971 0.81849 0.91059 0.0
O94 O 0.55023 0.72704 0.11726 0.0
O95 O 0.56224 0.7237 0.98576 0.0
O96 O 0.57655 0.77917 0.90982 0.0
C97 C 0.59826 0.79881 0.8685 0.0
O98 O 0.64745 0.8193 0.06667 0.0
O99 O 0.62112 0.77316 0.0228 0.0
O100 O 0.59741 0.7797 0.17534 0.0
O101 O 0.63057 0.87442 0.97981 0.0
O102 O 0.64458 0.87294 0.10968 0.0
O103 O 0.59687 0.82075 0.17421 0.0
C104 C 0.51862 0.68768 0.03666 0.0
C105 C 0.50085 0.69103 0.97966 0.0
C106 C 0.48172 0.64056 0.06933 0.0
C107 C 0.47357 0.66905 0.96715 0.0
C108 C 0.50889 0.66241 0.08142 0.0
C109 C 0.46375 0.64352 0.01177 0.0
C110 C 0.54712 0.71031 0.05285 0.0
C111 C 0.6449 0.79482 0.04669 0.0
H112 H 0.69645 0.90584 0.12819 0.0
H113 H 0.70236 0.97029 0.8951 0.0
H114 H 0.73962 0.95035 0.10842 0.0
H115 H 0.65954 0.92589 0.91429 0.0
H116 H 0.50804 0.71057 0.94505 0.0
H117 H 0.47468 0.62145 0.10611 0.0
H118 H 0.4603 0.67192 0.92199 0.0
H119 H 0.5223 0.65964 0.12636 0.0
Eu120 Eu 0.79698 0.61793 0.93242 0.0
Eu121 Eu 0.82678 0.5787 0.93489 0.0
C122 C 0.81019 0.59755 0.1091 0.0
C123 C 0.77769 0.67693 0.94908 0.0
C124 C 0.78594 0.68819 0.03255 0.0
C125 C 0.76908 0.71488 0.91334 0.0
C126 C 0.78478 0.71217 0.05712 0.0
C127 C 0.77025 0.69101 0.88897 0.0
C128 C 0.7753 0.72515 -0.00135 0.0
C129 C 0.77384 0.64927 0.9251 0.0
O130 O 0.78147 0.54757 0.91289 0.0
O131 O 0.76179 0.57407 0.95621 0.0
C132 C 0.75972 0.54988 0.93487 0.0
O133 O 0.79142 0.59757 0.80251 0.0
O134 O 0.85226 0.5639 -0.00172 0.0
O135 O 0.83815 0.55106 0.86668 0.0
O136 O 0.83279 0.59837 0.80333 0.0
C137 C 0.81218 0.59793 0.7607 0.0
O138 O 0.84269 0.64819 0.91137 0.0
O139 O 0.86027 0.62211 0.9716 0.0
O140 O 0.8084 0.57588 0.0669 0.0
O141 O 0.78986 0.64854 0.8642 0.0
O142 O 0.76927 0.63143 0.98721 0.0
O143 O 0.81231 0.61941 0.06791 0.0
C144 C 0.84482 0.51963 0.95244 0.0
C145 C 0.81761 0.49836 0.97178 0.0
C146 C 0.8608 0.48591 0.96255 0.0
C147 C 0.812 0.47084 0.98571 0.0
C148 C 0.86637 0.51332 0.94882 0.0
C149 C 0.83351 0.46427 0.98004 0.0
C150 C 0.8511 0.54829 0.93283 0.0
C151 C 0.86337 0.64612 0.94456 0.0
H152 H 0.79206 0.67779 0.07983 0.0
H153 H 0.7613 0.72398 0.86683 0.0
H154 H 0.79003 0.71975 0.12298 0.0
H155 H 0.76384 0.68264 0.82425 0.0
H156 H 0.80073 0.50298 0.97472 0.0
H157 H 0.8779 0.48163 0.95931 0.0
H158 H 0.79076 0.45459 -0.00138 0.0
H159 H 0.8875 0.52956 0.93431 0.0
Eu160 Eu 0.19464 0.79308 0.97912 0.0
Eu161 Eu 0.2632 0.82579 0.97953 0.0
C162 C 0.22848 0.80973 0.15192 0.0
C163 C 0.1161 0.77023 0.9602 0.0
C164 C 0.11014 0.78909 0.00441 0.0
C165 C 0.07141 0.75046 0.88785 0.0
C166 C 0.08457 0.78796 -0.00759 0.0
C167 C 0.09686 0.75153 0.90002 0.0
C168 C 0.06456 0.76798 0.93612 0.0
C169 C 0.14032 0.7672 0.98306 0.0
O170 O 0.25019 0.7806 0.00573 0.0
O171 O 0.20596 0.75984 0.9495 0.0
C172 C 0.2277 0.75845 0.97654 0.0
O173 O 0.20861 0.80965 0.84484 0.0
O174 O 0.30128 0.84296 0.0556 0.0
O175 O 0.30389 0.8482 0.9165 0.0
O176 O 0.24929 0.80828 0.84543 0.0
C177 C 0.22899 0.80887 0.80347 0.0
O178 O 0.20805 0.83889 -0.00205 0.0
O179 O 0.25216 0.85833 0.94032 0.0
O180 O 0.24778 0.83116 0.10916 0.0
O181 O 0.15452 0.76451 0.9198 0.0
O182 O 0.15609 0.7824 0.0468 0.0
O183 O 0.209 0.78821 0.10999 0.0
C184 C 0.33987 0.84414 0.98708 0.0
C185 C 0.34107 0.82625 0.92398 0.0
C186 C 0.38121 0.8482 0.05475 0.0
C187 C 0.36238 0.81955 0.92608 0.0
C188 C 0.36012 0.85508 0.05217 0.0
C189 C 0.38256 0.83037 -0.00819 0.0
C190 C 0.31755 0.85133 0.98808 0.0
C191 C 0.23046 0.86028 0.96503 0.0
H192 H 0.12463 0.80384 0.0511 0.0
H193 H 0.05635 0.73451 0.845 0.0
H194 H 0.07998 0.80189 0.02995 0.0
H195 H 0.10088 0.73665 0.86561 0.0
H196 H 0.32553 0.81734 0.87345 0.0
H197 H 0.39669 0.85713 0.10547 0.0
H198 H 0.36285 0.80561 0.87712 0.0
H199 H 0.35956 0.86893 0.10137 0.0
Eu200 Eu 0.41534 0.19047 0.00316 0.0
Eu201 Eu 0.45242 0.25908 -0.00073 0.0
C202 C 0.4342 0.22582 0.1738 0.0
C203 C 0.35688 0.11224 -0.00767 0.0
C204 C 0.33442 0.10457 0.0496 0.0
C205 C 0.3284 0.06988 0.90888 0.0
C206 C 0.30944 0.07936 0.03787 0.0
C207 C 0.35333 0.09501 0.92065 0.0
C208 C 0.30651 0.06131 0.96893 0.0
C209 C 0.38488 0.13591 0.01238 0.0
O210 O 0.48397 0.24536 0.02252 0.0
O211 O 0.45895 0.19953 0.97572 0.0
C212 C 0.48256 0.22172 -0.00191 0.0
O213 O 0.41344 0.20402 0.86693 0.0
O214 O 0.47733 0.29806 0.07017 0.0
O215 O 0.46836 0.29957 0.93473 0.0
O216 O 0.45646 0.24348 0.86775 0.0
C217 C 0.43513 0.22367 0.82546 0.0
O218 O 0.38444 0.20552 0.02153 0.0
O219 O 0.40963 0.24852 0.95624 0.0
O220 O 0.43194 0.24499 0.13025 0.0
O221 O 0.40149 0.14899 0.9476 0.0
O222 O 0.38701 0.15291 0.075 0.0
O223 O 0.43604 0.20601 0.1322 0.0
C224 C 0.51202 0.33573 0.98746 0.0
C225 C 0.52013 0.35035 0.90874 0.0
C226 C 0.5593 0.36476 0.04086 0.0
C227 C 0.54753 0.37197 0.89622 0.0
C228 C 0.53194 0.34314 0.05333 0.0
C229 C 0.56737 0.37957 0.96241 0.0
C230 C 0.48267 0.31385 0.00197 0.0
C231 C 0.38596 0.22751 0.98326 0.0
H232 H 0.33649 0.11736 0.1057 0.0
H233 H 0.32708 0.0563 0.85587 0.0
H234 H 0.29288 0.07341 0.08485 0.0
H235 H 0.37033 0.1002 0.87597 0.0
H236 H 0.50522 0.34528 0.85701 0.0
H237 H 0.57393 0.37039 0.09369 0.0
H238 H 0.55314 0.38279 0.83472 0.0
H239 H 0.52636 0.33255 0.11521 0.0
H240 H 0.34566 0.21982 0.09923 0.0
H241 H 0.36952 0.23816 0.83138 0.0
H242 H 0.30862 0.23107 0.07745 0.0
H243 H 0.33135 0.24738 0.80699 0.0
H244 H 0.3024 0.31189 0.84589 0.0
H245 H 0.32684 0.28582 0.84202 0.0
H246 H 0.2667 0.22494 0.01962 0.0
H247 H 0.24258 0.25207 0.02546 0.0
C248 C 0.34227 0.22538 0.03508 0.0
C249 C 0.36053 0.22874 0.96732 0.0
C250 C 0.32094 0.23162 0.02214 0.0
C251 C 0.31726 0.24072 0.94064 0.0
C252 C 0.33409 0.24137 0.8712 0.0
C253 C 0.35584 0.23595 0.88484 0.0
C254 C 0.29378 0.29244 0.8819 0.0
C255 C 0.27066 0.28412 0.93634 0.0
C256 C 0.30784 0.27733 0.87968 0.0
C257 C 0.29897 0.25327 0.93117 0.0
C258 C 0.27449 0.24369 0.98057 0.0
C259 C 0.26055 0.25909 0.98353 0.0
H260 H 0.13813 0.36397 0.83292 0.0
H261 H 0.1371 0.33851 0.09679 0.0
H262 H 0.09051 0.32575 0.81333 0.0
H263 H 0.0887 0.30151 0.08034 0.0
H264 H 1.00111 0.23643 0.04168 0.0
H265 H 0.05173 0.25986 0.02518 0.0
H266 H 0.04871 0.32116 0.85742 0.0
H267 H 0.99873 0.29729 0.87142 0.0
C268 C 0.12759 0.34994 0.88651 0.0
C269 C 0.14083 0.35421 0.96663 0.0
C270 C 0.1003 0.32816 0.87566 0.0
C271 C 0.08535 0.31089 0.94581 0.0
C272 C 0.09945 0.31414 0.02449 0.0
C273 C 0.12712 0.33547 0.03443 0.0
C274 C 1.01138 0.25447 -0.00058 0.0
C275 C 0.99602 0.26512 0.95817 0.0
C276 C 0.04037 0.26803 0.9904 0.0
C277 C 0.05453 0.29272 0.94099 0.0
C278 C 0.03876 0.30202 0.89494 0.0
C279 C 1.0099 0.2883 0.90304 0.0
H280 H 0.76779 0.12631 0.91692 0.0
H281 H 0.82786 0.14265 0.11842 0.0
H282 H 0.75944 0.07874 0.902 0.0
H283 H 0.81938 0.09447 0.10338 0.0
H284 H 0.75182 0.99724 0.8613 0.0
H285 H 0.7795 0.04846 0.86175 0.0
H286 H 0.77655 0.04864 0.14081 0.0
H287 H 0.74881 0.99773 0.14056 0.0
C288 C 0.77947 0.1198 0.95739 0.0
C289 C 0.79815 0.13802 0.01979 0.0
C290 C 0.77497 0.09262 0.94799 0.0
C291 C 0.78883 0.08289 0.00135 0.0
C292 C 0.80842 0.10146 0.06147 0.0
C293 C 0.81325 0.12895 0.07006 0.0
C294 C 0.75771 1.0082 0.92275 0.0
C295 C 0.74761 0.99347 0.00076 0.0
C296 C 0.77359 0.03749 0.923 0.0
C297 C 0.7797 0.05252 0.00126 0.0
C298 C 0.77227 0.03764 0.0795 0.0
C299 C 0.75634 1.00837 0.07928 0.0
H300 H 0.78143 0.77196 0.91433 0.0
H301 H 0.74978 0.72456 0.15061 0.0
H302 H 0.75449 0.79539 0.94308 0.0
H303 H 0.72388 0.74868 0.18032 0.0
H304 H 0.64339 0.74576 0.078 0.0
H305 H 0.68203 0.73691 0.08641 0.0
H306 H 0.74 0.82484 0.04237 0.0
H307 H 0.70074 0.83395 0.03473 0.0
C308 C 0.76953 0.76725 0.97378 0.0
C309 C 0.76717 0.74582 0.02891 0.0
C310 C 0.75434 0.78088 0.99061 0.0
C311 C 0.73667 0.77333 0.06291 0.0
C312 C 0.73707 0.75454 0.1234 0.0
C313 C 0.75214 0.74088 0.10657 0.0
C314 C 0.66434 0.76333 0.0706 0.0
C315 C 0.66905 0.79051 0.05491 0.0
C316 C 0.68652 0.7583 0.07658 0.0
C317 C 0.71403 0.78026 0.06611 0.0
C318 C 0.71895 0.80761 0.05122 0.0
C319 C 0.69658 0.81278 0.0468 0.0
H320 H 0.02912 0.7559 0.7987 0.0
H321 H 0.03361 0.7659 0.07655 0.0
H322 H 0.97843 0.73319 0.80637 0.0
H323 H 0.98314 0.74406 0.08368 0.0
H324 H 0.90433 0.65462 0.05656 0.0
H325 H 0.95214 0.69292 0.0576 0.0
H326 H 0.93382 0.73277 0.8476 0.0
H327 H 0.88542 0.69404 0.84671 0.0
C328 C 0.01935 0.75406 0.86103 0.0
C329 C 0.03533 0.76213 0.93713 0.0
C330 C 0.99034 0.7413 0.86534 0.0
C331 C 0.97686 0.7364 0.94584 0.0
C332 C 0.99302 0.74722 0.02089 0.0
C333 C 0.02198 0.75997 0.01662 0.0
C334 C 0.91034 0.67172 0.01135 0.0
C335 C 0.89128 0.6712 0.95086 0.0
C336 C 0.93768 0.69387 0.01261 0.0
C337 C 0.94671 0.7159 0.9528 0.0
C338 C 0.92738 0.71602 0.89434 0.0
C339 C 0.89975 0.69394 0.89396 0.0
H340 H 0.20305 0.8814 0.06022 0.0
H341 H 0.26127 0.90099 0.84936 0.0
H342 H 0.211 0.92955 0.05605 0.0
H343 H 0.26906 0.94854 0.84498 0.0
H344 H 0.28308 0.02535 0.10452 0.0
H345 H 0.25458 0.97457 0.09642 0.0
H346 H 0.24879 0.97956 0.81938 0.0
H347 H 0.27723 0.03067 0.82739 0.0
C348 C 0.21705 0.89579 0.01192 0.0
C349 C 0.2319 0.88769 0.956 0.0
C350 C 0.22159 0.92327 0.00958 0.0
C351 C 0.2406 0.94277 0.95012 0.0
C352 C 0.25399 0.93394 0.89073 0.0
C353 C 0.2498 0.90678 0.89397 0.0
C354 C 0.27477 0.01581 0.04222 0.0
C355 C 0.28293 0.032 0.96629 0.0
C356 C 0.25838 0.98662 0.03764 0.0
C357 C 0.24993 0.9731 0.95707 0.0
C358 C 0.25547 0.98947 0.88219 0.0
C359 C 0.2718 0.01868 0.88677 0.0
H360 H 0.26372 0.74414 0.05126 0.0
H361 H 0.18911 0.71053 0.89576 0.0
H362 H 0.26065 0.69814 0.05007 0.0
H363 H 0.18612 0.66478 0.89504 0.0
H364 H 0.2029 0.59297 0.84543 0.0
H365 H 0.21193 0.64128 0.83814 0.0
H366 H 0.22752 0.65065 0.11309 0.0
H367 H 0.21886 0.6025 0.12014 0.0
C368 C 0.24677 0.72703 0.01654 0.0
C369 C 0.22659 0.73097 0.97396 0.0
C370 C 0.24498 0.7007 0.01615 0.0
C371 C 0.22318 0.67794 0.97234 0.0
C372 C 0.20333 0.68203 0.92847 0.0
C373 C 0.20495 0.70821 0.92953 0.0
C374 C 0.20868 0.60552 0.90396 0.0
C375 C 0.21003 0.59398 0.98342 0.0
C376 C 0.21363 0.63305 0.89993 0.0
C377 C 0.22028 0.64963 0.97513 0.0
C378 C 0.22261 0.63841 0.05403 0.0
C379 C 0.21741 0.61081 0.05819 0.0
H380 H 0.53618 0.26395 0.02504 0.0
H381 H 0.48733 0.17542 0.96441 0.0
H382 H 0.57854 0.2607 0.01995 0.0
H383 H 0.52947 0.1721 0.96144 0.0
H384 H 0.61124 0.17915 0.88506 0.0
H385 H 0.57124 0.18638 0.87763 0.0
H386 H 0.60128 0.2404 0.10246 0.0
H387 H 0.64143 0.23341 0.10903 0.0
C388 C 0.53444 0.24379 0.01092 0.0
C389 C 0.50835 0.21994 -0.00479 0.0
C390 C 0.55872 0.24192 0.00829 0.0
C391 C 0.55739 0.21617 0.99006 0.0
C392 C 0.53129 0.19238 0.97414 0.0
C393 C 0.50708 0.19425 0.9765 0.0
C394 C 0.60931 0.19265 0.9326 0.0
C395 C 0.62934 0.20559 -0.00211 0.0
C396 C 0.58639 0.19675 0.92853 0.0
C397 C 0.58294 0.21376 0.98995 0.0
C398 C 0.60347 0.22742 0.05359 0.0
C399 C 0.62647 0.22341 0.0574 0.0
H400 H 0.44667 0.58768 -0.00088 0.0
H401 H 0.41559 0.64596 -0.00366 0.0
H402 H 0.3994 0.5486 0.99054 0.0
H403 H 0.36807 0.60668 0.98275 0.0
H404 H 0.28681 0.5275 0.0715 0.0
H405 H 0.33338 0.56874 0.06889 0.0
H406 H 0.36096 0.52535 0.89569 0.0
H407 H 0.31491 0.48401 0.90079 0.0
C408 C 0.42972 0.59216 -0.00381 0.0
C409 C 0.43491 0.61994 -0.00072 0.0
C410 C 0.40258 0.56973 0.99002 0.0
C411 C 0.37988 0.57446 0.98581 0.0
C412 C 0.38506 0.60229 0.98687 0.0
C413 C 0.41231 0.62481 -0.00645 0.0
C414 C 0.30282 0.52687 0.03261 0.0
C415 C 0.2973 0.50238 0.98734 0.0
C416 C 0.32946 0.55056 0.03064 0.0
C417 C 0.351 0.55028 0.9827 0.0
C418 C 0.34506 0.52609 0.93489 0.0
C419 C 0.3186 0.50239 0.93759 0.0
H420 H 0.80023 0.42524 0.10064 0.0
H421 H 0.85346 0.43698 0.88113 0.0
H422 H 0.793 0.37782 0.12031 0.0
H423 H 0.84622 0.38987 0.90043 0.0
H424 H 0.85576 0.32039 0.01988 0.0
H425 H 0.86021 0.36642 0.00495 0.0
H426 H 0.77203 0.33064 0.05249 0.0
H427 H 0.76752 0.28426 0.06909 0.0
C428 C 0.81014 0.41759 0.05614 0.0
C429 C 0.82771 0.43496 0.99004 0.0
C430 C 0.80599 0.39046 0.06735 0.0
C431 C 0.81932 0.38024 0.0126 0.0
C432 C 0.83618 0.39736 0.94502 0.0
C433 C 0.84033 0.42436 0.93393 0.0
C434 C 0.83725 0.32221 0.02743 0.0
C435 C 0.81123 0.29854 0.04518 0.0
C436 C 0.83981 0.34865 0.01836 0.0
C437 C 0.81642 0.35214 0.0265 0.0
C438 C 0.79046 0.32863 0.04626 0.0
C439 C 0.78788 0.30206 0.05546 0.0
H440 H 0.40089 0.81428 0.13198 0.0
H441 H 0.41544 0.83104 0.85851 0.0
H442 H 0.44035 0.80609 0.1394 0.0
H443 H 0.45476 0.82249 0.86569 0.0
H444 H 0.54373 0.84376 0.948 0.0
H445 H 0.50207 0.84786 0.93451 0.0
H446 H 0.45566 0.77254 0.08592 0.0
H447 H 0.4974 0.76837 0.09989 0.0
C448 C 0.41247 0.81606 0.07342 0.0
C449 C 0.40523 0.82345 -0.00523 0.0
C450 C 0.43488 0.81114 0.07751 0.0
C451 C 0.45066 0.81374 0.00319 0.0
C452 C 0.44309 0.82058 0.92414 0.0
C453 C 0.42048 0.82524 0.91987 0.0
C454 C 0.52467 0.82803 0.97846 0.0
C455 C 0.52395 0.80581 0.02544 0.0
C456 C 0.50075 0.83028 0.97007 0.0
C457 C 0.47563 0.8105 0.00904 0.0
C458 C 0.47482 0.7882 0.05573 0.0
C459 C 0.4987 0.78578 0.06347 0.0
H460 H 0.74633 0.49544 0.90148 0.0
H461 H 0.70981 0.54658 0.97072 0.0
H462 H 0.70012 0.45371 0.90248 0.0
H463 H 0.66392 0.50492 0.97327 0.0
H464 H 0.58309 0.4302 0.88665 0.0
H465 H 0.62982 0.47055 0.87465 0.0
H466 H 0.6632 0.42431 0.00495 0.0
H467 H 0.61651 0.38347 0.01384 0.0
C468 C 0.7285 0.49781 0.917 0.0
C469 C 0.73181 0.5244 0.93581 0.0
C470 C 0.70205 0.47387 0.918 0.0
C471 C 0.67834 0.47603 0.93759 0.0
C472 C 0.68169 0.5026 0.95651 0.0
C473 C 0.70808 0.52648 0.95564 0.0
C474 C 0.60043 0.42844 0.91139 0.0
C475 C 0.59605 0.40362 0.95135 0.0
C476 C 0.62718 0.4517 0.90548 0.0
C477 C 0.65019 0.45071 0.93947 0.0
C478 C 0.64593 0.42569 0.97763 0.0
C479 C 0.61915 0.4024 0.98356 0.0
H480 H 0.19614 0.38303 0.71584 0.0
H481 H 0.24233 0.47375 0.71646 0.0
H482 H 0.19499 0.38307 0.55737 0.0
H483 H 0.24179 0.47364 0.55795 0.0
H484 H 0.26281 0.45144 0.27925 0.0
H485 H 0.26295 0.45194 0.4376 0.0
H486 H 0.17312 0.40472 0.43947 0.0
H487 H 0.17284 0.40485 0.28077 0.0
C488 C 0.20619 0.40294 0.6821 0.0
C489 C 0.21937 0.4284 0.72833 0.0
C490 C 0.20538 0.40293 0.59168 0.0
C491 C 0.2183 0.42835 0.54594 0.0
C492 C 0.23174 0.45379 0.592 0.0
C493 C 0.23197 0.45383 0.68246 0.0
C494 C 0.24309 0.44122 0.31343 0.0
C495 C 0.2178 0.42812 0.2678 0.0
C496 C 0.2432 0.44162 0.40384 0.0
C497 C 0.21806 0.42834 0.45026 0.0
C498 C 0.19276 0.41501 0.40485 0.0
C499 C 0.19262 0.4152 0.31432 0.0
H500 H 0.76402 0.21462 0.77032 0.0
H501 H 0.84634 0.22393 0.76777 0.0
H502 H 0.76339 0.21344 0.61251 0.0
H503 H 0.84553 0.22259 0.61017 0.0
H504 H 0.84572 0.25267 0.33298 0.0
H505 H 0.8458 0.25313 0.49041 0.0
H506 H 0.76243 0.18174 0.49236 0.0
H507 H 0.76221 0.18128 0.33421 0.0
C508 C 0.78199 0.21646 0.73619 0.0
C509 C 0.80526 0.21944 0.78157 0.0
C510 C 0.78151 0.21557 0.64589 0.0
C511 C 0.80439 0.2179 0.59923 0.0
C512 C 0.8277 0.22099 0.64454 0.0
C513 C 0.8281 0.22165 0.73479 0.0
C514 C 0.82738 0.23704 0.36682 0.0
C515 C 0.80394 0.21693 0.32115 0.0
C516 C 0.82751 0.23723 0.457 0.0
C517 C 0.80415 0.21746 0.5035 0.0
C518 C 0.78064 0.19737 0.45801 0.0
C519 C 0.78059 0.19702 0.3676 0.0
H520 H 0.56124 0.75814 0.75959 0.0
H521 H 0.63506 0.84033 0.7612 0.0
H522 H 0.56074 0.75897 0.602 0.0
H523 H 0.63454 0.84099 0.6034 0.0
H524 H 0.60422 0.84286 0.32603 0.0
H525 H 0.60448 0.84268 0.48414 0.0
H526 H 0.5904 0.75791 0.48125 0.0
H527 H 0.58999 0.75793 0.32381 0.0
C528 C 0.57738 0.77636 0.7264 0.0
C529 C 0.59823 0.79914 0.77293 0.0
C530 C 0.57714 0.77676 0.63616 0.0
C531 C 0.5976 0.80004 0.59058 0.0
C532 C 0.61837 0.82289 0.63698 0.0
C533 C 0.61876 0.8224 0.72728 0.0
C534 C 0.60113 0.82418 0.35919 0.0
C535 C 0.59707 0.80041 0.31246 0.0
C536 C 0.60144 0.82415 0.44959 0.0
C537 C 0.59743 0.80027 0.49483 0.0
C538 C 0.59325 0.7765 0.44806 0.0
C539 C 0.59318 0.7766 0.35786 0.0
H540 H 0.84741 0.59111 0.65139 0.0
H541 H 0.77708 0.60502 0.65408 0.0
H542 H 0.84714 0.59118 0.49333 0.0
H543 H 0.77682 0.60496 0.49656 0.0
H544 H 0.80634 0.63472 0.21858 0.0
H545 H 0.80739 0.63507 0.37629 0.0
H546 H 0.81568 0.56088 0.37357 0.0
H547 H 0.81477 0.56051 0.21582 0.0
C548 C 0.83193 0.5942 0.61834 0.0
C549 C 0.81227 0.59805 0.66519 0.0
C550 C 0.83169 0.59408 0.52794 0.0
C551 C 0.81197 0.59809 0.48281 0.0
C552 C 0.79243 0.6021 0.52969 0.0
C553 C 0.7925 0.60197 0.61991 0.0
C554 C 0.80839 0.61847 0.25153 0.0
C555 C 0.81043 0.59756 0.20466 0.0
C556 C 0.80887 0.61862 0.34182 0.0
C557 C 0.81163 0.59801 0.38705 0.0
C558 C 0.8138 0.57718 0.34028 0.0
C559 C 0.81308 0.57688 0.24999 0.0
H560 H 0.1879 0.77259 0.26021 0.0
H561 H 0.26956 0.84678 0.25952 0.0
H562 H 0.18834 0.77231 0.41787 0.0
H563 H 0.26985 0.84649 0.41745 0.0
H564 H 0.27111 0.81579 0.69486 0.0
H565 H 0.27112 0.81606 0.53691 0.0
H566 H 0.18725 0.80243 0.53838 0.0
H567 H 0.18708 0.80202 0.69595 0.0
C568 C 0.20593 0.78885 0.29366 0.0
C569 C 0.22869 0.80974 0.24742 0.0
C570 C 0.2061 0.78875 0.38391 0.0
C571 C 0.22912 0.80938 0.42978 0.0
C572 C 0.25195 0.83019 0.38364 0.0
C573 C 0.25169 0.83044 0.2933 0.0
C574 C 0.25265 0.8128 0.6615 0.0
C575 C 0.22909 0.80887 0.70793 0.0
C576 C 0.25274 0.81312 0.57114 0.0
C577 C 0.22918 0.80926 0.52553 0.0
C578 C 0.2056 0.80519 0.57192 0.0
C579 C 0.20558 0.80512 0.66216 0.0
H580 H 0.39018 0.20291 0.71811 0.0
H581 H 0.48012 0.24571 0.71733 0.0
H582 H 0.39027 0.20461 0.55971 0.0
H583 H 0.48006 0.24665 0.55884 0.0
H584 H 0.45756 0.20383 0.27977 0.0
H585 H 0.45822 0.2041 0.43802 0.0
H586 H 0.41211 0.24841 0.4422 0.0
H587 H 0.41209 0.24892 0.28343 0.0
C588 C 0.40993 0.21248 0.68407 0.0
C589 C 0.43515 0.22412 0.7299 0.0
C590 C 0.40996 0.2136 0.59369 0.0
C591 C 0.43517 0.22578 0.54754 0.0
C592 C 0.46037 0.23712 0.5932 0.0
C593 C 0.46038 0.23662 0.68364 0.0
C594 C 0.44764 0.21372 0.31441 0.0
C595 C 0.43478 0.22637 0.26938 0.0
C596 C 0.44812 0.21394 0.40479 0.0
C597 C 0.43519 0.22623 0.45185 0.0
C598 C 0.42214 0.23873 0.40707 0.0
C599 C 0.42224 0.23912 0.31651 0.0
loop_
_geom_bond_atom_site_label_1
_geom_bond_atom_site_label_2
_geom_bond_distance
_geom_bond_site_symmetry_2
_ccdc_geom_bond_type
Eu0 C9 2.828 1_556 S
Eu0 O11 2.392 . S
Eu0 O13 2.418 . S
Eu0 O18 2.373 . S
Eu0 O21 2.488 . S
Eu0 O22 2.471 1_556 S
Eu0 O23 2.349 1_556 S
Eu1 O10 2.373 . S
Eu1 O14 2.488 . S
Eu1 O15 2.471 1_554 S
Eu1 O16 2.349 1_554 S
Eu1 O19 2.392 . S
Eu1 O20 2.418 . S
Eu1 C30 2.828 1_554 S
C2 O20 1.244 . S
C2 O23 1.265 . S
C3 C4 1.379 . S
C3 C7 1.373 1_554 S
C3 C9 1.505 . S
C4 C3 1.379 . S
C4 C6 1.369 . S
C4 H32 0.930 . S
C5 C7 1.383 . S
C5 C8 1.382 1_556 S
C5 H33 0.930 . S
C6 C4 1.369 . S
C6 C8 1.392 . S
C6 H34 0.930 . S
C7 C3 1.373 1_556 S
C7 C5 1.383 . S
C7 H35 0.931 . S
C8 C5 1.382 1_554 S
C8 C6 1.392 . S
C9 Eu0 2.828 1_554 S
C9 C3 1.505 . S
C9 O21 1.249 1_554 S
C9 O22 1.244 . S
O10 Eu1 2.373 . S
O10 C12 1.258 . S
O11 Eu0 2.392 . S
O11 C12 1.242 1_556 S
C12 O10 1.258 . S
C12 O11 1.242 1_554 S
O13 Eu0 2.418 . S
O13 C17 1.244 . S
O14 Eu1 2.488 . S
O14 C30 1.249 1_554 S
O15 Eu1 2.471 1_556 S
O15 C30 1.244 . S
O16 Eu1 2.349 1_556 S
O16 C17 1.265 . S
C17 O13 1.244 . S
C17 O16 1.265 . S
O18 Eu0 2.373 . S
O18 C31 1.258 . S
O19 Eu1 2.392 . S
O19 C31 1.242 1_554 S
O20 Eu1 2.418 . S
O20 C2 1.244 . S
O21 Eu0 2.488 . S
O21 C9 1.249 1_556 S
O22 Eu0 2.471 1_554 S
O22 C9 1.244 . S
O23 Eu0 2.349 1_554 S
O23 C2 1.265 . S
C24 C25 1.379 . S
C24 C28 1.373 1_556 S
C24 C30 1.505 . S
C25 C24 1.379 . S
C25 C27 1.369 . S
C25 H36 0.930 . S
C26 C28 1.383 . S
C26 C29 1.382 1_554 S
C26 H37 0.930 . S
C27 C25 1.369 . S
C27 C29 1.392 . S
C27 H38 0.930 . S
C28 C24 1.373 1_554 S
C28 C26 1.383 . S
C28 H39 0.931 . S
C29 C26 1.382 1_556 S
C29 C27 1.392 . S
C30 Eu1 2.828 1_556 S
C30 O14 1.249 1_556 S
C30 O15 1.244 . S
C30 C24 1.505 . S
C31 O18 1.258 . S
C31 O19 1.242 1_556 S
H32 C4 0.930 . S
H33 C5 0.930 . S
H34 C6 0.930 . S
H35 C7 0.931 . S
H36 C25 0.930 . S
H37 C26 0.930 . S
H38 C27 0.930 . S
H39 C28 0.931 . S
Eu40 C49 2.828 1_556 S
Eu40 O51 2.392 . S
Eu40 O53 2.418 . S
Eu40 O58 2.373 . S
Eu40 O61 2.488 . S
Eu40 O62 2.471 1_556 S
Eu40 O63 2.349 1_556 S
Eu41 O50 2.373 . S
Eu41 O54 2.488 . S
Eu41 O55 2.471 1_554 S
Eu41 O56 2.349 1_554 S
Eu41 O59 2.392 . S
Eu41 O60 2.418 . S
Eu41 C70 2.828 1_554 S
C42 O60 1.244 . S
C42 O63 1.265 . S
C43 C44 1.379 . S
C43 C47 1.373 1_554 S
C43 C49 1.505 . S
C44 C43 1.379 . S
C44 C46 1.369 . S
C44 H72 0.930 . S
C45 C47 1.383 . S
C45 C48 1.382 1_556 S
C45 H73 0.930 . S
C46 C44 1.369 . S
C46 C48 1.392 . S
C46 H74 0.930 . S
C47 C43 1.373 1_556 S
C47 C45 1.383 . S
C47 H75 0.931 . S
C48 C45 1.382 1_554 S
C48 C46 1.392 . S
C49 Eu40 2.828 1_554 S
C49 C43 1.505 . S
C49 O61 1.249 1_554 S
C49 O62 1.244 . S
O50 Eu41 2.373 . S
O50 C52 1.258 . S
O51 Eu40 2.392 . S
O51 C52 1.242 1_556 S
C52 O50 1.258 . S
C52 O51 1.242 1_554 S
O53 Eu40 2.418 . S
O53 C57 1.244 . S
O54 Eu41 2.488 . S
O54 C70 1.249 1_554 S
O55 Eu41 2.471 1_556 S
O55 C70 1.244 . S
O56 Eu41 2.349 1_556 S
O56 C57 1.265 . S
C57 O53 1.244 . S
C57 O56 1.265 . S
O58 Eu40 2.373 . S
O58 C71 1.258 . S
O59 Eu41 2.392 . S
O59 C71 1.242 1_554 S
O60 Eu41 2.418 . S
O60 C42 1.244 . S
O61 Eu40 2.488 . S
O61 C49 1.249 1_556 S
O62 Eu40 2.471 1_554 S
O62 C49 1.244 . S
O63 Eu40 2.349 1_554 S
O63 C42 1.265 . S
C64 C65 1.379 . S
C64 C68 1.373 1_556 S
C64 C70 1.505 . S
C65 C64 1.379 . S
C65 C67 1.369 . S
C65 H76 0.930 . S
C66 C68 1.383 . S
C66 C69 1.382 1_554 S
C66 H77 0.930 . S
C67 C65 1.369 . S
C67 C69 1.392 . S
C67 H78 0.930 . S
C68 C64 1.373 1_554 S
C68 C66 1.383 . S
C68 H79 0.931 . S
C69 C66 1.382 1_556 S
C69 C67 1.392 . S
C70 Eu41 2.828 1_556 S
C70 O54 1.249 1_556 S
C70 O55 1.244 . S
C70 C64 1.505 . S
C71 O58 1.258 . S
C71 O59 1.242 1_556 S
H72 C44 0.930 . S
H73 C45 0.930 . S
H74 C46 0.930 . S
H75 C47 0.931 . S
H76 C65 0.930 . S
H77 C66 0.930 . S
H78 C67 0.930 . S
H79 C68 0.931 . S
Eu80 C89 2.828 1_556 S
Eu80 O91 2.392 . S
Eu80 O93 2.418 . S
Eu80 O98 2.373 . S
Eu80 O101 2.488 . S
Eu80 O102 2.471 1_556 S
Eu80 O103 2.349 1_556 S
Eu81 O90 2.373 . S
Eu81 O94 2.488 . S
Eu81 O95 2.471 1_554 S
Eu81 O96 2.349 1_554 S
Eu81 O99 2.392 . S
Eu81 O100 2.418 . S
Eu81 C110 2.828 1_554 S
C82 O100 1.244 . S
C82 O103 1.265 . S
C83 C84 1.379 . S
C83 C87 1.373 1_554 S
C83 C89 1.505 . S
C84 C83 1.379 . S
C84 C86 1.369 . S
C84 H112 0.930 . S
C85 C87 1.383 . S
C85 C88 1.382 1_556 S
C85 H113 0.930 . S
C86 C84 1.369 . S
C86 C88 1.392 . S
C86 H114 0.930 . S
C87 C83 1.373 1_556 S
C87 C85 1.383 . S
C87 H115 0.931 . S
C88 C85 1.382 1_554 S
C88 C86 1.392 . S
C89 Eu80 2.828 1_554 S
C89 C83 1.505 . S
C89 O101 1.249 1_554 S
C89 O102 1.244 . S
O90 Eu81 2.373 . S
O90 C92 1.258 . S
O91 Eu80 2.392 . S
O91 C92 1.242 1_556 S
C92 O90 1.258 . S
C92 O91 1.242 1_554 S
O93 Eu80 2.418 . S
O93 C97 1.244 . S
O94 Eu81 2.488 . S
O94 C110 1.249 1_554 S
O95 Eu81 2.471 1_556 S
O95 C110 1.244 . S
O96 Eu81 2.349 1_556 S
O96 C97 1.265 . S
C97 O93 1.244 . S
C97 O96 1.265 . S
O98 Eu80 2.373 . S
O98 C111 1.258 . S
O99 Eu81 2.392 . S
O99 C111 1.242 1_554 S
O100 Eu81 2.418 . S
O100 C82 1.244 . S
O101 Eu80 2.488 . S
O101 C89 1.249 1_556 S
O102 Eu80 2.471 1_554 S
O102 C89 1.244 . S
O103 Eu80 2.349 1_554 S
O103 C82 1.265 . S
C104 C105 1.379 . S
C104 C108 1.373 1_556 S
C104 C110 1.505 . S
C105 C104 1.379 . S
C105 C107 1.369 . S
C105 H116 0.930 . S
C106 C108 1.383 . S
C106 C109 1.382 1_554 S
C106 H117 0.930 . S
C107 C105 1.369 . S
C107 C109 1.392 . S
C107 H118 0.930 . S
C108 C104 1.373 1_554 S
C108 C106 1.383 . S
C108 H119 0.931 . S
C109 C106 1.382 1_556 S
C109 C107 1.392 . S
C110 Eu81 2.828 1_556 S
C110 O94 1.249 1_556 S
C110 O95 1.244 . S
C110 C104 1.505 . S
C111 O98 1.258 . S
C111 O99 1.242 1_556 S
H112 C84 0.930 . S
H113 C85 0.930 . S
H114 C86 0.930 . S
H115 C87 0.931 . S
H116 C105 0.930 . S
H117 C106 0.930 . S
H118 C107 0.930 . S
H119 C108 0.931 . S
Eu120 C129 2.828 1_556 S
Eu120 O131 2.392 . S
Eu120 O133 2.418 . S
Eu120 O138 2.373 . S
Eu120 O141 2.488 . S
Eu120 O142 2.471 1_556 S
Eu120 O143 2.349 1_556 S
Eu121 O130 2.373 . S
Eu121 O134 2.488 . S
Eu121 O135 2.471 1_554 S
Eu121 O136 2.349 1_554 S
Eu121 O139 2.392 . S
Eu121 O140 2.418 . S
Eu121 C150 2.828 1_554 S
C122 O140 1.244 . S
C122 O143 1.265 . S
C123 C124 1.379 . S
C123 C127 1.373 1_554 S
C123 C129 1.505 . S
C124 C123 1.379 . S
C124 C126 1.369 . S
C124 H152 0.930 . S
C125 C127 1.383 . S
C125 C128 1.382 1_556 S
C125 H153 0.930 . S
C126 C124 1.369 . S
C126 C128 1.392 . S
C126 H154 0.930 . S
C127 C123 1.373 1_556 S
C127 C125 1.383 . S
C127 H155 0.931 . S
C128 C125 1.382 1_554 S
C128 C126 1.392 . S
C129 Eu120 2.828 1_554 S
C129 C123 1.505 . S
C129 O141 1.249 1_554 S
C129 O142 1.244 . S
O130 Eu121 2.373 . S
O130 C132 1.258 . S
O131 Eu120 2.392 . S
O131 C132 1.242 1_556 S
C132 O130 1.258 . S
C132 O131 1.242 1_554 S
O133 Eu120 2.418 . S
O133 C137 1.244 . S
O134 Eu121 2.488 . S
O134 C150 1.249 1_554 S
O135 Eu121 2.471 1_556 S
O135 C150 1.244 . S
O136 Eu121 2.349 1_556 S
O136 C137 1.265 . S
C137 O133 1.244 . S
C137 O136 1.265 . S
O138 Eu120 2.373 . S
O138 C151 1.258 . S
O139 Eu121 2.392 . S
O139 C151 1.242 1_554 S
O140 Eu121 2.418 . S
O140 C122 1.244 . S
O141 Eu120 2.488 . S
O141 C129 1.249 1_556 S
O142 Eu120 2.471 1_554 S
O142 C129 1.244 . S
O143 Eu120 2.349 1_554 S
O143 C122 1.265 . S
C144 C145 1.379 . S
C144 C148 1.373 1_556 S
C144 C150 1.505 . S
C145 C144 1.379 . S
C145 C147 1.369 . S
C145 H156 0.930 . S
C146 C148 1.383 . S
C146 C149 1.382 1_554 S
C146 H157 0.930 . S
C147 C145 1.369 . S
C147 C149 1.392 . S
C147 H158 0.930 . S
C148 C144 1.373 1_554 S
C148 C146 1.383 . S
C148 H159 0.931 . S
C149 C146 1.382 1_556 S
C149 C147 1.392 . S
C150 Eu121 2.828 1_556 S
C150 O134 1.249 1_556 S
C150 O135 1.244 . S
C150 C144 1.505 . S
C151 O138 1.258 . S
C151 O139 1.242 1_556 S
H152 C124 0.930 . S
H153 C125 0.930 . S
H154 C126 0.930 . S
H155 C127 0.931 . S
H156 C145 0.930 . S
H157 C146 0.930 . S
H158 C147 0.930 . S
H159 C148 0.931 . S
Eu160 C169 2.828 1_556 S
Eu160 O171 2.392 . S
Eu160 O173 2.418 . S
Eu160 O178 2.373 . S
Eu160 O181 2.488 . S
Eu160 O182 2.471 1_556 S
Eu160 O183 2.349 1_556 S
Eu161 O170 2.373 . S
Eu161 O174 2.488 . S
Eu161 O175 2.471 1_554 S
Eu161 O176 2.349 1_554 S
Eu161 O179 2.392 . S
Eu161 O180 2.418 . S
Eu161 C190 2.828 1_554 S
C162 O180 1.244 . S
C162 O183 1.265 . S
C163 C164 1.379 . S
C163 C167 1.373 1_554 S
C163 C169 1.505 . S
C164 C163 1.379 . S
C164 C166 1.369 . S
C164 H192 0.930 . S
C165 C167 1.383 . S
C165 C168 1.382 1_556 S
C165 H193 0.930 . S
C166 C164 1.369 . S
C166 C168 1.392 . S
C166 H194 0.930 . S
C167 C163 1.373 1_556 S
C167 C165 1.383 . S
C167 H195 0.931 . S
C168 C165 1.382 1_554 S
C168 C166 1.392 . S
C169 Eu160 2.828 1_554 S
C169 C163 1.505 . S
C169 O181 1.249 1_554 S
C169 O182 1.244 . S
O170 Eu161 2.373 . S
O170 C172 1.258 . S
O171 Eu160 2.392 . S
O171 C172 1.242 1_556 S
C172 O170 1.258 . S
C172 O171 1.242 1_554 S
O173 Eu160 2.418 . S
O173 C177 1.244 . S
O174 Eu161 2.488 . S
O174 C190 1.249 1_554 S
O175 Eu161 2.471 1_556 S
O175 C190 1.244 . S
O176 Eu161 2.349 1_556 S
O176 C177 1.265 . S
C177 O173 1.244 . S
C177 O176 1.265 . S
O178 Eu160 2.373 . S
O178 C191 1.258 . S
O179 Eu161 2.392 . S
O179 C191 1.242 1_554 S
O180 Eu161 2.418 . S
O180 C162 1.244 . S
O181 Eu160 2.488 . S
O181 C169 1.249 1_556 S
O182 Eu160 2.471 1_554 S
O182 C169 1.244 . S
O183 Eu160 2.349 1_554 S
O183 C162 1.265 . S
C184 C185 1.379 . S
C184 C188 1.373 1_556 S
C184 C190 1.505 . S
C185 C184 1.379 . S
C185 C187 1.369 . S
C185 H196 0.930 . S
C186 C188 1.383 . S
C186 C189 1.382 1_554 S
C186 H197 0.930 . S
C187 C185 1.369 . S
C187 C189 1.392 . S
C187 H198 0.930 . S
C188 C184 1.373 1_554 S
C188 C186 1.383 . S
C188 H199 0.931 . S
C189 C186 1.382 1_556 S
C189 C187 1.392 . S
C190 Eu161 2.828 1_556 S
C190 O174 1.249 1_556 S
C190 O175 1.244 . S
C190 C184 1.505 . S
C191 O178 1.258 . S
C191 O179 1.242 1_556 S
H192 C164 0.930 . S
H193 C165 0.930 . S
H194 C166 0.930 . S
H195 C167 0.931 . S
H196 C185 0.930 . S
H197 C186 0.930 . S
H198 C187 0.930 . S
H199 C188 0.931 . S
Eu200 C209 2.828 1_556 S
Eu200 O211 2.392 . S
Eu200 O213 2.418 . S
Eu200 O218 2.373 . S
Eu200 O221 2.488 . S
Eu200 O222 2.471 1_556 S
Eu200 O223 2.349 1_556 S
Eu201 O210 2.373 . S
Eu201 O214 2.488 . S
Eu201 O215 2.471 1_554 S
Eu201 O216 2.349 1_554 S
Eu201 O219 2.392 . S
Eu201 O220 2.418 . S
Eu201 C230 2.828 1_554 S
C202 O220 1.244 . S
C202 O223 1.265 . S
C203 C204 1.379 . S
C203 C207 1.373 1_554 S
C203 C209 1.505 . S
C204 C203 1.379 . S
C204 C206 1.369 . S
C204 H232 0.930 . S
C205 C207 1.383 . S
C205 C208 1.382 1_556 S
C205 H233 0.930 . S
C206 C204 1.369 . S
C206 C208 1.392 . S
C206 H234 0.930 . S
C207 C203 1.373 1_556 S
C207 C205 1.383 . S
C207 H235 0.931 . S
C208 C205 1.382 1_554 S
C208 C206 1.392 . S
C209 Eu200 2.828 1_554 S
C209 C203 1.505 . S
C209 O221 1.249 1_554 S
C209 O222 1.244 . S
O210 Eu201 2.373 . S
O210 C212 1.258 . S
O211 Eu200 2.392 . S
O211 C212 1.242 1_556 S
C212 O210 1.258 . S
C212 O211 1.242 1_554 S
O213 Eu200 2.418 . S
O213 C217 1.244 . S
O214 Eu201 2.488 . S
O214 C230 1.249 1_554 S
O215 Eu201 2.471 1_556 S
O215 C230 1.244 . S
O216 Eu201 2.349 1_556 S
O216 C217 1.265 . S
C217 O213 1.244 . S
C217 O216 1.265 . S
O218 Eu200 2.373 . S
O218 C231 1.258 . S
O219 Eu201 2.392 . S
O219 C231 1.242 1_554 S
O220 Eu201 2.418 . S
O220 C202 1.244 . S
O221 Eu200 2.488 . S
O221 C209 1.249 1_556 S
O222 Eu200 2.471 1_554 S
O222 C209 1.244 . S
O223 Eu200 2.349 1_554 S
O223 C202 1.265 . S
C224 C225 1.379 . S
C224 C228 1.373 1_556 S
C224 C230 1.505 . S
C225 C224 1.379 . S
C225 C227 1.369 . S
C225 H236 0.930 . S
C226 C228 1.383 . S
C226 C229 1.382 1_554 S
C226 H237 0.930 . S
C227 C225 1.369 . S
C227 C229 1.392 . S
C227 H238 0.930 . S
C228 C224 1.373 1_554 S
C228 C226 1.383 . S
C228 H239 0.931 . S
C229 C226 1.382 1_556 S
C229 C227 1.392 . S
C230 Eu201 2.828 1_556 S
C230 O214 1.249 1_556 S
C230 O215 1.244 . S
C230 C224 1.505 . S
C231 O218 1.258 . S
C231 O219 1.242 1_556 S
H232 C204 0.930 . S
H233 C205 0.930 . S
H234 C206 0.930 . S
H235 C207 0.931 . S
H236 C225 0.930 . S
H237 C226 0.930 . S
H238 C227 0.930 . S
H239 C228 0.931 . S
H240 C248 0.950 . S
H241 C253 0.950 . S
H242 C250 0.950 . S
H243 C252 0.950 . S
H244 C254 0.950 . S
H245 C256 0.950 . S
H246 C258 0.950 . S
H247 C259 0.950 . S
C248 H240 0.950 . S
C248 C249 1.386 . S
C248 C250 1.391 . S
C249 C248 1.386 . S
C249 C253 1.393 1_554 S
C250 H242 0.950 . S
C250 C248 1.391 . S
C250 C251 1.400 . S
C251 C250 1.400 . S
C251 C252 1.398 1_554 S
C251 C257 1.491 . S
C252 H243 0.950 . S
C252 C251 1.398 1_556 S
C252 C253 1.391 . S
C253 H241 0.950 . S
C253 C249 1.393 1_556 S
C253 C252 1.391 . S
C254 H244 0.950 . S
C254 C255 1.386 1_556 S
C254 C256 1.391 . S
C255 C254 1.386 1_554 S
C255 C259 1.393 . S
C256 H245 0.950 . S
C256 C254 1.391 . S
C256 C257 1.400 1_556 S
C257 C251 1.491 . S
C257 C256 1.400 1_554 S
C257 C258 1.398 . S
C258 H246 0.950 . S
C258 C257 1.398 . S
C258 C259 1.391 . S
C259 H247 0.950 . S
C259 C255 1.393 . S
C259 C258 1.391 . S
H260 C268 0.950 . S
H261 C273 0.950 . S
H262 C270 0.950 . S
H263 C272 0.950 . S
H264 C274 0.950 1_655 S
H265 C276 0.950 . S
H266 C278 0.950 . S
H267 C279 0.950 . S
C268 H260 0.950 . S
C268 C269 1.392 . S
C268 C270 1.391 . S
C269 C268 1.392 . S
C269 C273 1.386 1_556 S
C270 H262 0.950 . S
C270 C268 1.391 . S
C270 C271 1.400 1_556 S
C271 C270 1.400 1_554 S
C271 C272 1.398 . S
C271 C277 1.491 . S
C272 H263 0.950 . S
C272 C271 1.398 . S
C272 C273 1.391 . S
C273 H261 0.950 . S
C273 C269 1.386 1_554 S
C273 C272 1.391 . S
C274 H264 0.950 1_455 S
C274 C275 1.386 1_455 S
C274 C276 1.391 . S
C275 C274 1.386 1_655 S
C275 C279 1.393 1_554 S
C276 H265 0.950 . S
C276 C274 1.391 . S
C276 C277 1.400 . S
C277 C271 1.491 . S
C277 C276 1.400 . S
C277 C278 1.398 1_554 S
C278 H266 0.950 . S
C278 C277 1.398 1_556 S
C278 C279 1.391 1_455 S
C279 H267 0.950 . S
C279 C275 1.393 1_556 S
C279 C278 1.391 1_655 S
H280 C288 0.950 . S
H281 C293 0.950 . S
H282 C290 0.950 . S
H283 C292 0.950 . S
H284 C294 0.931 1_565 S
H285 C296 0.950 . S
H286 C298 0.950 . S
H287 C299 0.950 . S
C288 H280 0.950 . S
C288 C289 1.386 . S
C288 C290 1.391 . S
C289 C288 1.386 . S
C289 C293 1.393 1_556 S
C290 H282 0.950 . S
C290 C288 1.391 . S
C290 C291 1.400 1_556 S
C291 C290 1.400 1_554 S
C291 C292 1.398 . S
C291 C297 1.491 . S
C292 H283 0.950 . S
C292 C291 1.398 . S
C292 C293 1.391 . S
C293 H281 0.950 . S
C293 C289 1.393 1_554 S
C293 C292 1.391 . S
C294 H284 0.931 1_545 S
C294 C295 1.386 1_545 S
C294 C296 1.391 . S
C295 C294 1.386 1_565 S
C295 C299 1.393 1_554 S
C296 H285 0.950 . S
C296 C294 1.391 . S
C296 C297 1.400 . S
C297 C291 1.491 . S
C297 C296 1.400 . S
C297 C298 1.398 1_554 S
C298 H286 0.950 . S
C298 C297 1.398 1_556 S
C298 C299 1.391 1_545 S
C299 H287 0.950 . S
C299 C295 1.393 1_556 S
C299 C298 1.391 1_565 S
H300 C308 0.950 1_556 S
H301 C313 0.950 . S
H302 C310 0.950 1_556 S
H303 C312 0.950 . S
H304 C314 0.950 . S
H305 C316 0.950 . S
H306 C318 0.950 . S
H307 C319 0.950 . S
C308 H300 0.950 1_554 S
C308 C309 1.386 . S
C308 C310 1.391 . S
C309 C308 1.386 . S
C309 C313 1.393 . S
C310 H302 0.950 1_554 S
C310 C308 1.391 . S
C310 C311 1.400 . S
C311 C310 1.400 . S
C311 C312 1.398 . S
C311 C317 1.491 . S
C312 H303 0.950 . S
C312 C311 1.398 . S
C312 C313 1.391 . S
C313 H301 0.950 . S
C313 C309 1.393 . S
C313 C312 1.391 . S
C314 H304 0.950 . S
C314 C315 1.386 . S
C314 C316 1.391 . S
C315 C314 1.386 . S
C315 C319 1.393 1_554 S
C316 H305 0.950 . S
C316 C314 1.391 . S
C316 C317 1.400 . S
C317 C311 1.491 . S
C317 C316 1.400 . S
C317 C318 1.398 1_554 S
C318 H306 0.950 . S
C318 C317 1.398 1_556 S
C318 C319 1.391 . S
C319 H307 0.950 . S
C319 C315 1.393 1_556 S
C319 C318 1.391 . S
H320 C328 0.950 . S
H321 C333 0.950 . S
H322 C330 0.950 . S
H323 C332 0.950 . S
H324 C334 0.950 . S
H325 C336 0.950 . S
H326 C338 0.950 . S
H327 C339 0.950 . S
C328 H320 0.950 . S
C328 C329 1.386 1_556 S
C328 C330 1.391 1_455 S
C329 C328 1.386 1_554 S
C329 C333 1.393 . S
C330 H322 0.950 . S
C330 C328 1.391 1_655 S
C330 C331 1.400 1_556 S
C331 C330 1.400 1_554 S
C331 C332 1.398 . S
C331 C337 1.491 . S
C332 H323 0.950 . S
C332 C331 1.398 . S
C332 C333 1.391 1_655 S
C333 H321 0.950 . S
C333 C329 1.393 . S
C333 C332 1.391 1_455 S
C334 H324 0.950 . S
C334 C335 1.386 . S
C334 C336 1.391 . S
C335 C334 1.386 . S
C335 C339 1.393 1_554 S
C336 H325 0.950 . S
C336 C334 1.391 . S
C336 C337 1.400 . S
C337 C331 1.491 . S
C337 C336 1.400 . S
C337 C338 1.398 1_554 S
C338 H326 0.950 . S
C338 C337 1.398 1_556 S
C338 C339 1.391 . S
C339 H327 0.950 . S
C339 C335 1.393 1_556 S
C339 C338 1.391 . S
H340 C348 0.950 . S
H341 C353 0.950 . S
H342 C350 0.950 . S
H343 C352 0.950 . S
H344 C354 0.950 1_556 S
H345 C356 0.953 . S
H346 C358 0.950 . S
H347 C359 0.965 . S
C348 H340 0.950 . S
C348 C349 1.386 . S
C348 C350 1.391 . S
C349 C348 1.386 . S
C349 C353 1.393 1_554 S
C350 H342 0.950 . S
C350 C348 1.391 . S
C350 C351 1.400 . S
C351 C350 1.400 . S
C351 C352 1.398 1_554 S
C351 C357 1.491 . S
C352 H343 0.950 . S
C352 C351 1.398 1_556 S
C352 C353 1.391 . S
C353 H341 0.950 . S
C353 C349 1.393 1_556 S
C353 C352 1.391 . S
C354 H344 0.950 1_554 S
C354 C355 1.386 . S
C354 C356 1.391 1_544 S
C355 C354 1.386 . S
C355 C359 1.393 1_545 S
C356 H345 0.953 . S
C356 C354 1.391 1_566 S
C356 C357 1.398 1_556 S
C357 C351 1.491 . S
C357 C356 1.398 1_554 S
C357 C358 1.398 . S
C358 H346 0.950 . S
C358 C357 1.398 . S
C358 C359 1.391 . S
C359 H347 0.965 . S
C359 C355 1.393 1_565 S
C359 C358 1.391 . S
H360 C368 0.950 . S
H361 C373 0.950 . S
H362 C370 0.950 . S
H363 C372 0.950 . S
H364 C374 0.950 . S
H365 C376 0.950 . S
H366 C378 0.950 . S
H367 C379 0.950 . S
C368 H360 0.950 . S
C368 C369 1.386 . S
C368 C370 1.391 . S
C369 C368 1.386 . S
C369 C373 1.393 1_554 S
C370 H362 0.950 . S
C370 C368 1.391 . S
C370 C371 1.400 1_554 S
C371 C370 1.400 1_556 S
C371 C372 1.398 . S
C371 C377 1.491 . S
C372 H363 0.950 . S
C372 C371 1.398 . S
C372 C373 1.391 . S
C373 H361 0.950 . S
C373 C369 1.393 1_556 S
C373 C372 1.391 . S
C374 H364 0.950 . S
C374 C375 1.386 . S
C374 C376 1.391 . S
C375 C374 1.386 . S
C375 C379 1.393 1_556 S
C376 H365 0.950 . S
C376 C374 1.391 . S
C376 C377 1.400 . S
C377 C371 1.491 . S
C377 C376 1.400 . S
C377 C378 1.398 1_556 S
C378 H366 0.950 . S
C378 C377 1.398 1_554 S
C378 C379 1.391 . S
C379 H367 0.950 . S
C379 C375 1.393 1_554 S
C379 C378 1.391 . S
H380 C388 0.950 . S
H381 C393 0.950 . S
H382 C390 0.950 . S
H383 C392 0.950 . S
H384 C394 0.950 . S
H385 C396 0.950 . S
H386 C398 0.950 . S
H387 C399 0.950 . S
C388 H380 0.950 . S
C388 C389 1.386 1_556 S
C388 C390 1.391 . S
C389 C388 1.386 1_554 S
C389 C393 1.393 . S
C390 H382 0.950 . S
C390 C388 1.391 . S
C390 C391 1.400 . S
C391 C390 1.400 . S
C391 C392 1.398 1_556 S
C391 C397 1.491 . S
C392 H383 0.950 . S
C392 C391 1.398 1_554 S
C392 C393 1.391 . S
C393 H381 0.950 . S
C393 C389 1.393 . S
C393 C392 1.391 . S
C394 H384 0.950 . S
C394 C395 1.386 1_554 S
C394 C396 1.391 . S
C395 C394 1.386 1_556 S
C395 C399 1.393 . S
C396 H385 0.950 . S
C396 C394 1.391 . S
C396 C397 1.400 1_554 S
C397 C391 1.491 . S
C397 C396 1.400 1_556 S
C397 C398 1.398 . S
C398 H386 0.950 . S
C398 C397 1.398 . S
C398 C399 1.391 . S
C399 H387 0.950 . S
C399 C395 1.393 . S
C399 C398 1.391 . S
H400 C408 0.950 . S
H401 C413 0.950 . S
H402 C410 0.950 . S
H403 C412 0.950 . S
H404 C414 0.950 . S
H405 C416 0.950 . S
H406 C418 0.950 . S
H407 C419 0.950 . S
C408 H400 0.950 . S
C408 C409 1.386 1_554 S
C408 C410 1.391 . S
C409 C408 1.386 1_556 S
C409 C413 1.393 . S
C410 H402 0.950 . S
C410 C408 1.391 . S
C410 C411 1.400 1_554 S
C411 C410 1.400 1_556 S
C411 C412 1.398 . S
C411 C417 1.491 . S
C412 H403 0.950 . S
C412 C411 1.398 . S
C412 C413 1.391 . S
C413 H401 0.950 . S
C413 C409 1.393 . S
C413 C412 1.391 . S
C414 H404 0.950 . S
C414 C415 1.386 . S
C414 C416 1.391 . S
C415 C414 1.386 . S
C415 C419 1.393 1_556 S
C416 H405 0.950 . S
C416 C414 1.391 . S
C416 C417 1.400 . S
C417 C411 1.491 . S
C417 C416 1.400 . S
C417 C418 1.398 1_556 S
C418 H406 0.950 . S
C418 C417 1.398 1_554 S
C418 C419 1.391 . S
C419 H407 0.950 . S
C419 C415 1.393 1_554 S
C419 C418 1.391 . S
H420 C428 0.950 . S
H421 C433 0.950 . S
H422 C430 0.950 . S
H423 C432 0.950 . S
H424 C434 0.950 . S
H425 C436 0.950 . S
H426 C438 0.950 . S
H427 C439 0.950 . S
C428 H420 0.950 . S
C428 C429 1.386 . S
C428 C430 1.391 . S
C429 C428 1.386 . S
C429 C433 1.393 1_556 S
C430 H422 0.950 . S
C430 C428 1.391 . S
C430 C431 1.400 . S
C431 C430 1.400 . S
C431 C432 1.398 1_556 S
C431 C437 1.491 . S
C432 H423 0.950 . S
C432 C431 1.398 1_554 S
C432 C433 1.391 . S
C433 H421 0.950 . S
C433 C429 1.393 1_554 S
C433 C432 1.391 . S
C434 H424 0.950 . S
C434 C435 1.389 . S
C434 C436 1.391 . S
C435 C434 1.389 . S
C435 C439 1.389 1_554 S
C436 H425 0.950 . S
C436 C434 1.391 . S
C436 C437 1.400 1_554 S
C437 C431 1.491 . S
C437 C436 1.400 1_556 S
C437 C438 1.398 . S
C438 H426 0.950 . S
C438 C437 1.398 . S
C438 C439 1.391 . S
C439 H427 0.950 . S
C439 C435 1.389 1_556 S
C439 C438 1.391 . S
H440 C448 0.950 . S
H441 C453 0.950 . S
H442 C450 0.950 . S
H443 C452 0.950 . S
H444 C454 0.950 . S
H445 C456 0.950 . S
H446 C458 0.950 . S
H447 C459 0.950 . S
C448 H440 0.950 . S
C448 C449 1.386 1_554 S
C448 C450 1.391 . S
C449 C448 1.386 1_556 S
C449 C453 1.393 . S
C450 H442 0.950 . S
C450 C448 1.391 . S
C450 C451 1.400 1_554 S
C451 C450 1.400 1_556 S
C451 C452 1.398 . S
C451 C457 1.491 . S
C452 H443 0.950 . S
C452 C451 1.398 . S
C452 C453 1.391 . S
C453 H441 0.950 . S
C453 C449 1.393 . S
C453 C452 1.391 . S
C454 H444 0.950 . S
C454 C455 1.386 . S
C454 C456 1.391 . S
C455 C454 1.386 . S
C455 C459 1.393 1_556 S
C456 H445 0.950 . S
C456 C454 1.391 . S
C456 C457 1.400 . S
C457 C451 1.491 . S
C457 C456 1.400 . S
C457 C458 1.398 1_556 S
C458 H446 0.950 . S
C458 C457 1.398 1_554 S
C458 C459 1.391 . S
C459 H447 0.950 . S
C459 C455 1.393 1_554 S
C459 C458 1.391 . S
H460 C468 0.950 . S
H461 C473 0.950 . S
H462 C470 0.950 . S
H463 C472 0.950 . S
H464 C474 0.950 . S
H465 C476 0.950 . S
H466 C478 0.950 . S
H467 C479 0.950 . S
C468 H460 0.950 . S
C468 C469 1.386 . S
C468 C470 1.391 . S
C469 C468 1.386 . S
C469 C473 1.393 1_554 S
C470 H462 0.950 . S
C470 C468 1.391 . S
C470 C471 1.400 1_554 S
C471 C470 1.400 1_556 S
C471 C472 1.398 . S
C471 C477 1.491 . S
C472 H463 0.950 . S
C472 C471 1.398 . S
C472 C473 1.391 . S
C473 H461 0.950 . S
C473 C469 1.393 1_556 S
C473 C472 1.391 . S
C474 H464 0.950 . S
C474 C475 1.386 . S
C474 C476 1.391 . S
C475 C474 1.386 . S
C475 C479 1.393 1_556 S
C476 H465 0.950 . S
C476 C474 1.391 . S
C476 C477 1.400 . S
C477 C471 1.491 . S
C477 C476 1.400 . S
C477 C478 1.398 1_556 S
C478 H466 0.950 . S
C478 C477 1.398 1_554 S
C478 C479 1.391 . S
C479 H467 0.950 . S
C479 C475 1.393 1_554 S
C479 C478 1.391 . S
H480 C488 0.950 . S
H481 C493 0.950 . S
H482 C490 0.950 . S
H483 C492 0.950 . S
H484 C494 0.950 . S
H485 C496 0.950 . S
H486 C498 0.950 . S
H487 C499 0.950 . S
C488 H480 0.950 . S
C488 C489 1.386 . S
C488 C490 1.391 . S
C489 C488 1.386 . S
C489 C493 1.393 . S
C490 H482 0.950 . S
C490 C488 1.391 . S
C490 C491 1.400 . S
C491 C490 1.400 . S
C491 C492 1.398 . S
C491 C497 1.491 . S
C492 H483 0.950 . S
C492 C491 1.398 . S
C492 C493 1.391 . S
C493 H481 0.950 . S
C493 C489 1.393 . S
C493 C492 1.391 . S
C494 H484 0.950 . S
C494 C495 1.386 . S
C494 C496 1.391 . S
C495 C494 1.386 . S
C495 C499 1.393 . S
C496 H485 0.950 . S
C496 C494 1.391 . S
C496 C497 1.400 . S
C497 C491 1.491 . S
C497 C496 1.400 . S
C497 C498 1.398 . S
C498 H486 0.950 . S
C498 C497 1.398 . S
C498 C499 1.391 . S
C499 H487 0.950 . S
C499 C495 1.393 . S
C499 C498 1.391 . S
H500 C508 0.950 . S
H501 C513 0.950 . S
H502 C510 0.950 . S
H503 C512 0.950 . S
H504 C514 0.950 . S
H505 C516 0.950 . S
H506 C518 0.950 . S
H507 C519 0.950 . S
C508 H500 0.950 . S
C508 C509 1.386 . S
C508 C510 1.391 . S
C509 C508 1.386 . S
C509 C513 1.393 . S
C510 H502 0.950 . S
C510 C508 1.391 . S
C510 C511 1.400 . S
C511 C510 1.400 . S
C511 C512 1.398 . S
C511 C517 1.491 . S
C512 H503 0.950 . S
C512 C511 1.398 . S
C512 C513 1.391 . S
C513 H501 0.950 . S
C513 C509 1.393 . S
C513 C512 1.391 . S
C514 H504 0.950 . S
C514 C515 1.386 . S
C514 C516 1.391 . S
C515 C514 1.386 . S
C515 C519 1.393 . S
C516 H505 0.950 . S
C516 C514 1.391 . S
C516 C517 1.400 . S
C517 C511 1.491 . S
C517 C516 1.400 . S
C517 C518 1.398 . S
C518 H506 0.950 . S
C518 C517 1.398 . S
C518 C519 1.391 . S
C519 H507 0.950 . S
C519 C515 1.393 . S
C519 C518 1.391 . S
H520 C528 0.950 . S
H521 C533 0.950 . S
H522 C530 0.950 . S
H523 C532 0.950 . S
H524 C534 0.950 . S
H525 C536 0.950 . S
H526 C538 0.950 . S
H527 C539 0.950 . S
C528 H520 0.950 . S
C528 C529 1.386 . S
C528 C530 1.391 . S
C529 C528 1.386 . S
C529 C533 1.393 . S
C530 H522 0.950 . S
C530 C528 1.391 . S
C530 C531 1.400 . S
C531 C530 1.400 . S
C531 C532 1.398 . S
C531 C537 1.491 . S
C532 H523 0.950 . S
C532 C531 1.398 . S
C532 C533 1.391 . S
C533 H521 0.950 . S
C533 C529 1.393 . S
C533 C532 1.391 . S
C534 H524 0.950 . S
C534 C535 1.386 . S
C534 C536 1.391 . S
C535 C534 1.386 . S
C535 C539 1.393 . S
C536 H525 0.950 . S
C536 C534 1.391 . S
C536 C537 1.400 . S
C537 C531 1.491 . S
C537 C536 1.400 . S
C537 C538 1.398 . S
C538 H526 0.950 . S
C538 C537 1.398 . S
C538 C539 1.391 . S
C539 H527 0.950 . S
C539 C535 1.393 . S
C539 C538 1.391 . S
H540 C548 0.950 . S
H541 C553 0.950 . S
H542 C550 0.950 . S
H543 C552 0.950 . S
H544 C554 0.950 . S
H545 C556 0.950 . S
H546 C558 0.950 . S
H547 C559 0.950 . S
C548 H540 0.950 . S
C548 C549 1.386 . S
C548 C550 1.391 . S
C549 C548 1.386 . S
C549 C553 1.393 . S
C550 H542 0.950 . S
C550 C548 1.391 . S
C550 C551 1.400 . S
C551 C550 1.400 . S
C551 C552 1.398 . S
C551 C557 1.491 . S
C552 H543 0.950 . S
C552 C551 1.398 . S
C552 C553 1.391 . S
C553 H541 0.950 . S
C553 C549 1.393 . S
C553 C552 1.391 . S
C554 H544 0.950 . S
C554 C555 1.386 . S
C554 C556 1.391 . S
C555 C554 1.386 . S
C555 C559 1.393 . S
C556 H545 0.950 . S
C556 C554 1.391 . S
C556 C557 1.400 . S
C557 C551 1.491 . S
C557 C556 1.400 . S
C557 C558 1.398 . S
C558 H546 0.950 . S
C558 C557 1.398 . S
C558 C559 1.391 . S
C559 H547 0.950 . S
C559 C555 1.393 . S
C559 C558 1.391 . S
H560 C568 0.950 . S
H561 C573 0.950 . S
H562 C570 0.950 . S
H563 C572 0.950 . S
H564 C574 0.950 . S
H565 C576 0.950 . S
H566 C578 0.950 . S
H567 C579 0.950 . S
C568 H560 0.950 . S
C568 C569 1.386 . S
C568 C570 1.391 . S
C569 C568 1.386 . S
C569 C573 1.393 . S
C570 H562 0.950 . S
C570 C568 1.391 . S
C570 C571 1.400 . S
C571 C570 1.400 . S
C571 C572 1.398 . S
C571 C577 1.491 . S
C572 H563 0.950 . S
C572 C571 1.398 . S
C572 C573 1.391 . S
C573 H561 0.950 . S
C573 C569 1.393 . S
C573 C572 1.391 . S
C574 H564 0.950 . S
C574 C575 1.386 . S
C574 C576 1.391 . S
C575 C574 1.386 . S
C575 C579 1.393 . S
C576 H565 0.950 . S
C576 C574 1.391 . S
C576 C577 1.400 . S
C577 C571 1.491 . S
C577 C576 1.400 . S
C577 C578 1.398 . S
C578 H566 0.950 . S
C578 C577 1.398 . S
C578 C579 1.391 . S
C579 H567 0.950 . S
C579 C575 1.393 . S
C579 C578 1.391 . S
H580 C588 0.950 . S
H581 C593 0.950 . S
H582 C590 0.950 . S
H583 C592 0.950 . S
H584 C594 0.950 . S
H585 C596 0.950 . S
H586 C598 0.950 . S
H587 C599 0.950 . S
C588 H580 0.950 . S
C588 C589 1.386 . S
C588 C590 1.391 . S
C589 C588 1.386 . S
C589 C593 1.393 . S
C590 H582 0.950 . S
C590 C588 1.391 . S
C590 C591 1.400 . S
C591 C590 1.400 . S
C591 C592 1.398 . S
C591 C597 1.491 . S
C592 H583 0.950 . S
C592 C591 1.398 . S
C592 C593 1.391 . S
C593 H581 0.950 . S
C593 C589 1.393 . S
C593 C592 1.391 . S
C594 H584 0.950 . S
C594 C595 1.386 . S
C594 C596 1.391 . S
C595 C594 1.386 . S
C595 C599 1.393 . S
C596 H585 0.950 . S
C596 C594 1.391 . S
C596 C597 1.400 . S
C597 C591 1.491 . S
C597 C596 1.400 . S
C597 C598 1.398 . S
C598 H586 0.950 . S
C598 C597 1.398 . S
C598 C599 1.391 . S
C599 H587 0.950 . S
C599 C595 1.393 . S
C599 C598 1.391 . S
C249 C231 1.883 1_554 S
C255 C8 1.642 . S
C269 C31 1.893 . S
C275 C48 1.619 . S
C289 C71 1.893 . S
C295 C88 1.624 . S
C309 C128 1.621 . S
C315 C111 1.889 1_554 S
C329 C168 1.613 . S
C335 C151 1.893 1_554 S
C349 C191 1.884 1_554 S
C355 C208 1.639 . S
C369 C172 1.937 . S
C375 C29 1.919 . S
C389 C212 1.938 . S
C395 C69 1.914 . S
C409 C109 1.913 . S
C415 C12 1.934 1_556 S
C429 C149 1.911 . S
C435 C52 1.938 . S
C449 C189 1.919 . S
C455 C92 1.936 1_556 S
C469 C132 1.937 . S
C475 C229 1.919 . S
C489 C17 1.470 . S
C495 C2 1.470 . S
C509 C57 1.454 . S
C515 C42 1.454 . S
C529 C97 1.444 . S
C535 C82 1.444 . S
C549 C137 1.463 . S
C555 C122 1.463 . S
C569 C162 1.455 . S
C575 C177 1.455 . S
C589 C217 1.469 . S
C595 C202 1.469 . S
