# Generated by pormake.
# Topology wna, (6)-cn, num edge types: 1
# Building blocks:
#     Node 0, Type 0, BuildingBlock: BETGAK_clean_sbu_0, # of connection points: 6
#     Node 1, Type 0, BuildingBlock: BETGAK_clean_sbu_0, # of connection points: 6
#     Node 2, Type 0, BuildingBlock: BETGAK_clean_sbu_0, # of connection points: 6
#     Node 3, Type 0, BuildingBlock: BETGAK_clean_sbu_0, # of connection points: 6
#     Node 4, Type 0, BuildingBlock: BETGAK_clean_sbu_0, # of connection points: 6
#     Node 5, Type 0, BuildingBlock: BETGAK_clean_sbu_0, # of connection points: 6
#     Node 6, Type 0, BuildingBlock: BETGAK_clean_sbu_0, # of connection points: 6
#     Node 7, Type 0, BuildingBlock: BETGAK_clean_sbu_0, # of connection points: 6
#     Node 8, Type 0, BuildingBlock: BETGAK_clean_sbu_0, # of connection points: 6
#     Node 9, Type 0, BuildingBlock: BETGAK_clean_sbu_0, # of connection points: 6
#     Node 10, Type 0, BuildingBlock: BETGAK_clean_sbu_0, # of connection points: 6
#     Node 11, Type 0, BuildingBlock: BETGAK_clean_sbu_0, # of connection points: 6
#     Node 12, Type 0, BuildingBlock: BETGAK_clean_sbu_0, # of connection points: 6
#     Node 13, Type 0, BuildingBlock: BETGAK_clean_sbu_0, # of connection points: 6
#     Node 14, Type 0, BuildingBlock: BETGAK_clean_sbu_0, # of connection points: 6
#     Node 15, Type 0, BuildingBlock: BETGAK_clean_sbu_0, # of connection points: 6
#     Node 16, Type 0, BuildingBlock: BETGAK_clean_sbu_0, # of connection points: 6
#     Node 17, Type 0, BuildingBlock: BETGAK_clean_sbu_0, # of connection points: 6
#     Node 18, Type 0, BuildingBlock: BETGAK_clean_sbu_0, # of connection points: 6
#     Node 19, Type 0, BuildingBlock: BETGAK_clean_sbu_0, # of connection points: 6
#     Node 20, Type 0, BuildingBlock: BETGAK_clean_sbu_0, # of connection points: 6
#     Node 21, Type 0, BuildingBlock: BETGAK_clean_sbu_0, # of connection points: 6
#     Node 22, Type 0, BuildingBlock: BETGAK_clean_sbu_0, # of connection points: 6
#     Node 23, Type 0, BuildingBlock: BETGAK_clean_sbu_0, # of connection points: 6
#     Node 24, Type 0, BuildingBlock: BETGAK_clean_sbu_0, # of connection points: 6
#     Node 25, Type 0, BuildingBlock: BETGAK_clean_sbu_0, # of connection points: 6
#     Node 26, Type 0, BuildingBlock: BETGAK_clean_sbu_0, # of connection points: 6
#     Node 27, Type 0, BuildingBlock: BETGAK_clean_sbu_0, # of connection points: 6
#     Node 28, Type 0, BuildingBlock: BETGAK_clean_sbu_0, # of connection points: 6
#     Node 29, Type 0, BuildingBlock: BETGAK_clean_sbu_0, # of connection points: 6
#     Node 30, Type 0, BuildingBlock: BETGAK_clean_sbu_0, # of connection points: 6
#     Node 31, Type 0, BuildingBlock: BETGAK_clean_sbu_0, # of connection points: 6
#     Node 32, Type 0, BuildingBlock: BETGAK_clean_sbu_0, # of connection points: 6
#     Node 33, Type 0, BuildingBlock: BETGAK_clean_sbu_0, # of connection points: 6
#     Node 34, Type 0, BuildingBlock: BETGAK_clean_sbu_0, # of connection points: 6
#     Node 35, Type 0, BuildingBlock: BETGAK_clean_sbu_0, # of connection points: 6
#     Edge 36, Type (0, 0), BuildingBlock: KIFKEQ_clean_linker_1, # of connection points: 2
#     Edge 37, Type (0, 0), BuildingBlock: KIFKEQ_clean_linker_1, # of connection points: 2
#     Edge 38, Type (0, 0), BuildingBlock: KIFKEQ_clean_linker_1, # of connection points: 2
#     Edge 39, Type (0, 0), BuildingBlock: KIFKEQ_clean_linker_1, # of connection points: 2
#     Edge 40, Type (0, 0), BuildingBlock: KIFKEQ_clean_linker_1, # of connection points: 2
#     Edge 41, Type (0, 0), BuildingBlock: KIFKEQ_clean_linker_1, # of connection points: 2
#     Edge 42, Type (0, 0), BuildingBlock: KIFKEQ_clean_linker_1, # of connection points: 2
#     Edge 43, Type (0, 0), BuildingBlock: KIFKEQ_clean_linker_1, # of connection points: 2
#     Edge 44, Type (0, 0), BuildingBlock: KIFKEQ_clean_linker_1, # of connection points: 2
#     Edge 45, Type (0, 0), BuildingBlock: KIFKEQ_clean_linker_1, # of connection points: 2
#     Edge 46, Type (0, 0), BuildingBlock: KIFKEQ_clean_linker_1, # of connection points: 2
#     Edge 47, Type (0, 0), BuildingBlock: KIFKEQ_clean_linker_1, # of connection points: 2
#     Edge 48, Type (0, 0), BuildingBlock: KIFKEQ_clean_linker_1, # of connection points: 2
#     Edge 49, Type (0, 0), BuildingBlock: KIFKEQ_clean_linker_1, # of connection points: 2
#     Edge 50, Type (0, 0), BuildingBlock: KIFKEQ_clean_linker_1, # of connection points: 2
#     Edge 51, Type (0, 0), BuildingBlock: KIFKEQ_clean_linker_1, # of connection points: 2
#     Edge 52, Type (0, 0), BuildingBlock: KIFKEQ_clean_linker_1, # of connection points: 2
#     Edge 53, Type (0, 0), BuildingBlock: KIFKEQ_clean_linker_1, # of connection points: 2
#     Edge 54, Type (0, 0), BuildingBlock: KIFKEQ_clean_linker_1, # of connection points: 2
#     Edge 55, Type (0, 0), BuildingBlock: KIFKEQ_clean_linker_1, # of connection points: 2
#     Edge 56, Type (0, 0), BuildingBlock: KIFKEQ_clean_linker_1, # of connection points: 2
#     Edge 57, Type (0, 0), BuildingBlock: KIFKEQ_clean_linker_1, # of connection points: 2
#     Edge 58, Type (0, 0), BuildingBlock: KIFKEQ_clean_linker_1, # of connection points: 2
#     Edge 59, Type (0, 0), BuildingBlock: KIFKEQ_clean_linker_1, # of connection points: 2
#     Edge 60, Type (0, 0), BuildingBlock: KIFKEQ_clean_linker_1, # of connection points: 2
#     Edge 61, Type (0, 0), BuildingBlock: KIFKEQ_clean_linker_1, # of connection points: 2
#     Edge 62, Type (0, 0), BuildingBlock: KIFKEQ_clean_linker_1, # of connection points: 2
#     Edge 63, Type (0, 0), BuildingBlock: KIFKEQ_clean_linker_1, # of connection points: 2
#     Edge 64, Type (0, 0), BuildingBlock: KIFKEQ_clean_linker_1, # of connection points: 2
#     Edge 65, Type (0, 0), BuildingBlock: KIFKEQ_clean_linker_1, # of connection points: 2
#     Edge 66, Type (0, 0), BuildingBlock: KIFKEQ_clean_linker_1, # of connection points: 2
#     Edge 67, Type (0, 0), BuildingBlock: KIFKEQ_clean_linker_1, # of connection points: 2
#     Edge 68, Type (0, 0), BuildingBlock: KIFKEQ_clean_linker_1, # of connection points: 2
#     Edge 69, Type (0, 0), BuildingBlock: KIFKEQ_clean_linker_1, # of connection points: 2
#     Edge 70, Type (0, 0), BuildingBlock: KIFKEQ_clean_linker_1, # of connection points: 2
#     Edge 71, Type (0, 0), BuildingBlock: KIFKEQ_clean_linker_1, # of connection points: 2
#     Edge 72, Type (0, 0), BuildingBlock: KIFKEQ_clean_linker_1, # of connection points: 2
#     Edge 73, Type (0, 0), BuildingBlock: KIFKEQ_clean_linker_1, # of connection points: 2
#     Edge 74, Type (0, 0), BuildingBlock: KIFKEQ_clean_linker_1, # of connection points: 2
#     Edge 75, Type (0, 0), BuildingBlock: KIFKEQ_clean_linker_1, # of connection points: 2
#     Edge 76, Type (0, 0), BuildingBlock: KIFKEQ_clean_linker_1, # of connection points: 2
#     Edge 77, Type (0, 0), BuildingBlock: KIFKEQ_clean_linker_1, # of connection points: 2
#     Edge 78, Type (0, 0), BuildingBlock: KIFKEQ_clean_linker_1, # of connection points: 2
#     Edge 79, Type (0, 0), BuildingBlock: KIFKEQ_clean_linker_1, # of connection points: 2
#     Edge 80, Type (0, 0), BuildingBlock: KIFKEQ_clean_linker_1, # of connection points: 2
#     Edge 81, Type (0, 0), BuildingBlock: KIFKEQ_clean_linker_1, # of connection points: 2
#     Edge 82, Type (0, 0), BuildingBlock: KIFKEQ_clean_linker_1, # of connection points: 2
#     Edge 83, Type (0, 0), BuildingBlock: KIFKEQ_clean_linker_1, # of connection points: 2
#     Edge 84, Type (0, 0), BuildingBlock: KIFKEQ_clean_linker_1, # of connection points: 2
#     Edge 85, Type (0, 0), BuildingBlock: KIFKEQ_clean_linker_1, # of connection points: 2
#     Edge 86, Type (0, 0), BuildingBlock: KIFKEQ_clean_linker_1, # of connection points: 2
#     Edge 87, Type (0, 0), BuildingBlock: KIFKEQ_clean_linker_1, # of connection points: 2
#     Edge 88, Type (0, 0), BuildingBlock: KIFKEQ_clean_linker_1, # of connection points: 2
#     Edge 89, Type (0, 0), BuildingBlock: KIFKEQ_clean_linker_1, # of connection points: 2
#     Edge 90, Type (0, 0), BuildingBlock: KIFKEQ_clean_linker_1, # of connection points: 2
#     Edge 91, Type (0, 0), BuildingBlock: KIFKEQ_clean_linker_1, # of connection points: 2
#     Edge 92, Type (0, 0), BuildingBlock: KIFKEQ_clean_linker_1, # of connection points: 2
#     Edge 93, Type (0, 0), BuildingBlock: KIFKEQ_clean_linker_1, # of connection points: 2
#     Edge 94, Type (0, 0), BuildingBlock: KIFKEQ_clean_linker_1, # of connection points: 2
#     Edge 95, Type (0, 0), BuildingBlock: KIFKEQ_clean_linker_1, # of connection points: 2
#     Edge 96, Type (0, 0), BuildingBlock: KIFKEQ_clean_linker_1, # of connection points: 2
#     Edge 97, Type (0, 0), BuildingBlock: KIFKEQ_clean_linker_1, # of connection points: 2
#     Edge 98, Type (0, 0), BuildingBlock: KIFKEQ_clean_linker_1, # of connection points: 2
#     Edge 99, Type (0, 0), BuildingBlock: KIFKEQ_clean_linker_1, # of connection points: 2
#     Edge 100, Type (0, 0), BuildingBlock: KIFKEQ_clean_linker_1, # of connection points: 2
#     Edge 101, Type (0, 0), BuildingBlock: KIFKEQ_clean_linker_1, # of connection points: 2
#     Edge 102, Type (0, 0), BuildingBlock: KIFKEQ_clean_linker_1, # of connection points: 2
#     Edge 103, Type (0, 0), BuildingBlock: KIFKEQ_clean_linker_1, # of connection points: 2
#     Edge 104, Type (0, 0), BuildingBlock: KIFKEQ_clean_linker_1, # of connection points: 2
#     Edge 105, Type (0, 0), BuildingBlock: KIFKEQ_clean_linker_1, # of connection points: 2
#     Edge 106, Type (0, 0), BuildingBlock: KIFKEQ_clean_linker_1, # of connection points: 2
#     Edge 107, Type (0, 0), BuildingBlock: KIFKEQ_clean_linker_1, # of connection points: 2
#     Edge 108, Type (0, 0), BuildingBlock: KIFKEQ_clean_linker_1, # of connection points: 2
#     Edge 109, Type (0, 0), BuildingBlock: KIFKEQ_clean_linker_1, # of connection points: 2
#     Edge 110, Type (0, 0), BuildingBlock: KIFKEQ_clean_linker_1, # of connection points: 2
#     Edge 111, Type (0, 0), BuildingBlock: KIFKEQ_clean_linker_1, # of connection points: 2
#     Edge 112, Type (0, 0), BuildingBlock: KIFKEQ_clean_linker_1, # of connection points: 2
#     Edge 113, Type (0, 0), BuildingBlock: KIFKEQ_clean_linker_1, # of connection points: 2
#     Edge 114, Type (0, 0), BuildingBlock: KIFKEQ_clean_linker_1, # of connection points: 2
#     Edge 115, Type (0, 0), BuildingBlock: KIFKEQ_clean_linker_1, # of connection points: 2
#     Edge 116, Type (0, 0), BuildingBlock: KIFKEQ_clean_linker_1, # of connection points: 2
#     Edge 117, Type (0, 0), BuildingBlock: KIFKEQ_clean_linker_1, # of connection points: 2
#     Edge 118, Type (0, 0), BuildingBlock: KIFKEQ_clean_linker_1, # of connection points: 2
#     Edge 119, Type (0, 0), BuildingBlock: KIFKEQ_clean_linker_1, # of connection points: 2
#     Edge 120, Type (0, 0), BuildingBlock: KIFKEQ_clean_linker_1, # of connection points: 2
#     Edge 121, Type (0, 0), BuildingBlock: KIFKEQ_clean_linker_1, # of connection points: 2
#     Edge 122, Type (0, 0), BuildingBlock: KIFKEQ_clean_linker_1, # of connection points: 2
#     Edge 123, Type (0, 0), BuildingBlock: KIFKEQ_clean_linker_1, # of connection points: 2
#     Edge 124, Type (0, 0), BuildingBlock: KIFKEQ_clean_linker_1, # of connection points: 2
#     Edge 125, Type (0, 0), BuildingBlock: KIFKEQ_clean_linker_1, # of connection points: 2
#     Edge 126, Type (0, 0), BuildingBlock: KIFKEQ_clean_linker_1, # of connection points: 2
#     Edge 127, Type (0, 0), BuildingBlock: KIFKEQ_clean_linker_1, # of connection points: 2
#     Edge 128, Type (0, 0), BuildingBlock: KIFKEQ_clean_linker_1, # of connection points: 2
#     Edge 129, Type (0, 0), BuildingBlock: KIFKEQ_clean_linker_1, # of connection points: 2
#     Edge 130, Type (0, 0), BuildingBlock: KIFKEQ_clean_linker_1, # of connection points: 2
#     Edge 131, Type (0, 0), BuildingBlock: KIFKEQ_clean_linker_1, # of connection points: 2
#     Edge 132, Type (0, 0), BuildingBlock: KIFKEQ_clean_linker_1, # of connection points: 2
#     Edge 133, Type (0, 0), BuildingBlock: KIFKEQ_clean_linker_1, # of connection points: 2
#     Edge 134, Type (0, 0), BuildingBlock: KIFKEQ_clean_linker_1, # of connection points: 2
#     Edge 135, Type (0, 0), BuildingBlock: KIFKEQ_clean_linker_1, # of connection points: 2
#     Edge 136, Type (0, 0), BuildingBlock: KIFKEQ_clean_linker_1, # of connection points: 2
#     Edge 137, Type (0, 0), BuildingBlock: KIFKEQ_clean_linker_1, # of connection points: 2
#     Edge 138, Type (0, 0), BuildingBlock: KIFKEQ_clean_linker_1, # of connection points: 2
#     Edge 139, Type (0, 0), BuildingBlock: KIFKEQ_clean_linker_1, # of connection points: 2
#     Edge 140, Type (0, 0), BuildingBlock: KIFKEQ_clean_linker_1, # of connection points: 2
#     Edge 141, Type (0, 0), BuildingBlock: KIFKEQ_clean_linker_1, # of connection points: 2
#     Edge 142, Type (0, 0), BuildingBlock: KIFKEQ_clean_linker_1, # of connection points: 2
#     Edge 143, Type (0, 0), BuildingBlock: KIFKEQ_clean_linker_1, # of connection points: 2
# Relax obj value: 0.155
# Max RMSD: 0.223
# Mean RMSD: 0.207
data_MOF--net-wna--node1-BETGAK_clean_sbu_0--edge1-KIFKEQ_clean_linker_1
_symmetry_space_group_name_H-M    P1
_symmetry_Int_Tables_number       1
_symmetry_cell_setting            triclinic
loop_
_symmetry_equiv_pos_as_xyz
'x, y, z'
_cell_length_a     41.549279
_cell_length_b     41.51457
_cell_length_c     152.57137
_cell_angle_alpha  90.088032
_cell_angle_beta   89.994036
_cell_angle_gamma 120.01168
loop_
_atom_site_label
_atom_site_type_symbol
_atom_site_fract_x
_atom_site_fract_y
_atom_site_fract_z
_atom_type_partial_charge
La0 La 0.12656 0.259 0.18063 0.0
La1 La 0.13329 0.2554 0.1999 0.0
C2 C 0.12287 0.27974 0.16519 0.0
C3 C 0.14082 0.29514 0.15655 0.0
C4 C 0.14998 0.27455 0.15073 0.0
C5 C 0.15958 0.28583 0.14198 0.0
C6 C 0.16005 0.31788 0.13876 0.0
C7 C 0.15254 0.33931 0.14471 0.0
C8 C 0.14297 0.32804 0.15345 0.0
C9 C 0.13672 0.20373 0.18553 0.0
C10 C 0.20788 0.30299 0.18946 0.0
C11 C 0.1318 0.23886 0.21602 0.0
C12 C 0.10987 0.23149 0.22431 0.0
C13 C 0.11435 0.26085 0.22977 0.0
C14 C 0.09752 0.25378 0.23808 0.0
C15 C 0.07588 0.21712 0.24122 0.0
C16 C 0.07075 0.18776 0.23566 0.0
C17 C 0.08756 0.19484 0.22735 0.0
C18 C 0.11592 0.3063 0.19437 0.0
C19 C 0.05614 0.19991 0.19072 0.0
O20 O 0.11551 0.24621 0.16729 0.0
O21 O 0.13195 0.30163 0.17206 0.0
O22 O 0.11884 0.20396 0.17861 0.0
O23 O 0.15193 0.23572 0.18906 0.0
O24 O 0.18664 0.2998 0.18261 0.0
O25 O 0.19268 0.28355 0.19669 0.0
O26 O 0.14895 0.27277 0.21295 0.0
O27 O 0.11798 0.21432 0.2097 0.0
O28 O 0.13692 0.31015 0.20098 0.0
O29 O 0.10401 0.27399 0.19143 0.0
O30 O 0.07816 0.20674 0.19757 0.0
O31 O 0.06781 0.2218 0.18375 0.0
H32 H 0.14819 0.24879 0.15283 0.0
H33 H 0.16486 0.26835 0.13763 0.0
H34 H 0.15324 0.3645 0.14256 0.0
H35 H 0.13567 0.34431 0.1577 0.0
H36 H 0.13179 0.28948 0.22775 0.0
H37 H 0.10265 0.27724 0.24216 0.0
H38 H 0.05391 0.15914 0.23774 0.0
H39 H 0.08382 0.17152 0.2234 0.0
La40 La 0.77943 0.8743 0.18081 0.0
La41 La 0.78528 0.88534 0.20014 0.0
C42 C 0.75702 0.84904 0.16548 0.0
C43 C 0.74206 0.85214 0.15681 0.0
C44 C 0.76362 0.88131 0.15096 0.0
C45 C 0.7525 0.87984 0.14219 0.0
C46 C 0.7196 0.84907 0.13901 0.0
C47 C 0.69725 0.8208 0.145 0.0
C48 C 0.70839 0.82228 0.15375 0.0
C49 C 0.8346 0.94042 0.18545 0.0
C50 C 0.73602 0.91141 0.18999 0.0
C51 C 0.80386 0.9019 0.21613 0.0
C52 C 0.81135 0.88784 0.22446 0.0
C53 C 0.78277 0.85818 0.22918 0.0
C54 C 0.78946 0.84858 0.23755 0.0
C55 C 0.8249 0.86838 0.24147 0.0
C56 C 0.85363 0.89744 0.23663 0.0
C57 C 0.84691 0.90706 0.22828 0.0
C58 C 0.73415 0.81646 0.1949 0.0
C59 C 0.84012 0.86417 0.19049 0.0
O60 O 0.7912 0.87393 0.16747 0.0
O61 O 0.73538 0.83793 0.17239 0.0
O62 O 0.83351 0.92251 0.17841 0.0
O63 O 0.80321 0.92315 0.18922 0.0
O64 O 0.73872 0.89337 0.18306 0.0
O65 O 0.75615 0.9159 0.19711 0.0
O66 O 0.76969 0.88587 0.21323 0.0
O67 O 0.82765 0.91094 0.20969 0.0
O68 O 0.73168 0.83351 0.20172 0.0
O69 O 0.76578 0.83715 0.19164 0.0
O70 O 0.83381 0.87924 0.19744 0.0
O71 O 0.81761 0.85366 0.18362 0.0
H72 H 0.78998 0.90458 0.15302 0.0
H73 H 0.7707 0.90206 0.13782 0.0
H74 H 0.67141 0.79697 0.14288 0.0
H75 H 0.69134 0.79915 0.15804 0.0
H76 H 0.75493 0.84282 0.2265 0.0
H77 H 0.76669 0.82569 0.24097 0.0
H78 H 0.88116 0.91376 0.23942 0.0
H79 H 0.8694 0.93041 0.2249 0.0
La80 La 0.16436 0.91194 0.18076 0.0
La81 La 0.15478 0.90635 0.20017 0.0
C82 C 0.18883 0.91566 0.16531 0.0
C83 C 0.18601 0.89813 0.15658 0.0
C84 C 0.1571 0.89098 0.15067 0.0
C85 C 0.1588 0.88173 0.14188 0.0
C86 C 0.18955 0.87959 0.13871 0.0
C87 C 0.21761 0.88516 0.14473 0.0
C88 C 0.2159 0.89439 0.15352 0.0
C89 C 0.09847 0.90004 0.18593 0.0
C90 C 0.12838 0.83152 0.18984 0.0
C91 C 0.13927 0.90738 0.21625 0.0
C92 C 0.15354 0.92885 0.22458 0.0
C93 C 0.17813 0.92401 0.23004 0.0
C94 C 0.18746 0.94031 0.23841 0.0
C95 C 0.17227 0.96173 0.2416 0.0
C96 C 0.14839 0.96728 0.23604 0.0
C97 C 0.13909 0.95099 0.22768 0.0
C98 C 0.22295 0.92408 0.19454 0.0
C99 C 0.17491 0.98254 0.19079 0.0
O100 O 0.16341 0.92402 0.16745 0.0
O101 O 0.20081 0.90547 0.17213 0.0
O102 O 0.11434 0.91562 0.17862 0.0
O103 O 0.11678 0.88659 0.18939 0.0
O104 O 0.14734 0.85246 0.18303 0.0
O105 O 0.12293 0.84702 0.19687 0.0
O106 O 0.15591 0.89009 0.21316 0.0
O107 O 0.12911 0.92177 0.20995 0.0
O108 O 0.20614 0.90348 0.20123 0.0
O109 O 0.20222 0.93548 0.19153 0.0
O110 O 0.16044 0.96101 0.19773 0.0
O111 O 0.1849 0.97066 0.18379 0.0
H112 H 0.13385 0.89408 0.15273 0.0
H113 H 0.13676 0.87801 0.13747 0.0
H114 H 0.24143 0.88314 0.14263 0.0
H115 H 0.23886 0.90016 0.15784 0.0
H116 H 0.18938 0.90666 0.22797 0.0
H117 H 0.20554 0.93493 0.2425 0.0
H118 H 0.13653 0.98399 0.23818 0.0
H119 H 0.11972 0.95497 0.22372 0.0
La120 La 0.26648 0.12315 0.36439 0.0
La121 La 0.26108 0.12482 0.34519 0.0
C122 C 0.2864 0.12808 0.3802 0.0
C123 C 0.29673 0.13122 0.38966 0.0
C124 C 0.27544 0.13692 0.39598 0.0
C125 C 0.2854 0.14131 0.40486 0.0
C126 C 0.31712 0.14032 0.40772 0.0
C127 C 0.33821 0.13413 0.40139 0.0
C128 C 0.32813 0.12962 0.39247 0.0
C129 C 0.2097 0.12993 0.35901 0.0
C130 C 0.31054 0.20113 0.35444 0.0
C131 C 0.24225 0.12012 0.32918 0.0
C132 C 0.23484 0.09759 0.32102 0.0
C133 C 0.26337 0.09556 0.31652 0.0
C134 C 0.25683 0.07854 0.30824 0.0
C135 C 0.22164 0.06313 0.30421 0.0
C136 C 0.19292 0.06429 0.30886 0.0
C137 C 0.19948 0.08135 0.31712 0.0
C138 C 0.31376 0.11013 0.35081 0.0
C139 C 0.207 0.04949 0.35546 0.0
O140 O 0.25997 0.13395 0.3775 0.0
O141 O 0.30197 0.11909 0.3739 0.0
O142 O 0.20981 0.11147 0.36582 0.0
O143 O 0.24184 0.14591 0.35557 0.0
O144 O 0.3101 0.18088 0.3612 0.0
O145 O 0.28823 0.18472 0.3477 0.0
O146 O 0.27647 0.13894 0.33202 0.0
O147 O 0.21854 0.10596 0.33564 0.0
O148 O 0.31574 0.12896 0.34391 0.0
O149 O 0.28193 0.09855 0.35405 0.0
O150 O 0.21426 0.06924 0.34817 0.0
O151 O 0.22771 0.06366 0.36259 0.0
H152 H 0.25093 0.1381 0.39408 0.0
H153 H 0.26791 0.1452 0.40951 0.0
H154 H 0.36301 0.13351 0.40328 0.0
H155 H 0.34522 0.12541 0.38777 0.0
H156 H 0.29104 0.10791 0.31929 0.0
H157 H 0.27954 0.07776 0.30496 0.0
H158 H 0.16558 0.05324 0.30597 0.0
H159 H 0.17707 0.08293 0.32035 0.0
La160 La 0.91808 0.15701 0.36421 0.0
La161 La 0.91184 0.14789 0.34475 0.0
C162 C 0.9219 0.18094 0.37974 0.0
C163 C 0.90447 0.17657 0.38857 0.0
C164 C 0.90752 0.15391 0.395 0.0
C165 C 0.89785 0.15517 0.40376 0.0
C166 C 0.88495 0.17926 0.40642 0.0
C167 C 0.88058 0.20089 0.39991 0.0
C168 C 0.89036 0.19969 0.39114 0.0
C169 C 0.90565 0.09111 0.35886 0.0
C170 C 0.83724 0.12177 0.35521 0.0
C171 C 0.91322 0.13283 0.32862 0.0
C172 C 0.93567 0.14667 0.3204 0.0
C173 C 0.93832 0.17711 0.31571 0.0
C174 C 0.95537 0.18667 0.30743 0.0
C175 C 0.9702 0.16603 0.30355 0.0
C176 C 0.9683 0.13616 0.30836 0.0
C177 C 0.95121 0.12659 0.31664 0.0
C178 C 0.92959 0.21585 0.35055 0.0
C179 C 0.98834 0.16802 0.35405 0.0
O180 O 0.93206 0.15701 0.37742 0.0
O181 O 0.9101 0.19195 0.37303 0.0
O182 O 0.92156 0.10684 0.36617 0.0
O183 O 0.89223 0.10962 0.35548 0.0
O184 O 0.85841 0.13915 0.36214 0.0
O185 O 0.85236 0.11753 0.34795 0.0
O186 O 0.89744 0.15098 0.33168 0.0
O187 O 0.92577 0.12087 0.33495 0.0
O188 O 0.90903 0.19929 0.34383 0.0
O189 O 0.94111 0.19508 0.35348 0.0
O190 O 0.96663 0.1537 0.34711 0.0
O191 O 0.97666 0.1779 0.3611 0.0
H192 H 0.91895 0.13626 0.39336 0.0
H193 H 0.9022 0.13841 0.40853 0.0
H194 H 0.87017 0.21935 0.4016 0.0
H195 H 0.88816 0.21796 0.38642 0.0
H196 H 0.92648 0.19315 0.31834 0.0
H197 H 0.95669 0.21018 0.30403 0.0
H198 H 0.97886 0.11921 0.30561 0.0
H199 H 0.94914 0.10263 0.31998 0.0
La200 La 0.88098 0.77296 0.36495 0.0
La201 La 0.89246 0.77871 0.34571 0.0
C202 C 0.85627 0.751 0.38034 0.0
C203 C 0.8607 0.73745 0.3891 0.0
C204 C 0.88456 0.76263 0.39549 0.0
C205 C 0.88346 0.75147 0.40422 0.0
C206 C 0.85838 0.71476 0.40689 0.0
C207 C 0.83554 0.68923 0.40041 0.0
C208 C 0.83657 0.70046 0.39167 0.0
C209 C 0.94706 0.82862 0.36045 0.0
C210 C 0.91928 0.73058 0.35583 0.0
C211 C 0.90836 0.79659 0.32968 0.0
C212 C 0.89411 0.80382 0.32132 0.0
C213 C 0.86854 0.77445 0.31596 0.0
C214 C 0.85924 0.7814 0.30759 0.0
C215 C 0.87539 0.81792 0.30427 0.0
C216 C 0.90027 0.84731 0.30974 0.0
C217 C 0.90954 0.84035 0.31811 0.0
C218 C 0.82382 0.72703 0.35092 0.0
C219 C 0.87012 0.83295 0.35514 0.0
O220 O 0.87983 0.7854 0.37821 0.0
O221 O 0.84597 0.72886 0.3735 0.0
O222 O 0.92882 0.82734 0.36743 0.0
O223 O 0.93017 0.7972 0.35668 0.0
O224 O 0.8995 0.73166 0.36258 0.0
O225 O 0.92499 0.75196 0.3489 0.0
O226 O 0.89245 0.7625 0.33262 0.0
O227 O 0.91762 0.82064 0.33608 0.0
O228 O 0.84153 0.72395 0.34433 0.0
O229 O 0.84398 0.75901 0.35407 0.0
O230 O 0.88585 0.82697 0.34828 0.0
O231 O 0.85943 0.81034 0.36199 0.0
H232 H 0.90308 0.79154 0.39385 0.0
H233 H 0.9012 0.77225 0.40896 0.0
H234 H 0.81628 0.66056 0.40211 0.0
H235 H 0.81739 0.68042 0.38698 0.0
H236 H 0.85645 0.74588 0.31812 0.0
H237 H 0.84034 0.75791 0.30359 0.0
H238 H 0.91292 0.87585 0.30753 0.0
H239 H 0.92964 0.86364 0.32199 0.0
La240 La 0.91279 0.77489 0.84524 0.0
La241 La 0.91899 0.77278 0.86471 0.0
C242 C 0.91418 0.79104 0.82911 0.0
C243 C 0.93666 0.79952 0.82091 0.0
C244 C 0.93994 0.7718 0.81634 0.0
C245 C 0.95698 0.77908 0.80805 0.0
C246 C 0.97117 0.81425 0.80408 0.0
C247 C 0.96868 0.84218 0.80878 0.0
C248 C 0.95159 0.83487 0.81704 0.0
C249 C 0.93089 0.72516 0.85109 0.0
C250 C 0.98929 0.83217 0.85459 0.0
C251 C 0.92299 0.75277 0.8802 0.0
C252 C 0.90538 0.73682 0.88883 0.0
C253 C 0.88716 0.75152 0.8938 0.0
C254 C 0.87684 0.74045 0.90255 0.0
C255 C 0.88466 0.71455 0.90659 0.0
C256 C 0.90174 0.69901 0.90146 0.0
C257 C 0.91191 0.71 0.89273 0.0
C258 C 0.90721 0.82628 0.85912 0.0
C259 C 0.83801 0.72698 0.85572 0.0
O260 O 0.89845 0.75715 0.83218 0.0
O261 O 0.92669 0.8157 0.83543 0.0
O262 O 0.91032 0.72087 0.84436 0.0
O263 O 0.94219 0.75747 0.85403 0.0
O264 O 0.96777 0.82403 0.84758 0.0
O265 O 0.97749 0.81127 0.86172 0.0
O266 O 0.92872 0.78576 0.87809 0.0
O267 O 0.91496 0.73092 0.87335 0.0
O268 O 0.9237 0.82717 0.8664 0.0
O269 O 0.89329 0.79394 0.85591 0.0
O270 O 0.85915 0.73144 0.8627 0.0
O271 O 0.85316 0.74542 0.84837 0.0
H272 H 0.9286 0.74414 0.81905 0.0
H273 H 0.9588 0.75697 0.80474 0.0
H274 H 0.97875 0.86945 0.80594 0.0
H275 H 0.94903 0.85668 0.82031 0.0
H276 H 0.88189 0.77244 0.89102 0.0
H277 H 0.86318 0.75265 0.90617 0.0
H278 H 0.90884 0.67947 0.90429 0.0
H279 H 0.92647 0.69864 0.88914 0.0
La280 La 0.26189 0.14725 0.84542 0.0
La281 La 0.26654 0.15762 0.86468 0.0
C282 C 0.24446 0.13163 0.82936 0.0
C283 C 0.23727 0.14608 0.82105 0.0
C284 C 0.26666 0.17224 0.81581 0.0
C285 C 0.25984 0.18183 0.80746 0.0
C286 C 0.22346 0.1654 0.80406 0.0
C287 C 0.19403 0.13995 0.80941 0.0
C288 C 0.20086 0.13038 0.81775 0.0
C289 C 0.31282 0.21584 0.85084 0.0
C290 C 0.20682 0.16874 0.8548 0.0
C291 C 0.2878 0.18237 0.88009 0.0
C292 C 0.30395 0.18065 0.88868 0.0
C293 C 0.28991 0.14745 0.8935 0.0
C294 C 0.30089 0.14798 0.90226 0.0
C295 C 0.32601 0.18173 0.90644 0.0
C296 C 0.34097 0.21464 0.90144 0.0
C297 C 0.33009 0.21406 0.89271 0.0
C298 C 0.21097 0.09205 0.85981 0.0
C299 C 0.31 0.12027 0.85562 0.0
O300 O 0.27846 0.14779 0.83236 0.0
O301 O 0.22025 0.1219 0.83571 0.0
O302 O 0.3162 0.19865 0.84417 0.0
O303 O 0.28087 0.19528 0.85394 0.0
O304 O 0.21335 0.15359 0.8479 0.0
O305 O 0.22895 0.1789 0.86175 0.0
O306 O 0.25458 0.15533 0.87808 0.0
O307 O 0.30925 0.19558 0.87318 0.0
O308 O 0.21154 0.11024 0.86676 0.0
O309 O 0.24283 0.10889 0.85624 0.0
O310 O 0.30737 0.1385 0.86251 0.0
O311 O 0.29003 0.11591 0.84848 0.0
H312 H 0.29516 0.18457 0.81804 0.0
H313 H 0.28336 0.20116 0.80355 0.0
H314 H 0.16558 0.12707 0.80712 0.0
H315 H 0.17758 0.10984 0.82155 0.0
H316 H 0.26953 0.12122 0.89062 0.0
H317 H 0.28917 0.12192 0.90578 0.0
H318 H 0.35992 0.24129 0.90438 0.0
H319 H 0.34091 0.24015 0.88922 0.0
La320 La 0.89242 0.12487 0.84563 0.0
La321 La 0.88183 0.11934 0.86496 0.0
C322 C 0.90806 0.12276 0.82957 0.0
C323 C 0.89391 0.10088 0.82125 0.0
C324 C 0.86794 0.10399 0.8159 0.0
C325 C 0.85869 0.08748 0.80754 0.0
C326 C 0.8753 0.06753 0.80422 0.0
C327 C 0.90057 0.06369 0.80967 0.0
C328 C 0.9098 0.08018 0.81803 0.0
C329 C 0.82417 0.10776 0.85101 0.0
C330 C 0.87104 0.04842 0.85511 0.0
C331 C 0.85697 0.11598 0.88034 0.0
C332 C 0.85826 0.13374 0.88894 0.0
C333 C 0.89128 0.15321 0.89383 0.0
C334 C 0.89043 0.16349 0.90258 0.0
C335 C 0.85651 0.15438 0.90672 0.0
C336 C 0.82375 0.13611 0.90167 0.0
C337 C 0.82466 0.12598 0.89293 0.0
C338 C 0.94739 0.12953 0.86012 0.0
C339 C 0.91911 0.20004 0.85584 0.0
O340 O 0.89149 0.14028 0.83253 0.0
O341 O 0.91816 0.10876 0.83597 0.0
O342 O 0.84135 0.12819 0.84433 0.0
O343 O 0.8445 0.09614 0.85413 0.0
O344 O 0.88561 0.06983 0.84815 0.0
O345 O 0.86128 0.06049 0.86211 0.0
O346 O 0.88433 0.11026 0.87838 0.0
O347 O 0.84354 0.12377 0.8734 0.0
O348 O 0.92936 0.11206 0.86709 0.0
O349 O 0.9304 0.14429 0.85653 0.0
O350 O 0.90089 0.17926 0.86274 0.0
O351 O 0.92363 0.18439 0.84872 0.0
H352 H 0.85549 0.12016 0.81806 0.0
H353 H 0.83949 0.09159 0.80356 0.0
H354 H 0.91359 0.04813 0.80746 0.0
H355 H 0.93022 0.07753 0.8219 0.0
H356 H 0.91766 0.15945 0.89098 0.0
H357 H 0.91639 0.17809 0.90615 0.0
H358 H 0.79698 0.12802 0.90456 0.0
H359 H 0.79869 0.11045 0.88939 0.0
La360 La 0.78648 0.90849 0.70002 0.0
La361 La 0.7807 0.91358 0.68073 0.0
C362 C 0.80444 0.91078 0.71606 0.0
C363 C 0.81176 0.93244 0.7244 0.0
C364 C 0.78297 0.93302 0.72915 0.0
C365 C 0.78956 0.94942 0.73752 0.0
C366 C 0.82509 0.96565 0.74142 0.0
C367 C 0.854 0.96579 0.73654 0.0
C368 C 0.84738 0.94936 0.72819 0.0
C369 C 0.73511 0.92554 0.69471 0.0
C370 C 0.84101 0.98471 0.69045 0.0
C371 C 0.75891 0.91636 0.66534 0.0
C372 C 0.7433 0.89821 0.65671 0.0
C373 C 0.76367 0.88873 0.65091 0.0
C374 C 0.75235 0.87907 0.64215 0.0
C375 C 0.72045 0.87882 0.63891 0.0
C376 C 0.69921 0.88662 0.64484 0.0
C377 C 0.71054 0.89627 0.65359 0.0
C378 C 0.83631 0.90339 0.68543 0.0
C379 C 0.73797 0.83322 0.68991 0.0
O380 O 0.77035 0.89263 0.71311 0.0
O381 O 0.82846 0.92541 0.70967 0.0
O382 O 0.73198 0.90506 0.70137 0.0
O383 O 0.76698 0.93711 0.69155 0.0
O384 O 0.83478 0.96336 0.69739 0.0
O385 O 0.81857 0.97253 0.68356 0.0
O386 O 0.79259 0.92405 0.66735 0.0
O387 O 0.73739 0.90733 0.67226 0.0
O388 O 0.83529 0.92038 0.67843 0.0
O389 O 0.80474 0.88883 0.68911 0.0
O390 O 0.73917 0.85395 0.68313 0.0
O391 O 0.75936 0.84901 0.69685 0.0
H392 H 0.75507 0.92008 0.7265 0.0
H393 H 0.76664 0.94915 0.74096 0.0
H394 H 0.88161 0.97745 0.7393 0.0
H395 H 0.87005 0.9489 0.72479 0.0
H396 H 0.78934 0.89035 0.65302 0.0
H397 H 0.76971 0.87359 0.63782 0.0
H398 H 0.67412 0.88608 0.64269 0.0
H399 H 0.69443 0.90382 0.65783 0.0
La400 La 0.13351 0.88568 0.70042 0.0
La401 La 0.1284 0.8765 0.68096 0.0
C402 C 0.1316 0.90063 0.71652 0.0
C403 C 0.10969 0.88606 0.7248 0.0
C404 C 0.11486 0.86191 0.73034 0.0
C405 C 0.09809 0.85231 0.73865 0.0
C406 C 0.07584 0.86676 0.74171 0.0
C407 C 0.07001 0.89022 0.73607 0.0
C408 C 0.08676 0.8998 0.72776 0.0
C409 C 0.11608 0.81768 0.69469 0.0
C410 C 0.0576 0.86552 0.69088 0.0
C411 C 0.12538 0.85264 0.66546 0.0
C412 C 0.14327 0.85683 0.65671 0.0
C413 C 0.14824 0.8852 0.65087 0.0
C414 C 0.15792 0.88455 0.64207 0.0
C415 C 0.16286 0.85549 0.63883 0.0
C416 C 0.15946 0.82803 0.64479 0.0
C417 C 0.14965 0.82862 0.65358 0.0
C418 C 0.14014 0.94234 0.68626 0.0
C419 C 0.20858 0.91236 0.69022 0.0
O420 O 0.14906 0.88411 0.71347 0.0
O421 O 0.11759 0.91104 0.71019 0.0
O422 O 0.13632 0.83427 0.70145 0.0
O423 O 0.10475 0.83842 0.69165 0.0
O424 O 0.07904 0.88016 0.69784 0.0
O425 O 0.06959 0.85542 0.68392 0.0
O426 O 0.11547 0.87685 0.6677 0.0
O427 O 0.13655 0.84135 0.67223 0.0
O428 O 0.12488 0.92669 0.67889 0.0
O429 O 0.15347 0.92386 0.68968 0.0
O430 O 0.18778 0.89356 0.68336 0.0
O431 O 0.19295 0.91763 0.69725 0.0
H432 H 0.13281 0.85123 0.72838 0.0
H433 H 0.10375 0.83458 0.7428 0.0
H434 H 0.05268 0.90154 0.73809 0.0
H435 H 0.08248 0.91882 0.72374 0.0
H436 H 0.14328 0.90725 0.65299 0.0
H437 H 0.16086 0.90655 0.63776 0.0
H438 H 0.16264 0.80499 0.64257 0.0
H439 H 0.14538 0.80596 0.65784 0.0
La440 La 0.1563 0.25688 0.70008 0.0
La441 La 0.16497 0.26092 0.6806 0.0
C442 C 0.14133 0.23995 0.71616 0.0
C443 C 0.15548 0.23215 0.72444 0.0
C444 C 0.18466 0.26076 0.72928 0.0
C445 C 0.19421 0.25377 0.73762 0.0
C446 C 0.17481 0.21803 0.74139 0.0
C447 C 0.14625 0.18927 0.73642 0.0
C448 C 0.13668 0.19628 0.7281 0.0
C449 C 0.22423 0.30726 0.69435 0.0
C450 C 0.17573 0.20074 0.69042 0.0
C451 C 0.18855 0.28165 0.6651 0.0
C452 C 0.18412 0.29507 0.65634 0.0
C453 C 0.15597 0.27124 0.65048 0.0
C454 C 0.15651 0.28127 0.64167 0.0
C455 C 0.18522 0.31539 0.63842 0.0
C456 C 0.21241 0.3399 0.64439 0.0
C457 C 0.21195 0.32979 0.6532 0.0
C458 C 0.09915 0.20709 0.68592 0.0
C459 C 0.12968 0.30556 0.68998 0.0
O460 O 0.15831 0.27398 0.71315 0.0
O461 O 0.13063 0.21551 0.70981 0.0
O462 O 0.20777 0.31097 0.70113 0.0
O463 O 0.20333 0.27521 0.69128 0.0
O464 O 0.16192 0.20799 0.69747 0.0
O465 O 0.1853 0.22247 0.68342 0.0
O466 O 0.16456 0.24751 0.66735 0.0
O467 O 0.19978 0.30424 0.67186 0.0
O468 O 0.11444 0.20747 0.67851 0.0
O469 O 0.11793 0.23885 0.68937 0.0
O470 O 0.14813 0.30339 0.68307 0.0
O471 O 0.12461 0.28471 0.69699 0.0
H472 H 0.19965 0.28883 0.72673 0.0
H473 H 0.21671 0.27657 0.74114 0.0
H474 H 0.13025 0.1615 0.73909 0.0
H475 H 0.11367 0.17374 0.72463 0.0
H476 H 0.13421 0.24411 0.6526 0.0
H477 H 0.13472 0.26187 0.63735 0.0
H478 H 0.23518 0.36625 0.64216 0.0
H479 H 0.23443 0.34852 0.65747 0.0
La480 La 0.79318 0.59416 0.51426 0.0
La481 La 0.79822 0.58723 0.53358 0.0
C482 C 0.79053 0.61694 0.49895 0.0
C483 C 0.80815 0.63012 0.49016 0.0
C484 C 0.81243 0.60621 0.48432 0.0
C485 C 0.82181 0.61611 0.47549 0.0
C486 C 0.82715 0.65019 0.47222 0.0
C487 C 0.8245 0.67477 0.47818 0.0
C488 C 0.81496 0.66478 0.487 0.0
C489 C 0.80417 0.53874 0.51864 0.0
C490 C 0.8735 0.63645 0.52355 0.0
C491 C 0.79599 0.56809 0.54951 0.0
C492 C 0.77462 0.56064 0.55788 0.0
C493 C 0.77627 0.58966 0.56302 0.0
C494 C 0.76009 0.58261 0.57141 0.0
C495 C 0.74197 0.54639 0.57495 0.0
C496 C 0.73954 0.5173 0.56968 0.0
C497 C 0.75569 0.52435 0.56131 0.0
C498 C 0.78111 0.63901 0.52852 0.0
C499 C 0.72224 0.53324 0.52393 0.0
O500 O 0.77863 0.58226 0.50103 0.0
O501 O 0.80348 0.63897 0.5058 0.0
O502 O 0.78786 0.54035 0.51157 0.0
O503 O 0.81799 0.56986 0.52252 0.0
O504 O 0.85284 0.63548 0.51677 0.0
O505 O 0.85768 0.61481 0.53045 0.0
O506 O 0.81469 0.60237 0.54669 0.0
O507 O 0.7808 0.54453 0.54303 0.0
O508 O 0.80047 0.64109 0.53533 0.0
O509 O 0.76993 0.60744 0.52519 0.0
O510 O 0.7439 0.53867 0.53076 0.0
O511 O 0.73417 0.55661 0.51721 0.0
H512 H 0.80716 0.57914 0.48647 0.0
H513 H 0.82419 0.59666 0.47118 0.0
H514 H 0.82804 0.70108 0.47594 0.0
H515 H 0.81125 0.68356 0.49126 0.0
H516 H 0.79099 0.61807 0.56068 0.0
H517 H 0.76299 0.60589 0.57524 0.0
H518 H 0.72536 0.48894 0.57206 0.0
H519 H 0.75417 0.50138 0.55758 0.0
La520 La 0.44667 0.2063 0.5145 0.0
La521 La 0.45294 0.21936 0.5337 0.0
C522 C 0.42403 0.17905 0.49934 0.0
C523 C 0.40839 0.18047 0.49064 0.0
C524 C 0.42908 0.20915 0.48461 0.0
C525 C 0.41748 0.20626 0.47585 0.0
C526 C 0.38495 0.17454 0.47285 0.0
C527 C 0.36348 0.14667 0.47901 0.0
C528 C 0.37512 0.14956 0.48776 0.0
C529 C 0.50188 0.27302 0.51877 0.0
C530 C 0.40396 0.24481 0.52336 0.0
C531 C 0.47126 0.23666 0.54966 0.0
C532 C 0.479 0.2229 0.55799 0.0
C533 C 0.45123 0.19154 0.56242 0.0
C534 C 0.45805 0.18182 0.57076 0.0
C535 C 0.49279 0.20316 0.57492 0.0
C536 C 0.52074 0.23401 0.57036 0.0
C537 C 0.51389 0.24374 0.56204 0.0
C538 C 0.40183 0.15014 0.52868 0.0
C539 C 0.50775 0.1974 0.5244 0.0
O540 O 0.45803 0.20485 0.50118 0.0
O541 O 0.40266 0.16831 0.5063 0.0
O542 O 0.5007 0.25437 0.51185 0.0
O543 O 0.47062 0.25608 0.52258 0.0
O544 O 0.40515 0.22469 0.51669 0.0
O545 O 0.42542 0.25104 0.53032 0.0
O546 O 0.43708 0.22017 0.54676 0.0
O547 O 0.49515 0.24579 0.54325 0.0
O548 O 0.39859 0.16797 0.53524 0.0
O549 O 0.43367 0.17041 0.52553 0.0
O550 O 0.5018 0.21362 0.53117 0.0
O551 O 0.48474 0.18574 0.51761 0.0
H552 H 0.45514 0.23318 0.48654 0.0
H553 H 0.43504 0.2282 0.47134 0.0
H554 H 0.33793 0.12214 0.47704 0.0
H555 H 0.35877 0.12677 0.4922 0.0
H556 H 0.42394 0.17486 0.55954 0.0
H557 H 0.43595 0.15757 0.57397 0.0
H558 H 0.54766 0.25151 0.57334 0.0
H559 H 0.5357 0.26834 0.55887 0.0
La560 La 0.83327 0.24789 0.51385 0.0
La561 La 0.82297 0.24207 0.53313 0.0
C562 C 0.8577 0.25084 0.49842 0.0
C563 C 0.85329 0.23282 0.48967 0.0
C564 C 0.82443 0.22722 0.48391 0.0
C565 C 0.82476 0.21744 0.4751 0.0
C566 C 0.85396 0.21301 0.47176 0.0
C567 C 0.88192 0.217 0.47764 0.0
C568 C 0.88165 0.22693 0.48644 0.0
C569 C 0.76739 0.23698 0.51863 0.0
C570 C 0.79596 0.16693 0.52288 0.0
C571 C 0.80767 0.24396 0.54922 0.0
C572 C 0.82193 0.26571 0.55755 0.0
C573 C 0.84696 0.26148 0.56299 0.0
C574 C 0.85625 0.27793 0.57136 0.0
C575 C 0.84061 0.29891 0.57458 0.0
C576 C 0.81627 0.30384 0.56903 0.0
C577 C 0.807 0.28741 0.56067 0.0
C578 C 0.89139 0.25956 0.52764 0.0
C579 C 0.84416 0.31857 0.5238 0.0
O580 O 0.83388 0.2613 0.5006 0.0
O581 O 0.8684 0.23925 0.50522 0.0
O582 O 0.78516 0.25409 0.51161 0.0
O583 O 0.78465 0.22261 0.52228 0.0
O584 O 0.81397 0.18781 0.51598 0.0
O585 O 0.79172 0.18254 0.53005 0.0
O586 O 0.8242 0.2265 0.5462 0.0
O587 O 0.79749 0.25806 0.54287 0.0
O588 O 0.87428 0.23892 0.53429 0.0
O589 O 0.87087 0.27114 0.52462 0.0
O590 O 0.8288 0.29675 0.53065 0.0
O591 O 0.8548 0.30679 0.5169 0.0
H592 H 0.80222 0.23175 0.4861 0.0
H593 H 0.80238 0.21402 0.47085 0.0
H594 H 0.90507 0.21421 0.47535 0.0
H595 H 0.90465 0.23167 0.49064 0.0
H596 H 0.85861 0.2445 0.56091 0.0
H597 H 0.8747 0.27298 0.57542 0.0
H598 H 0.80401 0.3202 0.57117 0.0
H599 H 0.78729 0.29092 0.55673 0.0
La600 La 0.93581 0.4542 0.69812 0.0
La601 La 0.93082 0.45862 0.67861 0.0
C602 C 0.95746 0.45153 0.71355 0.0
C603 C 0.97078 0.46944 0.72233 0.0
C604 C 0.94542 0.46743 0.72873 0.0
C605 C 0.95656 0.47748 0.73748 0.0
C606 C 0.99341 0.48975 0.74013 0.0
C607 C 1.0191 0.49314 0.73363 0.0
C608 C 1.0079 0.48296 0.72488 0.0
C609 C 0.88205 0.46652 0.69301 0.0
C610 C 0.98051 0.53418 0.68877 0.0
C611 C 0.91277 0.45642 0.66259 0.0
C612 C 0.90498 0.43448 0.65429 0.0
C613 C 0.93326 0.43255 0.64964 0.0
C614 C 0.92641 0.41598 0.64129 0.0
C615 C 0.89113 0.40091 0.63732 0.0
C616 C 0.86266 0.40205 0.6421 0.0
C617 C 0.86954 0.41867 0.65043 0.0
C618 C 0.98153 0.44112 0.68412 0.0
C619 C 0.87511 0.38318 0.68838 0.0
O620 O 0.92303 0.44042 0.71136 0.0
O621 O 0.97975 0.46363 0.70675 0.0
O622 O 0.88282 0.45174 0.70041 0.0
O623 O 0.91348 0.47922 0.68941 0.0
O624 O 0.97742 0.51362 0.69575 0.0
O625 O 0.96039 0.51844 0.68163 0.0
O626 O 0.94692 0.47404 0.66551 0.0
O627 O 0.88877 0.44231 0.669 0.0
O628 O 0.98414 0.46015 0.67721 0.0
O629 O 0.94981 0.4303 0.68735 0.0
O630 O 0.88203 0.40413 0.68133 0.0
O631 O 0.89716 0.39542 0.69533 0.0
H632 H 0.91643 0.45651 0.7271 0.0
H633 H 0.93569 0.47392 0.74223 0.0
H634 H 0.04786 0.50304 0.73532 0.0
H635 H 0.02809 0.48437 0.72018 0.0
H636 H 0.961 0.44459 0.65235 0.0
H637 H 0.94896 0.41522 0.63792 0.0
H638 H 0.83526 0.39128 0.63928 0.0
H639 H 0.84728 0.42018 0.65376 0.0
La640 La 0.58823 0.49125 0.69837 0.0
La641 La 0.58335 0.48003 0.67902 0.0
C642 C 0.5912 0.51683 0.71367 0.0
C643 C 0.57344 0.51482 0.72229 0.0
C644 C 0.55601 0.4819 0.72727 0.0
C645 C 0.54587 0.48249 0.73604 0.0
C646 C 0.55308 0.51604 0.74011 0.0
C647 C 0.56924 0.5486 0.73497 0.0
C648 C 0.57924 0.54794 0.72621 0.0
C649 C 0.57787 0.42533 0.69375 0.0
C650 C 0.50791 0.45386 0.6891 0.0
C651 C 0.58562 0.46335 0.66305 0.0
C652 C 0.60733 0.47725 0.65472 0.0
C653 C 0.60622 0.50494 0.64962 0.0
C654 C 0.6226 0.51408 0.64125 0.0
C655 C 0.64039 0.49566 0.6377 0.0
C656 C 0.64229 0.46868 0.64293 0.0
C657 C 0.62594 0.45957 0.65128 0.0
C658 C 0.6007 0.54882 0.68421 0.0
C659 C 0.65934 0.50173 0.68872 0.0
O660 O 0.59902 0.4908 0.71176 0.0
O661 O 0.58159 0.52855 0.70671 0.0
O662 O 0.59462 0.44335 0.70079 0.0
O663 O 0.56356 0.44238 0.68996 0.0
O664 O 0.52848 0.47205 0.69603 0.0
O665 O 0.5237 0.44932 0.68201 0.0
O666 O 0.56755 0.47956 0.66589 0.0
O667 O 0.6001 0.45419 0.66952 0.0
O668 O 0.58128 0.53167 0.67739 0.0
O669 O 0.61171 0.52825 0.6875 0.0
O670 O 0.63817 0.48675 0.68173 0.0
O671 O 0.64709 0.51188 0.69561 0.0
H672 H 0.55132 0.45589 0.72448 0.0
H673 H 0.5329 0.45666 0.73968 0.0
H674 H 0.57582 0.57511 0.73781 0.0
H675 H 0.59318 0.57386 0.7226 0.0
H676 H 0.59176 0.5189 0.65197 0.0
H677 H 0.62008 0.5347 0.63745 0.0
H678 H 0.6562 0.45424 0.64054 0.0
H679 H 0.62703 0.43786 0.65498 0.0
La680 La 0.55126 0.10551 0.69811 0.0
La681 La 0.56079 0.10984 0.67862 0.0
C682 C 0.5262 0.08411 0.71347 0.0
C683 C 0.5281 0.06849 0.72212 0.0
C684 C 0.56103 0.08364 0.72709 0.0
C685 C 0.5604 0.07275 0.73585 0.0
C686 C 0.52681 0.04661 0.73991 0.0
C687 C 0.49421 0.03064 0.73477 0.0
C688 C 0.4949 0.04143 0.72603 0.0
C689 C 0.6172 0.15929 0.69294 0.0
C690 C 0.5864 0.06032 0.6889 0.0
C691 C 0.57662 0.1274 0.66258 0.0
C692 C 0.56229 0.13497 0.6543 0.0
C693 C 0.53879 0.1058 0.64862 0.0
C694 C 0.52935 0.11321 0.64031 0.0
C695 C 0.54331 0.15002 0.63739 0.0
C696 C 0.56614 0.17916 0.64316 0.0
C697 C 0.57556 0.17175 0.65147 0.0
C698 C 0.49239 0.05962 0.68413 0.0
C699 C 0.54134 0.16617 0.68824 0.0
O700 O 0.55248 0.11775 0.71149 0.0
O701 O 0.51399 0.06237 0.70657 0.0
O702 O 0.6014 0.15906 0.70027 0.0
O703 O 0.59869 0.12757 0.68942 0.0
O704 O 0.56895 0.0637 0.69585 0.0
O705 O 0.59079 0.08017 0.68172 0.0
O706 O 0.56006 0.0933 0.66554 0.0
O707 O 0.5867 0.15157 0.66898 0.0
O708 O 0.50876 0.05657 0.67726 0.0
O709 O 0.5135 0.09144 0.68732 0.0
O710 O 0.55557 0.15902 0.68125 0.0
O711 O 0.53135 0.14426 0.69522 0.0
H712 H 0.58709 0.10475 0.7243 0.0
H713 H 0.58626 0.08528 0.73948 0.0
H714 H 0.46766 1.0109 0.7376 0.0
H715 H 0.46898 0.02972 0.72242 0.0
H716 H 0.52849 0.07711 0.65047 0.0
H717 H 0.51214 0.08994 0.63606 0.0
H718 H 0.57707 0.20788 0.64125 0.0
H719 H 0.59408 0.19495 0.6556 0.0
La720 La 0.58172 0.10948 0.1792 0.0
La721 La 0.58746 0.10456 0.19851 0.0
C722 C 0.58319 0.12718 0.16318 0.0
C723 C 0.60463 0.13487 0.15482 0.0
C724 C 0.60311 0.10589 0.14969 0.0
C725 C 0.6192 0.11293 0.1413 0.0
C726 C 0.63712 0.14911 0.13774 0.0
C727 C 0.63935 0.17817 0.14298 0.0
C728 C 0.62327 0.17112 0.15136 0.0
C729 C 0.5995 0.05868 0.18454 0.0
C730 C 0.65811 0.16485 0.18868 0.0
C731 C 0.59077 0.08289 0.21387 0.0
C732 C 0.57278 0.06735 0.2225 0.0
C733 C 0.56329 0.08773 0.2283 0.0
C734 C 0.55369 0.07643 0.23705 0.0
C735 C 0.5535 0.04453 0.24029 0.0
C736 C 0.56133 0.02329 0.23435 0.0
C737 C 0.57093 0.03461 0.22561 0.0
C738 C 0.57669 0.15966 0.19374 0.0
C739 C 0.50669 0.06081 0.18942 0.0
O740 O 0.56584 0.09308 0.16613 0.0
O741 O 0.59752 0.15133 0.16957 0.0
O742 O 0.57903 0.0553 0.17785 0.0
O743 O 0.61081 0.09059 0.18769 0.0
O744 O 0.63663 0.15801 0.18172 0.0
O745 O 0.64619 0.14286 0.19564 0.0
O746 O 0.59854 0.11663 0.21187 0.0
O747 O 0.58144 0.06126 0.20695 0.0
O748 O 0.59396 0.15908 0.20075 0.0
O749 O 0.56222 0.12794 0.19011 0.0
O750 O 0.52754 0.06364 0.19633 0.0
O751 O 0.52224 0.08082 0.18229 0.0
H752 H 0.58855 0.07749 0.15204 0.0
H753 H 0.61637 0.08965 0.13748 0.0
H754 H 0.65334 0.2065 0.14058 0.0
H755 H 0.62461 0.19405 0.15507 0.0
H756 H 0.56484 0.11338 0.2262 0.0
H757 H 0.54818 0.09379 0.24138 0.0
H758 H 0.56084 0.9982 0.2365 0.0
H759 H 0.57849 0.0185 0.22137 0.0
La760 La 0.93017 0.47914 0.17841 0.0
La761 La 0.93502 0.48911 0.19795 0.0
C762 C 0.91206 0.46272 0.16241 0.0
C763 C 0.90406 0.47658 0.1541 0.0
C764 C 0.93271 0.50467 0.14905 0.0
C765 C 0.92539 0.51391 0.14071 0.0
C766 C 0.88925 0.49522 0.13713 0.0
C767 C 0.86049 0.4678 0.1423 0.0
C768 C 0.86782 0.45858 0.15064 0.0
C769 C 0.98057 0.54759 0.18384 0.0
C770 C 0.87426 0.49901 0.18809 0.0
C771 C 0.95641 0.51416 0.21334 0.0
C772 C 0.97205 0.5126 0.22204 0.0
C773 C 0.95675 0.4799 0.22709 0.0
C774 C 0.96761 0.48091 0.23588 0.0
C775 C 0.99388 0.51466 0.23989 0.0
C776 C 1.00998 0.54702 0.23467 0.0
C777 C 0.99922 0.54595 0.2259 0.0
C778 C 0.88117 0.42308 0.19273 0.0
C779 C 0.98001 0.45388 0.18867 0.0
O780 O 0.94624 0.47955 0.16532 0.0
O781 O 0.8881 0.45277 0.16883 0.0
O782 O 0.98327 0.53107 0.17695 0.0
O783 O 0.94894 0.52666 0.18712 0.0
O784 O 0.88128 0.48471 0.18109 0.0
O785 O 0.89623 0.509 0.19507 0.0
O786 O 0.92287 0.48769 0.21134 0.0
O787 O 0.9781 0.5265 0.20645 0.0
O788 O 0.88142 0.43891 0.20007 0.0
O789 O 0.9129 0.44164 0.18927 0.0
O790 O 0.97682 0.47148 0.19563 0.0
O791 O 0.95992 0.44924 0.18152 0.0
H792 H 0.96109 0.51887 0.15142 0.0
H793 H 0.94843 0.53486 0.13694 0.0
H794 H 0.83219 0.45313 0.13989 0.0
H795 H 0.84514 0.43657 0.15429 0.0
H796 H 0.93555 0.45373 0.22435 0.0
H797 H 0.95496 0.4552 0.23956 0.0
H798 H 0.02981 0.5737 0.23745 0.0
H799 H 1.01105 0.57172 0.22224 0.0
La800 La 0.56058 0.45715 0.17849 0.0
La801 La 0.54891 0.45144 0.19773 0.0
C802 C 0.57687 0.4553 0.16248 0.0
C803 C 0.56259 0.43389 0.15411 0.0
C804 C 0.53503 0.43555 0.14908 0.0
C805 C 0.52539 0.41923 0.14071 0.0
C806 C 0.5431 0.40085 0.13708 0.0
C807 C 0.57006 0.39852 0.14222 0.0
C808 C 0.57971 0.41488 0.15058 0.0
C809 C 0.49171 0.43944 0.18364 0.0
C810 C 0.53863 0.38065 0.18793 0.0
C811 C 0.52356 0.44801 0.21306 0.0
C812 C 0.52528 0.46606 0.22164 0.0
C813 C 0.55818 0.48423 0.22662 0.0
C814 C 0.55745 0.49475 0.23536 0.0
C815 C 0.52379 0.4872 0.23938 0.0
C816 C 0.49122 0.47028 0.23424 0.0
C817 C 0.492 0.45988 0.22552 0.0
C818 C 0.61489 0.4617 0.19317 0.0
C819 C 0.58684 0.53212 0.1887 0.0
O820 O 0.56118 0.47371 0.16543 0.0
O821 O 0.58574 0.44023 0.16887 0.0
O822 O 0.50924 0.46015 0.17703 0.0
O823 O 0.51211 0.42806 0.18683 0.0
O824 O 0.5545 0.40244 0.18109 0.0
O825 O 0.52768 0.39253 0.19475 0.0
O826 O 0.55041 0.44146 0.21114 0.0
O827 O 0.5108 0.45647 0.2061 0.0
O828 O 0.59643 0.44426 0.20009 0.0
O829 O 0.59811 0.4765 0.18948 0.0
O830 O 0.56694 0.51113 0.19541 0.0
O831 O 0.59274 0.51654 0.18176 0.0
H832 H 0.52137 0.45017 0.15152 0.0
H833 H 0.50413 0.42124 0.13705 0.0
H834 H 0.58477 0.38516 0.13966 0.0
H835 H 0.6015 0.41359 0.15419 0.0
H836 H 0.58431 0.48924 0.22386 0.0
H837 H 0.58327 0.50829 0.239 0.0
H838 H 0.46463 0.46344 0.23705 0.0
H839 H 0.4661 0.44537 0.22191 0.0
La840 La 0.45109 0.24097 0.03309 0.0
La841 La 0.44509 0.24632 1.01375 0.0
C842 C 0.47004 0.24302 0.04904 0.0
C843 C 0.47788 0.26482 0.05737 0.0
C844 C 0.44913 0.26401 0.06243 0.0
C845 C 0.45637 0.28056 0.07079 0.0
C846 C 0.49252 0.29827 0.07437 0.0
C847 C 0.52137 0.29986 0.06918 0.0
C848 C 0.51412 0.28331 0.06083 0.0
C849 C 0.39985 0.25845 0.02799 0.0
C850 C 0.50578 0.31724 0.02351 0.0
C851 C 0.4228 0.2496 0.99845 0.0
C852 C 0.40681 0.23175 0.98984 0.0
C853 C 0.42131 0.21313 0.98496 0.0
C854 C 0.41041 0.20275 0.97619 0.0
C855 C 0.3849 0.2109 0.97206 0.0
C856 C 0.36949 0.22829 0.97712 0.0
C857 C 0.3803 0.23853 0.98587 0.0
C858 C 0.50039 0.23569 1.01841 0.0
C859 C 0.40174 0.1657 0.02287 0.0
O860 O 0.43577 0.22497 0.0462 0.0
O861 O 0.49367 0.2575 0.04257 0.0
O862 O 0.39754 0.23897 0.03478 0.0
O863 O 0.43139 0.26955 0.02465 0.0
O864 O 0.49933 0.29586 0.03045 0.0
O865 O 0.48352 0.30518 1.01658 0.0
O866 O 0.45647 0.25691 1.00035 0.0
O867 O 0.40148 0.24031 1.00541 0.0
O868 O 0.4995 0.25277 1.0114 0.0
O869 O 0.46885 0.22131 1.0221 0.0
O870 O 0.40437 0.18647 1.01597 0.0
O871 O 0.42194 0.18131 0.02999 0.0
H872 H 0.42075 0.24965 0.06007 0.0
H873 H 0.43325 0.27826 0.07457 0.0
H874 H 0.54968 0.31369 0.07159 0.0
H875 H 0.53688 0.28419 0.05716 0.0
H876 H 0.44198 0.20767 0.9878 0.0
H877 H 0.42248 0.18882 0.97262 0.0
H878 H 0.35024 0.23563 0.97423 0.0
H879 H 0.36912 0.25338 0.98941 0.0
La880 La 0.79706 0.21713 0.03379 0.0
La881 La 0.79224 0.20799 1.01432 0.0
C882 C 0.79491 0.23227 0.04988 0.0
C883 C 0.77286 0.21801 0.05814 0.0
C884 C 0.77356 0.18988 0.06314 0.0
C885 C 0.75689 0.18032 0.07147 0.0
C886 C 0.73913 0.19868 0.07507 0.0
C887 C 0.73765 0.22614 0.06995 0.0
C888 C 0.75436 0.23573 0.06163 0.0
C889 C 0.77931 0.14899 0.0281 0.0
C890 C 0.72138 0.19744 0.02414 0.0
C891 C 0.78886 0.18386 0.99884 0.0
C892 C 0.8065 0.18572 0.9902 0.0
C893 C 0.82425 0.21866 0.98524 0.0
C894 C 0.83441 0.21802 0.97646 0.0
C895 C 0.82688 0.1844 0.97238 0.0
C896 C 0.81031 0.15179 0.9775 0.0
C897 C 0.80031 0.15249 0.98626 0.0
C898 C 0.80381 0.27373 1.01966 0.0
C899 C 0.87226 0.24354 0.02363 0.0
O900 O 0.8122 0.21549 0.04688 0.0
O901 O 0.78114 0.24276 0.04351 0.0
O902 O 0.79953 0.16556 0.03486 0.0
O903 O 0.76822 0.1699 0.02503 0.0
O904 O 0.74262 0.21166 0.03115 0.0
O905 O 0.73349 0.1876 1.01716 0.0
O906 O 0.78251 0.21073 1.00093 0.0
O907 O 0.79725 0.17051 1.0057 0.0
O908 O 0.78822 0.25794 1.01232 0.0
O909 O 0.81726 0.25532 0.02306 0.0
O910 O 0.8515 0.22476 1.01676 0.0
O911 O 0.8566 0.24883 0.03065 0.0
H912 H 0.78776 0.17576 0.06073 0.0
H913 H 0.75821 0.15866 0.07511 0.0
H914 H 0.72474 0.24132 0.07249 0.0
H915 H 0.75381 0.25794 0.05804 0.0
H916 H 0.82924 0.24476 0.98804 0.0
H917 H 0.84768 0.24389 0.97284 0.0
H918 H 0.80346 0.12521 0.97465 0.0
H919 H 0.78609 0.12655 0.98985 0.0
La920 La 0.82167 0.58998 0.03335 0.0
La921 La 0.82966 0.59306 1.01386 0.0
C922 C 0.80708 0.57345 0.04948 0.0
C923 C 0.82087 0.56476 0.0577 0.0
C924 C 0.84805 0.59324 0.06299 0.0
C925 C 0.85706 0.58534 0.0713 0.0
C926 C 0.83899 0.54875 0.07461 0.0
C927 C 0.8125 0.52019 0.06921 0.0
C928 C 0.80351 0.5281 0.06091 0.0
C929 C 0.88949 0.63972 0.0275 0.0
C930 C 0.83995 0.53266 0.0237 0.0
C931 C 0.85349 0.61343 0.99837 0.0
C932 C 0.85213 0.62992 0.9898 0.0
C933 C 0.81915 0.61611 0.98489 0.0
C934 C 0.82002 0.62746 0.97616 0.0
C935 C 0.85389 0.65272 0.97208 0.0
C936 C 0.8866 0.66741 0.97715 0.0
C937 C 0.88568 0.65616 0.98587 0.0
C938 C 0.76418 0.53959 1.01939 0.0
C939 C 0.79534 0.63893 0.02313 0.0
O940 O 0.82525 0.60741 0.04645 0.0
O941 O 0.79496 0.54897 0.04312 0.0
O942 O 0.87328 0.64386 0.03427 0.0
O943 O 0.86835 0.60756 0.02449 0.0
O944 O 0.82736 0.54094 0.03082 0.0
O945 O 0.84865 0.55354 1.01657 0.0
O946 O 0.82579 0.58066 1.00044 0.0
O947 O 0.86783 0.63491 1.00526 0.0
O948 O 0.7796 0.5391 1.01206 0.0
O949 O 0.7829 0.57169 1.02272 0.0
O950 O 0.81227 0.63514 1.01612 0.0
O951 O 0.79148 0.61949 0.03035 0.0
H952 H 0.86165 0.62192 0.06084 0.0
H953 H 0.87726 0.60824 0.07525 0.0
H954 H 0.79832 0.49159 0.07142 0.0
H955 H 0.78214 0.50551 0.05709 0.0
H956 H 0.79281 0.59565 0.98769 0.0
H957 H 0.7941 0.61593 0.97257 0.0
H958 H 0.91334 0.68643 0.9743 0.0
H959 H 0.91162 0.66681 0.98942 0.0
La960 La 0.46075 0.92702 0.84729 0.0
La961 La 0.46575 0.92423 0.86676 0.0
C962 C 0.4572 0.94724 0.83179 0.0
C963 C 0.47494 0.96348 0.8232 0.0
C964 C 0.49417 0.94961 0.81832 0.0
C965 C 0.50462 0.96077 0.80958 0.0
C966 C 0.49592 0.98589 0.80545 0.0
C967 C 0.47783 1.00062 0.81049 0.0
C968 C 0.46755 0.98957 0.81921 0.0
C969 C 0.47296 0.87366 0.85281 0.0
C970 C 0.54089 0.97313 0.85652 0.0
C971 C 0.46393 0.90799 0.8829 0.0
C972 C 0.44151 0.8994 0.89113 0.0
C973 C 0.43862 0.92715 0.89579 0.0
C974 C 0.42184 0.91979 0.90411 0.0
C975 C 0.40753 0.88451 0.90804 0.0
C976 C 0.4096 0.85654 0.90324 0.0
C977 C 0.42642 0.86393 0.89494 0.0
C978 C 0.44764 0.97394 0.86084 0.0
C979 C 0.39009 0.86692 0.85717 0.0
O980 O 0.45187 0.9144 0.83388 0.0
O981 O 0.46465 0.96888 0.83866 0.0
O982 O 0.45706 0.87317 0.84547 0.0
O983 O 0.48624 0.9057 0.85617 0.0
O984 O 0.52012 0.96924 0.84952 0.0
O985 O 0.5254 0.95371 0.86375 0.0
O986 O 0.47961 0.9419 0.87984 0.0
O987 O 0.45152 0.88337 0.87658 0.0
O988 O 0.46809 0.97822 0.8676 0.0
O989 O 0.43658 0.94166 0.8579 0.0
O990 O 0.41105 0.87518 0.86427 0.0
O991 O 0.40224 0.88775 0.85003 0.0
H992 H 0.50012 0.92926 0.82116 0.0
H993 H 0.51906 0.94921 0.80602 0.0
H994 H 0.47003 0.01953 0.8076 0.0
H995 H 0.45221 1.00026 0.82274 0.0
H996 H 0.45012 0.95491 0.89313 0.0
H997 H 0.42035 0.94196 0.90749 0.0
H998 H 0.39944 0.82918 0.90604 0.0
H999 H 0.4287 0.84209 0.89161 0.0
La1000 La 0.1133 0.54333 0.84761 0.0
La1001 La 0.11606 0.55186 0.86704 0.0
C1002 C 0.09302 0.51962 0.83207 0.0
C1003 C 0.07955 0.52397 0.82331 0.0
C1004 C 0.10319 0.5523 0.81749 0.0
C1005 C 0.09307 0.55181 0.80868 0.0
C1006 C 0.05905 0.52295 0.80541 0.0
C1007 C 0.03475 0.49554 0.81134 0.0
C1008 C 0.04495 0.49597 0.82014 0.0
C1009 C 0.16673 0.60903 0.85304 0.0
C1010 C 0.06776 0.57847 0.85671 0.0
C1011 C 0.1322 0.56653 0.88318 0.0
C1012 C 0.14009 0.55216 0.8914 0.0
C1013 C 0.11143 0.52314 0.89624 0.0
C1014 C 0.11848 0.51329 0.90453 0.0
C1015 C 0.15435 0.53224 0.90825 0.0
C1016 C 0.18315 0.56062 0.90328 0.0
C1017 C 0.17608 0.5705 0.895 0.0
C1018 C 0.06609 0.48389 0.86117 0.0
C1019 C 0.17298 0.5327 0.85767 0.0
O1020 O 0.12704 0.54385 0.83437 0.0
O1021 O 0.07035 0.50817 0.83881 0.0
O1022 O 0.16697 0.59354 0.84569 0.0
O1023 O 0.13478 0.59049 0.8564 0.0
O1024 O 0.07152 0.56126 0.84974 0.0
O1025 O 0.08715 0.58248 0.86395 0.0
O1026 O 0.09834 0.54905 0.88008 0.0
O1027 O 0.15687 0.57806 0.87689 0.0
O1028 O 0.06197 0.50033 0.8679 0.0
O1029 O 0.09836 0.50483 0.85826 0.0
O1030 O 0.16537 0.54667 0.86464 0.0
O1031 O 0.15143 0.52283 0.85063 0.0
H1032 H 0.13023 0.5742 0.81963 0.0
H1033 H 0.11232 0.57377 0.80438 0.0
H1034 H 1.00849 0.47265 0.80909 0.0
H1035 H 0.02637 0.47335 0.82439 0.0
H1036 H 0.08327 0.50852 0.89374 0.0
H1037 H 0.09564 0.49094 0.90807 0.0
H1038 H 0.21103 0.57625 0.90592 0.0
H1039 H 0.19867 0.59338 0.89153 0.0
La1040 La 0.49804 0.58089 0.84723 0.0
La1041 La 0.48373 0.57475 0.86764 0.0
C1042 C 0.52648 0.58529 0.83225 0.0
C1043 C 0.52478 0.56791 0.82359 0.0
C1044 C 0.49148 0.54824 0.81882 0.0
C1045 C 0.49189 0.53785 0.81005 0.0
C1046 C 0.52562 0.54707 0.8058 0.0
C1047 C 0.55868 0.56566 0.81074 0.0
C1048 C 0.5582 0.57587 0.81949 0.0
C1049 C 0.43283 0.57186 0.85203 0.0
C1050 C 0.45975 0.50004 0.85645 0.0
C1051 C 0.4593 0.57131 0.88302 0.0
C1052 C 0.47208 0.59036 0.89171 0.0
C1053 C 0.49937 0.5881 0.89672 0.0
C1054 C 0.50883 0.60376 0.90517 0.0
C1055 C 0.49125 0.6221 0.90889 0.0
C1056 C 0.46438 0.6248 0.90379 0.0
C1057 C 0.4549 0.6091 0.89536 0.0
C1058 C 0.55622 0.6009 0.86372 0.0
C1059 C 0.50847 0.65087 0.85769 0.0
O1060 O 0.50126 0.59453 0.83393 0.0
O1061 O 0.5359 0.5737 0.83928 0.0
O1062 O 0.45001 0.5872 0.84478 0.0
O1063 O 0.45026 0.55808 0.85587 0.0
O1064 O 0.47411 0.52027 0.8492 0.0
O1065 O 0.45911 0.51546 0.86408 0.0
O1066 O 0.47358 0.5512 0.88023 0.0
O1067 O 0.45509 0.59004 0.87663 0.0
O1068 O 0.54237 0.59371 0.87154 0.0
O1069 O 0.52891 0.5927 0.85885 0.0
O1070 O 0.49015 0.6289 0.86437 0.0
O1071 O 0.52073 0.63933 0.85101 0.0
H1072 H 0.46525 0.54186 0.82177 0.0
H1073 H 0.46574 0.52302 0.80657 0.0
H1074 H 0.58532 0.57387 0.80775 0.0
H1075 H 0.58435 0.59153 0.82295 0.0
H1076 H 0.51307 0.57367 0.89419 0.0
H1077 H 0.52929 0.60057 0.90886 0.0
H1078 H 0.45056 0.63914 0.9063 0.0
H1079 H 0.43365 0.61121 0.89172 0.0
La1080 La 0.59982 0.78452 0.03161 0.0
La1081 La 0.59424 0.78959 1.01229 0.0
C1082 C 0.62209 0.78185 0.04695 0.0
C1083 C 0.63751 0.80001 0.05559 0.0
C1084 C 0.61675 0.80888 0.06141 0.0
C1085 C 0.62802 0.81852 0.07017 0.0
C1086 C 0.66025 0.81938 0.07339 0.0
C1087 C 0.68186 0.81222 0.06743 0.0
C1088 C 0.67059 0.80257 0.05868 0.0
C1089 C 0.54466 0.7952 0.02691 0.0
C1090 C 0.64311 0.86509 1.02241 0.0
C1091 C 0.57586 0.78687 0.99627 0.0
C1092 C 0.56697 0.76415 0.98806 0.0
C1093 C 0.595 0.76347 0.983 0.0
C1094 C 0.58698 0.74615 0.97473 0.0
C1095 C 0.55071 0.72906 0.97122 0.0
C1096 C 0.52255 0.72899 0.9764 0.0
C1097 C 0.5306 0.74637 0.98466 0.0
C1098 C 0.64556 0.77263 1.01767 0.0
C1099 C 0.53944 0.7134 1.02192 0.0
O1100 O 0.58815 0.77341 0.04498 0.0
O1101 O 0.6436 0.7915 0.04002 0.0
O1102 O 0.54554 0.77824 0.03394 0.0
O1103 O 0.57612 0.80946 0.02319 0.0
O1104 O 0.64045 0.84441 0.02934 0.0
O1105 O 0.62303 0.84932 1.01528 0.0
O1106 O 0.6101 0.80366 0.99912 0.0
O1107 O 0.55207 0.77404 1.00274 0.0
O1108 O 0.64871 0.79301 1.01099 0.0
O1109 O 0.6136 0.76099 1.02078 0.0
O1110 O 0.54603 0.73455 1.01492 0.0
O1111 O 0.56161 0.72565 0.02885 0.0
H1112 H 0.59085 0.80677 0.05933 0.0
H1113 H 0.61038 0.82351 0.07453 0.0
H1114 H 0.70721 0.81324 0.06957 0.0
H1115 H 0.687 0.7955 0.05441 0.0
H1116 H 0.62343 0.77707 0.98533 0.0
H1117 H 0.60939 0.7464 0.97105 0.0
H1118 H 0.49439 0.71666 0.97394 0.0
H1119 H 0.50844 0.74688 0.98829 0.0
La1120 La 0.25411 0.82413 0.03128 0.0
La1121 La 0.2482 0.81309 1.01203 0.0
C1122 C 0.25733 0.84935 0.04663 0.0
C1123 C 0.23946 0.84675 0.0553 0.0
C1124 C 0.23073 0.81717 0.06112 0.0
C1125 C 0.22119 0.81887 0.06988 0.0
C1126 C 0.22031 0.85027 0.07311 0.0
C1127 C 0.22741 0.87902 0.06715 0.0
C1128 C 0.23693 0.87731 0.0584 0.0
C1129 C 0.2437 0.75821 0.02664 0.0
C1130 C 0.17322 0.78631 1.02222 0.0
C1131 C 0.25013 0.79746 0.99596 0.0
C1132 C 0.27173 0.81203 0.98764 0.0
C1133 C 0.26675 0.83656 0.98219 0.0
C1134 C 0.28321 0.84618 0.97385 0.0
C1135 C 0.30498 0.83139 0.97065 0.0
C1136 C 0.31064 0.80755 0.9762 0.0
C1137 C 0.29419 0.79795 0.98455 0.0
C1138 C 0.26564 0.88173 1.01739 0.0
C1139 C 0.32475 0.83484 1.02141 0.0
O1140 O 0.26581 0.82387 0.04463 0.0
O1141 O 0.24735 0.86102 0.03972 0.0
O1142 O 0.26111 0.77655 0.03358 0.0
O1143 O 0.22897 0.77505 0.02293 0.0
O1144 O 0.19411 0.80476 0.0291 0.0
O1145 O 0.18878 0.78169 1.01511 0.0
O1146 O 0.23206 0.81339 0.99896 0.0
O1147 O 0.26474 0.78791 1.00232 0.0
O1148 O 0.24495 0.86436 1.01075 0.0
O1149 O 0.27724 0.86132 1.02045 0.0
O1150 O 0.30292 0.81918 1.01456 0.0
O1151 O 0.31295 0.84557 0.02828 0.0
H1152 H 0.23283 0.79335 0.05902 0.0
H1153 H 0.21626 0.79627 0.07423 0.0
H1154 H 0.22638 0.90337 0.06929 0.0
H1155 H 0.2439 0.90075 0.05414 0.0
H1156 H 0.24918 0.84755 0.98425 0.0
H1157 H 0.27768 0.86421 0.96978 0.0
H1158 H 0.32762 0.79596 0.97408 0.0
H1159 H 0.29832 0.77865 0.9885 0.0
La1160 La 0.21449 0.43697 0.03138 0.0
La1161 La 0.22462 0.44234 1.01192 0.0
C1162 C 0.18951 0.415 0.04673 0.0
C1163 C 0.19284 0.40041 0.05542 0.0
C1164 C 0.22154 0.42258 0.06134 0.0
C1165 C 0.22017 0.41151 0.0701 0.0
C1166 C 0.18996 0.37807 0.07322 0.0
C1167 C 0.16218 0.35518 0.06717 0.0
C1168 C 0.16357 0.36626 0.05842 0.0
C1169 C 0.28075 0.49101 0.02642 0.0
C1170 C 0.25045 0.39292 1.02205 0.0
C1171 C 0.24082 0.46036 0.99594 0.0
C1172 C 0.22651 0.46765 0.98763 0.0
C1173 C 0.19998 0.43836 0.98241 0.0
C1174 C 0.19043 0.44532 0.97407 0.0
C1175 C 0.20727 0.48173 0.97067 0.0
C1176 C 0.23309 0.51106 0.97601 0.0
C1177 C 0.24263 0.50409 0.98434 0.0
C1178 C 0.15608 0.39166 1.01732 0.0
C1179 C 0.20484 0.49809 1.02162 0.0
O1180 O 0.21405 0.44926 0.04469 0.0
O1181 O 0.17861 0.39308 0.03985 0.0
O1182 O 0.2649 0.4901 0.03379 0.0
O1183 O 0.26219 0.4596 0.02278 0.0
O1184 O 0.2315 0.39465 0.02889 0.0
O1185 O 0.25598 0.41418 1.01508 0.0
O1186 O 0.22489 0.42621 0.99886 0.0
O1187 O 0.25 0.48437 1.00234 0.0
O1188 O 0.17268 0.38891 1.01045 0.0
O1189 O 0.17701 0.42337 1.02056 0.0
O1190 O 0.21957 0.49145 1.01465 0.0
O1191 O 0.19437 0.47567 0.02851 0.0
H1192 H 0.24432 0.44932 0.05933 0.0
H1193 H 0.24197 0.43013 0.07453 0.0
H1194 H 0.13881 0.32893 0.06923 0.0
H1195 H 0.14079 0.34871 0.05408 0.0
H1196 H 0.1873 0.40984 0.98464 0.0
H1197 H 0.17077 0.42189 0.97016 0.0
H1198 H 0.24628 0.53953 0.97372 0.0
H1199 H 0.26344 0.52728 0.98812 0.0
La1200 La 0.2505 0.44419 0.51193 0.0
La1201 La 0.25563 0.43863 0.53125 0.0
C1202 C 0.25267 0.46274 0.49594 0.0
C1203 C 0.2742 0.47039 0.48758 0.0
C1204 C 0.27304 0.44149 0.48248 0.0
C1205 C 0.28919 0.44855 0.47409 0.0
C1206 C 0.3068 0.48467 0.47049 0.0
C1207 C 0.30875 0.51366 0.47571 0.0
C1208 C 0.29263 0.5066 0.4841 0.0
C1209 C 0.26777 0.39279 0.51714 0.0
C1210 C 0.32667 0.49873 0.52154 0.0
C1211 C 0.25815 0.41673 0.54666 0.0
C1212 C 0.24001 0.40319 0.5554 0.0
C1213 C 0.24123 0.42836 0.56177 0.0
C1214 C 0.231 0.41716 0.5705 0.0
C1215 C 0.21931 0.38042 0.57316 0.0
C1216 C 0.21669 0.3549 0.56669 0.0
C1217 C 0.22706 0.36617 0.55796 0.0
C1218 C 0.24511 0.49406 0.52655 0.0
C1219 C 0.17511 0.39532 0.52207 0.0
O1220 O 0.23462 0.42853 0.49881 0.0
O1221 O 0.26728 0.48655 0.50239 0.0
O1222 O 0.24837 0.39044 0.51032 0.0
O1223 O 0.27889 0.42444 0.52044 0.0
O1224 O 0.3053 0.49255 0.5146 0.0
O1225 O 0.31454 0.47622 0.5284 0.0
O1226 O 0.26906 0.45115 0.54452 0.0
O1227 O 0.24638 0.39456 0.53982 0.0
O1228 O 0.26186 0.49299 0.5336 0.0
O1229 O 0.23079 0.46249 0.52284 0.0
O1230 O 0.1958 0.39805 0.529 0.0
O1231 O 0.19083 0.4153 0.51494 0.0
H1232 H 0.2587 0.41312 0.48486 0.0
H1233 H 0.28664 0.42532 0.47029 0.0
H1234 H 0.32252 0.54196 0.4733 0.0
H1235 H 0.29375 0.52947 0.48778 0.0
H1236 H 0.25168 0.45729 0.56014 0.0
H1237 H 0.23397 0.43792 0.57523 0.0
H1238 H 0.20724 0.32622 0.56838 0.0
H1239 H 0.22626 0.34614 0.55327 0.0
La1240 La 0.5977 0.81467 0.5119 0.0
La1241 La 0.602 0.82377 0.53135 0.0
C1242 C 0.58052 0.79961 0.49581 0.0
C1243 C 0.57228 0.81374 0.48759 0.0
C1244 C 0.60002 0.84482 0.48307 0.0
C1245 C 0.59283 0.85471 0.47479 0.0
C1246 C 0.55774 0.83377 0.47076 0.0
C1247 C 0.52982 0.80323 0.47541 0.0
C1248 C 0.53704 0.79334 0.48367 0.0
C1249 C 0.64796 0.88285 0.51757 0.0
C1250 C 0.54127 0.83376 0.5216 0.0
C1251 C 0.62297 0.84784 0.54683 0.0
C1252 C 0.63796 0.84485 0.5555 0.0
C1253 C 0.61617 0.81604 0.56142 0.0
C1254 C 0.62735 0.81764 0.57018 0.0
C1255 C 0.66054 0.8482 0.57331 0.0
C1256 C 0.68309 0.87611 0.56727 0.0
C1257 C 0.67189 0.8745 0.55851 0.0
C1258 C 0.54826 0.75771 0.52606 0.0
C1259 C 0.64674 0.78844 0.52207 0.0
O1260 O 0.61457 0.81691 0.49881 0.0
O1261 O 0.55623 0.78857 0.50218 0.0
O1262 O 0.65169 0.86616 0.51084 0.0
O1263 O 0.61597 0.86197 0.52066 0.0
O1264 O 0.54868 0.82011 0.51454 0.0
O1265 O 0.56301 0.84345 0.5286 0.0
O1266 O 0.58924 0.82225 0.54469 0.0
O1267 O 0.64496 0.86026 0.53998 0.0
O1268 O 0.54854 0.77332 0.53343 0.0
O1269 O 0.57998 0.77645 0.52262 0.0
O1270 O 0.64453 0.80704 0.52894 0.0
O1271 O 0.62588 0.78322 0.51503 0.0
H1272 H 0.62761 0.86113 0.48584 0.0
H1273 H 0.61495 0.87873 0.47152 0.0
H1274 H 0.50261 0.78602 0.47253 0.0
H1275 H 0.51522 0.76892 0.4869 0.0
H1276 H 0.58959 0.79296 0.5594 0.0
H1277 H 0.60897 0.79572 0.5746 0.0
H1278 H 0.70915 0.89977 0.56934 0.0
H1279 H 0.68914 0.89739 0.55418 0.0
La1280 La 0.22589 0.79141 0.51211 0.0
La1281 La 0.21702 0.78573 0.53157 0.0
C1282 C 0.24142 0.78998 0.49604 0.0
C1283 C 0.22712 0.76804 0.48774 0.0
C1284 C 0.20049 0.77051 0.48252 0.0
C1285 C 0.1909 0.75377 0.47419 0.0
C1286 C 0.2078 0.73423 0.4708 0.0
C1287 C 0.23377 0.73104 0.47614 0.0
C1288 C 0.24335 0.74777 0.48446 0.0
C1289 C 0.15763 0.77326 0.51773 0.0
C1290 C 0.20621 0.71522 0.52149 0.0
C1291 C 0.19338 0.78237 0.5471 0.0
C1292 C 0.19787 0.8003 0.55588 0.0
C1293 C 0.22074 0.79778 0.56233 0.0
C1294 C 0.21964 0.80799 0.57106 0.0
C1295 C 0.19551 0.82092 0.57365 0.0
C1296 C 0.17367 0.82475 0.5671 0.0
C1297 C 0.17471 0.81443 0.55837 0.0
C1298 C 0.28279 0.79796 0.52616 0.0
C1299 C 0.25209 0.86642 0.52255 0.0
O1300 O 0.22459 0.80714 0.49907 0.0
O1301 O 0.2519 0.77608 0.50237 0.0
O1302 O 0.17403 0.7929 0.5109 0.0
O1303 O 0.17863 0.76235 0.52087 0.0
O1304 O 0.22053 0.73685 0.51455 0.0
O1305 O 0.19625 0.72699 0.52851 0.0
O1306 O 0.21741 0.77232 0.54481 0.0
O1307 O 0.18211 0.79374 0.54036 0.0
O1308 O 0.26728 0.78223 0.5335 0.0
O1309 O 0.26417 0.81134 0.52284 0.0
O1310 O 0.23491 0.8454 0.5295 0.0
O1311 O 0.25608 0.85108 0.51529 0.0
H1312 H 0.18775 0.78632 0.48474 0.0
H1313 H 0.17115 0.75735 0.47029 0.0
H1314 H 0.24704 0.71581 0.47386 0.0
H1315 H 0.26425 0.74562 0.48824 0.0
H1316 H 0.23843 0.78634 0.56075 0.0
H1317 H 0.23658 0.80406 0.57586 0.0
H1318 H 0.15516 0.83515 0.56874 0.0
H1319 H 0.15628 0.81624 0.55363 0.0
La1320 La 0.11489 0.57345 0.36702 0.0
La1321 La 0.1122 0.58028 0.34755 0.0
C1322 C 0.13172 0.57431 0.38309 0.0
C1323 C 0.13963 0.5962 0.39139 0.0
C1324 C 0.11104 0.5965 0.39629 0.0
C1325 C 0.11819 0.61323 0.40462 0.0
C1326 C 0.15409 0.63006 0.40832 0.0
C1327 C 0.18279 0.63048 0.40331 0.0
C1328 C 0.17562 0.6137 0.39499 0.0
C1329 C 0.06565 0.59281 0.36148 0.0
C1330 C 0.17277 0.64949 0.35781 0.0
C1331 C 0.0922 0.58483 0.33208 0.0
C1332 C 0.07654 0.56751 0.32338 0.0
C1333 C 0.09096 0.54889 0.31846 0.0
C1334 C 0.08008 0.53867 0.30968 0.0
C1335 C 0.05469 0.54699 0.30555 0.0
C1336 C 0.03949 0.56456 0.31063 0.0
C1337 C 0.05026 0.57461 0.31939 0.0
C1338 C 0.16521 0.56736 0.35295 0.0
C1339 C 0.06583 0.49924 0.35647 0.0
O1340 O 0.09774 0.55756 0.38005 0.0
O1341 O 0.15613 0.5881 0.37676 0.0
O1342 O 0.06193 0.57267 0.36825 0.0
O1343 O 0.09756 0.60352 0.35836 0.0
O1344 O 0.16471 0.62724 0.36464 0.0
O1345 O 0.15132 0.63881 0.35073 0.0
O1346 O 0.12527 0.59089 0.33419 0.0
O1347 O 0.07025 0.57614 0.33891 0.0
O1348 O 0.16609 0.58398 0.34571 0.0
O1349 O 0.13305 0.55381 0.35621 0.0
O1350 O 0.06991 0.52056 0.34956 0.0
O1351 O 0.0852 0.51413 0.36374 0.0
H1352 H 0.08288 0.5831 0.39379 0.0
H1353 H 0.09542 0.61274 0.40819 0.0
H1354 H 0.21069 0.64264 0.40593 0.0
H1355 H 0.19816 0.61347 0.39148 0.0
H1356 H 0.11147 0.54318 0.3213 0.0
H1357 H 0.09202 0.52463 0.30611 0.0
H1358 H 1.02037 0.57209 0.30775 0.0
H1359 H 0.03913 0.58949 0.32295 0.0
La1360 La 0.465 0.55229 0.36614 0.0
La1361 La 0.45912 0.54472 0.34676 0.0
C1362 C 0.46331 0.56611 0.38236 0.0
C1363 C 0.4411 0.55223 0.39063 0.0
C1364 C 0.44253 0.52499 0.39585 0.0
C1365 C 0.42602 0.516 0.4042 0.0
C1366 C 0.40778 0.53416 0.40765 0.0
C1367 C 0.40556 0.5607 0.40231 0.0
C1368 C 0.42204 0.56965 0.39396 0.0
C1369 C 0.44767 0.48482 0.36007 0.0
C1370 C 0.38833 0.5325 0.35683 0.0
C1371 C 0.45547 0.52278 0.33105 0.0
C1372 C 0.47325 0.52311 0.32253 0.0
C1373 C 0.49361 0.55587 0.31761 0.0
C1374 C 0.50385 0.55434 0.30889 0.0
C1375 C 0.49384 0.52001 0.30483 0.0
C1376 C 0.47472 0.48747 0.30992 0.0
C1377 C 0.46459 0.48904 0.31862 0.0
C1378 C 0.46903 0.60904 0.35252 0.0
C1379 C 0.53984 0.57963 0.3558 0.0
O1380 O 0.47881 0.54787 0.37919 0.0
O1381 O 0.45099 0.57863 0.3761 0.0
O1382 O 0.4685 0.50118 0.36677 0.0
O1383 O 0.43596 0.50561 0.35727 0.0
O1384 O 0.40965 0.54547 0.36388 0.0
O1385 O 0.40044 0.52423 0.34961 0.0
O1386 O 0.45412 0.55244 0.33335 0.0
O1387 O 0.45908 0.50545 0.33783 0.0
O1388 O 0.45016 0.59186 0.34561 0.0
O1389 O 0.48454 0.59185 0.35559 0.0
O1390 O 0.51883 0.56253 0.34883 0.0
O1391 O 0.52448 0.5833 0.36307 0.0
H1392 H 0.45744 0.51134 0.3936 0.0
H1393 H 0.42884 0.49575 0.40809 0.0
H1394 H 0.39134 0.57495 0.40462 0.0
H1395 H 0.42072 0.59108 0.3902 0.0
H1396 H 0.50056 0.58262 0.32038 0.0
H1397 H 0.51912 0.58012 0.30529 0.0
H1398 H 0.46596 0.46042 0.30707 0.0
H1399 H 0.44835 0.46326 0.32217 0.0
La1400 La 0.48563 0.9241 0.36708 0.0
La1401 La 0.49593 0.92607 0.34784 0.0
C1402 C 0.47074 0.90847 0.38324 0.0
C1403 C 0.48525 0.90116 0.39154 0.0
C1404 C 0.50903 0.93051 0.39715 0.0
C1405 C 0.51872 0.92336 0.40545 0.0
C1406 C 0.50471 0.88664 0.40846 0.0
C1407 C 0.48158 0.85732 0.40276 0.0
C1408 C 0.47193 0.86447 0.39445 0.0
C1409 C 0.55401 0.97416 0.36149 0.0
C1410 C 0.50602 0.86708 0.35825 0.0
C1411 C 0.51939 0.94477 0.33225 0.0
C1412 C 0.5172 0.9603 0.32358 0.0
C1413 C 0.48851 0.93896 0.31758 0.0
C1414 C 0.4906 0.95043 0.30884 0.0
C1415 C 0.52153 0.98349 0.3058 0.0
C1416 C 0.54939 1.00557 0.31192 0.0
C1417 C 0.54731 0.99407 0.32066 0.0
C1418 C 0.43062 0.87163 0.35305 0.0
C1419 C 0.45904 0.97106 0.35644 0.0
O1420 O 0.48771 0.94225 0.38009 0.0
O1421 O 0.45972 0.88364 0.37698 0.0
O1422 O 0.5368 0.97875 0.36798 0.0
O1423 O 0.53357 0.94169 0.35863 0.0
O1424 O 0.49067 0.87464 0.36494 0.0
O1425 O 0.5172 0.88873 0.35122 0.0
O1426 O 0.49208 0.91211 0.33452 0.0
O1427 O 0.53387 0.96692 0.33903 0.0
O1428 O 0.44861 0.87023 0.34628 0.0
O1429 O 0.44746 0.90418 0.35623 0.0
O1430 O 0.47817 0.96839 0.34974 0.0
O1431 O 0.45363 0.95098 0.3636 0.0
H1432 H 0.51937 0.95914 0.39523 0.0
H1433 H 0.53618 0.94676 0.40964 0.0
H1434 H 0.4706 0.82867 0.40473 0.0
H1435 H 0.4532 0.84113 0.39038 0.0
H1436 H 0.46512 0.91248 0.31952 0.0
H1437 H 0.46871 0.93236 0.30436 0.0
H1438 H 0.57335 0.03152 0.30992 0.0
H1439 H 0.57014 1.01096 0.32505 0.0
H1440 H 0.11374 0.14155 0.17587 0.0
H1441 H 0.17995 0.19772 0.19864 0.0
H1442 H 0.12845 0.09229 0.17757 0.0
H1443 H 0.19458 0.14728 0.20042 0.0
H1444 H 0.18991 0.02929 0.17679 0.0
H1445 H 0.18491 0.08534 0.1761 0.0
H1446 H 0.15968 0.07605 0.20373 0.0
H1447 H 0.16456 0.01974 0.20445 0.0
C1448 C 0.13163 0.14349 0.18125 0.0
C1449 C 0.14595 0.17386 0.18707 0.0
C1450 C 0.14023 0.1152 0.18219 0.0
C1451 C 0.16315 0.11601 0.18905 0.0
C1452 C 0.17693 0.14592 0.19504 0.0
C1453 C 0.16864 0.17479 0.19403 0.0
C1454 C 0.18395 0.03944 0.18277 0.0
C1455 C 0.1774 0.01968 0.19066 0.0
C1456 C 0.18088 0.07154 0.18236 0.0
C1457 C 0.17153 0.08503 0.18985 0.0
C1458 C 0.16706 0.06654 0.19785 0.0
C1459 C 0.16972 0.03412 0.19825 0.0
H1460 H 1.02117 0.15046 0.20418 0.0
H1461 H 1.00679 0.17027 0.17706 0.0
H1462 H 0.96475 0.08948 0.20341 0.0
H1463 H 0.95041 0.1095 0.17633 0.0
H1464 H 0.89248 0.98216 0.17476 0.0
H1465 H 0.94167 0.04613 0.17649 0.0
H1466 H 0.89437 0.05296 0.20113 0.0
H1467 H 0.84408 0.98784 0.19934 0.0
C1468 C 1.00568 0.14217 0.19809 0.0
C1469 C 1.01886 0.16536 0.19065 0.0
C1470 C 0.97317 0.10718 0.19767 0.0
C1471 C 0.95317 0.09431 0.18979 0.0
C1472 C 0.96539 0.11826 0.18248 0.0
C1473 C 0.99768 0.1533 0.18292 0.0
C1474 C 0.8922 0.99717 0.18054 0.0
C1475 C 0.86409 0.97983 0.18689 0.0
C1476 C 0.92043 0.03412 0.1815 0.0
C1477 C 0.92187 0.05503 0.18889 0.0
C1478 C 0.89405 0.03767 0.19534 0.0
C1479 C 0.86523 1.00046 0.19432 0.0
H1480 H 0.03909 0.8526 0.17608 0.0
H1481 H 0.06911 0.9204 0.19934 0.0
H1482 H 0.97466 0.83777 0.17765 0.0
H1483 H 1.00523 0.90775 0.20073 0.0
H1484 H 0.88321 0.86613 0.20431 0.0
H1485 H 0.94313 0.86889 0.20385 0.0
H1486 H 0.9368 0.86264 0.17555 0.0
H1487 H 0.87608 0.85786 0.17611 0.0
C1488 C 0.03163 0.86402 0.18159 0.0
C1489 C 0.05883 0.88724 0.18765 0.0
C1490 C 0.99475 0.856 0.18245 0.0
C1491 C 0.98422 0.87181 0.18927 0.0
C1492 C 1.01164 0.8944 0.19546 0.0
C1493 C 0.04842 0.90182 0.19468 0.0
C1494 C 0.89439 0.86473 0.198 0.0
C1495 C 0.87467 0.86164 0.19025 0.0
C1496 C 0.92911 0.86673 0.19771 0.0
C1497 C 0.94556 0.86638 0.18966 0.0
C1498 C 0.92521 0.86236 0.18192 0.0
C1499 C 0.89021 0.85973 0.18222 0.0
H1500 H 0.149 0.10887 0.36909 0.0
H1501 H 0.2021 0.17127 0.34569 0.0
H1502 H 0.09969 0.12352 0.36748 0.0
H1503 H 0.1516 0.18579 0.34399 0.0
H1504 H 0.02434 0.15592 0.34041 0.0
H1505 H 0.08057 0.15097 0.34109 0.0
H1506 H 0.09221 0.17956 0.36855 0.0
H1507 H 0.03619 0.18455 0.36791 0.0
C1508 C 0.15022 0.12586 0.36358 0.0
C1509 C 0.17974 0.1391 0.35755 0.0
C1510 C 0.12193 0.13446 0.36269 0.0
C1511 C 0.12183 0.15625 0.35567 0.0
C1512 C 0.15092 0.16901 0.34949 0.0
C1513 C 0.17983 0.16077 0.35046 0.0
C1514 C 0.03922 0.16179 0.34657 0.0
C1515 C 0.02543 0.17041 0.35412 0.0
C1516 C 0.07159 0.15908 0.34693 0.0
C1517 C 0.09074 0.16449 0.35489 0.0
C1518 C 0.07789 0.17476 0.36234 0.0
C1519 C 0.04581 0.17783 0.36195 0.0
H1520 H 0.87126 0.8748 0.34118 0.0
H1521 H 0.86313 0.86932 0.36938 0.0
H1522 H 0.87357 0.93455 0.3414 0.0
H1523 H 0.86738 0.92995 0.3697 0.0
H1524 H 0.85712 0.03221 0.36864 0.0
H1525 H 0.84208 0.96754 0.36727 0.0
H1526 H 0.91303 0.99687 0.34444 0.0
H1527 H 0.92604 0.061 0.34563 0.0
C1528 C 0.86976 0.88629 0.34744 0.0
C1529 C 0.86693 0.86714 0.35526 0.0
C1530 C 0.8715 0.92091 0.34758 0.0
C1531 C 0.87111 0.93781 0.35557 0.0
C1532 C 0.86718 0.91797 0.36339 0.0
C1533 C 0.86483 0.88304 0.36322 0.0
C1534 C 0.86865 0.0244 0.36321 0.0
C1535 C 0.89228 0.05132 0.35717 0.0
C1536 C 0.86051 0.98741 0.36248 0.0
C1537 C 0.87656 0.9765 0.3558 0.0
C1538 C 0.8995 1.00361 0.34961 0.0
C1539 C 0.90709 0.04052 0.35027 0.0
H1540 H 0.99674 0.83547 0.3474 0.0
H1541 H 0.98664 0.88911 0.37065 0.0
H1542 H 0.06207 0.88533 0.34592 0.0
H1543 H 0.05083 0.93806 0.36922 0.0
H1544 H 0.1748 1.00459 0.36979 0.0
H1545 H 0.11393 0.94834 0.37061 0.0
H1546 H 0.09937 0.95385 0.34275 0.0
H1547 H 0.1604 1.0099 0.34189 0.0
C1548 C 1.00842 0.85775 0.35218 0.0
C1549 C 0.9865 0.85816 0.35916 0.0
C1550 C 0.04577 0.88633 0.35135 0.0
C1551 C 0.06199 0.91556 0.35753 0.0
C1552 C 0.03976 0.91572 0.36445 0.0
C1553 C 1.00268 0.88764 0.36522 0.0
C1554 C 0.15901 0.99351 0.3638 0.0
C1555 C 0.17261 1.01213 0.35579 0.0
C1556 C 0.12389 0.96133 0.36428 0.0
C1557 C 0.10139 0.94671 0.35676 0.0
C1558 C 0.11587 0.96412 0.34867 0.0
C1559 C 0.15092 0.99646 0.34819 0.0
H1560 H 0.85609 0.835 0.86827 0.0
H1561 H 0.93077 0.8786 0.84631 0.0
H1562 H 0.84123 0.88475 0.8668 0.0
H1563 H 0.91763 0.92959 0.84499 0.0
H1564 H 0.87469 1.00875 0.84115 0.0
H1565 H 0.87749 0.95156 0.84141 0.0
H1566 H 0.86683 0.94795 0.86963 0.0
H1567 H 0.86239 1.00421 0.86929 0.0
C1568 C 0.8689 0.85509 0.86304 0.0
C1569 C 0.89411 0.85278 0.85732 0.0
C1570 C 0.86083 0.88397 0.86225 0.0
C1571 C 0.8784 0.91179 0.85582 0.0
C1572 C 0.90296 0.90862 0.84994 0.0
C1573 C 0.91061 0.8794 0.85068 0.0
C1574 C 0.87235 0.99542 0.84741 0.0
C1575 C 0.86826 1.01118 0.8552 0.0
C1576 C 0.87434 0.96267 0.84757 0.0
C1577 C 0.8728 0.9449 0.85554 0.0
C1578 C 0.86758 0.96019 0.86332 0.0
C1579 C 0.86513 0.9927 0.86314 0.0
H1580 H 0.20221 0.04399 0.84611 0.0
H1581 H 0.15184 0.05112 0.87024 0.0
H1582 H 0.15161 0.97898 0.8443 0.0
H1583 H 0.10241 0.98726 0.8685 0.0
H1584 H 0.03806 0.86293 0.86831 0.0
H1585 H 0.09417 0.92385 0.86899 0.0
H1586 H 0.08074 0.94245 0.84176 0.0
H1587 H 0.02443 0.88126 0.84104 0.0
C1588 C 0.18056 0.03172 0.85102 0.0
C1589 C 0.18126 0.05273 0.85834 0.0
C1590 C 0.15156 0.99458 0.84998 0.0
C1591 C 0.12313 0.97765 0.85632 0.0
C1592 C 0.12409 0.99895 0.86358 0.0
C1593 C 0.15248 0.03583 0.86454 0.0
C1594 C 0.04725 0.87962 0.86241 0.0
C1595 C 0.02635 0.86705 0.85464 0.0
C1596 C 0.07942 0.91475 0.86282 0.0
C1597 C 0.09185 0.93833 0.85546 0.0
C1598 C 0.07213 0.92502 0.84754 0.0
C1599 C 0.0397 0.88991 0.84715 0.0
H1600 H 0.99527 0.16961 0.84655 0.0
H1601 H 0.98859 0.11168 0.87055 0.0
H1602 H 0.06051 0.18501 0.8448 0.0
H1603 H 0.05272 0.12707 0.86888 0.0
H1604 H 0.17682 0.18688 0.86867 0.0
H1605 H 0.11598 0.18228 0.86946 0.0
H1606 H 0.09702 0.15125 0.84214 0.0
H1607 H 0.158 0.15598 0.84131 0.0
C1608 C 1.0077 0.16034 0.85145 0.0
C1609 C 0.98677 0.1396 0.85871 0.0
C1610 C 0.04497 0.16906 0.85045 0.0
C1611 C 0.06207 0.15771 0.85677 0.0
C1612 C 0.04086 0.13698 0.86398 0.0
C1613 C 1.00385 0.12792 0.8649 0.0
C1614 C 0.16006 0.17973 0.86278 0.0
C1615 C 0.17237 0.17154 0.85495 0.0
C1616 C 0.12501 0.17687 0.86324 0.0
C1617 C 0.10136 0.16597 0.85588 0.0
C1618 C 0.11451 0.15985 0.84792 0.0
C1619 C 0.14949 0.16242 0.84747 0.0
H1620 H 0.84475 0.86397 0.69908 0.0
H1621 H 0.89526 0.9213 0.67497 0.0
H1622 H 0.89502 0.84919 0.70085 0.0
H1623 H 0.94444 0.90654 0.67667 0.0
H1624 H 1.02157 0.87868 0.70432 0.0
H1625 H 0.96523 0.88325 0.70347 0.0
H1626 H 0.95322 0.85184 0.67618 0.0
H1627 H 1.00953 0.84739 0.67699 0.0
C1628 C 0.86638 0.87325 0.69416 0.0
C1629 C 0.86585 0.89362 0.68686 0.0
C1630 C 0.89518 0.86488 0.69518 0.0
C1631 C 0.92357 0.87626 0.68884 0.0
C1632 C 0.92275 0.89663 0.68159 0.0
C1633 C 0.89453 0.90532 0.68064 0.0
C1634 C 1.00663 0.87214 0.69817 0.0
C1635 C 1.02042 0.86292 0.6907 0.0
C1636 C 0.97416 0.87462 0.6977 0.0
C1637 C 0.95484 0.86831 0.68974 0.0
C1638 C 0.96768 0.8574 0.68239 0.0
C1639 C 0.99992 0.85463 0.68287 0.0
H1640 H 0.17442 0.15839 0.70433 0.0
H1641 H 0.18137 0.16391 0.67611 0.0
H1642 H 0.17184 0.09849 0.704 0.0
H1643 H 0.17684 0.10324 0.67569 0.0
H1644 H 0.18772 1.0015 0.67642 0.0
H1645 H 0.20248 0.06601 0.67791 0.0
H1646 H 0.13278 0.03604 0.70098 0.0
H1647 H 0.12014 0.97206 0.69966 0.0
C1648 C 0.17557 0.14688 0.69804 0.0
C1649 C 0.17823 0.16614 0.69025 0.0
C1650 C 0.17369 0.11218 0.69784 0.0
C1651 C 0.17378 0.09532 0.68981 0.0
C1652 C 0.17734 0.11519 0.68203 0.0
C1653 C 0.17982 0.15015 0.68225 0.0
C1654 C 0.17637 1.00911 0.68192 0.0
C1655 C 0.1532 0.98205 0.68799 0.0
C1656 C 0.18435 0.04603 0.68272 0.0
C1657 C 0.16854 0.05671 0.68951 0.0
C1658 C 0.14609 0.02948 0.69573 0.0
C1659 C 0.1387 0.99265 0.695 0.0
H1660 H 0.88361 0.02626 0.7043 0.0
H1661 H 0.87711 0.02686 0.67608 0.0
H1662 H 0.94342 0.08363 0.70388 0.0
H1663 H 0.93773 0.08298 0.67557 0.0
H1664 H 0.03988 0.19524 0.67607 0.0
H1665 H 0.97539 0.14579 0.67766 0.0
H1666 H 1.00561 0.10694 0.70084 0.0
H1667 H 0.06957 0.15805 0.69943 0.0
C1668 C 0.89489 0.03877 0.69799 0.0
C1669 C 0.8754 0.02193 0.69022 0.0
C1670 C 0.92955 0.0716 0.69773 0.0
C1671 C 0.94615 0.08829 0.68968 0.0
C1672 C 0.92601 0.07176 0.68193 0.0
C1673 C 0.89107 0.03928 0.6822 0.0
C1674 C 0.03233 0.17654 0.68162 0.0
C1675 C 0.05947 0.18062 0.68769 0.0
C1676 C 0.99541 0.14776 0.68248 0.0
C1677 C 0.98478 0.12158 0.68932 0.0
C1678 C 1.01211 0.12656 0.69555 0.0
C1679 C 0.04894 0.15588 0.69476 0.0
H1680 H 0.83037 0.35412 0.53724 0.0
H1681 H 0.86264 0.36701 0.50999 0.0
H1682 H 0.82524 0.41016 0.53642 0.0
H1683 H 0.85771 0.42312 0.50921 0.0
H1684 H 0.84273 0.52976 0.53238 0.0
H1685 H 0.85819 0.47993 0.53406 0.0
H1686 H 0.80335 0.43198 0.5095 0.0
H1687 H 0.78799 0.48083 0.50788 0.0
C1688 C 0.83702 0.36922 0.5311 0.0
C1689 C 0.84667 0.35573 0.52365 0.0
C1690 C 0.83422 0.40152 0.53066 0.0
C1691 C 0.84064 0.42101 0.52273 0.0
C1692 C 0.85202 0.40851 0.5154 0.0
C1693 C 0.8551 0.37641 0.51586 0.0
C1694 C 0.83416 0.50855 0.52736 0.0
C1695 C 0.8143 0.5094 0.51999 0.0
C1696 C 0.84291 0.48 0.52831 0.0
C1697 C 0.83243 0.45213 0.52185 0.0
C1698 C 0.8126 0.45327 0.51452 0.0
C1699 C 0.80354 0.48128 0.51362 0.0
H1700 H 0.55987 0.31414 0.508 0.0
H1701 H 0.51046 0.32159 0.53225 0.0
H1702 H 0.60868 0.37851 0.50951 0.0
H1703 H 0.56019 0.38697 0.53381 0.0
H1704 H 0.68548 0.48437 0.53731 0.0
H1705 H 0.62939 0.42338 0.53638 0.0
H1706 H 0.6186 0.44212 0.50899 0.0
H1707 H 0.67487 0.50311 0.50989 0.0
C1708 C 0.5593 0.32964 0.51366 0.0
C1709 C 0.53109 0.31266 0.52 0.0
C1710 C 0.58727 0.36679 0.51449 0.0
C1711 C 0.5883 0.38824 0.52172 0.0
C1712 C 0.56025 0.37127 0.52814 0.0
C1713 C 0.53174 0.33389 0.52726 0.0
C1714 C 0.67087 0.47581 0.53111 0.0
C1715 C 0.685 0.49873 0.52365 0.0
C1716 C 0.63851 0.4408 0.5306 0.0
C1717 C 0.61957 0.42755 0.5226 0.0
C1718 C 0.63274 0.45119 0.51524 0.0
C1719 C 0.66492 0.48634 0.51576 0.0
H1720 H 0.55799 0.21256 0.53769 0.0
H1721 H 0.53675 0.17754 0.51062 0.0
H1722 H 0.61898 0.21738 0.53676 0.0
H1723 H 0.59762 0.18225 0.50972 0.0
H1724 H 0.72504 0.25249 0.50797 0.0
H1725 H 0.66097 0.23719 0.50977 0.0
H1726 H 0.65534 0.18347 0.53438 0.0
H1727 H 0.7205 0.19879 0.53251 0.0
C1728 C 0.56599 0.20525 0.53158 0.0
C1729 C 0.54238 0.19491 0.52421 0.0
C1730 C 0.60098 0.20788 0.53107 0.0
C1731 C 0.61346 0.20059 0.52314 0.0
C1732 C 0.58914 0.18856 0.5159 0.0
C1733 C 0.55406 0.18564 0.51643 0.0
C1734 C 0.71026 0.23718 0.51376 0.0
C1735 C 0.72794 0.2267 0.52008 0.0
C1736 C 0.67327 0.22816 0.51476 0.0
C1737 C 0.6527 0.20869 0.52216 0.0
C1738 C 0.67039 0.19846 0.52858 0.0
C1739 C 0.70761 0.20712 0.52751 0.0
H1740 H 0.8688 0.51188 0.70329 0.0
H1741 H 0.83425 0.44909 0.67925 0.0
H1742 H 0.81932 0.52686 0.7018 0.0
H1743 H 0.78299 0.46174 0.67794 0.0
H1744 H 0.70176 0.50262 0.67487 0.0
H1745 H 0.7592 0.50037 0.67528 0.0
H1746 H 0.75663 0.50147 0.70362 0.0
H1747 H 0.70052 0.5059 0.70312 0.0
C1748 C 0.85065 0.50158 0.69763 0.0
C1749 C 0.8555 0.47971 0.69133 0.0
C1750 C 0.82184 0.50968 0.69682 0.0
C1751 C 0.79632 0.49518 0.68981 0.0
C1752 C 0.80208 0.47405 0.68337 0.0
C1753 C 0.83148 0.46664 0.6841 0.0
C1754 C 0.71388 0.50303 0.68119 0.0
C1755 C 0.69654 0.5046 0.68897 0.0
C1756 C 0.74676 0.50131 0.68143 0.0
C1757 C 0.76294 0.50037 0.68948 0.0
C1758 C 0.74586 0.50283 0.69726 0.0
C1759 C 0.71337 0.50525 0.697 0.0
H1760 H 0.52273 0.19608 0.70207 0.0
H1761 H 0.5554 0.21579 0.67485 0.0
H1762 H 0.52698 0.25678 0.70288 0.0
H1763 H 0.55982 0.27669 0.6757 0.0
H1764 H 0.53992 0.37766 0.67991 0.0
H1765 H 0.52575 0.31275 0.6781 0.0
H1766 H 0.58091 0.32036 0.70263 0.0
H1767 H 0.59502 0.38414 0.70437 0.0
C1768 C 0.53028 0.21303 0.69621 0.0
C1769 C 0.53896 0.20093 0.68842 0.0
C1770 C 0.53294 0.24803 0.69669 0.0
C1771 C 0.54415 0.27192 0.68938 0.0
C1772 C 0.55094 0.25904 0.68145 0.0
C1773 C 0.54855 0.2241 0.68098 0.0
C1774 C 0.54883 0.36526 0.6849 0.0
C1775 C 0.5684 0.38605 0.6923 0.0
C1776 C 0.54083 0.32817 0.68387 0.0
C1777 C 0.55177 0.31108 0.69029 0.0
C1778 C 0.57133 0.33216 0.69765 0.0
C1779 C 0.57966 0.36899 0.69861 0.0
H1780 H 0.83255 0.3411 0.67455 0.0
H1781 H 0.83836 0.34183 0.70278 0.0
H1782 H 0.7728 0.28364 0.67501 0.0
H1783 H 0.77782 0.28571 0.70334 0.0
H1784 H 0.67639 0.17298 0.70304 0.0
H1785 H 0.74062 0.22296 0.70148 0.0
H1786 H 0.71042 0.25928 0.67787 0.0
H1787 H 0.64675 0.20758 0.67927 0.0
C1788 C 0.82111 0.3289 0.68087 0.0
C1789 C 0.84046 0.34611 0.68863 0.0
C1790 C 0.78648 0.296 0.68115 0.0
C1791 C 0.76973 0.2796 0.68922 0.0
C1792 C 0.78965 0.29662 0.69697 0.0
C1793 C 0.82456 0.32914 0.69667 0.0
C1794 C 0.68389 0.19124 0.69742 0.0
C1795 C 0.65683 0.18622 0.69122 0.0
C1796 C 0.72067 0.22035 0.69656 0.0
C1797 C 0.73124 0.24601 0.6896 0.0
C1798 C 0.704 0.24011 0.68326 0.0
C1799 C 0.66732 0.21044 0.68404 0.0
H1800 H 0.59332 0.21823 0.20429 0.0
H1801 H 0.53784 0.16794 0.17994 0.0
H1802 H 0.57826 0.26718 0.20249 0.0
H1803 H 0.52276 0.21798 0.17807 0.0
H1804 H 0.51925 0.33231 0.20177 0.0
H1805 H 0.52351 0.27586 0.20268 0.0
H1806 H 0.55687 0.28821 0.17555 0.0
H1807 H 0.55248 0.34465 0.1746 0.0
C1808 C 0.57767 0.21749 0.19854 0.0
C1809 C 0.5666 0.18895 0.19228 0.0
C1810 C 0.5688 0.24557 0.19754 0.0
C1811 C 0.54888 0.2464 0.1902 0.0
C1812 C 0.53809 0.21812 0.18382 0.0
C1813 C 0.54662 0.18946 0.18489 0.0
C1814 C 0.52685 0.32272 0.19595 0.0
C1815 C 0.53578 0.34335 0.18814 0.0
C1816 C 0.52952 0.29041 0.19648 0.0
C1817 C 0.54094 0.27764 0.18921 0.0
C1818 C 0.54784 0.29708 0.18126 0.0
C1819 C 0.54547 0.3296 0.18074 0.0
H1820 H 0.86959 0.36391 0.20257 0.0
H1821 H 0.8313 0.39337 0.17936 0.0
H1822 H 0.8198 0.29943 0.2011 0.0
H1823 H 0.77993 0.32943 0.17806 0.0
H1824 H 0.69893 0.20716 0.17474 0.0
H1825 H 0.75632 0.26701 0.17504 0.0
H1826 H 0.75705 0.26213 0.20335 0.0
H1827 H 0.70088 0.20151 0.20295 0.0
C1828 C 0.85059 0.35631 0.19708 0.0
C1829 C 0.85448 0.38337 0.19101 0.0
C1830 C 0.82163 0.3194 0.19629 0.0
C1831 C 0.79508 0.30872 0.18951 0.0
C1832 C 0.79984 0.33597 0.1833 0.0
C1833 C 0.82931 0.37278 0.18402 0.0
C1834 C 0.71173 0.21863 0.18102 0.0
C1835 C 0.69527 0.19935 0.18882 0.0
C1836 C 0.74458 0.2533 0.18121 0.0
C1837 C 0.76168 0.27012 0.18922 0.0
C1838 C 0.74551 0.25022 0.19701 0.0
C1839 C 0.713 0.21528 0.1968 0.0
H1840 H 0.84373 0.51637 0.20201 0.0
H1841 H 0.82533 0.48621 0.17461 0.0
H1842 H 0.783 0.51199 0.20277 0.0
H1843 H 0.76444 0.4817 0.17541 0.0
H1844 H 0.66338 0.50118 0.17962 0.0
H1845 H 0.72836 0.51563 0.17797 0.0
H1846 H 0.71939 0.45804 0.20218 0.0
H1847 H 0.6555 0.44362 0.20376 0.0
C1848 C 0.82707 0.50937 0.1961 0.0
C1849 C 0.83955 0.50142 0.18827 0.0
C1850 C 0.79205 0.50663 0.19655 0.0
C1851 C 0.76853 0.4961 0.18917 0.0
C1852 C 0.78179 0.49005 0.18121 0.0
C1853 C 0.81673 0.49249 0.18077 0.0
C1854 C 0.67549 0.49179 0.18457 0.0
C1855 C 0.65426 0.47142 0.19184 0.0
C1856 C 0.71262 0.49996 0.18363 0.0
C1857 C 0.72935 0.4884 0.19001 0.0
C1858 C 0.70787 0.46808 0.19723 0.0
C1859 C 0.67098 0.45959 0.1981 0.0
H1860 H 0.67336 0.17916 1.01024 0.0
H1861 H 0.68549 0.21117 0.03752 0.0
H1862 H 0.61716 0.18374 1.00936 0.0
H1863 H 0.62926 0.21591 0.0366 0.0
H1864 H 0.50895 0.19685 0.03216 0.0
H1865 H 0.55918 0.18207 0.03401 0.0
H1866 H 0.60832 0.2383 1.0097 0.0
H1867 H 0.55915 0.25302 1.00792 0.0
C1868 C 0.66381 0.18661 1.01609 0.0
C1869 C 0.68429 0.19504 0.02393 0.0
C1870 C 0.63162 0.18946 1.01557 0.0
C1871 C 0.61883 0.20061 0.02289 0.0
C1872 C 0.63815 0.20709 0.03085 0.0
C1873 C 0.67055 0.20451 0.03136 0.0
C1874 C 0.5305 0.20587 0.02723 0.0
C1875 C 0.52989 0.22592 1.01987 0.0
C1876 C 0.55928 0.19751 0.02829 0.0
C1877 C 0.58759 0.20857 1.02194 0.0
C1878 C 0.5867 0.22862 1.01463 0.0
C1879 C 0.55849 0.2373 1.01364 0.0
H1880 H 0.78389 0.3035 0.03308 0.0
H1881 H 0.85112 0.33291 1.00979 0.0
H1882 H 0.79644 0.36747 0.0344 0.0
H1883 H 0.86576 0.39737 1.01127 0.0
H1884 H 0.84481 0.49518 1.00944 0.0
H1885 H 0.83998 0.43443 1.00906 0.0
H1886 H 0.83535 0.4301 0.03737 0.0
H1887 H 0.83826 0.49019 0.03767 0.0
C1888 C 0.80234 0.32407 0.0284 0.0
C1889 C 0.81679 0.31346 1.02138 0.0
C1890 C 0.80967 0.3609 0.02914 0.0
C1891 C 0.83198 0.38812 0.0229 0.0
C1892 C 0.84773 0.37741 1.0161 0.0
C1893 C 0.83982 0.34051 1.01529 0.0
C1894 C 0.84324 0.48151 1.01559 0.0
C1895 C 0.84193 0.49774 0.02358 0.0
C1896 C 0.84062 0.44648 1.01539 0.0
C1897 C 0.83715 0.42672 0.02319 0.0
C1898 C 0.83718 0.44372 0.0312 0.0
C1899 C 0.83925 0.47854 0.03139 0.0
H1900 H 0.54851 0.35799 0.03743 0.0
H1901 H 0.54195 0.36028 1.00923 0.0
H1902 H 0.6084 0.41525 0.03712 0.0
H1903 H 0.60264 0.41646 1.00883 0.0
H1904 H 0.70483 0.52906 1.00976 0.0
H1905 H 0.64029 0.47943 1.01123 0.0
H1906 H 0.67063 0.43814 0.03395 0.0
H1907 H 0.73466 0.48924 0.03265 0.0
C1908 C 0.55978 0.37084 0.03115 0.0
C1909 C 0.54025 0.35446 0.02335 0.0
C1910 C 0.59448 0.40363 0.03096 0.0
C1911 C 0.61108 0.4208 0.02295 0.0
C1912 C 0.59091 0.4048 1.01516 0.0
C1913 C 0.55593 0.3723 1.01537 0.0
C1914 C 0.69729 0.5098 1.01519 0.0
C1915 C 0.72448 0.5132 1.02117 0.0
C1916 C 0.66036 0.48093 1.01598 0.0
C1917 C 0.64976 0.45405 1.02266 0.0
C1918 C 0.67713 0.45833 0.02879 0.0
C1919 C 0.71399 0.48765 0.02807 0.0
H1920 H 0.52102 0.86207 0.84311 0.0
H1921 H 0.45261 0.82402 0.86622 0.0
H1922 H 0.536 0.81254 0.84474 0.0
H1923 H 0.46544 0.77291 0.86766 0.0
H1924 H 0.50646 0.69232 0.87143 0.0
H1925 H 0.504 0.74965 0.8709 0.0
H1926 H 0.512 0.74989 0.84264 0.0
H1927 H 0.51651 0.69371 0.84328 0.0
C1928 C 0.50955 0.84319 0.84861 0.0
C1929 C 0.48613 0.84712 0.85461 0.0
C1930 C 0.51764 0.81435 0.84949 0.0
C1931 C 0.50174 0.78795 0.85629 0.0
C1932 C 0.47892 0.79271 0.86242 0.0
C1933 C 0.4714 0.82204 0.86161 0.0
C1934 C 0.50835 0.70502 0.86511 0.0
C1935 C 0.51181 0.68836 0.8574 0.0
C1936 C 0.5065 0.73784 0.86479 0.0
C1937 C 0.50731 0.75474 0.85672 0.0
C1938 C 0.51186 0.73848 0.84902 0.0
C1939 C 0.51438 0.70599 0.84936 0.0
H1940 H 0.21745 0.6378 0.86625 0.0
H1941 H 0.17746 0.66884 0.84359 0.0
H1942 H 0.26898 0.70168 0.86763 0.0
H1943 H 0.22753 0.7332 0.84514 0.0
H1944 H 0.34678 0.83023 0.84296 0.0
H1945 H 0.29051 0.76974 0.84262 0.0
H1946 H 0.29257 0.76427 0.8709 0.0
H1947 H 0.35 0.82413 0.87116 0.0
C1948 C 0.21912 0.65871 0.86174 0.0
C1949 C 0.19342 0.64862 0.85487 0.0
C1950 C 0.24867 0.69546 0.8625 0.0
C1951 C 0.25302 0.72307 0.85645 0.0
C1952 C 0.22596 0.71289 0.84982 0.0
C1953 C 0.19686 0.67608 0.84898 0.0
C1954 C 0.335 0.81637 0.84912 0.0
C1955 C 0.35309 0.83219 0.85708 0.0
C1956 C 0.30241 0.78152 0.84894 0.0
C1957 C 0.28655 0.76154 0.85673 0.0
C1958 C 0.30406 0.77813 0.86473 0.0
C1959 C 0.33694 0.81279 0.86489 0.0
H1960 H 0.39215 0.59131 0.84189 0.0
H1961 H 0.38565 0.53347 0.86589 0.0
H1962 H 0.32835 0.57682 0.84372 0.0
H1963 H 0.32074 0.51899 0.8678 0.0
H1964 H 0.2221 0.54665 0.8712 0.0
H1965 H 0.2836 0.55244 0.87043 0.0
H1966 H 0.26528 0.5212 0.84312 0.0
H1967 H 0.20399 0.51549 0.84385 0.0
C1968 C 0.37704 0.57538 0.84759 0.0
C1969 C 0.39404 0.56334 0.85372 0.0
C1970 C 0.3402 0.56684 0.8486 0.0
C1971 C 0.31907 0.54624 0.85583 0.0
C1972 C 0.33621 0.53482 0.86213 0.0
C1973 C 0.37332 0.54306 0.86105 0.0
C1974 C 0.23089 0.5404 0.86506 0.0
C1975 C 0.20799 0.53083 0.85757 0.0
C1976 C 0.26617 0.5436 0.86464 0.0
C1977 C 0.27965 0.53771 0.8567 0.0
C1978 C 0.25604 0.52647 0.84932 0.0
C1979 C 0.22071 0.52297 0.84975 0.0
H1980 H 0.53639 0.83432 1.01319 0.0
H1981 H 0.48627 0.77857 0.03748 0.0
H1982 H 0.48667 0.84985 1.01141 0.0
H1983 H 0.4376 0.79406 0.03577 0.0
H1984 H 0.36048 0.82118 1.008 0.0
H1985 H 0.41664 0.81634 1.00889 0.0
H1986 H 0.42931 0.84903 0.0361 0.0
H1987 H 0.37313 0.85372 0.03525 0.0
C1988 C 0.51496 0.82556 1.01814 0.0
C1989 C 0.51543 0.80538 0.02549 0.0
C1990 C 0.48649 0.83436 1.01713 0.0
C1991 C 0.45835 0.82363 0.02351 0.0
C1992 C 0.45912 0.80349 0.03082 0.0
C1993 C 0.48702 0.79436 0.03176 0.0
C1994 C 0.37555 0.82796 1.01415 0.0
C1995 C 0.36196 0.83757 1.02158 0.0
C1996 C 0.40791 0.82533 1.01463 0.0
C1997 C 0.42733 0.83188 1.02258 0.0
C1998 C 0.41475 0.84327 0.02989 0.0
C1999 C 0.3826 0.84619 0.0294 0.0
H2000 H 0.26153 0.71747 0.03725 0.0
H2001 H 0.20377 0.70953 1.01311 0.0
H2002 H 0.24653 0.65333 0.03571 0.0
H2003 H 0.18871 0.64428 1.01152 0.0
H2004 H 0.21724 0.5468 1.00815 0.0
H2005 H 0.22202 0.60782 1.00895 0.0
H2006 H 0.19255 0.58981 0.03635 0.0
H2007 H 0.18793 0.52887 0.03558 0.0
C2008 C 0.24539 0.70192 0.0316 0.0
C2009 C 0.23368 0.7187 0.02532 0.0
C2010 C 0.23655 0.66489 0.03076 0.0
C2011 C 0.216 0.64331 0.02356 0.0
C2012 C 0.20455 0.66009 1.01717 0.0
C2013 C 0.21308 0.69738 1.01808 0.0
C2014 C 0.2112 0.55553 1.01432 0.0
C2015 C 0.20244 0.53282 1.02182 0.0
C2016 C 0.21378 0.59055 1.01476 0.0
C2017 C 0.20805 0.60401 1.02273 0.0
C2018 C 0.19766 0.58059 0.03012 0.0
C2019 C 0.19477 0.54546 0.02967 0.0
H2020 H 0.31131 0.53822 1.01258 0.0
H2021 H 0.33926 0.50521 0.03684 0.0
H2022 H 0.37522 0.58943 1.01121 0.0
H2023 H 0.40373 0.55454 0.03529 0.0
H2024 H 0.50224 0.67283 0.03635 0.0
H2025 H 0.4415 0.61706 0.03692 0.0
H2026 H 0.43754 0.61343 1.00858 0.0
H2027 H 0.49749 0.67069 1.0081 0.0
C2028 C 0.33155 0.54133 1.01748 0.0
C2029 C 0.3205 0.51776 0.02478 0.0
C2030 C 0.36838 0.5707 1.01671 0.0
C2031 C 0.39524 0.57686 0.02318 0.0
C2032 C 0.3841 0.55178 0.03027 0.0
C2033 C 0.34717 0.52304 0.03112 0.0
C2034 C 0.48864 0.65984 0.03024 0.0
C2035 C 0.50486 0.67633 1.02219 0.0
C2036 C 0.4536 0.62752 0.03055 0.0
C2037 C 0.4339 0.61018 0.0228 0.0
C2038 C 0.45103 0.62605 1.01472 0.0
C2039 C 0.48577 0.65881 1.01443 0.0
H2040 H 0.2065 0.50314 0.51278 0.0
H2041 H 0.26185 0.55233 0.5372 0.0
H2042 H 0.1916 0.55341 0.51106 0.0
H2043 H 0.247 0.60147 0.53556 0.0
H2044 H 0.18777 0.66642 0.53522 0.0
H2045 H 0.19248 0.61021 0.53591 0.0
H2046 H 0.22518 0.62375 0.50872 0.0
H2047 H 0.22032 0.68001 0.50799 0.0
C2048 C 0.2153 0.52446 0.51778 0.0
C2049 C 0.23516 0.52354 0.52515 0.0
C2050 C 0.20688 0.55327 0.5168 0.0
C2051 C 0.21767 0.5813 0.52324 0.0
C2052 C 0.23752 0.58008 0.53056 0.0
C2053 C 0.24627 0.55187 0.53147 0.0
C2054 C 0.19536 0.65719 0.52934 0.0
C2055 C 0.20389 0.6781 0.52157 0.0
C2056 C 0.19828 0.62499 0.52974 0.0
C2057 C 0.20962 0.61257 0.52239 0.0
C2058 C 0.21622 0.63232 0.51449 0.0
C2059 C 0.21356 0.66474 0.5141 0.0
H2060 H 0.53605 0.69887 0.53612 0.0
H2061 H 0.49973 0.72741 0.51245 0.0
H2062 H 0.48686 0.63421 0.53456 0.0
H2063 H 0.44884 0.66328 0.51106 0.0
H2064 H 0.36848 0.54103 0.50771 0.0
H2065 H 0.42564 0.60103 0.50817 0.0
H2066 H 0.42421 0.59618 0.53649 0.0
H2067 H 0.36835 0.53535 0.53594 0.0
C2068 C 0.51759 0.69104 0.53052 0.0
C2069 C 0.52187 0.7179 0.52435 0.0
C2070 C 0.48894 0.65401 0.52967 0.0
C2071 C 0.46306 0.64299 0.52274 0.0
C2072 C 0.46823 0.67006 0.51643 0.0
C2073 C 0.49742 0.70699 0.5172 0.0
C2074 C 0.38079 0.55254 0.51403 0.0
C2075 C 0.36381 0.53321 0.52179 0.0
C2076 C 0.4135 0.58732 0.51431 0.0
C2077 C 0.42991 0.60422 0.52237 0.0
C2078 C 0.41324 0.58424 0.53012 0.0
C2079 C 0.3809 0.54917 0.52983 0.0
H2080 H 0.49775 0.83078 0.50774 0.0
H2081 H 0.50508 0.84028 0.53592 0.0
H2082 H 0.43777 0.82794 0.50815 0.0
H2083 H 0.44439 0.83555 0.53643 0.0
H2084 H 0.34259 0.84641 0.53577 0.0
H2085 H 0.40693 0.86091 0.53417 0.0
H2086 H 0.37552 0.78922 0.51139 0.0
H2087 H 0.3117 0.77675 0.51282 0.0
C2088 C 0.48663 0.83243 0.51404 0.0
C2089 C 0.50645 0.83589 0.5218 0.0
C2090 C 0.45188 0.8304 0.51429 0.0
C2091 C 0.43553 0.83119 0.52233 0.0
C2092 C 0.45592 0.8355 0.53007 0.0
C2093 C 0.49091 0.83809 0.5298 0.0
C2094 C 0.34984 0.83457 0.53031 0.0
C2095 C 0.32241 0.81091 0.52435 0.0
C2096 C 0.38667 0.8424 0.52944 0.0
C2097 C 0.39693 0.82598 0.5227 0.0
C2098 C 0.36931 0.803 0.51659 0.0
C2099 C 0.33256 0.79572 0.51739 0.0
H2100 H 0.21864 0.59298 0.36555 0.0
H2101 H 0.17349 0.51508 0.34416 0.0
H2102 H 0.27002 0.58045 0.36691 0.0
H2103 H 0.2237 0.50094 0.34567 0.0
H2104 H 0.343 0.52278 0.3428 0.0
H2105 H 0.28676 0.52708 0.34256 0.0
H2106 H 0.29282 0.5409 0.37071 0.0
H2107 H 0.35001 0.53809 0.37087 0.0
C2108 C 0.21918 0.57226 0.36133 0.0
C2109 C 0.19197 0.55463 0.35483 0.0
C2110 C 0.24864 0.56497 0.36208 0.0
C2111 C 0.25152 0.53973 0.35636 0.0
C2112 C 0.22315 0.52107 0.35009 0.0
C2113 C 0.19399 0.52873 0.34929 0.0
C2114 C 0.3321 0.52622 0.34896 0.0
C2115 C 0.35124 0.5301 0.35685 0.0
C2116 C 0.29956 0.52857 0.34884 0.0
C2117 C 0.28487 0.53452 0.35661 0.0
C2118 C 0.3034 0.53706 0.36455 0.0
C2119 C 0.33616 0.53507 0.36465 0.0
H2120 H 0.53399 0.66771 0.35912 0.0
H2121 H 0.4231 0.63673 0.35068 0.0
H2122 H 0.54813 0.73267 0.36102 0.0
H2123 H 0.43677 0.70077 0.35284 0.0
H2124 H 0.47021 0.80934 0.36967 0.0
H2125 H 0.46479 0.74813 0.3691 0.0
H2126 H 0.53814 0.78208 0.34681 0.0
H2127 H 0.5431 0.84371 0.34717 0.0
C2128 C 0.51254 0.67465 0.35783 0.0
C2129 C 0.47741 0.64723 0.35478 0.0
C2130 C 0.5207 0.71174 0.35884 0.0
C2131 C 0.49354 0.72162 0.35702 0.0
C2132 C 0.45819 0.69389 0.35425 0.0
C2133 C 0.45037 0.65727 0.35305 0.0
C2134 C 0.48582 0.80426 0.36471 0.0
C2135 C 0.50714 0.83168 0.35845 0.0
C2136 C 0.48262 0.76907 0.36441 0.0
C2137 C 0.50124 0.76052 0.35796 0.0
C2138 C 0.52384 0.7882 0.35191 0.0
C2139 C 0.52654 0.82338 0.3521 0.0
H2140 H 0.23045 0.671 0.36922 0.0
H2141 H 0.19643 0.71005 0.34676 0.0
H2142 H 0.2915 0.72693 0.36882 0.0
H2143 H 0.25793 0.76691 0.34657 0.0
H2144 H 0.37072 0.87744 0.35889 0.0
H2145 H 0.30586 0.82613 0.36043 0.0
H2146 H 0.34013 0.74723 0.35332 0.0
H2147 H 0.40408 0.79806 0.3515 0.0
C2148 C 0.2356 0.69181 0.36429 0.0
C2149 C 0.2083 0.68585 0.358 0.0
C2150 C 0.27069 0.72389 0.36409 0.0
C2151 C 0.2793 0.7513 0.35772 0.0
C2152 C 0.25178 0.74631 0.35162 0.0
C2153 C 0.21668 0.71372 0.35171 0.0
C2154 C 0.36429 0.84906 0.35775 0.0
C2155 C 0.39235 0.84162 0.35509 0.0
C2156 C 0.32727 0.81985 0.35855 0.0
C2157 C 0.31808 0.78281 0.35694 0.0
C2158 C 0.34645 0.7755 0.35457 0.0
C2159 C 0.38301 0.80456 0.35356 0.0
H2160 H 0.25114 0.33809 0.17496 0.0
H2161 H 0.25976 0.31833 0.20238 0.0
H2162 H 0.3188 0.37115 0.17374 0.0
H2163 H 0.32726 0.35227 0.20127 0.0
H2164 H 0.44691 0.38196 0.1947 0.0
H2165 H 0.37928 0.35016 0.19609 0.0
H2166 H 0.37547 0.425 0.17701 0.0
H2167 H 0.44293 0.45581 0.17546 0.0
C2168 C 0.2674 0.34109 0.18076 0.0
C2169 C 0.24958 0.32528 0.18876 0.0
C2170 C 0.30648 0.36034 0.18009 0.0
C2171 C 0.3292 0.36462 0.1874 0.0
C2172 C 0.31121 0.3492 0.19542 0.0
C2173 C 0.2722 0.32985 0.19608 0.0
C2174 C 0.43161 0.39169 0.19083 0.0
C2175 C 0.45051 0.42144 0.18495 0.0
C2176 C 0.39263 0.37353 0.19165 0.0
C2177 C 0.37119 0.38463 0.18665 0.0
C2178 C 0.39043 0.4149 0.18087 0.0
C2179 C 0.42937 0.43292 0.18003 0.0
H2180 H 0.58246 0.99298 0.17656 0.0
H2181 H 0.65755 0.07196 0.19551 0.0
H2182 H 0.61325 0.95634 0.17809 0.0
H2183 H 0.68937 0.03607 0.19688 0.0
H2184 H 0.72171 0.94838 0.20302 0.0
H2185 H 0.68774 0.98202 0.20207 0.0
H2186 H 0.66689 0.95377 0.1746 0.0
H2187 H 0.69991 0.91914 0.17565 0.0
C2188 C 0.60563 1.00256 0.18107 0.0
C2189 C 0.61748 0.03551 0.1859 0.0
C2190 C 0.62363 0.98165 0.1819 0.0
C2191 C 0.65429 0.99302 0.18757 0.0
C2192 C 0.66572 0.02583 0.19251 0.0
C2193 C 0.64755 0.04667 0.1917 0.0
C2194 C 0.70971 0.94911 0.19678 0.0
C2195 C 0.71369 0.93079 0.18942 0.0
C2196 C 0.69036 0.9688 0.1962 0.0
C2197 C 0.67437 0.9711 0.18824 0.0
C2198 C 0.67811 0.95244 0.1809 0.0
C2199 C 0.69733 0.93257 0.18149 0.0
H2200 H 0.14529 0.78697 0.17967 0.0
H2201 H 0.06541 0.78156 0.1985 0.0
H2202 H 0.11211 0.71927 0.17876 0.0
H2203 H 0.03055 0.71437 0.19717 0.0
H2204 H 0.98348 0.5897 0.19816 0.0
H2205 H 1.02089 0.65703 0.19999 0.0
H2206 H 0.06398 0.6662 0.17372 0.0
H2207 H 0.02896 0.5991 0.1723 0.0
C2208 C 0.1204 0.7713 0.18356 0.0
C2209 C 0.10829 0.78991 0.18919 0.0
C2210 C 0.1009 0.73216 0.18299 0.0
C2211 C 0.06797 0.71026 0.18786 0.0
C2212 C 0.05596 0.72931 0.19344 0.0
C2213 C 0.07595 0.76828 0.19416 0.0
C2214 C 1.00131 0.60622 0.19284 0.0
C2215 C 1.00327 0.58882 0.18511 0.0
C2216 C 1.02266 0.64517 0.19381 0.0
C2217 C 0.04599 0.66816 0.187 0.0
C2218 C 0.04749 0.65029 0.17926 0.0
C2219 C 0.02692 0.61142 0.17838 0.0
H2220 H 0.35147 0.24559 0.36825 0.0
H2221 H 0.32047 0.2518 0.34159 0.0
H2222 H 0.38468 0.31322 0.36922 0.0
H2223 H 0.35474 0.31957 0.34243 0.0
H2224 H 0.38696 0.44008 0.34973 0.0
H2225 H 0.35513 0.37235 0.34818 0.0
H2226 H 0.43683 0.36915 0.36512 0.0
H2227 H 0.46755 0.43647 0.36686 0.0
C2228 C 0.3521 0.26134 0.36254 0.0
C2229 C 0.33313 0.24286 0.35484 0.0
C2230 C 0.37144 0.30043 0.36307 0.0
C2231 C 0.37273 0.32255 0.35591 0.0
C2232 C 0.35411 0.30394 0.34816 0.0
C2233 C 0.3346 0.26483 0.34764 0.0
C2234 C 0.39818 0.42486 0.35308 0.0
C2235 C 0.42975 0.44382 0.35846 0.0
C2236 C 0.38 0.38585 0.35217 0.0
C2237 C 0.39296 0.36458 0.35657 0.0
C2238 C 0.42521 0.38396 0.36176 0.0
C2239 C 0.44318 0.42283 0.36271 0.0
H2240 H 0.60266 0.04081 0.3691 0.0
H2241 H 0.59858 0.95998 0.35069 0.0
H2242 H 0.67003 0.07758 0.3674 0.0
H2243 H 0.66619 0.99612 0.34913 0.0
H2244 H 0.78526 0.08432 0.34236 0.0
H2245 H 0.71776 0.05051 0.34354 0.0
H2246 H 0.72661 0.08016 0.37094 0.0
H2247 H 0.79423 0.11484 0.36967 0.0
C2248 C 0.61619 0.03086 0.36467 0.0
C2249 C 0.59507 0.99734 0.36004 0.0
C2250 C 0.65505 0.05186 0.36374 0.0
C2251 C 0.6742 0.04004 0.35815 0.0
C2252 C 0.65282 1.00666 0.35342 0.0
C2253 C 0.61389 0.98569 0.35434 0.0
C2254 C 0.77291 0.08388 0.34864 0.0
C2255 C 0.7956 0.10254 0.35591 0.0
C2256 C 0.73392 0.06409 0.34934 0.0
C2257 C 0.7161 0.06212 0.35735 0.0
C2258 C 0.73887 0.08121 0.36461 0.0
C2259 C 0.77791 0.10111 0.3639 0.0
H2260 H 0.98311 0.74457 0.3474 0.0
H2261 H 0.90163 0.66819 0.36566 0.0
H2262 H 1.01782 0.71206 0.34863 0.0
H2263 H 0.93464 0.63356 0.36647 0.0
H2264 H 1.01645 0.59518 0.3729 0.0
H2265 H 0.98204 0.62783 0.37158 0.0
H2266 H 0.02793 0.66473 0.34564 0.0
H2267 H 0.06471 0.63411 0.34739 0.0
C2268 C 0.97221 0.72033 0.35159 0.0
C2269 C 0.93946 0.70914 0.35644 0.0
C2270 C 0.99212 0.70125 0.35226 0.0
C2271 C 0.97961 0.6696 0.35766 0.0
C2272 C 0.94627 0.65811 0.36239 0.0
C2273 C 0.92686 0.67784 0.36188 0.0
C2274 C 1.01926 0.61032 0.36691 0.0
C2275 C 0.04348 0.61194 0.36025 0.0
C2276 C 0.99903 0.62896 0.36609 0.0
C2277 C 1.00143 0.6493 0.35846 0.0
C2278 C 0.02541 0.65031 0.35172 0.0
C2279 C 0.04641 0.63232 0.35266 0.0
H2280 H 0.60656 0.59444 0.87362 0.0
H2281 H 0.59664 0.64002 0.8491 0.0
H2282 H 0.67279 0.62113 0.87132 0.0
H2283 H 0.66403 0.66925 0.84694 0.0
H2284 H 0.78556 0.70092 0.84255 0.0
H2285 H 0.71796 0.66813 0.84385 0.0
H2286 H 0.72857 0.67392 0.87208 0.0
H2287 H 0.79569 0.70462 0.87071 0.0
C2288 C 0.61869 0.61033 0.8677 0.0
C2289 C 0.59617 0.61498 0.86154 0.0
C2290 C 0.65709 0.62625 0.86642 0.0
C2291 C 0.67485 0.64841 0.85901 0.0
C2292 C 0.65195 0.65229 0.85271 0.0
C2293 C 0.61311 0.63556 0.85393 0.0
C2294 C 0.77338 0.69479 0.84904 0.0
C2295 C 0.79639 0.70528 0.85652 0.0
C2296 C 0.73433 0.67617 0.8498 0.0
C2297 C 0.71685 0.66783 0.85809 0.0
C2298 C 0.74017 0.67858 0.86555 0.0
C2299 C 0.77909 0.69659 0.86478 0.0
H2300 H 0.32263 0.08189 0.84264 0.0
H2301 H 0.34737 0.11342 0.86983 0.0
H2302 H 0.35642 0.04808 0.84351 0.0
H2303 H 0.38039 0.0787 0.8708 0.0
H2304 H 0.46541 0.04051 0.86832 0.0
H2305 H 0.43402 0.07653 0.86688 0.0
H2306 H 0.35543 0.99427 0.8489 0.0
H2307 H 0.38782 0.9588 0.8502 0.0
C2308 C 0.33524 0.08164 0.84884 0.0
C2309 C 0.33214 0.10067 0.85616 0.0
C2310 C 0.3545 0.06184 0.84936 0.0
C2311 C 0.37135 0.06021 0.85724 0.0
C2312 C 0.36845 0.07952 0.86455 0.0
C2313 C 0.34925 0.09944 0.86402 0.0
C2314 C 0.44156 0.03019 0.86401 0.0
C2315 C 0.42919 0.99664 0.85939 0.0
C2316 C 0.42321 0.05077 0.86324 0.0
C2317 C 0.39167 0.0385 0.85783 0.0
C2318 C 0.37973 1.00513 0.85307 0.0
C2319 C 0.39824 0.98456 0.85383 0.0
H2320 H 0.95723 0.25092 0.84287 0.0
H2321 H 0.92606 0.24432 0.87007 0.0
H2322 H 0.99112 0.31856 0.84377 0.0
H2323 H 0.96086 0.31209 0.87106 0.0
H2324 H 0.99946 0.43546 0.86863 0.0
H2325 H 0.96314 0.36801 0.86715 0.0
H2326 H 0.04513 0.37108 0.84922 0.0
H2327 H 0.08089 0.43895 0.85055 0.0
C2328 C 0.95757 0.26383 0.84907 0.0
C2329 C 0.93865 0.24177 0.8564 0.0
C2330 C 0.97741 0.30289 0.84961 0.0
C2331 C 0.97918 0.32142 0.8575 0.0
C2332 C 0.95994 0.29927 0.86481 0.0
C2333 C 0.93997 0.26015 0.86427 0.0
C2334 C 1.00964 0.42177 0.86432 0.0
C2335 C 0.0432 0.44277 0.85972 0.0
C2336 C 0.9889 0.38285 0.86352 0.0
C2337 C 1.00102 0.36343 0.85812 0.0
C2338 C 0.03439 0.38466 0.85339 0.0
C2339 C 0.05512 0.42373 0.85417 0.0
H2340 H 0.64044 0.59128 0.69839 0.0
H2341 H 0.60322 0.60018 0.67263 0.0
H2342 H 0.6707 0.65864 0.70014 0.0
H2343 H 0.63562 0.66741 0.67397 0.0
H2344 H 0.6762 0.78862 0.67984 0.0
H2345 H 0.64145 0.72094 0.67897 0.0
H2346 H 0.71834 0.71585 0.69727 0.0
H2347 H 0.75096 0.7831 0.69856 0.0
C2348 C 0.63892 0.60771 0.69307 0.0
C2349 C 0.61916 0.59013 0.6854 0.0
C2350 C 0.65675 0.6467 0.694 0.0
C2351 C 0.65625 0.66961 0.6872 0.0
C2352 C 0.6364 0.65158 0.67951 0.0
C2353 C 0.61789 0.61263 0.67868 0.0
C2354 C 0.68545 0.77293 0.68372 0.0
C2355 C 0.71634 0.79155 0.6893 0.0
C2356 C 0.66565 0.73377 0.68317 0.0
C2357 C 0.67664 0.71179 0.68801 0.0
C2358 C 0.70788 0.73083 0.69355 0.0
C2359 C 0.72703 0.76985 0.69425 0.0
H2360 H 0.45065 0.05747 0.69844 0.0
H2361 H 0.44052 1.01093 0.67265 0.0
H2362 H 0.38338 0.02028 0.70032 0.0
H2363 H 0.37352 0.97615 0.67411 0.0
H2364 H 0.25296 0.8953 0.68007 0.0
H2365 H 0.32055 0.92837 0.67915 0.0
H2366 H 0.32586 1.01013 0.69762 0.0
H2367 H 0.2587 0.9753 0.69895 0.0
C2368 C 0.43399 0.03945 0.69314 0.0
C2369 C 0.45118 0.03713 0.68543 0.0
C2370 C 0.39506 0.01822 0.69415 0.0
C2371 C 0.37188 0.99463 0.68737 0.0
C2372 C 0.38955 0.99281 0.67963 0.0
C2373 C 0.42838 1.01326 0.67873 0.0
C2374 C 0.26869 0.92021 0.68397 0.0
C2375 C 0.25017 0.93238 0.68961 0.0
C2376 C 0.30779 0.93966 0.6834 0.0
C2377 C 0.32979 0.97265 0.68826 0.0
C2378 C 0.31085 0.9847 0.69387 0.0
C2379 C 0.2719 0.96472 0.69461 0.0
H2380 H 0.02905 0.43697 0.67248 0.0
H2381 H 0.98538 0.40318 0.69855 0.0
H2382 H 0.06417 0.40508 0.67392 0.0
H2383 H 1.02289 0.37337 0.70038 0.0
H2384 H 0.06751 0.29324 0.69893 0.0
H2385 H 0.03255 0.32548 0.69768 0.0
H2386 H 0.11275 0.40093 0.67888 0.0
H2387 H 0.14597 0.36651 0.67973 0.0
C2388 C 0.02742 0.42314 0.67861 0.0
C2389 C 1.00424 0.42266 0.68539 0.0
C2390 C 0.04806 0.40496 0.6795 0.0
C2391 C 0.04712 0.38628 0.6873 0.0
C2392 C 0.02423 0.38647 0.69417 0.0
C2393 C 1.00281 0.40398 0.69318 0.0
C2394 C 0.07773 0.31678 0.69453 0.0
C2395 C 0.10966 0.32715 0.68942 0.0
C2396 C 0.05768 0.33569 0.69385 0.0
C2397 C 0.06925 0.36634 0.68816 0.0
C2398 C 0.10185 0.37711 0.68318 0.0
C2399 C 0.12138 0.35753 0.68372 0.0
H2400 H 0.91828 0.69836 0.51357 0.0
H2401 H 0.92344 0.62318 0.53221 0.0
H2402 H 0.98589 0.73285 0.51273 0.0
H2403 H 0.99065 0.65559 0.53096 0.0
H2404 H 0.11562 0.7334 0.53199 0.0
H2405 H 0.04826 0.70309 0.53379 0.0
H2406 H 0.03888 0.73801 0.50766 0.0
H2407 H 0.1059 0.77029 0.50626 0.0
C2408 C 0.93387 0.68896 0.51744 0.0
C2409 C 0.91516 0.658 0.52298 0.0
C2410 C 0.97299 0.7086 0.51691 0.0
C2411 C 0.99486 0.6974 0.52173 0.0
C2412 C 0.97575 0.66616 0.52725 0.0
C2413 C 0.93675 0.64714 0.52793 0.0
C2414 C 0.09903 0.73479 0.52668 0.0
C2415 C 0.11637 0.75449 0.519 0.0
C2416 C 0.06006 0.717 0.52765 0.0
C2417 C 0.03699 0.71755 0.52088 0.0
C2418 C 0.05481 0.73725 0.51318 0.0
C2419 C 0.09367 0.75568 0.51231 0.0
H2420 H 0.34267 0.22771 0.51308 0.0
H2421 H 0.41673 0.30812 0.53191 0.0
H2422 H 0.30817 0.26085 0.51204 0.0
H2423 H 0.38436 0.34284 0.53049 0.0
H2424 H 0.30669 0.38968 0.53142 0.0
H2425 H 0.33666 0.3524 0.53325 0.0
H2426 H 0.30254 0.30869 0.50702 0.0
H2427 H 0.27049 0.34381 0.50558 0.0
C2428 C 0.35182 0.25269 0.51695 0.0
C2429 C 0.38244 0.26494 0.52262 0.0
C2430 C 0.33216 0.27217 0.51631 0.0
C2431 C 0.34299 0.30518 0.52116 0.0
C2432 C 0.37399 0.31736 0.52677 0.0
C2433 C 0.393 0.29742 0.52755 0.0
C2434 C 0.30537 0.37178 0.5261 0.0
C2435 C 0.286 0.36975 0.51838 0.0
C2436 C 0.32301 0.35049 0.52708 0.0
C2437 C 0.32271 0.32705 0.52028 0.0
C2438 C 0.3032 0.32534 0.51254 0.0
C2439 C 0.28488 0.34593 0.51166 0.0
H2440 H 0.71394 0.93124 0.50981 0.0
H2441 H 0.63421 0.928 0.52838 0.0
H2442 H 0.75051 0.9987 0.51126 0.0
H2443 H 0.67017 0.99586 0.52969 0.0
H2444 H 0.7585 0.11594 0.53588 0.0
H2445 H 0.72443 0.04832 0.53496 0.0
H2446 H 0.75309 0.05489 0.50755 0.0
H2447 H 0.7881 0.12267 0.50856 0.0
C2448 C 0.70418 0.94498 0.51422 0.0
C2449 C 0.67103 0.92403 0.51897 0.0
C2450 C 0.72507 0.98392 0.515 0.0
C2451 C 0.7135 1.00343 0.52055 0.0
C2452 C 0.68051 0.98224 0.52542 0.0
C2453 C 0.65966 0.94316 0.52465 0.0
C2454 C 0.75777 0.10306 0.52965 0.0
C2455 C 0.77632 0.12518 0.5223 0.0
C2456 C 0.73782 0.06399 0.5291 0.0
C2457 C 0.73552 0.04547 0.52117 0.0
C2458 C 0.7544 0.06767 0.51383 0.0
C2459 C 0.77449 0.10681 0.51439 0.0
H2460 H 0.05772 0.77304 0.68374 0.0
H2461 H 0.13411 0.76922 0.70225 0.0
H2462 H 0.02624 0.70531 0.68219 0.0
H2463 H 0.10367 0.70187 0.70054 0.0
H2464 H 1.01713 0.57808 0.70307 0.0
H2465 H 0.05002 0.64573 0.70416 0.0
H2466 H 0.02823 0.65306 0.67677 0.0
H2467 H 0.99442 0.58538 0.67577 0.0
C2468 C 0.06808 0.75777 0.6874 0.0
C2469 C 0.09838 0.77667 0.69315 0.0
C2470 C 0.05011 0.71878 0.6865 0.0
C2471 C 0.062 0.69747 0.69128 0.0
C2472 C 0.09294 0.71676 0.69687 0.0
C2473 C 0.11073 0.75563 0.6978 0.0
C2474 C 1.01949 0.59405 0.69726 0.0
C2475 C 1.00292 0.57589 0.68933 0.0
C2476 C 0.03862 0.63314 0.69787 0.0
C2477 C 0.04205 0.6555 0.69056 0.0
C2478 C 0.02587 0.63721 0.68261 0.0
C2479 C 1.00662 0.59814 0.68201 0.0
H2480 H 0.27282 0.37367 0.70196 0.0
H2481 H 0.26892 0.2929 0.68357 0.0
H2482 H 0.3402 0.41004 0.70046 0.0
H2483 H 0.33669 0.32859 0.68222 0.0
H2484 H 0.45701 0.41602 0.67606 0.0
H2485 H 0.38939 0.3824 0.67691 0.0
H2486 H 0.39603 0.41232 0.70425 0.0
H2487 H 0.46369 0.44689 0.7033 0.0
C2488 C 0.2864 0.36365 0.69758 0.0
C2489 C 0.26531 0.33026 0.6929 0.0
C2490 C 0.3253 0.3844 0.69677 0.0
C2491 C 0.34459 0.37244 0.69127 0.0
C2492 C 0.32324 0.33924 0.68646 0.0
C2493 C 0.28421 0.31853 0.68725 0.0
C2494 C 0.44412 0.41566 0.68226 0.0
C2495 C 0.4662 0.43443 0.6896 0.0
C2496 C 0.40507 0.39598 0.68277 0.0
C2497 C 0.38658 0.39419 0.69066 0.0
C2498 C 0.40877 0.41327 0.698 0.0
C2499 C 0.44786 0.4331 0.69747 0.0
H2500 H 0.74753 0.98293 0.68365 0.0
H2501 H 0.66939 0.9081 0.7027 0.0
H2502 H 0.71106 1.01407 0.68218 0.0
H2503 H 0.63215 0.93824 0.70107 0.0
H2504 H 0.59441 0.02477 0.70331 0.0
H2505 H 0.62921 0.99194 0.70445 0.0
H2506 H 0.65656 1.01137 0.67693 0.0
H2507 H 0.62273 0.04512 0.67588 0.0
C2508 C 0.7223 0.97284 0.68745 0.0
C2509 C 0.71155 0.94305 0.69331 0.0
C2510 C 0.70113 0.99061 0.68659 0.0
C2511 C 0.66837 0.97905 0.69153 0.0
C2512 C 0.6574 0.94869 0.69726 0.0
C2513 C 0.67865 0.93107 0.69815 0.0
C2514 C 0.60765 0.0219 0.69748 0.0
C2515 C 0.6056 0.03783 0.6895 0.0
C2516 C 0.62762 1.00279 0.69812 0.0
C2517 C 0.64613 0.99878 0.69079 0.0
C2518 C 0.64348 1.01425 0.68279 0.0
C2519 C 0.62367 0.03346 0.68216 0.0
H2520 H 0.27128 0.90618 0.20223 0.0
H2521 H 0.26802 0.98336 0.18389 0.0
H2522 H 0.33872 0.93721 0.20082 0.0
H2523 H 0.3358 1.01537 0.18263 0.0
H2524 H 0.46253 0.02388 0.20367 0.0
H2525 H 0.3948 0.99088 0.20464 0.0
H2526 H 0.38818 1.01367 0.17729 0.0
H2527 H 0.45574 0.04746 0.17642 0.0
C2528 C 0.28501 0.92986 0.19788 0.0
C2529 C 0.26408 0.94222 0.19318 0.0
C2530 C 0.32393 0.94798 0.19712 0.0
C2531 C 0.34339 0.97927 0.19165 0.0
C2532 C 0.32221 0.99123 0.18683 0.0
C2533 C 0.28317 0.97295 0.18758 0.0
C2534 C 0.44667 0.02173 0.19785 0.0
C2535 C 0.46499 0.03854 0.18997 0.0
C2536 C 0.40756 1.00255 0.19839 0.0
C2537 C 0.38537 0.99937 0.19105 0.0
C2538 C 0.40385 1.01585 0.18315 0.0
C2539 C 0.44288 0.0351 0.18263 0.0
H2540 H 1.01689 0.44708 0.20297 0.0
H2541 H 0.99408 0.41654 0.17569 0.0
H2542 H 0.04998 0.41251 0.20406 0.0
H2543 H 0.02801 0.38288 0.17669 0.0
H2544 H 0.05725 0.29248 0.18358 0.0
H2545 H 0.02579 0.32868 0.18212 0.0
H2546 H 0.10364 0.4098 0.20042 0.0
H2547 H 0.13413 0.3729 0.20202 0.0
C2548 C 1.01926 0.43339 0.19716 0.0
C2549 C 1.00259 0.43477 0.18924 0.0
C2550 C 0.0385 0.41356 0.19777 0.0
C2551 C 0.04189 0.39449 0.19047 0.0
C2552 C 0.02565 0.39643 0.18252 0.0
C2553 C 1.00633 0.41614 0.18192 0.0
C2554 C 0.06771 0.31814 0.18725 0.0
C2555 C 0.09817 0.32962 0.19295 0.0
C2556 C 0.04975 0.33915 0.1864 0.0
C2557 C 0.06179 0.37243 0.19118 0.0
C2558 C 0.09283 0.38414 0.19674 0.0
C2559 C 0.11064 0.36306 0.19761 0.0
H2560 H 0.56958 0.5765 0.19885 0.0
H2561 H 0.65011 0.5825 0.18015 0.0
H2562 H 0.6026 0.64417 0.19986 0.0
H2563 H 0.68478 0.64969 0.18156 0.0
H2564 H 0.73164 0.77437 0.18065 0.0
H2565 H 0.69455 0.70706 0.1788 0.0
H2566 H 0.65021 0.69758 0.20493 0.0
H2567 H 0.6851 0.76477 0.20639 0.0
C2568 C 0.59458 0.59229 0.19501 0.0
C2569 C 0.6069 0.57379 0.18939 0.0
C2570 C 0.61399 0.63144 0.19563 0.0
C2571 C 0.64705 0.65355 0.19082 0.0
C2572 C 0.65928 0.63463 0.18525 0.0
C2573 C 0.63938 0.59563 0.18448 0.0
C2574 C 0.71362 0.7578 0.18595 0.0
C2575 C 0.71133 0.77517 0.19364 0.0
C2576 C 0.69244 0.71883 0.18495 0.0
C2577 C 0.66888 0.69572 0.19172 0.0
C2578 C 0.66695 0.71355 0.19943 0.0
C2579 C 0.68741 0.75248 0.20033 0.0
H2580 H 0.32408 0.92688 0.02823 0.0
H2581 H 0.24805 0.93009 1.00951 0.0
H2582 H 0.35575 0.99462 0.02959 0.0
H2583 H 0.27872 0.99758 1.01104 0.0
H2584 H 0.36519 0.12172 1.00855 0.0
H2585 H 0.3322 0.05399 1.00747 0.0
H2586 H 0.35392 0.04686 0.03488 0.0
H2587 H 0.38781 0.11449 0.03585 0.0
C2588 C 0.31385 0.94203 0.02447 0.0
C2589 C 0.28355 0.92291 1.01874 0.0
C2590 C 0.33193 0.98105 0.02528 0.0
C2591 C 0.32018 1.00226 1.0204 0.0
C2592 C 0.28932 0.98279 1.01479 0.0
C2593 C 0.2714 0.94384 1.01396 0.0
C2594 C 0.36281 0.10575 1.01436 0.0
C2595 C 0.3794 0.12396 1.02228 0.0
C2596 C 0.34362 0.06663 1.01376 0.0
C2597 C 0.34015 0.04428 1.02108 0.0
C2598 C 0.35634 0.06265 0.02903 0.0
C2599 C 0.37565 0.10172 0.02961 0.0
H2600 H 0.11449 0.38868 0.03172 0.0
H2601 H 0.1041 0.34318 1.0058 0.0
H2602 H 0.04729 0.35127 0.03364 0.0
H2603 H 0.03709 0.3081 1.00733 0.0
H2604 H 0.9166 0.22689 1.01333 0.0
H2605 H 0.98417 0.26009 1.01234 0.0
H2606 H 0.98966 0.34107 0.03108 0.0
H2607 H 0.92253 0.30611 0.03247 0.0
C2608 C 0.09777 0.37085 0.0264 0.0
C2609 C 0.11488 0.36889 1.01863 0.0
C2610 C 0.05887 0.34948 0.02744 0.0
C2611 C 0.0356 0.3261 1.02065 0.0
C2612 C 0.05319 0.32461 1.01286 0.0
C2613 C 0.09202 0.34522 1.01192 0.0
C2614 C 0.93236 0.25164 1.01728 0.0
C2615 C 0.91388 0.26355 0.02301 0.0
C2616 C 0.97145 0.27118 1.01667 0.0
C2617 C 0.99352 0.30401 1.02158 0.0
C2618 C 0.97462 0.31578 0.02729 0.0
C2619 C 0.93567 0.29572 0.02806 0.0
H2620 H 0.75942 0.65416 0.03623 0.0
H2621 H 0.78652 0.67407 1.00874 0.0
H2622 H 0.72517 0.6875 0.03527 0.0
H2623 H 0.75136 0.70658 1.0077 0.0
H2624 H 0.71124 0.79039 1.00967 0.0
H2625 H 0.74865 0.76044 1.0112 0.0
H2626 H 0.67008 0.68415 0.03008 0.0
H2627 H 0.63334 0.71509 0.02869 0.0
C2628 C 0.75814 0.66565 0.02996 0.0
C2629 C 0.77599 0.66128 1.02257 0.0
C2630 C 0.73809 0.68462 0.02939 0.0
C2631 C 0.735 0.69987 1.02139 0.0
C2632 C 0.75329 0.69586 1.01402 0.0
C2633 C 0.77348 0.67697 1.0146 0.0
C2634 C 0.70207 0.76736 1.01419 0.0
C2635 C 0.66918 0.75518 1.01905 0.0
C2636 C 0.72343 0.74985 1.01502 0.0
C2637 C 0.7126 0.71942 1.02072 0.0
C2638 C 0.67987 0.70766 0.02569 0.0
C2639 C 0.65855 0.72531 0.02487 0.0
H2640 H 0.77609 0.12533 0.84302 0.0
H2641 H 0.7791 0.05024 0.86204 0.0
H2642 H 0.70872 0.09515 0.84456 0.0
H2643 H 0.71144 0.01909 0.86344 0.0
H2644 H 0.59208 0.98871 0.86962 0.0
H2645 H 0.65965 0.02235 0.86865 0.0
H2646 H 0.65234 0.04103 0.84106 0.0
H2647 H 0.58468 1.00823 0.84212 0.0
C2648 C 0.76232 0.10231 0.84755 0.0
C2649 C 0.78313 0.09024 0.85239 0.0
C2650 C 0.72346 0.08467 0.84838 0.0
C2651 C 0.70399 0.05423 0.85409 0.0
C2652 C 0.72507 0.0426 0.85905 0.0
C2653 C 0.76402 0.06038 0.85823 0.0
C2654 C 0.6048 1.00017 0.86334 0.0
C2655 C 0.58254 0.99561 0.85595 0.0
C2656 C 0.64381 0.01932 0.86277 0.0
C2657 C 0.66207 0.03454 0.85476 0.0
C2658 C 0.63973 0.03034 0.84739 0.0
C2659 C 0.60067 1.01127 0.84798 0.0
H2660 H 0.91332 0.65882 0.84349 0.0
H2661 H 0.98984 0.7396 0.86194 0.0
H2662 H 0.94438 0.6225 0.84504 0.0
H2663 H 1.02185 0.70381 0.86335 0.0
H2664 H 0.05346 0.61548 0.86972 0.0
H2665 H 1.01969 0.6493 0.86874 0.0
H2666 H 0.99857 0.62076 0.8413 0.0
H2667 H 0.0316 0.58608 0.84235 0.0
C2668 C 0.93685 0.66886 0.8479 0.0
C2669 C 0.94905 0.70225 0.85258 0.0
C2670 C 0.95499 0.64811 0.84874 0.0
C2671 C 0.9861 0.66005 0.85427 0.0
C2672 C 0.99786 0.69323 0.85909 0.0
C2673 C 0.97958 0.71398 0.85826 0.0
C2674 C 0.04146 0.61617 0.86347 0.0
C2675 C 0.04539 0.59779 0.85612 0.0
C2676 C 1.02223 0.63597 0.86289 0.0
C2677 C 1.00623 0.63821 0.85493 0.0
C2678 C 1.00987 0.61946 0.8476 0.0
C2679 C 0.02906 0.59956 0.84818 0.0
H2680 H 0.30074 0.26043 0.86219 0.0
H2681 H 0.37725 0.26491 0.8425 0.0
H2682 H 0.33659 0.32824 0.86363 0.0
H2683 H 0.41367 0.33242 0.84404 0.0
H2684 H 0.42587 0.4485 0.86963 0.0
H2685 H 0.39219 0.38083 0.86861 0.0
H2686 H 0.41426 0.38837 0.84081 0.0
H2687 H 0.44871 0.45606 0.84188 0.0
C2688 C 0.32545 0.27586 0.85823 0.0
C2689 C 0.33594 0.25707 0.85221 0.0
C2690 C 0.34624 0.31491 0.85907 0.0
C2691 C 0.37827 0.33645 0.85392 0.0
C2692 C 0.38897 0.31733 0.84802 0.0
C2693 C 0.36818 0.27837 0.84718 0.0
C2694 C 0.4238 0.43584 0.86329 0.0
C2695 C 0.44032 0.45823 0.85585 0.0
C2696 C 0.40407 0.39674 0.86269 0.0
C2697 C 0.40007 0.37849 0.85462 0.0
C2698 C 0.41694 0.40095 0.84719 0.0
C2699 C 0.4367 0.44007 0.84779 0.0
H2700 H 0.65645 0.91624 1.00944 0.0
H2701 H 0.67983 0.90916 0.0367 0.0
H2702 H 0.69021 0.9839 1.01041 0.0
H2703 H 0.71267 0.97686 0.03777 0.0
H2704 H 0.79694 0.10037 0.03573 0.0
H2705 H 0.76615 0.03297 0.03412 0.0
H2706 H 0.6888 0.03645 1.01576 0.0
H2707 H 0.72064 0.10424 1.01721 0.0
C2708 C 0.66876 0.92905 1.01567 0.0
C2709 C 0.66529 0.90684 0.02299 0.0
C2710 C 0.68799 0.96813 1.01625 0.0
C2711 C 0.70439 0.98653 0.02418 0.0
C2712 C 0.70112 0.9642 0.03149 0.0
C2713 C 0.68201 0.92509 0.03089 0.0
C2714 C 0.7735 0.08678 0.0313 0.0
C2715 C 0.76131 0.10788 0.02661 0.0
C2716 C 0.7555 0.04787 0.03043 0.0
C2717 C 0.72448 0.02855 0.02486 0.0
C2718 C 0.71272 0.04991 1.02005 0.0
C2719 C 0.73091 0.08896 1.0209 0.0
H2720 H 0.93814 0.70626 0.03502 0.0
H2721 H 0.93419 0.62484 1.01682 0.0
H2722 H 1.00552 0.74243 0.03356 0.0
H2723 H 1.00201 0.66042 1.01551 0.0
H2724 H 0.12223 0.74806 1.00925 0.0
H2725 H 0.05466 0.71426 1.01013 0.0
H2726 H 0.06137 0.7447 0.03743 0.0
H2727 H 0.12909 0.77944 0.03646 0.0
C2728 C 0.95171 0.69604 0.03069 0.0
C2729 C 0.93059 0.66253 0.02605 0.0
C2730 C 0.99061 0.7167 0.0299 0.0
C2731 C 1.0099 0.70453 0.02447 0.0
C2732 C 0.98854 0.67121 1.0197 0.0
C2733 C 0.94949 0.65058 1.02046 0.0
C2734 C 0.10939 0.74777 1.01545 0.0
C2735 C 0.13151 0.76675 0.02278 0.0
C2736 C 0.07035 0.72798 1.01598 0.0
C2737 C 0.0519 0.72629 0.02387 0.0
C2738 C 0.07411 0.74556 0.03119 0.0
C2739 C 0.11321 0.76549 0.03065 0.0
H2740 H 0.23362 0.33136 0.03214 0.0
H2741 H 0.3135 0.40612 1.01337 0.0
H2742 H 0.26708 0.29717 0.03307 0.0
H2743 H 0.34865 0.37416 1.01472 0.0
H2744 H 0.39683 0.29771 1.01377 0.0
H2745 H 0.35901 0.32704 1.01194 0.0
H2746 H 0.31503 0.29203 0.03809 0.0
H2747 H 0.35055 0.26043 0.03951 0.0
C2748 C 0.25856 0.3407 0.02826 0.0
C2749 C 0.27058 0.37142 1.02264 0.0
C2750 C 0.27823 0.32125 0.02884 0.0
C2751 C 0.31126 0.33247 0.024 0.0
C2752 C 0.32317 0.36352 1.01843 0.0
C2753 C 0.303 0.38229 1.01769 0.0
C2754 C 0.3787 0.29599 1.01907 0.0
C2755 C 0.37667 0.27647 0.02676 0.0
C2756 C 0.35712 0.3133 1.01809 0.0
C2757 C 0.33345 0.31255 0.02487 0.0
C2758 C 0.33181 0.29297 0.03258 0.0
C2759 C 0.35265 0.27493 0.03345 0.0
H2760 H 0.13121 0.35869 0.53636 0.0
H2761 H 0.12383 0.38184 0.50911 0.0
H2762 H 0.06358 0.32588 0.53744 0.0
H2763 H 0.05624 0.34811 0.51008 0.0
H2764 H 0.93633 0.31817 0.51683 0.0
H2765 H 1.00401 0.34982 0.51543 0.0
H2766 H 1.00721 0.27245 0.53383 0.0
H2767 H 0.93983 0.24182 0.53539 0.0
C2768 C 0.11523 0.35647 0.53055 0.0
C2769 C 0.13339 0.37314 0.52265 0.0
C2770 C 0.07615 0.33737 0.53115 0.0
C2771 C 0.05376 0.33407 0.52385 0.0
C2772 C 0.07206 0.35038 0.51592 0.0
C2773 C 0.11111 0.3696 0.51533 0.0
C2774 C 0.95152 0.30786 0.52054 0.0
C2775 C 0.93251 0.27748 0.52625 0.0
C2776 C 0.99051 0.32593 0.51972 0.0
C2777 C 1.01177 0.3141 0.52454 0.0
C2778 C 0.99239 0.28315 0.53012 0.0
C2779 C 0.95349 0.26524 0.53096 0.0
H2780 H 0.63487 0.72614 0.51315 0.0
H2781 H 0.70723 0.80472 0.53251 0.0
H2782 H 0.66685 0.69104 0.51463 0.0
H2783 H 0.74144 0.77134 0.53359 0.0
H2784 H 0.77785 0.68758 0.54012 0.0
H2785 H 0.74632 0.72315 0.53857 0.0
H2786 H 0.71428 0.68092 0.51215 0.0
H2787 H 0.74358 0.64311 0.5141 0.0
C2788 C 0.65819 0.73639 0.51763 0.0
C2789 C 0.66835 0.76842 0.52271 0.0
C2790 C 0.67697 0.71623 0.51845 0.0
C2791 C 0.70735 0.72778 0.52424 0.0
C2792 C 0.71789 0.76046 0.5292 0.0
C2793 C 0.69842 0.78009 0.52853 0.0
C2794 C 0.76402 0.68589 0.53398 0.0
C2795 C 0.76327 0.66234 0.52724 0.0
C2796 C 0.74602 0.70675 0.53303 0.0
C2797 C 0.72726 0.7056 0.5252 0.0
C2798 C 0.72734 0.68242 0.51839 0.0
C2799 C 0.74461 0.66083 0.51944 0.0
H2800 H 0.26062 0.90977 0.53709 0.0
H2801 H 0.28831 0.91825 0.50961 0.0
H2802 H 0.29571 0.97743 0.53835 0.0
H2803 H 0.32244 0.98583 0.51078 0.0
H2804 H 0.4139 0.10502 0.51756 0.0
H2805 H 0.37723 0.03739 0.51605 0.0
H2806 H 0.29896 0.0344 0.53513 0.0
H2807 H 0.33639 0.10183 0.53679 0.0
C2808 C 0.27379 0.926 0.53127 0.0
C2809 C 0.27147 0.90814 0.52325 0.0
C2810 C 0.29393 0.96509 0.53198 0.0
C2811 C 0.31237 0.98777 0.52468 0.0
C2812 C 0.30944 0.96977 0.51662 0.0
C2813 C 0.28945 0.93073 0.51593 0.0
C2814 C 0.38878 0.08989 0.52141 0.0
C2815 C 0.37825 0.10899 0.52732 0.0
C2816 C 0.36748 0.05093 0.52051 0.0
C2817 C 0.33481 0.02974 0.52548 0.0
C2818 C 0.32411 0.04918 0.53129 0.0
C2819 C 0.34548 0.08809 0.5322 0.0
H2820 H 0.05022 0.44768 0.36943 0.0
H2821 H 0.03042 0.45583 0.34197 0.0
H2822 H 1.0165 0.38014 0.36834 0.0
H2823 H 0.99735 0.38805 0.34081 0.0
H2824 H 0.91204 0.26434 0.34284 0.0
H2825 H 0.94284 0.33177 0.34442 0.0
H2826 H 1.01975 0.32835 0.36293 0.0
H2827 H 0.98805 0.26055 0.36148 0.0
C2828 C 0.03867 0.43513 0.36313 0.0
C2829 C 0.0432 0.45759 0.35579 0.0
C2830 C 1.01947 0.39613 0.36249 0.0
C2831 C 1.00411 0.37805 0.35447 0.0
C2832 C 1.00822 0.40056 0.34714 0.0
C2833 C 0.0274 0.43966 0.34779 0.0
C2834 C 0.93539 0.27795 0.3473 0.0
C2835 C 0.94754 0.25691 0.35202 0.0
C2836 C 0.95337 0.31685 0.34815 0.0
C2837 C 0.98421 0.33612 0.35376 0.0
C2838 C 0.99594 0.31484 0.35861 0.0
C2839 C 0.97784 0.27583 0.35776 0.0
H2840 H 0.77838 0.73942 0.36185 0.0
H2841 H 0.7756 0.66199 0.34259 0.0
H2842 H 0.71065 0.70345 0.363 0.0
H2843 H 0.70803 0.62528 0.34389 0.0
H2844 H 0.58385 0.58851 0.34137 0.0
H2845 H 0.65162 0.62308 0.34039 0.0
H2846 H 0.65851 0.64863 0.36802 0.0
H2847 H 0.59098 0.61505 0.36891 0.0
C2848 C 0.76333 0.71446 0.35792 0.0
C2849 C 0.78258 0.70374 0.35211 0.0
C2850 C 0.7243 0.69357 0.35861 0.0
C2851 C 0.7032 0.66115 0.35352 0.0
C2852 C 0.72277 0.65026 0.34781 0.0
C2853 C 0.76175 0.67121 0.34712 0.0
C2854 C 0.59979 0.60134 0.34725 0.0
C2855 C 0.58154 0.59884 0.35522 0.0
C2856 C 0.63891 0.62116 0.34671 0.0
C2857 C 0.66119 0.63911 0.35412 0.0
C2858 C 0.64278 0.63603 0.3621 0.0
C2859 C 0.60375 0.61635 0.36264 0.0
H2860 H 0.36285 0.10801 0.33921 0.0
H2861 H 0.31627 0.06991 0.36489 0.0
H2862 H 0.39725 0.07516 0.34041 0.0
H2863 H 0.35294 0.03926 0.3665 0.0
H2864 H 0.39562 0.95827 0.36479 0.0
H2865 H 0.3616 0.99133 0.36347 0.0
H2866 H 0.4443 0.06791 0.34526 0.0
H2867 H 0.47672 0.03261 0.34618 0.0
C2868 C 0.36045 0.09307 0.34521 0.0
C2869 C 0.33664 0.09168 0.35195 0.0
C2870 C 0.38062 0.07427 0.34596 0.0
C2871 C 0.37848 0.05398 0.35357 0.0
C2872 C 0.35514 0.05348 0.36041 0.0
C2873 C 0.33424 0.07157 0.35956 0.0
C2874 C 0.4066 0.9822 0.3605 0.0
C2875 C 0.4391 0.99268 0.35561 0.0
C2876 C 0.38709 1.00165 0.35978 0.0
C2877 C 0.39975 0.03305 0.3543 0.0
C2878 C 0.43267 0.04368 0.34945 0.0
C2879 C 0.45171 0.02355 0.35001 0.0
H2880 H 0.24495 0.38843 0.08502 0.0
H2881 H 0.12664 0.34554 0.08331 0.0
H2882 H 0.23887 0.37489 0.10071 0.0
H2883 H 0.12041 0.33077 0.09885 0.0
H2884 H 0.12532 0.34564 0.12843 0.0
H2885 H 0.1337 0.36033 0.11288 0.0
H2886 H 0.2156 0.32549 0.11149 0.0
H2887 H 0.20821 0.31205 0.12719 0.0
C2888 C 0.21761 0.37603 0.08795 0.0
C2889 C 0.18633 0.36814 0.0828 0.0
C2890 C 0.21405 0.36788 0.09697 0.0
C2891 C 0.17913 0.3518 0.10114 0.0
C2892 C 0.14787 0.34361 0.09596 0.0
C2893 C 0.15139 0.35164 0.08697 0.0
C2894 C 0.14557 0.34158 0.12488 0.0
C2895 C 0.16616 0.32772 0.12917 0.0
C2896 C 0.15001 0.34955 0.11588 0.0
C2897 C 0.17518 0.34394 0.11083 0.0
C2898 C 0.19612 0.33048 0.11513 0.0
C2899 C 0.1916 0.32238 0.12415 0.0
H2900 H 0.6534 0.86682 0.08502 0.0
H2901 H 0.68903 0.78545 0.08368 0.0
H2902 H 0.66658 0.87407 0.10073 0.0
H2903 H 0.70355 0.79379 0.09924 0.0
H2904 H 0.68864 0.78594 0.12879 0.0
H2905 H 0.67411 0.77975 0.11323 0.0
H2906 H 0.71544 0.89788 0.1116 0.0
H2907 H 0.72864 0.90387 0.12731 0.0
C2908 C 0.66413 0.85052 0.08804 0.0
C2909 C 0.67008 0.82552 0.08298 0.0
C2910 C 0.67209 0.85498 0.09707 0.0
C2911 C 0.68607 0.83445 0.10135 0.0
C2912 C 0.69234 0.80976 0.09627 0.0
C2913 C 0.68448 0.80536 0.08726 0.0
C2914 C 0.69415 0.81061 0.12518 0.0
C2915 C 0.70978 0.84542 0.12942 0.0
C2916 C 0.68628 0.80713 0.11617 0.0
C2917 C 0.69377 0.83832 0.11105 0.0
C2918 C 0.70898 0.87311 0.11529 0.0
C2919 C 0.71694 0.87662 0.12432 0.0
H2920 H 0.13502 0.83418 0.12689 0.0
H2921 H 0.25284 0.91198 0.12859 0.0
H2922 H 0.14132 0.82712 0.11119 0.0
H2923 H 0.25933 0.90382 0.11303 0.0
H2924 H 0.25416 0.91303 0.08344 0.0
H2925 H 0.24561 0.91926 0.09899 0.0
H2926 H 0.16534 0.80196 0.10038 0.0
H2927 H 0.17283 0.79598 0.08469 0.0
C2928 C 0.16231 0.84974 0.12395 0.0
C2929 C 0.19338 0.87367 0.12911 0.0
C2930 C 0.166 0.84538 0.11492 0.0
C2931 C 0.20085 0.86495 0.11074 0.0
C2932 C 0.23192 0.88861 0.11592 0.0
C2933 C 0.22825 0.8929 0.12493 0.0
C2934 C 0.23421 0.88857 0.08699 0.0
C2935 C 0.21412 0.85399 0.0827 0.0
C2936 C 0.22969 0.89207 0.096 0.0
C2937 C 0.20492 0.86111 0.10105 0.0
C2938 C 0.18448 0.82656 0.09675 0.0
C2939 C 0.18907 0.82304 0.08773 0.0
H2940 H 0.39189 0.2277 0.46095 0.0
H2941 H 0.3546 0.11044 0.46294 0.0
H2942 H 0.37727 0.22009 0.44534 0.0
H2943 H 0.33836 0.10253 0.44746 0.0
H2944 H 0.34706 0.10595 0.41759 0.0
H2945 H 0.36408 0.11493 0.43306 0.0
H2946 H 0.32739 0.19534 0.43511 0.0
H2947 H 0.3121 0.1877 0.41958 0.0
C2948 C 0.38051 0.20024 0.45809 0.0
C2949 C 0.37447 0.16973 0.4633 0.0
C2950 C 0.37168 0.19577 0.44912 0.0
C2951 C 0.35653 0.16064 0.44505 0.0
C2952 C 0.35038 0.13012 0.45027 0.0
C2953 C 0.35921 0.1346 0.45923 0.0
C2954 C 0.34303 0.12591 0.42129 0.0
C2955 C 0.32801 0.14596 0.41725 0.0
C2956 C 0.35237 0.13073 0.43024 0.0
C2957 C 0.34704 0.1558 0.43544 0.0
C2958 C 0.33233 0.17606 0.43137 0.0
C2959 C 0.32303 0.17126 0.42244 0.0
H2960 H 0.89808 0.2424 0.41542 0.0
H2961 H 0.85632 0.125 0.41926 0.0
H2962 H 0.88915 0.24926 0.43094 0.0
H2963 H 0.84789 0.13208 0.43483 0.0
H2964 H 0.87649 0.16758 0.4639 0.0
H2965 H 0.88281 0.15903 0.44827 0.0
H2966 H 0.84245 0.23408 0.44212 0.0
H2967 H 0.83715 0.24343 0.45771 0.0
C2968 C 0.88649 0.21785 0.41952 0.0
C2969 C 0.87792 0.18308 0.41596 0.0
C2970 C 0.88145 0.22185 0.42848 0.0
C2971 C 0.86781 0.19127 0.43422 0.0
C2972 C 0.85899 0.15644 0.43068 0.0
C2973 C 0.86387 0.15239 0.4217 0.0
C2974 C 0.86907 0.18239 0.45922 0.0
C2975 C 0.85626 0.20621 0.46215 0.0
C2976 C 0.87236 0.17719 0.45022 0.0
C2977 C 0.86321 0.19587 0.44385 0.0
C2978 C 0.85017 0.21948 0.44678 0.0
C2979 C 0.84667 0.22449 0.45577 0.0
H2980 H 0.79517 0.66635 0.41606 0.0
H2981 H 0.91338 0.73856 0.41955 0.0
H2982 H 0.78889 0.65052 0.43156 0.0
H2983 H 0.90687 0.72306 0.43511 0.0
H2984 H 0.87373 0.71768 0.46432 0.0
H2985 H 0.88166 0.73243 0.44869 0.0
H2986 H 0.80329 0.6177 0.44259 0.0
H2987 H 0.79461 0.60317 0.45818 0.0
C2988 C 0.82001 0.67854 0.42007 0.0
C2989 C 0.85485 0.70382 0.41642 0.0
C2990 C 0.81633 0.66948 0.42902 0.0
C2991 C 0.84733 0.68549 0.43467 0.0
C2992 C 0.88222 0.71056 0.43104 0.0
C2993 C 0.88594 0.71948 0.42207 0.0
C2994 C 0.85806 0.69557 0.45966 0.0
C2995 C 0.83352 0.65916 0.4626 0.0
C2996 C 0.8629 0.70399 0.45066 0.0
C2997 C 0.84311 0.67633 0.4443 0.0
C2998 C 0.81876 0.63989 0.44724 0.0
C2999 C 0.81412 0.63144 0.45623 0.0
H3000 H 0.88957 0.76017 0.92034 0.0
H3001 H 0.86208 0.6472 0.91477 0.0
H3002 H 0.87931 0.74547 0.93589 0.0
H3003 H 0.85389 0.63309 0.93035 0.0
H3004 H 0.81203 0.60775 0.95836 0.0
H3005 H 0.81647 0.62258 0.94283 0.0
H3006 H 0.90573 0.7339 0.9483 0.0
H3007 H 0.89986 0.71971 0.96388 0.0
C3008 C 0.8811 0.73208 0.92239 0.0
C3009 C 0.87675 0.70499 0.91618 0.0
C3010 C 0.87574 0.72375 0.93138 0.0
C3011 C 0.86594 0.68805 0.9345 0.0
C3012 C 0.86101 0.6608 0.92828 0.0
C3013 C 0.86625 0.6691 0.91929 0.0
C3014 C 0.83217 0.63565 0.95631 0.0
C3015 C 0.85556 0.66241 0.9625 0.0
C3016 C 0.83513 0.64404 0.94732 0.0
C3017 C 0.86167 0.67947 0.94418 0.0
C3018 C 0.88465 0.70641 0.95039 0.0
C3019 C 0.8816 0.69806 0.95938 0.0
H3020 H 0.28035 0.13957 0.91999 0.0
H3021 H 0.39265 0.2272 0.91484 0.0
H3022 H 0.29444 0.14353 0.93557 0.0
H3023 H 0.40611 0.23259 0.93046 0.0
H3024 H 0.43089 0.21551 0.95847 0.0
H3025 H 0.41684 0.20554 0.94288 0.0
H3026 H 0.3046 0.18091 0.94807 0.0
H3027 H 0.31805 0.18883 0.9637 0.0
C3028 C 0.30817 0.15956 0.92213 0.0
C3029 C 0.33526 0.18305 0.91603 0.0
C3030 C 0.31614 0.16224 0.93114 0.0
C3031 C 0.35144 0.18858 0.9344 0.0
C3032 C 0.3787 0.21165 0.92828 0.0
C3033 C 0.37078 0.20888 0.91927 0.0
C3034 C 0.40296 0.20727 0.95634 0.0
C3035 C 0.37571 0.20307 0.96246 0.0
C3036 C 0.39502 0.20208 0.94732 0.0
C3037 C 0.35956 0.1926 0.94409 0.0
C3038 C 0.33214 0.18779 0.95023 0.0
C3039 C 0.34004 0.19286 0.95924 0.0
H3040 H 0.8101 0.17443 0.91509 0.0
H3041 H 0.89896 0.1517 0.92033 0.0
H3042 H 0.80443 0.18244 0.9307 0.0
H3043 H 0.89469 0.16177 0.9359 0.0
H3044 H 0.84989 0.14022 0.96404 0.0
H3045 H 0.85775 0.13447 0.94842 0.0
H3046 H 0.83083 0.22047 0.94314 0.0
H3047 H 0.82093 0.22473 0.95872 0.0
C3048 C 0.82862 0.17128 0.91954 0.0
C3049 C 0.8549 0.16217 0.91633 0.0
C3050 C 0.82569 0.1764 0.92855 0.0
C3051 C 0.84902 0.17275 0.93469 0.0
C3052 C 0.87577 0.16433 0.93147 0.0
C3053 C 0.87862 0.15908 0.92245 0.0
C3054 C 0.84533 0.15777 0.95957 0.0
C3055 C 0.83453 0.18284 0.96277 0.0
C3056 C 0.85036 0.15481 0.95056 0.0
C3057 C 0.84492 0.17692 0.94439 0.0
C3058 C 0.8348 0.20249 0.9476 0.0
C3059 C 0.82965 0.20536 0.95661 0.0
H3060 H 0.69258 0.91168 0.58342 0.0
H3061 H 0.65073 0.79345 0.58511 0.0
H3062 H 0.70729 0.91812 0.59897 0.0
H3063 H 0.6641 0.79972 0.60081 0.0
H3064 H 0.72625 0.83052 0.62736 0.0
H3065 H 0.713 0.82308 0.61165 0.0
H3066 H 0.67807 0.90498 0.61299 0.0
H3067 H 0.69268 0.91348 0.62854 0.0
C3068 C 0.6867 0.88699 0.58707 0.0
C3069 C 0.67049 0.85201 0.5829 0.0
C3070 C 0.69467 0.89063 0.59608 0.0
C3071 C 0.68672 0.85944 0.60126 0.0
C3072 C 0.67094 0.82449 0.59708 0.0
C3073 C 0.66288 0.82082 0.58805 0.0
C3074 C 0.71596 0.84713 0.6243 0.0
C3075 C 0.7106 0.87262 0.62932 0.0
C3076 C 0.70796 0.84257 0.61528 0.0
C3077 C 0.69451 0.86348 0.61095 0.0
C3078 C 0.68885 0.88869 0.61599 0.0
C3079 C 0.69676 0.89319 0.625 0.0
H3080 H 0.13247 0.80776 0.58263 0.0
H3081 H 0.25005 0.85086 0.58642 0.0
H3082 H 0.12589 0.81759 0.59811 0.0
H3083 H 0.24328 0.86025 0.60195 0.0
H3084 H 0.20877 0.83336 0.63108 0.0
H3085 H 0.21705 0.82621 0.61548 0.0
H3086 H 0.1408 0.86484 0.60914 0.0
H3087 H 0.13168 0.87092 0.6247 0.0
C3088 C 0.15712 0.81984 0.58671 0.0
C3089 C 0.19186 0.82851 0.58316 0.0
C3090 C 0.15328 0.82541 0.59564 0.0
C3091 C 0.18401 0.83971 0.60137 0.0
C3092 C 0.21881 0.84864 0.59782 0.0
C3093 C 0.22269 0.84322 0.58887 0.0
C3094 C 0.19363 0.84022 0.62637 0.0
C3095 C 0.16953 0.85277 0.62923 0.0
C3096 C 0.19869 0.83646 0.61739 0.0
C3097 C 0.17959 0.84486 0.61097 0.0
C3098 C 0.15572 0.85767 0.61384 0.0
C3099 C 0.15084 0.86163 0.6228 0.0
H3100 H 0.23423 0.33216 0.58234 0.0
H3101 H 0.18776 0.40402 0.58578 0.0
H3102 H 0.22449 0.31624 0.59783 0.0
H3103 H 0.17856 0.38842 0.60133 0.0
H3104 H 0.20604 0.38292 0.63056 0.0
H3105 H 0.21303 0.39782 0.61494 0.0
H3106 H 0.17702 0.28318 0.60879 0.0
H3107 H 0.17102 0.26853 0.62438 0.0
C3108 C 0.22144 0.34425 0.58634 0.0
C3109 C 0.21179 0.36945 0.58268 0.0
C3110 C 0.21594 0.33513 0.59528 0.0
C3111 C 0.20075 0.35101 0.60091 0.0
C3112 C 0.19086 0.37601 0.59727 0.0
C3113 C 0.19618 0.385 0.5883 0.0
C3114 C 0.19971 0.36088 0.62589 0.0
C3115 C 0.1879 0.32445 0.62881 0.0
C3116 C 0.20339 0.36937 0.61689 0.0
C3117 C 0.19567 0.34178 0.61053 0.0
C3118 C 0.18363 0.30533 0.61345 0.0
C3119 C 0.17972 0.29679 0.62243 0.0
H3120 H 0.96911 0.52016 0.75287 0.0
H3121 H 0.04241 0.47555 0.7492 0.0
H3122 H 0.98486 0.52916 0.76843 0.0
H3123 H 0.05844 0.48505 0.7647 0.0
H3124 H 0.10584 0.53801 0.79133 0.0
H3125 H 0.091 0.53221 0.77575 0.0
H3126 H 0.97624 0.4947 0.78196 0.0
H3127 H 0.99132 0.50154 0.79757 0.0
C3128 C 0.98848 0.51211 0.75535 0.0
C3129 C 1.0044 0.4971 0.74966 0.0
C3130 C 0.99755 0.51731 0.76431 0.0
C3131 C 1.02298 0.50787 0.7679 0.0
C3132 C 0.03921 0.49326 0.7622 0.0
C3133 C 0.03003 0.48789 0.75325 0.0
C3134 C 0.0775 0.52902 0.7894 0.0
C3135 C 0.04987 0.52038 0.79579 0.0
C3136 C 0.06886 0.52523 0.78042 0.0
C3137 C 0.03232 0.51282 0.77751 0.0
C3138 C 1.00476 0.50464 0.7839 0.0
C3139 C 1.01336 0.50822 0.79289 0.0
H3140 H 0.56001 0.47627 0.75375 0.0
H3141 H 0.52946 0.55966 0.74848 0.0
H3142 H 0.55047 0.48061 0.76934 0.0
H3143 H 0.52197 0.56553 0.76411 0.0
H3144 H 0.48212 0.54874 0.79231 0.0
H3145 H 0.48575 0.5383 0.77673 0.0
H3146 H 0.57704 0.51898 0.7817 0.0
H3147 H 0.572 0.52728 0.79732 0.0
C3148 C 0.55101 0.4954 0.75587 0.0
C3149 C 0.54559 0.51759 0.74973 0.0
C3150 C 0.54607 0.49833 0.76489 0.0
C3151 C 0.53563 0.52364 0.76812 0.0
C3152 C 0.52962 0.5454 0.76196 0.0
C3153 C 0.53444 0.54237 0.75294 0.0
C3154 C 0.50255 0.54157 0.79013 0.0
C3155 C 0.52676 0.53898 0.79619 0.0
C3156 C 0.50503 0.53611 0.78112 0.0
C3157 C 0.53188 0.52797 0.77782 0.0
C3158 C 0.55569 0.52479 0.7839 0.0
C3159 C 0.55312 0.53009 0.79292 0.0
H3160 H 0.48256 0.97926 0.74814 0.0
H3161 H 0.56723 0.09262 0.75363 0.0
H3162 H 0.47669 0.96541 0.76373 0.0
H3163 H 0.56289 0.07818 0.76918 0.0
H3164 H 0.51666 0.05266 0.79717 0.0
H3165 H 0.52494 0.06657 0.78159 0.0
H3166 H 0.50357 0.95536 0.77625 0.0
H3167 H 0.49315 0.94078 0.7918 0.0
C3168 C 0.50013 1.0013 0.75264 0.0
C3169 C 0.52526 0.03722 0.7495 0.0
C3170 C 0.4971 0.99316 0.76164 0.0
C3171 C 0.51922 0.02059 0.76785 0.0
C3172 C 0.54489 0.05632 0.76469 0.0
C3173 C 0.54781 0.0645 0.75569 0.0
C3174 C 0.5134 0.03097 0.7927 0.0
C3175 C 0.50396 0.99543 0.79587 0.0
C3176 C 0.51869 0.03916 0.7837 0.0
C3177 C 0.51492 1.01217 0.77753 0.0
C3178 C 0.50622 0.97685 0.78071 0.0
C3179 C 0.50078 0.96861 0.78971 0.0
H3180 H 0.58802 0.01665 0.25067 0.0
H3181 H 0.5052 0.05036 0.2518 0.0
H3182 H 0.5793 1.00186 0.26621 0.0
H3183 H 0.4976 0.03699 0.26749 0.0
H3184 H 0.46731 0.97451 0.29392 0.0
H3185 H 0.474 0.98816 0.27825 0.0
H3186 H 0.59211 0.03049 0.28028 0.0
H3187 H 0.58523 1.0154 0.29581 0.0
C3188 C 0.56772 0.02073 0.2542 0.0
C3189 C 0.54725 0.03465 0.24987 0.0
C3190 C 0.56311 1.01273 0.2632 0.0
C3191 C 0.53788 0.01838 0.26822 0.0
C3192 C 0.51709 0.03194 0.26388 0.0
C3193 C 0.52175 0.04001 0.25487 0.0
C3194 C 0.49471 0.98651 0.29103 0.0
C3195 C 0.52568 0.99374 0.29623 0.0
C3196 C 0.49862 0.99475 0.28202 0.0
C3197 C 0.53361 1.01038 0.2779 0.0
C3198 C 0.5646 0.01799 0.28313 0.0
C3199 C 0.5607 1.0098 0.29212 0.0
H3200 H 0.98789 0.52583 0.29721 0.0
H3201 H 0.09995 0.55022 0.29189 0.0
H3202 H 0.974 0.5174 0.28162 0.0
H3203 H 0.08539 0.53963 0.27634 0.0
H3204 H 0.06118 0.55936 0.24815 0.0
H3205 H 0.07508 0.56575 0.26375 0.0
H3206 H 0.96247 0.47956 0.26921 0.0
H3207 H 0.94798 0.47472 0.25365 0.0
C3208 C 1.00964 0.52928 0.29275 0.0
C3209 C 0.04523 0.53899 0.29595 0.0
C3210 C 1.00145 0.52389 0.28375 0.0
C3211 C 0.02847 0.52782 0.27758 0.0
C3212 C 0.06385 0.53684 0.28079 0.0
C3213 C 0.07209 0.54239 0.2898 0.0
C3214 C 0.03917 0.54192 0.25265 0.0
C3215 C 1.00328 0.51662 0.24951 0.0
C3216 C 0.04735 0.54524 0.26166 0.0
C3217 C 1.02 0.52328 0.26788 0.0
C3218 C 0.98429 0.49747 0.26472 0.0
C3219 C 0.97607 0.49426 0.25571 0.0
H3220 H 0.4798 0.5108 0.24753 0.0
H3221 H 0.56377 0.48143 0.25313 0.0
H3222 H 0.47404 0.51938 0.26312 0.0
H3223 H 0.55941 0.49192 0.26868 0.0
H3224 H 0.51267 0.47226 0.29666 0.0
H3225 H 0.52068 0.4658 0.28108 0.0
H3226 H 0.5021 0.55723 0.27557 0.0
H3227 H 0.49215 0.5624 0.29111 0.0
C3228 C 0.49722 0.5063 0.25206 0.0
C3229 C 0.52217 0.4952 0.24896 0.0
C3230 C 0.49425 0.51172 0.26105 0.0
C3231 C 0.51619 0.50635 0.26728 0.0
C3232 C 0.5416 0.49587 0.26417 0.0
C3233 C 0.54451 0.49037 0.25518 0.0
C3234 C 0.51001 0.49089 0.29215 0.0
C3235 C 0.50155 0.51779 0.29526 0.0
C3236 C 0.51511 0.48748 0.28316 0.0
C3237 C 0.51203 0.51091 0.27695 0.0
C3238 C 0.50421 0.53824 0.28007 0.0
C3239 C 0.49903 0.5416 0.28906 0.0
H3240 H 0.03095 0.1633 0.29716 0.0
H3241 H 0.94626 0.18842 0.28916 0.0
H3242 H 0.05604 0.17572 0.28232 0.0
H3243 H 0.9713 0.20079 0.27432 0.0
H3244 H 0.04622 0.25373 0.25036 0.0
H3245 H 1.02217 0.24276 0.26529 0.0
H3246 H 0.04382 0.1517 0.26772 0.0
H3247 H 0.06927 0.16366 0.25294 0.0
C3248 C 1.01745 0.17123 0.29224 0.0
C3249 C 0.98643 0.17478 0.29445 0.0
C3250 C 0.03188 0.17835 0.28368 0.0
C3251 C 1.01579 0.18924 0.27702 0.0
C3252 C 0.98495 0.19307 0.27925 0.0
C3253 C 0.97053 0.18596 0.28781 0.0
C3254 C 0.04619 0.23154 0.25408 0.0
C3255 C 0.05984 0.20965 0.25034 0.0
C3256 C 0.03193 0.22494 0.26266 0.0
C3257 C 0.03091 0.19628 0.26781 0.0
C3258 C 0.04446 0.17433 0.26406 0.0
C3259 C 0.05865 0.18089 0.25548 0.0
H3260 H 0.80915 0.78253 0.29509 0.0
H3261 H 0.92348 0.86976 0.29242 0.0
H3262 H 0.79693 0.79327 0.28005 0.0
H3263 H 0.9109 0.88151 0.27754 0.0
H3264 H 0.88707 0.86904 0.24809 0.0
H3265 H 0.89869 0.8567 0.26303 0.0
H3266 H 0.78988 0.83567 0.27074 0.0
H3267 H 0.77825 0.84796 0.2558 0.0
C3268 C 0.83175 0.80404 0.29133 0.0
C3269 C 0.86738 0.82521 0.29507 0.0
C3270 C 0.8246 0.81052 0.28269 0.0
C3271 C 0.85285 0.83832 0.27748 0.0
C3272 C 0.88843 0.85954 0.28124 0.0
C3273 C 0.89555 0.85311 0.28987 0.0
C3274 C 0.86564 0.86202 0.25297 0.0
C3275 C 0.83166 0.8596 0.25064 0.0
C3276 C 0.87235 0.85495 0.26159 0.0
C3277 C 0.84535 0.84523 0.2682 0.0
C3278 C 0.81124 0.84249 0.26586 0.0
C3279 C 0.80452 0.84955 0.25724 0.0
H3280 H 0.26884 0.08882 0.29002 0.0
H3281 H 0.15964 1.00141 0.29764 0.0
H3282 H 0.25749 0.06459 0.2751 0.0
H3283 H 0.14831 0.97714 0.28271 0.0
H3284 H 0.12437 0.96654 0.25328 0.0
H3285 H 0.1368 0.99081 0.26819 0.0
H3286 H 0.25011 1.01426 0.26593 0.0
H3287 H 0.23807 0.99136 0.25087 0.0
C3288 C 0.24256 0.06412 0.28857 0.0
C3289 C 0.21519 0.04722 0.29511 0.0
C3290 C 0.23601 0.05019 0.27996 0.0
C3291 C 0.20187 0.01888 0.27761 0.0
C3292 C 0.17468 1.0017 0.28418 0.0
C3293 C 0.18122 1.01564 0.29278 0.0
C3294 C 0.15212 0.97731 0.2559 0.0
C3295 C 0.1802 0.97701 0.25078 0.0
C3296 C 0.15913 0.9908 0.26453 0.0
C3297 C 0.19448 1.00448 0.26836 0.0
C3298 C 0.22263 1.00434 0.26323 0.0
C3299 C 0.21559 0.99077 0.25459 0.0
H3300 H 0.94759 0.76706 0.78982 0.0
H3301 H 0.03131 0.87788 0.79757 0.0
H3302 H 0.97241 0.77923 0.77496 0.0
H3303 H 0.05619 0.89005 0.78271 0.0
H3304 H 0.06839 0.91368 0.75327 0.0
H3305 H 0.0432 0.90066 0.76808 0.0
H3306 H 0.02355 0.78849 0.76597 0.0
H3307 H 0.04734 0.80107 0.751 0.0
C3308 C 0.97161 0.79391 0.78841 0.0
C3309 C 0.9873 0.82143 0.79498 0.0
C3310 C 0.98589 0.80093 0.77984 0.0
C3311 C 1.01639 0.83573 0.77754 0.0
C3312 C 0.03229 0.86314 0.78413 0.0
C3313 C 1.01799 0.85612 0.7927 0.0
C3314 C 0.05826 0.88604 0.75589 0.0
C3315 C 0.05993 0.85846 0.75084 0.0
C3316 C 0.04423 0.87869 0.76448 0.0
C3317 C 0.03132 0.84349 0.76832 0.0
C3318 C 0.03282 0.81584 0.76326 0.0
C3319 C 0.04692 0.82321 0.75467 0.0
H3320 H 0.19336 0.26366 0.75588 0.0
H3321 H 0.17546 0.15622 0.74778 0.0
H3322 H 0.20522 0.25151 0.77081 0.0
H3323 H 0.18737 0.14407 0.76271 0.0
H3324 H 0.17273 0.1174 0.79199 0.0
H3325 H 0.16141 0.1305 0.77712 0.0
H3326 H 0.248 0.24502 0.78014 0.0
H3327 H 0.25827 0.23226 0.79517 0.0
C3328 C 0.1924 0.2376 0.75723 0.0
C3329 C 0.18337 0.21098 0.75054 0.0
C3330 C 0.19921 0.23058 0.76584 0.0
C3331 C 0.19721 0.19669 0.76806 0.0
C3332 C 0.18852 0.17022 0.76135 0.0
C3333 C 0.1817 0.17723 0.75274 0.0
C3334 C 0.18909 0.14554 0.78956 0.0
C3335 C 0.21639 0.17373 0.79489 0.0
C3336 C 0.18292 0.15297 0.78093 0.0
C3337 C 0.20383 0.18886 0.77732 0.0
C3338 C 0.23102 0.21711 0.78266 0.0
C3339 C 0.23723 0.20966 0.79129 0.0
H3340 H 0.80888 0.03562 0.79509 0.0
H3341 H 0.9236 0.06429 0.79233 0.0
H3342 H 0.7967 1.01242 0.78006 0.0
H3343 H 0.91108 0.03971 0.77745 0.0
H3344 H 0.8869 0.02776 0.74802 0.0
H3345 H 0.89844 0.05186 0.76296 0.0
H3346 H 0.79018 0.96315 0.77072 0.0
H3347 H 0.77863 0.93907 0.75578 0.0
C3348 C 0.83158 0.03701 0.79131 0.0
C3349 C 0.8673 0.05199 0.79503 0.0
C3350 C 0.82446 0.02324 0.78267 0.0
C3351 C 0.85284 0.02406 0.77744 0.0
C3352 C 0.88851 0.03892 0.78117 0.0
C3353 C 0.8956 0.05262 0.78981 0.0
C3354 C 0.86557 1.01316 0.7529 0.0
C3355 C 0.83177 0.98129 0.75059 0.0
C3356 C 0.87224 0.02703 0.76152 0.0
C3357 C 0.84537 1.00954 0.76816 0.0
C3358 C 0.81143 0.97787 0.76583 0.0
C3359 C 0.80476 0.964 0.7572 0.0
H3360 H 0.6761 0.56292 0.62894 0.0
H3361 H 0.63926 0.44633 0.62543 0.0
H3362 H 0.70014 0.57524 0.61399 0.0
H3363 H 0.66322 0.45861 0.61052 0.0
H3364 H 0.74273 0.49791 0.58715 0.0
H3365 H 0.71885 0.48628 0.60206 0.0
H3366 H 0.68302 0.56684 0.59877 0.0
H3367 H 0.70699 0.57852 0.58381 0.0
C3368 C 0.67284 0.5398 0.62498 0.0
C3369 C 0.65573 0.50358 0.6285 0.0
C3370 C 0.68666 0.54689 0.61636 0.0
C3371 C 0.68385 0.51801 0.61095 0.0
C3372 C 0.66667 0.48181 0.61447 0.0
C3373 C 0.65287 0.47473 0.62309 0.0
C3374 C 0.72937 0.5129 0.58953 0.0
C3375 C 0.72678 0.5391 0.58416 0.0
C3376 C 0.71563 0.50621 0.59815 0.0
C3377 C 0.69876 0.52547 0.60172 0.0
C3378 C 0.69625 0.55177 0.59636 0.0
C3379 C 0.71003 0.55848 0.58773 0.0
H3380 H 0.59004 0.20555 0.62608 0.0
H3381 H 0.47825 0.11234 0.62786 0.0
H3382 H 0.57739 0.21802 0.61126 0.0
H3383 H 0.4661 0.12388 0.61289 0.0
H3384 H 0.44464 0.17813 0.58898 0.0
H3385 H 0.45628 0.16538 0.60388 0.0
H3386 H 0.56815 0.19496 0.59658 0.0
H3387 H 0.55652 0.20776 0.58169 0.0
C3388 C 0.56265 0.18774 0.62335 0.0
C3389 C 0.53521 0.15793 0.62827 0.0
C3390 C 0.55553 0.19461 0.61476 0.0
C3391 C 0.52071 0.17193 0.61077 0.0
C3392 C 0.49316 0.14225 0.61571 0.0
C3393 C 0.5003 0.13535 0.6243 0.0
C3394 C 0.47162 0.18151 0.5905 0.0
C3395 C 0.49959 0.19409 0.58405 0.0
C3396 C 0.47834 0.17419 0.59909 0.0
C3397 C 0.51326 0.17919 0.60153 0.0
C3398 C 0.54111 0.19142 0.59506 0.0
C3399 C 0.5344 0.19875 0.58647 0.0
H3400 H 0.82844 0.33992 0.63067 0.0
H3401 H 0.93814 0.42627 0.62306 0.0
H3402 H 0.81677 0.31572 0.61573 0.0
H3403 H 0.92646 0.40212 0.60813 0.0
H3404 H 0.90654 0.32897 0.58385 0.0
H3405 H 0.91869 0.35214 0.59889 0.0
H3406 H 0.80534 0.32851 0.60118 0.0
H3407 H 0.79279 0.30393 0.5863 0.0
C3408 C 0.85006 0.35397 0.62581 0.0
C3409 C 0.8843 0.3852 0.62816 0.0
C3410 C 0.84332 0.34005 0.6172 0.0
C3411 C 0.87056 0.35688 0.61062 0.0
C3412 C 0.90491 0.38792 0.61299 0.0
C3413 C 0.91165 0.40183 0.6216 0.0
C3414 C 0.88405 0.32838 0.58757 0.0
C3415 C 0.84861 0.31443 0.58376 0.0
C3416 C 0.89117 0.34213 0.5962 0.0
C3417 C 0.86307 0.34233 0.60135 0.0
C3418 C 0.82768 0.32849 0.59753 0.0
C3419 C 0.82058 0.3148 0.5889 0.0
H3420 H 0.67514 0.19539 0.0813 0.0
H3421 H 0.76753 0.18301 0.08974 0.0
H3422 H 0.65074 0.18327 0.09621 0.0
H3423 H 0.74323 0.171 0.10463 0.0
H3424 H 0.67211 0.11684 0.12899 0.0
H3425 H 0.69515 0.12733 0.11397 0.0
H3426 H 0.6611 0.20923 0.11059 0.0
H3427 H 0.6366 0.19756 0.12546 0.0
C3428 C 0.69046 0.19033 0.08633 0.0
C3429 C 0.72342 0.19021 0.08422 0.0
C3430 C 0.67642 0.18339 0.09492 0.0
C3431 C 0.69489 0.17614 0.10173 0.0
C3432 C 0.72774 0.17581 0.0996 0.0
C3433 C 0.74175 0.18271 0.09101 0.0
C3434 C 0.66917 0.13686 0.12504 0.0
C3435 C 0.65237 0.1563 0.12854 0.0
C3436 C 0.68286 0.14324 0.11641 0.0
C3437 C 0.68018 0.16923 0.11097 0.0
C3438 C 0.6634 0.18868 0.11448 0.0
C3439 C 0.64975 0.18233 0.12311 0.0
H3440 H 0.84161 0.44608 0.12475 0.0
H3441 H 0.92012 0.56282 0.12855 0.0
H3442 H 0.82998 0.4588 0.10987 0.0
H3443 H 0.90848 0.57556 0.11363 0.0
H3444 H 0.9059 0.58031 0.08352 0.0
H3445 H 0.91795 0.56782 0.09842 0.0
H3446 H 0.80169 0.48649 0.10147 0.0
H3447 H 0.78966 0.49897 0.08661 0.0
C3448 C 0.85613 0.4746 0.12248 0.0
C3449 C 0.88178 0.50337 0.12796 0.0
C3450 C 0.84945 0.48192 0.11389 0.0
C3451 C 0.86818 0.5183 0.11046 0.0
C3452 C 0.89387 0.54709 0.11594 0.0
C3453 C 0.90055 0.53976 0.12454 0.0
C3454 C 0.88279 0.55992 0.08737 0.0
C3455 C 0.84675 0.54064 0.08375 0.0
C3456 C 0.88973 0.55275 0.09596 0.0
C3457 C 0.86087 0.52605 0.10124 0.0
C3458 C 0.82486 0.50677 0.09762 0.0
C3459 C 0.81793 0.51393 0.08903 0.0
H3460 H 0.53852 0.33628 0.1308 0.0
H3461 H 0.52808 0.42991 0.12241 0.0
H3462 H 0.52618 0.31197 0.11588 0.0
H3463 H 0.5158 0.40564 0.10749 0.0
H3464 H 0.4611 0.33436 0.08303 0.0
H3465 H 0.47185 0.3578 0.09804 0.0
H3466 H 0.55247 0.32223 0.10156 0.0
H3467 H 0.54058 0.29742 0.0867 0.0
C3468 C 0.53385 0.3519 0.12578 0.0
C3469 C 0.53439 0.38522 0.12791 0.0
C3470 C 0.52678 0.33791 0.11717 0.0
C3471 C 0.52003 0.35674 0.11037 0.0
C3472 C 0.52026 0.3899 0.11251 0.0
C3473 C 0.52731 0.40388 0.12113 0.0
C3474 C 0.4809 0.33119 0.08701 0.0
C3475 C 0.4999 0.31385 0.08355 0.0
C3476 C 0.48742 0.34509 0.09563 0.0
C3477 C 0.51309 0.34205 0.10111 0.0
C3478 C 0.53215 0.32479 0.09764 0.0
C3479 C 0.52567 0.31096 0.08902 0.0
H3480 H 0.34749 0.82087 0.9146 0.0
H3481 H 0.43173 0.93148 0.92235 0.0
H3482 H 0.32315 0.80855 0.92951 0.0
H3483 H 0.40745 0.91916 0.93725 0.0
H3484 H 0.33361 0.89729 0.96142 0.0
H3485 H 0.35688 0.91 0.94642 0.0
H3486 H 0.33633 0.79759 0.94408 0.0
H3487 H 0.31163 0.78444 0.95893 0.0
C3488 C 0.36105 0.84256 0.91948 0.0
C3489 C 0.39172 0.87724 0.91718 0.0
C3490 C 0.34705 0.83545 0.92808 0.0
C3491 C 0.36325 0.86275 0.93469 0.0
C3492 C 0.39373 0.89753 0.93237 0.0
C3493 C 0.40771 0.90464 0.92377 0.0
C3494 C 0.33371 0.87512 0.9577 0.0
C3495 C 0.32059 0.83976 0.96149 0.0
C3496 C 0.34753 0.88257 0.94909 0.0
C3497 C 0.34862 0.8549 0.94394 0.0
C3498 C 0.33561 0.81959 0.94774 0.0
C3499 C 0.32185 0.81216 0.95635 0.0
H3500 H 0.25547 0.53186 0.95859 0.0
H3501 H 0.1402 0.44786 0.96186 0.0
H3502 H 0.24233 0.54359 0.94376 0.0
H3503 H 0.12735 0.45851 0.94687 0.0
H3504 H 0.10945 0.51457 0.92281 0.0
H3505 H 0.12169 0.50217 0.93768 0.0
H3506 H 0.2278 0.51757 0.92934 0.0
H3507 H 0.21557 0.53006 0.91446 0.0
C3508 C 0.22723 0.51592 0.95618 0.0
C3509 C 0.19893 0.48895 0.96152 0.0
C3510 C 0.21977 0.52232 0.94758 0.0
C3511 C 0.18374 0.50197 0.94402 0.0
C3512 C 0.15538 0.47507 0.94936 0.0
C3513 C 0.16287 0.46863 0.95797 0.0
C3514 C 0.13522 0.51487 0.9241 0.0
C3515 C 0.16146 0.52339 0.91735 0.0
C3516 C 0.14229 0.50775 0.93267 0.0
C3517 C 0.17584 0.5089 0.9348 0.0
C3518 C 0.20194 0.51707 0.92804 0.0
C3519 C 0.19488 0.52422 0.91947 0.0
H3520 H 0.55918 0.65603 0.91739 0.0
H3521 H 0.44402 0.62365 0.92139 0.0
H3522 H 0.57344 0.68014 0.93232 0.0
H3523 H 0.4586 0.64931 0.93616 0.0
H3524 H 0.4884 0.66561 0.9653 0.0
H3525 H 0.47453 0.63987 0.95051 0.0
H3526 H 0.5803 0.72934 0.94159 0.0
H3527 H 0.59419 0.75494 0.95638 0.0
C3528 C 0.5368 0.65396 0.92143 0.0
C3529 C 0.50034 0.63772 0.91807 0.0
C3530 C 0.54512 0.6683 0.93 0.0
C3531 C 0.51728 0.66689 0.93555 0.0
C3532 C 0.48084 0.65063 0.93219 0.0
C3533 C 0.47253 0.63631 0.92362 0.0
C3534 C 0.50868 0.67999 0.96019 0.0
C3535 C 0.5425 0.71251 0.96213 0.0
C3536 C 0.50067 0.66518 0.95165 0.0
C3537 C 0.52616 0.68239 0.94474 0.0
C3538 C 0.5601 0.71477 0.9467 0.0
C3539 C 0.56812 0.72954 0.95524 0.0
H3540 H 0.30536 0.53256 0.45821 0.0
H3541 H 0.34238 0.45302 0.46169 0.0
H3542 H 0.32901 0.54393 0.44327 0.0
H3543 H 0.36612 0.46444 0.44671 0.0
H3544 H 0.37279 0.46726 0.41657 0.0
H3545 H 0.34889 0.45532 0.43153 0.0
H3546 H 0.38423 0.57173 0.43469 0.0
H3547 H 0.40803 0.58363 0.41976 0.0
C3548 C 0.31895 0.51775 0.45585 0.0
C3549 C 0.32194 0.49191 0.46127 0.0
C3550 C 0.33257 0.52429 0.44722 0.0
C3551 C 0.3497 0.50524 0.44368 0.0
C3552 C 0.35266 0.47933 0.44909 0.0
C3553 C 0.33901 0.47277 0.45773 0.0
C3554 C 0.37572 0.49042 0.42046 0.0
C3555 C 0.39237 0.52646 0.41684 0.0
C3556 C 0.36199 0.48355 0.42909 0.0
C3557 C 0.36442 0.51247 0.43442 0.0
C3558 C 0.38108 0.54849 0.4308 0.0
C3559 C 0.39479 0.55535 0.42218 0.0
H3560 H 0.57022 0.9243 0.41783 0.0
H3561 H 0.45825 0.83167 0.41992 0.0
H3562 H 0.58299 0.91292 0.43277 0.0
H3563 H 0.47146 0.81939 0.4347 0.0
H3564 H 0.49392 0.82981 0.46421 0.0
H3565 H 0.48168 0.84267 0.44938 0.0
H3566 H 0.59286 0.8712 0.44171 0.0
H3567 H 0.6051 0.85834 0.45654 0.0
C3568 C 0.54826 0.90147 0.42145 0.0
C3569 C 0.51313 0.87898 0.41757 0.0
C3570 C 0.55574 0.89465 0.43002 0.0
C3571 C 0.52832 0.86518 0.43504 0.0
C3572 C 0.49325 0.84264 0.43115 0.0
C3573 C 0.48579 0.8494 0.42257 0.0
C3574 C 0.51576 0.8386 0.45937 0.0
C3575 C 0.55056 0.84292 0.46167 0.0
C3576 C 0.50869 0.84597 0.45081 0.0
C3577 C 0.53617 0.85793 0.44425 0.0
C3578 C 0.57109 0.86261 0.44657 0.0
C3579 C 0.57816 0.85523 0.45513 0.0
H3580 H 0.25585 0.73194 0.4587 0.0
H3581 H 0.14065 0.70076 0.46201 0.0
H3582 H 0.24255 0.70679 0.44388 0.0
H3583 H 0.12766 0.67701 0.44703 0.0
H3584 H 0.10924 0.603 0.42291 0.0
H3585 H 0.1217 0.62768 0.43779 0.0
H3586 H 0.22805 0.71802 0.42946 0.0
H3587 H 0.21561 0.69327 0.41457 0.0
C3588 C 0.22759 0.7196 0.4563 0.0
C3589 C 0.19937 0.71841 0.46166 0.0
C3590 C 0.22004 0.70558 0.44771 0.0
C3591 C 0.18398 0.68985 0.44415 0.0
C3592 C 0.1557 0.6885 0.44951 0.0
C3593 C 0.16328 0.70258 0.45812 0.0
C3594 C 0.13513 0.6284 0.4242 0.0
C3595 C 0.16136 0.646 0.41745 0.0
C3596 C 0.14232 0.64261 0.43278 0.0
C3597 C 0.176 0.67494 0.43492 0.0
C3598 C 0.20209 0.69272 0.42816 0.0
C3599 C 0.19491 0.67849 0.41958 0.0
loop_
_geom_bond_atom_site_label_1
_geom_bond_atom_site_label_2
_geom_bond_distance
_geom_bond_site_symmetry_2
_ccdc_geom_bond_type
La0 C2 2.928 . S
La0 O20 2.521 . S
La0 O21 2.628 . S
La0 O22 2.554 . S
La0 O23 2.757 . S
La0 O24 2.470 . S
La0 O29 2.482 . S
La0 O31 2.503 . S
La1 C11 2.928 . S
La1 O23 2.482 . S
La1 O25 2.503 . S
La1 O26 2.521 . S
La1 O27 2.628 . S
La1 O28 2.554 . S
La1 O29 2.757 . S
La1 O30 2.470 . S
C2 La0 2.928 . S
C2 C3 1.503 . S
C2 O20 1.261 . S
C2 O21 1.243 . S
C3 C2 1.503 . S
C3 C4 1.394 . S
C3 C8 1.373 . S
C4 C3 1.394 . S
C4 C5 1.380 . S
C4 H32 0.930 . S
C5 C4 1.380 . S
C5 C6 1.376 . S
C5 H33 0.930 . S
C6 C5 1.376 . S
C6 C7 1.370 . S
C7 C6 1.370 . S
C7 C8 1.396 . S
C7 H34 0.929 . S
C8 C3 1.373 . S
C8 C7 1.396 . S
C8 H35 0.929 . S
C9 O22 1.240 . S
C9 O23 1.289 . S
C10 O24 1.258 . S
C10 O25 1.256 . S
C11 La1 2.928 . S
C11 C12 1.503 . S
C11 O26 1.261 . S
C11 O27 1.243 . S
C12 C11 1.503 . S
C12 C13 1.394 . S
C12 C17 1.373 . S
C13 C12 1.394 . S
C13 C14 1.380 . S
C13 H36 0.930 . S
C14 C13 1.380 . S
C14 C15 1.376 . S
C14 H37 0.930 . S
C15 C14 1.376 . S
C15 C16 1.370 . S
C16 C15 1.370 . S
C16 C17 1.396 . S
C16 H38 0.929 . S
C17 C12 1.373 . S
C17 C16 1.396 . S
C17 H39 0.929 . S
C18 O28 1.240 . S
C18 O29 1.289 . S
C19 O30 1.258 . S
C19 O31 1.256 . S
O20 La0 2.521 . S
O20 C2 1.261 . S
O21 La0 2.628 . S
O21 C2 1.243 . S
O22 La0 2.554 . S
O22 C9 1.240 . S
O23 La0 2.757 . S
O23 La1 2.482 . S
O23 C9 1.289 . S
O24 La0 2.470 . S
O24 C10 1.258 . S
O25 La1 2.503 . S
O25 C10 1.256 . S
O26 La1 2.521 . S
O26 C11 1.261 . S
O27 La1 2.628 . S
O27 C11 1.243 . S
O28 La1 2.554 . S
O28 C18 1.240 . S
O29 La0 2.482 . S
O29 La1 2.757 . S
O29 C18 1.289 . S
O30 La1 2.470 . S
O30 C19 1.258 . S
O31 La0 2.503 . S
O31 C19 1.256 . S
H32 C4 0.930 . S
H33 C5 0.930 . S
H34 C7 0.929 . S
H35 C8 0.929 . S
H36 C13 0.930 . S
H37 C14 0.930 . S
H38 C16 0.929 . S
H39 C17 0.929 . S
La40 C42 2.928 . S
La40 O60 2.521 . S
La40 O61 2.628 . S
La40 O62 2.554 . S
La40 O63 2.757 . S
La40 O64 2.470 . S
La40 O69 2.482 . S
La40 O71 2.503 . S
La41 C51 2.928 . S
La41 O63 2.482 . S
La41 O65 2.503 . S
La41 O66 2.521 . S
La41 O67 2.628 . S
La41 O68 2.554 . S
La41 O69 2.757 . S
La41 O70 2.470 . S
C42 La40 2.928 . S
C42 C43 1.503 . S
C42 O60 1.261 . S
C42 O61 1.243 . S
C43 C42 1.503 . S
C43 C44 1.394 . S
C43 C48 1.373 . S
C44 C43 1.394 . S
C44 C45 1.380 . S
C44 H72 0.930 . S
C45 C44 1.380 . S
C45 C46 1.376 . S
C45 H73 0.930 . S
C46 C45 1.376 . S
C46 C47 1.370 . S
C47 C46 1.370 . S
C47 C48 1.396 . S
C47 H74 0.929 . S
C48 C43 1.373 . S
C48 C47 1.396 . S
C48 H75 0.929 . S
C49 O62 1.240 . S
C49 O63 1.289 . S
C50 O64 1.258 . S
C50 O65 1.256 . S
C51 La41 2.928 . S
C51 C52 1.503 . S
C51 O66 1.261 . S
C51 O67 1.243 . S
C52 C51 1.503 . S
C52 C53 1.394 . S
C52 C57 1.373 . S
C53 C52 1.394 . S
C53 C54 1.380 . S
C53 H76 0.930 . S
C54 C53 1.380 . S
C54 C55 1.376 . S
C54 H77 0.930 . S
C55 C54 1.376 . S
C55 C56 1.370 . S
C56 C55 1.370 . S
C56 C57 1.396 . S
C56 H78 0.929 . S
C57 C52 1.373 . S
C57 C56 1.396 . S
C57 H79 0.929 . S
C58 O68 1.240 . S
C58 O69 1.289 . S
C59 O70 1.258 . S
C59 O71 1.256 . S
O60 La40 2.521 . S
O60 C42 1.261 . S
O61 La40 2.628 . S
O61 C42 1.243 . S
O62 La40 2.554 . S
O62 C49 1.240 . S
O63 La40 2.757 . S
O63 La41 2.482 . S
O63 C49 1.289 . S
O64 La40 2.470 . S
O64 C50 1.258 . S
O65 La41 2.503 . S
O65 C50 1.256 . S
O66 La41 2.521 . S
O66 C51 1.261 . S
O67 La41 2.628 . S
O67 C51 1.243 . S
O68 La41 2.554 . S
O68 C58 1.240 . S
O69 La40 2.482 . S
O69 La41 2.757 . S
O69 C58 1.289 . S
O70 La41 2.470 . S
O70 C59 1.258 . S
O71 La40 2.503 . S
O71 C59 1.256 . S
H72 C44 0.930 . S
H73 C45 0.930 . S
H74 C47 0.929 . S
H75 C48 0.929 . S
H76 C53 0.930 . S
H77 C54 0.930 . S
H78 C56 0.929 . S
H79 C57 0.929 . S
La80 C82 2.928 . S
La80 O100 2.521 . S
La80 O101 2.628 . S
La80 O102 2.554 . S
La80 O103 2.757 . S
La80 O104 2.470 . S
La80 O109 2.482 . S
La80 O111 2.503 . S
La81 C91 2.928 . S
La81 O103 2.482 . S
La81 O105 2.503 . S
La81 O106 2.521 . S
La81 O107 2.628 . S
La81 O108 2.554 . S
La81 O109 2.757 . S
La81 O110 2.470 . S
C82 La80 2.928 . S
C82 C83 1.503 . S
C82 O100 1.261 . S
C82 O101 1.243 . S
C83 C82 1.503 . S
C83 C84 1.394 . S
C83 C88 1.373 . S
C84 C83 1.394 . S
C84 C85 1.380 . S
C84 H112 0.930 . S
C85 C84 1.380 . S
C85 C86 1.376 . S
C85 H113 0.930 . S
C86 C85 1.376 . S
C86 C87 1.370 . S
C87 C86 1.370 . S
C87 C88 1.396 . S
C87 H114 0.929 . S
C88 C83 1.373 . S
C88 C87 1.396 . S
C88 H115 0.929 . S
C89 O102 1.240 . S
C89 O103 1.289 . S
C90 O104 1.258 . S
C90 O105 1.256 . S
C91 La81 2.928 . S
C91 C92 1.503 . S
C91 O106 1.261 . S
C91 O107 1.243 . S
C92 C91 1.503 . S
C92 C93 1.394 . S
C92 C97 1.373 . S
C93 C92 1.394 . S
C93 C94 1.380 . S
C93 H116 0.930 . S
C94 C93 1.380 . S
C94 C95 1.376 . S
C94 H117 0.930 . S
C95 C94 1.376 . S
C95 C96 1.370 . S
C96 C95 1.370 . S
C96 C97 1.396 . S
C96 H118 0.929 . S
C97 C92 1.373 . S
C97 C96 1.396 . S
C97 H119 0.929 . S
C98 O108 1.240 . S
C98 O109 1.289 . S
C99 O110 1.258 . S
C99 O111 1.256 . S
O100 La80 2.521 . S
O100 C82 1.261 . S
O101 La80 2.628 . S
O101 C82 1.243 . S
O102 La80 2.554 . S
O102 C89 1.240 . S
O103 La80 2.757 . S
O103 La81 2.482 . S
O103 C89 1.289 . S
O104 La80 2.470 . S
O104 C90 1.258 . S
O105 La81 2.503 . S
O105 C90 1.256 . S
O106 La81 2.521 . S
O106 C91 1.261 . S
O107 La81 2.628 . S
O107 C91 1.243 . S
O108 La81 2.554 . S
O108 C98 1.240 . S
O109 La80 2.482 . S
O109 La81 2.757 . S
O109 C98 1.289 . S
O110 La81 2.470 . S
O110 C99 1.258 . S
O111 La80 2.503 . S
O111 C99 1.256 . S
H112 C84 0.930 . S
H113 C85 0.930 . S
H114 C87 0.929 . S
H115 C88 0.929 . S
H116 C93 0.930 . S
H117 C94 0.930 . S
H118 C96 0.929 . S
H119 C97 0.929 . S
La120 C122 2.928 . S
La120 O140 2.521 . S
La120 O141 2.628 . S
La120 O142 2.554 . S
La120 O143 2.757 . S
La120 O144 2.470 . S
La120 O149 2.482 . S
La120 O151 2.503 . S
La121 C131 2.928 . S
La121 O143 2.482 . S
La121 O145 2.503 . S
La121 O146 2.521 . S
La121 O147 2.628 . S
La121 O148 2.554 . S
La121 O149 2.757 . S
La121 O150 2.470 . S
C122 La120 2.928 . S
C122 C123 1.503 . S
C122 O140 1.261 . S
C122 O141 1.243 . S
C123 C122 1.503 . S
C123 C124 1.394 . S
C123 C128 1.373 . S
C124 C123 1.394 . S
C124 C125 1.380 . S
C124 H152 0.930 . S
C125 C124 1.380 . S
C125 C126 1.376 . S
C125 H153 0.930 . S
C126 C125 1.376 . S
C126 C127 1.370 . S
C127 C126 1.370 . S
C127 C128 1.396 . S
C127 H154 0.929 . S
C128 C123 1.373 . S
C128 C127 1.396 . S
C128 H155 0.929 . S
C129 O142 1.240 . S
C129 O143 1.289 . S
C130 O144 1.258 . S
C130 O145 1.256 . S
C131 La121 2.928 . S
C131 C132 1.503 . S
C131 O146 1.261 . S
C131 O147 1.243 . S
C132 C131 1.503 . S
C132 C133 1.394 . S
C132 C137 1.373 . S
C133 C132 1.394 . S
C133 C134 1.380 . S
C133 H156 0.930 . S
C134 C133 1.380 . S
C134 C135 1.376 . S
C134 H157 0.930 . S
C135 C134 1.376 . S
C135 C136 1.370 . S
C136 C135 1.370 . S
C136 C137 1.396 . S
C136 H158 0.929 . S
C137 C132 1.373 . S
C137 C136 1.396 . S
C137 H159 0.929 . S
C138 O148 1.240 . S
C138 O149 1.289 . S
C139 O150 1.258 . S
C139 O151 1.256 . S
O140 La120 2.521 . S
O140 C122 1.261 . S
O141 La120 2.628 . S
O141 C122 1.243 . S
O142 La120 2.554 . S
O142 C129 1.240 . S
O143 La120 2.757 . S
O143 La121 2.482 . S
O143 C129 1.289 . S
O144 La120 2.470 . S
O144 C130 1.258 . S
O145 La121 2.503 . S
O145 C130 1.256 . S
O146 La121 2.521 . S
O146 C131 1.261 . S
O147 La121 2.628 . S
O147 C131 1.243 . S
O148 La121 2.554 . S
O148 C138 1.240 . S
O149 La120 2.482 . S
O149 La121 2.757 . S
O149 C138 1.289 . S
O150 La121 2.470 . S
O150 C139 1.258 . S
O151 La120 2.503 . S
O151 C139 1.256 . S
H152 C124 0.930 . S
H153 C125 0.930 . S
H154 C127 0.929 . S
H155 C128 0.929 . S
H156 C133 0.930 . S
H157 C134 0.930 . S
H158 C136 0.929 . S
H159 C137 0.929 . S
La160 C162 2.928 . S
La160 O180 2.521 . S
La160 O181 2.628 . S
La160 O182 2.554 . S
La160 O183 2.757 . S
La160 O184 2.470 . S
La160 O189 2.482 . S
La160 O191 2.503 . S
La161 C171 2.928 . S
La161 O183 2.482 . S
La161 O185 2.503 . S
La161 O186 2.521 . S
La161 O187 2.628 . S
La161 O188 2.554 . S
La161 O189 2.757 . S
La161 O190 2.470 . S
C162 La160 2.928 . S
C162 C163 1.503 . S
C162 O180 1.261 . S
C162 O181 1.243 . S
C163 C162 1.503 . S
C163 C164 1.394 . S
C163 C168 1.373 . S
C164 C163 1.394 . S
C164 C165 1.380 . S
C164 H192 0.930 . S
C165 C164 1.380 . S
C165 C166 1.376 . S
C165 H193 0.930 . S
C166 C165 1.376 . S
C166 C167 1.370 . S
C167 C166 1.370 . S
C167 C168 1.396 . S
C167 H194 0.929 . S
C168 C163 1.373 . S
C168 C167 1.396 . S
C168 H195 0.929 . S
C169 O182 1.240 . S
C169 O183 1.289 . S
C170 O184 1.258 . S
C170 O185 1.256 . S
C171 La161 2.928 . S
C171 C172 1.503 . S
C171 O186 1.261 . S
C171 O187 1.243 . S
C172 C171 1.503 . S
C172 C173 1.394 . S
C172 C177 1.373 . S
C173 C172 1.394 . S
C173 C174 1.380 . S
C173 H196 0.930 . S
C174 C173 1.380 . S
C174 C175 1.376 . S
C174 H197 0.930 . S
C175 C174 1.376 . S
C175 C176 1.370 . S
C176 C175 1.370 . S
C176 C177 1.396 . S
C176 H198 0.929 . S
C177 C172 1.373 . S
C177 C176 1.396 . S
C177 H199 0.929 . S
C178 O188 1.240 . S
C178 O189 1.289 . S
C179 O190 1.258 . S
C179 O191 1.256 . S
O180 La160 2.521 . S
O180 C162 1.261 . S
O181 La160 2.628 . S
O181 C162 1.243 . S
O182 La160 2.554 . S
O182 C169 1.240 . S
O183 La160 2.757 . S
O183 La161 2.482 . S
O183 C169 1.289 . S
O184 La160 2.470 . S
O184 C170 1.258 . S
O185 La161 2.503 . S
O185 C170 1.256 . S
O186 La161 2.521 . S
O186 C171 1.261 . S
O187 La161 2.628 . S
O187 C171 1.243 . S
O188 La161 2.554 . S
O188 C178 1.240 . S
O189 La160 2.482 . S
O189 La161 2.757 . S
O189 C178 1.289 . S
O190 La161 2.470 . S
O190 C179 1.258 . S
O191 La160 2.503 . S
O191 C179 1.256 . S
H192 C164 0.930 . S
H193 C165 0.930 . S
H194 C167 0.929 . S
H195 C168 0.929 . S
H196 C173 0.930 . S
H197 C174 0.930 . S
H198 C176 0.929 . S
H199 C177 0.929 . S
La200 C202 2.928 . S
La200 O220 2.521 . S
La200 O221 2.628 . S
La200 O222 2.554 . S
La200 O223 2.757 . S
La200 O224 2.470 . S
La200 O229 2.482 . S
La200 O231 2.503 . S
La201 C211 2.928 . S
La201 O223 2.482 . S
La201 O225 2.503 . S
La201 O226 2.521 . S
La201 O227 2.628 . S
La201 O228 2.554 . S
La201 O229 2.757 . S
La201 O230 2.470 . S
C202 La200 2.928 . S
C202 C203 1.503 . S
C202 O220 1.261 . S
C202 O221 1.243 . S
C203 C202 1.503 . S
C203 C204 1.394 . S
C203 C208 1.373 . S
C204 C203 1.394 . S
C204 C205 1.380 . S
C204 H232 0.930 . S
C205 C204 1.380 . S
C205 C206 1.376 . S
C205 H233 0.930 . S
C206 C205 1.376 . S
C206 C207 1.370 . S
C207 C206 1.370 . S
C207 C208 1.396 . S
C207 H234 0.929 . S
C208 C203 1.373 . S
C208 C207 1.396 . S
C208 H235 0.929 . S
C209 O222 1.240 . S
C209 O223 1.289 . S
C210 O224 1.258 . S
C210 O225 1.256 . S
C211 La201 2.928 . S
C211 C212 1.503 . S
C211 O226 1.261 . S
C211 O227 1.243 . S
C212 C211 1.503 . S
C212 C213 1.394 . S
C212 C217 1.373 . S
C213 C212 1.394 . S
C213 C214 1.380 . S
C213 H236 0.930 . S
C214 C213 1.380 . S
C214 C215 1.376 . S
C214 H237 0.930 . S
C215 C214 1.376 . S
C215 C216 1.370 . S
C216 C215 1.370 . S
C216 C217 1.396 . S
C216 H238 0.929 . S
C217 C212 1.373 . S
C217 C216 1.396 . S
C217 H239 0.929 . S
C218 O228 1.240 . S
C218 O229 1.289 . S
C219 O230 1.258 . S
C219 O231 1.256 . S
O220 La200 2.521 . S
O220 C202 1.261 . S
O221 La200 2.628 . S
O221 C202 1.243 . S
O222 La200 2.554 . S
O222 C209 1.240 . S
O223 La200 2.757 . S
O223 La201 2.482 . S
O223 C209 1.289 . S
O224 La200 2.470 . S
O224 C210 1.258 . S
O225 La201 2.503 . S
O225 C210 1.256 . S
O226 La201 2.521 . S
O226 C211 1.261 . S
O227 La201 2.628 . S
O227 C211 1.243 . S
O228 La201 2.554 . S
O228 C218 1.240 . S
O229 La200 2.482 . S
O229 La201 2.757 . S
O229 C218 1.289 . S
O230 La201 2.470 . S
O230 C219 1.258 . S
O231 La200 2.503 . S
O231 C219 1.256 . S
H232 C204 0.930 . S
H233 C205 0.930 . S
H234 C207 0.929 . S
H235 C208 0.929 . S
H236 C213 0.930 . S
H237 C214 0.930 . S
H238 C216 0.929 . S
H239 C217 0.929 . S
La240 C242 2.928 . S
La240 O260 2.521 . S
La240 O261 2.628 . S
La240 O262 2.554 . S
La240 O263 2.757 . S
La240 O264 2.470 . S
La240 O269 2.482 . S
La240 O271 2.503 . S
La241 C251 2.928 . S
La241 O263 2.482 . S
La241 O265 2.503 . S
La241 O266 2.521 . S
La241 O267 2.628 . S
La241 O268 2.554 . S
La241 O269 2.757 . S
La241 O270 2.470 . S
C242 La240 2.928 . S
C242 C243 1.503 . S
C242 O260 1.261 . S
C242 O261 1.243 . S
C243 C242 1.503 . S
C243 C244 1.394 . S
C243 C248 1.373 . S
C244 C243 1.394 . S
C244 C245 1.380 . S
C244 H272 0.930 . S
C245 C244 1.380 . S
C245 C246 1.376 . S
C245 H273 0.930 . S
C246 C245 1.376 . S
C246 C247 1.370 . S
C247 C246 1.370 . S
C247 C248 1.396 . S
C247 H274 0.929 . S
C248 C243 1.373 . S
C248 C247 1.396 . S
C248 H275 0.929 . S
C249 O262 1.240 . S
C249 O263 1.289 . S
C250 O264 1.258 . S
C250 O265 1.256 . S
C251 La241 2.928 . S
C251 C252 1.503 . S
C251 O266 1.261 . S
C251 O267 1.243 . S
C252 C251 1.503 . S
C252 C253 1.394 . S
C252 C257 1.373 . S
C253 C252 1.394 . S
C253 C254 1.380 . S
C253 H276 0.930 . S
C254 C253 1.380 . S
C254 C255 1.376 . S
C254 H277 0.930 . S
C255 C254 1.376 . S
C255 C256 1.370 . S
C256 C255 1.370 . S
C256 C257 1.396 . S
C256 H278 0.929 . S
C257 C252 1.373 . S
C257 C256 1.396 . S
C257 H279 0.929 . S
C258 O268 1.240 . S
C258 O269 1.289 . S
C259 O270 1.258 . S
C259 O271 1.256 . S
O260 La240 2.521 . S
O260 C242 1.261 . S
O261 La240 2.628 . S
O261 C242 1.243 . S
O262 La240 2.554 . S
O262 C249 1.240 . S
O263 La240 2.757 . S
O263 La241 2.482 . S
O263 C249 1.289 . S
O264 La240 2.470 . S
O264 C250 1.258 . S
O265 La241 2.503 . S
O265 C250 1.256 . S
O266 La241 2.521 . S
O266 C251 1.261 . S
O267 La241 2.628 . S
O267 C251 1.243 . S
O268 La241 2.554 . S
O268 C258 1.240 . S
O269 La240 2.482 . S
O269 La241 2.757 . S
O269 C258 1.289 . S
O270 La241 2.470 . S
O270 C259 1.258 . S
O271 La240 2.503 . S
O271 C259 1.256 . S
H272 C244 0.930 . S
H273 C245 0.930 . S
H274 C247 0.929 . S
H275 C248 0.929 . S
H276 C253 0.930 . S
H277 C254 0.930 . S
H278 C256 0.929 . S
H279 C257 0.929 . S
La280 C282 2.928 . S
La280 O300 2.521 . S
La280 O301 2.628 . S
La280 O302 2.554 . S
La280 O303 2.757 . S
La280 O304 2.470 . S
La280 O309 2.482 . S
La280 O311 2.503 . S
La281 C291 2.928 . S
La281 O303 2.482 . S
La281 O305 2.503 . S
La281 O306 2.521 . S
La281 O307 2.628 . S
La281 O308 2.554 . S
La281 O309 2.757 . S
La281 O310 2.470 . S
C282 La280 2.928 . S
C282 C283 1.503 . S
C282 O300 1.261 . S
C282 O301 1.243 . S
C283 C282 1.503 . S
C283 C284 1.394 . S
C283 C288 1.373 . S
C284 C283 1.394 . S
C284 C285 1.380 . S
C284 H312 0.930 . S
C285 C284 1.380 . S
C285 C286 1.376 . S
C285 H313 0.930 . S
C286 C285 1.376 . S
C286 C287 1.370 . S
C287 C286 1.370 . S
C287 C288 1.396 . S
C287 H314 0.929 . S
C288 C283 1.373 . S
C288 C287 1.396 . S
C288 H315 0.929 . S
C289 O302 1.240 . S
C289 O303 1.289 . S
C290 O304 1.258 . S
C290 O305 1.256 . S
C291 La281 2.928 . S
C291 C292 1.503 . S
C291 O306 1.261 . S
C291 O307 1.243 . S
C292 C291 1.503 . S
C292 C293 1.394 . S
C292 C297 1.373 . S
C293 C292 1.394 . S
C293 C294 1.380 . S
C293 H316 0.930 . S
C294 C293 1.380 . S
C294 C295 1.376 . S
C294 H317 0.930 . S
C295 C294 1.376 . S
C295 C296 1.370 . S
C296 C295 1.370 . S
C296 C297 1.396 . S
C296 H318 0.929 . S
C297 C292 1.373 . S
C297 C296 1.396 . S
C297 H319 0.929 . S
C298 O308 1.240 . S
C298 O309 1.289 . S
C299 O310 1.258 . S
C299 O311 1.256 . S
O300 La280 2.521 . S
O300 C282 1.261 . S
O301 La280 2.628 . S
O301 C282 1.243 . S
O302 La280 2.554 . S
O302 C289 1.240 . S
O303 La280 2.757 . S
O303 La281 2.482 . S
O303 C289 1.289 . S
O304 La280 2.470 . S
O304 C290 1.258 . S
O305 La281 2.503 . S
O305 C290 1.256 . S
O306 La281 2.521 . S
O306 C291 1.261 . S
O307 La281 2.628 . S
O307 C291 1.243 . S
O308 La281 2.554 . S
O308 C298 1.240 . S
O309 La280 2.482 . S
O309 La281 2.757 . S
O309 C298 1.289 . S
O310 La281 2.470 . S
O310 C299 1.258 . S
O311 La280 2.503 . S
O311 C299 1.256 . S
H312 C284 0.930 . S
H313 C285 0.930 . S
H314 C287 0.929 . S
H315 C288 0.929 . S
H316 C293 0.930 . S
H317 C294 0.930 . S
H318 C296 0.929 . S
H319 C297 0.929 . S
La320 C322 2.928 . S
La320 O340 2.521 . S
La320 O341 2.628 . S
La320 O342 2.554 . S
La320 O343 2.757 . S
La320 O344 2.470 . S
La320 O349 2.482 . S
La320 O351 2.503 . S
La321 C331 2.928 . S
La321 O343 2.482 . S
La321 O345 2.503 . S
La321 O346 2.521 . S
La321 O347 2.628 . S
La321 O348 2.554 . S
La321 O349 2.757 . S
La321 O350 2.470 . S
C322 La320 2.928 . S
C322 C323 1.503 . S
C322 O340 1.261 . S
C322 O341 1.243 . S
C323 C322 1.503 . S
C323 C324 1.394 . S
C323 C328 1.373 . S
C324 C323 1.394 . S
C324 C325 1.380 . S
C324 H352 0.930 . S
C325 C324 1.380 . S
C325 C326 1.376 . S
C325 H353 0.930 . S
C326 C325 1.376 . S
C326 C327 1.370 . S
C327 C326 1.370 . S
C327 C328 1.396 . S
C327 H354 0.929 . S
C328 C323 1.373 . S
C328 C327 1.396 . S
C328 H355 0.929 . S
C329 O342 1.240 . S
C329 O343 1.289 . S
C330 O344 1.258 . S
C330 O345 1.256 . S
C331 La321 2.928 . S
C331 C332 1.503 . S
C331 O346 1.261 . S
C331 O347 1.243 . S
C332 C331 1.503 . S
C332 C333 1.394 . S
C332 C337 1.373 . S
C333 C332 1.394 . S
C333 C334 1.380 . S
C333 H356 0.930 . S
C334 C333 1.380 . S
C334 C335 1.376 . S
C334 H357 0.930 . S
C335 C334 1.376 . S
C335 C336 1.370 . S
C336 C335 1.370 . S
C336 C337 1.396 . S
C336 H358 0.929 . S
C337 C332 1.373 . S
C337 C336 1.396 . S
C337 H359 0.929 . S
C338 O348 1.240 . S
C338 O349 1.289 . S
C339 O350 1.258 . S
C339 O351 1.256 . S
O340 La320 2.521 . S
O340 C322 1.261 . S
O341 La320 2.628 . S
O341 C322 1.243 . S
O342 La320 2.554 . S
O342 C329 1.240 . S
O343 La320 2.757 . S
O343 La321 2.482 . S
O343 C329 1.289 . S
O344 La320 2.470 . S
O344 C330 1.258 . S
O345 La321 2.503 . S
O345 C330 1.256 . S
O346 La321 2.521 . S
O346 C331 1.261 . S
O347 La321 2.628 . S
O347 C331 1.243 . S
O348 La321 2.554 . S
O348 C338 1.240 . S
O349 La320 2.482 . S
O349 La321 2.757 . S
O349 C338 1.289 . S
O350 La321 2.470 . S
O350 C339 1.258 . S
O351 La320 2.503 . S
O351 C339 1.256 . S
H352 C324 0.930 . S
H353 C325 0.930 . S
H354 C327 0.929 . S
H355 C328 0.929 . S
H356 C333 0.930 . S
H357 C334 0.930 . S
H358 C336 0.929 . S
H359 C337 0.929 . S
La360 C362 2.928 . S
La360 O380 2.521 . S
La360 O381 2.628 . S
La360 O382 2.554 . S
La360 O383 2.757 . S
La360 O384 2.470 . S
La360 O389 2.482 . S
La360 O391 2.503 . S
La361 C371 2.928 . S
La361 O383 2.482 . S
La361 O385 2.503 . S
La361 O386 2.521 . S
La361 O387 2.628 . S
La361 O388 2.554 . S
La361 O389 2.757 . S
La361 O390 2.470 . S
C362 La360 2.928 . S
C362 C363 1.503 . S
C362 O380 1.261 . S
C362 O381 1.243 . S
C363 C362 1.503 . S
C363 C364 1.394 . S
C363 C368 1.373 . S
C364 C363 1.394 . S
C364 C365 1.380 . S
C364 H392 0.930 . S
C365 C364 1.380 . S
C365 C366 1.376 . S
C365 H393 0.930 . S
C366 C365 1.376 . S
C366 C367 1.370 . S
C367 C366 1.370 . S
C367 C368 1.396 . S
C367 H394 0.929 . S
C368 C363 1.373 . S
C368 C367 1.396 . S
C368 H395 0.929 . S
C369 O382 1.240 . S
C369 O383 1.289 . S
C370 O384 1.258 . S
C370 O385 1.256 . S
C371 La361 2.928 . S
C371 C372 1.503 . S
C371 O386 1.261 . S
C371 O387 1.243 . S
C372 C371 1.503 . S
C372 C373 1.394 . S
C372 C377 1.373 . S
C373 C372 1.394 . S
C373 C374 1.380 . S
C373 H396 0.930 . S
C374 C373 1.380 . S
C374 C375 1.376 . S
C374 H397 0.930 . S
C375 C374 1.376 . S
C375 C376 1.370 . S
C376 C375 1.370 . S
C376 C377 1.396 . S
C376 H398 0.929 . S
C377 C372 1.373 . S
C377 C376 1.396 . S
C377 H399 0.929 . S
C378 O388 1.240 . S
C378 O389 1.289 . S
C379 O390 1.258 . S
C379 O391 1.256 . S
O380 La360 2.521 . S
O380 C362 1.261 . S
O381 La360 2.628 . S
O381 C362 1.243 . S
O382 La360 2.554 . S
O382 C369 1.240 . S
O383 La360 2.757 . S
O383 La361 2.482 . S
O383 C369 1.289 . S
O384 La360 2.470 . S
O384 C370 1.258 . S
O385 La361 2.503 . S
O385 C370 1.256 . S
O386 La361 2.521 . S
O386 C371 1.261 . S
O387 La361 2.628 . S
O387 C371 1.243 . S
O388 La361 2.554 . S
O388 C378 1.240 . S
O389 La360 2.482 . S
O389 La361 2.757 . S
O389 C378 1.289 . S
O390 La361 2.470 . S
O390 C379 1.258 . S
O391 La360 2.503 . S
O391 C379 1.256 . S
H392 C364 0.930 . S
H393 C365 0.930 . S
H394 C367 0.929 . S
H395 C368 0.929 . S
H396 C373 0.930 . S
H397 C374 0.930 . S
H398 C376 0.929 . S
H399 C377 0.929 . S
La400 C402 2.928 . S
La400 O420 2.521 . S
La400 O421 2.628 . S
La400 O422 2.554 . S
La400 O423 2.757 . S
La400 O424 2.470 . S
La400 O429 2.482 . S
La400 O431 2.503 . S
La401 C411 2.928 . S
La401 O423 2.482 . S
La401 O425 2.503 . S
La401 O426 2.521 . S
La401 O427 2.628 . S
La401 O428 2.554 . S
La401 O429 2.757 . S
La401 O430 2.470 . S
C402 La400 2.928 . S
C402 C403 1.503 . S
C402 O420 1.261 . S
C402 O421 1.243 . S
C403 C402 1.503 . S
C403 C404 1.394 . S
C403 C408 1.373 . S
C404 C403 1.394 . S
C404 C405 1.380 . S
C404 H432 0.930 . S
C405 C404 1.380 . S
C405 C406 1.376 . S
C405 H433 0.930 . S
C406 C405 1.376 . S
C406 C407 1.370 . S
C407 C406 1.370 . S
C407 C408 1.396 . S
C407 H434 0.929 . S
C408 C403 1.373 . S
C408 C407 1.396 . S
C408 H435 0.929 . S
C409 O422 1.240 . S
C409 O423 1.289 . S
C410 O424 1.258 . S
C410 O425 1.256 . S
C411 La401 2.928 . S
C411 C412 1.503 . S
C411 O426 1.261 . S
C411 O427 1.243 . S
C412 C411 1.503 . S
C412 C413 1.394 . S
C412 C417 1.373 . S
C413 C412 1.394 . S
C413 C414 1.380 . S
C413 H436 0.930 . S
C414 C413 1.380 . S
C414 C415 1.376 . S
C414 H437 0.930 . S
C415 C414 1.376 . S
C415 C416 1.370 . S
C416 C415 1.370 . S
C416 C417 1.396 . S
C416 H438 0.929 . S
C417 C412 1.373 . S
C417 C416 1.396 . S
C417 H439 0.929 . S
C418 O428 1.240 . S
C418 O429 1.289 . S
C419 O430 1.258 . S
C419 O431 1.256 . S
O420 La400 2.521 . S
O420 C402 1.261 . S
O421 La400 2.628 . S
O421 C402 1.243 . S
O422 La400 2.554 . S
O422 C409 1.240 . S
O423 La400 2.757 . S
O423 La401 2.482 . S
O423 C409 1.289 . S
O424 La400 2.470 . S
O424 C410 1.258 . S
O425 La401 2.503 . S
O425 C410 1.256 . S
O426 La401 2.521 . S
O426 C411 1.261 . S
O427 La401 2.628 . S
O427 C411 1.243 . S
O428 La401 2.554 . S
O428 C418 1.240 . S
O429 La400 2.482 . S
O429 La401 2.757 . S
O429 C418 1.289 . S
O430 La401 2.470 . S
O430 C419 1.258 . S
O431 La400 2.503 . S
O431 C419 1.256 . S
H432 C404 0.930 . S
H433 C405 0.930 . S
H434 C407 0.929 . S
H435 C408 0.929 . S
H436 C413 0.930 . S
H437 C414 0.930 . S
H438 C416 0.929 . S
H439 C417 0.929 . S
La440 C442 2.928 . S
La440 O460 2.521 . S
La440 O461 2.628 . S
La440 O462 2.554 . S
La440 O463 2.757 . S
La440 O464 2.470 . S
La440 O469 2.482 . S
La440 O471 2.503 . S
La441 C451 2.928 . S
La441 O463 2.482 . S
La441 O465 2.503 . S
La441 O466 2.521 . S
La441 O467 2.628 . S
La441 O468 2.554 . S
La441 O469 2.757 . S
La441 O470 2.470 . S
C442 La440 2.928 . S
C442 C443 1.503 . S
C442 O460 1.261 . S
C442 O461 1.243 . S
C443 C442 1.503 . S
C443 C444 1.394 . S
C443 C448 1.373 . S
C444 C443 1.394 . S
C444 C445 1.380 . S
C444 H472 0.930 . S
C445 C444 1.380 . S
C445 C446 1.376 . S
C445 H473 0.930 . S
C446 C445 1.376 . S
C446 C447 1.370 . S
C447 C446 1.370 . S
C447 C448 1.396 . S
C447 H474 0.929 . S
C448 C443 1.373 . S
C448 C447 1.396 . S
C448 H475 0.929 . S
C449 O462 1.240 . S
C449 O463 1.289 . S
C450 O464 1.258 . S
C450 O465 1.256 . S
C451 La441 2.928 . S
C451 C452 1.503 . S
C451 O466 1.261 . S
C451 O467 1.243 . S
C452 C451 1.503 . S
C452 C453 1.394 . S
C452 C457 1.373 . S
C453 C452 1.394 . S
C453 C454 1.380 . S
C453 H476 0.930 . S
C454 C453 1.380 . S
C454 C455 1.376 . S
C454 H477 0.930 . S
C455 C454 1.376 . S
C455 C456 1.370 . S
C456 C455 1.370 . S
C456 C457 1.396 . S
C456 H478 0.929 . S
C457 C452 1.373 . S
C457 C456 1.396 . S
C457 H479 0.929 . S
C458 O468 1.240 . S
C458 O469 1.289 . S
C459 O470 1.258 . S
C459 O471 1.256 . S
O460 La440 2.521 . S
O460 C442 1.261 . S
O461 La440 2.628 . S
O461 C442 1.243 . S
O462 La440 2.554 . S
O462 C449 1.240 . S
O463 La440 2.757 . S
O463 La441 2.482 . S
O463 C449 1.289 . S
O464 La440 2.470 . S
O464 C450 1.258 . S
O465 La441 2.503 . S
O465 C450 1.256 . S
O466 La441 2.521 . S
O466 C451 1.261 . S
O467 La441 2.628 . S
O467 C451 1.243 . S
O468 La441 2.554 . S
O468 C458 1.240 . S
O469 La440 2.482 . S
O469 La441 2.757 . S
O469 C458 1.289 . S
O470 La441 2.470 . S
O470 C459 1.258 . S
O471 La440 2.503 . S
O471 C459 1.256 . S
H472 C444 0.930 . S
H473 C445 0.930 . S
H474 C447 0.929 . S
H475 C448 0.929 . S
H476 C453 0.930 . S
H477 C454 0.930 . S
H478 C456 0.929 . S
H479 C457 0.929 . S
La480 C482 2.928 . S
La480 O500 2.521 . S
La480 O501 2.628 . S
La480 O502 2.554 . S
La480 O503 2.757 . S
La480 O504 2.470 . S
La480 O509 2.482 . S
La480 O511 2.503 . S
La481 C491 2.928 . S
La481 O503 2.482 . S
La481 O505 2.503 . S
La481 O506 2.521 . S
La481 O507 2.628 . S
La481 O508 2.554 . S
La481 O509 2.757 . S
La481 O510 2.470 . S
C482 La480 2.928 . S
C482 C483 1.503 . S
C482 O500 1.261 . S
C482 O501 1.243 . S
C483 C482 1.503 . S
C483 C484 1.394 . S
C483 C488 1.373 . S
C484 C483 1.394 . S
C484 C485 1.380 . S
C484 H512 0.930 . S
C485 C484 1.380 . S
C485 C486 1.376 . S
C485 H513 0.930 . S
C486 C485 1.376 . S
C486 C487 1.370 . S
C487 C486 1.370 . S
C487 C488 1.396 . S
C487 H514 0.929 . S
C488 C483 1.373 . S
C488 C487 1.396 . S
C488 H515 0.929 . S
C489 O502 1.240 . S
C489 O503 1.289 . S
C490 O504 1.258 . S
C490 O505 1.256 . S
C491 La481 2.928 . S
C491 C492 1.503 . S
C491 O506 1.261 . S
C491 O507 1.243 . S
C492 C491 1.503 . S
C492 C493 1.394 . S
C492 C497 1.373 . S
C493 C492 1.394 . S
C493 C494 1.380 . S
C493 H516 0.930 . S
C494 C493 1.380 . S
C494 C495 1.376 . S
C494 H517 0.930 . S
C495 C494 1.376 . S
C495 C496 1.370 . S
C496 C495 1.370 . S
C496 C497 1.396 . S
C496 H518 0.929 . S
C497 C492 1.373 . S
C497 C496 1.396 . S
C497 H519 0.929 . S
C498 O508 1.240 . S
C498 O509 1.289 . S
C499 O510 1.258 . S
C499 O511 1.256 . S
O500 La480 2.521 . S
O500 C482 1.261 . S
O501 La480 2.628 . S
O501 C482 1.243 . S
O502 La480 2.554 . S
O502 C489 1.240 . S
O503 La480 2.757 . S
O503 La481 2.482 . S
O503 C489 1.289 . S
O504 La480 2.470 . S
O504 C490 1.258 . S
O505 La481 2.503 . S
O505 C490 1.256 . S
O506 La481 2.521 . S
O506 C491 1.261 . S
O507 La481 2.628 . S
O507 C491 1.243 . S
O508 La481 2.554 . S
O508 C498 1.240 . S
O509 La480 2.482 . S
O509 La481 2.757 . S
O509 C498 1.289 . S
O510 La481 2.470 . S
O510 C499 1.258 . S
O511 La480 2.503 . S
O511 C499 1.256 . S
H512 C484 0.930 . S
H513 C485 0.930 . S
H514 C487 0.929 . S
H515 C488 0.929 . S
H516 C493 0.930 . S
H517 C494 0.930 . S
H518 C496 0.929 . S
H519 C497 0.929 . S
La520 C522 2.928 . S
La520 O540 2.521 . S
La520 O541 2.628 . S
La520 O542 2.554 . S
La520 O543 2.757 . S
La520 O544 2.470 . S
La520 O549 2.482 . S
La520 O551 2.503 . S
La521 C531 2.928 . S
La521 O543 2.482 . S
La521 O545 2.503 . S
La521 O546 2.521 . S
La521 O547 2.628 . S
La521 O548 2.554 . S
La521 O549 2.757 . S
La521 O550 2.470 . S
C522 La520 2.928 . S
C522 C523 1.503 . S
C522 O540 1.261 . S
C522 O541 1.243 . S
C523 C522 1.503 . S
C523 C524 1.394 . S
C523 C528 1.373 . S
C524 C523 1.394 . S
C524 C525 1.380 . S
C524 H552 0.930 . S
C525 C524 1.380 . S
C525 C526 1.376 . S
C525 H553 0.930 . S
C526 C525 1.376 . S
C526 C527 1.370 . S
C527 C526 1.370 . S
C527 C528 1.396 . S
C527 H554 0.929 . S
C528 C523 1.373 . S
C528 C527 1.396 . S
C528 H555 0.929 . S
C529 O542 1.240 . S
C529 O543 1.289 . S
C530 O544 1.258 . S
C530 O545 1.256 . S
C531 La521 2.928 . S
C531 C532 1.503 . S
C531 O546 1.261 . S
C531 O547 1.243 . S
C532 C531 1.503 . S
C532 C533 1.394 . S
C532 C537 1.373 . S
C533 C532 1.394 . S
C533 C534 1.380 . S
C533 H556 0.930 . S
C534 C533 1.380 . S
C534 C535 1.376 . S
C534 H557 0.930 . S
C535 C534 1.376 . S
C535 C536 1.370 . S
C536 C535 1.370 . S
C536 C537 1.396 . S
C536 H558 0.929 . S
C537 C532 1.373 . S
C537 C536 1.396 . S
C537 H559 0.929 . S
C538 O548 1.240 . S
C538 O549 1.289 . S
C539 O550 1.258 . S
C539 O551 1.256 . S
O540 La520 2.521 . S
O540 C522 1.261 . S
O541 La520 2.628 . S
O541 C522 1.243 . S
O542 La520 2.554 . S
O542 C529 1.240 . S
O543 La520 2.757 . S
O543 La521 2.482 . S
O543 C529 1.289 . S
O544 La520 2.470 . S
O544 C530 1.258 . S
O545 La521 2.503 . S
O545 C530 1.256 . S
O546 La521 2.521 . S
O546 C531 1.261 . S
O547 La521 2.628 . S
O547 C531 1.243 . S
O548 La521 2.554 . S
O548 C538 1.240 . S
O549 La520 2.482 . S
O549 La521 2.757 . S
O549 C538 1.289 . S
O550 La521 2.470 . S
O550 C539 1.258 . S
O551 La520 2.503 . S
O551 C539 1.256 . S
H552 C524 0.930 . S
H553 C525 0.930 . S
H554 C527 0.929 . S
H555 C528 0.929 . S
H556 C533 0.930 . S
H557 C534 0.930 . S
H558 C536 0.929 . S
H559 C537 0.929 . S
La560 C562 2.928 . S
La560 O580 2.521 . S
La560 O581 2.628 . S
La560 O582 2.554 . S
La560 O583 2.757 . S
La560 O584 2.470 . S
La560 O589 2.482 . S
La560 O591 2.503 . S
La561 C571 2.928 . S
La561 O583 2.482 . S
La561 O585 2.503 . S
La561 O586 2.521 . S
La561 O587 2.628 . S
La561 O588 2.554 . S
La561 O589 2.757 . S
La561 O590 2.470 . S
C562 La560 2.928 . S
C562 C563 1.503 . S
C562 O580 1.261 . S
C562 O581 1.243 . S
C563 C562 1.503 . S
C563 C564 1.394 . S
C563 C568 1.373 . S
C564 C563 1.394 . S
C564 C565 1.380 . S
C564 H592 0.930 . S
C565 C564 1.380 . S
C565 C566 1.376 . S
C565 H593 0.930 . S
C566 C565 1.376 . S
C566 C567 1.370 . S
C567 C566 1.370 . S
C567 C568 1.396 . S
C567 H594 0.929 . S
C568 C563 1.373 . S
C568 C567 1.396 . S
C568 H595 0.929 . S
C569 O582 1.240 . S
C569 O583 1.289 . S
C570 O584 1.258 . S
C570 O585 1.256 . S
C571 La561 2.928 . S
C571 C572 1.503 . S
C571 O586 1.261 . S
C571 O587 1.243 . S
C572 C571 1.503 . S
C572 C573 1.394 . S
C572 C577 1.373 . S
C573 C572 1.394 . S
C573 C574 1.380 . S
C573 H596 0.930 . S
C574 C573 1.380 . S
C574 C575 1.376 . S
C574 H597 0.930 . S
C575 C574 1.376 . S
C575 C576 1.370 . S
C576 C575 1.370 . S
C576 C577 1.396 . S
C576 H598 0.929 . S
C577 C572 1.373 . S
C577 C576 1.396 . S
C577 H599 0.929 . S
C578 O588 1.240 . S
C578 O589 1.289 . S
C579 O590 1.258 . S
C579 O591 1.256 . S
O580 La560 2.521 . S
O580 C562 1.261 . S
O581 La560 2.628 . S
O581 C562 1.243 . S
O582 La560 2.554 . S
O582 C569 1.240 . S
O583 La560 2.757 . S
O583 La561 2.482 . S
O583 C569 1.289 . S
O584 La560 2.470 . S
O584 C570 1.258 . S
O585 La561 2.503 . S
O585 C570 1.256 . S
O586 La561 2.521 . S
O586 C571 1.261 . S
O587 La561 2.628 . S
O587 C571 1.243 . S
O588 La561 2.554 . S
O588 C578 1.240 . S
O589 La560 2.482 . S
O589 La561 2.757 . S
O589 C578 1.289 . S
O590 La561 2.470 . S
O590 C579 1.258 . S
O591 La560 2.503 . S
O591 C579 1.256 . S
H592 C564 0.930 . S
H593 C565 0.930 . S
H594 C567 0.929 . S
H595 C568 0.929 . S
H596 C573 0.930 . S
H597 C574 0.930 . S
H598 C576 0.929 . S
H599 C577 0.929 . S
La600 C602 2.928 . S
La600 O620 2.521 . S
La600 O621 2.628 . S
La600 O622 2.554 . S
La600 O623 2.757 . S
La600 O624 2.470 . S
La600 O629 2.482 . S
La600 O631 2.503 . S
La601 C611 2.928 . S
La601 O623 2.482 . S
La601 O625 2.503 . S
La601 O626 2.521 . S
La601 O627 2.628 . S
La601 O628 2.554 . S
La601 O629 2.757 . S
La601 O630 2.470 . S
C602 La600 2.928 . S
C602 C603 1.503 . S
C602 O620 1.261 . S
C602 O621 1.243 . S
C603 C602 1.503 . S
C603 C604 1.394 . S
C603 C608 1.373 . S
C604 C603 1.394 . S
C604 C605 1.380 . S
C604 H632 0.930 . S
C605 C604 1.380 . S
C605 C606 1.376 . S
C605 H633 0.930 . S
C606 C605 1.376 . S
C606 C607 1.370 1_655 S
C607 C606 1.370 1_455 S
C607 C608 1.396 1_455 S
C607 H634 0.929 . S
C608 C603 1.373 . S
C608 C607 1.396 1_655 S
C608 H635 0.929 1_655 S
C609 O622 1.240 . S
C609 O623 1.289 . S
C610 O624 1.258 . S
C610 O625 1.256 . S
C611 La601 2.928 . S
C611 C612 1.503 . S
C611 O626 1.261 . S
C611 O627 1.243 . S
C612 C611 1.503 . S
C612 C613 1.394 . S
C612 C617 1.373 . S
C613 C612 1.394 . S
C613 C614 1.380 . S
C613 H636 0.930 . S
C614 C613 1.380 . S
C614 C615 1.376 . S
C614 H637 0.930 . S
C615 C614 1.376 . S
C615 C616 1.370 . S
C616 C615 1.370 . S
C616 C617 1.396 . S
C616 H638 0.929 . S
C617 C612 1.373 . S
C617 C616 1.396 . S
C617 H639 0.929 . S
C618 O628 1.240 . S
C618 O629 1.289 . S
C619 O630 1.258 . S
C619 O631 1.256 . S
O620 La600 2.521 . S
O620 C602 1.261 . S
O621 La600 2.628 . S
O621 C602 1.243 . S
O622 La600 2.554 . S
O622 C609 1.240 . S
O623 La600 2.757 . S
O623 La601 2.482 . S
O623 C609 1.289 . S
O624 La600 2.470 . S
O624 C610 1.258 . S
O625 La601 2.503 . S
O625 C610 1.256 . S
O626 La601 2.521 . S
O626 C611 1.261 . S
O627 La601 2.628 . S
O627 C611 1.243 . S
O628 La601 2.554 . S
O628 C618 1.240 . S
O629 La600 2.482 . S
O629 La601 2.757 . S
O629 C618 1.289 . S
O630 La601 2.470 . S
O630 C619 1.258 . S
O631 La600 2.503 . S
O631 C619 1.256 . S
H632 C604 0.930 . S
H633 C605 0.930 . S
H634 C607 0.929 . S
H635 C608 0.929 1_455 S
H636 C613 0.930 . S
H637 C614 0.930 . S
H638 C616 0.929 . S
H639 C617 0.929 . S
La640 C642 2.928 . S
La640 O660 2.521 . S
La640 O661 2.628 . S
La640 O662 2.554 . S
La640 O663 2.757 . S
La640 O664 2.470 . S
La640 O669 2.482 . S
La640 O671 2.503 . S
La641 C651 2.928 . S
La641 O663 2.482 . S
La641 O665 2.503 . S
La641 O666 2.521 . S
La641 O667 2.628 . S
La641 O668 2.554 . S
La641 O669 2.757 . S
La641 O670 2.470 . S
C642 La640 2.928 . S
C642 C643 1.503 . S
C642 O660 1.261 . S
C642 O661 1.243 . S
C643 C642 1.503 . S
C643 C644 1.394 . S
C643 C648 1.373 . S
C644 C643 1.394 . S
C644 C645 1.380 . S
C644 H672 0.930 . S
C645 C644 1.380 . S
C645 C646 1.376 . S
C645 H673 0.930 . S
C646 C645 1.376 . S
C646 C647 1.370 . S
C647 C646 1.370 . S
C647 C648 1.396 . S
C647 H674 0.929 . S
C648 C643 1.373 . S
C648 C647 1.396 . S
C648 H675 0.929 . S
C649 O662 1.240 . S
C649 O663 1.289 . S
C650 O664 1.258 . S
C650 O665 1.256 . S
C651 La641 2.928 . S
C651 C652 1.503 . S
C651 O666 1.261 . S
C651 O667 1.243 . S
C652 C651 1.503 . S
C652 C653 1.394 . S
C652 C657 1.373 . S
C653 C652 1.394 . S
C653 C654 1.380 . S
C653 H676 0.930 . S
C654 C653 1.380 . S
C654 C655 1.376 . S
C654 H677 0.930 . S
C655 C654 1.376 . S
C655 C656 1.370 . S
C656 C655 1.370 . S
C656 C657 1.396 . S
C656 H678 0.929 . S
C657 C652 1.373 . S
C657 C656 1.396 . S
C657 H679 0.929 . S
C658 O668 1.240 . S
C658 O669 1.289 . S
C659 O670 1.258 . S
C659 O671 1.256 . S
O660 La640 2.521 . S
O660 C642 1.261 . S
O661 La640 2.628 . S
O661 C642 1.243 . S
O662 La640 2.554 . S
O662 C649 1.240 . S
O663 La640 2.757 . S
O663 La641 2.482 . S
O663 C649 1.289 . S
O664 La640 2.470 . S
O664 C650 1.258 . S
O665 La641 2.503 . S
O665 C650 1.256 . S
O666 La641 2.521 . S
O666 C651 1.261 . S
O667 La641 2.628 . S
O667 C651 1.243 . S
O668 La641 2.554 . S
O668 C658 1.240 . S
O669 La640 2.482 . S
O669 La641 2.757 . S
O669 C658 1.289 . S
O670 La641 2.470 . S
O670 C659 1.258 . S
O671 La640 2.503 . S
O671 C659 1.256 . S
H672 C644 0.930 . S
H673 C645 0.930 . S
H674 C647 0.929 . S
H675 C648 0.929 . S
H676 C653 0.930 . S
H677 C654 0.930 . S
H678 C656 0.929 . S
H679 C657 0.929 . S
La680 C682 2.928 . S
La680 O700 2.521 . S
La680 O701 2.628 . S
La680 O702 2.554 . S
La680 O703 2.757 . S
La680 O704 2.470 . S
La680 O709 2.482 . S
La680 O711 2.503 . S
La681 C691 2.928 . S
La681 O703 2.482 . S
La681 O705 2.503 . S
La681 O706 2.521 . S
La681 O707 2.628 . S
La681 O708 2.554 . S
La681 O709 2.757 . S
La681 O710 2.470 . S
C682 La680 2.928 . S
C682 C683 1.503 . S
C682 O700 1.261 . S
C682 O701 1.243 . S
C683 C682 1.503 . S
C683 C684 1.394 . S
C683 C688 1.373 . S
C684 C683 1.394 . S
C684 C685 1.380 . S
C684 H712 0.930 . S
C685 C684 1.380 . S
C685 C686 1.376 . S
C685 H713 0.930 . S
C686 C685 1.376 . S
C686 C687 1.370 1_545 S
C687 C686 1.370 1_565 S
C687 C688 1.396 1_565 S
C687 H714 0.929 . S
C688 C683 1.373 . S
C688 C687 1.396 1_545 S
C688 H715 0.929 1_545 S
C689 O702 1.240 . S
C689 O703 1.289 . S
C690 O704 1.258 . S
C690 O705 1.256 . S
C691 La681 2.928 . S
C691 C692 1.503 . S
C691 O706 1.261 . S
C691 O707 1.243 . S
C692 C691 1.503 . S
C692 C693 1.394 . S
C692 C697 1.373 . S
C693 C692 1.394 . S
C693 C694 1.380 . S
C693 H716 0.930 . S
C694 C693 1.380 . S
C694 C695 1.376 . S
C694 H717 0.930 . S
C695 C694 1.376 . S
C695 C696 1.370 . S
C696 C695 1.370 . S
C696 C697 1.396 . S
C696 H718 0.929 . S
C697 C692 1.373 . S
C697 C696 1.396 . S
C697 H719 0.929 . S
C698 O708 1.240 . S
C698 O709 1.289 . S
C699 O710 1.258 . S
C699 O711 1.256 . S
O700 La680 2.521 . S
O700 C682 1.261 . S
O701 La680 2.628 . S
O701 C682 1.243 . S
O702 La680 2.554 . S
O702 C689 1.240 . S
O703 La680 2.757 . S
O703 La681 2.482 . S
O703 C689 1.289 . S
O704 La680 2.470 . S
O704 C690 1.258 . S
O705 La681 2.503 . S
O705 C690 1.256 . S
O706 La681 2.521 . S
O706 C691 1.261 . S
O707 La681 2.628 . S
O707 C691 1.243 . S
O708 La681 2.554 . S
O708 C698 1.240 . S
O709 La680 2.482 . S
O709 La681 2.757 . S
O709 C698 1.289 . S
O710 La681 2.470 . S
O710 C699 1.258 . S
O711 La680 2.503 . S
O711 C699 1.256 . S
H712 C684 0.930 . S
H713 C685 0.930 . S
H714 C687 0.929 . S
H715 C688 0.929 1_565 S
H716 C693 0.930 . S
H717 C694 0.930 . S
H718 C696 0.929 . S
H719 C697 0.929 . S
La720 C722 2.928 . S
La720 O740 2.521 . S
La720 O741 2.628 . S
La720 O742 2.554 . S
La720 O743 2.757 . S
La720 O744 2.470 . S
La720 O749 2.482 . S
La720 O751 2.503 . S
La721 C731 2.928 . S
La721 O743 2.482 . S
La721 O745 2.503 . S
La721 O746 2.521 . S
La721 O747 2.628 . S
La721 O748 2.554 . S
La721 O749 2.757 . S
La721 O750 2.470 . S
C722 La720 2.928 . S
C722 C723 1.503 . S
C722 O740 1.261 . S
C722 O741 1.243 . S
C723 C722 1.503 . S
C723 C724 1.394 . S
C723 C728 1.373 . S
C724 C723 1.394 . S
C724 C725 1.380 . S
C724 H752 0.930 . S
C725 C724 1.380 . S
C725 C726 1.376 . S
C725 H753 0.930 . S
C726 C725 1.376 . S
C726 C727 1.370 . S
C727 C726 1.370 . S
C727 C728 1.396 . S
C727 H754 0.929 . S
C728 C723 1.373 . S
C728 C727 1.396 . S
C728 H755 0.929 . S
C729 O742 1.240 . S
C729 O743 1.289 . S
C730 O744 1.258 . S
C730 O745 1.256 . S
C731 La721 2.928 . S
C731 C732 1.503 . S
C731 O746 1.261 . S
C731 O747 1.243 . S
C732 C731 1.503 . S
C732 C733 1.394 . S
C732 C737 1.373 . S
C733 C732 1.394 . S
C733 C734 1.380 . S
C733 H756 0.930 . S
C734 C733 1.380 . S
C734 C735 1.376 . S
C734 H757 0.930 . S
C735 C734 1.376 . S
C735 C736 1.370 1_545 S
C736 C735 1.370 1_565 S
C736 C737 1.396 1_565 S
C736 H758 0.929 . S
C737 C732 1.373 . S
C737 C736 1.396 1_545 S
C737 H759 0.902 1_545 S
C738 O748 1.240 . S
C738 O749 1.289 . S
C739 O750 1.258 . S
C739 O751 1.256 . S
O740 La720 2.521 . S
O740 C722 1.261 . S
O741 La720 2.628 . S
O741 C722 1.243 . S
O742 La720 2.554 . S
O742 C729 1.240 . S
O743 La720 2.757 . S
O743 La721 2.482 . S
O743 C729 1.289 . S
O744 La720 2.470 . S
O744 C730 1.258 . S
O745 La721 2.503 . S
O745 C730 1.256 . S
O746 La721 2.521 . S
O746 C731 1.261 . S
O747 La721 2.628 . S
O747 C731 1.243 . S
O748 La721 2.554 . S
O748 C738 1.240 . S
O749 La720 2.482 . S
O749 La721 2.757 . S
O749 C738 1.289 . S
O750 La721 2.470 . S
O750 C739 1.258 . S
O751 La720 2.503 . S
O751 C739 1.256 . S
H752 C724 0.930 . S
H753 C725 0.930 . S
H754 C727 0.929 . S
H755 C728 0.929 . S
H756 C733 0.930 . S
H757 C734 0.930 . S
H758 C736 0.929 . S
H759 C737 0.902 1_565 S
La760 C762 2.928 . S
La760 O780 2.521 . S
La760 O781 2.628 . S
La760 O782 2.554 . S
La760 O783 2.757 . S
La760 O784 2.470 . S
La760 O789 2.482 . S
La760 O791 2.503 . S
La761 C771 2.928 . S
La761 O783 2.482 . S
La761 O785 2.503 . S
La761 O786 2.521 . S
La761 O787 2.628 . S
La761 O788 2.554 . S
La761 O789 2.757 . S
La761 O790 2.470 . S
C762 La760 2.928 . S
C762 C763 1.503 . S
C762 O780 1.261 . S
C762 O781 1.243 . S
C763 C762 1.503 . S
C763 C764 1.394 . S
C763 C768 1.373 . S
C764 C763 1.394 . S
C764 C765 1.380 . S
C764 H792 0.930 . S
C765 C764 1.380 . S
C765 C766 1.376 . S
C765 H793 0.930 . S
C766 C765 1.376 . S
C766 C767 1.370 . S
C767 C766 1.370 . S
C767 C768 1.396 . S
C767 H794 0.929 . S
C768 C763 1.373 . S
C768 C767 1.396 . S
C768 H795 0.929 . S
C769 O782 1.240 . S
C769 O783 1.289 . S
C770 O784 1.258 . S
C770 O785 1.256 . S
C771 La761 2.928 . S
C771 C772 1.503 . S
C771 O786 1.261 . S
C771 O787 1.243 . S
C772 C771 1.503 . S
C772 C773 1.394 . S
C772 C777 1.373 . S
C773 C772 1.394 . S
C773 C774 1.380 . S
C773 H796 0.930 . S
C774 C773 1.380 . S
C774 C775 1.376 . S
C774 H797 0.930 . S
C775 C774 1.376 . S
C775 C776 1.370 1_655 S
C776 C775 1.370 1_455 S
C776 C777 1.396 1_455 S
C776 H798 0.929 . S
C777 C772 1.373 . S
C777 C776 1.396 1_655 S
C777 H799 0.923 1_655 S
C778 O788 1.240 . S
C778 O789 1.289 . S
C779 O790 1.258 . S
C779 O791 1.256 . S
O780 La760 2.521 . S
O780 C762 1.261 . S
O781 La760 2.628 . S
O781 C762 1.243 . S
O782 La760 2.554 . S
O782 C769 1.240 . S
O783 La760 2.757 . S
O783 La761 2.482 . S
O783 C769 1.289 . S
O784 La760 2.470 . S
O784 C770 1.258 . S
O785 La761 2.503 . S
O785 C770 1.256 . S
O786 La761 2.521 . S
O786 C771 1.261 . S
O787 La761 2.628 . S
O787 C771 1.243 . S
O788 La761 2.554 . S
O788 C778 1.240 . S
O789 La760 2.482 . S
O789 La761 2.757 . S
O789 C778 1.289 . S
O790 La761 2.470 . S
O790 C779 1.258 . S
O791 La760 2.503 . S
O791 C779 1.256 . S
H792 C764 0.930 . S
H793 C765 0.930 . S
H794 C767 0.929 . S
H795 C768 0.929 . S
H796 C773 0.930 . S
H797 C774 0.930 . S
H798 C776 0.929 . S
H799 C777 0.923 1_455 S
La800 C802 2.928 . S
La800 O820 2.521 . S
La800 O821 2.628 . S
La800 O822 2.554 . S
La800 O823 2.757 . S
La800 O824 2.470 . S
La800 O829 2.482 . S
La800 O831 2.503 . S
La801 C811 2.928 . S
La801 O823 2.482 . S
La801 O825 2.503 . S
La801 O826 2.521 . S
La801 O827 2.628 . S
La801 O828 2.554 . S
La801 O829 2.757 . S
La801 O830 2.470 . S
C802 La800 2.928 . S
C802 C803 1.503 . S
C802 O820 1.261 . S
C802 O821 1.243 . S
C803 C802 1.503 . S
C803 C804 1.394 . S
C803 C808 1.373 . S
C804 C803 1.394 . S
C804 C805 1.380 . S
C804 H832 0.930 . S
C805 C804 1.380 . S
C805 C806 1.376 . S
C805 H833 0.930 . S
C806 C805 1.376 . S
C806 C807 1.370 . S
C807 C806 1.370 . S
C807 C808 1.396 . S
C807 H834 0.929 . S
C808 C803 1.373 . S
C808 C807 1.396 . S
C808 H835 0.929 . S
C809 O822 1.240 . S
C809 O823 1.289 . S
C810 O824 1.258 . S
C810 O825 1.256 . S
C811 La801 2.928 . S
C811 C812 1.503 . S
C811 O826 1.261 . S
C811 O827 1.243 . S
C812 C811 1.503 . S
C812 C813 1.394 . S
C812 C817 1.373 . S
C813 C812 1.394 . S
C813 C814 1.380 . S
C813 H836 0.930 . S
C814 C813 1.380 . S
C814 C815 1.376 . S
C814 H837 0.930 . S
C815 C814 1.376 . S
C815 C816 1.370 . S
C816 C815 1.370 . S
C816 C817 1.396 . S
C816 H838 0.929 . S
C817 C812 1.373 . S
C817 C816 1.396 . S
C817 H839 0.929 . S
C818 O828 1.240 . S
C818 O829 1.289 . S
C819 O830 1.258 . S
C819 O831 1.256 . S
O820 La800 2.521 . S
O820 C802 1.261 . S
O821 La800 2.628 . S
O821 C802 1.243 . S
O822 La800 2.554 . S
O822 C809 1.240 . S
O823 La800 2.757 . S
O823 La801 2.482 . S
O823 C809 1.289 . S
O824 La800 2.470 . S
O824 C810 1.258 . S
O825 La801 2.503 . S
O825 C810 1.256 . S
O826 La801 2.521 . S
O826 C811 1.261 . S
O827 La801 2.628 . S
O827 C811 1.243 . S
O828 La801 2.554 . S
O828 C818 1.240 . S
O829 La800 2.482 . S
O829 La801 2.757 . S
O829 C818 1.289 . S
O830 La801 2.470 . S
O830 C819 1.258 . S
O831 La800 2.503 . S
O831 C819 1.256 . S
H832 C804 0.930 . S
H833 C805 0.930 . S
H834 C807 0.929 . S
H835 C808 0.929 . S
H836 C813 0.930 . S
H837 C814 0.930 . S
H838 C816 0.929 . S
H839 C817 0.929 . S
La840 C842 2.928 . S
La840 O860 2.521 . S
La840 O861 2.628 . S
La840 O862 2.554 . S
La840 O863 2.757 1_554 S
La840 O864 2.470 . S
La840 O869 2.482 . S
La840 O871 2.503 . S
La841 C851 2.928 . S
La841 O863 2.482 . S
La841 O865 2.503 . S
La841 O866 2.521 . S
La841 O867 2.628 . S
La841 O868 2.554 . S
La841 O869 2.757 1_556 S
La841 O870 2.470 . S
C842 La840 2.928 . S
C842 C843 1.503 . S
C842 O860 1.261 . S
C842 O861 1.243 . S
C843 C842 1.503 . S
C843 C844 1.394 . S
C843 C848 1.373 . S
C844 C843 1.394 . S
C844 C845 1.380 . S
C844 H872 0.930 . S
C845 C844 1.380 . S
C845 C846 1.376 . S
C845 H873 0.930 . S
C846 C845 1.376 . S
C846 C847 1.370 . S
C847 C846 1.370 . S
C847 C848 1.396 . S
C847 H874 0.929 . S
C848 C843 1.373 . S
C848 C847 1.396 . S
C848 H875 0.929 . S
C849 O862 1.240 . S
C849 O863 1.289 1_554 S
C850 O864 1.258 . S
C850 O865 1.256 1_554 S
C851 La841 2.928 . S
C851 C852 1.503 . S
C851 O866 1.261 . S
C851 O867 1.243 . S
C852 C851 1.503 . S
C852 C853 1.394 . S
C852 C857 1.373 . S
C853 C852 1.394 . S
C853 C854 1.380 . S
C853 H876 0.930 . S
C854 C853 1.380 . S
C854 C855 1.376 . S
C854 H877 0.930 . S
C855 C854 1.376 . S
C855 C856 1.370 . S
C856 C855 1.370 . S
C856 C857 1.396 . S
C856 H878 0.929 . S
C857 C852 1.373 . S
C857 C856 1.396 . S
C857 H879 0.929 . S
C858 O868 1.240 . S
C858 O869 1.289 1_556 S
C859 O870 1.258 . S
C859 O871 1.256 1_556 S
O860 La840 2.521 . S
O860 C842 1.261 . S
O861 La840 2.628 . S
O861 C842 1.243 . S
O862 La840 2.554 . S
O862 C849 1.240 . S
O863 La840 2.757 1_556 S
O863 La841 2.482 . S
O863 C849 1.289 1_556 S
O864 La840 2.470 . S
O864 C850 1.258 . S
O865 La841 2.503 . S
O865 C850 1.256 1_556 S
O866 La841 2.521 . S
O866 C851 1.261 . S
O867 La841 2.628 . S
O867 C851 1.243 . S
O868 La841 2.554 . S
O868 C858 1.240 . S
O869 La840 2.482 . S
O869 La841 2.757 1_554 S
O869 C858 1.289 1_554 S
O870 La841 2.470 . S
O870 C859 1.258 . S
O871 La840 2.503 . S
O871 C859 1.256 1_554 S
H872 C844 0.930 . S
H873 C845 0.930 . S
H874 C847 0.929 . S
H875 C848 0.929 . S
H876 C853 0.930 . S
H877 C854 0.930 . S
H878 C856 0.929 . S
H879 C857 0.929 . S
La880 C882 2.928 . S
La880 O900 2.521 . S
La880 O901 2.628 . S
La880 O902 2.554 . S
La880 O903 2.757 1_554 S
La880 O904 2.470 . S
La880 O909 2.482 . S
La880 O911 2.503 . S
La881 C891 2.928 . S
La881 O903 2.482 . S
La881 O905 2.503 . S
La881 O906 2.521 . S
La881 O907 2.628 . S
La881 O908 2.554 . S
La881 O909 2.757 1_556 S
La881 O910 2.470 . S
C882 La880 2.928 . S
C882 C883 1.503 . S
C882 O900 1.261 . S
C882 O901 1.243 . S
C883 C882 1.503 . S
C883 C884 1.394 . S
C883 C888 1.373 . S
C884 C883 1.394 . S
C884 C885 1.380 . S
C884 H912 0.930 . S
C885 C884 1.380 . S
C885 C886 1.376 . S
C885 H913 0.930 . S
C886 C885 1.376 . S
C886 C887 1.370 . S
C887 C886 1.370 . S
C887 C888 1.396 . S
C887 H914 0.929 . S
C888 C883 1.373 . S
C888 C887 1.396 . S
C888 H915 0.929 . S
C889 O902 1.240 . S
C889 O903 1.289 1_554 S
C890 O904 1.258 . S
C890 O905 1.256 1_554 S
C891 La881 2.928 . S
C891 C892 1.503 . S
C891 O906 1.261 . S
C891 O907 1.243 . S
C892 C891 1.503 . S
C892 C893 1.394 . S
C892 C897 1.373 . S
C893 C892 1.394 . S
C893 C894 1.380 . S
C893 H916 0.930 . S
C894 C893 1.380 . S
C894 C895 1.376 . S
C894 H917 0.930 . S
C895 C894 1.376 . S
C895 C896 1.370 . S
C896 C895 1.370 . S
C896 C897 1.396 . S
C896 H918 0.929 . S
C897 C892 1.373 . S
C897 C896 1.396 . S
C897 H919 0.929 . S
C898 O908 1.240 . S
C898 O909 1.289 1_556 S
C899 O910 1.258 . S
C899 O911 1.256 1_556 S
O900 La880 2.521 . S
O900 C882 1.261 . S
O901 La880 2.628 . S
O901 C882 1.243 . S
O902 La880 2.554 . S
O902 C889 1.240 . S
O903 La880 2.757 1_556 S
O903 La881 2.482 . S
O903 C889 1.289 1_556 S
O904 La880 2.470 . S
O904 C890 1.258 . S
O905 La881 2.503 . S
O905 C890 1.256 1_556 S
O906 La881 2.521 . S
O906 C891 1.261 . S
O907 La881 2.628 . S
O907 C891 1.243 . S
O908 La881 2.554 . S
O908 C898 1.240 . S
O909 La880 2.482 . S
O909 La881 2.757 1_554 S
O909 C898 1.289 1_554 S
O910 La881 2.470 . S
O910 C899 1.258 . S
O911 La880 2.503 . S
O911 C899 1.256 1_554 S
H912 C884 0.930 . S
H913 C885 0.930 . S
H914 C887 0.929 . S
H915 C888 0.929 . S
H916 C893 0.930 . S
H917 C894 0.930 . S
H918 C896 0.929 . S
H919 C897 0.929 . S
La920 C922 2.928 . S
La920 O940 2.521 . S
La920 O941 2.628 . S
La920 O942 2.554 . S
La920 O943 2.757 1_554 S
La920 O944 2.470 . S
La920 O949 2.482 . S
La920 O951 2.503 . S
La921 C931 2.928 . S
La921 O943 2.482 . S
La921 O945 2.503 . S
La921 O946 2.521 . S
La921 O947 2.628 . S
La921 O948 2.554 . S
La921 O949 2.757 1_556 S
La921 O950 2.470 . S
C922 La920 2.928 . S
C922 C923 1.503 . S
C922 O940 1.261 . S
C922 O941 1.243 . S
C923 C922 1.503 . S
C923 C924 1.394 . S
C923 C928 1.373 . S
C924 C923 1.394 . S
C924 C925 1.380 . S
C924 H952 0.930 . S
C925 C924 1.380 . S
C925 C926 1.376 . S
C925 H953 0.930 . S
C926 C925 1.376 . S
C926 C927 1.370 . S
C927 C926 1.370 . S
C927 C928 1.396 . S
C927 H954 0.929 . S
C928 C923 1.373 . S
C928 C927 1.396 . S
C928 H955 0.929 . S
C929 O942 1.240 . S
C929 O943 1.289 1_554 S
C930 O944 1.258 . S
C930 O945 1.256 1_554 S
C931 La921 2.928 . S
C931 C932 1.503 . S
C931 O946 1.261 . S
C931 O947 1.243 . S
C932 C931 1.503 . S
C932 C933 1.394 . S
C932 C937 1.373 . S
C933 C932 1.394 . S
C933 C934 1.380 . S
C933 H956 0.930 . S
C934 C933 1.380 . S
C934 C935 1.376 . S
C934 H957 0.930 . S
C935 C934 1.376 . S
C935 C936 1.370 . S
C936 C935 1.370 . S
C936 C937 1.396 . S
C936 H958 0.929 . S
C937 C932 1.373 . S
C937 C936 1.396 . S
C937 H959 0.929 . S
C938 O948 1.240 . S
C938 O949 1.289 1_556 S
C939 O950 1.258 . S
C939 O951 1.256 1_556 S
O940 La920 2.521 . S
O940 C922 1.261 . S
O941 La920 2.628 . S
O941 C922 1.243 . S
O942 La920 2.554 . S
O942 C929 1.240 . S
O943 La920 2.757 1_556 S
O943 La921 2.482 . S
O943 C929 1.289 1_556 S
O944 La920 2.470 . S
O944 C930 1.258 . S
O945 La921 2.503 . S
O945 C930 1.256 1_556 S
O946 La921 2.521 . S
O946 C931 1.261 . S
O947 La921 2.628 . S
O947 C931 1.243 . S
O948 La921 2.554 . S
O948 C938 1.240 . S
O949 La920 2.482 . S
O949 La921 2.757 1_554 S
O949 C938 1.289 1_554 S
O950 La921 2.470 . S
O950 C939 1.258 . S
O951 La920 2.503 . S
O951 C939 1.256 1_554 S
H952 C924 0.930 . S
H953 C925 0.930 . S
H954 C927 0.929 . S
H955 C928 0.929 . S
H956 C933 0.930 . S
H957 C934 0.930 . S
H958 C936 0.929 . S
H959 C937 0.929 . S
La960 C962 2.928 . S
La960 O980 2.521 . S
La960 O981 2.628 . S
La960 O982 2.554 . S
La960 O983 2.757 . S
La960 O984 2.470 . S
La960 O989 2.482 . S
La960 O991 2.503 . S
La961 C971 2.928 . S
La961 O983 2.482 . S
La961 O985 2.503 . S
La961 O986 2.521 . S
La961 O987 2.628 . S
La961 O988 2.554 . S
La961 O989 2.757 . S
La961 O990 2.470 . S
C962 La960 2.928 . S
C962 C963 1.503 . S
C962 O980 1.261 . S
C962 O981 1.243 . S
C963 C962 1.503 . S
C963 C964 1.394 . S
C963 C968 1.373 . S
C964 C963 1.394 . S
C964 C965 1.380 . S
C964 H992 0.930 . S
C965 C964 1.380 . S
C965 C966 1.376 . S
C965 H993 0.930 . S
C966 C965 1.376 . S
C966 C967 1.370 1_565 S
C967 C966 1.370 1_545 S
C967 C968 1.396 1_545 S
C967 H994 0.929 . S
C968 C963 1.373 . S
C968 C967 1.396 1_565 S
C968 H995 0.902 1_565 S
C969 O982 1.240 . S
C969 O983 1.289 . S
C970 O984 1.258 . S
C970 O985 1.256 . S
C971 La961 2.928 . S
C971 C972 1.503 . S
C971 O986 1.261 . S
C971 O987 1.243 . S
C972 C971 1.503 . S
C972 C973 1.394 . S
C972 C977 1.373 . S
C973 C972 1.394 . S
C973 C974 1.380 . S
C973 H996 0.930 . S
C974 C973 1.380 . S
C974 C975 1.376 . S
C974 H997 0.930 . S
C975 C974 1.376 . S
C975 C976 1.370 . S
C976 C975 1.370 . S
C976 C977 1.396 . S
C976 H998 0.929 . S
C977 C972 1.373 . S
C977 C976 1.396 . S
C977 H999 0.929 . S
C978 O988 1.240 . S
C978 O989 1.289 . S
C979 O990 1.258 . S
C979 O991 1.256 . S
O980 La960 2.521 . S
O980 C962 1.261 . S
O981 La960 2.628 . S
O981 C962 1.243 . S
O982 La960 2.554 . S
O982 C969 1.240 . S
O983 La960 2.757 . S
O983 La961 2.482 . S
O983 C969 1.289 . S
O984 La960 2.470 . S
O984 C970 1.258 . S
O985 La961 2.503 . S
O985 C970 1.256 . S
O986 La961 2.521 . S
O986 C971 1.261 . S
O987 La961 2.628 . S
O987 C971 1.243 . S
O988 La961 2.554 . S
O988 C978 1.240 . S
O989 La960 2.482 . S
O989 La961 2.757 . S
O989 C978 1.289 . S
O990 La961 2.470 . S
O990 C979 1.258 . S
O991 La960 2.503 . S
O991 C979 1.256 . S
H992 C964 0.930 . S
H993 C965 0.930 . S
H994 C967 0.929 . S
H995 C968 0.902 1_545 S
H996 C973 0.930 . S
H997 C974 0.930 . S
H998 C976 0.929 . S
H999 C977 0.929 . S
La1000 C1002 2.928 . S
La1000 O1020 2.521 . S
La1000 O1021 2.628 . S
La1000 O1022 2.554 . S
La1000 O1023 2.757 . S
La1000 O1024 2.470 . S
La1000 O1029 2.482 . S
La1000 O1031 2.503 . S
La1001 C1011 2.928 . S
La1001 O1023 2.482 . S
La1001 O1025 2.503 . S
La1001 O1026 2.521 . S
La1001 O1027 2.628 . S
La1001 O1028 2.554 . S
La1001 O1029 2.757 . S
La1001 O1030 2.470 . S
C1002 La1000 2.928 . S
C1002 C1003 1.503 . S
C1002 O1020 1.261 . S
C1002 O1021 1.243 . S
C1003 C1002 1.503 . S
C1003 C1004 1.394 . S
C1003 C1008 1.373 . S
C1004 C1003 1.394 . S
C1004 C1005 1.380 . S
C1004 H1032 0.930 . S
C1005 C1004 1.380 . S
C1005 C1006 1.376 . S
C1005 H1033 0.930 . S
C1006 C1005 1.376 . S
C1006 C1007 1.370 1_455 S
C1007 C1006 1.370 1_655 S
C1007 C1008 1.396 1_655 S
C1007 H1034 0.929 . S
C1008 C1003 1.373 . S
C1008 C1007 1.396 1_455 S
C1008 H1035 0.923 1_455 S
C1009 O1022 1.240 . S
C1009 O1023 1.289 . S
C1010 O1024 1.258 . S
C1010 O1025 1.256 . S
C1011 La1001 2.928 . S
C1011 C1012 1.503 . S
C1011 O1026 1.261 . S
C1011 O1027 1.243 . S
C1012 C1011 1.503 . S
C1012 C1013 1.394 . S
C1012 C1017 1.373 . S
C1013 C1012 1.394 . S
C1013 C1014 1.380 . S
C1013 H1036 0.930 . S
C1014 C1013 1.380 . S
C1014 C1015 1.376 . S
C1014 H1037 0.930 . S
C1015 C1014 1.376 . S
C1015 C1016 1.370 . S
C1016 C1015 1.370 . S
C1016 C1017 1.396 . S
C1016 H1038 0.929 . S
C1017 C1012 1.373 . S
C1017 C1016 1.396 . S
C1017 H1039 0.929 . S
C1018 O1028 1.240 . S
C1018 O1029 1.289 . S
C1019 O1030 1.258 . S
C1019 O1031 1.256 . S
O1020 La1000 2.521 . S
O1020 C1002 1.261 . S
O1021 La1000 2.628 . S
O1021 C1002 1.243 . S
O1022 La1000 2.554 . S
O1022 C1009 1.240 . S
O1023 La1000 2.757 . S
O1023 La1001 2.482 . S
O1023 C1009 1.289 . S
O1024 La1000 2.470 . S
O1024 C1010 1.258 . S
O1025 La1001 2.503 . S
O1025 C1010 1.256 . S
O1026 La1001 2.521 . S
O1026 C1011 1.261 . S
O1027 La1001 2.628 . S
O1027 C1011 1.243 . S
O1028 La1001 2.554 . S
O1028 C1018 1.240 . S
O1029 La1000 2.482 . S
O1029 La1001 2.757 . S
O1029 C1018 1.289 . S
O1030 La1001 2.470 . S
O1030 C1019 1.258 . S
O1031 La1000 2.503 . S
O1031 C1019 1.256 . S
H1032 C1004 0.930 . S
H1033 C1005 0.930 . S
H1034 C1007 0.929 . S
H1035 C1008 0.923 1_655 S
H1036 C1013 0.930 . S
H1037 C1014 0.930 . S
H1038 C1016 0.929 . S
H1039 C1017 0.929 . S
La1040 C1042 2.928 . S
La1040 O1060 2.521 . S
La1040 O1061 2.628 . S
La1040 O1062 2.554 . S
La1040 O1063 2.757 . S
La1040 O1064 2.470 . S
La1040 O1069 2.482 . S
La1040 O1071 2.503 . S
La1041 C1051 2.928 . S
La1041 O1063 2.482 . S
La1041 O1065 2.503 . S
La1041 O1066 2.521 . S
La1041 O1067 2.628 . S
La1041 O1068 2.554 . S
La1041 O1069 2.757 . S
La1041 O1070 2.470 . S
C1042 La1040 2.928 . S
C1042 C1043 1.503 . S
C1042 O1060 1.261 . S
C1042 O1061 1.243 . S
C1043 C1042 1.503 . S
C1043 C1044 1.394 . S
C1043 C1048 1.373 . S
C1044 C1043 1.394 . S
C1044 C1045 1.380 . S
C1044 H1072 0.930 . S
C1045 C1044 1.380 . S
C1045 C1046 1.376 . S
C1045 H1073 0.930 . S
C1046 C1045 1.376 . S
C1046 C1047 1.370 . S
C1047 C1046 1.370 . S
C1047 C1048 1.396 . S
C1047 H1074 0.929 . S
C1048 C1043 1.373 . S
C1048 C1047 1.396 . S
C1048 H1075 0.929 . S
C1049 O1062 1.240 . S
C1049 O1063 1.289 . S
C1050 O1064 1.258 . S
C1050 O1065 1.256 . S
C1051 La1041 2.928 . S
C1051 C1052 1.503 . S
C1051 O1066 1.261 . S
C1051 O1067 1.243 . S
C1052 C1051 1.503 . S
C1052 C1053 1.394 . S
C1052 C1057 1.373 . S
C1053 C1052 1.394 . S
C1053 C1054 1.380 . S
C1053 H1076 0.930 . S
C1054 C1053 1.380 . S
C1054 C1055 1.376 . S
C1054 H1077 0.930 . S
C1055 C1054 1.376 . S
C1055 C1056 1.370 . S
C1056 C1055 1.370 . S
C1056 C1057 1.396 . S
C1056 H1078 0.929 . S
C1057 C1052 1.373 . S
C1057 C1056 1.396 . S
C1057 H1079 0.929 . S
C1058 O1068 1.240 . S
C1058 O1069 1.289 . S
C1059 O1070 1.258 . S
C1059 O1071 1.256 . S
O1060 La1040 2.521 . S
O1060 C1042 1.261 . S
O1061 La1040 2.628 . S
O1061 C1042 1.243 . S
O1062 La1040 2.554 . S
O1062 C1049 1.240 . S
O1063 La1040 2.757 . S
O1063 La1041 2.482 . S
O1063 C1049 1.289 . S
O1064 La1040 2.470 . S
O1064 C1050 1.258 . S
O1065 La1041 2.503 . S
O1065 C1050 1.256 . S
O1066 La1041 2.521 . S
O1066 C1051 1.261 . S
O1067 La1041 2.628 . S
O1067 C1051 1.243 . S
O1068 La1041 2.554 . S
O1068 C1058 1.240 . S
O1069 La1040 2.482 . S
O1069 La1041 2.757 . S
O1069 C1058 1.289 . S
O1070 La1041 2.470 . S
O1070 C1059 1.258 . S
O1071 La1040 2.503 . S
O1071 C1059 1.256 . S
H1072 C1044 0.930 . S
H1073 C1045 0.930 . S
H1074 C1047 0.929 . S
H1075 C1048 0.929 . S
H1076 C1053 0.930 . S
H1077 C1054 0.930 . S
H1078 C1056 0.929 . S
H1079 C1057 0.929 . S
La1080 C1082 2.928 . S
La1080 O1100 2.521 . S
La1080 O1101 2.628 . S
La1080 O1102 2.554 . S
La1080 O1103 2.757 1_554 S
La1080 O1104 2.470 . S
La1080 O1109 2.482 . S
La1080 O1111 2.503 . S
La1081 C1091 2.928 . S
La1081 O1103 2.482 . S
La1081 O1105 2.503 . S
La1081 O1106 2.521 . S
La1081 O1107 2.628 . S
La1081 O1108 2.554 . S
La1081 O1109 2.757 1_556 S
La1081 O1110 2.470 . S
C1082 La1080 2.928 . S
C1082 C1083 1.503 . S
C1082 O1100 1.261 . S
C1082 O1101 1.243 . S
C1083 C1082 1.503 . S
C1083 C1084 1.394 . S
C1083 C1088 1.373 . S
C1084 C1083 1.394 . S
C1084 C1085 1.380 . S
C1084 H1112 0.930 . S
C1085 C1084 1.380 . S
C1085 C1086 1.376 . S
C1085 H1113 0.930 . S
C1086 C1085 1.376 . S
C1086 C1087 1.370 . S
C1087 C1086 1.370 . S
C1087 C1088 1.396 . S
C1087 H1114 0.929 . S
C1088 C1083 1.373 . S
C1088 C1087 1.396 . S
C1088 H1115 0.929 . S
C1089 O1102 1.240 . S
C1089 O1103 1.289 1_554 S
C1090 O1104 1.258 . S
C1090 O1105 1.256 1_554 S
C1091 La1081 2.928 . S
C1091 C1092 1.503 . S
C1091 O1106 1.261 . S
C1091 O1107 1.243 . S
C1092 C1091 1.503 . S
C1092 C1093 1.394 . S
C1092 C1097 1.373 . S
C1093 C1092 1.394 . S
C1093 C1094 1.380 . S
C1093 H1116 0.930 . S
C1094 C1093 1.380 . S
C1094 C1095 1.376 . S
C1094 H1117 0.930 . S
C1095 C1094 1.376 . S
C1095 C1096 1.370 . S
C1096 C1095 1.370 . S
C1096 C1097 1.396 . S
C1096 H1118 0.929 . S
C1097 C1092 1.373 . S
C1097 C1096 1.396 . S
C1097 H1119 0.929 . S
C1098 O1108 1.240 . S
C1098 O1109 1.289 1_556 S
C1099 O1110 1.258 . S
C1099 O1111 1.256 1_556 S
O1100 La1080 2.521 . S
O1100 C1082 1.261 . S
O1101 La1080 2.628 . S
O1101 C1082 1.243 . S
O1102 La1080 2.554 . S
O1102 C1089 1.240 . S
O1103 La1080 2.757 1_556 S
O1103 La1081 2.482 . S
O1103 C1089 1.289 1_556 S
O1104 La1080 2.470 . S
O1104 C1090 1.258 . S
O1105 La1081 2.503 . S
O1105 C1090 1.256 1_556 S
O1106 La1081 2.521 . S
O1106 C1091 1.261 . S
O1107 La1081 2.628 . S
O1107 C1091 1.243 . S
O1108 La1081 2.554 . S
O1108 C1098 1.240 . S
O1109 La1080 2.482 . S
O1109 La1081 2.757 1_554 S
O1109 C1098 1.289 1_554 S
O1110 La1081 2.470 . S
O1110 C1099 1.258 . S
O1111 La1080 2.503 . S
O1111 C1099 1.256 1_554 S
H1112 C1084 0.930 . S
H1113 C1085 0.930 . S
H1114 C1087 0.929 . S
H1115 C1088 0.929 . S
H1116 C1093 0.930 . S
H1117 C1094 0.930 . S
H1118 C1096 0.929 . S
H1119 C1097 0.929 . S
La1120 C1122 2.928 . S
La1120 O1140 2.521 . S
La1120 O1141 2.628 . S
La1120 O1142 2.554 . S
La1120 O1143 2.757 1_554 S
La1120 O1144 2.470 . S
La1120 O1149 2.482 . S
La1120 O1151 2.503 . S
La1121 C1131 2.928 . S
La1121 O1143 2.482 . S
La1121 O1145 2.503 . S
La1121 O1146 2.521 . S
La1121 O1147 2.628 . S
La1121 O1148 2.554 . S
La1121 O1149 2.757 1_556 S
La1121 O1150 2.470 . S
C1122 La1120 2.928 . S
C1122 C1123 1.503 . S
C1122 O1140 1.261 . S
C1122 O1141 1.243 . S
C1123 C1122 1.503 . S
C1123 C1124 1.394 . S
C1123 C1128 1.373 . S
C1124 C1123 1.394 . S
C1124 C1125 1.380 . S
C1124 H1152 0.930 . S
C1125 C1124 1.380 . S
C1125 C1126 1.376 . S
C1125 H1153 0.930 . S
C1126 C1125 1.376 . S
C1126 C1127 1.370 . S
C1127 C1126 1.370 . S
C1127 C1128 1.396 . S
C1127 H1154 0.929 . S
C1128 C1123 1.373 . S
C1128 C1127 1.396 . S
C1128 H1155 0.929 . S
C1129 O1142 1.240 . S
C1129 O1143 1.289 1_554 S
C1130 O1144 1.258 . S
C1130 O1145 1.256 1_554 S
C1131 La1121 2.928 . S
C1131 C1132 1.503 . S
C1131 O1146 1.261 . S
C1131 O1147 1.243 . S
C1132 C1131 1.503 . S
C1132 C1133 1.394 . S
C1132 C1137 1.373 . S
C1133 C1132 1.394 . S
C1133 C1134 1.380 . S
C1133 H1156 0.930 . S
C1134 C1133 1.380 . S
C1134 C1135 1.376 . S
C1134 H1157 0.930 . S
C1135 C1134 1.376 . S
C1135 C1136 1.370 . S
C1136 C1135 1.370 . S
C1136 C1137 1.396 . S
C1136 H1158 0.929 . S
C1137 C1132 1.373 . S
C1137 C1136 1.396 . S
C1137 H1159 0.929 . S
C1138 O1148 1.240 . S
C1138 O1149 1.289 1_556 S
C1139 O1150 1.258 . S
C1139 O1151 1.256 1_556 S
O1140 La1120 2.521 . S
O1140 C1122 1.261 . S
O1141 La1120 2.628 . S
O1141 C1122 1.243 . S
O1142 La1120 2.554 . S
O1142 C1129 1.240 . S
O1143 La1120 2.757 1_556 S
O1143 La1121 2.482 . S
O1143 C1129 1.289 1_556 S
O1144 La1120 2.470 . S
O1144 C1130 1.258 . S
O1145 La1121 2.503 . S
O1145 C1130 1.256 1_556 S
O1146 La1121 2.521 . S
O1146 C1131 1.261 . S
O1147 La1121 2.628 . S
O1147 C1131 1.243 . S
O1148 La1121 2.554 . S
O1148 C1138 1.240 . S
O1149 La1120 2.482 . S
O1149 La1121 2.757 1_554 S
O1149 C1138 1.289 1_554 S
O1150 La1121 2.470 . S
O1150 C1139 1.258 . S
O1151 La1120 2.503 . S
O1151 C1139 1.256 1_554 S
H1152 C1124 0.930 . S
H1153 C1125 0.930 . S
H1154 C1127 0.929 . S
H1155 C1128 0.929 . S
H1156 C1133 0.930 . S
H1157 C1134 0.930 . S
H1158 C1136 0.929 . S
H1159 C1137 0.929 . S
La1160 C1162 2.928 . S
La1160 O1180 2.521 . S
La1160 O1181 2.628 . S
La1160 O1182 2.554 . S
La1160 O1183 2.757 1_554 S
La1160 O1184 2.470 . S
La1160 O1189 2.482 . S
La1160 O1191 2.503 . S
La1161 C1171 2.928 . S
La1161 O1183 2.482 . S
La1161 O1185 2.503 . S
La1161 O1186 2.521 . S
La1161 O1187 2.628 . S
La1161 O1188 2.554 . S
La1161 O1189 2.757 1_556 S
La1161 O1190 2.470 . S
C1162 La1160 2.928 . S
C1162 C1163 1.503 . S
C1162 O1180 1.261 . S
C1162 O1181 1.243 . S
C1163 C1162 1.503 . S
C1163 C1164 1.394 . S
C1163 C1168 1.373 . S
C1164 C1163 1.394 . S
C1164 C1165 1.380 . S
C1164 H1192 0.930 . S
C1165 C1164 1.380 . S
C1165 C1166 1.376 . S
C1165 H1193 0.930 . S
C1166 C1165 1.376 . S
C1166 C1167 1.370 . S
C1167 C1166 1.370 . S
C1167 C1168 1.396 . S
C1167 H1194 0.929 . S
C1168 C1163 1.373 . S
C1168 C1167 1.396 . S
C1168 H1195 0.929 . S
C1169 O1182 1.240 . S
C1169 O1183 1.289 1_554 S
C1170 O1184 1.258 . S
C1170 O1185 1.256 1_554 S
C1171 La1161 2.928 . S
C1171 C1172 1.503 . S
C1171 O1186 1.261 . S
C1171 O1187 1.243 . S
C1172 C1171 1.503 . S
C1172 C1173 1.394 . S
C1172 C1177 1.373 . S
C1173 C1172 1.394 . S
C1173 C1174 1.380 . S
C1173 H1196 0.930 . S
C1174 C1173 1.380 . S
C1174 C1175 1.376 . S
C1174 H1197 0.930 . S
C1175 C1174 1.376 . S
C1175 C1176 1.370 . S
C1176 C1175 1.370 . S
C1176 C1177 1.396 . S
C1176 H1198 0.929 . S
C1177 C1172 1.373 . S
C1177 C1176 1.396 . S
C1177 H1199 0.929 . S
C1178 O1188 1.240 . S
C1178 O1189 1.289 1_556 S
C1179 O1190 1.258 . S
C1179 O1191 1.256 1_556 S
O1180 La1160 2.521 . S
O1180 C1162 1.261 . S
O1181 La1160 2.628 . S
O1181 C1162 1.243 . S
O1182 La1160 2.554 . S
O1182 C1169 1.240 . S
O1183 La1160 2.757 1_556 S
O1183 La1161 2.482 . S
O1183 C1169 1.289 1_556 S
O1184 La1160 2.470 . S
O1184 C1170 1.258 . S
O1185 La1161 2.503 . S
O1185 C1170 1.256 1_556 S
O1186 La1161 2.521 . S
O1186 C1171 1.261 . S
O1187 La1161 2.628 . S
O1187 C1171 1.243 . S
O1188 La1161 2.554 . S
O1188 C1178 1.240 . S
O1189 La1160 2.482 . S
O1189 La1161 2.757 1_554 S
O1189 C1178 1.289 1_554 S
O1190 La1161 2.470 . S
O1190 C1179 1.258 . S
O1191 La1160 2.503 . S
O1191 C1179 1.256 1_554 S
H1192 C1164 0.930 . S
H1193 C1165 0.930 . S
H1194 C1167 0.929 . S
H1195 C1168 0.929 . S
H1196 C1173 0.930 . S
H1197 C1174 0.930 . S
H1198 C1176 0.929 . S
H1199 C1177 0.929 . S
La1200 C1202 2.928 . S
La1200 O1220 2.521 . S
La1200 O1221 2.628 . S
La1200 O1222 2.554 . S
La1200 O1223 2.757 . S
La1200 O1224 2.470 . S
La1200 O1229 2.482 . S
La1200 O1231 2.503 . S
La1201 C1211 2.928 . S
La1201 O1223 2.482 . S
La1201 O1225 2.503 . S
La1201 O1226 2.521 . S
La1201 O1227 2.628 . S
La1201 O1228 2.554 . S
La1201 O1229 2.757 . S
La1201 O1230 2.470 . S
C1202 La1200 2.928 . S
C1202 C1203 1.503 . S
C1202 O1220 1.261 . S
C1202 O1221 1.243 . S
C1203 C1202 1.503 . S
C1203 C1204 1.394 . S
C1203 C1208 1.373 . S
C1204 C1203 1.394 . S
C1204 C1205 1.380 . S
C1204 H1232 0.930 . S
C1205 C1204 1.380 . S
C1205 C1206 1.376 . S
C1205 H1233 0.930 . S
C1206 C1205 1.376 . S
C1206 C1207 1.370 . S
C1207 C1206 1.370 . S
C1207 C1208 1.396 . S
C1207 H1234 0.929 . S
C1208 C1203 1.373 . S
C1208 C1207 1.396 . S
C1208 H1235 0.929 . S
C1209 O1222 1.240 . S
C1209 O1223 1.289 . S
C1210 O1224 1.258 . S
C1210 O1225 1.256 . S
C1211 La1201 2.928 . S
C1211 C1212 1.503 . S
C1211 O1226 1.261 . S
C1211 O1227 1.243 . S
C1212 C1211 1.503 . S
C1212 C1213 1.394 . S
C1212 C1217 1.373 . S
C1213 C1212 1.394 . S
C1213 C1214 1.380 . S
C1213 H1236 0.930 . S
C1214 C1213 1.380 . S
C1214 C1215 1.376 . S
C1214 H1237 0.930 . S
C1215 C1214 1.376 . S
C1215 C1216 1.370 . S
C1216 C1215 1.370 . S
C1216 C1217 1.396 . S
C1216 H1238 0.929 . S
C1217 C1212 1.373 . S
C1217 C1216 1.396 . S
C1217 H1239 0.929 . S
C1218 O1228 1.240 . S
C1218 O1229 1.289 . S
C1219 O1230 1.258 . S
C1219 O1231 1.256 . S
O1220 La1200 2.521 . S
O1220 C1202 1.261 . S
O1221 La1200 2.628 . S
O1221 C1202 1.243 . S
O1222 La1200 2.554 . S
O1222 C1209 1.240 . S
O1223 La1200 2.757 . S
O1223 La1201 2.482 . S
O1223 C1209 1.289 . S
O1224 La1200 2.470 . S
O1224 C1210 1.258 . S
O1225 La1201 2.503 . S
O1225 C1210 1.256 . S
O1226 La1201 2.521 . S
O1226 C1211 1.261 . S
O1227 La1201 2.628 . S
O1227 C1211 1.243 . S
O1228 La1201 2.554 . S
O1228 C1218 1.240 . S
O1229 La1200 2.482 . S
O1229 La1201 2.757 . S
O1229 C1218 1.289 . S
O1230 La1201 2.470 . S
O1230 C1219 1.258 . S
O1231 La1200 2.503 . S
O1231 C1219 1.256 . S
H1232 C1204 0.930 . S
H1233 C1205 0.930 . S
H1234 C1207 0.929 . S
H1235 C1208 0.929 . S
H1236 C1213 0.930 . S
H1237 C1214 0.930 . S
H1238 C1216 0.929 . S
H1239 C1217 0.929 . S
La1240 C1242 2.928 . S
La1240 O1260 2.521 . S
La1240 O1261 2.628 . S
La1240 O1262 2.554 . S
La1240 O1263 2.757 . S
La1240 O1264 2.470 . S
La1240 O1269 2.482 . S
La1240 O1271 2.503 . S
La1241 C1251 2.928 . S
La1241 O1263 2.482 . S
La1241 O1265 2.503 . S
La1241 O1266 2.521 . S
La1241 O1267 2.628 . S
La1241 O1268 2.554 . S
La1241 O1269 2.757 . S
La1241 O1270 2.470 . S
C1242 La1240 2.928 . S
C1242 C1243 1.503 . S
C1242 O1260 1.261 . S
C1242 O1261 1.243 . S
C1243 C1242 1.503 . S
C1243 C1244 1.394 . S
C1243 C1248 1.373 . S
C1244 C1243 1.394 . S
C1244 C1245 1.380 . S
C1244 H1272 0.930 . S
C1245 C1244 1.380 . S
C1245 C1246 1.376 . S
C1245 H1273 0.930 . S
C1246 C1245 1.376 . S
C1246 C1247 1.370 . S
C1247 C1246 1.370 . S
C1247 C1248 1.396 . S
C1247 H1274 0.929 . S
C1248 C1243 1.373 . S
C1248 C1247 1.396 . S
C1248 H1275 0.929 . S
C1249 O1262 1.240 . S
C1249 O1263 1.289 . S
C1250 O1264 1.258 . S
C1250 O1265 1.256 . S
C1251 La1241 2.928 . S
C1251 C1252 1.503 . S
C1251 O1266 1.261 . S
C1251 O1267 1.243 . S
C1252 C1251 1.503 . S
C1252 C1253 1.394 . S
C1252 C1257 1.373 . S
C1253 C1252 1.394 . S
C1253 C1254 1.380 . S
C1253 H1276 0.930 . S
C1254 C1253 1.380 . S
C1254 C1255 1.376 . S
C1254 H1277 0.930 . S
C1255 C1254 1.376 . S
C1255 C1256 1.370 . S
C1256 C1255 1.370 . S
C1256 C1257 1.396 . S
C1256 H1278 0.929 . S
C1257 C1252 1.373 . S
C1257 C1256 1.396 . S
C1257 H1279 0.929 . S
C1258 O1268 1.240 . S
C1258 O1269 1.289 . S
C1259 O1270 1.258 . S
C1259 O1271 1.256 . S
O1260 La1240 2.521 . S
O1260 C1242 1.261 . S
O1261 La1240 2.628 . S
O1261 C1242 1.243 . S
O1262 La1240 2.554 . S
O1262 C1249 1.240 . S
O1263 La1240 2.757 . S
O1263 La1241 2.482 . S
O1263 C1249 1.289 . S
O1264 La1240 2.470 . S
O1264 C1250 1.258 . S
O1265 La1241 2.503 . S
O1265 C1250 1.256 . S
O1266 La1241 2.521 . S
O1266 C1251 1.261 . S
O1267 La1241 2.628 . S
O1267 C1251 1.243 . S
O1268 La1241 2.554 . S
O1268 C1258 1.240 . S
O1269 La1240 2.482 . S
O1269 La1241 2.757 . S
O1269 C1258 1.289 . S
O1270 La1241 2.470 . S
O1270 C1259 1.258 . S
O1271 La1240 2.503 . S
O1271 C1259 1.256 . S
H1272 C1244 0.930 . S
H1273 C1245 0.930 . S
H1274 C1247 0.929 . S
H1275 C1248 0.929 . S
H1276 C1253 0.930 . S
H1277 C1254 0.930 . S
H1278 C1256 0.929 . S
H1279 C1257 0.929 . S
La1280 C1282 2.928 . S
La1280 O1300 2.521 . S
La1280 O1301 2.628 . S
La1280 O1302 2.554 . S
La1280 O1303 2.757 . S
La1280 O1304 2.470 . S
La1280 O1309 2.482 . S
La1280 O1311 2.503 . S
La1281 C1291 2.928 . S
La1281 O1303 2.482 . S
La1281 O1305 2.503 . S
La1281 O1306 2.521 . S
La1281 O1307 2.628 . S
La1281 O1308 2.554 . S
La1281 O1309 2.757 . S
La1281 O1310 2.470 . S
C1282 La1280 2.928 . S
C1282 C1283 1.503 . S
C1282 O1300 1.261 . S
C1282 O1301 1.243 . S
C1283 C1282 1.503 . S
C1283 C1284 1.394 . S
C1283 C1288 1.373 . S
C1284 C1283 1.394 . S
C1284 C1285 1.380 . S
C1284 H1312 0.930 . S
C1285 C1284 1.380 . S
C1285 C1286 1.376 . S
C1285 H1313 0.930 . S
C1286 C1285 1.376 . S
C1286 C1287 1.370 . S
C1287 C1286 1.370 . S
C1287 C1288 1.396 . S
C1287 H1314 0.929 . S
C1288 C1283 1.373 . S
C1288 C1287 1.396 . S
C1288 H1315 0.929 . S
C1289 O1302 1.240 . S
C1289 O1303 1.289 . S
C1290 O1304 1.258 . S
C1290 O1305 1.256 . S
C1291 La1281 2.928 . S
C1291 C1292 1.503 . S
C1291 O1306 1.261 . S
C1291 O1307 1.243 . S
C1292 C1291 1.503 . S
C1292 C1293 1.394 . S
C1292 C1297 1.373 . S
C1293 C1292 1.394 . S
C1293 C1294 1.380 . S
C1293 H1316 0.930 . S
C1294 C1293 1.380 . S
C1294 C1295 1.376 . S
C1294 H1317 0.930 . S
C1295 C1294 1.376 . S
C1295 C1296 1.370 . S
C1296 C1295 1.370 . S
C1296 C1297 1.396 . S
C1296 H1318 0.929 . S
C1297 C1292 1.373 . S
C1297 C1296 1.396 . S
C1297 H1319 0.929 . S
C1298 O1308 1.240 . S
C1298 O1309 1.289 . S
C1299 O1310 1.258 . S
C1299 O1311 1.256 . S
O1300 La1280 2.521 . S
O1300 C1282 1.261 . S
O1301 La1280 2.628 . S
O1301 C1282 1.243 . S
O1302 La1280 2.554 . S
O1302 C1289 1.240 . S
O1303 La1280 2.757 . S
O1303 La1281 2.482 . S
O1303 C1289 1.289 . S
O1304 La1280 2.470 . S
O1304 C1290 1.258 . S
O1305 La1281 2.503 . S
O1305 C1290 1.256 . S
O1306 La1281 2.521 . S
O1306 C1291 1.261 . S
O1307 La1281 2.628 . S
O1307 C1291 1.243 . S
O1308 La1281 2.554 . S
O1308 C1298 1.240 . S
O1309 La1280 2.482 . S
O1309 La1281 2.757 . S
O1309 C1298 1.289 . S
O1310 La1281 2.470 . S
O1310 C1299 1.258 . S
O1311 La1280 2.503 . S
O1311 C1299 1.256 . S
H1312 C1284 0.930 . S
H1313 C1285 0.930 . S
H1314 C1287 0.929 . S
H1315 C1288 0.929 . S
H1316 C1293 0.930 . S
H1317 C1294 0.930 . S
H1318 C1296 0.929 . S
H1319 C1297 0.929 . S
La1320 C1322 2.928 . S
La1320 O1340 2.521 . S
La1320 O1341 2.628 . S
La1320 O1342 2.554 . S
La1320 O1343 2.757 . S
La1320 O1344 2.470 . S
La1320 O1349 2.482 . S
La1320 O1351 2.503 . S
La1321 C1331 2.928 . S
La1321 O1343 2.482 . S
La1321 O1345 2.503 . S
La1321 O1346 2.521 . S
La1321 O1347 2.628 . S
La1321 O1348 2.554 . S
La1321 O1349 2.757 . S
La1321 O1350 2.470 . S
C1322 La1320 2.928 . S
C1322 C1323 1.503 . S
C1322 O1340 1.261 . S
C1322 O1341 1.243 . S
C1323 C1322 1.503 . S
C1323 C1324 1.394 . S
C1323 C1328 1.373 . S
C1324 C1323 1.394 . S
C1324 C1325 1.380 . S
C1324 H1352 0.930 . S
C1325 C1324 1.380 . S
C1325 C1326 1.376 . S
C1325 H1353 0.930 . S
C1326 C1325 1.376 . S
C1326 C1327 1.370 . S
C1327 C1326 1.370 . S
C1327 C1328 1.396 . S
C1327 H1354 0.929 . S
C1328 C1323 1.373 . S
C1328 C1327 1.396 . S
C1328 H1355 0.929 . S
C1329 O1342 1.240 . S
C1329 O1343 1.289 . S
C1330 O1344 1.258 . S
C1330 O1345 1.256 . S
C1331 La1321 2.928 . S
C1331 C1332 1.503 . S
C1331 O1346 1.261 . S
C1331 O1347 1.243 . S
C1332 C1331 1.503 . S
C1332 C1333 1.394 . S
C1332 C1337 1.373 . S
C1333 C1332 1.394 . S
C1333 C1334 1.380 . S
C1333 H1356 0.930 . S
C1334 C1333 1.380 . S
C1334 C1335 1.376 . S
C1334 H1357 0.930 . S
C1335 C1334 1.376 . S
C1335 C1336 1.370 1_455 S
C1336 C1335 1.370 1_655 S
C1336 C1337 1.396 1_655 S
C1336 H1358 0.929 . S
C1337 C1332 1.373 . S
C1337 C1336 1.396 1_455 S
C1337 H1359 0.929 1_455 S
C1338 O1348 1.240 . S
C1338 O1349 1.289 . S
C1339 O1350 1.258 . S
C1339 O1351 1.256 . S
O1340 La1320 2.521 . S
O1340 C1322 1.261 . S
O1341 La1320 2.628 . S
O1341 C1322 1.243 . S
O1342 La1320 2.554 . S
O1342 C1329 1.240 . S
O1343 La1320 2.757 . S
O1343 La1321 2.482 . S
O1343 C1329 1.289 . S
O1344 La1320 2.470 . S
O1344 C1330 1.258 . S
O1345 La1321 2.503 . S
O1345 C1330 1.256 . S
O1346 La1321 2.521 . S
O1346 C1331 1.261 . S
O1347 La1321 2.628 . S
O1347 C1331 1.243 . S
O1348 La1321 2.554 . S
O1348 C1338 1.240 . S
O1349 La1320 2.482 . S
O1349 La1321 2.757 . S
O1349 C1338 1.289 . S
O1350 La1321 2.470 . S
O1350 C1339 1.258 . S
O1351 La1320 2.503 . S
O1351 C1339 1.256 . S
H1352 C1324 0.930 . S
H1353 C1325 0.930 . S
H1354 C1327 0.929 . S
H1355 C1328 0.929 . S
H1356 C1333 0.930 . S
H1357 C1334 0.930 . S
H1358 C1336 0.929 . S
H1359 C1337 0.929 1_655 S
La1360 C1362 2.928 . S
La1360 O1380 2.521 . S
La1360 O1381 2.628 . S
La1360 O1382 2.554 . S
La1360 O1383 2.757 . S
La1360 O1384 2.470 . S
La1360 O1389 2.482 . S
La1360 O1391 2.503 . S
La1361 C1371 2.928 . S
La1361 O1383 2.482 . S
La1361 O1385 2.503 . S
La1361 O1386 2.521 . S
La1361 O1387 2.628 . S
La1361 O1388 2.554 . S
La1361 O1389 2.757 . S
La1361 O1390 2.470 . S
C1362 La1360 2.928 . S
C1362 C1363 1.503 . S
C1362 O1380 1.261 . S
C1362 O1381 1.243 . S
C1363 C1362 1.503 . S
C1363 C1364 1.394 . S
C1363 C1368 1.373 . S
C1364 C1363 1.394 . S
C1364 C1365 1.380 . S
C1364 H1392 0.930 . S
C1365 C1364 1.380 . S
C1365 C1366 1.376 . S
C1365 H1393 0.930 . S
C1366 C1365 1.376 . S
C1366 C1367 1.370 . S
C1367 C1366 1.370 . S
C1367 C1368 1.396 . S
C1367 H1394 0.929 . S
C1368 C1363 1.373 . S
C1368 C1367 1.396 . S
C1368 H1395 0.929 . S
C1369 O1382 1.240 . S
C1369 O1383 1.289 . S
C1370 O1384 1.258 . S
C1370 O1385 1.256 . S
C1371 La1361 2.928 . S
C1371 C1372 1.503 . S
C1371 O1386 1.261 . S
C1371 O1387 1.243 . S
C1372 C1371 1.503 . S
C1372 C1373 1.394 . S
C1372 C1377 1.373 . S
C1373 C1372 1.394 . S
C1373 C1374 1.380 . S
C1373 H1396 0.930 . S
C1374 C1373 1.380 . S
C1374 C1375 1.376 . S
C1374 H1397 0.930 . S
C1375 C1374 1.376 . S
C1375 C1376 1.370 . S
C1376 C1375 1.370 . S
C1376 C1377 1.396 . S
C1376 H1398 0.929 . S
C1377 C1372 1.373 . S
C1377 C1376 1.396 . S
C1377 H1399 0.929 . S
C1378 O1388 1.240 . S
C1378 O1389 1.289 . S
C1379 O1390 1.258 . S
C1379 O1391 1.256 . S
O1380 La1360 2.521 . S
O1380 C1362 1.261 . S
O1381 La1360 2.628 . S
O1381 C1362 1.243 . S
O1382 La1360 2.554 . S
O1382 C1369 1.240 . S
O1383 La1360 2.757 . S
O1383 La1361 2.482 . S
O1383 C1369 1.289 . S
O1384 La1360 2.470 . S
O1384 C1370 1.258 . S
O1385 La1361 2.503 . S
O1385 C1370 1.256 . S
O1386 La1361 2.521 . S
O1386 C1371 1.261 . S
O1387 La1361 2.628 . S
O1387 C1371 1.243 . S
O1388 La1361 2.554 . S
O1388 C1378 1.240 . S
O1389 La1360 2.482 . S
O1389 La1361 2.757 . S
O1389 C1378 1.289 . S
O1390 La1361 2.470 . S
O1390 C1379 1.258 . S
O1391 La1360 2.503 . S
O1391 C1379 1.256 . S
H1392 C1364 0.930 . S
H1393 C1365 0.930 . S
H1394 C1367 0.929 . S
H1395 C1368 0.929 . S
H1396 C1373 0.930 . S
H1397 C1374 0.930 . S
H1398 C1376 0.929 . S
H1399 C1377 0.929 . S
La1400 C1402 2.928 . S
La1400 O1420 2.521 . S
La1400 O1421 2.628 . S
La1400 O1422 2.554 . S
La1400 O1423 2.757 . S
La1400 O1424 2.470 . S
La1400 O1429 2.482 . S
La1400 O1431 2.503 . S
La1401 C1411 2.928 . S
La1401 O1423 2.482 . S
La1401 O1425 2.503 . S
La1401 O1426 2.521 . S
La1401 O1427 2.628 . S
La1401 O1428 2.554 . S
La1401 O1429 2.757 . S
La1401 O1430 2.470 . S
C1402 La1400 2.928 . S
C1402 C1403 1.503 . S
C1402 O1420 1.261 . S
C1402 O1421 1.243 . S
C1403 C1402 1.503 . S
C1403 C1404 1.394 . S
C1403 C1408 1.373 . S
C1404 C1403 1.394 . S
C1404 C1405 1.380 . S
C1404 H1432 0.930 . S
C1405 C1404 1.380 . S
C1405 C1406 1.376 . S
C1405 H1433 0.930 . S
C1406 C1405 1.376 . S
C1406 C1407 1.370 . S
C1407 C1406 1.370 . S
C1407 C1408 1.396 . S
C1407 H1434 0.929 . S
C1408 C1403 1.373 . S
C1408 C1407 1.396 . S
C1408 H1435 0.929 . S
C1409 O1422 1.240 . S
C1409 O1423 1.289 . S
C1410 O1424 1.258 . S
C1410 O1425 1.256 . S
C1411 La1401 2.928 . S
C1411 C1412 1.503 . S
C1411 O1426 1.261 . S
C1411 O1427 1.243 . S
C1412 C1411 1.503 . S
C1412 C1413 1.394 . S
C1412 C1417 1.373 . S
C1413 C1412 1.394 . S
C1413 C1414 1.380 . S
C1413 H1436 0.930 . S
C1414 C1413 1.380 . S
C1414 C1415 1.376 . S
C1414 H1437 0.930 . S
C1415 C1414 1.376 . S
C1415 C1416 1.370 1_565 S
C1416 C1415 1.370 1_545 S
C1416 C1417 1.396 1_545 S
C1416 H1438 0.929 . S
C1417 C1412 1.373 . S
C1417 C1416 1.396 1_565 S
C1417 H1439 0.929 1_565 S
C1418 O1428 1.240 . S
C1418 O1429 1.289 . S
C1419 O1430 1.258 . S
C1419 O1431 1.256 . S
O1420 La1400 2.521 . S
O1420 C1402 1.261 . S
O1421 La1400 2.628 . S
O1421 C1402 1.243 . S
O1422 La1400 2.554 . S
O1422 C1409 1.240 . S
O1423 La1400 2.757 . S
O1423 La1401 2.482 . S
O1423 C1409 1.289 . S
O1424 La1400 2.470 . S
O1424 C1410 1.258 . S
O1425 La1401 2.503 . S
O1425 C1410 1.256 . S
O1426 La1401 2.521 . S
O1426 C1411 1.261 . S
O1427 La1401 2.628 . S
O1427 C1411 1.243 . S
O1428 La1401 2.554 . S
O1428 C1418 1.240 . S
O1429 La1400 2.482 . S
O1429 La1401 2.757 . S
O1429 C1418 1.289 . S
O1430 La1401 2.470 . S
O1430 C1419 1.258 . S
O1431 La1400 2.503 . S
O1431 C1419 1.256 . S
H1432 C1404 0.930 . S
H1433 C1405 0.930 . S
H1434 C1407 0.929 . S
H1435 C1408 0.929 . S
H1436 C1413 0.930 . S
H1437 C1414 0.930 . S
H1438 C1416 0.929 . S
H1439 C1417 0.929 1_545 S
H1440 C1448 0.950 . S
H1441 C1453 0.950 . S
H1442 C1450 0.950 . S
H1443 C1452 0.950 . S
H1444 C1454 0.950 1_565 S
H1445 C1456 0.950 . S
H1446 C1458 0.950 . S
H1447 C1459 0.950 . S
C1448 H1440 0.950 . S
C1448 C1449 1.386 . S
C1448 C1450 1.391 . S
C1449 C1448 1.386 . S
C1449 C1453 1.393 . S
C1450 H1442 0.950 . S
C1450 C1448 1.391 . S
C1450 C1451 1.400 . S
C1451 C1450 1.400 . S
C1451 C1452 1.398 . S
C1451 C1457 1.491 . S
C1452 H1443 0.950 . S
C1452 C1451 1.398 . S
C1452 C1453 1.391 . S
C1453 H1441 0.950 . S
C1453 C1449 1.393 . S
C1453 C1452 1.391 . S
C1454 H1444 0.950 1_545 S
C1454 C1455 1.386 1_545 S
C1454 C1456 1.391 . S
C1455 C1454 1.386 1_565 S
C1455 C1459 1.393 . S
C1456 H1445 0.950 . S
C1456 C1454 1.391 . S
C1456 C1457 1.400 . S
C1457 C1451 1.491 . S
C1457 C1456 1.400 . S
C1457 C1458 1.398 . S
C1458 H1446 0.950 . S
C1458 C1457 1.398 . S
C1458 C1459 1.391 1_545 S
C1459 H1447 0.950 . S
C1459 C1455 1.393 . S
C1459 C1458 1.391 1_565 S
H1460 C1468 0.949 . S
H1461 C1473 0.950 . S
H1462 C1470 0.950 . S
H1463 C1472 0.950 . S
H1464 C1474 0.950 1_565 S
H1465 C1476 0.950 . S
H1466 C1478 0.950 . S
H1467 C1479 0.950 . S
C1468 H1460 0.949 . S
C1468 C1469 1.391 . S
C1468 C1470 1.387 1_455 S
C1469 C1468 1.391 . S
C1469 C1473 1.393 . S
C1470 H1462 0.950 . S
C1470 C1468 1.387 1_655 S
C1470 C1471 1.400 . S
C1471 C1470 1.400 . S
C1471 C1472 1.398 . S
C1471 C1477 1.491 . S
C1472 H1463 0.950 . S
C1472 C1471 1.398 . S
C1472 C1473 1.391 1_655 S
C1473 H1461 0.950 . S
C1473 C1469 1.393 . S
C1473 C1472 1.391 1_455 S
C1474 H1464 0.950 1_545 S
C1474 C1475 1.386 . S
C1474 C1476 1.391 . S
C1475 C1474 1.386 . S
C1475 C1479 1.393 . S
C1476 H1465 0.950 . S
C1476 C1474 1.391 . S
C1476 C1477 1.400 . S
C1477 C1471 1.491 . S
C1477 C1476 1.400 . S
C1477 C1478 1.398 . S
C1478 H1466 0.950 . S
C1478 C1477 1.398 . S
C1478 C1479 1.391 . S
C1479 H1467 0.950 . S
C1479 C1475 1.393 . S
C1479 C1478 1.391 . S
H1480 C1488 0.950 . S
H1481 C1493 0.931 1_455 S
H1482 C1490 0.950 . S
H1483 C1492 0.950 . S
H1484 C1494 0.950 . S
H1485 C1496 0.950 . S
H1486 C1498 0.950 . S
H1487 C1499 0.950 . S
C1488 H1480 0.950 . S
C1488 C1489 1.386 . S
C1488 C1490 1.391 . S
C1489 C1488 1.386 . S
C1489 C1493 1.393 . S
C1490 H1482 0.950 . S
C1490 C1488 1.391 . S
C1490 C1491 1.400 . S
C1491 C1490 1.400 . S
C1491 C1492 1.398 . S
C1491 C1497 1.491 . S
C1492 H1483 0.950 . S
C1492 C1491 1.398 . S
C1492 C1493 1.391 . S
C1493 H1481 0.931 1_655 S
C1493 C1489 1.393 . S
C1493 C1492 1.391 . S
C1494 H1484 0.950 . S
C1494 C1495 1.386 . S
C1494 C1496 1.391 . S
C1495 C1494 1.386 . S
C1495 C1499 1.393 . S
C1496 H1485 0.950 . S
C1496 C1494 1.391 . S
C1496 C1497 1.400 . S
C1497 C1491 1.491 . S
C1497 C1496 1.400 . S
C1497 C1498 1.398 . S
C1498 H1486 0.950 . S
C1498 C1497 1.398 . S
C1498 C1499 1.391 . S
C1499 H1487 0.950 . S
C1499 C1495 1.393 . S
C1499 C1498 1.391 . S
H1500 C1508 0.950 . S
H1501 C1513 0.950 . S
H1502 C1510 0.950 . S
H1503 C1512 0.950 . S
H1504 C1514 0.950 1_655 S
H1505 C1516 0.950 . S
H1506 C1518 0.950 . S
H1507 C1519 0.950 . S
C1508 H1500 0.950 . S
C1508 C1509 1.386 . S
C1508 C1510 1.391 . S
C1509 C1508 1.386 . S
C1509 C1513 1.393 . S
C1510 H1502 0.950 . S
C1510 C1508 1.391 . S
C1510 C1511 1.400 . S
C1511 C1510 1.400 . S
C1511 C1512 1.398 . S
C1511 C1517 1.491 . S
C1512 H1503 0.950 . S
C1512 C1511 1.398 . S
C1512 C1513 1.391 . S
C1513 H1501 0.950 . S
C1513 C1509 1.393 . S
C1513 C1512 1.391 . S
C1514 H1504 0.950 1_455 S
C1514 C1515 1.386 1_455 S
C1514 C1516 1.391 . S
C1515 C1514 1.386 1_655 S
C1515 C1519 1.393 . S
C1516 H1505 0.950 . S
C1516 C1514 1.391 . S
C1516 C1517 1.400 . S
C1517 C1511 1.491 . S
C1517 C1516 1.400 . S
C1517 C1518 1.398 . S
C1518 H1506 0.950 . S
C1518 C1517 1.398 . S
C1518 C1519 1.391 1_455 S
C1519 H1507 0.950 . S
C1519 C1515 1.393 . S
C1519 C1518 1.391 1_655 S
H1520 C1528 0.950 . S
H1521 C1533 0.950 . S
H1522 C1530 0.950 . S
H1523 C1532 0.950 . S
H1524 C1534 0.950 . S
H1525 C1536 0.950 . S
H1526 C1538 0.950 . S
H1527 C1539 0.950 1_545 S
C1528 H1520 0.950 . S
C1528 C1529 1.386 . S
C1528 C1530 1.391 . S
C1529 C1528 1.386 . S
C1529 C1533 1.393 . S
C1530 H1522 0.950 . S
C1530 C1528 1.391 . S
C1530 C1531 1.400 . S
C1531 C1530 1.400 . S
C1531 C1532 1.398 . S
C1531 C1537 1.491 . S
C1532 H1523 0.950 . S
C1532 C1531 1.398 . S
C1532 C1533 1.391 . S
C1533 H1521 0.950 . S
C1533 C1529 1.393 . S
C1533 C1532 1.391 . S
C1534 H1524 0.950 . S
C1534 C1535 1.386 . S
C1534 C1536 1.391 . S
C1535 C1534 1.386 . S
C1535 C1539 1.393 . S
C1536 H1525 0.950 . S
C1536 C1534 1.391 . S
C1536 C1537 1.400 . S
C1537 C1531 1.491 . S
C1537 C1536 1.400 . S
C1537 C1538 1.398 . S
C1538 H1526 0.950 . S
C1538 C1537 1.398 . S
C1538 C1539 1.391 . S
C1539 H1527 0.950 1_565 S
C1539 C1535 1.393 . S
C1539 C1538 1.391 . S
H1540 C1548 0.950 . S
H1541 C1553 0.950 1_655 S
H1542 C1550 0.950 . S
H1543 C1552 0.950 . S
H1544 C1554 0.950 . S
H1545 C1556 0.950 . S
H1546 C1558 0.950 . S
H1547 C1559 0.950 1_545 S
C1548 H1540 0.950 . S
C1548 C1549 1.386 . S
C1548 C1550 1.391 . S
C1549 C1548 1.386 . S
C1549 C1553 1.393 . S
C1550 H1542 0.950 . S
C1550 C1548 1.391 . S
C1550 C1551 1.400 . S
C1551 C1550 1.400 . S
C1551 C1552 1.398 . S
C1551 C1557 1.491 . S
C1552 H1543 0.950 . S
C1552 C1551 1.398 . S
C1552 C1553 1.391 . S
C1553 H1541 0.950 1_455 S
C1553 C1549 1.393 . S
C1553 C1552 1.391 . S
C1554 H1544 0.950 . S
C1554 C1555 1.386 . S
C1554 C1556 1.391 1_545 S
C1555 C1554 1.386 . S
C1555 C1559 1.393 1_545 S
C1556 H1545 0.950 . S
C1556 C1554 1.391 1_565 S
C1556 C1557 1.400 . S
C1557 C1551 1.491 . S
C1557 C1556 1.400 . S
C1557 C1558 1.398 . S
C1558 H1546 0.950 . S
C1558 C1557 1.398 . S
C1558 C1559 1.391 . S
C1559 H1547 0.950 1_565 S
C1559 C1555 1.393 1_565 S
C1559 C1558 1.391 . S
H1560 C1568 0.950 . S
H1561 C1573 0.950 . S
H1562 C1570 0.950 . S
H1563 C1572 0.950 . S
H1564 C1574 0.950 . S
H1565 C1576 0.950 . S
H1566 C1578 0.950 . S
H1567 C1579 0.950 1_545 S
C1568 H1560 0.950 . S
C1568 C1569 1.386 . S
C1568 C1570 1.391 . S
C1569 C1568 1.386 . S
C1569 C1573 1.393 . S
C1570 H1562 0.950 . S
C1570 C1568 1.391 . S
C1570 C1571 1.400 . S
C1571 C1570 1.400 . S
C1571 C1572 1.398 . S
C1571 C1577 1.491 . S
C1572 H1563 0.950 . S
C1572 C1571 1.398 . S
C1572 C1573 1.391 . S
C1573 H1561 0.950 . S
C1573 C1569 1.393 . S
C1573 C1572 1.391 . S
C1574 H1564 0.950 . S
C1574 C1575 1.386 . S
C1574 C1576 1.391 1_545 S
C1575 C1574 1.386 . S
C1575 C1579 1.393 1_545 S
C1576 H1565 0.950 . S
C1576 C1574 1.391 1_565 S
C1576 C1577 1.400 . S
C1577 C1571 1.491 . S
C1577 C1576 1.400 . S
C1577 C1578 1.398 . S
C1578 H1566 0.950 . S
C1578 C1577 1.398 . S
C1578 C1579 1.391 . S
C1579 H1567 0.950 1_565 S
C1579 C1575 1.393 1_565 S
C1579 C1578 1.391 . S
H1580 C1588 0.978 . S
H1581 C1593 0.950 . S
H1582 C1590 0.950 . S
H1583 C1592 0.950 . S
H1584 C1594 0.959 1_655 S
H1585 C1596 0.950 . S
H1586 C1598 0.950 . S
H1587 C1599 0.950 . S
C1588 H1580 0.978 . S
C1588 C1589 1.368 1_545 S
C1588 C1590 1.381 1_545 S
C1589 C1588 1.368 1_565 S
C1589 C1593 1.393 . S
C1590 H1582 0.950 . S
C1590 C1588 1.381 1_565 S
C1590 C1591 1.400 . S
C1591 C1590 1.400 . S
C1591 C1592 1.398 . S
C1591 C1597 1.491 . S
C1592 H1583 0.950 . S
C1592 C1591 1.398 . S
C1592 C1593 1.391 . S
C1593 H1581 0.950 . S
C1593 C1589 1.393 . S
C1593 C1592 1.391 . S
C1594 H1584 0.959 1_455 S
C1594 C1595 1.386 1_455 S
C1594 C1596 1.391 . S
C1595 C1594 1.386 1_655 S
C1595 C1599 1.393 . S
C1596 H1585 0.950 . S
C1596 C1594 1.391 . S
C1596 C1597 1.400 . S
C1597 C1591 1.491 . S
C1597 C1596 1.400 . S
C1597 C1598 1.398 . S
C1598 H1586 0.950 . S
C1598 C1597 1.398 . S
C1598 C1599 1.391 1_455 S
C1599 H1587 0.950 . S
C1599 C1595 1.393 . S
C1599 C1598 1.391 1_655 S
H1600 C1608 0.950 . S
H1601 C1613 0.934 1_655 S
H1602 C1610 0.950 . S
H1603 C1612 0.950 . S
H1604 C1614 0.950 . S
H1605 C1616 0.950 . S
H1606 C1618 0.950 . S
H1607 C1619 0.950 . S
C1608 H1600 0.950 . S
C1608 C1609 1.386 . S
C1608 C1610 1.391 . S
C1609 C1608 1.386 . S
C1609 C1613 1.382 . S
C1610 H1602 0.950 . S
C1610 C1608 1.391 . S
C1610 C1611 1.400 . S
C1611 C1610 1.400 . S
C1611 C1612 1.398 . S
C1611 C1617 1.491 . S
C1612 H1603 0.950 . S
C1612 C1611 1.398 . S
C1612 C1613 1.417 . S
C1613 H1601 0.934 1_455 S
C1613 C1609 1.382 . S
C1613 C1612 1.417 . S
C1614 H1604 0.950 . S
C1614 C1615 1.386 . S
C1614 C1616 1.391 . S
C1615 C1614 1.386 . S
C1615 C1619 1.393 . S
C1616 H1605 0.950 . S
C1616 C1614 1.391 . S
C1616 C1617 1.400 . S
C1617 C1611 1.491 . S
C1617 C1616 1.400 . S
C1617 C1618 1.398 . S
C1618 H1606 0.950 . S
C1618 C1617 1.398 . S
C1618 C1619 1.391 . S
C1619 H1607 0.950 . S
C1619 C1615 1.393 . S
C1619 C1618 1.391 . S
H1620 C1628 0.950 . S
H1621 C1633 0.950 . S
H1622 C1630 0.950 . S
H1623 C1632 0.950 . S
H1624 C1634 0.950 . S
H1625 C1636 0.950 . S
H1626 C1638 0.950 . S
H1627 C1639 0.955 . S
C1628 H1620 0.950 . S
C1628 C1629 1.386 . S
C1628 C1630 1.391 . S
C1629 C1628 1.386 . S
C1629 C1633 1.393 . S
C1630 H1622 0.950 . S
C1630 C1628 1.391 . S
C1630 C1631 1.400 . S
C1631 C1630 1.400 . S
C1631 C1632 1.398 . S
C1631 C1637 1.491 . S
C1632 H1623 0.950 . S
C1632 C1631 1.398 . S
C1632 C1633 1.391 . S
C1633 H1621 0.950 . S
C1633 C1629 1.393 . S
C1633 C1632 1.391 . S
C1634 H1624 0.950 . S
C1634 C1635 1.386 . S
C1634 C1636 1.391 1_455 S
C1635 C1634 1.386 . S
C1635 C1639 1.393 1_455 S
C1636 H1625 0.950 . S
C1636 C1634 1.391 1_655 S
C1636 C1637 1.400 . S
C1637 C1631 1.491 . S
C1637 C1636 1.400 . S
C1637 C1638 1.398 . S
C1638 H1626 0.950 . S
C1638 C1637 1.398 . S
C1638 C1639 1.391 . S
C1639 H1627 0.955 . S
C1639 C1635 1.393 1_655 S
C1639 C1638 1.391 . S
H1640 C1648 0.950 . S
H1641 C1653 0.950 . S
H1642 C1650 0.950 . S
H1643 C1652 0.950 . S
H1644 C1654 0.950 . S
H1645 C1656 0.950 . S
H1646 C1658 0.950 . S
H1647 C1659 0.950 . S
C1648 H1640 0.950 . S
C1648 C1649 1.386 . S
C1648 C1650 1.391 . S
C1649 C1648 1.386 . S
C1649 C1653 1.393 . S
C1650 H1642 0.950 . S
C1650 C1648 1.391 . S
C1650 C1651 1.400 . S
C1651 C1650 1.400 . S
C1651 C1652 1.398 . S
C1651 C1657 1.491 . S
C1652 H1643 0.950 . S
C1652 C1651 1.398 . S
C1652 C1653 1.391 . S
C1653 H1641 0.950 . S
C1653 C1649 1.393 . S
C1653 C1652 1.391 . S
C1654 H1644 0.950 . S
C1654 C1655 1.386 . S
C1654 C1656 1.391 . S
C1655 C1654 1.386 . S
C1655 C1659 1.393 . S
C1656 H1645 0.950 . S
C1656 C1654 1.391 . S
C1656 C1657 1.400 . S
C1657 C1651 1.491 . S
C1657 C1656 1.400 . S
C1657 C1658 1.398 . S
C1658 H1646 0.950 . S
C1658 C1657 1.398 . S
C1658 C1659 1.391 . S
C1659 H1647 0.950 . S
C1659 C1655 1.393 . S
C1659 C1658 1.391 . S
H1660 C1668 0.950 . S
H1661 C1673 0.950 1_565 S
H1662 C1670 0.950 . S
H1663 C1672 0.950 . S
H1664 C1674 0.950 . S
H1665 C1676 0.950 . S
H1666 C1678 0.950 . S
H1667 C1679 0.950 1_455 S
C1668 H1660 0.950 . S
C1668 C1669 1.386 . S
C1668 C1670 1.391 1_565 S
C1669 C1668 1.386 . S
C1669 C1673 1.393 1_565 S
C1670 H1662 0.950 . S
C1670 C1668 1.391 1_545 S
C1670 C1671 1.400 . S
C1671 C1670 1.400 . S
C1671 C1672 1.398 . S
C1671 C1677 1.491 . S
C1672 H1663 0.950 . S
C1672 C1671 1.398 . S
C1672 C1673 1.391 . S
C1673 H1661 0.950 1_545 S
C1673 C1669 1.393 1_545 S
C1673 C1672 1.391 . S
C1674 H1664 0.950 . S
C1674 C1675 1.386 . S
C1674 C1676 1.391 . S
C1675 C1674 1.386 . S
C1675 C1679 1.393 . S
C1676 H1665 0.950 . S
C1676 C1674 1.391 . S
C1676 C1677 1.400 . S
C1677 C1671 1.491 . S
C1677 C1676 1.400 . S
C1677 C1678 1.398 . S
C1678 H1666 0.950 . S
C1678 C1677 1.398 . S
C1678 C1679 1.391 . S
C1679 H1667 0.950 1_655 S
C1679 C1675 1.393 . S
C1679 C1678 1.391 . S
H1680 C1688 0.950 . S
H1681 C1693 0.950 . S
H1682 C1690 0.950 . S
H1683 C1692 0.950 . S
H1684 C1694 0.950 . S
H1685 C1696 0.950 . S
H1686 C1698 0.950 . S
H1687 C1699 0.950 . S
C1688 H1680 0.950 . S
C1688 C1689 1.386 . S
C1688 C1690 1.391 . S
C1689 C1688 1.386 . S
C1689 C1693 1.393 . S
C1690 H1682 0.950 . S
C1690 C1688 1.391 . S
C1690 C1691 1.400 . S
C1691 C1690 1.400 . S
C1691 C1692 1.398 . S
C1691 C1697 1.491 . S
C1692 H1683 0.950 . S
C1692 C1691 1.398 . S
C1692 C1693 1.391 . S
C1693 H1681 0.950 . S
C1693 C1689 1.393 . S
C1693 C1692 1.391 . S
C1694 H1684 0.950 . S
C1694 C1695 1.386 . S
C1694 C1696 1.391 . S
C1695 C1694 1.386 . S
C1695 C1699 1.393 . S
C1696 H1685 0.950 . S
C1696 C1694 1.391 . S
C1696 C1697 1.400 . S
C1697 C1691 1.491 . S
C1697 C1696 1.400 . S
C1697 C1698 1.398 . S
C1698 H1686 0.950 . S
C1698 C1697 1.398 . S
C1698 C1699 1.391 . S
C1699 H1687 0.950 . S
C1699 C1695 1.393 . S
C1699 C1698 1.391 . S
H1700 C1708 0.950 . S
H1701 C1713 0.950 . S
H1702 C1710 0.950 . S
H1703 C1712 0.950 . S
H1704 C1714 0.950 . S
H1705 C1716 0.950 . S
H1706 C1718 0.950 . S
H1707 C1719 0.950 . S
C1708 H1700 0.950 . S
C1708 C1709 1.386 . S
C1708 C1710 1.391 . S
C1709 C1708 1.386 . S
C1709 C1713 1.393 . S
C1710 H1702 0.950 . S
C1710 C1708 1.391 . S
C1710 C1711 1.400 . S
C1711 C1710 1.400 . S
C1711 C1712 1.398 . S
C1711 C1717 1.491 . S
C1712 H1703 0.950 . S
C1712 C1711 1.398 . S
C1712 C1713 1.391 . S
C1713 H1701 0.950 . S
C1713 C1709 1.393 . S
C1713 C1712 1.391 . S
C1714 H1704 0.950 . S
C1714 C1715 1.386 . S
C1714 C1716 1.391 . S
C1715 C1714 1.386 . S
C1715 C1719 1.393 . S
C1716 H1705 0.950 . S
C1716 C1714 1.391 . S
C1716 C1717 1.400 . S
C1717 C1711 1.491 . S
C1717 C1716 1.400 . S
C1717 C1718 1.398 . S
C1718 H1706 0.950 . S
C1718 C1717 1.398 . S
C1718 C1719 1.391 . S
C1719 H1707 0.950 . S
C1719 C1715 1.393 . S
C1719 C1718 1.391 . S
H1720 C1728 0.950 . S
H1721 C1733 0.950 . S
H1722 C1730 0.950 . S
H1723 C1732 0.950 . S
H1724 C1734 0.950 . S
H1725 C1736 0.950 . S
H1726 C1738 0.950 . S
H1727 C1739 0.950 . S
C1728 H1720 0.950 . S
C1728 C1729 1.386 . S
C1728 C1730 1.391 . S
C1729 C1728 1.386 . S
C1729 C1733 1.393 . S
C1730 H1722 0.950 . S
C1730 C1728 1.391 . S
C1730 C1731 1.400 . S
C1731 C1730 1.400 . S
C1731 C1732 1.398 . S
C1731 C1737 1.491 . S
C1732 H1723 0.950 . S
C1732 C1731 1.398 . S
C1732 C1733 1.391 . S
C1733 H1721 0.950 . S
C1733 C1729 1.393 . S
C1733 C1732 1.391 . S
C1734 H1724 0.950 . S
C1734 C1735 1.386 . S
C1734 C1736 1.391 . S
C1735 C1734 1.386 . S
C1735 C1739 1.393 . S
C1736 H1725 0.950 . S
C1736 C1734 1.391 . S
C1736 C1737 1.400 . S
C1737 C1731 1.491 . S
C1737 C1736 1.400 . S
C1737 C1738 1.398 . S
C1738 H1726 0.950 . S
C1738 C1737 1.398 . S
C1738 C1739 1.391 . S
C1739 H1727 0.950 . S
C1739 C1735 1.393 . S
C1739 C1738 1.391 . S
H1740 C1748 0.950 . S
H1741 C1753 0.950 . S
H1742 C1750 0.950 . S
H1743 C1752 0.950 . S
H1744 C1754 0.950 . S
H1745 C1756 0.950 . S
H1746 C1758 0.950 . S
H1747 C1759 0.950 . S
C1748 H1740 0.950 . S
C1748 C1749 1.386 . S
C1748 C1750 1.391 . S
C1749 C1748 1.386 . S
C1749 C1753 1.393 . S
C1750 H1742 0.950 . S
C1750 C1748 1.391 . S
C1750 C1751 1.400 . S
C1751 C1750 1.400 . S
C1751 C1752 1.398 . S
C1751 C1757 1.491 . S
C1752 H1743 0.950 . S
C1752 C1751 1.398 . S
C1752 C1753 1.391 . S
C1753 H1741 0.950 . S
C1753 C1749 1.393 . S
C1753 C1752 1.391 . S
C1754 H1744 0.950 . S
C1754 C1755 1.386 . S
C1754 C1756 1.391 . S
C1755 C1754 1.386 . S
C1755 C1759 1.393 . S
C1756 H1745 0.950 . S
C1756 C1754 1.391 . S
C1756 C1757 1.400 . S
C1757 C1751 1.491 . S
C1757 C1756 1.400 . S
C1757 C1758 1.398 . S
C1758 H1746 0.950 . S
C1758 C1757 1.398 . S
C1758 C1759 1.391 . S
C1759 H1747 0.950 . S
C1759 C1755 1.393 . S
C1759 C1758 1.391 . S
H1760 C1768 0.950 . S
H1761 C1773 0.950 . S
H1762 C1770 0.950 . S
H1763 C1772 0.950 . S
H1764 C1774 0.950 . S
H1765 C1776 0.950 . S
H1766 C1778 0.950 . S
H1767 C1779 0.950 . S
C1768 H1760 0.950 . S
C1768 C1769 1.386 . S
C1768 C1770 1.391 . S
C1769 C1768 1.386 . S
C1769 C1773 1.393 . S
C1770 H1762 0.950 . S
C1770 C1768 1.391 . S
C1770 C1771 1.400 . S
C1771 C1770 1.400 . S
C1771 C1772 1.398 . S
C1771 C1777 1.491 . S
C1772 H1763 0.950 . S
C1772 C1771 1.398 . S
C1772 C1773 1.391 . S
C1773 H1761 0.950 . S
C1773 C1769 1.393 . S
C1773 C1772 1.391 . S
C1774 H1764 0.950 . S
C1774 C1775 1.386 . S
C1774 C1776 1.391 . S
C1775 C1774 1.386 . S
C1775 C1779 1.393 . S
C1776 H1765 0.950 . S
C1776 C1774 1.391 . S
C1776 C1777 1.400 . S
C1777 C1771 1.491 . S
C1777 C1776 1.400 . S
C1777 C1778 1.398 . S
C1778 H1766 0.950 . S
C1778 C1777 1.398 . S
C1778 C1779 1.391 . S
C1779 H1767 0.950 . S
C1779 C1775 1.393 . S
C1779 C1778 1.391 . S
H1780 C1788 0.950 . S
H1781 C1793 0.950 . S
H1782 C1790 0.950 . S
H1783 C1792 0.950 . S
H1784 C1794 0.950 . S
H1785 C1796 0.950 . S
H1786 C1798 0.950 . S
H1787 C1799 0.950 . S
C1788 H1780 0.950 . S
C1788 C1789 1.386 . S
C1788 C1790 1.391 . S
C1789 C1788 1.386 . S
C1789 C1793 1.393 . S
C1790 H1782 0.950 . S
C1790 C1788 1.391 . S
C1790 C1791 1.400 . S
C1791 C1790 1.400 . S
C1791 C1792 1.398 . S
C1791 C1797 1.491 . S
C1792 H1783 0.950 . S
C1792 C1791 1.398 . S
C1792 C1793 1.391 . S
C1793 H1781 0.950 . S
C1793 C1789 1.393 . S
C1793 C1792 1.391 . S
C1794 H1784 0.950 . S
C1794 C1795 1.386 . S
C1794 C1796 1.391 . S
C1795 C1794 1.386 . S
C1795 C1799 1.393 . S
C1796 H1785 0.950 . S
C1796 C1794 1.391 . S
C1796 C1797 1.400 . S
C1797 C1791 1.491 . S
C1797 C1796 1.400 . S
C1797 C1798 1.398 . S
C1798 H1786 0.950 . S
C1798 C1797 1.398 . S
C1798 C1799 1.391 . S
C1799 H1787 0.950 . S
C1799 C1795 1.393 . S
C1799 C1798 1.391 . S
H1800 C1808 0.950 . S
H1801 C1813 0.950 . S
H1802 C1810 0.950 . S
H1803 C1812 0.950 . S
H1804 C1814 0.950 . S
H1805 C1816 0.950 . S
H1806 C1818 0.950 . S
H1807 C1819 0.950 . S
C1808 H1800 0.950 . S
C1808 C1809 1.386 . S
C1808 C1810 1.391 . S
C1809 C1808 1.386 . S
C1809 C1813 1.393 . S
C1810 H1802 0.950 . S
C1810 C1808 1.391 . S
C1810 C1811 1.400 . S
C1811 C1810 1.400 . S
C1811 C1812 1.398 . S
C1811 C1817 1.491 . S
C1812 H1803 0.950 . S
C1812 C1811 1.398 . S
C1812 C1813 1.391 . S
C1813 H1801 0.950 . S
C1813 C1809 1.393 . S
C1813 C1812 1.391 . S
C1814 H1804 0.950 . S
C1814 C1815 1.386 . S
C1814 C1816 1.391 . S
C1815 C1814 1.386 . S
C1815 C1819 1.393 . S
C1816 H1805 0.950 . S
C1816 C1814 1.391 . S
C1816 C1817 1.400 . S
C1817 C1811 1.491 . S
C1817 C1816 1.400 . S
C1817 C1818 1.398 . S
C1818 H1806 0.950 . S
C1818 C1817 1.398 . S
C1818 C1819 1.391 . S
C1819 H1807 0.950 . S
C1819 C1815 1.393 . S
C1819 C1818 1.391 . S
H1820 C1828 0.950 . S
H1821 C1833 0.950 . S
H1822 C1830 0.950 . S
H1823 C1832 0.950 . S
H1824 C1834 0.950 . S
H1825 C1836 0.950 . S
H1826 C1838 0.950 . S
H1827 C1839 0.950 . S
C1828 H1820 0.950 . S
C1828 C1829 1.386 . S
C1828 C1830 1.391 . S
C1829 C1828 1.386 . S
C1829 C1833 1.393 . S
C1830 H1822 0.950 . S
C1830 C1828 1.391 . S
C1830 C1831 1.400 . S
C1831 C1830 1.400 . S
C1831 C1832 1.398 . S
C1831 C1837 1.491 . S
C1832 H1823 0.950 . S
C1832 C1831 1.398 . S
C1832 C1833 1.391 . S
C1833 H1821 0.950 . S
C1833 C1829 1.393 . S
C1833 C1832 1.391 . S
C1834 H1824 0.950 . S
C1834 C1835 1.386 . S
C1834 C1836 1.391 . S
C1835 C1834 1.386 . S
C1835 C1839 1.393 . S
C1836 H1825 0.950 . S
C1836 C1834 1.391 . S
C1836 C1837 1.400 . S
C1837 C1831 1.491 . S
C1837 C1836 1.400 . S
C1837 C1838 1.398 . S
C1838 H1826 0.950 . S
C1838 C1837 1.398 . S
C1838 C1839 1.391 . S
C1839 H1827 0.950 . S
C1839 C1835 1.393 . S
C1839 C1838 1.391 . S
H1840 C1848 0.950 . S
H1841 C1853 0.950 . S
H1842 C1850 0.950 . S
H1843 C1852 0.950 . S
H1844 C1854 0.950 . S
H1845 C1856 0.950 . S
H1846 C1858 0.950 . S
H1847 C1859 0.950 . S
C1848 H1840 0.950 . S
C1848 C1849 1.386 . S
C1848 C1850 1.391 . S
C1849 C1848 1.386 . S
C1849 C1853 1.393 . S
C1850 H1842 0.950 . S
C1850 C1848 1.391 . S
C1850 C1851 1.400 . S
C1851 C1850 1.400 . S
C1851 C1852 1.398 . S
C1851 C1857 1.491 . S
C1852 H1843 0.950 . S
C1852 C1851 1.398 . S
C1852 C1853 1.391 . S
C1853 H1841 0.950 . S
C1853 C1849 1.393 . S
C1853 C1852 1.391 . S
C1854 H1844 0.950 . S
C1854 C1855 1.386 . S
C1854 C1856 1.391 . S
C1855 C1854 1.386 . S
C1855 C1859 1.393 . S
C1856 H1845 0.950 . S
C1856 C1854 1.391 . S
C1856 C1857 1.400 . S
C1857 C1851 1.491 . S
C1857 C1856 1.400 . S
C1857 C1858 1.398 . S
C1858 H1846 0.950 . S
C1858 C1857 1.398 . S
C1858 C1859 1.391 . S
C1859 H1847 0.950 . S
C1859 C1855 1.393 . S
C1859 C1858 1.391 . S
H1860 C1868 0.940 1_556 S
H1861 C1873 0.950 . S
H1862 C1870 0.948 . S
H1863 C1872 0.950 . S
H1864 C1874 0.950 . S
H1865 C1876 0.950 . S
H1866 C1878 0.967 . S
H1867 C1879 0.950 . S
C1868 H1860 0.940 1_554 S
C1868 C1869 1.399 . S
C1868 C1870 1.390 1_554 S
C1869 C1868 1.399 . S
C1869 C1873 1.393 . S
C1870 H1862 0.948 . S
C1870 C1868 1.390 1_556 S
C1870 C1871 1.402 1_556 S
C1871 C1870 1.402 1_554 S
C1871 C1872 1.398 . S
C1871 C1877 1.491 . S
C1872 H1863 0.950 . S
C1872 C1871 1.398 . S
C1872 C1873 1.391 . S
C1873 H1861 0.950 . S
C1873 C1869 1.393 . S
C1873 C1872 1.391 . S
C1874 H1864 0.950 . S
C1874 C1875 1.386 . S
C1874 C1876 1.391 . S
C1875 C1874 1.386 . S
C1875 C1879 1.393 1_554 S
C1876 H1865 0.950 . S
C1876 C1874 1.391 . S
C1876 C1877 1.400 . S
C1877 C1871 1.491 . S
C1877 C1876 1.400 . S
C1877 C1878 1.381 1_554 S
C1878 H1866 0.967 . S
C1878 C1877 1.381 1_556 S
C1878 C1879 1.397 . S
C1879 H1867 0.950 . S
C1879 C1875 1.393 1_556 S
C1879 C1878 1.397 . S
H1880 C1888 0.950 . S
H1881 C1893 0.950 . S
H1882 C1890 0.950 . S
H1883 C1892 0.950 . S
H1884 C1894 0.950 . S
H1885 C1896 0.950 . S
H1886 C1898 0.950 . S
H1887 C1899 0.950 . S
C1888 H1880 0.950 . S
C1888 C1889 1.485 . S
C1888 C1890 1.391 . S
C1889 C1888 1.485 . S
C1889 C1893 1.303 1_554 S
C1890 H1882 0.950 . S
C1890 C1888 1.391 . S
C1890 C1891 1.400 . S
C1891 C1890 1.400 . S
C1891 C1892 1.398 1_554 S
C1891 C1897 1.491 . S
C1892 H1883 0.950 . S
C1892 C1891 1.398 1_556 S
C1892 C1893 1.391 . S
C1893 H1881 0.950 . S
C1893 C1889 1.303 1_556 S
C1893 C1892 1.391 . S
C1894 H1884 0.950 . S
C1894 C1895 1.386 1_556 S
C1894 C1896 1.391 . S
C1895 C1894 1.386 1_554 S
C1895 C1899 1.393 . S
C1896 H1885 0.950 . S
C1896 C1894 1.391 . S
C1896 C1897 1.400 1_556 S
C1897 C1891 1.491 . S
C1897 C1896 1.400 1_554 S
C1897 C1898 1.398 . S
C1898 H1886 0.950 . S
C1898 C1897 1.398 . S
C1898 C1899 1.391 . S
C1899 H1887 0.950 . S
C1899 C1895 1.393 . S
C1899 C1898 1.391 . S
H1900 C1908 0.950 . S
H1901 C1913 0.950 . S
H1902 C1910 0.950 . S
H1903 C1912 0.950 . S
H1904 C1914 0.950 . S
H1905 C1916 0.950 . S
H1906 C1918 0.950 . S
H1907 C1919 0.950 . S
C1908 H1900 0.950 . S
C1908 C1909 1.386 . S
C1908 C1910 1.391 . S
C1909 C1908 1.386 . S
C1909 C1913 1.393 1_554 S
C1910 H1902 0.950 . S
C1910 C1908 1.391 . S
C1910 C1911 1.400 . S
C1911 C1910 1.400 . S
C1911 C1912 1.398 1_554 S
C1911 C1917 1.491 . S
C1912 H1903 0.950 . S
C1912 C1911 1.398 1_556 S
C1912 C1913 1.391 . S
C1913 H1901 0.950 . S
C1913 C1909 1.393 1_556 S
C1913 C1912 1.391 . S
C1914 H1904 0.950 . S
C1914 C1915 1.386 1_556 S
C1914 C1916 1.391 . S
C1915 C1914 1.386 1_554 S
C1915 C1919 1.393 . S
C1916 H1905 0.950 . S
C1916 C1914 1.391 . S
C1916 C1917 1.400 1_556 S
C1917 C1911 1.491 . S
C1917 C1916 1.400 1_554 S
C1917 C1918 1.398 . S
C1918 H1906 0.950 . S
C1918 C1917 1.398 . S
C1918 C1919 1.391 . S
C1919 H1907 0.950 . S
C1919 C1915 1.393 . S
C1919 C1918 1.391 . S
H1920 C1928 0.950 . S
H1921 C1933 0.950 . S
H1922 C1930 0.950 . S
H1923 C1932 0.950 . S
H1924 C1934 0.950 . S
H1925 C1936 0.950 . S
H1926 C1938 0.950 . S
H1927 C1939 0.950 . S
C1928 H1920 0.950 . S
C1928 C1929 1.386 . S
C1928 C1930 1.391 . S
C1929 C1928 1.386 . S
C1929 C1933 1.393 . S
C1930 H1922 0.950 . S
C1930 C1928 1.391 . S
C1930 C1931 1.400 . S
C1931 C1930 1.400 . S
C1931 C1932 1.398 . S
C1931 C1937 1.491 . S
C1932 H1923 0.950 . S
C1932 C1931 1.398 . S
C1932 C1933 1.391 . S
C1933 H1921 0.950 . S
C1933 C1929 1.393 . S
C1933 C1932 1.391 . S
C1934 H1924 0.950 . S
C1934 C1935 1.386 . S
C1934 C1936 1.391 . S
C1935 C1934 1.386 . S
C1935 C1939 1.393 . S
C1936 H1925 0.950 . S
C1936 C1934 1.391 . S
C1936 C1937 1.400 . S
C1937 C1931 1.491 . S
C1937 C1936 1.400 . S
C1937 C1938 1.398 . S
C1938 H1926 0.950 . S
C1938 C1937 1.398 . S
C1938 C1939 1.391 . S
C1939 H1927 0.950 . S
C1939 C1935 1.393 . S
C1939 C1938 1.391 . S
H1940 C1948 0.950 . S
H1941 C1953 0.950 . S
H1942 C1950 0.950 . S
H1943 C1952 0.950 . S
H1944 C1954 0.950 . S
H1945 C1956 0.950 . S
H1946 C1958 0.950 . S
H1947 C1959 0.950 . S
C1948 H1940 0.950 . S
C1948 C1949 1.386 . S
C1948 C1950 1.391 . S
C1949 C1948 1.386 . S
C1949 C1953 1.393 . S
C1950 H1942 0.950 . S
C1950 C1948 1.391 . S
C1950 C1951 1.400 . S
C1951 C1950 1.400 . S
C1951 C1952 1.398 . S
C1951 C1957 1.491 . S
C1952 H1943 0.950 . S
C1952 C1951 1.398 . S
C1952 C1953 1.391 . S
C1953 H1941 0.950 . S
C1953 C1949 1.393 . S
C1953 C1952 1.391 . S
C1954 H1944 0.950 . S
C1954 C1955 1.386 . S
C1954 C1956 1.391 . S
C1955 C1954 1.386 . S
C1955 C1959 1.393 . S
C1956 H1945 0.950 . S
C1956 C1954 1.391 . S
C1956 C1957 1.400 . S
C1957 C1951 1.491 . S
C1957 C1956 1.400 . S
C1957 C1958 1.398 . S
C1958 H1946 0.950 . S
C1958 C1957 1.398 . S
C1958 C1959 1.391 . S
C1959 H1947 0.950 . S
C1959 C1955 1.393 . S
C1959 C1958 1.391 . S
H1960 C1968 0.950 . S
H1961 C1973 0.950 . S
H1962 C1970 0.950 . S
H1963 C1972 0.950 . S
H1964 C1974 0.950 . S
H1965 C1976 0.950 . S
H1966 C1978 0.950 . S
H1967 C1979 0.950 . S
C1968 H1960 0.950 . S
C1968 C1969 1.386 . S
C1968 C1970 1.391 . S
C1969 C1968 1.386 . S
C1969 C1973 1.393 . S
C1970 H1962 0.950 . S
C1970 C1968 1.391 . S
C1970 C1971 1.400 . S
C1971 C1970 1.400 . S
C1971 C1972 1.398 . S
C1971 C1977 1.491 . S
C1972 H1963 0.950 . S
C1972 C1971 1.398 . S
C1972 C1973 1.391 . S
C1973 H1961 0.950 . S
C1973 C1969 1.393 . S
C1973 C1972 1.391 . S
C1974 H1964 0.950 . S
C1974 C1975 1.386 . S
C1974 C1976 1.391 . S
C1975 C1974 1.386 . S
C1975 C1979 1.393 . S
C1976 H1965 0.950 . S
C1976 C1974 1.391 . S
C1976 C1977 1.400 . S
C1977 C1971 1.491 . S
C1977 C1976 1.400 . S
C1977 C1978 1.398 . S
C1978 H1966 0.950 . S
C1978 C1977 1.398 . S
C1978 C1979 1.391 . S
C1979 H1967 0.950 . S
C1979 C1975 1.393 . S
C1979 C1978 1.391 . S
H1980 C1988 0.947 . S
H1981 C1993 0.950 . S
H1982 C1990 0.950 . S
H1983 C1992 0.950 . S
H1984 C1994 0.950 . S
H1985 C1996 0.950 . S
H1986 C1998 0.977 . S
H1987 C1999 0.950 . S
C1988 H1980 0.947 . S
C1988 C1989 1.394 . S
C1988 C1990 1.403 . S
C1989 C1988 1.394 . S
C1989 C1993 1.393 . S
C1990 H1982 0.950 . S
C1990 C1988 1.403 . S
C1990 C1991 1.400 . S
C1991 C1990 1.400 . S
C1991 C1992 1.398 . S
C1991 C1997 1.491 . S
C1992 H1983 0.950 . S
C1992 C1991 1.398 . S
C1992 C1993 1.391 . S
C1993 H1981 0.950 . S
C1993 C1989 1.393 . S
C1993 C1992 1.391 . S
C1994 H1984 0.950 . S
C1994 C1995 1.386 . S
C1994 C1996 1.391 . S
C1995 C1994 1.386 . S
C1995 C1999 1.393 . S
C1996 H1985 0.950 . S
C1996 C1994 1.391 . S
C1996 C1997 1.400 . S
C1997 C1991 1.491 . S
C1997 C1996 1.400 . S
C1997 C1998 1.398 . S
C1998 H1986 0.977 . S
C1998 C1997 1.398 . S
C1998 C1999 1.391 . S
C1999 H1987 0.950 . S
C1999 C1995 1.393 . S
C1999 C1998 1.391 . S
H2000 C2008 0.950 . S
H2001 C2013 0.950 . S
H2002 C2010 0.950 . S
H2003 C2012 0.950 . S
H2004 C2014 0.950 . S
H2005 C2016 0.950 . S
H2006 C2018 0.950 . S
H2007 C2019 0.950 . S
C2008 H2000 0.950 . S
C2008 C2009 1.325 1_554 S
C2008 C2010 1.391 . S
C2009 C2008 1.325 1_556 S
C2009 C2013 1.460 . S
C2010 H2002 0.950 . S
C2010 C2008 1.391 . S
C2010 C2011 1.400 1_554 S
C2011 C2010 1.400 1_556 S
C2011 C2012 1.398 . S
C2011 C2017 1.491 . S
C2012 H2003 0.950 . S
C2012 C2011 1.398 . S
C2012 C2013 1.391 . S
C2013 H2001 0.950 . S
C2013 C2009 1.460 . S
C2013 C2012 1.391 . S
C2014 H2004 0.950 . S
C2014 C2015 1.386 . S
C2014 C2016 1.391 . S
C2015 C2014 1.386 . S
C2015 C2019 1.393 1_556 S
C2016 H2005 0.950 . S
C2016 C2014 1.391 . S
C2016 C2017 1.400 . S
C2017 C2011 1.491 . S
C2017 C2016 1.400 . S
C2017 C2018 1.398 1_556 S
C2018 H2006 0.950 . S
C2018 C2017 1.398 1_554 S
C2018 C2019 1.391 . S
C2019 H2007 0.950 . S
C2019 C2015 1.393 1_554 S
C2019 C2018 1.391 . S
H2020 C2028 0.950 . S
H2021 C2033 0.950 . S
H2022 C2030 0.950 . S
H2023 C2032 0.950 . S
H2024 C2034 0.948 1_554 S
H2025 C2036 0.930 1_554 S
H2026 C2038 0.950 . S
H2027 C2039 0.950 . S
C2028 H2020 0.950 . S
C2028 C2029 1.405 . S
C2028 C2030 1.391 . S
C2029 C2028 1.405 . S
C2029 C2033 1.379 1_556 S
C2030 H2022 0.950 . S
C2030 C2028 1.391 . S
C2030 C2031 1.400 . S
C2031 C2030 1.400 . S
C2031 C2032 1.398 1_556 S
C2031 C2037 1.491 . S
C2032 H2023 0.950 . S
C2032 C2031 1.398 1_554 S
C2032 C2033 1.391 . S
C2033 H2021 0.950 . S
C2033 C2029 1.379 1_554 S
C2033 C2032 1.391 . S
C2034 H2024 0.948 1_556 S
C2034 C2035 1.386 . S
C2034 C2036 1.398 . S
C2035 C2034 1.386 . S
C2035 C2039 1.393 . S
C2036 H2025 0.930 1_556 S
C2036 C2034 1.398 . S
C2036 C2037 1.418 . S
C2037 C2031 1.491 . S
C2037 C2036 1.418 . S
C2037 C2038 1.398 . S
C2038 H2026 0.950 . S
C2038 C2037 1.398 . S
C2038 C2039 1.391 . S
C2039 H2027 0.950 . S
C2039 C2035 1.393 . S
C2039 C2038 1.391 . S
H2040 C2048 0.950 . S
H2041 C2053 0.950 . S
H2042 C2050 0.950 . S
H2043 C2052 0.950 . S
H2044 C2054 0.950 . S
H2045 C2056 0.950 . S
H2046 C2058 0.950 . S
H2047 C2059 0.950 . S
C2048 H2040 0.950 . S
C2048 C2049 1.386 . S
C2048 C2050 1.391 . S
C2049 C2048 1.386 . S
C2049 C2053 1.393 . S
C2050 H2042 0.950 . S
C2050 C2048 1.391 . S
C2050 C2051 1.400 . S
C2051 C2050 1.400 . S
C2051 C2052 1.398 . S
C2051 C2057 1.491 . S
C2052 H2043 0.950 . S
C2052 C2051 1.398 . S
C2052 C2053 1.391 . S
C2053 H2041 0.950 . S
C2053 C2049 1.393 . S
C2053 C2052 1.391 . S
C2054 H2044 0.950 . S
C2054 C2055 1.386 . S
C2054 C2056 1.391 . S
C2055 C2054 1.386 . S
C2055 C2059 1.393 . S
C2056 H2045 0.950 . S
C2056 C2054 1.391 . S
C2056 C2057 1.400 . S
C2057 C2051 1.491 . S
C2057 C2056 1.400 . S
C2057 C2058 1.398 . S
C2058 H2046 0.950 . S
C2058 C2057 1.398 . S
C2058 C2059 1.391 . S
C2059 H2047 0.950 . S
C2059 C2055 1.393 . S
C2059 C2058 1.391 . S
H2060 C2068 0.950 . S
H2061 C2073 0.950 . S
H2062 C2070 0.950 . S
H2063 C2072 0.950 . S
H2064 C2074 0.950 . S
H2065 C2076 0.950 . S
H2066 C2078 0.950 . S
H2067 C2079 0.950 . S
C2068 H2060 0.950 . S
C2068 C2069 1.386 . S
C2068 C2070 1.391 . S
C2069 C2068 1.386 . S
C2069 C2073 1.393 . S
C2070 H2062 0.950 . S
C2070 C2068 1.391 . S
C2070 C2071 1.400 . S
C2071 C2070 1.400 . S
C2071 C2072 1.398 . S
C2071 C2077 1.491 . S
C2072 H2063 0.950 . S
C2072 C2071 1.398 . S
C2072 C2073 1.391 . S
C2073 H2061 0.950 . S
C2073 C2069 1.393 . S
C2073 C2072 1.391 . S
C2074 H2064 0.950 . S
C2074 C2075 1.386 . S
C2074 C2076 1.391 . S
C2075 C2074 1.386 . S
C2075 C2079 1.393 . S
C2076 H2065 0.950 . S
C2076 C2074 1.391 . S
C2076 C2077 1.400 . S
C2077 C2071 1.491 . S
C2077 C2076 1.400 . S
C2077 C2078 1.398 . S
C2078 H2066 0.950 . S
C2078 C2077 1.398 . S
C2078 C2079 1.391 . S
C2079 H2067 0.950 . S
C2079 C2075 1.393 . S
C2079 C2078 1.391 . S
H2080 C2088 0.950 . S
H2081 C2093 0.950 . S
H2082 C2090 0.950 . S
H2083 C2092 0.950 . S
H2084 C2094 0.950 . S
H2085 C2096 0.950 . S
H2086 C2098 0.950 . S
H2087 C2099 0.950 . S
C2088 H2080 0.950 . S
C2088 C2089 1.386 . S
C2088 C2090 1.391 . S
C2089 C2088 1.386 . S
C2089 C2093 1.393 . S
C2090 H2082 0.950 . S
C2090 C2088 1.391 . S
C2090 C2091 1.400 . S
C2091 C2090 1.400 . S
C2091 C2092 1.398 . S
C2091 C2097 1.491 . S
C2092 H2083 0.950 . S
C2092 C2091 1.398 . S
C2092 C2093 1.391 . S
C2093 H2081 0.950 . S
C2093 C2089 1.393 . S
C2093 C2092 1.391 . S
C2094 H2084 0.950 . S
C2094 C2095 1.386 . S
C2094 C2096 1.391 . S
C2095 C2094 1.386 . S
C2095 C2099 1.393 . S
C2096 H2085 0.950 . S
C2096 C2094 1.391 . S
C2096 C2097 1.400 . S
C2097 C2091 1.491 . S
C2097 C2096 1.400 . S
C2097 C2098 1.398 . S
C2098 H2086 0.950 . S
C2098 C2097 1.398 . S
C2098 C2099 1.391 . S
C2099 H2087 0.950 . S
C2099 C2095 1.393 . S
C2099 C2098 1.391 . S
H2100 C2108 0.950 . S
H2101 C2113 0.950 . S
H2102 C2110 0.950 . S
H2103 C2112 0.950 . S
H2104 C2114 0.950 . S
H2105 C2116 0.950 . S
H2106 C2118 0.950 . S
H2107 C2119 0.950 . S
C2108 H2100 0.950 . S
C2108 C2109 1.386 . S
C2108 C2110 1.391 . S
C2109 C2108 1.386 . S
C2109 C2113 1.393 . S
C2110 H2102 0.950 . S
C2110 C2108 1.391 . S
C2110 C2111 1.400 . S
C2111 C2110 1.400 . S
C2111 C2112 1.398 . S
C2111 C2117 1.491 . S
C2112 H2103 0.950 . S
C2112 C2111 1.398 . S
C2112 C2113 1.391 . S
C2113 H2101 0.950 . S
C2113 C2109 1.393 . S
C2113 C2112 1.391 . S
C2114 H2104 0.950 . S
C2114 C2115 1.386 . S
C2114 C2116 1.391 . S
C2115 C2114 1.386 . S
C2115 C2119 1.393 . S
C2116 H2105 0.950 . S
C2116 C2114 1.391 . S
C2116 C2117 1.400 . S
C2117 C2111 1.491 . S
C2117 C2116 1.400 . S
C2117 C2118 1.398 . S
C2118 H2106 0.950 . S
C2118 C2117 1.398 . S
C2118 C2119 1.391 . S
C2119 H2107 0.950 . S
C2119 C2115 1.393 . S
C2119 C2118 1.391 . S
H2120 C2128 0.950 . S
H2121 C2133 0.950 . S
H2122 C2130 0.950 . S
H2123 C2132 0.950 . S
H2124 C2134 0.950 . S
H2125 C2136 0.950 . S
H2126 C2138 0.950 . S
H2127 C2139 0.950 . S
C2128 H2120 0.950 . S
C2128 C2129 1.386 . S
C2128 C2130 1.391 . S
C2129 C2128 1.386 . S
C2129 C2133 1.393 . S
C2130 H2122 0.950 . S
C2130 C2128 1.391 . S
C2130 C2131 1.400 . S
C2131 C2130 1.400 . S
C2131 C2132 1.398 . S
C2131 C2137 1.491 . S
C2132 H2123 0.950 . S
C2132 C2131 1.398 . S
C2132 C2133 1.391 . S
C2133 H2121 0.950 . S
C2133 C2129 1.393 . S
C2133 C2132 1.391 . S
C2134 H2124 0.950 . S
C2134 C2135 1.386 . S
C2134 C2136 1.391 . S
C2135 C2134 1.386 . S
C2135 C2139 1.393 . S
C2136 H2125 0.950 . S
C2136 C2134 1.391 . S
C2136 C2137 1.400 . S
C2137 C2131 1.491 . S
C2137 C2136 1.400 . S
C2137 C2138 1.398 . S
C2138 H2126 0.950 . S
C2138 C2137 1.398 . S
C2138 C2139 1.391 . S
C2139 H2127 0.950 . S
C2139 C2135 1.393 . S
C2139 C2138 1.391 . S
H2140 C2148 0.950 . S
H2141 C2153 0.950 . S
H2142 C2150 0.950 . S
H2143 C2152 0.950 . S
H2144 C2154 0.950 . S
H2145 C2156 0.950 . S
H2146 C2158 0.950 . S
H2147 C2159 0.950 . S
C2148 H2140 0.950 . S
C2148 C2149 1.386 . S
C2148 C2150 1.391 . S
C2149 C2148 1.386 . S
C2149 C2153 1.393 . S
C2150 H2142 0.950 . S
C2150 C2148 1.391 . S
C2150 C2151 1.400 . S
C2151 C2150 1.400 . S
C2151 C2152 1.398 . S
C2151 C2157 1.491 . S
C2152 H2143 0.950 . S
C2152 C2151 1.398 . S
C2152 C2153 1.391 . S
C2153 H2141 0.950 . S
C2153 C2149 1.393 . S
C2153 C2152 1.391 . S
C2154 H2144 0.950 . S
C2154 C2155 1.386 . S
C2154 C2156 1.391 . S
C2155 C2154 1.386 . S
C2155 C2159 1.393 . S
C2156 H2145 0.950 . S
C2156 C2154 1.391 . S
C2156 C2157 1.400 . S
C2157 C2151 1.491 . S
C2157 C2156 1.400 . S
C2157 C2158 1.398 . S
C2158 H2146 0.950 . S
C2158 C2157 1.398 . S
C2158 C2159 1.391 . S
C2159 H2147 0.950 . S
C2159 C2155 1.393 . S
C2159 C2158 1.391 . S
H2160 C2168 0.950 . S
H2161 C2173 0.950 . S
H2162 C2170 0.950 . S
H2163 C2172 0.950 . S
H2164 C2174 0.950 . S
H2165 C2176 0.950 . S
H2166 C2178 0.950 . S
H2167 C2179 0.950 . S
C2168 H2160 0.950 . S
C2168 C2169 1.386 . S
C2168 C2170 1.391 . S
C2169 C2168 1.386 . S
C2169 C2173 1.393 . S
C2170 H2162 0.950 . S
C2170 C2168 1.391 . S
C2170 C2171 1.400 . S
C2171 C2170 1.400 . S
C2171 C2172 1.398 . S
C2171 C2177 1.491 . S
C2172 H2163 0.950 . S
C2172 C2171 1.398 . S
C2172 C2173 1.391 . S
C2173 H2161 0.950 . S
C2173 C2169 1.393 . S
C2173 C2172 1.391 . S
C2174 H2164 0.950 . S
C2174 C2175 1.386 . S
C2174 C2176 1.391 . S
C2175 C2174 1.386 . S
C2175 C2179 1.393 . S
C2176 H2165 0.950 . S
C2176 C2174 1.391 . S
C2176 C2177 1.400 . S
C2177 C2171 1.491 . S
C2177 C2176 1.400 . S
C2177 C2178 1.398 . S
C2178 H2166 0.950 . S
C2178 C2177 1.398 . S
C2178 C2179 1.391 . S
C2179 H2167 0.950 . S
C2179 C2175 1.393 . S
C2179 C2178 1.391 . S
H2180 C2188 0.950 . S
H2181 C2193 0.950 . S
H2182 C2190 0.950 . S
H2183 C2192 0.946 . S
H2184 C2194 0.950 . S
H2185 C2196 0.950 . S
H2186 C2198 0.950 . S
H2187 C2199 0.950 . S
C2188 H2180 0.950 . S
C2188 C2189 1.386 1_565 S
C2188 C2190 1.391 . S
C2189 C2188 1.386 1_545 S
C2189 C2193 1.393 . S
C2190 H2182 0.950 . S
C2190 C2188 1.391 . S
C2190 C2191 1.400 . S
C2191 C2190 1.400 . S
C2191 C2192 1.372 1_565 S
C2191 C2197 1.491 . S
C2192 H2183 0.946 . S
C2192 C2191 1.372 1_545 S
C2192 C2193 1.422 . S
C2193 H2181 0.950 . S
C2193 C2189 1.393 . S
C2193 C2192 1.422 . S
C2194 H2184 0.950 . S
C2194 C2195 1.386 . S
C2194 C2196 1.391 . S
C2195 C2194 1.386 . S
C2195 C2199 1.393 . S
C2196 H2185 0.950 . S
C2196 C2194 1.391 . S
C2196 C2197 1.400 . S
C2197 C2191 1.491 . S
C2197 C2196 1.400 . S
C2197 C2198 1.398 . S
C2198 H2186 0.950 . S
C2198 C2197 1.398 . S
C2198 C2199 1.391 . S
C2199 H2187 0.950 . S
C2199 C2195 1.393 . S
C2199 C2198 1.391 . S
H2200 C2208 0.950 . S
H2201 C2213 0.950 . S
H2202 C2210 0.950 . S
H2203 C2212 0.950 . S
H2204 C2214 0.950 . S
H2205 C2216 0.950 . S
H2206 C2218 0.950 . S
H2207 C2219 0.950 . S
C2208 H2200 0.950 . S
C2208 C2209 1.386 . S
C2208 C2210 1.391 . S
C2209 C2208 1.386 . S
C2209 C2213 1.393 . S
C2210 H2202 0.950 . S
C2210 C2208 1.391 . S
C2210 C2211 1.400 . S
C2211 C2210 1.400 . S
C2211 C2212 1.398 . S
C2211 C2217 1.491 . S
C2212 H2203 0.950 . S
C2212 C2211 1.398 . S
C2212 C2213 1.391 . S
C2213 H2201 0.950 . S
C2213 C2209 1.393 . S
C2213 C2212 1.391 . S
C2214 H2204 0.950 . S
C2214 C2215 1.386 1_455 S
C2214 C2216 1.391 . S
C2215 C2214 1.386 1_655 S
C2215 C2219 1.393 . S
C2216 H2205 0.950 . S
C2216 C2214 1.391 . S
C2216 C2217 1.400 . S
C2217 C2211 1.491 . S
C2217 C2216 1.400 . S
C2217 C2218 1.398 1_455 S
C2218 H2206 0.950 . S
C2218 C2217 1.398 1_655 S
C2218 C2219 1.391 . S
C2219 H2207 0.950 . S
C2219 C2215 1.393 . S
C2219 C2218 1.391 . S
H2220 C2228 0.950 . S
H2221 C2233 0.950 . S
H2222 C2230 0.950 . S
H2223 C2232 0.950 . S
H2224 C2234 0.950 . S
H2225 C2236 0.950 . S
H2226 C2238 0.950 . S
H2227 C2239 0.950 . S
C2228 H2220 0.950 . S
C2228 C2229 1.386 . S
C2228 C2230 1.391 . S
C2229 C2228 1.386 . S
C2229 C2233 1.393 . S
C2230 H2222 0.950 . S
C2230 C2228 1.391 . S
C2230 C2231 1.400 . S
C2231 C2230 1.400 . S
C2231 C2232 1.398 . S
C2231 C2237 1.491 . S
C2232 H2223 0.950 . S
C2232 C2231 1.398 . S
C2232 C2233 1.391 . S
C2233 H2221 0.950 . S
C2233 C2229 1.393 . S
C2233 C2232 1.391 . S
C2234 H2224 0.950 . S
C2234 C2235 1.386 . S
C2234 C2236 1.391 . S
C2235 C2234 1.386 . S
C2235 C2239 1.393 . S
C2236 H2225 0.950 . S
C2236 C2234 1.391 . S
C2236 C2237 1.400 . S
C2237 C2231 1.491 . S
C2237 C2236 1.400 . S
C2237 C2238 1.398 . S
C2238 H2226 0.950 . S
C2238 C2237 1.398 . S
C2238 C2239 1.391 . S
C2239 H2227 0.950 . S
C2239 C2235 1.393 . S
C2239 C2238 1.391 . S
H2240 C2248 0.951 1_565 S
H2241 C2253 0.950 . S
H2242 C2250 0.950 . S
H2243 C2252 0.950 . S
H2244 C2254 0.950 . S
H2245 C2256 0.950 . S
H2246 C2258 0.950 . S
H2247 C2259 0.950 . S
C2248 H2240 0.951 1_545 S
C2248 C2249 1.386 1_545 S
C2248 C2250 1.391 . S
C2249 C2248 1.386 1_565 S
C2249 C2253 1.393 . S
C2250 H2242 0.950 . S
C2250 C2248 1.391 . S
C2250 C2251 1.400 . S
C2251 C2250 1.400 . S
C2251 C2252 1.398 . S
C2251 C2257 1.491 . S
C2252 H2243 0.950 . S
C2252 C2251 1.398 . S
C2252 C2253 1.391 1_545 S
C2253 H2241 0.950 . S
C2253 C2249 1.393 . S
C2253 C2252 1.391 1_565 S
C2254 H2244 0.950 . S
C2254 C2255 1.386 . S
C2254 C2256 1.391 . S
C2255 C2254 1.386 . S
C2255 C2259 1.393 . S
C2256 H2245 0.950 . S
C2256 C2254 1.391 . S
C2256 C2257 1.400 . S
C2257 C2251 1.491 . S
C2257 C2256 1.400 . S
C2257 C2258 1.398 . S
C2258 H2246 0.950 . S
C2258 C2257 1.398 . S
C2258 C2259 1.391 . S
C2259 H2247 0.950 . S
C2259 C2255 1.393 . S
C2259 C2258 1.391 . S
H2260 C2268 0.950 . S
H2261 C2273 0.950 . S
H2262 C2270 0.950 1_455 S
H2263 C2272 0.950 . S
H2264 C2274 0.950 . S
H2265 C2276 0.950 . S
H2266 C2278 0.950 . S
H2267 C2279 0.950 . S
C2268 H2260 0.950 . S
C2268 C2269 1.386 . S
C2268 C2270 1.391 . S
C2269 C2268 1.386 . S
C2269 C2273 1.393 . S
C2270 H2262 0.950 1_655 S
C2270 C2268 1.391 . S
C2270 C2271 1.400 . S
C2271 C2270 1.400 . S
C2271 C2272 1.398 . S
C2271 C2277 1.491 . S
C2272 H2263 0.950 . S
C2272 C2271 1.398 . S
C2272 C2273 1.391 . S
C2273 H2261 0.950 . S
C2273 C2269 1.393 . S
C2273 C2272 1.391 . S
C2274 H2264 0.950 . S
C2274 C2275 1.386 1_655 S
C2274 C2276 1.391 . S
C2275 C2274 1.386 1_455 S
C2275 C2279 1.393 . S
C2276 H2265 0.950 . S
C2276 C2274 1.391 . S
C2276 C2277 1.400 . S
C2277 C2271 1.491 . S
C2277 C2276 1.400 . S
C2277 C2278 1.398 1_655 S
C2278 H2266 0.950 . S
C2278 C2277 1.398 1_455 S
C2278 C2279 1.391 . S
C2279 H2267 0.950 . S
C2279 C2275 1.393 . S
C2279 C2278 1.391 . S
H2280 C2288 0.950 . S
H2281 C2293 0.950 . S
H2282 C2290 0.950 . S
H2283 C2292 0.950 . S
H2284 C2294 0.950 . S
H2285 C2296 0.950 . S
H2286 C2298 0.950 . S
H2287 C2299 0.950 . S
C2288 H2280 0.950 . S
C2288 C2289 1.386 . S
C2288 C2290 1.391 . S
C2289 C2288 1.386 . S
C2289 C2293 1.393 . S
C2290 H2282 0.950 . S
C2290 C2288 1.391 . S
C2290 C2291 1.400 . S
C2291 C2290 1.400 . S
C2291 C2292 1.398 . S
C2291 C2297 1.491 . S
C2292 H2283 0.950 . S
C2292 C2291 1.398 . S
C2292 C2293 1.391 . S
C2293 H2281 0.950 . S
C2293 C2289 1.393 . S
C2293 C2292 1.391 . S
C2294 H2284 0.950 . S
C2294 C2295 1.386 . S
C2294 C2296 1.391 . S
C2295 C2294 1.386 . S
C2295 C2299 1.393 . S
C2296 H2285 0.950 . S
C2296 C2294 1.391 . S
C2296 C2297 1.400 . S
C2297 C2291 1.491 . S
C2297 C2296 1.400 . S
C2297 C2298 1.398 . S
C2298 H2286 0.950 . S
C2298 C2297 1.398 . S
C2298 C2299 1.391 . S
C2299 H2287 0.950 . S
C2299 C2295 1.393 . S
C2299 C2298 1.391 . S
H2300 C2308 0.950 . S
H2301 C2313 0.950 . S
H2302 C2310 0.950 . S
H2303 C2312 0.950 . S
H2304 C2314 0.950 . S
H2305 C2316 0.950 . S
H2306 C2318 0.950 . S
H2307 C2319 0.950 . S
C2308 H2300 0.950 . S
C2308 C2309 1.386 . S
C2308 C2310 1.391 . S
C2309 C2308 1.386 . S
C2309 C2313 1.393 . S
C2310 H2302 0.950 . S
C2310 C2308 1.391 . S
C2310 C2311 1.400 . S
C2311 C2310 1.400 . S
C2311 C2312 1.398 . S
C2311 C2317 1.491 . S
C2312 H2303 0.950 . S
C2312 C2311 1.398 . S
C2312 C2313 1.391 . S
C2313 H2301 0.950 . S
C2313 C2309 1.393 . S
C2313 C2312 1.391 . S
C2314 H2304 0.950 . S
C2314 C2315 1.386 1_545 S
C2314 C2316 1.391 . S
C2315 C2314 1.386 1_565 S
C2315 C2319 1.393 . S
C2316 H2305 0.950 . S
C2316 C2314 1.391 . S
C2316 C2317 1.400 . S
C2317 C2311 1.491 . S
C2317 C2316 1.400 . S
C2317 C2318 1.398 1_545 S
C2318 H2306 0.950 . S
C2318 C2317 1.398 1_565 S
C2318 C2319 1.391 . S
C2319 H2307 0.950 . S
C2319 C2315 1.393 . S
C2319 C2318 1.391 . S
H2320 C2328 0.950 . S
H2321 C2333 0.950 . S
H2322 C2330 0.950 1_455 S
H2323 C2332 0.950 . S
H2324 C2334 0.950 . S
H2325 C2336 0.950 . S
H2326 C2338 0.950 . S
H2327 C2339 0.950 . S
C2328 H2320 0.950 . S
C2328 C2329 1.386 . S
C2328 C2330 1.391 . S
C2329 C2328 1.386 . S
C2329 C2333 1.393 . S
C2330 H2322 0.950 1_655 S
C2330 C2328 1.391 . S
C2330 C2331 1.400 . S
C2331 C2330 1.400 . S
C2331 C2332 1.398 . S
C2331 C2337 1.491 . S
C2332 H2323 0.950 . S
C2332 C2331 1.398 . S
C2332 C2333 1.391 . S
C2333 H2321 0.950 . S
C2333 C2329 1.393 . S
C2333 C2332 1.391 . S
C2334 H2324 0.950 . S
C2334 C2335 1.386 1_655 S
C2334 C2336 1.391 . S
C2335 C2334 1.386 1_455 S
C2335 C2339 1.393 . S
C2336 H2325 0.950 . S
C2336 C2334 1.391 . S
C2336 C2337 1.400 . S
C2337 C2331 1.491 . S
C2337 C2336 1.400 . S
C2337 C2338 1.398 1_655 S
C2338 H2326 0.950 . S
C2338 C2337 1.398 1_455 S
C2338 C2339 1.391 . S
C2339 H2327 0.950 . S
C2339 C2335 1.393 . S
C2339 C2338 1.391 . S
H2340 C2348 0.950 . S
H2341 C2353 0.950 . S
H2342 C2350 0.950 . S
H2343 C2352 0.950 . S
H2344 C2354 0.950 . S
H2345 C2356 0.950 . S
H2346 C2358 0.950 . S
H2347 C2359 0.950 . S
C2348 H2340 0.950 . S
C2348 C2349 1.386 . S
C2348 C2350 1.391 . S
C2349 C2348 1.386 . S
C2349 C2353 1.393 . S
C2350 H2342 0.950 . S
C2350 C2348 1.391 . S
C2350 C2351 1.400 . S
C2351 C2350 1.400 . S
C2351 C2352 1.398 . S
C2351 C2357 1.491 . S
C2352 H2343 0.950 . S
C2352 C2351 1.398 . S
C2352 C2353 1.391 . S
C2353 H2341 0.950 . S
C2353 C2349 1.393 . S
C2353 C2352 1.391 . S
C2354 H2344 0.950 . S
C2354 C2355 1.386 . S
C2354 C2356 1.391 . S
C2355 C2354 1.386 . S
C2355 C2359 1.393 . S
C2356 H2345 0.950 . S
C2356 C2354 1.391 . S
C2356 C2357 1.400 . S
C2357 C2351 1.491 . S
C2357 C2356 1.400 . S
C2357 C2358 1.398 . S
C2358 H2346 0.950 . S
C2358 C2357 1.398 . S
C2358 C2359 1.391 . S
C2359 H2347 0.950 . S
C2359 C2355 1.393 . S
C2359 C2358 1.391 . S
H2360 C2368 0.950 . S
H2361 C2373 0.950 . S
H2362 C2370 0.950 . S
H2363 C2372 0.950 . S
H2364 C2374 0.950 . S
H2365 C2376 0.950 . S
H2366 C2378 0.950 . S
H2367 C2379 0.950 . S
C2368 H2360 0.950 . S
C2368 C2369 1.386 1_565 S
C2368 C2370 1.391 . S
C2369 C2368 1.386 1_545 S
C2369 C2373 1.393 . S
C2370 H2362 0.950 . S
C2370 C2368 1.391 . S
C2370 C2371 1.400 . S
C2371 C2370 1.400 . S
C2371 C2372 1.398 1_565 S
C2371 C2377 1.491 . S
C2372 H2363 0.950 . S
C2372 C2371 1.398 1_545 S
C2372 C2373 1.391 . S
C2373 H2361 0.950 . S
C2373 C2369 1.393 . S
C2373 C2372 1.391 . S
C2374 H2364 0.950 . S
C2374 C2375 1.386 . S
C2374 C2376 1.391 . S
C2375 C2374 1.386 . S
C2375 C2379 1.393 . S
C2376 H2365 0.950 . S
C2376 C2374 1.391 . S
C2376 C2377 1.400 . S
C2377 C2371 1.491 . S
C2377 C2376 1.400 . S
C2377 C2378 1.398 . S
C2378 H2366 0.950 . S
C2378 C2377 1.398 . S
C2378 C2379 1.391 . S
C2379 H2367 0.950 . S
C2379 C2375 1.393 . S
C2379 C2378 1.391 . S
H2380 C2388 0.950 . S
H2381 C2393 0.950 . S
H2382 C2390 0.950 1_655 S
H2383 C2392 0.950 . S
H2384 C2394 0.950 . S
H2385 C2396 0.950 . S
H2386 C2398 0.950 . S
H2387 C2399 0.950 . S
C2388 H2380 0.950 . S
C2388 C2389 1.386 . S
C2388 C2390 1.391 1_655 S
C2389 C2388 1.386 . S
C2389 C2393 1.393 1_655 S
C2390 H2382 0.950 1_455 S
C2390 C2388 1.391 1_455 S
C2390 C2391 1.400 . S
C2391 C2390 1.400 . S
C2391 C2392 1.398 . S
C2391 C2397 1.491 . S
C2392 H2383 0.950 . S
C2392 C2391 1.398 . S
C2392 C2393 1.391 . S
C2393 H2381 0.950 . S
C2393 C2389 1.393 1_455 S
C2393 C2392 1.391 . S
C2394 H2384 0.950 . S
C2394 C2395 1.386 . S
C2394 C2396 1.391 . S
C2395 C2394 1.386 . S
C2395 C2399 1.393 . S
C2396 H2385 0.950 . S
C2396 C2394 1.391 . S
C2396 C2397 1.400 . S
C2397 C2391 1.491 . S
C2397 C2396 1.400 . S
C2397 C2398 1.398 . S
C2398 H2386 0.950 . S
C2398 C2397 1.398 . S
C2398 C2399 1.391 . S
C2399 H2387 0.950 . S
C2399 C2395 1.393 . S
C2399 C2398 1.391 . S
H2400 C2408 0.950 . S
H2401 C2413 0.950 . S
H2402 C2410 0.950 . S
H2403 C2412 0.983 . S
H2404 C2414 0.950 . S
H2405 C2416 0.950 . S
H2406 C2418 0.950 . S
H2407 C2419 0.950 . S
C2408 H2400 0.950 . S
C2408 C2409 1.386 . S
C2408 C2410 1.391 . S
C2409 C2408 1.386 . S
C2409 C2413 1.393 . S
C2410 H2402 0.950 . S
C2410 C2408 1.391 . S
C2410 C2411 1.400 1_655 S
C2411 C2410 1.400 1_455 S
C2411 C2412 1.398 1_455 S
C2411 C2417 1.491 . S
C2412 H2403 0.983 . S
C2412 C2411 1.398 1_655 S
C2412 C2413 1.391 . S
C2413 H2401 0.950 . S
C2413 C2409 1.393 . S
C2413 C2412 1.391 . S
C2414 H2404 0.950 . S
C2414 C2415 1.386 . S
C2414 C2416 1.391 . S
C2415 C2414 1.386 . S
C2415 C2419 1.393 . S
C2416 H2405 0.950 . S
C2416 C2414 1.391 . S
C2416 C2417 1.400 . S
C2417 C2411 1.491 . S
C2417 C2416 1.400 . S
C2417 C2418 1.398 . S
C2418 H2406 0.950 . S
C2418 C2417 1.398 . S
C2418 C2419 1.391 . S
C2419 H2407 0.950 . S
C2419 C2415 1.393 . S
C2419 C2418 1.391 . S
H2420 C2428 0.950 . S
H2421 C2433 0.950 . S
H2422 C2430 0.950 . S
H2423 C2432 0.950 . S
H2424 C2434 0.950 . S
H2425 C2436 0.950 . S
H2426 C2438 0.950 . S
H2427 C2439 0.950 . S
C2428 H2420 0.950 . S
C2428 C2429 1.386 . S
C2428 C2430 1.391 . S
C2429 C2428 1.386 . S
C2429 C2433 1.393 . S
C2430 H2422 0.950 . S
C2430 C2428 1.391 . S
C2430 C2431 1.400 . S
C2431 C2430 1.400 . S
C2431 C2432 1.398 . S
C2431 C2437 1.491 . S
C2432 H2423 0.950 . S
C2432 C2431 1.398 . S
C2432 C2433 1.391 . S
C2433 H2421 0.950 . S
C2433 C2429 1.393 . S
C2433 C2432 1.391 . S
C2434 H2424 0.950 . S
C2434 C2435 1.386 . S
C2434 C2436 1.391 . S
C2435 C2434 1.386 . S
C2435 C2439 1.393 . S
C2436 H2425 0.950 . S
C2436 C2434 1.391 . S
C2436 C2437 1.400 . S
C2437 C2431 1.491 . S
C2437 C2436 1.400 . S
C2437 C2438 1.398 . S
C2438 H2426 0.950 . S
C2438 C2437 1.398 . S
C2438 C2439 1.391 . S
C2439 H2427 0.950 . S
C2439 C2435 1.393 . S
C2439 C2438 1.391 . S
H2440 C2448 0.950 . S
H2441 C2453 0.950 . S
H2442 C2450 0.950 . S
H2443 C2452 0.950 . S
H2444 C2454 0.950 . S
H2445 C2456 0.948 1_565 S
H2446 C2458 0.950 . S
H2447 C2459 0.950 . S
C2448 H2440 0.950 . S
C2448 C2449 1.386 . S
C2448 C2450 1.391 . S
C2449 C2448 1.386 . S
C2449 C2453 1.393 . S
C2450 H2442 0.950 . S
C2450 C2448 1.391 . S
C2450 C2451 1.400 . S
C2451 C2450 1.400 . S
C2451 C2452 1.398 . S
C2451 C2457 1.491 . S
C2452 H2443 0.950 . S
C2452 C2451 1.398 . S
C2452 C2453 1.391 . S
C2453 H2441 0.950 . S
C2453 C2449 1.393 . S
C2453 C2452 1.391 . S
C2454 H2444 0.950 . S
C2454 C2455 1.386 . S
C2454 C2456 1.391 . S
C2455 C2454 1.386 . S
C2455 C2459 1.393 . S
C2456 H2445 0.948 1_545 S
C2456 C2454 1.391 . S
C2456 C2457 1.400 1_545 S
C2457 C2451 1.491 . S
C2457 C2456 1.400 1_565 S
C2457 C2458 1.398 1_565 S
C2458 H2446 0.950 . S
C2458 C2457 1.398 1_545 S
C2458 C2459 1.391 . S
C2459 H2447 0.950 . S
C2459 C2455 1.393 . S
C2459 C2458 1.391 . S
H2460 C2468 0.950 . S
H2461 C2473 0.950 . S
H2462 C2470 0.950 . S
H2463 C2472 0.950 . S
H2464 C2474 0.950 . S
H2465 C2476 0.950 . S
H2466 C2478 0.950 . S
H2467 C2479 0.950 . S
C2468 H2460 0.950 . S
C2468 C2469 1.386 . S
C2468 C2470 1.391 . S
C2469 C2468 1.386 . S
C2469 C2473 1.393 . S
C2470 H2462 0.950 . S
C2470 C2468 1.391 . S
C2470 C2471 1.400 . S
C2471 C2470 1.400 . S
C2471 C2472 1.398 . S
C2471 C2477 1.491 . S
C2472 H2463 0.950 . S
C2472 C2471 1.398 . S
C2472 C2473 1.391 . S
C2473 H2461 0.950 . S
C2473 C2469 1.393 . S
C2473 C2472 1.391 . S
C2474 H2464 0.950 . S
C2474 C2475 1.386 . S
C2474 C2476 1.391 1_655 S
C2475 C2474 1.386 . S
C2475 C2479 1.393 1_655 S
C2476 H2465 0.950 . S
C2476 C2474 1.391 1_455 S
C2476 C2477 1.400 . S
C2477 C2471 1.491 . S
C2477 C2476 1.400 . S
C2477 C2478 1.398 . S
C2478 H2466 0.950 . S
C2478 C2477 1.398 . S
C2478 C2479 1.391 . S
C2479 H2467 0.950 . S
C2479 C2475 1.393 1_455 S
C2479 C2478 1.391 . S
H2480 C2488 0.950 . S
H2481 C2493 0.950 . S
H2482 C2490 0.950 . S
H2483 C2492 0.950 . S
H2484 C2494 0.950 . S
H2485 C2496 0.950 . S
H2486 C2498 0.950 . S
H2487 C2499 0.950 . S
C2488 H2480 0.950 . S
C2488 C2489 1.386 . S
C2488 C2490 1.391 . S
C2489 C2488 1.386 . S
C2489 C2493 1.393 . S
C2490 H2482 0.950 . S
C2490 C2488 1.391 . S
C2490 C2491 1.400 . S
C2491 C2490 1.400 . S
C2491 C2492 1.398 . S
C2491 C2497 1.491 . S
C2492 H2483 0.950 . S
C2492 C2491 1.398 . S
C2492 C2493 1.391 . S
C2493 H2481 0.950 . S
C2493 C2489 1.393 . S
C2493 C2492 1.391 . S
C2494 H2484 0.950 . S
C2494 C2495 1.386 . S
C2494 C2496 1.391 . S
C2495 C2494 1.386 . S
C2495 C2499 1.393 . S
C2496 H2485 0.950 . S
C2496 C2494 1.391 . S
C2496 C2497 1.400 . S
C2497 C2491 1.491 . S
C2497 C2496 1.400 . S
C2497 C2498 1.398 . S
C2498 H2486 0.950 . S
C2498 C2497 1.398 . S
C2498 C2499 1.391 . S
C2499 H2487 0.950 . S
C2499 C2495 1.393 . S
C2499 C2498 1.391 . S
H2500 C2508 0.950 . S
H2501 C2513 0.950 . S
H2502 C2510 0.950 . S
H2503 C2512 0.950 . S
H2504 C2514 0.950 . S
H2505 C2516 0.950 . S
H2506 C2518 0.950 . S
H2507 C2519 0.950 . S
C2508 H2500 0.950 . S
C2508 C2509 1.386 . S
C2508 C2510 1.391 . S
C2509 C2508 1.386 . S
C2509 C2513 1.393 . S
C2510 H2502 0.950 . S
C2510 C2508 1.391 . S
C2510 C2511 1.400 . S
C2511 C2510 1.400 . S
C2511 C2512 1.398 . S
C2511 C2517 1.491 . S
C2512 H2503 0.950 . S
C2512 C2511 1.398 . S
C2512 C2513 1.391 . S
C2513 H2501 0.950 . S
C2513 C2509 1.393 . S
C2513 C2512 1.391 . S
C2514 H2504 0.950 . S
C2514 C2515 1.386 . S
C2514 C2516 1.391 1_545 S
C2515 C2514 1.386 . S
C2515 C2519 1.393 1_545 S
C2516 H2505 0.950 . S
C2516 C2514 1.391 1_565 S
C2516 C2517 1.400 . S
C2517 C2511 1.491 . S
C2517 C2516 1.400 . S
C2517 C2518 1.398 . S
C2518 H2506 0.950 . S
C2518 C2517 1.398 . S
C2518 C2519 1.391 . S
C2519 H2507 0.950 . S
C2519 C2515 1.393 1_565 S
C2519 C2518 1.391 . S
H2520 C2528 0.950 . S
H2521 C2533 0.950 . S
H2522 C2530 0.950 . S
H2523 C2532 0.950 . S
H2524 C2534 0.950 . S
H2525 C2536 0.950 1_545 S
H2526 C2538 0.950 . S
H2527 C2539 0.950 . S
C2528 H2520 0.950 . S
C2528 C2529 1.386 . S
C2528 C2530 1.391 . S
C2529 C2528 1.386 . S
C2529 C2533 1.393 . S
C2530 H2522 0.950 . S
C2530 C2528 1.391 . S
C2530 C2531 1.400 . S
C2531 C2530 1.400 . S
C2531 C2532 1.398 . S
C2531 C2537 1.491 . S
C2532 H2523 0.950 . S
C2532 C2531 1.398 . S
C2532 C2533 1.391 . S
C2533 H2521 0.950 . S
C2533 C2529 1.393 . S
C2533 C2532 1.391 . S
C2534 H2524 0.950 . S
C2534 C2535 1.386 . S
C2534 C2536 1.391 1_545 S
C2535 C2534 1.386 . S
C2535 C2539 1.393 1_545 S
C2536 H2525 0.950 1_565 S
C2536 C2534 1.391 1_565 S
C2536 C2537 1.400 . S
C2537 C2531 1.491 . S
C2537 C2536 1.400 . S
C2537 C2538 1.398 . S
C2538 H2526 0.950 . S
C2538 C2537 1.398 . S
C2538 C2539 1.391 . S
C2539 H2527 0.950 . S
C2539 C2535 1.393 1_565 S
C2539 C2538 1.391 . S
H2540 C2548 0.950 . S
H2541 C2553 0.950 . S
H2542 C2550 0.950 . S
H2543 C2552 0.950 1_655 S
H2544 C2554 0.950 . S
H2545 C2556 0.950 . S
H2546 C2558 0.950 . S
H2547 C2559 0.950 . S
C2548 H2540 0.950 . S
C2548 C2549 1.386 1_455 S
C2548 C2550 1.391 . S
C2549 C2548 1.386 1_655 S
C2549 C2553 1.393 . S
C2550 H2542 0.950 . S
C2550 C2548 1.391 . S
C2550 C2551 1.400 . S
C2551 C2550 1.400 . S
C2551 C2552 1.398 . S
C2551 C2557 1.491 . S
C2552 H2543 0.950 1_455 S
C2552 C2551 1.398 . S
C2552 C2553 1.391 1_455 S
C2553 H2541 0.950 . S
C2553 C2549 1.393 . S
C2553 C2552 1.391 1_655 S
C2554 H2544 0.950 . S
C2554 C2555 1.386 . S
C2554 C2556 1.391 . S
C2555 C2554 1.386 . S
C2555 C2559 1.393 . S
C2556 H2545 0.950 . S
C2556 C2554 1.391 . S
C2556 C2557 1.400 . S
C2557 C2551 1.491 . S
C2557 C2556 1.400 . S
C2557 C2558 1.398 . S
C2558 H2546 0.950 . S
C2558 C2557 1.398 . S
C2558 C2559 1.391 . S
C2559 H2547 0.950 . S
C2559 C2555 1.393 . S
C2559 C2558 1.391 . S
H2560 C2568 0.950 . S
H2561 C2573 0.950 . S
H2562 C2570 0.950 . S
H2563 C2572 0.950 . S
H2564 C2574 0.950 . S
H2565 C2576 0.950 . S
H2566 C2578 0.950 . S
H2567 C2579 0.950 . S
C2568 H2560 0.950 . S
C2568 C2569 1.386 . S
C2568 C2570 1.391 . S
C2569 C2568 1.386 . S
C2569 C2573 1.393 . S
C2570 H2562 0.950 . S
C2570 C2568 1.391 . S
C2570 C2571 1.400 . S
C2571 C2570 1.400 . S
C2571 C2572 1.398 . S
C2571 C2577 1.491 . S
C2572 H2563 0.950 . S
C2572 C2571 1.398 . S
C2572 C2573 1.391 . S
C2573 H2561 0.950 . S
C2573 C2569 1.393 . S
C2573 C2572 1.391 . S
C2574 H2564 0.950 . S
C2574 C2575 1.386 . S
C2574 C2576 1.391 . S
C2575 C2574 1.386 . S
C2575 C2579 1.393 . S
C2576 H2565 0.950 . S
C2576 C2574 1.391 . S
C2576 C2577 1.400 . S
C2577 C2571 1.491 . S
C2577 C2576 1.400 . S
C2577 C2578 1.398 . S
C2578 H2566 0.950 . S
C2578 C2577 1.398 . S
C2578 C2579 1.391 . S
C2579 H2567 0.950 . S
C2579 C2575 1.393 . S
C2579 C2578 1.391 . S
H2580 C2588 0.972 . S
H2581 C2593 0.950 . S
H2582 C2590 0.944 . S
H2583 C2592 0.950 . S
H2584 C2594 0.950 . S
H2585 C2596 0.950 . S
H2586 C2598 0.926 1_554 S
H2587 C2599 0.961 . S
C2588 H2580 0.972 . S
C2588 C2589 1.378 1_554 S
C2588 C2590 1.388 . S
C2589 C2588 1.378 1_556 S
C2589 C2593 1.395 . S
C2590 H2582 0.944 . S
C2590 C2588 1.388 . S
C2590 C2591 1.398 1_554 S
C2591 C2590 1.398 1_556 S
C2591 C2592 1.398 . S
C2591 C2597 1.491 1_565 S
C2592 H2583 0.950 . S
C2592 C2591 1.398 . S
C2592 C2593 1.391 . S
C2593 H2581 0.950 . S
C2593 C2589 1.395 . S
C2593 C2592 1.391 . S
C2594 H2584 0.950 . S
C2594 C2595 1.386 . S
C2594 C2596 1.391 . S
C2595 C2594 1.386 . S
C2595 C2599 1.393 . S
C2596 H2585 0.950 . S
C2596 C2594 1.391 . S
C2596 C2597 1.400 . S
C2597 C2591 1.491 1_545 S
C2597 C2596 1.400 . S
C2597 C2598 1.410 . S
C2598 H2586 0.926 1_556 S
C2598 C2597 1.410 . S
C2598 C2599 1.398 . S
C2599 H2587 0.961 . S
C2599 C2595 1.393 . S
C2599 C2598 1.398 . S
H2600 C2608 0.950 . S
H2601 C2613 0.950 . S
H2602 C2610 0.950 . S
H2603 C2612 0.950 . S
H2604 C2614 0.950 . S
H2605 C2616 0.950 . S
H2606 C2618 0.950 . S
H2607 C2619 0.950 . S
C2608 H2600 0.950 . S
C2608 C2609 1.395 . S
C2608 C2610 1.391 . S
C2609 C2608 1.395 . S
C2609 C2613 1.382 1_554 S
C2610 H2602 0.950 . S
C2610 C2608 1.391 . S
C2610 C2611 1.400 1_554 S
C2611 C2610 1.400 1_556 S
C2611 C2612 1.398 . S
C2611 C2617 1.491 1_455 S
C2612 H2603 0.950 . S
C2612 C2611 1.398 . S
C2612 C2613 1.391 . S
C2613 H2601 0.950 . S
C2613 C2609 1.382 1_556 S
C2613 C2612 1.391 . S
C2614 H2604 0.950 . S
C2614 C2615 1.386 . S
C2614 C2616 1.391 . S
C2615 C2614 1.386 . S
C2615 C2619 1.393 1_556 S
C2616 H2605 0.950 . S
C2616 C2614 1.391 . S
C2616 C2617 1.400 . S
C2617 C2611 1.491 1_655 S
C2617 C2616 1.400 . S
C2617 C2618 1.398 1_556 S
C2618 H2606 0.950 . S
C2618 C2617 1.398 1_554 S
C2618 C2619 1.391 . S
C2619 H2607 0.950 . S
C2619 C2615 1.393 1_554 S
C2619 C2618 1.391 . S
H2620 C2628 1.017 . S
H2621 C2633 0.950 . S
H2622 C2630 0.950 . S
H2623 C2632 0.950 . S
H2624 C2634 0.950 . S
H2625 C2636 0.950 . S
H2626 C2638 0.950 . S
H2627 C2639 0.950 . S
C2628 H2620 1.017 . S
C2628 C2629 1.323 1_554 S
C2628 C2630 1.408 . S
C2629 C2628 1.323 1_556 S
C2629 C2633 1.393 . S
C2630 H2622 0.950 . S
C2630 C2628 1.408 . S
C2630 C2631 1.400 1_554 S
C2631 C2630 1.400 1_556 S
C2631 C2632 1.398 . S
C2631 C2637 1.491 . S
C2632 H2623 0.950 . S
C2632 C2631 1.398 . S
C2632 C2633 1.391 . S
C2633 H2621 0.950 . S
C2633 C2629 1.393 . S
C2633 C2632 1.391 . S
C2634 H2624 0.950 . S
C2634 C2635 1.402 . S
C2634 C2636 1.391 . S
C2635 C2634 1.402 . S
C2635 C2639 1.380 1_556 S
C2636 H2625 0.950 . S
C2636 C2634 1.391 . S
C2636 C2637 1.400 . S
C2637 C2631 1.491 . S
C2637 C2636 1.400 . S
C2637 C2638 1.398 1_556 S
C2638 H2626 0.950 . S
C2638 C2637 1.398 1_554 S
C2638 C2639 1.391 . S
C2639 H2627 0.950 . S
C2639 C2635 1.380 1_554 S
C2639 C2638 1.391 . S
H2640 C2648 0.950 . S
H2641 C2653 0.950 . S
H2642 C2650 0.950 . S
H2643 C2652 0.950 . S
H2644 C2654 0.950 . S
H2645 C2656 0.950 . S
H2646 C2658 0.950 . S
H2647 C2659 0.950 . S
C2648 H2640 0.950 . S
C2648 C2649 1.386 . S
C2648 C2650 1.391 . S
C2649 C2648 1.386 . S
C2649 C2653 1.393 . S
C2650 H2642 0.950 . S
C2650 C2648 1.391 . S
C2650 C2651 1.400 . S
C2651 C2650 1.400 . S
C2651 C2652 1.398 . S
C2651 C2657 1.491 . S
C2652 H2643 0.950 . S
C2652 C2651 1.398 . S
C2652 C2653 1.391 . S
C2653 H2641 0.950 . S
C2653 C2649 1.393 . S
C2653 C2652 1.391 . S
C2654 H2644 0.950 . S
C2654 C2655 1.386 . S
C2654 C2656 1.391 1_565 S
C2655 C2654 1.386 . S
C2655 C2659 1.393 1_565 S
C2656 H2645 0.950 . S
C2656 C2654 1.391 1_545 S
C2656 C2657 1.400 . S
C2657 C2651 1.491 . S
C2657 C2656 1.400 . S
C2657 C2658 1.398 . S
C2658 H2646 0.950 . S
C2658 C2657 1.398 . S
C2658 C2659 1.391 . S
C2659 H2647 0.950 . S
C2659 C2655 1.393 1_545 S
C2659 C2658 1.391 . S
H2660 C2668 0.950 . S
H2661 C2673 0.950 . S
H2662 C2670 0.950 . S
H2663 C2672 0.950 . S
H2664 C2674 0.950 . S
H2665 C2676 0.950 1_455 S
H2666 C2678 0.950 . S
H2667 C2679 0.950 . S
C2668 H2660 0.950 . S
C2668 C2669 1.386 . S
C2668 C2670 1.391 . S
C2669 C2668 1.386 . S
C2669 C2673 1.393 . S
C2670 H2662 0.950 . S
C2670 C2668 1.391 . S
C2670 C2671 1.400 . S
C2671 C2670 1.400 . S
C2671 C2672 1.398 . S
C2671 C2677 1.491 . S
C2672 H2663 0.950 . S
C2672 C2671 1.398 . S
C2672 C2673 1.391 . S
C2673 H2661 0.950 . S
C2673 C2669 1.393 . S
C2673 C2672 1.391 . S
C2674 H2664 0.950 . S
C2674 C2675 1.386 . S
C2674 C2676 1.391 1_455 S
C2675 C2674 1.386 . S
C2675 C2679 1.393 1_455 S
C2676 H2665 0.950 1_655 S
C2676 C2674 1.391 1_655 S
C2676 C2677 1.400 . S
C2677 C2671 1.491 . S
C2677 C2676 1.400 . S
C2677 C2678 1.398 . S
C2678 H2666 0.950 . S
C2678 C2677 1.398 . S
C2678 C2679 1.391 . S
C2679 H2667 0.950 . S
C2679 C2675 1.393 1_655 S
C2679 C2678 1.391 . S
H2680 C2688 0.950 . S
H2681 C2693 0.950 . S
H2682 C2690 0.950 . S
H2683 C2692 0.950 . S
H2684 C2694 0.950 . S
H2685 C2696 0.950 . S
H2686 C2698 0.950 . S
H2687 C2699 0.950 . S
C2688 H2680 0.950 . S
C2688 C2689 1.386 . S
C2688 C2690 1.391 . S
C2689 C2688 1.386 . S
C2689 C2693 1.393 . S
C2690 H2682 0.950 . S
C2690 C2688 1.391 . S
C2690 C2691 1.400 . S
C2691 C2690 1.400 . S
C2691 C2692 1.398 . S
C2691 C2697 1.491 . S
C2692 H2683 0.950 . S
C2692 C2691 1.398 . S
C2692 C2693 1.391 . S
C2693 H2681 0.950 . S
C2693 C2689 1.393 . S
C2693 C2692 1.391 . S
C2694 H2684 0.950 . S
C2694 C2695 1.386 . S
C2694 C2696 1.391 . S
C2695 C2694 1.386 . S
C2695 C2699 1.393 . S
C2696 H2685 0.950 . S
C2696 C2694 1.391 . S
C2696 C2697 1.400 . S
C2697 C2691 1.491 . S
C2697 C2696 1.400 . S
C2697 C2698 1.398 . S
C2698 H2686 0.950 . S
C2698 C2697 1.398 . S
C2698 C2699 1.391 . S
C2699 H2687 0.950 . S
C2699 C2695 1.393 . S
C2699 C2698 1.391 . S
H2700 C2708 0.947 1_556 S
H2701 C2713 0.950 . S
H2702 C2710 0.938 1_556 S
H2703 C2712 0.950 . S
H2704 C2714 0.950 . S
H2705 C2716 0.950 . S
H2706 C2718 0.950 . S
H2707 C2719 0.950 . S
C2708 H2700 0.947 1_554 S
C2708 C2709 1.386 . S
C2708 C2710 1.395 . S
C2709 C2708 1.386 . S
C2709 C2713 1.393 . S
C2710 H2702 0.938 1_554 S
C2710 C2708 1.395 . S
C2710 C2711 1.410 . S
C2711 C2710 1.410 . S
C2711 C2712 1.398 . S
C2711 C2717 1.491 1_565 S
C2712 H2703 0.950 . S
C2712 C2711 1.398 . S
C2712 C2713 1.391 . S
C2713 H2701 0.950 . S
C2713 C2709 1.393 . S
C2713 C2712 1.391 . S
C2714 H2704 0.950 . S
C2714 C2715 1.380 1_554 S
C2714 C2716 1.391 . S
C2715 C2714 1.380 1_556 S
C2715 C2719 1.398 . S
C2716 H2705 0.950 . S
C2716 C2714 1.391 . S
C2716 C2717 1.400 . S
C2717 C2711 1.491 1_545 S
C2717 C2716 1.400 . S
C2717 C2718 1.398 1_554 S
C2718 H2706 0.950 . S
C2718 C2717 1.398 1_556 S
C2718 C2719 1.391 . S
C2719 H2707 0.950 . S
C2719 C2715 1.398 . S
C2719 C2718 1.391 . S
H2720 C2728 0.950 . S
H2721 C2733 0.950 . S
H2722 C2730 0.950 . S
H2723 C2732 0.950 . S
H2724 C2734 0.950 . S
H2725 C2736 0.950 . S
H2726 C2738 0.950 . S
H2727 C2739 0.950 . S
C2728 H2720 0.950 . S
C2728 C2729 1.377 . S
C2728 C2730 1.391 . S
C2729 C2728 1.377 . S
C2729 C2733 1.400 1_554 S
C2730 H2722 0.950 . S
C2730 C2728 1.391 . S
C2730 C2731 1.400 . S
C2731 C2730 1.400 . S
C2731 C2732 1.398 1_554 S
C2731 C2737 1.491 1_655 S
C2732 H2723 0.950 . S
C2732 C2731 1.398 1_556 S
C2732 C2733 1.391 . S
C2733 H2721 0.950 . S
C2733 C2729 1.400 1_556 S
C2733 C2732 1.391 . S
C2734 H2724 0.950 . S
C2734 C2735 1.386 1_556 S
C2734 C2736 1.391 . S
C2735 C2734 1.386 1_554 S
C2735 C2739 1.393 . S
C2736 H2725 0.950 . S
C2736 C2734 1.391 . S
C2736 C2737 1.400 1_556 S
C2737 C2731 1.491 1_455 S
C2737 C2736 1.400 1_554 S
C2737 C2738 1.398 . S
C2738 H2726 0.950 . S
C2738 C2737 1.398 . S
C2738 C2739 1.391 . S
C2739 H2727 0.950 . S
C2739 C2735 1.393 . S
C2739 C2738 1.391 . S
H2740 C2748 0.950 . S
H2741 C2753 0.950 . S
H2742 C2750 0.950 . S
H2743 C2752 0.950 . S
H2744 C2754 0.950 . S
H2745 C2756 0.950 . S
H2746 C2758 0.950 . S
H2747 C2759 0.950 . S
C2748 H2740 0.950 . S
C2748 C2749 1.386 . S
C2748 C2750 1.391 . S
C2749 C2748 1.386 . S
C2749 C2753 1.393 1_554 S
C2750 H2742 0.950 . S
C2750 C2748 1.391 . S
C2750 C2751 1.400 . S
C2751 C2750 1.400 . S
C2751 C2752 1.398 1_554 S
C2751 C2757 1.491 . S
C2752 H2743 0.950 . S
C2752 C2751 1.398 1_556 S
C2752 C2753 1.391 . S
C2753 H2741 0.950 . S
C2753 C2749 1.393 1_556 S
C2753 C2752 1.391 . S
C2754 H2744 0.950 . S
C2754 C2755 1.388 . S
C2754 C2756 1.391 . S
C2755 C2754 1.388 . S
C2755 C2759 1.390 1_556 S
C2756 H2745 0.950 . S
C2756 C2754 1.391 . S
C2756 C2757 1.400 1_556 S
C2757 C2751 1.491 . S
C2757 C2756 1.400 1_554 S
C2757 C2758 1.398 . S
C2758 H2746 0.950 . S
C2758 C2757 1.398 . S
C2758 C2759 1.391 . S
C2759 H2747 0.950 . S
C2759 C2755 1.390 1_554 S
C2759 C2758 1.391 . S
H2760 C2768 0.950 . S
H2761 C2773 0.950 . S
H2762 C2770 0.950 . S
H2763 C2772 0.952 1_655 S
H2764 C2774 0.950 . S
H2765 C2776 0.950 . S
H2766 C2778 0.950 . S
H2767 C2779 0.950 . S
C2768 H2760 0.950 . S
C2768 C2769 1.386 . S
C2768 C2770 1.391 . S
C2769 C2768 1.386 . S
C2769 C2773 1.393 . S
C2770 H2762 0.950 . S
C2770 C2768 1.391 . S
C2770 C2771 1.400 1_455 S
C2771 C2770 1.400 1_655 S
C2771 C2772 1.398 1_655 S
C2771 C2777 1.491 . S
C2772 H2763 0.952 1_455 S
C2772 C2771 1.398 1_455 S
C2772 C2773 1.391 . S
C2773 H2761 0.950 . S
C2773 C2769 1.393 . S
C2773 C2772 1.391 . S
C2774 H2764 0.950 . S
C2774 C2775 1.386 . S
C2774 C2776 1.391 . S
C2775 C2774 1.386 . S
C2775 C2779 1.393 . S
C2776 H2765 0.950 . S
C2776 C2774 1.391 . S
C2776 C2777 1.400 . S
C2777 C2771 1.491 . S
C2777 C2776 1.400 . S
C2777 C2778 1.398 . S
C2778 H2766 0.950 . S
C2778 C2777 1.398 . S
C2778 C2779 1.391 . S
C2779 H2767 0.950 . S
C2779 C2775 1.393 . S
C2779 C2778 1.391 . S
H2780 C2788 0.950 . S
H2781 C2793 0.950 . S
H2782 C2790 0.950 . S
H2783 C2792 0.950 . S
H2784 C2794 0.950 . S
H2785 C2796 0.950 . S
H2786 C2798 0.950 . S
H2787 C2799 0.950 . S
C2788 H2780 0.950 . S
C2788 C2789 1.386 . S
C2788 C2790 1.391 . S
C2789 C2788 1.386 . S
C2789 C2793 1.393 . S
C2790 H2782 0.950 . S
C2790 C2788 1.391 . S
C2790 C2791 1.400 . S
C2791 C2790 1.400 . S
C2791 C2792 1.398 . S
C2791 C2797 1.491 . S
C2792 H2783 0.950 . S
C2792 C2791 1.398 . S
C2792 C2793 1.391 . S
C2793 H2781 0.950 . S
C2793 C2789 1.393 . S
C2793 C2792 1.391 . S
C2794 H2784 0.950 . S
C2794 C2795 1.386 . S
C2794 C2796 1.391 . S
C2795 C2794 1.386 . S
C2795 C2799 1.393 . S
C2796 H2785 0.950 . S
C2796 C2794 1.391 . S
C2796 C2797 1.400 . S
C2797 C2791 1.491 . S
C2797 C2796 1.400 . S
C2797 C2798 1.398 . S
C2798 H2786 0.950 . S
C2798 C2797 1.398 . S
C2798 C2799 1.391 . S
C2799 H2787 0.950 . S
C2799 C2795 1.393 . S
C2799 C2798 1.391 . S
H2800 C2808 0.950 . S
H2801 C2813 0.950 . S
H2802 C2810 0.950 . S
H2803 C2812 0.950 1_545 S
H2804 C2814 0.950 . S
H2805 C2816 0.950 . S
H2806 C2818 0.950 . S
H2807 C2819 0.950 . S
C2808 H2800 0.950 . S
C2808 C2809 1.386 . S
C2808 C2810 1.391 . S
C2809 C2808 1.386 . S
C2809 C2813 1.393 . S
C2810 H2802 0.950 . S
C2810 C2808 1.391 . S
C2810 C2811 1.400 1_565 S
C2811 C2810 1.400 1_545 S
C2811 C2812 1.398 1_545 S
C2811 C2817 1.491 . S
C2812 H2803 0.950 1_565 S
C2812 C2811 1.398 1_565 S
C2812 C2813 1.391 . S
C2813 H2801 0.950 . S
C2813 C2809 1.393 . S
C2813 C2812 1.391 . S
C2814 H2804 0.950 . S
C2814 C2815 1.386 . S
C2814 C2816 1.391 . S
C2815 C2814 1.386 . S
C2815 C2819 1.393 . S
C2816 H2805 0.950 . S
C2816 C2814 1.391 . S
C2816 C2817 1.400 . S
C2817 C2811 1.491 . S
C2817 C2816 1.400 . S
C2817 C2818 1.398 . S
C2818 H2806 0.950 . S
C2818 C2817 1.398 . S
C2818 C2819 1.391 . S
C2819 H2807 0.950 . S
C2819 C2815 1.393 . S
C2819 C2818 1.391 . S
H2820 C2828 0.950 . S
H2821 C2833 0.950 . S
H2822 C2830 0.950 1_455 S
H2823 C2832 0.950 . S
H2824 C2834 0.950 . S
H2825 C2836 0.950 . S
H2826 C2838 0.950 . S
H2827 C2839 0.950 . S
C2828 H2820 0.950 . S
C2828 C2829 1.386 . S
C2828 C2830 1.391 1_455 S
C2829 C2828 1.386 . S
C2829 C2833 1.393 1_455 S
C2830 H2822 0.950 1_655 S
C2830 C2828 1.391 1_655 S
C2830 C2831 1.400 . S
C2831 C2830 1.400 . S
C2831 C2832 1.398 . S
C2831 C2837 1.491 . S
C2832 H2823 0.950 . S
C2832 C2831 1.398 . S
C2832 C2833 1.391 . S
C2833 H2821 0.950 . S
C2833 C2829 1.393 1_655 S
C2833 C2832 1.391 . S
C2834 H2824 0.950 . S
C2834 C2835 1.386 . S
C2834 C2836 1.391 . S
C2835 C2834 1.386 . S
C2835 C2839 1.393 . S
C2836 H2825 0.950 . S
C2836 C2834 1.391 . S
C2836 C2837 1.400 . S
C2837 C2831 1.491 . S
C2837 C2836 1.400 . S
C2837 C2838 1.398 . S
C2838 H2826 0.950 . S
C2838 C2837 1.398 . S
C2838 C2839 1.391 . S
C2839 H2827 0.950 . S
C2839 C2835 1.393 . S
C2839 C2838 1.391 . S
H2840 C2848 0.950 . S
H2841 C2853 0.950 . S
H2842 C2850 0.950 . S
H2843 C2852 0.950 . S
H2844 C2854 0.950 . S
H2845 C2856 0.950 . S
H2846 C2858 0.950 . S
H2847 C2859 0.950 . S
C2848 H2840 0.950 . S
C2848 C2849 1.386 . S
C2848 C2850 1.391 . S
C2849 C2848 1.386 . S
C2849 C2853 1.393 . S
C2850 H2842 0.950 . S
C2850 C2848 1.391 . S
C2850 C2851 1.400 . S
C2851 C2850 1.400 . S
C2851 C2852 1.398 . S
C2851 C2857 1.491 . S
C2852 H2843 0.950 . S
C2852 C2851 1.398 . S
C2852 C2853 1.391 . S
C2853 H2841 0.950 . S
C2853 C2849 1.393 . S
C2853 C2852 1.391 . S
C2854 H2844 0.950 . S
C2854 C2855 1.386 . S
C2854 C2856 1.391 . S
C2855 C2854 1.386 . S
C2855 C2859 1.393 . S
C2856 H2845 0.950 . S
C2856 C2854 1.391 . S
C2856 C2857 1.400 . S
C2857 C2851 1.491 . S
C2857 C2856 1.400 . S
C2857 C2858 1.398 . S
C2858 H2846 0.950 . S
C2858 C2857 1.398 . S
C2858 C2859 1.391 . S
C2859 H2847 0.950 . S
C2859 C2855 1.393 . S
C2859 C2858 1.391 . S
H2860 C2868 0.950 . S
H2861 C2873 0.950 . S
H2862 C2870 0.950 . S
H2863 C2872 0.950 . S
H2864 C2874 0.950 . S
H2865 C2876 0.950 . S
H2866 C2878 0.947 . S
H2867 C2879 0.950 . S
C2868 H2860 0.950 . S
C2868 C2869 1.386 . S
C2868 C2870 1.391 . S
C2869 C2868 1.386 . S
C2869 C2873 1.393 . S
C2870 H2862 0.950 . S
C2870 C2868 1.391 . S
C2870 C2871 1.400 . S
C2871 C2870 1.400 . S
C2871 C2872 1.398 . S
C2871 C2877 1.491 . S
C2872 H2863 0.950 . S
C2872 C2871 1.398 . S
C2872 C2873 1.391 . S
C2873 H2861 0.950 . S
C2873 C2869 1.393 . S
C2873 C2872 1.391 . S
C2874 H2864 0.950 . S
C2874 C2875 1.386 1_545 S
C2874 C2876 1.391 . S
C2875 C2874 1.386 1_565 S
C2875 C2879 1.393 . S
C2876 H2865 0.950 . S
C2876 C2874 1.391 . S
C2876 C2877 1.400 . S
C2877 C2871 1.491 . S
C2877 C2876 1.400 . S
C2877 C2878 1.398 . S
C2878 H2866 0.947 . S
C2878 C2877 1.398 . S
C2878 C2879 1.391 1_545 S
C2879 H2867 0.950 . S
C2879 C2875 1.393 . S
C2879 C2878 1.391 1_565 S
H2880 C2888 0.950 . S
H2881 C2893 0.950 . S
H2882 C2890 0.950 . S
H2883 C2892 0.950 . S
H2884 C2894 0.950 . S
H2885 C2896 0.950 . S
H2886 C2898 0.950 . S
H2887 C2899 0.950 . S
C2888 H2880 0.950 . S
C2888 C2889 1.386 . S
C2888 C2890 1.391 . S
C2889 C2888 1.386 . S
C2889 C2893 1.393 . S
C2890 H2882 0.950 . S
C2890 C2888 1.391 . S
C2890 C2891 1.400 . S
C2891 C2890 1.400 . S
C2891 C2892 1.398 . S
C2891 C2897 1.491 . S
C2892 H2883 0.950 . S
C2892 C2891 1.398 . S
C2892 C2893 1.391 . S
C2893 H2881 0.950 . S
C2893 C2889 1.393 . S
C2893 C2892 1.391 . S
C2894 H2884 0.950 . S
C2894 C2895 1.386 . S
C2894 C2896 1.391 . S
C2895 C2894 1.386 . S
C2895 C2899 1.393 . S
C2896 H2885 0.950 . S
C2896 C2894 1.391 . S
C2896 C2897 1.400 . S
C2897 C2891 1.491 . S
C2897 C2896 1.400 . S
C2897 C2898 1.398 . S
C2898 H2886 0.950 . S
C2898 C2897 1.398 . S
C2898 C2899 1.391 . S
C2899 H2887 0.950 . S
C2899 C2895 1.393 . S
C2899 C2898 1.391 . S
H2900 C2908 0.950 . S
H2901 C2913 0.950 . S
H2902 C2910 0.950 . S
H2903 C2912 0.950 . S
H2904 C2914 0.950 . S
H2905 C2916 0.950 . S
H2906 C2918 0.950 . S
H2907 C2919 0.950 . S
C2908 H2900 0.950 . S
C2908 C2909 1.386 . S
C2908 C2910 1.391 . S
C2909 C2908 1.386 . S
C2909 C2913 1.393 . S
C2910 H2902 0.950 . S
C2910 C2908 1.391 . S
C2910 C2911 1.400 . S
C2911 C2910 1.400 . S
C2911 C2912 1.398 . S
C2911 C2917 1.491 . S
C2912 H2903 0.950 . S
C2912 C2911 1.398 . S
C2912 C2913 1.391 . S
C2913 H2901 0.950 . S
C2913 C2909 1.393 . S
C2913 C2912 1.391 . S
C2914 H2904 0.950 . S
C2914 C2915 1.386 . S
C2914 C2916 1.391 . S
C2915 C2914 1.386 . S
C2915 C2919 1.393 . S
C2916 H2905 0.950 . S
C2916 C2914 1.391 . S
C2916 C2917 1.400 . S
C2917 C2911 1.491 . S
C2917 C2916 1.400 . S
C2917 C2918 1.398 . S
C2918 H2906 0.950 . S
C2918 C2917 1.398 . S
C2918 C2919 1.391 . S
C2919 H2907 0.950 . S
C2919 C2915 1.393 . S
C2919 C2918 1.391 . S
H2920 C2928 0.950 . S
H2921 C2933 0.950 . S
H2922 C2930 0.950 . S
H2923 C2932 0.950 . S
H2924 C2934 0.950 . S
H2925 C2936 0.950 . S
H2926 C2938 0.950 . S
H2927 C2939 0.950 . S
C2928 H2920 0.950 . S
C2928 C2929 1.386 . S
C2928 C2930 1.391 . S
C2929 C2928 1.386 . S
C2929 C2933 1.393 . S
C2930 H2922 0.950 . S
C2930 C2928 1.391 . S
C2930 C2931 1.400 . S
C2931 C2930 1.400 . S
C2931 C2932 1.398 . S
C2931 C2937 1.491 . S
C2932 H2923 0.950 . S
C2932 C2931 1.398 . S
C2932 C2933 1.391 . S
C2933 H2921 0.950 . S
C2933 C2929 1.393 . S
C2933 C2932 1.391 . S
C2934 H2924 0.950 . S
C2934 C2935 1.386 . S
C2934 C2936 1.391 . S
C2935 C2934 1.386 . S
C2935 C2939 1.393 . S
C2936 H2925 0.950 . S
C2936 C2934 1.391 . S
C2936 C2937 1.400 . S
C2937 C2931 1.491 . S
C2937 C2936 1.400 . S
C2937 C2938 1.398 . S
C2938 H2926 0.950 . S
C2938 C2937 1.398 . S
C2938 C2939 1.391 . S
C2939 H2927 0.950 . S
C2939 C2935 1.393 . S
C2939 C2938 1.391 . S
H2940 C2948 0.950 . S
H2941 C2953 0.950 . S
H2942 C2950 0.950 . S
H2943 C2952 0.950 . S
H2944 C2954 0.950 . S
H2945 C2956 0.950 . S
H2946 C2958 0.950 . S
H2947 C2959 0.950 . S
C2948 H2940 0.950 . S
C2948 C2949 1.386 . S
C2948 C2950 1.391 . S
C2949 C2948 1.386 . S
C2949 C2953 1.393 . S
C2950 H2942 0.950 . S
C2950 C2948 1.391 . S
C2950 C2951 1.400 . S
C2951 C2950 1.400 . S
C2951 C2952 1.398 . S
C2951 C2957 1.491 . S
C2952 H2943 0.950 . S
C2952 C2951 1.398 . S
C2952 C2953 1.391 . S
C2953 H2941 0.950 . S
C2953 C2949 1.393 . S
C2953 C2952 1.391 . S
C2954 H2944 0.950 . S
C2954 C2955 1.386 . S
C2954 C2956 1.391 . S
C2955 C2954 1.386 . S
C2955 C2959 1.393 . S
C2956 H2945 0.950 . S
C2956 C2954 1.391 . S
C2956 C2957 1.400 . S
C2957 C2951 1.491 . S
C2957 C2956 1.400 . S
C2957 C2958 1.398 . S
C2958 H2946 0.950 . S
C2958 C2957 1.398 . S
C2958 C2959 1.391 . S
C2959 H2947 0.950 . S
C2959 C2955 1.393 . S
C2959 C2958 1.391 . S
H2960 C2968 0.950 . S
H2961 C2973 0.950 . S
H2962 C2970 0.950 . S
H2963 C2972 0.950 . S
H2964 C2974 0.950 . S
H2965 C2976 0.950 . S
H2966 C2978 0.950 . S
H2967 C2979 0.950 . S
C2968 H2960 0.950 . S
C2968 C2969 1.386 . S
C2968 C2970 1.391 . S
C2969 C2968 1.386 . S
C2969 C2973 1.393 . S
C2970 H2962 0.950 . S
C2970 C2968 1.391 . S
C2970 C2971 1.400 . S
C2971 C2970 1.400 . S
C2971 C2972 1.398 . S
C2971 C2977 1.491 . S
C2972 H2963 0.950 . S
C2972 C2971 1.398 . S
C2972 C2973 1.391 . S
C2973 H2961 0.950 . S
C2973 C2969 1.393 . S
C2973 C2972 1.391 . S
C2974 H2964 0.950 . S
C2974 C2975 1.386 . S
C2974 C2976 1.391 . S
C2975 C2974 1.386 . S
C2975 C2979 1.393 . S
C2976 H2965 0.950 . S
C2976 C2974 1.391 . S
C2976 C2977 1.400 . S
C2977 C2971 1.491 . S
C2977 C2976 1.400 . S
C2977 C2978 1.398 . S
C2978 H2966 0.950 . S
C2978 C2977 1.398 . S
C2978 C2979 1.391 . S
C2979 H2967 0.950 . S
C2979 C2975 1.393 . S
C2979 C2978 1.391 . S
H2980 C2988 0.950 . S
H2981 C2993 0.950 . S
H2982 C2990 0.950 . S
H2983 C2992 0.950 . S
H2984 C2994 0.950 . S
H2985 C2996 0.950 . S
H2986 C2998 0.950 . S
H2987 C2999 0.950 . S
C2988 H2980 0.950 . S
C2988 C2989 1.386 . S
C2988 C2990 1.391 . S
C2989 C2988 1.386 . S
C2989 C2993 1.393 . S
C2990 H2982 0.950 . S
C2990 C2988 1.391 . S
C2990 C2991 1.400 . S
C2991 C2990 1.400 . S
C2991 C2992 1.398 . S
C2991 C2997 1.491 . S
C2992 H2983 0.950 . S
C2992 C2991 1.398 . S
C2992 C2993 1.391 . S
C2993 H2981 0.950 . S
C2993 C2989 1.393 . S
C2993 C2992 1.391 . S
C2994 H2984 0.950 . S
C2994 C2995 1.386 . S
C2994 C2996 1.391 . S
C2995 C2994 1.386 . S
C2995 C2999 1.393 . S
C2996 H2985 0.950 . S
C2996 C2994 1.391 . S
C2996 C2997 1.400 . S
C2997 C2991 1.491 . S
C2997 C2996 1.400 . S
C2997 C2998 1.398 . S
C2998 H2986 0.950 . S
C2998 C2997 1.398 . S
C2998 C2999 1.391 . S
C2999 H2987 0.950 . S
C2999 C2995 1.393 . S
C2999 C2998 1.391 . S
H3000 C3008 0.950 . S
H3001 C3013 0.950 . S
H3002 C3010 0.950 . S
H3003 C3012 0.950 . S
H3004 C3014 0.950 . S
H3005 C3016 0.950 . S
H3006 C3018 0.950 . S
H3007 C3019 0.950 . S
C3008 H3000 0.950 . S
C3008 C3009 1.386 . S
C3008 C3010 1.391 . S
C3009 C3008 1.386 . S
C3009 C3013 1.393 . S
C3010 H3002 0.950 . S
C3010 C3008 1.391 . S
C3010 C3011 1.400 . S
C3011 C3010 1.400 . S
C3011 C3012 1.398 . S
C3011 C3017 1.491 . S
C3012 H3003 0.950 . S
C3012 C3011 1.398 . S
C3012 C3013 1.391 . S
C3013 H3001 0.950 . S
C3013 C3009 1.393 . S
C3013 C3012 1.391 . S
C3014 H3004 0.950 . S
C3014 C3015 1.386 . S
C3014 C3016 1.391 . S
C3015 C3014 1.386 . S
C3015 C3019 1.393 . S
C3016 H3005 0.950 . S
C3016 C3014 1.391 . S
C3016 C3017 1.400 . S
C3017 C3011 1.491 . S
C3017 C3016 1.400 . S
C3017 C3018 1.398 . S
C3018 H3006 0.950 . S
C3018 C3017 1.398 . S
C3018 C3019 1.391 . S
C3019 H3007 0.950 . S
C3019 C3015 1.393 . S
C3019 C3018 1.391 . S
H3020 C3028 0.950 . S
H3021 C3033 0.950 . S
H3022 C3030 0.950 . S
H3023 C3032 0.950 . S
H3024 C3034 0.950 . S
H3025 C3036 0.950 . S
H3026 C3038 0.950 . S
H3027 C3039 0.950 . S
C3028 H3020 0.950 . S
C3028 C3029 1.386 . S
C3028 C3030 1.391 . S
C3029 C3028 1.386 . S
C3029 C3033 1.393 . S
C3030 H3022 0.950 . S
C3030 C3028 1.391 . S
C3030 C3031 1.400 . S
C3031 C3030 1.400 . S
C3031 C3032 1.398 . S
C3031 C3037 1.491 . S
C3032 H3023 0.950 . S
C3032 C3031 1.398 . S
C3032 C3033 1.391 . S
C3033 H3021 0.950 . S
C3033 C3029 1.393 . S
C3033 C3032 1.391 . S
C3034 H3024 0.950 . S
C3034 C3035 1.386 . S
C3034 C3036 1.391 . S
C3035 C3034 1.386 . S
C3035 C3039 1.393 . S
C3036 H3025 0.950 . S
C3036 C3034 1.391 . S
C3036 C3037 1.400 . S
C3037 C3031 1.491 . S
C3037 C3036 1.400 . S
C3037 C3038 1.398 . S
C3038 H3026 0.950 . S
C3038 C3037 1.398 . S
C3038 C3039 1.391 . S
C3039 H3027 0.950 . S
C3039 C3035 1.393 . S
C3039 C3038 1.391 . S
H3040 C3048 0.950 . S
H3041 C3053 0.950 . S
H3042 C3050 0.950 . S
H3043 C3052 0.950 . S
H3044 C3054 0.950 . S
H3045 C3056 0.950 . S
H3046 C3058 0.950 . S
H3047 C3059 0.950 . S
C3048 H3040 0.950 . S
C3048 C3049 1.386 . S
C3048 C3050 1.391 . S
C3049 C3048 1.386 . S
C3049 C3053 1.393 . S
C3050 H3042 0.950 . S
C3050 C3048 1.391 . S
C3050 C3051 1.400 . S
C3051 C3050 1.400 . S
C3051 C3052 1.398 . S
C3051 C3057 1.491 . S
C3052 H3043 0.950 . S
C3052 C3051 1.398 . S
C3052 C3053 1.391 . S
C3053 H3041 0.950 . S
C3053 C3049 1.393 . S
C3053 C3052 1.391 . S
C3054 H3044 0.950 . S
C3054 C3055 1.386 . S
C3054 C3056 1.391 . S
C3055 C3054 1.386 . S
C3055 C3059 1.393 . S
C3056 H3045 0.950 . S
C3056 C3054 1.391 . S
C3056 C3057 1.400 . S
C3057 C3051 1.491 . S
C3057 C3056 1.400 . S
C3057 C3058 1.398 . S
C3058 H3046 0.950 . S
C3058 C3057 1.398 . S
C3058 C3059 1.391 . S
C3059 H3047 0.950 . S
C3059 C3055 1.393 . S
C3059 C3058 1.391 . S
H3060 C3068 0.950 . S
H3061 C3073 0.950 . S
H3062 C3070 0.950 . S
H3063 C3072 0.950 . S
H3064 C3074 0.950 . S
H3065 C3076 0.950 . S
H3066 C3078 0.950 . S
H3067 C3079 0.950 . S
C3068 H3060 0.950 . S
C3068 C3069 1.386 . S
C3068 C3070 1.391 . S
C3069 C3068 1.386 . S
C3069 C3073 1.393 . S
C3070 H3062 0.950 . S
C3070 C3068 1.391 . S
C3070 C3071 1.400 . S
C3071 C3070 1.400 . S
C3071 C3072 1.398 . S
C3071 C3077 1.491 . S
C3072 H3063 0.950 . S
C3072 C3071 1.398 . S
C3072 C3073 1.391 . S
C3073 H3061 0.950 . S
C3073 C3069 1.393 . S
C3073 C3072 1.391 . S
C3074 H3064 0.950 . S
C3074 C3075 1.386 . S
C3074 C3076 1.391 . S
C3075 C3074 1.386 . S
C3075 C3079 1.393 . S
C3076 H3065 0.950 . S
C3076 C3074 1.391 . S
C3076 C3077 1.400 . S
C3077 C3071 1.491 . S
C3077 C3076 1.400 . S
C3077 C3078 1.398 . S
C3078 H3066 0.950 . S
C3078 C3077 1.398 . S
C3078 C3079 1.391 . S
C3079 H3067 0.950 . S
C3079 C3075 1.393 . S
C3079 C3078 1.391 . S
H3080 C3088 0.950 . S
H3081 C3093 0.950 . S
H3082 C3090 0.950 . S
H3083 C3092 0.950 . S
H3084 C3094 0.950 . S
H3085 C3096 0.950 . S
H3086 C3098 0.950 . S
H3087 C3099 0.950 . S
C3088 H3080 0.950 . S
C3088 C3089 1.386 . S
C3088 C3090 1.391 . S
C3089 C3088 1.386 . S
C3089 C3093 1.393 . S
C3090 H3082 0.950 . S
C3090 C3088 1.391 . S
C3090 C3091 1.400 . S
C3091 C3090 1.400 . S
C3091 C3092 1.398 . S
C3091 C3097 1.491 . S
C3092 H3083 0.950 . S
C3092 C3091 1.398 . S
C3092 C3093 1.391 . S
C3093 H3081 0.950 . S
C3093 C3089 1.393 . S
C3093 C3092 1.391 . S
C3094 H3084 0.950 . S
C3094 C3095 1.386 . S
C3094 C3096 1.391 . S
C3095 C3094 1.386 . S
C3095 C3099 1.393 . S
C3096 H3085 0.950 . S
C3096 C3094 1.391 . S
C3096 C3097 1.400 . S
C3097 C3091 1.491 . S
C3097 C3096 1.400 . S
C3097 C3098 1.398 . S
C3098 H3086 0.950 . S
C3098 C3097 1.398 . S
C3098 C3099 1.391 . S
C3099 H3087 0.950 . S
C3099 C3095 1.393 . S
C3099 C3098 1.391 . S
H3100 C3108 0.950 . S
H3101 C3113 0.950 . S
H3102 C3110 0.950 . S
H3103 C3112 0.950 . S
H3104 C3114 0.950 . S
H3105 C3116 0.950 . S
H3106 C3118 0.950 . S
H3107 C3119 0.950 . S
C3108 H3100 0.950 . S
C3108 C3109 1.386 . S
C3108 C3110 1.391 . S
C3109 C3108 1.386 . S
C3109 C3113 1.393 . S
C3110 H3102 0.950 . S
C3110 C3108 1.391 . S
C3110 C3111 1.400 . S
C3111 C3110 1.400 . S
C3111 C3112 1.398 . S
C3111 C3117 1.491 . S
C3112 H3103 0.950 . S
C3112 C3111 1.398 . S
C3112 C3113 1.391 . S
C3113 H3101 0.950 . S
C3113 C3109 1.393 . S
C3113 C3112 1.391 . S
C3114 H3104 0.950 . S
C3114 C3115 1.386 . S
C3114 C3116 1.391 . S
C3115 C3114 1.386 . S
C3115 C3119 1.393 . S
C3116 H3105 0.950 . S
C3116 C3114 1.391 . S
C3116 C3117 1.400 . S
C3117 C3111 1.491 . S
C3117 C3116 1.400 . S
C3117 C3118 1.398 . S
C3118 H3106 0.950 . S
C3118 C3117 1.398 . S
C3118 C3119 1.391 . S
C3119 H3107 0.950 . S
C3119 C3115 1.393 . S
C3119 C3118 1.391 . S
H3120 C3128 0.950 . S
H3121 C3133 0.950 . S
H3122 C3130 0.950 . S
H3123 C3132 0.950 . S
H3124 C3134 0.950 . S
H3125 C3136 0.950 . S
H3126 C3138 0.950 . S
H3127 C3139 0.950 . S
C3128 H3120 0.950 . S
C3128 C3129 1.386 . S
C3128 C3130 1.391 . S
C3129 C3128 1.386 . S
C3129 C3133 1.393 1_655 S
C3130 H3122 0.950 . S
C3130 C3128 1.391 . S
C3130 C3131 1.400 1_655 S
C3131 C3130 1.400 1_455 S
C3131 C3132 1.398 . S
C3131 C3137 1.491 . S
C3132 H3123 0.950 . S
C3132 C3131 1.398 . S
C3132 C3133 1.391 . S
C3133 H3121 0.950 . S
C3133 C3129 1.393 1_455 S
C3133 C3132 1.391 . S
C3134 H3124 0.950 . S
C3134 C3135 1.386 . S
C3134 C3136 1.391 . S
C3135 C3134 1.386 . S
C3135 C3139 1.393 1_455 S
C3136 H3125 0.950 . S
C3136 C3134 1.391 . S
C3136 C3137 1.400 . S
C3137 C3131 1.491 . S
C3137 C3136 1.400 . S
C3137 C3138 1.398 1_455 S
C3138 H3126 0.950 . S
C3138 C3137 1.398 1_655 S
C3138 C3139 1.391 . S
C3139 H3127 0.950 . S
C3139 C3135 1.393 1_655 S
C3139 C3138 1.391 . S
H3140 C3148 0.950 . S
H3141 C3153 0.950 . S
H3142 C3150 0.950 . S
H3143 C3152 0.950 . S
H3144 C3154 0.950 . S
H3145 C3156 0.950 . S
H3146 C3158 0.950 . S
H3147 C3159 0.950 . S
C3148 H3140 0.950 . S
C3148 C3149 1.386 . S
C3148 C3150 1.391 . S
C3149 C3148 1.386 . S
C3149 C3153 1.393 . S
C3150 H3142 0.950 . S
C3150 C3148 1.391 . S
C3150 C3151 1.400 . S
C3151 C3150 1.400 . S
C3151 C3152 1.398 . S
C3151 C3157 1.491 . S
C3152 H3143 0.950 . S
C3152 C3151 1.398 . S
C3152 C3153 1.391 . S
C3153 H3141 0.950 . S
C3153 C3149 1.393 . S
C3153 C3152 1.391 . S
C3154 H3144 0.950 . S
C3154 C3155 1.386 . S
C3154 C3156 1.391 . S
C3155 C3154 1.386 . S
C3155 C3159 1.393 . S
C3156 H3145 0.950 . S
C3156 C3154 1.391 . S
C3156 C3157 1.400 . S
C3157 C3151 1.491 . S
C3157 C3156 1.400 . S
C3157 C3158 1.398 . S
C3158 H3146 0.950 . S
C3158 C3157 1.398 . S
C3158 C3159 1.391 . S
C3159 H3147 0.950 . S
C3159 C3155 1.393 . S
C3159 C3158 1.391 . S
H3160 C3168 0.950 . S
H3161 C3173 0.950 . S
H3162 C3170 0.950 . S
H3163 C3172 0.950 . S
H3164 C3174 0.950 . S
H3165 C3176 0.950 . S
H3166 C3178 0.950 . S
H3167 C3179 0.950 . S
C3168 H3160 0.950 . S
C3168 C3169 1.386 1_565 S
C3168 C3170 1.391 . S
C3169 C3168 1.386 1_545 S
C3169 C3173 1.393 . S
C3170 H3162 0.950 . S
C3170 C3168 1.391 . S
C3170 C3171 1.400 . S
C3171 C3170 1.400 . S
C3171 C3172 1.398 1_565 S
C3171 C3177 1.491 . S
C3172 H3163 0.950 . S
C3172 C3171 1.398 1_545 S
C3172 C3173 1.391 . S
C3173 H3161 0.950 . S
C3173 C3169 1.393 . S
C3173 C3172 1.391 . S
C3174 H3164 0.950 . S
C3174 C3175 1.386 1_545 S
C3174 C3176 1.391 . S
C3175 C3174 1.386 1_565 S
C3175 C3179 1.393 . S
C3176 H3165 0.950 . S
C3176 C3174 1.391 . S
C3176 C3177 1.400 1_545 S
C3177 C3171 1.491 . S
C3177 C3176 1.400 1_565 S
C3177 C3178 1.398 . S
C3178 H3166 0.950 . S
C3178 C3177 1.398 . S
C3178 C3179 1.391 . S
C3179 H3167 0.950 . S
C3179 C3175 1.393 . S
C3179 C3178 1.391 . S
H3180 C3188 0.950 . S
H3181 C3193 0.950 . S
H3182 C3190 0.950 1_565 S
H3183 C3192 0.950 . S
H3184 C3194 0.968 . S
H3185 C3196 0.950 . S
H3186 C3198 0.950 . S
H3187 C3199 0.950 . S
C3188 H3180 0.950 . S
C3188 C3189 1.386 . S
C3188 C3190 1.391 . S
C3189 C3188 1.386 . S
C3189 C3193 1.393 . S
C3190 H3182 0.950 1_545 S
C3190 C3188 1.391 . S
C3190 C3191 1.400 . S
C3191 C3190 1.400 . S
C3191 C3192 1.398 . S
C3191 C3197 1.491 . S
C3192 H3183 0.950 . S
C3192 C3191 1.398 . S
C3192 C3193 1.391 . S
C3193 H3181 0.950 . S
C3193 C3189 1.393 . S
C3193 C3192 1.391 . S
C3194 H3184 0.968 . S
C3194 C3195 1.366 1_545 S
C3194 C3196 1.394 . S
C3195 C3194 1.366 1_565 S
C3195 C3199 1.393 . S
C3196 H3185 0.950 . S
C3196 C3194 1.394 . S
C3196 C3197 1.400 . S
C3197 C3191 1.491 . S
C3197 C3196 1.400 . S
C3197 C3198 1.398 1_545 S
C3198 H3186 0.950 . S
C3198 C3197 1.398 1_565 S
C3198 C3199 1.391 . S
C3199 H3187 0.950 . S
C3199 C3195 1.393 . S
C3199 C3198 1.391 . S
H3200 C3208 0.950 . S
H3201 C3213 0.950 . S
H3202 C3210 0.950 . S
H3203 C3212 0.950 . S
H3204 C3214 0.950 . S
H3205 C3216 0.950 . S
H3206 C3218 0.950 . S
H3207 C3219 0.950 . S
C3208 H3200 0.950 . S
C3208 C3209 1.386 1_655 S
C3208 C3210 1.391 . S
C3209 C3208 1.386 1_455 S
C3209 C3213 1.393 . S
C3210 H3202 0.950 . S
C3210 C3208 1.391 . S
C3210 C3211 1.400 . S
C3211 C3210 1.400 . S
C3211 C3212 1.398 1_655 S
C3211 C3217 1.491 . S
C3212 H3203 0.950 . S
C3212 C3211 1.398 1_455 S
C3212 C3213 1.391 . S
C3213 H3201 0.950 . S
C3213 C3209 1.393 . S
C3213 C3212 1.391 . S
C3214 H3204 0.950 . S
C3214 C3215 1.386 1_455 S
C3214 C3216 1.391 . S
C3215 C3214 1.386 1_655 S
C3215 C3219 1.393 . S
C3216 H3205 0.950 . S
C3216 C3214 1.391 . S
C3216 C3217 1.400 1_455 S
C3217 C3211 1.491 . S
C3217 C3216 1.400 1_655 S
C3217 C3218 1.398 . S
C3218 H3206 0.950 . S
C3218 C3217 1.398 . S
C3218 C3219 1.391 . S
C3219 H3207 0.950 . S
C3219 C3215 1.393 . S
C3219 C3218 1.391 . S
H3220 C3228 0.950 . S
H3221 C3233 0.950 . S
H3222 C3230 0.950 . S
H3223 C3232 0.950 . S
H3224 C3234 0.950 . S
H3225 C3236 0.950 . S
H3226 C3238 0.950 . S
H3227 C3239 0.950 . S
C3228 H3220 0.950 . S
C3228 C3229 1.386 . S
C3228 C3230 1.391 . S
C3229 C3228 1.386 . S
C3229 C3233 1.393 . S
C3230 H3222 0.950 . S
C3230 C3228 1.391 . S
C3230 C3231 1.400 . S
C3231 C3230 1.400 . S
C3231 C3232 1.398 . S
C3231 C3237 1.491 . S
C3232 H3223 0.950 . S
C3232 C3231 1.398 . S
C3232 C3233 1.391 . S
C3233 H3221 0.950 . S
C3233 C3229 1.393 . S
C3233 C3232 1.391 . S
C3234 H3224 0.950 . S
C3234 C3235 1.386 . S
C3234 C3236 1.391 . S
C3235 C3234 1.386 . S
C3235 C3239 1.393 . S
C3236 H3225 0.950 . S
C3236 C3234 1.391 . S
C3236 C3237 1.400 . S
C3237 C3231 1.491 . S
C3237 C3236 1.400 . S
C3237 C3238 1.398 . S
C3238 H3226 0.950 . S
C3238 C3237 1.398 . S
C3238 C3239 1.391 . S
C3239 H3227 0.950 . S
C3239 C3235 1.393 . S
C3239 C3238 1.391 . S
H3240 C3248 0.950 . S
H3241 C3253 0.950 . S
H3242 C3250 0.950 1_455 S
H3243 C3252 0.950 . S
H3244 C3254 0.950 . S
H3245 C3256 0.950 1_655 S
H3246 C3258 0.950 . S
H3247 C3259 0.950 . S
C3248 H3240 0.950 . S
C3248 C3249 1.386 . S
C3248 C3250 1.391 . S
C3249 C3248 1.386 . S
C3249 C3253 1.393 . S
C3250 H3242 0.950 1_655 S
C3250 C3248 1.391 . S
C3250 C3251 1.400 . S
C3251 C3250 1.400 . S
C3251 C3252 1.398 . S
C3251 C3257 1.491 1_655 S
C3252 H3243 0.950 . S
C3252 C3251 1.398 . S
C3252 C3253 1.391 . S
C3253 H3241 0.950 . S
C3253 C3249 1.393 . S
C3253 C3252 1.391 . S
C3254 H3244 0.950 . S
C3254 C3255 1.386 . S
C3254 C3256 1.391 . S
C3255 C3254 1.386 . S
C3255 C3259 1.393 . S
C3256 H3245 0.950 1_455 S
C3256 C3254 1.391 . S
C3256 C3257 1.400 . S
C3257 C3251 1.491 1_455 S
C3257 C3256 1.400 . S
C3257 C3258 1.398 . S
C3258 H3246 0.950 . S
C3258 C3257 1.398 . S
C3258 C3259 1.391 . S
C3259 H3247 0.950 . S
C3259 C3255 1.393 . S
C3259 C3258 1.391 . S
H3260 C3268 0.950 . S
H3261 C3273 0.950 . S
H3262 C3270 0.950 . S
H3263 C3272 0.950 . S
H3264 C3274 0.950 . S
H3265 C3276 0.950 . S
H3266 C3278 0.950 . S
H3267 C3279 0.950 . S
C3268 H3260 0.950 . S
C3268 C3269 1.386 . S
C3268 C3270 1.391 . S
C3269 C3268 1.386 . S
C3269 C3273 1.393 . S
C3270 H3262 0.950 . S
C3270 C3268 1.391 . S
C3270 C3271 1.400 . S
C3271 C3270 1.400 . S
C3271 C3272 1.398 . S
C3271 C3277 1.491 . S
C3272 H3263 0.950 . S
C3272 C3271 1.398 . S
C3272 C3273 1.391 . S
C3273 H3261 0.950 . S
C3273 C3269 1.393 . S
C3273 C3272 1.391 . S
C3274 H3264 0.950 . S
C3274 C3275 1.386 . S
C3274 C3276 1.391 . S
C3275 C3274 1.386 . S
C3275 C3279 1.393 . S
C3276 H3265 0.950 . S
C3276 C3274 1.391 . S
C3276 C3277 1.400 . S
C3277 C3271 1.491 . S
C3277 C3276 1.400 . S
C3277 C3278 1.398 . S
C3278 H3266 0.950 . S
C3278 C3277 1.398 . S
C3278 C3279 1.391 . S
C3279 H3267 0.950 . S
C3279 C3275 1.393 . S
C3279 C3278 1.391 . S
H3280 C3288 0.950 . S
H3281 C3293 0.950 . S
H3282 C3290 0.950 . S
H3283 C3292 0.948 1_565 S
H3284 C3294 0.950 . S
H3285 C3296 0.950 . S
H3286 C3298 0.950 1_545 S
H3287 C3299 0.950 . S
C3288 H3280 0.950 . S
C3288 C3289 1.386 . S
C3288 C3290 1.391 . S
C3289 C3288 1.386 . S
C3289 C3293 1.393 . S
C3290 H3282 0.950 . S
C3290 C3288 1.391 . S
C3290 C3291 1.400 . S
C3291 C3290 1.400 . S
C3291 C3292 1.397 . S
C3291 C3297 1.491 1_545 S
C3292 H3283 0.948 1_545 S
C3292 C3291 1.397 . S
C3292 C3293 1.394 . S
C3293 H3281 0.950 . S
C3293 C3289 1.393 . S
C3293 C3292 1.394 . S
C3294 H3284 0.950 . S
C3294 C3295 1.386 . S
C3294 C3296 1.391 . S
C3295 C3294 1.386 . S
C3295 C3299 1.393 . S
C3296 H3285 0.950 . S
C3296 C3294 1.391 . S
C3296 C3297 1.400 . S
C3297 C3291 1.491 1_565 S
C3297 C3296 1.400 . S
C3297 C3298 1.398 . S
C3298 H3286 0.950 1_565 S
C3298 C3297 1.398 . S
C3298 C3299 1.391 . S
C3299 H3287 0.950 . S
C3299 C3295 1.393 . S
C3299 C3298 1.391 . S
H3300 C3308 0.950 . S
H3301 C3313 0.950 . S
H3302 C3310 0.950 . S
H3303 C3312 0.950 . S
H3304 C3314 0.950 . S
H3305 C3316 0.950 . S
H3306 C3318 0.950 . S
H3307 C3319 0.950 . S
C3308 H3300 0.950 . S
C3308 C3309 1.386 . S
C3308 C3310 1.391 . S
C3309 C3308 1.386 . S
C3309 C3313 1.393 . S
C3310 H3302 0.950 . S
C3310 C3308 1.391 . S
C3310 C3311 1.400 . S
C3311 C3310 1.400 . S
C3311 C3312 1.398 1_655 S
C3311 C3317 1.491 1_655 S
C3312 H3303 0.950 . S
C3312 C3311 1.398 1_455 S
C3312 C3313 1.391 1_455 S
C3313 H3301 0.950 . S
C3313 C3309 1.393 . S
C3313 C3312 1.391 1_655 S
C3314 H3304 0.950 . S
C3314 C3315 1.386 . S
C3314 C3316 1.391 . S
C3315 C3314 1.386 . S
C3315 C3319 1.393 . S
C3316 H3305 0.950 . S
C3316 C3314 1.391 . S
C3316 C3317 1.400 . S
C3317 C3311 1.491 1_455 S
C3317 C3316 1.400 . S
C3317 C3318 1.398 1_455 S
C3318 H3306 0.950 . S
C3318 C3317 1.398 1_655 S
C3318 C3319 1.391 1_655 S
C3319 H3307 0.950 . S
C3319 C3315 1.393 . S
C3319 C3318 1.391 1_455 S
H3320 C3328 0.950 . S
H3321 C3333 0.950 . S
H3322 C3330 0.950 . S
H3323 C3332 0.950 . S
H3324 C3334 0.950 . S
H3325 C3336 0.950 . S
H3326 C3338 0.950 . S
H3327 C3339 0.950 . S
C3328 H3320 0.950 . S
C3328 C3329 1.386 . S
C3328 C3330 1.391 . S
C3329 C3328 1.386 . S
C3329 C3333 1.393 . S
C3330 H3322 0.950 . S
C3330 C3328 1.391 . S
C3330 C3331 1.400 . S
C3331 C3330 1.400 . S
C3331 C3332 1.398 . S
C3331 C3337 1.491 . S
C3332 H3323 0.950 . S
C3332 C3331 1.398 . S
C3332 C3333 1.391 . S
C3333 H3321 0.950 . S
C3333 C3329 1.393 . S
C3333 C3332 1.391 . S
C3334 H3324 0.950 . S
C3334 C3335 1.386 . S
C3334 C3336 1.391 . S
C3335 C3334 1.386 . S
C3335 C3339 1.393 . S
C3336 H3325 0.950 . S
C3336 C3334 1.391 . S
C3336 C3337 1.400 . S
C3337 C3331 1.491 . S
C3337 C3336 1.400 . S
C3337 C3338 1.398 . S
C3338 H3326 0.950 . S
C3338 C3337 1.398 . S
C3338 C3339 1.391 . S
C3339 H3327 0.950 . S
C3339 C3335 1.393 . S
C3339 C3338 1.391 . S
H3340 C3348 0.950 . S
H3341 C3353 0.950 . S
H3342 C3350 0.945 1_565 S
H3343 C3352 0.950 . S
H3344 C3354 0.950 . S
H3345 C3356 0.944 1_545 S
H3346 C3358 0.950 . S
H3347 C3359 0.950 . S
C3348 H3340 0.950 . S
C3348 C3349 1.386 . S
C3348 C3350 1.400 . S
C3349 C3348 1.386 . S
C3349 C3353 1.393 . S
C3350 H3342 0.945 1_545 S
C3350 C3348 1.400 . S
C3350 C3351 1.396 . S
C3351 C3350 1.396 . S
C3351 C3352 1.398 . S
C3351 C3357 1.491 1_545 S
C3352 H3343 0.950 . S
C3352 C3351 1.398 . S
C3352 C3353 1.391 . S
C3353 H3341 0.950 . S
C3353 C3349 1.393 . S
C3353 C3352 1.391 . S
C3354 H3344 0.950 . S
C3354 C3355 1.386 . S
C3354 C3356 1.403 . S
C3355 C3354 1.386 . S
C3355 C3359 1.393 . S
C3356 H3345 0.944 1_565 S
C3356 C3354 1.403 . S
C3356 C3357 1.395 . S
C3357 C3351 1.491 1_565 S
C3357 C3356 1.395 . S
C3357 C3358 1.398 . S
C3358 H3346 0.950 . S
C3358 C3357 1.398 . S
C3358 C3359 1.391 . S
C3359 H3347 0.950 . S
C3359 C3355 1.393 . S
C3359 C3358 1.391 . S
H3360 C3368 0.950 . S
H3361 C3373 0.950 . S
H3362 C3370 0.950 . S
H3363 C3372 0.950 . S
H3364 C3374 0.950 . S
H3365 C3376 0.950 . S
H3366 C3378 0.950 . S
H3367 C3379 0.950 . S
C3368 H3360 0.950 . S
C3368 C3369 1.386 . S
C3368 C3370 1.391 . S
C3369 C3368 1.386 . S
C3369 C3373 1.393 . S
C3370 H3362 0.950 . S
C3370 C3368 1.391 . S
C3370 C3371 1.400 . S
C3371 C3370 1.400 . S
C3371 C3372 1.398 . S
C3371 C3377 1.491 . S
C3372 H3363 0.950 . S
C3372 C3371 1.398 . S
C3372 C3373 1.391 . S
C3373 H3361 0.950 . S
C3373 C3369 1.393 . S
C3373 C3372 1.391 . S
C3374 H3364 0.950 . S
C3374 C3375 1.386 . S
C3374 C3376 1.391 . S
C3375 C3374 1.386 . S
C3375 C3379 1.393 . S
C3376 H3365 0.950 . S
C3376 C3374 1.391 . S
C3376 C3377 1.400 . S
C3377 C3371 1.491 . S
C3377 C3376 1.400 . S
C3377 C3378 1.398 . S
C3378 H3366 0.950 . S
C3378 C3377 1.398 . S
C3378 C3379 1.391 . S
C3379 H3367 0.950 . S
C3379 C3375 1.393 . S
C3379 C3378 1.391 . S
H3380 C3388 0.950 . S
H3381 C3393 0.950 . S
H3382 C3390 0.950 . S
H3383 C3392 0.950 . S
H3384 C3394 0.950 . S
H3385 C3396 0.950 . S
H3386 C3398 0.950 . S
H3387 C3399 0.950 . S
C3388 H3380 0.950 . S
C3388 C3389 1.386 . S
C3388 C3390 1.391 . S
C3389 C3388 1.386 . S
C3389 C3393 1.393 . S
C3390 H3382 0.950 . S
C3390 C3388 1.391 . S
C3390 C3391 1.400 . S
C3391 C3390 1.400 . S
C3391 C3392 1.398 . S
C3391 C3397 1.491 . S
C3392 H3383 0.950 . S
C3392 C3391 1.398 . S
C3392 C3393 1.391 . S
C3393 H3381 0.950 . S
C3393 C3389 1.393 . S
C3393 C3392 1.391 . S
C3394 H3384 0.950 . S
C3394 C3395 1.386 . S
C3394 C3396 1.391 . S
C3395 C3394 1.386 . S
C3395 C3399 1.393 . S
C3396 H3385 0.950 . S
C3396 C3394 1.391 . S
C3396 C3397 1.400 . S
C3397 C3391 1.491 . S
C3397 C3396 1.400 . S
C3397 C3398 1.398 . S
C3398 H3386 0.950 . S
C3398 C3397 1.398 . S
C3398 C3399 1.391 . S
C3399 H3387 0.950 . S
C3399 C3395 1.393 . S
C3399 C3398 1.391 . S
H3400 C3408 0.950 . S
H3401 C3413 0.950 . S
H3402 C3410 0.950 . S
H3403 C3412 0.950 . S
H3404 C3414 0.950 . S
H3405 C3416 0.950 . S
H3406 C3418 0.950 . S
H3407 C3419 0.950 . S
C3408 H3400 0.950 . S
C3408 C3409 1.386 . S
C3408 C3410 1.391 . S
C3409 C3408 1.386 . S
C3409 C3413 1.393 . S
C3410 H3402 0.950 . S
C3410 C3408 1.391 . S
C3410 C3411 1.400 . S
C3411 C3410 1.400 . S
C3411 C3412 1.398 . S
C3411 C3417 1.491 . S
C3412 H3403 0.950 . S
C3412 C3411 1.398 . S
C3412 C3413 1.391 . S
C3413 H3401 0.950 . S
C3413 C3409 1.393 . S
C3413 C3412 1.391 . S
C3414 H3404 0.950 . S
C3414 C3415 1.386 . S
C3414 C3416 1.391 . S
C3415 C3414 1.386 . S
C3415 C3419 1.393 . S
C3416 H3405 0.950 . S
C3416 C3414 1.391 . S
C3416 C3417 1.400 . S
C3417 C3411 1.491 . S
C3417 C3416 1.400 . S
C3417 C3418 1.398 . S
C3418 H3406 0.950 . S
C3418 C3417 1.398 . S
C3418 C3419 1.391 . S
C3419 H3407 0.950 . S
C3419 C3415 1.393 . S
C3419 C3418 1.391 . S
H3420 C3428 0.950 . S
H3421 C3433 0.950 . S
H3422 C3430 0.950 . S
H3423 C3432 0.950 . S
H3424 C3434 0.950 . S
H3425 C3436 0.950 . S
H3426 C3438 0.950 . S
H3427 C3439 0.950 . S
C3428 H3420 0.950 . S
C3428 C3429 1.386 . S
C3428 C3430 1.391 . S
C3429 C3428 1.386 . S
C3429 C3433 1.393 . S
C3430 H3422 0.950 . S
C3430 C3428 1.391 . S
C3430 C3431 1.400 . S
C3431 C3430 1.400 . S
C3431 C3432 1.398 . S
C3431 C3437 1.491 . S
C3432 H3423 0.950 . S
C3432 C3431 1.398 . S
C3432 C3433 1.391 . S
C3433 H3421 0.950 . S
C3433 C3429 1.393 . S
C3433 C3432 1.391 . S
C3434 H3424 0.950 . S
C3434 C3435 1.386 . S
C3434 C3436 1.391 . S
C3435 C3434 1.386 . S
C3435 C3439 1.393 . S
C3436 H3425 0.950 . S
C3436 C3434 1.391 . S
C3436 C3437 1.400 . S
C3437 C3431 1.491 . S
C3437 C3436 1.400 . S
C3437 C3438 1.398 . S
C3438 H3426 0.950 . S
C3438 C3437 1.398 . S
C3438 C3439 1.391 . S
C3439 H3427 0.950 . S
C3439 C3435 1.393 . S
C3439 C3438 1.391 . S
H3440 C3448 0.950 . S
H3441 C3453 0.950 . S
H3442 C3450 0.950 . S
H3443 C3452 0.950 . S
H3444 C3454 0.950 . S
H3445 C3456 0.950 . S
H3446 C3458 0.950 . S
H3447 C3459 0.950 . S
C3448 H3440 0.950 . S
C3448 C3449 1.386 . S
C3448 C3450 1.391 . S
C3449 C3448 1.386 . S
C3449 C3453 1.393 . S
C3450 H3442 0.950 . S
C3450 C3448 1.391 . S
C3450 C3451 1.400 . S
C3451 C3450 1.400 . S
C3451 C3452 1.398 . S
C3451 C3457 1.491 . S
C3452 H3443 0.950 . S
C3452 C3451 1.398 . S
C3452 C3453 1.391 . S
C3453 H3441 0.950 . S
C3453 C3449 1.393 . S
C3453 C3452 1.391 . S
C3454 H3444 0.950 . S
C3454 C3455 1.386 . S
C3454 C3456 1.391 . S
C3455 C3454 1.386 . S
C3455 C3459 1.393 . S
C3456 H3445 0.950 . S
C3456 C3454 1.391 . S
C3456 C3457 1.400 . S
C3457 C3451 1.491 . S
C3457 C3456 1.400 . S
C3457 C3458 1.398 . S
C3458 H3446 0.950 . S
C3458 C3457 1.398 . S
C3458 C3459 1.391 . S
C3459 H3447 0.950 . S
C3459 C3455 1.393 . S
C3459 C3458 1.391 . S
H3460 C3468 0.950 . S
H3461 C3473 0.950 . S
H3462 C3470 0.950 . S
H3463 C3472 0.950 . S
H3464 C3474 0.950 . S
H3465 C3476 0.950 . S
H3466 C3478 0.950 . S
H3467 C3479 0.950 . S
C3468 H3460 0.950 . S
C3468 C3469 1.386 . S
C3468 C3470 1.391 . S
C3469 C3468 1.386 . S
C3469 C3473 1.393 . S
C3470 H3462 0.950 . S
C3470 C3468 1.391 . S
C3470 C3471 1.400 . S
C3471 C3470 1.400 . S
C3471 C3472 1.398 . S
C3471 C3477 1.491 . S
C3472 H3463 0.950 . S
C3472 C3471 1.398 . S
C3472 C3473 1.391 . S
C3473 H3461 0.950 . S
C3473 C3469 1.393 . S
C3473 C3472 1.391 . S
C3474 H3464 0.950 . S
C3474 C3475 1.386 . S
C3474 C3476 1.391 . S
C3475 C3474 1.386 . S
C3475 C3479 1.393 . S
C3476 H3465 0.950 . S
C3476 C3474 1.391 . S
C3476 C3477 1.400 . S
C3477 C3471 1.491 . S
C3477 C3476 1.400 . S
C3477 C3478 1.398 . S
C3478 H3466 0.950 . S
C3478 C3477 1.398 . S
C3478 C3479 1.391 . S
C3479 H3467 0.950 . S
C3479 C3475 1.393 . S
C3479 C3478 1.391 . S
H3480 C3488 0.950 . S
H3481 C3493 0.950 . S
H3482 C3490 0.950 . S
H3483 C3492 0.950 . S
H3484 C3494 0.950 . S
H3485 C3496 0.950 . S
H3486 C3498 0.950 . S
H3487 C3499 0.950 . S
C3488 H3480 0.950 . S
C3488 C3489 1.386 . S
C3488 C3490 1.391 . S
C3489 C3488 1.386 . S
C3489 C3493 1.393 . S
C3490 H3482 0.950 . S
C3490 C3488 1.391 . S
C3490 C3491 1.400 . S
C3491 C3490 1.400 . S
C3491 C3492 1.398 . S
C3491 C3497 1.491 . S
C3492 H3483 0.950 . S
C3492 C3491 1.398 . S
C3492 C3493 1.391 . S
C3493 H3481 0.950 . S
C3493 C3489 1.393 . S
C3493 C3492 1.391 . S
C3494 H3484 0.950 . S
C3494 C3495 1.386 . S
C3494 C3496 1.391 . S
C3495 C3494 1.386 . S
C3495 C3499 1.393 . S
C3496 H3485 0.950 . S
C3496 C3494 1.391 . S
C3496 C3497 1.400 . S
C3497 C3491 1.491 . S
C3497 C3496 1.400 . S
C3497 C3498 1.398 . S
C3498 H3486 0.950 . S
C3498 C3497 1.398 . S
C3498 C3499 1.391 . S
C3499 H3487 0.950 . S
C3499 C3495 1.393 . S
C3499 C3498 1.391 . S
H3500 C3508 0.950 . S
H3501 C3513 0.950 . S
H3502 C3510 0.950 . S
H3503 C3512 0.950 . S
H3504 C3514 0.950 . S
H3505 C3516 0.950 . S
H3506 C3518 0.950 . S
H3507 C3519 0.950 . S
C3508 H3500 0.950 . S
C3508 C3509 1.386 . S
C3508 C3510 1.391 . S
C3509 C3508 1.386 . S
C3509 C3513 1.393 . S
C3510 H3502 0.950 . S
C3510 C3508 1.391 . S
C3510 C3511 1.400 . S
C3511 C3510 1.400 . S
C3511 C3512 1.398 . S
C3511 C3517 1.491 . S
C3512 H3503 0.950 . S
C3512 C3511 1.398 . S
C3512 C3513 1.391 . S
C3513 H3501 0.950 . S
C3513 C3509 1.393 . S
C3513 C3512 1.391 . S
C3514 H3504 0.950 . S
C3514 C3515 1.386 . S
C3514 C3516 1.391 . S
C3515 C3514 1.386 . S
C3515 C3519 1.393 . S
C3516 H3505 0.950 . S
C3516 C3514 1.391 . S
C3516 C3517 1.400 . S
C3517 C3511 1.491 . S
C3517 C3516 1.400 . S
C3517 C3518 1.398 . S
C3518 H3506 0.950 . S
C3518 C3517 1.398 . S
C3518 C3519 1.391 . S
C3519 H3507 0.950 . S
C3519 C3515 1.393 . S
C3519 C3518 1.391 . S
H3520 C3528 0.950 . S
H3521 C3533 0.950 . S
H3522 C3530 0.950 . S
H3523 C3532 0.950 . S
H3524 C3534 0.950 . S
H3525 C3536 0.950 . S
H3526 C3538 0.950 . S
H3527 C3539 0.950 . S
C3528 H3520 0.950 . S
C3528 C3529 1.386 . S
C3528 C3530 1.391 . S
C3529 C3528 1.386 . S
C3529 C3533 1.393 . S
C3530 H3522 0.950 . S
C3530 C3528 1.391 . S
C3530 C3531 1.400 . S
C3531 C3530 1.400 . S
C3531 C3532 1.398 . S
C3531 C3537 1.491 . S
C3532 H3523 0.950 . S
C3532 C3531 1.398 . S
C3532 C3533 1.391 . S
C3533 H3521 0.950 . S
C3533 C3529 1.393 . S
C3533 C3532 1.391 . S
C3534 H3524 0.950 . S
C3534 C3535 1.386 . S
C3534 C3536 1.391 . S
C3535 C3534 1.386 . S
C3535 C3539 1.393 . S
C3536 H3525 0.950 . S
C3536 C3534 1.391 . S
C3536 C3537 1.400 . S
C3537 C3531 1.491 . S
C3537 C3536 1.400 . S
C3537 C3538 1.398 . S
C3538 H3526 0.950 . S
C3538 C3537 1.398 . S
C3538 C3539 1.391 . S
C3539 H3527 0.950 . S
C3539 C3535 1.393 . S
C3539 C3538 1.391 . S
H3540 C3548 0.950 . S
H3541 C3553 0.950 . S
H3542 C3550 0.950 . S
H3543 C3552 0.950 . S
H3544 C3554 0.950 . S
H3545 C3556 0.950 . S
H3546 C3558 0.950 . S
H3547 C3559 0.950 . S
C3548 H3540 0.950 . S
C3548 C3549 1.386 . S
C3548 C3550 1.391 . S
C3549 C3548 1.386 . S
C3549 C3553 1.393 . S
C3550 H3542 0.950 . S
C3550 C3548 1.391 . S
C3550 C3551 1.400 . S
C3551 C3550 1.400 . S
C3551 C3552 1.398 . S
C3551 C3557 1.491 . S
C3552 H3543 0.950 . S
C3552 C3551 1.398 . S
C3552 C3553 1.391 . S
C3553 H3541 0.950 . S
C3553 C3549 1.393 . S
C3553 C3552 1.391 . S
C3554 H3544 0.950 . S
C3554 C3555 1.386 . S
C3554 C3556 1.391 . S
C3555 C3554 1.386 . S
C3555 C3559 1.393 . S
C3556 H3545 0.950 . S
C3556 C3554 1.391 . S
C3556 C3557 1.400 . S
C3557 C3551 1.491 . S
C3557 C3556 1.400 . S
C3557 C3558 1.398 . S
C3558 H3546 0.950 . S
C3558 C3557 1.398 . S
C3558 C3559 1.391 . S
C3559 H3547 0.950 . S
C3559 C3555 1.393 . S
C3559 C3558 1.391 . S
H3560 C3568 0.950 . S
H3561 C3573 0.950 . S
H3562 C3570 0.950 . S
H3563 C3572 0.950 . S
H3564 C3574 0.950 . S
H3565 C3576 0.950 . S
H3566 C3578 0.950 . S
H3567 C3579 0.950 . S
C3568 H3560 0.950 . S
C3568 C3569 1.386 . S
C3568 C3570 1.391 . S
C3569 C3568 1.386 . S
C3569 C3573 1.393 . S
C3570 H3562 0.950 . S
C3570 C3568 1.391 . S
C3570 C3571 1.400 . S
C3571 C3570 1.400 . S
C3571 C3572 1.398 . S
C3571 C3577 1.491 . S
C3572 H3563 0.950 . S
C3572 C3571 1.398 . S
C3572 C3573 1.391 . S
C3573 H3561 0.950 . S
C3573 C3569 1.393 . S
C3573 C3572 1.391 . S
C3574 H3564 0.950 . S
C3574 C3575 1.386 . S
C3574 C3576 1.391 . S
C3575 C3574 1.386 . S
C3575 C3579 1.393 . S
C3576 H3565 0.950 . S
C3576 C3574 1.391 . S
C3576 C3577 1.400 . S
C3577 C3571 1.491 . S
C3577 C3576 1.400 . S
C3577 C3578 1.398 . S
C3578 H3566 0.950 . S
C3578 C3577 1.398 . S
C3578 C3579 1.391 . S
C3579 H3567 0.950 . S
C3579 C3575 1.393 . S
C3579 C3578 1.391 . S
H3580 C3588 0.950 . S
H3581 C3593 0.950 . S
H3582 C3590 0.950 . S
H3583 C3592 0.950 . S
H3584 C3594 0.950 . S
H3585 C3596 0.950 . S
H3586 C3598 0.950 . S
H3587 C3599 0.950 . S
C3588 H3580 0.950 . S
C3588 C3589 1.386 . S
C3588 C3590 1.391 . S
C3589 C3588 1.386 . S
C3589 C3593 1.393 . S
C3590 H3582 0.950 . S
C3590 C3588 1.391 . S
C3590 C3591 1.400 . S
C3591 C3590 1.400 . S
C3591 C3592 1.398 . S
C3591 C3597 1.491 . S
C3592 H3583 0.950 . S
C3592 C3591 1.398 . S
C3592 C3593 1.391 . S
C3593 H3581 0.950 . S
C3593 C3589 1.393 . S
C3593 C3592 1.391 . S
C3594 H3584 0.950 . S
C3594 C3595 1.386 . S
C3594 C3596 1.391 . S
C3595 C3594 1.386 . S
C3595 C3599 1.393 . S
C3596 H3585 0.950 . S
C3596 C3594 1.391 . S
C3596 C3597 1.400 . S
C3597 C3591 1.491 . S
C3597 C3596 1.400 . S
C3597 C3598 1.398 . S
C3598 H3586 0.950 . S
C3598 C3597 1.398 . S
C3598 C3599 1.391 . S
C3599 H3587 0.950 . S
C3599 C3595 1.393 . S
C3599 C3598 1.391 . S
C1449 C9 1.692 . S
C1455 C99 1.778 . S
C1469 C19 1.763 . S
C1475 C49 1.703 1_545 S
C1489 C89 1.716 1_655 S
C1495 C59 1.771 . S
C1509 C129 1.776 . S
C1515 C179 1.855 . S
C1529 C219 1.850 . S
C1535 C169 1.767 1_565 S
C1549 C209 1.780 1_455 S
C1555 C139 1.840 . S
C1569 C258 1.690 . S
C1575 C330 1.775 . S
C1589 C298 1.717 1_565 S
C1595 C250 1.765 . S
C1609 C338 1.695 1_455 S
C1615 C290 1.779 . S
C1629 C378 1.768 . S
C1635 C410 1.852 . S
C1649 C450 1.848 . S
C1655 C418 1.791 1_545 S
C1669 C370 1.841 . S
C1675 C458 1.792 1_655 S
C1689 C579 1.843 . S
C1695 C489 1.757 . S
C1709 C529 1.772 . S
C1715 C499 1.842 . S
C1729 C539 1.828 . S
C1735 C569 1.775 . S
C1749 C609 1.810 . S
C1755 C659 1.859 . S
C1769 C699 1.874 . S
C1775 C649 1.791 . S
C1789 C619 1.864 . S
C1795 C689 1.789 . S
C1809 C738 1.751 . S
C1815 C810 1.799 . S
C1829 C778 1.725 . S
C1835 C730 1.807 . S
C1849 C770 1.796 . S
C1855 C818 1.741 . S
C1869 C890 1.690 . S
C1875 C858 1.648 1_554 S
C1889 C898 1.625 1_554 S
C1895 C930 1.702 . S
C1909 C850 1.695 . S
C1915 C938 1.656 1_554 S
C1929 C969 1.751 . S
C1935 C1059 1.799 . S
C1949 C1009 1.725 . S
C1955 C979 1.810 . S
C1969 C1049 1.737 . S
C1975 C1019 1.812 . S
C1989 C1089 1.653 1_556 S
C1995 C1139 1.691 . S
C2009 C1129 1.626 1_556 S
C2015 C1179 1.705 . S
C2029 C1169 1.617 1_556 S
C2035 C1099 1.705 . S
C2049 C1218 1.765 . S
C2055 C1290 1.844 . S
C2069 C1258 1.755 . S
C2075 C1210 1.839 . S
C2089 C1250 1.840 . S
C2095 C1298 1.777 . S
C2109 C1338 1.811 . S
C2115 C1370 1.867 . S
C2129 C1378 1.787 . S
C2135 C1410 1.872 . S
C2149 C1330 1.859 . S
C2155 C1418 1.808 . S
C2169 C10 1.774 . S
C2175 C809 1.763 . S
C2189 C729 1.762 . S
C2195 C50 1.773 . S
C2209 C90 1.776 . S
C2215 C769 1.771 . S
C2229 C130 1.676 . S
C2235 C1369 1.659 . S
C2249 C1409 1.656 . S
C2255 C170 1.675 . S
C2269 C210 1.674 . S
C2275 C1329 1.669 . S
C2289 C1058 1.776 . S
C2295 C259 1.759 . S
C2309 C299 1.770 . S
C2315 C978 1.759 . S
C2329 C339 1.765 . S
C2335 C1018 1.759 . S
C2349 C658 1.667 . S
C2355 C379 1.676 . S
C2369 C698 1.661 . S
C2375 C419 1.676 . S
C2389 C618 1.661 . S
C2395 C459 1.654 . S
C2409 C490 1.709 . S
C2415 C1289 1.706 . S
C2429 C530 1.726 . S
C2435 C1209 1.717 . S
C2449 C1249 1.704 . S
C2455 C570 1.717 . S
C2469 C409 1.701 . S
C2475 C610 1.693 . S
C2489 C449 1.691 . S
C2495 C650 1.701 . S
C2509 C369 1.702 . S
C2515 C690 1.693 . S
C2529 C98 1.769 . S
C2535 C739 1.769 . S
C2549 C779 1.758 . S
C2555 C18 1.774 . S
C2569 C819 1.764 . S
C2575 C58 1.774 . S
C2589 C1138 1.709 . S
C2595 C859 1.723 . S
C2609 C1178 1.716 1_554 S
C2615 C899 1.740 . S
C2629 C939 1.731 . S
C2635 C1098 1.708 . S
C2649 C329 1.756 . S
C2655 C970 1.764 . S
C2669 C249 1.754 . S
C2675 C1010 1.758 . S
C2689 C289 1.772 . S
C2695 C1050 1.767 . S
C2709 C1090 1.736 . S
C2715 C889 1.723 1_556 S
C2729 C929 1.708 . S
C2735 C1130 1.734 . S
C2749 C1170 1.743 . S
C2755 C849 1.718 1_556 S
C2769 C1219 1.716 . S
C2775 C578 1.725 . S
C2789 C1259 1.724 . S
C2795 C498 1.721 . S
C2809 C1299 1.710 . S
C2815 C538 1.724 . S
C2829 C1339 1.700 . S
C2835 C178 1.691 . S
C2849 C218 1.697 . S
C2855 C1379 1.714 . S
C2869 C138 1.699 . S
C2875 C1419 1.693 . S
C2889 C1166 2.277 . S
C2895 C6 2.269 . S
C2909 C1086 2.278 . S
C2915 C46 2.267 . S
C2929 C86 2.281 . S
C2935 C1126 2.264 . S
C2949 C526 2.519 . S
C2955 C126 2.521 . S
C2969 C166 2.529 . S
C2975 C566 2.525 . S
C2989 C206 2.529 . S
C2995 C486 2.524 . S
C3009 C255 2.293 . S
C3015 C935 2.268 . S
C3029 C295 2.292 . S
C3035 C855 2.265 . S
C3049 C335 2.282 . S
C3055 C895 2.273 . S
C3069 C1255 2.520 . S
C3075 C375 2.518 . S
C3089 C1295 2.518 . S
C3095 C415 2.522 . S
C3109 C1215 2.518 . S
C3115 C455 2.522 . S
C3129 C606 2.573 . S
C3135 C1006 2.583 . S
C3149 C646 2.573 . S
C3155 C1046 2.584 . S
C3169 C686 2.583 . S
C3175 C966 2.577 . S
C3189 C735 2.577 . S
C3195 C1415 2.574 . S
C3209 C1335 2.572 . S
C3215 C775 2.582 . S
C3229 C815 2.576 . S
C3235 C1375 2.581 . S
C3249 C175 1.154 . S
C3255 C15 1.151 . S
C3269 C215 1.157 . S
C3275 C55 1.148 . S
C3289 C135 1.150 . S
C3295 C95 1.155 . S
C3309 C246 1.156 . S
C3315 C406 1.148 . S
C3329 C446 1.156 . S
C3335 C286 1.149 . S
C3349 C326 1.150 . S
C3355 C366 1.154 . S
C3369 C655 1.238 . S
C3375 C495 1.239 . S
C3389 C695 1.235 . S
C3395 C535 1.239 . S
C3409 C615 1.241 . S
C3415 C575 1.235 . S
C3429 C886 1.497 . S
C3435 C726 1.526 . S
C3449 C766 1.510 . S
C3455 C926 1.516 . S
C3469 C806 1.507 . S
C3475 C846 1.519 . S
C3489 C975 1.508 . S
C3495 C1135 1.509 . S
C3509 C1175 1.493 . S
C3515 C1015 1.525 . S
C3529 C1055 1.511 . S
C3535 C1095 1.513 . S
C3549 C1206 1.238 . S
C3555 C1366 1.238 . S
C3569 C1406 1.236 . S
C3575 C1246 1.239 . S
C3589 C1286 1.241 . S
C3595 C1326 1.236 . S
