# Generated by pormake.
# Topology rob, (6)-cn, num edge types: 1
# Building blocks:
#     Node 0, Type 0, BuildingBlock: KUMBUR_clean_sbu_0, # of connection points: 6
#     Node 1, Type 0, BuildingBlock: KUMBUR_clean_sbu_0, # of connection points: 6
#     Node 2, Type 0, BuildingBlock: KUMBUR_clean_sbu_0, # of connection points: 6
#     Node 3, Type 0, BuildingBlock: KUMBUR_clean_sbu_0, # of connection points: 6
#     Edge 4, Type (0, 0), BuildingBlock: FUNLAD_clean_linker_0, # of connection points: 2
#     Edge 5, Type (0, 0), BuildingBlock: FUNLAD_clean_linker_0, # of connection points: 2
#     Edge 6, Type (0, 0), BuildingBlock: FUNLAD_clean_linker_0, # of connection points: 2
#     Edge 7, Type (0, 0), BuildingBlock: FUNLAD_clean_linker_0, # of connection points: 2
#     Edge 8, Type (0, 0), BuildingBlock: FUNLAD_clean_linker_0, # of connection points: 2
#     Edge 9, Type (0, 0), BuildingBlock: FUNLAD_clean_linker_0, # of connection points: 2
#     Edge 10, Type (0, 0), BuildingBlock: FUNLAD_clean_linker_0, # of connection points: 2
#     Edge 11, Type (0, 0), BuildingBlock: FUNLAD_clean_linker_0, # of connection points: 2
#     Edge 12, Type (0, 0), BuildingBlock: FUNLAD_clean_linker_0, # of connection points: 2
#     Edge 13, Type (0, 0), BuildingBlock: FUNLAD_clean_linker_0, # of connection points: 2
#     Edge 14, Type (0, 0), BuildingBlock: FUNLAD_clean_linker_0, # of connection points: 2
#     Edge 15, Type (0, 0), BuildingBlock: FUNLAD_clean_linker_0, # of connection points: 2
# Relax obj value: 0.033
# Max RMSD: 0.153
# Mean RMSD: 0.153
data_MOF--net-rob--node1-KUMBUR_clean_sbu_0--edge1-FUNLAD_clean_linker_0
_symmetry_space_group_name_H-M    P1
_symmetry_Int_Tables_number       1
_symmetry_cell_setting            triclinic
loop_
_symmetry_equiv_pos_as_xyz
'x, y, z'
_cell_length_a     18.362378
_cell_length_b     30.210679
_cell_length_c     38.043207
_cell_angle_alpha  118.63925
_cell_angle_beta   89.71076
_cell_angle_gamma 89.966464
loop_
_atom_site_label
_atom_site_type_symbol
_atom_site_fract_x
_atom_site_fract_y
_atom_site_fract_z
_atom_type_partial_charge
Tb0 Tb 0.18243 0.3053 0.05992 0.0
C1 C 0.38595 0.12242 0.97763 0.0
C2 C 0.49322 0.14669 0.01918 0.0
C3 C 0.45905 0.05831 0.98222 0.0
C4 C 0.43175 0.15945 1.00379 0.0
C5 C 0.39984 0.07124 0.96565 0.0
C6 C 0.50565 0.09603 1.00902 0.0
C7 C 0.29958 0.04957 0.91946 0.0
N8 N 0.32974 0.13658 0.96224 0.0
C9 C 0.2882 0.10089 0.93228 0.0
C10 C 0.35506 0.03468 0.93659 0.0
Tb11 Tb 0.31371 0.2215 0.986 0.0
N12 N 0.41813 0.20773 1.01238 0.0
C13 C 0.46742 0.24475 0.03397 0.0
C14 C 0.54138 0.18501 0.04331 0.0
C15 C 0.52897 0.23412 0.05021 0.0
H16 H 0.24492 0.11199 0.91901 0.0
H17 H 0.56666 0.2639 0.06815 0.0
H18 H 0.55215 0.0855 0.02086 0.0
H19 H 0.2655 0.02156 0.89642 0.0
H20 H 0.45881 0.28301 0.03989 0.0
H21 H 0.93364 0.26065 0.974 0.0
H22 H 0.58915 0.17687 0.05584 0.0
H23 H 0.24682 0.41545 0.12844 0.0
H24 H 0.03994 0.24258 1.00398 0.0
H25 H 0.22491 0.50571 0.15091 0.0
H26 H 0.47028 0.01924 0.97377 0.0
H27 H 0.91045 0.34748 0.986 0.0
H28 H 0.94553 0.43922 0.02163 0.0
H29 H 0.36391 0.99492 0.92652 0.0
H30 H 0.0248 0.50624 0.07012 0.0
N31 N 0.07913 0.31825 0.03215 0.0
C32 C 0.03101 0.28075 1.00977 0.0
C33 C 0.95756 0.33979 0.99928 0.0
C34 C 0.0044 0.37856 0.02418 0.0
C35 C 0.97036 0.29079 0.99255 0.0
C36 C 0.06506 0.36638 0.04052 0.0
H37 H 0.12841 0.53151 0.11918 0.0
N38 N 0.16481 0.39011 0.08361 0.0
C39 C 0.1923 0.4774 0.12718 0.0
C40 C 0.10953 0.4038 0.06733 0.0
C41 C 0.20445 0.42617 0.11441 0.0
C42 C 0.13791 0.49182 0.10913 0.0
C43 C 0.09489 0.45486 0.07921 0.0
O44 O 0.17822 0.32835 0.12167 0.0
O45 O 0.27782 0.25841 0.04751 0.0
O46 O 0.25266 0.17632 1.00649 0.0
O47 O 0.1475 0.22552 0.0309 0.0
O48 O 0.27643 0.32424 0.09985 0.0
O49 O 0.09173 0.28445 0.08281 0.0
O50 O 0.3167 0.19753 0.9241 0.0
O51 O 0.21904 0.26887 0.99864 0.0
O52 O 0.24582 0.35143 0.04126 0.0
O53 O 0.34966 0.30099 1.01482 0.0
O54 O 0.21907 0.20349 0.94638 0.0
O55 O 0.4035 0.24217 0.96235 0.0
C56 C 0.3139 0.28401 0.07892 0.0
C57 C 0.06116 0.34048 0.1504 0.0
C58 C -0.00533 0.36196 0.2126 0.0
C59 C 0.04484 0.33113 0.18247 0.0
C60 C 0.96215 0.40266 0.21018 0.0
C61 C 0.02714 0.38077 0.14848 0.0
C62 C 0.97819 0.41178 0.17832 0.0
C63 C 0.1839 0.18251 0.01859 0.0
C64 C 0.1146 0.30844 0.11963 0.0
C65 C 0.03655 0.46726 0.06176 0.0
C66 C 0.99141 0.42912 0.03418 0.0
C67 C 0.18272 0.24432 0.96719 0.0
C68 C 0.43296 0.18589 0.89458 0.0
C69 C 0.44717 0.19477 0.86205 0.0
C70 C 0.49677 0.16401 0.83153 0.0
C71 C 0.53095 0.12388 0.83408 0.0
C72 C 0.46846 0.1461 0.89655 0.0
C73 C 0.51695 0.1152 0.86637 0.0
C74 C 0.31412 0.34453 0.02827 0.0
C75 C 0.3799 0.21777 0.92567 0.0
H76 H 0.07043 0.29948 0.18356 0.0
H77 H 0.92461 0.42783 0.23313 0.0
H78 H 0.03843 0.38837 0.12403 0.0
H79 H 0.95262 0.4431 0.17679 0.0
H80 H 0.42031 0.22599 0.86088 0.0
H81 H 0.56814 0.09876 0.81088 0.0
H82 H 0.45862 0.13879 0.92129 0.0
H83 H 0.54372 0.08427 0.86795 0.0
Tb84 Tb 0.68621 0.80169 0.05454 0.0
C85 C 0.87907 0.61462 0.96987 0.0
C86 C 0.98629 0.63583 1.01134 0.0
C87 C 0.94755 0.54843 0.97401 0.0
C88 C 0.92633 0.65034 0.99613 0.0
C89 C 0.89 0.56306 0.95756 0.0
C90 C -0.0044 0.58482 1.00094 0.0
C91 C 0.7907 0.54432 0.91115 0.0
N92 N 0.82465 0.63039 0.95455 0.0
C93 C 0.7823 0.59595 0.92427 0.0
C94 C 0.84415 0.52781 0.92825 0.0
Tb95 Tb 0.81331 0.71574 0.97888 0.0
N96 N 0.91578 0.699 1.00491 0.0
C97 C 0.96677 0.73464 0.02651 0.0
C98 C 0.03616 0.67279 0.03549 0.0
C99 C 0.02694 0.72226 0.04257 0.0
H100 H 0.74057 0.6084 0.91106 0.0
H101 H 0.06601 0.75097 0.06052 0.0
H102 H 0.04086 0.57296 1.01266 0.0
H103 H 0.75591 0.51731 0.88788 0.0
H104 H 0.9605 0.77315 0.03258 0.0
H105 H 0.43484 0.76884 0.97202 0.0
H106 H 0.08287 0.66329 0.04789 0.0
H107 H 0.75853 0.90805 0.12431 0.0
H108 H 0.54025 0.74523 0.99896 0.0
H109 H 0.74211 0.99947 0.15005 0.0
H110 H 0.95647 0.50905 0.96533 0.0
H111 H 0.41652 0.85762 0.98785 0.0
H112 H 0.45687 0.94811 0.02605 0.0
H113 H 0.85073 0.4878 0.91793 0.0
H114 H 0.54038 0.01115 0.07486 0.0
N115 N 0.58385 0.81969 0.02916 0.0
C116 C 0.53351 0.7842 1.00639 0.0
C117 C 0.46327 0.84749 0.99979 0.0
C118 C 0.51239 0.88416 0.02509 0.0
C119 C 0.47333 0.79739 0.9909 0.0
C120 C 0.57247 0.86883 0.03963 0.0
H121 H 0.64628 0.03073 0.12187 0.0
N122 N 0.67413 0.88738 0.08106 0.0
C123 C 0.70742 0.97301 0.1264 0.0
C124 C 0.61927 0.90405 0.06669 0.0
C125 C 0.71646 0.9211 0.11175 0.0
C126 C 0.65338 0.99052 0.11037 0.0
C127 C 0.60771 0.95593 0.08053 0.0
O128 O 0.6849 0.82022 0.11534 0.0
O129 O 0.77842 0.75191 0.04032 0.0
O130 O 0.74766 0.67113 0.99806 0.0
O131 O 0.64562 0.72326 0.02413 0.0
O132 O 0.78116 0.81645 0.09338 0.0
O133 O 0.59304 0.78367 0.07762 0.0
O134 O 0.81673 0.69223 0.91711 0.0
O135 O 0.72155 0.76569 0.99308 0.0
O136 O 0.75197 0.84741 0.03673 0.0
O137 O 0.85306 0.79462 1.008 0.0
O138 O 0.71891 0.70171 0.93969 0.0
O139 O 0.90534 0.73427 0.9554 0.0
C140 C 0.8159 0.77522 0.07147 0.0
C141 C 0.57054 0.83629 0.14686 0.0
C142 C 0.51634 0.85737 0.21188 0.0
C143 C 0.55983 0.82567 0.1786 0.0
C144 C 0.48356 0.89999 0.21265 0.0
C145 C 0.53706 0.87869 0.14806 0.0
C146 C 0.4938 0.91038 0.18088 0.0
C147 C 0.67928 0.67913 1.01085 0.0
C148 C 0.61917 0.80352 0.11375 0.0
C149 C 0.54983 0.97149 0.06495 0.0
C150 C 0.50228 0.9356 0.03718 0.0
C151 C 0.68447 0.74304 0.96172 0.0
C152 C 0.93346 0.67656 0.88788 0.0
C153 C 0.94742 0.68319 0.85434 0.0
C154 C -0.00424 0.65073 0.82394 0.0
C155 C 0.02916 0.61117 0.8276 0.0
C156 C 0.96811 0.63732 0.89108 0.0
C157 C 0.01545 0.6047 0.86099 0.0
C158 C 0.81976 0.83921 0.02297 0.0
C159 C 0.88162 0.71033 0.91872 0.0
H160 H 0.58507 0.79234 0.17707 0.0
H161 H 0.45066 0.92567 0.23798 0.0
H162 H 0.54457 0.88741 0.12386 0.0
H163 H 0.46844 0.94329 0.18183 0.0
H164 H 0.92139 0.7141 0.85231 0.0
H165 H 0.06554 0.58492 0.80451 0.0
H166 H 0.95865 0.63182 0.91671 0.0
H167 H 0.0416 0.57424 0.86352 0.0
Tb168 Tb 0.17134 0.71882 0.48427 0.0
C169 C 0.37061 0.9032 0.5665 0.0
C170 C 0.47557 0.88023 0.52262 0.0
C171 C 0.44096 0.96844 0.56199 0.0
C172 C 0.41579 0.86669 0.53883 0.0
C173 C 0.38353 0.95465 0.57928 0.0
C174 C 0.48689 0.93123 0.53361 0.0
C175 C 0.28622 0.97482 0.6276 0.0
N176 N 0.31611 0.88822 0.58251 0.0
C177 C 0.27575 0.92326 0.61392 0.0
C178 C 0.3397 0.99061 0.60983 0.0
Tb179 Tb 0.30124 0.80298 0.55727 0.0
N180 N 0.40326 0.81805 0.52942 0.0
C181 C 0.45228 0.78134 0.50616 0.0
C182 C 0.52325 0.8423 0.49681 0.0
C183 C 0.51214 0.79275 0.48906 0.0
H184 H 0.23409 0.91154 0.62779 0.0
H185 H 0.54954 0.76323 0.4698 0.0
H186 H 0.53206 0.94238 0.52118 0.0
H187 H 0.253 1.00234 0.65181 0.0
H188 H 0.44462 0.74276 0.49958 0.0
H189 H 0.91874 0.7573 0.56798 0.0
H190 H 0.56973 0.85105 0.4836 0.0
H191 H 0.24259 0.61059 0.4156 0.0
H192 H 0.02551 0.77832 0.5398 0.0
H193 H 0.22448 0.51972 0.39166 0.0
H194 H 0.45139 1.00775 0.57104 0.0
H195 H 0.89877 0.66946 0.55417 0.0
H196 H 0.93796 0.57841 0.51752 0.0
H197 H 0.34786 0.03055 0.62056 0.0
H198 H 0.02104 0.51347 0.46916 0.0
N199 N 0.06802 0.70333 0.51085 0.0
C200 C 0.01795 0.73973 0.53322 0.0
C201 C 0.94605 0.67845 0.54166 0.0
C202 C -0.00506 0.6408 0.51674 0.0
C203 C 0.95703 0.72801 0.54941 0.0
C204 C 0.05572 0.65464 0.5014 0.0
H205 H 0.12738 0.49113 0.42142 0.0
N206 N 0.15771 0.63355 0.45929 0.0
C207 C 0.18989 0.54709 0.41516 0.0
C208 C 0.10217 0.61834 0.4745 0.0
C209 C 0.19988 0.59868 0.42876 0.0
C210 C 0.13514 0.5311 0.43209 0.0
C211 C 0.08968 0.56685 0.46175 0.0
O212 O 0.1691 0.69743 0.42298 0.0
O213 O 0.26424 0.76722 0.49644 0.0
O214 O 0.23561 0.84943 0.54012 0.0
O215 O 0.13301 0.79815 0.51405 0.0
O216 O 0.26548 0.70198 0.44393 0.0
O217 O 0.07915 0.73814 0.46172 0.0
O218 O 0.30409 0.8222 0.61815 0.0
O219 O 0.20765 0.75514 0.54525 0.0
O220 O 0.23509 0.67335 0.50324 0.0
O221 O 0.33891 0.72353 0.52708 0.0
O222 O 0.20745 0.82062 0.59784 0.0
O223 O 0.39498 0.78442 0.57919 0.0
C224 C 0.30067 0.74313 0.46471 0.0
C225 C 0.0543 0.68486 0.39301 0.0
C226 C -0.00197 0.66654 0.32949 0.0
C227 C 0.04305 0.69667 0.36205 0.0
C228 C 0.96462 0.62396 0.32829 0.0
C229 C 0.02019 0.64257 0.39163 0.0
C230 C 0.97555 0.61224 0.3593 0.0
C231 C 0.16706 0.84221 0.52798 0.0
C232 C 0.10454 0.71626 0.4252 0.0
C233 C 0.03119 0.55281 0.47822 0.0
C234 C 0.9839 0.58978 0.50574 0.0
C235 C 0.17115 0.78006 0.57685 0.0
C236 C 0.41919 0.83797 0.6479 0.0
C237 C 0.42804 0.82943 0.68073 0.0
C238 C 0.47198 0.86136 0.71327 0.0
C239 C 0.50725 0.90208 0.7122 0.0
C240 C 0.455 0.87849 0.64721 0.0
C241 C 0.49884 0.9104 0.67931 0.0
C242 C 0.30414 0.67997 0.51442 0.0
C243 C 0.36986 0.8051 0.61573 0.0
H244 H 0.07056 0.729 0.36304 0.0
H245 H 0.92924 0.60021 0.30375 0.0
H246 H 0.02833 0.63289 0.41525 0.0
H247 H 0.94933 0.57956 0.35825 0.0
H248 H 0.401 0.79747 0.68062 0.0
H249 H 0.54075 0.92781 0.73692 0.0
H250 H 0.44892 0.88558 0.62211 0.0
H251 H 0.52612 0.94184 0.6788 0.0
Tb252 Tb 0.67153 0.21728 0.48218 0.0
C253 C 0.87403 0.40029 0.56374 0.0
C254 C 0.98176 0.37536 0.52183 0.0
C255 C 0.9479 0.46395 0.55895 0.0
C256 C 0.91984 0.36298 0.53739 0.0
C257 C 0.88824 0.45138 0.57568 0.0
C258 C -0.00541 0.42594 0.532 0.0
C259 C 0.78723 0.47369 0.62205 0.0
N260 N 0.81736 0.38647 0.57925 0.0
C261 C 0.77554 0.42245 0.60927 0.0
C262 C 0.84325 0.48823 0.60482 0.0
Tb263 Tb 0.80068 0.30159 0.5554 0.0
N264 N 0.9058 0.31479 0.52877 0.0
C265 C 0.95518 0.27748 0.50709 0.0
C266 C 0.02996 0.33674 0.49755 0.0
C267 C 0.01717 0.28772 0.4907 0.0
H268 H 0.73189 0.41178 0.62274 0.0
H269 H 0.05492 0.2577 0.47267 0.0
H270 H 0.04145 0.43619 0.52004 0.0
H271 H 0.75297 0.50192 0.64516 0.0
H272 H 0.94627 0.23929 0.50121 0.0
H273 H 0.41797 0.26305 0.5656 0.0
H274 H 0.07808 0.34459 0.4849 0.0
H275 H 0.73953 0.10658 0.41561 0.0
H276 H 0.52624 0.28045 0.53613 0.0
H277 H 0.71837 0.01666 0.39433 0.0
H278 H 0.9594 0.50295 0.56739 0.0
H279 H 0.39505 0.17677 0.55486 0.0
H280 H 0.43163 0.08514 0.52081 0.0
H281 H 0.85233 0.52793 0.61486 0.0
H282 H 0.51322 0.01775 0.47376 0.0
N283 N 0.56665 0.20499 0.50951 0.0
C284 C 0.51739 0.24251 0.53089 0.0
C285 C 0.443 0.18417 0.54181 0.0
C286 C 0.49107 0.14528 0.51782 0.0
C287 C 0.45563 0.23285 0.54781 0.0
C288 C 0.55274 0.15708 0.50172 0.0
H289 H 0.61961 0.99172 0.42574 0.0
N290 N 0.65462 0.13267 0.4594 0.0
C291 C 0.68437 0.04522 0.41737 0.0
C292 C 0.59826 0.11942 0.4755 0.0
C293 C 0.69607 0.09628 0.42946 0.0
C294 C 0.62869 0.03129 0.43523 0.0
C295 C 0.58405 0.06854 0.46429 0.0
O296 O 0.67034 0.19242 0.42017 0.0
O297 O 0.76649 0.26404 0.49392 0.0
O298 O 0.74014 0.34672 0.53479 0.0
O299 O 0.63591 0.29708 0.50986 0.0
O300 O 0.76717 0.19718 0.44258 0.0
O301 O 0.5822 0.23716 0.45809 0.0
O302 O 0.80034 0.32365 0.61689 0.0
O303 O 0.70563 0.25489 0.54364 0.0
O304 O 0.73226 0.17261 0.50317 0.0
O305 O 0.83684 0.22193 0.52704 0.0
O306 O 0.70463 0.32193 0.5947 0.0
O307 O 0.89085 0.28219 0.57938 0.0
C308 C 0.80369 0.23782 0.46282 0.0
C309 C 0.55504 0.18016 0.39038 0.0
C310 C 0.49931 0.15497 0.32517 0.0
C311 C 0.54798 0.1855 0.35582 0.0
C312 C 0.45825 0.11869 0.32978 0.0
C313 C 0.51355 0.14386 0.39432 0.0
C314 C 0.46552 0.11324 0.36407 0.0
C315 C 0.67165 0.34033 0.52259 0.0
C316 C 0.60693 0.21231 0.42151 0.0
C317 C 0.5247 0.05657 0.48162 0.0
C318 C 0.47828 0.09494 0.50841 0.0
C319 C 0.66814 0.28123 0.57461 0.0
C320 C 0.91388 0.33602 0.64827 0.0
C321 C 0.92478 0.32448 0.6795 0.0
C322 C 0.96897 0.35519 0.71246 0.0
C323 C 0.00227 0.39771 0.71334 0.0
C324 C 0.94792 0.37829 0.64962 0.0
C325 C 0.99193 0.40894 0.68207 0.0
C326 C 0.80096 0.17889 0.51496 0.0
C327 C 0.86427 0.30449 0.61563 0.0
H328 H 0.58101 0.21318 0.35274 0.0
H329 H 0.41939 0.09511 0.30726 0.0
H330 H 0.51811 0.13925 0.42069 0.0
H331 H 0.43341 0.08537 0.36732 0.0
H332 H 0.89901 0.29127 0.67785 0.0
H333 H 0.03562 0.42274 0.73843 0.0
H334 H 0.94014 0.38775 0.62585 0.0
H335 H 0.01772 0.44178 0.68316 0.0
C336 C 0.56475 0.6415 0.0211 0.0
C337 C 0.63952 0.63726 1.01195 0.0
C338 C 0.52825 0.60288 0.02414 0.0
C339 C 0.56585 0.55901 0.01788 0.0
C340 C 0.64052 0.55496 1.00883 0.0
C341 C 0.67694 0.59352 1.00582 0.0
C342 C 0.53043 0.51747 0.02195 0.0
C343 C 0.45815 0.50889 0.01876 0.0
C344 C 0.42348 0.46675 0.02231 0.0
C345 C 0.34908 0.47022 0.03194 0.0
C346 C 0.3138 0.43095 0.03453 0.0
C347 C 0.35219 0.38712 0.02742 0.0
H348 H 0.51852 0.41747 1.00598 0.0
C349 C 0.4266 0.38348 1.01759 0.0
C350 C 0.46183 0.42269 1.0149 0.0
H351 H 0.45769 0.35002 1.01144 0.0
H352 H 0.53443 0.67494 0.02643 0.0
H353 H 0.47125 0.60838 0.03239 0.0
H354 H 0.67105 0.52187 1.00422 0.0
H355 H 0.73481 0.58931 0.99951 0.0
H356 H 0.5662 0.49282 0.02737 0.0
H357 H 0.42218 0.53363 1.01357 0.0
H358 H 0.31795 0.5034 0.03735 0.0
H359 H 0.25612 0.43469 0.04137 0.0
C360 C 0.42019 0.63868 0.51822 0.0
C361 C 0.34441 0.6365 0.51265 0.0
C362 C 0.45792 0.59767 0.51685 0.0
C363 C 0.42044 0.55368 0.51018 0.0
C364 C 0.34491 0.55141 0.50418 0.0
C365 C 0.30721 0.59241 0.50569 0.0
C366 C 0.45792 0.50898 0.50833 0.0
C367 C 0.52205 0.51134 0.52622 0.0
C368 C 0.55879 0.46663 0.5248 0.0
C369 C 0.6342 0.46852 0.5312 0.0
C370 C 0.6709 0.4275 0.53032 0.0
C371 C 0.63278 0.38379 0.52352 0.0
H372 H 0.46201 0.42051 0.51467 0.0
C373 C 0.55717 0.38201 0.51752 0.0
C374 C 0.52047 0.42302 0.51834 0.0
H375 H 0.52598 0.34912 0.51255 0.0
H376 H 0.45063 0.67193 0.52336 0.0
H377 H 0.51641 0.60047 0.52034 0.0
H378 H 0.31467 0.51796 0.4988 0.0
H379 H 0.24875 0.58957 0.50177 0.0
H380 H 0.43033 0.47306 0.49212 0.0
H381 H 0.54974 0.54725 0.54236 0.0
H382 H 0.66506 0.50169 0.53649 0.0
H383 H 0.72928 0.43002 0.53465 0.0
C384 C 0.07113 0.14201 0.02721 0.0
C385 C 0.14614 0.13955 0.01902 0.0
C386 C 0.03585 0.10194 0.02861 0.0
C387 C 0.07482 0.0582 0.0215 0.0
C388 C 0.14991 0.05608 1.0138 0.0
C389 C 0.18521 0.09622 1.01253 0.0
C390 C 0.03996 0.01484 0.0232 0.0
C391 C 0.968 1.00532 0.01832 0.0
C392 C 0.93268 0.96245 0.02046 0.0
C393 C 0.85799 0.96586 0.02931 0.0
C394 C 0.82177 0.92618 0.03071 0.0
C395 C 0.85936 0.88185 0.02302 0.0
H396 H 0.02752 0.91313 1.00438 0.0
C397 C 0.9341 0.87816 1.01389 0.0
C398 C 0.97046 0.91801 1.01256 0.0
H399 H 0.96453 0.84434 1.0074 0.0
H400 H 0.03951 0.17508 0.03287 0.0
H401 H 0.97852 0.10615 0.03612 0.0
H402 H 0.18151 0.02321 1.00871 0.0
H403 H 0.24333 0.09341 1.007 0.0
H404 H 0.07551 0.98985 0.02837 0.0
H405 H 0.93241 0.03019 1.01306 0.0
H406 H 0.82736 0.99939 0.03513 0.0
H407 H 0.76392 0.93008 0.03712 0.0
C408 C 0.91535 0.1374 0.52038 0.0
C409 C 0.83972 0.13567 0.51445 0.0
C410 C 0.95184 0.09668 0.52015 0.0
C411 C 0.91326 0.05343 0.51434 0.0
C412 C 0.83787 0.05154 0.50796 0.0
C413 C 0.80137 0.09229 0.5083 0.0
C414 C 0.94979 1.0091 0.51361 0.0
C415 C 0.01307 0.01209 0.5324 0.0
C416 C 0.0505 0.96782 0.53129 0.0
C417 C 0.12566 0.97081 0.53852 0.0
C418 C 0.16339 0.9301 0.5375 0.0
C419 C 0.12659 0.88557 0.52973 0.0
H420 H 0.95509 0.9201 0.51956 0.0
C421 C 0.05113 0.88273 0.52305 0.0
C422 C 0.01336 0.92346 0.52398 0.0
H423 H 0.02098 0.84914 0.51728 0.0
H424 H 0.94668 0.17005 0.52488 0.0
H425 H 0.01031 0.09906 0.52379 0.0
H426 H 0.80687 0.01862 0.50317 0.0
H427 H 0.74297 0.08986 0.50411 0.0
H428 H 0.92261 0.97303 0.4973 0.0
H429 H 0.03995 0.04828 0.5488 0.0
H430 H 0.15561 1.00455 0.54443 0.0
H431 H 0.22162 0.93347 0.54229 0.0
C432 C 0.48944 0.21017 0.29246 0.0
C433 C 0.48985 0.16167 0.28902 0.0
C434 C 0.47623 0.21679 0.25907 0.0
C435 C 0.46323 0.17498 0.22125 0.0
C436 C 0.46461 0.12653 0.21769 0.0
C437 C 0.47823 0.11987 0.25104 0.0
C438 C 0.44155 0.18094 0.186 0.0
C439 C 0.46074 0.22096 0.18133 0.0
C440 C 0.43012 0.23265 0.15035 0.0
C441 C 0.44072 0.28139 0.15532 0.0
C442 C 0.40578 0.29687 0.1305 0.0
C443 C 0.3603 0.26374 0.09957 0.0
H444 H 0.37876 0.16024 0.11207 0.0
C445 C 0.3523 0.21416 0.09308 0.0
C446 C 0.3873 0.19855 0.11795 0.0
H447 H 0.31673 0.18796 0.06991 0.0
H448 H 0.49668 0.24332 0.3213 0.0
H449 H 0.47322 0.2549 0.26351 0.0
H450 H 0.45443 0.09365 0.18903 0.0
H451 H 0.47917 0.0819 0.24705 0.0
H452 H 0.40684 0.15184 0.16421 0.0
H453 H 0.49761 0.24862 0.20292 0.0
H454 H 0.47366 0.3085 0.17968 0.0
H455 H 0.41243 0.33543 0.13631 0.0
C456 C 0.43633 0.85345 0.26424 0.0
C457 C 0.5048 0.8457 0.24541 0.0
C458 C 0.4247 0.84105 0.29483 0.0
C459 C 0.48139 0.82063 0.30743 0.0
C460 C 0.54972 0.81285 0.28867 0.0
C461 C 0.56153 0.82558 0.25826 0.0
C462 C 0.46935 0.80385 0.33796 0.0
C463 C 0.41868 0.82477 0.36719 0.0
C464 C 0.39871 0.80494 0.39503 0.0
C465 C 0.35721 0.83576 0.42928 0.0
C466 C 0.32827 0.81663 0.45328 0.0
C467 C 0.34073 0.76627 0.44382 0.0
H468 H 0.44322 0.72926 0.35969 0.0
C469 C 0.38418 0.73578 0.41037 0.0
C470 C 0.41305 0.75482 0.38622 0.0
H471 H 0.39363 0.69656 0.40208 0.0
H472 H 0.39092 0.86779 0.2546 0.0
H473 H 0.37052 0.84598 0.30752 0.0
H474 H 0.59419 0.79684 0.29756 0.0
H475 H 0.61527 0.81971 0.24487 0.0
H476 H 0.50394 0.77374 0.33626 0.0
H477 H 0.38933 0.85794 0.3708 0.0
H478 H 0.34476 0.87435 0.43673 0.0
H479 H 0.29367 0.84086 0.47812 0.0
C480 C 0.5984 0.73875 0.90988 0.0
C481 C 0.64358 0.76781 0.94254 0.0
C482 C 0.56881 0.75926 0.88701 0.0
C483 C 0.58423 0.8094 0.89636 0.0
C484 C 0.62731 0.83883 0.92993 0.0
C485 C 0.65696 0.81824 0.95261 0.0
C486 C 0.56433 0.83039 0.86941 0.0
C487 C 0.51277 0.81086 0.84098 0.0
C488 C 0.50209 0.82775 0.81053 0.0
C489 C 0.43364 0.82191 0.79266 0.0
C490 C 0.42331 0.83405 0.76188 0.0
C491 C 0.48167 0.85153 0.74777 0.0
H492 H 0.61451 0.84931 0.80889 0.0
C493 C 0.55012 0.85771 0.7659 0.0
C494 C 0.56029 0.84593 0.79686 0.0
H495 H 0.59664 0.87005 0.75529 0.0
H496 H 0.58822 0.6995 0.90112 0.0
H497 H 0.5374 0.73473 0.86091 0.0
H498 H 0.64062 0.87739 0.93772 0.0
H499 H 0.6929 0.84136 0.97681 0.0
H500 H 0.59496 0.86292 0.87271 0.0
H501 H 0.47695 0.78156 0.83968 0.0
H502 H 0.38803 0.80767 0.80241 0.0
H503 H 0.36955 0.8295 0.74904 0.0
C504 C 0.63539 0.21322 0.59212 0.0
C505 C 0.62352 0.26163 0.59663 0.0
C506 C 0.6031 0.19909 0.61871 0.0
C507 C 0.55862 0.23327 0.65047 0.0
C508 C 0.54331 0.28039 0.65328 0.0
C509 C 0.5762 0.29469 0.62702 0.0
C510 C 0.53028 0.22217 0.68225 0.0
C511 C 0.56806 0.1944 0.69513 0.0
C512 C 0.54713 0.18802 0.73044 0.0
C513 C 0.60152 0.17409 0.7491 0.0
C514 C 0.58528 0.16722 0.78209 0.0
C515 C 0.51377 0.17348 0.79723 0.0
H516 H 0.43149 0.20427 0.73163 0.0
C517 C 0.45905 0.18756 0.77866 0.0
C518 C 0.47543 0.19466 0.7456 0.0
H519 H 0.40317 0.19196 0.78907 0.0
H520 H 0.67216 0.18709 0.56934 0.0
H521 H 0.61441 0.16185 0.61487 0.0
H522 H 0.5087 0.30728 0.67713 0.0
H523 H 0.56648 0.33232 0.63125 0.0
H524 H 0.4814 0.24198 0.6982 0.0
H525 H 0.62027 0.17863 0.68112 0.0
H526 H 0.65725 0.16881 0.73829 0.0
H527 H 0.62919 0.15725 0.79591 0.0
C528 C 0.90523 0.78079 0.12224 0.0
C529 C 0.85757 0.75132 0.09102 0.0
C530 C 0.93598 0.7616 0.14571 0.0
C531 C 0.9183 0.71276 0.1389 0.0
C532 C 0.87392 0.68238 0.10622 0.0
C533 C 0.8431 0.70164 0.08282 0.0
C534 C 0.94136 0.69345 0.16651 0.0
C535 C 0.95139 0.72426 0.20602 0.0
C536 C 0.96473 0.70728 0.23636 0.0
C537 C 0.96326 0.74394 0.27697 0.0
C538 C 0.97366 0.73061 0.30699 0.0
C539 C 0.98593 0.68012 0.29724 0.0
H540 H 0.98045 0.62697 0.19576 0.0
C541 C 0.9877 0.64321 0.25668 0.0
C542 C 0.97759 0.65658 0.22649 0.0
H543 H -0.00189 0.60407 0.24823 0.0
H544 H 0.9172 0.81922 0.12912 0.0
H545 H 0.97224 0.78555 0.16964 0.0
H546 H 0.8599 0.64449 0.10002 0.0
H547 H 0.80554 0.67826 0.0596 0.0
H548 H 0.94264 0.65289 0.15447 0.0
H549 H 0.94486 0.76461 0.21761 0.0
H550 H 0.95342 0.78324 0.28567 0.0
H551 H 0.97121 0.7599 0.33797 0.0
C552 C 0.8396 0.30647 0.44669 0.0
C553 C 0.84954 0.2575 0.44133 0.0
C554 C 0.87406 0.32128 0.42105 0.0
C555 C 0.91871 0.28718 0.38935 0.0
C556 C 0.93182 0.23932 0.38561 0.0
C557 C 0.89683 0.2244 0.41095 0.0
C558 C 0.94952 0.29922 0.35858 0.0
C559 C 0.91399 0.32844 0.34629 0.0
C560 C 0.93731 0.33579 0.31178 0.0
C561 C 0.88464 0.35082 0.29298 0.0
C562 C 0.90314 0.35845 0.26062 0.0
C563 C 0.97529 0.35189 0.24633 0.0
H564 H 0.05231 0.31852 0.31168 0.0
C565 C 0.02831 0.33682 0.2651 0.0
C566 C 0.00964 0.32893 0.29751 0.0
H567 H 0.08462 0.33219 0.25534 0.0
H568 H 0.80292 0.33267 0.46949 0.0
H569 H 0.8644 0.35902 0.42562 0.0
H570 H 0.96647 0.21247 0.36177 0.0
H571 H 0.9051 0.18635 0.40609 0.0
H572 H -0.00173 0.279 0.34275 0.0
H573 H 0.86179 0.34466 0.36002 0.0
H574 H 0.82849 0.35631 0.30316 0.0
H575 H 0.86049 0.36918 0.24661 0.0
C576 C 0.04872 0.35042 0.76429 0.0
C577 C 0.98045 0.34283 0.74565 0.0
C578 C 0.06007 0.33805 0.79489 0.0
C579 C 0.00335 0.31771 0.80768 0.0
C580 C 0.93532 0.30984 0.78899 0.0
C581 C 0.92375 0.32261 0.7586 0.0
C582 C 0.01505 0.30133 0.83847 0.0
C583 C 0.06462 0.32293 0.86791 0.0
C584 C 0.08412 0.30394 0.89634 0.0
C585 C 0.12466 0.3354 0.9305 0.0
C586 C 0.15345 0.31708 0.95498 0.0
C587 C 0.14185 0.26688 0.94616 0.0
H588 H 0.04082 0.22803 0.86186 0.0
C589 C 0.09909 0.23581 0.91289 0.0
C590 C 0.07035 0.25405 0.88824 0.0
H591 H 0.09027 0.1967 0.90504 0.0
H592 H 0.0942 0.36477 0.75458 0.0
H593 H 0.11404 0.34303 0.80751 0.0
H594 H 0.89082 0.29388 0.79801 0.0
H595 H 0.87014 0.31683 0.74542 0.0
H596 H 0.98096 0.2711 0.83689 0.0
H597 H 0.09339 0.35615 0.87129 0.0
H598 H 0.13662 0.37386 0.93746 0.0
H599 H 0.18746 0.34177 0.97963 0.0
C600 C 0.13715 0.70916 0.59042 0.0
C601 C 0.12624 0.75872 0.59734 0.0
C602 C 0.10333 0.69246 0.61496 0.0
C603 C 0.0587 0.72531 0.64721 0.0
C604 C 0.04466 0.77383 0.65257 0.0
C605 C 0.07886 0.7906 0.62822 0.0
C606 C 0.02953 0.71143 0.67718 0.0
C607 C 0.06647 0.68133 0.68802 0.0
C608 C 0.04552 0.67318 0.72236 0.0
C609 C 0.09989 0.65857 0.74056 0.0
C610 C 0.08374 0.65153 0.77345 0.0
C611 C 0.01239 0.65836 0.78882 0.0
H612 H 0.92988 0.68943 0.72355 0.0
C613 C 0.95753 0.67232 0.77029 0.0
C614 C 0.9738 0.67956 0.73737 0.0
H615 H 0.90172 0.67694 0.78084 0.0
H616 H 0.17405 0.68392 0.56723 0.0
H617 H 0.11364 0.65427 0.60918 0.0
H618 H 0.01003 0.79975 0.67692 0.0
H619 H 0.06995 0.82907 0.63425 0.0
H620 H 0.98125 0.73129 0.69389 0.0
H621 H 0.11833 0.6655 0.67354 0.0
H622 H 0.15558 0.65334 0.7297 0.0
H623 H 0.12762 0.64146 0.78722 0.0
loop_
_geom_bond_atom_site_label_1
_geom_bond_atom_site_label_2
_geom_bond_distance
_geom_bond_site_symmetry_2
_ccdc_geom_bond_type
Tb0 N31 2.660 . S
Tb0 N38 2.600 . S
Tb0 O44 2.546 . S
Tb0 O45 2.610 . S
Tb0 O47 2.320 . S
Tb0 O48 2.552 . S
Tb0 O49 2.413 . S
Tb0 O51 2.362 1_554 S
Tb0 O52 2.421 . S
Tb0 C64 2.833 . S
C1 C4 1.432 . S
C1 C5 1.414 . S
C1 N8 1.359 . S
C2 C4 1.417 1_554 S
C2 C6 1.432 . S
C2 C14 1.410 . S
C3 C5 1.444 . S
C3 C6 1.317 1_556 S
C3 H26 0.929 . S
C4 C1 1.432 . S
C4 C2 1.417 1_556 S
C4 N12 1.360 . S
C5 C1 1.414 . S
C5 C3 1.444 . S
C5 C10 1.385 . S
C6 C2 1.432 . S
C6 C3 1.317 1_554 S
C6 H18 0.930 . S
C7 C9 1.392 . S
C7 C10 1.370 . S
C7 H19 0.931 . S
N8 C1 1.359 . S
N8 C9 1.327 . S
N8 Tb11 2.600 . S
C9 C7 1.392 . S
C9 N8 1.327 . S
C9 H16 0.930 . S
C10 C5 1.385 . S
C10 C7 1.370 . S
C10 H29 0.930 . S
Tb11 N8 2.600 . S
Tb11 N12 2.660 . S
Tb11 O45 2.362 1_556 S
Tb11 O46 2.421 . S
Tb11 O50 2.546 . S
Tb11 O51 2.610 . S
Tb11 O53 2.320 . S
Tb11 O54 2.552 . S
Tb11 O55 2.413 . S
Tb11 C75 2.833 . S
N12 C4 1.360 . S
N12 Tb11 2.660 . S
N12 C13 1.305 1_556 S
C13 N12 1.305 1_554 S
C13 C15 1.407 . S
C13 H20 0.930 . S
C14 C2 1.410 . S
C14 C15 1.345 . S
C14 H22 0.930 . S
C15 C13 1.407 . S
C15 C14 1.345 . S
C15 H17 0.930 . S
H16 C9 0.930 . S
H17 C15 0.930 . S
H18 C6 0.930 . S
H19 C7 0.931 . S
H20 C13 0.930 . S
H21 C35 0.930 . S
H22 C14 0.930 . S
H23 C41 0.930 . S
H24 C32 0.930 . S
H25 C39 0.931 . S
H26 C3 0.929 . S
H27 C33 0.930 . S
H28 C66 0.930 . S
H29 C10 0.930 . S
H30 C65 0.929 . S
N31 Tb0 2.660 . S
N31 C32 1.305 1_554 S
N31 C36 1.360 . S
C32 H24 0.930 . S
C32 N31 1.305 1_556 S
C32 C35 1.407 1_455 S
C33 H27 0.930 . S
C33 C34 1.410 . S
C33 C35 1.345 . S
C34 C33 1.410 . S
C34 C36 1.417 1_656 S
C34 C66 1.432 . S
C35 H21 0.930 . S
C35 C32 1.407 1_655 S
C35 C33 1.345 . S
C36 N31 1.360 . S
C36 C34 1.417 1_454 S
C36 C40 1.432 . S
H37 C42 0.930 . S
N38 Tb0 2.600 . S
N38 C40 1.359 . S
N38 C41 1.327 . S
C39 H25 0.931 . S
C39 C41 1.392 . S
C39 C42 1.370 . S
C40 C36 1.432 . S
C40 N38 1.359 . S
C40 C43 1.414 . S
C41 H23 0.930 . S
C41 N38 1.327 . S
C41 C39 1.392 . S
C42 H37 0.930 . S
C42 C39 1.370 . S
C42 C43 1.385 . S
C43 C40 1.414 . S
C43 C42 1.385 . S
C43 C65 1.444 1_455 S
O44 Tb0 2.546 . S
O44 C64 1.251 . S
O45 Tb0 2.610 . S
O45 Tb11 2.362 1_554 S
O45 C56 1.283 . S
O46 Tb11 2.421 . S
O46 C63 1.262 . S
O47 Tb0 2.320 . S
O47 C63 1.260 1_554 S
O48 Tb0 2.552 . S
O48 C56 1.243 . S
O49 Tb0 2.413 . S
O49 C64 1.256 . S
O50 Tb11 2.546 . S
O50 C75 1.251 . S
O51 Tb0 2.362 1_556 S
O51 Tb11 2.610 . S
O51 C67 1.283 . S
O52 Tb0 2.421 . S
O52 C74 1.262 . S
O53 Tb11 2.320 . S
O53 C74 1.260 1_556 S
O54 Tb11 2.552 . S
O54 C67 1.243 . S
O55 Tb11 2.413 . S
O55 C75 1.256 . S
C56 O45 1.283 . S
C56 O48 1.243 . S
C57 C59 1.382 . S
C57 C61 1.393 . S
C57 C64 1.500 . S
C58 C59 1.400 . S
C58 C60 1.384 . S
C59 C57 1.382 . S
C59 C58 1.400 . S
C59 H76 0.930 . S
C60 C58 1.384 . S
C60 C62 1.392 . S
C60 H77 0.931 1_455 S
C61 C57 1.393 . S
C61 C62 1.401 . S
C61 H78 0.930 . S
C62 C60 1.392 . S
C62 C61 1.401 . S
C62 H79 0.930 . S
C63 O46 1.262 . S
C63 O47 1.260 1_556 S
C64 Tb0 2.833 . S
C64 O44 1.251 . S
C64 O49 1.256 . S
C64 C57 1.500 . S
C65 H30 0.929 . S
C65 C43 1.444 1_655 S
C65 C66 1.317 1_554 S
C66 H28 0.930 . S
C66 C34 1.432 . S
C66 C65 1.317 1_556 S
C67 O51 1.283 . S
C67 O54 1.243 . S
C68 C69 1.382 . S
C68 C72 1.393 . S
C68 C75 1.500 . S
C69 C68 1.382 . S
C69 C70 1.400 . S
C69 H80 0.930 . S
C70 C69 1.400 . S
C70 C71 1.384 . S
C71 C70 1.384 . S
C71 C73 1.392 . S
C71 H81 0.931 . S
C72 C68 1.393 . S
C72 C73 1.401 . S
C72 H82 0.930 . S
C73 C71 1.392 . S
C73 C72 1.401 . S
C73 H83 0.930 . S
C74 O52 1.262 . S
C74 O53 1.260 1_554 S
C75 Tb11 2.833 . S
C75 O50 1.251 . S
C75 O55 1.256 . S
C75 C68 1.500 . S
H76 C59 0.930 . S
H77 C60 0.931 1_655 S
H78 C61 0.930 . S
H79 C62 0.930 . S
H80 C69 0.930 . S
H81 C71 0.931 . S
H82 C72 0.930 . S
H83 C73 0.930 . S
Tb84 N115 2.660 . S
Tb84 N122 2.600 . S
Tb84 O128 2.546 . S
Tb84 O129 2.610 . S
Tb84 O131 2.320 . S
Tb84 O132 2.552 . S
Tb84 O133 2.413 . S
Tb84 O135 2.362 1_554 S
Tb84 O136 2.421 . S
Tb84 C148 2.833 . S
C85 C88 1.432 . S
C85 C89 1.414 . S
C85 N92 1.359 . S
C86 C88 1.417 1_454 S
C86 C90 1.432 . S
C86 C98 1.410 . S
C87 C89 1.444 1_455 S
C87 C90 1.317 1_556 S
C87 H110 0.929 . S
C88 C85 1.432 . S
C88 C86 1.417 1_656 S
C88 N96 1.360 . S
C89 C85 1.414 . S
C89 C87 1.444 1_655 S
C89 C94 1.385 . S
C90 C86 1.432 . S
C90 C87 1.317 1_554 S
C90 H102 0.930 . S
C91 C93 1.392 . S
C91 C94 1.370 . S
C91 H103 0.931 . S
N92 C85 1.359 . S
N92 C93 1.327 . S
N92 Tb95 2.600 . S
C93 C91 1.392 . S
C93 N92 1.327 . S
C93 H100 0.930 . S
C94 C89 1.385 . S
C94 C91 1.370 . S
C94 H113 0.930 . S
Tb95 N92 2.600 . S
Tb95 N96 2.660 . S
Tb95 O129 2.362 1_556 S
Tb95 O130 2.421 . S
Tb95 O134 2.546 . S
Tb95 O135 2.610 . S
Tb95 O137 2.320 . S
Tb95 O138 2.552 . S
Tb95 O139 2.413 . S
Tb95 C159 2.833 . S
N96 C88 1.360 . S
N96 Tb95 2.660 . S
N96 C97 1.305 1_556 S
C97 N96 1.305 1_554 S
C97 C99 1.407 1_655 S
C97 H104 0.930 . S
C98 C86 1.410 . S
C98 C99 1.345 . S
C98 H106 0.930 . S
C99 C97 1.407 1_455 S
C99 C98 1.345 . S
C99 H101 0.930 . S
H100 C93 0.930 . S
H101 C99 0.930 . S
H102 C90 0.930 . S
H103 C91 0.931 . S
H104 C97 0.930 . S
H105 C119 0.930 . S
H106 C98 0.930 . S
H107 C125 0.930 . S
H108 C116 0.930 . S
H109 C123 0.931 . S
H110 C87 0.929 . S
H111 C117 0.930 . S
H112 C150 0.930 . S
H113 C94 0.930 . S
H114 C149 0.929 . S
N115 Tb84 2.660 . S
N115 C116 1.305 1_554 S
N115 C120 1.360 . S
C116 H108 0.930 . S
C116 N115 1.305 1_556 S
C116 C119 1.407 . S
C117 H111 0.930 . S
C117 C118 1.410 . S
C117 C119 1.345 . S
C118 C117 1.410 . S
C118 C120 1.417 1_556 S
C118 C150 1.432 . S
C119 H105 0.930 . S
C119 C116 1.407 . S
C119 C117 1.345 . S
C120 N115 1.360 . S
C120 C118 1.417 1_554 S
C120 C124 1.432 . S
H121 C126 0.930 . S
N122 Tb84 2.600 . S
N122 C124 1.359 . S
N122 C125 1.327 . S
C123 H109 0.931 . S
C123 C125 1.392 . S
C123 C126 1.370 . S
C124 C120 1.432 . S
C124 N122 1.359 . S
C124 C127 1.414 . S
C125 H107 0.930 . S
C125 N122 1.327 . S
C125 C123 1.392 . S
C126 H121 0.930 . S
C126 C123 1.370 . S
C126 C127 1.385 . S
C127 C124 1.414 . S
C127 C126 1.385 . S
C127 C149 1.444 . S
O128 Tb84 2.546 . S
O128 C148 1.251 . S
O129 Tb84 2.610 . S
O129 Tb95 2.362 1_554 S
O129 C140 1.283 . S
O130 Tb95 2.421 . S
O130 C147 1.262 . S
O131 Tb84 2.320 . S
O131 C147 1.260 1_554 S
O132 Tb84 2.552 . S
O132 C140 1.243 . S
O133 Tb84 2.413 . S
O133 C148 1.256 . S
O134 Tb95 2.546 . S
O134 C159 1.251 . S
O135 Tb84 2.362 1_556 S
O135 Tb95 2.610 . S
O135 C151 1.283 . S
O136 Tb84 2.421 . S
O136 C158 1.262 . S
O137 Tb95 2.320 . S
O137 C158 1.260 1_556 S
O138 Tb95 2.552 . S
O138 C151 1.243 . S
O139 Tb95 2.413 . S
O139 C159 1.256 . S
C140 O129 1.283 . S
C140 O132 1.243 . S
C141 C143 1.382 . S
C141 C145 1.393 . S
C141 C148 1.500 . S
C142 C143 1.400 . S
C142 C144 1.384 . S
C143 C141 1.382 . S
C143 C142 1.400 . S
C143 H160 0.930 . S
C144 C142 1.384 . S
C144 C146 1.392 . S
C144 H161 0.931 . S
C145 C141 1.393 . S
C145 C146 1.401 . S
C145 H162 0.930 . S
C146 C144 1.392 . S
C146 C145 1.401 . S
C146 H163 0.930 . S
C147 O130 1.262 . S
C147 O131 1.260 1_556 S
C148 Tb84 2.833 . S
C148 O128 1.251 . S
C148 O133 1.256 . S
C148 C141 1.500 . S
C149 H114 0.929 . S
C149 C127 1.444 . S
C149 C150 1.317 1_554 S
C150 H112 0.930 . S
C150 C118 1.432 . S
C150 C149 1.317 1_556 S
C151 O135 1.283 . S
C151 O138 1.243 . S
C152 C153 1.382 . S
C152 C156 1.393 . S
C152 C159 1.500 . S
C153 C152 1.382 . S
C153 C154 1.400 . S
C153 H164 0.930 . S
C154 C153 1.400 . S
C154 C155 1.384 . S
C155 C154 1.384 . S
C155 C157 1.392 . S
C155 H165 0.931 1_655 S
C156 C152 1.393 . S
C156 C157 1.401 . S
C156 H166 0.930 . S
C157 C155 1.392 . S
C157 C156 1.401 . S
C157 H167 0.930 . S
C158 O136 1.262 . S
C158 O137 1.260 1_554 S
C159 Tb95 2.833 . S
C159 O134 1.251 . S
C159 O139 1.256 . S
C159 C152 1.500 . S
H160 C143 0.930 . S
H161 C144 0.931 . S
H162 C145 0.930 . S
H163 C146 0.930 . S
H164 C153 0.930 . S
H165 C155 0.931 1_455 S
H166 C156 0.930 . S
H167 C157 0.930 . S
Tb168 N199 2.660 . S
Tb168 N206 2.600 . S
Tb168 O212 2.546 . S
Tb168 O213 2.610 . S
Tb168 O215 2.320 . S
Tb168 O216 2.552 . S
Tb168 O217 2.413 . S
Tb168 O219 2.362 . S
Tb168 O220 2.421 . S
Tb168 C232 2.833 . S
C169 C172 1.432 . S
C169 C173 1.414 . S
C169 N176 1.359 . S
C170 C172 1.417 . S
C170 C174 1.432 . S
C170 C182 1.410 . S
C171 C173 1.444 . S
C171 C174 1.317 . S
C171 H194 0.929 . S
C172 C169 1.432 . S
C172 C170 1.417 . S
C172 N180 1.360 . S
C173 C169 1.414 . S
C173 C171 1.444 . S
C173 C178 1.385 . S
C174 C170 1.432 . S
C174 C171 1.317 . S
C174 H186 0.930 . S
C175 C177 1.392 . S
C175 C178 1.370 . S
C175 H187 0.931 . S
N176 C169 1.359 . S
N176 C177 1.327 . S
N176 Tb179 2.600 . S
C177 C175 1.392 . S
C177 N176 1.327 . S
C177 H184 0.930 . S
C178 C173 1.385 . S
C178 C175 1.370 . S
C178 H197 0.930 . S
Tb179 N176 2.600 . S
Tb179 N180 2.660 . S
Tb179 O213 2.362 . S
Tb179 O214 2.421 . S
Tb179 O218 2.546 . S
Tb179 O219 2.610 . S
Tb179 O221 2.320 . S
Tb179 O222 2.552 . S
Tb179 O223 2.413 . S
Tb179 C243 2.833 . S
N180 C172 1.360 . S
N180 Tb179 2.660 . S
N180 C181 1.305 . S
C181 N180 1.305 . S
C181 C183 1.407 . S
C181 H188 0.930 . S
C182 C170 1.410 . S
C182 C183 1.345 . S
C182 H190 0.930 . S
C183 C181 1.407 . S
C183 C182 1.345 . S
C183 H185 0.930 . S
H184 C177 0.930 . S
H185 C183 0.930 . S
H186 C174 0.930 . S
H187 C175 0.931 . S
H188 C181 0.930 . S
H189 C203 0.930 . S
H190 C182 0.930 . S
H191 C209 0.930 . S
H192 C200 0.930 . S
H193 C207 0.931 . S
H194 C171 0.929 . S
H195 C201 0.930 . S
H196 C234 0.930 . S
H197 C178 0.930 . S
H198 C233 0.929 . S
N199 Tb168 2.660 . S
N199 C200 1.305 . S
N199 C204 1.360 . S
C200 H192 0.930 . S
C200 N199 1.305 . S
C200 C203 1.407 1_455 S
C201 H195 0.930 . S
C201 C202 1.410 . S
C201 C203 1.345 . S
C202 C201 1.410 . S
C202 C204 1.417 1_655 S
C202 C234 1.432 . S
C203 H189 0.930 . S
C203 C200 1.407 1_655 S
C203 C201 1.345 . S
C204 N199 1.360 . S
C204 C202 1.417 1_455 S
C204 C208 1.432 . S
H205 C210 0.930 . S
N206 Tb168 2.600 . S
N206 C208 1.359 . S
N206 C209 1.327 . S
C207 H193 0.931 . S
C207 C209 1.392 . S
C207 C210 1.370 . S
C208 C204 1.432 . S
C208 N206 1.359 . S
C208 C211 1.414 . S
C209 H191 0.930 . S
C209 N206 1.327 . S
C209 C207 1.392 . S
C210 H205 0.930 . S
C210 C207 1.370 . S
C210 C211 1.385 . S
C211 C208 1.414 . S
C211 C210 1.385 . S
C211 C233 1.444 1_455 S
O212 Tb168 2.546 . S
O212 C232 1.251 . S
O213 Tb168 2.610 . S
O213 Tb179 2.362 . S
O213 C224 1.283 . S
O214 Tb179 2.421 . S
O214 C231 1.262 . S
O215 Tb168 2.320 . S
O215 C231 1.260 . S
O216 Tb168 2.552 . S
O216 C224 1.243 . S
O217 Tb168 2.413 . S
O217 C232 1.256 . S
O218 Tb179 2.546 . S
O218 C243 1.251 . S
O219 Tb168 2.362 . S
O219 Tb179 2.610 . S
O219 C235 1.283 . S
O220 Tb168 2.421 . S
O220 C242 1.262 . S
O221 Tb179 2.320 . S
O221 C242 1.260 . S
O222 Tb179 2.552 . S
O222 C235 1.243 . S
O223 Tb179 2.413 . S
O223 C243 1.256 . S
C224 O213 1.283 . S
C224 O216 1.243 . S
C225 C227 1.382 . S
C225 C229 1.393 . S
C225 C232 1.500 . S
C226 C227 1.400 . S
C226 C228 1.384 . S
C227 C225 1.382 . S
C227 C226 1.400 . S
C227 H244 0.930 . S
C228 C226 1.384 . S
C228 C230 1.392 . S
C228 H245 0.931 1_455 S
C229 C225 1.393 . S
C229 C230 1.401 . S
C229 H246 0.930 . S
C230 C228 1.392 . S
C230 C229 1.401 . S
C230 H247 0.930 . S
C231 O214 1.262 . S
C231 O215 1.260 . S
C232 Tb168 2.833 . S
C232 O212 1.251 . S
C232 O217 1.256 . S
C232 C225 1.500 . S
C233 H198 0.929 . S
C233 C211 1.444 1_655 S
C233 C234 1.317 . S
C234 H196 0.930 . S
C234 C202 1.432 . S
C234 C233 1.317 . S
C235 O219 1.283 . S
C235 O222 1.243 . S
C236 C237 1.382 . S
C236 C240 1.393 . S
C236 C243 1.500 . S
C237 C236 1.382 . S
C237 C238 1.400 . S
C237 H248 0.930 . S
C238 C237 1.400 . S
C238 C239 1.384 . S
C239 C238 1.384 . S
C239 C241 1.392 . S
C239 H249 0.931 . S
C240 C236 1.393 . S
C240 C241 1.401 . S
C240 H250 0.930 . S
C241 C239 1.392 . S
C241 C240 1.401 . S
C241 H251 0.930 . S
C242 O220 1.262 . S
C242 O221 1.260 . S
C243 Tb179 2.833 . S
C243 O218 1.251 . S
C243 O223 1.256 . S
C243 C236 1.500 . S
H244 C227 0.930 . S
H245 C228 0.931 1_655 S
H246 C229 0.930 . S
H247 C230 0.930 . S
H248 C237 0.930 . S
H249 C239 0.931 . S
H250 C240 0.930 . S
H251 C241 0.930 . S
Tb252 N283 2.660 . S
Tb252 N290 2.600 . S
Tb252 O296 2.546 . S
Tb252 O297 2.610 . S
Tb252 O299 2.320 . S
Tb252 O300 2.552 . S
Tb252 O301 2.413 . S
Tb252 O303 2.362 . S
Tb252 O304 2.421 . S
Tb252 C316 2.833 . S
C253 C256 1.432 . S
C253 C257 1.414 . S
C253 N260 1.359 . S
C254 C256 1.417 1_455 S
C254 C258 1.432 . S
C254 C266 1.410 . S
C255 C257 1.444 1_455 S
C255 C258 1.317 . S
C255 H278 0.929 . S
C256 C253 1.432 . S
C256 C254 1.417 1_655 S
C256 N264 1.360 . S
C257 C253 1.414 . S
C257 C255 1.444 1_655 S
C257 C262 1.385 . S
C258 C254 1.432 . S
C258 C255 1.317 . S
C258 H270 0.930 . S
C259 C261 1.392 . S
C259 C262 1.370 . S
C259 H271 0.931 . S
N260 C253 1.359 . S
N260 C261 1.327 . S
N260 Tb263 2.600 . S
C261 C259 1.392 . S
C261 N260 1.327 . S
C261 H268 0.930 . S
C262 C257 1.385 . S
C262 C259 1.370 . S
C262 H281 0.930 . S
Tb263 N260 2.600 . S
Tb263 N264 2.660 . S
Tb263 O297 2.362 . S
Tb263 O298 2.421 . S
Tb263 O302 2.546 . S
Tb263 O303 2.610 . S
Tb263 O305 2.320 . S
Tb263 O306 2.552 . S
Tb263 O307 2.413 . S
Tb263 C327 2.833 . S
N264 C256 1.360 . S
N264 Tb263 2.660 . S
N264 C265 1.305 . S
C265 N264 1.305 . S
C265 C267 1.407 1_655 S
C265 H272 0.930 . S
C266 C254 1.410 . S
C266 C267 1.345 . S
C266 H274 0.930 . S
C267 C265 1.407 1_455 S
C267 C266 1.345 . S
C267 H269 0.930 . S
H268 C261 0.930 . S
H269 C267 0.930 . S
H270 C258 0.930 . S
H271 C259 0.931 . S
H272 C265 0.930 . S
H273 C287 0.930 . S
H274 C266 0.930 . S
H275 C293 0.930 . S
H276 C284 0.930 . S
H277 C291 0.931 . S
H278 C255 0.929 . S
H279 C285 0.930 . S
H280 C318 0.930 . S
H281 C262 0.930 . S
H282 C317 0.929 . S
N283 Tb252 2.660 . S
N283 C284 1.305 . S
N283 C288 1.360 . S
C284 H276 0.930 . S
C284 N283 1.305 . S
C284 C287 1.407 . S
C285 H279 0.930 . S
C285 C286 1.410 . S
C285 C287 1.345 . S
C286 C285 1.410 . S
C286 C288 1.417 . S
C286 C318 1.432 . S
C287 H273 0.930 . S
C287 C284 1.407 . S
C287 C285 1.345 . S
C288 N283 1.360 . S
C288 C286 1.417 . S
C288 C292 1.432 . S
H289 C294 0.930 . S
N290 Tb252 2.600 . S
N290 C292 1.359 . S
N290 C293 1.327 . S
C291 H277 0.931 . S
C291 C293 1.392 . S
C291 C294 1.370 . S
C292 C288 1.432 . S
C292 N290 1.359 . S
C292 C295 1.414 . S
C293 H275 0.930 . S
C293 N290 1.327 . S
C293 C291 1.392 . S
C294 H289 0.930 . S
C294 C291 1.370 . S
C294 C295 1.385 . S
C295 C292 1.414 . S
C295 C294 1.385 . S
C295 C317 1.444 . S
O296 Tb252 2.546 . S
O296 C316 1.251 . S
O297 Tb252 2.610 . S
O297 Tb263 2.362 . S
O297 C308 1.283 . S
O298 Tb263 2.421 . S
O298 C315 1.262 . S
O299 Tb252 2.320 . S
O299 C315 1.260 . S
O300 Tb252 2.552 . S
O300 C308 1.243 . S
O301 Tb252 2.413 . S
O301 C316 1.256 . S
O302 Tb263 2.546 . S
O302 C327 1.251 . S
O303 Tb252 2.362 . S
O303 Tb263 2.610 . S
O303 C319 1.283 . S
O304 Tb252 2.421 . S
O304 C326 1.262 . S
O305 Tb263 2.320 . S
O305 C326 1.260 . S
O306 Tb263 2.552 . S
O306 C319 1.243 . S
O307 Tb263 2.413 . S
O307 C327 1.256 . S
C308 O297 1.283 . S
C308 O300 1.243 . S
C309 C311 1.382 . S
C309 C313 1.393 . S
C309 C316 1.500 . S
C310 C311 1.400 . S
C310 C312 1.384 . S
C311 C309 1.382 . S
C311 C310 1.400 . S
C311 H328 0.930 . S
C312 C310 1.384 . S
C312 C314 1.392 . S
C312 H329 0.931 . S
C313 C309 1.393 . S
C313 C314 1.401 . S
C313 H330 0.930 . S
C314 C312 1.392 . S
C314 C313 1.401 . S
C314 H331 0.930 . S
C315 O298 1.262 . S
C315 O299 1.260 . S
C316 Tb252 2.833 . S
C316 O296 1.251 . S
C316 O301 1.256 . S
C316 C309 1.500 . S
C317 H282 0.929 . S
C317 C295 1.444 . S
C317 C318 1.317 . S
C318 H280 0.930 . S
C318 C286 1.432 . S
C318 C317 1.317 . S
C319 O303 1.283 . S
C319 O306 1.243 . S
C320 C321 1.382 . S
C320 C324 1.393 . S
C320 C327 1.500 . S
C321 C320 1.382 . S
C321 C322 1.400 . S
C321 H332 0.930 . S
C322 C321 1.400 . S
C322 C323 1.384 . S
C323 C322 1.384 . S
C323 C325 1.392 . S
C323 H333 0.931 1_655 S
C324 C320 1.393 . S
C324 C325 1.401 . S
C324 H334 0.930 . S
C325 C323 1.392 . S
C325 C324 1.401 . S
C325 H335 0.930 . S
C326 O304 1.262 . S
C326 O305 1.260 . S
C327 Tb263 2.833 . S
C327 O302 1.251 . S
C327 O307 1.256 . S
C327 C320 1.500 . S
H328 C311 0.930 . S
H329 C312 0.931 . S
H330 C313 0.930 . S
H331 C314 0.930 . S
H332 C321 0.930 . S
H333 C323 0.931 1_455 S
H334 C324 0.930 . S
H335 C325 0.930 . S
C336 C337 1.386 1_554 S
C336 C338 1.383 . S
C336 H352 0.951 . S
C337 C336 1.386 1_556 S
C337 C341 1.383 . S
C338 C336 1.383 . S
C338 C339 1.402 1_554 S
C338 H353 0.951 . S
C339 C338 1.402 1_556 S
C339 C340 1.375 . S
C339 C342 1.481 . S
C340 C339 1.375 . S
C340 C341 1.367 . S
C340 H354 0.951 . S
C341 C337 1.383 . S
C341 C340 1.367 . S
C341 H355 0.950 . S
C342 C339 1.481 . S
C342 C343 1.297 . S
C342 H356 0.950 . S
C343 C342 1.297 . S
C343 C344 1.479 . S
C343 H357 0.950 1_556 S
C344 C343 1.479 . S
C344 C345 1.375 1_556 S
C344 C350 1.404 . S
C345 C344 1.375 1_554 S
C345 C346 1.369 . S
C345 H358 0.950 . S
C346 C345 1.369 . S
C346 C347 1.397 . S
C346 H359 0.951 . S
C347 C346 1.397 . S
C347 C349 1.367 1_554 S
H348 C350 0.949 . S
C349 C347 1.367 1_556 S
C349 C350 1.385 . S
C349 H351 0.950 . S
C350 C344 1.404 . S
C350 H348 0.949 . S
C350 C349 1.385 . S
H351 C349 0.950 . S
H352 C336 0.951 . S
H353 C338 0.951 . S
H354 C340 0.951 . S
H355 C341 0.950 . S
H356 C342 0.950 . S
H357 C343 0.950 1_554 S
H358 C345 0.950 . S
H359 C346 0.951 . S
C360 C361 1.386 . S
C360 C362 1.383 . S
C360 H376 0.951 . S
C361 C360 1.386 . S
C361 C365 1.383 . S
C362 C360 1.383 . S
C362 C363 1.402 . S
C362 H377 0.951 . S
C363 C362 1.402 . S
C363 C364 1.375 . S
C363 C366 1.481 . S
C364 C363 1.375 . S
C364 C365 1.367 . S
C364 H378 0.951 . S
C365 C361 1.383 . S
C365 C364 1.367 . S
C365 H379 0.950 . S
C366 C363 1.481 . S
C366 C367 1.297 . S
C366 H380 0.950 . S
C367 C366 1.297 . S
C367 C368 1.479 . S
C367 H381 0.950 . S
C368 C367 1.479 . S
C368 C369 1.375 . S
C368 C374 1.404 . S
C369 C368 1.375 . S
C369 C370 1.369 . S
C369 H382 0.950 . S
C370 C369 1.369 . S
C370 C371 1.392 . S
C370 H383 0.951 . S
C371 C370 1.392 . S
C371 C373 1.384 . S
H372 C374 0.949 . S
C373 C371 1.384 . S
C373 C374 1.385 . S
C373 H375 0.950 . S
C374 C368 1.404 . S
C374 H372 0.949 . S
C374 C373 1.385 . S
H375 C373 0.950 . S
H376 C360 0.951 . S
H377 C362 0.951 . S
H378 C364 0.951 . S
H379 C365 0.950 . S
H380 C366 0.950 . S
H381 C367 0.950 . S
H382 C369 0.950 . S
H383 C370 0.951 . S
C384 C385 1.386 1_554 S
C384 C386 1.383 . S
C384 H400 0.951 . S
C385 C384 1.386 1_556 S
C385 C389 1.383 . S
C386 C384 1.383 . S
C386 C387 1.402 1_554 S
C386 H401 0.951 1_455 S
C387 C386 1.402 1_556 S
C387 C388 1.375 . S
C387 C390 1.481 1_545 S
C388 C387 1.375 . S
C388 C389 1.367 . S
C388 H402 0.951 . S
C389 C385 1.383 . S
C389 C388 1.367 . S
C389 H403 0.950 . S
C390 C387 1.481 1_565 S
C390 C391 1.297 1_455 S
C390 H404 0.950 . S
C391 C390 1.297 1_655 S
C391 C392 1.479 . S
C391 H405 0.950 1_565 S
C392 C391 1.479 . S
C392 C393 1.375 1_556 S
C392 C398 1.404 . S
C393 C392 1.375 1_554 S
C393 C394 1.369 . S
C393 H406 0.950 . S
C394 C393 1.369 . S
C394 C395 1.400 1_554 S
C394 H407 0.951 . S
C395 C394 1.400 1_556 S
C395 C397 1.396 . S
H396 C398 0.949 1_455 S
C397 C395 1.396 . S
C397 C398 1.385 . S
C397 H399 0.950 . S
C398 C392 1.404 . S
C398 H396 0.949 1_655 S
C398 C397 1.385 . S
H399 C397 0.950 . S
H400 C384 0.951 . S
H401 C386 0.951 1_655 S
H402 C388 0.951 . S
H403 C389 0.950 . S
H404 C390 0.950 . S
H405 C391 0.950 1_545 S
H406 C393 0.950 . S
H407 C394 0.951 . S
C408 C409 1.386 . S
C408 C410 1.383 . S
C408 H424 0.951 . S
C409 C408 1.386 . S
C409 C413 1.383 . S
C410 C408 1.383 . S
C410 C411 1.402 . S
C410 H425 0.951 1_655 S
C411 C410 1.402 . S
C411 C412 1.375 . S
C411 C414 1.481 . S
C412 C411 1.375 . S
C412 C413 1.367 . S
C412 H426 0.951 . S
C413 C409 1.383 . S
C413 C412 1.367 . S
C413 H427 0.950 . S
C414 C411 1.481 . S
C414 C415 1.297 1_655 S
C414 H428 0.950 1_545 S
C415 C414 1.297 1_455 S
C415 C416 1.479 1_545 S
C415 H429 0.950 . S
C416 C415 1.479 1_565 S
C416 C417 1.375 . S
C416 C422 1.404 . S
C417 C416 1.375 . S
C417 C418 1.369 . S
C417 H430 0.950 . S
C418 C417 1.369 . S
C418 C419 1.392 . S
C418 H431 0.951 . S
C419 C418 1.392 . S
C419 C421 1.384 . S
H420 C422 0.949 1_655 S
C421 C419 1.384 . S
C421 C422 1.385 . S
C421 H423 0.950 . S
C422 C416 1.404 . S
C422 H420 0.949 1_455 S
C422 C421 1.385 . S
H423 C421 0.950 . S
H424 C408 0.951 . S
H425 C410 0.951 1_455 S
H426 C412 0.951 . S
H427 C413 0.950 . S
H428 C414 0.950 1_565 S
H429 C415 0.950 . S
H430 C417 0.950 . S
H431 C418 0.951 . S
C432 C433 1.386 . S
C432 C434 1.383 . S
C432 H448 0.951 . S
C433 C432 1.386 . S
C433 C437 1.383 . S
C434 C432 1.383 . S
C434 C435 1.402 . S
C434 H449 0.951 . S
C435 C434 1.402 . S
C435 C436 1.375 . S
C435 C438 1.481 . S
C436 C435 1.375 . S
C436 C437 1.367 . S
C436 H450 0.951 . S
C437 C433 1.383 . S
C437 C436 1.367 . S
C437 H451 0.950 . S
C438 C435 1.481 . S
C438 C439 1.297 . S
C438 H452 0.950 . S
C439 C438 1.297 . S
C439 C440 1.479 . S
C439 H453 0.950 . S
C440 C439 1.479 . S
C440 C441 1.375 . S
C440 C446 1.404 . S
C441 C440 1.375 . S
C441 C442 1.369 . S
C441 H454 0.950 . S
C442 C441 1.369 . S
C442 C443 1.392 . S
C442 H455 0.951 . S
C443 C442 1.392 . S
C443 C445 1.384 . S
H444 C446 0.949 . S
C445 C443 1.384 . S
C445 C446 1.385 . S
C445 H447 0.950 . S
C446 C440 1.404 . S
C446 H444 0.949 . S
C446 C445 1.385 . S
H447 C445 0.950 . S
H448 C432 0.951 . S
H449 C434 0.951 . S
H450 C436 0.951 . S
H451 C437 0.950 . S
H452 C438 0.950 . S
H453 C439 0.950 . S
H454 C441 0.950 . S
H455 C442 0.951 . S
C456 C457 1.386 . S
C456 C458 1.383 . S
C456 H472 0.951 . S
C457 C456 1.386 . S
C457 C461 1.383 . S
C458 C456 1.383 . S
C458 C459 1.402 . S
C458 H473 0.951 . S
C459 C458 1.402 . S
C459 C460 1.375 . S
C459 C462 1.481 . S
C460 C459 1.375 . S
C460 C461 1.367 . S
C460 H474 0.951 . S
C461 C457 1.383 . S
C461 C460 1.367 . S
C461 H475 0.950 . S
C462 C459 1.481 . S
C462 C463 1.297 . S
C462 H476 0.950 . S
C463 C462 1.297 . S
C463 C464 1.479 . S
C463 H477 0.950 . S
C464 C463 1.479 . S
C464 C465 1.375 . S
C464 C470 1.404 . S
C465 C464 1.375 . S
C465 C466 1.369 . S
C465 H478 0.950 . S
C466 C465 1.369 . S
C466 C467 1.392 . S
C466 H479 0.951 . S
C467 C466 1.392 . S
C467 C469 1.384 . S
H468 C470 0.949 . S
C469 C467 1.384 . S
C469 C470 1.385 . S
C469 H471 0.950 . S
C470 C464 1.404 . S
C470 H468 0.949 . S
C470 C469 1.385 . S
H471 C469 0.950 . S
H472 C456 0.951 . S
H473 C458 0.951 . S
H474 C460 0.951 . S
H475 C461 0.950 . S
H476 C462 0.950 . S
H477 C463 0.950 . S
H478 C465 0.950 . S
H479 C466 0.951 . S
C480 C481 1.386 . S
C480 C482 1.383 . S
C480 H496 0.951 . S
C481 C480 1.386 . S
C481 C485 1.383 . S
C482 C480 1.383 . S
C482 C483 1.402 . S
C482 H497 0.951 . S
C483 C482 1.402 . S
C483 C484 1.375 . S
C483 C486 1.481 . S
C484 C483 1.375 . S
C484 C485 1.367 . S
C484 H498 0.951 . S
C485 C481 1.383 . S
C485 C484 1.367 . S
C485 H499 0.950 . S
C486 C483 1.481 . S
C486 C487 1.297 . S
C486 H500 0.950 . S
C487 C486 1.297 . S
C487 C488 1.479 . S
C487 H501 0.950 . S
C488 C487 1.479 . S
C488 C489 1.375 . S
C488 C494 1.404 . S
C489 C488 1.375 . S
C489 C490 1.369 . S
C489 H502 0.950 . S
C490 C489 1.369 . S
C490 C491 1.392 . S
C490 H503 0.951 . S
C491 C490 1.392 . S
C491 C493 1.384 . S
H492 C494 0.949 . S
C493 C491 1.384 . S
C493 C494 1.385 . S
C493 H495 0.950 . S
C494 C488 1.404 . S
C494 H492 0.949 . S
C494 C493 1.385 . S
H495 C493 0.950 . S
H496 C480 0.951 . S
H497 C482 0.951 . S
H498 C484 0.951 . S
H499 C485 0.950 . S
H500 C486 0.950 . S
H501 C487 0.950 . S
H502 C489 0.950 . S
H503 C490 0.951 . S
C504 C505 1.386 . S
C504 C506 1.383 . S
C504 H520 0.951 . S
C505 C504 1.386 . S
C505 C509 1.383 . S
C506 C504 1.383 . S
C506 C507 1.402 . S
C506 H521 0.951 . S
C507 C506 1.402 . S
C507 C508 1.375 . S
C507 C510 1.481 . S
C508 C507 1.375 . S
C508 C509 1.367 . S
C508 H522 0.951 . S
C509 C505 1.383 . S
C509 C508 1.367 . S
C509 H523 0.950 . S
C510 C507 1.481 . S
C510 C511 1.297 . S
C510 H524 0.950 . S
C511 C510 1.297 . S
C511 C512 1.479 . S
C511 H525 0.950 . S
C512 C511 1.479 . S
C512 C513 1.375 . S
C512 C518 1.404 . S
C513 C512 1.375 . S
C513 C514 1.369 . S
C513 H526 0.950 . S
C514 C513 1.369 . S
C514 C515 1.392 . S
C514 H527 0.951 . S
C515 C514 1.392 . S
C515 C517 1.384 . S
H516 C518 0.949 . S
C517 C515 1.384 . S
C517 C518 1.385 . S
C517 H519 0.950 . S
C518 C512 1.404 . S
C518 H516 0.949 . S
C518 C517 1.385 . S
H519 C517 0.950 . S
H520 C504 0.951 . S
H521 C506 0.951 . S
H522 C508 0.951 . S
H523 C509 0.950 . S
H524 C510 0.950 . S
H525 C511 0.950 . S
H526 C513 0.950 . S
H527 C514 0.951 . S
C528 C529 1.386 . S
C528 C530 1.383 . S
C528 H544 0.951 . S
C529 C528 1.386 . S
C529 C533 1.383 . S
C530 C528 1.383 . S
C530 C531 1.402 . S
C530 H545 0.951 . S
C531 C530 1.402 . S
C531 C532 1.375 . S
C531 C534 1.481 . S
C532 C531 1.375 . S
C532 C533 1.367 . S
C532 H546 0.951 . S
C533 C529 1.383 . S
C533 C532 1.367 . S
C533 H547 0.950 . S
C534 C531 1.481 . S
C534 C535 1.297 . S
C534 H548 0.950 . S
C535 C534 1.297 . S
C535 C536 1.479 . S
C535 H549 0.950 . S
C536 C535 1.479 . S
C536 C537 1.375 . S
C536 C542 1.404 . S
C537 C536 1.375 . S
C537 C538 1.369 . S
C537 H550 0.950 . S
C538 C537 1.369 . S
C538 C539 1.398 . S
C538 H551 0.951 . S
C539 C538 1.398 . S
C539 C541 1.382 1_655 S
H540 C542 0.949 1_455 S
C541 C539 1.382 1_455 S
C541 C542 1.385 1_455 S
C541 H543 0.950 . S
C542 C536 1.404 . S
C542 H540 0.949 1_655 S
C542 C541 1.385 1_655 S
H543 C541 0.950 . S
H544 C528 0.951 . S
H545 C530 0.951 . S
H546 C532 0.951 . S
H547 C533 0.950 . S
H548 C534 0.950 . S
H549 C535 0.950 . S
H550 C537 0.950 . S
H551 C538 0.951 . S
C552 C553 1.386 . S
C552 C554 1.383 . S
C552 H568 0.951 . S
C553 C552 1.386 . S
C553 C557 1.383 . S
C554 C552 1.383 . S
C554 C555 1.402 . S
C554 H569 0.951 . S
C555 C554 1.402 . S
C555 C556 1.375 . S
C555 C558 1.481 . S
C556 C555 1.375 . S
C556 C557 1.367 . S
C556 H570 0.951 . S
C557 C553 1.383 . S
C557 C556 1.367 . S
C557 H571 0.950 . S
C558 C555 1.481 . S
C558 C559 1.297 . S
C558 H572 0.950 . S
C559 C558 1.297 . S
C559 C560 1.479 . S
C559 H573 0.950 . S
C560 C559 1.479 . S
C560 C561 1.375 . S
C560 C566 1.404 1_655 S
C561 C560 1.375 . S
C561 C562 1.369 . S
C561 H574 0.950 . S
C562 C561 1.369 . S
C562 C563 1.392 1_655 S
C562 H575 0.951 . S
C563 C562 1.392 1_455 S
C563 C565 1.384 . S
H564 C566 0.949 . S
C565 C563 1.384 . S
C565 C566 1.385 . S
C565 H567 0.950 . S
C566 C560 1.404 1_455 S
C566 H564 0.949 . S
C566 C565 1.385 . S
H567 C565 0.950 . S
H568 C552 0.951 . S
H569 C554 0.951 . S
H570 C556 0.951 . S
H571 C557 0.950 . S
H572 C558 0.950 . S
H573 C559 0.950 . S
H574 C561 0.950 . S
H575 C562 0.951 . S
C576 C577 1.386 1_455 S
C576 C578 1.383 . S
C576 H592 0.951 . S
C577 C576 1.386 1_655 S
C577 C581 1.383 . S
C578 C576 1.383 . S
C578 C579 1.402 . S
C578 H593 0.951 . S
C579 C578 1.402 . S
C579 C580 1.375 1_455 S
C579 C582 1.481 . S
C580 C579 1.375 1_655 S
C580 C581 1.367 . S
C580 H594 0.951 . S
C581 C577 1.383 . S
C581 C580 1.367 . S
C581 H595 0.950 . S
C582 C579 1.481 . S
C582 C583 1.297 . S
C582 H596 0.950 . S
C583 C582 1.297 . S
C583 C584 1.479 . S
C583 H597 0.950 . S
C584 C583 1.479 . S
C584 C585 1.375 . S
C584 C590 1.404 . S
C585 C584 1.375 . S
C585 C586 1.369 . S
C585 H598 0.950 . S
C586 C585 1.369 . S
C586 C587 1.392 . S
C586 H599 0.951 . S
C587 C586 1.392 . S
C587 C589 1.384 . S
H588 C590 0.949 . S
C589 C587 1.384 . S
C589 C590 1.385 . S
C589 H591 0.950 . S
C590 C584 1.404 . S
C590 H588 0.949 . S
C590 C589 1.385 . S
H591 C589 0.950 . S
H592 C576 0.951 . S
H593 C578 0.951 . S
H594 C580 0.951 . S
H595 C581 0.950 . S
H596 C582 0.950 . S
H597 C583 0.950 . S
H598 C585 0.950 . S
H599 C586 0.951 . S
C600 C601 1.386 . S
C600 C602 1.383 . S
C600 H616 0.951 . S
C601 C600 1.386 . S
C601 C605 1.383 . S
C602 C600 1.383 . S
C602 C603 1.402 . S
C602 H617 0.951 . S
C603 C602 1.402 . S
C603 C604 1.375 . S
C603 C606 1.481 . S
C604 C603 1.375 . S
C604 C605 1.367 . S
C604 H618 0.951 . S
C605 C601 1.383 . S
C605 C604 1.367 . S
C605 H619 0.950 . S
C606 C603 1.481 . S
C606 C607 1.297 . S
C606 H620 0.950 . S
C607 C606 1.297 . S
C607 C608 1.479 . S
C607 H621 0.950 . S
C608 C607 1.479 . S
C608 C609 1.375 . S
C608 C614 1.404 . S
C609 C608 1.375 . S
C609 C610 1.369 . S
C609 H622 0.950 . S
C610 C609 1.369 . S
C610 C611 1.392 . S
C610 H623 0.951 . S
C611 C610 1.392 . S
C611 C613 1.384 . S
H612 C614 0.949 . S
C613 C611 1.384 . S
C613 C614 1.385 . S
C613 H615 0.950 1_455 S
C614 C608 1.404 . S
C614 H612 0.949 . S
C614 C613 1.385 . S
H615 C613 0.950 1_655 S
H616 C600 0.951 . S
H617 C602 0.951 . S
H618 C604 0.951 . S
H619 C605 0.950 . S
H620 C606 0.950 . S
H621 C607 0.950 . S
H622 C609 0.950 . S
H623 C610 0.951 . S
C337 C147 1.481 . S
C347 C74 1.548 . S
C361 C242 1.500 . S
C371 C315 1.446 . S
C385 C63 1.494 . S
C395 C158 1.505 1_556 S
C409 C326 1.521 . S
C419 C231 1.460 . S
C433 C310 1.158 . S
C443 C56 1.131 . S
C457 C142 1.196 . S
C467 C224 1.062 . S
C481 C151 1.176 . S
C491 C238 1.106 . S
C505 C319 1.144 . S
C515 C70 1.215 . S
C529 C140 1.187 . S
C539 C226 1.077 1_655 S
C553 C308 1.194 . S
C563 C58 1.066 . S
C577 C322 1.115 . S
C587 C67 1.168 . S
C601 C235 1.103 . S
C611 C154 1.148 1_455 S
