# Generated by pormake.
# Topology mdf, (4)-cn, num edge types: 1
# Building blocks:
#     Node 0, Type 0, BuildingBlock: TATPOV_clean_sbu_0, # of connection points: 4
#     Node 1, Type 0, BuildingBlock: TATPOV_clean_sbu_0, # of connection points: 4
#     Node 2, Type 0, BuildingBlock: TATPOV_clean_sbu_0, # of connection points: 4
#     Node 3, Type 0, BuildingBlock: TATPOV_clean_sbu_0, # of connection points: 4
#     Node 4, Type 0, BuildingBlock: TATPOV_clean_sbu_0, # of connection points: 4
#     Node 5, Type 0, BuildingBlock: TATPOV_clean_sbu_0, # of connection points: 4
#     Node 6, Type 0, BuildingBlock: TATPOV_clean_sbu_0, # of connection points: 4
#     Node 7, Type 0, BuildingBlock: TATPOV_clean_sbu_0, # of connection points: 4
#     Edge 8, Type (0, 0), BuildingBlock: UVAHIK_clean_linker_0, # of connection points: 2
#     Edge 9, Type (0, 0), BuildingBlock: UVAHIK_clean_linker_0, # of connection points: 2
#     Edge 10, Type (0, 0), BuildingBlock: UVAHIK_clean_linker_0, # of connection points: 2
#     Edge 11, Type (0, 0), BuildingBlock: UVAHIK_clean_linker_0, # of connection points: 2
#     Edge 12, Type (0, 0), BuildingBlock: UVAHIK_clean_linker_0, # of connection points: 2
#     Edge 13, Type (0, 0), BuildingBlock: UVAHIK_clean_linker_0, # of connection points: 2
#     Edge 14, Type (0, 0), BuildingBlock: UVAHIK_clean_linker_0, # of connection points: 2
#     Edge 15, Type (0, 0), BuildingBlock: UVAHIK_clean_linker_0, # of connection points: 2
#     Edge 16, Type (0, 0), BuildingBlock: UVAHIK_clean_linker_0, # of connection points: 2
#     Edge 17, Type (0, 0), BuildingBlock: UVAHIK_clean_linker_0, # of connection points: 2
#     Edge 18, Type (0, 0), BuildingBlock: UVAHIK_clean_linker_0, # of connection points: 2
#     Edge 19, Type (0, 0), BuildingBlock: UVAHIK_clean_linker_0, # of connection points: 2
#     Edge 20, Type (0, 0), BuildingBlock: UVAHIK_clean_linker_0, # of connection points: 2
#     Edge 21, Type (0, 0), BuildingBlock: UVAHIK_clean_linker_0, # of connection points: 2
#     Edge 22, Type (0, 0), BuildingBlock: UVAHIK_clean_linker_0, # of connection points: 2
#     Edge 23, Type (0, 0), BuildingBlock: UVAHIK_clean_linker_0, # of connection points: 2
# Relax obj value: 0.042
# Max RMSD: 0.066
# Mean RMSD: 0.055
data_MOF--net-mdf--node1-TATPOV_clean_sbu_0--edge1-UVAHIK_clean_linker_0
_symmetry_space_group_name_H-M    P1
_symmetry_Int_Tables_number       1
_symmetry_cell_setting            triclinic
loop_
_symmetry_equiv_pos_as_xyz
'x, y, z'
_cell_length_a     45.191764
_cell_length_b     45.209211
_cell_length_c     18.96572
_cell_angle_alpha  92.202411
_cell_angle_beta   92.212557
_cell_angle_gamma 90.15462
loop_
_atom_site_label
_atom_site_type_symbol
_atom_site_fract_x
_atom_site_fract_y
_atom_site_fract_z
_atom_type_partial_charge
Zn0 Zn 0.25054 0.52514 0.50006 0.0
Zn1 Zn 0.25762 0.54966 0.37609 0.0
O2 O 0.24804 0.58508 0.44461 0.0
O3 O 0.24379 0.56469 0.54727 0.0
O4 O 0.26807 0.56965 0.28652 0.0
O5 O 0.29148 0.50825 0.50168 0.0
O6 O 0.29607 0.52581 0.39599 0.0
C7 C 0.2434 0.58744 0.51049 0.0
C8 C 0.20779 0.50492 0.38919 0.0
O9 O 0.22145 0.52275 0.35104 0.0
O10 O 0.21611 0.50208 0.45319 0.0
C11 C 0.25778 0.59441 0.2676 0.0
O12 O 0.23729 0.60743 0.30489 0.0
C13 C 0.3065 0.51125 0.44752 0.0
Zn14 Zn 0.47476 0.76007 0.49958 0.0
Zn15 Zn 0.45315 0.74945 0.62472 0.0
O16 O 0.41601 0.75914 0.5619 0.0
O17 O 0.43401 0.76564 0.45739 0.0
O18 O 0.43505 0.73715 0.71511 0.0
O19 O 0.49324 0.72002 0.49198 0.0
O20 O 0.47674 0.71155 0.59703 0.0
C21 C 0.4121 0.76456 0.49674 0.0
C22 C 0.49595 0.80126 0.61175 0.0
O23 O 0.47974 0.78596 0.65046 0.0
O24 O 0.49736 0.79458 0.54645 0.0
C25 C 0.4121 0.74911 0.74039 0.0
O26 O 0.40049 0.77221 0.70994 0.0
C27 C 0.49098 0.70311 0.5431 0.0
Zn28 Zn 0.23181 0.94983 0.74949 0.0
Zn29 Zn 0.24948 0.93305 0.8761 0.0
O30 O 0.24427 0.89453 0.81408 0.0
O31 O 0.22278 0.90836 0.7146 0.0
O32 O 0.2604 0.91542 0.96987 0.0
O33 O 0.27292 0.96627 0.73887 0.0
O34 O 0.28593 0.95716 0.84914 0.0
C35 C 0.2326 0.88816 0.75323 0.0
C36 C 0.19615 0.97514 0.85623 0.0
O37 O 0.21262 0.95922 0.8955 0.0
O38 O 0.20024 0.97542 0.79063 0.0
C39 C 0.24772 0.92001 0.02804 0.0
O40 O 0.22653 0.93974 0.03219 0.0
C41 C 0.29187 0.96778 0.78989 0.0
Zn42 Zn 0.04561 0.77396 0.24838 0.0
Zn43 Zn 0.06187 0.75223 0.12399 0.0
O44 O 0.10072 0.7591 0.18359 0.0
O45 O 0.08749 0.78377 0.27954 0.0
O46 O 0.0789 0.738 0.03163 0.0
O47 O 0.02867 0.73363 0.26658 0.0
O48 O 0.03747 0.71729 0.15841 0.0
C49 C 0.10746 0.77271 0.242 0.0
C50 C 0.02041 0.80641 0.13551 0.0
O51 O 0.03608 0.78865 0.09885 0.0
O52 O 0.02014 0.80429 0.20181 0.0
C53 C 0.07891 0.7526 0.97554 0.0
O54 O 0.06484 0.77794 0.97326 0.0
C55 C 0.0268 0.71331 0.21868 0.0
Zn56 Zn 0.74284 0.03591 0.01288 0.0
Zn57 Zn 0.75714 0.05849 0.89485 0.0
O58 O 0.74863 0.09468 0.96289 0.0
O59 O 0.74345 0.07476 0.06583 0.0
O60 O 0.77249 0.07898 0.81026 0.0
O61 O 0.77852 0.01041 0.0174 0.0
O62 O 0.79256 0.03079 0.92074 0.0
C63 C 0.74498 0.09741 0.02918 0.0
C64 C 0.70089 0.02126 0.89831 0.0
O65 O 0.71938 0.03472 0.86145 0.0
O66 O 0.70535 0.02008 0.96449 0.0
C67 C 0.75819 0.08556 0.75397 0.0
O68 O 0.73016 0.07799 0.74545 0.0
C69 C 0.79728 0.01279 0.97018 0.0
Zn70 Zn 0.96975 0.25909 0.98449 0.0
Zn71 Zn 0.94921 0.24398 0.10583 0.0
O72 O 0.91199 0.25463 0.04351 0.0
O73 O 0.92946 0.2621 0.93875 0.0
O74 O 0.93068 0.22826 0.19249 0.0
O75 O 0.99268 0.22168 0.97351 0.0
O76 O 0.97511 0.20816 0.07386 0.0
C77 C 0.90781 0.26027 0.97852 0.0
C78 C 0.98843 0.29873 0.10182 0.0
O79 O 0.97454 0.28062 0.13882 0.0
O80 O 0.98872 0.29469 0.03536 0.0
C81 C 0.91292 0.24273 0.23101 0.0
O82 O 0.9071 0.27044 0.21738 0.0
C83 C 0.99113 0.20287 0.0209 0.0
Zn84 Zn 0.74453 0.48523 0.24807 0.0
Zn85 Zn 0.7593 0.45721 0.36522 0.0
O86 O 0.75349 0.42359 0.28814 0.0
O87 O 0.74156 0.44707 0.19172 0.0
O88 O 0.76856 0.43464 0.45343 0.0
O89 O 0.78375 0.50603 0.25487 0.0
O90 O 0.79638 0.48348 0.35249 0.0
C91 C 0.74678 0.42313 0.22218 0.0
C92 C 0.70376 0.49675 0.35724 0.0
O93 O 0.72144 0.48012 0.39148 0.0
O94 O 0.70863 0.50237 0.29384 0.0
C95 C 0.75391 0.41124 0.46392 0.0
O96 O 0.73318 0.40242 0.41727 0.0
C97 C 0.80246 0.50135 0.30452 0.0
Zn98 Zn 0.50831 0.25552 0.75262 0.0
Zn99 Zn 0.54176 0.2386 0.6458 0.0
O100 O 0.57235 0.24887 0.72656 0.0
O101 O 0.54488 0.2664 0.81174 0.0
O102 O 0.56757 0.22697 0.56502 0.0
O103 O 0.49283 0.21406 0.75631 0.0
O104 O 0.51741 0.20069 0.66222 0.0
C105 C 0.57012 0.25999 0.7889 0.0
C106 C 0.49653 0.28911 0.6304 0.0
O107 O 0.51782 0.27371 0.60683 0.0
O108 O 0.48731 0.28499 0.69144 0.0
C109 C 0.5816 0.24633 0.53238 0.0
O110 O 0.57896 0.27441 0.55151 0.0
C111 C 0.49969 0.19448 0.71038 0.0
C112 C 0.40689 0.708 0.82423 0.0
C113 C 0.39684 0.73511 0.79854 0.0
C114 C 0.39111 0.69344 0.87464 0.0
C115 C 0.33565 0.70422 0.01091 0.0
H116 H 0.32321 0.6197 0.98068 0.0
C117 C 0.26067 0.63768 0.1888 0.0
C118 C 0.27102 0.60977 0.20857 0.0
C119 C 0.27467 0.65311 0.13674 0.0
C120 C 0.32672 0.64323 0.99043 0.0
H121 H 0.36274 0.76859 0.80744 0.0
H122 H 0.33529 0.74319 0.89582 0.0
H123 H 0.35109 0.64681 0.89656 0.0
H124 H 0.30394 0.57599 0.18806 0.0
H125 H 0.3285 0.60294 0.09833 0.0
H126 H 0.31164 0.70059 0.10535 0.0
C127 C 0.35541 0.73324 0.87689 0.0
C128 C 0.34272 0.65877 0.94214 0.0
C129 C 0.37111 0.74774 0.82607 0.0
C130 C 0.29528 0.59738 0.174 0.0
C131 C 0.30931 0.61282 0.12218 0.0
C132 C 0.31976 0.68863 0.05951 0.0
C133 C 0.36499 0.7057 0.90093 0.0
C134 C 0.34754 0.68941 0.95201 0.0
C135 C 0.29938 0.64101 0.10327 0.0
C136 C 0.31524 0.65788 0.05012 0.0
H137 H 0.42664 0.69764 0.80437 0.0
H138 H 0.39933 0.67248 0.89292 0.0
H139 H 0.3392 0.72776 0.02033 0.0
H140 H 0.24199 0.64785 0.2142 0.0
H141 H 0.26612 0.67454 0.12277 0.0
C142 C 0.37662 0.76568 0.39378 0.0
C143 C 0.38244 0.77126 0.46626 0.0
C144 C 0.35104 0.77647 0.36079 0.0
C145 C 0.3044 0.84071 0.37388 0.0
H146 H 0.26802 0.80381 0.20394 0.0
C147 C 0.24415 0.90777 0.15579 0.0
C148 C 0.2552 0.90131 0.08859 0.0
C149 C 0.25091 0.88947 0.21216 0.0
C150 C 0.27776 0.81437 0.2516 0.0
H151 H 0.36515 0.79077 0.56229 0.0
H152 H 0.32021 0.81032 0.50387 0.0
H153 H 0.29415 0.77331 0.28938 0.0
H154 H 0.28168 0.87035 0.02779 0.0
H155 H 0.29338 0.83869 0.12551 0.0
H156 H 0.2894 0.88199 0.33397 0.0
C157 C 0.33557 0.79746 0.47283 0.0
C158 C 0.29265 0.79692 0.30054 0.0
C159 C 0.36116 0.78619 0.50624 0.0
C160 C 0.27287 0.87608 0.07883 0.0
C161 C 0.2793 0.85769 0.1347 0.0
C162 C 0.2894 0.85819 0.32489 0.0
C163 C 0.33075 0.79344 0.39931 0.0
C164 C 0.30756 0.81011 0.36017 0.0
C165 C 0.26844 0.86415 0.20197 0.0
C166 C 0.27738 0.84533 0.26147 0.0
H167 H 0.39254 0.75402 0.36179 0.0
H168 H 0.34828 0.77323 0.30403 0.0
H169 H 0.3157 0.85156 0.41921 0.0
H170 H 0.23041 0.92703 0.16495 0.0
H171 H 0.24236 0.89502 0.26356 0.0
C172 C 0.15261 0.74647 0.28461 0.0
C173 C 0.13805 0.77315 0.27081 0.0
C174 C 0.17779 0.74644 0.33005 0.0
C175 C 0.20156 0.75827 0.48285 0.0
H176 H 0.25863 0.82249 0.50209 0.0
C177 C 0.20705 0.84337 0.70248 0.0
C178 C 0.23356 0.85794 0.72274 0.0
C179 C 0.20718 0.81907 0.65491 0.0
C180 C 0.24361 0.80373 0.49757 0.0
H181 H 0.13941 0.82071 0.28732 0.0
H182 H 0.1839 0.82095 0.36404 0.0
H183 H 0.23879 0.80692 0.38541 0.0
H184 H 0.28113 0.85792 0.71364 0.0
H185 H 0.28132 0.81589 0.62782 0.0
H186 H 0.20361 0.7576 0.59586 0.0
C187 C 0.17602 0.80001 0.34063 0.0
C188 C 0.23223 0.79488 0.43058 0.0
C189 C 0.15049 0.79995 0.29703 0.0
C190 C 0.26049 0.84659 0.69926 0.0
C191 C 0.26059 0.82266 0.65021 0.0
C192 C 0.21262 0.76742 0.55 0.0
C193 C 0.18903 0.77319 0.3605 0.0
C194 C 0.20955 0.77358 0.42324 0.0
C195 C 0.23377 0.80957 0.62523 0.0
C196 C 0.23207 0.7917 0.5581 0.0
H197 H 0.14307 0.72553 0.26541 0.0
H198 H 0.18731 0.72551 0.34494 0.0
H199 H 0.18411 0.74173 0.47876 0.0
H200 H 0.18606 0.85211 0.71938 0.0
H201 H 0.18611 0.80974 0.63594 0.0
C202 C 0.11938 0.7212 0.92731 0.0
C203 C 0.09754 0.7428 0.91661 0.0
C204 C 0.13853 0.71335 0.87385 0.0
C205 C 0.14498 0.70712 0.68526 0.0
H206 H 0.22854 0.69855 0.73452 0.0
C207 C 0.22103 0.63829 0.50625 0.0
C208 C 0.23542 0.61612 0.54455 0.0
C209 C 0.20869 0.66281 0.54181 0.0
C210 C 0.20532 0.70103 0.71962 0.0
H211 H 0.07827 0.77264 0.84074 0.0
H212 H 0.11141 0.75804 0.74605 0.0
H213 H 0.1962 0.72359 0.81769 0.0
H214 H 0.25038 0.60342 0.64903 0.0
H215 H 0.22913 0.64567 0.71048 0.0
H216 H 0.15363 0.68268 0.58937 0.0
C217 C 0.11382 0.74766 0.79647 0.0
C218 C 0.18685 0.71535 0.76722 0.0
C219 C 0.09489 0.75593 0.85056 0.0
C220 C 0.23921 0.62001 0.61811 0.0
C221 C 0.22722 0.64447 0.65334 0.0
C222 C 0.16345 0.69251 0.63776 0.0
C223 C 0.13607 0.72658 0.80809 0.0
C224 C 0.1563 0.71732 0.75181 0.0
C225 C 0.21096 0.66567 0.616 0.0
C226 C 0.19354 0.68802 0.65606 0.0
H227 H 0.12211 0.71072 0.97754 0.0
H228 H 0.15517 0.69664 0.88375 0.0
H229 H 0.12149 0.70844 0.6721 0.0
H230 H 0.21781 0.63584 0.44944 0.0
H231 H 0.19648 0.67892 0.51159 0.0
C232 C 0.75883 0.10736 0.63391 0.0
C233 C 0.77305 0.10245 0.69967 0.0
C234 C 0.77298 0.12345 0.58317 0.0
C235 C 0.8324 0.17835 0.56286 0.0
H236 H 0.83162 0.14822 0.36858 0.0
C237 C 0.87964 0.2439 0.33433 0.0
C238 C 0.89726 0.22773 0.28712 0.0
C239 C 0.86388 0.22944 0.38517 0.0
C240 C 0.83209 0.15687 0.42267 0.0
H241 H 0.81327 0.11084 0.76368 0.0
H242 H 0.83778 0.13889 0.67544 0.0
H243 H 0.80494 0.12151 0.45616 0.0
H244 H 0.91224 0.18365 0.25674 0.0
H245 H 0.88468 0.15853 0.34503 0.0
H246 H 0.85979 0.21357 0.52944 0.0
C247 C 0.81565 0.13043 0.6632 0.0
C248 C 0.81658 0.14173 0.47266 0.0
C249 C 0.80165 0.11415 0.7136 0.0
C250 C 0.89892 0.19682 0.29227 0.0
C251 C 0.88294 0.18237 0.34253 0.0
C252 C 0.84768 0.19366 0.5127 0.0
C253 C 0.80152 0.13524 0.59735 0.0
C254 C 0.81681 0.15212 0.5435 0.0
C255 C 0.86514 0.19848 0.38936 0.0
C256 C 0.84796 0.18291 0.44219 0.0
H257 H 0.73679 0.09872 0.62149 0.0
H258 H 0.76143 0.12697 0.5331 0.0
H259 H 0.83276 0.18708 0.61689 0.0
H260 H 0.87785 0.26772 0.3318 0.0
H261 H 0.85023 0.24244 0.42029 0.0
C262 C 0.86769 0.29684 0.96412 0.0
C263 C 0.87848 0.26833 0.94971 0.0
C264 C 0.84524 0.30852 0.92079 0.0
C265 C 0.81731 0.29781 0.73532 0.0
H266 H 0.77009 0.3665 0.78447 0.0
C267 C 0.75204 0.36353 0.52626 0.0
C268 C 0.76078 0.39341 0.52623 0.0
C269 C 0.75991 0.3461 0.58325 0.0
C270 C 0.78305 0.34721 0.77024 0.0
H271 H 0.87302 0.22858 0.88347 0.0
H272 H 0.83228 0.24793 0.81086 0.0
H273 H 0.79284 0.33749 0.87816 0.0
H274 H 0.7835 0.42877 0.58712 0.0
H275 H 0.79676 0.39831 0.68753 0.0
H276 H 0.80727 0.30756 0.62749 0.0
C277 C 0.84182 0.26197 0.85339 0.0
C278 C 0.79625 0.33064 0.82377 0.0
C279 C 0.8648 0.25061 0.89563 0.0
C280 C 0.77661 0.40577 0.58549 0.0
C281 C 0.78398 0.38846 0.64312 0.0
C282 C 0.80361 0.31397 0.68209 0.0
C283 C 0.83293 0.29169 0.86269 0.0
C284 C 0.81438 0.30623 0.80706 0.0
C285 C 0.77612 0.35835 0.64195 0.0
C286 C 0.78709 0.33928 0.69898 0.0
H287 H 0.87839 0.31102 0.00491 0.0
H288 H 0.83938 0.33151 0.92977 0.0
H289 H 0.8315 0.27968 0.71959 0.0
H290 H 0.73983 0.35336 0.48135 0.0
H291 H 0.75364 0.32292 0.58116 0.0
C292 C 0.73965 0.39537 0.10688 0.0
C293 C 0.74355 0.39486 0.18063 0.0
C294 C 0.73232 0.36968 0.06728 0.0
C295 C 0.71842 0.31322 0.98661 0.0
H296 H 0.65328 0.27391 0.07188 0.0
C297 C 0.62506 0.25637 0.81494 0.0
C298 C 0.59672 0.26488 0.83601 0.0
C299 C 0.64993 0.26144 0.86031 0.0
C300 C 0.67151 0.28455 0.04723 0.0
H301 H 0.74543 0.3664 0.27014 0.0
H302 H 0.73276 0.3211 0.2005 0.0
H303 H 0.68784 0.30352 0.14583 0.0
H304 H 0.57226 0.28483 0.9218 0.0
H305 H 0.61518 0.29438 0.99916 0.0
H306 H 0.7001 0.29687 0.8871 0.0
C307 C 0.73486 0.34164 0.17352 0.0
C308 C 0.69171 0.30121 0.08992 0.0
C309 C 0.7422 0.36755 0.21342 0.0
C310 C 0.59372 0.27799 0.90368 0.0
C311 C 0.61842 0.28309 0.94866 0.0
C312 C 0.69788 0.29701 0.94376 0.0
C313 C 0.72878 0.34262 0.10021 0.0
C314 C 0.71422 0.3174 0.05949 0.0
C315 C 0.64689 0.2751 0.92757 0.0
C316 C 0.67309 0.28416 0.97326 0.0
H317 H 0.74092 0.41596 0.0797 0.0
H318 H 0.72746 0.37165 0.01132 0.0
H319 H 0.7362 0.32448 0.96172 0.0
H320 H 0.62808 0.24598 0.76331 0.0
H321 H 0.67152 0.25493 0.84248 0.0
C322 C 0.71475 0.14301 0.04289 0.0
C323 C 0.73942 0.12633 0.06409 0.0
C324 C 0.7033 0.1646 0.08918 0.0
C325 C 0.70008 0.17414 0.28106 0.0
H326 H 0.64924 0.24047 0.23766 0.0
C327 C 0.6056 0.20706 0.45797 0.0
C328 C 0.60141 0.23721 0.47509 0.0
C329 C 0.62511 0.19825 0.40603 0.0
C330 C 0.66363 0.22219 0.2507 0.0
H331 H 0.77365 0.12118 0.14548 0.0
H332 H 0.75489 0.15996 0.22446 0.0
H333 H 0.68188 0.22009 0.14776 0.0
H334 H 0.61393 0.28184 0.44963 0.0
H335 H 0.64818 0.26628 0.35855 0.0
H336 H 0.68179 0.17586 0.38321 0.0
C337 C 0.74352 0.15574 0.17373 0.0
C338 C 0.68218 0.21041 0.19914 0.0
C339 C 0.7545 0.13377 0.12829 0.0
C340 C 0.61674 0.2584 0.43786 0.0
C341 C 0.63625 0.24955 0.38549 0.0
C342 C 0.68165 0.18583 0.33216 0.0
C343 C 0.71664 0.16995 0.15686 0.0
C344 C 0.7002 0.18582 0.21334 0.0
C345 C 0.64093 0.21935 0.36979 0.0
C346 C 0.66263 0.20943 0.31709 0.0
H347 H 0.70262 0.13736 0.9938 0.0
H348 H 0.68258 0.17507 0.07432 0.0
H349 H 0.71318 0.15493 0.29392 0.0
H350 H 0.59403 0.19015 0.48519 0.0
H351 H 0.62782 0.17481 0.39419 0.0
C352 C 0.35227 0.49134 0.50504 0.0
C353 C 0.33509 0.49574 0.44311 0.0
C354 C 0.37664 0.47248 0.50401 0.0
C355 C 0.43301 0.43654 0.48104 0.0
H356 H 0.40544 0.35742 0.42535 0.0
C357 C 0.49834 0.32832 0.54033 0.0
C358 C 0.48214 0.31178 0.58703 0.0
C359 C 0.48476 0.35145 0.50414 0.0
C360 C 0.41369 0.37945 0.43962 0.0
H361 H 0.33063 0.48509 0.33084 0.0
H362 H 0.37288 0.45103 0.32957 0.0
H363 H 0.37534 0.40023 0.39419 0.0
H364 H 0.43895 0.30537 0.63001 0.0
H365 H 0.41509 0.34491 0.56506 0.0
H366 H 0.4707 0.4155 0.52952 0.0
C367 C 0.36769 0.46267 0.37851 0.0
C368 C 0.39659 0.40392 0.42158 0.0
C369 C 0.34364 0.48217 0.37923 0.0
C370 C 0.45197 0.31788 0.59463 0.0
C371 C 0.43828 0.34033 0.55718 0.0
C372 C 0.4504 0.41207 0.49795 0.0
C373 C 0.38394 0.45715 0.44131 0.0
C374 C 0.40549 0.43259 0.44472 0.0
C375 C 0.45462 0.35761 0.51254 0.0
C376 C 0.44024 0.3833 0.47989 0.0
H377 H 0.34616 0.50161 0.55493 0.0
H378 H 0.38857 0.46839 0.55331 0.0
H379 H 0.44031 0.45844 0.49947 0.0
H380 H 0.52168 0.32409 0.53383 0.0
H381 H 0.49776 0.36465 0.47018 0.0
C382 C 0.67354 0.99752 0.7923 0.0
C383 C 0.67519 0.00487 0.86504 0.0
C384 C 0.65123 0.97843 0.76392 0.0
C385 C 0.60286 0.91861 0.8196 0.0
H386 H 0.56273 0.92693 0.63724 0.0
C387 C 0.51259 0.83557 0.71365 0.0
C388 C 0.51368 0.82672 0.64195 0.0
C389 C 0.53002 0.85928 0.74128 0.0
C390 C 0.57391 0.92416 0.68807 0.0
H391 H 0.65347 0.99963 0.964 0.0
H392 H 0.61468 0.96692 0.91453 0.0
H393 H 0.59732 0.96531 0.68284 0.0
H394 H 0.53384 0.83612 0.54304 0.0
H395 H 0.56434 0.87679 0.59125 0.0
H396 H 0.58006 0.87728 0.82451 0.0
C397 C 0.63096 0.97518 0.87964 0.0
C398 C 0.59372 0.94618 0.71413 0.0
C399 C 0.65315 0.9941 0.90788 0.0
C400 C 0.53233 0.84231 0.59852 0.0
C401 C 0.54972 0.86587 0.62606 0.0
C402 C 0.58317 0.89659 0.7935 0.0
C403 C 0.63018 0.96643 0.80777 0.0
C404 C 0.6085 0.9436 0.78013 0.0
C405 C 0.54892 0.87462 0.69781 0.0
C406 C 0.56857 0.89896 0.72722 0.0
H407 H 0.69018 0.00543 0.75791 0.0
H408 H 0.65127 0.97205 0.70829 0.0
H409 H 0.61426 0.91566 0.87011 0.0
H410 H 0.49839 0.82414 0.7485 0.0
H411 H 0.52862 0.86565 0.79667 0.0
C412 C 0.02518 0.17003 0.95391 0.0
C413 C 0.00954 0.17583 0.01551 0.0
C414 C 0.04506 0.14664 0.94987 0.0
C415 C 0.06723 0.07571 0.0202 0.0
H416 H 0.14117 0.09556 0.93551 0.0
C417 C 0.16632 0.99444 0.9582 0.0
C418 C 0.17349 0.99502 0.88663 0.0
C419 C 0.14624 0.01496 0.98635 0.0
C420 C 0.12073 0.08973 0.95974 0.0
H421 H 0.00158 0.1606 0.12024 0.0
H422 H 0.03664 0.11919 0.11277 0.0
H423 H 0.10584 0.13452 0.96277 0.0
H424 H 0.16453 0.01718 0.78842 0.0
H425 H 0.13027 0.05282 0.83763 0.0
H426 H 0.08223 0.03055 0.01504 0.0
C427 C 0.03337 0.13308 0.06789 0.0
C428 C 0.10046 0.11197 0.97508 0.0
C429 C 0.01335 0.15675 0.07209 0.0
C430 C 0.15968 0.01603 0.84374 0.0
C431 C 0.1401 0.03659 0.87191 0.0
C432 C 0.08774 0.0533 0.005 0.0
C433 C 0.04995 0.12834 0.00726 0.0
C434 C 0.07301 0.1051 0.00286 0.0
C435 C 0.1335 0.03658 0.94353 0.0
C436 C 0.11416 0.0601 0.97227 0.0
H437 H 0.02258 0.18397 0.9089 0.0
H438 H 0.05694 0.14309 0.90175 0.0
H439 H 0.04626 0.06983 0.04177 0.0
H440 H 0.1765 0.97846 0.99255 0.0
H441 H 0.14139 0.01455 0.04178 0.0
C442 C 0.0061 0.67838 0.30323 0.0
C443 C 0.0111 0.68554 0.23318 0.0
C444 C 0.98902 0.65374 0.31773 0.0
C445 C 0.9537 0.58535 0.23577 0.0
H446 H 0.89715 0.59855 0.38242 0.0
C447 C 0.84195 0.52581 0.23978 0.0
C448 C 0.83152 0.51641 0.30413 0.0
C449 C 0.86831 0.54172 0.23789 0.0
C450 C 0.91318 0.59426 0.3423 0.0
H451 H 0.00295 0.67187 0.1234 0.0
H452 H 0.97231 0.62932 0.14843 0.0
H453 H 0.93503 0.63564 0.36514 0.0
H454 H 0.84093 0.51562 0.41691 0.0
H455 H 0.8871 0.54442 0.41384 0.0
H456 H 0.93058 0.54461 0.21074 0.0
C457 C 0.9821 0.64237 0.19241 0.0
C458 C 0.93497 0.61552 0.33227 0.0
C459 C 0.99954 0.66688 0.17791 0.0
C460 C 0.84847 0.52262 0.36663 0.0
C461 C 0.87476 0.5391 0.36487 0.0
C462 C 0.93173 0.56423 0.2454 0.0
C463 C 0.97616 0.63581 0.26254 0.0
C464 C 0.95512 0.61165 0.27785 0.0
C465 C 0.88476 0.54899 0.30041 0.0
C466 C 0.91085 0.5688 0.29773 0.0
H467 H 0.01506 0.69209 0.3471 0.0
H468 H 0.98554 0.64901 0.37235 0.0
H469 H 0.96922 0.5813 0.19441 0.0
H470 H 0.82951 0.52116 0.1906 0.0
H471 H 0.87524 0.54933 0.1876 0.0
C472 C 0.33674 0.99605 0.83707 0.0
C473 C 0.32039 0.98283 0.77979 0.0
C474 C 0.36176 0.01329 0.82548 0.0
C475 C 0.39306 0.05679 0.6846 0.0
H476 H 0.45901 0.06725 0.82012 0.0
C477 C 0.48331 0.1456 0.65381 0.0
C478 C 0.48671 0.16457 0.71403 0.0
C479 C 0.46821 0.11861 0.65743 0.0
C480 C 0.4408 0.06439 0.78159 0.0
H481 H 0.31861 0.97533 0.66605 0.0
H482 H 0.36262 0.00436 0.64609 0.0
H483 H 0.42273 0.02805 0.83516 0.0
H484 H 0.47867 0.16941 0.82595 0.0
H485 H 0.45277 0.12249 0.83223 0.0
H486 H 0.41086 0.09346 0.63185 0.0
C487 C 0.35566 0.00248 0.69973 0.0
C488 C 0.41992 0.04209 0.79042 0.0
C489 C 0.33049 0.98569 0.71122 0.0
C490 C 0.47615 0.15539 0.77845 0.0
C491 C 0.46156 0.12836 0.78227 0.0
C492 C 0.41407 0.07887 0.67547 0.0
C493 C 0.37112 0.01726 0.75642 0.0
C494 C 0.39535 0.0385 0.74301 0.0
C495 C 0.45685 0.10996 0.72159 0.0
C496 C 0.43771 0.08341 0.72486 0.0
H497 H 0.32943 0.99425 0.89047 0.0
H498 H 0.3729 0.02455 0.87044 0.0
H499 H 0.37424 0.0551 0.64755 0.0
H500 H 0.49127 0.15211 0.60352 0.0
H501 H 0.46494 0.10474 0.60989 0.0
C502 C 0.8435 0.99175 0.91657 0.0
C503 C 0.82364 0.99334 0.97199 0.0
C504 C 0.86683 0.97125 0.9176 0.0
C505 C 0.8862 0.90021 0.99479 0.0
H506 H 0.96873 0.92149 0.97735 0.0
C507 C 0.9792 0.84278 0.14119 0.0
C508 C 0.00096 0.82848 0.10145 0.0
C509 C 0.95933 0.86218 0.10973 0.0
C510 C 0.94571 0.91515 0.98072 0.0
H511 H 0.8136 0.97554 0.07323 0.0
H512 H 0.85378 0.94036 0.07477 0.0
H513 H 0.92977 0.95777 0.95027 0.0
H514 H 0.01951 0.82422 0.99771 0.0
H515 H 0.98463 0.85912 0.9427 0.0
H516 H 0.90199 0.85842 0.02937 0.0
C517 C 0.85115 0.95441 0.02994 0.0
C518 C 0.92349 0.93582 0.96531 0.0
C519 C 0.82816 0.97477 0.02915 0.0
C520 C 0.00292 0.83482 0.02963 0.0
C521 C 0.98312 0.85476 0.99821 0.0
C522 C 0.90826 0.87977 0.0104 0.0
C523 C 0.87038 0.95196 0.97371 0.0
C524 C 0.89361 0.92887 0.97515 0.0
C525 C 0.96088 0.86812 0.038 0.0
C526 C 0.93819 0.88743 0.00602 0.0
H527 H 0.84065 0.0058 0.87187 0.0
H528 H 0.88152 0.9699 0.8738 0.0
H529 H 0.86332 0.89407 0.00148 0.0
H530 H 0.97697 0.83849 0.19654 0.0
H531 H 0.94245 0.87242 0.14148 0.0
C532 C 0.01672 0.34583 0.09251 0.0
C533 C 0.00575 0.32381 0.1351 0.0
C534 C 0.03574 0.36787 0.12105 0.0
C535 C 0.06444 0.40459 0.28772 0.0
H536 H 0.1326 0.42056 0.1766 0.0
C537 C 0.16777 0.4674 0.40271 0.0
C538 C 0.18239 0.48695 0.35958 0.0
C539 C 0.14441 0.44965 0.37536 0.0
C540 C 0.11349 0.41676 0.20785 0.0
H541 H 0.00521 0.30851 0.24196 0.0
H542 H 0.03889 0.34705 0.29202 0.0
H543 H 0.09484 0.38576 0.13053 0.0
H544 H 0.18343 0.50348 0.25389 0.0
H545 H 0.14237 0.47255 0.20609 0.0
H546 H 0.08337 0.43543 0.36544 0.0
C547 C 0.03251 0.34727 0.23641 0.0
C548 C 0.09182 0.39675 0.18148 0.0
C549 C 0.01327 0.32515 0.20776 0.0
C550 C 0.17275 0.4886 0.28849 0.0
C551 C 0.14931 0.47077 0.26105 0.0
C552 C 0.08615 0.42467 0.31414 0.0
C553 C 0.04448 0.36848 0.19294 0.0
C554 C 0.06707 0.39032 0.22113 0.0
C555 C 0.13498 0.45095 0.30413 0.0
C556 C 0.11103 0.43086 0.27467 0.0
H557 H 0.01107 0.34575 0.03647 0.0
H558 H 0.04396 0.38426 0.0864 0.0
H559 H 0.04549 0.40042 0.3192 0.0
H560 H 0.17456 0.46546 0.45773 0.0
H561 H 0.13423 0.43435 0.4098 0.0
C562 C 0.51592 0.6601 0.60088 0.0
C563 C 0.50567 0.67396 0.53954 0.0
C564 C 0.5329 0.63422 0.5957 0.0
C565 C 0.55337 0.57325 0.47102 0.0
H566 H 0.63142 0.57864 0.56313 0.0
C567 C 0.65511 0.52251 0.34834 0.0
C568 C 0.67751 0.50986 0.3907 0.0
C569 C 0.63089 0.53625 0.37874 0.0
C570 C 0.6095 0.57636 0.5383 0.0
H571 H 0.50368 0.67082 0.42508 0.0
H572 H 0.53265 0.62577 0.41612 0.0
H573 H 0.59324 0.61421 0.59617 0.0
H574 H 0.69173 0.50119 0.49845 0.0
H575 H 0.64927 0.5258 0.55199 0.0
H576 H 0.56995 0.53635 0.41076 0.0
C577 C 0.52781 0.63476 0.46817 0.0
C578 C 0.58763 0.59672 0.55726 0.0
C579 C 0.5114 0.66073 0.47329 0.0
C580 C 0.67482 0.51075 0.46442 0.0
C581 C 0.6506 0.52488 0.49506 0.0
C582 C 0.57515 0.55292 0.45221 0.0
C583 C 0.53925 0.62151 0.52914 0.0
C584 C 0.55978 0.59612 0.52157 0.0
C585 C 0.62846 0.5379 0.4524 0.0
C586 C 0.60383 0.55506 0.4834 0.0
H587 H 0.51189 0.66989 0.65263 0.0
H588 H 0.54146 0.62442 0.64353 0.0
H589 H 0.53192 0.57197 0.44351 0.0
H590 H 0.65639 0.52213 0.29139 0.0
H591 H 0.61452 0.54649 0.34441 0.0
loop_
_geom_bond_atom_site_label_1
_geom_bond_atom_site_label_2
_geom_bond_distance
_geom_bond_site_symmetry_2
_ccdc_geom_bond_type
Zn0 O3 2.031 . S
Zn0 O5 2.049 . S
Zn0 O10 2.067 . S
Zn1 O2 1.962 . S
Zn1 O4 1.986 . S
Zn1 O6 1.996 . S
Zn1 O9 1.943 . S
O2 Zn1 1.962 . S
O2 C7 1.254 . S
O3 Zn0 2.031 . S
O3 C7 1.269 . S
O4 Zn1 1.986 . S
O4 C11 1.262 . S
O5 Zn0 2.049 . S
O5 C13 1.260 . S
O6 Zn1 1.996 . S
O6 C13 1.257 . S
C7 O2 1.254 . S
C7 O3 1.269 . S
C8 O9 1.249 . S
C8 O10 1.270 . S
O9 Zn1 1.943 . S
O9 C8 1.249 . S
O10 Zn0 2.067 . S
O10 C8 1.270 . S
C11 O4 1.262 . S
C11 O12 1.232 . S
O12 C11 1.232 . S
C13 O5 1.260 . S
C13 O6 1.257 . S
Zn14 O17 2.031 . S
Zn14 O19 2.049 . S
Zn14 O24 2.067 . S
Zn15 O16 1.962 . S
Zn15 O18 1.986 . S
Zn15 O20 1.996 . S
Zn15 O23 1.943 . S
O16 Zn15 1.962 . S
O16 C21 1.254 . S
O17 Zn14 2.031 . S
O17 C21 1.269 . S
O18 Zn15 1.986 . S
O18 C25 1.262 . S
O19 Zn14 2.049 . S
O19 C27 1.260 . S
O20 Zn15 1.996 . S
O20 C27 1.257 . S
C21 O16 1.254 . S
C21 O17 1.269 . S
C22 O23 1.249 . S
C22 O24 1.270 . S
O23 Zn15 1.943 . S
O23 C22 1.249 . S
O24 Zn14 2.067 . S
O24 C22 1.270 . S
C25 O18 1.262 . S
C25 O26 1.232 . S
O26 C25 1.232 . S
C27 O19 1.260 . S
C27 O20 1.257 . S
Zn28 O31 2.031 . S
Zn28 O33 2.049 1_565 S
Zn28 O38 2.067 1_565 S
Zn29 O30 1.962 . S
Zn29 O32 1.986 . S
Zn29 O34 1.996 . S
Zn29 O37 1.943 . S
O30 Zn29 1.962 . S
O30 C35 1.254 . S
O31 Zn28 2.031 . S
O31 C35 1.269 . S
O32 Zn29 1.986 . S
O32 C39 1.262 . S
O33 Zn28 2.049 1_545 S
O33 C41 1.260 . S
O34 Zn29 1.996 . S
O34 C41 1.257 1_565 S
C35 O30 1.254 . S
C35 O31 1.269 . S
C36 O37 1.249 . S
C36 O38 1.270 1_565 S
O37 Zn29 1.943 . S
O37 C36 1.249 . S
O38 Zn28 2.067 1_545 S
O38 C36 1.270 1_545 S
C39 O32 1.262 . S
C39 O40 1.232 . S
O40 C39 1.232 . S
C41 O33 1.260 . S
C41 O34 1.257 1_545 S
Zn42 O45 2.031 . S
Zn42 O47 2.049 1_455 S
Zn42 O52 2.067 1_455 S
Zn43 O44 1.962 . S
Zn43 O46 1.986 . S
Zn43 O48 1.996 . S
Zn43 O51 1.943 . S
O44 Zn43 1.962 . S
O44 C49 1.254 . S
O45 Zn42 2.031 . S
O45 C49 1.269 . S
O46 Zn43 1.986 . S
O46 C53 1.262 . S
O47 Zn42 2.049 1_655 S
O47 C55 1.260 . S
O48 Zn43 1.996 . S
O48 C55 1.257 1_455 S
C49 O44 1.254 . S
C49 O45 1.269 . S
C50 O51 1.249 . S
C50 O52 1.270 1_455 S
O51 Zn43 1.943 . S
O51 C50 1.249 . S
O52 Zn42 2.067 1_655 S
O52 C50 1.270 1_655 S
C53 O46 1.262 . S
C53 O54 1.232 . S
O54 C53 1.232 . S
C55 O47 1.260 . S
C55 O48 1.257 1_655 S
Zn56 O59 2.031 . S
Zn56 O61 2.049 1_545 S
Zn56 O66 2.067 1_545 S
Zn57 O58 1.962 . S
Zn57 O60 1.986 . S
Zn57 O62 1.996 . S
Zn57 O65 1.943 . S
O58 Zn57 1.962 . S
O58 C63 1.254 . S
O59 Zn56 2.031 . S
O59 C63 1.269 . S
O60 Zn57 1.986 . S
O60 C67 1.262 . S
O61 Zn56 2.049 1_565 S
O61 C69 1.260 . S
O62 Zn57 1.996 . S
O62 C69 1.257 1_545 S
C63 O58 1.254 . S
C63 O59 1.269 . S
C64 O65 1.249 . S
C64 O66 1.270 1_545 S
O65 Zn57 1.943 . S
O65 C64 1.249 . S
O66 Zn56 2.067 1_565 S
O66 C64 1.270 1_565 S
C67 O60 1.262 . S
C67 O68 1.232 . S
O68 C67 1.232 . S
C69 O61 1.260 . S
C69 O62 1.257 1_565 S
Zn70 O73 2.031 . S
Zn70 O75 2.049 1_655 S
Zn70 O80 2.067 1_655 S
Zn71 O72 1.962 . S
Zn71 O74 1.986 . S
Zn71 O76 1.996 . S
Zn71 O79 1.943 . S
O72 Zn71 1.962 . S
O72 C77 1.254 . S
O73 Zn70 2.031 . S
O73 C77 1.269 . S
O74 Zn71 1.986 . S
O74 C81 1.262 . S
O75 Zn70 2.049 1_455 S
O75 C83 1.260 . S
O76 Zn71 1.996 . S
O76 C83 1.257 1_655 S
C77 O72 1.254 . S
C77 O73 1.269 . S
C78 O79 1.249 . S
C78 O80 1.270 1_655 S
O79 Zn71 1.943 . S
O79 C78 1.249 . S
O80 Zn70 2.067 1_455 S
O80 C78 1.270 1_455 S
C81 O74 1.262 . S
C81 O82 1.232 . S
O82 C81 1.232 . S
C83 O75 1.260 . S
C83 O76 1.257 1_455 S
Zn84 O87 2.031 . S
Zn84 O89 2.049 . S
Zn84 O94 2.067 . S
Zn85 O86 1.962 . S
Zn85 O88 1.986 . S
Zn85 O90 1.996 . S
Zn85 O93 1.943 . S
O86 Zn85 1.962 . S
O86 C91 1.254 . S
O87 Zn84 2.031 . S
O87 C91 1.269 . S
O88 Zn85 1.986 . S
O88 C95 1.262 . S
O89 Zn84 2.049 . S
O89 C97 1.260 . S
O90 Zn85 1.996 . S
O90 C97 1.257 . S
C91 O86 1.254 . S
C91 O87 1.269 . S
C92 O93 1.249 . S
C92 O94 1.270 . S
O93 Zn85 1.943 . S
O93 C92 1.249 . S
O94 Zn84 2.067 . S
O94 C92 1.270 . S
C95 O88 1.262 . S
C95 O96 1.232 . S
O96 C95 1.232 . S
C97 O89 1.260 . S
C97 O90 1.257 . S
Zn98 O101 2.031 . S
Zn98 O103 2.049 . S
Zn98 O108 2.067 . S
Zn99 O100 1.962 . S
Zn99 O102 1.986 . S
Zn99 O104 1.996 . S
Zn99 O107 1.943 . S
O100 Zn99 1.962 . S
O100 C105 1.254 . S
O101 Zn98 2.031 . S
O101 C105 1.269 . S
O102 Zn99 1.986 . S
O102 C109 1.262 . S
O103 Zn98 2.049 . S
O103 C111 1.260 . S
O104 Zn99 1.996 . S
O104 C111 1.257 . S
C105 O100 1.254 . S
C105 O101 1.269 . S
C106 O107 1.249 . S
C106 O108 1.270 . S
O107 Zn99 1.943 . S
O107 C106 1.249 . S
O108 Zn98 2.067 . S
O108 C106 1.270 . S
C109 O102 1.262 . S
C109 O110 1.232 . S
O110 C109 1.232 . S
C111 O103 1.260 . S
C111 O104 1.257 . S
C112 C113 1.349 . S
C112 C114 1.327 . S
C112 H137 0.950 . S
C113 C112 1.349 . S
C113 C129 1.349 . S
C114 C112 1.327 . S
C114 C133 1.429 . S
C114 H138 0.950 . S
C115 C132 1.574 . S
C115 C134 1.368 1_554 S
C115 H139 0.949 . S
H116 C120 0.949 . S
C117 C118 1.349 . S
C117 C119 1.327 . S
C117 H140 0.950 . S
C118 C117 1.349 . S
C118 C130 1.349 . S
C119 C117 1.327 . S
C119 C135 1.429 . S
C119 H141 0.950 . S
C120 H116 0.949 . S
C120 C128 1.574 . S
C120 C136 1.368 1_556 S
H121 C129 0.950 . S
H122 C127 0.950 . S
H123 C128 0.949 . S
H124 C130 0.950 . S
H125 C131 0.950 . S
H126 C132 0.949 . S
C127 H122 0.950 . S
C127 C129 1.327 . S
C127 C133 1.429 . S
C128 C120 1.574 . S
C128 H123 0.949 . S
C128 C134 1.368 . S
C129 C113 1.349 . S
C129 H121 0.950 . S
C129 C127 1.327 . S
C130 C118 1.349 . S
C130 H124 0.950 . S
C130 C131 1.327 . S
C131 H125 0.950 . S
C131 C130 1.327 . S
C131 C135 1.429 . S
C132 C115 1.574 . S
C132 H126 0.949 . S
C132 C136 1.368 . S
C133 C114 1.429 . S
C133 C127 1.429 . S
C133 C134 1.523 . S
C134 C115 1.368 1_556 S
C134 C128 1.368 . S
C134 C133 1.523 . S
C135 C119 1.429 . S
C135 C131 1.429 . S
C135 C136 1.523 . S
C136 C120 1.368 1_554 S
C136 C132 1.368 . S
C136 C135 1.523 . S
H137 C112 0.950 . S
H138 C114 0.950 . S
H139 C115 0.949 . S
H140 C117 0.950 . S
H141 C119 0.950 . S
C142 C143 1.349 . S
C142 C144 1.327 . S
C142 H167 0.950 . S
C143 C142 1.349 . S
C143 C159 1.349 . S
C144 C142 1.327 . S
C144 C163 1.429 . S
C144 H168 0.950 . S
C145 C162 1.574 . S
C145 C164 1.368 . S
C145 H169 0.949 . S
H146 C150 0.949 . S
C147 C148 1.349 . S
C147 C149 1.327 . S
C147 H170 0.950 . S
C148 C147 1.349 . S
C148 C160 1.349 . S
C149 C147 1.327 . S
C149 C165 1.429 . S
C149 H171 0.950 . S
C150 H146 0.949 . S
C150 C158 1.574 . S
C150 C166 1.368 . S
H151 C159 0.950 . S
H152 C157 0.950 . S
H153 C158 0.949 . S
H154 C160 0.950 . S
H155 C161 0.950 . S
H156 C162 0.949 . S
C157 H152 0.950 . S
C157 C159 1.327 . S
C157 C163 1.429 . S
C158 C150 1.574 . S
C158 H153 0.949 . S
C158 C164 1.368 . S
C159 C143 1.349 . S
C159 H151 0.950 . S
C159 C157 1.327 . S
C160 C148 1.349 . S
C160 H154 0.950 . S
C160 C161 1.327 . S
C161 H155 0.950 . S
C161 C160 1.327 . S
C161 C165 1.429 . S
C162 C145 1.574 . S
C162 H156 0.949 . S
C162 C166 1.368 . S
C163 C144 1.429 . S
C163 C157 1.429 . S
C163 C164 1.523 . S
C164 C145 1.368 . S
C164 C158 1.368 . S
C164 C163 1.523 . S
C165 C149 1.429 . S
C165 C161 1.429 . S
C165 C166 1.523 . S
C166 C150 1.368 . S
C166 C162 1.368 . S
C166 C165 1.523 . S
H167 C142 0.950 . S
H168 C144 0.950 . S
H169 C145 0.949 . S
H170 C147 0.950 . S
H171 C149 0.950 . S
C172 C173 1.349 . S
C172 C174 1.327 . S
C172 H197 0.950 . S
C173 C172 1.349 . S
C173 C189 1.349 . S
C174 C172 1.327 . S
C174 C193 1.429 . S
C174 H198 0.950 . S
C175 C192 1.574 . S
C175 C194 1.368 . S
C175 H199 0.949 . S
H176 C180 0.949 . S
C177 C178 1.349 . S
C177 C179 1.327 . S
C177 H200 0.950 . S
C178 C177 1.349 . S
C178 C190 1.349 . S
C179 C177 1.327 . S
C179 C195 1.429 . S
C179 H201 0.950 . S
C180 H176 0.949 . S
C180 C188 1.574 . S
C180 C196 1.368 . S
H181 C189 0.950 . S
H182 C187 0.950 . S
H183 C188 0.949 . S
H184 C190 0.950 . S
H185 C191 0.950 . S
H186 C192 0.949 . S
C187 H182 0.950 . S
C187 C189 1.327 . S
C187 C193 1.429 . S
C188 C180 1.574 . S
C188 H183 0.949 . S
C188 C194 1.368 . S
C189 C173 1.349 . S
C189 H181 0.950 . S
C189 C187 1.327 . S
C190 C178 1.349 . S
C190 H184 0.950 . S
C190 C191 1.327 . S
C191 H185 0.950 . S
C191 C190 1.327 . S
C191 C195 1.429 . S
C192 C175 1.574 . S
C192 H186 0.949 . S
C192 C196 1.368 . S
C193 C174 1.429 . S
C193 C187 1.429 . S
C193 C194 1.523 . S
C194 C175 1.368 . S
C194 C188 1.368 . S
C194 C193 1.523 . S
C195 C179 1.429 . S
C195 C191 1.429 . S
C195 C196 1.523 . S
C196 C180 1.368 . S
C196 C192 1.368 . S
C196 C195 1.523 . S
H197 C172 0.950 . S
H198 C174 0.950 . S
H199 C175 0.949 . S
H200 C177 0.950 . S
H201 C179 0.950 . S
C202 C203 1.349 . S
C202 C204 1.327 . S
C202 H227 0.950 . S
C203 C202 1.349 . S
C203 C219 1.349 . S
C204 C202 1.327 . S
C204 C223 1.429 . S
C204 H228 0.950 . S
C205 C222 1.574 . S
C205 C224 1.368 . S
C205 H229 0.949 . S
H206 C210 0.949 . S
C207 C208 1.349 . S
C207 C209 1.327 . S
C207 H230 0.950 . S
C208 C207 1.349 . S
C208 C220 1.349 . S
C209 C207 1.327 . S
C209 C225 1.429 . S
C209 H231 0.950 . S
C210 H206 0.949 . S
C210 C218 1.574 . S
C210 C226 1.368 . S
H211 C219 0.950 . S
H212 C217 0.950 . S
H213 C218 0.949 . S
H214 C220 0.950 . S
H215 C221 0.950 . S
H216 C222 0.949 . S
C217 H212 0.950 . S
C217 C219 1.327 . S
C217 C223 1.429 . S
C218 C210 1.574 . S
C218 H213 0.949 . S
C218 C224 1.368 . S
C219 C203 1.349 . S
C219 H211 0.950 . S
C219 C217 1.327 . S
C220 C208 1.349 . S
C220 H214 0.950 . S
C220 C221 1.327 . S
C221 H215 0.950 . S
C221 C220 1.327 . S
C221 C225 1.429 . S
C222 C205 1.574 . S
C222 H216 0.949 . S
C222 C226 1.368 . S
C223 C204 1.429 . S
C223 C217 1.429 . S
C223 C224 1.523 . S
C224 C205 1.368 . S
C224 C218 1.368 . S
C224 C223 1.523 . S
C225 C209 1.429 . S
C225 C221 1.429 . S
C225 C226 1.523 . S
C226 C210 1.368 . S
C226 C222 1.368 . S
C226 C225 1.523 . S
H227 C202 0.950 . S
H228 C204 0.950 . S
H229 C205 0.949 . S
H230 C207 0.950 . S
H231 C209 0.950 . S
C232 C233 1.349 . S
C232 C234 1.327 . S
C232 H257 0.950 . S
C233 C232 1.349 . S
C233 C249 1.349 . S
C234 C232 1.327 . S
C234 C253 1.429 . S
C234 H258 0.950 . S
C235 C252 1.574 . S
C235 C254 1.368 . S
C235 H259 0.949 . S
H236 C240 0.949 . S
C237 C238 1.349 . S
C237 C239 1.327 . S
C237 H260 0.950 . S
C238 C237 1.349 . S
C238 C250 1.349 . S
C239 C237 1.327 . S
C239 C255 1.429 . S
C239 H261 0.950 . S
C240 H236 0.949 . S
C240 C248 1.574 . S
C240 C256 1.368 . S
H241 C249 0.950 . S
H242 C247 0.950 . S
H243 C248 0.949 . S
H244 C250 0.950 . S
H245 C251 0.950 . S
H246 C252 0.949 . S
C247 H242 0.950 . S
C247 C249 1.327 . S
C247 C253 1.429 . S
C248 C240 1.574 . S
C248 H243 0.949 . S
C248 C254 1.368 . S
C249 C233 1.349 . S
C249 H241 0.950 . S
C249 C247 1.327 . S
C250 C238 1.349 . S
C250 H244 0.950 . S
C250 C251 1.327 . S
C251 H245 0.950 . S
C251 C250 1.327 . S
C251 C255 1.429 . S
C252 C235 1.574 . S
C252 H246 0.949 . S
C252 C256 1.368 . S
C253 C234 1.429 . S
C253 C247 1.429 . S
C253 C254 1.523 . S
C254 C235 1.368 . S
C254 C248 1.368 . S
C254 C253 1.523 . S
C255 C239 1.429 . S
C255 C251 1.429 . S
C255 C256 1.523 . S
C256 C240 1.368 . S
C256 C252 1.368 . S
C256 C255 1.523 . S
H257 C232 0.950 . S
H258 C234 0.950 . S
H259 C235 0.949 . S
H260 C237 0.950 . S
H261 C239 0.950 . S
C262 C263 1.349 . S
C262 C264 1.327 . S
C262 H287 0.950 1_556 S
C263 C262 1.349 . S
C263 C279 1.349 . S
C264 C262 1.327 . S
C264 C283 1.429 . S
C264 H288 0.950 . S
C265 C282 1.574 . S
C265 C284 1.368 . S
C265 H289 0.949 . S
H266 C270 0.949 . S
C267 C268 1.349 . S
C267 C269 1.327 . S
C267 H290 0.950 . S
C268 C267 1.349 . S
C268 C280 1.349 . S
C269 C267 1.327 . S
C269 C285 1.429 . S
C269 H291 0.950 . S
C270 H266 0.949 . S
C270 C278 1.574 . S
C270 C286 1.368 . S
H271 C279 0.950 . S
H272 C277 0.950 . S
H273 C278 0.949 . S
H274 C280 0.950 . S
H275 C281 0.950 . S
H276 C282 0.949 . S
C277 H272 0.950 . S
C277 C279 1.327 . S
C277 C283 1.429 . S
C278 C270 1.574 . S
C278 H273 0.949 . S
C278 C284 1.368 . S
C279 C263 1.349 . S
C279 H271 0.950 . S
C279 C277 1.327 . S
C280 C268 1.349 . S
C280 H274 0.950 . S
C280 C281 1.327 . S
C281 H275 0.950 . S
C281 C280 1.327 . S
C281 C285 1.429 . S
C282 C265 1.574 . S
C282 H276 0.949 . S
C282 C286 1.368 . S
C283 C264 1.429 . S
C283 C277 1.429 . S
C283 C284 1.523 . S
C284 C265 1.368 . S
C284 C278 1.368 . S
C284 C283 1.523 . S
C285 C269 1.429 . S
C285 C281 1.429 . S
C285 C286 1.523 . S
C286 C270 1.368 . S
C286 C282 1.368 . S
C286 C285 1.523 . S
H287 C262 0.950 1_554 S
H288 C264 0.950 . S
H289 C265 0.949 . S
H290 C267 0.950 . S
H291 C269 0.950 . S
C292 C293 1.349 . S
C292 C294 1.327 . S
C292 H317 0.950 . S
C293 C292 1.349 . S
C293 C309 1.349 . S
C294 C292 1.327 . S
C294 C313 1.429 . S
C294 H318 0.950 . S
C295 C312 1.574 . S
C295 C314 1.368 1_556 S
C295 H319 0.949 . S
H296 C300 0.949 . S
C297 C298 1.349 . S
C297 C299 1.327 . S
C297 H320 0.950 . S
C298 C297 1.349 . S
C298 C310 1.349 . S
C299 C297 1.327 . S
C299 C315 1.429 . S
C299 H321 0.950 . S
C300 H296 0.949 . S
C300 C308 1.574 . S
C300 C316 1.368 1_554 S
H301 C309 0.950 . S
H302 C307 0.950 . S
H303 C308 0.949 . S
H304 C310 0.950 . S
H305 C311 0.950 . S
H306 C312 0.949 . S
C307 H302 0.950 . S
C307 C309 1.327 . S
C307 C313 1.429 . S
C308 C300 1.574 . S
C308 H303 0.949 . S
C308 C314 1.368 . S
C309 C293 1.349 . S
C309 H301 0.950 . S
C309 C307 1.327 . S
C310 C298 1.349 . S
C310 H304 0.950 . S
C310 C311 1.327 . S
C311 H305 0.950 . S
C311 C310 1.327 . S
C311 C315 1.429 . S
C312 C295 1.574 . S
C312 H306 0.949 . S
C312 C316 1.368 . S
C313 C294 1.429 . S
C313 C307 1.429 . S
C313 C314 1.523 . S
C314 C295 1.368 1_554 S
C314 C308 1.368 . S
C314 C313 1.523 . S
C315 C299 1.429 . S
C315 C311 1.429 . S
C315 C316 1.523 . S
C316 C300 1.368 1_556 S
C316 C312 1.368 . S
C316 C315 1.523 . S
H317 C292 0.950 . S
H318 C294 0.950 . S
H319 C295 0.949 . S
H320 C297 0.950 . S
H321 C299 0.950 . S
C322 C323 1.349 . S
C322 C324 1.327 . S
C322 H347 0.950 1_554 S
C323 C322 1.349 . S
C323 C339 1.349 . S
C324 C322 1.327 . S
C324 C343 1.429 . S
C324 H348 0.950 . S
C325 C342 1.574 . S
C325 C344 1.368 . S
C325 H349 0.949 . S
H326 C330 0.949 . S
C327 C328 1.349 . S
C327 C329 1.327 . S
C327 H350 0.950 . S
C328 C327 1.349 . S
C328 C340 1.349 . S
C329 C327 1.327 . S
C329 C345 1.429 . S
C329 H351 0.950 . S
C330 H326 0.949 . S
C330 C338 1.574 . S
C330 C346 1.368 . S
H331 C339 0.950 . S
H332 C337 0.950 . S
H333 C338 0.949 . S
H334 C340 0.950 . S
H335 C341 0.950 . S
H336 C342 0.949 . S
C337 H332 0.950 . S
C337 C339 1.327 . S
C337 C343 1.429 . S
C338 C330 1.574 . S
C338 H333 0.949 . S
C338 C344 1.368 . S
C339 C323 1.349 . S
C339 H331 0.950 . S
C339 C337 1.327 . S
C340 C328 1.349 . S
C340 H334 0.950 . S
C340 C341 1.327 . S
C341 H335 0.950 . S
C341 C340 1.327 . S
C341 C345 1.429 . S
C342 C325 1.574 . S
C342 H336 0.949 . S
C342 C346 1.368 . S
C343 C324 1.429 . S
C343 C337 1.429 . S
C343 C344 1.523 . S
C344 C325 1.368 . S
C344 C338 1.368 . S
C344 C343 1.523 . S
C345 C329 1.429 . S
C345 C341 1.429 . S
C345 C346 1.523 . S
C346 C330 1.368 . S
C346 C342 1.368 . S
C346 C345 1.523 . S
H347 C322 0.950 1_556 S
H348 C324 0.950 . S
H349 C325 0.949 . S
H350 C327 0.950 . S
H351 C329 0.950 . S
C352 C353 1.349 . S
C352 C354 1.327 . S
C352 H377 0.950 . S
C353 C352 1.349 . S
C353 C369 1.349 . S
C354 C352 1.327 . S
C354 C373 1.429 . S
C354 H378 0.950 . S
C355 C372 1.574 . S
C355 C374 1.368 . S
C355 H379 0.949 . S
H356 C360 0.949 . S
C357 C358 1.349 . S
C357 C359 1.327 . S
C357 H380 0.950 . S
C358 C357 1.349 . S
C358 C370 1.349 . S
C359 C357 1.327 . S
C359 C375 1.429 . S
C359 H381 0.950 . S
C360 H356 0.949 . S
C360 C368 1.574 . S
C360 C376 1.368 . S
H361 C369 0.950 . S
H362 C367 0.950 . S
H363 C368 0.949 . S
H364 C370 0.950 . S
H365 C371 0.950 . S
H366 C372 0.949 . S
C367 H362 0.950 . S
C367 C369 1.327 . S
C367 C373 1.429 . S
C368 C360 1.574 . S
C368 H363 0.949 . S
C368 C374 1.368 . S
C369 C353 1.349 . S
C369 H361 0.950 . S
C369 C367 1.327 . S
C370 C358 1.349 . S
C370 H364 0.950 . S
C370 C371 1.327 . S
C371 H365 0.950 . S
C371 C370 1.327 . S
C371 C375 1.429 . S
C372 C355 1.574 . S
C372 H366 0.949 . S
C372 C376 1.368 . S
C373 C354 1.429 . S
C373 C367 1.429 . S
C373 C374 1.523 . S
C374 C355 1.368 . S
C374 C368 1.368 . S
C374 C373 1.523 . S
C375 C359 1.429 . S
C375 C371 1.429 . S
C375 C376 1.523 . S
C376 C360 1.368 . S
C376 C372 1.368 . S
C376 C375 1.523 . S
H377 C352 0.950 . S
H378 C354 0.950 . S
H379 C355 0.949 . S
H380 C357 0.950 . S
H381 C359 0.950 . S
C382 C383 1.349 . S
C382 C384 1.327 . S
C382 H407 0.950 . S
C383 C382 1.349 . S
C383 C399 1.349 . S
C384 C382 1.327 . S
C384 C403 1.429 . S
C384 H408 0.950 . S
C385 C402 1.574 . S
C385 C404 1.368 . S
C385 H409 0.949 . S
H386 C390 0.949 . S
C387 C388 1.349 . S
C387 C389 1.327 . S
C387 H410 0.950 . S
C388 C387 1.349 . S
C388 C400 1.349 . S
C389 C387 1.327 . S
C389 C405 1.429 . S
C389 H411 0.950 . S
C390 H386 0.949 . S
C390 C398 1.574 . S
C390 C406 1.368 . S
H391 C399 0.950 1_545 S
H392 C397 0.950 . S
H393 C398 0.949 . S
H394 C400 0.950 . S
H395 C401 0.950 . S
H396 C402 0.949 . S
C397 H392 0.950 . S
C397 C399 1.327 . S
C397 C403 1.429 . S
C398 C390 1.574 . S
C398 H393 0.949 . S
C398 C404 1.368 . S
C399 C383 1.349 . S
C399 H391 0.950 1_565 S
C399 C397 1.327 . S
C400 C388 1.349 . S
C400 H394 0.950 . S
C400 C401 1.327 . S
C401 H395 0.950 . S
C401 C400 1.327 . S
C401 C405 1.429 . S
C402 C385 1.574 . S
C402 H396 0.949 . S
C402 C406 1.368 . S
C403 C384 1.429 . S
C403 C397 1.429 . S
C403 C404 1.523 . S
C404 C385 1.368 . S
C404 C398 1.368 . S
C404 C403 1.523 . S
C405 C389 1.429 . S
C405 C401 1.429 . S
C405 C406 1.523 . S
C406 C390 1.368 . S
C406 C402 1.368 . S
C406 C405 1.523 . S
H407 C382 0.950 . S
H408 C384 0.950 . S
H409 C385 0.949 . S
H410 C387 0.950 . S
H411 C389 0.950 . S
C412 C413 1.349 . S
C412 C414 1.327 1_554 S
C412 H437 0.950 1_554 S
C413 C412 1.349 . S
C413 C429 1.349 . S
C414 C412 1.327 1_556 S
C414 C433 1.429 1_556 S
C414 H438 0.950 . S
C415 C432 1.574 . S
C415 C434 1.368 . S
C415 H439 0.949 . S
H416 C420 0.949 . S
C417 C418 1.349 . S
C417 C419 1.327 1_556 S
C417 H440 0.950 1_546 S
C418 C417 1.349 . S
C418 C430 1.349 . S
C419 C417 1.327 1_554 S
C419 C435 1.429 1_554 S
C419 H441 0.950 . S
C420 H416 0.949 . S
C420 C428 1.574 . S
C420 C436 1.368 . S
H421 C429 0.950 . S
H422 C427 0.950 . S
H423 C428 0.949 . S
H424 C430 0.950 . S
H425 C431 0.950 . S
H426 C432 0.949 . S
C427 H422 0.950 . S
C427 C429 1.327 . S
C427 C433 1.429 . S
C428 C420 1.574 . S
C428 H423 0.949 . S
C428 C434 1.368 1_556 S
C429 C413 1.349 . S
C429 H421 0.950 . S
C429 C427 1.327 . S
C430 C418 1.349 . S
C430 H424 0.950 . S
C430 C431 1.327 . S
C431 H425 0.950 . S
C431 C430 1.327 . S
C431 C435 1.429 . S
C432 C415 1.574 . S
C432 H426 0.949 . S
C432 C436 1.368 1_554 S
C433 C414 1.429 1_554 S
C433 C427 1.429 . S
C433 C434 1.523 . S
C434 C415 1.368 . S
C434 C428 1.368 1_554 S
C434 C433 1.523 . S
C435 C419 1.429 1_556 S
C435 C431 1.429 . S
C435 C436 1.523 . S
C436 C420 1.368 . S
C436 C432 1.368 1_556 S
C436 C435 1.523 . S
H437 C412 0.950 1_556 S
H438 C414 0.950 . S
H439 C415 0.949 . S
H440 C417 0.950 1_564 S
H441 C419 0.950 . S
C442 C443 1.349 . S
C442 C444 1.327 . S
C442 H467 0.950 . S
C443 C442 1.349 . S
C443 C459 1.349 . S
C444 C442 1.327 . S
C444 C463 1.429 . S
C444 H468 0.950 . S
C445 C462 1.574 . S
C445 C464 1.368 . S
C445 H469 0.949 . S
H446 C450 0.949 . S
C447 C448 1.349 . S
C447 C449 1.327 . S
C447 H470 0.950 . S
C448 C447 1.349 . S
C448 C460 1.349 . S
C449 C447 1.327 . S
C449 C465 1.429 . S
C449 H471 0.950 . S
C450 H446 0.949 . S
C450 C458 1.574 . S
C450 C466 1.368 . S
H451 C459 0.950 . S
H452 C457 0.950 . S
H453 C458 0.949 . S
H454 C460 0.950 . S
H455 C461 0.950 . S
H456 C462 0.949 . S
C457 H452 0.950 . S
C457 C459 1.327 . S
C457 C463 1.429 . S
C458 C450 1.574 . S
C458 H453 0.949 . S
C458 C464 1.368 . S
C459 C443 1.349 . S
C459 H451 0.950 . S
C459 C457 1.327 . S
C460 C448 1.349 . S
C460 H454 0.950 . S
C460 C461 1.327 . S
C461 H455 0.950 . S
C461 C460 1.327 . S
C461 C465 1.429 . S
C462 C445 1.574 . S
C462 H456 0.949 . S
C462 C466 1.368 . S
C463 C444 1.429 . S
C463 C457 1.429 . S
C463 C464 1.523 . S
C464 C445 1.368 . S
C464 C458 1.368 . S
C464 C463 1.523 . S
C465 C449 1.429 . S
C465 C461 1.429 . S
C465 C466 1.523 . S
C466 C450 1.368 . S
C466 C462 1.368 . S
C466 C465 1.523 . S
H467 C442 0.950 . S
H468 C444 0.950 . S
H469 C445 0.949 . S
H470 C447 0.950 . S
H471 C449 0.950 . S
C472 C473 1.349 . S
C472 C474 1.327 . S
C472 H497 0.950 . S
C473 C472 1.349 . S
C473 C489 1.349 . S
C474 C472 1.327 . S
C474 C493 1.429 . S
C474 H498 0.950 . S
C475 C492 1.574 . S
C475 C494 1.368 . S
C475 H499 0.949 . S
H476 C480 0.949 . S
C477 C478 1.349 . S
C477 C479 1.327 . S
C477 H500 0.950 . S
C478 C477 1.349 . S
C478 C490 1.349 . S
C479 C477 1.327 . S
C479 C495 1.429 . S
C479 H501 0.950 . S
C480 H476 0.949 . S
C480 C488 1.574 . S
C480 C496 1.368 . S
H481 C489 0.950 . S
H482 C487 0.950 . S
H483 C488 0.949 . S
H484 C490 0.950 . S
H485 C491 0.950 . S
H486 C492 0.949 . S
C487 H482 0.950 . S
C487 C489 1.327 . S
C487 C493 1.429 . S
C488 C480 1.574 . S
C488 H483 0.949 . S
C488 C494 1.368 . S
C489 C473 1.349 . S
C489 H481 0.950 . S
C489 C487 1.327 . S
C490 C478 1.349 . S
C490 H484 0.950 . S
C490 C491 1.327 . S
C491 H485 0.950 . S
C491 C490 1.327 . S
C491 C495 1.429 . S
C492 C475 1.574 . S
C492 H486 0.949 . S
C492 C496 1.368 . S
C493 C474 1.429 . S
C493 C487 1.429 . S
C493 C494 1.523 . S
C494 C475 1.368 . S
C494 C488 1.368 . S
C494 C493 1.523 . S
C495 C479 1.429 . S
C495 C491 1.429 . S
C495 C496 1.523 . S
C496 C480 1.368 . S
C496 C492 1.368 . S
C496 C495 1.523 . S
H497 C472 0.950 . S
H498 C474 0.950 . S
H499 C475 0.949 . S
H500 C477 0.950 . S
H501 C479 0.950 . S
C502 C503 1.349 . S
C502 C504 1.327 . S
C502 H527 0.950 . S
C503 C502 1.349 . S
C503 C519 1.349 . S
C504 C502 1.327 . S
C504 C523 1.429 . S
C504 H528 0.950 . S
C505 C522 1.574 . S
C505 C524 1.368 1_554 S
C505 H529 0.949 . S
H506 C510 0.949 . S
C507 C508 1.349 . S
C507 C509 1.327 . S
C507 H530 0.950 . S
C508 C507 1.349 . S
C508 C520 1.349 . S
C509 C507 1.327 . S
C509 C525 1.429 . S
C509 H531 0.950 . S
C510 H506 0.949 . S
C510 C518 1.574 . S
C510 C526 1.368 1_556 S
H511 C519 0.950 1_554 S
H512 C517 0.950 . S
H513 C518 0.949 . S
H514 C520 0.950 1_456 S
H515 C521 0.950 . S
H516 C522 0.949 . S
C517 H512 0.950 . S
C517 C519 1.327 1_554 S
C517 C523 1.429 1_554 S
C518 C510 1.574 . S
C518 H513 0.949 . S
C518 C524 1.368 . S
C519 C503 1.349 . S
C519 H511 0.950 1_556 S
C519 C517 1.327 1_556 S
C520 C508 1.349 . S
C520 H514 0.950 1_654 S
C520 C521 1.327 1_554 S
C521 H515 0.950 . S
C521 C520 1.327 1_556 S
C521 C525 1.429 1_556 S
C522 C505 1.574 . S
C522 H516 0.949 . S
C522 C526 1.368 . S
C523 C504 1.429 . S
C523 C517 1.429 1_556 S
C523 C524 1.523 . S
C524 C505 1.368 1_556 S
C524 C518 1.368 . S
C524 C523 1.523 . S
C525 C509 1.429 . S
C525 C521 1.429 1_554 S
C525 C526 1.523 . S
C526 C510 1.368 1_554 S
C526 C522 1.368 . S
C526 C525 1.523 . S
H527 C502 0.950 . S
H528 C504 0.950 . S
H529 C505 0.949 . S
H530 C507 0.950 . S
H531 C509 0.950 . S
C532 C533 1.349 . S
C532 C534 1.327 . S
C532 H557 0.950 1_455 S
C533 C532 1.349 . S
C533 C549 1.349 . S
C534 C532 1.327 . S
C534 C553 1.429 . S
C534 H558 0.950 . S
C535 C552 1.574 . S
C535 C554 1.368 . S
C535 H559 0.949 . S
H536 C540 0.949 . S
C537 C538 1.349 . S
C537 C539 1.327 . S
C537 H560 0.950 . S
C538 C537 1.349 . S
C538 C550 1.349 . S
C539 C537 1.327 . S
C539 C555 1.429 . S
C539 H561 0.950 . S
C540 H536 0.949 . S
C540 C548 1.574 . S
C540 C556 1.368 . S
H541 C549 0.950 . S
H542 C547 0.950 . S
H543 C548 0.949 . S
H544 C550 0.950 . S
H545 C551 0.950 . S
H546 C552 0.949 . S
C547 H542 0.950 . S
C547 C549 1.327 . S
C547 C553 1.429 . S
C548 C540 1.574 . S
C548 H543 0.949 . S
C548 C554 1.368 . S
C549 C533 1.349 . S
C549 H541 0.950 . S
C549 C547 1.327 . S
C550 C538 1.349 . S
C550 H544 0.950 . S
C550 C551 1.327 . S
C551 H545 0.950 . S
C551 C550 1.327 . S
C551 C555 1.429 . S
C552 C535 1.574 . S
C552 H546 0.949 . S
C552 C556 1.368 . S
C553 C534 1.429 . S
C553 C547 1.429 . S
C553 C554 1.523 . S
C554 C535 1.368 . S
C554 C548 1.368 . S
C554 C553 1.523 . S
C555 C539 1.429 . S
C555 C551 1.429 . S
C555 C556 1.523 . S
C556 C540 1.368 . S
C556 C552 1.368 . S
C556 C555 1.523 . S
H557 C532 0.950 1_655 S
H558 C534 0.950 . S
H559 C535 0.949 . S
H560 C537 0.950 . S
H561 C539 0.950 . S
C562 C563 1.349 . S
C562 C564 1.327 . S
C562 H587 0.950 . S
C563 C562 1.349 . S
C563 C579 1.349 . S
C564 C562 1.327 . S
C564 C583 1.429 . S
C564 H588 0.950 . S
C565 C582 1.574 . S
C565 C584 1.368 . S
C565 H589 0.949 . S
H566 C570 0.949 . S
C567 C568 1.349 . S
C567 C569 1.327 . S
C567 H590 0.950 . S
C568 C567 1.349 . S
C568 C580 1.349 . S
C569 C567 1.327 . S
C569 C585 1.429 . S
C569 H591 0.950 . S
C570 H566 0.949 . S
C570 C578 1.574 . S
C570 C586 1.368 . S
H571 C579 0.950 . S
H572 C577 0.950 . S
H573 C578 0.949 . S
H574 C580 0.950 . S
H575 C581 0.950 . S
H576 C582 0.949 . S
C577 H572 0.950 . S
C577 C579 1.327 . S
C577 C583 1.429 . S
C578 C570 1.574 . S
C578 H573 0.949 . S
C578 C584 1.368 . S
C579 C563 1.349 . S
C579 H571 0.950 . S
C579 C577 1.327 . S
C580 C568 1.349 . S
C580 H574 0.950 . S
C580 C581 1.327 . S
C581 H575 0.950 . S
C581 C580 1.327 . S
C581 C585 1.429 . S
C582 C565 1.574 . S
C582 H576 0.949 . S
C582 C586 1.368 . S
C583 C564 1.429 . S
C583 C577 1.429 . S
C583 C584 1.523 . S
C584 C565 1.368 . S
C584 C578 1.368 . S
C584 C583 1.523 . S
C585 C569 1.429 . S
C585 C581 1.429 . S
C585 C586 1.523 . S
C586 C570 1.368 . S
C586 C582 1.368 . S
C586 C585 1.523 . S
H587 C562 0.950 . S
H588 C564 0.950 . S
H589 C565 0.949 . S
H590 C567 0.950 . S
H591 C569 0.950 . S
C113 C25 1.432 . S
C118 C11 1.432 . S
C143 C21 1.373 . S
C148 C39 1.388 1_554 S
C173 C49 1.341 . S
C178 C35 1.341 . S
C203 C53 1.388 1_556 S
C208 C7 1.373 . S
C233 C67 1.432 . S
C238 C81 1.432 . S
C263 C77 1.373 1_556 S
C268 C95 1.388 . S
C293 C91 1.341 . S
C298 C105 1.341 . S
C323 C63 1.373 1_554 S
C328 C109 1.388 . S
C353 C13 1.372 . S
C358 C106 1.400 . S
C383 C64 1.546 1_565 S
C388 C22 1.546 . S
C413 C83 1.372 . S
C418 C36 1.400 1_545 S
C443 C55 1.223 . S
C448 C97 1.223 . S
C473 C41 1.223 . S
C478 C111 1.223 . S
C503 C69 1.372 . S
C508 C50 1.400 1_655 S
C533 C78 1.546 1_455 S
C538 C8 1.546 . S
C563 C27 1.372 . S
C568 C92 1.400 . S
