# Generated by pormake.
# Topology pcb, (4)-cn, num edge types: 1
# Building blocks:
#     Node 0, Type 0, BuildingBlock: CEKHIL_clean_sbu_0, # of connection points: 4
#     Node 1, Type 0, BuildingBlock: CEKHIL_clean_sbu_0, # of connection points: 4
#     Node 2, Type 0, BuildingBlock: CEKHIL_clean_sbu_0, # of connection points: 4
#     Node 3, Type 0, BuildingBlock: CEKHIL_clean_sbu_0, # of connection points: 4
#     Node 4, Type 0, BuildingBlock: CEKHIL_clean_sbu_0, # of connection points: 4
#     Node 5, Type 0, BuildingBlock: CEKHIL_clean_sbu_0, # of connection points: 4
#     Node 6, Type 0, BuildingBlock: CEKHIL_clean_sbu_0, # of connection points: 4
#     Node 7, Type 0, BuildingBlock: CEKHIL_clean_sbu_0, # of connection points: 4
#     Node 8, Type 0, BuildingBlock: CEKHIL_clean_sbu_0, # of connection points: 4
#     Node 9, Type 0, BuildingBlock: CEKHIL_clean_sbu_0, # of connection points: 4
#     Node 10, Type 0, BuildingBlock: CEKHIL_clean_sbu_0, # of connection points: 4
#     Node 11, Type 0, BuildingBlock: CEKHIL_clean_sbu_0, # of connection points: 4
#     Node 12, Type 0, BuildingBlock: CEKHIL_clean_sbu_0, # of connection points: 4
#     Node 13, Type 0, BuildingBlock: CEKHIL_clean_sbu_0, # of connection points: 4
#     Node 14, Type 0, BuildingBlock: CEKHIL_clean_sbu_0, # of connection points: 4
#     Node 15, Type 0, BuildingBlock: CEKHIL_clean_sbu_0, # of connection points: 4
#     Edge 16, Type (0, 0), BuildingBlock: TEMPAE_clean_linker_10, # of connection points: 2
#     Edge 17, Type (0, 0), BuildingBlock: TEMPAE_clean_linker_10, # of connection points: 2
#     Edge 18, Type (0, 0), BuildingBlock: TEMPAE_clean_linker_10, # of connection points: 2
#     Edge 19, Type (0, 0), BuildingBlock: TEMPAE_clean_linker_10, # of connection points: 2
#     Edge 20, Type (0, 0), BuildingBlock: TEMPAE_clean_linker_10, # of connection points: 2
#     Edge 21, Type (0, 0), BuildingBlock: TEMPAE_clean_linker_10, # of connection points: 2
#     Edge 22, Type (0, 0), BuildingBlock: TEMPAE_clean_linker_10, # of connection points: 2
#     Edge 23, Type (0, 0), BuildingBlock: TEMPAE_clean_linker_10, # of connection points: 2
#     Edge 24, Type (0, 0), BuildingBlock: TEMPAE_clean_linker_10, # of connection points: 2
#     Edge 25, Type (0, 0), BuildingBlock: TEMPAE_clean_linker_10, # of connection points: 2
#     Edge 26, Type (0, 0), BuildingBlock: TEMPAE_clean_linker_10, # of connection points: 2
#     Edge 27, Type (0, 0), BuildingBlock: TEMPAE_clean_linker_10, # of connection points: 2
#     Edge 28, Type (0, 0), BuildingBlock: TEMPAE_clean_linker_10, # of connection points: 2
#     Edge 29, Type (0, 0), BuildingBlock: TEMPAE_clean_linker_10, # of connection points: 2
#     Edge 30, Type (0, 0), BuildingBlock: TEMPAE_clean_linker_10, # of connection points: 2
#     Edge 31, Type (0, 0), BuildingBlock: TEMPAE_clean_linker_10, # of connection points: 2
#     Edge 32, Type (0, 0), BuildingBlock: TEMPAE_clean_linker_10, # of connection points: 2
#     Edge 33, Type (0, 0), BuildingBlock: TEMPAE_clean_linker_10, # of connection points: 2
#     Edge 34, Type (0, 0), BuildingBlock: TEMPAE_clean_linker_10, # of connection points: 2
#     Edge 35, Type (0, 0), BuildingBlock: TEMPAE_clean_linker_10, # of connection points: 2
#     Edge 36, Type (0, 0), BuildingBlock: TEMPAE_clean_linker_10, # of connection points: 2
#     Edge 37, Type (0, 0), BuildingBlock: TEMPAE_clean_linker_10, # of connection points: 2
#     Edge 38, Type (0, 0), BuildingBlock: TEMPAE_clean_linker_10, # of connection points: 2
#     Edge 39, Type (0, 0), BuildingBlock: TEMPAE_clean_linker_10, # of connection points: 2
#     Edge 40, Type (0, 0), BuildingBlock: TEMPAE_clean_linker_10, # of connection points: 2
#     Edge 41, Type (0, 0), BuildingBlock: TEMPAE_clean_linker_10, # of connection points: 2
#     Edge 42, Type (0, 0), BuildingBlock: TEMPAE_clean_linker_10, # of connection points: 2
#     Edge 43, Type (0, 0), BuildingBlock: TEMPAE_clean_linker_10, # of connection points: 2
#     Edge 44, Type (0, 0), BuildingBlock: TEMPAE_clean_linker_10, # of connection points: 2
#     Edge 45, Type (0, 0), BuildingBlock: TEMPAE_clean_linker_10, # of connection points: 2
#     Edge 46, Type (0, 0), BuildingBlock: TEMPAE_clean_linker_10, # of connection points: 2
#     Edge 47, Type (0, 0), BuildingBlock: TEMPAE_clean_linker_10, # of connection points: 2
# Relax obj value: 0.234
# Max RMSD: 0.083
# Mean RMSD: 0.083
data_MOF--net-pcb--node1-CEKHIL_clean_sbu_0--edge1-TEMPAE_clean_linker_10
_symmetry_space_group_name_H-M    P1
_symmetry_Int_Tables_number       1
_symmetry_cell_setting            triclinic
loop_
_symmetry_equiv_pos_as_xyz
'x, y, z'
_cell_length_a     57.291161
_cell_length_b     37.200221
_cell_length_c     37.195581
_cell_angle_alpha  89.992464
_cell_angle_beta   89.979355
_cell_angle_gamma 90.040035
loop_
_atom_site_label
_atom_site_type_symbol
_atom_site_fract_x
_atom_site_fract_y
_atom_site_fract_z
_atom_type_partial_charge
Co0 Co 0.13887 0.18633 0.20143 0.0
O1 O 0.17223 0.18357 0.20083 0.0
O2 O 0.15233 0.23176 0.21751 0.0
C3 C 0.13365 0.13235 0.22792 0.0
O4 O 0.10381 0.19692 0.20628 0.0
Co5 Co 0.11195 0.12805 0.15691 0.0
O6 O 0.08478 0.14997 0.18145 0.0
C7 C 0.13684 0.18651 0.12008 0.0
C8 C 0.17249 0.21622 0.21275 0.0
C9 C 0.08483 0.17965 0.19867 0.0
O10 O 0.13883 0.20383 0.14989 0.0
O11 O 0.1292 0.15423 0.11805 0.0
O12 O 0.13835 0.16023 0.24767 0.0
O13 O 0.13455 0.13757 0.19381 0.0
Co14 Co 0.87046 0.20656 0.19728 0.0
O15 O 0.83795 0.19688 0.18975 0.0
O16 O 0.85233 0.22234 0.23867 0.0
C17 C 0.87612 0.22977 0.14195 0.0
O18 O 0.90357 0.22137 0.213 0.0
Co19 Co 0.90756 0.16885 0.14905 0.0
O20 O 0.92694 0.20944 0.16586 0.0
C21 C 0.88522 0.12895 0.2086 0.0
C22 C 0.83411 0.21104 0.22097 0.0
C23 C 0.92316 0.22447 0.19605 0.0
O24 O 0.87441 0.15732 0.21916 0.0
O25 O 0.89816 0.12762 0.18058 0.0
O26 O 0.86784 0.24995 0.16745 0.0
O27 O 0.87909 0.1964 0.15007 0.0
Co28 Co 0.86821 0.81376 0.18948 0.0
O29 O 0.83506 0.81707 0.18519 0.0
O30 O 0.85331 0.77067 0.20919 0.0
C31 C 0.87271 0.87023 0.21074 0.0
O32 O 0.90307 0.80362 0.19847 0.0
Co33 Co 0.89695 0.86718 0.14167 0.0
O34 O 0.92235 0.85039 0.17359 0.0
C35 C 0.87264 0.80574 0.10904 0.0
C36 C 0.83361 0.786 0.2005 0.0
C37 C 0.92194 0.82199 0.19288 0.0
O38 O 0.86988 0.79111 0.1401 0.0
O39 O 0.88059 0.83757 0.10449 0.0
O40 O 0.86732 0.8444 0.23275 0.0
O41 O 0.87304 0.86142 0.17733 0.0
Co42 Co 0.13986 0.79852 0.1862 0.0
O43 O 0.17307 0.8033 0.18393 0.0
O44 O 0.15414 0.77973 0.23008 0.0
C45 C 0.13709 0.77682 0.12959 0.0
O46 O 0.10507 0.78855 0.19578 0.0
Co47 Co 0.11012 0.84263 0.13133 0.0
O48 O 0.08572 0.80814 0.14676 0.0
C49 C 0.13315 0.87863 0.19262 0.0
C50 C 0.17401 0.7882 0.21516 0.0
C51 C 0.08641 0.79083 0.17636 0.0
O52 O 0.13734 0.84824 0.20787 0.0
O53 O 0.12468 0.88167 0.16091 0.0
O54 O 0.14162 0.75498 0.15596 0.0
O55 O 0.13576 0.81019 0.13826 0.0
Co56 Co 0.13644 0.80518 0.80245 0.0
O57 O 0.16901 0.80449 0.81433 0.0
O58 O 0.15147 0.76399 0.78004 0.0
C59 C 0.13606 0.86417 0.78819 0.0
O60 O 0.10276 0.79835 0.78436 0.0
Co61 Co 0.10263 0.8543 0.84554 0.0
O62 O 0.08235 0.84624 0.80344 0.0
C63 C 0.11828 0.78485 0.87648 0.0
C64 C 0.17059 0.77571 0.795 0.0
C65 C 0.08421 0.81811 0.78413 0.0
O66 O 0.12951 0.77682 0.84758 0.0
O67 O 0.10752 0.81465 0.88114 0.0
O68 O 0.1422 0.84055 0.7643 0.0
O69 O 0.13173 0.85167 0.81982 0.0
Co70 Co 0.13535 0.20098 0.80817 0.0
O71 O 0.16785 0.18968 0.81364 0.0
O72 O 0.15278 0.2164 0.76592 0.0
C73 C 0.13179 0.22387 0.86406 0.0
O74 O 0.1023 0.21785 0.79429 0.0
Co75 Co 0.09824 0.16586 0.85816 0.0
O76 O 0.07978 0.20791 0.84276 0.0
C77 C 0.11783 0.12458 0.79709 0.0
C78 C 0.17123 0.20438 0.78252 0.0
C79 C 0.0832 0.22242 0.81222 0.0
O80 O 0.12963 0.15202 0.78632 0.0
O81 O 0.1052 0.12445 0.8255 0.0
O82 O 0.1398 0.24388 0.83822 0.0
O83 O 0.12765 0.19084 0.85582 0.0
Co84 Co 0.86917 0.18641 0.80728 0.0
O85 O 0.83601 0.18351 0.81205 0.0
O86 O 0.85458 0.22989 0.78832 0.0
C87 C 0.87315 0.13002 0.78545 0.0
O88 O 0.90388 0.19664 0.79763 0.0
Co89 Co 0.89849 0.13253 0.85344 0.0
O90 O 0.92386 0.15052 0.82209 0.0
C91 C 0.87451 0.19348 0.88763 0.0
C92 C 0.8348 0.2148 0.79705 0.0
C93 C 0.92305 0.17908 0.80311 0.0
O94 O 0.87134 0.2085 0.85686 0.0
O95 O 0.88255 0.16163 0.8915 0.0
O96 O 0.86777 0.15614 0.76379 0.0
O97 O 0.87391 0.13855 0.81892 0.0
Co98 Co 0.86934 0.79196 0.79947 0.0
O99 O 0.83623 0.79695 0.80433 0.0
O100 O 0.85365 0.7738 0.75657 0.0
C101 C 0.87437 0.76932 0.85523 0.0
O102 O 0.90375 0.7818 0.78701 0.0
Co103 Co 0.9012 0.83579 0.85188 0.0
O104 O 0.92458 0.80072 0.8348 0.0
C105 C 0.8787 0.87188 0.79033 0.0
C106 C 0.83429 0.78218 0.77301 0.0
C107 C 0.92299 0.78379 0.8051 0.0
O108 O 0.87135 0.84172 0.77774 0.0
O109 O 0.88935 0.87531 0.82036 0.0
O110 O 0.86816 0.74817 0.82915 0.0
O111 O 0.87544 0.80296 0.8473 0.0
Co112 Co 0.63359 0.69324 0.7004 0.0
O113 O 0.66592 0.6859 0.68914 0.0
O114 O 0.65198 0.73487 0.71502 0.0
C115 C 0.62898 0.638 0.72437 0.0
O116 O 0.60079 0.70891 0.71694 0.0
Co117 Co 0.59562 0.64433 0.66606 0.0
O118 O 0.57747 0.66116 0.7079 0.0
C119 C 0.61609 0.7042 0.62398 0.0
C120 C 0.67003 0.71703 0.70331 0.0
C121 C 0.58137 0.69186 0.72176 0.0
O122 O 0.62828 0.71456 0.65115 0.0
O123 O 0.60288 0.67642 0.62428 0.0
O124 O 0.63745 0.66388 0.74384 0.0
O125 O 0.625 0.64575 0.69117 0.0
Co126 Co 0.36626 0.69879 0.69697 0.0
O127 O 0.33303 0.69363 0.69914 0.0
O128 O 0.35436 0.72084 0.74078 0.0
C129 C 0.36688 0.71706 0.63901 0.0
O130 O 0.40138 0.70895 0.70222 0.0
Co131 Co 0.39325 0.65053 0.64211 0.0
O132 O 0.41947 0.68251 0.65539 0.0
C133 C 0.37339 0.61926 0.70832 0.0
C134 C 0.33389 0.71057 0.72944 0.0
C135 C 0.41982 0.70261 0.68318 0.0
O136 O 0.36971 0.65065 0.72167 0.0
O137 O 0.38038 0.61378 0.67611 0.0
O138 O 0.36321 0.74032 0.66444 0.0
O139 O 0.36826 0.68414 0.64938 0.0
Co140 Co 0.36587 0.31053 0.69414 0.0
O141 O 0.33259 0.31441 0.69539 0.0
O142 O 0.35214 0.26592 0.71206 0.0
C143 C 0.37242 0.36494 0.71921 0.0
O144 O 0.40088 0.29905 0.69709 0.0
Co145 Co 0.39204 0.36723 0.64652 0.0
O146 O 0.41975 0.34387 0.66804 0.0
C147 C 0.3656 0.30873 0.61278 0.0
C148 C 0.3321 0.28208 0.70811 0.0
C149 C 0.41975 0.31493 0.68651 0.0
O150 O 0.36445 0.29195 0.643 0.0
O151 O 0.37322 0.34091 0.60962 0.0
O152 O 0.36795 0.33752 0.73973 0.0
O153 O 0.37056 0.35898 0.6853 0.0
Co154 Co 0.63916 0.29976 0.69417 0.0
O155 O 0.67219 0.30404 0.68737 0.0
O156 O 0.65551 0.2859 0.73792 0.0
C157 C 0.63281 0.27188 0.64117 0.0
O158 O 0.60517 0.29114 0.70934 0.0
Co159 Co 0.60656 0.33907 0.63923 0.0
O160 O 0.58211 0.31078 0.66411 0.0
C161 C 0.63274 0.38034 0.69348 0.0
C162 C 0.67458 0.29248 0.71996 0.0
C163 C 0.58507 0.29486 0.69411 0.0
O164 O 0.63749 0.35137 0.71092 0.0
O165 O 0.62297 0.38062 0.66253 0.0
O166 O 0.63966 0.25326 0.66876 0.0
O167 O 0.63201 0.3061 0.64594 0.0
Co168 Co 0.63769 0.30864 0.30731 0.0
O169 O 0.67095 0.31188 0.30828 0.0
O170 O 0.65149 0.26473 0.28783 0.0
C171 C 0.63293 0.36456 0.28462 0.0
O172 O 0.60265 0.29819 0.30157 0.0
Co173 Co 0.61047 0.36378 0.35496 0.0
O174 O 0.58362 0.34445 0.32758 0.0
C175 C 0.63547 0.30325 0.38828 0.0
C176 C 0.67152 0.2804 0.29367 0.0
C177 C 0.58369 0.3155 0.30916 0.0
O178 O 0.63768 0.28769 0.35755 0.0
O179 O 0.62761 0.33521 0.39215 0.0
O180 O 0.63709 0.33785 0.26305 0.0
O181 O 0.63356 0.35675 0.31827 0.0
Co182 Co 0.63892 0.69547 0.30553 0.0
O183 O 0.67214 0.68959 0.307 0.0
O184 O 0.65323 0.71834 0.26378 0.0
C185 C 0.63643 0.71132 0.36402 0.0
O186 O 0.60426 0.70772 0.29706 0.0
Co187 Co 0.60768 0.64804 0.35513 0.0
O188 O 0.58488 0.68652 0.34518 0.0
C189 C 0.62584 0.61855 0.28664 0.0
C190 C 0.67303 0.70786 0.27749 0.0
C191 C 0.58568 0.70551 0.31669 0.0
O192 O 0.63558 0.64863 0.27839 0.0
O193 O 0.61499 0.61279 0.31617 0.0
O194 O 0.64136 0.73543 0.3399 0.0
O195 O 0.63456 0.67889 0.35227 0.0
Co196 Co 0.37065 0.69338 0.30589 0.0
O197 O 0.33779 0.68909 0.31452 0.0
O198 O 0.35413 0.73449 0.28554 0.0
C199 C 0.37426 0.63564 0.28796 0.0
O200 O 0.40449 0.70514 0.29108 0.0
Co201 Co 0.40542 0.64526 0.3483 0.0
O202 O 0.42577 0.65701 0.30711 0.0
C203 C 0.38568 0.71058 0.38235 0.0
C204 C 0.33517 0.7189 0.29713 0.0
C205 C 0.42345 0.68634 0.28983 0.0
O206 O 0.37466 0.71906 0.3534 0.0
O207 O 0.39793 0.68202 0.38581 0.0
O208 O 0.36788 0.66012 0.26507 0.0
O209 O 0.37709 0.64654 0.32053 0.0
Co210 Co 0.3702 0.30016 0.30135 0.0
O211 O 0.33792 0.31264 0.30726 0.0
O212 O 0.35228 0.28539 0.25936 0.0
C213 C 0.3735 0.27695 0.35717 0.0
O214 O 0.40293 0.28226 0.28699 0.0
Co215 Co 0.40825 0.33316 0.3508 0.0
O216 O 0.42557 0.28984 0.33568 0.0
C217 C 0.38933 0.37554 0.28987 0.0
C218 C 0.33411 0.29799 0.27626 0.0
C219 C 0.42186 0.27621 0.30484 0.0
O220 O 0.37662 0.34892 0.27955 0.0
O221 O 0.4023 0.37483 0.31791 0.0
O222 O 0.36522 0.25736 0.33123 0.0
O223 O 0.37823 0.30984 0.34902 0.0
C224 C 0.30513 0.28034 0.22848 0.0
C225 C 0.30985 0.29333 0.26309 0.0
C226 C 0.28209 0.27257 0.21776 0.0
C227 C 0.26348 0.27713 0.24253 0.0
C228 C 0.26811 0.29165 0.27693 0.0
C229 C 0.29115 0.2999 0.28661 0.0
C230 C 0.27779 0.25792 0.18052 0.0
C231 C 0.24897 0.2962 0.30451 0.0
C232 C 0.19944 0.26963 0.21463 0.0
C233 C 0.19505 0.23326 0.22163 0.0
C234 C 0.22184 0.28431 0.22041 0.0
C235 C 0.23986 0.26227 0.23452 0.0
C236 C 0.23516 0.22576 0.24242 0.0
C237 C 0.21297 0.21165 0.23537 0.0
C238 C 0.22636 0.32311 0.21085 0.0
C239 C 0.25354 0.2015 0.25855 0.0
H240 H 0.31945 0.27549 0.21006 0.0
H241 H 0.29459 0.30997 0.31344 0.0
H242 H 0.2734 0.22893 0.18226 0.0
H243 H 0.26273 0.27175 0.16786 0.0
H244 H 0.2933 0.26101 0.16285 0.0
H245 H 0.25507 0.31085 0.32879 0.0
H246 H 0.23397 0.31095 0.29283 0.0
H247 H 0.24252 0.26935 0.31294 0.0
H248 H 0.18565 0.2862 0.20355 0.0
H249 H 0.20954 0.18351 0.24094 0.0
H250 H 0.24067 0.32474 0.19079 0.0
H251 H 0.23218 0.33817 0.23497 0.0
H252 H 0.21064 0.3365 0.19964 0.0
H253 H 0.26866 0.19932 0.24005 0.0
H254 H 0.24682 0.17402 0.26404 0.0
H255 H 0.26004 0.21314 0.28413 0.0
C256 C 0.71175 0.28922 0.27153 0.0
C257 C 0.69425 0.26533 0.28267 0.0
C258 C 0.73415 0.27712 0.26284 0.0
C259 C 0.7395 0.24016 0.2662 0.0
C260 C 0.72191 0.21573 0.27751 0.0
C261 C 0.69928 0.22859 0.28517 0.0
C262 C 0.75207 0.30401 0.24986 0.0
C263 C 0.72713 0.17626 0.28207 0.0
C264 C 0.79127 0.21139 0.20986 0.0
C265 C 0.80986 0.2153 0.23414 0.0
C266 C 0.76815 0.21771 0.22041 0.0
C267 C 0.76334 0.22753 0.25639 0.0
C268 C 0.7819 0.22973 0.28155 0.0
C269 C 0.80502 0.22401 0.27002 0.0
C270 C 0.74905 0.21598 0.19246 0.0
C271 C 0.77741 0.23946 0.32032 0.0
H272 H 0.70783 0.31766 0.26936 0.0
H273 H 0.68582 0.2102 0.29419 0.0
H274 H 0.76721 0.30446 0.26842 0.0
H275 H 0.75867 0.29601 0.22297 0.0
H276 H 0.74488 0.33167 0.24794 0.0
H277 H 0.7117 0.16089 0.29162 0.0
H278 H 0.73307 0.16463 0.25618 0.0
H279 H 0.74156 0.17273 0.30165 0.0
H280 H 0.79483 0.20468 0.18203 0.0
H281 H 0.81928 0.22669 0.28897 0.0
H282 H 0.742 0.24336 0.18775 0.0
H283 H 0.7344 0.19901 0.20204 0.0
H284 H 0.75538 0.20509 0.16641 0.0
H285 H 0.77225 0.26813 0.32216 0.0
H286 H 0.79307 0.23524 0.33742 0.0
H287 H 0.76278 0.22322 0.33124 0.0
C288 C 0.7904 0.79193 0.20211 0.0
C289 C 0.81024 0.7706 0.2083 0.0
C290 C 0.76796 0.77978 0.21073 0.0
C291 C 0.76504 0.74507 0.22551 0.0
C292 C 0.78485 0.72273 0.23065 0.0
C293 C 0.80731 0.73589 0.22225 0.0
C294 C 0.74749 0.80484 0.20549 0.0
C295 C 0.78234 0.6853 0.24579 0.0
C296 C 0.71246 0.73311 0.28631 0.0
C297 C 0.69592 0.71836 0.26286 0.0
C298 C 0.73502 0.74161 0.27451 0.0
C299 C 0.74151 0.73394 0.2386 0.0
C300 C 0.72495 0.71832 0.21488 0.0
C301 C 0.70212 0.71125 0.22718 0.0
C302 C 0.75174 0.75947 0.30035 0.0
C303 C 0.73142 0.7089 0.17671 0.0
H304 H 0.79239 0.81881 0.1913 0.0
H305 H 0.8225 0.71918 0.22687 0.0
H306 H 0.73382 0.79172 0.18896 0.0
H307 H 0.73955 0.81126 0.23194 0.0
H308 H 0.7526 0.83043 0.19224 0.0
H309 H 0.79895 0.66996 0.24446 0.0
H310 H 0.77672 0.68683 0.27428 0.0
H311 H 0.76867 0.67028 0.23092 0.0
H312 H 0.70758 0.73844 0.31399 0.0
H313 H 0.68939 0.69916 0.20931 0.0
H314 H 0.75719 0.78599 0.28957 0.0
H315 H 0.76772 0.74293 0.30336 0.0
H316 H 0.74392 0.76359 0.32738 0.0
H317 H 0.73592 0.73365 0.16159 0.0
H318 H 0.71705 0.69485 0.16241 0.0
H319 H 0.74711 0.69142 0.17655 0.0
C320 C 0.30673 0.76847 0.28259 0.0
C321 C 0.31137 0.73208 0.28905 0.0
C322 C 0.2839 0.7801 0.27461 0.0
C323 C 0.26558 0.75453 0.27185 0.0
C324 C 0.27027 0.71783 0.27864 0.0
C325 C 0.29298 0.7072 0.28765 0.0
C326 C 0.27943 0.81959 0.26846 0.0
C327 C 0.25156 0.68944 0.27473 0.0
C328 C 0.20085 0.7789 0.26805 0.0
C329 C 0.19705 0.77962 0.23087 0.0
C330 C 0.22335 0.77228 0.28197 0.0
C331 C 0.24213 0.76515 0.2581 0.0
C332 C 0.23816 0.76555 0.22057 0.0
C333 C 0.21581 0.77325 0.2075 0.0
C334 C 0.22707 0.77294 0.32212 0.0
C335 C 0.25739 0.75692 0.1941 0.0
H336 H 0.32087 0.7878 0.284 0.0
H337 H 0.29649 0.67896 0.2924 0.0
H338 H 0.2753 0.82434 0.23972 0.0
H339 H 0.26412 0.82853 0.2844 0.0
H340 H 0.29474 0.8364 0.27582 0.0
H341 H 0.25788 0.66223 0.28225 0.0
H342 H 0.23629 0.69611 0.29176 0.0
H343 H 0.24542 0.6886 0.24645 0.0
H344 H 0.18642 0.78422 0.28613 0.0
H345 H 0.21291 0.77356 0.1787 0.0
H346 H 0.24163 0.79143 0.3289 0.0
H347 H 0.23208 0.7458 0.3317 0.0
H348 H 0.21118 0.78161 0.33687 0.0
H349 H 0.27217 0.77584 0.1976 0.0
H350 H 0.25137 0.75842 0.16575 0.0
H351 H 0.26414 0.72944 0.19921 0.0
C352 C 0.29678 0.6897 0.75628 0.0
C353 C 0.31203 0.71813 0.74867 0.0
C354 C 0.27379 0.69623 0.76753 0.0
C355 C 0.26564 0.73208 0.76973 0.0
C356 C 0.28129 0.76093 0.76315 0.0
C357 C 0.30448 0.75356 0.75313 0.0
C358 C 0.25797 0.66476 0.77553 0.0
C359 C 0.27318 0.79951 0.76447 0.0
C360 C 0.2009 0.74959 0.75462 0.0
C361 C 0.1936 0.75904 0.78923 0.0
C362 C 0.2243 0.74033 0.74794 0.0
C363 C 0.24048 0.73939 0.77682 0.0
C364 C 0.23273 0.74681 0.81217 0.0
C365 C 0.20948 0.75725 0.81783 0.0
C366 C 0.23197 0.73335 0.70973 0.0
C367 C 0.24913 0.74477 0.84386 0.0
H368 H 0.30268 0.66227 0.75239 0.0
H369 H 0.31621 0.77544 0.74639 0.0
H370 H 0.24867 0.66899 0.80136 0.0
H371 H 0.24456 0.66237 0.75417 0.0
H372 H 0.26774 0.63901 0.777 0.0
H373 H 0.28769 0.81882 0.75998 0.0
H374 H 0.25969 0.80397 0.74353 0.0
H375 H 0.26501 0.80543 0.79084 0.0
H376 H 0.18867 0.75156 0.73247 0.0
H377 H 0.20376 0.76461 0.84463 0.0
H378 H 0.24022 0.70649 0.70762 0.0
H379 H 0.24528 0.75352 0.70173 0.0
H380 H 0.21721 0.73467 0.69042 0.0
H381 H 0.25866 0.7188 0.84371 0.0
H382 H 0.23981 0.74752 0.86991 0.0
H383 H 0.26234 0.76649 0.84194 0.0
C384 C 0.19957 0.21874 0.73278 0.0
C385 C 0.19528 0.20938 0.76867 0.0
C386 C 0.22243 0.22589 0.72077 0.0
C387 C 0.24126 0.2246 0.74549 0.0
C388 C 0.23704 0.21411 0.78147 0.0
C389 C 0.21419 0.20624 0.79246 0.0
C390 C 0.22631 0.23617 0.68198 0.0
C391 C 0.25641 0.21334 0.80901 0.0
C392 C 0.30509 0.22913 0.7158 0.0
C393 C 0.30947 0.26608 0.71857 0.0
C394 C 0.28275 0.21513 0.72353 0.0
C395 C 0.26475 0.23858 0.73522 0.0
C396 C 0.26938 0.27578 0.73869 0.0
C397 C 0.29152 0.28905 0.72989 0.0
C398 C 0.2783 0.17545 0.71876 0.0
C399 C 0.251 0.30167 0.75207 0.0
H400 H 0.18506 0.22089 0.71421 0.0
H401 H 0.21104 0.19912 0.8203 0.0
H402 H 0.23069 0.26517 0.68023 0.0
H403 H 0.24126 0.22097 0.67063 0.0
H404 H 0.21062 0.23105 0.66519 0.0
H405 H 0.25057 0.20201 0.83514 0.0
H406 H 0.27134 0.19722 0.79904 0.0
H407 H 0.26288 0.24108 0.81366 0.0
H408 H 0.31889 0.21142 0.70666 0.0
H409 H 0.29489 0.31764 0.73228 0.0
H410 H 0.26362 0.17131 0.69974 0.0
H411 H 0.27308 0.16326 0.74476 0.0
H412 H 0.29389 0.161 0.70843 0.0
H413 H 0.23571 0.30138 0.7338 0.0
H414 H 0.25761 0.32969 0.75395 0.0
H415 H 0.24478 0.29323 0.77905 0.0
C416 C 0.79168 0.20908 0.79297 0.0
C417 C 0.81163 0.23075 0.78939 0.0
C418 C 0.76945 0.222 0.78432 0.0
C419 C 0.76688 0.25785 0.77234 0.0
C420 C 0.78679 0.28044 0.76997 0.0
C421 C 0.80904 0.26649 0.77817 0.0
C422 C 0.74886 0.19665 0.78646 0.0
C423 C 0.78463 0.31904 0.758 0.0
C424 C 0.71545 0.27322 0.71027 0.0
C425 C 0.69815 0.28502 0.73413 0.0
C426 C 0.738 0.2651 0.72228 0.0
C427 C 0.74368 0.27003 0.75898 0.0
C428 C 0.72648 0.28321 0.78307 0.0
C429 C 0.7037 0.28992 0.77046 0.0
C430 C 0.75545 0.24984 0.6959 0.0
C431 C 0.73209 0.28977 0.82215 0.0
H432 H 0.79346 0.18138 0.8016 0.0
H433 H 0.82435 0.28344 0.77564 0.0
H434 H 0.73491 0.20832 0.80351 0.0
H435 H 0.74141 0.19263 0.75922 0.0
H436 H 0.7537 0.16998 0.79761 0.0
H437 H 0.80118 0.33419 0.76163 0.0
H438 H 0.77975 0.32 0.72917 0.0
H439 H 0.77058 0.33274 0.7733 0.0
H440 H 0.71113 0.26924 0.68216 0.0
H441 H 0.69038 0.29947 0.78881 0.0
H442 H 0.76057 0.22235 0.70438 0.0
H443 H 0.77151 0.26648 0.69556 0.0
H444 H 0.74839 0.24841 0.66812 0.0
H445 H 0.73551 0.26382 0.83582 0.0
H446 H 0.71764 0.30365 0.83642 0.0
H447 H 0.74817 0.30627 0.82455 0.0
C448 C 0.80594 0.77433 0.72185 0.0
C449 C 0.81083 0.77385 0.75873 0.0
C450 C 0.78308 0.76801 0.70926 0.0
C451 C 0.76503 0.75991 0.73414 0.0
C452 C 0.77012 0.75891 0.77135 0.0
C453 C 0.79281 0.7664 0.78314 0.0
C454 C 0.77819 0.77017 0.66947 0.0
C455 C 0.75169 0.74921 0.79878 0.0
C456 C 0.69978 0.76554 0.71507 0.0
C457 C 0.69442 0.72947 0.70808 0.0
C458 C 0.72301 0.77637 0.72134 0.0
C459 C 0.74108 0.7503 0.72167 0.0
C460 C 0.73572 0.714 0.71389 0.0
C461 C 0.71257 0.70417 0.70676 0.0
C462 C 0.72812 0.81548 0.72866 0.0
C463 C 0.75423 0.6851 0.71506 0.0
H464 H 0.81982 0.78046 0.70299 0.0
H465 H 0.79657 0.76576 0.81171 0.0
H466 H 0.77239 0.74359 0.65935 0.0
H467 H 0.76378 0.78944 0.66439 0.0
H468 H 0.79376 0.77876 0.65387 0.0
H469 H 0.7586 0.74924 0.82669 0.0
H470 H 0.73697 0.76849 0.79732 0.0
H471 H 0.74456 0.7221 0.79287 0.0
H472 H 0.68585 0.78523 0.71582 0.0
H473 H 0.70856 0.67616 0.70154 0.0
H474 H 0.74315 0.82465 0.7122 0.0
H475 H 0.73298 0.81901 0.75731 0.0
H476 H 0.71285 0.83293 0.72283 0.0
H477 H 0.76917 0.69244 0.69757 0.0
H478 H 0.74745 0.65849 0.7064 0.0
H479 H 0.76103 0.68254 0.74288 0.0
C480 C 0.14871 0.25587 0.91688 0.0
C481 C 0.1306 0.23557 0.90178 0.0
C482 C 0.15132 0.25796 0.95444 0.0
C483 C 0.13524 0.23971 0.97692 0.0
C484 C 0.11543 0.22287 0.96155 0.0
C485 C 0.11353 0.22063 0.92413 0.0
C486 C 0.17254 0.27647 0.96972 0.0
C487 C 0.09747 0.20388 0.98446 0.0
C488 C 0.15238 0.18551 0.05803 0.0
C489 C 0.14172 0.20484 0.08579 0.0
C490 C 0.15246 0.19861 0.02278 0.0
C491 C 0.14111 0.23153 0.015 0.0
C492 C 0.1321 0.25268 0.04347 0.0
C493 C 0.13265 0.23911 0.07878 0.0
C494 C 0.16282 0.17551 0.99343 0.0
C495 C 0.12002 0.28797 0.03637 0.0
H496 H 0.16197 0.26735 0.89952 0.0
H497 H 0.09939 0.20522 0.91236 0.0
H498 H 0.16834 0.29037 0.9953 0.0
H499 H 0.18615 0.25609 0.97553 0.0
H500 H 0.17992 0.2963 0.95047 0.0
H501 H 0.0815 0.19705 0.96894 0.0
H502 H 0.10504 0.17857 0.99511 0.0
H503 H 0.09242 0.22077 0.00775 0.0
H504 H 0.15962 0.15915 0.06362 0.0
H505 H 0.12434 0.25403 0.10031 0.0
H506 H 0.17376 0.19196 0.97512 0.0
H507 H 0.14855 0.16351 0.97718 0.0
H508 H 0.17367 0.15335 0.00442 0.0
H509 H 0.12898 0.30331 0.01482 0.0
H510 H 0.11918 0.30483 0.06099 0.0
H511 H 0.1019 0.28265 0.02726 0.0
C512 C 0.85689 0.19663 0.94797 0.0
C513 C 0.86967 0.21356 0.92079 0.0
C514 C 0.8568 0.21024 0.98299 0.0
C515 C 0.8703 0.24112 0.99112 0.0
C516 C 0.88144 0.26026 0.96299 0.0
C517 C 0.88092 0.24623 0.92786 0.0
C518 C 0.84417 0.18936 0.01193 0.0
C519 C 0.89574 0.29349 0.9704 0.0
C520 C 0.86261 0.26539 0.08906 0.0
C521 C 0.87886 0.24191 0.10455 0.0
C522 C 0.86101 0.26867 0.05146 0.0
C523 C 0.87617 0.24824 0.02938 0.0
C524 C 0.89441 0.22808 0.0453 0.0
C525 C 0.89536 0.22487 0.08273 0.0
C526 C 0.84162 0.29097 0.03557 0.0
C527 C 0.91139 0.20658 0.02287 0.0
H528 H 0.84807 0.17147 0.94223 0.0
H529 H 0.89086 0.25921 0.9067 0.0
H530 H 0.85711 0.17518 0.02902 0.0
H531 H 0.83408 0.20774 0.0295 0.0
H532 H 0.83204 0.16905 0.00049 0.0
H533 H 0.89781 0.31016 0.94582 0.0
H534 H 0.88771 0.31009 0.99187 0.0
H535 H 0.91337 0.28539 0.97967 0.0
H536 H 0.84985 0.27865 0.10601 0.0
H537 H 0.90814 0.20711 0.09481 0.0
H538 H 0.8266 0.27324 0.02917 0.0
H539 H 0.84725 0.30413 0.01023 0.0
H540 H 0.83555 0.3119 0.05471 0.0
H541 H 0.9023 0.18287 0.01136 0.0
H542 H 0.92645 0.19687 0.03897 0.0
H543 H 0.9181 0.22292 0.00017 0.0
C544 C 0.86136 0.73306 0.90795 0.0
C545 C 0.87716 0.75741 0.89265 0.0
C546 C 0.85962 0.7297 0.94554 0.0
C547 C 0.87423 0.7509 0.96778 0.0
C548 C 0.89207 0.77211 0.95206 0.0
C549 C 0.8931 0.77544 0.91465 0.0
C550 C 0.84062 0.7064 0.9612 0.0
C551 C 0.90849 0.79445 0.97467 0.0
C552 C 0.85424 0.80136 0.04939 0.0
C553 C 0.86756 0.78513 0.07632 0.0
C554 C 0.85413 0.78766 0.01439 0.0
C555 C 0.86818 0.75744 0.00608 0.0
C556 C 0.87981 0.73882 0.03405 0.0
C557 C 0.87929 0.75291 0.06915 0.0
C558 C 0.84097 0.80795 0.98563 0.0
C559 C 0.89468 0.70627 0.02644 0.0
H560 H 0.849 0.71911 0.89083 0.0
H561 H 0.9055 0.79394 0.90272 0.0
H562 H 0.84636 0.6936 0.98664 0.0
H563 H 0.82518 0.72332 0.96733 0.0
H564 H 0.83514 0.68512 0.94201 0.0
H565 H 0.92335 0.80509 0.95869 0.0
H566 H 0.89883 0.81758 0.98626 0.0
H567 H 0.91552 0.77838 0.99732 0.0
H568 H 0.84506 0.82619 0.05522 0.0
H569 H 0.88966 0.74047 0.09012 0.0
H570 H 0.83133 0.7891 0.96794 0.0
H571 H 0.85354 0.82304 0.96863 0.0
H572 H 0.82836 0.82742 0.99726 0.0
H573 H 0.88687 0.68933 0.00504 0.0
H574 H 0.89716 0.68968 0.05098 0.0
H575 H 0.91212 0.71518 0.01699 0.0
C576 C 0.1361 0.79228 0.0651 0.0
C577 C 0.13489 0.76569 0.09166 0.0
C578 C 0.13387 0.78379 0.02875 0.0
C579 C 0.13002 0.74761 0.01841 0.0
C580 C 0.12927 0.7203 0.04498 0.0
C581 C 0.13178 0.7297 0.08151 0.0
C582 C 0.13512 0.81396 0.00151 0.0
C583 C 0.12506 0.6815 0.03521 0.0
C584 C 0.10011 0.75795 0.93054 0.0
C585 C 0.11954 0.76081 0.90787 0.0
C586 C 0.10269 0.74718 0.96639 0.0
C587 C 0.12533 0.74012 0.97982 0.0
C588 C 0.14431 0.73736 0.95553 0.0
C589 C 0.14118 0.74777 0.91952 0.0
C590 C 0.08179 0.74892 0.99102 0.0
C591 C 0.16857 0.72866 0.96857 0.0
H592 H 0.13882 0.8201 0.07271 0.0
H593 H 0.13088 0.70906 0.10204 0.0
H594 H 0.14868 0.80808 0.98105 0.0
H595 H 0.11816 0.81649 0.98734 0.0
H596 H 0.13927 0.8403 0.01406 0.0
H597 H 0.13184 0.66308 0.05626 0.0
H598 H 0.106 0.67685 0.0327 0.0
H599 H 0.13325 0.67451 0.0091 0.0
H600 H 0.08324 0.76732 0.92121 0.0
H601 H 0.1562 0.74959 0.90184 0.0
H602 H 0.08193 0.77494 0.00564 0.0
H603 H 0.08238 0.72705 0.01125 0.0
H604 H 0.06516 0.74696 0.97578 0.0
H605 H 0.17663 0.75331 0.97993 0.0
H606 H 0.17983 0.71894 0.94627 0.0
H607 H 0.16809 0.70803 0.9901 0.0
C608 C 0.05885 0.22514 0.23031 0.0
C609 C 0.06153 0.19475 0.20826 0.0
C610 C 0.03646 0.2393 0.23777 0.0
C611 C 0.01641 0.22275 0.22266 0.0
C612 C 0.01912 0.19185 0.20082 0.0
C613 C 0.04144 0.1783 0.19413 0.0
C614 C 0.03428 0.27166 0.26194 0.0
C615 C 0.99842 0.17329 0.18359 0.0
C616 C 0.95264 0.22248 0.24477 0.0
C617 C 0.94411 0.23927 0.21373 0.0
C618 C 0.97678 0.22168 0.25182 0.0
C619 C 0.99244 0.23791 0.22712 0.0
C620 C 0.98341 0.26015 0.19953 0.0
C621 C 0.95929 0.26041 0.19307 0.0
C622 C 0.98561 0.19882 0.28238 0.0
C623 C 0.99929 0.27873 0.17301 0.0
H624 H 0.07418 0.23788 0.24166 0.0
H625 H 0.04306 0.15488 0.177 0.0
H626 H 0.0223 0.29188 0.25013 0.0
H627 H 0.0267 0.26321 0.28807 0.0
H628 H 0.05144 0.28456 0.26714 0.0
H629 H 0.00359 0.14946 0.16746 0.0
H630 H 0.98593 0.16432 0.20455 0.0
H631 H 0.98909 0.19228 0.16565 0.0
H632 H 0.94095 0.20608 0.26082 0.0
H633 H 0.95266 0.27358 0.16913 0.0
H634 H 1.00163 0.21056 0.29431 0.0
H635 H 0.99003 0.17167 0.27206 0.0
H636 H 0.97218 0.19574 0.30372 0.0
H637 H 0.01498 0.28974 0.18653 0.0
H638 H 0.99014 0.30091 0.15882 0.0
H639 H 0.00521 0.25895 0.1526 0.0
C640 C 0.86911 0.92052 0.25539 0.0
C641 C 0.87689 0.90767 0.22204 0.0
C642 C 0.8702 0.95744 0.26353 0.0
C643 C 0.87922 0.98167 0.23761 0.0
C644 C 0.88833 0.96831 0.20483 0.0
C645 C 0.88704 0.93155 0.19753 0.0
C646 C 0.86068 0.97056 0.29899 0.0
C647 C 0.89839 0.99304 0.17649 0.0
C648 C 0.86006 0.0766 0.22059 0.0
C649 C 0.88093 0.09489 0.22718 0.0
C650 C 0.8582 0.03972 0.22779 0.0
C651 C 0.87761 0.02122 0.24245 0.0
C652 C 0.89758 0.04079 0.25344 0.0
C653 C 0.89923 0.07743 0.24486 0.0
C654 C 0.83665 0.01991 0.21544 0.0
C655 C 0.91818 0.02234 0.27062 0.0
H656 H 0.86127 0.90205 0.27444 0.0
H657 H 0.89337 0.92168 0.17193 0.0
H658 H 0.87159 0.9926 0.31006 0.0
H659 H 0.84283 0.9813 0.29491 0.0
H660 H 0.85967 0.94851 0.31909 0.0
H661 H 0.90535 0.9781 0.15295 0.0
H662 H 0.88471 0.01184 0.16689 0.0
H663 H 0.91273 0.00941 0.18802 0.0
H664 H 0.84602 0.09032 0.20664 0.0
H665 H 0.91536 0.09184 0.24993 0.0
H666 H 0.83096 0.00014 0.23596 0.0
H667 H 0.84072 0.00482 0.19046 0.0
H668 H 0.82195 0.03852 0.20973 0.0
H669 H 0.91234 0.00114 0.2896 0.0
H670 H 0.92944 0.04178 0.28525 0.0
H671 H 0.92888 0.00926 0.24947 0.0
C672 C 0.96373 0.83396 0.20621 0.0
C673 C 0.94505 0.80949 0.20634 0.0
C674 C 0.98686 0.82249 0.20974 0.0
C675 C 0.99165 0.78551 0.21489 0.0
C676 C 0.97277 0.76118 0.21951 0.0
C677 C 0.94961 0.77336 0.21467 0.0
C678 C 0.00618 0.84974 0.2045 0.0
C679 C 0.9769 0.72194 0.22731 0.0
C680 C 0.04679 0.76699 0.16392 0.0
C681 C 0.0637 0.77667 0.18941 0.0
C682 C 0.0231 0.76513 0.17304 0.0
C683 C 0.01608 0.77276 0.20874 0.0
C684 C 0.0334 0.7771 0.23567 0.0
C685 C 0.05713 0.77939 0.22564 0.0
C686 C 0.00546 0.7596 0.14336 0.0
C687 C 0.02679 0.78285 0.27446 0.0
H688 H 0.96043 0.86217 0.20095 0.0
H689 H 0.93532 0.75426 0.21548 0.0
H690 H 0.01839 0.84912 0.22758 0.0
H691 H 0.01631 0.84306 0.17995 0.0
H692 H 0.99944 0.8776 0.20166 0.0
H693 H 0.96238 0.71061 0.24357 0.0
H694 H 0.97758 0.70679 0.20166 0.0
H695 H 0.99359 0.71762 0.24184 0.0
H696 H 0.05188 0.76391 0.136 0.0
H697 H 0.07013 0.78633 0.24565 0.0
H698 H 0.99631 0.78532 0.1379 0.0
H699 H 0.99215 0.7396 0.15155 0.0
H700 H 0.01374 0.75029 0.11801 0.0
H701 H 0.02344 0.81183 0.27919 0.0
H702 H 0.04111 0.77438 0.29273 0.0
H703 H 0.01068 0.76777 0.28144 0.0
C704 C 0.11244 0.07474 0.22757 0.0
C705 C 0.13021 0.09594 0.24215 0.0
C706 C 0.1129 0.0373 0.23104 0.0
C707 C 0.13204 0.02077 0.24856 0.0
C708 C 0.14861 0.04236 0.26684 0.0
C709 C 0.14742 0.08 0.26355 0.0
C710 C 0.09443 0.01544 0.21202 0.0
C711 C 0.16906 0.02583 0.28623 0.0
C712 C 0.12811 0.91892 0.2459 0.0
C713 C 0.13779 0.91236 0.21194 0.0
C714 C 0.12771 0.95401 0.26011 0.0
C715 C 0.13737 0.98264 0.23982 0.0
C716 C 0.14914 0.97519 0.20715 0.0
C717 C 0.14899 0.9402 0.1935 0.0
C718 C 0.11521 0.96071 0.29515 0.0
C719 C 0.16011 0.00468 0.18483 0.0
H720 H 0.09906 0.08724 0.21122 0.0
H721 H 0.16124 0.09654 0.27467 0.0
H722 H 0.10177 0.00442 0.18669 0.0
H723 H 0.08879 0.99243 0.22888 0.0
H724 H 0.07887 0.03189 0.2052 0.0
H725 H 0.17679 0.04485 0.30595 0.0
H726 H 0.16385 0.00085 0.30042 0.0
H727 H 0.18274 0.01865 0.26636 0.0
H728 H 0.11937 0.89728 0.26007 0.0
H729 H 0.15663 0.93489 0.16733 0.0
H730 H 0.09704 0.9693 0.28946 0.0
H731 H 0.12377 0.98241 0.31079 0.0
H732 H 0.11446 0.93598 0.31187 0.0
H733 H 0.14619 0.02178 0.17308 0.0
H734 H 0.17088 0.99382 0.1625 0.0
H735 H 0.17128 0.02212 0.20181 0.0
C736 C 0.96365 0.7633 0.81441 0.0
C737 C 0.9454 0.7703 0.79027 0.0
C738 C 0.98693 0.763 0.80307 0.0
C739 C 0.99216 0.7685 0.76624 0.0
C740 C 0.97361 0.76983 0.74098 0.0
C741 C 0.95033 0.77131 0.75334 0.0
C742 C 0.00588 0.76113 0.8313 0.0
C743 C 0.97822 0.77262 0.70118 0.0
C744 C 0.04396 0.83014 0.76241 0.0
C745 C 0.06239 0.80563 0.76641 0.0
C746 C 0.02091 0.81836 0.75826 0.0
C747 C 0.01617 0.78102 0.75666 0.0
C748 C 0.03508 0.7565 0.7546 0.0
C749 C 0.05806 0.76901 0.76013 0.0
C750 C 1.00152 0.84586 0.76006 0.0
C751 C 0.03105 0.71677 0.74965 0.0
H752 H 0.95987 0.76135 0.84293 0.0
H753 H 0.93631 0.77603 0.73434 0.0
H754 H 0.01838 0.73939 0.82478 0.0
H755 H 0.01575 0.78682 0.83186 0.0
H756 H 0.9988 0.75607 0.85865 0.0
H757 H 0.96477 0.7575 0.68587 0.0
H758 H 0.97706 0.80115 0.69273 0.0
H759 H 0.99574 0.76217 0.6939 0.0
H760 H 0.04726 0.85864 0.76593 0.0
H761 H 0.07221 0.74982 0.76228 0.0
H762 H 0.99109 0.8417 0.78487 0.0
H763 H 0.98963 0.84271 0.7368 0.0
H764 H 0.00823 0.87389 0.76013 0.0
H765 H 0.03085 0.70333 0.77626 0.0
H766 H 0.04546 0.70465 0.73375 0.0
H767 H 0.01423 0.71124 0.73591 0.0
C768 C 0.13334 0.91624 0.74535 0.0
C769 C 0.13442 0.90302 0.78061 0.0
C770 C 0.13122 0.95337 0.73877 0.0
C771 C 0.13051 0.97753 0.76818 0.0
C772 C 0.13225 0.96418 0.80375 0.0
C773 C 0.13396 0.92715 0.80947 0.0
C774 C 0.12907 0.9666 0.70057 0.0
C775 C 0.1319 0.98896 0.83597 0.0
C776 C 0.1426 0.07712 0.76943 0.0
C777 C 0.12036 0.09003 0.77819 0.0
C778 C 0.14604 0.04046 0.76204 0.0
C779 C 0.1267 0.0167 0.7629 0.0
C780 C 0.10389 0.03069 0.76706 0.0
C781 C 0.10103 0.06718 0.77519 0.0
C782 C 0.17064 0.02668 0.75768 0.0
C783 C 0.08272 0.00652 0.76713 0.0
H784 H 0.13367 0.89756 0.72299 0.0
H785 H 0.13505 0.91708 0.83678 0.0
H786 H 0.11109 0.97665 0.69595 0.0
H787 H 0.14115 0.98938 0.69568 0.0
H788 H 0.13276 0.94505 0.68069 0.0
H789 H 0.13485 0.97437 0.86163 0.0
H790 H 0.14556 0.00994 0.83318 0.0
H791 H 0.11479 0.00282 0.83762 0.0
H792 H 0.15756 0.09484 0.77177 0.0
H793 H 0.08377 0.07737 0.78154 0.0
H794 H 0.17147 0.00509 0.73716 0.0
H795 H 0.17662 0.01509 0.78359 0.0
H796 H 0.1829 0.04852 0.74996 0.0
H797 H 0.08402 0.98591 0.74568 0.0
H798 H 0.06633 0.022 0.7633 0.0
H799 H 0.08163 0.99227 0.79329 0.0
C800 C 0.04586 0.25511 0.81792 0.0
C801 C 0.06223 0.23842 0.79541 0.0
C802 C 0.02206 0.25526 0.80917 0.0
C803 C 0.0146 0.23865 0.77691 0.0
C804 C 0.03154 0.22842 0.75107 0.0
C805 C 0.05533 0.22793 0.76079 0.0
C806 C 0.00479 0.26798 0.83702 0.0
C807 C 0.02435 0.21361 0.71504 0.0
C808 C 0.96609 0.17266 0.79602 0.0
C809 C 0.94588 0.19313 0.78982 0.0
C810 C 0.98838 0.18671 0.79004 0.0
C811 C 0.99087 0.22197 0.77615 0.0
C812 C 0.97059 0.2417 0.76659 0.0
C813 C 0.94828 0.22723 0.77402 0.0
C814 C 0.00928 0.16434 0.80104 0.0
C815 C 0.97214 0.27858 0.75 0.0
H816 H 0.05127 0.26409 0.84439 0.0
H817 H 0.06794 0.21555 0.74293 0.0
H818 H 0.991 0.28453 0.82431 0.0
H819 H 0.99622 0.24437 0.84969 0.0
H820 H 0.0133 0.28409 0.85849 0.0
H821 H 0.0385 0.21691 0.69487 0.0
H822 H 0.02053 0.18448 0.71762 0.0
H823 H 0.00833 0.22715 0.70512 0.0
H824 H 0.96464 0.14594 0.80738 0.0
H825 H 0.93285 0.24316 0.7685 0.0
H826 H 0.01958 0.17877 0.82178 0.0
H827 H 0.02084 0.15974 0.7776 0.0
H828 H 0.00422 0.13773 0.81213 0.0
H829 H 0.9691 0.29916 0.77107 0.0
H830 H 0.95831 0.28204 0.72936 0.0
H831 H 0.98938 0.28369 0.73737 0.0
C832 C 0.8544 0.92515 0.77865 0.0
C833 C 0.8743 0.90511 0.77038 0.0
C834 C 0.85343 0.96196 0.77071 0.0
C835 C 0.87291 0.97878 0.75427 0.0
C836 C 0.89177 0.95752 0.7419 0.0
C837 C 0.89239 0.92082 0.7506 0.0
C838 C 0.83291 0.98353 0.78418 0.0
C839 C 0.91253 0.9742 0.72333 0.0
C840 C 0.86743 0.07995 0.74104 0.0
C841 C 0.87628 0.0924 0.77391 0.0
C842 C 0.86722 0.04294 0.73306 0.0
C843 C 0.87603 0.01821 0.75865 0.0
C844 C 0.8863 0.03107 0.79081 0.0
C845 C 0.88628 0.06793 0.79797 0.0
C846 C 0.85647 0.03034 0.69827 0.0
C847 C 0.89619 0.00579 0.81876 0.0
H848 H 0.84055 0.91283 0.79429 0.0
H849 H 0.90785 0.90514 0.7445 0.0
H850 H 0.83806 0.99822 0.80891 0.0
H851 H 0.82746 0.00374 0.76395 0.0
H852 H 0.81772 0.96611 0.79069 0.0
H853 H 0.92268 0.95384 0.70807 0.0
H854 H 0.90698 0.99585 0.70468 0.0
H855 H 0.92423 0.98638 0.74376 0.0
H856 H 0.8597 0.09886 0.72234 0.0
H857 H 0.89342 0.07747 0.82319 0.0
H858 H 0.83847 0.02064 0.70351 0.0
H859 H 0.8665 0.00764 0.68663 0.0
H860 H 0.85551 0.05238 0.67816 0.0
H861 H 0.88206 0.98853 0.82969 0.0
H862 H 0.90449 0.02034 0.8415 0.0
H863 H 0.90942 0.98786 0.80645 0.0
C864 C 0.63255 0.75481 0.41546 0.0
C865 C 0.63368 0.71941 0.40263 0.0
C866 C 0.62994 0.76177 0.45247 0.0
C867 C 0.62876 0.73259 0.47689 0.0
C868 C 0.63024 0.69688 0.46392 0.0
C869 C 0.63251 0.6908 0.42704 0.0
C870 C 0.62816 0.80011 0.46539 0.0
C871 C 0.62922 0.66488 0.48896 0.0
C872 C 0.64106 0.73108 0.57627 0.0
C873 C 0.61876 0.72287 0.58933 0.0
C874 C 0.64449 0.73851 0.53962 0.0
C875 C 0.62508 0.7383 0.51602 0.0
C876 C 0.60226 0.73476 0.53019 0.0
C877 C 0.5994 0.72653 0.56667 0.0
C878 C 0.66912 0.74205 0.52566 0.0
C879 C 0.58102 0.73532 0.50618 0.0
H880 H 0.63347 0.77699 0.39661 0.0
H881 H 0.63354 0.66336 0.41734 0.0
H882 H 0.61111 0.80435 0.47887 0.0
H883 H 0.64195 0.80567 0.48557 0.0
H884 H 0.62986 0.81977 0.44305 0.0
H885 H 0.6317 0.63897 0.47461 0.0
H886 H 0.6429 0.66722 0.50995 0.0
H887 H 0.61207 0.66409 0.5028 0.0
H888 H 0.65604 0.72825 0.59387 0.0
H889 H 0.58209 0.72066 0.57698 0.0
H890 H 0.67018 0.76241 0.50395 0.0
H891 H 0.67473 0.7159 0.51419 0.0
H892 H 0.68151 0.7495 0.54739 0.0
H893 H 0.58264 0.75641 0.48525 0.0
H894 H 0.56477 0.74006 0.52178 0.0
H895 H 0.57939 0.70902 0.49232 0.0
C896 C 0.36923 0.76249 0.58895 0.0
C897 C 0.36907 0.72663 0.60063 0.0
C898 C 0.37132 0.77082 0.55213 0.0
C899 C 0.37299 0.74256 0.52673 0.0
C900 C 0.37254 0.70637 0.53857 0.0
C901 C 0.37069 0.69895 0.57525 0.0
C902 C 0.37176 0.80965 0.54046 0.0
C903 C 0.37428 0.67524 0.51253 0.0
C904 C 0.36026 0.73979 0.42785 0.0
C905 C 0.38271 0.73248 0.41493 0.0
C906 C 0.35679 0.74821 0.46429 0.0
C907 C 0.37628 0.74965 0.48772 0.0
C908 C 0.39911 0.74777 0.47331 0.0
C909 C 0.40205 0.73867 0.43707 0.0
C910 C 0.33216 0.75045 0.47845 0.0
C911 C 0.42041 0.75021 0.49705 0.0
H912 H 0.36787 0.78396 0.60853 0.0
H913 H 0.37045 0.67116 0.58403 0.0
H914 H 0.38697 0.81481 0.52273 0.0
H915 H 0.35583 0.81574 0.52465 0.0
H916 H 0.37254 0.82837 0.5637 0.0
H917 H 0.37281 0.64875 0.52613 0.0
H918 H 0.36029 0.67711 0.492 0.0
H919 H 0.39127 0.67621 0.49823 0.0
H920 H 0.34531 0.73504 0.41063 0.0
H921 H 0.41944 0.73343 0.4268 0.0
H922 H 0.33075 0.77075 0.50016 0.0
H923 H 0.32713 0.72401 0.48992 0.0
H924 H 0.31957 0.75726 0.45678 0.0
H925 H 0.41814 0.77104 0.51809 0.0
H926 H 0.43636 0.75647 0.48122 0.0
H927 H 0.42311 0.72403 0.51075 0.0
C928 C 0.39006 0.28144 0.41836 0.0
C929 C 0.37422 0.26507 0.3949 0.0
C930 C 0.38755 0.27813 0.45562 0.0
C931 C 0.36843 0.25847 0.46971 0.0
C932 C 0.35372 0.23898 0.44611 0.0
C933 C 0.35687 0.24238 0.40875 0.0
C934 C 0.40404 0.29869 0.47974 0.0
C935 C 0.33335 0.21736 0.46003 0.0
C936 C 0.37094 0.25669 0.57136 0.0
C937 C 0.36029 0.2897 0.57909 0.0
C938 C 0.37187 0.24384 0.53581 0.0
C939 C 0.36172 0.26446 0.50787 0.0
C940 C 0.34862 0.29559 0.51648 0.0
C941 C 0.3483 0.30803 0.55197 0.0
C942 C 0.38571 0.21031 0.52785 0.0
C943 C 0.33703 0.318 0.48771 0.0
H944 H 0.40367 0.29862 0.40759 0.0
H945 H 0.34459 0.22969 0.39055 0.0
H946 H 0.39485 0.3223 0.49124 0.0
H947 H 0.4099 0.28162 0.50245 0.0
H948 H 0.41967 0.30846 0.46498 0.0
H949 H 0.32746 0.19712 0.44003 0.0
H950 H 0.33784 0.20344 0.48548 0.0
H951 H 0.31853 0.23572 0.46566 0.0
H952 H 0.3803 0.24259 0.5924 0.0
H953 H 0.33992 0.33343 0.55814 0.0
H954 H 0.40354 0.21801 0.51907 0.0
H955 H 0.3776 0.19456 0.50582 0.0
H956 H 0.38732 0.19295 0.55203 0.0
H957 H 0.35058 0.3325 0.47204 0.0
H958 H 0.32485 0.33816 0.49928 0.0
H959 H 0.32719 0.30066 0.46877 0.0
C960 C 0.65251 0.30124 0.44913 0.0
C961 C 0.64066 0.28342 0.42153 0.0
C962 C 0.65239 0.28778 0.48422 0.0
C963 C 0.63969 0.25599 0.49197 0.0
C964 C 0.62968 0.23595 0.46348 0.0
C965 C 0.63035 0.24993 0.42832 0.0
C966 C 0.66383 0.30969 0.51354 0.0
C967 C 0.61636 0.20168 0.47044 0.0
C968 C 0.64694 0.23413 0.59041 0.0
C969 C 0.62991 0.25692 0.60491 0.0
C970 C 0.64891 0.22986 0.55294 0.0
C971 C 0.63337 0.24864 0.53005 0.0
C972 C 0.6143 0.26765 0.5451 0.0
C973 C 0.61299 0.2719 0.58241 0.0
C974 C 0.66915 0.20869 0.53803 0.0
C975 C 0.59689 0.28729 0.52181 0.0
H976 H 0.66065 0.32701 0.44365 0.0
H977 H 0.62113 0.23619 0.40688 0.0
H978 H 0.65017 0.32281 0.53015 0.0
H979 H 0.67428 0.29218 0.5315 0.0
H980 H 0.67542 0.33096 0.5025 0.0
H981 H 0.6156 0.18459 0.44598 0.0
H982 H 0.62431 0.18602 0.49267 0.0
H983 H 0.59821 0.20841 0.47835 0.0
H984 H 0.66007 0.22258 0.60793 0.0
H985 H 0.59969 0.28922 0.59381 0.0
H986 H 0.68376 0.22732 0.53197 0.0
H987 H 0.6643 0.19487 0.51268 0.0
H988 H 0.67548 0.18843 0.55768 0.0
H989 H 0.60526 0.31161 0.51024 0.0
H990 H 0.58128 0.29589 0.53731 0.0
H991 H 0.59111 0.27008 0.49916 0.0
C992 C 0.54421 0.68853 0.75523 0.0
C993 C 0.56061 0.70984 0.73706 0.0
C994 C 0.52045 0.69746 0.75506 0.0
C995 C 0.51302 0.72869 0.73655 0.0
C996 C 0.53 0.75356 0.72424 0.0
C997 C 0.55376 0.74367 0.72425 0.0
C998 C 0.50313 0.67061 0.76973 0.0
C999 C 0.52288 0.78845 0.70684 0.0
C1000 C 0.46289 0.70692 0.67428 0.0
C1001 C 0.44321 0.71573 0.69504 0.0
C1002 C 0.48556 0.71278 0.68691 0.0
C1003 C 0.48898 0.72908 0.72093 0.0
C1004 C 0.4693 0.74106 0.74076 0.0
C1005 C 0.44659 0.73377 0.72782 0.0
C1006 C 0.50582 0.69916 0.6646 0.0
C1007 C 0.47193 0.76006 0.77631 0.0
H1008 H 0.54958 0.66262 0.76577 0.0
H1009 H 0.56638 0.76052 0.71052 0.0
H1010 H 0.48928 0.68445 0.78524 0.0
H1011 H 0.49465 0.65625 0.74706 0.0
H1012 H 0.51162 0.6504 0.7874 0.0
H1013 H 0.53722 0.80853 0.70798 0.0
H1014 H 0.51858 0.7836 0.67817 0.0
H1015 H 0.50714 0.79975 0.7201 0.0
H1016 H 0.4607 0.69362 0.64859 0.0
H1017 H 0.4316 0.74121 0.74397 0.0
H1018 H 0.51574 0.67865 0.67996 0.0
H1019 H 0.51795 0.7215 0.65829 0.0
H1020 H 0.50009 0.68687 0.63886 0.0
H1021 H 0.47009 0.74025 0.79843 0.0
H1022 H 0.45795 0.78045 0.77981 0.0
H1023 H 0.48914 0.77351 0.77892 0.0
C1024 C 0.38688 0.57514 0.75372 0.0
C1025 C 0.36946 0.58712 0.73024 0.0
C1026 C 0.3877 0.5389 0.76439 0.0
C1027 C 0.37091 0.51453 0.75065 0.0
C1028 C 0.35168 0.52781 0.73071 0.0
C1029 C 0.35131 0.56402 0.72051 0.0
C1030 C 0.40801 0.52605 0.78671 0.0
C1031 C 0.33314 0.50298 0.71599 0.0
C1032 C 0.38848 0.42591 0.7104 0.0
C1033 C 0.37683 0.40154 0.7327 0.0
C1034 C 0.38843 0.46271 0.71793 0.0
C1035 C 0.37626 0.47549 0.74854 0.0
C1036 C 0.36637 0.45063 0.77308 0.0
C1037 C 0.36678 0.41369 0.76484 0.0
C1038 C 0.39964 0.48806 0.69124 0.0
C1039 C 0.35377 0.46303 0.80643 0.0
H1040 H 0.40099 0.59315 0.76101 0.0
H1041 H 0.33792 0.57352 0.70221 0.0
H1042 H 0.40268 0.50394 0.80498 0.0
H1043 H 0.42185 0.51558 0.76867 0.0
H1044 H 0.41557 0.54828 0.8029 0.0
H1045 H 0.3177 0.51802 0.70602 0.0
H1046 H 0.3405 0.48727 0.69328 0.0
H1047 H 0.32732 0.48364 0.73683 0.0
H1048 H 0.39665 0.41642 0.68589 0.0
H1049 H 0.35783 0.39478 0.78222 0.0
H1050 H 0.41117 0.50748 0.70525 0.0
H1051 H 0.3859 0.50369 0.67718 0.0
H1052 H 0.41013 0.47361 0.6707 0.0
H1053 H 0.36203 0.48741 0.81798 0.0
H1054 H 0.35337 0.44159 0.82722 0.0
H1055 H 0.33548 0.46984 0.79943 0.0
C1056 C 0.55095 0.31112 0.73068 0.0
C1057 C 0.56354 0.28429 0.71287 0.0
C1058 C 0.52668 0.30826 0.73507 0.0
C1059 C 0.51485 0.27773 0.72134 0.0
C1060 C 0.52806 0.24834 0.70815 0.0
C1061 C 0.55231 0.25223 0.70341 0.0
C1062 C 0.51346 0.3402 0.74958 0.0
C1063 C 0.5163 0.21464 0.69476 0.0
C1064 C 0.4482 0.2823 0.72707 0.0
C1065 C 0.44304 0.29943 0.69443 0.0
C1066 C 0.47143 0.27302 0.73583 0.0
C1067 C 0.48971 0.28124 0.71137 0.0
C1068 C 0.48418 0.2964 0.67749 0.0
C1069 C 0.46104 0.30514 0.66952 0.0
C1070 C 0.47643 0.2562 0.77188 0.0
C1071 C 0.50287 0.30534 0.65016 0.0
H1072 H 0.55965 0.33611 0.73757 0.0
H1073 H 0.56203 0.23158 0.6893 0.0
H1074 H 0.50548 0.35515 0.72686 0.0
H1075 H 0.49916 0.33139 0.76763 0.0
H1076 H 0.52505 0.3589 0.76455 0.0
H1077 H 0.5286 0.19156 0.69435 0.0
H1078 H 0.50104 0.20766 0.71179 0.0
H1079 H 0.50992 0.21909 0.66695 0.0
H1080 H 0.43434 0.27772 0.7464 0.0
H1081 H 0.45709 0.31767 0.64391 0.0
H1082 H 0.4815 0.27754 0.79121 0.0
H1083 H 0.49106 0.23673 0.77018 0.0
H1084 H 0.4608 0.24227 0.78277 0.0
H1085 H 0.51503 0.32566 0.66143 0.0
H1086 H 0.4955 0.31615 0.62474 0.0
H1087 H 0.51323 0.28103 0.64365 0.0
C1088 C 0.6459 0.58539 0.75648 0.0
C1089 C 0.62758 0.60053 0.73668 0.0
C1090 C 0.64824 0.54785 0.75905 0.0
C1091 C 0.63164 0.52542 0.74192 0.0
C1092 C 0.61168 0.5409 0.72565 0.0
C1093 C 0.61009 0.57832 0.72276 0.0
C1094 C 0.6697 0.53246 0.77677 0.0
C1095 C 0.59318 0.51803 0.70793 0.0
C1096 C 0.64739 0.44265 0.68912 0.0
C1097 C 0.63741 0.41548 0.71006 0.0
C1098 C 0.64764 0.47831 0.70105 0.0
C1099 C 0.63702 0.48708 0.73432 0.0
C1100 C 0.62848 0.45928 0.75682 0.0
C1101 C 0.62895 0.42354 0.74446 0.0
C1102 C 0.65753 0.50694 0.67656 0.0
C1103 C 0.61703 0.46747 0.7924 0.0
H1104 H 0.6595 0.60267 0.7671 0.0
H1105 H 0.59583 0.59014 0.7077 0.0
H1106 H 0.66554 0.50737 0.79157 0.0
H1107 H 0.68275 0.52571 0.75577 0.0
H1108 H 0.67778 0.55198 0.79565 0.0
H1109 H 0.57717 0.53371 0.70175 0.0
H1110 H 0.60012 0.50693 0.68238 0.0
H1111 H 0.58835 0.49504 0.72541 0.0
H1112 H 0.65409 0.4362 0.66261 0.0
H1113 H 0.62113 0.40241 0.76054 0.0
H1114 H 0.66884 0.52566 0.6919 0.0
H1115 H 0.64304 0.52289 0.66485 0.0
H1116 H 0.66788 0.49526 0.65417 0.0
H1117 H 0.6264 0.48925 0.8068 0.0
H1118 H 0.61629 0.44332 0.80994 0.0
H1119 H 0.59891 0.47679 0.78757 0.0
C1120 C 0.45195 0.27795 0.257 0.0
C1121 C 0.44267 0.26073 0.28731 0.0
C1122 C 0.4762 0.27789 0.25072 0.0
C1123 C 0.49119 0.26028 0.27541 0.0
C1124 C 0.48133 0.23751 0.3019 0.0
C1125 C 0.45713 0.23821 0.30769 0.0
C1126 C 0.48589 0.30131 0.2212 0.0
C1127 C 0.49648 0.21722 0.32812 0.0
C1128 C 0.55778 0.27164 0.27505 0.0
C1129 C 0.5604 0.30118 0.29826 0.0
C1130 C 0.53538 0.25818 0.26637 0.0
C1131 C 0.51526 0.2746 0.28139 0.0
C1132 C 0.51792 0.30462 0.30443 0.0
C1133 C 0.54025 0.31747 0.31235 0.0
C1134 C 0.53329 0.22676 0.24096 0.0
C1135 C 0.49715 0.32301 0.32161 0.0
H1136 H 0.44083 0.29536 0.24108 0.0
H1137 H 0.44993 0.22462 0.331 0.0
H1138 H 0.49073 0.32788 0.23256 0.0
H1139 H 0.50182 0.2892 0.20937 0.0
H1140 H 0.47282 0.30573 0.19958 0.0
H1141 H 0.48673 0.19487 0.34108 0.0
H1142 H 0.51216 0.20611 0.31463 0.0
H1143 H 0.50246 0.23589 0.3495 0.0
H1144 H 0.57316 0.25903 0.26373 0.0
H1145 H 0.54183 0.34022 0.33037 0.0
H1146 H 0.52712 0.23658 0.21446 0.0
H1147 H 0.52031 0.20696 0.25084 0.0
H1148 H 0.55028 0.21294 0.23699 0.0
H1149 H 0.48506 0.33298 0.30056 0.0
H1150 H 0.50229 0.34614 0.33875 0.0
H1151 H 0.48737 0.3036 0.33855 0.0
C1152 C 0.63318 0.41226 0.23664 0.0
C1153 C 0.62987 0.40208 0.2726 0.0
C1154 C 0.63259 0.44876 0.22656 0.0
C1155 C 0.62894 0.47535 0.25325 0.0
C1156 C 0.62485 0.46488 0.28934 0.0
C1157 C 0.62523 0.42848 0.29842 0.0
C1158 C 0.63667 0.45867 0.18775 0.0
C1159 C 0.62068 0.49216 0.31884 0.0
C1160 C 0.64978 0.57018 0.26018 0.0
C1161 C 0.6282 0.58753 0.26264 0.0
C1162 C 0.65087 0.5335 0.25142 0.0
C1163 C 0.62987 0.51439 0.2449 0.0
C1164 C 0.60866 0.5335 0.24136 0.0
C1165 C 0.60799 0.5699 0.251 0.0
C1166 C 0.67393 0.51428 0.25464 0.0
C1167 C 0.58609 0.51448 0.23272 0.0
H1168 H 0.6368 0.39188 0.21657 0.0
H1169 H 0.62249 0.42081 0.32622 0.0
H1170 H 0.62615 0.48239 0.17976 0.0
H1171 H 0.65534 0.46556 0.18392 0.0
H1172 H 0.63243 0.43593 0.16951 0.0
H1173 H 0.61805 0.47939 0.34554 0.0
H1174 H 0.63577 0.51077 0.32078 0.0
H1175 H 0.605 0.50847 0.31259 0.0
H1176 H 0.66539 0.58398 0.26925 0.0
H1177 H 0.59131 0.58359 0.25273 0.0
H1178 H 0.6757 0.49348 0.23346 0.0
H1179 H 0.67482 0.50057 0.28112 0.0
H1180 H 0.68888 0.53322 0.25266 0.0
H1181 H 0.58893 0.49288 0.21261 0.0
H1182 H 0.57277 0.5335 0.22229 0.0
H1183 H 0.57909 0.50187 0.25753 0.0
C1184 C 0.55846 0.72841 0.26818 0.0
C1185 C 0.56301 0.72081 0.30448 0.0
C1186 C 0.53535 0.73354 0.25601 0.0
C1187 C 0.51649 0.72979 0.28051 0.0
C1188 C 0.52134 0.72585 0.31766 0.0
C1189 C 0.54447 0.72222 0.32912 0.0
C1190 C 0.53129 0.74046 0.21658 0.0
C1191 C 0.50206 0.72157 0.34515 0.0
C1192 C 0.45089 0.73723 0.27535 0.0
C1193 C 0.44512 0.70063 0.27327 0.0
C1194 C 0.47434 0.74848 0.2721 0.0
C1195 C 0.49218 0.72239 0.2679 0.0
C1196 C 0.48588 0.68631 0.26059 0.0
C1197 C 0.46241 0.67604 0.26289 0.0
C1198 C 0.48012 0.78774 0.27664 0.0
C1199 C 0.50409 0.65747 0.25503 0.0
H1200 H 0.57266 0.72815 0.24892 0.0
H1201 H 0.54784 0.71758 0.35743 0.0
H1202 H 0.53281 0.71484 0.20151 0.0
H1203 H 0.51382 0.75224 0.21135 0.0
H1204 H 0.54485 0.75895 0.20589 0.0
H1205 H 0.50887 0.71897 0.37299 0.0
H1206 H 0.49017 0.74501 0.34429 0.0
H1207 H 0.49158 0.69724 0.33894 0.0
H1208 H 0.43759 0.75661 0.28265 0.0
H1209 H 0.4579 0.64785 0.26015 0.0
H1210 H 0.49639 0.79493 0.26207 0.0
H1211 H 0.48267 0.79382 0.30556 0.0
H1212 H 0.46562 0.8049 0.26671 0.0
H1213 H 0.51637 0.66549 0.23346 0.0
H1214 H 0.49623 0.63117 0.24767 0.0
H1215 H 0.51435 0.65388 0.28009 0.0
C1216 C 0.40741 0.43168 0.26702 0.0
C1217 C 0.38749 0.41023 0.27104 0.0
C1218 C 0.40545 0.4684 0.25921 0.0
C1219 C 0.38301 0.48405 0.25658 0.0
C1220 C 0.36297 0.46165 0.25656 0.0
C1221 C 0.36549 0.42473 0.26349 0.0
C1222 C 0.42731 0.49105 0.25827 0.0
C1223 C 0.33871 0.47718 0.25395 0.0
C1224 C 0.37819 0.57208 0.30661 0.0
C1225 C 0.37678 0.59725 0.27871 0.0
C1226 C 0.37977 0.53531 0.29948 0.0
C1227 C 0.38042 0.52321 0.2634 0.0
C1228 C 0.37918 0.54844 0.23492 0.0
C1229 C 0.37719 0.58533 0.24294 0.0
C1230 C 0.38079 0.5094 0.3308 0.0
C1231 C 0.38027 0.53653 0.19619 0.0
H1232 H 0.42447 0.42025 0.2724 0.0
H1233 H 0.35007 0.40808 0.2666 0.0
H1234 H 0.42592 0.51256 0.23773 0.0
H1235 H 0.42978 0.50414 0.2848 0.0
H1236 H 0.44302 0.47454 0.25247 0.0
H1237 H 0.32566 0.45635 0.24655 0.0
H1238 H 0.33371 0.48858 0.28044 0.0
H1239 H 0.338 0.49924 0.23394 0.0
H1240 H 0.37772 0.58107 0.33433 0.0
H1241 H 0.37614 0.60479 0.22131 0.0
H1242 H 0.39767 0.49479 0.33057 0.0
H1243 H 0.36667 0.48912 0.32847 0.0
H1244 H 0.379 0.52318 0.35716 0.0
H1245 H 0.3975 0.52409 0.1907 0.0
H1246 H 0.37768 0.55923 0.17721 0.0
H1247 H 0.36682 0.51575 0.19084 0.0
loop_
_geom_bond_atom_site_label_1
_geom_bond_atom_site_label_2
_geom_bond_distance
_geom_bond_site_symmetry_2
_ccdc_geom_bond_type
Co0 O1 2.216 . S
Co0 O2 2.091 . S
Co0 O4 2.004 . S
Co0 O10 2.021 . S
Co0 O12 2.137 . S
Co0 O13 2.244 . S
O1 Co0 2.216 . S
O1 C8 1.247 . S
O2 Co0 2.091 . S
O2 C8 1.261 . S
C3 O12 1.247 . S
C3 O13 1.272 . S
O4 Co0 2.004 . S
O4 C9 1.259 . S
Co5 O6 2.061 . S
Co5 O11 2.052 . S
Co5 O13 2.135 . S
O6 Co5 2.061 . S
O6 C9 1.235 . S
C7 O10 1.238 . S
C7 O11 1.241 . S
C8 O1 1.247 . S
C8 O2 1.261 . S
C9 O4 1.259 . S
C9 O6 1.235 . S
O10 Co0 2.021 . S
O10 C7 1.238 . S
O11 Co5 2.052 . S
O11 C7 1.241 . S
O12 Co0 2.137 . S
O12 C3 1.247 . S
O13 Co0 2.244 . S
O13 C3 1.272 . S
O13 Co5 2.135 . S
Co14 O15 2.216 . S
Co14 O16 2.091 . S
Co14 O18 2.004 . S
Co14 O24 2.021 . S
Co14 O26 2.137 . S
Co14 O27 2.244 . S
O15 Co14 2.216 . S
O15 C22 1.247 . S
O16 Co14 2.091 . S
O16 C22 1.261 . S
C17 O26 1.247 . S
C17 O27 1.272 . S
O18 Co14 2.004 . S
O18 C23 1.259 . S
Co19 O20 2.061 . S
Co19 O25 2.052 . S
Co19 O27 2.135 . S
O20 Co19 2.061 . S
O20 C23 1.235 . S
C21 O24 1.238 . S
C21 O25 1.241 . S
C22 O15 1.247 . S
C22 O16 1.261 . S
C23 O18 1.259 . S
C23 O20 1.235 . S
O24 Co14 2.021 . S
O24 C21 1.238 . S
O25 Co19 2.052 . S
O25 C21 1.241 . S
O26 Co14 2.137 . S
O26 C17 1.247 . S
O27 Co14 2.244 . S
O27 C17 1.272 . S
O27 Co19 2.135 . S
Co28 O29 2.216 . S
Co28 O30 2.091 . S
Co28 O32 2.004 . S
Co28 O38 2.021 . S
Co28 O40 2.137 . S
Co28 O41 2.244 . S
O29 Co28 2.216 . S
O29 C36 1.247 . S
O30 Co28 2.091 . S
O30 C36 1.261 . S
C31 O40 1.247 . S
C31 O41 1.272 . S
O32 Co28 2.004 . S
O32 C37 1.259 . S
Co33 O34 2.061 . S
Co33 O39 2.052 . S
Co33 O41 2.135 . S
O34 Co33 2.061 . S
O34 C37 1.235 . S
C35 O38 1.238 . S
C35 O39 1.241 . S
C36 O29 1.247 . S
C36 O30 1.261 . S
C37 O32 1.259 . S
C37 O34 1.235 . S
O38 Co28 2.021 . S
O38 C35 1.238 . S
O39 Co33 2.052 . S
O39 C35 1.241 . S
O40 Co28 2.137 . S
O40 C31 1.247 . S
O41 Co28 2.244 . S
O41 C31 1.272 . S
O41 Co33 2.135 . S
Co42 O43 2.216 . S
Co42 O44 2.091 . S
Co42 O46 2.004 . S
Co42 O52 2.021 . S
Co42 O54 2.137 . S
Co42 O55 2.244 . S
O43 Co42 2.216 . S
O43 C50 1.247 . S
O44 Co42 2.091 . S
O44 C50 1.261 . S
C45 O54 1.247 . S
C45 O55 1.272 . S
O46 Co42 2.004 . S
O46 C51 1.259 . S
Co47 O48 2.061 . S
Co47 O53 2.052 . S
Co47 O55 2.135 . S
O48 Co47 2.061 . S
O48 C51 1.235 . S
C49 O52 1.238 . S
C49 O53 1.241 . S
C50 O43 1.247 . S
C50 O44 1.261 . S
C51 O46 1.259 . S
C51 O48 1.235 . S
O52 Co42 2.021 . S
O52 C49 1.238 . S
O53 Co47 2.052 . S
O53 C49 1.241 . S
O54 Co42 2.137 . S
O54 C45 1.247 . S
O55 Co42 2.244 . S
O55 C45 1.272 . S
O55 Co47 2.135 . S
Co56 O57 2.216 . S
Co56 O58 2.091 . S
Co56 O60 2.004 . S
Co56 O66 2.021 . S
Co56 O68 2.137 . S
Co56 O69 2.244 . S
O57 Co56 2.216 . S
O57 C64 1.247 . S
O58 Co56 2.091 . S
O58 C64 1.261 . S
C59 O68 1.247 . S
C59 O69 1.272 . S
O60 Co56 2.004 . S
O60 C65 1.259 . S
Co61 O62 2.061 . S
Co61 O67 2.052 . S
Co61 O69 2.135 . S
O62 Co61 2.061 . S
O62 C65 1.235 . S
C63 O66 1.238 . S
C63 O67 1.241 . S
C64 O57 1.247 . S
C64 O58 1.261 . S
C65 O60 1.259 . S
C65 O62 1.235 . S
O66 Co56 2.021 . S
O66 C63 1.238 . S
O67 Co61 2.052 . S
O67 C63 1.241 . S
O68 Co56 2.137 . S
O68 C59 1.247 . S
O69 Co56 2.244 . S
O69 C59 1.272 . S
O69 Co61 2.135 . S
Co70 O71 2.216 . S
Co70 O72 2.091 . S
Co70 O74 2.004 . S
Co70 O80 2.021 . S
Co70 O82 2.137 . S
Co70 O83 2.244 . S
O71 Co70 2.216 . S
O71 C78 1.247 . S
O72 Co70 2.091 . S
O72 C78 1.261 . S
C73 O82 1.247 . S
C73 O83 1.272 . S
O74 Co70 2.004 . S
O74 C79 1.259 . S
Co75 O76 2.061 . S
Co75 O81 2.052 . S
Co75 O83 2.135 . S
O76 Co75 2.061 . S
O76 C79 1.235 . S
C77 O80 1.238 . S
C77 O81 1.241 . S
C78 O71 1.247 . S
C78 O72 1.261 . S
C79 O74 1.259 . S
C79 O76 1.235 . S
O80 Co70 2.021 . S
O80 C77 1.238 . S
O81 Co75 2.052 . S
O81 C77 1.241 . S
O82 Co70 2.137 . S
O82 C73 1.247 . S
O83 Co70 2.244 . S
O83 C73 1.272 . S
O83 Co75 2.135 . S
Co84 O85 2.216 . S
Co84 O86 2.091 . S
Co84 O88 2.004 . S
Co84 O94 2.021 . S
Co84 O96 2.137 . S
Co84 O97 2.244 . S
O85 Co84 2.216 . S
O85 C92 1.247 . S
O86 Co84 2.091 . S
O86 C92 1.261 . S
C87 O96 1.247 . S
C87 O97 1.272 . S
O88 Co84 2.004 . S
O88 C93 1.259 . S
Co89 O90 2.061 . S
Co89 O95 2.052 . S
Co89 O97 2.135 . S
O90 Co89 2.061 . S
O90 C93 1.235 . S
C91 O94 1.238 . S
C91 O95 1.241 . S
C92 O85 1.247 . S
C92 O86 1.261 . S
C93 O88 1.259 . S
C93 O90 1.235 . S
O94 Co84 2.021 . S
O94 C91 1.238 . S
O95 Co89 2.052 . S
O95 C91 1.241 . S
O96 Co84 2.137 . S
O96 C87 1.247 . S
O97 Co84 2.244 . S
O97 C87 1.272 . S
O97 Co89 2.135 . S
Co98 O99 2.216 . S
Co98 O100 2.091 . S
Co98 O102 2.004 . S
Co98 O108 2.021 . S
Co98 O110 2.137 . S
Co98 O111 2.244 . S
O99 Co98 2.216 . S
O99 C106 1.247 . S
O100 Co98 2.091 . S
O100 C106 1.261 . S
C101 O110 1.247 . S
C101 O111 1.272 . S
O102 Co98 2.004 . S
O102 C107 1.259 . S
Co103 O104 2.061 . S
Co103 O109 2.052 . S
Co103 O111 2.135 . S
O104 Co103 2.061 . S
O104 C107 1.235 . S
C105 O108 1.238 . S
C105 O109 1.241 . S
C106 O99 1.247 . S
C106 O100 1.261 . S
C107 O102 1.259 . S
C107 O104 1.235 . S
O108 Co98 2.021 . S
O108 C105 1.238 . S
O109 Co103 2.052 . S
O109 C105 1.241 . S
O110 Co98 2.137 . S
O110 C101 1.247 . S
O111 Co98 2.244 . S
O111 C101 1.272 . S
O111 Co103 2.135 . S
Co112 O113 2.216 . S
Co112 O114 2.091 . S
Co112 O116 2.004 . S
Co112 O122 2.021 . S
Co112 O124 2.137 . S
Co112 O125 2.244 . S
O113 Co112 2.216 . S
O113 C120 1.247 . S
O114 Co112 2.091 . S
O114 C120 1.261 . S
C115 O124 1.247 . S
C115 O125 1.272 . S
O116 Co112 2.004 . S
O116 C121 1.259 . S
Co117 O118 2.061 . S
Co117 O123 2.052 . S
Co117 O125 2.135 . S
O118 Co117 2.061 . S
O118 C121 1.235 . S
C119 O122 1.238 . S
C119 O123 1.241 . S
C120 O113 1.247 . S
C120 O114 1.261 . S
C121 O116 1.259 . S
C121 O118 1.235 . S
O122 Co112 2.021 . S
O122 C119 1.238 . S
O123 Co117 2.052 . S
O123 C119 1.241 . S
O124 Co112 2.137 . S
O124 C115 1.247 . S
O125 Co112 2.244 . S
O125 C115 1.272 . S
O125 Co117 2.135 . S
Co126 O127 2.216 . S
Co126 O128 2.091 . S
Co126 O130 2.004 . S
Co126 O136 2.021 . S
Co126 O138 2.137 . S
Co126 O139 2.244 . S
O127 Co126 2.216 . S
O127 C134 1.247 . S
O128 Co126 2.091 . S
O128 C134 1.261 . S
C129 O138 1.247 . S
C129 O139 1.272 . S
O130 Co126 2.004 . S
O130 C135 1.259 . S
Co131 O132 2.061 . S
Co131 O137 2.052 . S
Co131 O139 2.135 . S
O132 Co131 2.061 . S
O132 C135 1.235 . S
C133 O136 1.238 . S
C133 O137 1.241 . S
C134 O127 1.247 . S
C134 O128 1.261 . S
C135 O130 1.259 . S
C135 O132 1.235 . S
O136 Co126 2.021 . S
O136 C133 1.238 . S
O137 Co131 2.052 . S
O137 C133 1.241 . S
O138 Co126 2.137 . S
O138 C129 1.247 . S
O139 Co126 2.244 . S
O139 C129 1.272 . S
O139 Co131 2.135 . S
Co140 O141 2.216 . S
Co140 O142 2.091 . S
Co140 O144 2.004 . S
Co140 O150 2.021 . S
Co140 O152 2.137 . S
Co140 O153 2.244 . S
O141 Co140 2.216 . S
O141 C148 1.247 . S
O142 Co140 2.091 . S
O142 C148 1.261 . S
C143 O152 1.247 . S
C143 O153 1.272 . S
O144 Co140 2.004 . S
O144 C149 1.259 . S
Co145 O146 2.061 . S
Co145 O151 2.052 . S
Co145 O153 2.135 . S
O146 Co145 2.061 . S
O146 C149 1.235 . S
C147 O150 1.238 . S
C147 O151 1.241 . S
C148 O141 1.247 . S
C148 O142 1.261 . S
C149 O144 1.259 . S
C149 O146 1.235 . S
O150 Co140 2.021 . S
O150 C147 1.238 . S
O151 Co145 2.052 . S
O151 C147 1.241 . S
O152 Co140 2.137 . S
O152 C143 1.247 . S
O153 Co140 2.244 . S
O153 C143 1.272 . S
O153 Co145 2.135 . S
Co154 O155 2.216 . S
Co154 O156 2.091 . S
Co154 O158 2.004 . S
Co154 O164 2.021 . S
Co154 O166 2.137 . S
Co154 O167 2.244 . S
O155 Co154 2.216 . S
O155 C162 1.247 . S
O156 Co154 2.091 . S
O156 C162 1.261 . S
C157 O166 1.247 . S
C157 O167 1.272 . S
O158 Co154 2.004 . S
O158 C163 1.259 . S
Co159 O160 2.061 . S
Co159 O165 2.052 . S
Co159 O167 2.135 . S
O160 Co159 2.061 . S
O160 C163 1.235 . S
C161 O164 1.238 . S
C161 O165 1.241 . S
C162 O155 1.247 . S
C162 O156 1.261 . S
C163 O158 1.259 . S
C163 O160 1.235 . S
O164 Co154 2.021 . S
O164 C161 1.238 . S
O165 Co159 2.052 . S
O165 C161 1.241 . S
O166 Co154 2.137 . S
O166 C157 1.247 . S
O167 Co154 2.244 . S
O167 C157 1.272 . S
O167 Co159 2.135 . S
Co168 O169 2.216 . S
Co168 O170 2.091 . S
Co168 O172 2.004 . S
Co168 O178 2.021 . S
Co168 O180 2.137 . S
Co168 O181 2.244 . S
O169 Co168 2.216 . S
O169 C176 1.247 . S
O170 Co168 2.091 . S
O170 C176 1.261 . S
C171 O180 1.247 . S
C171 O181 1.272 . S
O172 Co168 2.004 . S
O172 C177 1.259 . S
Co173 O174 2.061 . S
Co173 O179 2.052 . S
Co173 O181 2.135 . S
O174 Co173 2.061 . S
O174 C177 1.235 . S
C175 O178 1.238 . S
C175 O179 1.241 . S
C176 O169 1.247 . S
C176 O170 1.261 . S
C177 O172 1.259 . S
C177 O174 1.235 . S
O178 Co168 2.021 . S
O178 C175 1.238 . S
O179 Co173 2.052 . S
O179 C175 1.241 . S
O180 Co168 2.137 . S
O180 C171 1.247 . S
O181 Co168 2.244 . S
O181 C171 1.272 . S
O181 Co173 2.135 . S
Co182 O183 2.216 . S
Co182 O184 2.091 . S
Co182 O186 2.004 . S
Co182 O192 2.021 . S
Co182 O194 2.137 . S
Co182 O195 2.244 . S
O183 Co182 2.216 . S
O183 C190 1.247 . S
O184 Co182 2.091 . S
O184 C190 1.261 . S
C185 O194 1.247 . S
C185 O195 1.272 . S
O186 Co182 2.004 . S
O186 C191 1.259 . S
Co187 O188 2.061 . S
Co187 O193 2.052 . S
Co187 O195 2.135 . S
O188 Co187 2.061 . S
O188 C191 1.235 . S
C189 O192 1.238 . S
C189 O193 1.241 . S
C190 O183 1.247 . S
C190 O184 1.261 . S
C191 O186 1.259 . S
C191 O188 1.235 . S
O192 Co182 2.021 . S
O192 C189 1.238 . S
O193 Co187 2.052 . S
O193 C189 1.241 . S
O194 Co182 2.137 . S
O194 C185 1.247 . S
O195 Co182 2.244 . S
O195 C185 1.272 . S
O195 Co187 2.135 . S
Co196 O197 2.216 . S
Co196 O198 2.091 . S
Co196 O200 2.004 . S
Co196 O206 2.021 . S
Co196 O208 2.137 . S
Co196 O209 2.244 . S
O197 Co196 2.216 . S
O197 C204 1.247 . S
O198 Co196 2.091 . S
O198 C204 1.261 . S
C199 O208 1.247 . S
C199 O209 1.272 . S
O200 Co196 2.004 . S
O200 C205 1.259 . S
Co201 O202 2.061 . S
Co201 O207 2.052 . S
Co201 O209 2.135 . S
O202 Co201 2.061 . S
O202 C205 1.235 . S
C203 O206 1.238 . S
C203 O207 1.241 . S
C204 O197 1.247 . S
C204 O198 1.261 . S
C205 O200 1.259 . S
C205 O202 1.235 . S
O206 Co196 2.021 . S
O206 C203 1.238 . S
O207 Co201 2.052 . S
O207 C203 1.241 . S
O208 Co196 2.137 . S
O208 C199 1.247 . S
O209 Co196 2.244 . S
O209 C199 1.272 . S
O209 Co201 2.135 . S
Co210 O211 2.216 . S
Co210 O212 2.091 . S
Co210 O214 2.004 . S
Co210 O220 2.021 . S
Co210 O222 2.137 . S
Co210 O223 2.244 . S
O211 Co210 2.216 . S
O211 C218 1.247 . S
O212 Co210 2.091 . S
O212 C218 1.261 . S
C213 O222 1.247 . S
C213 O223 1.272 . S
O214 Co210 2.004 . S
O214 C219 1.259 . S
Co215 O216 2.061 . S
Co215 O221 2.052 . S
Co215 O223 2.135 . S
O216 Co215 2.061 . S
O216 C219 1.235 . S
C217 O220 1.238 . S
C217 O221 1.241 . S
C218 O211 1.247 . S
C218 O212 1.261 . S
C219 O214 1.259 . S
C219 O216 1.235 . S
O220 Co210 2.021 . S
O220 C217 1.238 . S
O221 Co215 2.052 . S
O221 C217 1.241 . S
O222 Co210 2.137 . S
O222 C213 1.247 . S
O223 Co210 2.244 . S
O223 C213 1.272 . S
O223 Co215 2.135 . S
C224 C225 1.391 . S
C224 C226 1.394 . S
C224 H240 0.931 . S
C225 C224 1.391 . S
C225 C229 1.376 . S
C226 C224 1.394 . S
C226 C227 1.369 . S
C226 C230 1.531 . S
C227 C226 1.369 . S
C227 C228 1.410 . S
C227 C235 1.503 . S
C228 C227 1.410 . S
C228 C229 1.392 . S
C228 C231 1.511 . S
C229 C225 1.376 . S
C229 C228 1.392 . S
C229 H241 0.929 . S
C230 C226 1.531 . S
C230 H242 0.960 . S
C230 H243 0.962 . S
C230 H244 0.960 . S
C231 C228 1.511 . S
C231 H245 0.961 . S
C231 H246 0.961 . S
C231 H247 0.961 . S
C232 C233 1.370 . S
C232 C234 1.363 . S
C232 H248 0.931 . S
C233 C232 1.370 . S
C233 C237 1.408 . S
C234 C232 1.363 . S
C234 C235 1.370 . S
C234 C238 1.524 . S
C235 C227 1.503 . S
C235 C234 1.370 . S
C235 C236 1.403 . S
C236 C235 1.403 . S
C236 C237 1.404 . S
C236 C239 1.539 . S
C237 C233 1.408 . S
C237 C236 1.404 . S
C237 H249 0.930 . S
C238 C234 1.524 . S
C238 H250 0.956 . S
C238 H251 0.961 . S
C238 H252 0.961 . S
C239 C236 1.539 . S
C239 H253 0.958 . S
C239 H254 0.961 . S
C239 H255 0.960 . S
H240 C224 0.931 . S
H241 C229 0.929 . S
H242 C230 0.960 . S
H243 C230 0.962 . S
H244 C230 0.960 . S
H245 C231 0.961 . S
H246 C231 0.961 . S
H247 C231 0.961 . S
H248 C232 0.931 . S
H249 C237 0.930 . S
H250 C238 0.956 . S
H251 C238 0.961 . S
H252 C238 0.961 . S
H253 C239 0.958 . S
H254 C239 0.961 . S
H255 C239 0.960 . S
C256 C257 1.391 . S
C256 C258 1.394 . S
C256 H272 0.931 . S
C257 C256 1.391 . S
C257 C261 1.376 . S
C258 C256 1.394 . S
C258 C259 1.369 . S
C258 C262 1.531 . S
C259 C258 1.369 . S
C259 C260 1.410 . S
C259 C267 1.503 . S
C260 C259 1.410 . S
C260 C261 1.392 . S
C260 C263 1.511 . S
C261 C257 1.376 . S
C261 C260 1.392 . S
C261 H273 0.929 . S
C262 C258 1.531 . S
C262 H274 0.960 . S
C262 H275 0.962 . S
C262 H276 0.960 . S
C263 C260 1.511 . S
C263 H277 0.961 . S
C263 H278 0.961 . S
C263 H279 0.961 . S
C264 C265 1.370 . S
C264 C266 1.363 . S
C264 H280 0.931 . S
C265 C264 1.370 . S
C265 C269 1.408 . S
C266 C264 1.363 . S
C266 C267 1.370 . S
C266 C270 1.524 . S
C267 C259 1.503 . S
C267 C266 1.370 . S
C267 C268 1.403 . S
C268 C267 1.403 . S
C268 C269 1.404 . S
C268 C271 1.539 . S
C269 C265 1.408 . S
C269 C268 1.404 . S
C269 H281 0.930 . S
C270 C266 1.524 . S
C270 H282 0.956 . S
C270 H283 0.961 . S
C270 H284 0.961 . S
C271 C268 1.539 . S
C271 H285 0.958 . S
C271 H286 0.961 . S
C271 H287 0.960 . S
H272 C256 0.931 . S
H273 C261 0.929 . S
H274 C262 0.960 . S
H275 C262 0.962 . S
H276 C262 0.960 . S
H277 C263 0.961 . S
H278 C263 0.961 . S
H279 C263 0.961 . S
H280 C264 0.931 . S
H281 C269 0.930 . S
H282 C270 0.956 . S
H283 C270 0.961 . S
H284 C270 0.961 . S
H285 C271 0.958 . S
H286 C271 0.961 . S
H287 C271 0.960 . S
C288 C289 1.391 . S
C288 C290 1.394 . S
C288 H304 0.931 . S
C289 C288 1.391 . S
C289 C293 1.376 . S
C290 C288 1.394 . S
C290 C291 1.369 . S
C290 C294 1.531 . S
C291 C290 1.369 . S
C291 C292 1.410 . S
C291 C299 1.503 . S
C292 C291 1.410 . S
C292 C293 1.392 . S
C292 C295 1.511 . S
C293 C289 1.376 . S
C293 C292 1.392 . S
C293 H305 0.929 . S
C294 C290 1.531 . S
C294 H306 0.960 . S
C294 H307 0.962 . S
C294 H308 0.960 . S
C295 C292 1.511 . S
C295 H309 0.961 . S
C295 H310 0.961 . S
C295 H311 0.961 . S
C296 C297 1.370 . S
C296 C298 1.363 . S
C296 H312 0.931 . S
C297 C296 1.370 . S
C297 C301 1.408 . S
C298 C296 1.363 . S
C298 C299 1.370 . S
C298 C302 1.524 . S
C299 C291 1.503 . S
C299 C298 1.370 . S
C299 C300 1.403 . S
C300 C299 1.403 . S
C300 C301 1.404 . S
C300 C303 1.539 . S
C301 C297 1.408 . S
C301 C300 1.404 . S
C301 H313 0.930 . S
C302 C298 1.524 . S
C302 H314 0.956 . S
C302 H315 0.961 . S
C302 H316 0.961 . S
C303 C300 1.539 . S
C303 H317 0.958 . S
C303 H318 0.961 . S
C303 H319 0.960 . S
H304 C288 0.931 . S
H305 C293 0.929 . S
H306 C294 0.960 . S
H307 C294 0.962 . S
H308 C294 0.960 . S
H309 C295 0.961 . S
H310 C295 0.961 . S
H311 C295 0.961 . S
H312 C296 0.931 . S
H313 C301 0.930 . S
H314 C302 0.956 . S
H315 C302 0.961 . S
H316 C302 0.961 . S
H317 C303 0.958 . S
H318 C303 0.961 . S
H319 C303 0.960 . S
C320 C321 1.391 . S
C320 C322 1.394 . S
C320 H336 0.931 . S
C321 C320 1.391 . S
C321 C325 1.376 . S
C322 C320 1.394 . S
C322 C323 1.369 . S
C322 C326 1.531 . S
C323 C322 1.369 . S
C323 C324 1.410 . S
C323 C331 1.503 . S
C324 C323 1.410 . S
C324 C325 1.392 . S
C324 C327 1.511 . S
C325 C321 1.376 . S
C325 C324 1.392 . S
C325 H337 0.929 . S
C326 C322 1.531 . S
C326 H338 0.960 . S
C326 H339 0.962 . S
C326 H340 0.960 . S
C327 C324 1.511 . S
C327 H341 0.961 . S
C327 H342 0.961 . S
C327 H343 0.961 . S
C328 C329 1.370 . S
C328 C330 1.363 . S
C328 H344 0.931 . S
C329 C328 1.370 . S
C329 C333 1.408 . S
C330 C328 1.363 . S
C330 C331 1.370 . S
C330 C334 1.524 . S
C331 C323 1.503 . S
C331 C330 1.370 . S
C331 C332 1.403 . S
C332 C331 1.403 . S
C332 C333 1.404 . S
C332 C335 1.539 . S
C333 C329 1.408 . S
C333 C332 1.404 . S
C333 H345 0.930 . S
C334 C330 1.524 . S
C334 H346 0.956 . S
C334 H347 0.961 . S
C334 H348 0.961 . S
C335 C332 1.539 . S
C335 H349 0.958 . S
C335 H350 0.961 . S
C335 H351 0.960 . S
H336 C320 0.931 . S
H337 C325 0.929 . S
H338 C326 0.960 . S
H339 C326 0.962 . S
H340 C326 0.960 . S
H341 C327 0.961 . S
H342 C327 0.961 . S
H343 C327 0.961 . S
H344 C328 0.931 . S
H345 C333 0.930 . S
H346 C334 0.956 . S
H347 C334 0.961 . S
H348 C334 0.961 . S
H349 C335 0.958 . S
H350 C335 0.961 . S
H351 C335 0.960 . S
C352 C353 1.391 . S
C352 C354 1.394 . S
C352 H368 0.931 . S
C353 C352 1.391 . S
C353 C357 1.376 . S
C354 C352 1.394 . S
C354 C355 1.369 . S
C354 C358 1.531 . S
C355 C354 1.369 . S
C355 C356 1.410 . S
C355 C363 1.503 . S
C356 C355 1.410 . S
C356 C357 1.392 . S
C356 C359 1.511 . S
C357 C353 1.376 . S
C357 C356 1.392 . S
C357 H369 0.929 . S
C358 C354 1.531 . S
C358 H370 0.960 . S
C358 H371 0.962 . S
C358 H372 0.960 . S
C359 C356 1.511 . S
C359 H373 0.961 . S
C359 H374 0.961 . S
C359 H375 0.961 . S
C360 C361 1.370 . S
C360 C362 1.363 . S
C360 H376 0.931 . S
C361 C360 1.370 . S
C361 C365 1.408 . S
C362 C360 1.363 . S
C362 C363 1.370 . S
C362 C366 1.524 . S
C363 C355 1.503 . S
C363 C362 1.370 . S
C363 C364 1.403 . S
C364 C363 1.403 . S
C364 C365 1.404 . S
C364 C367 1.539 . S
C365 C361 1.408 . S
C365 C364 1.404 . S
C365 H377 0.930 . S
C366 C362 1.524 . S
C366 H378 0.956 . S
C366 H379 0.961 . S
C366 H380 0.961 . S
C367 C364 1.539 . S
C367 H381 0.958 . S
C367 H382 0.961 . S
C367 H383 0.960 . S
H368 C352 0.931 . S
H369 C357 0.929 . S
H370 C358 0.960 . S
H371 C358 0.962 . S
H372 C358 0.960 . S
H373 C359 0.961 . S
H374 C359 0.961 . S
H375 C359 0.961 . S
H376 C360 0.931 . S
H377 C365 0.930 . S
H378 C366 0.956 . S
H379 C366 0.961 . S
H380 C366 0.961 . S
H381 C367 0.958 . S
H382 C367 0.961 . S
H383 C367 0.960 . S
C384 C385 1.391 . S
C384 C386 1.394 . S
C384 H400 0.931 . S
C385 C384 1.391 . S
C385 C389 1.376 . S
C386 C384 1.394 . S
C386 C387 1.369 . S
C386 C390 1.531 . S
C387 C386 1.369 . S
C387 C388 1.410 . S
C387 C395 1.503 . S
C388 C387 1.410 . S
C388 C389 1.392 . S
C388 C391 1.511 . S
C389 C385 1.376 . S
C389 C388 1.392 . S
C389 H401 0.929 . S
C390 C386 1.531 . S
C390 H402 0.960 . S
C390 H403 0.962 . S
C390 H404 0.960 . S
C391 C388 1.511 . S
C391 H405 0.961 . S
C391 H406 0.961 . S
C391 H407 0.961 . S
C392 C393 1.370 . S
C392 C394 1.363 . S
C392 H408 0.931 . S
C393 C392 1.370 . S
C393 C397 1.408 . S
C394 C392 1.363 . S
C394 C395 1.370 . S
C394 C398 1.524 . S
C395 C387 1.503 . S
C395 C394 1.370 . S
C395 C396 1.403 . S
C396 C395 1.403 . S
C396 C397 1.404 . S
C396 C399 1.539 . S
C397 C393 1.408 . S
C397 C396 1.404 . S
C397 H409 0.930 . S
C398 C394 1.524 . S
C398 H410 0.956 . S
C398 H411 0.961 . S
C398 H412 0.961 . S
C399 C396 1.539 . S
C399 H413 0.958 . S
C399 H414 0.961 . S
C399 H415 0.960 . S
H400 C384 0.931 . S
H401 C389 0.929 . S
H402 C390 0.960 . S
H403 C390 0.962 . S
H404 C390 0.960 . S
H405 C391 0.961 . S
H406 C391 0.961 . S
H407 C391 0.961 . S
H408 C392 0.931 . S
H409 C397 0.930 . S
H410 C398 0.956 . S
H411 C398 0.961 . S
H412 C398 0.961 . S
H413 C399 0.958 . S
H414 C399 0.961 . S
H415 C399 0.960 . S
C416 C417 1.391 . S
C416 C418 1.394 . S
C416 H432 0.931 . S
C417 C416 1.391 . S
C417 C421 1.376 . S
C418 C416 1.394 . S
C418 C419 1.369 . S
C418 C422 1.531 . S
C419 C418 1.369 . S
C419 C420 1.410 . S
C419 C427 1.503 . S
C420 C419 1.410 . S
C420 C421 1.392 . S
C420 C423 1.511 . S
C421 C417 1.376 . S
C421 C420 1.392 . S
C421 H433 0.929 . S
C422 C418 1.531 . S
C422 H434 0.960 . S
C422 H435 0.962 . S
C422 H436 0.960 . S
C423 C420 1.511 . S
C423 H437 0.961 . S
C423 H438 0.961 . S
C423 H439 0.961 . S
C424 C425 1.370 . S
C424 C426 1.363 . S
C424 H440 0.931 . S
C425 C424 1.370 . S
C425 C429 1.408 . S
C426 C424 1.363 . S
C426 C427 1.370 . S
C426 C430 1.524 . S
C427 C419 1.503 . S
C427 C426 1.370 . S
C427 C428 1.403 . S
C428 C427 1.403 . S
C428 C429 1.404 . S
C428 C431 1.539 . S
C429 C425 1.408 . S
C429 C428 1.404 . S
C429 H441 0.930 . S
C430 C426 1.524 . S
C430 H442 0.956 . S
C430 H443 0.961 . S
C430 H444 0.961 . S
C431 C428 1.539 . S
C431 H445 0.958 . S
C431 H446 0.961 . S
C431 H447 0.960 . S
H432 C416 0.931 . S
H433 C421 0.929 . S
H434 C422 0.960 . S
H435 C422 0.962 . S
H436 C422 0.960 . S
H437 C423 0.961 . S
H438 C423 0.961 . S
H439 C423 0.961 . S
H440 C424 0.931 . S
H441 C429 0.930 . S
H442 C430 0.956 . S
H443 C430 0.961 . S
H444 C430 0.961 . S
H445 C431 0.958 . S
H446 C431 0.961 . S
H447 C431 0.960 . S
C448 C449 1.391 . S
C448 C450 1.394 . S
C448 H464 0.931 . S
C449 C448 1.391 . S
C449 C453 1.376 . S
C450 C448 1.394 . S
C450 C451 1.369 . S
C450 C454 1.531 . S
C451 C450 1.369 . S
C451 C452 1.410 . S
C451 C459 1.503 . S
C452 C451 1.410 . S
C452 C453 1.392 . S
C452 C455 1.511 . S
C453 C449 1.376 . S
C453 C452 1.392 . S
C453 H465 0.929 . S
C454 C450 1.531 . S
C454 H466 0.960 . S
C454 H467 0.962 . S
C454 H468 0.960 . S
C455 C452 1.511 . S
C455 H469 0.961 . S
C455 H470 0.961 . S
C455 H471 0.961 . S
C456 C457 1.370 . S
C456 C458 1.363 . S
C456 H472 0.931 . S
C457 C456 1.370 . S
C457 C461 1.408 . S
C458 C456 1.363 . S
C458 C459 1.370 . S
C458 C462 1.524 . S
C459 C451 1.503 . S
C459 C458 1.370 . S
C459 C460 1.403 . S
C460 C459 1.403 . S
C460 C461 1.404 . S
C460 C463 1.539 . S
C461 C457 1.408 . S
C461 C460 1.404 . S
C461 H473 0.930 . S
C462 C458 1.524 . S
C462 H474 0.956 . S
C462 H475 0.961 . S
C462 H476 0.961 . S
C463 C460 1.539 . S
C463 H477 0.958 . S
C463 H478 0.961 . S
C463 H479 0.960 . S
H464 C448 0.931 . S
H465 C453 0.929 . S
H466 C454 0.960 . S
H467 C454 0.962 . S
H468 C454 0.960 . S
H469 C455 0.961 . S
H470 C455 0.961 . S
H471 C455 0.961 . S
H472 C456 0.931 . S
H473 C461 0.930 . S
H474 C462 0.956 . S
H475 C462 0.961 . S
H476 C462 0.961 . S
H477 C463 0.958 . S
H478 C463 0.961 . S
H479 C463 0.960 . S
C480 C481 1.391 . S
C480 C482 1.394 . S
C480 H496 0.931 . S
C481 C480 1.391 . S
C481 C485 1.376 . S
C482 C480 1.394 . S
C482 C483 1.369 . S
C482 C486 1.531 . S
C483 C482 1.369 . S
C483 C484 1.410 . S
C483 C491 1.503 1_556 S
C484 C483 1.410 . S
C484 C485 1.392 . S
C484 C487 1.511 . S
C485 C481 1.376 . S
C485 C484 1.392 . S
C485 H497 0.929 . S
C486 C482 1.531 . S
C486 H498 0.968 . S
C486 H499 0.962 . S
C486 H500 0.960 . S
C487 C484 1.511 . S
C487 H501 0.961 . S
C487 H502 0.961 1_556 S
C487 H503 0.961 . S
C488 C489 1.370 . S
C488 C490 1.363 . S
C488 H504 0.931 . S
C489 C488 1.370 . S
C489 C493 1.408 . S
C490 C488 1.363 . S
C490 C491 1.370 . S
C490 C494 1.524 . S
C491 C483 1.503 1_554 S
C491 C490 1.370 . S
C491 C492 1.403 . S
C492 C491 1.403 . S
C492 C493 1.404 . S
C492 C495 1.539 . S
C493 C489 1.408 . S
C493 C492 1.404 . S
C493 H505 0.930 . S
C494 C490 1.524 . S
C494 H506 0.954 1_554 S
C494 H507 0.961 1_554 S
C494 H508 0.961 . S
C495 C492 1.539 . S
C495 H509 0.958 . S
C495 H510 0.961 . S
C495 H511 0.960 1_554 S
H496 C480 0.931 . S
H497 C485 0.929 . S
H498 C486 0.968 . S
H499 C486 0.962 . S
H500 C486 0.960 . S
H501 C487 0.961 . S
H502 C487 0.961 1_554 S
H503 C487 0.961 . S
H504 C488 0.931 . S
H505 C493 0.930 . S
H506 C494 0.954 1_556 S
H507 C494 0.961 1_556 S
H508 C494 0.961 . S
H509 C495 0.958 . S
H510 C495 0.961 . S
H511 C495 0.960 1_556 S
C512 C513 1.391 . S
C512 C514 1.394 . S
C512 H528 0.931 . S
C513 C512 1.391 . S
C513 C517 1.376 . S
C514 C512 1.394 . S
C514 C515 1.369 . S
C514 C518 1.531 . S
C515 C514 1.369 . S
C515 C516 1.410 . S
C515 C523 1.503 1_556 S
C516 C515 1.410 . S
C516 C517 1.392 . S
C516 C519 1.511 . S
C517 C513 1.376 . S
C517 C516 1.392 . S
C517 H529 0.929 . S
C518 C514 1.531 . S
C518 H530 0.960 1_556 S
C518 H531 0.962 . S
C518 H532 0.960 . S
C519 C516 1.511 . S
C519 H533 0.961 . S
C519 H534 0.961 1_556 S
C519 H535 0.961 . S
C520 C521 1.370 . S
C520 C522 1.363 . S
C520 H536 0.931 . S
C521 C520 1.370 . S
C521 C525 1.408 . S
C522 C520 1.363 . S
C522 C523 1.370 . S
C522 C526 1.524 . S
C523 C515 1.503 1_554 S
C523 C522 1.370 . S
C523 C524 1.403 . S
C524 C523 1.403 . S
C524 C525 1.404 . S
C524 C527 1.539 . S
C525 C521 1.408 . S
C525 C524 1.404 . S
C525 H537 0.930 . S
C526 C522 1.524 . S
C526 H538 0.956 . S
C526 H539 0.961 . S
C526 H540 0.961 . S
C527 C524 1.539 . S
C527 H541 0.958 . S
C527 H542 0.961 . S
C527 H543 0.960 . S
H528 C512 0.931 . S
H529 C517 0.929 . S
H530 C518 0.960 1_554 S
H531 C518 0.962 . S
H532 C518 0.960 . S
H533 C519 0.961 . S
H534 C519 0.961 1_554 S
H535 C519 0.961 . S
H536 C520 0.931 . S
H537 C525 0.930 . S
H538 C526 0.956 . S
H539 C526 0.961 . S
H540 C526 0.961 . S
H541 C527 0.958 . S
H542 C527 0.961 . S
H543 C527 0.960 . S
C544 C545 1.391 . S
C544 C546 1.394 . S
C544 H560 0.931 . S
C545 C544 1.391 . S
C545 C549 1.376 . S
C546 C544 1.394 . S
C546 C547 1.369 . S
C546 C550 1.531 . S
C547 C546 1.369 . S
C547 C548 1.410 . S
C547 C555 1.503 1_556 S
C548 C547 1.410 . S
C548 C549 1.392 . S
C548 C551 1.511 . S
C549 C545 1.376 . S
C549 C548 1.392 . S
C549 H561 0.929 . S
C550 C546 1.531 . S
C550 H562 0.971 . S
C550 H563 0.962 . S
C550 H564 0.960 . S
C551 C548 1.511 . S
C551 H565 0.961 . S
C551 H566 0.961 1_556 S
C551 H567 0.961 . S
C552 C553 1.370 . S
C552 C554 1.363 . S
C552 H568 0.931 . S
C553 C552 1.370 . S
C553 C557 1.408 . S
C554 C552 1.363 . S
C554 C555 1.370 . S
C554 C558 1.524 . S
C555 C547 1.503 1_554 S
C555 C554 1.370 . S
C555 C556 1.403 . S
C556 C555 1.403 . S
C556 C557 1.404 . S
C556 C559 1.539 . S
C557 C553 1.408 . S
C557 C556 1.404 . S
C557 H569 0.930 . S
C558 C554 1.524 . S
C558 H570 0.951 1_554 S
C558 H571 0.961 1_554 S
C558 H572 0.961 . S
C559 C556 1.539 . S
C559 H573 0.958 . S
C559 H574 0.961 . S
C559 H575 0.960 1_554 S
H560 C544 0.931 . S
H561 C549 0.929 . S
H562 C550 0.971 . S
H563 C550 0.962 . S
H564 C550 0.960 . S
H565 C551 0.961 . S
H566 C551 0.961 1_554 S
H567 C551 0.961 . S
H568 C552 0.931 . S
H569 C557 0.930 . S
H570 C558 0.951 1_556 S
H571 C558 0.961 1_556 S
H572 C558 0.961 . S
H573 C559 0.958 . S
H574 C559 0.961 . S
H575 C559 0.960 1_556 S
C576 C577 1.391 . S
C576 C578 1.394 . S
C576 H592 0.931 . S
C577 C576 1.391 . S
C577 C581 1.376 . S
C578 C576 1.394 . S
C578 C579 1.369 . S
C578 C582 1.531 . S
C579 C578 1.369 . S
C579 C580 1.410 . S
C579 C587 1.503 1_554 S
C580 C579 1.410 . S
C580 C581 1.392 . S
C580 C583 1.511 . S
C581 C577 1.376 . S
C581 C580 1.392 . S
C581 H593 0.929 . S
C582 C578 1.531 . S
C582 H594 0.938 1_554 S
C582 H595 0.962 . S
C582 H596 0.960 . S
C583 C580 1.511 . S
C583 H597 0.961 . S
C583 H598 0.934 1_554 S
C583 H599 0.961 . S
C584 C585 1.370 . S
C584 C586 1.363 . S
C584 H600 0.931 . S
C585 C584 1.370 . S
C585 C589 1.408 . S
C586 C584 1.363 . S
C586 C587 1.370 . S
C586 C590 1.524 . S
C587 C579 1.503 1_556 S
C587 C586 1.370 . S
C587 C588 1.403 . S
C588 C587 1.403 . S
C588 C589 1.404 . S
C588 C591 1.539 . S
C589 C585 1.408 . S
C589 C588 1.404 . S
C589 H601 0.930 . S
C590 C586 1.524 . S
C590 H602 0.961 . S
C590 H603 0.961 1_556 S
C590 H604 0.961 . S
C591 C588 1.539 . S
C591 H605 0.958 . S
C591 H606 0.961 . S
C591 H607 0.960 1_556 S
H592 C576 0.931 . S
H593 C581 0.929 . S
H594 C582 0.938 1_556 S
H595 C582 0.962 . S
H596 C582 0.960 . S
H597 C583 0.961 . S
H598 C583 0.934 1_556 S
H599 C583 0.961 . S
H600 C584 0.931 . S
H601 C589 0.930 . S
H602 C590 0.961 . S
H603 C590 0.961 1_554 S
H604 C590 0.961 . S
H605 C591 0.958 . S
H606 C591 0.961 . S
H607 C591 0.960 1_554 S
C608 C609 1.391 . S
C608 C610 1.394 . S
C608 H624 0.931 . S
C609 C608 1.391 . S
C609 C613 1.376 . S
C610 C608 1.394 . S
C610 C611 1.369 . S
C610 C614 1.531 . S
C611 C610 1.369 . S
C611 C612 1.410 . S
C611 C619 1.503 1_455 S
C612 C611 1.410 . S
C612 C613 1.392 . S
C612 C615 1.511 . S
C613 C609 1.376 . S
C613 C612 1.392 . S
C613 H625 0.929 . S
C614 C610 1.531 . S
C614 H626 0.960 1_455 S
C614 H627 0.962 . S
C614 H628 0.960 . S
C615 C612 1.511 . S
C615 H629 0.961 . S
C615 H630 0.961 1_455 S
C615 H631 0.961 . S
C616 C617 1.370 . S
C616 C618 1.363 . S
C616 H632 0.931 . S
C617 C616 1.370 . S
C617 C621 1.408 . S
C618 C616 1.363 . S
C618 C619 1.370 . S
C618 C622 1.524 . S
C619 C611 1.503 1_655 S
C619 C618 1.370 . S
C619 C620 1.403 . S
C620 C619 1.403 . S
C620 C621 1.404 . S
C620 C623 1.539 . S
C621 C617 1.408 . S
C621 C620 1.404 . S
C621 H633 0.930 . S
C622 C618 1.524 . S
C622 H634 0.954 . S
C622 H635 0.961 1_655 S
C622 H636 0.961 . S
C623 C620 1.539 . S
C623 H637 0.958 . S
C623 H638 0.961 . S
C623 H639 0.960 . S
H624 C608 0.931 . S
H625 C613 0.929 . S
H626 C614 0.960 1_655 S
H627 C614 0.962 . S
H628 C614 0.960 . S
H629 C615 0.961 . S
H630 C615 0.961 1_655 S
H631 C615 0.961 . S
H632 C616 0.931 . S
H633 C621 0.930 . S
H634 C622 0.954 . S
H635 C622 0.961 1_455 S
H636 C622 0.961 . S
H637 C623 0.958 . S
H638 C623 0.961 . S
H639 C623 0.960 . S
C640 C641 1.391 . S
C640 C642 1.394 . S
C640 H656 0.931 . S
C641 C640 1.391 . S
C641 C645 1.376 . S
C642 C640 1.394 . S
C642 C643 1.369 . S
C642 C646 1.531 . S
C643 C642 1.369 . S
C643 C644 1.410 . S
C643 C651 1.503 1_565 S
C644 C643 1.410 . S
C644 C645 1.392 . S
C644 C647 1.511 . S
C645 C641 1.376 . S
C645 C644 1.392 . S
C645 H657 0.929 . S
C646 C642 1.531 . S
C646 H658 0.974 . S
C646 H659 0.962 . S
C646 H660 0.960 . S
C647 C644 1.511 . S
C647 H661 0.961 . S
C647 H662 0.961 1_565 S
C647 H663 0.961 . S
C648 C649 1.370 . S
C648 C650 1.363 . S
C648 H664 0.931 . S
C649 C648 1.370 . S
C649 C653 1.408 . S
C650 C648 1.363 . S
C650 C651 1.370 . S
C650 C654 1.524 . S
C651 C643 1.503 1_545 S
C651 C650 1.370 . S
C651 C652 1.403 . S
C652 C651 1.403 . S
C652 C653 1.404 . S
C652 C655 1.539 . S
C653 C649 1.408 . S
C653 C652 1.404 . S
C653 H665 0.930 . S
C654 C650 1.524 . S
C654 H666 0.943 1_545 S
C654 H667 0.961 1_545 S
C654 H668 0.961 . S
C655 C652 1.539 . S
C655 H669 0.958 . S
C655 H670 0.961 . S
C655 H671 0.960 1_545 S
H656 C640 0.931 . S
H657 C645 0.929 . S
H658 C646 0.974 . S
H659 C646 0.962 . S
H660 C646 0.960 . S
H661 C647 0.961 . S
H662 C647 0.961 1_545 S
H663 C647 0.961 . S
H664 C648 0.931 . S
H665 C653 0.930 . S
H666 C654 0.943 1_565 S
H667 C654 0.961 1_565 S
H668 C654 0.961 . S
H669 C655 0.958 . S
H670 C655 0.961 . S
H671 C655 0.960 1_565 S
C672 C673 1.391 . S
C672 C674 1.394 . S
C672 H688 0.931 . S
C673 C672 1.391 . S
C673 C677 1.376 . S
C674 C672 1.394 . S
C674 C675 1.369 . S
C674 C678 1.531 . S
C675 C674 1.369 . S
C675 C676 1.410 . S
C675 C683 1.503 1_655 S
C676 C675 1.410 . S
C676 C677 1.392 . S
C676 C679 1.511 . S
C677 C673 1.376 . S
C677 C676 1.392 . S
C677 H689 0.929 . S
C678 C674 1.531 . S
C678 H690 0.960 1_655 S
C678 H691 0.962 . S
C678 H692 0.960 . S
C679 C676 1.511 . S
C679 H693 0.961 . S
C679 H694 0.961 1_655 S
C679 H695 0.961 . S
C680 C681 1.370 . S
C680 C682 1.363 . S
C680 H696 0.931 . S
C681 C680 1.370 . S
C681 C685 1.408 . S
C682 C680 1.363 . S
C682 C683 1.370 . S
C682 C686 1.524 . S
C683 C675 1.503 1_455 S
C683 C682 1.370 . S
C683 C684 1.403 . S
C684 C683 1.403 . S
C684 C685 1.404 . S
C684 C687 1.539 . S
C685 C681 1.408 . S
C685 C684 1.404 . S
C685 H697 0.930 . S
C686 C682 1.524 . S
C686 H698 0.956 . S
C686 H699 0.947 1_455 S
C686 H700 0.961 . S
C687 C684 1.539 . S
C687 H701 0.958 . S
C687 H702 0.961 . S
C687 H703 0.924 1_455 S
H688 C672 0.931 . S
H689 C677 0.929 . S
H690 C678 0.960 1_455 S
H691 C678 0.962 . S
H692 C678 0.960 . S
H693 C679 0.961 . S
H694 C679 0.961 1_455 S
H695 C679 0.961 . S
H696 C680 0.931 . S
H697 C685 0.930 . S
H698 C686 0.956 . S
H699 C686 0.947 1_655 S
H700 C686 0.961 . S
H701 C687 0.958 . S
H702 C687 0.961 . S
H703 C687 0.924 1_655 S
C704 C705 1.391 . S
C704 C706 1.394 . S
C704 H720 0.931 . S
C705 C704 1.391 . S
C705 C709 1.376 . S
C706 C704 1.394 . S
C706 C707 1.369 . S
C706 C710 1.531 . S
C707 C706 1.369 . S
C707 C708 1.410 . S
C707 C715 1.503 1_545 S
C708 C707 1.410 . S
C708 C709 1.392 . S
C708 C711 1.511 . S
C709 C705 1.376 . S
C709 C708 1.392 . S
C709 H721 0.929 . S
C710 C706 1.531 . S
C710 H722 0.960 1_545 S
C710 H723 0.962 . S
C710 H724 0.960 . S
C711 C708 1.511 . S
C711 H725 0.961 . S
C711 H726 0.941 1_545 S
C711 H727 0.961 . S
C712 C713 1.370 . S
C712 C714 1.363 . S
C712 H728 0.931 . S
C713 C712 1.370 . S
C713 C717 1.408 . S
C714 C712 1.363 . S
C714 C715 1.370 . S
C714 C718 1.524 . S
C715 C707 1.503 1_565 S
C715 C714 1.370 . S
C715 C716 1.403 . S
C716 C715 1.403 . S
C716 C717 1.404 . S
C716 C719 1.539 . S
C717 C713 1.408 . S
C717 C716 1.404 . S
C717 H729 0.930 . S
C718 C714 1.524 . S
C718 H730 0.956 1_565 S
C718 H731 0.961 1_565 S
C718 H732 0.961 . S
C719 C716 1.539 . S
C719 H733 0.958 . S
C719 H734 0.961 . S
C719 H735 0.931 1_565 S
H720 C704 0.931 . S
H721 C709 0.929 . S
H722 C710 0.960 1_565 S
H723 C710 0.962 . S
H724 C710 0.960 . S
H725 C711 0.961 . S
H726 C711 0.941 1_565 S
H727 C711 0.961 . S
H728 C712 0.931 . S
H729 C717 0.930 . S
H730 C718 0.956 1_545 S
H731 C718 0.961 1_545 S
H732 C718 0.961 . S
H733 C719 0.958 . S
H734 C719 0.961 . S
H735 C719 0.931 1_545 S
C736 C737 1.391 . S
C736 C738 1.394 . S
C736 H752 0.931 . S
C737 C736 1.391 . S
C737 C741 1.376 . S
C738 C736 1.394 . S
C738 C739 1.369 . S
C738 C742 1.531 . S
C739 C738 1.369 . S
C739 C740 1.410 . S
C739 C747 1.503 1_655 S
C740 C739 1.410 . S
C740 C741 1.392 . S
C740 C743 1.511 . S
C741 C737 1.376 . S
C741 C740 1.392 . S
C741 H753 0.929 . S
C742 C738 1.531 . S
C742 H754 0.960 1_655 S
C742 H755 0.962 . S
C742 H756 0.960 . S
C743 C740 1.511 . S
C743 H757 0.961 . S
C743 H758 0.961 1_655 S
C743 H759 0.961 . S
C744 C745 1.370 . S
C744 C746 1.363 . S
C744 H760 0.931 . S
C745 C744 1.370 . S
C745 C749 1.408 . S
C746 C744 1.363 . S
C746 C747 1.370 . S
C746 C750 1.524 . S
C747 C739 1.503 1_455 S
C747 C746 1.370 . S
C747 C748 1.403 . S
C748 C747 1.403 . S
C748 C749 1.404 . S
C748 C751 1.539 . S
C749 C745 1.408 . S
C749 C748 1.404 . S
C749 H761 0.930 . S
C750 C746 1.524 . S
C750 H762 0.956 . S
C750 H763 0.945 1_455 S
C750 H764 0.961 . S
C751 C748 1.539 . S
C751 H765 0.958 . S
C751 H766 0.961 . S
C751 H767 0.955 1_455 S
H752 C736 0.931 . S
H753 C741 0.929 . S
H754 C742 0.960 1_455 S
H755 C742 0.962 . S
H756 C742 0.960 . S
H757 C743 0.961 . S
H758 C743 0.961 1_455 S
H759 C743 0.961 . S
H760 C744 0.931 . S
H761 C749 0.930 . S
H762 C750 0.956 . S
H763 C750 0.945 1_655 S
H764 C750 0.961 . S
H765 C751 0.958 . S
H766 C751 0.961 . S
H767 C751 0.955 1_655 S
C768 C769 1.391 . S
C768 C770 1.394 . S
C768 H784 0.931 . S
C769 C768 1.391 . S
C769 C773 1.376 . S
C770 C768 1.394 . S
C770 C771 1.369 . S
C770 C774 1.531 . S
C771 C770 1.369 . S
C771 C772 1.410 . S
C771 C779 1.503 1_565 S
C772 C771 1.410 . S
C772 C773 1.392 . S
C772 C775 1.511 . S
C773 C769 1.376 . S
C773 C772 1.392 . S
C773 H785 0.929 . S
C774 C770 1.531 . S
C774 H786 0.970 . S
C774 H787 0.962 . S
C774 H788 0.960 . S
C775 C772 1.511 . S
C775 H789 0.961 . S
C775 H790 0.961 1_565 S
C775 H791 0.961 . S
C776 C777 1.370 . S
C776 C778 1.363 . S
C776 H792 0.931 . S
C777 C776 1.370 . S
C777 C781 1.408 . S
C778 C776 1.363 . S
C778 C779 1.370 . S
C778 C782 1.524 . S
C779 C771 1.503 1_545 S
C779 C778 1.370 . S
C779 C780 1.403 . S
C780 C779 1.403 . S
C780 C781 1.404 . S
C780 C783 1.539 . S
C781 C777 1.408 . S
C781 C780 1.404 . S
C781 H793 0.930 . S
C782 C778 1.524 . S
C782 H794 0.956 1_545 S
C782 H795 0.961 1_545 S
C782 H796 0.961 . S
C783 C780 1.539 . S
C783 H797 0.958 . S
C783 H798 0.961 . S
C783 H799 0.960 1_545 S
H784 C768 0.931 . S
H785 C773 0.929 . S
H786 C774 0.970 . S
H787 C774 0.962 . S
H788 C774 0.960 . S
H789 C775 0.961 . S
H790 C775 0.961 1_545 S
H791 C775 0.961 . S
H792 C776 0.931 . S
H793 C781 0.930 . S
H794 C782 0.956 1_565 S
H795 C782 0.961 1_565 S
H796 C782 0.961 . S
H797 C783 0.958 . S
H798 C783 0.961 . S
H799 C783 0.960 1_565 S
C800 C801 1.391 . S
C800 C802 1.394 . S
C800 H816 0.931 . S
C801 C800 1.391 . S
C801 C805 1.376 . S
C802 C800 1.394 . S
C802 C803 1.369 . S
C802 C806 1.531 . S
C803 C802 1.369 . S
C803 C804 1.410 . S
C803 C811 1.503 1_455 S
C804 C803 1.410 . S
C804 C805 1.392 . S
C804 C807 1.511 . S
C805 C801 1.376 . S
C805 C804 1.392 . S
C805 H817 0.929 . S
C806 C802 1.531 . S
C806 H818 0.960 1_455 S
C806 H819 0.962 . S
C806 H820 0.960 . S
C807 C804 1.511 . S
C807 H821 0.961 . S
C807 H822 0.961 1_455 S
C807 H823 0.961 . S
C808 C809 1.370 . S
C808 C810 1.363 . S
C808 H824 0.931 . S
C809 C808 1.370 . S
C809 C813 1.408 . S
C810 C808 1.363 . S
C810 C811 1.370 . S
C810 C814 1.524 . S
C811 C803 1.503 1_655 S
C811 C810 1.370 . S
C811 C812 1.403 . S
C812 C811 1.403 . S
C812 C813 1.404 . S
C812 C815 1.539 . S
C813 C809 1.408 . S
C813 C812 1.404 . S
C813 H825 0.930 . S
C814 C810 1.524 . S
C814 H826 0.975 . S
C814 H827 0.961 1_655 S
C814 H828 0.961 . S
C815 C812 1.539 . S
C815 H829 0.958 . S
C815 H830 0.961 . S
C815 H831 0.980 . S
H816 C800 0.931 . S
H817 C805 0.929 . S
H818 C806 0.960 1_655 S
H819 C806 0.962 . S
H820 C806 0.960 . S
H821 C807 0.961 . S
H822 C807 0.961 1_655 S
H823 C807 0.961 . S
H824 C808 0.931 . S
H825 C813 0.930 . S
H826 C814 0.975 . S
H827 C814 0.961 1_455 S
H828 C814 0.961 . S
H829 C815 0.958 . S
H830 C815 0.961 . S
H831 C815 0.980 . S
C832 C833 1.391 . S
C832 C834 1.394 . S
C832 H848 0.931 . S
C833 C832 1.391 . S
C833 C837 1.376 . S
C834 C832 1.394 . S
C834 C835 1.369 . S
C834 C838 1.531 . S
C835 C834 1.369 . S
C835 C836 1.410 . S
C835 C843 1.503 1_565 S
C836 C835 1.410 . S
C836 C837 1.392 . S
C836 C839 1.511 . S
C837 C833 1.376 . S
C837 C836 1.392 . S
C837 H849 0.929 . S
C838 C834 1.531 . S
C838 H850 0.960 1_565 S
C838 H851 0.962 . S
C838 H852 0.960 . S
C839 C836 1.511 . S
C839 H853 0.961 . S
C839 H854 0.961 1_565 S
C839 H855 0.961 . S
C840 C841 1.370 . S
C840 C842 1.363 . S
C840 H856 0.931 . S
C841 C840 1.370 . S
C841 C845 1.408 . S
C842 C840 1.363 . S
C842 C843 1.370 . S
C842 C846 1.524 . S
C843 C835 1.503 1_545 S
C843 C842 1.370 . S
C843 C844 1.403 . S
C844 C843 1.403 . S
C844 C845 1.404 . S
C844 C847 1.539 . S
C845 C841 1.408 . S
C845 C844 1.404 . S
C845 H857 0.930 . S
C846 C842 1.524 . S
C846 H858 0.956 . S
C846 H859 0.961 . S
C846 H860 0.961 . S
C847 C844 1.539 . S
C847 H861 0.958 . S
C847 H862 0.961 . S
C847 H863 0.960 . S
H848 C832 0.931 . S
H849 C837 0.929 . S
H850 C838 0.960 1_545 S
H851 C838 0.962 . S
H852 C838 0.960 . S
H853 C839 0.961 . S
H854 C839 0.961 1_545 S
H855 C839 0.961 . S
H856 C840 0.931 . S
H857 C845 0.930 . S
H858 C846 0.956 . S
H859 C846 0.961 . S
H860 C846 0.961 . S
H861 C847 0.958 . S
H862 C847 0.961 . S
H863 C847 0.960 . S
C864 C865 1.391 . S
C864 C866 1.394 . S
C864 H880 0.931 . S
C865 C864 1.391 . S
C865 C869 1.376 . S
C866 C864 1.394 . S
C866 C867 1.369 . S
C866 C870 1.531 . S
C867 C866 1.369 . S
C867 C868 1.410 . S
C867 C875 1.503 . S
C868 C867 1.410 . S
C868 C869 1.392 . S
C868 C871 1.511 . S
C869 C865 1.376 . S
C869 C868 1.392 . S
C869 H881 0.929 . S
C870 C866 1.531 . S
C870 H882 0.960 . S
C870 H883 0.962 . S
C870 H884 0.960 . S
C871 C868 1.511 . S
C871 H885 0.961 . S
C871 H886 0.961 . S
C871 H887 0.961 . S
C872 C873 1.370 . S
C872 C874 1.363 . S
C872 H888 0.931 . S
C873 C872 1.370 . S
C873 C877 1.408 . S
C874 C872 1.363 . S
C874 C875 1.370 . S
C874 C878 1.524 . S
C875 C867 1.503 . S
C875 C874 1.370 . S
C875 C876 1.403 . S
C876 C875 1.403 . S
C876 C877 1.404 . S
C876 C879 1.539 . S
C877 C873 1.408 . S
C877 C876 1.404 . S
C877 H889 0.930 . S
C878 C874 1.524 . S
C878 H890 0.956 . S
C878 H891 0.961 . S
C878 H892 0.961 . S
C879 C876 1.539 . S
C879 H893 0.958 . S
C879 H894 0.961 . S
C879 H895 0.960 . S
H880 C864 0.931 . S
H881 C869 0.929 . S
H882 C870 0.960 . S
H883 C870 0.962 . S
H884 C870 0.960 . S
H885 C871 0.961 . S
H886 C871 0.961 . S
H887 C871 0.961 . S
H888 C872 0.931 . S
H889 C877 0.930 . S
H890 C878 0.956 . S
H891 C878 0.961 . S
H892 C878 0.961 . S
H893 C879 0.958 . S
H894 C879 0.961 . S
H895 C879 0.960 . S
C896 C897 1.391 . S
C896 C898 1.394 . S
C896 H912 0.931 . S
C897 C896 1.391 . S
C897 C901 1.376 . S
C898 C896 1.394 . S
C898 C899 1.369 . S
C898 C902 1.531 . S
C899 C898 1.369 . S
C899 C900 1.410 . S
C899 C907 1.503 . S
C900 C899 1.410 . S
C900 C901 1.392 . S
C900 C903 1.511 . S
C901 C897 1.376 . S
C901 C900 1.392 . S
C901 H913 0.929 . S
C902 C898 1.531 . S
C902 H914 0.960 . S
C902 H915 0.962 . S
C902 H916 0.960 . S
C903 C900 1.511 . S
C903 H917 0.961 . S
C903 H918 0.961 . S
C903 H919 0.961 . S
C904 C905 1.370 . S
C904 C906 1.363 . S
C904 H920 0.931 . S
C905 C904 1.370 . S
C905 C909 1.408 . S
C906 C904 1.363 . S
C906 C907 1.370 . S
C906 C910 1.524 . S
C907 C899 1.503 . S
C907 C906 1.370 . S
C907 C908 1.403 . S
C908 C907 1.403 . S
C908 C909 1.404 . S
C908 C911 1.539 . S
C909 C905 1.408 . S
C909 C908 1.404 . S
C909 H921 0.930 . S
C910 C906 1.524 . S
C910 H922 0.956 . S
C910 H923 0.961 . S
C910 H924 0.961 . S
C911 C908 1.539 . S
C911 H925 0.958 . S
C911 H926 0.961 . S
C911 H927 0.960 . S
H912 C896 0.931 . S
H913 C901 0.929 . S
H914 C902 0.960 . S
H915 C902 0.962 . S
H916 C902 0.960 . S
H917 C903 0.961 . S
H918 C903 0.961 . S
H919 C903 0.961 . S
H920 C904 0.931 . S
H921 C909 0.930 . S
H922 C910 0.956 . S
H923 C910 0.961 . S
H924 C910 0.961 . S
H925 C911 0.958 . S
H926 C911 0.961 . S
H927 C911 0.960 . S
C928 C929 1.391 . S
C928 C930 1.394 . S
C928 H944 0.931 . S
C929 C928 1.391 . S
C929 C933 1.376 . S
C930 C928 1.394 . S
C930 C931 1.369 . S
C930 C934 1.531 . S
C931 C930 1.369 . S
C931 C932 1.410 . S
C931 C939 1.503 . S
C932 C931 1.410 . S
C932 C933 1.392 . S
C932 C935 1.511 . S
C933 C929 1.376 . S
C933 C932 1.392 . S
C933 H945 0.929 . S
C934 C930 1.531 . S
C934 H946 0.960 . S
C934 H947 0.962 . S
C934 H948 0.960 . S
C935 C932 1.511 . S
C935 H949 0.961 . S
C935 H950 0.961 . S
C935 H951 0.961 . S
C936 C937 1.370 . S
C936 C938 1.363 . S
C936 H952 0.931 . S
C937 C936 1.370 . S
C937 C941 1.408 . S
C938 C936 1.363 . S
C938 C939 1.370 . S
C938 C942 1.524 . S
C939 C931 1.503 . S
C939 C938 1.370 . S
C939 C940 1.403 . S
C940 C939 1.403 . S
C940 C941 1.404 . S
C940 C943 1.539 . S
C941 C937 1.408 . S
C941 C940 1.404 . S
C941 H953 0.930 . S
C942 C938 1.524 . S
C942 H954 0.956 . S
C942 H955 0.961 . S
C942 H956 0.961 . S
C943 C940 1.539 . S
C943 H957 0.958 . S
C943 H958 0.961 . S
C943 H959 0.960 . S
H944 C928 0.931 . S
H945 C933 0.929 . S
H946 C934 0.960 . S
H947 C934 0.962 . S
H948 C934 0.960 . S
H949 C935 0.961 . S
H950 C935 0.961 . S
H951 C935 0.961 . S
H952 C936 0.931 . S
H953 C941 0.930 . S
H954 C942 0.956 . S
H955 C942 0.961 . S
H956 C942 0.961 . S
H957 C943 0.958 . S
H958 C943 0.961 . S
H959 C943 0.960 . S
C960 C961 1.391 . S
C960 C962 1.394 . S
C960 H976 0.931 . S
C961 C960 1.391 . S
C961 C965 1.376 . S
C962 C960 1.394 . S
C962 C963 1.369 . S
C962 C966 1.531 . S
C963 C962 1.369 . S
C963 C964 1.410 . S
C963 C971 1.503 . S
C964 C963 1.410 . S
C964 C965 1.392 . S
C964 C967 1.511 . S
C965 C961 1.376 . S
C965 C964 1.392 . S
C965 H977 0.929 . S
C966 C962 1.531 . S
C966 H978 0.960 . S
C966 H979 0.962 . S
C966 H980 0.960 . S
C967 C964 1.511 . S
C967 H981 0.961 . S
C967 H982 0.961 . S
C967 H983 0.961 . S
C968 C969 1.370 . S
C968 C970 1.363 . S
C968 H984 0.931 . S
C969 C968 1.370 . S
C969 C973 1.408 . S
C970 C968 1.363 . S
C970 C971 1.370 . S
C970 C974 1.524 . S
C971 C963 1.503 . S
C971 C970 1.370 . S
C971 C972 1.403 . S
C972 C971 1.403 . S
C972 C973 1.404 . S
C972 C975 1.539 . S
C973 C969 1.408 . S
C973 C972 1.404 . S
C973 H985 0.930 . S
C974 C970 1.524 . S
C974 H986 0.956 . S
C974 H987 0.961 . S
C974 H988 0.961 . S
C975 C972 1.539 . S
C975 H989 0.958 . S
C975 H990 0.961 . S
C975 H991 0.960 . S
H976 C960 0.931 . S
H977 C965 0.929 . S
H978 C966 0.960 . S
H979 C966 0.962 . S
H980 C966 0.960 . S
H981 C967 0.961 . S
H982 C967 0.961 . S
H983 C967 0.961 . S
H984 C968 0.931 . S
H985 C973 0.930 . S
H986 C974 0.956 . S
H987 C974 0.961 . S
H988 C974 0.961 . S
H989 C975 0.958 . S
H990 C975 0.961 . S
H991 C975 0.960 . S
C992 C993 1.391 . S
C992 C994 1.394 . S
C992 H1008 0.931 . S
C993 C992 1.391 . S
C993 C997 1.376 . S
C994 C992 1.394 . S
C994 C995 1.369 . S
C994 C998 1.531 . S
C995 C994 1.369 . S
C995 C996 1.410 . S
C995 C1003 1.503 . S
C996 C995 1.410 . S
C996 C997 1.392 . S
C996 C999 1.511 . S
C997 C993 1.376 . S
C997 C996 1.392 . S
C997 H1009 0.929 . S
C998 C994 1.531 . S
C998 H1010 0.960 . S
C998 H1011 0.962 . S
C998 H1012 0.960 . S
C999 C996 1.511 . S
C999 H1013 0.961 . S
C999 H1014 0.961 . S
C999 H1015 0.961 . S
C1000 C1001 1.370 . S
C1000 C1002 1.363 . S
C1000 H1016 0.931 . S
C1001 C1000 1.370 . S
C1001 C1005 1.408 . S
C1002 C1000 1.363 . S
C1002 C1003 1.370 . S
C1002 C1006 1.524 . S
C1003 C995 1.503 . S
C1003 C1002 1.370 . S
C1003 C1004 1.403 . S
C1004 C1003 1.403 . S
C1004 C1005 1.404 . S
C1004 C1007 1.539 . S
C1005 C1001 1.408 . S
C1005 C1004 1.404 . S
C1005 H1017 0.930 . S
C1006 C1002 1.524 . S
C1006 H1018 0.956 . S
C1006 H1019 0.961 . S
C1006 H1020 0.961 . S
C1007 C1004 1.539 . S
C1007 H1021 0.958 . S
C1007 H1022 0.961 . S
C1007 H1023 0.960 . S
H1008 C992 0.931 . S
H1009 C997 0.929 . S
H1010 C998 0.960 . S
H1011 C998 0.962 . S
H1012 C998 0.960 . S
H1013 C999 0.961 . S
H1014 C999 0.961 . S
H1015 C999 0.961 . S
H1016 C1000 0.931 . S
H1017 C1005 0.930 . S
H1018 C1006 0.956 . S
H1019 C1006 0.961 . S
H1020 C1006 0.961 . S
H1021 C1007 0.958 . S
H1022 C1007 0.961 . S
H1023 C1007 0.960 . S
C1024 C1025 1.391 . S
C1024 C1026 1.394 . S
C1024 H1040 0.931 . S
C1025 C1024 1.391 . S
C1025 C1029 1.376 . S
C1026 C1024 1.394 . S
C1026 C1027 1.369 . S
C1026 C1030 1.531 . S
C1027 C1026 1.369 . S
C1027 C1028 1.410 . S
C1027 C1035 1.503 . S
C1028 C1027 1.410 . S
C1028 C1029 1.392 . S
C1028 C1031 1.511 . S
C1029 C1025 1.376 . S
C1029 C1028 1.392 . S
C1029 H1041 0.929 . S
C1030 C1026 1.531 . S
C1030 H1042 0.960 . S
C1030 H1043 0.962 . S
C1030 H1044 0.960 . S
C1031 C1028 1.511 . S
C1031 H1045 0.961 . S
C1031 H1046 0.961 . S
C1031 H1047 0.961 . S
C1032 C1033 1.370 . S
C1032 C1034 1.363 . S
C1032 H1048 0.931 . S
C1033 C1032 1.370 . S
C1033 C1037 1.408 . S
C1034 C1032 1.363 . S
C1034 C1035 1.370 . S
C1034 C1038 1.524 . S
C1035 C1027 1.503 . S
C1035 C1034 1.370 . S
C1035 C1036 1.403 . S
C1036 C1035 1.403 . S
C1036 C1037 1.404 . S
C1036 C1039 1.539 . S
C1037 C1033 1.408 . S
C1037 C1036 1.404 . S
C1037 H1049 0.930 . S
C1038 C1034 1.524 . S
C1038 H1050 0.956 . S
C1038 H1051 0.961 . S
C1038 H1052 0.961 . S
C1039 C1036 1.539 . S
C1039 H1053 0.958 . S
C1039 H1054 0.961 . S
C1039 H1055 0.960 . S
H1040 C1024 0.931 . S
H1041 C1029 0.929 . S
H1042 C1030 0.960 . S
H1043 C1030 0.962 . S
H1044 C1030 0.960 . S
H1045 C1031 0.961 . S
H1046 C1031 0.961 . S
H1047 C1031 0.961 . S
H1048 C1032 0.931 . S
H1049 C1037 0.930 . S
H1050 C1038 0.956 . S
H1051 C1038 0.961 . S
H1052 C1038 0.961 . S
H1053 C1039 0.958 . S
H1054 C1039 0.961 . S
H1055 C1039 0.960 . S
C1056 C1057 1.391 . S
C1056 C1058 1.394 . S
C1056 H1072 0.931 . S
C1057 C1056 1.391 . S
C1057 C1061 1.376 . S
C1058 C1056 1.394 . S
C1058 C1059 1.369 . S
C1058 C1062 1.531 . S
C1059 C1058 1.369 . S
C1059 C1060 1.410 . S
C1059 C1067 1.503 . S
C1060 C1059 1.410 . S
C1060 C1061 1.392 . S
C1060 C1063 1.511 . S
C1061 C1057 1.376 . S
C1061 C1060 1.392 . S
C1061 H1073 0.929 . S
C1062 C1058 1.531 . S
C1062 H1074 0.960 . S
C1062 H1075 0.962 . S
C1062 H1076 0.960 . S
C1063 C1060 1.511 . S
C1063 H1077 0.961 . S
C1063 H1078 0.961 . S
C1063 H1079 0.961 . S
C1064 C1065 1.370 . S
C1064 C1066 1.363 . S
C1064 H1080 0.931 . S
C1065 C1064 1.370 . S
C1065 C1069 1.408 . S
C1066 C1064 1.363 . S
C1066 C1067 1.370 . S
C1066 C1070 1.524 . S
C1067 C1059 1.503 . S
C1067 C1066 1.370 . S
C1067 C1068 1.403 . S
C1068 C1067 1.403 . S
C1068 C1069 1.404 . S
C1068 C1071 1.539 . S
C1069 C1065 1.408 . S
C1069 C1068 1.404 . S
C1069 H1081 0.930 . S
C1070 C1066 1.524 . S
C1070 H1082 0.956 . S
C1070 H1083 0.961 . S
C1070 H1084 0.961 . S
C1071 C1068 1.539 . S
C1071 H1085 0.958 . S
C1071 H1086 0.961 . S
C1071 H1087 0.960 . S
H1072 C1056 0.931 . S
H1073 C1061 0.929 . S
H1074 C1062 0.960 . S
H1075 C1062 0.962 . S
H1076 C1062 0.960 . S
H1077 C1063 0.961 . S
H1078 C1063 0.961 . S
H1079 C1063 0.961 . S
H1080 C1064 0.931 . S
H1081 C1069 0.930 . S
H1082 C1070 0.956 . S
H1083 C1070 0.961 . S
H1084 C1070 0.961 . S
H1085 C1071 0.958 . S
H1086 C1071 0.961 . S
H1087 C1071 0.960 . S
C1088 C1089 1.391 . S
C1088 C1090 1.394 . S
C1088 H1104 0.931 . S
C1089 C1088 1.391 . S
C1089 C1093 1.376 . S
C1090 C1088 1.394 . S
C1090 C1091 1.369 . S
C1090 C1094 1.531 . S
C1091 C1090 1.369 . S
C1091 C1092 1.410 . S
C1091 C1099 1.503 . S
C1092 C1091 1.410 . S
C1092 C1093 1.392 . S
C1092 C1095 1.511 . S
C1093 C1089 1.376 . S
C1093 C1092 1.392 . S
C1093 H1105 0.929 . S
C1094 C1090 1.531 . S
C1094 H1106 0.960 . S
C1094 H1107 0.962 . S
C1094 H1108 0.960 . S
C1095 C1092 1.511 . S
C1095 H1109 0.961 . S
C1095 H1110 0.961 . S
C1095 H1111 0.961 . S
C1096 C1097 1.370 . S
C1096 C1098 1.363 . S
C1096 H1112 0.931 . S
C1097 C1096 1.370 . S
C1097 C1101 1.408 . S
C1098 C1096 1.363 . S
C1098 C1099 1.370 . S
C1098 C1102 1.524 . S
C1099 C1091 1.503 . S
C1099 C1098 1.370 . S
C1099 C1100 1.403 . S
C1100 C1099 1.403 . S
C1100 C1101 1.404 . S
C1100 C1103 1.539 . S
C1101 C1097 1.408 . S
C1101 C1100 1.404 . S
C1101 H1113 0.930 . S
C1102 C1098 1.524 . S
C1102 H1114 0.956 . S
C1102 H1115 0.961 . S
C1102 H1116 0.961 . S
C1103 C1100 1.539 . S
C1103 H1117 0.958 . S
C1103 H1118 0.961 . S
C1103 H1119 0.960 . S
H1104 C1088 0.931 . S
H1105 C1093 0.929 . S
H1106 C1094 0.960 . S
H1107 C1094 0.962 . S
H1108 C1094 0.960 . S
H1109 C1095 0.961 . S
H1110 C1095 0.961 . S
H1111 C1095 0.961 . S
H1112 C1096 0.931 . S
H1113 C1101 0.930 . S
H1114 C1102 0.956 . S
H1115 C1102 0.961 . S
H1116 C1102 0.961 . S
H1117 C1103 0.958 . S
H1118 C1103 0.961 . S
H1119 C1103 0.960 . S
C1120 C1121 1.391 . S
C1120 C1122 1.394 . S
C1120 H1136 0.931 . S
C1121 C1120 1.391 . S
C1121 C1125 1.376 . S
C1122 C1120 1.394 . S
C1122 C1123 1.369 . S
C1122 C1126 1.531 . S
C1123 C1122 1.369 . S
C1123 C1124 1.410 . S
C1123 C1131 1.503 . S
C1124 C1123 1.410 . S
C1124 C1125 1.392 . S
C1124 C1127 1.511 . S
C1125 C1121 1.376 . S
C1125 C1124 1.392 . S
C1125 H1137 0.929 . S
C1126 C1122 1.531 . S
C1126 H1138 0.960 . S
C1126 H1139 0.962 . S
C1126 H1140 0.960 . S
C1127 C1124 1.511 . S
C1127 H1141 0.961 . S
C1127 H1142 0.961 . S
C1127 H1143 0.961 . S
C1128 C1129 1.370 . S
C1128 C1130 1.363 . S
C1128 H1144 0.931 . S
C1129 C1128 1.370 . S
C1129 C1133 1.408 . S
C1130 C1128 1.363 . S
C1130 C1131 1.370 . S
C1130 C1134 1.524 . S
C1131 C1123 1.503 . S
C1131 C1130 1.370 . S
C1131 C1132 1.403 . S
C1132 C1131 1.403 . S
C1132 C1133 1.404 . S
C1132 C1135 1.539 . S
C1133 C1129 1.408 . S
C1133 C1132 1.404 . S
C1133 H1145 0.930 . S
C1134 C1130 1.524 . S
C1134 H1146 0.956 . S
C1134 H1147 0.961 . S
C1134 H1148 0.961 . S
C1135 C1132 1.539 . S
C1135 H1149 0.958 . S
C1135 H1150 0.961 . S
C1135 H1151 0.960 . S
H1136 C1120 0.931 . S
H1137 C1125 0.929 . S
H1138 C1126 0.960 . S
H1139 C1126 0.962 . S
H1140 C1126 0.960 . S
H1141 C1127 0.961 . S
H1142 C1127 0.961 . S
H1143 C1127 0.961 . S
H1144 C1128 0.931 . S
H1145 C1133 0.930 . S
H1146 C1134 0.956 . S
H1147 C1134 0.961 . S
H1148 C1134 0.961 . S
H1149 C1135 0.958 . S
H1150 C1135 0.961 . S
H1151 C1135 0.960 . S
C1152 C1153 1.391 . S
C1152 C1154 1.394 . S
C1152 H1168 0.931 . S
C1153 C1152 1.391 . S
C1153 C1157 1.376 . S
C1154 C1152 1.394 . S
C1154 C1155 1.369 . S
C1154 C1158 1.531 . S
C1155 C1154 1.369 . S
C1155 C1156 1.410 . S
C1155 C1163 1.503 . S
C1156 C1155 1.410 . S
C1156 C1157 1.392 . S
C1156 C1159 1.511 . S
C1157 C1153 1.376 . S
C1157 C1156 1.392 . S
C1157 H1169 0.929 . S
C1158 C1154 1.531 . S
C1158 H1170 0.960 . S
C1158 H1171 0.962 . S
C1158 H1172 0.960 . S
C1159 C1156 1.511 . S
C1159 H1173 0.961 . S
C1159 H1174 0.961 . S
C1159 H1175 0.961 . S
C1160 C1161 1.370 . S
C1160 C1162 1.363 . S
C1160 H1176 0.931 . S
C1161 C1160 1.370 . S
C1161 C1165 1.408 . S
C1162 C1160 1.363 . S
C1162 C1163 1.370 . S
C1162 C1166 1.524 . S
C1163 C1155 1.503 . S
C1163 C1162 1.370 . S
C1163 C1164 1.403 . S
C1164 C1163 1.403 . S
C1164 C1165 1.404 . S
C1164 C1167 1.539 . S
C1165 C1161 1.408 . S
C1165 C1164 1.404 . S
C1165 H1177 0.930 . S
C1166 C1162 1.524 . S
C1166 H1178 0.956 . S
C1166 H1179 0.961 . S
C1166 H1180 0.961 . S
C1167 C1164 1.539 . S
C1167 H1181 0.958 . S
C1167 H1182 0.961 . S
C1167 H1183 0.960 . S
H1168 C1152 0.931 . S
H1169 C1157 0.929 . S
H1170 C1158 0.960 . S
H1171 C1158 0.962 . S
H1172 C1158 0.960 . S
H1173 C1159 0.961 . S
H1174 C1159 0.961 . S
H1175 C1159 0.961 . S
H1176 C1160 0.931 . S
H1177 C1165 0.930 . S
H1178 C1166 0.956 . S
H1179 C1166 0.961 . S
H1180 C1166 0.961 . S
H1181 C1167 0.958 . S
H1182 C1167 0.961 . S
H1183 C1167 0.960 . S
C1184 C1185 1.391 . S
C1184 C1186 1.394 . S
C1184 H1200 0.931 . S
C1185 C1184 1.391 . S
C1185 C1189 1.376 . S
C1186 C1184 1.394 . S
C1186 C1187 1.369 . S
C1186 C1190 1.531 . S
C1187 C1186 1.369 . S
C1187 C1188 1.410 . S
C1187 C1195 1.503 . S
C1188 C1187 1.410 . S
C1188 C1189 1.392 . S
C1188 C1191 1.511 . S
C1189 C1185 1.376 . S
C1189 C1188 1.392 . S
C1189 H1201 0.929 . S
C1190 C1186 1.531 . S
C1190 H1202 0.960 . S
C1190 H1203 0.962 . S
C1190 H1204 0.960 . S
C1191 C1188 1.511 . S
C1191 H1205 0.961 . S
C1191 H1206 0.961 . S
C1191 H1207 0.961 . S
C1192 C1193 1.370 . S
C1192 C1194 1.363 . S
C1192 H1208 0.931 . S
C1193 C1192 1.370 . S
C1193 C1197 1.408 . S
C1194 C1192 1.363 . S
C1194 C1195 1.370 . S
C1194 C1198 1.524 . S
C1195 C1187 1.503 . S
C1195 C1194 1.370 . S
C1195 C1196 1.403 . S
C1196 C1195 1.403 . S
C1196 C1197 1.404 . S
C1196 C1199 1.539 . S
C1197 C1193 1.408 . S
C1197 C1196 1.404 . S
C1197 H1209 0.930 . S
C1198 C1194 1.524 . S
C1198 H1210 0.956 . S
C1198 H1211 0.961 . S
C1198 H1212 0.961 . S
C1199 C1196 1.539 . S
C1199 H1213 0.958 . S
C1199 H1214 0.961 . S
C1199 H1215 0.960 . S
H1200 C1184 0.931 . S
H1201 C1189 0.929 . S
H1202 C1190 0.960 . S
H1203 C1190 0.962 . S
H1204 C1190 0.960 . S
H1205 C1191 0.961 . S
H1206 C1191 0.961 . S
H1207 C1191 0.961 . S
H1208 C1192 0.931 . S
H1209 C1197 0.930 . S
H1210 C1198 0.956 . S
H1211 C1198 0.961 . S
H1212 C1198 0.961 . S
H1213 C1199 0.958 . S
H1214 C1199 0.961 . S
H1215 C1199 0.960 . S
C1216 C1217 1.391 . S
C1216 C1218 1.394 . S
C1216 H1232 0.931 . S
C1217 C1216 1.391 . S
C1217 C1221 1.376 . S
C1218 C1216 1.394 . S
C1218 C1219 1.369 . S
C1218 C1222 1.531 . S
C1219 C1218 1.369 . S
C1219 C1220 1.410 . S
C1219 C1227 1.503 . S
C1220 C1219 1.410 . S
C1220 C1221 1.392 . S
C1220 C1223 1.511 . S
C1221 C1217 1.376 . S
C1221 C1220 1.392 . S
C1221 H1233 0.929 . S
C1222 C1218 1.531 . S
C1222 H1234 0.960 . S
C1222 H1235 0.962 . S
C1222 H1236 0.960 . S
C1223 C1220 1.511 . S
C1223 H1237 0.961 . S
C1223 H1238 0.961 . S
C1223 H1239 0.961 . S
C1224 C1225 1.370 . S
C1224 C1226 1.363 . S
C1224 H1240 0.931 . S
C1225 C1224 1.370 . S
C1225 C1229 1.408 . S
C1226 C1224 1.363 . S
C1226 C1227 1.370 . S
C1226 C1230 1.524 . S
C1227 C1219 1.503 . S
C1227 C1226 1.370 . S
C1227 C1228 1.403 . S
C1228 C1227 1.403 . S
C1228 C1229 1.404 . S
C1228 C1231 1.539 . S
C1229 C1225 1.408 . S
C1229 C1228 1.404 . S
C1229 H1241 0.930 . S
C1230 C1226 1.524 . S
C1230 H1242 0.956 . S
C1230 H1243 0.961 . S
C1230 H1244 0.961 . S
C1231 C1228 1.539 . S
C1231 H1245 0.958 . S
C1231 H1246 0.961 . S
C1231 H1247 0.960 . S
H1232 C1216 0.931 . S
H1233 C1221 0.929 . S
H1234 C1222 0.960 . S
H1235 C1222 0.962 . S
H1236 C1222 0.960 . S
H1237 C1223 0.961 . S
H1238 C1223 0.961 . S
H1239 C1223 0.961 . S
H1240 C1224 0.931 . S
H1241 C1229 0.930 . S
H1242 C1230 0.956 . S
H1243 C1230 0.961 . S
H1244 C1230 0.961 . S
H1245 C1231 0.958 . S
H1246 C1231 0.961 . S
H1247 C1231 0.960 . S
C225 C218 1.241 . S
C233 C8 1.250 . S
C257 C176 1.230 . S
C265 C22 1.259 . S
C289 C36 1.252 . S
C297 C190 1.252 . S
C321 C204 1.259 . S
C329 C50 1.243 . S
C353 C134 1.265 . S
C361 C64 1.245 . S
C385 C78 1.256 . S
C393 C148 1.244 . S
C417 C92 1.257 . S
C425 C162 1.250 . S
C449 C106 1.262 . S
C457 C120 1.242 . S
C481 C73 1.664 . S
C489 C7 1.576 . S
C513 C91 1.531 . S
C521 C17 1.656 . S
C545 C101 1.663 . S
C553 C35 1.574 . S
C577 C45 1.662 . S
C585 C63 1.583 . S
C609 C9 1.267 . S
C617 C23 1.253 . S
C641 C31 1.661 . S
C649 C21 1.569 . S
C673 C37 1.240 . S
C681 C51 1.253 . S
C705 C3 1.642 . S
C713 C49 1.558 . S
C737 C107 1.275 . S
C745 C65 1.265 . S
C769 C59 1.655 . S
C777 C77 1.561 . S
C801 C79 1.285 . S
C809 C93 1.266 . S
C833 C105 1.527 . S
C841 C87 1.654 . S
C865 C185 1.660 . S
C873 C119 1.567 . S
C897 C129 1.660 . S
C905 C203 1.567 . S
C929 C213 1.644 . S
C937 C147 1.563 . S
C961 C175 1.539 . S
C969 C157 1.657 . S
C993 C121 1.284 . S
C1001 C135 1.264 . S
C1025 C133 1.600 . S
C1033 C143 1.662 . S
C1057 C163 1.214 . S
C1065 C149 1.241 . S
C1089 C115 1.664 . S
C1097 C161 1.576 . S
C1121 C219 1.215 . S
C1129 C177 1.241 . S
C1153 C171 1.652 . S
C1161 C189 1.557 . S
C1185 C191 1.251 . S
C1193 C205 1.246 . S
C1217 C217 1.595 . S
C1225 C199 1.662 . S
