# Generated by pormake.
# Topology rkf, (6)-cn, num edge types: 1
# Building blocks:
#     Node 0, Type 0, BuildingBlock: BETDIP_clean_sbu_0, # of connection points: 6
#     Node 1, Type 0, BuildingBlock: BETDIP_clean_sbu_0, # of connection points: 6
#     Node 2, Type 0, BuildingBlock: BETDIP_clean_sbu_0, # of connection points: 6
#     Node 3, Type 0, BuildingBlock: BETDIP_clean_sbu_0, # of connection points: 6
#     Node 4, Type 0, BuildingBlock: BETDIP_clean_sbu_0, # of connection points: 6
#     Node 5, Type 0, BuildingBlock: BETDIP_clean_sbu_0, # of connection points: 6
#     Edge 6, Type (0, 0), BuildingBlock: XUDNAN_clean_linker_2, # of connection points: 2
#     Edge 7, Type (0, 0), BuildingBlock: XUDNAN_clean_linker_2, # of connection points: 2
#     Edge 8, Type (0, 0), BuildingBlock: XUDNAN_clean_linker_2, # of connection points: 2
#     Edge 9, Type (0, 0), BuildingBlock: XUDNAN_clean_linker_2, # of connection points: 2
#     Edge 10, Type (0, 0), BuildingBlock: XUDNAN_clean_linker_2, # of connection points: 2
#     Edge 11, Type (0, 0), BuildingBlock: XUDNAN_clean_linker_2, # of connection points: 2
#     Edge 12, Type (0, 0), BuildingBlock: XUDNAN_clean_linker_2, # of connection points: 2
#     Edge 13, Type (0, 0), BuildingBlock: XUDNAN_clean_linker_2, # of connection points: 2
#     Edge 14, Type (0, 0), BuildingBlock: XUDNAN_clean_linker_2, # of connection points: 2
#     Edge 15, Type (0, 0), BuildingBlock: XUDNAN_clean_linker_2, # of connection points: 2
#     Edge 16, Type (0, 0), BuildingBlock: XUDNAN_clean_linker_2, # of connection points: 2
#     Edge 17, Type (0, 0), BuildingBlock: XUDNAN_clean_linker_2, # of connection points: 2
#     Edge 18, Type (0, 0), BuildingBlock: XUDNAN_clean_linker_2, # of connection points: 2
#     Edge 19, Type (0, 0), BuildingBlock: XUDNAN_clean_linker_2, # of connection points: 2
#     Edge 20, Type (0, 0), BuildingBlock: XUDNAN_clean_linker_2, # of connection points: 2
#     Edge 21, Type (0, 0), BuildingBlock: XUDNAN_clean_linker_2, # of connection points: 2
#     Edge 22, Type (0, 0), BuildingBlock: XUDNAN_clean_linker_2, # of connection points: 2
#     Edge 23, Type (0, 0), BuildingBlock: XUDNAN_clean_linker_2, # of connection points: 2
# Relax obj value: 0.718
# Max RMSD: 0.247
# Mean RMSD: 0.247
data_MOF--net-rkf--node1-BETDIP_clean_sbu_0--edge1-XUDNAN_clean_linker_2
_symmetry_space_group_name_H-M    P1
_symmetry_Int_Tables_number       1
_symmetry_cell_setting            triclinic
loop_
_symmetry_equiv_pos_as_xyz
'x, y, z'
_cell_length_a     24.901889
_cell_length_b     24.678659
_cell_length_c     45.021221
_cell_angle_alpha  89.851176
_cell_angle_beta   90.630256
_cell_angle_gamma 119.54566
loop_
_atom_site_label
_atom_site_type_symbol
_atom_site_fract_x
_atom_site_fract_y
_atom_site_fract_z
_atom_type_partial_charge
Tb0 Tb 0.3193 0.01226 0.14643 0.0
Tb1 Tb 0.28848 0.11226 1.13245 0.0
C2 C 0.36839 0.94813 0.16158 0.0
C3 C 0.37338 0.92266 0.19035 0.0
C4 C 0.36121 0.86088 0.19186 0.0
C5 C 0.34644 0.82942 0.21902 0.0
C6 C 0.34277 0.85919 0.24492 0.0
C7 C 0.36214 0.92332 0.24368 0.0
C8 C 0.37746 0.95474 0.21666 0.0
C9 C 0.20223 0.97797 0.15051 0.0
C10 C 0.31789 0.10262 0.20037 0.0
C11 C 0.23687 0.17651 1.12357 0.0
C12 C 0.23863 0.22846 1.10716 0.0
C13 C 0.21354 0.26198 1.12061 0.0
C14 C 0.21547 0.31305 1.10634 0.0
C15 C 0.24334 0.33187 1.07848 0.0
C16 C 0.26867 0.29811 1.06505 0.0
C17 C 0.26634 0.24664 1.07932 0.0
C18 C 0.40696 0.14526 1.12769 0.0
C19 C 0.27129 0.01697 1.0796 0.0
O20 O 0.39906 0.00869 0.15869 0.0
O21 O 0.31187 0.92444 0.15151 0.0
O22 O 0.24748 0.02918 0.15804 0.0
O23 O 0.22152 0.94151 1.14077 0.0
O24 O 0.33988 0.06523 0.1913 0.0
O25 O 0.2849 0.11469 0.18097 0.0
O26 O 0.22186 0.12483 1.10918 0.0
O27 O 0.28198 0.19131 0.14256 0.0
O28 O 0.36137 0.09403 1.12079 0.0
O29 O 0.38754 0.18403 1.13303 0.0
O30 O 0.25531 0.05734 1.09023 0.0
O31 O 0.3055 0.00052 1.09674 0.0
H32 H 0.35819 0.83546 0.17175 0.0
H33 H 0.33322 0.78052 0.21927 0.0
H34 H 0.35971 0.94822 0.26292 0.0
H35 H 0.38732 0.00261 0.21614 0.0
H36 H 0.19258 0.24869 1.1423 0.0
H37 H 0.1959 0.33829 1.11726 0.0
H38 H 0.2896 0.31104 1.04335 0.0
H39 H 0.28625 0.22133 1.06877 0.0
Tb40 Tb 0.41657 0.31887 0.47857 0.0
Tb41 Tb 0.29237 0.30202 0.46511 0.0
C42 C 0.52558 0.35995 0.49697 0.0
C43 C 0.5553 0.38843 0.52545 0.0
C44 C 0.60283 0.37895 0.53645 0.0
C45 C 0.61559 0.38366 0.56695 0.0
C46 C 0.57997 0.39669 0.58673 0.0
C47 C 0.53899 0.41522 0.57504 0.0
C48 C 0.52665 0.41089 0.54463 0.0
C49 C 0.33241 0.20327 0.47179 0.0
C50 C 0.32345 0.30974 0.53293 0.0
C51 C 0.18174 0.26707 0.45144 0.0
C52 C 0.14686 0.29381 0.43696 0.0
C53 C 0.15847 0.31561 0.40764 0.0
C54 C 0.12567 0.34239 0.39496 0.0
C55 C 0.08111 0.34849 0.41142 0.0
C56 C 0.06964 0.32644 0.44076 0.0
C57 C 0.10195 0.29907 0.45331 0.0
C58 C 0.38184 0.42065 0.46869 0.0
C59 C 0.36671 0.2842 0.41063 0.0
O60 O 0.50855 0.39179 0.4798 0.0
O61 O 0.48227 0.3018 0.49932 0.0
O62 O 0.32585 0.24519 0.48457 0.0
O63 O 0.38868 0.22477 0.46324 0.0
O64 O 0.38238 0.33367 0.52402 0.0
O65 O 0.27976 0.2818 0.51255 0.0
O66 O 0.21813 0.25552 0.43508 0.0
O67 O 0.20727 0.29255 0.47684 0.0
O68 O 0.38532 0.37561 0.45804 0.0
O69 O 0.32428 0.40176 0.4733 0.0
O70 O 0.31446 0.279 0.42096 0.0
O71 O 0.41631 0.30456 0.42875 0.0
H72 H 0.62567 0.3618 0.52197 0.0
H73 H 0.64843 0.3704 0.57529 0.0
H74 H 0.51063 0.42549 0.58949 0.0
H75 H 0.48995 0.4187 0.5368 0.0
H76 H 0.19274 0.31201 0.39449 0.0
H77 H 0.13456 0.35727 0.37203 0.0
H78 H 0.03594 0.33062 0.4541 0.0
H79 H 0.09225 0.28245 0.47599 0.0
Tb80 Tb 0.1799 0.39986 0.80591 0.0
Tb81 Tb 0.07768 0.26861 0.79634 0.0
C82 C 0.23109 0.51192 0.82173 0.0
C83 C 0.25379 0.53912 0.8514 0.0
C84 C 0.23107 0.57479 0.86499 0.0
C85 C 0.24044 0.58785 0.89546 0.0
C86 C 0.27252 0.56518 0.91272 0.0
C87 C 0.29922 0.53373 0.89841 0.0
C88 C 0.29 0.5209 0.86817 0.0
C89 C 0.21939 0.31976 0.80851 0.0
C90 C 0.09667 0.31483 0.86372 0.0
C91 C 0.00982 0.15571 0.78301 0.0
C92 C 0.94442 0.10945 0.78579 0.0
C93 C 0.92073 0.05585 0.76817 0.0
C94 C 0.85739 0.0207 0.76274 0.0
C95 C 0.81654 0.03865 0.77493 0.0
C96 C 0.84018 0.08844 0.79539 0.0
C97 C 0.90385 0.12399 0.80058 0.0
C98 C 0.04378 0.35373 0.79454 0.0
C99 C 0.17168 0.34372 0.74087 0.0
O100 O 0.17117 0.47643 0.81955 0.0
O101 O 0.26048 0.48669 0.80899 0.0
O102 O 0.16682 0.31051 0.81617 0.0
O103 O 0.25484 0.37859 0.80352 0.0
O104 O 0.14157 0.36927 0.85273 0.0
O105 O 0.06599 0.26677 0.84535 0.0
O106 O 0.02044 0.20187 0.76535 0.0
O107 O 0.04366 0.17419 0.80724 0.0
O108 O 0.09261 0.35834 0.78415 0.0
O109 O 0.0095 0.29802 0.80473 0.0
O110 O 0.12647 0.29195 0.75268 0.0
O111 O 0.19654 0.39646 0.75685 0.0
H112 H 0.2028 0.58909 0.8525 0.0
H113 H 0.21969 0.61259 0.90576 0.0
H114 H 0.32305 0.51418 0.91085 0.0
H115 H 0.30767 0.49275 0.85848 0.0
H116 H 0.95157 0.0443 0.75643 0.0
H117 H 0.84166 0.98336 0.74661 0.0
H118 H 0.81006 0.10289 0.80559 0.0
H119 H 0.9216 0.16547 0.81427 0.0
Tb120 Tb 0.92338 0.24146 0.14702 0.0
Tb121 Tb 0.88753 0.10971 1.13588 0.0
C122 C 0.91923 0.33777 0.16107 0.0
C123 C 0.90622 0.36036 0.18868 0.0
C124 C 0.93778 0.42423 0.19516 0.0
C125 C 0.93505 0.44522 0.22361 0.0
C126 C 0.90121 0.4024 0.24603 0.0
C127 C 0.86544 0.33888 0.23855 0.0
C128 C 0.86793 0.31809 0.21013 0.0
C129 C 0.01371 0.21698 0.14744 0.0
C130 C 0.89158 0.14477 0.2041 0.0
C131 C 0.878 0.00511 1.12589 0.0
C132 C 0.84022 0.9483 1.10881 0.0
C133 C 0.833 0.89202 1.11985 0.0
C134 C 0.79495 0.83622 1.10505 0.0
C135 C 0.7637 0.83594 1.07884 0.0
C136 C 0.77006 0.89256 1.06821 0.0
C137 C 0.80789 0.94839 1.08319 0.0
C138 C 0.79567 0.13543 1.13342 0.0
C139 C 0.94395 0.20964 1.08019 0.0
O140 O 0.8727 0.28839 0.14901 0.0
O141 O 0.97003 0.33428 0.16155 0.0
O142 O 0.96116 0.185 0.15806 0.0
O143 O 0.01926 0.26784 1.13603 0.0
O144 O 0.89294 0.19651 0.1932 0.0
O145 O 0.9001 0.10889 0.18499 0.0
O146 O 0.91579 0.05572 1.11145 0.0
O147 O 0.84821 0.01573 0.14663 0.0
O148 O 0.84917 0.16758 1.12376 0.0
O149 O 0.78975 0.08317 0.14248 0.0
O150 O 0.92758 0.15231 1.0906 0.0
O151 O 0.94011 0.25054 1.09827 0.0
H152 H 0.96727 0.45751 0.17874 0.0
H153 H 0.96259 0.49445 0.2286 0.0
H154 H 0.83953 0.3043 0.25523 0.0
H155 H 0.84283 0.26856 0.20553 0.0
H156 H 0.85685 0.89125 1.14 0.0
H157 H 0.79071 0.79341 1.11386 0.0
H158 H 0.74757 0.8941 1.04775 0.0
H159 H 0.81226 -0.0085 1.07471 0.0
Tb160 Tb 0.80583 0.9493 0.48673 0.0
Tb161 Tb 0.89086 0.9041 0.46674 0.0
C162 C 0.71233 0.94871 0.50779 0.0
C163 C 0.68485 0.93919 0.5374 0.0
C164 C 0.64204 0.95889 0.54343 0.0
C165 C 0.62016 0.95518 0.57231 0.0
C166 C 0.64151 0.93251 0.59574 0.0
C167 C 0.68259 0.91049 0.5891 0.0
C168 C 0.70343 0.91326 0.56024 0.0
C169 C 0.92074 0.03322 0.4825 0.0
C170 C 0.88164 0.91283 0.53768 0.0
C171 C -0.02092 0.89118 0.44891 0.0
C172 C 0.00338 0.86708 0.42587 0.0
C173 C -0.01806 0.80286 0.4229 0.0
C174 C 0.01364 0.7816 0.40527 0.0
C175 C 0.06743 0.82415 0.39042 0.0
C176 C 0.08698 0.88815 0.39231 0.0
C177 C 0.0555 0.90937 0.41 0.0
C178 C 0.77299 0.81721 0.46966 0.0
C179 C 0.84476 0.97144 0.41726 0.0
O180 O 0.71121 0.89984 0.49574 0.0
O181 O 0.76588 -0.00071 0.50471 0.0
O182 O 0.89861 0.97891 0.49195 0.0
O183 O 0.8769 0.0452 0.47537 0.0
O184 O 0.83375 0.92259 0.53156 0.0
O185 O 0.91504 0.91256 0.51485 0.0
O186 O 0.97349 0.94013 0.44284 0.0
O187 O 0.9345 0.85062 0.46551 0.0
O188 O 0.79414 0.87224 0.4607 0.0
O189 O 0.81876 0.80766 0.47476 0.0
O190 O 0.88136 0.94719 0.42374 0.0
O191 O 0.80712 0.9721 0.43827 0.0
H192 H 0.62669 0.97852 0.52595 0.0
H193 H 0.58789 0.97169 0.5764 0.0
H194 H 0.70146 0.89391 0.60635 0.0
H195 H 0.73553 0.89676 0.55607 0.0
H196 H 0.94226 0.76908 0.43515 0.0
H197 H -0.0025 0.73207 0.40428 0.0
H198 H 0.12739 0.92208 0.38053 0.0
H199 H 0.07342 0.95911 0.41219 0.0
Tb200 Tb 0.00306 0.83727 0.81405 0.0
Tb201 Tb 0.13133 0.87201 0.79761 0.0
C202 C 0.89303 0.77466 0.83034 0.0
C203 C 0.85747 0.74245 0.85657 0.0
C204 C 0.79586 0.69551 0.85302 0.0
C205 C 0.75997 0.66621 0.87784 0.0
C206 C 0.78542 0.68356 0.90654 0.0
C207 C 0.84815 0.72911 0.90981 0.0
C208 C 0.88392 0.75814 0.88501 0.0
C209 C 0.08098 0.9558 0.80581 0.0
C210 C 0.10669 0.87278 0.86784 0.0
C211 C 0.24009 0.92512 0.77866 0.0
C212 C 0.28081 -0.01549 0.76388 0.0
C213 C 0.26339 0.00183 0.73727 0.0
C214 C 0.30279 0.05927 0.72426 0.0
C215 C 0.3594 0.10027 0.73794 0.0
C216 C 0.3764 0.08358 0.76469 0.0
C217 C 0.33747 0.0259 0.7775 0.0
C218 C 0.06064 0.75191 0.80756 0.0
C219 C 0.03328 0.8696 0.74598 0.0
O220 O 0.92391 0.75023 0.81835 0.0
O221 O 0.9248 0.83569 0.83164 0.0
O222 O 0.08965 0.91605 0.81816 0.0
O223 O 0.02305 0.93037 0.79794 0.0
O224 O 0.0466 0.84906 0.86039 0.0
O225 O 0.14797 0.8875 0.84631 0.0
O226 O 0.22559 0.93048 0.80579 0.0
O227 O 0.19289 0.8826 0.76357 0.0
O228 O 0.04461 0.78721 0.79455 0.0
O229 O 0.1192 0.78373 0.81283 0.0
O230 O 0.09205 0.89049 0.75507 0.0
O231 O -0.01181 0.84064 0.76544 0.0
H232 H 0.77512 0.6825 0.83106 0.0
H233 H 0.71197 0.63128 0.87463 0.0
H234 H 0.869 0.74476 0.93159 0.0
H235 H 0.9316 0.79404 0.8881 0.0
H236 H 0.21961 0.97119 0.72652 0.0
H237 H 0.28932 0.07164 0.70347 0.0
H238 H 0.42027 0.11463 0.7753 0.0
H239 H 0.35151 0.0136 0.79814 0.0
H240 H 0.05232 0.16591 0.18778 0.0
H241 H 0.05243 0.19868 1.09327 0.0
H242 H 0.07288 0.11147 1.08349 0.0
H243 H 0.17693 0.13407 0.18747 0.0
H244 H 0.14412 0.07833 0.21717 0.0
H245 H 0.12766 0.14119 0.21435 0.0
H246 H 0.01075 0.05952 0.21419 0.0
H247 H 0.02685 -0.00408 0.21481 0.0
H248 H -0.02065 0.00071 0.18554 0.0
H249 H 0.08924 0.01781 1.08491 0.0
H250 H 0.14233 0.95827 1.09709 0.0
H251 H 0.13209 -0.00961 0.19057 0.0
C252 C 0.05861 0.15587 0.16505 0.0
C253 C 0.0508 0.18808 1.14125 0.0
C254 C 0.05854 0.17403 1.11175 0.0
C255 C 0.06851 0.12376 1.10603 0.0
C256 C 0.07048 0.08907 1.13016 0.0
C257 C 0.0684 0.10646 0.15908 0.0
C258 C 0.0784 0.06684 0.18139 0.0
C259 C 0.13515 0.10745 0.20123 0.0
C260 C 0.02036 0.02848 0.20007 0.0
C261 C 0.08944 0.02574 0.16057 0.0
C262 C 0.08159 0.03691 1.13108 0.0
C263 C 0.09526 0.00854 1.10786 0.0
C264 C 0.12488 0.97434 1.11494 0.0
C265 C 0.14202 0.97183 0.14469 0.0
C266 C 0.1185 -0.0083 0.16775 0.0
H267 H 0.01128 0.04391 0.51615 0.0
H268 H 0.97148 0.09014 0.42899 0.0
H269 H 0.0734 0.10736 0.41146 0.0
H270 H 0.15866 0.14351 0.52395 0.0
H271 H 0.18069 0.09126 0.54142 0.0
H272 H 0.10312 0.07647 0.54424 0.0
H273 H 0.06245 0.96488 0.51989 0.0
H274 H 0.14154 0.9821 0.51859 0.0
H275 H 0.09461 0.9596 0.48533 0.0
H276 H 0.17963 0.11798 0.40469 0.0
H277 H 0.2912 0.16377 0.41466 0.0
H278 H 0.25569 0.11161 0.50674 0.0
C279 C 0.02455 0.05829 0.49343 0.0
C280 C -0.0151 0.06637 0.47393 0.0
C281 C 0.00258 0.08521 0.44434 0.0
C282 C 0.05892 0.09255 0.43401 0.0
C283 C 0.09451 0.0783 0.4534 0.0
C284 C 0.07798 0.06225 0.48263 0.0
C285 C 0.1259 0.05543 0.50022 0.0
C286 C 0.1432 0.09401 0.52915 0.0
C287 C 0.10482 -0.01349 0.50641 0.0
C288 C 0.17668 0.08045 0.47784 0.0
C289 C 0.15598 0.08738 0.45009 0.0
C290 C 0.19605 0.1133 0.42638 0.0
C291 C 0.25932 0.13987 0.43232 0.0
C292 C 0.28036 0.14474 0.46195 0.0
C293 C 0.23945 0.1087 0.48407 0.0
H294 H 0.08248 0.01524 0.75499 0.0
H295 H 0.19691 0.01428 0.82721 0.0
H296 H 0.28424 0.10972 0.80905 0.0
H297 H 0.24652 0.15772 0.70915 0.0
H298 H 0.19797 0.1885 0.69681 0.0
H299 H 0.17073 0.10597 0.69443 0.0
H300 H 0.07538 0.08664 0.7215 0.0
H301 H 0.1016 0.1678 0.72728 0.0
H302 H 0.08038 0.11545 0.7586 0.0
H303 H 0.33538 0.22046 0.80259 0.0
H304 H 0.31986 0.30671 0.82017 0.0
H305 H 0.14771 0.22238 0.77254 0.0
C306 C 0.12713 0.03501 0.76595 0.0
C307 C 0.13321 0.0097 0.79263 0.0
C308 C 0.19138 0.03436 0.80677 0.0
C309 C 0.24187 0.08798 0.79609 0.0
C310 C 0.23313 0.11832 0.77194 0.0
C311 C 0.17711 0.09063 0.75599 0.0
C312 C 0.17007 0.13961 0.73941 0.0
C313 C 0.19806 0.14849 0.70816 0.0
C314 C 0.10284 0.12673 0.73661 0.0
C315 C 0.21193 0.19431 0.75896 0.0
C316 C 0.25813 0.18551 0.77154 0.0
C317 C 0.29908 0.2271 0.7929 0.0
C318 C 0.28852 0.27407 0.80377 0.0
C319 C 0.23337 0.2735 0.79608 0.0
C320 C 0.19397 0.23121 0.77468 0.0
H321 H 0.33994 0.42505 1.04891 0.0
H322 H 0.14939 0.35868 1.0728 0.0
H323 H 0.14799 0.44046 1.0418 0.0
H324 H 0.38398 0.59741 1.03812 0.0
H325 H 0.43178 0.60356 1.00709 0.0
H326 H 0.42426 0.55354 1.03791 0.0
H327 H 0.38878 0.46009 1.00174 0.0
H328 H 0.39669 0.50975 0.97108 0.0
H329 H 0.32389 0.44013 0.97719 0.0
H330 H 0.15596 0.50352 0.99804 0.0
H331 H 0.17358 0.54301 0.947 0.0
H332 H 0.36199 0.57798 0.95249 0.0
C333 C 0.29844 0.42884 1.04811 0.0
C334 C 0.24483 0.38567 1.06314 0.0
C335 C 0.19125 0.39176 1.06169 0.0
C336 C 0.19001 0.43804 1.04411 0.0
C337 C 0.2428 0.47814 1.02837 0.0
C338 C 0.2965 0.47471 1.03063 0.0
C339 C 0.34366 0.51653 1.00822 0.0
C340 C 0.3992 0.57101 1.02377 0.0
C341 C 0.36435 0.47938 0.98839 0.0
C342 C 0.30587 0.53902 0.99102 0.0
C343 C 0.24844 0.51795 1.00354 0.0
C344 C 0.20152 0.52257 0.98862 0.0
C345 C 0.21212 0.54554 0.95953 0.0
C346 C 0.26927 0.56354 0.94566 0.0
C347 C 0.31789 0.56457 0.96254 0.0
H348 H 0.12147 0.44561 0.37238 0.0
H349 H 0.95761 0.30834 0.41764 0.0
H350 H 0.89404 0.33838 0.38729 0.0
H351 H 0.06015 0.55948 0.35147 0.0
H352 H 0.0971 0.57295 0.31592 0.0
H353 H 0.13249 0.55999 0.34833 0.0
H354 H 0.1361 0.46911 0.32128 0.0
H355 H 0.10178 0.4825 0.28906 0.0
H356 H 0.06572 0.40633 0.30586 0.0
H357 H 0.84589 0.35955 0.34457 0.0
H358 H 0.81848 0.36143 0.29204 0.0
H359 H 0.01184 0.48046 0.27189 0.0
C360 C 0.07241 0.42331 0.37649 0.0
C361 C 0.04464 0.37468 0.39736 0.0
C362 C -0.01968 0.34655 0.40218 0.0
C363 C 0.94372 0.36354 0.38505 0.0
C364 C 0.97202 0.40908 0.36332 0.0
C365 C 0.03524 0.43909 0.35917 0.0
C366 C 0.05297 0.47586 0.33054 0.0
C367 C 0.08771 0.54624 0.33696 0.0
C368 C 0.09125 0.45722 0.31053 0.0
C369 C -0.01049 0.4557 0.31755 0.0
C370 C 0.94352 0.42016 0.33751 0.0
C371 C 0.88139 0.38854 0.32902 0.0
C372 C 0.86621 0.38954 0.29905 0.0
C373 C 0.91313 0.42066 0.27784 0.0
C374 C 0.97486 0.45752 0.28765 0.0
H375 H 0.73666 0.92026 0.75481 0.0
H376 H 0.75787 0.10496 0.76181 0.0
H377 H 0.67902 0.07854 0.7233 0.0
H378 H 0.74868 0.92024 0.68561 0.0
H379 H 0.69343 0.8406 0.67642 0.0
H380 H 0.72616 0.85953 0.71298 0.0
H381 H 0.61728 0.81116 0.73582 0.0
H382 H 0.58363 0.7908 0.69904 0.0
H383 H 0.56409 0.83631 0.72331 0.0
H384 H 0.63543 0.05216 0.67368 0.0
H385 H 0.62755 0.02617 0.62085 0.0
H386 H 0.62864 0.85536 0.64262 0.0
C387 C 0.72238 0.95395 0.74916 0.0
C388 C 0.75415 0.01479 0.76119 0.0
C389 C 0.7341 0.05767 0.7534 0.0
C390 C 0.68908 0.04306 0.73127 0.0
C391 C 0.66388 -0.01482 0.71728 0.0
C392 C 0.67847 0.94033 0.72651 0.0
C393 C 0.6564 0.88784 0.70398 0.0
C394 C 0.70931 0.87653 0.69417 0.0
C395 C 0.6021 0.82798 0.71627 0.0
C396 C 0.63505 0.91434 0.67905 0.0
C397 C 0.63709 0.96911 0.68765 0.0
C398 C 0.6311 0.00809 0.66699 0.0
C399 C 0.62648 -0.00725 0.63678 0.0
C400 C 0.62795 0.93876 0.62735 0.0
C401 C 0.628 0.89724 0.64905 0.0
H402 H 0.80296 0.75387 1.0669 0.0
H403 H 0.65386 0.7918 1.04821 0.0
H404 H 0.61829 0.71596 1.00713 0.0
H405 H 0.85173 0.76524 1.00326 0.0
H406 H 0.87061 0.70349 1.00226 0.0
H407 H 0.86717 0.73568 1.0371 0.0
H408 H 0.78651 0.62643 1.05576 0.0
H409 H 0.7901 0.59336 1.02064 0.0
H410 H 0.71689 0.57991 1.03447 0.0
H411 H 0.62361 0.67261 0.95995 0.0
H412 H 0.67039 0.67004 0.91279 0.0
H413 H 0.81289 0.65235 0.9604 0.0
C414 C 0.76055 0.74317 1.05532 0.0
C415 C 0.73128 0.77864 1.06057 0.0
C416 C 0.67721 0.76531 1.04436 0.0
C417 C 0.65625 0.72165 1.0212 0.0
C418 C 0.68941 0.69116 1.01478 0.0
C419 C 0.73975 0.70022 1.03194 0.0
C420 C 0.77598 0.67383 1.01687 0.0
C421 C 0.84532 0.72251 1.01472 0.0
C422 C 0.76678 0.61486 1.03289 0.0
C423 C 0.74417 0.65772 0.98679 0.0
C424 C 0.69212 0.66452 0.98657 0.0
C425 C 0.6627 0.66477 0.96005 0.0
C426 C 0.68967 0.66318 0.9332 0.0
C427 C 0.74573 0.66169 0.9331 0.0
C428 C 0.77007 0.65365 0.9601 0.0
H429 H 0.19293 0.87765 0.38872 0.0
H430 H 0.02468 0.72275 0.35328 0.0
H431 H 0.08637 0.69554 0.32034 0.0
H432 H 0.26111 0.93114 0.32421 0.0
H433 H 0.33902 0.95501 0.33613 0.0
H434 H 0.2838 0.95036 0.36261 0.0
H435 H 0.30526 0.87528 0.3946 0.0
H436 H 0.36033 0.87949 0.36769 0.0
H437 H 0.29697 0.80492 0.37823 0.0
H438 H 0.16118 0.70167 0.28344 0.0
H439 H 0.23901 0.744 0.24453 0.0
H440 H 0.36247 0.89297 0.30387 0.0
C441 C 0.16916 0.83714 0.37448 0.0
C442 C 0.10406 0.80249 0.37345 0.0
C443 C 0.07456 0.74959 0.35469 0.0
C444 C 0.10931 0.73364 0.33598 0.0
C445 C 0.17348 0.77053 0.33661 0.0
C446 C 0.20318 0.82095 0.35563 0.0
C447 C 0.27116 0.85935 0.34867 0.0
C448 C 0.28974 0.92792 0.34252 0.0
C449 C 0.31076 0.85443 0.3738 0.0
C450 C 0.27391 0.82629 0.32095 0.0
C451 C 0.21767 0.77373 0.31504 0.0
C452 C 0.20597 0.74149 0.28826 0.0
C453 C 0.251 0.76588 0.26622 0.0
C454 C 0.30706 0.82233 0.271 0.0
C455 C 0.32006 0.84995 0.29951 0.0
H456 H 0.43093 0.11032 0.6916 0.0
H457 H 0.38436 0.21867 0.75055 0.0
H458 H 0.45382 0.31475 0.72269 0.0
H459 H 0.59511 0.23112 0.67991 0.0
H460 H 0.59196 0.20912 0.64152 0.0
H461 H 0.54528 0.15147 0.66857 0.0
H462 H 0.44657 0.12307 0.63731 0.0
H463 H 0.49308 0.17958 0.61007 0.0
H464 H 0.42985 0.18382 0.62685 0.0
H465 H 0.51695 0.39493 0.68394 0.0
H466 H 0.56347 0.45033 0.63718 0.0
H467 H 0.57098 0.28837 0.60556 0.0
C468 C 0.43659 0.15467 0.69888 0.0
C469 C 0.403 0.15802 0.72297 0.0
C470 C 0.41029 0.21603 0.73203 0.0
C471 C 0.44984 0.27056 0.7165 0.0
C472 C 0.48236 0.26584 0.6925 0.0
C473 C 0.4763 0.20925 0.68392 0.0
C474 C 0.51137 0.21508 0.65589 0.0
C475 C 0.56406 0.20087 0.66185 0.0
C476 C 0.46761 0.17295 0.63108 0.0
C477 C 0.5361 0.28328 0.64921 0.0
C478 C 0.51981 0.31222 0.67073 0.0
C479 C 0.53132 0.37323 0.66733 0.0
C480 C 0.55777 0.40437 0.64071 0.0
C481 C 0.57177 0.37411 0.61782 0.0
C482 C 0.56318 0.31389 0.62292 0.0
H483 H 0.47368 0.11959 0.16811 0.0
H484 H 0.48644 0.20476 1.08243 0.0
H485 H 0.59159 0.21894 1.0762 0.0
H486 H 0.63772 0.20882 0.18961 0.0
H487 H 0.63781 0.14238 0.20628 0.0
H488 H 0.56819 0.14775 0.20581 0.0
H489 H 0.5113 0.04048 0.18074 0.0
H490 H 0.58023 0.03458 0.17912 0.0
H491 H 0.53739 0.02801 0.14549 0.0
H492 H 0.69414 0.21994 1.07884 0.0
H493 H 0.78169 0.20082 1.088 0.0
H494 H 0.69538 0.1018 0.16881 0.0
C495 C 0.49851 0.14062 0.14794 0.0
C496 C 0.47199 0.16028 1.12549 0.0
C497 C 0.5064 0.18971 1.09987 0.0
C498 C 0.56595 0.19775 1.09618 0.0
C499 C 0.59001 0.17558 1.11825 0.0
C500 C 0.55718 0.14732 0.1436 0.0
C501 C 0.59127 0.12328 0.16291 0.0
C502 C 0.60985 0.15762 0.19293 0.0
C503 C 0.55273 0.05238 0.16726 0.0
C504 C 0.64749 0.14059 0.14402 0.0
C505 C 0.64683 0.17242 1.1188 0.0
C506 C 0.69484 0.19476 1.09842 0.0
C507 C 0.74435 0.18372 1.10379 0.0
C508 C 0.74464 0.14912 1.12885 0.0
C509 C 0.69568 0.12756 0.14924 0.0
H510 H 0.49369 0.4749 0.49671 0.0
H511 H 0.38014 0.51677 0.43856 0.0
H512 H 0.46588 0.62603 0.43438 0.0
H513 H 0.57427 0.62328 0.53431 0.0
H514 H 0.64638 0.62278 0.53611 0.0
H515 H 0.57445 0.55039 0.53597 0.0
H516 H 0.61022 0.51332 0.49048 0.0
H517 H 0.68202 0.58555 0.49012 0.0
H518 H 0.63359 0.56011 0.45731 0.0
H519 H 0.56829 0.7309 0.43547 0.0
H520 H 0.67586 0.81827 0.44039 0.0
H521 H 0.72248 0.70277 0.49542 0.0
C522 C 0.48746 0.50633 0.48248 0.0
C523 C 0.43123 0.48677 0.46719 0.0
C524 C 0.42325 0.53078 0.45029 0.0
C525 C 0.47172 0.59282 0.4478 0.0
C526 C 0.52762 0.61003 0.46255 0.0
C527 C 0.53541 0.56776 0.47962 0.0
C528 C 0.60006 0.59653 0.49266 0.0
C529 C 0.59868 0.59835 0.52678 0.0
C530 C 0.63342 0.56182 0.48198 0.0
C531 C 0.62835 0.6614 0.47969 0.0
C532 C 0.58574 0.66891 0.46278 0.0
C533 C 0.60181 0.7253 0.44866 0.0
C534 C 0.66295 0.77472 0.4516 0.0
C535 C 0.70747 0.76713 0.46816 0.0
C536 C 0.68949 0.70983 0.48251 0.0
H537 H 0.10418 0.46705 0.76735 0.0
H538 H 0.94689 0.35298 0.82271 0.0
H539 H 0.92351 0.43933 0.82611 0.0
H540 H 0.15452 0.60453 0.8072 0.0
H541 H 0.18006 0.65449 0.77514 0.0
H542 H 0.17825 0.5808 0.77431 0.0
H543 H 0.10849 0.55029 0.72702 0.0
H544 H 0.1094 0.62375 0.72824 0.0
H545 H 0.03689 0.55184 0.72796 0.0
H546 H 0.925 0.54314 0.82811 0.0
H547 H 0.95447 0.6551 0.82999 0.0
H548 H 0.10963 0.69912 0.77306 0.0
C549 C 0.06426 0.45998 0.77979 0.0
C550 C 0.02735 0.40359 0.79479 0.0
C551 C -0.02435 0.39597 0.81098 0.0
C552 C 0.96192 0.44465 0.81296 0.0
C553 C 1e-05 0.50034 0.79835 0.0
C554 C 0.05006 0.50804 0.78202 0.0
C555 C 0.08704 0.57382 0.77053 0.0
C556 C 0.1539 0.60523 0.78252 0.0
C557 C 0.08532 0.57496 0.73641 0.0
C558 C 0.05124 0.60258 0.7837 0.0
C559 C 0.00057 0.55949 0.79933 0.0
C560 C 0.96378 0.577 0.81542 0.0
C561 C -0.01956 0.64044 0.81624 0.0
C562 C 0.03342 0.68502 0.80121 0.0
C563 C 0.06803 0.66547 0.78419 0.0
H564 H 0.37668 0.09644 0.25734 0.0
H565 H 0.27681 0.18135 0.2167 0.0
H566 H 0.28314 0.23442 0.26279 0.0
H567 H 0.30587 0.07681 0.33184 0.0
H568 H 0.3753 0.09675 0.35279 0.0
H569 H 0.3644 0.063 0.31622 0.0
H570 H 0.46768 0.15607 0.29987 0.0
H571 H 0.47867 0.19047 0.3363 0.0
H572 H 0.48 0.23407 0.30387 0.0
H573 H 0.297 0.28105 0.313 0.0
H574 H 0.31618 0.31546 0.36504 0.0
H575 H 0.40947 0.20845 0.37983 0.0
C576 C 0.35606 0.12608 0.25805 0.0
C577 C 0.32554 0.13274 0.23185 0.0
C578 C 0.29998 0.17304 0.23514 0.0
C579 C 0.30348 0.20453 0.26177 0.0
C580 C 0.33318 0.19731 0.28657 0.0
C581 C 0.35914 0.15909 0.28535 0.0
C582 C 0.38777 0.16085 0.31642 0.0
C583 C 0.35648 0.09546 0.33015 0.0
C584 C 0.4577 0.18689 0.31397 0.0
C585 C 0.37369 0.2057 0.3347 0.0
C586 C 0.34203 0.22568 0.31648 0.0
C587 C 0.32216 0.26584 0.32733 0.0
C588 C 0.33368 0.28564 0.3573 0.0
C589 C 0.36577 0.26689 0.3774 0.0
C590 C 0.38643 0.22597 0.36545 0.0
H591 H 0.37916 0.3895 0.58647 0.0
H592 H 0.21193 0.22761 0.55467 0.0
H593 H 0.16108 0.22273 0.60119 0.0
H594 H 0.35948 0.33409 0.66635 0.0
H595 H 0.38767 0.41037 0.68233 0.0
H596 H 0.41502 0.40207 0.64662 0.0
H597 H 0.38141 0.47678 0.6237 0.0
H598 H 0.35349 0.48489 0.65929 0.0
H599 H 0.30255 0.4597 0.62735 0.0
H600 H 0.12203 0.23445 0.65006 0.0
H601 H 0.09963 0.25841 0.69946 0.0
H602 H 0.28719 0.41271 0.70713 0.0
C603 C 0.33219 0.35237 0.5894 0.0
C604 C 0.30062 0.30854 0.56539 0.0
C605 C 0.23864 0.26201 0.57137 0.0
C606 C 0.20855 0.25875 0.59826 0.0
C607 C 0.23959 0.30235 0.62069 0.0
C608 C 0.30035 0.34814 0.61704 0.0
C609 C 0.32115 0.38845 0.64584 0.0
C610 C 0.37399 0.38349 0.66119 0.0
C611 C 0.34086 0.45653 0.63861 0.0
C612 C 0.26235 0.35887 0.66545 0.0
C613 C 0.21645 0.30898 0.64998 0.0
C614 C 0.15797 0.27338 0.66228 0.0
C615 C 0.14556 0.28773 0.6909 0.0
C616 C 0.19048 0.33789 0.70846 0.0
C617 C 0.25047 0.37442 0.69493 0.0
H618 H 0.0244 0.20629 0.89992 0.0
H619 H 0.13014 0.40771 0.9062 0.0
H620 H 0.10285 0.40134 0.95918 0.0
H621 H 0.90118 0.18221 0.95099 0.0
H622 H 0.89511 0.1134 0.9682 0.0
H623 H 0.92166 0.13247 0.93051 0.0
H624 H 0.02101 0.12981 0.94468 0.0
H625 H -0.00532 0.11063 0.9824 0.0
H626 H 0.06872 0.17759 0.97495 0.0
H627 H 0.05829 0.37396 1.01255 0.0
H628 H 0.01308 0.33023 1.06105 0.0
H629 H 0.93881 0.14359 1.02518 0.0
C630 C 0.04208 0.24932 0.91233 0.0
C631 C 0.07995 0.30811 0.89753 0.0
C632 C 0.10147 0.36212 0.91577 0.0
C633 C 0.08584 0.35888 0.94636 0.0
C634 C 0.04859 0.30094 0.95995 0.0
C635 C 0.02763 0.24683 0.94358 0.0
C636 C -0.01024 0.19049 0.96427 0.0
C637 C 0.92295 0.15235 0.9528 0.0
C638 C 0.02035 0.14968 0.96671 0.0
C639 C -0.00803 0.22111 0.99462 0.0
C640 C 0.02589 0.28508 0.99122 0.0
C641 C 0.03288 0.32396 1.01528 0.0
C642 C 0.00605 0.29806 1.04317 0.0
C643 C 0.97137 0.23259 1.04838 0.0
C644 C 0.96491 0.19373 1.02306 0.0
H645 H 0.91351 0.05793 0.23713 0.0
H646 H 0.84873 0.19011 0.24945 0.0
H647 H 0.82974 0.16029 0.3025 0.0
H648 H 0.80785 0.9383 0.28786 0.0
H649 H 0.86384 0.91872 0.3024 0.0
H650 H 0.87194 0.94949 0.26534 0.0
H651 H -0.01844 0.03766 0.27844 0.0
H652 H 0.97397 0.00708 0.31552 0.0
H653 H -0.00698 0.08696 0.3101 0.0
H654 H 0.81219 0.11069 0.35611 0.0
H655 H 0.80702 0.05644 0.40299 0.0
H656 H 0.89008 0.95955 0.35972 0.0
C657 C 0.89545 0.081 0.25088 0.0
C658 C 0.88264 0.12714 0.23786 0.0
C659 C 0.85934 0.1552 0.25774 0.0
C660 C 0.84811 0.13808 0.28835 0.0
C661 C 0.86082 0.09265 0.3002 0.0
C662 C 0.88493 0.06508 0.28203 0.0
C663 C 0.89629 0.01881 0.30071 0.0
C664 C 0.8577 0.95238 0.28833 0.0
C665 C 0.96531 0.0388 0.30122 0.0
C666 C 0.8743 0.02384 0.33208 0.0
C667 C 0.85343 0.06647 0.33105 0.0
C668 C 0.82903 0.0778 0.35676 0.0
C669 C 0.82601 0.046 0.38374 0.0
C670 C 0.84785 0.00253 0.38636 0.0
C671 C 0.87279 -0.00792 0.3595 0.0
H672 H 0.82632 0.8572 0.59542 0.0
H673 H 0.00226 0.97454 0.55377 0.0
H674 H 0.05648 0.97569 0.59966 0.0
H675 H 0.87651 0.93269 0.67076 0.0
H676 H 0.83345 0.86098 0.69092 0.0
H677 H 0.80689 0.87005 0.65478 0.0
H678 H 0.80608 0.77049 0.63682 0.0
H679 H 0.83342 0.76172 0.67278 0.0
H680 H 0.87562 0.76521 0.63988 0.0
H681 H 0.09577 0.96278 0.65078 0.0
H682 H 0.11475 0.93927 0.70183 0.0
H683 H 0.91719 0.83104 0.71541 0.0
C684 C 0.87622 0.88388 0.59597 0.0
C685 C 0.90924 0.91561 0.56948 0.0
C686 C 0.97475 0.94884 0.57244 0.0
C687 C 0.00653 0.95007 0.59897 0.0
C688 C 0.97349 0.91782 0.62403 0.0
C689 C 0.90957 0.88562 0.62304 0.0
C690 C 0.8864 0.85499 0.6538 0.0
C691 C 0.84855 0.88122 0.66844 0.0
C692 C 0.84808 0.78386 0.65063 0.0
C693 C 0.94682 0.87413 0.6717 0.0
C694 C -0.00362 0.91073 0.65382 0.0
C695 C 0.05688 0.93409 0.66478 0.0
C696 C 0.06744 0.92015 0.69424 0.0
C697 C 0.0184 0.88265 0.71376 0.0
C698 C 0.95672 0.85968 0.70177 0.0
H699 H 0.07773 0.9255 0.91867 0.0
H700 H 0.19661 0.85298 0.89151 0.0
H701 H 0.24758 0.87911 0.94073 0.0
H702 H 0.19687 0.0567 0.96095 0.0
H703 H 0.14688 0.05403 0.99025 0.0
H704 H 0.11567 0.0262 0.95359 0.0
H705 H 0.03682 0.91986 0.97548 0.0
H706 H 0.06774 0.94747 1.01221 0.0
H707 H 0.0638 0.87739 0.99798 0.0
H708 H 0.28841 0.91362 0.9943 0.0
H709 H 0.31704 0.95668 1.04511 0.0
H710 H 0.17917 0.01522 1.04007 0.0
C711 C 0.11366 0.91396 0.92321 0.0
C712 C 0.13154 0.88532 0.90037 0.0
C713 C 0.18061 0.87371 0.90788 0.0
C714 C 0.21033 0.88871 0.93614 0.0
C715 C 0.19237 0.91705 0.9578 0.0
C716 C 0.14526 0.93001 0.9517 0.0
C717 C 0.13749 0.9635 0.97894 0.0
C718 C 0.14995 0.029 0.97042 0.0
C719 C 0.07259 0.92476 0.99192 0.0
C720 C 0.18719 0.96719 1.00105 0.0
C721 C 0.21776 0.93937 0.98829 0.0
C722 C 0.26461 0.93565 1.00422 0.0
C723 C 0.28078 0.96053 1.03348 0.0
C724 C 0.25155 -0.0095 1.04757 0.0
C725 C 0.20365 -0.00648 1.03054 0.0
loop_
_geom_bond_atom_site_label_1
_geom_bond_atom_site_label_2
_geom_bond_distance
_geom_bond_site_symmetry_2
_ccdc_geom_bond_type
Tb0 C2 2.809 . S
Tb0 O20 2.484 . S
Tb0 O21 2.440 . S
Tb0 O22 2.658 1_554 S
Tb0 O23 2.409 . S
Tb0 O24 2.378 . S
Tb0 O28 2.325 . S
Tb0 O31 2.341 1_554 S
Tb1 C11 2.809 . S
Tb1 O22 2.325 . S
Tb1 O25 2.341 1_556 S
Tb1 O26 2.484 . S
Tb1 O27 2.440 . S
Tb1 O28 2.658 1_556 S
Tb1 O29 2.409 . S
Tb1 O30 2.378 . S
C2 Tb0 2.809 . S
C2 C3 1.514 . S
C2 O20 1.248 . S
C2 O21 1.266 . S
C3 C2 1.514 . S
C3 C4 1.359 . S
C3 C8 1.348 . S
C4 C3 1.359 . S
C4 C5 1.380 . S
C4 H32 0.929 . S
C5 C4 1.380 . S
C5 C6 1.347 . S
C5 H33 0.931 . S
C6 C5 1.347 . S
C6 C7 1.369 . S
C7 C6 1.369 . S
C7 C8 1.408 . S
C7 H34 0.930 . S
C8 C3 1.348 . S
C8 C7 1.408 . S
C8 H35 0.930 . S
C9 O22 1.281 1_554 S
C9 O23 1.254 . S
C10 O24 1.236 . S
C10 O25 1.266 . S
C11 Tb1 2.809 . S
C11 C12 1.514 . S
C11 O26 1.248 . S
C11 O27 1.266 . S
C12 C11 1.514 . S
C12 C13 1.359 . S
C12 C17 1.348 . S
C13 C12 1.359 . S
C13 C14 1.380 . S
C13 H36 0.929 . S
C14 C13 1.380 . S
C14 C15 1.347 . S
C14 H37 0.931 . S
C15 C14 1.347 . S
C15 C16 1.369 . S
C16 C15 1.369 . S
C16 C17 1.408 . S
C16 H38 0.930 . S
C17 C12 1.348 . S
C17 C16 1.408 . S
C17 H39 0.930 . S
C18 O28 1.281 . S
C18 O29 1.254 1_554 S
C19 O30 1.236 . S
C19 O31 1.266 . S
O20 Tb0 2.484 . S
O20 C2 1.248 . S
O21 Tb0 2.440 . S
O21 C2 1.266 . S
O22 Tb0 2.658 1_556 S
O22 Tb1 2.325 . S
O22 C9 1.281 1_556 S
O23 Tb0 2.409 . S
O23 C9 1.254 . S
O24 Tb0 2.378 . S
O24 C10 1.236 . S
O25 Tb1 2.341 1_554 S
O25 C10 1.266 . S
O26 Tb1 2.484 . S
O26 C11 1.248 . S
O27 Tb1 2.440 . S
O27 C11 1.266 . S
O28 Tb0 2.325 . S
O28 Tb1 2.658 1_554 S
O28 C18 1.281 . S
O29 Tb1 2.409 . S
O29 C18 1.254 1_556 S
O30 Tb1 2.378 . S
O30 C19 1.236 . S
O31 Tb0 2.341 1_556 S
O31 C19 1.266 . S
H32 C4 0.929 . S
H33 C5 0.931 . S
H34 C7 0.930 . S
H35 C8 0.930 . S
H36 C13 0.929 . S
H37 C14 0.931 . S
H38 C16 0.930 . S
H39 C17 0.930 . S
Tb40 C42 2.809 . S
Tb40 O60 2.484 . S
Tb40 O61 2.440 . S
Tb40 O62 2.658 . S
Tb40 O63 2.409 . S
Tb40 O64 2.378 . S
Tb40 O68 2.325 . S
Tb40 O71 2.341 . S
Tb41 C51 2.809 . S
Tb41 O62 2.325 . S
Tb41 O65 2.341 . S
Tb41 O66 2.484 . S
Tb41 O67 2.440 . S
Tb41 O68 2.658 . S
Tb41 O69 2.409 . S
Tb41 O70 2.378 . S
C42 Tb40 2.809 . S
C42 C43 1.514 . S
C42 O60 1.248 . S
C42 O61 1.266 . S
C43 C42 1.514 . S
C43 C44 1.359 . S
C43 C48 1.348 . S
C44 C43 1.359 . S
C44 C45 1.380 . S
C44 H72 0.929 . S
C45 C44 1.380 . S
C45 C46 1.347 . S
C45 H73 0.931 . S
C46 C45 1.347 . S
C46 C47 1.369 . S
C47 C46 1.369 . S
C47 C48 1.408 . S
C47 H74 0.930 . S
C48 C43 1.348 . S
C48 C47 1.408 . S
C48 H75 0.930 . S
C49 O62 1.281 . S
C49 O63 1.254 . S
C50 O64 1.236 . S
C50 O65 1.266 . S
C51 Tb41 2.809 . S
C51 C52 1.514 . S
C51 O66 1.248 . S
C51 O67 1.266 . S
C52 C51 1.514 . S
C52 C53 1.359 . S
C52 C57 1.348 . S
C53 C52 1.359 . S
C53 C54 1.380 . S
C53 H76 0.929 . S
C54 C53 1.380 . S
C54 C55 1.347 . S
C54 H77 0.931 . S
C55 C54 1.347 . S
C55 C56 1.369 . S
C56 C55 1.369 . S
C56 C57 1.408 . S
C56 H78 0.930 . S
C57 C52 1.348 . S
C57 C56 1.408 . S
C57 H79 0.930 . S
C58 O68 1.281 . S
C58 O69 1.254 . S
C59 O70 1.236 . S
C59 O71 1.266 . S
O60 Tb40 2.484 . S
O60 C42 1.248 . S
O61 Tb40 2.440 . S
O61 C42 1.266 . S
O62 Tb40 2.658 . S
O62 Tb41 2.325 . S
O62 C49 1.281 . S
O63 Tb40 2.409 . S
O63 C49 1.254 . S
O64 Tb40 2.378 . S
O64 C50 1.236 . S
O65 Tb41 2.341 . S
O65 C50 1.266 . S
O66 Tb41 2.484 . S
O66 C51 1.248 . S
O67 Tb41 2.440 . S
O67 C51 1.266 . S
O68 Tb40 2.325 . S
O68 Tb41 2.658 . S
O68 C58 1.281 . S
O69 Tb41 2.409 . S
O69 C58 1.254 . S
O70 Tb41 2.378 . S
O70 C59 1.236 . S
O71 Tb40 2.341 . S
O71 C59 1.266 . S
H72 C44 0.929 . S
H73 C45 0.931 . S
H74 C47 0.930 . S
H75 C48 0.930 . S
H76 C53 0.929 . S
H77 C54 0.931 . S
H78 C56 0.930 . S
H79 C57 0.930 . S
Tb80 C82 2.809 . S
Tb80 O100 2.484 . S
Tb80 O101 2.440 . S
Tb80 O102 2.658 . S
Tb80 O103 2.409 . S
Tb80 O104 2.378 . S
Tb80 O108 2.344 . S
Tb80 O111 2.341 . S
Tb81 C91 2.809 . S
Tb81 O102 2.325 1_655 S
Tb81 O105 2.341 . S
Tb81 O106 2.484 . S
Tb81 O107 2.440 . S
Tb81 O108 2.653 1_655 S
Tb81 O109 2.409 . S
Tb81 O110 2.378 1_655 S
C82 Tb80 2.809 . S
C82 C83 1.514 . S
C82 O100 1.248 . S
C82 O101 1.266 . S
C83 C82 1.514 . S
C83 C84 1.359 . S
C83 C88 1.348 . S
C84 C83 1.359 . S
C84 C85 1.380 . S
C84 H112 0.929 . S
C85 C84 1.380 . S
C85 C86 1.347 . S
C85 H113 0.931 . S
C86 C85 1.347 . S
C86 C87 1.369 . S
C87 C86 1.369 . S
C87 C88 1.408 . S
C87 H114 0.930 . S
C88 C83 1.348 . S
C88 C87 1.408 . S
C88 H115 0.930 . S
C89 O102 1.281 . S
C89 O103 1.254 . S
C90 O104 1.236 1_655 S
C90 O105 1.266 . S
C91 Tb81 2.809 . S
C91 C92 1.514 . S
C91 O106 1.248 . S
C91 O107 1.266 . S
C92 C91 1.514 . S
C92 C93 1.359 . S
C92 C97 1.348 . S
C93 C92 1.359 . S
C93 C94 1.380 . S
C93 H116 0.929 . S
C94 C93 1.380 . S
C94 C95 1.347 . S
C94 H117 0.931 . S
C95 C94 1.347 . S
C95 C96 1.369 . S
C96 C95 1.369 . S
C96 C97 1.408 . S
C96 H118 0.930 . S
C97 C92 1.348 . S
C97 C96 1.408 . S
C97 H119 0.930 . S
C98 O108 1.265 1_655 S
C98 O109 1.254 . S
C99 O110 1.236 . S
C99 O111 1.266 . S
O100 Tb80 2.484 . S
O100 C82 1.248 . S
O101 Tb80 2.440 . S
O101 C82 1.266 . S
O102 Tb80 2.658 . S
O102 Tb81 2.325 1_455 S
O102 C89 1.281 . S
O103 Tb80 2.409 . S
O103 C89 1.254 . S
O104 Tb80 2.378 . S
O104 C90 1.236 1_455 S
O105 Tb81 2.341 . S
O105 C90 1.266 . S
O106 Tb81 2.484 . S
O106 C91 1.248 . S
O107 Tb81 2.440 . S
O107 C91 1.266 . S
O108 Tb80 2.344 . S
O108 Tb81 2.653 1_455 S
O108 C98 1.265 1_455 S
O109 Tb81 2.409 . S
O109 C98 1.254 . S
O110 Tb81 2.378 1_455 S
O110 C99 1.236 . S
O111 Tb80 2.341 . S
O111 C99 1.266 . S
H112 C84 0.929 . S
H113 C85 0.931 . S
H114 C87 0.930 . S
H115 C88 0.930 . S
H116 C93 0.929 . S
H117 C94 0.931 . S
H118 C96 0.930 . S
H119 C97 0.930 . S
Tb120 C122 2.809 . S
Tb120 O140 2.484 . S
Tb120 O141 2.440 . S
Tb120 O142 2.658 1_554 S
Tb120 O143 2.409 . S
Tb120 O144 2.378 . S
Tb120 O148 2.325 . S
Tb120 O151 2.341 1_554 S
Tb121 C131 2.809 . S
Tb121 O142 2.325 1_565 S
Tb121 O145 2.341 1_556 S
Tb121 O146 2.484 . S
Tb121 O147 2.440 . S
Tb121 O148 2.658 1_566 S
Tb121 O149 2.409 . S
Tb121 O150 2.378 1_565 S
C122 Tb120 2.809 . S
C122 C123 1.514 . S
C122 O140 1.248 . S
C122 O141 1.266 . S
C123 C122 1.514 . S
C123 C124 1.359 . S
C123 C128 1.348 . S
C124 C123 1.359 . S
C124 C125 1.380 . S
C124 H152 0.929 . S
C125 C124 1.380 . S
C125 C126 1.347 . S
C125 H153 0.931 . S
C126 C125 1.347 . S
C126 C127 1.369 . S
C127 C126 1.369 . S
C127 C128 1.408 . S
C127 H154 0.930 . S
C128 C123 1.348 . S
C128 C127 1.408 . S
C128 H155 0.930 . S
C129 O142 1.281 1_554 S
C129 O143 1.254 . S
C130 O144 1.236 1_565 S
C130 O145 1.266 . S
C131 Tb121 2.809 . S
C131 C132 1.514 . S
C131 O146 1.248 . S
C131 O147 1.266 . S
C132 C131 1.514 . S
C132 C133 1.359 . S
C132 C137 1.348 . S
C133 C132 1.359 . S
C133 C134 1.380 . S
C133 H156 0.929 . S
C134 C133 1.380 . S
C134 C135 1.347 . S
C134 H157 0.931 . S
C135 C134 1.347 . S
C135 C136 1.369 . S
C136 C135 1.369 . S
C136 C137 1.408 . S
C136 H158 0.930 . S
C137 C132 1.348 . S
C137 C136 1.408 . S
C137 H159 0.930 . S
C138 O148 1.281 1_565 S
C138 O149 1.254 1_554 S
C139 O150 1.236 . S
C139 O151 1.266 . S
O140 Tb120 2.484 . S
O140 C122 1.248 . S
O141 Tb120 2.440 . S
O141 C122 1.266 . S
O142 Tb120 2.658 1_556 S
O142 Tb121 2.325 1_545 S
O142 C129 1.281 1_556 S
O143 Tb120 2.409 . S
O143 C129 1.254 . S
O144 Tb120 2.378 . S
O144 C130 1.236 1_545 S
O145 Tb121 2.341 1_554 S
O145 C130 1.266 . S
O146 Tb121 2.484 . S
O146 C131 1.248 . S
O147 Tb121 2.440 . S
O147 C131 1.266 . S
O148 Tb120 2.325 . S
O148 Tb121 2.658 1_544 S
O148 C138 1.281 1_545 S
O149 Tb121 2.409 . S
O149 C138 1.254 1_556 S
O150 Tb121 2.378 1_545 S
O150 C139 1.236 . S
O151 Tb120 2.341 1_556 S
O151 C139 1.266 . S
H152 C124 0.929 . S
H153 C125 0.931 . S
H154 C127 0.930 . S
H155 C128 0.930 . S
H156 C133 0.929 . S
H157 C134 0.931 . S
H158 C136 0.930 . S
H159 C137 0.930 . S
Tb160 C162 2.809 . S
Tb160 O180 2.484 . S
Tb160 O181 2.440 . S
Tb160 O182 2.658 1_655 S
Tb160 O183 2.409 1_655 S
Tb160 O184 2.378 . S
Tb160 O188 2.325 . S
Tb160 O191 2.341 . S
Tb161 C171 2.809 1_655 S
Tb161 O182 2.325 1_655 S
Tb161 O185 2.341 1_655 S
Tb161 O186 2.484 1_655 S
Tb161 O187 2.440 . S
Tb161 O188 2.658 . S
Tb161 O189 2.409 . S
Tb161 O190 2.378 . S
C162 Tb160 2.809 . S
C162 C163 1.514 . S
C162 O180 1.248 . S
C162 O181 1.266 . S
C163 C162 1.514 . S
C163 C164 1.359 . S
C163 C168 1.348 . S
C164 C163 1.359 . S
C164 C165 1.380 . S
C164 H192 0.929 . S
C165 C164 1.380 . S
C165 C166 1.347 . S
C165 H193 0.931 . S
C166 C165 1.347 . S
C166 C167 1.369 . S
C167 C166 1.369 . S
C167 C168 1.408 . S
C167 H194 0.930 . S
C168 C163 1.348 . S
C168 C167 1.408 . S
C168 H195 0.930 . S
C169 O182 1.281 . S
C169 O183 1.254 . S
C170 O184 1.236 . S
C170 O185 1.266 1_655 S
C171 Tb161 2.809 1_455 S
C171 C172 1.514 . S
C171 O186 1.248 . S
C171 O187 1.266 1_455 S
C172 C171 1.514 . S
C172 C173 1.359 . S
C172 C177 1.348 . S
C173 C172 1.359 . S
C173 C174 1.380 . S
C173 H196 0.929 . S
C174 C173 1.380 . S
C174 C175 1.347 . S
C174 H197 0.931 . S
C175 C174 1.347 . S
C175 C176 1.369 . S
C176 C175 1.369 . S
C176 C177 1.408 . S
C176 H198 0.930 . S
C177 C172 1.348 . S
C177 C176 1.408 . S
C177 H199 0.930 1_455 S
C178 O188 1.281 . S
C178 O189 1.254 . S
C179 O190 1.236 . S
C179 O191 1.266 . S
O180 Tb160 2.484 . S
O180 C162 1.248 . S
O181 Tb160 2.440 . S
O181 C162 1.266 . S
O182 Tb160 2.658 1_455 S
O182 Tb161 2.325 1_455 S
O182 C169 1.281 . S
O183 Tb160 2.409 1_455 S
O183 C169 1.254 . S
O184 Tb160 2.378 . S
O184 C170 1.236 . S
O185 Tb161 2.341 1_455 S
O185 C170 1.266 1_455 S
O186 Tb161 2.484 1_455 S
O186 C171 1.248 . S
O187 Tb161 2.440 . S
O187 C171 1.266 1_655 S
O188 Tb160 2.325 . S
O188 Tb161 2.658 . S
O188 C178 1.281 . S
O189 Tb161 2.409 . S
O189 C178 1.254 . S
O190 Tb161 2.378 . S
O190 C179 1.236 . S
O191 Tb160 2.341 . S
O191 C179 1.266 . S
H192 C164 0.929 . S
H193 C165 0.931 . S
H194 C167 0.930 . S
H195 C168 0.930 . S
H196 C173 0.929 . S
H197 C174 0.931 . S
H198 C176 0.930 . S
H199 C177 0.930 1_655 S
Tb200 C202 2.809 . S
Tb200 O220 2.484 . S
Tb200 O221 2.440 . S
Tb200 O222 2.658 1_565 S
Tb200 O223 2.409 1_565 S
Tb200 O224 2.378 . S
Tb200 O228 2.325 . S
Tb200 O231 2.341 . S
Tb201 C211 2.809 1_565 S
Tb201 O222 2.325 1_565 S
Tb201 O225 2.341 1_565 S
Tb201 O226 2.484 1_565 S
Tb201 O227 2.440 . S
Tb201 O228 2.658 . S
Tb201 O229 2.409 . S
Tb201 O230 2.378 . S
C202 Tb200 2.809 . S
C202 C203 1.514 . S
C202 O220 1.248 . S
C202 O221 1.266 . S
C203 C202 1.514 . S
C203 C204 1.359 . S
C203 C208 1.348 . S
C204 C203 1.359 . S
C204 C205 1.380 . S
C204 H232 0.929 . S
C205 C204 1.380 . S
C205 C206 1.347 . S
C205 H233 0.931 . S
C206 C205 1.347 . S
C206 C207 1.369 . S
C207 C206 1.369 . S
C207 C208 1.408 . S
C207 H234 0.930 . S
C208 C203 1.348 . S
C208 C207 1.408 . S
C208 H235 0.930 . S
C209 O222 1.281 . S
C209 O223 1.254 . S
C210 O224 1.236 . S
C210 O225 1.266 1_565 S
C211 Tb201 2.809 1_545 S
C211 C212 1.514 . S
C211 O226 1.248 . S
C211 O227 1.266 1_545 S
C212 C211 1.514 . S
C212 C213 1.359 . S
C212 C217 1.348 . S
C213 C212 1.359 . S
C213 C214 1.380 . S
C213 H236 0.929 . S
C214 C213 1.380 . S
C214 C215 1.347 . S
C214 H237 0.931 . S
C215 C214 1.347 . S
C215 C216 1.369 . S
C216 C215 1.369 . S
C216 C217 1.408 . S
C216 H238 0.930 . S
C217 C212 1.348 . S
C217 C216 1.408 . S
C217 H239 0.930 1_545 S
C218 O228 1.281 . S
C218 O229 1.254 . S
C219 O230 1.236 . S
C219 O231 1.266 . S
O220 Tb200 2.484 . S
O220 C202 1.248 . S
O221 Tb200 2.440 . S
O221 C202 1.266 . S
O222 Tb200 2.658 1_545 S
O222 Tb201 2.325 1_545 S
O222 C209 1.281 . S
O223 Tb200 2.409 1_545 S
O223 C209 1.254 . S
O224 Tb200 2.378 . S
O224 C210 1.236 . S
O225 Tb201 2.341 1_545 S
O225 C210 1.266 1_545 S
O226 Tb201 2.484 1_545 S
O226 C211 1.248 . S
O227 Tb201 2.440 . S
O227 C211 1.266 1_565 S
O228 Tb200 2.325 . S
O228 Tb201 2.658 . S
O228 C218 1.281 . S
O229 Tb201 2.409 . S
O229 C218 1.254 . S
O230 Tb201 2.378 . S
O230 C219 1.236 . S
O231 Tb200 2.341 . S
O231 C219 1.266 . S
H232 C204 0.929 . S
H233 C205 0.931 . S
H234 C207 0.930 . S
H235 C208 0.930 . S
H236 C213 0.929 . S
H237 C214 0.931 . S
H238 C216 0.930 . S
H239 C217 0.930 1_565 S
H240 C252 0.930 . S
H241 C254 0.930 . S
H242 C255 0.930 . S
H243 C259 0.959 . S
H244 C259 0.959 . S
H245 C259 0.961 . S
H246 C260 0.960 . S
H247 C260 0.961 . S
H248 C260 0.959 . S
H249 C263 0.929 . S
H250 C264 0.931 . S
H251 C266 0.930 . S
C252 H240 0.930 . S
C252 C253 1.399 . S
C252 C257 1.399 1_655 S
C253 C252 1.399 . S
C253 C254 1.376 1_554 S
C254 H241 0.930 . S
C254 C253 1.376 1_556 S
C254 C255 1.388 1_655 S
C255 H242 0.930 . S
C255 C254 1.388 1_455 S
C255 C256 1.390 . S
C256 C255 1.390 . S
C256 C257 1.394 1_556 S
C256 C262 1.465 . S
C257 C252 1.399 1_455 S
C257 C256 1.394 1_554 S
C257 C258 1.516 . S
C258 C257 1.516 . S
C258 C259 1.502 . S
C258 C260 1.561 . S
C258 C261 1.526 . S
C259 H243 0.959 . S
C259 H244 0.959 . S
C259 H245 0.961 . S
C259 C258 1.502 . S
C260 H246 0.960 . S
C260 H247 0.961 . S
C260 H248 0.959 . S
C260 C258 1.561 . S
C261 C258 1.526 . S
C261 C262 1.396 1_554 S
C261 C266 1.390 . S
C262 C256 1.465 . S
C262 C261 1.396 1_556 S
C262 C263 1.399 . S
C263 H249 0.929 . S
C263 C262 1.399 . S
C263 C264 1.385 . S
C264 H250 0.931 . S
C264 C263 1.385 . S
C264 C265 1.389 1_556 S
C265 C264 1.389 1_554 S
C265 C266 1.387 . S
C266 H251 0.930 . S
C266 C261 1.390 . S
C266 C265 1.387 . S
H267 C279 0.930 1_565 S
H268 C281 0.930 . S
H269 C282 0.930 . S
H270 C286 0.959 . S
H271 C286 0.959 . S
H272 C286 0.961 . S
H273 C287 0.960 . S
H274 C287 0.961 . S
H275 C287 0.959 . S
H276 C290 0.929 . S
H277 C291 0.931 . S
H278 C293 0.930 . S
C279 H267 0.930 1_545 S
C279 C280 1.399 1_545 S
C279 C284 1.399 . S
C280 C279 1.399 1_565 S
C280 C281 1.376 . S
C281 H268 0.930 . S
C281 C280 1.376 . S
C281 C282 1.388 1_565 S
C282 H269 0.930 . S
C282 C281 1.388 1_545 S
C282 C283 1.390 . S
C283 C282 1.390 . S
C283 C284 1.394 . S
C283 C289 1.465 . S
C284 C279 1.399 . S
C284 C283 1.394 . S
C284 C285 1.516 . S
C285 C284 1.516 . S
C285 C286 1.502 . S
C285 C287 1.561 . S
C285 C288 1.526 . S
C286 H270 0.959 . S
C286 H271 0.959 . S
C286 H272 0.961 . S
C286 C285 1.502 . S
C287 H273 0.960 . S
C287 H274 0.961 . S
C287 H275 0.959 . S
C287 C285 1.561 . S
C288 C285 1.526 . S
C288 C289 1.396 . S
C288 C293 1.390 . S
C289 C283 1.465 . S
C289 C288 1.396 . S
C289 C290 1.399 . S
C290 H276 0.929 . S
C290 C289 1.399 . S
C290 C291 1.385 . S
C291 H277 0.931 . S
C291 C290 1.385 . S
C291 C292 1.389 . S
C292 C291 1.389 . S
C292 C293 1.387 . S
C293 H278 0.930 . S
C293 C288 1.390 . S
C293 C292 1.387 . S
H294 C306 0.930 . S
H295 C308 0.930 . S
H296 C309 0.930 . S
H297 C313 0.959 . S
H298 C313 0.959 . S
H299 C313 0.961 . S
H300 C314 0.960 . S
H301 C314 0.961 . S
H302 C314 0.959 . S
H303 C317 0.929 . S
H304 C318 0.931 1_655 S
H305 C320 0.930 . S
C306 H294 0.930 . S
C306 C307 1.399 . S
C306 C311 1.399 . S
C307 C306 1.399 . S
C307 C308 1.376 . S
C308 H295 0.930 . S
C308 C307 1.376 . S
C308 C309 1.388 . S
C309 H296 0.930 . S
C309 C308 1.388 . S
C309 C310 1.390 . S
C310 C309 1.390 . S
C310 C311 1.394 . S
C310 C316 1.465 . S
C311 C306 1.399 . S
C311 C310 1.394 . S
C311 C312 1.516 . S
C312 C311 1.516 . S
C312 C313 1.502 . S
C312 C314 1.561 . S
C312 C315 1.526 . S
C313 H297 0.959 . S
C313 H298 0.959 . S
C313 H299 0.961 . S
C313 C312 1.502 . S
C314 H300 0.960 . S
C314 H301 0.961 . S
C314 H302 0.959 . S
C314 C312 1.561 . S
C315 C312 1.526 . S
C315 C316 1.396 . S
C315 C320 1.390 . S
C316 C310 1.465 . S
C316 C315 1.396 . S
C316 C317 1.399 . S
C317 H303 0.929 . S
C317 C316 1.399 . S
C317 C318 1.385 . S
C318 H304 0.931 1_455 S
C318 C317 1.385 . S
C318 C319 1.389 . S
C319 C318 1.389 . S
C319 C320 1.387 . S
C320 H305 0.930 . S
C320 C315 1.390 . S
C320 C319 1.387 . S
H321 C333 0.930 . S
H322 C335 0.930 . S
H323 C336 0.930 . S
H324 C340 0.959 . S
H325 C340 0.959 . S
H326 C340 0.961 . S
H327 C341 0.960 . S
H328 C341 0.961 . S
H329 C341 0.959 . S
H330 C344 0.929 . S
H331 C345 0.931 . S
H332 C347 0.930 . S
C333 H321 0.930 . S
C333 C334 1.399 . S
C333 C338 1.399 . S
C334 C333 1.399 . S
C334 C335 1.376 . S
C335 H322 0.930 . S
C335 C334 1.376 . S
C335 C336 1.388 . S
C336 H323 0.930 . S
C336 C335 1.388 . S
C336 C337 1.390 . S
C337 C336 1.390 . S
C337 C338 1.394 . S
C337 C343 1.465 . S
C338 C333 1.399 . S
C338 C337 1.394 . S
C338 C339 1.516 . S
C339 C338 1.516 . S
C339 C340 1.502 . S
C339 C341 1.561 . S
C339 C342 1.526 . S
C340 H324 0.959 . S
C340 H325 0.959 . S
C340 H326 0.961 . S
C340 C339 1.502 . S
C341 H327 0.960 . S
C341 H328 0.961 . S
C341 H329 0.959 . S
C341 C339 1.561 . S
C342 C339 1.526 . S
C342 C343 1.396 . S
C342 C347 1.390 . S
C343 C337 1.465 . S
C343 C342 1.396 . S
C343 C344 1.399 . S
C344 H330 0.929 . S
C344 C343 1.399 . S
C344 C345 1.385 . S
C345 H331 0.931 . S
C345 C344 1.385 . S
C345 C346 1.389 . S
C346 C345 1.389 . S
C346 C347 1.387 . S
C347 H332 0.930 . S
C347 C342 1.390 . S
C347 C346 1.387 . S
H348 C360 0.930 . S
H349 C362 0.930 . S
H350 C363 0.930 . S
H351 C367 0.959 1_655 S
H352 C367 0.959 . S
H353 C367 0.961 . S
H354 C368 0.960 . S
H355 C368 0.961 . S
H356 C368 0.959 . S
H357 C371 0.929 . S
H358 C372 0.931 . S
H359 C374 0.930 . S
C360 H348 0.930 . S
C360 C361 1.399 . S
C360 C365 1.399 . S
C361 C360 1.399 . S
C361 C362 1.376 . S
C362 H349 0.930 . S
C362 C361 1.376 . S
C362 C363 1.388 . S
C363 H350 0.930 . S
C363 C362 1.388 . S
C363 C364 1.390 . S
C364 C363 1.390 . S
C364 C365 1.394 . S
C364 C370 1.465 1_455 S
C365 C360 1.399 . S
C365 C364 1.394 . S
C365 C366 1.516 . S
C366 C365 1.516 . S
C366 C367 1.502 . S
C366 C368 1.561 . S
C366 C369 1.526 1_455 S
C367 H351 0.959 1_455 S
C367 H352 0.959 . S
C367 H353 0.961 . S
C367 C366 1.502 . S
C368 H354 0.960 . S
C368 H355 0.961 . S
C368 H356 0.959 . S
C368 C366 1.561 . S
C369 C366 1.526 1_655 S
C369 C370 1.396 . S
C369 C374 1.390 . S
C370 C364 1.465 1_655 S
C370 C369 1.396 . S
C370 C371 1.399 . S
C371 H357 0.929 . S
C371 C370 1.399 . S
C371 C372 1.385 . S
C372 H358 0.931 . S
C372 C371 1.385 . S
C372 C373 1.389 . S
C373 C372 1.389 . S
C373 C374 1.387 . S
C374 H359 0.930 . S
C374 C369 1.390 . S
C374 C373 1.387 . S
H375 C387 0.930 . S
H376 C389 0.930 . S
H377 C390 0.930 . S
H378 C394 0.959 . S
H379 C394 0.959 1_565 S
H380 C394 0.961 . S
H381 C395 0.960 . S
H382 C395 0.961 . S
H383 C395 0.959 . S
H384 C398 0.929 . S
H385 C399 0.931 . S
H386 C401 0.930 . S
C387 H375 0.930 . S
C387 C388 1.399 . S
C387 C392 1.399 . S
C388 C387 1.399 . S
C388 C389 1.376 . S
C389 H376 0.930 . S
C389 C388 1.376 . S
C389 C390 1.388 . S
C390 H377 0.930 . S
C390 C389 1.388 . S
C390 C391 1.390 . S
C391 C390 1.390 . S
C391 C392 1.394 . S
C391 C397 1.465 1_545 S
C392 C387 1.399 . S
C392 C391 1.394 . S
C392 C393 1.516 . S
C393 C392 1.516 . S
C393 C394 1.502 . S
C393 C395 1.561 1_545 S
C393 C396 1.526 1_545 S
C394 H378 0.959 . S
C394 H379 0.959 1_545 S
C394 H380 0.961 . S
C394 C393 1.502 . S
C395 H381 0.960 . S
C395 H382 0.961 . S
C395 H383 0.959 . S
C395 C393 1.561 1_565 S
C396 C393 1.526 1_565 S
C396 C397 1.396 . S
C396 C401 1.390 . S
C397 C391 1.465 1_565 S
C397 C396 1.396 . S
C397 C398 1.399 . S
C398 H384 0.929 . S
C398 C397 1.399 . S
C398 C399 1.385 . S
C399 H385 0.931 . S
C399 C398 1.385 . S
C399 C400 1.389 . S
C400 C399 1.389 . S
C400 C401 1.387 . S
C401 H386 0.930 . S
C401 C396 1.390 . S
C401 C400 1.387 . S
H402 C414 0.930 . S
H403 C416 0.930 . S
H404 C417 0.930 . S
H405 C421 0.959 . S
H406 C421 0.959 . S
H407 C421 0.961 . S
H408 C422 0.960 . S
H409 C422 0.961 1_455 S
H410 C422 0.959 . S
H411 C425 0.929 . S
H412 C426 0.931 . S
H413 C428 0.930 . S
C414 H402 0.930 . S
C414 C415 1.399 . S
C414 C419 1.399 . S
C415 C414 1.399 . S
C415 C416 1.376 . S
C416 H403 0.930 . S
C416 C415 1.376 . S
C416 C417 1.388 . S
C417 H404 0.930 . S
C417 C416 1.388 . S
C417 C418 1.390 . S
C418 C417 1.390 . S
C418 C419 1.394 . S
C418 C424 1.465 . S
C419 C414 1.399 . S
C419 C418 1.394 . S
C419 C420 1.516 . S
C420 C419 1.516 . S
C420 C421 1.502 . S
C420 C422 1.561 . S
C420 C423 1.526 . S
C421 H405 0.959 . S
C421 H406 0.959 . S
C421 H407 0.961 . S
C421 C420 1.502 . S
C422 H408 0.960 . S
C422 H409 0.961 1_655 S
C422 H410 0.959 . S
C422 C420 1.561 . S
C423 C420 1.526 . S
C423 C424 1.396 . S
C423 C428 1.390 1_655 S
C424 C418 1.465 . S
C424 C423 1.396 . S
C424 C425 1.399 . S
C425 H411 0.929 . S
C425 C424 1.399 . S
C425 C426 1.385 . S
C426 H412 0.931 . S
C426 C425 1.385 . S
C426 C427 1.389 1_655 S
C427 C426 1.389 1_455 S
C427 C428 1.387 . S
C428 H413 0.930 . S
C428 C423 1.390 1_455 S
C428 C427 1.387 . S
H429 C441 0.930 . S
H430 C443 0.930 . S
H431 C444 0.930 . S
H432 C448 0.959 . S
H433 C448 0.959 1_545 S
H434 C448 0.961 . S
H435 C449 0.960 . S
H436 C449 0.961 1_545 S
H437 C449 0.959 . S
H438 C452 0.929 . S
H439 C453 0.931 . S
H440 C455 0.930 . S
C441 H429 0.930 . S
C441 C442 1.399 . S
C441 C446 1.399 . S
C442 C441 1.399 . S
C442 C443 1.376 . S
C443 H430 0.930 . S
C443 C442 1.376 . S
C443 C444 1.388 . S
C444 H431 0.930 . S
C444 C443 1.388 . S
C444 C445 1.390 . S
C445 C444 1.390 . S
C445 C446 1.394 . S
C445 C451 1.465 . S
C446 C441 1.399 . S
C446 C445 1.394 . S
C446 C447 1.516 . S
C447 C446 1.516 . S
C447 C448 1.502 . S
C447 C449 1.561 . S
C447 C450 1.526 . S
C448 H432 0.959 . S
C448 H433 0.959 1_565 S
C448 H434 0.961 . S
C448 C447 1.502 . S
C449 H435 0.960 . S
C449 H436 0.961 1_565 S
C449 H437 0.959 . S
C449 C447 1.561 . S
C450 C447 1.526 . S
C450 C451 1.396 . S
C450 C455 1.390 1_565 S
C451 C445 1.465 . S
C451 C450 1.396 . S
C451 C452 1.399 . S
C452 H438 0.929 . S
C452 C451 1.399 . S
C452 C453 1.385 . S
C453 H439 0.931 . S
C453 C452 1.385 . S
C453 C454 1.389 1_565 S
C454 C453 1.389 1_545 S
C454 C455 1.387 . S
C455 H440 0.930 . S
C455 C450 1.390 1_545 S
C455 C454 1.387 . S
H456 C468 0.930 . S
H457 C470 0.930 . S
H458 C471 0.930 . S
H459 C475 0.959 . S
H460 C475 0.959 . S
H461 C475 0.961 . S
H462 C476 0.960 . S
H463 C476 0.961 . S
H464 C476 0.959 . S
H465 C479 0.929 . S
H466 C480 0.931 . S
H467 C482 0.930 . S
C468 H456 0.930 . S
C468 C469 1.399 . S
C468 C473 1.399 . S
C469 C468 1.399 . S
C469 C470 1.376 . S
C470 H457 0.930 . S
C470 C469 1.376 . S
C470 C471 1.388 . S
C471 H458 0.930 . S
C471 C470 1.388 . S
C471 C472 1.390 . S
C472 C471 1.390 . S
C472 C473 1.394 . S
C472 C478 1.465 . S
C473 C468 1.399 . S
C473 C472 1.394 . S
C473 C474 1.516 . S
C474 C473 1.516 . S
C474 C475 1.502 . S
C474 C476 1.561 . S
C474 C477 1.526 . S
C475 H459 0.959 . S
C475 H460 0.959 . S
C475 H461 0.961 . S
C475 C474 1.502 . S
C476 H462 0.960 . S
C476 H463 0.961 . S
C476 H464 0.959 . S
C476 C474 1.561 . S
C477 C474 1.526 . S
C477 C478 1.396 . S
C477 C482 1.390 . S
C478 C472 1.465 . S
C478 C477 1.396 . S
C478 C479 1.399 . S
C479 H465 0.929 . S
C479 C478 1.399 . S
C479 C480 1.385 . S
C480 H466 0.931 . S
C480 C479 1.385 . S
C480 C481 1.389 . S
C481 C480 1.389 . S
C481 C482 1.387 . S
C482 H467 0.930 . S
C482 C477 1.390 . S
C482 C481 1.387 . S
H483 C495 0.930 . S
H484 C497 0.930 . S
H485 C498 0.930 . S
H486 C502 0.959 . S
H487 C502 0.959 . S
H488 C502 0.961 . S
H489 C503 0.960 . S
H490 C503 0.961 . S
H491 C503 0.959 . S
H492 C506 0.929 . S
H493 C507 0.932 . S
H494 C509 0.930 . S
C495 H483 0.930 . S
C495 C496 1.399 . S
C495 C500 1.399 . S
C496 C495 1.399 . S
C496 C497 1.376 1_554 S
C497 H484 0.930 . S
C497 C496 1.376 1_556 S
C497 C498 1.388 . S
C498 H485 0.930 . S
C498 C497 1.388 . S
C498 C499 1.391 1_556 S
C499 C498 1.391 1_554 S
C499 C500 1.392 . S
C499 C505 1.465 1_554 S
C500 C495 1.399 . S
C500 C499 1.392 . S
C500 C501 1.516 . S
C501 C500 1.516 . S
C501 C502 1.502 . S
C501 C503 1.561 . S
C501 C504 1.526 . S
C502 H486 0.959 . S
C502 H487 0.959 . S
C502 H488 0.961 . S
C502 C501 1.502 . S
C503 H489 0.960 . S
C503 H490 0.961 . S
C503 H491 0.959 . S
C503 C501 1.561 . S
C504 C501 1.526 . S
C504 C505 1.388 1_554 S
C504 C509 1.390 . S
C505 C499 1.465 1_556 S
C505 C504 1.388 1_556 S
C505 C506 1.406 . S
C506 H492 0.929 . S
C506 C505 1.406 . S
C506 C507 1.384 1_545 S
C507 H493 0.932 . S
C507 C506 1.384 1_565 S
C507 C508 1.390 1_566 S
C508 C507 1.390 1_544 S
C508 C509 1.387 . S
C509 H494 0.930 . S
C509 C504 1.390 . S
C509 C508 1.387 . S
H510 C522 0.930 . S
H511 C524 0.930 . S
H512 C525 0.930 . S
H513 C529 0.959 . S
H514 C529 0.959 . S
H515 C529 0.961 . S
H516 C530 0.960 . S
H517 C530 0.961 . S
H518 C530 0.959 . S
H519 C533 0.929 . S
H520 C534 0.931 . S
H521 C536 0.930 . S
C522 H510 0.930 . S
C522 C523 1.399 . S
C522 C527 1.399 . S
C523 C522 1.399 . S
C523 C524 1.376 . S
C524 H511 0.930 . S
C524 C523 1.376 . S
C524 C525 1.388 . S
C525 H512 0.930 . S
C525 C524 1.388 . S
C525 C526 1.390 . S
C526 C525 1.390 . S
C526 C527 1.394 . S
C526 C532 1.465 . S
C527 C522 1.399 . S
C527 C526 1.394 . S
C527 C528 1.516 . S
C528 C527 1.516 . S
C528 C529 1.502 . S
C528 C530 1.561 . S
C528 C531 1.526 . S
C529 H513 0.959 . S
C529 H514 0.959 . S
C529 H515 0.961 . S
C529 C528 1.502 . S
C530 H516 0.960 . S
C530 H517 0.961 . S
C530 H518 0.959 . S
C530 C528 1.561 . S
C531 C528 1.526 . S
C531 C532 1.396 . S
C531 C536 1.390 . S
C532 C526 1.465 . S
C532 C531 1.396 . S
C532 C533 1.399 . S
C533 H519 0.929 . S
C533 C532 1.399 . S
C533 C534 1.385 . S
C534 H520 0.931 . S
C534 C533 1.385 . S
C534 C535 1.389 . S
C535 C534 1.389 . S
C535 C536 1.387 . S
C536 H521 0.930 . S
C536 C531 1.390 . S
C536 C535 1.387 . S
H537 C549 0.930 . S
H538 C551 0.930 . S
H539 C552 0.930 . S
H540 C556 0.959 . S
H541 C556 0.959 . S
H542 C556 0.961 . S
H543 C557 0.960 . S
H544 C557 0.961 . S
H545 C557 0.959 . S
H546 C560 0.929 . S
H547 C561 0.931 . S
H548 C563 0.930 . S
C549 H537 0.930 . S
C549 C550 1.399 . S
C549 C554 1.399 . S
C550 C549 1.399 . S
C550 C551 1.376 1_455 S
C551 H538 0.930 . S
C551 C550 1.376 1_655 S
C551 C552 1.388 1_655 S
C552 H539 0.930 . S
C552 C551 1.388 1_455 S
C552 C553 1.390 . S
C553 C552 1.390 . S
C553 C554 1.394 . S
C553 C559 1.465 . S
C554 C549 1.399 . S
C554 C553 1.394 . S
C554 C555 1.516 . S
C555 C554 1.516 . S
C555 C556 1.502 . S
C555 C557 1.561 . S
C555 C558 1.526 . S
C556 H540 0.959 . S
C556 H541 0.959 . S
C556 H542 0.961 . S
C556 C555 1.502 . S
C557 H543 0.960 . S
C557 H544 0.961 . S
C557 H545 0.959 . S
C557 C555 1.561 . S
C558 C555 1.526 . S
C558 C559 1.396 . S
C558 C563 1.390 . S
C559 C553 1.465 . S
C559 C558 1.396 . S
C559 C560 1.399 . S
C560 H546 0.929 . S
C560 C559 1.399 . S
C560 C561 1.385 . S
C561 H547 0.931 . S
C561 C560 1.385 . S
C561 C562 1.389 . S
C562 C561 1.389 . S
C562 C563 1.387 . S
C563 H548 0.930 . S
C563 C558 1.390 . S
C563 C562 1.387 . S
H564 C576 0.930 . S
H565 C578 0.930 . S
H566 C579 0.930 . S
H567 C583 0.959 . S
H568 C583 0.959 . S
H569 C583 0.961 . S
H570 C584 0.960 . S
H571 C584 0.961 . S
H572 C584 0.959 . S
H573 C587 0.929 . S
H574 C588 0.931 . S
H575 C590 0.930 . S
C576 H564 0.930 . S
C576 C577 1.399 . S
C576 C581 1.399 . S
C577 C576 1.399 . S
C577 C578 1.376 . S
C578 H565 0.930 . S
C578 C577 1.376 . S
C578 C579 1.388 . S
C579 H566 0.930 . S
C579 C578 1.388 . S
C579 C580 1.390 . S
C580 C579 1.390 . S
C580 C581 1.394 . S
C580 C586 1.465 . S
C581 C576 1.399 . S
C581 C580 1.394 . S
C581 C582 1.516 . S
C582 C581 1.516 . S
C582 C583 1.502 . S
C582 C584 1.561 . S
C582 C585 1.526 . S
C583 H567 0.959 . S
C583 H568 0.959 . S
C583 H569 0.961 . S
C583 C582 1.502 . S
C584 H570 0.960 . S
C584 H571 0.961 . S
C584 H572 0.959 . S
C584 C582 1.561 . S
C585 C582 1.526 . S
C585 C586 1.396 . S
C585 C590 1.390 . S
C586 C580 1.465 . S
C586 C585 1.396 . S
C586 C587 1.399 . S
C587 H573 0.929 . S
C587 C586 1.399 . S
C587 C588 1.385 . S
C588 H574 0.931 . S
C588 C587 1.385 . S
C588 C589 1.389 . S
C589 C588 1.389 . S
C589 C590 1.387 . S
C590 H575 0.930 . S
C590 C585 1.390 . S
C590 C589 1.387 . S
H591 C603 0.930 . S
H592 C605 0.930 . S
H593 C606 0.930 . S
H594 C610 0.959 . S
H595 C610 0.959 . S
H596 C610 0.961 . S
H597 C611 0.960 . S
H598 C611 0.961 . S
H599 C611 0.959 . S
H600 C614 0.929 . S
H601 C615 0.931 . S
H602 C617 0.930 . S
C603 H591 0.930 . S
C603 C604 1.399 . S
C603 C608 1.399 . S
C604 C603 1.399 . S
C604 C605 1.376 . S
C605 H592 0.930 . S
C605 C604 1.376 . S
C605 C606 1.388 . S
C606 H593 0.930 . S
C606 C605 1.388 . S
C606 C607 1.390 . S
C607 C606 1.390 . S
C607 C608 1.394 . S
C607 C613 1.465 . S
C608 C603 1.399 . S
C608 C607 1.394 . S
C608 C609 1.516 . S
C609 C608 1.516 . S
C609 C610 1.502 . S
C609 C611 1.561 . S
C609 C612 1.526 . S
C610 H594 0.959 . S
C610 H595 0.959 . S
C610 H596 0.961 . S
C610 C609 1.502 . S
C611 H597 0.960 . S
C611 H598 0.961 . S
C611 H599 0.959 . S
C611 C609 1.561 . S
C612 C609 1.526 . S
C612 C613 1.396 . S
C612 C617 1.390 . S
C613 C607 1.465 . S
C613 C612 1.396 . S
C613 C614 1.399 . S
C614 H600 0.929 . S
C614 C613 1.399 . S
C614 C615 1.385 . S
C615 H601 0.931 . S
C615 C614 1.385 . S
C615 C616 1.389 . S
C616 C615 1.389 . S
C616 C617 1.387 . S
C617 H602 0.930 . S
C617 C612 1.390 . S
C617 C616 1.387 . S
H618 C630 0.930 . S
H619 C632 0.930 1_455 S
H620 C633 0.930 1_455 S
H621 C637 0.959 . S
H622 C637 0.959 . S
H623 C637 0.961 . S
H624 C638 0.960 . S
H625 C638 0.961 . S
H626 C638 0.959 . S
H627 C641 0.929 . S
H628 C642 0.931 . S
H629 C644 0.930 . S
C630 H618 0.930 . S
C630 C631 1.399 . S
C630 C635 1.399 . S
C631 C630 1.399 . S
C631 C632 1.376 . S
C632 H619 0.930 1_655 S
C632 C631 1.376 . S
C632 C633 1.388 . S
C633 H620 0.930 1_655 S
C633 C632 1.388 . S
C633 C634 1.390 . S
C634 C633 1.390 . S
C634 C635 1.394 . S
C634 C640 1.465 . S
C635 C630 1.399 . S
C635 C634 1.394 . S
C635 C636 1.516 . S
C636 C635 1.516 . S
C636 C637 1.502 . S
C636 C638 1.561 . S
C636 C639 1.526 . S
C637 H621 0.959 . S
C637 H622 0.959 . S
C637 H623 0.961 . S
C637 C636 1.502 . S
C638 H624 0.960 . S
C638 H625 0.961 . S
C638 H626 0.959 . S
C638 C636 1.561 . S
C639 C636 1.526 . S
C639 C640 1.396 . S
C639 C644 1.390 . S
C640 C634 1.465 . S
C640 C639 1.396 . S
C640 C641 1.399 . S
C641 H627 0.929 . S
C641 C640 1.399 . S
C641 C642 1.385 . S
C642 H628 0.931 . S
C642 C641 1.385 . S
C642 C643 1.389 . S
C643 C642 1.389 . S
C643 C644 1.387 . S
C644 H629 0.930 . S
C644 C639 1.390 . S
C644 C643 1.387 . S
H645 C657 0.930 . S
H646 C659 0.930 1_545 S
H647 C660 0.930 1_545 S
H648 C664 0.959 . S
H649 C664 0.959 . S
H650 C664 0.961 . S
H651 C665 0.960 . S
H652 C665 0.961 . S
H653 C665 0.959 . S
H654 C668 0.929 1_545 S
H655 C669 0.931 . S
H656 C671 0.930 . S
C657 H645 0.930 . S
C657 C658 1.399 . S
C657 C662 1.399 . S
C658 C657 1.399 . S
C658 C659 1.376 . S
C659 H646 0.930 1_565 S
C659 C658 1.376 . S
C659 C660 1.388 . S
C660 H647 0.930 1_565 S
C660 C659 1.388 . S
C660 C661 1.390 . S
C661 C660 1.390 . S
C661 C662 1.394 . S
C661 C667 1.465 . S
C662 C657 1.399 . S
C662 C661 1.394 . S
C662 C663 1.516 . S
C663 C662 1.516 . S
C663 C664 1.502 . S
C663 C665 1.561 . S
C663 C666 1.526 . S
C664 H648 0.959 . S
C664 H649 0.959 . S
C664 H650 0.961 . S
C664 C663 1.502 . S
C665 H651 0.960 . S
C665 H652 0.961 . S
C665 H653 0.959 . S
C665 C663 1.561 . S
C666 C663 1.526 . S
C666 C667 1.396 . S
C666 C671 1.390 . S
C667 C661 1.465 . S
C667 C666 1.396 . S
C667 C668 1.399 . S
C668 H654 0.929 1_565 S
C668 C667 1.399 . S
C668 C669 1.385 . S
C669 H655 0.931 . S
C669 C668 1.385 . S
C669 C670 1.389 . S
C670 C669 1.389 . S
C670 C671 1.387 . S
C671 H656 0.930 . S
C671 C666 1.390 . S
C671 C670 1.387 . S
H672 C684 0.930 1_655 S
H673 C686 0.930 . S
H674 C687 0.930 . S
H675 C691 0.959 . S
H676 C691 0.959 . S
H677 C691 0.961 . S
H678 C692 0.960 1_655 S
H679 C692 0.961 1_655 S
H680 C692 0.959 . S
H681 C695 0.929 . S
H682 C696 0.931 . S
H683 C698 0.930 . S
C684 H672 0.930 1_455 S
C684 C685 1.399 . S
C684 C689 1.399 . S
C685 C684 1.399 . S
C685 C686 1.376 . S
C686 H673 0.930 . S
C686 C685 1.376 . S
C686 C687 1.388 . S
C687 H674 0.930 . S
C687 C686 1.388 . S
C687 C688 1.390 . S
C688 C687 1.390 . S
C688 C689 1.394 . S
C688 C694 1.465 . S
C689 C684 1.399 . S
C689 C688 1.394 . S
C689 C690 1.516 . S
C690 C689 1.516 . S
C690 C691 1.502 1_455 S
C690 C692 1.561 . S
C690 C693 1.526 . S
C691 H675 0.959 . S
C691 H676 0.959 . S
C691 H677 0.961 . S
C691 C690 1.502 1_655 S
C692 H678 0.960 1_455 S
C692 H679 0.961 1_455 S
C692 H680 0.959 . S
C692 C690 1.561 . S
C693 C690 1.526 . S
C693 C694 1.396 . S
C693 C698 1.390 . S
C694 C688 1.465 . S
C694 C693 1.396 . S
C694 C695 1.399 . S
C695 H681 0.929 . S
C695 C694 1.399 . S
C695 C696 1.385 . S
C696 H682 0.931 . S
C696 C695 1.385 . S
C696 C697 1.389 . S
C697 C696 1.389 . S
C697 C698 1.387 . S
C698 H683 0.930 . S
C698 C693 1.390 . S
C698 C697 1.387 . S
H699 C711 0.930 1_565 S
H700 C713 0.930 . S
H701 C714 0.930 . S
H702 C718 0.959 1_545 S
H703 C718 0.959 . S
H704 C718 0.961 . S
H705 C719 0.960 . S
H706 C719 0.961 . S
H707 C719 0.959 . S
H708 C722 0.929 . S
H709 C723 0.931 . S
H710 C725 0.930 . S
C711 H699 0.930 1_545 S
C711 C712 1.399 . S
C711 C716 1.399 . S
C712 C711 1.399 . S
C712 C713 1.376 . S
C713 H700 0.930 . S
C713 C712 1.376 . S
C713 C714 1.388 . S
C714 H701 0.930 . S
C714 C713 1.388 . S
C714 C715 1.390 . S
C715 C714 1.390 . S
C715 C716 1.394 . S
C715 C721 1.465 . S
C716 C711 1.399 . S
C716 C715 1.394 . S
C716 C717 1.516 . S
C717 C716 1.516 . S
C717 C718 1.502 1_545 S
C717 C719 1.561 1_545 S
C717 C720 1.526 . S
C718 H702 0.959 1_565 S
C718 H703 0.959 . S
C718 H704 0.961 . S
C718 C717 1.502 1_565 S
C719 H705 0.960 . S
C719 H706 0.961 . S
C719 H707 0.959 . S
C719 C717 1.561 1_565 S
C720 C717 1.526 . S
C720 C721 1.396 . S
C720 C725 1.390 . S
C721 C715 1.465 . S
C721 C720 1.396 . S
C721 C722 1.399 . S
C722 H708 0.929 . S
C722 C721 1.399 . S
C722 C723 1.385 . S
C723 H709 0.931 . S
C723 C722 1.385 . S
C723 C724 1.389 . S
C724 C723 1.389 . S
C724 C725 1.387 . S
C725 H710 0.930 . S
C725 C720 1.390 . S
C725 C724 1.387 . S
C253 C129 0.786 . S
C265 C9 0.705 . S
C280 C169 0.808 . S
C292 C49 0.667 . S
C307 C209 0.586 . S
C319 C89 0.706 . S
C334 C15 0.777 . S
C346 C86 0.724 . S
C361 C55 0.641 . S
C373 C126 0.864 . S
C388 C95 0.886 . S
C400 C166 0.708 . S
C415 C135 0.749 . S
C427 C206 0.852 . S
C442 C175 0.853 . S
C454 C6 0.762 . S
C469 C215 0.652 . S
C481 C46 0.846 . S
C496 C18 1.453 . S
C508 C138 1.485 1_545 S
C523 C58 1.457 . S
C535 C178 1.473 . S
C550 C98 1.510 1_455 S
C562 C218 1.484 . S
C577 C10 4.049 . S
C589 C59 4.088 . S
C604 C50 4.028 . S
C616 C99 4.093 . S
C631 C90 4.025 . S
C643 C139 4.098 . S
C658 C130 4.025 . S
C670 C179 4.098 . S
C685 C170 4.033 1_455 S
C697 C219 4.091 . S
C712 C210 4.043 1_545 S
C724 C19 4.088 . S
