# Generated by pormake.
# Topology fng, (5)-cn, num edge types: 1
# Building blocks:
#     Node 0, Type 0, BuildingBlock: XOMCOT_clean_sbu_1, # of connection points: 5
#     Node 1, Type 0, BuildingBlock: XOMCOT_clean_sbu_1, # of connection points: 5
#     Node 2, Type 0, BuildingBlock: XOMCOT_clean_sbu_1, # of connection points: 5
#     Node 3, Type 0, BuildingBlock: XOMCOT_clean_sbu_1, # of connection points: 5
#     Node 4, Type 0, BuildingBlock: XOMCOT_clean_sbu_1, # of connection points: 5
#     Node 5, Type 0, BuildingBlock: XOMCOT_clean_sbu_1, # of connection points: 5
#     Node 6, Type 0, BuildingBlock: XOMCOT_clean_sbu_1, # of connection points: 5
#     Node 7, Type 0, BuildingBlock: XOMCOT_clean_sbu_1, # of connection points: 5
#     Node 8, Type 0, BuildingBlock: XOMCOT_clean_sbu_1, # of connection points: 5
#     Node 9, Type 0, BuildingBlock: XOMCOT_clean_sbu_1, # of connection points: 5
#     Node 10, Type 0, BuildingBlock: XOMCOT_clean_sbu_1, # of connection points: 5
#     Node 11, Type 0, BuildingBlock: XOMCOT_clean_sbu_1, # of connection points: 5
#     Node 12, Type 0, BuildingBlock: XOMCOT_clean_sbu_1, # of connection points: 5
#     Node 13, Type 0, BuildingBlock: XOMCOT_clean_sbu_1, # of connection points: 5
#     Node 14, Type 0, BuildingBlock: XOMCOT_clean_sbu_1, # of connection points: 5
#     Node 15, Type 0, BuildingBlock: XOMCOT_clean_sbu_1, # of connection points: 5
#     Node 16, Type 0, BuildingBlock: XOMCOT_clean_sbu_1, # of connection points: 5
#     Node 17, Type 0, BuildingBlock: XOMCOT_clean_sbu_1, # of connection points: 5
#     Edge 18, Type (0, 0), BuildingBlock: XIVTED_clean_linker_0, # of connection points: 2
#     Edge 19, Type (0, 0), BuildingBlock: XIVTED_clean_linker_0, # of connection points: 2
#     Edge 20, Type (0, 0), BuildingBlock: XIVTED_clean_linker_0, # of connection points: 2
#     Edge 21, Type (0, 0), BuildingBlock: XIVTED_clean_linker_0, # of connection points: 2
#     Edge 22, Type (0, 0), BuildingBlock: XIVTED_clean_linker_0, # of connection points: 2
#     Edge 23, Type (0, 0), BuildingBlock: XIVTED_clean_linker_0, # of connection points: 2
#     Edge 24, Type (0, 0), BuildingBlock: XIVTED_clean_linker_0, # of connection points: 2
#     Edge 25, Type (0, 0), BuildingBlock: XIVTED_clean_linker_0, # of connection points: 2
#     Edge 26, Type (0, 0), BuildingBlock: XIVTED_clean_linker_0, # of connection points: 2
#     Edge 27, Type (0, 0), BuildingBlock: XIVTED_clean_linker_0, # of connection points: 2
#     Edge 28, Type (0, 0), BuildingBlock: XIVTED_clean_linker_0, # of connection points: 2
#     Edge 29, Type (0, 0), BuildingBlock: XIVTED_clean_linker_0, # of connection points: 2
#     Edge 30, Type (0, 0), BuildingBlock: XIVTED_clean_linker_0, # of connection points: 2
#     Edge 31, Type (0, 0), BuildingBlock: XIVTED_clean_linker_0, # of connection points: 2
#     Edge 32, Type (0, 0), BuildingBlock: XIVTED_clean_linker_0, # of connection points: 2
#     Edge 33, Type (0, 0), BuildingBlock: XIVTED_clean_linker_0, # of connection points: 2
#     Edge 34, Type (0, 0), BuildingBlock: XIVTED_clean_linker_0, # of connection points: 2
#     Edge 35, Type (0, 0), BuildingBlock: XIVTED_clean_linker_0, # of connection points: 2
#     Edge 36, Type (0, 0), BuildingBlock: XIVTED_clean_linker_0, # of connection points: 2
#     Edge 37, Type (0, 0), BuildingBlock: XIVTED_clean_linker_0, # of connection points: 2
#     Edge 38, Type (0, 0), BuildingBlock: XIVTED_clean_linker_0, # of connection points: 2
#     Edge 39, Type (0, 0), BuildingBlock: XIVTED_clean_linker_0, # of connection points: 2
#     Edge 40, Type (0, 0), BuildingBlock: XIVTED_clean_linker_0, # of connection points: 2
#     Edge 41, Type (0, 0), BuildingBlock: XIVTED_clean_linker_0, # of connection points: 2
#     Edge 42, Type (0, 0), BuildingBlock: XIVTED_clean_linker_0, # of connection points: 2
#     Edge 43, Type (0, 0), BuildingBlock: XIVTED_clean_linker_0, # of connection points: 2
#     Edge 44, Type (0, 0), BuildingBlock: XIVTED_clean_linker_0, # of connection points: 2
#     Edge 45, Type (0, 0), BuildingBlock: XIVTED_clean_linker_0, # of connection points: 2
#     Edge 46, Type (0, 0), BuildingBlock: XIVTED_clean_linker_0, # of connection points: 2
#     Edge 47, Type (0, 0), BuildingBlock: XIVTED_clean_linker_0, # of connection points: 2
#     Edge 48, Type (0, 0), BuildingBlock: XIVTED_clean_linker_0, # of connection points: 2
#     Edge 49, Type (0, 0), BuildingBlock: XIVTED_clean_linker_0, # of connection points: 2
#     Edge 50, Type (0, 0), BuildingBlock: XIVTED_clean_linker_0, # of connection points: 2
#     Edge 51, Type (0, 0), BuildingBlock: XIVTED_clean_linker_0, # of connection points: 2
#     Edge 52, Type (0, 0), BuildingBlock: XIVTED_clean_linker_0, # of connection points: 2
#     Edge 53, Type (0, 0), BuildingBlock: XIVTED_clean_linker_0, # of connection points: 2
#     Edge 54, Type (0, 0), BuildingBlock: XIVTED_clean_linker_0, # of connection points: 2
#     Edge 55, Type (0, 0), BuildingBlock: XIVTED_clean_linker_0, # of connection points: 2
#     Edge 56, Type (0, 0), BuildingBlock: XIVTED_clean_linker_0, # of connection points: 2
#     Edge 57, Type (0, 0), BuildingBlock: XIVTED_clean_linker_0, # of connection points: 2
#     Edge 58, Type (0, 0), BuildingBlock: XIVTED_clean_linker_0, # of connection points: 2
#     Edge 59, Type (0, 0), BuildingBlock: XIVTED_clean_linker_0, # of connection points: 2
#     Edge 60, Type (0, 0), BuildingBlock: XIVTED_clean_linker_0, # of connection points: 2
#     Edge 61, Type (0, 0), BuildingBlock: XIVTED_clean_linker_0, # of connection points: 2
#     Edge 62, Type (0, 0), BuildingBlock: XIVTED_clean_linker_0, # of connection points: 2
# Relax obj value: 0.123
# Max RMSD: 0.145
# Mean RMSD: 0.145
data_MOF--net-fng--node1-XOMCOT_clean_sbu_1--edge1-XIVTED_clean_linker_0
_symmetry_space_group_name_H-M    P1
_symmetry_Int_Tables_number       1
_symmetry_cell_setting            triclinic
loop_
_symmetry_equiv_pos_as_xyz
'x, y, z'
_cell_length_a     80.097042
_cell_length_b     80.307164
_cell_length_c     17.385761
_cell_angle_alpha  89.811159
_cell_angle_beta   89.974521
_cell_angle_gamma 119.93366
loop_
_atom_site_label
_atom_site_type_symbol
_atom_site_fract_x
_atom_site_fract_y
_atom_site_fract_z
_atom_type_partial_charge
C0 C 0.13739 0.26347 0.0865 0.0
C1 C 0.13556 0.26508 0.00841 0.0
N2 N 0.14242 0.2549 0.97214 0.0
N3 N 0.14538 0.25239 0.09889 0.0
C4 C 0.14855 0.24767 0.02834 0.0
H5 H 0.13235 0.26916 0.13147 0.0
Co6 Co 0.14751 0.24316 0.19329 0.0
C7 C 0.15578 0.2119 0.15832 0.0
O8 O 0.14226 0.20106 0.208 0.0
N9 N 0.15003 0.23444 0.2908 0.0
C10 C 0.16436 0.22978 0.39174 0.0
C11 C 0.16524 0.23272 0.31378 0.0
C12 C 0.14054 0.2332 0.35675 0.0
N13 N 0.1489 0.23029 0.41862 0.0
O14 O 0.17245 0.26563 0.20654 0.0
H15 H 0.17712 0.23494 0.27727 0.0
H16 H 0.1287 0.23593 0.36098 0.0
O17 O 0.15942 0.22914 0.14578 0.0
C18 C 0.17204 0.27746 0.25422 0.0
O19 O 0.15568 0.27306 0.28811 0.0
N20 N 0.12199 0.22235 0.18022 0.0
C21 C 0.0825 0.19922 0.1485 0.0
C22 C 0.09635 0.19726 0.10624 0.0
C23 C 0.11599 0.20918 0.12192 0.0
C24 C 0.10869 0.22462 0.22067 0.0
C25 C 0.08898 0.21296 0.20735 0.0
H26 H 0.12622 0.2086 0.08332 0.0
H27 H 0.11336 0.23658 0.25943 0.0
H28 H 0.15458 0.23847 0.0182 0.0
H29 H 0.12877 0.27227 0.98088 0.0
H30 H 0.17518 0.2291 0.42676 0.0
H31 H 0.09219 0.18747 0.0581 0.0
H32 H 0.07897 0.21531 0.24099 0.0
C33 C 0.76232 0.88094 0.05937 0.0
C34 C 0.75831 0.88085 0.98244 0.0
N35 N 0.76614 0.8992 0.95839 0.0
N36 N 0.77253 0.89926 0.08368 0.0
C37 C 0.7745 0.91005 0.02101 0.0
H38 H 0.75886 0.86848 0.09444 0.0
Co39 Co 0.78317 0.90666 0.18085 0.0
C40 C 0.81493 0.94716 0.15456 0.0
O41 O 0.82709 0.94369 0.19187 0.0
N42 N 0.79372 0.91381 0.28168 0.0
C43 C 0.81187 0.92041 0.38708 0.0
C44 C 0.81077 0.91673 0.30973 0.0
C45 C 0.78477 0.91572 0.34438 0.0
N46 N 0.79542 0.91965 0.40877 0.0
O47 O 0.76134 0.90931 0.21029 0.0
H48 H 0.82184 0.91598 0.27706 0.0
H49 H 0.77054 0.91399 0.34405 0.0
O50 O 0.79736 0.93386 0.14737 0.0
C51 C 0.74706 0.89293 0.228 0.0
O52 O 0.74939 0.87786 0.22715 0.0
N53 N 0.80291 0.90177 0.1502 0.0
C54 C 0.82717 0.88798 0.10324 0.0
C55 C 0.82737 0.9035 0.06489 0.0
C56 C 0.81495 0.91005 0.08872 0.0
C57 C 0.8019 0.88611 0.18553 0.0
C58 C 0.8142 0.87928 0.1643 0.0
H59 H 0.81459 0.92132 0.05601 0.0
H60 H 0.79137 0.87883 0.23059 0.0
H61 H 0.78255 0.92558 0.02017 0.0
H62 H 0.75132 0.8683 0.94601 0.0
H63 H 0.82349 0.92256 0.42502 0.0
H64 H 0.83685 0.91035 0.0163 0.0
H65 H 0.81306 0.86684 0.19372 0.0
C66 C 0.15149 0.89198 0.00424 0.0
C67 C 0.15548 0.89203 0.92728 0.0
N68 N 0.13879 0.88084 0.89016 0.0
N69 N 0.13238 0.88087 0.01574 0.0
C70 C 0.12506 0.87398 0.94542 0.0
H71 H 0.16173 0.90034 0.0485 0.0
Co72 Co 0.12021 0.87938 0.10907 0.0
C73 C 0.08205 0.8725 0.05577 0.0
O74 O 0.0848 0.88759 0.09526 0.0
N75 N 0.1086 0.87742 0.20554 0.0
C76 C 0.08862 0.86508 0.30544 0.0
C77 C 0.08997 0.86622 0.22684 0.0
C78 C 0.1183 0.88227 0.27304 0.0
N79 N 0.10649 0.87499 0.33466 0.0
O80 O 0.11772 0.85465 0.12863 0.0
H81 H 0.0781 0.85761 0.18909 0.0
H82 H 0.13385 0.88945 0.27658 0.0
O83 O 0.09472 0.86719 0.05761 0.0
C84 C 0.13324 0.85647 0.15659 0.0
O85 O 0.14801 0.8738 0.16631 0.0
N86 N 0.12453 0.90475 0.09065 0.0
C87 C 0.13953 0.94358 0.05155 0.0
C88 C 0.12807 0.92903 -0.00033 0.0
C89 C 0.12082 0.90981 0.02002 0.0
C90 C 0.13534 0.91879 0.1425 0.0
C91 C 0.1427 0.93827 0.12462 0.0
H92 H 0.11294 0.89906 0.97706 0.0
H93 H 0.13943 0.91516 0.19624 0.0
H94 H 0.1098 0.86535 0.93397 0.0
H95 H 0.1695 0.90025 0.90054 0.0
H96 H 0.07555 0.85655 0.33818 0.0
H97 H 0.12526 0.9325 0.9426 0.0
H98 H 0.15182 0.94909 0.16584 0.0
C99 C 0.27562 0.13754 0.93781 0.0
C100 C 0.27949 0.13871 0.01534 0.0
N101 N 0.27369 0.15023 0.04752 0.0
N102 N 0.26739 0.14822 0.92139 0.0
C103 C 0.26692 0.1562 0.98885 0.0
H104 H 0.27731 0.12833 0.89707 0.0
Co105 Co 0.25566 0.1477 0.8285 0.0
C106 C 0.22258 0.15175 0.88155 0.0
O107 O 0.21104 0.13603 0.84346 0.0
N108 N 0.24496 0.14778 0.73263 0.0
C109 C 0.2348 0.15719 0.63111 0.0
C110 C 0.23577 0.15722 0.70973 0.0
C111 C 0.25028 0.14306 0.66605 0.0
N112 N 0.24405 0.14838 0.60354 0.0
O113 O 0.27641 0.17302 0.80402 0.0
H114 H 0.23177 0.16553 0.74596 0.0
H115 H 0.25964 0.13695 0.66362 0.0
O116 O 0.24085 0.15849 0.87872 0.0
C117 C 0.29132 0.17282 0.77969 0.0
O118 O 0.29121 0.15642 0.77799 0.0
N119 N 0.23598 0.12183 0.8511 0.0
C120 C 0.21196 0.08285 0.89015 0.0
C121 C 0.2156 0.09748 0.94287 0.0
C122 C 0.22762 0.11673 0.92248 0.0
C123 C 0.23269 0.10778 0.79931 0.0
C124 C 0.2205 0.08834 0.81697 0.0
H125 H 0.23056 0.12753 0.96538 0.0
H126 H 0.24005 0.11139 0.74479 0.0
H127 H 0.26045 0.16513 0.99596 0.0
H128 H 0.28456 0.1304 0.04642 0.0
H129 H 0.22927 0.16465 0.59688 0.0
H130 H 0.20987 0.09417 0.00078 0.0
H131 H 0.21815 0.07774 0.77371 0.0
C132 C 0.8754 0.13246 0.95972 0.0
C133 C 0.87307 0.13335 0.03774 0.0
N134 N 0.87336 0.11836 0.07132 0.0
N135 N 0.87725 0.11703 0.94428 0.0
C136 C 0.87579 0.10862 0.01338 0.0
H137 H 0.87691 0.14306 0.91763 0.0
Co138 Co 0.88514 0.11226 0.85058 0.0
C139 C 0.87301 0.07034 0.85241 0.0
O140 O 0.88541 0.07262 0.79825 0.0
N141 N 0.89367 0.10806 0.75318 0.0
C142 C 0.91317 0.11073 0.65624 0.0
C143 C 0.91179 0.11226 0.7342 0.0
C144 C 0.88426 0.10342 0.68467 0.0
N145 N 0.89591 0.10539 0.62498 0.0
O146 O 0.8619 0.10925 0.80426 0.0
H147 H 0.92378 0.11707 0.77314 0.0
H148 H 0.86946 0.0999 0.67726 0.0
O149 O 0.87192 0.08479 0.87647 0.0
C150 C 0.86461 0.12405 0.7665 0.0
O151 O 0.88223 0.13862 0.75955 0.0
N152 N 0.90838 0.11737 0.89751 0.0
C153 C 0.94501 0.13233 0.96288 0.0
C154 C 0.93163 0.11254 0.96672 0.0
C155 C 0.91326 0.10531 0.93415 0.0
C156 C 0.92108 0.1366 0.89434 0.0
C157 C 0.93944 0.14434 0.92589 0.0
H158 H 0.9031 0.0902 0.93975 0.0
H159 H 0.9169 0.14596 0.86593 0.0
H160 H 0.87808 0.09655 0.02191 0.0
H161 H 0.8722 0.14467 0.06788 0.0
H162 H 0.92617 0.11428 0.62447 0.0
H163 H 0.93516 0.10277 0.99593 0.0
H164 H 0.94927 0.15964 0.92035 0.0
C165 C 0.89271 0.74469 0.95938 0.0
C166 C 0.89522 0.74291 0.03652 0.0
N167 N 0.91105 0.75903 0.05981 0.0
N168 N 0.90698 0.7618 0.93402 0.0
C169 C 0.91792 0.77021 -0.00348 0.0
H170 H 0.88077 0.73447 0.92501 0.0
Co171 Co 0.90935 0.77195 0.83632 0.0
C172 C 0.95075 0.8023 0.81929 0.0
O173 O 0.9461 0.81196 0.77117 0.0
N174 N 0.91134 0.78194 0.73609 0.0
C175 C 0.90904 0.79669 0.63132 0.0
C176 C 0.90521 0.79376 0.70865 0.0
C177 C 0.91882 0.77794 0.67375 0.0
N178 N 0.91752 0.78665 0.60947 0.0
O179 O 0.91088 0.75048 0.79509 0.0
H180 H 0.89821 0.7999 0.74152 0.0
H181 H 0.92516 0.76879 0.67517 0.0
O182 O 0.93754 0.78659 0.84887 0.0
C183 C 0.89427 0.73755 0.77272 0.0
O184 O 0.87991 0.74104 0.77719 0.0
N185 N 0.90555 0.79138 0.87843 0.0
C186 C 0.89247 0.81572 0.93054 0.0
C187 C 0.91203 0.82116 0.93636 0.0
C188 C 0.91832 0.8087 0.91008 0.0
C189 C 0.88635 0.78539 0.87789 0.0
C190 C 0.87955 0.79743 0.90221 0.0
H191 H 0.93333 0.81305 0.91601 0.0
H192 H 0.87633 0.77133 0.85536 0.0
H193 H 0.93038 0.7845 0.9961 0.0
H194 H 0.88552 0.73113 0.07342 0.0
H195 H 0.90516 0.80496 0.59355 0.0
H196 H 0.92238 0.83504 0.95955 0.0
H197 H 0.86427 0.79247 0.89869 0.0
C198 C 0.82405 0.60425 0.36052 0.0
C199 C 0.82772 0.60608 0.28264 0.0
N200 N 0.82546 0.58929 0.25649 0.0
N201 N 0.81962 0.58645 0.38313 0.0
C202 C 0.82071 0.57774 0.31875 0.0
H203 H 0.82385 0.61494 0.39755 0.0
Co204 Co 0.81131 0.5755 0.47913 0.0
C205 C 0.82192 0.54472 0.49087 0.0
O206 O 0.80758 0.53468 0.53846 0.0
N207 N 0.80276 0.56456 0.57792 0.0
C208 C 0.78491 0.55015 0.68154 0.0
C209 C 0.78455 0.55329 0.60405 0.0
C210 C 0.81386 0.56787 0.64103 0.0
N211 N 0.80337 0.5595 0.70477 0.0
O212 O 0.83437 0.59629 0.52348 0.0
H213 H 0.7716 0.54802 0.57035 0.0
H214 H 0.82939 0.57661 0.64082 0.0
O215 O 0.82444 0.56062 0.46356 0.0
C216 C 0.83047 0.60812 0.55631 0.0
O217 O 0.81256 0.60451 0.55584 0.0
N218 N 0.78799 0.55685 0.43477 0.0
C219 C 0.75047 0.53472 0.37773 0.0
C220 C 0.76356 0.52783 0.37553 0.0
C221 C 0.78235 0.53919 0.40409 0.0
C222 C 0.77578 0.56404 0.43427 0.0
C223 C 0.75699 0.55318 0.40761 0.0
H224 H 0.79221 0.53377 0.4003 0.0
H225 H 0.78058 0.57818 0.45763 0.0
H226 H 0.81749 0.56297 0.31726 0.0
H227 H 0.83073 0.61841 0.24743 0.0
H228 H 0.77248 0.5425 0.71863 0.0
H229 H 0.75943 0.51391 0.35129 0.0
H230 H 0.74757 0.55918 0.41237 0.0
C231 C 0.42315 0.20839 0.33265 0.0
C232 C 0.41859 0.20637 0.25577 0.0
N233 N 0.42445 0.22395 0.22578 0.0
N234 N 0.43188 0.22715 0.35126 0.0
C235 C 0.43209 0.23623 0.28542 0.0
H236 H 0.42138 0.19707 0.3715 0.0
Co237 Co 0.44373 0.2372 0.44564 0.0
C238 C 0.47686 0.27376 0.37911 0.0
O239 O 0.48935 0.26813 0.39374 0.0
N240 N 0.45475 0.24685 0.54218 0.0
C241 C 0.4725 0.263 0.64289 0.0
C242 C 0.47222 0.26116 0.56434 0.0
C243 C 0.44481 0.24016 0.60865 0.0
N244 N 0.45518 0.24983 0.67079 0.0
O245 O 0.42352 0.2428 0.47126 0.0
H246 H 0.48415 0.26994 0.52724 0.0
H247 H 0.43002 0.22859 0.61101 0.0
O248 O 0.45913 0.26317 0.39846 0.0
C249 C 0.40716 0.22803 0.48526 0.0
O250 O 0.40525 0.2109 0.47839 0.0
N251 N 0.46257 0.2298 0.42279 0.0
C252 C 0.48455 0.21238 0.38881 0.0
C253 C 0.48043 0.22213 0.33177 0.0
C254 C 0.46942 0.23067 0.34975 0.0
C255 C 0.46638 0.22018 0.47882 0.0
C256 C 0.47767 0.21173 0.46347 0.0
H257 H 0.4663 0.23788 0.30426 0.0
H258 H 0.46005 0.21826 0.53531 0.0
H259 H 0.43872 0.25166 0.28028 0.0
H260 H 0.41278 0.19314 0.22347 0.0
H261 H 0.48464 0.27321 0.6767 0.0
H262 H 0.48546 0.22294 0.2733 0.0
H263 H 0.48016 0.20393 0.50872 0.0
C264 C 0.81678 0.21979 0.38845 0.0
C265 C 0.8206 0.21973 0.31128 0.0
N266 N 0.80376 0.20889 0.27463 0.0
N267 N 0.79763 0.2092 0.40017 0.0
C268 C 0.79011 0.20242 0.33007 0.0
H269 H 0.82717 0.22783 0.43276 0.0
Co270 Co 0.78568 0.20798 0.49318 0.0
C271 C 0.74745 0.20153 0.44533 0.0
O272 O 0.75077 0.21635 0.48805 0.0
N273 N 0.77413 0.2062 0.59004 0.0
C274 C 0.7543 0.19284 0.68981 0.0
C275 C 0.75577 0.19366 0.61126 0.0
C276 C 0.78363 0.21217 0.65779 0.0
N277 N 0.7719 0.20428 0.71929 0.0
O278 O 0.78286 0.18312 0.51235 0.0
H279 H 0.74441 0.18398 0.57344 0.0
H280 H 0.79915 0.2204 0.66206 0.0
O281 O 0.76003 0.19611 0.44239 0.0
C282 C 0.79691 0.18446 0.55162 0.0
O283 O 0.81082 0.20156 0.57154 0.0
N284 N 0.79035 0.23349 0.47434 0.0
C285 C 0.80548 0.27226 0.43357 0.0
C286 C 0.79343 0.25759 0.38323 0.0
C287 C 0.78611 0.23839 0.40441 0.0
C288 C 0.80191 0.24767 0.52437 0.0
C289 C 0.80932 0.26711 0.50577 0.0
H290 H 0.77776 0.22752 0.36247 0.0
H291 H 0.80656 0.24418 0.57694 0.0
H292 H 0.77482 0.19413 0.31885 0.0
H293 H 0.8346 0.2276 0.28403 0.0
H294 H 0.74146 0.18343 0.72238 0.0
H295 H 0.79014 0.26092 0.32676 0.0
H296 H 0.81895 0.27802 0.54565 0.0
C297 C 0.94352 0.4664 0.3116 0.0
C298 C 0.94798 0.46726 0.38834 0.0
N299 N 0.94149 0.47775 0.42459 0.0
N300 N 0.93424 0.47628 0.29925 0.0
C301 C 0.93354 0.48334 0.36887 0.0
H302 H 0.94592 0.45821 0.26817 0.0
Co303 Co 0.9226 0.47604 0.20603 0.0
C304 C 0.88948 0.47982 0.2616 0.0
O305 O 0.87773 0.46386 0.22535 0.0
N306 N 0.91204 0.47633 0.10968 0.0
C307 C 0.90209 0.48598 0.00815 0.0
C308 C 0.90205 0.48497 0.08689 0.0
C309 C 0.9185 0.47284 0.04309 0.0
N310 N 0.91263 0.47853 0.98051 0.0
O311 O 0.94332 0.50154 0.18281 0.0
H312 H 0.89666 0.492 0.12362 0.0
H313 H 0.92872 0.46775 0.04108 0.0
O314 O 0.90774 0.48669 0.25677 0.0
C315 C 0.95855 0.50195 0.15858 0.0
O316 O 0.95902 0.48586 0.15591 0.0
N317 N 0.90295 0.45004 0.22711 0.0
C318 C 0.87887 0.41088 0.26332 0.0
C319 C 0.88271 0.42525 0.31759 0.0
C320 C 0.89473 0.44458 0.29857 0.0
C321 C 0.89948 0.43627 0.17369 0.0
C322 C 0.88727 0.41673 0.19001 0.0
H323 H 0.89766 0.45516 0.34245 0.0
H324 H 0.90666 0.44019 0.11873 0.0
H325 H 0.92595 0.49108 0.37967 0.0
H326 H 0.95478 0.46005 0.41561 0.0
H327 H 0.89576 0.49274 0.97426 0.0
H328 H 0.87711 0.42169 0.37563 0.0
H329 H 0.88477 0.40634 0.14558 0.0
C330 C 0.53682 0.46252 0.23478 0.0
C331 C 0.53405 0.46315 0.3125 0.0
N332 N 0.53652 0.44949 0.34707 0.0
N333 N 0.54102 0.44854 0.22039 0.0
C334 C 0.54059 0.44074 0.28988 0.0
H335 H 0.5368 0.47232 0.19206 0.0
Co336 Co 0.54941 0.44469 0.12628 0.0
C337 C 0.53821 0.40307 0.12119 0.0
O338 O 0.55086 0.4064 0.06668 0.0
N339 N 0.55838 0.44152 0.02849 0.0
C340 C 0.57804 0.44618 0.92968 0.0
C341 C 0.57689 0.44781 0.00766 0.0
C342 C 0.54855 0.43563 0.96117 0.0
N343 N 0.56024 0.4387 0.9004 0.0
O344 O 0.52601 0.4414 0.08032 0.0
H345 H 0.58923 0.45421 0.04516 0.0
H346 H 0.53329 0.43044 0.95548 0.0
O347 O 0.53671 0.41698 0.14915 0.0
C348 C 0.52827 0.45582 0.0409 0.0
O349 O 0.54577 0.47036 0.03042 0.0
N350 N 0.57276 0.45007 0.17286 0.0
C351 C 0.6102 0.46568 0.23132 0.0
C352 C 0.59734 0.44571 0.23313 0.0
C353 C 0.57861 0.43815 0.20375 0.0
C354 C 0.58475 0.46945 0.1733 0.0
C355 C 0.6035 0.4775 0.20094 0.0
H356 H 0.569 0.42285 0.20631 0.0
H357 H 0.57982 0.47868 0.14918 0.0
H358 H 0.5446 0.42985 0.29905 0.0
H359 H 0.53129 0.47341 0.34173 0.0
H360 H 0.59113 0.4512 0.89639 0.0
H361 H 0.60163 0.43599 0.25745 0.0
H362 H 0.61276 0.49291 0.19642 0.0
C363 C 0.55164 0.0787 0.29814 0.0
C364 C 0.55166 0.0745 0.37471 0.0
N365 N 0.57009 0.08209 0.39761 0.0
N366 N 0.56996 0.08876 0.27269 0.0
C367 C 0.5809 0.09052 0.33449 0.0
H368 H 0.53911 0.07554 0.26406 0.0
Co369 Co 0.57681 0.09966 0.17541 0.0
C370 C 0.61564 0.1341 0.20701 0.0
O371 O 0.6098 0.14563 0.18065 0.0
N372 N 0.58335 0.11043 0.07473 0.0
C373 C 0.59045 0.12885 0.96966 0.0
C374 C 0.58729 0.12786 0.04757 0.0
C375 C 0.58374 0.10104 0.01095 0.0
N376 N 0.58818 0.11189 0.94681 0.0
O377 O 0.58239 0.07959 0.14548 0.0
H378 H 0.58693 0.13902 0.08064 0.0
H379 H 0.58038 0.08631 0.01056 0.0
O380 O 0.60399 0.11594 0.20852 0.0
C381 C 0.56741 0.06308 0.13704 0.0
O382 O 0.55041 0.0613 0.14889 0.0
N383 N 0.56935 0.11765 0.20536 0.0
C384 C 0.55197 0.13899 0.25058 0.0
C385 C 0.56688 0.13924 0.29427 0.0
C386 C 0.57525 0.12834 0.27111 0.0
C387 C 0.55437 0.11658 0.16419 0.0
C388 C 0.54591 0.12751 0.18427 0.0
H389 H 0.5861 0.12809 0.30723 0.0
H390 H 0.54891 0.10712 0.11509 0.0
H391 H 0.59647 0.09859 0.33438 0.0
H392 H 0.53915 0.06765 0.41189 0.0
H393 H 0.59321 0.14076 0.93226 0.0
H394 H 0.57168 0.14726 0.34734 0.0
H395 H 0.53461 0.12678 0.14789 0.0
C396 C 0.46867 0.93017 0.70266 0.0
C397 C 0.47144 0.93469 0.62567 0.0
N398 N 0.48387 0.92947 0.59781 0.0
N399 N 0.47927 0.92211 0.72327 0.0
C400 C 0.48864 0.92219 0.65865 0.0
H401 H 0.45877 0.93167 0.74042 0.0
Co402 Co 0.47804 0.91103 0.81872 0.0
C403 C 0.48232 0.87803 0.75603 0.0
O404 O 0.46425 0.86515 0.76935 0.0
N405 N 0.47716 0.90066 0.91594 0.0
C406 C 0.47505 0.88316 0.01862 0.0
C407 C 0.47303 0.88301 0.94014 0.0
C408 C 0.48139 0.91115 0.98087 0.0
N409 N 0.4804 0.90093 0.04417 0.0
O410 O 0.50399 0.93134 0.84159 0.0
H411 H 0.46858 0.87062 0.90445 0.0
H412 H 0.48533 0.92614 0.98129 0.0
O413 O 0.48877 0.89565 0.77402 0.0
C414 C 0.50688 0.94839 0.8486 0.0
O415 O 0.4926 0.95164 0.83564 0.0
N416 N 0.45181 0.89202 0.7987 0.0
C417 C 0.41209 0.86883 0.77118 0.0
C418 C 0.42565 0.87229 0.71314 0.0
C419 C 0.44534 0.88407 0.72768 0.0
C420 C 0.43877 0.88909 0.85527 0.0
C421 C 0.41898 0.87734 0.84324 0.0
H422 H 0.45539 0.8869 0.68126 0.0
H423 H 0.44357 0.89634 0.90983 0.0
H424 H 0.49809 0.91622 0.65546 0.0
H425 H 0.46383 0.94013 0.59195 0.0
H426 H 0.47241 0.87098 0.05411 0.0
H427 H 0.42111 0.86651 0.65592 0.0
H428 H 0.40917 0.87521 0.89001 0.0
C429 C 0.09229 0.5441 0.70704 0.0
C430 C 0.08781 0.54187 0.63008 0.0
N431 N 0.09231 0.55916 0.60046 0.0
N432 N 0.09965 0.56271 0.72596 0.0
C433 C 0.09908 0.57145 0.66039 0.0
H434 H 0.09142 0.53312 0.74577 0.0
Co435 Co 0.11097 0.57335 0.82014 0.0
C436 C 0.14312 0.6106 0.754 0.0
O437 O 0.15629 0.60613 0.77264 0.0
N438 N 0.12147 0.58354 0.91648 0.0
C439 C 0.13755 0.60079 0.01817 0.0
C440 C 0.13774 0.59936 0.93954 0.0
C441 C 0.11172 0.57563 0.98235 0.0
N442 N 0.12109 0.58589 0.0451 0.0
O443 O 0.0898 0.57762 0.84435 0.0
H444 H 0.149 0.60965 0.90306 0.0
H445 H 0.0977 0.5628 0.98369 0.0
O446 O 0.1254 0.59931 0.77175 0.0
C447 C 0.07381 0.56237 0.85833 0.0
O448 O 0.07277 0.54562 0.8509 0.0
N449 N 0.13078 0.56723 0.79922 0.0
C450 C 0.15496 0.55194 0.76956 0.0
C451 C 0.15074 0.56151 0.71175 0.0
C452 C 0.13847 0.56878 0.72736 0.0
C453 C 0.13458 0.55776 0.85581 0.0
C454 C 0.14679 0.55028 0.8426 0.0
H455 H 0.13505 0.57558 0.68106 0.0
H456 H 0.12761 0.55529 0.9112 0.0
H457 H 0.10447 0.58672 0.65585 0.0
H458 H 0.08299 0.52879 0.59759 0.0
H459 H 0.14872 0.61202 0.05259 0.0
H460 H 0.15628 0.56276 0.65391 0.0
H461 H 0.14952 0.54297 0.88913 0.0
C462 C 0.47931 0.55915 0.73286 0.0
C463 C 0.48306 0.5594 0.6554 0.0
N464 N 0.46633 0.54773 0.61936 0.0
N465 N 0.46031 0.54757 0.74526 0.0
C466 C 0.45284 0.54056 0.67535 0.0
H467 H 0.48959 0.56754 0.77696 0.0
Co468 Co 0.44792 0.54488 0.83847 0.0
C469 C 0.40923 0.53718 0.78754 0.0
O470 O 0.41096 0.55122 0.83168 0.0
N471 N 0.43583 0.54166 0.93504 0.0
C472 C 0.41573 0.52762 0.03357 0.0
C473 C 0.4175 0.52868 0.95495 0.0
C474 C 0.44498 0.5477 0.00334 0.0
N475 N 0.43311 0.53949 0.06409 0.0
O476 O 0.44586 0.52014 0.85202 0.0
H477 H 0.40638 0.5191 0.916 0.0
H478 H 0.46044 0.55635 0.00873 0.0
O479 O 0.42263 0.53289 0.78613 0.0
C480 C 0.45919 0.52082 0.89419 0.0
O481 O 0.47223 0.53743 0.9223 0.0
N482 N 0.4518 0.57022 0.82503 0.0
C483 C 0.46598 0.60934 0.79319 0.0
C484 C 0.45395 0.59516 0.7409 0.0
C485 C 0.44724 0.57579 0.75736 0.0
C486 C 0.4634 0.5839 0.87667 0.0
C487 C 0.47033 0.60345 0.86262 0.0
H488 H 0.43922 0.56539 0.71337 0.0
H489 H 0.46862 0.58001 0.92652 0.0
H490 H 0.43762 0.53136 0.66472 0.0
H491 H 0.4969 0.56792 0.62762 0.0
H492 H 0.40286 0.51796 0.0655 0.0
H493 H 0.45032 0.59902 0.68621 0.0
H494 H 0.48011 0.61391 0.90357 0.0
C495 C 0.6168 0.82466 0.66665 0.0
C496 C 0.61864 0.8285 0.74422 0.0
N497 N 0.6014 0.82487 0.77163 0.0
N498 N 0.59852 0.81875 0.64535 0.0
C499 C 0.58952 0.81913 0.71033 0.0
H500 H 0.62787 0.82533 0.62901 0.0
Co501 Co 0.58773 0.80959 0.54998 0.0
C502 C 0.55696 0.82019 0.53013 0.0
O503 O 0.54791 0.80636 0.47991 0.0
N504 N 0.57711 0.80013 0.45184 0.0
C505 C 0.56324 0.78135 0.35047 0.0
C506 C 0.56645 0.7817 0.4282 0.0
C507 C 0.58014 0.81063 0.38694 0.0
N508 N 0.572 0.79957 0.32461 0.0
O509 O 0.60851 0.83239 0.50269 0.0
H510 H 0.56166 0.76911 0.46389 0.0
H511 H 0.58835 0.82616 0.38506 0.0
O512 O 0.57242 0.82253 0.56172 0.0
C513 C 0.62051 0.82865 0.46993 0.0
O514 O 0.61732 0.81093 0.47268 0.0
N515 N 0.56894 0.7866 0.59705 0.0
C516 C 0.5452 0.74914 0.65067 0.0
C517 C 0.53852 0.76232 0.64847 0.0
C518 C 0.55066 0.78108 0.62145 0.0
C519 C 0.57604 0.7744 0.60445 0.0
C520 C 0.56439 0.75558 0.63016 0.0
H521 H 0.54517 0.79086 0.61997 0.0
H522 H 0.59069 0.77913 0.58664 0.0
H523 H 0.57437 0.81467 0.71302 0.0
H524 H 0.63137 0.83254 0.77849 0.0
H525 H 0.55589 0.76863 0.31513 0.0
H526 H 0.52385 0.75798 0.6649 0.0
H527 H 0.57028 0.74603 0.63267 0.0
C528 C 0.19599 0.79594 0.62029 0.0
C529 C 0.19318 0.79619 0.69817 0.0
N530 N 0.1979 0.78404 0.73244 0.0
N531 N 0.20248 0.78369 0.60531 0.0
C532 C 0.20328 0.77648 0.67479 0.0
H533 H 0.19457 0.80506 0.57809 0.0
Co534 Co 0.21249 0.78157 0.51136 0.0
C535 C 0.19934 0.73934 0.49476 0.0
O536 O 0.21045 0.74224 0.43483 0.0
N537 N 0.22298 0.78027 0.41501 0.0
C538 C 0.24375 0.78957 0.31723 0.0
C539 C 0.24185 0.79008 0.39551 0.0
C540 C 0.21375 0.7738 0.34679 0.0
N541 N 0.22606 0.77944 0.28661 0.0
O542 O 0.19006 0.77926 0.45947 0.0
H543 H 0.25358 0.79847 0.43438 0.0
H544 H 0.19825 0.76641 0.34049 0.0
O545 O 0.19942 0.75359 0.52778 0.0
C546 C 0.1941 0.7948 0.42417 0.0
O547 O 0.21177 0.80939 0.42834 0.0
N548 N 0.2351 0.78584 0.56213 0.0
C549 C 0.27173 0.79944 0.62578 0.0
C550 C 0.26035 0.78006 0.6044 0.0
C551 C 0.242 0.7735 0.57273 0.0
C552 C 0.24578 0.80455 0.58408 0.0
C553 C 0.26403 0.81163 0.61603 0.0
H554 H 0.23377 0.75874 0.55508 0.0
H555 H 0.24027 0.81424 0.5742 0.0
H556 H 0.20925 0.76714 0.6836 0.0
H557 H 0.18894 0.80535 0.72772 0.0
H558 H 0.25705 0.79714 0.28482 0.0
H559 H 0.26563 0.77009 0.61139 0.0
H560 H 0.27232 0.82674 0.63014 0.0
C561 C 0.22847 0.41096 0.61148 0.0
C562 C 0.22838 0.4079 0.68939 0.0
N563 N 0.24116 0.42459 0.72269 0.0
N564 N 0.24123 0.42951 0.59571 0.0
C565 C 0.24887 0.43742 0.66455 0.0
H566 H 0.21904 0.4006 0.56966 0.0
Co567 Co 0.24379 0.44156 0.50152 0.0
C568 C 0.28589 0.47151 0.48919 0.0
O569 O 0.28318 0.48008 0.43005 0.0
N570 N 0.24565 0.45341 0.40451 0.0
C571 C 0.23741 0.46581 0.30669 0.0
C572 C 0.23657 0.4632 0.38484 0.0
C573 C 0.25211 0.45053 0.33638 0.0
N574 N 0.24699 0.45766 0.27612 0.0
O575 O 0.24713 0.42182 0.45281 0.0
H576 H 0.22844 0.46699 0.42337 0.0
H577 H 0.25903 0.44198 0.33006 0.0
O578 O 0.2716 0.45687 0.52007 0.0
C579 C 0.23279 0.40974 0.41314 0.0
O580 O 0.21789 0.41226 0.40489 0.0
N581 N 0.23863 0.45942 0.55077 0.0
C582 C 0.22403 0.48133 0.61635 0.0
C583 C 0.24372 0.48967 0.5984 0.0
C584 C 0.25079 0.47843 0.56588 0.0
C585 C 0.21958 0.45106 0.56899 0.0
C586 C 0.21199 0.46169 0.60178 0.0
H587 H 0.26586 0.48522 0.55195 0.0
H588 H 0.21009 0.43604 0.55605 0.0
H589 H 0.25875 0.45262 0.67259 0.0
H590 H 0.219 0.39464 0.71961 0.0
H591 H 0.23028 0.47201 0.27425 0.0
H592 H 0.25357 0.50475 0.60929 0.0
H593 H 0.19667 0.45465 0.61336 0.0
H594 H 0.15242 0.21076 0.53773 0.0
H595 H 0.14116 0.27621 0.85277 0.0
H596 H 0.137 0.25359 0.47997 0.0
H597 H 0.14097 0.22358 0.90651 0.0
H598 H 0.14019 0.26881 0.71576 0.0
H599 H 0.14898 0.21581 0.67415 0.0
C600 C 0.14813 0.22109 0.55407 0.0
C601 C 0.14494 0.23173 0.498 0.0
C602 C 0.1403 0.25889 0.7578 0.0
C603 C 0.14119 0.2378 0.65323 0.0
C604 C 0.14084 0.2631 0.83592 0.0
C605 C 0.14146 0.25068 0.89135 0.0
C606 C 0.14048 0.2422 0.73518 0.0
C607 C 0.14109 0.23389 0.86614 0.0
C608 C 0.14612 0.22396 0.63166 0.0
C609 C 0.13934 0.24493 0.5216 0.0
N610 N 0.14074 0.23023 0.78999 0.0
N611 N 0.13783 0.24775 0.59766 0.0
H612 H 0.75916 0.90025 0.46714 0.0
H613 H 0.79617 0.93132 0.89713 0.0
H614 H 0.81815 0.94023 0.52731 0.0
H615 H 0.74151 0.88179 0.84023 0.0
H616 H 0.80175 0.93977 0.7611 0.0
H617 H 0.75009 0.89846 0.60242 0.0
C618 C 0.77015 0.90892 0.5086 0.0
C619 C 0.7895 0.92025 0.48625 0.0
C620 C 0.78842 0.92718 0.77845 0.0
C621 C 0.77925 0.91813 0.64087 0.0
C622 C 0.78515 0.92242 0.85622 0.0
C623 C 0.7684 0.9057 0.87993 0.0
C624 C 0.77486 0.91516 0.72401 0.0
C625 C 0.75474 0.8946 0.8241 0.0
C626 C 0.76498 0.90779 0.58583 0.0
C627 C 0.80315 0.93106 0.54249 0.0
N628 N 0.75834 0.89944 0.74854 0.0
N629 N 0.79779 0.92963 0.61736 0.0
H630 H 0.1612 0.90627 0.77933 0.0
H631 H 0.08691 0.84774 0.44358 0.0
H632 H 0.10921 0.85176 0.81289 0.0
H633 H 0.13855 0.90234 0.40699 0.0
H634 H 0.09574 0.84848 0.57776 0.0
H635 H 0.15434 0.9043 0.64194 0.0
C636 C 0.14847 0.89374 0.75786 0.0
C637 C 0.13572 0.87916 0.80811 0.0
C638 C 0.10518 0.86032 0.54056 0.0
C639 C 0.12763 0.877 0.65053 0.0
C640 C 0.10006 0.85999 0.46381 0.0
C641 C 0.11188 0.87515 0.41391 0.0
C642 C 0.12228 0.87593 0.56819 0.0
C643 C 0.12904 0.89035 0.44334 0.0
C644 C 0.14449 0.89271 0.67929 0.0
C645 C 0.11929 0.86346 0.77667 0.0
N646 N 0.13368 0.89041 0.51868 0.0
N647 N 0.11569 0.86284 0.70007 0.0
H648 H 0.27584 0.14874 0.54512 0.0
H649 H 0.24548 0.15482 0.11273 0.0
H650 H 0.22287 0.14674 0.48024 0.0
H651 H 0.29442 0.14816 0.16722 0.0
H652 H 0.23876 0.15442 0.24885 0.0
H653 H 0.28404 0.14987 0.40868 0.0
C654 C 0.26583 0.1483 0.50228 0.0
C655 C 0.24863 0.14768 0.52404 0.0
C656 C 0.25104 0.15313 0.23132 0.0
C657 C 0.2581 0.14934 0.36838 0.0
C658 C 0.25506 0.15361 0.1533 0.0
C659 C 0.27066 0.15165 0.1283 0.0
C660 C 0.26266 0.15065 0.28528 0.0
C661 C 0.2822 0.1496 0.18405 0.0
C662 C 0.2706 0.1491 0.42448 0.0
C663 C 0.23638 0.14748 0.46607 0.0
N664 N 0.27796 0.14913 0.2601 0.0
N665 N 0.24137 0.14836 0.39107 0.0
H666 H 0.91975 0.13186 0.52249 0.0
H667 H 0.85756 0.08464 0.14998 0.0
H668 H 0.86349 0.08164 0.54484 0.0
H669 H 0.89315 0.14591 0.1765 0.0
H670 H 0.86199 0.08052 0.28789 0.0
H671 H 0.91315 0.13445 0.3872 0.0
C672 C 0.90607 0.12123 0.49852 0.0
C673 C 0.89218 0.10642 0.54459 0.0
C674 C 0.86865 0.09484 0.26333 0.0
C675 C 0.88452 0.10933 0.38979 0.0
C676 C 0.8662 0.09718 0.18502 0.0
C677 C 0.8749 0.11564 0.15232 0.0
C678 C 0.88034 0.11106 0.30817 0.0
C679 C 0.88599 0.13147 0.19976 0.0
C680 C 0.90225 0.12283 0.4216 0.0
C681 C 0.87453 0.09324 0.51097 0.0
N682 N 0.88858 0.12881 0.27501 0.0
N683 N 0.87122 0.09489 0.43511 0.0
H684 H 0.92903 0.79489 0.12072 0.0
H685 H 0.91628 0.75486 0.5501 0.0
H686 H 0.90721 0.73519 0.17757 0.0
H687 H 0.92861 0.81216 0.49187 0.0
H688 H 0.91967 0.74912 0.41457 0.0
H689 H 0.93572 0.80297 0.25653 0.0
C690 C 0.92598 0.78351 0.16154 0.0
C691 C 0.91732 0.76429 0.13793 0.0
C692 C 0.92186 0.76303 0.43159 0.0
C693 C 0.92468 0.77342 0.29361 0.0
C694 C 0.92006 0.76636 0.509 0.0
C695 C 0.92193 0.78394 0.53198 0.0
C696 C 0.9256 0.7774 0.37695 0.0
C697 C 0.92667 0.79828 0.4762 0.0
C698 C 0.92967 0.78813 0.2392 0.0
C699 C 0.91352 0.75014 0.1936 0.0
N700 N 0.92818 0.79464 0.40112 0.0
N701 N 0.91706 0.75496 0.269 0.0
H702 H 0.80502 0.55355 0.19546 0.0
H703 H 0.83417 0.59121 0.76371 0.0
H704 H 0.84518 0.61262 0.13654 0.0
H705 H 0.78752 0.53497 0.82475 0.0
H706 H 0.84254 0.5977 0.89965 0.0
H707 H 0.8027 0.5451 0.06011 0.0
C708 C 0.81361 0.56472 0.15429 0.0
C709 C 0.82526 0.58388 0.17748 0.0
C710 C 0.8306 0.58386 0.88322 0.0
C711 C 0.82238 0.57429 0.02181 0.0
C712 C 0.8259 0.58009 0.80556 0.0
C713 C 0.81 0.56256 0.78306 0.0
C714 C 0.81936 0.56999 0.93862 0.0
C715 C 0.79968 0.54876 0.83987 0.0
C716 C 0.81216 0.55989 0.07678 0.0
C717 C 0.83581 0.59775 0.12105 0.0
N718 N 0.80447 0.55281 0.9151 0.0
N719 N 0.83403 0.5927 0.04569 0.0
H720 H 0.40248 0.20118 0.10884 0.0
H721 H 0.46967 0.27595 0.78627 0.0
H722 H 0.45037 0.25763 0.15717 0.0
H723 H 0.42641 0.21735 0.73717 0.0
H724 H 0.46015 0.27058 0.92108 0.0
H725 H 0.40824 0.20807 0.97122 0.0
C726 C 0.4141 0.21506 0.09068 0.0
C727 C 0.42604 0.22874 0.14503 0.0
C728 C 0.45268 0.2589 0.88081 0.0
C729 C 0.43267 0.23676 0.98751 0.0
C730 C 0.45821 0.26192 0.80371 0.0
C731 C 0.44903 0.24701 0.7501 0.0
C732 C 0.43783 0.24083 0.90492 0.0
C733 C 0.43389 0.22928 0.77616 0.0
C734 C 0.41736 0.219 0.01208 0.0
C735 C 0.44067 0.24664 0.11793 0.0
N736 N 0.42885 0.22665 0.8518 0.0
N737 N 0.44365 0.25004 0.04121 0.0
H738 H 0.80301 0.23316 0.79095 0.0
H739 H 0.77447 0.17933 0.19908 0.0
H740 H 0.75386 0.17677 0.82901 0.0
H741 H 0.82535 0.23456 0.16337 0.0
H742 H 0.76737 0.17789 0.06198 0.0
H743 H 0.8122 0.23381 0.92588 0.0
C744 C 0.79418 0.22093 0.8275 0.0
C745 C 0.77752 0.205 0.79858 0.0
C746 C 0.78017 0.19029 0.08394 0.0
C747 C 0.78789 0.20562 0.95285 0.0
C748 C 0.78418 0.19112 0.16229 0.0
C749 C 0.80047 0.20711 0.19285 0.0
C750 C 0.79246 0.20562 0.03556 0.0
C751 C 0.81274 0.22188 0.14225 0.0
C752 C 0.79941 0.22131 0.9045 0.0
C753 C 0.76656 0.18956 0.84876 0.0
N754 N 0.80841 0.22084 0.06617 0.0
N755 N 0.77192 0.19029 0.92322 0.0
H756 H 0.92264 0.45448 0.91147 0.0
H757 H 0.93815 0.50554 0.49992 0.0
H758 H 0.91653 0.50415 0.86961 0.0
H759 H 0.94124 0.45398 0.53726 0.0
H760 H 0.93265 0.50664 0.63751 0.0
H761 H 0.93202 0.45543 0.77664 0.0
C762 C 0.92335 0.46562 0.87408 0.0
C763 C 0.91855 0.47909 0.90176 0.0
C764 C 0.93466 0.49514 0.61564 0.0
C765 C 0.92922 0.48028 0.74752 0.0
C766 C 0.93774 0.49449 0.53695 0.0
C767 C 0.94006 0.47959 0.50655 0.0
C768 C 0.93383 0.48077 0.66453 0.0
C769 C 0.93971 0.46584 0.5578 0.0
C770 C 0.92864 0.46613 0.79709 0.0
C771 C 0.91965 0.49319 0.85061 0.0
N772 N 0.93653 0.4667 0.63408 0.0
N773 N 0.92482 0.49338 0.7761 0.0
H774 H 0.52975 0.41122 0.82116 0.0
H775 H 0.55169 0.47775 0.45276 0.0
H776 H 0.5802 0.46724 0.79914 0.0
H777 H 0.52557 0.4164 0.42633 0.0
H778 H 0.55626 0.47428 0.58954 0.0
H779 H 0.52242 0.41287 0.68404 0.0
C780 C 0.53923 0.42379 0.78731 0.0
C781 C 0.55569 0.43902 0.82067 0.0
C782 C 0.54942 0.46156 0.5539 0.0
C783 C 0.54727 0.44121 0.66634 0.0
C784 C 0.54667 0.46351 0.47608 0.0
C785 C 0.53821 0.44732 0.42839 0.0
C786 C 0.54342 0.44326 0.58474 0.0
C787 C 0.53225 0.42921 0.4614 0.0
C788 C 0.53511 0.4247 0.70956 0.0
C789 C 0.56756 0.45509 0.77506 0.0
N790 N 0.53488 0.42762 0.53792 0.0
N791 N 0.56303 0.45583 0.70048 0.0
H792 H 0.60201 0.11224 0.45866 0.0
H793 H 0.56793 0.07584 0.8883 0.0
H794 H 0.55271 0.05733 0.5157 0.0
H795 H 0.60931 0.13442 0.82787 0.0
H796 H 0.56692 0.06669 0.75399 0.0
H797 H 0.60967 0.11811 0.59521 0.0
C798 C 0.59303 0.10122 0.49976 0.0
C799 C 0.57655 0.08434 0.47598 0.0
C800 C 0.57635 0.08152 0.77026 0.0
C801 C 0.58505 0.09112 0.63225 0.0
C802 C 0.57702 0.08674 0.84703 0.0
C803 C 0.58857 0.106 0.86913 0.0
C804 C 0.58735 0.09562 0.71527 0.0
C805 C 0.59992 0.11951 0.81294 0.0
C806 C 0.59732 0.10466 0.57778 0.0
C807 C 0.56534 0.07067 0.5319 0.0
N808 N 0.59894 0.11409 0.73845 0.0
N809 N 0.56968 0.07443 0.60759 0.0
H810 H 0.49391 0.9049 0.53278 0.0
H811 H 0.47823 0.9309 0.10598 0.0
H812 H 0.4827 0.95097 0.47909 0.0
H813 H 0.49117 0.88614 0.16208 0.0
H814 H 0.48298 0.94066 0.24062 0.0
H815 H 0.4965 0.90032 0.39624 0.0
C816 C 0.49232 0.91432 0.49256 0.0
C817 C 0.48788 0.92826 0.51783 0.0
C818 C 0.48489 0.92877 0.22333 0.0
C819 C 0.49041 0.92272 0.36048 0.0
C820 C 0.48225 0.92322 0.1463 0.0
C821 C 0.48406 0.9075 0.12263 0.0
C822 C 0.48936 0.91851 0.27716 0.0
C823 C 0.48917 0.89804 0.17784 0.0
C824 C 0.49366 0.91157 0.41423 0.0
C825 C 0.48576 0.9398 0.46229 0.0
N826 N 0.49151 0.90362 0.25251 0.0
N827 N 0.48685 0.93665 0.3862 0.0
H828 H 0.11516 0.59413 0.53357 0.0
H829 H 0.09493 0.55162 0.10903 0.0
H830 H 0.0726 0.53538 0.48186 0.0
H831 H 0.13221 0.61161 0.16197 0.0
H832 H 0.08513 0.54558 0.2439 0.0
H833 H 0.11984 0.60108 0.39692 0.0
C834 C 0.10651 0.58271 0.49383 0.0
C835 C 0.09353 0.56403 0.51989 0.0
C836 C 0.09538 0.56008 0.22582 0.0
C837 C 0.09927 0.57191 0.36211 0.0
C838 C 0.10096 0.56356 0.14866 0.0
C839 C 0.11462 0.58214 0.12394 0.0
C840 C 0.10355 0.57526 0.27873 0.0
C841 C 0.12201 0.59699 0.17838 0.0
C842 C 0.10934 0.5867 0.41536 0.0
C843 C 0.08303 0.54988 0.46467 0.0
N844 N 0.11647 0.5932 0.25314 0.0
N845 N 0.08626 0.55405 0.38842 0.0
H846 H 0.43776 0.51705 0.54581 0.0
H847 H 0.46351 0.56933 0.13467 0.0
H848 H 0.48665 0.57349 0.5064 0.0
H849 H 0.41539 0.51248 0.17604 0.0
H850 H 0.47292 0.5709 0.26949 0.0
H851 H 0.43007 0.51477 0.40911 0.0
C852 C 0.44692 0.52894 0.50833 0.0
C853 C 0.46281 0.54552 0.53776 0.0
C854 C 0.4603 0.55809 0.24896 0.0
C855 C 0.45411 0.54304 0.38088 0.0
C856 C 0.45495 0.55717 0.17195 0.0
C857 C 0.43858 0.5408 0.14383 0.0
C858 C 0.4492 0.54251 0.29831 0.0
C859 C 0.42791 0.52554 0.19511 0.0
C860 C 0.44255 0.52763 0.43019 0.0
C861 C 0.47436 0.56038 0.48622 0.0
N862 N 0.43341 0.52678 0.26969 0.0
N863 N 0.46971 0.55884 0.41038 0.0
H864 H 0.54703 0.78224 0.20761 0.0
H865 H 0.62431 0.84637 0.88862 0.0
H866 H 0.60272 0.83067 0.26106 0.0
H867 H 0.56644 0.8016 0.83667 0.0
H868 H 0.61595 0.84254 0.02535 0.0
H869 H 0.55299 0.79074 0.0713 0.0
C870 C 0.56045 0.79474 0.19058 0.0
C871 C 0.57444 0.80567 0.24554 0.0
C872 C 0.60502 0.83371 0.98392 0.0
C873 C 0.58145 0.81548 0.08987 0.0
C874 C 0.60982 0.83584 0.90596 0.0
C875 C 0.59611 0.82421 0.85119 0.0
C876 C 0.58642 0.81971 0.00732 0.0
C877 C 0.57745 0.81098 0.87666 0.0
C878 C 0.56383 0.79965 0.11288 0.0
C879 C 0.59149 0.82191 0.22066 0.0
N880 N 0.57321 0.80895 0.95292 0.0
N881 N 0.59461 0.8262 0.14451 0.0
H882 H 0.19828 0.74935 0.20691 0.0
H883 H 0.21077 0.81275 0.83622 0.0
H884 H 0.24266 0.80866 0.1849 0.0
H885 H 0.19157 0.7524 0.81342 0.0
H886 H 0.21681 0.81082 0.97272 0.0
H887 H 0.19027 0.74944 0.06969 0.0
C888 C 0.20631 0.76232 0.17305 0.0
C889 C 0.22127 0.77895 0.20659 0.0
C890 C 0.21119 0.79796 0.93797 0.0
C891 C 0.21201 0.77931 0.05174 0.0
C892 C 0.20759 0.79902 0.86027 0.0
C893 C 0.20059 0.78268 0.81364 0.0
C894 C 0.20752 0.78038 0.96987 0.0
C895 C 0.19704 0.76531 0.8476 0.0
C896 C 0.20181 0.76236 0.09517 0.0
C897 C 0.23125 0.79547 0.1608 0.0
N898 N 0.20044 0.76456 0.92402 0.0
N899 N 0.22634 0.79528 0.08599 0.0
H900 H 0.27375 0.44932 0.79924 0.0
H901 H 0.21716 0.44538 0.17827 0.0
H902 H 0.21313 0.40957 0.83058 0.0
H903 H 0.27628 0.45876 0.19291 0.0
H904 H 0.21654 0.43684 0.04327 0.0
H905 H 0.27624 0.45728 0.93727 0.0
C906 C 0.26104 0.44224 0.83529 0.0
C907 C 0.24324 0.42871 0.80378 0.0
C908 C 0.22967 0.44165 0.07586 0.0
C909 C 0.24588 0.43791 0.96002 0.0
C910 C 0.23008 0.44668 0.15261 0.0
C911 C 0.24686 0.45292 0.19631 0.0
C912 C 0.24625 0.44315 0.04183 0.0
C913 C 0.26311 0.45401 0.16076 0.0
C914 C 0.26248 0.44669 0.91372 0.0
C915 C 0.22716 0.41988 0.85269 0.0
N916 N 0.26249 0.44934 0.08503 0.0
N917 N 0.22883 0.42479 0.92806 0.0
H918 H 0.2428 0.38519 0.48104 0.0
H919 H 0.19295 0.30606 0.15066 0.0
H920 H 0.21973 0.39454 0.27195 0.0
H921 H 0.18796 0.29234 0.39229 0.0
H922 H 0.21424 0.3402 0.18222 0.0
H923 H 0.23401 0.35281 0.43538 0.0
C924 C 0.23647 0.38064 0.42453 0.0
C925 C 0.23185 0.39239 0.38022 0.0
C926 C 0.20894 0.3296 0.22802 0.0
C927 C 0.22194 0.35571 0.32776 0.0
C928 C 0.19699 0.31017 0.21 0.0
C929 C 0.18885 0.29651 0.26909 0.0
C930 C 0.21292 0.33522 0.30545 0.0
C931 C 0.19408 0.30254 0.34526 0.0
C932 C 0.23135 0.36219 0.3988 0.0
C933 C 0.22338 0.38579 0.3079 0.0
N934 N 0.2057 0.32147 0.3614 0.0
N935 N 0.2186 0.36785 0.28403 0.0
H936 H 0.71392 0.86943 0.15586 0.0
H937 H 0.6477 0.86588 0.50733 0.0
H938 H 0.73655 0.90849 0.34682 0.0
H939 H 0.63089 0.82343 0.3288 0.0
H940 H 0.67814 0.88632 0.43741 0.0
H941 H 0.68137 0.85773 0.20439 0.0
C942 C 0.71192 0.87588 0.20716 0.0
C943 C 0.72784 0.88995 0.24727 0.0
C944 C 0.66759 0.87269 0.41297 0.0
C945 C 0.69061 0.87606 0.30551 0.0
C946 C 0.65022 0.86113 0.45252 0.0
C947 C 0.63693 0.84295 0.42379 0.0
C948 C 0.67142 0.86601 0.3441 0.0
C949 C 0.64088 0.83729 0.35318 0.0
C950 C 0.69335 0.8691 0.23532 0.0
C951 C 0.72456 0.89773 0.31392 0.0
N952 N 0.65775 0.84869 0.31614 0.0
N953 N 0.70628 0.89043 0.34189 0.0
H954 H 0.15643 0.78493 0.45381 0.0
H955 H 0.15707 0.84627 0.08943 0.0
H956 H 0.20082 0.80934 0.28049 0.0
H957 H 0.11609 0.83064 0.2743 0.0
H958 H 0.16795 0.82527 0.14383 0.0
H959 H 0.13675 0.79449 0.37609 0.0
C960 C 0.16177 0.79183 0.39853 0.0
C961 C 0.18027 0.79654 0.37353 0.0
C962 C 0.15629 0.82603 0.17196 0.0
C963 C 0.15809 0.80749 0.28499 0.0
C964 C 0.14997 0.83788 0.14037 0.0
C965 C 0.13557 0.83996 0.1771 0.0
C966 C 0.14854 0.81655 0.2422 0.0
C967 C 0.12705 0.82912 0.24382 0.0
C968 C 0.15064 0.79739 0.3545 0.0
C969 C 0.18669 0.80566 0.30206 0.0
N970 N 0.13389 0.81809 0.27514 0.0
N971 N 0.1757 0.81092 0.2607 0.0
H972 H 0.40702 0.24445 0.62225 0.0
H973 H 0.2917 0.18643 0.63652 0.0
H974 H 0.37071 0.21283 0.43197 0.0
H975 H 0.32765 0.19532 0.83376 0.0
H976 H 0.32066 0.20687 0.55968 0.0
H977 H 0.37809 0.2372 0.69733 0.0
C978 C 0.393 0.23671 0.59523 0.0
C979 C 0.39115 0.22934 0.52076 0.0
C980 C 0.32216 0.20487 0.6204 0.0
C981 C 0.35817 0.22084 0.60604 0.0
C982 C 0.30566 0.19341 0.66434 0.0
C983 C 0.30739 0.18951 0.74161 0.0
C984 C 0.34046 0.21246 0.65423 0.0
C985 C 0.32579 0.19828 0.77454 0.0
C986 C 0.37652 0.23239 0.63828 0.0
C987 C 0.37267 0.21889 0.48904 0.0
N988 N 0.34166 0.20925 0.73055 0.0
N989 N 0.35688 0.21483 0.53196 0.0
H990 H 0.83004 0.11676 0.82747 0.0
H991 H 0.80655 0.1628 0.46232 0.0
H992 H 0.86384 0.13473 0.61936 0.0
H993 H 0.79254 0.16955 0.695 0.0
H994 H 0.81846 0.14172 0.50957 0.0
H995 H 0.80749 0.12565 0.76916 0.0
C996 C 0.83235 0.12202 0.76874 0.0
C997 C 0.84877 0.12513 0.72804 0.0
C998 C 0.81224 0.14736 0.54997 0.0
C999 C 0.82322 0.13517 0.66129 0.0
C1000 C 0.80528 0.15918 0.52294 0.0
C1001 C 0.7984 0.16764 0.57494 0.0
C1002 C 0.81225 0.14401 0.62944 0.0
C1003 C 0.79755 0.16304 0.65324 0.0
C1004 C 0.8196 0.12719 0.73577 0.0
C1005 C 0.85135 0.13224 0.6526 0.0
N1006 N 0.80454 0.15163 0.67832 0.0
N1007 N 0.83877 0.13709 0.62173 0.0
H1008 H 0.91295 0.72611 0.67004 0.0
H1009 H 0.82665 0.61728 0.70112 0.0
H1010 H 0.8652 0.70459 0.82848 0.0
H1011 H 0.86618 0.63718 0.50976 0.0
H1012 H 0.84628 0.64794 0.76504 0.0
H1013 H 0.90118 0.69286 0.6253 0.0
C1014 C 0.90029 0.71434 0.69651 0.0
C1015 C 0.88993 0.71797 0.75264 0.0
C1016 C 0.85092 0.64564 0.70953 0.0
C1017 C 0.87652 0.68028 0.70256 0.0
C1018 C 0.83975 0.62808 0.67331 0.0
C1019 C 0.84482 0.62482 0.60019 0.0
C1020 C 0.86708 0.66037 0.67161 0.0
C1021 C 0.86191 0.63921 0.56647 0.0
C1022 C 0.89353 0.69545 0.6708 0.0
C1023 C 0.87351 0.70238 0.78467 0.0
N1024 N 0.87231 0.65659 0.60187 0.0
N1025 N 0.86732 0.68431 0.75908 0.0
H1026 H 0.95815 0.51691 0.01888 0.0
H1027 H 0.07341 0.57756 -0.00215 0.0
H1028 H 0.99513 0.52412 0.21066 0.0
H1029 H 0.03704 0.54625 0.80723 0.0
H1030 H 0.04445 0.5687 0.07564 0.0
H1031 H 0.98671 0.53838 0.94168 0.0
C1032 C 0.97224 0.52371 0.04562 0.0
C1033 C 0.97438 0.51905 0.12136 0.0
C1034 C 0.04285 0.56432 0.01599 0.0
C1035 C 1.00698 0.54322 0.03355 0.0
C1036 C 0.05934 0.56955 0.97141 0.0
C1037 C 0.05752 0.56276 0.89592 0.0
C1038 C 0.02451 0.55244 0.98431 0.0
C1039 C 0.03898 0.55191 0.86501 0.0
C1040 C 0.98851 0.53576 0.00143 0.0
C1041 C 0.99295 0.52764 0.15273 0.0
N1042 N 0.02318 0.54698 0.90941 0.0
N1043 N 1.00857 0.53924 0.10858 0.0
H1044 H 0.46434 0.4983 0.79053 0.0
H1045 H 0.49516 0.44805 0.11635 0.0
H1046 H 0.46005 0.50606 0.03329 0.0
H1047 H 0.52478 0.46816 0.8996 0.0
H1048 H 0.47217 0.45827 0.07553 0.0
H1049 H 0.47634 0.47611 0.82041 0.0
C1050 C 0.46523 0.49473 0.84997 0.0
C1051 C 0.46117 0.50385 0.90968 0.0
C1052 C 0.48342 0.45995 0.03626 0.0
C1053 C 0.47483 0.47874 0.94412 0.0
C1054 C 0.4964 0.454 0.05922 0.0
C1055 C 0.51184 0.45736 0.01119 0.0
C1056 C 0.48576 0.46892 0.96432 0.0
C1057 C 0.51307 0.46543 0.93827 0.0
C1058 C 0.47222 0.48225 0.86698 0.0
C1059 C 0.46299 0.49918 0.98583 0.0
N1060 N 0.50027 0.47102 0.91712 0.0
N1061 N 0.46978 0.48702 0.00099 0.0
H1062 H 0.58699 0.06164 0.00898 0.0
H1063 H 0.52256 0.94719 0.98636 0.0
H1064 H 0.54829 0.02643 0.18893 0.0
H1065 H 0.52967 0.98484 0.79664 0.0
H1066 H 0.54464 0.97537 0.06309 0.0
H1067 H 0.57842 0.03242 0.93505 0.0
C1068 C 0.57724 0.04779 0.03421 0.0
C1069 C 0.56805 0.04642 0.10458 0.0
C1070 C 0.54188 0.97733 0.0037 0.0
C1071 C 0.55864 0.01311 0.02148 0.0
C1072 C 0.52944 0.96129 0.9598 0.0
C1073 C 0.52437 0.96379 0.88521 0.0
C1074 C 0.54955 0.99585 0.97198 0.0
C1075 C 0.53331 0.98239 0.85395 0.0
C1076 C 0.57234 0.03115 0.99188 0.0
C1077 C 0.55557 0.02806 0.13458 0.0
N1078 N 0.54538 0.99775 0.89765 0.0
N1079 N 0.5511 0.01212 0.09264 0.0
H1080 H 0.14518 0.1742 0.14536 0.0
H1081 H 0.24017 0.18931 0.93296 0.0
H1082 H 0.1901 0.23078 0.07755 0.0
H1083 H 0.18544 0.13661 0.92787 0.0
H1084 H 0.2245 0.20494 6e-05 0.0
H1085 H 0.16222 0.16033 0.08024 0.0
C1086 C 0.15868 0.18375 0.11678 0.0
C1087 C 0.1662 0.20371 0.11689 0.0
C1088 C 0.21601 0.18997 0.98399 0.0
C1089 C 0.18596 0.18779 0.04217 0.0
C1090 C 0.22493 0.18103 0.9462 0.0
C1091 C 0.21408 0.16164 0.92453 0.0
C1092 C 0.19623 0.1793 0.00131 0.0
C1093 C 0.19438 0.1516 0.9429 0.0
C1094 C 0.16839 0.17578 0.07935 0.0
C1095 C 0.18375 0.21531 0.07852 0.0
N1096 N 0.18616 0.16049 0.98036 0.0
N1097 N 0.19313 0.20718 0.04295 0.0
H1098 H 0.85214 0.97137 0.11346 0.0
H1099 H 0.84088 0.05668 0.94534 0.0
H1100 H 0.7953 0.96455 0.09538 0.0
H1101 H 0.88178 0.04163 0.85482 0.0
H1102 H 0.82535 0.02621 0.01821 0.0
H1103 H 0.86502 1.00087 0.0382 0.0
C1104 C 0.84234 0.97614 0.09418 0.0
C1105 C 0.82257 0.96544 0.11093 0.0
C1106 C 0.83763 0.02961 0.98179 0.0
C1107 C 0.83741 0.99944 0.02476 0.0
C1108 C 0.84652 0.04696 0.94046 0.0
C1109 C 0.86263 0.05169 0.89373 0.0
C1110 C 0.84526 0.01724 0.97782 0.0
C1111 C 0.86935 0.03858 0.88964 0.0
C1112 C 0.84973 0.99294 0.05074 0.0
C1113 C 0.81062 0.97235 0.08365 0.0
N1114 N 0.8608 0.02211 0.93179 0.0
N1115 N 0.81826 0.98905 0.04229 0.0
H1116 H 0.96723 0.7865 0.91236 0.0
H1117 H 0.06097 0.88658 0.99029 0.0
H1118 H 0.98027 0.83855 0.79035 0.0
H1119 H 0.06166 0.8337 0.0239 0.0
H1120 H 0.02979 0.86871 0.92692 0.0
H1121 H 1.00028 0.80283 0.96348 0.0
C1122 C 0.97703 0.80127 0.89588 0.0
C1123 C 0.97091 0.81118 0.84716 0.0
C1124 C 0.03679 0.86098 0.94756 0.0
C1125 C 1.00849 0.82989 0.90607 0.0
C1126 C 0.05456 0.87117 0.98397 0.0
C1127 C 0.06389 0.86159 0.01237 0.0
C1128 C 0.02796 0.84094 0.94076 0.0
C1129 C 0.05495 0.84161 0.00234 0.0
C1130 C 0.99587 0.81053 0.92487 0.0
C1131 C 0.98425 0.8303 0.82774 0.0
N1132 N 0.03731 0.83185 0.96815 0.0
N1133 N 1.00228 0.83905 0.85785 0.0
H1134 H 0.86945 0.82499 0.84717 0.0
H1135 H 0.84844 0.87702 0.19152 0.0
H1136 H 0.89903 0.83622 0.06438 0.0
H1137 H 0.83367 0.88056 0.95582 0.0
H1138 H 0.86644 0.86148 0.14809 0.0
H1139 H 0.85559 0.84467 0.88726 0.0
C1140 C 0.87307 0.83169 0.9033 0.0
C1141 C 0.88531 0.82889 0.95275 0.0
C1142 C 0.85943 0.86583 0.10583 0.0
C1143 C 0.86938 0.85136 -0.00063 0.0
C1144 C 0.84908 0.87461 0.13059 0.0
C1145 C 0.83949 0.88004 0.07722 0.0
C1146 C 0.85996 0.86217 0.0272 0.0
C1147 C 0.84095 0.87674 -0.00109 0.0
C1148 C 0.86522 0.84299 0.92603 0.0
C1149 C 0.8897 0.83807 0.0245 0.0
N1150 N 0.8508 0.86785 0.97638 0.0
N1151 N 0.88155 0.84872 0.04608 0.0
H1152 H 0.18091 0.06567 0.99017 0.0
H1153 H 0.15972 0.95885 0.91895 0.0
H1154 H 0.21612 0.05234 0.84288 0.0
H1155 H 0.14225 0.97488 0.12762 0.0
H1156 H 0.17666 0.99255 0.87856 0.0
H1157 H 0.16311 0.03199 0.03054 0.0
C1158 C 0.18501 0.05579 0.9663 0.0
C1159 C 0.2002 0.06211 0.91278 0.0
C1160 C 0.1691 0.98871 0.93312 0.0
C1161 C 0.1794 0.02329 0.95781 0.0
C1162 C 0.15932 0.96947 0.95599 0.0
C1163 C 0.14949 0.96405 0.02663 0.0
C1164 C 0.16889 1.00269 0.98065 0.0
C1165 C 0.14971 0.97846 0.07286 0.0
C1166 C 0.17473 0.03652 0.98929 0.0
C1167 C 0.20437 0.04831 0.88295 0.0
N1168 N 0.15916 0.99714 0.04886 0.0
N1169 N 0.19402 0.02963 0.90564 0.0
H1170 H 0.96957 0.1175 0.96315 0.0
H1171 H 0.05669 0.21228 0.14763 0.0
H1172 H 0.96535 0.16624 0.04106 0.0
H1173 H 0.06074 0.16179 0.09723 0.0
H1174 H 0.02309 0.19514 0.10918 0.0
H1175 H 1.00261 0.13278 0.01283 0.0
C1176 C 0.97548 0.1313 0.99126 0.0
C1177 C 0.96465 0.14065 -0.00291 0.0
C1178 C 0.03124 0.18771 0.1069 0.0
C1179 C 1.00256 0.15833 0.05326 0.0
C1180 C 0.05049 0.19748 0.12957 0.0
C1181 C 0.06168 0.18847 0.12664 0.0
C1182 C 0.02292 0.16874 0.08025 0.0
C1183 C 0.05278 0.16941 0.1001 0.0
C1184 C 0.9944 0.14007 0.01922 0.0
C1185 C 0.97321 0.15863 0.03359 0.0
N1186 N 0.03396 0.16019 0.07782 0.0
N1187 N 0.9916 0.16687 0.0598 0.0
H1188 H 0.85415 0.464 0.32743 0.0
H1189 H 0.85483 0.56185 0.40147 0.0
H1190 H 0.90565 0.51864 0.29036 0.0
H1191 H 0.81588 0.50854 0.51602 0.0
H1192 H 0.87293 0.54684 0.35185 0.0
H1193 H 0.83903 0.48047 0.38824 0.0
C1194 C 0.86232 0.47951 0.33242 0.0
C1195 C 0.88117 0.48998 0.30367 0.0
C1196 C 0.86051 0.53855 0.3884 0.0
C1197 C 0.86379 0.50902 0.37258 0.0
C1198 C 0.85013 0.54706 0.41651 0.0
C1199 C 0.83374 0.53644 0.46285 0.0
C1200 C 0.85426 0.51921 0.40575 0.0
C1201 C 0.82837 0.51733 0.48053 0.0
C1202 C 0.85369 0.48891 0.36739 0.0
C1203 C 0.8911 0.51005 0.31212 0.0
N1204 N 0.83846 0.50932 0.45144 0.0
N1205 N 0.88221 0.51898 0.34504 0.0
H1206 H 0.54148 0.3718 0.08533 0.0
H1207 H 0.46103 0.29756 0.37584 0.0
H1208 H 0.51002 0.38949 0.23411 0.0
H1209 H 0.50851 0.29212 0.2884 0.0
H1210 H 0.47454 0.32903 0.31039 0.0
H1211 H 0.52495 0.34009 0.14429 0.0
C1212 C 0.53102 0.36903 0.13023 0.0
C1213 C 0.52727 0.38347 0.15502 0.0
C1214 C 0.4819 0.32085 0.30569 0.0
C1215 C 0.50814 0.34686 0.22311 0.0
C1216 C 0.47417 0.3029 0.34261 0.0
C1217 C 0.48374 0.29227 0.33802 0.0
C1218 C 0.49902 0.3279 0.26279 0.0
C1219 C 0.50073 0.29986 0.2943 0.0
C1220 C 0.5216 0.35087 0.16408 0.0
C1221 C 0.51344 0.37884 0.21341 0.0
N1222 N 0.50774 0.3171 0.25839 0.0
N1223 N 0.50436 0.36091 0.24562 0.0
H1224 H 0.72374 0.21519 0.40744 0.0
H1225 H 0.63497 0.11607 0.26458 0.0
H1226 H 0.72853 0.16414 0.39074 0.0
H1227 H 0.64169 0.17209 0.22173 0.0
H1228 H 0.66783 0.13185 0.31853 0.0
H1229 H 0.69224 0.19815 0.34761 0.0
C1230 C 0.71816 0.20034 0.39095 0.0
C1231 C 0.7288 0.19109 0.4043 0.0
C1232 C 0.66205 0.14058 0.2968 0.0
C1233 C 0.69236 0.17125 0.33558 0.0
C1234 C 0.6433 0.13161 0.26626 0.0
C1235 C 0.63547 0.14273 0.23866 0.0
C1236 C 0.67284 0.16076 0.30041 0.0
C1237 C 0.64696 0.16282 0.24225 0.0
C1238 C 0.70013 0.1906 0.35647 0.0
C1239 C 0.72081 0.17183 0.38116 0.0
N1240 N 0.6649 0.1711 0.27275 0.0
N1241 N 0.70294 0.16246 0.3484 0.0
H1242 H 0.56764 0.17374 0.32748 0.0
H1243 H 0.47654 0.18701 0.27184 0.0
H1244 H 0.51411 0.12964 0.22995 0.0
H1245 H 0.5157 0.21366 0.461 0.0
H1246 H 0.49309 0.16921 0.24025 0.0
H1247 H 0.55145 0.19157 0.36415 0.0
C1248 C 0.55252 0.16768 0.31399 0.0
C1249 C 0.54238 0.15009 0.27469 0.0
C1250 C 0.49806 0.17895 0.28867 0.0
C1251 C 0.52397 0.17085 0.31491 0.0
C1252 C 0.48872 0.18919 0.30639 0.0
C1253 C 0.4948 0.20183 0.36902 0.0
C1254 C 0.51385 0.1816 0.33298 0.0
C1255 C 0.51053 0.20398 0.41244 0.0
C1256 C 0.54334 0.17797 0.33471 0.0
C1257 C 0.52283 0.14331 0.25801 0.0
N1258 N 0.51964 0.19407 0.39326 0.0
N1259 N 0.51436 0.15374 0.27757 0.0
H1260 H 0.80906 0.30365 0.51128 0.0
H1261 H 0.88248 0.38034 0.21136 0.0
H1262 H 0.8245 0.28737 0.29828 0.0
H1263 H 0.8482 0.39347 0.36499 0.0
H1264 H 0.86383 0.34674 0.25041 0.0
H1265 H 0.82612 0.33734 0.46797 0.0
C1266 C 0.81602 0.30718 0.45545 0.0
C1267 C 0.81527 0.29269 0.40811 0.0
C1268 C 0.86037 0.357 0.27527 0.0
C1269 C 0.83496 0.33111 0.35872 0.0
C1270 C 0.87093 0.37626 0.25254 0.0
C1271 C 0.86703 0.39004 0.28456 0.0
C1272 C 0.84594 0.35137 0.3315 0.0
C1273 C 0.85211 0.38362 0.33949 0.0
C1274 C 0.82566 0.32635 0.43065 0.0
C1275 C 0.82451 0.29804 0.33619 0.0
N1276 N 0.84224 0.36483 0.36155 0.0
N1277 N 0.83409 0.3168 0.31398 0.0
H1278 H 0.72626 0.49518 0.38393 0.0
H1279 H 0.63224 0.5006 0.3019 0.0
H1280 H 0.72782 0.54726 0.30841 0.0
H1281 H 0.63485 0.45076 0.22587 0.0
H1282 H 0.66635 0.51631 0.33309 0.0
H1283 H 0.69197 0.47703 0.34919 0.0
C1284 C 0.71957 0.50283 0.35957 0.0
C1285 C 0.73008 0.52296 0.35062 0.0
C1286 C 0.65942 0.50192 0.30963 0.0
C1287 C 0.69074 0.50226 0.3133 0.0
C1288 C 0.63991 0.49291 0.29128 0.0
C1289 C 0.63054 0.47439 0.25913 0.0
C1290 C 0.66975 0.4923 0.29776 0.0
C1291 C 0.64132 0.465 0.25042 0.0
C1292 C 0.69997 0.49243 0.34028 0.0
C1293 C 0.72037 0.53195 0.31922 0.0
N1294 N 0.66038 0.47406 0.26956 0.0
N1295 N 0.70129 0.52161 0.30286 0.0
H1296 H 0.52256 0.81591 0.48347 0.0
H1297 H 0.52205 0.89532 0.75816 0.0
H1298 H 0.56966 0.84909 0.6388 0.0
H1299 H 0.47105 0.84628 0.66851 0.0
H1300 H 0.54174 0.88295 0.69932 0.0
H1301 H 0.50572 0.83168 0.53396 0.0
C1302 C 0.52947 0.82662 0.52795 0.0
C1303 C 0.54754 0.83102 0.55731 0.0
C1304 C 0.52624 0.875 0.69261 0.0
C1305 C 0.52815 0.84926 0.6156 0.0
C1306 C 0.51502 0.88207 0.72577 0.0
C1307 C 0.49487 0.87174 0.71866 0.0
C1308 C 0.51719 0.85774 0.65088 0.0
C1309 C 0.4865 0.85464 0.67621 0.0
C1310 C 0.51977 0.83559 0.55694 0.0
C1311 C 0.55572 0.84516 0.61472 0.0
N1312 N 0.49767 0.84825 0.64388 0.0
N1313 N 0.54594 0.85377 0.64222 0.0
H1314 H 0.17323 0.72647 0.61508 0.0
H1315 H 0.17344 0.62818 0.65661 0.0
H1316 H 0.20114 0.70751 0.45335 0.0
H1317 H 0.12709 0.6342 0.75278 0.0
H1318 H 0.18532 0.65878 0.59021 0.0
H1319 H 0.15745 0.69429 0.67442 0.0
C1320 C 0.17596 0.71556 0.59172 0.0
C1321 C 0.18863 0.71978 0.52922 0.0
C1322 C 0.17248 0.65342 0.6254 0.0
C1323 C 0.17081 0.68313 0.5973 0.0
C1324 C 0.16572 0.63596 0.66367 0.0
C1325 C 0.14929 0.62866 0.71057 0.0
C1326 C 0.16301 0.664 0.63492 0.0
C1327 C 0.13979 0.63932 0.71696 0.0
C1328 C 0.1669 0.69721 0.62548 0.0
C1329 C 0.19157 0.70504 0.50141 0.0
N1330 N 0.14693 0.65663 0.68025 0.0
N1331 N 0.18291 0.68752 0.53603 0.0
H1332 H 0.31507 0.50864 0.47535 0.0
H1333 H 0.39185 0.49982 0.73642 0.0
H1334 H 0.3002 0.45524 0.59002 0.0
H1335 H 0.38711 0.55099 0.72845 0.0
H1336 H 0.36206 0.48296 0.65989 0.0
H1337 H 0.34573 0.52417 0.54427 0.0
C1338 C 0.31833 0.50011 0.51437 0.0
C1339 C 0.30501 0.48061 0.52709 0.0
C1340 C 0.36765 0.49789 0.67496 0.0
C1341 C 0.34021 0.49831 0.60551 0.0
C1342 C 0.38463 0.50752 0.71813 0.0
C1343 C 0.39185 0.52678 0.73909 0.0
C1344 C 0.35824 0.50781 0.65097 0.0
C1345 C 0.38194 0.5361 0.71414 0.0
C1346 C 0.33579 0.50902 0.55392 0.0
C1347 C 0.31003 0.47033 0.57878 0.0
N1348 N 0.36574 0.52658 0.67098 0.0
N1349 N 0.32729 0.47929 0.61596 0.0
H1350 H 0.18728 0.56563 0.67775 0.0
H1351 H 0.19655 0.4713 0.72875 0.0
H1352 H 0.14977 0.51732 0.82169 0.0
H1353 H 0.23247 0.51783 0.57458 0.0
H1354 H 0.18095 0.48921 0.77048 0.0
H1355 H 0.20546 0.54952 0.64559 0.0
C1356 C 0.18285 0.55166 0.70268 0.0
C1357 C 0.16689 0.54285 0.75251 0.0
C1358 C 0.19231 0.49558 0.7278 0.0
C1359 C 0.18781 0.52437 0.71629 0.0
C1360 C 0.20119 0.48531 0.7037 0.0
C1361 C 0.21575 0.49296 0.64746 0.0
C1362 C 0.19793 0.51368 0.69548 0.0
C1363 C 0.2214 0.51138 0.61835 0.0
C1364 C 0.19331 0.54251 0.68455 0.0
C1365 C 0.16208 0.52484 0.78389 0.0
N1366 N 0.2124 0.52105 0.64226 0.0
N1367 N 0.17242 0.51621 0.76503 0.0
H1368 H 0.4722 0.64015 0.88311 0.0
H1369 H 0.54105 0.71787 0.57347 0.0
H1370 H 0.48226 0.62589 0.65513 0.0
H1371 H 0.51968 0.73355 0.77195 0.0
H1372 H 0.52057 0.68405 0.60694 0.0
H1373 H 0.49032 0.67436 0.84799 0.0
C1374 C 0.47811 0.6442 0.82561 0.0
C1375 C 0.47563 0.63009 0.77192 0.0
C1376 C 0.52026 0.69484 0.64319 0.0
C1377 C 0.49648 0.66916 0.73166 0.0
C1378 C 0.53206 0.71417 0.62435 0.0
C1379 C 0.53219 0.72856 0.67032 0.0
C1380 C 0.50856 0.68971 0.70912 0.0
C1381 C 0.51998 0.7229 0.73489 0.0
C1382 C 0.48838 0.66371 0.80555 0.0
C1383 C 0.48354 0.63618 0.69813 0.0
N1384 N 0.50877 0.7039 0.75282 0.0
N1385 N 0.4937 0.6552 0.68049 0.0
H1386 H 0.29945 0.79108 0.57692 0.0
H1387 H 0.38327 0.87493 0.82475 0.0
H1388 H 0.29007 0.82607 0.73974 0.0
H1389 H 0.39249 0.83647 0.68116 0.0
H1390 H 0.34897 0.85653 0.79625 0.0
H1391 H 0.33322 0.80658 0.61686 0.0
C1392 C 0.30439 0.80182 0.62179 0.0
C1393 C 0.29184 0.80734 0.65452 0.0
C1394 C 0.35846 0.85203 0.77122 0.0
C1395 C 0.33066 0.8254 0.69965 0.0
C1396 C 0.37811 0.86249 0.78792 0.0
C1397 C 0.39095 0.85729 0.75558 0.0
C1398 C 0.35142 0.83623 0.72131 0.0
C1399 C 0.38327 0.84122 0.70673 0.0
C1400 C 0.32374 0.81077 0.64417 0.0
C1401 C 0.29922 0.82156 0.71174 0.0
N1402 N 0.36406 0.83132 0.69094 0.0
N1403 N 0.3181 0.83014 0.73203 0.0
loop_
_geom_bond_atom_site_label_1
_geom_bond_atom_site_label_2
_geom_bond_distance
_geom_bond_site_symmetry_2
_ccdc_geom_bond_type
C0 C1 1.351 . S
C0 N3 1.369 . S
C0 H5 0.931 1_556 S
C1 C0 1.351 . S
C1 N2 1.373 . S
C1 H29 0.930 . S
N2 C1 1.373 . S
N2 C4 1.340 . S
N3 C0 1.369 . S
N3 C4 1.324 . S
N3 Co6 2.133 1_556 S
C4 N2 1.340 . S
C4 N3 1.324 . S
C4 H28 0.930 . S
H5 C0 0.931 1_554 S
Co6 N3 2.133 1_554 S
Co6 N9 2.121 . S
Co6 O14 2.055 . S
Co6 O17 2.039 . S
Co6 N20 2.140 . S
C7 O8 1.227 . S
C7 O17 1.265 . S
O8 C7 1.227 . S
N9 Co6 2.121 . S
N9 C11 1.375 . S
N9 C12 1.313 . S
C10 C11 1.338 . S
C10 N13 1.377 . S
C10 H30 0.930 . S
C11 N9 1.375 . S
C11 C10 1.338 . S
C11 H15 0.931 . S
C12 N9 1.313 . S
C12 N13 1.344 . S
C12 H16 0.930 . S
N13 C10 1.377 . S
N13 C12 1.344 . S
O14 Co6 2.055 . S
O14 C18 1.253 . S
H15 C11 0.931 . S
H16 C12 0.930 . S
O17 Co6 2.039 . S
O17 C7 1.265 . S
C18 O14 1.253 . S
C18 O19 1.227 . S
O19 C18 1.227 . S
N20 Co6 2.140 . S
N20 C23 1.346 . S
N20 C24 1.345 . S
C21 C22 1.387 . S
C21 C25 1.391 . S
C22 C21 1.387 . S
C22 C23 1.369 . S
C22 H31 0.929 1_554 S
C23 N20 1.346 . S
C23 C22 1.369 . S
C23 H26 0.928 1_554 S
C24 N20 1.345 . S
C24 C25 1.371 . S
C24 H27 0.931 . S
C25 C21 1.391 . S
C25 C24 1.371 . S
C25 H32 0.930 . S
H26 C23 0.928 1_556 S
H27 C24 0.931 . S
H28 C4 0.930 . S
H29 C1 0.930 . S
H30 C10 0.930 . S
H31 C22 0.929 1_556 S
H32 C25 0.930 . S
C33 C34 1.351 . S
C33 N36 1.369 . S
C33 H38 0.931 1_556 S
C34 C33 1.351 . S
C34 N35 1.373 . S
C34 H62 0.930 . S
N35 C34 1.373 . S
N35 C37 1.340 . S
N36 C33 1.369 . S
N36 C37 1.324 . S
N36 Co39 2.132 1_556 S
C37 N35 1.340 . S
C37 N36 1.324 . S
C37 H61 0.930 . S
H38 C33 0.931 1_554 S
Co39 N36 2.132 1_554 S
Co39 N42 2.121 . S
Co39 O47 2.055 . S
Co39 O50 2.039 . S
Co39 N53 2.140 . S
C40 O41 1.227 . S
C40 O50 1.265 . S
O41 C40 1.227 . S
N42 Co39 2.121 . S
N42 C44 1.375 . S
N42 C45 1.313 . S
C43 C44 1.338 . S
C43 N46 1.377 . S
C43 H63 0.930 . S
C44 N42 1.375 . S
C44 C43 1.338 . S
C44 H48 0.931 . S
C45 N42 1.313 . S
C45 N46 1.344 . S
C45 H49 0.930 . S
N46 C43 1.377 . S
N46 C45 1.344 . S
O47 Co39 2.055 . S
O47 C51 1.253 . S
H48 C44 0.931 . S
H49 C45 0.930 . S
O50 Co39 2.039 . S
O50 C40 1.265 . S
C51 O47 1.253 . S
C51 O52 1.227 . S
O52 C51 1.227 . S
N53 Co39 2.140 . S
N53 C56 1.346 . S
N53 C57 1.345 . S
C54 C55 1.387 . S
C54 C58 1.391 . S
C55 C54 1.387 . S
C55 C56 1.369 . S
C55 H64 0.929 1_554 S
C56 N53 1.346 . S
C56 C55 1.369 . S
C56 H59 0.928 1_554 S
C57 N53 1.345 . S
C57 C58 1.371 . S
C57 H60 0.931 . S
C58 C54 1.391 . S
C58 C57 1.371 . S
C58 H65 0.930 . S
H59 C56 0.928 1_556 S
H60 C57 0.931 . S
H61 C37 0.930 . S
H62 C34 0.930 . S
H63 C43 0.930 . S
H64 C55 0.929 1_556 S
H65 C58 0.930 . S
C66 C67 1.351 . S
C66 N69 1.369 . S
C66 H71 0.931 1_556 S
C67 C66 1.351 . S
C67 N68 1.373 . S
C67 H95 0.930 . S
N68 C67 1.373 . S
N68 C70 1.340 . S
N69 C66 1.369 . S
N69 C70 1.323 . S
N69 Co72 2.133 1_556 S
C70 N68 1.340 . S
C70 N69 1.323 . S
C70 H94 0.930 . S
H71 C66 0.931 1_554 S
Co72 N69 2.133 1_554 S
Co72 N75 2.121 . S
Co72 O80 2.055 . S
Co72 O83 2.039 . S
Co72 N86 2.140 . S
C73 O74 1.227 . S
C73 O83 1.265 . S
O74 C73 1.227 . S
N75 Co72 2.121 . S
N75 C77 1.375 . S
N75 C78 1.313 . S
C76 C77 1.338 . S
C76 N79 1.377 . S
C76 H96 0.930 . S
C77 N75 1.375 . S
C77 C76 1.338 . S
C77 H81 0.931 . S
C78 N75 1.313 . S
C78 N79 1.344 . S
C78 H82 0.930 . S
N79 C76 1.377 . S
N79 C78 1.344 . S
O80 Co72 2.055 . S
O80 C84 1.253 . S
H81 C77 0.931 . S
H82 C78 0.930 . S
O83 Co72 2.039 . S
O83 C73 1.265 . S
C84 O80 1.253 . S
C84 O85 1.227 . S
O85 C84 1.227 . S
N86 Co72 2.140 . S
N86 C89 1.346 . S
N86 C90 1.345 . S
C87 C88 1.387 . S
C87 C91 1.391 . S
C88 C87 1.387 . S
C88 C89 1.369 . S
C88 H97 0.929 1_554 S
C89 N86 1.346 . S
C89 C88 1.369 . S
C89 H92 0.928 1_554 S
C90 N86 1.345 . S
C90 C91 1.371 . S
C90 H93 0.931 . S
C91 C87 1.391 . S
C91 C90 1.371 . S
C91 H98 0.930 . S
H92 C89 0.928 1_556 S
H93 C90 0.931 . S
H94 C70 0.930 . S
H95 C67 0.930 . S
H96 C76 0.930 . S
H97 C88 0.929 1_556 S
H98 C91 0.930 . S
C99 C100 1.351 . S
C99 N102 1.369 . S
C99 H104 0.931 1_554 S
C100 C99 1.351 . S
C100 N101 1.373 . S
C100 H128 0.930 . S
N101 C100 1.373 . S
N101 C103 1.340 . S
N102 C99 1.369 . S
N102 C103 1.324 . S
N102 Co105 2.133 1_554 S
C103 N101 1.340 . S
C103 N102 1.324 . S
C103 H127 0.930 . S
H104 C99 0.931 1_556 S
Co105 N102 2.133 1_556 S
Co105 N108 2.121 . S
Co105 O113 2.055 . S
Co105 O116 2.039 . S
Co105 N119 2.140 . S
C106 O107 1.227 . S
C106 O116 1.265 . S
O107 C106 1.227 . S
N108 Co105 2.121 . S
N108 C110 1.375 . S
N108 C111 1.313 . S
C109 C110 1.338 . S
C109 N112 1.377 . S
C109 H129 0.930 . S
C110 N108 1.375 . S
C110 C109 1.338 . S
C110 H114 0.931 . S
C111 N108 1.313 . S
C111 N112 1.344 . S
C111 H115 0.930 . S
N112 C109 1.377 . S
N112 C111 1.344 . S
O113 Co105 2.055 . S
O113 C117 1.253 . S
H114 C110 0.931 . S
H115 C111 0.930 . S
O116 Co105 2.039 . S
O116 C106 1.265 . S
C117 O113 1.253 . S
C117 O118 1.227 . S
O118 C117 1.227 . S
N119 Co105 2.140 . S
N119 C122 1.346 . S
N119 C123 1.345 . S
C120 C121 1.387 . S
C120 C124 1.391 . S
C121 C120 1.387 . S
C121 C122 1.369 . S
C121 H130 0.929 1_556 S
C122 N119 1.346 . S
C122 C121 1.369 . S
C122 H125 0.928 1_556 S
C123 N119 1.345 . S
C123 C124 1.371 . S
C123 H126 0.931 . S
C124 C120 1.391 . S
C124 C123 1.371 . S
C124 H131 0.930 . S
H125 C122 0.928 1_554 S
H126 C123 0.931 . S
H127 C103 0.930 . S
H128 C100 0.930 . S
H129 C109 0.930 . S
H130 C121 0.929 1_554 S
H131 C124 0.930 . S
C132 C133 1.351 . S
C132 N135 1.369 . S
C132 H137 0.931 1_554 S
C133 C132 1.351 . S
C133 N134 1.373 . S
C133 H161 0.930 . S
N134 C133 1.373 . S
N134 C136 1.340 . S
N135 C132 1.369 . S
N135 C136 1.323 . S
N135 Co138 2.133 1_554 S
C136 N134 1.340 . S
C136 N135 1.323 . S
C136 H160 0.930 . S
H137 C132 0.931 1_556 S
Co138 N135 2.133 1_556 S
Co138 N141 2.121 . S
Co138 O146 2.055 . S
Co138 O149 2.039 . S
Co138 N152 2.140 . S
C139 O140 1.227 . S
C139 O149 1.265 . S
O140 C139 1.227 . S
N141 Co138 2.121 . S
N141 C143 1.375 . S
N141 C144 1.313 . S
C142 C143 1.338 . S
C142 N145 1.377 . S
C142 H162 0.930 . S
C143 N141 1.375 . S
C143 C142 1.338 . S
C143 H147 0.931 . S
C144 N141 1.313 . S
C144 N145 1.344 . S
C144 H148 0.930 . S
N145 C142 1.377 . S
N145 C144 1.344 . S
O146 Co138 2.055 . S
O146 C150 1.253 . S
H147 C143 0.931 . S
H148 C144 0.930 . S
O149 Co138 2.039 . S
O149 C139 1.265 . S
C150 O146 1.253 . S
C150 O151 1.227 . S
O151 C150 1.227 . S
N152 Co138 2.140 . S
N152 C155 1.346 . S
N152 C156 1.345 . S
C153 C154 1.387 . S
C153 C157 1.391 . S
C154 C153 1.387 . S
C154 C155 1.369 . S
C154 H163 0.929 1_556 S
C155 N152 1.346 . S
C155 C154 1.369 . S
C155 H158 0.928 1_556 S
C156 N152 1.345 . S
C156 C157 1.371 . S
C156 H159 0.931 . S
C157 C153 1.391 . S
C157 C156 1.371 . S
C157 H164 0.930 . S
H158 C155 0.928 1_554 S
H159 C156 0.931 . S
H160 C136 0.930 . S
H161 C133 0.930 . S
H162 C142 0.930 . S
H163 C154 0.929 1_554 S
H164 C157 0.930 . S
C165 C166 1.351 . S
C165 N168 1.369 . S
C165 H170 0.931 1_554 S
C166 C165 1.351 . S
C166 N167 1.373 . S
C166 H194 0.930 . S
N167 C166 1.373 . S
N167 C169 1.340 . S
N168 C165 1.369 . S
N168 C169 1.324 . S
N168 Co171 2.132 1_554 S
C169 N167 1.340 . S
C169 N168 1.324 . S
C169 H193 0.930 . S
H170 C165 0.931 1_556 S
Co171 N168 2.132 1_556 S
Co171 N174 2.121 . S
Co171 O179 2.055 . S
Co171 O182 2.039 . S
Co171 N185 2.140 . S
C172 O173 1.227 . S
C172 O182 1.265 . S
O173 C172 1.227 . S
N174 Co171 2.121 . S
N174 C176 1.375 . S
N174 C177 1.313 . S
C175 C176 1.338 . S
C175 N178 1.377 . S
C175 H195 0.930 . S
C176 N174 1.375 . S
C176 C175 1.338 . S
C176 H180 0.931 . S
C177 N174 1.313 . S
C177 N178 1.344 . S
C177 H181 0.930 . S
N178 C175 1.377 . S
N178 C177 1.344 . S
O179 Co171 2.055 . S
O179 C183 1.253 . S
H180 C176 0.931 . S
H181 C177 0.930 . S
O182 Co171 2.039 . S
O182 C172 1.265 . S
C183 O179 1.253 . S
C183 O184 1.227 . S
O184 C183 1.227 . S
N185 Co171 2.140 . S
N185 C188 1.346 . S
N185 C189 1.345 . S
C186 C187 1.387 . S
C186 C190 1.391 . S
C187 C186 1.387 . S
C187 C188 1.369 . S
C187 H196 0.929 1_556 S
C188 N185 1.346 . S
C188 C187 1.369 . S
C188 H191 0.928 1_556 S
C189 N185 1.345 . S
C189 C190 1.371 . S
C189 H192 0.931 . S
C190 C186 1.391 . S
C190 C189 1.371 . S
C190 H197 0.930 . S
H191 C188 0.928 1_554 S
H192 C189 0.931 . S
H193 C169 0.930 . S
H194 C166 0.930 . S
H195 C175 0.930 . S
H196 C187 0.929 1_554 S
H197 C190 0.930 . S
C198 C199 1.351 . S
C198 N201 1.368 . S
C198 H203 0.931 . S
C199 C198 1.351 . S
C199 N200 1.373 . S
C199 H227 0.930 . S
N200 C199 1.373 . S
N200 C202 1.340 . S
N201 C198 1.368 . S
N201 C202 1.321 . S
N201 Co204 2.135 . S
C202 N200 1.340 . S
C202 N201 1.321 . S
C202 H226 0.930 . S
H203 C198 0.931 . S
Co204 N201 2.135 . S
Co204 N207 2.121 . S
Co204 O212 2.055 . S
Co204 O215 2.039 . S
Co204 N218 2.140 . S
C205 O206 1.227 . S
C205 O215 1.265 . S
O206 C205 1.227 . S
N207 Co204 2.121 . S
N207 C209 1.375 . S
N207 C210 1.313 . S
C208 C209 1.338 . S
C208 N211 1.377 . S
C208 H228 0.930 . S
C209 N207 1.375 . S
C209 C208 1.338 . S
C209 H213 0.931 . S
C210 N207 1.313 . S
C210 N211 1.344 . S
C210 H214 0.930 . S
N211 C208 1.377 . S
N211 C210 1.344 . S
O212 Co204 2.055 . S
O212 C216 1.253 . S
H213 C209 0.931 . S
H214 C210 0.930 . S
O215 Co204 2.039 . S
O215 C205 1.265 . S
C216 O212 1.253 . S
C216 O217 1.227 . S
O217 C216 1.227 . S
N218 Co204 2.140 . S
N218 C221 1.346 . S
N218 C222 1.345 . S
C219 C220 1.387 . S
C219 C223 1.391 . S
C220 C219 1.387 . S
C220 C221 1.369 . S
C220 H229 0.929 . S
C221 N218 1.346 . S
C221 C220 1.369 . S
C221 H224 0.928 . S
C222 N218 1.345 . S
C222 C223 1.371 . S
C222 H225 0.931 . S
C223 C219 1.391 . S
C223 C222 1.371 . S
C223 H230 0.930 . S
H224 C221 0.928 . S
H225 C222 0.931 . S
H226 C202 0.930 . S
H227 C199 0.930 . S
H228 C208 0.930 . S
H229 C220 0.929 . S
H230 C223 0.930 . S
C231 C232 1.351 . S
C231 N234 1.368 . S
C231 H236 0.931 . S
C232 C231 1.351 . S
C232 N233 1.373 . S
C232 H260 0.930 . S
N233 C232 1.373 . S
N233 C235 1.340 . S
N234 C231 1.368 . S
N234 C235 1.321 . S
N234 Co237 2.135 . S
C235 N233 1.340 . S
C235 N234 1.321 . S
C235 H259 0.930 . S
H236 C231 0.931 . S
Co237 N234 2.135 . S
Co237 N240 2.121 . S
Co237 O245 2.055 . S
Co237 O248 2.039 . S
Co237 N251 2.140 . S
C238 O239 1.227 . S
C238 O248 1.265 . S
O239 C238 1.227 . S
N240 Co237 2.121 . S
N240 C242 1.375 . S
N240 C243 1.313 . S
C241 C242 1.338 . S
C241 N244 1.377 . S
C241 H261 0.930 . S
C242 N240 1.375 . S
C242 C241 1.338 . S
C242 H246 0.931 . S
C243 N240 1.313 . S
C243 N244 1.344 . S
C243 H247 0.930 . S
N244 C241 1.377 . S
N244 C243 1.344 . S
O245 Co237 2.055 . S
O245 C249 1.253 . S
H246 C242 0.931 . S
H247 C243 0.930 . S
O248 Co237 2.039 . S
O248 C238 1.265 . S
C249 O245 1.253 . S
C249 O250 1.227 . S
O250 C249 1.227 . S
N251 Co237 2.140 . S
N251 C254 1.346 . S
N251 C255 1.345 . S
C252 C253 1.387 . S
C252 C256 1.391 . S
C253 C252 1.387 . S
C253 C254 1.369 . S
C253 H262 0.929 . S
C254 N251 1.346 . S
C254 C253 1.369 . S
C254 H257 0.928 . S
C255 N251 1.345 . S
C255 C256 1.371 . S
C255 H258 0.931 . S
C256 C252 1.391 . S
C256 C255 1.371 . S
C256 H263 0.930 . S
H257 C254 0.928 . S
H258 C255 0.931 . S
H259 C235 0.930 . S
H260 C232 0.930 . S
H261 C241 0.930 . S
H262 C253 0.929 . S
H263 C256 0.930 . S
C264 C265 1.351 . S
C264 N267 1.368 . S
C264 H269 0.931 . S
C265 C264 1.351 . S
C265 N266 1.373 . S
C265 H293 0.930 . S
N266 C265 1.373 . S
N266 C268 1.340 . S
N267 C264 1.368 . S
N267 C268 1.321 . S
N267 Co270 2.135 . S
C268 N266 1.340 . S
C268 N267 1.321 . S
C268 H292 0.930 . S
H269 C264 0.931 . S
Co270 N267 2.135 . S
Co270 N273 2.121 . S
Co270 O278 2.055 . S
Co270 O281 2.039 . S
Co270 N284 2.140 . S
C271 O272 1.227 . S
C271 O281 1.265 . S
O272 C271 1.227 . S
N273 Co270 2.121 . S
N273 C275 1.375 . S
N273 C276 1.313 . S
C274 C275 1.338 . S
C274 N277 1.377 . S
C274 H294 0.930 . S
C275 N273 1.375 . S
C275 C274 1.338 . S
C275 H279 0.931 . S
C276 N273 1.313 . S
C276 N277 1.344 . S
C276 H280 0.930 . S
N277 C274 1.377 . S
N277 C276 1.344 . S
O278 Co270 2.055 . S
O278 C282 1.253 . S
H279 C275 0.931 . S
H280 C276 0.930 . S
O281 Co270 2.039 . S
O281 C271 1.265 . S
C282 O278 1.253 . S
C282 O283 1.227 . S
O283 C282 1.227 . S
N284 Co270 2.140 . S
N284 C287 1.346 . S
N284 C288 1.345 . S
C285 C286 1.387 . S
C285 C289 1.391 . S
C286 C285 1.387 . S
C286 C287 1.369 . S
C286 H295 0.929 . S
C287 N284 1.346 . S
C287 C286 1.369 . S
C287 H290 0.928 . S
C288 N284 1.345 . S
C288 C289 1.371 . S
C288 H291 0.931 . S
C289 C285 1.391 . S
C289 C288 1.371 . S
C289 H296 0.930 . S
H290 C287 0.928 . S
H291 C288 0.931 . S
H292 C268 0.930 . S
H293 C265 0.930 . S
H294 C274 0.930 . S
H295 C286 0.929 . S
H296 C289 0.930 . S
C297 C298 1.351 . S
C297 N300 1.368 . S
C297 H302 0.931 . S
C298 C297 1.351 . S
C298 N299 1.373 . S
C298 H326 0.930 . S
N299 C298 1.373 . S
N299 C301 1.340 . S
N300 C297 1.368 . S
N300 C301 1.321 . S
N300 Co303 2.135 . S
C301 N299 1.340 . S
C301 N300 1.321 . S
C301 H325 0.930 . S
H302 C297 0.931 . S
Co303 N300 2.135 . S
Co303 N306 2.121 . S
Co303 O311 2.055 . S
Co303 O314 2.039 . S
Co303 N317 2.140 . S
C304 O305 1.227 . S
C304 O314 1.265 . S
O305 C304 1.227 . S
N306 Co303 2.121 . S
N306 C308 1.375 . S
N306 C309 1.313 . S
C307 C308 1.338 . S
C307 N310 1.377 1_554 S
C307 H327 0.930 1_554 S
C308 N306 1.375 . S
C308 C307 1.338 . S
C308 H312 0.931 . S
C309 N306 1.313 . S
C309 N310 1.344 1_554 S
C309 H313 0.930 . S
N310 C307 1.377 1_556 S
N310 C309 1.344 1_556 S
O311 Co303 2.055 . S
O311 C315 1.253 . S
H312 C308 0.931 . S
H313 C309 0.930 . S
O314 Co303 2.039 . S
O314 C304 1.265 . S
C315 O311 1.253 . S
C315 O316 1.227 . S
O316 C315 1.227 . S
N317 Co303 2.140 . S
N317 C320 1.346 . S
N317 C321 1.345 . S
C318 C319 1.387 . S
C318 C322 1.391 . S
C319 C318 1.387 . S
C319 C320 1.369 . S
C319 H328 0.929 . S
C320 N317 1.346 . S
C320 C319 1.369 . S
C320 H323 0.928 . S
C321 N317 1.345 . S
C321 C322 1.371 . S
C321 H324 0.931 . S
C322 C318 1.391 . S
C322 C321 1.371 . S
C322 H329 0.930 . S
H323 C320 0.928 . S
H324 C321 0.931 . S
H325 C301 0.930 . S
H326 C298 0.930 . S
H327 C307 0.930 1_556 S
H328 C319 0.929 . S
H329 C322 0.930 . S
C330 C331 1.351 . S
C330 N333 1.368 . S
C330 H335 0.931 . S
C331 C330 1.351 . S
C331 N332 1.373 . S
C331 H359 0.930 . S
N332 C331 1.373 . S
N332 C334 1.340 . S
N333 C330 1.368 . S
N333 C334 1.321 . S
N333 Co336 2.135 . S
C334 N332 1.340 . S
C334 N333 1.321 . S
C334 H358 0.930 . S
H335 C330 0.931 . S
Co336 N333 2.135 . S
Co336 N339 2.121 . S
Co336 O344 2.055 . S
Co336 O347 2.039 . S
Co336 N350 2.140 . S
C337 O338 1.227 . S
C337 O347 1.265 . S
O338 C337 1.227 . S
N339 Co336 2.121 . S
N339 C341 1.375 . S
N339 C342 1.313 . S
C340 C341 1.338 . S
C340 N343 1.377 1_554 S
C340 H360 0.930 1_554 S
C341 N339 1.375 . S
C341 C340 1.338 . S
C341 H345 0.931 . S
C342 N339 1.313 . S
C342 N343 1.344 1_554 S
C342 H346 0.930 . S
N343 C340 1.377 1_556 S
N343 C342 1.344 1_556 S
O344 Co336 2.055 . S
O344 C348 1.253 . S
H345 C341 0.931 . S
H346 C342 0.930 . S
O347 Co336 2.039 . S
O347 C337 1.265 . S
C348 O344 1.253 . S
C348 O349 1.227 . S
O349 C348 1.227 . S
N350 Co336 2.140 . S
N350 C353 1.346 . S
N350 C354 1.345 . S
C351 C352 1.387 . S
C351 C355 1.391 . S
C352 C351 1.387 . S
C352 C353 1.369 . S
C352 H361 0.929 . S
C353 N350 1.346 . S
C353 C352 1.369 . S
C353 H356 0.928 . S
C354 N350 1.345 . S
C354 C355 1.371 . S
C354 H357 0.931 . S
C355 C351 1.391 . S
C355 C354 1.371 . S
C355 H362 0.930 . S
H356 C353 0.928 . S
H357 C354 0.931 . S
H358 C334 0.930 . S
H359 C331 0.930 . S
H360 C340 0.930 1_556 S
H361 C352 0.929 . S
H362 C355 0.930 . S
C363 C364 1.351 . S
C363 N366 1.368 . S
C363 H368 0.931 . S
C364 C363 1.351 . S
C364 N365 1.373 . S
C364 H392 0.930 . S
N365 C364 1.373 . S
N365 C367 1.340 . S
N366 C363 1.368 . S
N366 C367 1.321 . S
N366 Co369 2.135 . S
C367 N365 1.340 . S
C367 N366 1.321 . S
C367 H391 0.930 . S
H368 C363 0.931 . S
Co369 N366 2.135 . S
Co369 N372 2.121 . S
Co369 O377 2.055 . S
Co369 O380 2.039 . S
Co369 N383 2.140 . S
C370 O371 1.227 . S
C370 O380 1.265 . S
O371 C370 1.227 . S
N372 Co369 2.121 . S
N372 C374 1.375 . S
N372 C375 1.313 . S
C373 C374 1.338 . S
C373 N376 1.377 1_554 S
C373 H393 0.930 1_554 S
C374 N372 1.375 . S
C374 C373 1.338 . S
C374 H378 0.931 . S
C375 N372 1.313 . S
C375 N376 1.344 1_554 S
C375 H379 0.930 . S
N376 C373 1.377 1_556 S
N376 C375 1.344 1_556 S
O377 Co369 2.055 . S
O377 C381 1.253 . S
H378 C374 0.931 . S
H379 C375 0.930 . S
O380 Co369 2.039 . S
O380 C370 1.265 . S
C381 O377 1.253 . S
C381 O382 1.227 . S
O382 C381 1.227 . S
N383 Co369 2.140 . S
N383 C386 1.346 . S
N383 C387 1.345 . S
C384 C385 1.387 . S
C384 C388 1.391 . S
C385 C384 1.387 . S
C385 C386 1.369 . S
C385 H394 0.929 . S
C386 N383 1.346 . S
C386 C385 1.369 . S
C386 H389 0.928 . S
C387 N383 1.345 . S
C387 C388 1.371 . S
C387 H390 0.931 . S
C388 C384 1.391 . S
C388 C387 1.371 . S
C388 H395 0.930 . S
H389 C386 0.928 . S
H390 C387 0.931 . S
H391 C367 0.930 . S
H392 C364 0.930 . S
H393 C373 0.930 1_556 S
H394 C385 0.929 . S
H395 C388 0.930 . S
C396 C397 1.351 . S
C396 N399 1.368 . S
C396 H401 0.931 . S
C397 C396 1.351 . S
C397 N398 1.373 . S
C397 H425 0.930 . S
N398 C397 1.373 . S
N398 C400 1.340 . S
N399 C396 1.368 . S
N399 C400 1.321 . S
N399 Co402 2.135 . S
C400 N398 1.340 . S
C400 N399 1.321 . S
C400 H424 0.930 . S
H401 C396 0.931 . S
Co402 N399 2.135 . S
Co402 N405 2.121 . S
Co402 O410 2.055 . S
Co402 O413 2.039 . S
Co402 N416 2.140 . S
C403 O404 1.227 . S
C403 O413 1.265 . S
O404 C403 1.227 . S
N405 Co402 2.121 . S
N405 C407 1.375 . S
N405 C408 1.313 . S
C406 C407 1.338 . S
C406 N409 1.377 1_556 S
C406 H426 0.930 1_556 S
C407 N405 1.375 . S
C407 C406 1.338 . S
C407 H411 0.931 . S
C408 N405 1.313 . S
C408 N409 1.344 1_556 S
C408 H412 0.930 . S
N409 C406 1.377 1_554 S
N409 C408 1.344 1_554 S
O410 Co402 2.055 . S
O410 C414 1.253 . S
H411 C407 0.931 . S
H412 C408 0.930 . S
O413 Co402 2.039 . S
O413 C403 1.265 . S
C414 O410 1.253 . S
C414 O415 1.227 . S
O415 C414 1.227 . S
N416 Co402 2.140 . S
N416 C419 1.346 . S
N416 C420 1.345 . S
C417 C418 1.387 . S
C417 C421 1.391 . S
C418 C417 1.387 . S
C418 C419 1.369 . S
C418 H427 0.929 . S
C419 N416 1.346 . S
C419 C418 1.369 . S
C419 H422 0.928 . S
C420 N416 1.345 . S
C420 C421 1.371 . S
C420 H423 0.931 . S
C421 C417 1.391 . S
C421 C420 1.371 . S
C421 H428 0.930 . S
H422 C419 0.928 . S
H423 C420 0.931 . S
H424 C400 0.930 . S
H425 C397 0.930 . S
H426 C406 0.930 1_554 S
H427 C418 0.929 . S
H428 C421 0.930 . S
C429 C430 1.351 . S
C429 N432 1.368 . S
C429 H434 0.931 . S
C430 C429 1.351 . S
C430 N431 1.373 . S
C430 H458 0.930 . S
N431 C430 1.373 . S
N431 C433 1.340 . S
N432 C429 1.368 . S
N432 C433 1.321 . S
N432 Co435 2.135 . S
C433 N431 1.340 . S
C433 N432 1.321 . S
C433 H457 0.930 . S
H434 C429 0.931 . S
Co435 N432 2.135 . S
Co435 N438 2.121 . S
Co435 O443 2.055 . S
Co435 O446 2.039 . S
Co435 N449 2.140 . S
C436 O437 1.227 . S
C436 O446 1.265 . S
O437 C436 1.227 . S
N438 Co435 2.121 . S
N438 C440 1.375 . S
N438 C441 1.313 . S
C439 C440 1.338 . S
C439 N442 1.377 1_556 S
C439 H459 0.930 1_556 S
C440 N438 1.375 . S
C440 C439 1.338 . S
C440 H444 0.931 . S
C441 N438 1.313 . S
C441 N442 1.344 1_556 S
C441 H445 0.930 . S
N442 C439 1.377 1_554 S
N442 C441 1.344 1_554 S
O443 Co435 2.055 . S
O443 C447 1.253 . S
H444 C440 0.931 . S
H445 C441 0.930 . S
O446 Co435 2.039 . S
O446 C436 1.265 . S
C447 O443 1.253 . S
C447 O448 1.227 . S
O448 C447 1.227 . S
N449 Co435 2.140 . S
N449 C452 1.346 . S
N449 C453 1.345 . S
C450 C451 1.387 . S
C450 C454 1.391 . S
C451 C450 1.387 . S
C451 C452 1.369 . S
C451 H460 0.929 . S
C452 N449 1.346 . S
C452 C451 1.369 . S
C452 H455 0.928 . S
C453 N449 1.345 . S
C453 C454 1.371 . S
C453 H456 0.931 . S
C454 C450 1.391 . S
C454 C453 1.371 . S
C454 H461 0.930 . S
H455 C452 0.928 . S
H456 C453 0.931 . S
H457 C433 0.930 . S
H458 C430 0.930 . S
H459 C439 0.930 1_554 S
H460 C451 0.929 . S
H461 C454 0.930 . S
C462 C463 1.351 . S
C462 N465 1.368 . S
C462 H467 0.931 . S
C463 C462 1.351 . S
C463 N464 1.373 . S
C463 H491 0.930 . S
N464 C463 1.373 . S
N464 C466 1.340 . S
N465 C462 1.368 . S
N465 C466 1.321 . S
N465 Co468 2.135 . S
C466 N464 1.340 . S
C466 N465 1.321 . S
C466 H490 0.930 . S
H467 C462 0.931 . S
Co468 N465 2.135 . S
Co468 N471 2.121 . S
Co468 O476 2.055 . S
Co468 O479 2.039 . S
Co468 N482 2.140 . S
C469 O470 1.227 . S
C469 O479 1.265 . S
O470 C469 1.227 . S
N471 Co468 2.121 . S
N471 C473 1.375 . S
N471 C474 1.313 . S
C472 C473 1.338 . S
C472 N475 1.377 1_556 S
C472 H492 0.930 1_556 S
C473 N471 1.375 . S
C473 C472 1.338 . S
C473 H477 0.931 . S
C474 N471 1.313 . S
C474 N475 1.344 1_556 S
C474 H478 0.930 . S
N475 C472 1.377 1_554 S
N475 C474 1.344 1_554 S
O476 Co468 2.055 . S
O476 C480 1.253 . S
H477 C473 0.931 . S
H478 C474 0.930 . S
O479 Co468 2.039 . S
O479 C469 1.265 . S
C480 O476 1.253 . S
C480 O481 1.227 . S
O481 C480 1.227 . S
N482 Co468 2.140 . S
N482 C485 1.346 . S
N482 C486 1.345 . S
C483 C484 1.387 . S
C483 C487 1.391 . S
C484 C483 1.387 . S
C484 C485 1.369 . S
C484 H493 0.929 . S
C485 N482 1.346 . S
C485 C484 1.369 . S
C485 H488 0.928 . S
C486 N482 1.345 . S
C486 C487 1.371 . S
C486 H489 0.931 . S
C487 C483 1.391 . S
C487 C486 1.371 . S
C487 H494 0.930 . S
H488 C485 0.928 . S
H489 C486 0.931 . S
H490 C466 0.930 . S
H491 C463 0.930 . S
H492 C472 0.930 1_554 S
H493 C484 0.929 . S
H494 C487 0.930 . S
C495 C496 1.351 . S
C495 N498 1.368 . S
C495 H500 0.931 . S
C496 C495 1.351 . S
C496 N497 1.373 . S
C496 H524 0.930 . S
N497 C496 1.373 . S
N497 C499 1.340 . S
N498 C495 1.368 . S
N498 C499 1.321 . S
N498 Co501 2.135 . S
C499 N497 1.340 . S
C499 N498 1.321 . S
C499 H523 0.930 . S
H500 C495 0.931 . S
Co501 N498 2.135 . S
Co501 N504 2.121 . S
Co501 O509 2.055 . S
Co501 O512 2.039 . S
Co501 N515 2.140 . S
C502 O503 1.227 . S
C502 O512 1.265 . S
O503 C502 1.227 . S
N504 Co501 2.121 . S
N504 C506 1.375 . S
N504 C507 1.313 . S
C505 C506 1.338 . S
C505 N508 1.377 . S
C505 H525 0.930 . S
C506 N504 1.375 . S
C506 C505 1.338 . S
C506 H510 0.931 . S
C507 N504 1.313 . S
C507 N508 1.344 . S
C507 H511 0.930 . S
N508 C505 1.377 . S
N508 C507 1.344 . S
O509 Co501 2.055 . S
O509 C513 1.253 . S
H510 C506 0.931 . S
H511 C507 0.930 . S
O512 Co501 2.039 . S
O512 C502 1.265 . S
C513 O509 1.253 . S
C513 O514 1.227 . S
O514 C513 1.227 . S
N515 Co501 2.140 . S
N515 C518 1.346 . S
N515 C519 1.345 . S
C516 C517 1.387 . S
C516 C520 1.391 . S
C517 C516 1.387 . S
C517 C518 1.369 . S
C517 H526 0.929 . S
C518 N515 1.346 . S
C518 C517 1.369 . S
C518 H521 0.928 . S
C519 N515 1.345 . S
C519 C520 1.371 . S
C519 H522 0.931 . S
C520 C516 1.391 . S
C520 C519 1.371 . S
C520 H527 0.930 . S
H521 C518 0.928 . S
H522 C519 0.931 . S
H523 C499 0.930 . S
H524 C496 0.930 . S
H525 C505 0.930 . S
H526 C517 0.929 . S
H527 C520 0.930 . S
C528 C529 1.351 . S
C528 N531 1.368 . S
C528 H533 0.931 . S
C529 C528 1.351 . S
C529 N530 1.373 . S
C529 H557 0.930 . S
N530 C529 1.373 . S
N530 C532 1.340 . S
N531 C528 1.368 . S
N531 C532 1.321 . S
N531 Co534 2.135 . S
C532 N530 1.340 . S
C532 N531 1.321 . S
C532 H556 0.930 . S
H533 C528 0.931 . S
Co534 N531 2.135 . S
Co534 N537 2.121 . S
Co534 O542 2.055 . S
Co534 O545 2.039 . S
Co534 N548 2.140 . S
C535 O536 1.227 . S
C535 O545 1.265 . S
O536 C535 1.227 . S
N537 Co534 2.121 . S
N537 C539 1.375 . S
N537 C540 1.313 . S
C538 C539 1.338 . S
C538 N541 1.377 . S
C538 H558 0.930 . S
C539 N537 1.375 . S
C539 C538 1.338 . S
C539 H543 0.931 . S
C540 N537 1.313 . S
C540 N541 1.344 . S
C540 H544 0.930 . S
N541 C538 1.377 . S
N541 C540 1.344 . S
O542 Co534 2.055 . S
O542 C546 1.253 . S
H543 C539 0.931 . S
H544 C540 0.930 . S
O545 Co534 2.039 . S
O545 C535 1.265 . S
C546 O542 1.253 . S
C546 O547 1.227 . S
O547 C546 1.227 . S
N548 Co534 2.140 . S
N548 C551 1.346 . S
N548 C552 1.345 . S
C549 C550 1.387 . S
C549 C553 1.391 . S
C550 C549 1.387 . S
C550 C551 1.369 . S
C550 H559 0.929 . S
C551 N548 1.346 . S
C551 C550 1.369 . S
C551 H554 0.928 . S
C552 N548 1.345 . S
C552 C553 1.371 . S
C552 H555 0.931 . S
C553 C549 1.391 . S
C553 C552 1.371 . S
C553 H560 0.930 . S
H554 C551 0.928 . S
H555 C552 0.931 . S
H556 C532 0.930 . S
H557 C529 0.930 . S
H558 C538 0.930 . S
H559 C550 0.929 . S
H560 C553 0.930 . S
C561 C562 1.351 . S
C561 N564 1.368 . S
C561 H566 0.931 . S
C562 C561 1.351 . S
C562 N563 1.373 . S
C562 H590 0.930 . S
N563 C562 1.373 . S
N563 C565 1.340 . S
N564 C561 1.368 . S
N564 C565 1.321 . S
N564 Co567 2.135 . S
C565 N563 1.340 . S
C565 N564 1.321 . S
C565 H589 0.930 . S
H566 C561 0.931 . S
Co567 N564 2.135 . S
Co567 N570 2.121 . S
Co567 O575 2.055 . S
Co567 O578 2.039 . S
Co567 N581 2.140 . S
C568 O569 1.227 . S
C568 O578 1.265 . S
O569 C568 1.227 . S
N570 Co567 2.121 . S
N570 C572 1.375 . S
N570 C573 1.313 . S
C571 C572 1.338 . S
C571 N574 1.377 . S
C571 H591 0.930 . S
C572 N570 1.375 . S
C572 C571 1.338 . S
C572 H576 0.931 . S
C573 N570 1.313 . S
C573 N574 1.344 . S
C573 H577 0.930 . S
N574 C571 1.377 . S
N574 C573 1.344 . S
O575 Co567 2.055 . S
O575 C579 1.253 . S
H576 C572 0.931 . S
H577 C573 0.930 . S
O578 Co567 2.039 . S
O578 C568 1.265 . S
C579 O575 1.253 . S
C579 O580 1.227 . S
O580 C579 1.227 . S
N581 Co567 2.140 . S
N581 C584 1.346 . S
N581 C585 1.345 . S
C582 C583 1.387 . S
C582 C586 1.391 . S
C583 C582 1.387 . S
C583 C584 1.369 . S
C583 H592 0.929 . S
C584 N581 1.346 . S
C584 C583 1.369 . S
C584 H587 0.928 . S
C585 N581 1.345 . S
C585 C586 1.371 . S
C585 H588 0.931 . S
C586 C582 1.391 . S
C586 C585 1.371 . S
C586 H593 0.930 . S
H587 C584 0.928 . S
H588 C585 0.931 . S
H589 C565 0.930 . S
H590 C562 0.930 . S
H591 C571 0.930 . S
H592 C583 0.929 . S
H593 C586 0.930 . S
H594 C600 0.930 . S
H595 C604 0.930 . S
H596 C609 0.929 . S
H597 C607 0.929 . S
H598 C602 0.929 . S
H599 C608 0.929 . S
C600 H594 0.930 . S
C600 C601 1.367 . S
C600 C608 1.378 . S
C601 C600 1.367 . S
C601 C609 1.433 . S
C602 H598 0.929 . S
C602 C604 1.378 . S
C602 C606 1.350 . S
C603 C606 1.463 . S
C603 C608 1.350 . S
C603 N611 1.427 . S
C604 H595 0.930 . S
C604 C602 1.378 . S
C604 C605 1.367 . S
C605 C604 1.367 . S
C605 C607 1.433 . S
C606 C602 1.350 . S
C606 C603 1.463 . S
C606 N610 1.427 . S
C607 H597 0.929 . S
C607 C605 1.433 . S
C607 N610 1.384 . S
C608 H599 0.929 . S
C608 C600 1.378 . S
C608 C603 1.350 . S
C609 H596 0.929 . S
C609 C601 1.433 . S
C609 N611 1.384 . S
N610 C606 1.427 . S
N610 C607 1.384 . S
N611 C603 1.427 . S
N611 C609 1.384 . S
H612 C618 0.930 . S
H613 C622 0.930 . S
H614 C627 0.929 . S
H615 C625 0.929 . S
H616 C620 0.929 . S
H617 C626 0.929 . S
C618 H612 0.930 . S
C618 C619 1.367 . S
C618 C626 1.378 . S
C619 C618 1.367 . S
C619 C627 1.433 . S
C620 H616 0.929 . S
C620 C622 1.378 . S
C620 C624 1.350 . S
C621 C624 1.463 . S
C621 C626 1.350 . S
C621 N629 1.427 . S
C622 H613 0.930 . S
C622 C620 1.378 . S
C622 C623 1.367 . S
C623 C622 1.367 . S
C623 C625 1.433 . S
C624 C620 1.350 . S
C624 C621 1.463 . S
C624 N628 1.427 . S
C625 H615 0.929 . S
C625 C623 1.433 . S
C625 N628 1.384 . S
C626 H617 0.929 . S
C626 C618 1.378 . S
C626 C621 1.350 . S
C627 H614 0.929 . S
C627 C619 1.433 . S
C627 N629 1.384 . S
N628 C624 1.427 . S
N628 C625 1.384 . S
N629 C621 1.427 . S
N629 C627 1.384 . S
H630 C636 0.930 . S
H631 C640 0.930 . S
H632 C645 0.929 . S
H633 C643 0.929 . S
H634 C638 0.929 . S
H635 C644 0.929 . S
C636 H630 0.930 . S
C636 C637 1.367 . S
C636 C644 1.378 . S
C637 C636 1.367 . S
C637 C645 1.433 . S
C638 H634 0.929 . S
C638 C640 1.378 . S
C638 C642 1.350 . S
C639 C642 1.463 . S
C639 C644 1.350 . S
C639 N647 1.427 . S
C640 H631 0.930 . S
C640 C638 1.378 . S
C640 C641 1.367 . S
C641 C640 1.367 . S
C641 C643 1.433 . S
C642 C638 1.350 . S
C642 C639 1.463 . S
C642 N646 1.427 . S
C643 H633 0.929 . S
C643 C641 1.433 . S
C643 N646 1.384 . S
C644 H635 0.929 . S
C644 C636 1.378 . S
C644 C639 1.350 . S
C645 H632 0.929 . S
C645 C637 1.433 . S
C645 N647 1.384 . S
N646 C642 1.427 . S
N646 C643 1.384 . S
N647 C639 1.427 . S
N647 C645 1.384 . S
H648 C654 0.930 . S
H649 C658 0.930 . S
H650 C663 0.929 . S
H651 C661 0.929 . S
H652 C656 0.929 . S
H653 C662 0.929 . S
C654 H648 0.930 . S
C654 C655 1.367 . S
C654 C662 1.378 . S
C655 C654 1.367 . S
C655 C663 1.433 . S
C656 H652 0.929 . S
C656 C658 1.378 . S
C656 C660 1.350 . S
C657 C660 1.463 . S
C657 C662 1.350 . S
C657 N665 1.427 . S
C658 H649 0.930 . S
C658 C656 1.378 . S
C658 C659 1.367 . S
C659 C658 1.367 . S
C659 C661 1.433 . S
C660 C656 1.350 . S
C660 C657 1.463 . S
C660 N664 1.427 . S
C661 H651 0.929 . S
C661 C659 1.433 . S
C661 N664 1.384 . S
C662 H653 0.929 . S
C662 C654 1.378 . S
C662 C657 1.350 . S
C663 H650 0.929 . S
C663 C655 1.433 . S
C663 N665 1.384 . S
N664 C660 1.427 . S
N664 C661 1.384 . S
N665 C657 1.427 . S
N665 C663 1.384 . S
H666 C672 0.930 . S
H667 C676 0.930 . S
H668 C681 0.929 . S
H669 C679 0.929 . S
H670 C674 0.929 . S
H671 C680 0.929 . S
C672 H666 0.930 . S
C672 C673 1.367 . S
C672 C680 1.378 . S
C673 C672 1.367 . S
C673 C681 1.433 . S
C674 H670 0.929 . S
C674 C676 1.378 . S
C674 C678 1.350 . S
C675 C678 1.463 . S
C675 C680 1.350 . S
C675 N683 1.427 . S
C676 H667 0.930 . S
C676 C674 1.378 . S
C676 C677 1.367 . S
C677 C676 1.367 . S
C677 C679 1.433 . S
C678 C674 1.350 . S
C678 C675 1.463 . S
C678 N682 1.427 . S
C679 H669 0.929 . S
C679 C677 1.433 . S
C679 N682 1.384 . S
C680 H671 0.929 . S
C680 C672 1.378 . S
C680 C675 1.350 . S
C681 H668 0.929 . S
C681 C673 1.433 . S
C681 N683 1.384 . S
N682 C678 1.427 . S
N682 C679 1.384 . S
N683 C675 1.427 . S
N683 C681 1.384 . S
H684 C690 0.930 . S
H685 C694 0.930 . S
H686 C699 0.929 . S
H687 C697 0.929 . S
H688 C692 0.929 . S
H689 C698 0.929 . S
C690 H684 0.930 . S
C690 C691 1.367 . S
C690 C698 1.378 . S
C691 C690 1.367 . S
C691 C699 1.433 . S
C692 H688 0.929 . S
C692 C694 1.378 . S
C692 C696 1.350 . S
C693 C696 1.463 . S
C693 C698 1.350 . S
C693 N701 1.427 . S
C694 H685 0.930 . S
C694 C692 1.378 . S
C694 C695 1.367 . S
C695 C694 1.367 . S
C695 C697 1.433 . S
C696 C692 1.350 . S
C696 C693 1.463 . S
C696 N700 1.427 . S
C697 H687 0.929 . S
C697 C695 1.433 . S
C697 N700 1.384 . S
C698 H689 0.929 . S
C698 C690 1.378 . S
C698 C693 1.350 . S
C699 H686 0.929 . S
C699 C691 1.433 . S
C699 N701 1.384 . S
N700 C696 1.427 . S
N700 C697 1.384 . S
N701 C693 1.427 . S
N701 C699 1.384 . S
H702 C708 0.930 . S
H703 C712 0.930 . S
H704 C717 0.929 . S
H705 C715 0.929 . S
H706 C710 0.929 . S
H707 C716 0.929 . S
C708 H702 0.930 . S
C708 C709 1.367 . S
C708 C716 1.378 . S
C709 C708 1.367 . S
C709 C717 1.433 . S
C710 H706 0.929 . S
C710 C712 1.378 . S
C710 C714 1.350 . S
C711 C714 1.463 . S
C711 C716 1.350 1_556 S
C711 N719 1.427 1_556 S
C712 H703 0.930 . S
C712 C710 1.378 . S
C712 C713 1.367 . S
C713 C712 1.367 . S
C713 C715 1.433 . S
C714 C710 1.350 . S
C714 C711 1.463 . S
C714 N718 1.427 . S
C715 H705 0.929 . S
C715 C713 1.433 . S
C715 N718 1.384 . S
C716 H707 0.929 . S
C716 C708 1.378 . S
C716 C711 1.350 1_554 S
C717 H704 0.929 . S
C717 C709 1.433 . S
C717 N719 1.384 . S
N718 C714 1.427 . S
N718 C715 1.384 . S
N719 C711 1.427 1_554 S
N719 C717 1.384 . S
H720 C726 0.930 . S
H721 C730 0.930 . S
H722 C735 0.929 . S
H723 C733 0.929 . S
H724 C728 0.929 . S
H725 C734 0.929 1_556 S
C726 H720 0.930 . S
C726 C727 1.367 . S
C726 C734 1.378 . S
C727 C726 1.367 . S
C727 C735 1.433 . S
C728 H724 0.929 . S
C728 C730 1.378 . S
C728 C732 1.350 . S
C729 C732 1.463 . S
C729 C734 1.350 1_556 S
C729 N737 1.427 1_556 S
C730 H721 0.930 . S
C730 C728 1.378 . S
C730 C731 1.367 . S
C731 C730 1.367 . S
C731 C733 1.433 . S
C732 C728 1.350 . S
C732 C729 1.463 . S
C732 N736 1.427 . S
C733 H723 0.929 . S
C733 C731 1.433 . S
C733 N736 1.384 . S
C734 H725 0.929 1_554 S
C734 C726 1.378 . S
C734 C729 1.350 1_554 S
C735 H722 0.929 . S
C735 C727 1.433 . S
C735 N737 1.384 . S
N736 C732 1.427 . S
N736 C733 1.384 . S
N737 C729 1.427 1_554 S
N737 C735 1.384 . S
H738 C744 0.930 . S
H739 C748 0.930 . S
H740 C753 0.929 . S
H741 C751 0.929 . S
H742 C746 0.929 . S
H743 C752 0.929 . S
C744 H738 0.930 . S
C744 C745 1.367 . S
C744 C752 1.378 . S
C745 C744 1.367 . S
C745 C753 1.433 . S
C746 H742 0.929 . S
C746 C748 1.378 . S
C746 C750 1.350 1_554 S
C747 C750 1.463 . S
C747 C752 1.350 . S
C747 N755 1.427 . S
C748 H739 0.930 . S
C748 C746 1.378 . S
C748 C749 1.367 . S
C749 C748 1.367 . S
C749 C751 1.433 . S
C750 C746 1.350 1_556 S
C750 C747 1.463 . S
C750 N754 1.427 1_556 S
C751 H741 0.929 . S
C751 C749 1.433 . S
C751 N754 1.384 . S
C752 H743 0.929 . S
C752 C744 1.378 . S
C752 C747 1.350 . S
C753 H740 0.929 . S
C753 C745 1.433 . S
C753 N755 1.384 . S
N754 C750 1.427 1_554 S
N754 C751 1.384 . S
N755 C747 1.427 . S
N755 C753 1.384 . S
H756 C762 0.930 . S
H757 C766 0.930 . S
H758 C771 0.929 . S
H759 C769 0.929 . S
H760 C764 0.929 . S
H761 C770 0.929 . S
C762 H756 0.930 . S
C762 C763 1.367 . S
C762 C770 1.378 . S
C763 C762 1.367 . S
C763 C771 1.433 . S
C764 H760 0.929 . S
C764 C766 1.378 . S
C764 C768 1.350 . S
C765 C768 1.463 . S
C765 C770 1.350 . S
C765 N773 1.427 . S
C766 H757 0.930 . S
C766 C764 1.378 . S
C766 C767 1.367 . S
C767 C766 1.367 . S
C767 C769 1.433 . S
C768 C764 1.350 . S
C768 C765 1.463 . S
C768 N772 1.427 . S
C769 H759 0.929 . S
C769 C767 1.433 . S
C769 N772 1.384 . S
C770 H761 0.929 . S
C770 C762 1.378 . S
C770 C765 1.350 . S
C771 H758 0.929 . S
C771 C763 1.433 . S
C771 N773 1.384 . S
N772 C768 1.427 . S
N772 C769 1.384 . S
N773 C765 1.427 . S
N773 C771 1.384 . S
H774 C780 0.930 . S
H775 C784 0.930 . S
H776 C789 0.929 . S
H777 C787 0.929 . S
H778 C782 0.929 . S
H779 C788 0.929 . S
C780 H774 0.930 . S
C780 C781 1.367 . S
C780 C788 1.378 . S
C781 C780 1.367 . S
C781 C789 1.433 . S
C782 H778 0.929 . S
C782 C784 1.378 . S
C782 C786 1.350 . S
C783 C786 1.463 . S
C783 C788 1.350 . S
C783 N791 1.427 . S
C784 H775 0.930 . S
C784 C782 1.378 . S
C784 C785 1.367 . S
C785 C784 1.367 . S
C785 C787 1.433 . S
C786 C782 1.350 . S
C786 C783 1.463 . S
C786 N790 1.427 . S
C787 H777 0.929 . S
C787 C785 1.433 . S
C787 N790 1.384 . S
C788 H779 0.929 . S
C788 C780 1.378 . S
C788 C783 1.350 . S
C789 H776 0.929 . S
C789 C781 1.433 . S
C789 N791 1.384 . S
N790 C786 1.427 . S
N790 C787 1.384 . S
N791 C783 1.427 . S
N791 C789 1.384 . S
H792 C798 0.930 . S
H793 C802 0.930 . S
H794 C807 0.929 . S
H795 C805 0.929 . S
H796 C800 0.929 . S
H797 C806 0.929 . S
C798 H792 0.930 . S
C798 C799 1.367 . S
C798 C806 1.378 . S
C799 C798 1.367 . S
C799 C807 1.433 . S
C800 H796 0.929 . S
C800 C802 1.378 . S
C800 C804 1.350 . S
C801 C804 1.463 . S
C801 C806 1.350 . S
C801 N809 1.427 . S
C802 H793 0.930 . S
C802 C800 1.378 . S
C802 C803 1.367 . S
C803 C802 1.367 . S
C803 C805 1.433 . S
C804 C800 1.350 . S
C804 C801 1.463 . S
C804 N808 1.427 . S
C805 H795 0.929 . S
C805 C803 1.433 . S
C805 N808 1.384 . S
C806 H797 0.929 . S
C806 C798 1.378 . S
C806 C801 1.350 . S
C807 H794 0.929 . S
C807 C799 1.433 . S
C807 N809 1.384 . S
N808 C804 1.427 . S
N808 C805 1.384 . S
N809 C801 1.427 . S
N809 C807 1.384 . S
H810 C816 0.930 . S
H811 C820 0.930 . S
H812 C825 0.929 . S
H813 C823 0.929 . S
H814 C818 0.929 . S
H815 C824 0.929 . S
C816 H810 0.930 . S
C816 C817 1.367 . S
C816 C824 1.378 . S
C817 C816 1.367 . S
C817 C825 1.433 . S
C818 H814 0.929 . S
C818 C820 1.378 . S
C818 C822 1.350 . S
C819 C822 1.463 . S
C819 C824 1.350 . S
C819 N827 1.427 . S
C820 H811 0.930 . S
C820 C818 1.378 . S
C820 C821 1.367 . S
C821 C820 1.367 . S
C821 C823 1.433 . S
C822 C818 1.350 . S
C822 C819 1.463 . S
C822 N826 1.427 . S
C823 H813 0.929 . S
C823 C821 1.433 . S
C823 N826 1.384 . S
C824 H815 0.929 . S
C824 C816 1.378 . S
C824 C819 1.350 . S
C825 H812 0.929 . S
C825 C817 1.433 . S
C825 N827 1.384 . S
N826 C822 1.427 . S
N826 C823 1.384 . S
N827 C819 1.427 . S
N827 C825 1.384 . S
H828 C834 0.930 . S
H829 C838 0.930 . S
H830 C843 0.929 . S
H831 C841 0.929 . S
H832 C836 0.929 . S
H833 C842 0.929 . S
C834 H828 0.930 . S
C834 C835 1.367 . S
C834 C842 1.378 . S
C835 C834 1.367 . S
C835 C843 1.433 . S
C836 H832 0.929 . S
C836 C838 1.378 . S
C836 C840 1.350 . S
C837 C840 1.463 . S
C837 C842 1.350 . S
C837 N845 1.427 . S
C838 H829 0.930 . S
C838 C836 1.378 . S
C838 C839 1.367 . S
C839 C838 1.367 . S
C839 C841 1.433 . S
C840 C836 1.350 . S
C840 C837 1.463 . S
C840 N844 1.427 . S
C841 H831 0.929 . S
C841 C839 1.433 . S
C841 N844 1.384 . S
C842 H833 0.929 . S
C842 C834 1.378 . S
C842 C837 1.350 . S
C843 H830 0.929 . S
C843 C835 1.433 . S
C843 N845 1.384 . S
N844 C840 1.427 . S
N844 C841 1.384 . S
N845 C837 1.427 . S
N845 C843 1.384 . S
H846 C852 0.930 . S
H847 C856 0.930 . S
H848 C861 0.929 . S
H849 C859 0.929 . S
H850 C854 0.929 . S
H851 C860 0.929 . S
C852 H846 0.930 . S
C852 C853 1.367 . S
C852 C860 1.378 . S
C853 C852 1.367 . S
C853 C861 1.433 . S
C854 H850 0.929 . S
C854 C856 1.378 . S
C854 C858 1.350 . S
C855 C858 1.463 . S
C855 C860 1.350 . S
C855 N863 1.427 . S
C856 H847 0.930 . S
C856 C854 1.378 . S
C856 C857 1.367 . S
C857 C856 1.367 . S
C857 C859 1.433 . S
C858 C854 1.350 . S
C858 C855 1.463 . S
C858 N862 1.427 . S
C859 H849 0.929 . S
C859 C857 1.433 . S
C859 N862 1.384 . S
C860 H851 0.929 . S
C860 C852 1.378 . S
C860 C855 1.350 . S
C861 H848 0.929 . S
C861 C853 1.433 . S
C861 N863 1.384 . S
N862 C858 1.427 . S
N862 C859 1.384 . S
N863 C855 1.427 . S
N863 C861 1.384 . S
H864 C870 0.930 . S
H865 C874 0.930 . S
H866 C879 0.929 . S
H867 C877 0.929 . S
H868 C872 0.929 1_554 S
H869 C878 0.929 . S
C870 H864 0.930 . S
C870 C871 1.367 . S
C870 C878 1.378 . S
C871 C870 1.367 . S
C871 C879 1.433 . S
C872 H868 0.929 1_556 S
C872 C874 1.378 . S
C872 C876 1.350 1_556 S
C873 C876 1.463 . S
C873 C878 1.350 . S
C873 N881 1.427 . S
C874 H865 0.930 . S
C874 C872 1.378 . S
C874 C875 1.367 . S
C875 C874 1.367 . S
C875 C877 1.433 . S
C876 C872 1.350 1_554 S
C876 C873 1.463 . S
C876 N880 1.427 1_554 S
C877 H867 0.929 . S
C877 C875 1.433 . S
C877 N880 1.384 . S
C878 H869 0.929 . S
C878 C870 1.378 . S
C878 C873 1.350 . S
C879 H866 0.929 . S
C879 C871 1.433 . S
C879 N881 1.384 . S
N880 C876 1.427 1_556 S
N880 C877 1.384 . S
N881 C873 1.427 . S
N881 C879 1.384 . S
H882 C888 0.930 . S
H883 C892 0.930 . S
H884 C897 0.929 . S
H885 C895 0.929 . S
H886 C890 0.929 . S
H887 C896 0.929 . S
C888 H882 0.930 . S
C888 C889 1.367 . S
C888 C896 1.378 . S
C889 C888 1.367 . S
C889 C897 1.433 . S
C890 H886 0.929 . S
C890 C892 1.378 . S
C890 C894 1.350 1_556 S
C891 C894 1.463 . S
C891 C896 1.350 . S
C891 N899 1.427 . S
C892 H883 0.930 . S
C892 C890 1.378 . S
C892 C893 1.367 . S
C893 C892 1.367 . S
C893 C895 1.433 . S
C894 C890 1.350 1_554 S
C894 C891 1.463 . S
C894 N898 1.427 1_554 S
C895 H885 0.929 . S
C895 C893 1.433 . S
C895 N898 1.384 . S
C896 H887 0.929 . S
C896 C888 1.378 . S
C896 C891 1.350 . S
C897 H884 0.929 . S
C897 C889 1.433 . S
C897 N899 1.384 . S
N898 C894 1.427 1_556 S
N898 C895 1.384 . S
N899 C891 1.427 . S
N899 C897 1.384 . S
H900 C906 0.930 . S
H901 C910 0.930 . S
H902 C915 0.929 . S
H903 C913 0.929 . S
H904 C908 0.929 . S
H905 C914 0.929 1_554 S
C906 H900 0.930 . S
C906 C907 1.367 . S
C906 C914 1.378 . S
C907 C906 1.367 . S
C907 C915 1.433 . S
C908 H904 0.929 . S
C908 C910 1.378 . S
C908 C912 1.350 . S
C909 C912 1.463 . S
C909 C914 1.350 1_554 S
C909 N917 1.427 1_554 S
C910 H901 0.930 . S
C910 C908 1.378 . S
C910 C911 1.367 . S
C911 C910 1.367 . S
C911 C913 1.433 . S
C912 C908 1.350 . S
C912 C909 1.463 . S
C912 N916 1.427 . S
C913 H903 0.929 . S
C913 C911 1.433 . S
C913 N916 1.384 . S
C914 H905 0.929 1_556 S
C914 C906 1.378 . S
C914 C909 1.350 1_556 S
C915 H902 0.929 . S
C915 C907 1.433 . S
C915 N917 1.384 . S
N916 C912 1.427 . S
N916 C913 1.384 . S
N917 C909 1.427 1_556 S
N917 C915 1.384 . S
H918 C924 0.930 . S
H919 C928 0.930 . S
H920 C933 0.929 . S
H921 C931 0.929 . S
H922 C926 0.929 . S
H923 C932 0.929 . S
C924 H918 0.930 . S
C924 C925 1.367 . S
C924 C932 1.378 . S
C925 C924 1.367 . S
C925 C933 1.433 . S
C926 H922 0.929 . S
C926 C928 1.378 . S
C926 C930 1.350 . S
C927 C930 1.463 . S
C927 C932 1.350 . S
C927 N935 1.427 . S
C928 H919 0.930 . S
C928 C926 1.378 . S
C928 C929 1.367 . S
C929 C928 1.367 . S
C929 C931 1.433 . S
C930 C926 1.350 . S
C930 C927 1.463 . S
C930 N934 1.427 . S
C931 H921 0.929 . S
C931 C929 1.433 . S
C931 N934 1.384 . S
C932 H923 0.929 . S
C932 C924 1.378 . S
C932 C927 1.350 . S
C933 H920 0.929 . S
C933 C925 1.433 . S
C933 N935 1.384 . S
N934 C930 1.427 . S
N934 C931 1.384 . S
N935 C927 1.427 . S
N935 C933 1.384 . S
H936 C942 0.930 . S
H937 C946 0.930 . S
H938 C951 0.929 . S
H939 C949 0.929 . S
H940 C944 0.929 . S
H941 C950 0.929 . S
C942 H936 0.930 . S
C942 C943 1.367 . S
C942 C950 1.378 . S
C943 C942 1.367 . S
C943 C951 1.433 . S
C944 H940 0.929 . S
C944 C946 1.378 . S
C944 C948 1.350 . S
C945 C948 1.463 . S
C945 C950 1.350 . S
C945 N953 1.427 . S
C946 H937 0.930 . S
C946 C944 1.378 . S
C946 C947 1.367 . S
C947 C946 1.367 . S
C947 C949 1.433 . S
C948 C944 1.350 . S
C948 C945 1.463 . S
C948 N952 1.427 . S
C949 H939 0.929 . S
C949 C947 1.433 . S
C949 N952 1.384 . S
C950 H941 0.929 . S
C950 C942 1.378 . S
C950 C945 1.350 . S
C951 H938 0.929 . S
C951 C943 1.433 . S
C951 N953 1.384 . S
N952 C948 1.427 . S
N952 C949 1.384 . S
N953 C945 1.427 . S
N953 C951 1.384 . S
H954 C960 0.930 . S
H955 C964 0.930 . S
H956 C969 0.929 . S
H957 C967 0.929 . S
H958 C962 0.929 . S
H959 C968 0.929 . S
C960 H954 0.930 . S
C960 C961 1.367 . S
C960 C968 1.378 . S
C961 C960 1.367 . S
C961 C969 1.433 . S
C962 H958 0.929 . S
C962 C964 1.378 . S
C962 C966 1.350 . S
C963 C966 1.463 . S
C963 C968 1.350 . S
C963 N971 1.427 . S
C964 H955 0.930 . S
C964 C962 1.378 . S
C964 C965 1.367 . S
C965 C964 1.367 . S
C965 C967 1.433 . S
C966 C962 1.350 . S
C966 C963 1.463 . S
C966 N970 1.427 . S
C967 H957 0.929 . S
C967 C965 1.433 . S
C967 N970 1.384 . S
C968 H959 0.929 . S
C968 C960 1.378 . S
C968 C963 1.350 . S
C969 H956 0.929 . S
C969 C961 1.433 . S
C969 N971 1.384 . S
N970 C966 1.427 . S
N970 C967 1.384 . S
N971 C963 1.427 . S
N971 C969 1.384 . S
H972 C978 0.930 . S
H973 C982 0.930 . S
H974 C987 0.929 . S
H975 C985 0.929 . S
H976 C980 0.929 . S
H977 C986 0.929 . S
C978 H972 0.930 . S
C978 C979 1.367 . S
C978 C986 1.378 . S
C979 C978 1.367 . S
C979 C987 1.433 . S
C980 H976 0.929 . S
C980 C982 1.378 . S
C980 C984 1.350 . S
C981 C984 1.463 . S
C981 C986 1.350 . S
C981 N989 1.427 . S
C982 H973 0.930 . S
C982 C980 1.378 . S
C982 C983 1.367 . S
C983 C982 1.367 . S
C983 C985 1.433 . S
C984 C980 1.350 . S
C984 C981 1.463 . S
C984 N988 1.427 . S
C985 H975 0.929 . S
C985 C983 1.433 . S
C985 N988 1.384 . S
C986 H977 0.929 . S
C986 C978 1.378 . S
C986 C981 1.350 . S
C987 H974 0.929 . S
C987 C979 1.433 . S
C987 N989 1.384 . S
N988 C984 1.427 . S
N988 C985 1.384 . S
N989 C981 1.427 . S
N989 C987 1.384 . S
H990 C996 0.930 . S
H991 C1000 0.930 . S
H992 C1005 0.929 . S
H993 C1003 0.929 . S
H994 C998 0.929 . S
H995 C1004 0.929 . S
C996 H990 0.930 . S
C996 C997 1.367 . S
C996 C1004 1.378 . S
C997 C996 1.367 . S
C997 C1005 1.433 . S
C998 H994 0.929 . S
C998 C1000 1.378 . S
C998 C1002 1.350 . S
C999 C1002 1.463 . S
C999 C1004 1.350 . S
C999 N1007 1.427 . S
C1000 H991 0.930 . S
C1000 C998 1.378 . S
C1000 C1001 1.367 . S
C1001 C1000 1.367 . S
C1001 C1003 1.433 . S
C1002 C998 1.350 . S
C1002 C999 1.463 . S
C1002 N1006 1.427 . S
C1003 H993 0.929 . S
C1003 C1001 1.433 . S
C1003 N1006 1.384 . S
C1004 H995 0.929 . S
C1004 C996 1.378 . S
C1004 C999 1.350 . S
C1005 H992 0.929 . S
C1005 C997 1.433 . S
C1005 N1007 1.384 . S
N1006 C1002 1.427 . S
N1006 C1003 1.384 . S
N1007 C999 1.427 . S
N1007 C1005 1.384 . S
H1008 C1014 0.930 . S
H1009 C1018 0.930 . S
H1010 C1023 0.929 . S
H1011 C1021 0.929 . S
H1012 C1016 0.929 . S
H1013 C1022 0.929 . S
C1014 H1008 0.930 . S
C1014 C1015 1.367 . S
C1014 C1022 1.378 . S
C1015 C1014 1.367 . S
C1015 C1023 1.433 . S
C1016 H1012 0.929 . S
C1016 C1018 1.378 . S
C1016 C1020 1.350 . S
C1017 C1020 1.463 . S
C1017 C1022 1.350 . S
C1017 N1025 1.427 . S
C1018 H1009 0.930 . S
C1018 C1016 1.378 . S
C1018 C1019 1.367 . S
C1019 C1018 1.367 . S
C1019 C1021 1.433 . S
C1020 C1016 1.350 . S
C1020 C1017 1.463 . S
C1020 N1024 1.427 . S
C1021 H1011 0.929 . S
C1021 C1019 1.433 . S
C1021 N1024 1.384 . S
C1022 H1013 0.929 . S
C1022 C1014 1.378 . S
C1022 C1017 1.350 . S
C1023 H1010 0.929 . S
C1023 C1015 1.433 . S
C1023 N1025 1.384 . S
N1024 C1020 1.427 . S
N1024 C1021 1.384 . S
N1025 C1017 1.427 . S
N1025 C1023 1.384 . S
H1026 C1032 0.930 . S
H1027 C1036 0.930 . S
H1028 C1041 0.929 . S
H1029 C1039 0.929 . S
H1030 C1034 0.929 1_554 S
H1031 C1040 0.929 1_556 S
C1032 H1026 0.930 . S
C1032 C1033 1.367 . S
C1032 C1040 1.378 . S
C1033 C1032 1.367 . S
C1033 C1041 1.433 . S
C1034 H1030 0.929 1_556 S
C1034 C1036 1.378 . S
C1034 C1038 1.350 . S
C1035 C1038 1.463 1_654 S
C1035 C1040 1.350 . S
C1035 N1043 1.427 . S
C1036 H1027 0.930 . S
C1036 C1034 1.378 . S
C1036 C1037 1.367 . S
C1037 C1036 1.367 . S
C1037 C1039 1.433 . S
C1038 C1034 1.350 . S
C1038 C1035 1.463 1_456 S
C1038 N1042 1.427 . S
C1039 H1029 0.929 . S
C1039 C1037 1.433 . S
C1039 N1042 1.384 . S
C1040 H1031 0.929 1_554 S
C1040 C1032 1.378 . S
C1040 C1035 1.350 . S
C1041 H1028 0.929 . S
C1041 C1033 1.433 . S
C1041 N1043 1.384 . S
N1042 C1038 1.427 . S
N1042 C1039 1.384 . S
N1043 C1035 1.427 . S
N1043 C1041 1.384 . S
H1044 C1050 0.930 . S
H1045 C1054 0.930 . S
H1046 C1059 0.929 . S
H1047 C1057 0.929 . S
H1048 C1052 0.929 . S
H1049 C1058 0.929 . S
C1050 H1044 0.930 . S
C1050 C1051 1.367 . S
C1050 C1058 1.378 . S
C1051 C1050 1.367 . S
C1051 C1059 1.433 . S
C1052 H1048 0.929 . S
C1052 C1054 1.378 . S
C1052 C1056 1.350 . S
C1053 C1056 1.463 1_556 S
C1053 C1058 1.350 . S
C1053 N1061 1.427 1_556 S
C1054 H1045 0.930 . S
C1054 C1052 1.378 . S
C1054 C1055 1.367 . S
C1055 C1054 1.367 . S
C1055 C1057 1.433 . S
C1056 C1052 1.350 . S
C1056 C1053 1.463 1_554 S
C1056 N1060 1.427 1_554 S
C1057 H1047 0.929 . S
C1057 C1055 1.433 . S
C1057 N1060 1.384 1_554 S
C1058 H1049 0.929 . S
C1058 C1050 1.378 . S
C1058 C1053 1.350 . S
C1059 H1046 0.929 . S
C1059 C1051 1.433 . S
C1059 N1061 1.384 1_556 S
N1060 C1056 1.427 1_556 S
N1060 C1057 1.384 1_556 S
N1061 C1053 1.427 1_554 S
N1061 C1059 1.384 1_554 S
H1062 C1068 0.930 . S
H1063 C1072 0.930 . S
H1064 C1077 0.929 . S
H1065 C1075 0.929 . S
H1066 C1070 0.929 1_554 S
H1067 C1076 0.929 1_556 S
C1068 H1062 0.930 . S
C1068 C1069 1.367 . S
C1068 C1076 1.378 . S
C1069 C1068 1.367 . S
C1069 C1077 1.433 . S
C1070 H1066 0.929 1_556 S
C1070 C1072 1.378 . S
C1070 C1074 1.350 . S
C1071 C1074 1.463 1_544 S
C1071 C1076 1.350 . S
C1071 N1079 1.427 . S
C1072 H1063 0.930 . S
C1072 C1070 1.378 . S
C1072 C1073 1.367 . S
C1073 C1072 1.367 . S
C1073 C1075 1.433 . S
C1074 C1070 1.350 . S
C1074 C1071 1.463 1_566 S
C1074 N1078 1.427 . S
C1075 H1065 0.929 . S
C1075 C1073 1.433 . S
C1075 N1078 1.384 . S
C1076 H1067 0.929 1_554 S
C1076 C1068 1.378 . S
C1076 C1071 1.350 . S
C1077 H1064 0.929 . S
C1077 C1069 1.433 . S
C1077 N1079 1.384 . S
N1078 C1074 1.427 . S
N1078 C1075 1.384 . S
N1079 C1071 1.427 . S
N1079 C1077 1.384 . S
H1080 C1086 0.930 . S
H1081 C1090 0.930 . S
H1082 C1095 0.929 . S
H1083 C1093 0.929 . S
H1084 C1088 0.929 . S
H1085 C1094 0.929 . S
C1086 H1080 0.930 . S
C1086 C1087 1.367 . S
C1086 C1094 1.378 . S
C1087 C1086 1.367 . S
C1087 C1095 1.433 . S
C1088 H1084 0.929 . S
C1088 C1090 1.378 . S
C1088 C1092 1.350 . S
C1089 C1092 1.463 1_554 S
C1089 C1094 1.350 . S
C1089 N1097 1.427 . S
C1090 H1081 0.930 . S
C1090 C1088 1.378 . S
C1090 C1091 1.367 . S
C1091 C1090 1.367 . S
C1091 C1093 1.433 . S
C1092 C1088 1.350 . S
C1092 C1089 1.463 1_556 S
C1092 N1096 1.427 . S
C1093 H1083 0.929 . S
C1093 C1091 1.433 . S
C1093 N1096 1.384 . S
C1094 H1085 0.929 . S
C1094 C1086 1.378 . S
C1094 C1089 1.350 . S
C1095 H1082 0.929 . S
C1095 C1087 1.433 . S
C1095 N1097 1.384 . S
N1096 C1092 1.427 . S
N1096 C1093 1.384 . S
N1097 C1089 1.427 . S
N1097 C1095 1.384 . S
H1098 C1104 0.930 . S
H1099 C1108 0.930 . S
H1100 C1113 0.929 . S
H1101 C1111 0.929 . S
H1102 C1106 0.929 . S
H1103 C1112 0.929 . S
C1104 H1098 0.930 . S
C1104 C1105 1.367 . S
C1104 C1112 1.378 . S
C1105 C1104 1.367 . S
C1105 C1113 1.433 1_554 S
C1106 H1102 0.929 . S
C1106 C1108 1.378 . S
C1106 C1110 1.350 . S
C1107 C1110 1.463 1_564 S
C1107 C1112 1.350 . S
C1107 N1115 1.427 1_554 S
C1108 H1099 0.930 . S
C1108 C1106 1.378 . S
C1108 C1109 1.367 . S
C1109 C1108 1.367 . S
C1109 C1111 1.433 1_556 S
C1110 C1106 1.350 . S
C1110 C1107 1.463 1_546 S
C1110 N1114 1.427 1_556 S
C1111 H1101 0.929 . S
C1111 C1109 1.433 1_554 S
C1111 N1114 1.384 . S
C1112 H1103 0.929 . S
C1112 C1104 1.378 . S
C1112 C1107 1.350 . S
C1113 H1100 0.929 . S
C1113 C1105 1.433 1_556 S
C1113 N1115 1.384 . S
N1114 C1110 1.427 1_554 S
N1114 C1111 1.384 . S
N1115 C1107 1.427 1_556 S
N1115 C1113 1.384 . S
H1116 C1122 0.930 . S
H1117 C1126 0.930 . S
H1118 C1131 0.929 . S
H1119 C1129 0.929 . S
H1120 C1124 0.929 . S
H1121 C1130 0.929 . S
C1122 H1116 0.930 . S
C1122 C1123 1.367 1_554 S
C1122 C1130 1.378 . S
C1123 C1122 1.367 1_556 S
C1123 C1131 1.433 . S
C1124 H1120 0.929 . S
C1124 C1126 1.378 . S
C1124 C1128 1.350 1_556 S
C1125 C1128 1.463 1_656 S
C1125 C1130 1.350 1_556 S
C1125 N1133 1.427 . S
C1126 H1117 0.930 . S
C1126 C1124 1.378 . S
C1126 C1127 1.367 1_556 S
C1127 C1126 1.367 1_554 S
C1127 C1129 1.433 . S
C1128 C1124 1.350 1_554 S
C1128 C1125 1.463 1_454 S
C1128 N1132 1.427 . S
C1129 H1119 0.929 . S
C1129 C1127 1.433 . S
C1129 N1132 1.384 . S
C1130 H1121 0.929 . S
C1130 C1122 1.378 . S
C1130 C1125 1.350 1_554 S
C1131 H1118 0.929 . S
C1131 C1123 1.433 . S
C1131 N1133 1.384 . S
N1132 C1128 1.427 . S
N1132 C1129 1.384 . S
N1133 C1125 1.427 . S
N1133 C1131 1.384 . S
H1134 C1140 0.930 . S
H1135 C1144 0.930 . S
H1136 C1149 0.929 . S
H1137 C1147 0.929 . S
H1138 C1142 0.929 . S
H1139 C1148 0.929 . S
C1140 H1134 0.930 . S
C1140 C1141 1.367 . S
C1140 C1148 1.378 . S
C1141 C1140 1.367 . S
C1141 C1149 1.433 1_556 S
C1142 H1138 0.929 . S
C1142 C1144 1.378 . S
C1142 C1146 1.350 . S
C1143 C1146 1.463 1_556 S
C1143 C1148 1.350 . S
C1143 N1151 1.427 1_556 S
C1144 H1135 0.930 . S
C1144 C1142 1.378 . S
C1144 C1145 1.367 . S
C1145 C1144 1.367 . S
C1145 C1147 1.433 1_554 S
C1146 C1142 1.350 . S
C1146 C1143 1.463 1_554 S
C1146 N1150 1.427 1_554 S
C1147 H1137 0.929 . S
C1147 C1145 1.433 1_556 S
C1147 N1150 1.384 . S
C1148 H1139 0.929 . S
C1148 C1140 1.378 . S
C1148 C1143 1.350 . S
C1149 H1136 0.929 . S
C1149 C1141 1.433 1_554 S
C1149 N1151 1.384 . S
N1150 C1146 1.427 1_556 S
N1150 C1147 1.384 . S
N1151 C1143 1.427 1_554 S
N1151 C1149 1.384 . S
H1152 C1158 0.930 . S
H1153 C1162 0.930 . S
H1154 C1167 0.929 . S
H1155 C1165 0.929 . S
H1156 C1160 0.929 . S
H1157 C1166 0.929 . S
C1158 H1152 0.930 . S
C1158 C1159 1.367 1_554 S
C1158 C1166 1.378 . S
C1159 C1158 1.367 1_556 S
C1159 C1167 1.433 . S
C1160 H1156 0.929 . S
C1160 C1162 1.378 . S
C1160 C1164 1.350 1_556 S
C1161 C1164 1.463 1_546 S
C1161 C1166 1.350 1_556 S
C1161 N1169 1.427 . S
C1162 H1153 0.930 . S
C1162 C1160 1.378 . S
C1162 C1163 1.367 1_556 S
C1163 C1162 1.367 1_554 S
C1163 C1165 1.433 . S
C1164 C1160 1.350 1_554 S
C1164 C1161 1.463 1_564 S
C1164 N1168 1.427 . S
C1165 H1155 0.929 . S
C1165 C1163 1.433 . S
C1165 N1168 1.384 . S
C1166 H1157 0.929 . S
C1166 C1158 1.378 . S
C1166 C1161 1.350 1_554 S
C1167 H1154 0.929 . S
C1167 C1159 1.433 . S
C1167 N1169 1.384 . S
N1168 C1164 1.427 . S
N1168 C1165 1.384 . S
N1169 C1161 1.427 . S
N1169 C1167 1.384 . S
H1170 C1176 0.930 . S
H1171 C1180 0.930 . S
H1172 C1185 0.929 . S
H1173 C1183 0.929 . S
H1174 C1178 0.929 . S
H1175 C1184 0.929 . S
C1176 H1170 0.930 . S
C1176 C1177 1.367 . S
C1176 C1184 1.378 1_556 S
C1177 C1176 1.367 . S
C1177 C1185 1.433 . S
C1178 H1174 0.929 . S
C1178 C1180 1.378 1_556 S
C1178 C1182 1.350 1_556 S
C1179 C1182 1.463 1_656 S
C1179 C1184 1.350 1_556 S
C1179 N1187 1.427 . S
C1180 H1171 0.930 . S
C1180 C1178 1.378 1_554 S
C1180 C1181 1.367 . S
C1181 C1180 1.367 . S
C1181 C1183 1.433 . S
C1182 C1178 1.350 1_554 S
C1182 C1179 1.463 1_454 S
C1182 N1186 1.427 . S
C1183 H1173 0.929 . S
C1183 C1181 1.433 . S
C1183 N1186 1.384 . S
C1184 H1175 0.929 . S
C1184 C1176 1.378 1_554 S
C1184 C1179 1.350 1_554 S
C1185 H1172 0.929 . S
C1185 C1177 1.433 . S
C1185 N1187 1.384 . S
N1186 C1182 1.427 . S
N1186 C1183 1.384 . S
N1187 C1179 1.427 . S
N1187 C1185 1.384 . S
H1188 C1194 0.930 . S
H1189 C1198 0.930 . S
H1190 C1203 0.929 . S
H1191 C1201 0.929 . S
H1192 C1196 0.929 . S
H1193 C1202 0.929 . S
C1194 H1188 0.930 . S
C1194 C1195 1.367 . S
C1194 C1202 1.378 . S
C1195 C1194 1.367 . S
C1195 C1203 1.433 . S
C1196 H1192 0.929 . S
C1196 C1198 1.378 . S
C1196 C1200 1.350 . S
C1197 C1200 1.463 . S
C1197 C1202 1.350 . S
C1197 N1205 1.427 . S
C1198 H1189 0.930 . S
C1198 C1196 1.378 . S
C1198 C1199 1.367 . S
C1199 C1198 1.367 . S
C1199 C1201 1.433 . S
C1200 C1196 1.350 . S
C1200 C1197 1.463 . S
C1200 N1204 1.427 . S
C1201 H1191 0.929 . S
C1201 C1199 1.433 . S
C1201 N1204 1.384 . S
C1202 H1193 0.929 . S
C1202 C1194 1.378 . S
C1202 C1197 1.350 . S
C1203 H1190 0.929 . S
C1203 C1195 1.433 . S
C1203 N1205 1.384 . S
N1204 C1200 1.427 . S
N1204 C1201 1.384 . S
N1205 C1197 1.427 . S
N1205 C1203 1.384 . S
H1206 C1212 0.930 . S
H1207 C1216 0.930 . S
H1208 C1221 0.929 . S
H1209 C1219 0.929 . S
H1210 C1214 0.929 . S
H1211 C1220 0.929 . S
C1212 H1206 0.930 . S
C1212 C1213 1.367 . S
C1212 C1220 1.378 . S
C1213 C1212 1.367 . S
C1213 C1221 1.433 . S
C1214 H1210 0.929 . S
C1214 C1216 1.378 . S
C1214 C1218 1.350 . S
C1215 C1218 1.463 . S
C1215 C1220 1.350 . S
C1215 N1223 1.427 . S
C1216 H1207 0.930 . S
C1216 C1214 1.378 . S
C1216 C1217 1.367 . S
C1217 C1216 1.367 . S
C1217 C1219 1.433 . S
C1218 C1214 1.350 . S
C1218 C1215 1.463 . S
C1218 N1222 1.427 . S
C1219 H1209 0.929 . S
C1219 C1217 1.433 . S
C1219 N1222 1.384 . S
C1220 H1211 0.929 . S
C1220 C1212 1.378 . S
C1220 C1215 1.350 . S
C1221 H1208 0.929 . S
C1221 C1213 1.433 . S
C1221 N1223 1.384 . S
N1222 C1218 1.427 . S
N1222 C1219 1.384 . S
N1223 C1215 1.427 . S
N1223 C1221 1.384 . S
H1224 C1230 0.930 . S
H1225 C1234 0.930 . S
H1226 C1239 0.929 . S
H1227 C1237 0.929 . S
H1228 C1232 0.929 . S
H1229 C1238 0.929 . S
C1230 H1224 0.930 . S
C1230 C1231 1.367 . S
C1230 C1238 1.378 . S
C1231 C1230 1.367 . S
C1231 C1239 1.433 . S
C1232 H1228 0.929 . S
C1232 C1234 1.378 . S
C1232 C1236 1.350 . S
C1233 C1236 1.463 . S
C1233 C1238 1.350 . S
C1233 N1241 1.427 . S
C1234 H1225 0.930 . S
C1234 C1232 1.378 . S
C1234 C1235 1.367 . S
C1235 C1234 1.367 . S
C1235 C1237 1.433 . S
C1236 C1232 1.350 . S
C1236 C1233 1.463 . S
C1236 N1240 1.427 . S
C1237 H1227 0.929 . S
C1237 C1235 1.433 . S
C1237 N1240 1.384 . S
C1238 H1229 0.929 . S
C1238 C1230 1.378 . S
C1238 C1233 1.350 . S
C1239 H1226 0.929 . S
C1239 C1231 1.433 . S
C1239 N1241 1.384 . S
N1240 C1236 1.427 . S
N1240 C1237 1.384 . S
N1241 C1233 1.427 . S
N1241 C1239 1.384 . S
H1242 C1248 0.930 . S
H1243 C1252 0.930 . S
H1244 C1257 0.929 . S
H1245 C1255 0.929 . S
H1246 C1250 0.929 . S
H1247 C1256 0.929 . S
C1248 H1242 0.930 . S
C1248 C1249 1.367 . S
C1248 C1256 1.378 . S
C1249 C1248 1.367 . S
C1249 C1257 1.433 . S
C1250 H1246 0.929 . S
C1250 C1252 1.378 . S
C1250 C1254 1.350 . S
C1251 C1254 1.463 . S
C1251 C1256 1.350 . S
C1251 N1259 1.427 . S
C1252 H1243 0.930 . S
C1252 C1250 1.378 . S
C1252 C1253 1.367 . S
C1253 C1252 1.367 . S
C1253 C1255 1.433 . S
C1254 C1250 1.350 . S
C1254 C1251 1.463 . S
C1254 N1258 1.427 . S
C1255 H1245 0.929 . S
C1255 C1253 1.433 . S
C1255 N1258 1.384 . S
C1256 H1247 0.929 . S
C1256 C1248 1.378 . S
C1256 C1251 1.350 . S
C1257 H1244 0.929 . S
C1257 C1249 1.433 . S
C1257 N1259 1.384 . S
N1258 C1254 1.427 . S
N1258 C1255 1.384 . S
N1259 C1251 1.427 . S
N1259 C1257 1.384 . S
H1260 C1266 0.930 . S
H1261 C1270 0.930 . S
H1262 C1275 0.929 . S
H1263 C1273 0.929 . S
H1264 C1268 0.929 . S
H1265 C1274 0.929 . S
C1266 H1260 0.930 . S
C1266 C1267 1.367 . S
C1266 C1274 1.378 . S
C1267 C1266 1.367 . S
C1267 C1275 1.433 . S
C1268 H1264 0.929 . S
C1268 C1270 1.378 . S
C1268 C1272 1.350 . S
C1269 C1272 1.463 . S
C1269 C1274 1.350 . S
C1269 N1277 1.427 . S
C1270 H1261 0.930 . S
C1270 C1268 1.378 . S
C1270 C1271 1.367 . S
C1271 C1270 1.367 . S
C1271 C1273 1.433 . S
C1272 C1268 1.350 . S
C1272 C1269 1.463 . S
C1272 N1276 1.427 . S
C1273 H1263 0.929 . S
C1273 C1271 1.433 . S
C1273 N1276 1.384 . S
C1274 H1265 0.929 . S
C1274 C1266 1.378 . S
C1274 C1269 1.350 . S
C1275 H1262 0.929 . S
C1275 C1267 1.433 . S
C1275 N1277 1.384 . S
N1276 C1272 1.427 . S
N1276 C1273 1.384 . S
N1277 C1269 1.427 . S
N1277 C1275 1.384 . S
H1278 C1284 0.930 . S
H1279 C1288 0.930 . S
H1280 C1293 0.929 . S
H1281 C1291 0.929 . S
H1282 C1286 0.929 . S
H1283 C1292 0.929 . S
C1284 H1278 0.930 . S
C1284 C1285 1.367 . S
C1284 C1292 1.378 . S
C1285 C1284 1.367 . S
C1285 C1293 1.433 . S
C1286 H1282 0.929 . S
C1286 C1288 1.378 . S
C1286 C1290 1.350 . S
C1287 C1290 1.463 . S
C1287 C1292 1.350 . S
C1287 N1295 1.427 . S
C1288 H1279 0.930 . S
C1288 C1286 1.378 . S
C1288 C1289 1.367 . S
C1289 C1288 1.367 . S
C1289 C1291 1.433 . S
C1290 C1286 1.350 . S
C1290 C1287 1.463 . S
C1290 N1294 1.427 . S
C1291 H1281 0.929 . S
C1291 C1289 1.433 . S
C1291 N1294 1.384 . S
C1292 H1283 0.929 . S
C1292 C1284 1.378 . S
C1292 C1287 1.350 . S
C1293 H1280 0.929 . S
C1293 C1285 1.433 . S
C1293 N1295 1.384 . S
N1294 C1290 1.427 . S
N1294 C1291 1.384 . S
N1295 C1287 1.427 . S
N1295 C1293 1.384 . S
H1296 C1302 0.930 . S
H1297 C1306 0.930 . S
H1298 C1311 0.929 . S
H1299 C1309 0.929 . S
H1300 C1304 0.929 . S
H1301 C1310 0.929 . S
C1302 H1296 0.930 . S
C1302 C1303 1.367 . S
C1302 C1310 1.378 . S
C1303 C1302 1.367 . S
C1303 C1311 1.433 . S
C1304 H1300 0.929 . S
C1304 C1306 1.378 . S
C1304 C1308 1.350 . S
C1305 C1308 1.463 . S
C1305 C1310 1.350 . S
C1305 N1313 1.427 . S
C1306 H1297 0.930 . S
C1306 C1304 1.378 . S
C1306 C1307 1.367 . S
C1307 C1306 1.367 . S
C1307 C1309 1.433 . S
C1308 C1304 1.350 . S
C1308 C1305 1.463 . S
C1308 N1312 1.427 . S
C1309 H1299 0.929 . S
C1309 C1307 1.433 . S
C1309 N1312 1.384 . S
C1310 H1301 0.929 . S
C1310 C1302 1.378 . S
C1310 C1305 1.350 . S
C1311 H1298 0.929 . S
C1311 C1303 1.433 . S
C1311 N1313 1.384 . S
N1312 C1308 1.427 . S
N1312 C1309 1.384 . S
N1313 C1305 1.427 . S
N1313 C1311 1.384 . S
H1314 C1320 0.930 . S
H1315 C1324 0.930 . S
H1316 C1329 0.929 . S
H1317 C1327 0.929 . S
H1318 C1322 0.929 . S
H1319 C1328 0.929 . S
C1320 H1314 0.930 . S
C1320 C1321 1.367 . S
C1320 C1328 1.378 . S
C1321 C1320 1.367 . S
C1321 C1329 1.433 . S
C1322 H1318 0.929 . S
C1322 C1324 1.378 . S
C1322 C1326 1.350 . S
C1323 C1326 1.463 . S
C1323 C1328 1.350 . S
C1323 N1331 1.427 . S
C1324 H1315 0.930 . S
C1324 C1322 1.378 . S
C1324 C1325 1.367 . S
C1325 C1324 1.367 . S
C1325 C1327 1.433 . S
C1326 C1322 1.350 . S
C1326 C1323 1.463 . S
C1326 N1330 1.427 . S
C1327 H1317 0.929 . S
C1327 C1325 1.433 . S
C1327 N1330 1.384 . S
C1328 H1319 0.929 . S
C1328 C1320 1.378 . S
C1328 C1323 1.350 . S
C1329 H1316 0.929 . S
C1329 C1321 1.433 . S
C1329 N1331 1.384 . S
N1330 C1326 1.427 . S
N1330 C1327 1.384 . S
N1331 C1323 1.427 . S
N1331 C1329 1.384 . S
H1332 C1338 0.930 . S
H1333 C1342 0.930 . S
H1334 C1347 0.929 . S
H1335 C1345 0.929 . S
H1336 C1340 0.929 . S
H1337 C1346 0.929 . S
C1338 H1332 0.930 . S
C1338 C1339 1.367 . S
C1338 C1346 1.378 . S
C1339 C1338 1.367 . S
C1339 C1347 1.433 . S
C1340 H1336 0.929 . S
C1340 C1342 1.378 . S
C1340 C1344 1.350 . S
C1341 C1344 1.463 . S
C1341 C1346 1.350 . S
C1341 N1349 1.427 . S
C1342 H1333 0.930 . S
C1342 C1340 1.378 . S
C1342 C1343 1.367 . S
C1343 C1342 1.367 . S
C1343 C1345 1.433 . S
C1344 C1340 1.350 . S
C1344 C1341 1.463 . S
C1344 N1348 1.427 . S
C1345 H1335 0.929 . S
C1345 C1343 1.433 . S
C1345 N1348 1.384 . S
C1346 H1337 0.929 . S
C1346 C1338 1.378 . S
C1346 C1341 1.350 . S
C1347 H1334 0.929 . S
C1347 C1339 1.433 . S
C1347 N1349 1.384 . S
N1348 C1344 1.427 . S
N1348 C1345 1.384 . S
N1349 C1341 1.427 . S
N1349 C1347 1.384 . S
H1350 C1356 0.930 . S
H1351 C1360 0.930 . S
H1352 C1365 0.929 . S
H1353 C1363 0.929 . S
H1354 C1358 0.929 . S
H1355 C1364 0.929 . S
C1356 H1350 0.930 . S
C1356 C1357 1.367 . S
C1356 C1364 1.378 . S
C1357 C1356 1.367 . S
C1357 C1365 1.433 . S
C1358 H1354 0.929 . S
C1358 C1360 1.378 . S
C1358 C1362 1.350 . S
C1359 C1362 1.463 . S
C1359 C1364 1.350 . S
C1359 N1367 1.427 . S
C1360 H1351 0.930 . S
C1360 C1358 1.378 . S
C1360 C1361 1.367 . S
C1361 C1360 1.367 . S
C1361 C1363 1.433 . S
C1362 C1358 1.350 . S
C1362 C1359 1.463 . S
C1362 N1366 1.427 . S
C1363 H1353 0.929 . S
C1363 C1361 1.433 . S
C1363 N1366 1.384 . S
C1364 H1355 0.929 . S
C1364 C1356 1.378 . S
C1364 C1359 1.350 . S
C1365 H1352 0.929 . S
C1365 C1357 1.433 . S
C1365 N1367 1.384 . S
N1366 C1362 1.427 . S
N1366 C1363 1.384 . S
N1367 C1359 1.427 . S
N1367 C1365 1.384 . S
H1368 C1374 0.930 . S
H1369 C1378 0.930 . S
H1370 C1383 0.929 . S
H1371 C1381 0.929 . S
H1372 C1376 0.929 . S
H1373 C1382 0.929 . S
C1374 H1368 0.930 . S
C1374 C1375 1.367 . S
C1374 C1382 1.378 . S
C1375 C1374 1.367 . S
C1375 C1383 1.433 . S
C1376 H1372 0.929 . S
C1376 C1378 1.378 . S
C1376 C1380 1.350 . S
C1377 C1380 1.463 . S
C1377 C1382 1.350 . S
C1377 N1385 1.427 . S
C1378 H1369 0.930 . S
C1378 C1376 1.378 . S
C1378 C1379 1.367 . S
C1379 C1378 1.367 . S
C1379 C1381 1.433 . S
C1380 C1376 1.350 . S
C1380 C1377 1.463 . S
C1380 N1384 1.427 . S
C1381 H1371 0.929 . S
C1381 C1379 1.433 . S
C1381 N1384 1.384 . S
C1382 H1373 0.929 . S
C1382 C1374 1.378 . S
C1382 C1377 1.350 . S
C1383 H1370 0.929 . S
C1383 C1375 1.433 . S
C1383 N1385 1.384 . S
N1384 C1380 1.427 . S
N1384 C1381 1.384 . S
N1385 C1377 1.427 . S
N1385 C1383 1.384 . S
H1386 C1392 0.930 . S
H1387 C1396 0.930 . S
H1388 C1401 0.929 . S
H1389 C1399 0.929 . S
H1390 C1394 0.929 . S
H1391 C1400 0.929 . S
C1392 H1386 0.930 . S
C1392 C1393 1.367 . S
C1392 C1400 1.378 . S
C1393 C1392 1.367 . S
C1393 C1401 1.433 . S
C1394 H1390 0.929 . S
C1394 C1396 1.378 . S
C1394 C1398 1.350 . S
C1395 C1398 1.463 . S
C1395 C1400 1.350 . S
C1395 N1403 1.427 . S
C1396 H1387 0.930 . S
C1396 C1394 1.378 . S
C1396 C1397 1.367 . S
C1397 C1396 1.367 . S
C1397 C1399 1.433 . S
C1398 C1394 1.350 . S
C1398 C1395 1.463 . S
C1398 N1402 1.427 . S
C1399 H1389 0.929 . S
C1399 C1397 1.433 . S
C1399 N1402 1.384 . S
C1400 H1391 0.929 . S
C1400 C1392 1.378 . S
C1400 C1395 1.350 . S
C1401 H1388 0.929 . S
C1401 C1393 1.433 . S
C1401 N1403 1.384 . S
N1402 C1398 1.427 . S
N1402 C1399 1.384 . S
N1403 C1395 1.427 . S
N1403 C1401 1.384 . S
C601 N13 1.074 . S
C605 N2 1.074 . S
C619 N46 1.080 . S
C623 N35 1.080 . S
C637 N68 1.072 . S
C641 N79 1.073 . S
C655 N112 1.076 . S
C659 N101 1.076 . S
C673 N145 1.078 . S
C677 N134 1.077 . S
C691 N167 1.075 . S
C695 N178 1.075 . S
C709 N200 1.077 . S
C713 N211 1.077 . S
C727 N233 1.073 . S
C731 N244 1.074 . S
C745 N277 1.080 . S
C749 N266 1.080 . S
C763 N310 1.080 . S
C767 N299 1.080 . S
C781 N343 1.074 . S
C785 N332 1.074 . S
C799 N365 1.079 . S
C803 N376 1.079 . S
C817 N398 1.075 . S
C821 N409 1.076 . S
C835 N431 1.079 . S
C839 N442 1.079 . S
C853 N464 1.079 . S
C857 N475 1.080 . S
C871 N508 1.077 . S
C875 N497 1.076 . S
C889 N541 1.073 . S
C893 N530 1.073 . S
C907 N563 1.079 . S
C911 N574 1.079 . S
C925 C579 1.597 . S
C929 C18 1.597 . S
C943 C51 1.592 . S
C947 C513 1.592 . S
C961 C546 1.597 . S
C965 C84 1.597 . S
C979 C249 1.591 . S
C983 C117 1.590 . S
C997 C150 1.594 . S
C1001 C282 1.594 . S
C1015 C183 1.588 . S
C1019 C216 1.588 . S
C1033 C315 1.588 . S
C1037 C447 1.588 . S
C1051 C480 1.597 . S
C1055 C348 1.597 . S
C1069 C381 1.588 . S
C1073 C414 1.588 . S
C1087 C7 1.503 . S
C1091 C106 1.504 . S
C1105 C40 1.507 . S
C1109 C139 1.507 . S
C1123 C172 1.501 . S
C1127 C73 1.501 . S
C1141 C186 1.545 . S
C1145 C54 1.545 . S
C1159 C120 1.541 . S
C1163 C87 1.540 . S
C1177 C153 1.541 . S
C1181 C21 1.541 . S
C1195 C304 1.503 . S
C1199 C205 1.503 . S
C1213 C337 1.507 . S
C1217 C238 1.507 . S
C1231 C271 1.507 . S
C1235 C370 1.507 . S
C1249 C384 1.541 . S
C1253 C252 1.541 . S
C1267 C285 1.545 . S
C1271 C318 1.545 . S
C1285 C219 1.543 . S
C1289 C351 1.543 . S
C1303 C502 1.502 . S
C1307 C403 1.503 . S
C1321 C535 1.503 . S
C1325 C436 1.502 . S
C1339 C568 1.503 . S
C1343 C469 1.504 . S
C1357 C450 1.544 . S
C1361 C582 1.543 . S
C1375 C483 1.545 . S
C1379 C516 1.545 . S
C1393 C549 1.543 . S
C1397 C417 1.542 . S
