# Generated by pormake.
# Topology pcb, (4)-cn, num edge types: 1
# Building blocks:
#     Node 0, Type 0, BuildingBlock: CEKHIL_clean_sbu_0, # of connection points: 4
#     Node 1, Type 0, BuildingBlock: CEKHIL_clean_sbu_0, # of connection points: 4
#     Node 2, Type 0, BuildingBlock: CEKHIL_clean_sbu_0, # of connection points: 4
#     Node 3, Type 0, BuildingBlock: CEKHIL_clean_sbu_0, # of connection points: 4
#     Node 4, Type 0, BuildingBlock: CEKHIL_clean_sbu_0, # of connection points: 4
#     Node 5, Type 0, BuildingBlock: CEKHIL_clean_sbu_0, # of connection points: 4
#     Node 6, Type 0, BuildingBlock: CEKHIL_clean_sbu_0, # of connection points: 4
#     Node 7, Type 0, BuildingBlock: CEKHIL_clean_sbu_0, # of connection points: 4
#     Node 8, Type 0, BuildingBlock: CEKHIL_clean_sbu_0, # of connection points: 4
#     Node 9, Type 0, BuildingBlock: CEKHIL_clean_sbu_0, # of connection points: 4
#     Node 10, Type 0, BuildingBlock: CEKHIL_clean_sbu_0, # of connection points: 4
#     Node 11, Type 0, BuildingBlock: CEKHIL_clean_sbu_0, # of connection points: 4
#     Node 12, Type 0, BuildingBlock: CEKHIL_clean_sbu_0, # of connection points: 4
#     Node 13, Type 0, BuildingBlock: CEKHIL_clean_sbu_0, # of connection points: 4
#     Node 14, Type 0, BuildingBlock: CEKHIL_clean_sbu_0, # of connection points: 4
#     Node 15, Type 0, BuildingBlock: CEKHIL_clean_sbu_0, # of connection points: 4
#     Edge 16, Type (0, 0), BuildingBlock: EYOCIG_clean_linker_4, # of connection points: 2
#     Edge 17, Type (0, 0), BuildingBlock: EYOCIG_clean_linker_4, # of connection points: 2
#     Edge 18, Type (0, 0), BuildingBlock: EYOCIG_clean_linker_4, # of connection points: 2
#     Edge 19, Type (0, 0), BuildingBlock: EYOCIG_clean_linker_4, # of connection points: 2
#     Edge 20, Type (0, 0), BuildingBlock: EYOCIG_clean_linker_4, # of connection points: 2
#     Edge 21, Type (0, 0), BuildingBlock: EYOCIG_clean_linker_4, # of connection points: 2
#     Edge 22, Type (0, 0), BuildingBlock: EYOCIG_clean_linker_4, # of connection points: 2
#     Edge 23, Type (0, 0), BuildingBlock: EYOCIG_clean_linker_4, # of connection points: 2
#     Edge 24, Type (0, 0), BuildingBlock: EYOCIG_clean_linker_4, # of connection points: 2
#     Edge 25, Type (0, 0), BuildingBlock: EYOCIG_clean_linker_4, # of connection points: 2
#     Edge 26, Type (0, 0), BuildingBlock: EYOCIG_clean_linker_4, # of connection points: 2
#     Edge 27, Type (0, 0), BuildingBlock: EYOCIG_clean_linker_4, # of connection points: 2
#     Edge 28, Type (0, 0), BuildingBlock: EYOCIG_clean_linker_4, # of connection points: 2
#     Edge 29, Type (0, 0), BuildingBlock: EYOCIG_clean_linker_4, # of connection points: 2
#     Edge 30, Type (0, 0), BuildingBlock: EYOCIG_clean_linker_4, # of connection points: 2
#     Edge 31, Type (0, 0), BuildingBlock: EYOCIG_clean_linker_4, # of connection points: 2
#     Edge 32, Type (0, 0), BuildingBlock: EYOCIG_clean_linker_4, # of connection points: 2
#     Edge 33, Type (0, 0), BuildingBlock: EYOCIG_clean_linker_4, # of connection points: 2
#     Edge 34, Type (0, 0), BuildingBlock: EYOCIG_clean_linker_4, # of connection points: 2
#     Edge 35, Type (0, 0), BuildingBlock: EYOCIG_clean_linker_4, # of connection points: 2
#     Edge 36, Type (0, 0), BuildingBlock: EYOCIG_clean_linker_4, # of connection points: 2
#     Edge 37, Type (0, 0), BuildingBlock: EYOCIG_clean_linker_4, # of connection points: 2
#     Edge 38, Type (0, 0), BuildingBlock: EYOCIG_clean_linker_4, # of connection points: 2
#     Edge 39, Type (0, 0), BuildingBlock: EYOCIG_clean_linker_4, # of connection points: 2
#     Edge 40, Type (0, 0), BuildingBlock: EYOCIG_clean_linker_4, # of connection points: 2
#     Edge 41, Type (0, 0), BuildingBlock: EYOCIG_clean_linker_4, # of connection points: 2
#     Edge 42, Type (0, 0), BuildingBlock: EYOCIG_clean_linker_4, # of connection points: 2
#     Edge 43, Type (0, 0), BuildingBlock: EYOCIG_clean_linker_4, # of connection points: 2
#     Edge 44, Type (0, 0), BuildingBlock: EYOCIG_clean_linker_4, # of connection points: 2
#     Edge 45, Type (0, 0), BuildingBlock: EYOCIG_clean_linker_4, # of connection points: 2
#     Edge 46, Type (0, 0), BuildingBlock: EYOCIG_clean_linker_4, # of connection points: 2
#     Edge 47, Type (0, 0), BuildingBlock: EYOCIG_clean_linker_4, # of connection points: 2
# Relax obj value: 0.230
# Max RMSD: 0.084
# Mean RMSD: 0.084
data_MOF--net-pcb--node1-CEKHIL_clean_sbu_0--edge1-EYOCIG_clean_linker_4
_symmetry_space_group_name_H-M    P1
_symmetry_Int_Tables_number       1
_symmetry_cell_setting            triclinic
loop_
_symmetry_equiv_pos_as_xyz
'x, y, z'
_cell_length_a     44.674495
_cell_length_b     28.985255
_cell_length_c     28.983425
_cell_angle_alpha  90.00158
_cell_angle_beta   90.002619
_cell_angle_gamma 90.003766
loop_
_atom_site_label
_atom_site_type_symbol
_atom_site_fract_x
_atom_site_fract_y
_atom_site_fract_z
_atom_type_partial_charge
Co0 Co 0.14662 0.20256 0.18948 0.0
O1 O 0.18937 0.20071 0.18232 0.0
O2 O 0.164 0.26052 0.20974 0.0
C3 C 0.14342 0.13236 0.22218 0.0
O4 O 0.10242 0.21579 0.2032 0.0
Co5 Co 0.10695 0.13006 0.13894 0.0
O6 O 0.07445 0.15653 0.17694 0.0
C7 C 0.13347 0.20738 0.08695 0.0
C8 C 0.18964 0.24204 0.19913 0.0
C9 C 0.07728 0.19447 0.19859 0.0
O10 O 0.14229 0.22678 0.12446 0.0
O11 O 0.12132 0.16749 0.08517 0.0
O12 O 0.14983 0.16799 0.24744 0.0
O13 O 0.1412 0.13955 0.17848 0.0
Co14 Co 0.86979 0.18961 0.20248 0.0
O15 O 0.82704 0.18246 0.20063 0.0
O16 O 0.85242 0.20983 0.26047 0.0
C17 C 0.87299 0.22235 0.1323 0.0
O18 O 0.91399 0.20331 0.21572 0.0
Co19 Co 0.90944 0.1391 0.12995 0.0
O20 O 0.94195 0.17708 0.15644 0.0
C21 C 0.88293 0.08708 0.20725 0.0
C22 C 0.82678 0.19923 0.24197 0.0
C23 C 0.93914 0.1987 0.19439 0.0
O24 O 0.87411 0.12458 0.22666 0.0
O25 O 0.89508 0.08532 0.16736 0.0
O26 O 0.86659 0.24758 0.16795 0.0
O27 O 0.8752 0.17865 0.13947 0.0
Co28 Co 0.86983 0.79876 0.18972 0.0
O29 O 0.82708 0.8006 0.18261 0.0
O30 O 0.85246 0.74079 0.21 0.0
C31 C 0.87303 0.86896 0.22242 0.0
O32 O 0.91404 0.78554 0.2034 0.0
Co33 Co 0.90946 0.87126 0.13913 0.0
O34 O 0.94199 0.8448 0.17709 0.0
C35 C 0.88294 0.79392 0.08718 0.0
C36 C 0.82682 0.75927 0.19941 0.0
C37 C 0.93918 0.80687 0.19875 0.0
O38 O 0.87413 0.77453 0.1247 0.0
O39 O 0.89508 0.83381 0.08538 0.0
O40 O 0.86664 0.83333 0.24768 0.0
O41 O 0.87524 0.86176 0.17871 0.0
Co42 Co 0.14667 0.81169 0.20239 0.0
O43 O 0.18942 0.81883 0.2005 0.0
O44 O 0.16406 0.7915 0.26037 0.0
C45 C 0.14345 0.7789 0.13223 0.0
O46 O 0.10247 0.798 0.21566 0.0
Co47 Co 0.10699 0.86215 0.12985 0.0
O48 O 0.07449 0.8242 0.15639 0.0
C49 C 0.13354 0.91422 0.2071 0.0
C50 C 0.1897 0.80208 0.24186 0.0
C51 C 0.07732 0.8026 0.19435 0.0
O52 O 0.14236 0.87674 0.22653 0.0
O53 O 0.12138 0.91595 0.16721 0.0
O54 O 0.14986 0.75369 0.16789 0.0
O55 O 0.14124 0.82261 0.13937 0.0
Co56 Co 0.1466 0.7988 0.8116 0.0
O57 O 0.18934 0.80067 0.81873 0.0
O58 O 0.16397 0.74084 0.79134 0.0
C59 C 0.14338 0.86899 0.77889 0.0
O60 O 0.10239 0.78555 0.79791 0.0
Co61 Co 0.10694 0.87129 0.86216 0.0
O62 O 0.07442 0.84479 0.8242 0.0
C63 C 0.13348 0.79399 0.91414 0.0
C64 C 0.18961 0.75933 0.80194 0.0
C65 C 0.07725 0.80686 0.80255 0.0
O66 O 0.14229 0.77459 0.87663 0.0
O67 O 0.12132 0.83387 0.91592 0.0
O68 O 0.14978 0.83336 0.75364 0.0
O69 O 0.14117 0.86181 0.82259 0.0
Co70 Co 0.14656 0.18966 0.7987 0.0
O71 O 0.18931 0.18255 0.80055 0.0
O72 O 0.16392 0.20986 0.7407 0.0
C73 C 0.14336 0.22245 0.86886 0.0
O74 O 0.10236 0.20332 0.78546 0.0
Co75 Co 0.10693 0.13917 0.87127 0.0
O76 O 0.07441 0.17711 0.84476 0.0
C77 C 0.13345 0.08712 0.79399 0.0
C78 C 0.18957 0.19929 0.75919 0.0
C79 C 0.07722 0.19871 0.8068 0.0
O80 O 0.14226 0.12461 0.77456 0.0
O81 O 0.1213 0.08538 0.83389 0.0
O82 O 0.14976 0.24766 0.83319 0.0
O83 O 0.14116 0.17874 0.86172 0.0
Co84 Co 0.86973 0.20234 0.81168 0.0
O85 O 0.82699 0.20045 0.81884 0.0
O86 O 0.85234 0.26029 0.79142 0.0
C87 C 0.87295 0.13214 0.77898 0.0
O88 O 0.91393 0.2156 0.79795 0.0
Co89 Co 0.90943 0.12989 0.86222 0.0
O90 O 0.94192 0.15638 0.82422 0.0
C91 C 0.88289 0.20719 0.9142 0.0
C92 C 0.82671 0.24178 0.80204 0.0
C93 C 0.93908 0.19431 0.80257 0.0
O94 O 0.87406 0.22657 0.8767 0.0
O95 O 0.89505 0.16731 0.91599 0.0
O96 O 0.86653 0.16776 0.75373 0.0
O97 O 0.87517 0.13934 0.82268 0.0
Co98 Co 0.86976 0.81149 0.79892 0.0
O99 O 0.82702 0.81861 0.8008 0.0
O100 O 0.85238 0.79126 0.74094 0.0
C101 C 0.87299 0.77874 0.86909 0.0
O102 O 0.91396 0.79782 0.78565 0.0
Co103 Co 0.90943 0.86202 0.87142 0.0
O104 O 0.94194 0.82407 0.8449 0.0
C105 C 0.88288 0.91402 0.79415 0.0
C106 C 0.82674 0.80183 0.75946 0.0
C107 C 0.93911 0.80245 0.80695 0.0
O108 O 0.87406 0.87653 0.77474 0.0
O109 O 0.89504 0.91579 0.83404 0.0
O110 O 0.86659 0.75351 0.83345 0.0
O111 O 0.8752 0.82245 0.86193 0.0
Co112 Co 0.64659 0.70227 0.68977 0.0
O113 O 0.68933 0.7004 0.68265 0.0
O114 O 0.66397 0.76023 0.71004 0.0
C115 C 0.64337 0.63207 0.72248 0.0
O116 O 0.60239 0.71552 0.70346 0.0
Co117 Co 0.60692 0.62979 0.63921 0.0
O118 O 0.57441 0.65628 0.67717 0.0
C119 C 0.63346 0.70709 0.58724 0.0
C120 C 0.6896 0.74173 0.69944 0.0
C121 C 0.57724 0.69421 0.69882 0.0
O122 O 0.64228 0.72648 0.62475 0.0
O123 O 0.62131 0.66721 0.58545 0.0
O124 O 0.64977 0.6677 0.74774 0.0
O125 O 0.64116 0.63926 0.67878 0.0
Co126 Co 0.36975 0.68959 0.70243 0.0
O127 O 0.327 0.68248 0.70055 0.0
O128 O 0.35237 0.7098 0.76042 0.0
C129 C 0.37298 0.72237 0.63227 0.0
O130 O 0.41395 0.70326 0.71571 0.0
Co131 Co 0.40941 0.6391 0.6299 0.0
O132 O 0.44193 0.67703 0.65645 0.0
C133 C 0.38286 0.58706 0.70715 0.0
C134 C 0.32673 0.69923 0.7419 0.0
C135 C 0.4391 0.69864 0.69441 0.0
O136 O 0.37405 0.62454 0.72658 0.0
O137 O 0.39503 0.58531 0.66727 0.0
O138 O 0.36658 0.74759 0.66793 0.0
O139 O 0.37518 0.67867 0.63941 0.0
Co140 Co 0.36973 0.29875 0.68949 0.0
O141 O 0.32699 0.30063 0.68232 0.0
O142 O 0.35233 0.24078 0.70972 0.0
C143 C 0.37295 0.36893 0.72222 0.0
O144 O 0.41392 0.28548 0.70322 0.0
Co145 Co 0.40943 0.37123 0.63899 0.0
O146 O 0.44192 0.34471 0.67698 0.0
C147 C 0.38289 0.29395 0.58697 0.0
C148 C 0.3267 0.25929 0.69911 0.0
C149 C 0.43908 0.30678 0.69861 0.0
O150 O 0.37405 0.27455 0.62446 0.0
O151 O 0.39505 0.33383 0.5852 0.0
O152 O 0.36653 0.33329 0.74746 0.0
O153 O 0.37517 0.36175 0.67852 0.0
Co154 Co 0.64656 0.31144 0.70248 0.0
O155 O 0.6893 0.31857 0.70063 0.0
O156 O 0.66393 0.2912 0.76047 0.0
C157 C 0.64335 0.27871 0.6323 0.0
O158 O 0.60235 0.29775 0.71572 0.0
Co159 Co 0.60691 0.36197 0.62996 0.0
O160 O 0.5744 0.32401 0.65645 0.0
C161 C 0.63344 0.41397 0.70727 0.0
C162 C 0.68957 0.30179 0.74198 0.0
C163 C 0.57721 0.30238 0.69439 0.0
O164 O 0.64225 0.37647 0.72668 0.0
O165 O 0.62129 0.41574 0.66738 0.0
O166 O 0.64975 0.25346 0.66794 0.0
O167 O 0.64114 0.32241 0.63947 0.0
Co168 Co 0.64662 0.29872 0.31167 0.0
O169 O 0.68937 0.30058 0.31883 0.0
O170 O 0.664 0.24076 0.2914 0.0
C171 C 0.64343 0.36892 0.27897 0.0
O172 O 0.60242 0.28549 0.29794 0.0
Co173 Co 0.60696 0.37121 0.36221 0.0
O174 O 0.57446 0.34474 0.3242 0.0
C175 C 0.63347 0.29388 0.41419 0.0
C176 C 0.68964 0.25925 0.30202 0.0
C177 C 0.57728 0.30681 0.30255 0.0
O178 O 0.64229 0.2745 0.37668 0.0
O179 O 0.62132 0.33377 0.41598 0.0
O180 O 0.64983 0.33329 0.25371 0.0
O181 O 0.6412 0.36173 0.32267 0.0
Co182 Co 0.64666 0.68956 0.29895 0.0
O183 O 0.68941 0.68242 0.30084 0.0
O184 O 0.66405 0.7098 0.24099 0.0
C185 C 0.64344 0.72228 0.36914 0.0
O186 O 0.60247 0.70326 0.28569 0.0
Co187 Co 0.60698 0.63903 0.37144 0.0
O188 O 0.57448 0.67702 0.34493 0.0
C189 C 0.63352 0.58703 0.29415 0.0
C190 C 0.68969 0.6992 0.2595 0.0
C191 C 0.57732 0.69865 0.30699 0.0
O192 O 0.64235 0.62453 0.27475 0.0
O193 O 0.62136 0.58526 0.33403 0.0
O194 O 0.64986 0.74753 0.33351 0.0
O195 O 0.64123 0.67858 0.36196 0.0
Co196 Co 0.36982 0.70252 0.31164 0.0
O197 O 0.32708 0.70068 0.31874 0.0
O198 O 0.35247 0.7605 0.29138 0.0
C199 C 0.37303 0.63233 0.27891 0.0
O200 O 0.41403 0.71574 0.29797 0.0
Co201 Co 0.40946 0.63 0.3622 0.0
O202 O 0.44198 0.65648 0.32425 0.0
C203 C 0.38293 0.70731 0.41418 0.0
C204 C 0.32682 0.74201 0.30196 0.0
C205 C 0.43917 0.69442 0.30261 0.0
O206 O 0.37412 0.72672 0.37667 0.0
O207 O 0.39507 0.66742 0.41596 0.0
O208 O 0.36664 0.66797 0.25366 0.0
O209 O 0.37523 0.63951 0.32262 0.0
Co210 Co 0.36979 0.31168 0.29869 0.0
O211 O 0.32705 0.31882 0.30055 0.0
O212 O 0.35242 0.29148 0.2407 0.0
C213 C 0.373 0.2789 0.36885 0.0
O214 O 0.414 0.29798 0.28544 0.0
Co215 Co 0.40946 0.36215 0.37124 0.0
O216 O 0.44196 0.32418 0.34473 0.0
C217 C 0.38294 0.4142 0.29397 0.0
C218 C 0.32678 0.30206 0.2592 0.0
C219 C 0.43914 0.30257 0.30677 0.0
O220 O 0.37412 0.37672 0.27454 0.0
O221 O 0.39509 0.41595 0.33386 0.0
O222 O 0.36659 0.25368 0.33319 0.0
O223 O 0.37522 0.3226 0.36171 0.0
C224 C 0.27337 0.28787 0.22326 0.0
C225 C 0.29869 0.29321 0.23676 0.0
C226 C 0.24305 0.27796 0.21335 0.0
C227 C 0.21773 0.26447 0.20799 0.0
C228 C 0.74305 0.22334 0.28781 0.0
C229 C 0.71773 0.23683 0.29316 0.0
C230 C 0.77337 0.21343 0.2779 0.0
C231 C 0.79869 0.20809 0.26441 0.0
C232 C 0.77342 0.72333 0.21367 0.0
C233 C 0.79873 0.73683 0.2083 0.0
C234 C 0.7431 0.71341 0.22359 0.0
C235 C 0.71778 0.70806 0.23708 0.0
C236 C 0.27342 0.77796 0.28771 0.0
C237 C 0.29874 0.76445 0.29308 0.0
C238 C 0.24311 0.78788 0.27778 0.0
C239 C 0.21779 0.79323 0.26428 0.0
C240 C 0.27333 0.71346 0.77781 0.0
C241 C 0.29864 0.7081 0.76433 0.0
C242 C 0.24301 0.72339 0.78773 0.0
C243 C 0.2177 0.7369 0.79308 0.0
C244 C 0.24297 0.21349 0.72323 0.0
C245 C 0.21765 0.20814 0.73674 0.0
C246 C 0.27328 0.22339 0.71331 0.0
C247 C 0.29861 0.23688 0.70796 0.0
C248 C 0.77329 0.27767 0.78783 0.0
C249 C 0.79861 0.26419 0.79318 0.0
C250 C 0.74297 0.28758 0.77791 0.0
C251 C 0.71765 0.29293 0.76442 0.0
C252 C 0.77333 0.7876 0.72355 0.0
C253 C 0.79865 0.79296 0.73704 0.0
C254 C 0.74301 0.77767 0.71365 0.0
C255 C 0.71769 0.76417 0.7083 0.0
C256 C 0.14026 0.24678 0.9558 0.0
C257 C 0.14204 0.24047 0.91484 0.0
C258 C 0.139 0.24307 0.00425 0.0
C259 C 0.1377 0.23075 0.04388 0.0
C260 C 0.87736 0.2429 0.9969 0.0
C261 C 0.87865 0.23057 0.95727 0.0
C262 C 0.87609 0.24663 0.04534 0.0
C263 C 0.87431 0.24034 0.08631 0.0
C264 C 0.87611 0.75446 0.95605 0.0
C265 C 0.87432 0.76075 0.91508 0.0
C266 C 0.87739 0.7582 0.0045 0.0
C267 C 0.87869 0.77053 0.04412 0.0
C268 C 0.14032 0.75458 0.04528 0.0
C269 C 0.14211 0.76089 0.08625 0.0
C270 C 0.13904 0.7583 0.99683 0.0
C271 C 0.13773 0.77062 0.95721 0.0
C272 C 0.02405 0.22325 0.2232 0.0
C273 C 0.05002 0.21521 0.21493 0.0
C274 C 0.99237 0.22328 0.22318 0.0
C275 C 0.96639 0.21503 0.21515 0.0
C276 C 0.87614 0.95593 0.24665 0.0
C277 C 0.87436 0.91496 0.24037 0.0
C278 C 0.8774 0.00437 0.24292 0.0
C279 C 0.8787 0.044 0.2306 0.0
C280 C 0.99242 0.77808 0.22328 0.0
C281 C 0.96644 0.78612 0.21505 0.0
C282 C 0.0241 0.77805 0.22322 0.0
C283 C 0.05007 0.7863 0.21514 0.0
C284 C 0.14034 0.04539 0.24643 0.0
C285 C 0.14211 0.08636 0.24014 0.0
C286 C 0.13907 0.99695 0.24272 0.0
C287 C 0.13777 0.95731 0.23043 0.0
C288 C 0.99234 0.77794 0.77808 0.0
C289 C 0.96637 0.78617 0.78616 0.0
C290 C 0.02402 0.77801 0.77801 0.0
C291 C 0.04999 0.78608 0.78625 0.0
C292 C 0.14026 0.95596 0.75464 0.0
C293 C 0.14205 0.91499 0.76092 0.0
C294 C 0.13899 0.0044 0.75836 0.0
C295 C 0.13768 0.04403 0.77066 0.0
C296 C 0.02397 0.22322 0.77798 0.0
C297 C 0.04995 0.21499 0.78603 0.0
C298 C 0.9923 0.22315 0.77796 0.0
C299 C 0.96633 0.21508 0.78623 0.0
C300 C 0.87733 0.99673 0.75848 0.0
C301 C 0.87864 0.9571 0.7708 0.0
C302 C 0.87606 0.04517 0.75475 0.0
C303 C 0.87427 0.08614 0.76103 0.0
C304 C 0.64031 0.74654 0.4561 0.0
C305 C 0.64211 0.74026 0.41513 0.0
C306 C 0.63903 0.7428 0.50455 0.0
C307 C 0.63771 0.73046 0.54417 0.0
C308 C 0.3761 0.7467 0.54533 0.0
C309 C 0.37431 0.74039 0.5863 0.0
C310 C 0.37738 0.74299 0.49688 0.0
C311 C 0.37869 0.73068 0.45725 0.0
C312 C 0.37609 0.25458 0.4558 0.0
C313 C 0.37431 0.26089 0.41483 0.0
C314 C 0.37736 0.25828 0.50425 0.0
C315 C 0.37865 0.27059 0.54388 0.0
C316 C 0.63899 0.25817 0.49688 0.0
C317 C 0.6377 0.2705 0.45726 0.0
C318 C 0.64025 0.25444 0.54533 0.0
C319 C 0.64203 0.26073 0.5863 0.0
C320 C 0.52401 0.72306 0.72336 0.0
C321 C 0.54998 0.71499 0.71513 0.0
C322 C 0.49233 0.72314 0.72329 0.0
C323 C 0.46636 0.71491 0.71521 0.0
C324 C 0.37732 0.50433 0.74278 0.0
C325 C 0.37862 0.54397 0.73048 0.0
C326 C 0.37605 0.45589 0.74649 0.0
C327 C 0.37427 0.41492 0.7402 0.0
C328 C 0.52397 0.27785 0.72319 0.0
C329 C 0.54995 0.28608 0.71515 0.0
C330 C 0.49229 0.27791 0.72322 0.0
C331 C 0.46632 0.28599 0.71495 0.0
C332 C 0.64025 0.54511 0.74671 0.0
C333 C 0.64204 0.58608 0.74044 0.0
C334 C 0.63898 0.49666 0.74297 0.0
C335 C 0.63767 0.45704 0.73064 0.0
C336 C 0.49237 0.278 0.27796 0.0
C337 C 0.4664 0.28626 0.28601 0.0
C338 C 0.52405 0.27802 0.27794 0.0
C339 C 0.55002 0.28606 0.28621 0.0
C340 C 0.64033 0.45589 0.25474 0.0
C341 C 0.64211 0.41492 0.26101 0.0
C342 C 0.63906 0.50433 0.25847 0.0
C343 C 0.63776 0.54396 0.27079 0.0
C344 C 0.52409 0.72323 0.27814 0.0
C345 C 0.55007 0.71497 0.28621 0.0
C346 C 0.49242 0.72321 0.27808 0.0
C347 C 0.46644 0.71517 0.28631 0.0
C348 C 0.37741 0.49693 0.25834 0.0
C349 C 0.37871 0.45729 0.27064 0.0
C350 C 0.37614 0.54537 0.25464 0.0
C351 C 0.37435 0.58634 0.26093 0.0
loop_
_geom_bond_atom_site_label_1
_geom_bond_atom_site_label_2
_geom_bond_distance
_geom_bond_site_symmetry_2
_ccdc_geom_bond_type
Co0 O1 2.216 . S
Co0 O2 2.091 . S
Co0 O4 2.004 . S
Co0 O10 2.021 . S
Co0 O12 2.137 . S
Co0 O13 2.244 . S
O1 Co0 2.216 . S
O1 C8 1.247 . S
O2 Co0 2.091 . S
O2 C8 1.261 . S
C3 O12 1.247 . S
C3 O13 1.272 . S
O4 Co0 2.004 . S
O4 C9 1.259 . S
Co5 O6 2.061 . S
Co5 O11 2.052 . S
Co5 O13 2.135 . S
O6 Co5 2.061 . S
O6 C9 1.235 . S
C7 O10 1.238 . S
C7 O11 1.241 . S
C8 O1 1.247 . S
C8 O2 1.261 . S
C9 O4 1.259 . S
C9 O6 1.235 . S
O10 Co0 2.021 . S
O10 C7 1.238 . S
O11 Co5 2.052 . S
O11 C7 1.241 . S
O12 Co0 2.137 . S
O12 C3 1.247 . S
O13 Co0 2.244 . S
O13 C3 1.272 . S
O13 Co5 2.135 . S
Co14 O15 2.216 . S
Co14 O16 2.091 . S
Co14 O18 2.004 . S
Co14 O24 2.021 . S
Co14 O26 2.137 . S
Co14 O27 2.244 . S
O15 Co14 2.216 . S
O15 C22 1.247 . S
O16 Co14 2.091 . S
O16 C22 1.261 . S
C17 O26 1.247 . S
C17 O27 1.272 . S
O18 Co14 2.004 . S
O18 C23 1.259 . S
Co19 O20 2.061 . S
Co19 O25 2.052 . S
Co19 O27 2.135 . S
O20 Co19 2.061 . S
O20 C23 1.235 . S
C21 O24 1.238 . S
C21 O25 1.241 . S
C22 O15 1.247 . S
C22 O16 1.261 . S
C23 O18 1.259 . S
C23 O20 1.235 . S
O24 Co14 2.021 . S
O24 C21 1.238 . S
O25 Co19 2.052 . S
O25 C21 1.241 . S
O26 Co14 2.137 . S
O26 C17 1.247 . S
O27 Co14 2.244 . S
O27 C17 1.272 . S
O27 Co19 2.135 . S
Co28 O29 2.216 . S
Co28 O30 2.091 . S
Co28 O32 2.004 . S
Co28 O38 2.021 . S
Co28 O40 2.137 . S
Co28 O41 2.244 . S
O29 Co28 2.216 . S
O29 C36 1.247 . S
O30 Co28 2.091 . S
O30 C36 1.261 . S
C31 O40 1.247 . S
C31 O41 1.272 . S
O32 Co28 2.004 . S
O32 C37 1.259 . S
Co33 O34 2.061 . S
Co33 O39 2.052 . S
Co33 O41 2.135 . S
O34 Co33 2.061 . S
O34 C37 1.235 . S
C35 O38 1.238 . S
C35 O39 1.241 . S
C36 O29 1.247 . S
C36 O30 1.261 . S
C37 O32 1.259 . S
C37 O34 1.235 . S
O38 Co28 2.021 . S
O38 C35 1.238 . S
O39 Co33 2.052 . S
O39 C35 1.241 . S
O40 Co28 2.137 . S
O40 C31 1.247 . S
O41 Co28 2.244 . S
O41 C31 1.272 . S
O41 Co33 2.135 . S
Co42 O43 2.216 . S
Co42 O44 2.091 . S
Co42 O46 2.004 . S
Co42 O52 2.021 . S
Co42 O54 2.137 . S
Co42 O55 2.244 . S
O43 Co42 2.216 . S
O43 C50 1.247 . S
O44 Co42 2.091 . S
O44 C50 1.261 . S
C45 O54 1.247 . S
C45 O55 1.272 . S
O46 Co42 2.004 . S
O46 C51 1.259 . S
Co47 O48 2.061 . S
Co47 O53 2.052 . S
Co47 O55 2.135 . S
O48 Co47 2.061 . S
O48 C51 1.235 . S
C49 O52 1.238 . S
C49 O53 1.241 . S
C50 O43 1.247 . S
C50 O44 1.261 . S
C51 O46 1.259 . S
C51 O48 1.235 . S
O52 Co42 2.021 . S
O52 C49 1.238 . S
O53 Co47 2.052 . S
O53 C49 1.241 . S
O54 Co42 2.137 . S
O54 C45 1.247 . S
O55 Co42 2.244 . S
O55 C45 1.272 . S
O55 Co47 2.135 . S
Co56 O57 2.216 . S
Co56 O58 2.091 . S
Co56 O60 2.004 . S
Co56 O66 2.021 . S
Co56 O68 2.137 . S
Co56 O69 2.244 . S
O57 Co56 2.216 . S
O57 C64 1.247 . S
O58 Co56 2.091 . S
O58 C64 1.261 . S
C59 O68 1.247 . S
C59 O69 1.272 . S
O60 Co56 2.004 . S
O60 C65 1.259 . S
Co61 O62 2.061 . S
Co61 O67 2.052 . S
Co61 O69 2.135 . S
O62 Co61 2.061 . S
O62 C65 1.235 . S
C63 O66 1.238 . S
C63 O67 1.241 . S
C64 O57 1.247 . S
C64 O58 1.261 . S
C65 O60 1.259 . S
C65 O62 1.235 . S
O66 Co56 2.021 . S
O66 C63 1.238 . S
O67 Co61 2.052 . S
O67 C63 1.241 . S
O68 Co56 2.137 . S
O68 C59 1.247 . S
O69 Co56 2.244 . S
O69 C59 1.272 . S
O69 Co61 2.135 . S
Co70 O71 2.216 . S
Co70 O72 2.091 . S
Co70 O74 2.004 . S
Co70 O80 2.021 . S
Co70 O82 2.137 . S
Co70 O83 2.244 . S
O71 Co70 2.216 . S
O71 C78 1.247 . S
O72 Co70 2.091 . S
O72 C78 1.261 . S
C73 O82 1.247 . S
C73 O83 1.272 . S
O74 Co70 2.004 . S
O74 C79 1.259 . S
Co75 O76 2.061 . S
Co75 O81 2.052 . S
Co75 O83 2.135 . S
O76 Co75 2.061 . S
O76 C79 1.235 . S
C77 O80 1.238 . S
C77 O81 1.241 . S
C78 O71 1.247 . S
C78 O72 1.261 . S
C79 O74 1.259 . S
C79 O76 1.235 . S
O80 Co70 2.021 . S
O80 C77 1.238 . S
O81 Co75 2.052 . S
O81 C77 1.241 . S
O82 Co70 2.137 . S
O82 C73 1.247 . S
O83 Co70 2.244 . S
O83 C73 1.272 . S
O83 Co75 2.135 . S
Co84 O85 2.216 . S
Co84 O86 2.091 . S
Co84 O88 2.004 . S
Co84 O94 2.021 . S
Co84 O96 2.137 . S
Co84 O97 2.244 . S
O85 Co84 2.216 . S
O85 C92 1.247 . S
O86 Co84 2.091 . S
O86 C92 1.261 . S
C87 O96 1.247 . S
C87 O97 1.272 . S
O88 Co84 2.004 . S
O88 C93 1.259 . S
Co89 O90 2.061 . S
Co89 O95 2.052 . S
Co89 O97 2.135 . S
O90 Co89 2.061 . S
O90 C93 1.235 . S
C91 O94 1.238 . S
C91 O95 1.241 . S
C92 O85 1.247 . S
C92 O86 1.261 . S
C93 O88 1.259 . S
C93 O90 1.235 . S
O94 Co84 2.021 . S
O94 C91 1.238 . S
O95 Co89 2.052 . S
O95 C91 1.241 . S
O96 Co84 2.137 . S
O96 C87 1.247 . S
O97 Co84 2.244 . S
O97 C87 1.272 . S
O97 Co89 2.135 . S
Co98 O99 2.216 . S
Co98 O100 2.091 . S
Co98 O102 2.004 . S
Co98 O108 2.021 . S
Co98 O110 2.137 . S
Co98 O111 2.244 . S
O99 Co98 2.216 . S
O99 C106 1.247 . S
O100 Co98 2.091 . S
O100 C106 1.261 . S
C101 O110 1.247 . S
C101 O111 1.272 . S
O102 Co98 2.004 . S
O102 C107 1.259 . S
Co103 O104 2.061 . S
Co103 O109 2.052 . S
Co103 O111 2.135 . S
O104 Co103 2.061 . S
O104 C107 1.235 . S
C105 O108 1.238 . S
C105 O109 1.241 . S
C106 O99 1.247 . S
C106 O100 1.261 . S
C107 O102 1.259 . S
C107 O104 1.235 . S
O108 Co98 2.021 . S
O108 C105 1.238 . S
O109 Co103 2.052 . S
O109 C105 1.241 . S
O110 Co98 2.137 . S
O110 C101 1.247 . S
O111 Co98 2.244 . S
O111 C101 1.272 . S
O111 Co103 2.135 . S
Co112 O113 2.216 . S
Co112 O114 2.091 . S
Co112 O116 2.004 . S
Co112 O122 2.021 . S
Co112 O124 2.137 . S
Co112 O125 2.244 . S
O113 Co112 2.216 . S
O113 C120 1.247 . S
O114 Co112 2.091 . S
O114 C120 1.261 . S
C115 O124 1.247 . S
C115 O125 1.272 . S
O116 Co112 2.004 . S
O116 C121 1.259 . S
Co117 O118 2.061 . S
Co117 O123 2.052 . S
Co117 O125 2.135 . S
O118 Co117 2.061 . S
O118 C121 1.235 . S
C119 O122 1.238 . S
C119 O123 1.241 . S
C120 O113 1.247 . S
C120 O114 1.261 . S
C121 O116 1.259 . S
C121 O118 1.235 . S
O122 Co112 2.021 . S
O122 C119 1.238 . S
O123 Co117 2.052 . S
O123 C119 1.241 . S
O124 Co112 2.137 . S
O124 C115 1.247 . S
O125 Co112 2.244 . S
O125 C115 1.272 . S
O125 Co117 2.135 . S
Co126 O127 2.216 . S
Co126 O128 2.091 . S
Co126 O130 2.004 . S
Co126 O136 2.021 . S
Co126 O138 2.137 . S
Co126 O139 2.244 . S
O127 Co126 2.216 . S
O127 C134 1.247 . S
O128 Co126 2.091 . S
O128 C134 1.261 . S
C129 O138 1.247 . S
C129 O139 1.272 . S
O130 Co126 2.004 . S
O130 C135 1.259 . S
Co131 O132 2.061 . S
Co131 O137 2.052 . S
Co131 O139 2.135 . S
O132 Co131 2.061 . S
O132 C135 1.235 . S
C133 O136 1.238 . S
C133 O137 1.241 . S
C134 O127 1.247 . S
C134 O128 1.261 . S
C135 O130 1.259 . S
C135 O132 1.235 . S
O136 Co126 2.021 . S
O136 C133 1.238 . S
O137 Co131 2.052 . S
O137 C133 1.241 . S
O138 Co126 2.137 . S
O138 C129 1.247 . S
O139 Co126 2.244 . S
O139 C129 1.272 . S
O139 Co131 2.135 . S
Co140 O141 2.216 . S
Co140 O142 2.091 . S
Co140 O144 2.004 . S
Co140 O150 2.021 . S
Co140 O152 2.137 . S
Co140 O153 2.244 . S
O141 Co140 2.216 . S
O141 C148 1.247 . S
O142 Co140 2.091 . S
O142 C148 1.261 . S
C143 O152 1.247 . S
C143 O153 1.272 . S
O144 Co140 2.004 . S
O144 C149 1.259 . S
Co145 O146 2.061 . S
Co145 O151 2.052 . S
Co145 O153 2.135 . S
O146 Co145 2.061 . S
O146 C149 1.235 . S
C147 O150 1.238 . S
C147 O151 1.241 . S
C148 O141 1.247 . S
C148 O142 1.261 . S
C149 O144 1.259 . S
C149 O146 1.235 . S
O150 Co140 2.021 . S
O150 C147 1.238 . S
O151 Co145 2.052 . S
O151 C147 1.241 . S
O152 Co140 2.137 . S
O152 C143 1.247 . S
O153 Co140 2.244 . S
O153 C143 1.272 . S
O153 Co145 2.135 . S
Co154 O155 2.216 . S
Co154 O156 2.091 . S
Co154 O158 2.004 . S
Co154 O164 2.021 . S
Co154 O166 2.137 . S
Co154 O167 2.244 . S
O155 Co154 2.216 . S
O155 C162 1.247 . S
O156 Co154 2.091 . S
O156 C162 1.261 . S
C157 O166 1.247 . S
C157 O167 1.272 . S
O158 Co154 2.004 . S
O158 C163 1.259 . S
Co159 O160 2.061 . S
Co159 O165 2.052 . S
Co159 O167 2.135 . S
O160 Co159 2.061 . S
O160 C163 1.235 . S
C161 O164 1.238 . S
C161 O165 1.241 . S
C162 O155 1.247 . S
C162 O156 1.261 . S
C163 O158 1.259 . S
C163 O160 1.235 . S
O164 Co154 2.021 . S
O164 C161 1.238 . S
O165 Co159 2.052 . S
O165 C161 1.241 . S
O166 Co154 2.137 . S
O166 C157 1.247 . S
O167 Co154 2.244 . S
O167 C157 1.272 . S
O167 Co159 2.135 . S
Co168 O169 2.216 . S
Co168 O170 2.091 . S
Co168 O172 2.004 . S
Co168 O178 2.021 . S
Co168 O180 2.137 . S
Co168 O181 2.244 . S
O169 Co168 2.216 . S
O169 C176 1.247 . S
O170 Co168 2.091 . S
O170 C176 1.261 . S
C171 O180 1.247 . S
C171 O181 1.272 . S
O172 Co168 2.004 . S
O172 C177 1.259 . S
Co173 O174 2.061 . S
Co173 O179 2.052 . S
Co173 O181 2.135 . S
O174 Co173 2.061 . S
O174 C177 1.235 . S
C175 O178 1.238 . S
C175 O179 1.241 . S
C176 O169 1.247 . S
C176 O170 1.261 . S
C177 O172 1.259 . S
C177 O174 1.235 . S
O178 Co168 2.021 . S
O178 C175 1.238 . S
O179 Co173 2.052 . S
O179 C175 1.241 . S
O180 Co168 2.137 . S
O180 C171 1.247 . S
O181 Co168 2.244 . S
O181 C171 1.272 . S
O181 Co173 2.135 . S
Co182 O183 2.216 . S
Co182 O184 2.091 . S
Co182 O186 2.004 . S
Co182 O192 2.021 . S
Co182 O194 2.137 . S
Co182 O195 2.244 . S
O183 Co182 2.216 . S
O183 C190 1.247 . S
O184 Co182 2.091 . S
O184 C190 1.261 . S
C185 O194 1.247 . S
C185 O195 1.272 . S
O186 Co182 2.004 . S
O186 C191 1.259 . S
Co187 O188 2.061 . S
Co187 O193 2.052 . S
Co187 O195 2.135 . S
O188 Co187 2.061 . S
O188 C191 1.235 . S
C189 O192 1.238 . S
C189 O193 1.241 . S
C190 O183 1.247 . S
C190 O184 1.261 . S
C191 O186 1.259 . S
C191 O188 1.235 . S
O192 Co182 2.021 . S
O192 C189 1.238 . S
O193 Co187 2.052 . S
O193 C189 1.241 . S
O194 Co182 2.137 . S
O194 C185 1.247 . S
O195 Co182 2.244 . S
O195 C185 1.272 . S
O195 Co187 2.135 . S
Co196 O197 2.216 . S
Co196 O198 2.091 . S
Co196 O200 2.004 . S
Co196 O206 2.021 . S
Co196 O208 2.137 . S
Co196 O209 2.244 . S
O197 Co196 2.216 . S
O197 C204 1.247 . S
O198 Co196 2.091 . S
O198 C204 1.261 . S
C199 O208 1.247 . S
C199 O209 1.272 . S
O200 Co196 2.004 . S
O200 C205 1.259 . S
Co201 O202 2.061 . S
Co201 O207 2.052 . S
Co201 O209 2.135 . S
O202 Co201 2.061 . S
O202 C205 1.235 . S
C203 O206 1.238 . S
C203 O207 1.241 . S
C204 O197 1.247 . S
C204 O198 1.261 . S
C205 O200 1.259 . S
C205 O202 1.235 . S
O206 Co196 2.021 . S
O206 C203 1.238 . S
O207 Co201 2.052 . S
O207 C203 1.241 . S
O208 Co196 2.137 . S
O208 C199 1.247 . S
O209 Co196 2.244 . S
O209 C199 1.272 . S
O209 Co201 2.135 . S
Co210 O211 2.216 . S
Co210 O212 2.091 . S
Co210 O214 2.004 . S
Co210 O220 2.021 . S
Co210 O222 2.137 . S
Co210 O223 2.244 . S
O211 Co210 2.216 . S
O211 C218 1.247 . S
O212 Co210 2.091 . S
O212 C218 1.261 . S
C213 O222 1.247 . S
C213 O223 1.272 . S
O214 Co210 2.004 . S
O214 C219 1.259 . S
Co215 O216 2.061 . S
Co215 O221 2.052 . S
Co215 O223 2.135 . S
O216 Co215 2.061 . S
O216 C219 1.235 . S
C217 O220 1.238 . S
C217 O221 1.241 . S
C218 O211 1.247 . S
C218 O212 1.261 . S
C219 O214 1.259 . S
C219 O216 1.235 . S
O220 Co210 2.021 . S
O220 C217 1.238 . S
O221 Co215 2.052 . S
O221 C217 1.241 . S
O222 Co210 2.137 . S
O222 C213 1.247 . S
O223 Co210 2.244 . S
O223 C213 1.272 . S
O223 Co215 2.135 . S
C224 C225 1.170 . S
C224 C226 1.380 . S
C225 C224 1.170 . S
C226 C224 1.380 . S
C226 C227 1.170 . S
C227 C226 1.170 . S
C228 C229 1.170 . S
C228 C230 1.380 . S
C229 C228 1.170 . S
C230 C228 1.380 . S
C230 C231 1.170 . S
C231 C230 1.170 . S
C232 C233 1.170 . S
C232 C234 1.380 . S
C233 C232 1.170 . S
C234 C232 1.380 . S
C234 C235 1.170 . S
C235 C234 1.170 . S
C236 C237 1.170 . S
C236 C238 1.380 . S
C237 C236 1.170 . S
C238 C236 1.380 . S
C238 C239 1.170 . S
C239 C238 1.170 . S
C240 C241 1.170 . S
C240 C242 1.380 . S
C241 C240 1.170 . S
C242 C240 1.380 . S
C242 C243 1.170 . S
C243 C242 1.170 . S
C244 C245 1.170 . S
C244 C246 1.380 . S
C245 C244 1.170 . S
C246 C244 1.380 . S
C246 C247 1.170 . S
C247 C246 1.170 . S
C248 C249 1.170 . S
C248 C250 1.380 . S
C249 C248 1.170 . S
C250 C248 1.380 . S
C250 C251 1.170 . S
C251 C250 1.170 . S
C252 C253 1.170 . S
C252 C254 1.380 . S
C253 C252 1.170 . S
C254 C252 1.380 . S
C254 C255 1.170 . S
C255 C254 1.170 . S
C256 C257 1.170 . S
C256 C258 1.380 1_556 S
C257 C256 1.170 . S
C258 C256 1.380 1_554 S
C258 C259 1.170 . S
C259 C258 1.170 . S
C260 C261 1.170 . S
C260 C262 1.380 1_556 S
C261 C260 1.170 . S
C262 C260 1.380 1_554 S
C262 C263 1.170 . S
C263 C262 1.170 . S
C264 C265 1.170 . S
C264 C266 1.380 1_556 S
C265 C264 1.170 . S
C266 C264 1.380 1_554 S
C266 C267 1.170 . S
C267 C266 1.170 . S
C268 C269 1.170 . S
C268 C270 1.380 1_554 S
C269 C268 1.170 . S
C270 C268 1.380 1_556 S
C270 C271 1.170 . S
C271 C270 1.170 . S
C272 C273 1.170 . S
C272 C274 1.380 1_455 S
C273 C272 1.170 . S
C274 C272 1.380 1_655 S
C274 C275 1.170 . S
C275 C274 1.170 . S
C276 C277 1.170 . S
C276 C278 1.380 1_565 S
C277 C276 1.170 . S
C278 C276 1.380 1_545 S
C278 C279 1.170 . S
C279 C278 1.170 . S
C280 C281 1.170 . S
C280 C282 1.380 1_655 S
C281 C280 1.170 . S
C282 C280 1.380 1_455 S
C282 C283 1.170 . S
C283 C282 1.170 . S
C284 C285 1.170 . S
C284 C286 1.380 1_545 S
C285 C284 1.170 . S
C286 C284 1.380 1_565 S
C286 C287 1.170 . S
C287 C286 1.170 . S
C288 C289 1.170 . S
C288 C290 1.380 1_655 S
C289 C288 1.170 . S
C290 C288 1.380 1_455 S
C290 C291 1.170 . S
C291 C290 1.170 . S
C292 C293 1.170 . S
C292 C294 1.380 1_565 S
C293 C292 1.170 . S
C294 C292 1.380 1_545 S
C294 C295 1.170 . S
C295 C294 1.170 . S
C296 C297 1.170 . S
C296 C298 1.380 1_455 S
C297 C296 1.170 . S
C298 C296 1.380 1_655 S
C298 C299 1.170 . S
C299 C298 1.170 . S
C300 C301 1.170 . S
C300 C302 1.380 1_565 S
C301 C300 1.170 . S
C302 C300 1.380 1_545 S
C302 C303 1.170 . S
C303 C302 1.170 . S
C304 C305 1.170 . S
C304 C306 1.380 . S
C305 C304 1.170 . S
C306 C304 1.380 . S
C306 C307 1.170 . S
C307 C306 1.170 . S
C308 C309 1.170 . S
C308 C310 1.380 . S
C309 C308 1.170 . S
C310 C308 1.380 . S
C310 C311 1.170 . S
C311 C310 1.170 . S
C312 C313 1.170 . S
C312 C314 1.380 . S
C313 C312 1.170 . S
C314 C312 1.380 . S
C314 C315 1.170 . S
C315 C314 1.170 . S
C316 C317 1.170 . S
C316 C318 1.380 . S
C317 C316 1.170 . S
C318 C316 1.380 . S
C318 C319 1.170 . S
C319 C318 1.170 . S
C320 C321 1.170 . S
C320 C322 1.380 . S
C321 C320 1.170 . S
C322 C320 1.380 . S
C322 C323 1.170 . S
C323 C322 1.170 . S
C324 C325 1.170 . S
C324 C326 1.380 . S
C325 C324 1.170 . S
C326 C324 1.380 . S
C326 C327 1.170 . S
C327 C326 1.170 . S
C328 C329 1.170 . S
C328 C330 1.380 . S
C329 C328 1.170 . S
C330 C328 1.380 . S
C330 C331 1.170 . S
C331 C330 1.170 . S
C332 C333 1.170 . S
C332 C334 1.380 . S
C333 C332 1.170 . S
C334 C332 1.380 . S
C334 C335 1.170 . S
C335 C334 1.170 . S
C336 C337 1.170 . S
C336 C338 1.380 . S
C337 C336 1.170 . S
C338 C336 1.380 . S
C338 C339 1.170 . S
C339 C338 1.170 . S
C340 C341 1.170 . S
C340 C342 1.380 . S
C341 C340 1.170 . S
C342 C340 1.380 . S
C342 C343 1.170 . S
C343 C342 1.170 . S
C344 C345 1.170 . S
C344 C346 1.380 . S
C345 C344 1.170 . S
C346 C344 1.380 . S
C346 C347 1.170 . S
C347 C346 1.170 . S
C348 C349 1.170 . S
C348 C350 1.380 . S
C349 C348 1.170 . S
C350 C348 1.380 . S
C350 C351 1.170 . S
C351 C350 1.170 . S
C225 C218 1.348 . S
C227 C8 1.364 . S
C229 C176 1.365 . S
C231 C22 1.335 . S
C233 C36 1.362 . S
C235 C190 1.333 . S
C237 C204 1.352 . S
C239 C50 1.333 . S
C241 C134 1.350 . S
C243 C64 1.334 . S
C245 C78 1.363 . S
C247 C148 1.349 . S
C249 C92 1.335 . S
C251 C162 1.365 . S
C253 C106 1.336 . S
C255 C120 1.347 . S
C257 C73 1.665 . S
C259 C7 1.580 . S
C261 C91 1.592 . S
C263 C17 1.668 . S
C265 C101 1.655 . S
C267 C35 1.554 . S
C269 C45 1.666 . S
C271 C63 1.586 . S
C273 C9 1.298 . S
C275 C23 1.294 . S
C277 C31 1.657 . S
C279 C21 1.555 . S
C281 C37 1.292 . S
C283 C51 1.293 . S
C285 C3 1.655 . S
C287 C49 1.550 . S
C289 C107 1.330 . S
C291 C65 1.335 . S
C293 C59 1.661 . S
C295 C77 1.569 . S
C297 C79 1.293 . S
C299 C93 1.292 . S
C301 C105 1.580 . S
C303 C87 1.664 . S
C305 C185 1.655 . S
C307 C119 1.553 . S
C309 C129 1.658 . S
C311 C203 1.561 . S
C313 C213 1.655 . S
C315 C147 1.553 . S
C317 C175 1.574 . S
C319 C157 1.663 . S
C321 C121 1.315 . S
C323 C135 1.306 . S
C325 C133 1.553 . S
C327 C143 1.656 . S
C329 C163 1.336 . S
C331 C149 1.332 . S
C333 C115 1.654 . S
C335 C161 1.547 . S
C337 C219 1.326 . S
C339 C177 1.332 . S
C341 C171 1.655 . S
C343 C189 1.554 . S
C345 C191 1.292 . S
C347 C205 1.294 . S
C349 C217 1.552 . S
C351 C199 1.656 . S
