# Generated by pormake.
# Topology lvt, (4)-cn, num edge types: 1
# Building blocks:
#     Node 0, Type 0, BuildingBlock: NAWXER_clean_sbu_0, # of connection points: 4
#     Node 1, Type 0, BuildingBlock: NAWXER_clean_sbu_0, # of connection points: 4
#     Node 2, Type 0, BuildingBlock: NAWXER_clean_sbu_0, # of connection points: 4
#     Node 3, Type 0, BuildingBlock: NAWXER_clean_sbu_0, # of connection points: 4
#     Node 4, Type 0, BuildingBlock: NAWXER_clean_sbu_0, # of connection points: 4
#     Node 5, Type 0, BuildingBlock: NAWXER_clean_sbu_0, # of connection points: 4
#     Node 6, Type 0, BuildingBlock: NAWXER_clean_sbu_0, # of connection points: 4
#     Node 7, Type 0, BuildingBlock: NAWXER_clean_sbu_0, # of connection points: 4
#     Edge 8, Type (0, 0), BuildingBlock: KIFKEQ_clean_linker_1, # of connection points: 2
#     Edge 9, Type (0, 0), BuildingBlock: KIFKEQ_clean_linker_1, # of connection points: 2
#     Edge 10, Type (0, 0), BuildingBlock: KIFKEQ_clean_linker_1, # of connection points: 2
#     Edge 11, Type (0, 0), BuildingBlock: KIFKEQ_clean_linker_1, # of connection points: 2
#     Edge 12, Type (0, 0), BuildingBlock: KIFKEQ_clean_linker_1, # of connection points: 2
#     Edge 13, Type (0, 0), BuildingBlock: KIFKEQ_clean_linker_1, # of connection points: 2
#     Edge 14, Type (0, 0), BuildingBlock: KIFKEQ_clean_linker_1, # of connection points: 2
#     Edge 15, Type (0, 0), BuildingBlock: KIFKEQ_clean_linker_1, # of connection points: 2
#     Edge 16, Type (0, 0), BuildingBlock: KIFKEQ_clean_linker_1, # of connection points: 2
#     Edge 17, Type (0, 0), BuildingBlock: KIFKEQ_clean_linker_1, # of connection points: 2
#     Edge 18, Type (0, 0), BuildingBlock: KIFKEQ_clean_linker_1, # of connection points: 2
#     Edge 19, Type (0, 0), BuildingBlock: KIFKEQ_clean_linker_1, # of connection points: 2
#     Edge 20, Type (0, 0), BuildingBlock: KIFKEQ_clean_linker_1, # of connection points: 2
#     Edge 21, Type (0, 0), BuildingBlock: KIFKEQ_clean_linker_1, # of connection points: 2
#     Edge 22, Type (0, 0), BuildingBlock: KIFKEQ_clean_linker_1, # of connection points: 2
#     Edge 23, Type (0, 0), BuildingBlock: KIFKEQ_clean_linker_1, # of connection points: 2
# Relax obj value: 0.000
# Max RMSD: 0.000
# Mean RMSD: 0.000
data_MOF--net-lvt--node1-NAWXER_clean_sbu_0--edge1-KIFKEQ_clean_linker_1
_symmetry_space_group_name_H-M    P1
_symmetry_Int_Tables_number       1
_symmetry_cell_setting            triclinic
loop_
_symmetry_equiv_pos_as_xyz
'x, y, z'
_cell_length_a     38.824779
_cell_length_b     38.669057
_cell_length_c     22.106348
_cell_angle_alpha  89.56511
_cell_angle_beta   90.478415
_cell_angle_gamma 90.346423
loop_
_atom_site_label
_atom_site_type_symbol
_atom_site_fract_x
_atom_site_fract_y
_atom_site_fract_z
_atom_type_partial_charge
C0 C 0.96753 1.00445 0.61999 0.0
C1 C 0.06405 0.07614 0.55108 0.0
O2 O 0.97775 0.99683 0.56672 0.0
Zn3 Zn 1.01569 1.01401 0.50312 0.0
O4 O 0.98101 0.03007 0.64727 0.0
Zn5 Zn 1.01391 0.04279 0.58488 0.0
O6 O 0.98313 0.06342 0.51155 0.0
O7 O 0.98952 0.02921 0.43316 0.0
O8 O 0.04742 0.0794 0.60003 0.0
O9 O 0.05439 0.05334 0.5126 0.0
O10 O 0.04378 0.97302 0.49711 0.0
O11 O 0.04645 0.99811 0.58644 0.0
C12 C 0.97633 0.056 0.45616 0.0
C13 C 0.05557 0.9738 0.55098 0.0
C14 C 0.22733 0.80172 0.71502 0.0
C15 C 0.31018 0.7264 0.81761 0.0
O16 O 0.25176 0.79206 0.68038 0.0
Zn17 Zn 0.29679 0.7595 0.6855 0.0
O18 O 0.2265 0.791 0.76958 0.0
Zn19 Zn 0.26753 0.7633 0.76563 0.0
O20 O 0.30582 0.80318 0.75265 0.0
O21 O 0.33274 0.7928 0.66712 0.0
O22 O 0.28237 0.73881 0.83767 0.0
O23 O 0.31834 0.73203 0.76221 0.0
O24 O 0.28476 0.72456 0.62577 0.0
O25 O 0.25035 0.72401 0.70453 0.0
C26 C 0.32856 0.81166 0.71335 0.0
C27 C 0.25848 0.71229 0.65251 0.0
C28 C 0.46899 1.00582 0.867 0.0
C29 C 0.54314 0.07755 0.99615 0.0
O30 O 0.4811 0.03539 0.85265 0.0
Zn31 Zn 0.50502 0.04329 0.92946 0.0
O32 O 0.47432 0.99327 0.91995 0.0
Zn33 Zn 0.50051 1.00614 1.00198 0.0
O34 O 0.46309 1.01108 0.05953 0.0
O35 O 0.46329 0.0517 0.98896 0.0
O36 O 0.53276 0.04967 0.02215 0.0
O37 O 0.5336 0.08399 0.94204 0.0
O38 O 0.54162 1.00225 0.92877 0.0
O39 O 0.53185 0.96712 0.0062 0.0
C40 C 0.44983 0.03815 0.03627 0.0
C41 C 0.54888 0.97477 0.95889 0.0
C42 C 0.28788 0.20249 0.2314 0.0
C43 C 0.21692 0.29621 0.30919 0.0
O44 O 0.25995 0.21379 0.20832 0.0
Zn45 Zn 0.25274 0.25082 0.26547 0.0
O46 O 0.30077 0.21731 0.27816 0.0
Zn47 Zn 0.28932 0.25941 0.33698 0.0
O48 O 0.28448 0.23597 0.41483 0.0
O49 O 0.24411 0.22243 0.3475 0.0
O50 O 0.24493 0.29159 0.33907 0.0
O51 O 0.21121 0.27866 0.26164 0.0
O52 O 0.293 0.28645 0.2429 0.0
O53 O 0.32706 0.29151 0.32259 0.0
C54 C 0.2574 0.21914 0.40041 0.0
C55 C 0.31979 0.29966 0.26814 0.0
C56 C 0.75445 0.31869 0.14342 0.0
C57 C 0.8197 0.2212 0.23088 0.0
O58 O 0.7778 0.30258 0.11497 0.0
Zn59 Zn 0.78778 0.26872 0.17994 0.0
O60 O 0.74536 0.30862 0.19605 0.0
Zn61 Zn 0.75659 0.27115 0.26256 0.0
O62 O 0.77199 0.30287 0.32682 0.0
O63 O 0.80622 0.30251 0.24746 0.0
O64 O 0.79562 0.2332 0.26379 0.0
O65 O 0.82454 0.23397 0.17826 0.0
O66 O 0.74238 0.23876 0.17814 0.0
O67 O 0.71359 0.24368 0.26315 0.0
C68 C 0.7988 0.31408 0.29975 0.0
C69 C 0.71614 0.23106 0.21025 0.0
C70 C 0.8001 0.73155 0.68753 0.0
C71 C 0.71132 0.81053 0.76075 0.0
O72 O 0.77545 0.74341 0.65525 0.0
Zn73 Zn 0.75356 0.7704 0.71887 0.0
O74 O 0.80241 0.73932 0.74354 0.0
Zn75 Zn 0.77651 0.76789 0.8101 0.0
O76 O 0.75833 0.73121 0.86426 0.0
O77 O 0.73429 0.73072 0.77363 0.0
O78 O 0.73353 0.80078 0.80022 0.0
O79 O 0.71217 0.79866 0.70714 0.0
O80 O 0.79104 0.8089 0.73915 0.0
O81 O 0.81228 0.80215 0.83163 0.0
C82 C 0.7372 0.71773 0.82662 0.0
C83 C 0.81121 0.81898 0.78174 0.0
C84 C 0.47484 0.57363 0.03984 0.0
C85 C 0.56954 0.49173 0.08022 0.0
O86 O 0.49462 0.57453 0.0861 0.0
Zn87 Zn 0.52177 0.53307 0.06796 0.0
O88 O 0.47858 0.55007 1.00024 0.0
Zn89 Zn 0.5103 0.50746 0.98141 0.0
O90 O 0.47772 0.4683 0.98349 0.0
O91 O 0.48567 0.49211 0.07298 0.0
O92 O 0.55239 0.48728 0.03126 0.0
O93 O 0.56014 0.51475 0.11768 0.0
O94 O 0.55075 0.55045 0.99392 0.0
O95 O 0.53565 0.52398 0.90933 0.0
C96 C 0.47096 0.46931 0.03981 0.0
C97 C 0.55478 0.54561 0.9374 0.0
C98 C 0.96151 0.50377 0.4175 0.0
C99 C 0.06702 0.56692 0.47824 0.0
O100 O 0.97728 0.52545 0.38369 0.0
Zn101 Zn 1.014 0.53743 0.4423 0.0
O102 O 0.97321 0.49714 0.47047 0.0
Zn103 Zn 1.01345 0.51056 0.53009 0.0
O104 O 0.9868 0.53112 0.59527 0.0
O105 O 0.98576 0.56218 0.5108 0.0
O106 O 0.05465 0.54584 0.51749 0.0
O107 O 0.05152 0.57096 0.42761 0.0
O108 O 0.04101 0.49018 0.44608 0.0
O109 O 0.03819 0.46655 0.53716 0.0
C110 C 0.97679 0.55776 0.56588 0.0
C111 C 0.04858 0.46552 0.48263 0.0
H112 H 0.10189 0.07618 0.44834 0.0
H113 H 0.09685 0.12381 0.62428 0.0
H114 H 0.15339 0.10908 0.42579 0.0
H115 H 0.14949 0.15672 0.60175 0.0
H116 H 0.21406 0.23964 0.48812 0.0
H117 H 0.16919 0.20373 0.53449 0.0
H118 H 0.21327 0.11317 0.45265 0.0
H119 H 0.25712 0.14948 0.40483 0.0
C120 C 0.11189 0.09356 0.48254 0.0
C121 C 0.09516 0.09729 0.53822 0.0
C122 C 0.14178 0.11221 0.46978 0.0
C123 C 0.15603 0.13512 0.51237 0.0
C124 C 0.13921 0.13923 0.56801 0.0
C125 C 0.10907 0.12042 0.58089 0.0
C126 C 0.21486 0.21184 0.4824 0.0
C127 C 0.23914 0.19706 0.44386 0.0
C128 C 0.1891 0.19128 0.50863 0.0
C129 C 0.18725 0.15566 0.49636 0.0
C130 C 0.21353 0.14063 0.46196 0.0
C131 C 0.23897 0.16123 0.43535 0.0
H132 H 0.08493 0.96997 0.66296 0.0
H133 H 0.08047 0.91717 0.49134 0.0
H134 H 0.12479 0.92704 0.7019 0.0
H135 H 0.12013 0.8735 0.53115 0.0
H136 H 0.22318 0.82932 0.60142 0.0
H137 H 0.18047 0.86922 0.56128 0.0
H138 H 0.12762 0.86678 0.73252 0.0
H139 H 0.17094 0.82727 0.77337 0.0
C140 C 0.09228 0.94907 0.63358 0.0
C141 C 0.07955 0.94707 0.57391 0.0
C142 C 0.11497 0.92425 0.65615 0.0
C143 C 0.12552 0.89676 0.61977 0.0
C144 C 0.11271 0.89458 0.56012 0.0
C145 C 0.08992 0.91951 0.53743 0.0
C146 C 0.20245 0.83718 0.63058 0.0
C147 C 0.20059 0.82524 0.69077 0.0
C148 C 0.17777 0.85987 0.60735 0.0
C149 C 0.15064 0.87117 0.64365 0.0
C150 C 0.14848 0.85887 0.70362 0.0
C151 C 0.17322 0.83615 0.72693 0.0
H152 H 0.40688 1.01646 0.81103 0.0
H153 H 0.49062 0.94424 0.82821 0.0
H154 H 0.37205 0.9721 0.75941 0.0
H155 H 0.45637 0.90021 0.7765 0.0
H156 H 0.38977 0.83026 0.66042 0.0
H157 H 0.42461 0.88203 0.6811 0.0
H158 H 0.34768 0.91713 0.8061 0.0
H159 H 0.31317 0.86571 0.78593 0.0
C160 C 0.41819 0.99155 0.8016 0.0
C161 C 0.45133 0.98363 0.82286 0.0
C162 C 0.39828 0.96612 0.77267 0.0
C163 C 0.41149 0.93266 0.76416 0.0
C164 C 0.44562 0.92579 0.7817 0.0
C165 C 0.4652 0.95094 0.81132 0.0
C166 C 0.3802 0.84925 0.69178 0.0
C167 C 0.34895 0.84372 0.72208 0.0
C168 C 0.40009 0.87884 0.70355 0.0
C169 C 0.38875 0.90369 0.74496 0.0
C170 C 0.35686 0.89874 0.7733 0.0
C171 C 0.3373 0.86903 0.76227 0.0
H172 H 0.27454 0.16966 0.12375 0.0
H173 H 0.34321 0.16847 0.27863 0.0
H174 H 0.30844 0.12397 0.07731 0.0
H175 H 0.37714 0.12354 0.23205 0.0
H176 H 0.42327 0.02865 0.15027 0.0
H177 H 0.3788 0.06334 0.1986 0.0
H178 H 0.36583 0.12238 0.03337 0.0
H179 H 0.40945 0.08768 0.98519 0.0
C180 C 0.29662 0.15948 0.1481 0.0
C181 C 0.30635 0.17298 0.20459 0.0
C182 C 0.3161 0.13339 0.12146 0.0
C183 C 0.34556 0.12016 0.15093 0.0
C184 C 0.35439 0.13277 0.20843 0.0
C185 C 0.33507 0.15886 0.23487 0.0
C186 C 0.41043 0.04863 0.12408 0.0
C187 C 0.42014 0.05563 0.06414 0.0
C188 C 0.38513 0.06862 0.1518 0.0
C189 C 0.3689 0.09577 0.11991 0.0
C190 C 0.37747 0.10149 0.05909 0.0
C191 C 0.40278 0.08173 0.03161 0.0
H192 H 0.92457 0.95829 0.56609 0.0
H193 H 0.95376 0.99769 0.74167 0.0
H194 H 0.8865 0.91641 0.61371 0.0
H195 H 0.91506 0.95525 0.78983 0.0
H196 H 0.87338 0.839 0.8338 0.0
H197 H 0.91021 0.88767 0.80086 0.0
H198 H 0.83192 0.91861 0.67199 0.0
H199 H 0.79581 0.87067 0.70391 0.0
C200 C 0.9226 0.95825 0.61493 0.0
C201 C 0.94205 0.9815 0.65001 0.0
C202 C 0.90069 0.93425 0.64228 0.0
C203 C 0.89768 0.93261 0.70555 0.0
C204 C 0.91699 0.95587 0.74099 0.0
C205 C 0.9388 0.98034 0.71339 0.0
C206 C 0.86396 0.85663 0.79925 0.0
C207 C 0.83204 0.85059 0.77061 0.0
C208 C 0.88494 0.88446 0.78048 0.0
C209 C 0.87415 0.90652 0.73303 0.0
C210 C 0.84128 0.90164 0.70764 0.0
C211 C 0.82059 0.87409 0.72605 0.0
H212 H 0.94069 0.11213 0.49465 0.0
H213 H 0.96114 0.05247 0.3345 0.0
H214 H 0.90377 0.15033 0.43561 0.0
H215 H 0.92365 0.09091 0.27521 0.0
H216 H 0.88062 0.19474 0.18669 0.0
H217 H 0.91916 0.15346 0.23805 0.0
H218 H 0.84726 0.14467 0.38536 0.0
H219 H 0.80934 0.18542 0.33519 0.0
C220 C 0.93727 0.10707 0.44682 0.0
C221 C 0.95373 0.07903 0.41949 0.0
C222 C 0.91597 0.12895 0.41298 0.0
C223 C 0.91056 0.12351 0.35077 0.0
C224 C 0.92744 0.09586 0.32298 0.0
C225 C 0.9487 0.07372 0.35706 0.0
C226 C 0.87298 0.18366 0.22972 0.0
C227 C 0.84206 0.19375 0.25705 0.0
C228 C 0.89499 0.16002 0.25906 0.0
C229 C 0.88649 0.14626 0.31626 0.0
C230 C 0.85497 0.15537 0.34206 0.0
C231 C 0.83311 0.17871 0.31297 0.0
H232 H 0.71546 0.20501 0.09669 0.0
H233 H 0.65545 0.20649 0.26054 0.0
H234 H 0.67191 0.1699 0.04792 0.0
H235 H 0.61105 0.17093 0.21049 0.0
H236 H 0.56397 0.07301 0.11442 0.0
H237 H 0.60339 0.11122 0.16896 0.0
H238 H 0.61301 0.17545 0.00928 0.0
H239 H 0.57391 0.13702 0.95434 0.0
C240 C 0.69289 0.19791 0.12253 0.0
C241 C 0.68903 0.20872 0.18279 0.0
C242 C 0.66769 0.17792 0.09411 0.0
C243 C 0.63779 0.16794 0.12493 0.0
C244 C 0.63389 0.17821 0.18555 0.0
C245 C 0.65924 0.19859 0.21417 0.0
C246 C 0.57438 0.09534 0.09091 0.0
C247 C 0.56602 0.10174 0.0297 0.0
C248 C 0.59676 0.11741 0.12243 0.0
C249 C 0.61146 0.14628 0.09346 0.0
C250 C 0.60245 0.15315 0.0327 0.0
C251 C 0.57997 0.13117 1.00124 0.0
H252 H 0.55177 0.90418 0.97069 0.0
H253 H 0.60283 0.99167 0.88738 0.0
H254 H 0.58977 0.86489 0.9159 0.0
H255 H 0.64067 0.95266 0.83341 0.0
H256 H 0.72679 0.87023 0.81547 0.0
H257 H 0.68743 0.90998 0.86424 0.0
H258 H 0.60085 0.8491 0.80137 0.0
H259 H 0.64074 0.8092 0.75144 0.0
C260 C 0.57146 0.91498 0.9416 0.0
C261 C 0.57455 0.95095 0.93363 0.0
C262 C 0.59279 0.89255 0.90959 0.0
C263 C 0.61787 0.9058 0.87001 0.0
C264 C 0.62154 0.94176 0.86358 0.0
C265 C 0.59997 0.96406 0.89467 0.0
C266 C 0.69928 0.86581 0.81091 0.0
C267 C 0.68664 0.83703 0.77923 0.0
C268 C 0.67681 0.88845 0.83897 0.0
C269 C 0.64115 0.88246 0.83693 0.0
C270 C 0.6283 0.85408 0.80396 0.0
C271 C 0.65095 0.83162 0.77475 0.0
H272 H 0.61912 0.54621 0.98145 0.0
H273 H 0.55701 0.58574 0.83409 0.0
H274 H 0.66615 0.58478 0.95321 0.0
H275 H 0.6041 0.62522 0.80594 0.0
H276 H 0.70403 0.6758 0.7474 0.0
H277 H 0.66243 0.63036 0.76838 0.0
H278 H 0.67681 0.64642 0.96016 0.0
H279 H 0.71928 0.69198 0.93898 0.0
C280 C 0.6159 0.56281 0.94208 0.0
C281 C 0.58459 0.56303 0.90968 0.0
C282 C 0.64267 0.5852 0.92643 0.0
C283 C 0.63873 0.60858 0.87812 0.0
C284 C 0.60804 0.6074 0.84334 0.0
C285 C 0.58113 0.58472 0.859 0.0
C286 C 0.69856 0.66958 0.79422 0.0
C287 C 0.71484 0.68774 0.84166 0.0
C288 C 0.67449 0.64359 0.80611 0.0
C289 C 0.66595 0.63493 0.86579 0.0
C290 C 0.68303 0.65226 0.91352 0.0
C291 C 0.70734 0.67837 0.90155 0.0
H292 H 0.75555 0.38137 0.1944 0.0
H293 H 0.71269 0.32472 0.0442 0.0
H294 H 0.71412 0.42768 0.17723 0.0
H295 H 0.67035 0.37046 0.02759 0.0
H296 H 0.60829 0.46552 0.99111 0.0
H297 H 0.65832 0.42864 0.99932 0.0
H298 H 0.65346 0.43425 0.19427 0.0
H299 H 0.6034 0.47248 0.18574 0.0
C300 C 0.73791 0.37952 0.15627 0.0
C301 C 0.73761 0.34994 0.11978 0.0
C302 C 0.71376 0.40569 0.14718 0.0
C303 C 0.68846 0.40262 0.10176 0.0
C304 C 0.68963 0.37391 0.06271 0.0
C305 C 0.71406 0.34778 0.07166 0.0
C306 C 0.61788 0.459 0.03592 0.0
C307 C 0.60154 0.47148 0.08796 0.0
C308 C 0.6466 0.43772 0.0405 0.0
C309 C 0.65977 0.428 0.09732 0.0
C310 C 0.6442 0.44146 0.14963 0.0
C311 C 0.61543 0.46321 0.14496 0.0
H312 H 0.78243 0.36413 0.38306 0.0
H313 H 0.86427 0.329 0.2679 0.0
H314 H 0.81677 0.41577 0.40782 0.0
H315 H 0.89821 0.37974 0.29262 0.0
H316 H 0.94279 0.4854 0.30163 0.0
H317 H 0.89943 0.44186 0.27375 0.0
H318 H 0.8695 0.43242 0.46099 0.0
H319 H 0.91185 0.47615 0.48825 0.0
C320 C 0.80788 0.36712 0.36394 0.0
C321 C 0.82058 0.34253 0.32352 0.0
C322 C 0.82743 0.39678 0.3776 0.0
C323 C 0.85992 0.40229 0.35098 0.0
C324 C 0.87289 0.37698 0.31235 0.0
C325 C 0.85354 0.34757 0.29887 0.0
C326 C 0.92622 0.47472 0.33634 0.0
C327 C 0.931 0.48383 0.3971 0.0
C328 C 0.90166 0.44952 0.32064 0.0
C329 C 0.88144 0.43318 0.36543 0.0
C330 C 0.8845 0.44442 0.42537 0.0
C331 C 0.90898 0.46939 0.44098 0.0
H332 H 0.79083 0.67558 0.61348 0.0
H333 H 0.86828 0.73428 0.70993 0.0
H334 H 0.83449 0.63209 0.58827 0.0
H335 H 0.9117 0.69162 0.68374 0.0
H336 H 0.98084 0.62699 0.55309 0.0
H337 H 0.93752 0.66966 0.5799 0.0
H338 H 0.87488 0.5889 0.65901 0.0
H339 H 0.91895 0.54599 0.63327 0.0
C340 C 0.81727 0.67952 0.62797 0.0
C341 C 0.82639 0.70831 0.66308 0.0
C342 C 0.84204 0.65452 0.61439 0.0
C343 C 0.87629 0.65849 0.63463 0.0
C344 C 0.88549 0.68797 0.66773 0.0
C345 C 0.86072 0.71239 0.68238 0.0
C346 C 0.95815 0.61847 0.57738 0.0
C347 C 0.95335 0.58337 0.59191 0.0
C348 C 0.93333 0.64281 0.59232 0.0
C349 C 0.9028 0.63243 0.62082 0.0
C350 C 0.89814 0.59739 0.63646 0.0
C351 C 0.92347 0.57302 0.62266 0.0
H352 H 0.44769 0.47138 0.15512 0.0
H353 H 0.44038 0.41053 0.99226 0.0
H354 H 0.41167 0.42995 0.20774 0.0
H355 H 0.40423 0.36824 0.04607 0.0
H356 H 0.31127 0.32119 0.15078 0.0
H357 H 0.34731 0.36116 0.09316 0.0
H358 H 0.41541 0.37179 0.2475 0.0
H359 H 0.37903 0.33233 0.30557 0.0
C360 C 0.43845 0.44905 0.13037 0.0
C361 C 0.44718 0.44424 0.06933 0.0
C362 C 0.41791 0.4251 0.16092 0.0
C363 C 0.40543 0.39547 0.13155 0.0
C364 C 0.41338 0.39088 0.07001 0.0
C365 C 0.4341 0.41504 0.03916 0.0
C366 C 0.33394 0.33205 0.17254 0.0
C367 C 0.3421 0.32372 0.2331 0.0
C368 C 0.35475 0.35477 0.13921 0.0
C369 C 0.38419 0.36981 0.16565 0.0
C370 C 0.3926 0.36109 0.22596 0.0
C371 C 0.37181 0.33836 0.25928 0.0
H372 H 0.37876 0.71405 0.80257 0.0
H373 H 0.29456 0.69394 0.92462 0.0
H374 H 0.41737 0.68117 0.86898 0.0
H375 H 0.33321 0.66045 0.99048 0.0
H376 H 0.40713 0.56237 0.01958 0.0
H377 H 0.36606 0.60259 0.97343 0.0
H378 H 0.44291 0.68364 0.97945 0.0
H379 H 0.48382 0.64333 0.02729 0.0
C380 C 0.36849 0.70261 0.84355 0.0
C381 C 0.33354 0.70646 0.85814 0.0
C382 C 0.39069 0.68409 0.88188 0.0
C383 C 0.37834 0.66847 0.93512 0.0
C384 C 0.34342 0.67231 0.94981 0.0
C385 C 0.32134 0.69143 0.91207 0.0
C386 C 0.41473 0.58916 0.01319 0.0
C387 C 0.44835 0.59999 0.02784 0.0
C388 C 0.39132 0.61212 0.98656 0.0
C389 C 0.40136 0.64617 0.97251 0.0
C390 C 0.43455 0.65748 0.98966 0.0
C391 C 0.45778 0.63463 0.01767 0.0
H392 H 0.25391 0.69609 0.53151 0.0
H393 H 0.20875 0.67306 0.70527 0.0
H394 H 0.21004 0.65963 0.48221 0.0
H395 H 0.1653 0.63733 0.65648 0.0
H396 H 0.11265 0.54973 0.56631 0.0
H397 H 0.162 0.58229 0.60245 0.0
H398 H 0.14452 0.65974 0.46406 0.0
H399 H 0.09455 0.62644 0.42667 0.0
C400 C 0.23501 0.68288 0.55922 0.0
C401 C 0.23497 0.68729 0.62239 0.0
C402 C 0.2097 0.66236 0.53093 0.0
C403 C 0.18424 0.64555 0.56542 0.0
C404 C 0.18478 0.64952 0.62859 0.0
C405 C 0.20971 0.67011 0.65662 0.0
C406 C 0.11927 0.57358 0.54305 0.0
C407 C 0.09922 0.58578 0.49415 0.0
C408 C 0.14764 0.59229 0.56396 0.0
C409 C 0.15684 0.62389 0.53688 0.0
C410 C 0.13804 0.6354 0.48583 0.0
C411 C 0.10941 0.61644 0.46455 0.0
H412 H 0.22218 0.33554 0.41064 0.0
H413 H 0.15213 0.31009 0.26439 0.0
H414 H 0.17894 0.37267 0.4545 0.0
H415 H 0.10846 0.34705 0.30916 0.0
H416 H 0.06089 0.45086 0.36518 0.0
H417 H 0.09957 0.40829 0.32438 0.0
H418 H 0.12295 0.37184 0.50524 0.0
H419 H 0.08424 0.41547 0.54677 0.0
C420 C 0.19752 0.33784 0.38773 0.0
C421 C 0.19073 0.31998 0.33362 0.0
C422 C 0.17256 0.35885 0.41343 0.0
C423 C 0.14015 0.36265 0.38568 0.0
C424 C 0.1333 0.34485 0.33149 0.0
C425 C 0.15831 0.32371 0.30574 0.0
C426 C 0.07405 0.43369 0.39654 0.0
C427 C 0.06971 0.43681 0.45943 0.0
C428 C 0.09605 0.40901 0.37291 0.0
C429 C 0.11445 0.38669 0.41143 0.0
C430 C 0.10939 0.38897 0.47438 0.0
C431 C 0.08709 0.41375 0.49819 0.0
loop_
_geom_bond_atom_site_label_1
_geom_bond_atom_site_label_2
_geom_bond_distance
_geom_bond_site_symmetry_2
_ccdc_geom_bond_type
C0 O2 1.247 . S
C0 O4 1.258 . S
C1 O8 1.247 . S
C1 O9 1.258 . S
O2 C0 1.247 . S
O2 Zn3 2.030 1_655 S
Zn3 O2 2.030 1_455 S
Zn3 O7 2.037 1_465 S
Zn3 O9 2.033 1_565 S
Zn3 O10 2.026 . S
O4 C0 1.258 . S
O4 Zn5 2.033 1_665 S
Zn5 O4 2.033 1_445 S
Zn5 O6 2.026 1_455 S
Zn5 O8 2.030 . S
Zn5 O11 2.037 1_545 S
O6 Zn5 2.026 1_655 S
O6 C12 1.247 . S
O7 Zn3 2.037 1_645 S
O7 C12 1.258 . S
O8 C1 1.247 . S
O8 Zn5 2.030 . S
O9 C1 1.258 . S
O9 Zn3 2.033 1_545 S
O10 Zn3 2.026 . S
O10 C13 1.247 . S
O11 Zn5 2.037 1_565 S
O11 C13 1.258 . S
C12 O6 1.247 . S
C12 O7 1.258 . S
C13 O10 1.247 . S
C13 O11 1.258 . S
C14 O16 1.247 . S
C14 O18 1.258 . S
C15 O22 1.247 . S
C15 O23 1.258 . S
O16 C14 1.247 . S
O16 Zn17 2.028 . S
Zn17 O16 2.028 . S
Zn17 O21 2.035 . S
Zn17 O23 2.035 . S
Zn17 O24 2.028 . S
O18 C14 1.258 . S
O18 Zn19 2.035 . S
Zn19 O18 2.035 . S
Zn19 O20 2.028 . S
Zn19 O22 2.028 . S
Zn19 O25 2.035 . S
O20 Zn19 2.028 . S
O20 C26 1.247 . S
O21 Zn17 2.035 . S
O21 C26 1.258 . S
O22 C15 1.247 . S
O22 Zn19 2.028 . S
O23 C15 1.258 . S
O23 Zn17 2.035 . S
O24 Zn17 2.028 . S
O24 C27 1.247 . S
O25 Zn19 2.035 . S
O25 C27 1.258 . S
C26 O20 1.247 . S
C26 O21 1.258 . S
C27 O24 1.247 . S
C27 O25 1.258 . S
C28 O30 1.247 . S
C28 O32 1.258 1_556 S
C29 O36 1.247 . S
C29 O37 1.258 1_554 S
O30 C28 1.247 . S
O30 Zn31 2.028 1_565 S
Zn31 O30 2.028 1_545 S
Zn31 O35 2.035 . S
Zn31 O37 2.035 . S
Zn31 O38 2.028 1_545 S
O32 C28 1.258 1_554 S
O32 Zn33 2.035 . S
Zn33 O32 2.035 . S
Zn33 O34 2.028 1_565 S
Zn33 O36 2.028 1_565 S
Zn33 O39 2.035 . S
O34 Zn33 2.028 1_545 S
O34 C40 1.247 . S
O35 Zn31 2.035 . S
O35 C40 1.258 1_556 S
O36 C29 1.247 . S
O36 Zn33 2.028 1_545 S
O37 C29 1.258 1_556 S
O37 Zn31 2.035 . S
O38 Zn31 2.028 1_565 S
O38 C41 1.247 . S
O39 Zn33 2.035 . S
O39 C41 1.258 1_554 S
C40 O34 1.247 . S
C40 O35 1.258 1_554 S
C41 O38 1.247 . S
C41 O39 1.258 1_556 S
C42 O44 1.247 . S
C42 O46 1.258 . S
C43 O50 1.247 . S
C43 O51 1.258 . S
O44 C42 1.247 . S
O44 Zn45 2.028 . S
Zn45 O44 2.028 . S
Zn45 O49 2.035 . S
Zn45 O51 2.035 . S
Zn45 O52 2.028 . S
O46 C42 1.258 . S
O46 Zn47 2.035 . S
Zn47 O46 2.035 . S
Zn47 O48 2.028 . S
Zn47 O50 2.028 . S
Zn47 O53 2.035 . S
O48 Zn47 2.028 . S
O48 C54 1.247 . S
O49 Zn45 2.035 . S
O49 C54 1.258 . S
O50 C43 1.247 . S
O50 Zn47 2.028 . S
O51 C43 1.258 . S
O51 Zn45 2.035 . S
O52 Zn45 2.028 . S
O52 C55 1.247 . S
O53 Zn47 2.035 . S
O53 C55 1.258 . S
C54 O48 1.247 . S
C54 O49 1.258 . S
C55 O52 1.247 . S
C55 O53 1.258 . S
C56 O58 1.247 . S
C56 O60 1.258 . S
C57 O64 1.247 . S
C57 O65 1.258 . S
O58 C56 1.247 . S
O58 Zn59 2.028 . S
Zn59 O58 2.028 . S
Zn59 O63 2.035 . S
Zn59 O65 2.035 . S
Zn59 O66 2.028 . S
O60 C56 1.258 . S
O60 Zn61 2.035 . S
Zn61 O60 2.035 . S
Zn61 O62 2.028 . S
Zn61 O64 2.028 . S
Zn61 O67 2.035 . S
O62 Zn61 2.028 . S
O62 C68 1.247 . S
O63 Zn59 2.035 . S
O63 C68 1.258 . S
O64 C57 1.247 . S
O64 Zn61 2.028 . S
O65 C57 1.258 . S
O65 Zn59 2.035 . S
O66 Zn59 2.028 . S
O66 C69 1.247 . S
O67 Zn61 2.035 . S
O67 C69 1.258 . S
C68 O62 1.247 . S
C68 O63 1.258 . S
C69 O66 1.247 . S
C69 O67 1.258 . S
C70 O72 1.247 . S
C70 O74 1.258 . S
C71 O78 1.247 . S
C71 O79 1.258 . S
O72 C70 1.247 . S
O72 Zn73 2.028 . S
Zn73 O72 2.028 . S
Zn73 O77 2.035 . S
Zn73 O79 2.035 . S
Zn73 O80 2.028 . S
O74 C70 1.258 . S
O74 Zn75 2.035 . S
Zn75 O74 2.035 . S
Zn75 O76 2.028 . S
Zn75 O78 2.028 . S
Zn75 O81 2.035 . S
O76 Zn75 2.028 . S
O76 C82 1.247 . S
O77 Zn73 2.035 . S
O77 C82 1.258 . S
O78 C71 1.247 . S
O78 Zn75 2.028 . S
O79 C71 1.258 . S
O79 Zn73 2.035 . S
O80 Zn73 2.028 . S
O80 C83 1.247 . S
O81 Zn75 2.035 . S
O81 C83 1.258 . S
C82 O76 1.247 . S
C82 O77 1.258 . S
C83 O80 1.247 . S
C83 O81 1.258 . S
C84 O86 1.247 1_556 S
C84 O88 1.258 . S
C85 O92 1.247 1_554 S
C85 O93 1.258 . S
O86 C84 1.247 1_554 S
O86 Zn87 2.028 . S
Zn87 O86 2.028 . S
Zn87 O91 2.035 . S
Zn87 O93 2.035 . S
Zn87 O94 2.028 . S
O88 C84 1.258 . S
O88 Zn89 2.035 . S
Zn89 O88 2.035 . S
Zn89 O90 2.028 . S
Zn89 O92 2.028 . S
Zn89 O95 2.035 . S
O90 Zn89 2.028 . S
O90 C96 1.247 1_556 S
O91 Zn87 2.035 . S
O91 C96 1.258 . S
O92 C85 1.247 1_556 S
O92 Zn89 2.028 . S
O93 C85 1.258 . S
O93 Zn87 2.035 . S
O94 Zn87 2.028 . S
O94 C97 1.247 1_554 S
O95 Zn89 2.035 . S
O95 C97 1.258 . S
C96 O90 1.247 1_554 S
C96 O91 1.258 . S
C97 O94 1.247 1_556 S
C97 O95 1.258 . S
C98 O100 1.247 . S
C98 O102 1.258 . S
C99 O106 1.247 . S
C99 O107 1.258 . S
O100 C98 1.247 . S
O100 Zn101 2.030 1_655 S
Zn101 O100 2.030 1_455 S
Zn101 O105 2.037 1_455 S
Zn101 O107 2.033 . S
Zn101 O108 2.026 . S
O102 C98 1.258 . S
O102 Zn103 2.033 1_655 S
Zn103 O102 2.033 1_455 S
Zn103 O104 2.026 1_455 S
Zn103 O106 2.030 . S
Zn103 O109 2.037 . S
O104 Zn103 2.026 1_655 S
O104 C110 1.247 . S
O105 Zn101 2.037 1_655 S
O105 C110 1.258 . S
O106 C99 1.247 . S
O106 Zn103 2.030 . S
O107 C99 1.258 . S
O107 Zn101 2.033 . S
O108 Zn101 2.026 . S
O108 C111 1.247 . S
O109 Zn103 2.037 . S
O109 C111 1.258 . S
C110 O104 1.247 . S
C110 O105 1.258 . S
C111 O108 1.247 . S
C111 O109 1.258 . S
H112 C120 0.950 . S
H113 C125 0.950 . S
H114 C122 0.950 . S
H115 C124 0.950 . S
H116 C126 0.950 . S
H117 C128 0.950 . S
H118 C130 0.950 . S
H119 C131 0.950 . S
C120 H112 0.950 . S
C120 C121 1.386 . S
C120 C122 1.391 . S
C121 C120 1.386 . S
C121 C125 1.393 . S
C122 H114 0.950 . S
C122 C120 1.391 . S
C122 C123 1.400 . S
C123 C122 1.400 . S
C123 C124 1.398 . S
C123 C129 1.491 . S
C124 H115 0.950 . S
C124 C123 1.398 . S
C124 C125 1.391 . S
C125 H113 0.950 . S
C125 C121 1.393 . S
C125 C124 1.391 . S
C126 H116 0.950 . S
C126 C127 1.386 . S
C126 C128 1.391 . S
C127 C126 1.386 . S
C127 C131 1.393 . S
C128 H117 0.950 . S
C128 C126 1.391 . S
C128 C129 1.400 . S
C129 C123 1.491 . S
C129 C128 1.400 . S
C129 C130 1.398 . S
C130 H118 0.950 . S
C130 C129 1.398 . S
C130 C131 1.391 . S
C131 H119 0.950 . S
C131 C127 1.393 . S
C131 C130 1.391 . S
H132 C140 0.950 . S
H133 C145 0.950 . S
H134 C142 0.950 . S
H135 C144 0.950 . S
H136 C146 0.950 . S
H137 C148 0.950 . S
H138 C150 0.950 . S
H139 C151 0.950 . S
C140 H132 0.950 . S
C140 C141 1.386 . S
C140 C142 1.391 . S
C141 C140 1.386 . S
C141 C145 1.393 . S
C142 H134 0.950 . S
C142 C140 1.391 . S
C142 C143 1.400 . S
C143 C142 1.400 . S
C143 C144 1.398 . S
C143 C149 1.491 . S
C144 H135 0.950 . S
C144 C143 1.398 . S
C144 C145 1.391 . S
C145 H133 0.950 . S
C145 C141 1.393 . S
C145 C144 1.391 . S
C146 H136 0.950 . S
C146 C147 1.386 . S
C146 C148 1.391 . S
C147 C146 1.386 . S
C147 C151 1.393 . S
C148 H137 0.950 . S
C148 C146 1.391 . S
C148 C149 1.400 . S
C149 C143 1.491 . S
C149 C148 1.400 . S
C149 C150 1.398 . S
C150 H138 0.950 . S
C150 C149 1.398 . S
C150 C151 1.391 . S
C151 H139 0.950 . S
C151 C147 1.393 . S
C151 C150 1.391 . S
H152 C160 0.950 . S
H153 C165 0.950 . S
H154 C162 0.950 . S
H155 C164 0.950 . S
H156 C166 0.950 . S
H157 C168 0.950 . S
H158 C170 0.950 . S
H159 C171 0.950 . S
C160 H152 0.950 . S
C160 C161 1.386 . S
C160 C162 1.391 . S
C161 C160 1.386 . S
C161 C165 1.393 . S
C162 H154 0.950 . S
C162 C160 1.391 . S
C162 C163 1.400 . S
C163 C162 1.400 . S
C163 C164 1.398 . S
C163 C169 1.491 . S
C164 H155 0.950 . S
C164 C163 1.398 . S
C164 C165 1.391 . S
C165 H153 0.950 . S
C165 C161 1.393 . S
C165 C164 1.391 . S
C166 H156 0.950 . S
C166 C167 1.386 . S
C166 C168 1.391 . S
C167 C166 1.386 . S
C167 C171 1.393 . S
C168 H157 0.950 . S
C168 C166 1.391 . S
C168 C169 1.400 . S
C169 C163 1.491 . S
C169 C168 1.400 . S
C169 C170 1.398 . S
C170 H158 0.950 . S
C170 C169 1.398 . S
C170 C171 1.391 . S
C171 H159 0.950 . S
C171 C167 1.393 . S
C171 C170 1.391 . S
H172 C180 0.950 . S
H173 C185 0.950 . S
H174 C182 0.950 . S
H175 C184 0.950 . S
H176 C186 0.950 . S
H177 C188 0.950 . S
H178 C190 0.950 . S
H179 C191 0.950 1_556 S
C180 H172 0.950 . S
C180 C181 1.386 . S
C180 C182 1.391 . S
C181 C180 1.386 . S
C181 C185 1.393 . S
C182 H174 0.950 . S
C182 C180 1.391 . S
C182 C183 1.400 . S
C183 C182 1.400 . S
C183 C184 1.398 . S
C183 C189 1.491 . S
C184 H175 0.950 . S
C184 C183 1.398 . S
C184 C185 1.391 . S
C185 H173 0.950 . S
C185 C181 1.393 . S
C185 C184 1.391 . S
C186 H176 0.950 . S
C186 C187 1.386 . S
C186 C188 1.391 . S
C187 C186 1.386 . S
C187 C191 1.393 . S
C188 H177 0.950 . S
C188 C186 1.391 . S
C188 C189 1.400 . S
C189 C183 1.491 . S
C189 C188 1.400 . S
C189 C190 1.398 . S
C190 H178 0.950 . S
C190 C189 1.398 . S
C190 C191 1.391 . S
C191 H179 0.950 1_554 S
C191 C187 1.393 . S
C191 C190 1.391 . S
H192 C200 0.950 . S
H193 C205 0.950 . S
H194 C202 0.950 . S
H195 C204 0.950 . S
H196 C206 0.950 . S
H197 C208 0.950 . S
H198 C210 0.950 . S
H199 C211 0.950 . S
C200 H192 0.950 . S
C200 C201 1.386 . S
C200 C202 1.391 . S
C201 C200 1.386 . S
C201 C205 1.393 . S
C202 H194 0.950 . S
C202 C200 1.391 . S
C202 C203 1.400 . S
C203 C202 1.400 . S
C203 C204 1.398 . S
C203 C209 1.491 . S
C204 H195 0.950 . S
C204 C203 1.398 . S
C204 C205 1.391 . S
C205 H193 0.950 . S
C205 C201 1.393 . S
C205 C204 1.391 . S
C206 H196 0.950 . S
C206 C207 1.386 . S
C206 C208 1.391 . S
C207 C206 1.386 . S
C207 C211 1.393 . S
C208 H197 0.950 . S
C208 C206 1.391 . S
C208 C209 1.400 . S
C209 C203 1.491 . S
C209 C208 1.400 . S
C209 C210 1.398 . S
C210 H198 0.950 . S
C210 C209 1.398 . S
C210 C211 1.391 . S
C211 H199 0.950 . S
C211 C207 1.393 . S
C211 C210 1.391 . S
H212 C220 0.950 . S
H213 C225 0.950 . S
H214 C222 0.950 . S
H215 C224 0.950 . S
H216 C226 0.950 . S
H217 C228 0.950 . S
H218 C230 0.950 . S
H219 C231 0.950 . S
C220 H212 0.950 . S
C220 C221 1.386 . S
C220 C222 1.391 . S
C221 C220 1.386 . S
C221 C225 1.393 . S
C222 H214 0.950 . S
C222 C220 1.391 . S
C222 C223 1.400 . S
C223 C222 1.400 . S
C223 C224 1.398 . S
C223 C229 1.491 . S
C224 H215 0.950 . S
C224 C223 1.398 . S
C224 C225 1.391 . S
C225 H213 0.950 . S
C225 C221 1.393 . S
C225 C224 1.391 . S
C226 H216 0.950 . S
C226 C227 1.386 . S
C226 C228 1.391 . S
C227 C226 1.386 . S
C227 C231 1.393 . S
C228 H217 0.950 . S
C228 C226 1.391 . S
C228 C229 1.400 . S
C229 C223 1.491 . S
C229 C228 1.400 . S
C229 C230 1.398 . S
C230 H218 0.950 . S
C230 C229 1.398 . S
C230 C231 1.391 . S
C231 H219 0.950 . S
C231 C227 1.393 . S
C231 C230 1.391 . S
H232 C240 0.950 . S
H233 C245 0.950 . S
H234 C242 0.950 . S
H235 C244 0.950 . S
H236 C246 0.950 . S
H237 C248 0.950 . S
H238 C250 0.950 . S
H239 C251 0.950 . S
C240 H232 0.950 . S
C240 C241 1.386 . S
C240 C242 1.391 . S
C241 C240 1.386 . S
C241 C245 1.393 . S
C242 H234 0.950 . S
C242 C240 1.391 . S
C242 C243 1.400 . S
C243 C242 1.400 . S
C243 C244 1.398 . S
C243 C249 1.491 . S
C244 H235 0.950 . S
C244 C243 1.398 . S
C244 C245 1.391 . S
C245 H233 0.950 . S
C245 C241 1.393 . S
C245 C244 1.391 . S
C246 H236 0.950 . S
C246 C247 1.386 . S
C246 C248 1.391 . S
C247 C246 1.386 . S
C247 C251 1.393 . S
C248 H237 0.950 . S
C248 C246 1.391 . S
C248 C249 1.400 . S
C249 C243 1.491 . S
C249 C248 1.400 . S
C249 C250 1.398 . S
C250 H238 0.950 . S
C250 C249 1.398 . S
C250 C251 1.391 . S
C251 H239 0.950 . S
C251 C247 1.393 . S
C251 C250 1.391 . S
H252 C260 0.950 . S
H253 C265 0.950 . S
H254 C262 0.950 . S
H255 C264 0.950 . S
H256 C266 0.950 . S
H257 C268 0.950 . S
H258 C270 0.950 . S
H259 C271 0.950 . S
C260 H252 0.950 . S
C260 C261 1.386 . S
C260 C262 1.391 . S
C261 C260 1.386 . S
C261 C265 1.393 . S
C262 H254 0.950 . S
C262 C260 1.391 . S
C262 C263 1.400 . S
C263 C262 1.400 . S
C263 C264 1.398 . S
C263 C269 1.491 . S
C264 H255 0.950 . S
C264 C263 1.398 . S
C264 C265 1.391 . S
C265 H253 0.950 . S
C265 C261 1.393 . S
C265 C264 1.391 . S
C266 H256 0.950 . S
C266 C267 1.386 . S
C266 C268 1.391 . S
C267 C266 1.386 . S
C267 C271 1.393 . S
C268 H257 0.950 . S
C268 C266 1.391 . S
C268 C269 1.400 . S
C269 C263 1.491 . S
C269 C268 1.400 . S
C269 C270 1.398 . S
C270 H258 0.950 . S
C270 C269 1.398 . S
C270 C271 1.391 . S
C271 H259 0.950 . S
C271 C267 1.393 . S
C271 C270 1.391 . S
H272 C280 0.950 . S
H273 C285 0.950 . S
H274 C282 0.950 . S
H275 C284 0.950 . S
H276 C286 0.950 . S
H277 C288 0.950 . S
H278 C290 0.950 . S
H279 C291 0.950 . S
C280 H272 0.950 . S
C280 C281 1.386 . S
C280 C282 1.391 . S
C281 C280 1.386 . S
C281 C285 1.393 . S
C282 H274 0.950 . S
C282 C280 1.391 . S
C282 C283 1.400 . S
C283 C282 1.400 . S
C283 C284 1.398 . S
C283 C289 1.491 . S
C284 H275 0.950 . S
C284 C283 1.398 . S
C284 C285 1.391 . S
C285 H273 0.950 . S
C285 C281 1.393 . S
C285 C284 1.391 . S
C286 H276 0.950 . S
C286 C287 1.386 . S
C286 C288 1.391 . S
C287 C286 1.386 . S
C287 C291 1.393 . S
C288 H277 0.950 . S
C288 C286 1.391 . S
C288 C289 1.400 . S
C289 C283 1.491 . S
C289 C288 1.400 . S
C289 C290 1.398 . S
C290 H278 0.950 . S
C290 C289 1.398 . S
C290 C291 1.391 . S
C291 H279 0.950 . S
C291 C287 1.393 . S
C291 C290 1.391 . S
H292 C300 0.950 . S
H293 C305 0.950 . S
H294 C302 0.950 . S
H295 C304 0.950 . S
H296 C306 0.950 . S
H297 C308 0.950 . S
H298 C310 0.950 . S
H299 C311 0.950 . S
C300 H292 0.950 . S
C300 C301 1.386 . S
C300 C302 1.391 . S
C301 C300 1.386 . S
C301 C305 1.393 . S
C302 H294 0.950 . S
C302 C300 1.391 . S
C302 C303 1.400 . S
C303 C302 1.400 . S
C303 C304 1.398 . S
C303 C309 1.491 . S
C304 H295 0.950 . S
C304 C303 1.398 . S
C304 C305 1.391 . S
C305 H293 0.950 . S
C305 C301 1.393 . S
C305 C304 1.391 . S
C306 H296 0.950 . S
C306 C307 1.386 . S
C306 C308 1.391 . S
C307 C306 1.386 . S
C307 C311 1.393 . S
C308 H297 0.950 . S
C308 C306 1.391 . S
C308 C309 1.400 . S
C309 C303 1.491 . S
C309 C308 1.400 . S
C309 C310 1.398 . S
C310 H298 0.950 . S
C310 C309 1.398 . S
C310 C311 1.391 . S
C311 H299 0.950 . S
C311 C307 1.393 . S
C311 C310 1.391 . S
H312 C320 0.950 . S
H313 C325 0.950 . S
H314 C322 0.950 . S
H315 C324 0.950 . S
H316 C326 0.950 . S
H317 C328 0.950 . S
H318 C330 0.950 . S
H319 C331 0.950 . S
C320 H312 0.950 . S
C320 C321 1.386 . S
C320 C322 1.391 . S
C321 C320 1.386 . S
C321 C325 1.393 . S
C322 H314 0.950 . S
C322 C320 1.391 . S
C322 C323 1.400 . S
C323 C322 1.400 . S
C323 C324 1.398 . S
C323 C329 1.491 . S
C324 H315 0.950 . S
C324 C323 1.398 . S
C324 C325 1.391 . S
C325 H313 0.950 . S
C325 C321 1.393 . S
C325 C324 1.391 . S
C326 H316 0.950 . S
C326 C327 1.386 . S
C326 C328 1.391 . S
C327 C326 1.386 . S
C327 C331 1.393 . S
C328 H317 0.950 . S
C328 C326 1.391 . S
C328 C329 1.400 . S
C329 C323 1.491 . S
C329 C328 1.400 . S
C329 C330 1.398 . S
C330 H318 0.950 . S
C330 C329 1.398 . S
C330 C331 1.391 . S
C331 H319 0.950 . S
C331 C327 1.393 . S
C331 C330 1.391 . S
H332 C340 0.950 . S
H333 C345 0.950 . S
H334 C342 0.950 . S
H335 C344 0.950 . S
H336 C346 0.950 . S
H337 C348 0.950 . S
H338 C350 0.950 . S
H339 C351 0.950 . S
C340 H332 0.950 . S
C340 C341 1.386 . S
C340 C342 1.391 . S
C341 C340 1.386 . S
C341 C345 1.393 . S
C342 H334 0.950 . S
C342 C340 1.391 . S
C342 C343 1.400 . S
C343 C342 1.400 . S
C343 C344 1.398 . S
C343 C349 1.491 . S
C344 H335 0.950 . S
C344 C343 1.398 . S
C344 C345 1.391 . S
C345 H333 0.950 . S
C345 C341 1.393 . S
C345 C344 1.391 . S
C346 H336 0.950 . S
C346 C347 1.386 . S
C346 C348 1.391 . S
C347 C346 1.386 . S
C347 C351 1.393 . S
C348 H337 0.950 . S
C348 C346 1.391 . S
C348 C349 1.400 . S
C349 C343 1.491 . S
C349 C348 1.400 . S
C349 C350 1.398 . S
C350 H338 0.950 . S
C350 C349 1.398 . S
C350 C351 1.391 . S
C351 H339 0.950 . S
C351 C347 1.393 . S
C351 C350 1.391 . S
H352 C360 0.950 . S
H353 C365 0.943 1_556 S
H354 C362 0.950 . S
H355 C364 0.950 . S
H356 C366 0.950 . S
H357 C368 0.950 . S
H358 C370 0.950 . S
H359 C371 0.950 . S
C360 H352 0.950 . S
C360 C361 1.386 . S
C360 C362 1.391 . S
C361 C360 1.386 . S
C361 C365 1.393 . S
C362 H354 0.950 . S
C362 C360 1.391 . S
C362 C363 1.400 . S
C363 C362 1.400 . S
C363 C364 1.398 . S
C363 C369 1.491 . S
C364 H355 0.950 . S
C364 C363 1.398 . S
C364 C365 1.391 . S
C365 H353 0.943 1_554 S
C365 C361 1.393 . S
C365 C364 1.391 . S
C366 H356 0.950 . S
C366 C367 1.386 . S
C366 C368 1.391 . S
C367 C366 1.386 . S
C367 C371 1.393 . S
C368 H357 0.950 . S
C368 C366 1.391 . S
C368 C369 1.400 . S
C369 C363 1.491 . S
C369 C368 1.400 . S
C369 C370 1.398 . S
C370 H358 0.950 . S
C370 C369 1.398 . S
C370 C371 1.391 . S
C371 H359 0.950 . S
C371 C367 1.393 . S
C371 C370 1.391 . S
H372 C380 0.950 . S
H373 C385 0.950 . S
H374 C382 0.950 . S
H375 C384 0.950 . S
H376 C386 0.950 . S
H377 C388 0.950 . S
H378 C390 0.950 . S
H379 C391 0.950 . S
C380 H372 0.950 . S
C380 C381 1.386 . S
C380 C382 1.391 . S
C381 C380 1.386 . S
C381 C385 1.393 . S
C382 H374 0.950 . S
C382 C380 1.391 . S
C382 C383 1.400 . S
C383 C382 1.400 . S
C383 C384 1.398 . S
C383 C389 1.491 . S
C384 H375 0.950 . S
C384 C383 1.398 . S
C384 C385 1.391 . S
C385 H373 0.950 . S
C385 C381 1.393 . S
C385 C384 1.391 . S
C386 H376 0.950 . S
C386 C387 1.386 . S
C386 C388 1.391 . S
C387 C386 1.386 . S
C387 C391 1.393 . S
C388 H377 0.950 . S
C388 C386 1.391 . S
C388 C389 1.400 . S
C389 C383 1.491 . S
C389 C388 1.400 . S
C389 C390 1.398 . S
C390 H378 0.950 . S
C390 C389 1.398 . S
C390 C391 1.391 . S
C391 H379 0.950 . S
C391 C387 1.393 . S
C391 C390 1.391 . S
H392 C400 0.950 . S
H393 C405 0.950 . S
H394 C402 0.950 . S
H395 C404 0.950 . S
H396 C406 0.950 . S
H397 C408 0.950 . S
H398 C410 0.950 . S
H399 C411 0.950 . S
C400 H392 0.950 . S
C400 C401 1.386 . S
C400 C402 1.391 . S
C401 C400 1.386 . S
C401 C405 1.393 . S
C402 H394 0.950 . S
C402 C400 1.391 . S
C402 C403 1.400 . S
C403 C402 1.400 . S
C403 C404 1.398 . S
C403 C409 1.491 . S
C404 H395 0.950 . S
C404 C403 1.398 . S
C404 C405 1.391 . S
C405 H393 0.950 . S
C405 C401 1.393 . S
C405 C404 1.391 . S
C406 H396 0.950 . S
C406 C407 1.386 . S
C406 C408 1.391 . S
C407 C406 1.386 . S
C407 C411 1.393 . S
C408 H397 0.950 . S
C408 C406 1.391 . S
C408 C409 1.400 . S
C409 C403 1.491 . S
C409 C408 1.400 . S
C409 C410 1.398 . S
C410 H398 0.950 . S
C410 C409 1.398 . S
C410 C411 1.391 . S
C411 H399 0.950 . S
C411 C407 1.393 . S
C411 C410 1.391 . S
H412 C420 0.950 . S
H413 C425 0.950 . S
H414 C422 0.950 . S
H415 C424 0.950 . S
H416 C426 0.950 . S
H417 C428 0.950 . S
H418 C430 0.950 . S
H419 C431 0.950 . S
C420 H412 0.950 . S
C420 C421 1.386 . S
C420 C422 1.391 . S
C421 C420 1.386 . S
C421 C425 1.393 . S
C422 H414 0.950 . S
C422 C420 1.391 . S
C422 C423 1.400 . S
C423 C422 1.400 . S
C423 C424 1.398 . S
C423 C429 1.491 . S
C424 H415 0.950 . S
C424 C423 1.398 . S
C424 C425 1.391 . S
C425 H413 0.950 . S
C425 C421 1.393 . S
C425 C424 1.391 . S
C426 H416 0.950 . S
C426 C427 1.386 . S
C426 C428 1.391 . S
C427 C426 1.386 . S
C427 C431 1.393 . S
C428 H417 0.950 . S
C428 C426 1.391 . S
C428 C429 1.400 . S
C429 C423 1.491 . S
C429 C428 1.400 . S
C429 C430 1.398 . S
C430 H418 0.950 . S
C430 C429 1.398 . S
C430 C431 1.391 . S
C431 H419 0.950 . S
C431 C427 1.393 . S
C431 C430 1.391 . S
C121 C1 1.500 . S
C127 C54 1.491 . S
C141 C13 1.499 . S
C147 C14 1.495 . S
C161 C28 1.499 . S
C167 C26 1.501 . S
C181 C42 1.500 . S
C187 C40 1.492 . S
C201 C0 1.499 . S
C207 C83 1.501 . S
C221 C12 1.500 . S
C227 C57 1.496 . S
C241 C69 1.496 . S
C247 C29 1.495 . S
C261 C41 1.497 . S
C267 C71 1.503 . S
C281 C97 1.498 . S
C287 C82 1.500 . S
C301 C56 1.498 . S
C307 C85 1.498 . S
C321 C68 1.500 . S
C327 C98 1.498 . S
C341 C70 1.499 . S
C347 C110 1.500 . S
C361 C96 1.496 . S
C367 C55 1.498 . S
C381 C15 1.497 . S
C387 C84 1.500 . S
C401 C27 1.496 . S
C407 C99 1.497 . S
C421 C43 1.496 . S
C427 C111 1.497 . S
