# Generated by pormake.
# Topology som, (6)-cn, num edge types: 1
# Building blocks:
#     Node 0, Type 0, BuildingBlock: BETDIP_clean_sbu_0, # of connection points: 6
#     Node 1, Type 0, BuildingBlock: BETDIP_clean_sbu_0, # of connection points: 6
#     Node 2, Type 0, BuildingBlock: BETDIP_clean_sbu_0, # of connection points: 6
#     Node 3, Type 0, BuildingBlock: BETDIP_clean_sbu_0, # of connection points: 6
#     Node 4, Type 0, BuildingBlock: BETDIP_clean_sbu_0, # of connection points: 6
#     Node 5, Type 0, BuildingBlock: BETDIP_clean_sbu_0, # of connection points: 6
#     Node 6, Type 0, BuildingBlock: BETDIP_clean_sbu_0, # of connection points: 6
#     Node 7, Type 0, BuildingBlock: BETDIP_clean_sbu_0, # of connection points: 6
#     Node 8, Type 0, BuildingBlock: BETDIP_clean_sbu_0, # of connection points: 6
#     Node 9, Type 0, BuildingBlock: BETDIP_clean_sbu_0, # of connection points: 6
#     Node 10, Type 0, BuildingBlock: BETDIP_clean_sbu_0, # of connection points: 6
#     Node 11, Type 0, BuildingBlock: BETDIP_clean_sbu_0, # of connection points: 6
#     Node 12, Type 0, BuildingBlock: BETDIP_clean_sbu_0, # of connection points: 6
#     Node 13, Type 0, BuildingBlock: BETDIP_clean_sbu_0, # of connection points: 6
#     Node 14, Type 0, BuildingBlock: BETDIP_clean_sbu_0, # of connection points: 6
#     Node 15, Type 0, BuildingBlock: BETDIP_clean_sbu_0, # of connection points: 6
#     Node 16, Type 0, BuildingBlock: BETDIP_clean_sbu_0, # of connection points: 6
#     Node 17, Type 0, BuildingBlock: BETDIP_clean_sbu_0, # of connection points: 6
#     Node 18, Type 0, BuildingBlock: BETDIP_clean_sbu_0, # of connection points: 6
#     Node 19, Type 0, BuildingBlock: BETDIP_clean_sbu_0, # of connection points: 6
#     Node 20, Type 0, BuildingBlock: BETDIP_clean_sbu_0, # of connection points: 6
#     Node 21, Type 0, BuildingBlock: BETDIP_clean_sbu_0, # of connection points: 6
#     Node 22, Type 0, BuildingBlock: BETDIP_clean_sbu_0, # of connection points: 6
#     Node 23, Type 0, BuildingBlock: BETDIP_clean_sbu_0, # of connection points: 6
#     Node 24, Type 0, BuildingBlock: BETDIP_clean_sbu_0, # of connection points: 6
#     Node 25, Type 0, BuildingBlock: BETDIP_clean_sbu_0, # of connection points: 6
#     Node 26, Type 0, BuildingBlock: BETDIP_clean_sbu_0, # of connection points: 6
#     Node 27, Type 0, BuildingBlock: BETDIP_clean_sbu_0, # of connection points: 6
#     Node 28, Type 0, BuildingBlock: BETDIP_clean_sbu_0, # of connection points: 6
#     Node 29, Type 0, BuildingBlock: BETDIP_clean_sbu_0, # of connection points: 6
#     Node 30, Type 0, BuildingBlock: BETDIP_clean_sbu_0, # of connection points: 6
#     Node 31, Type 0, BuildingBlock: BETDIP_clean_sbu_0, # of connection points: 6
#     Edge 32, Type (0, 0), BuildingBlock: AJUNOK_clean_linker_0, # of connection points: 2
#     Edge 33, Type (0, 0), BuildingBlock: AJUNOK_clean_linker_0, # of connection points: 2
#     Edge 34, Type (0, 0), BuildingBlock: AJUNOK_clean_linker_0, # of connection points: 2
#     Edge 35, Type (0, 0), BuildingBlock: AJUNOK_clean_linker_0, # of connection points: 2
#     Edge 36, Type (0, 0), BuildingBlock: AJUNOK_clean_linker_0, # of connection points: 2
#     Edge 37, Type (0, 0), BuildingBlock: AJUNOK_clean_linker_0, # of connection points: 2
#     Edge 38, Type (0, 0), BuildingBlock: AJUNOK_clean_linker_0, # of connection points: 2
#     Edge 39, Type (0, 0), BuildingBlock: AJUNOK_clean_linker_0, # of connection points: 2
#     Edge 40, Type (0, 0), BuildingBlock: AJUNOK_clean_linker_0, # of connection points: 2
#     Edge 41, Type (0, 0), BuildingBlock: AJUNOK_clean_linker_0, # of connection points: 2
#     Edge 42, Type (0, 0), BuildingBlock: AJUNOK_clean_linker_0, # of connection points: 2
#     Edge 43, Type (0, 0), BuildingBlock: AJUNOK_clean_linker_0, # of connection points: 2
#     Edge 44, Type (0, 0), BuildingBlock: AJUNOK_clean_linker_0, # of connection points: 2
#     Edge 45, Type (0, 0), BuildingBlock: AJUNOK_clean_linker_0, # of connection points: 2
#     Edge 46, Type (0, 0), BuildingBlock: AJUNOK_clean_linker_0, # of connection points: 2
#     Edge 47, Type (0, 0), BuildingBlock: AJUNOK_clean_linker_0, # of connection points: 2
#     Edge 48, Type (0, 0), BuildingBlock: AJUNOK_clean_linker_0, # of connection points: 2
#     Edge 49, Type (0, 0), BuildingBlock: AJUNOK_clean_linker_0, # of connection points: 2
#     Edge 50, Type (0, 0), BuildingBlock: AJUNOK_clean_linker_0, # of connection points: 2
#     Edge 51, Type (0, 0), BuildingBlock: AJUNOK_clean_linker_0, # of connection points: 2
#     Edge 52, Type (0, 0), BuildingBlock: AJUNOK_clean_linker_0, # of connection points: 2
#     Edge 53, Type (0, 0), BuildingBlock: AJUNOK_clean_linker_0, # of connection points: 2
#     Edge 54, Type (0, 0), BuildingBlock: AJUNOK_clean_linker_0, # of connection points: 2
#     Edge 55, Type (0, 0), BuildingBlock: AJUNOK_clean_linker_0, # of connection points: 2
#     Edge 56, Type (0, 0), BuildingBlock: AJUNOK_clean_linker_0, # of connection points: 2
#     Edge 57, Type (0, 0), BuildingBlock: AJUNOK_clean_linker_0, # of connection points: 2
#     Edge 58, Type (0, 0), BuildingBlock: AJUNOK_clean_linker_0, # of connection points: 2
#     Edge 59, Type (0, 0), BuildingBlock: AJUNOK_clean_linker_0, # of connection points: 2
#     Edge 60, Type (0, 0), BuildingBlock: AJUNOK_clean_linker_0, # of connection points: 2
#     Edge 61, Type (0, 0), BuildingBlock: AJUNOK_clean_linker_0, # of connection points: 2
#     Edge 62, Type (0, 0), BuildingBlock: AJUNOK_clean_linker_0, # of connection points: 2
#     Edge 63, Type (0, 0), BuildingBlock: AJUNOK_clean_linker_0, # of connection points: 2
#     Edge 64, Type (0, 0), BuildingBlock: AJUNOK_clean_linker_0, # of connection points: 2
#     Edge 65, Type (0, 0), BuildingBlock: AJUNOK_clean_linker_0, # of connection points: 2
#     Edge 66, Type (0, 0), BuildingBlock: AJUNOK_clean_linker_0, # of connection points: 2
#     Edge 67, Type (0, 0), BuildingBlock: AJUNOK_clean_linker_0, # of connection points: 2
#     Edge 68, Type (0, 0), BuildingBlock: AJUNOK_clean_linker_0, # of connection points: 2
#     Edge 69, Type (0, 0), BuildingBlock: AJUNOK_clean_linker_0, # of connection points: 2
#     Edge 70, Type (0, 0), BuildingBlock: AJUNOK_clean_linker_0, # of connection points: 2
#     Edge 71, Type (0, 0), BuildingBlock: AJUNOK_clean_linker_0, # of connection points: 2
#     Edge 72, Type (0, 0), BuildingBlock: AJUNOK_clean_linker_0, # of connection points: 2
#     Edge 73, Type (0, 0), BuildingBlock: AJUNOK_clean_linker_0, # of connection points: 2
#     Edge 74, Type (0, 0), BuildingBlock: AJUNOK_clean_linker_0, # of connection points: 2
#     Edge 75, Type (0, 0), BuildingBlock: AJUNOK_clean_linker_0, # of connection points: 2
#     Edge 76, Type (0, 0), BuildingBlock: AJUNOK_clean_linker_0, # of connection points: 2
#     Edge 77, Type (0, 0), BuildingBlock: AJUNOK_clean_linker_0, # of connection points: 2
#     Edge 78, Type (0, 0), BuildingBlock: AJUNOK_clean_linker_0, # of connection points: 2
#     Edge 79, Type (0, 0), BuildingBlock: AJUNOK_clean_linker_0, # of connection points: 2
#     Edge 80, Type (0, 0), BuildingBlock: AJUNOK_clean_linker_0, # of connection points: 2
#     Edge 81, Type (0, 0), BuildingBlock: AJUNOK_clean_linker_0, # of connection points: 2
#     Edge 82, Type (0, 0), BuildingBlock: AJUNOK_clean_linker_0, # of connection points: 2
#     Edge 83, Type (0, 0), BuildingBlock: AJUNOK_clean_linker_0, # of connection points: 2
#     Edge 84, Type (0, 0), BuildingBlock: AJUNOK_clean_linker_0, # of connection points: 2
#     Edge 85, Type (0, 0), BuildingBlock: AJUNOK_clean_linker_0, # of connection points: 2
#     Edge 86, Type (0, 0), BuildingBlock: AJUNOK_clean_linker_0, # of connection points: 2
#     Edge 87, Type (0, 0), BuildingBlock: AJUNOK_clean_linker_0, # of connection points: 2
#     Edge 88, Type (0, 0), BuildingBlock: AJUNOK_clean_linker_0, # of connection points: 2
#     Edge 89, Type (0, 0), BuildingBlock: AJUNOK_clean_linker_0, # of connection points: 2
#     Edge 90, Type (0, 0), BuildingBlock: AJUNOK_clean_linker_0, # of connection points: 2
#     Edge 91, Type (0, 0), BuildingBlock: AJUNOK_clean_linker_0, # of connection points: 2
#     Edge 92, Type (0, 0), BuildingBlock: AJUNOK_clean_linker_0, # of connection points: 2
#     Edge 93, Type (0, 0), BuildingBlock: AJUNOK_clean_linker_0, # of connection points: 2
#     Edge 94, Type (0, 0), BuildingBlock: AJUNOK_clean_linker_0, # of connection points: 2
#     Edge 95, Type (0, 0), BuildingBlock: AJUNOK_clean_linker_0, # of connection points: 2
#     Edge 96, Type (0, 0), BuildingBlock: AJUNOK_clean_linker_0, # of connection points: 2
#     Edge 97, Type (0, 0), BuildingBlock: AJUNOK_clean_linker_0, # of connection points: 2
#     Edge 98, Type (0, 0), BuildingBlock: AJUNOK_clean_linker_0, # of connection points: 2
#     Edge 99, Type (0, 0), BuildingBlock: AJUNOK_clean_linker_0, # of connection points: 2
#     Edge 100, Type (0, 0), BuildingBlock: AJUNOK_clean_linker_0, # of connection points: 2
#     Edge 101, Type (0, 0), BuildingBlock: AJUNOK_clean_linker_0, # of connection points: 2
#     Edge 102, Type (0, 0), BuildingBlock: AJUNOK_clean_linker_0, # of connection points: 2
#     Edge 103, Type (0, 0), BuildingBlock: AJUNOK_clean_linker_0, # of connection points: 2
#     Edge 104, Type (0, 0), BuildingBlock: AJUNOK_clean_linker_0, # of connection points: 2
#     Edge 105, Type (0, 0), BuildingBlock: AJUNOK_clean_linker_0, # of connection points: 2
#     Edge 106, Type (0, 0), BuildingBlock: AJUNOK_clean_linker_0, # of connection points: 2
#     Edge 107, Type (0, 0), BuildingBlock: AJUNOK_clean_linker_0, # of connection points: 2
#     Edge 108, Type (0, 0), BuildingBlock: AJUNOK_clean_linker_0, # of connection points: 2
#     Edge 109, Type (0, 0), BuildingBlock: AJUNOK_clean_linker_0, # of connection points: 2
#     Edge 110, Type (0, 0), BuildingBlock: AJUNOK_clean_linker_0, # of connection points: 2
#     Edge 111, Type (0, 0), BuildingBlock: AJUNOK_clean_linker_0, # of connection points: 2
#     Edge 112, Type (0, 0), BuildingBlock: AJUNOK_clean_linker_0, # of connection points: 2
#     Edge 113, Type (0, 0), BuildingBlock: AJUNOK_clean_linker_0, # of connection points: 2
#     Edge 114, Type (0, 0), BuildingBlock: AJUNOK_clean_linker_0, # of connection points: 2
#     Edge 115, Type (0, 0), BuildingBlock: AJUNOK_clean_linker_0, # of connection points: 2
#     Edge 116, Type (0, 0), BuildingBlock: AJUNOK_clean_linker_0, # of connection points: 2
#     Edge 117, Type (0, 0), BuildingBlock: AJUNOK_clean_linker_0, # of connection points: 2
#     Edge 118, Type (0, 0), BuildingBlock: AJUNOK_clean_linker_0, # of connection points: 2
#     Edge 119, Type (0, 0), BuildingBlock: AJUNOK_clean_linker_0, # of connection points: 2
#     Edge 120, Type (0, 0), BuildingBlock: AJUNOK_clean_linker_0, # of connection points: 2
#     Edge 121, Type (0, 0), BuildingBlock: AJUNOK_clean_linker_0, # of connection points: 2
#     Edge 122, Type (0, 0), BuildingBlock: AJUNOK_clean_linker_0, # of connection points: 2
#     Edge 123, Type (0, 0), BuildingBlock: AJUNOK_clean_linker_0, # of connection points: 2
#     Edge 124, Type (0, 0), BuildingBlock: AJUNOK_clean_linker_0, # of connection points: 2
#     Edge 125, Type (0, 0), BuildingBlock: AJUNOK_clean_linker_0, # of connection points: 2
#     Edge 126, Type (0, 0), BuildingBlock: AJUNOK_clean_linker_0, # of connection points: 2
#     Edge 127, Type (0, 0), BuildingBlock: AJUNOK_clean_linker_0, # of connection points: 2
# Relax obj value: 0.064
# Max RMSD: 0.136
# Mean RMSD: 0.136
data_MOF--net-som--node1-BETDIP_clean_sbu_0--edge1-AJUNOK_clean_linker_0
_symmetry_space_group_name_H-M    P1
_symmetry_Int_Tables_number       1
_symmetry_cell_setting            triclinic
loop_
_symmetry_equiv_pos_as_xyz
'x, y, z'
_cell_length_a     21.261567
_cell_length_b     39.436374
_cell_length_c     76.963026
_cell_angle_alpha  89.941538
_cell_angle_beta   89.9051
_cell_angle_gamma 89.912249
loop_
_atom_site_label
_atom_site_type_symbol
_atom_site_fract_x
_atom_site_fract_y
_atom_site_fract_z
_atom_type_partial_charge
Tb0 Tb 0.99093 0.50728 0.10859 0.0
Tb1 Tb 0.11886 0.4689 0.1065 0.0
C2 C 0.88002 0.52921 0.10612 0.0
C3 C 0.81525 0.51584 0.10583 0.0
C4 C 0.76911 0.53309 0.09628 0.0
C5 C 0.70645 0.52234 0.09671 0.0
C6 C 0.68866 0.49418 0.1068 0.0
C7 C 0.73535 0.47633 0.11599 0.0
C8 C 0.79808 0.4871 0.11553 0.0
C9 C 0.06141 0.50411 0.13709 0.0
C10 C 0.99153 0.42704 0.10957 0.0
C11 C 0.22308 0.44645 0.11694 0.0
C12 C 0.2907 0.44981 0.11326 0.0
C13 C 0.33324 0.42844 0.12186 0.0
C14 C 0.39806 0.43368 0.1203 0.0
C15 C 0.42145 0.46059 0.11019 0.0
C16 C 0.37865 0.48121 0.10106 0.0
C17 C 0.31373 0.47594 0.10263 0.0
C18 C 0.07792 0.47996 0.07455 0.0
C19 C 0.10791 0.54964 0.10015 0.0
O20 O 0.91556 0.52232 0.09265 0.0
O21 O 0.91047 0.52641 0.12083 0.0
O22 O 0.05247 0.48109 0.12604 0.0
O23 O 1.02894 0.5305 0.13246 0.0
O24 O 0.9589 0.45538 0.10838 0.0
O25 O 0.05405 0.42619 0.11029 0.0
O26 O 0.19584 0.47374 0.12306 0.0
O27 O 0.18835 0.43084 0.10537 0.0
O28 O 0.05166 0.48831 0.08871 0.0
O29 O 0.12981 0.46431 0.07833 0.0
O30 O 0.14371 0.52344 0.10499 0.0
O31 O 0.04681 0.54703 0.09806 0.0
H32 H 0.78137 0.55533 0.08872 0.0
H33 H 0.67155 0.53663 0.08952 0.0
H34 H 0.7233 0.45414 0.1236 0.0
H35 H 0.83294 0.47332 0.12297 0.0
H36 H 0.31627 0.4082 0.13016 0.0
H37 H 0.42988 0.41696 0.12719 0.0
H38 H 0.39532 0.50215 0.09319 0.0
H39 H 0.28151 0.49284 0.09598 0.0
Tb40 Tb 0.3377 0.72408 0.10659 0.0
Tb41 Tb 0.21186 0.76479 0.10557 0.0
C42 C 0.44888 0.70214 0.10471 0.0
C43 C 0.51455 0.71503 0.10464 0.0
C44 C 0.54334 0.7272 0.08937 0.0
C45 C 0.60721 0.73619 0.08931 0.0
C46 C 0.64365 0.73283 0.10445 0.0
C47 C 0.61426 0.72175 0.1198 0.0
C48 C 0.55074 0.71277 0.11986 0.0
C49 C 0.26927 0.72769 0.13558 0.0
C50 C 0.34117 0.80436 0.10844 0.0
C51 C 0.10712 0.78615 0.11623 0.0
C52 C 0.03933 0.78073 0.11305 0.0
C53 C 1.00078 0.77286 0.12731 0.0
C54 C 0.93723 0.76536 0.12495 0.0
C55 C 0.9106 0.76573 0.10827 0.0
C56 C 0.94859 0.77455 0.09399 0.0
C57 C 1.01272 0.78176 0.09634 0.0
C58 C 0.25053 0.75371 0.07329 0.0
C59 C 0.21896 0.6839 0.0987 0.0
O60 O 0.41359 0.70793 0.09106 0.0
O61 O 0.41757 0.70544 0.11927 0.0
O62 O 0.27887 0.75086 0.12462 0.0
O63 O 0.2994 0.70086 0.13048 0.0
O64 O 0.37074 0.77565 0.1053 0.0
O65 O 0.27896 0.80617 0.1104 0.0
O66 O 0.13661 0.76 0.1228 0.0
O67 O 0.1407 0.80199 0.1044 0.0
O68 O 0.27685 0.74485 0.08733 0.0
O69 O 0.19981 0.77007 0.07745 0.0
O70 O 0.18553 0.71052 0.10416 0.0
O71 O 0.27996 0.68532 0.09587 0.0
H72 H 0.51699 0.72912 0.07738 0.0
H73 H 0.62858 0.74477 0.0773 0.0
H74 H 0.64069 0.71966 0.13178 0.0
H75 H 0.53023 0.70338 0.13183 0.0
H76 H 1.02022 0.77196 0.14032 0.0
H77 H 0.90881 0.75905 0.1362 0.0
H78 H 0.92906 0.77498 0.081 0.0
H79 H 0.04149 0.78759 0.0851 0.0
Tb80 Tb 0.99463 0.72602 0.21638 0.0
Tb81 Tb 0.12085 0.7633 0.22084 0.0
C82 C 0.88349 0.70501 0.21328 0.0
C83 C 0.81774 0.71367 0.21733 0.0
C84 C 0.80105 0.73457 0.23138 0.0
C85 C 0.73759 0.74245 0.23449 0.0
C86 C 0.69029 0.72909 0.22375 0.0
C87 C 0.70745 0.70813 0.20979 0.0
C88 C 0.77053 0.70056 0.20661 0.0
C89 C 0.07208 0.72861 0.18911 0.0
C90 C 0.99564 0.80549 0.2193 0.0
C91 C 0.22933 0.78333 0.21264 0.0
C92 C 0.29582 0.77528 0.21689 0.0
C93 C 0.32772 0.75014 0.20735 0.0
C94 C 0.39075 0.74284 0.21064 0.0
C95 C 0.42393 0.76049 0.22353 0.0
C96 C 0.39278 0.78616 0.23288 0.0
C97 C 0.3292 0.79347 0.22961 0.0
C98 C 0.07246 0.75316 0.25212 0.0
C99 C 0.10624 0.68261 0.22739 0.0
O100 O 0.92037 0.69673 0.22624 0.0
O101 O 0.91163 0.72418 0.20176 0.0
O102 O 0.06032 0.75185 0.19983 0.0
O103 O 0.03956 0.70231 0.19353 0.0
O104 O 0.9655 0.777 0.22257 0.0
O105 O 0.05692 0.80604 0.21578 0.0
O106 O 0.19855 0.7594 0.20456 0.0
O107 O 0.19447 0.79856 0.22439 0.0
O108 O 0.04898 0.74467 0.23762 0.0
O109 O 0.12555 0.76813 0.24906 0.0
O110 O 0.14349 0.70843 0.22289 0.0
O111 O 0.0449 0.68582 0.22848 0.0
H112 H 0.83692 0.74469 0.23988 0.0
H113 H 0.72534 0.75862 0.24535 0.0
H114 H 0.67197 0.69789 0.20118 0.0
H115 H 0.78251 0.68445 0.19568 0.0
H116 H 0.30422 0.73622 0.19712 0.0
H117 H 0.41396 0.72371 0.20283 0.0
H118 H 0.41751 0.80043 0.24275 0.0
H119 H 0.30639 0.81346 0.23693 0.0
Tb120 Tb 0.33076 0.50621 0.21858 0.0
Tb121 Tb 0.2041 0.46627 0.22047 0.0
C122 C 0.4421 0.52753 0.22092 0.0
C123 C 0.50719 0.51381 0.22136 0.0
C124 C 0.54459 0.51886 0.23617 0.0
C125 C 0.60737 0.50801 0.23647 0.0
C126 C 0.63411 0.49177 0.22198 0.0
C127 C 0.59672 0.48667 0.20717 0.0
C128 C 0.53402 0.49759 0.20684 0.0
C129 C 0.25946 0.50379 0.19021 0.0
C130 C 0.33262 0.42602 0.21576 0.0
C131 C 0.09962 0.4442 0.21007 0.0
C132 C 1.03189 0.44686 0.21389 0.0
C133 C 0.98891 0.43595 0.20131 0.0
C134 C 0.92434 0.44097 0.20366 0.0
C135 C 0.90125 0.45684 0.21874 0.0
C136 C 0.94463 0.46742 0.23147 0.0
C137 C 1.00945 0.46253 0.22905 0.0
C138 C 0.24603 0.47623 0.25246 0.0
C139 C 0.21249 0.54706 0.2274 0.0
O140 O 0.4062 0.52142 0.23442 0.0
O141 O 0.41132 0.52501 0.20624 0.0
O142 O 0.26946 0.48038 0.201 0.0
O143 O 0.29156 0.53015 0.19499 0.0
O144 O 0.36382 0.45447 0.21817 0.0
O145 O 0.27012 0.42456 0.2151 0.0
O146 O 0.12589 0.47204 0.20434 0.0
O147 O 0.13525 0.42801 0.22128 0.0
O148 O 0.27128 0.48544 0.23829 0.0
O149 O 0.19489 0.46002 0.24863 0.0
O150 O 0.17778 0.52056 0.22251 0.0
O151 O 0.27389 0.54541 0.22931 0.0
H152 H 0.52547 0.53165 0.24746 0.0
H153 H 0.63514 0.51239 0.24804 0.0
H154 H 0.61645 0.47493 0.19566 0.0
H155 H 0.50697 0.49371 0.1951 0.0
H156 H 1.00547 0.42436 0.18937 0.0
H157 H 0.8927 0.43344 0.19335 0.0
H158 H 0.92844 0.4798 0.24321 0.0
H159 H 0.04204 0.47155 0.23881 0.0
Tb160 Tb 0.96372 0.51175 0.97182 0.0
Tb161 Tb 0.08364 0.47256 0.96885 0.0
C162 C 0.85366 0.53497 0.9682 0.0
C163 C 0.78756 0.52364 0.96685 0.0
C164 C 0.74743 0.53998 0.95504 0.0
C165 C 0.68318 0.53231 0.95463 0.0
C166 C 0.65763 0.50821 0.96611 0.0
C167 C 0.69833 0.49098 0.97753 0.0
C168 C 0.76265 0.49868 0.97793 0.0
C169 C 1.0265 0.50797 1.00137 0.0
C170 C 0.9664 0.4305 0.97594 0.0
C171 C 0.19344 0.44855 0.97099 0.0
C172 C 0.2596 0.46001 0.97047 0.0
C173 C 0.30382 0.44392 0.98118 0.0
C174 C 0.3674 0.45292 0.98042 0.0
C175 C 0.38823 0.47828 0.96891 0.0
C176 C 0.34365 0.49463 0.95827 0.0
C177 C 0.27991 0.48563 0.95906 0.0
C178 C 1.01259 0.47503 0.94042 0.0
C179 C 0.08806 0.55264 0.96664 0.0
O180 O 0.89105 0.52806 0.95518 0.0
O181 O 0.88143 0.53086 0.98319 0.0
O182 O 1.02132 0.48462 0.99014 0.0
O183 O 0.99494 0.53412 0.99608 0.0
O184 O 0.93369 0.45801 0.97159 0.0
O185 O 1.02742 0.43183 0.97856 0.0
O186 O 0.16007 0.45781 0.98448 0.0
O187 O 0.16148 0.45047 0.95651 0.0
O188 O 1.02345 0.49888 0.9509 0.0
O189 O 0.04503 0.44888 0.9453 0.0
O190 O 0.11854 0.52412 0.96952 0.0
O191 O 1.02602 0.55367 0.96503 0.0
H192 H 0.76561 0.55925 0.94634 0.0
H193 H 0.65339 0.54543 0.9454 0.0
H194 H 0.68011 0.47222 0.9865 0.0
H195 H 0.79252 0.48568 0.98719 0.0
H196 H 0.28924 0.42404 0.99004 0.0
H197 H 0.40036 0.44 0.98887 0.0
H198 H 0.35822 0.51382 0.94904 0.0
H199 H 0.24673 0.49832 0.95059 0.0
Tb200 Tb 0.86849 0.21522 0.96911 0.0
Tb201 Tb 0.74199 0.25343 0.96561 0.0
C202 C 0.97549 0.1942 0.96007 0.0
C203 C 0.04256 0.20145 0.96374 0.0
C204 C 0.07841 0.21796 0.95093 0.0
C205 C 0.14128 0.2261 0.9539 0.0
C206 C 0.17023 0.21763 0.9697 0.0
C207 C 0.13529 0.20015 0.98238 0.0
C208 C 0.07175 0.19226 0.97947 0.0
C209 C 0.82385 0.22641 1.00073 0.0
C210 C 0.85568 0.29614 0.97499 0.0
C211 C 0.63087 0.2749 0.9629 0.0
C212 C 0.56453 0.26598 0.96614 0.0
C213 C 0.54439 0.24913 0.98126 0.0
C214 C 0.48035 0.24176 0.9837 0.0
C215 C 0.43576 0.25134 0.97112 0.0
C216 C 0.45651 0.2678 0.95597 0.0
C217 C 0.52008 0.27511 0.95355 0.0
C218 C 0.81686 0.25021 0.93784 0.0
C219 C 0.74175 0.17404 0.96823 0.0
O220 O 0.94505 0.21874 0.95231 0.0
O221 O 0.94123 0.1792 0.97204 0.0
O222 O 0.79897 0.23461 0.98635 0.0
O223 O 0.87644 0.21111 0.99736 0.0
O224 O 0.89209 0.27 0.9704 0.0
O225 O 0.79459 0.29326 0.97708 0.0
O226 O 0.6671 0.28141 0.97626 0.0
O227 O 0.65973 0.25744 0.95083 0.0
O228 O 0.80555 0.22708 0.94868 0.0
O229 O 0.78553 0.27682 0.94249 0.0
O230 O 0.71266 0.20266 0.97185 0.0
O231 O 0.80291 0.17304 0.96449 0.0
H232 H 0.05758 0.22483 0.93856 0.0
H233 H 0.16752 0.23894 0.94377 0.0
H234 H 0.15681 0.19316 0.99462 0.0
H235 H 0.04557 0.17922 0.98953 0.0
H236 H 0.57797 0.2416 0.99109 0.0
H237 H 0.46558 0.22886 0.99545 0.0
H238 H 0.42348 0.27483 0.94588 0.0
H239 H 0.53462 0.28797 0.94176 0.0
Tb240 Tb 0.96106 0.21607 0.85379 0.0
Tb241 Tb 0.08876 0.25403 0.85675 0.0
C242 C 0.85531 0.19341 0.86272 0.0
C243 C 0.78883 0.19664 0.85757 0.0
C244 C 0.74539 0.17238 0.86331 0.0
C245 C 0.68101 0.17691 0.86032 0.0
C246 C 0.6588 0.20589 0.85156 0.0
C247 C 0.70279 0.2297 0.84539 0.0
C248 C 0.76725 0.22503 0.8483 0.0
C249 C 1.00587 0.22675 0.82209 0.0
C250 C 0.97338 0.29713 0.84824 0.0
C251 C 0.20159 0.27296 0.85762 0.0
C252 C 0.26466 0.2594 0.85336 0.0
C253 C 0.30923 0.2807 0.8455 0.0
C254 C 0.37156 0.26992 0.84336 0.0
C255 C 0.3905 0.23759 0.84906 0.0
C256 C 0.34522 0.2158 0.85633 0.0
C257 C 0.28287 0.22653 0.85841 0.0
C258 C 1.01543 0.2505 0.88486 0.0
C259 C 0.08765 0.1746 0.85555 0.0
O260 O 0.88081 0.22082 0.86924 0.0
O261 O 0.89315 0.17744 0.85198 0.0
O262 O 1.03053 0.23482 0.83646 0.0
O263 O 0.95295 0.21189 0.82549 0.0
O264 O 0.93743 0.27075 0.85268 0.0
O265 O 1.03489 0.29499 0.84646 0.0
O266 O 0.16374 0.27983 0.84464 0.0
O267 O 0.17237 0.25867 0.87072 0.0
O268 O 1.02558 0.22775 0.87379 0.0
O269 O 0.04809 0.27686 0.88048 0.0
O270 O 0.11729 0.20263 0.85117 0.0
O271 O 1.02665 0.1744 0.8594 0.0
H272 H 0.76111 0.15036 0.87054 0.0
H273 H 0.64842 0.15802 0.86515 0.0
H274 H 0.6873 0.25263 0.83891 0.0
H275 H 0.80008 0.24411 0.84383 0.0
H276 H 0.29637 0.30618 0.8416 0.0
H277 H 0.40554 0.28746 0.83796 0.0
H278 H 0.3584 0.1907 0.86076 0.0
H279 H 0.24951 0.20951 0.86449 0.0
Tb280 Tb 0.8766 0.51287 0.85629 0.0
Tb281 Tb 0.7488 0.4743 0.85727 0.0
C282 C 0.98138 0.53506 0.8663 0.0
C283 C 0.04808 0.5318 0.86132 0.0
C284 C 0.09293 0.55283 0.86916 0.0
C285 C 0.15718 0.54782 0.86603 0.0
C286 C 0.17777 0.52168 0.85495 0.0
C287 C 0.13242 0.50121 0.84676 0.0
C288 C 0.06815 0.50625 0.8499 0.0
C289 C 0.83621 0.50364 0.82402 0.0
C290 C 0.86575 0.43243 0.84861 0.0
C291 C 0.63686 0.45387 0.85584 0.0
C292 C 0.57289 0.46779 0.85318 0.0
C293 C 0.52987 0.44971 0.84298 0.0
C294 C 0.46708 0.46022 0.84181 0.0
C295 C 0.44592 0.48909 0.85084 0.0
C296 C 0.48959 0.50774 0.86067 0.0
C297 C 0.55244 0.49726 0.8618 0.0
C298 C 0.81887 0.47514 0.88601 0.0
C299 C 0.74873 0.55407 0.85832 0.0
O300 O 0.95519 0.50734 0.87229 0.0
O301 O 0.9445 0.55161 0.85556 0.0
O302 O 0.80988 0.49507 0.8381 0.0
O303 O 0.88834 0.51857 0.82812 0.0
O304 O 0.90084 0.45819 0.85435 0.0
O305 O 0.80483 0.4353 0.84601 0.0
O306 O 0.67502 0.45358 0.84243 0.0
O307 O 0.66531 0.46254 0.87025 0.0
O308 O 0.80987 0.4991 0.87548 0.0
O309 O 0.7866 0.44929 0.88071 0.0
O310 O 0.71873 0.52604 0.85424 0.0
O311 O 0.81015 0.55447 0.86169 0.0
H312 H 0.07834 0.5725 0.87813 0.0
H313 H 0.19078 0.56358 0.87281 0.0
H314 H 0.14676 0.48094 0.83812 0.0
H315 H 1.03421 0.48967 0.84376 0.0
H316 H 0.54445 0.42686 0.83627 0.0
H317 H 0.43475 0.44541 0.83406 0.0
H318 H 0.47474 0.5297 0.86806 0.0
H319 H 0.58451 0.51165 0.86984 0.0
Tb320 Tb 0.99658 0.00903 0.60733 0.0
Tb321 Tb 0.11611 0.97148 0.60288 0.0
C322 C 0.88663 0.03314 0.60735 0.0
C323 C 0.82025 0.02219 0.6072 0.0
C324 C 0.79892 -0.0041 0.5964 0.0
C325 C 0.73484 0.98763 0.5959 0.0
C326 C 0.69113 0.00546 0.6062 0.0
C327 C 0.71301 0.03113 0.61728 0.0
C328 C 0.77687 0.03946 0.61772 0.0
C329 C 0.06928 0.00434 0.63538 0.0
C330 C 0.99335 0.92935 0.60806 0.0
C331 C 0.22656 0.94819 0.60508 0.0
C332 C 0.29288 0.95935 0.60453 0.0
C333 C 0.31571 0.98536 0.61529 0.0
C334 C 0.37977 -0.00628 0.61514 0.0
C335 C 0.42199 0.97641 0.60417 0.0
C336 C 0.39882 0.95059 0.59338 0.0
C337 C 0.33499 0.94217 0.59357 0.0
C338 C 0.05093 0.97695 0.57374 0.0
C339 C 0.11108 0.05293 0.60039 0.0
O340 O 0.91987 0.02806 0.59325 0.0
O341 O 0.9185 0.02664 0.62147 0.0
O342 O 0.05789 0.98144 0.62446 0.0
O343 O 1.03789 0.03114 0.631 0.0
O344 O 0.96299 0.95755 0.6044 0.0
O345 O 0.05513 0.92925 0.61039 0.0
O346 O 0.19265 0.95736 0.61845 0.0
O347 O 0.19504 0.95001 0.59057 0.0
O348 O 0.05724 -0.00038 0.58527 0.0
O349 O 0.08177 0.95032 0.57869 0.0
O350 O 0.14601 0.02554 0.60345 0.0
O351 O 0.05001 0.05102 0.59828 0.0
H352 H 0.83155 0.98201 0.58825 0.0
H353 H 0.71946 0.96729 0.58748 0.0
H354 H 0.68046 0.04531 0.62533 0.0
H355 H 0.79231 0.05982 0.62613 0.0
H356 H 0.28434 -0.00104 0.62394 0.0
H357 H 0.39635 0.01375 0.62359 0.0
H358 H 0.43033 0.93632 0.58506 0.0
H359 H 0.31861 0.92177 0.58532 0.0
Tb360 Tb 0.33222 0.22974 0.60577 0.0
Tb361 Tb 0.20544 0.26946 0.60325 0.0
C362 C 0.44325 0.20743 0.60646 0.0
C363 C 0.50854 0.21797 0.60295 0.0
C364 C 0.52296 0.24716 0.59328 0.0
C365 C 0.58572 0.25769 0.59141 0.0
C366 C 0.63485 0.23896 0.5991 0.0
C367 C 0.61992 0.20937 0.60842 0.0
C368 C 0.55748 0.1991 0.61037 0.0
C369 C 0.25817 0.23085 0.63375 0.0
C370 C 0.33303 0.30971 0.60593 0.0
C371 C 0.09852 0.29125 0.61196 0.0
C372 C 1.03148 0.28432 0.60774 0.0
C373 C 1.00209 0.25453 0.61371 0.0
C374 C 0.93817 0.24891 0.61074 0.0
C375 C 0.9015 0.27295 0.60182 0.0
C376 C 0.93077 0.30267 0.59571 0.0
C377 C 0.99505 0.30834 0.5987 0.0
C378 C 0.25054 0.25891 0.57141 0.0
C379 C 0.2146 0.18854 0.59744 0.0
O380 O 0.40544 0.2036 0.59315 0.0
O381 O 0.41573 0.22236 0.61962 0.0
O382 O 0.2685 0.25492 0.62331 0.0
O383 O 0.29171 0.20517 0.62888 0.0
O384 O 0.36268 0.28143 0.6018 0.0
O385 O 0.27148 0.31059 0.60906 0.0
O386 O 0.12874 0.26703 0.62007 0.0
O387 O 0.13354 0.30599 0.60009 0.0
O388 O 0.27445 0.25038 0.58582 0.0
O389 O 0.19794 0.27411 0.57486 0.0
O390 O 0.18025 0.21532 0.60213 0.0
O391 O 0.27587 0.1902 0.59493 0.0
H392 H 0.48578 0.26184 0.58731 0.0
H393 H 0.59585 0.28033 0.58395 0.0
H394 H 0.65659 0.19454 0.61458 0.0
H395 H 0.54729 0.17658 0.61795 0.0
H396 H 1.02809 0.23566 0.62098 0.0
H397 H 0.91705 0.22593 0.61579 0.0
H398 H 0.90406 0.3215 0.5886 0.0
H399 H 1.01613 0.33167 0.59409 0.0
Tb400 Tb 0.9965 0.22544 0.71749 0.0
Tb401 Tb 0.12357 0.26483 0.71838 0.0
C402 C 0.88488 0.20437 0.71952 0.0
C403 C 0.81986 0.21822 0.72064 0.0
C404 C 0.78966 0.2224 0.73679 0.0
C405 C 0.72667 0.23295 0.73763 0.0
C406 C 0.69251 0.23941 0.72234 0.0
C407 C 0.7229 0.23562 0.70625 0.0
C408 C 0.7856 0.22501 0.70539 0.0
C409 C 0.06534 0.2277 0.68853 0.0
C410 C 0.99482 0.30553 0.71582 0.0
C411 C 0.22797 0.28675 0.70785 0.0
C412 C 0.29551 0.28316 0.71184 0.0
C413 C 0.33865 0.28356 0.69805 0.0
C414 C 0.40269 0.27823 0.70108 0.0
C415 C 0.42518 0.27235 0.71799 0.0
C416 C 0.38189 0.2726 0.73189 0.0
C417 C 0.31751 0.27778 0.72882 0.0
C418 C 0.08437 0.2543 0.75066 0.0
C419 C 0.11457 0.18405 0.72562 0.0
O420 O 0.92176 0.2079 0.73305 0.0
O421 O 0.91495 0.20918 0.70487 0.0
O422 O 0.05649 0.25126 0.6993 0.0
O423 O 1.03378 0.20145 0.69373 0.0
O424 O 0.96462 0.27715 0.71915 0.0
O425 O 0.05697 0.30676 0.71363 0.0
O426 O 0.20087 0.25945 0.70177 0.0
O427 O 0.1924 0.30299 0.71907 0.0
O428 O 0.05786 0.2459 0.73661 0.0
O429 O 0.136 0.26978 0.74654 0.0
O430 O 0.14887 0.21022 0.71997 0.0
O431 O 0.05364 0.18645 0.7284 0.0
H432 H 0.81437 0.21704 0.74878 0.0
H433 H 0.70459 0.23593 0.75023 0.0
H434 H 0.69766 0.24017 0.69425 0.0
H435 H 0.80687 0.22164 0.69271 0.0
H436 H 0.32257 0.28742 0.68484 0.0
H437 H 0.43452 0.27792 0.69007 0.0
H438 H 0.39775 0.26877 0.7451 0.0
H439 H 0.28497 0.27724 0.73967 0.0
Tb440 Tb 0.34212 0.00673 0.71594 0.0
Tb441 Tb 0.21469 0.9685 0.71932 0.0
C442 C 0.45335 0.02868 0.71561 0.0
C443 C 0.51798 0.01798 0.71988 0.0
C444 C 0.53347 0.98382 0.72278 0.0
C445 C 0.59642 0.9741 0.72504 0.0
C446 C 0.64474 -0.00154 0.72464 0.0
C447 C 0.62863 0.03272 0.72217 0.0
C448 C 0.56589 0.04234 0.71981 0.0
C449 C 0.26855 0.00342 0.688 0.0
C450 C 0.34134 0.92676 0.71717 0.0
C451 C 0.10773 0.94687 0.71092 0.0
C452 C 0.04153 0.9534 0.71592 0.0
C453 C 1.01843 0.98669 0.71747 0.0
C454 C 0.95459 -0.00735 0.72062 0.0
C455 C 0.9123 0.96548 0.72247 0.0
C456 C 0.93571 0.93215 0.72124 0.0
C457 C 0.9997 0.92619 0.718 0.0
C458 C 0.25989 0.97917 0.75089 0.0
C459 C 0.2255 0.04941 0.7248 0.0
O460 O 0.41435 0.03342 0.72859 0.0
O461 O 0.42683 0.01317 0.70248 0.0
O462 O 0.27848 0.98051 0.69905 0.0
O463 O 0.30165 0.02963 0.69228 0.0
O464 O 0.37271 0.95505 0.71991 0.0
O465 O 0.27939 0.92601 0.71478 0.0
O466 O 0.13667 0.97184 0.70304 0.0
O467 O 0.14376 0.93157 0.72234 0.0
O468 O 0.28457 0.98755 0.7365 0.0
O469 O 0.2069 0.96444 0.74754 0.0
O470 O 0.18973 0.02287 0.7207 0.0
O471 O 0.28715 0.04756 0.72614 0.0
H472 H 0.4972 0.96464 0.72295 0.0
H473 H 0.60743 0.94753 0.72694 0.0
H474 H 0.66479 0.05199 0.72144 0.0
H475 H 0.55494 0.0688 0.71747 0.0
H476 H 0.04935 0.00823 0.71576 0.0
H477 H 0.93804 0.01862 0.72102 0.0
H478 H 0.90438 0.91067 0.72261 0.0
H479 H 1.01629 0.90032 0.71676 0.0
Tb480 Tb 0.96504 0.01482 0.47082 0.0
Tb481 Tb 0.0843 0.97655 0.46554 0.0
C482 C 0.85457 0.038 0.46838 0.0
C483 C 0.78874 0.02626 0.46749 0.0
C484 C 0.74541 0.04502 0.45768 0.0
C485 C 0.68187 0.03593 0.45738 0.0
C486 C 0.66031 0.00775 0.46686 0.0
C487 C 0.70403 0.98862 0.4765 0.0
C488 C 0.76772 -0.00221 0.47682 0.0
C489 C 1.03181 0.00858 0.49963 0.0
C490 C 0.96978 0.93307 0.47373 0.0
C491 C 0.19412 0.95227 0.46495 0.0
C492 C 0.26077 0.9626 0.46637 0.0
C493 C 0.30226 0.94211 0.4759 0.0
C494 C 0.36658 0.94947 0.47641 0.0
C495 C 0.39099 0.97738 0.46724 0.0
C496 C 0.34902 -0.00147 0.45811 0.0
C497 C 0.28451 -0.0088 0.45765 0.0
C498 C 1.00757 0.98081 0.43825 0.0
C499 C 0.0885 0.05628 0.46571 0.0
O500 O 0.89037 0.03134 0.45499 0.0
O501 O 0.88412 0.03365 0.48309 0.0
O502 O 1.02527 0.98647 0.48785 0.0
O503 O 1.00016 0.03534 0.49517 0.0
O504 O 0.93543 0.96075 0.4707 0.0
O505 O 1.03133 0.93443 0.47474 0.0
O506 O 0.15981 0.95428 0.47905 0.0
O507 O 0.16338 0.96197 0.45108 0.0
O508 O 1.02088 0.00388 0.4489 0.0
O509 O 0.04008 0.9542 0.44235 0.0
O510 O 0.11851 0.02778 0.46895 0.0
O511 O 1.0266 0.05696 0.46373 0.0
H512 H 0.76063 0.06709 0.45041 0.0
H513 H 0.64946 0.05103 0.44975 0.0
H514 H 0.68876 0.96707 0.48415 0.0
H515 H 0.80025 0.98302 0.48457 0.0
H516 H 0.28497 0.92001 0.48278 0.0
H517 H 0.39726 0.93323 0.48396 0.0
H518 H 0.36629 0.02029 0.45096 0.0
H519 H 0.25351 0.00753 0.45024 0.0
Tb520 Tb 0.8795 0.71639 0.47005 0.0
Tb521 Tb 0.75329 0.75511 0.46583 0.0
C522 C 0.98593 0.69351 0.46157 0.0
C523 C 0.05355 0.70111 0.46424 0.0
C524 C 0.08143 0.72928 0.45602 0.0
C525 C 0.14629 0.73433 0.4568 0.0
C526 C 0.18496 0.71145 0.4658 0.0
C527 C 0.15729 0.68391 0.47452 0.0
C528 C 0.09213 0.67862 0.47361 0.0
C529 C 0.83131 0.72721 0.50134 0.0
C530 C 0.8665 0.79716 0.47593 0.0
C531 C 0.64315 0.77773 0.46266 0.0
C532 C 0.57741 0.76679 0.46458 0.0
C533 C 0.55995 0.73993 0.47555 0.0
C534 C 0.4973 0.7288 0.47601 0.0
C535 C 0.45153 0.74433 0.46544 0.0
C536 C 0.46926 0.77182 0.45489 0.0
C537 C 0.53158 0.78279 0.45441 0.0
C538 C 0.8318 0.75251 0.43887 0.0
C539 C 0.75212 0.67553 0.46742 0.0
O540 O 0.9542 0.71585 0.45261 0.0
O541 O 0.95324 0.68144 0.47466 0.0
O542 O 0.80808 0.73552 0.48677 0.0
O543 O 0.88446 0.71218 0.49834 0.0
O544 O 0.90345 0.77122 0.47129 0.0
O545 O 0.80562 0.79384 0.47827 0.0
O546 O 0.67677 0.78125 0.47681 0.0
O547 O 0.67455 0.76313 0.45008 0.0
O548 O 0.81854 0.72906 0.44933 0.0
O549 O 0.80042 0.77919 0.44342 0.0
O550 O 0.72174 0.70408 0.47039 0.0
O551 O 0.81409 0.67444 0.465 0.0
H552 H 0.05349 0.74712 0.44859 0.0
H553 H 0.16644 0.75601 0.45018 0.0
H554 H 0.18629 0.66594 0.48154 0.0
H555 H 0.07212 0.6565 0.47988 0.0
H556 H 0.59474 0.72739 0.48357 0.0
H557 H 0.48488 0.70768 0.48434 0.0
H558 H 0.43483 0.78491 0.44697 0.0
H559 H 0.54417 0.80364 0.4459 0.0
Tb560 Tb 0.95917 0.71497 0.35641 0.0
Tb561 Tb 0.08951 0.75261 0.35541 0.0
C562 C 0.85598 0.69422 0.36839 0.0
C563 C 0.78816 0.69716 0.36509 0.0
C564 C 0.74597 0.68334 0.37717 0.0
C565 C 0.6814 0.68934 0.37564 0.0
C566 C 0.65798 0.70945 0.36201 0.0
C567 C 0.70029 0.72237 0.34958 0.0
C568 C 0.76502 0.71643 0.35116 0.0
C569 C 0.99335 0.72634 0.32364 0.0
C570 C 0.97145 0.79508 0.35033 0.0
C571 C 0.19884 0.77313 0.34856 0.0
C572 C 0.26469 0.76285 0.35134 0.0
C573 C 0.30989 0.77179 0.3389 0.0
C574 C 0.37285 0.76258 0.34112 0.0
C575 C 0.39192 0.74418 0.35587 0.0
C576 C 0.34633 0.73509 0.36831 0.0
C577 C 0.28324 0.74444 0.36609 0.0
C578 C 1.02902 0.74965 0.38576 0.0
C579 C 0.08705 0.67288 0.36037 0.0
O580 O 0.88323 0.72246 0.37311 0.0
O581 O 0.88994 0.67687 0.35722 0.0
O582 O 1.02185 0.73393 0.33748 0.0
O583 O 0.94193 0.71114 0.32825 0.0
O584 O 0.93753 0.76964 0.35678 0.0
O585 O 1.02995 0.79127 0.34513 0.0
O586 O 0.16588 0.75393 0.33812 0.0
O587 O 0.16681 0.78261 0.36229 0.0
O588 O 1.03177 0.72729 0.37416 0.0
O589 O 0.06441 0.77474 0.38088 0.0
O590 O 0.12028 0.70079 0.35817 0.0
O591 O 1.02437 0.67238 0.36081 0.0
H592 H 0.76315 0.66862 0.38808 0.0
H593 H 0.64983 0.67856 0.38521 0.0
H594 H 0.68348 0.73799 0.33897 0.0
H595 H 0.79708 0.72764 0.34183 0.0
H596 H 0.29649 0.78606 0.32744 0.0
H597 H 0.40682 0.7702 0.33137 0.0
H598 H 0.35929 0.72043 0.37965 0.0
H599 H 0.24902 0.73728 0.37586 0.0
Tb600 Tb 0.86098 0.01105 0.35366 0.0
Tb601 Tb 0.74215 0.97172 0.35657 0.0
C602 C 0.97048 0.03504 0.35777 0.0
C603 C 1.03726 0.0249 0.35642 0.0
C604 C 0.08191 0.04199 0.36654 0.0
C605 C 0.1457 0.03337 0.36553 0.0
C606 C 0.16634 0.00734 0.3544 0.0
C607 C 0.12136 -0.00974 0.34422 0.0
C608 C 0.05737 -0.0011 0.34525 0.0
C609 C 0.80382 0.00251 0.32351 0.0
C610 C 0.86016 0.92905 0.35169 0.0
C611 C 0.63198 0.94803 0.35483 0.0
C612 C 0.56567 0.95945 0.35344 0.0
C613 C 0.5252 0.9428 0.34187 0.0
C614 C 0.46101 0.95083 0.34136 0.0
C615 C 0.43572 0.97562 0.35249 0.0
C616 C 0.47664 -0.007 0.36374 0.0
C617 C 0.54091 0.98495 0.36425 0.0
C618 C 0.80706 0.97912 0.38594 0.0
C619 C 0.73493 0.05089 0.35582 0.0
O620 O 0.93776 0.02069 0.37008 0.0
O621 O 0.93848 0.03743 0.34335 0.0
O622 O 0.80792 0.98086 0.33563 0.0
O623 O 0.83331 0.02968 0.32821 0.0
O624 O 0.89267 0.95733 0.3546 0.0
O625 O 0.79896 0.92957 0.34948 0.0
O626 O 0.66824 0.95242 0.34125 0.0
O627 O 0.66127 0.9545 0.36937 0.0
O628 O 0.79809 0.00131 0.37436 0.0
O629 O 0.77679 0.95207 0.38144 0.0
O630 O 0.70861 0.02212 0.35151 0.0
O631 O 0.79544 0.05235 0.35999 0.0
H632 H 0.0674 0.06212 0.37525 0.0
H633 H 0.17889 0.04689 0.37362 0.0
H634 H 0.1357 0.97052 0.33527 0.0
H635 H 1.02372 0.98544 0.33728 0.0
H636 H 0.54308 0.92306 0.33341 0.0
H637 H 0.43105 0.93748 0.33229 0.0
H638 H 0.45866 0.01229 0.37245 0.0
H639 H 0.57094 -0.00167 0.37329 0.0
Tb640 Tb 0.49448 0.50985 0.60851 0.0
Tb641 Tb 0.6208 0.46948 0.60614 0.0
C642 C 0.3842 0.53323 0.60708 0.0
C643 C 0.31834 0.52229 0.60497 0.0
C644 C 0.30242 0.49019 0.59843 0.0
C645 C 0.23904 0.48049 0.59715 0.0
C646 C 0.19077 0.50293 0.60218 0.0
C647 C 0.20723 0.535 0.60869 0.0
C648 C 0.27029 0.54454 0.61006 0.0
C649 C 0.56577 0.50601 0.63684 0.0
C650 C 0.49242 0.42948 0.60938 0.0
C651 C 0.72766 0.44827 0.61517 0.0
C652 C 0.79434 0.45592 0.61092 0.0
C653 C 0.8193 0.48848 0.61376 0.0
C654 C 0.88302 0.49503 0.61088 0.0
C655 C 0.92362 0.46936 0.60493 0.0
C656 C 0.89878 0.43677 0.60205 0.0
C657 C 0.83477 0.43014 0.60501 0.0
C658 C 0.57859 0.48112 0.57432 0.0
C659 C 0.61317 0.55062 0.60011 0.0
O660 O 0.42141 0.53062 0.59354 0.0
O661 O 0.4119 0.5241 0.62153 0.0
O662 O 0.55569 0.483 0.62585 0.0
O663 O 0.53408 0.53267 0.63225 0.0
O664 O 0.46202 0.45816 0.60667 0.0
O665 O 0.55473 0.4277 0.61094 0.0
O666 O 0.69657 0.47229 0.62318 0.0
O667 O 0.69347 0.43326 0.60326 0.0
O668 O 0.55359 0.48985 0.58858 0.0
O669 O 0.62928 0.46433 0.57794 0.0
O670 O 0.64755 0.52368 0.60459 0.0
O671 O 0.55167 0.54951 0.59843 0.0
H672 H 0.33883 0.47263 0.59442 0.0
H673 H 0.22771 0.45559 0.59213 0.0
H674 H 0.17124 0.55257 0.61301 0.0
H675 H 0.2816 0.56933 0.61525 0.0
H676 H 0.78996 0.5089 0.61856 0.0
H677 H 0.90081 0.52013 0.61374 0.0
H678 H 0.92886 0.41641 0.59753 0.0
H679 H 0.81702 0.40475 0.60289 0.0
Tb680 Tb 0.8397 0.7266 0.60554 0.0
Tb681 Tb 0.71236 0.7658 0.605 0.0
C682 C 0.95062 0.70468 0.60325 0.0
C683 C 1.01604 0.7176 0.60349 0.0
C684 C 0.04368 0.7329 0.58881 0.0
C685 C 0.10739 0.74203 0.58895 0.0
C686 C 0.14464 0.73575 0.60369 0.0
C687 C 0.11635 0.72162 0.61851 0.0
C688 C 0.053 0.71243 0.61837 0.0
C689 C 0.77116 0.72775 0.63455 0.0
C690 C 0.84075 0.80657 0.60832 0.0
C691 C 0.60794 0.78697 0.61591 0.0
C692 C 0.54013 0.78175 0.6128 0.0
C693 C 0.50263 0.77096 0.62677 0.0
C694 C 0.43897 0.76395 0.62436 0.0
C695 C 0.41124 0.76778 0.60794 0.0
C696 C 0.44809 0.77959 0.59402 0.0
C697 C 0.51231 0.78633 0.59639 0.0
C698 C 0.75116 0.75582 0.57258 0.0
C699 C 0.72259 0.6853 0.59761 0.0
O700 O 0.91549 0.71166 0.58972 0.0
O701 O 0.91933 0.70683 0.61786 0.0
O702 O 0.7797 0.75173 0.62397 0.0
O703 O 0.80279 0.70173 0.62908 0.0
O704 O 0.87159 0.77832 0.60505 0.0
O705 O 0.7784 0.80766 0.61006 0.0
O706 O 0.63747 0.76064 0.62229 0.0
O707 O 0.64133 0.80304 0.60413 0.0
O708 O 0.77779 0.74726 0.5866 0.0
O709 O 0.6994 0.77115 0.57681 0.0
O710 O 0.68801 0.71113 0.60357 0.0
O711 O 0.78275 0.68843 0.59404 0.0
H712 H 1.01657 0.73716 0.57711 0.0
H713 H 0.12801 0.75302 0.57737 0.0
H714 H 0.14351 0.71724 0.6302 0.0
H715 H 1.03322 0.70064 0.62986 0.0
H716 H 0.52293 0.76745 0.63956 0.0
H717 H 0.41133 0.75534 0.63535 0.0
H718 H 0.42758 0.78276 0.58124 0.0
H719 H 0.54017 0.79462 0.58539 0.0
Tb720 Tb 0.49992 0.72579 0.71632 0.0
Tb721 Tb 0.62525 0.76451 0.72004 0.0
C722 C 0.38872 0.70491 0.71323 0.0
C723 C 0.32286 0.71512 0.7163 0.0
C724 C 0.3032 0.73179 0.73151 0.0
C725 C 0.23974 0.74079 0.73373 0.0
C726 C 0.19527 0.73322 0.72079 0.0
C727 C 0.21543 0.71656 0.70564 0.0
C728 C 0.27845 0.70766 0.70344 0.0
C729 C 0.57673 0.72734 0.68895 0.0
C730 C 0.49798 0.80534 0.71899 0.0
C731 C 0.73189 0.78595 0.71097 0.0
C732 C 0.79945 0.77967 0.71447 0.0
C733 C 0.83559 0.76345 0.70163 0.0
C734 C 0.89927 0.75682 0.70429 0.0
C735 C 0.92886 0.7666 0.71978 0.0
C736 C 0.89331 0.78345 0.73257 0.0
C737 C 0.82899 0.7899 0.72996 0.0
C738 C 0.57911 0.75419 0.75155 0.0
C739 C 0.61367 0.68383 0.72737 0.0
O740 O 0.42427 0.69811 0.72671 0.0
O741 O 0.41867 0.72182 0.70114 0.0
O742 O 0.56466 0.75132 0.69927 0.0
O743 O 0.54459 0.70122 0.69382 0.0
O744 O 0.46907 0.77653 0.72223 0.0
O745 O 0.55917 0.80657 0.71533 0.0
O746 O 0.70231 0.76093 0.70344 0.0
O747 O 0.69729 0.80086 0.72289 0.0
O748 O 0.55515 0.74545 0.73714 0.0
O749 O 0.63163 0.76959 0.74826 0.0
O750 O 0.64984 0.70994 0.72259 0.0
O751 O 0.55208 0.68626 0.72847 0.0
H752 H 0.33669 0.73784 0.74163 0.0
H753 H 0.2253 0.75326 0.74562 0.0
H754 H 0.18235 0.7106 0.6954 0.0
H755 H 0.29259 0.69485 0.6916 0.0
H756 H 0.81443 0.75575 0.68945 0.0
H757 H 0.92566 0.74415 0.69413 0.0
H758 H 0.91498 0.79111 0.74467 0.0
H759 H 0.80254 0.80269 0.74005 0.0
Tb760 Tb 0.83746 0.50665 0.71785 0.0
Tb761 Tb 0.71086 0.46818 0.72097 0.0
C762 C 0.95021 0.52545 0.71689 0.0
C763 C 1.0129 0.51102 0.72093 0.0
C764 C 0.04972 0.52556 0.73408 0.0
C765 C 0.11159 0.51464 0.73681 0.0
C766 C 0.13816 0.48909 0.72636 0.0
C767 C 0.10061 0.47387 0.71354 0.0
C768 C 1.03865 0.48458 0.7109 0.0
C769 C 0.76334 0.50443 0.69 0.0
C770 C 0.83749 0.42689 0.71828 0.0
C771 C 0.60418 0.44736 0.71187 0.0
C772 C 0.53697 0.45292 0.7162 0.0
C773 C 0.50174 0.47629 0.70639 0.0
C774 C 0.43787 0.48116 0.70969 0.0
C775 C 0.40719 0.46254 0.72273 0.0
C776 C 0.44205 0.43902 0.73255 0.0
C777 C 0.5064 0.43419 0.72929 0.0
C778 C 0.75644 0.47769 0.75261 0.0
C779 C 0.7224 0.54895 0.7276 0.0
O780 O 0.91258 0.53193 0.73 0.0
O781 O 0.92039 0.5124 0.7036 0.0
O782 O 0.774 0.48102 0.70073 0.0
O783 O 0.79573 0.53068 0.69464 0.0
O784 O 0.86728 0.45502 0.7224 0.0
O785 O 0.77602 0.42649 0.7151 0.0
O786 O 0.63305 0.4733 0.70486 0.0
O787 O 0.63988 0.43108 0.72305 0.0
O788 O 0.78059 0.48652 0.73824 0.0
O789 O 0.70367 0.46268 0.74924 0.0
O790 O 0.68661 0.52266 0.72304 0.0
O791 O 0.78402 0.54694 0.72897 0.0
H792 H 1.03123 0.54608 0.74193 0.0
H793 H 0.13926 0.52682 0.74682 0.0
H794 H 0.11993 0.45475 0.70496 0.0
H795 H 1.01178 0.47284 0.7006 0.0
H796 H 0.52339 0.49068 0.69599 0.0
H797 H 0.41209 0.49916 0.70178 0.0
H798 H 0.41969 0.42454 0.74279 0.0
H799 H 0.53201 0.41571 0.73693 0.0
Tb800 Tb 0.46675 0.51677 0.47203 0.0
Tb801 Tb 0.58535 0.47664 0.46846 0.0
C802 C 0.35672 0.54022 0.4687 0.0
C803 C 0.28991 0.52958 0.46866 0.0
C804 C 0.26717 0.50396 0.45763 0.0
C805 C 0.20267 0.4964 0.45718 0.0
C806 C 0.15971 0.5144 0.46766 0.0
C807 C 0.18305 0.53934 0.47898 0.0
C808 C 0.24725 0.54692 0.47939 0.0
C809 C 0.53064 0.51218 0.50135 0.0
C810 C 0.46845 0.4352 0.4764 0.0
C811 C 0.69559 0.45283 0.46906 0.0
C812 C 0.76164 0.46472 0.46809 0.0
C813 C 0.78433 0.49104 0.47867 0.0
C814 C 0.848 0.5003 0.47809 0.0
C815 C 0.8902 0.48359 0.46685 0.0
C816 C 0.86701 0.45764 0.45611 0.0
C817 C 0.80353 0.44835 0.45673 0.0
C818 C 0.51229 0.48015 0.44045 0.0
C819 C 0.5919 0.55633 0.46611 0.0
O820 O 0.39227 0.531 0.45564 0.0
O821 O 0.38637 0.53834 0.48352 0.0
O822 O 0.52452 0.48904 0.49006 0.0
O823 O 0.49955 0.53863 0.49624 0.0
O824 O 0.43592 0.46301 0.47234 0.0
O825 O 0.52974 0.4361 0.47855 0.0
O826 O 0.66319 0.46042 0.48303 0.0
O827 O 0.66213 0.4558 0.45491 0.0
O828 O 0.52496 0.50375 0.45088 0.0
O829 O 0.5434 0.45348 0.44524 0.0
O830 O 0.62091 0.52778 0.46974 0.0
O831 O 0.52987 0.55808 0.46455 0.0
H832 H 0.29896 0.4901 0.4492 0.0
H833 H 0.18623 0.47694 0.44838 0.0
H834 H 0.15164 0.55302 0.48757 0.0
H835 H 0.26358 0.56673 0.48802 0.0
H836 H 0.75316 0.50419 0.48755 0.0
H837 H 0.86444 0.52003 0.48672 0.0
H838 H 0.8981 0.44444 0.44723 0.0
H839 H 0.78722 0.42799 0.44844 0.0
Tb840 Tb 0.37012 0.21998 0.4678 0.0
Tb841 Tb 0.24262 0.25819 0.46602 0.0
C842 C 0.47526 0.19858 0.45761 0.0
C843 C 0.54292 0.20268 0.46116 0.0
C844 C 0.58266 0.21016 0.44712 0.0
C845 C 0.64625 0.21684 0.44982 0.0
C846 C 0.67157 0.21592 0.46663 0.0
C847 C 0.6325 0.20728 0.4807 0.0
C848 C 0.56828 0.20093 0.47801 0.0
C849 C 0.33014 0.23142 0.49994 0.0
C850 C 0.35811 0.3009 0.47364 0.0
C851 C 0.13121 0.2796 0.46729 0.0
C852 C 0.06597 0.26661 0.46812 0.0
C853 C 0.04038 0.2526 0.48341 0.0
C854 C 0.97667 0.24347 0.48412 0.0
C855 C 0.93756 0.24848 0.46963 0.0
C856 C 0.96391 0.26121 0.45421 0.0
C857 C 1.02716 0.27038 0.45351 0.0
C858 C 0.31166 0.25441 0.43703 0.0
C859 C 0.24265 0.17842 0.46525 0.0
O860 O 0.44755 0.22569 0.45146 0.0
O861 O 0.44026 0.18228 0.46895 0.0
O862 O 0.30349 0.23928 0.48579 0.0
O863 O 0.38204 0.21597 0.49599 0.0
O864 O 0.39377 0.27482 0.46856 0.0
O865 O 0.29757 0.29797 0.47662 0.0
O866 O 0.16707 0.27632 0.48104 0.0
O867 O 0.16175 0.2738 0.45282 0.0
O868 O 0.30333 0.23167 0.4483 0.0
O869 O 0.2798 0.28086 0.44182 0.0
O870 O 0.2119 0.20661 0.46863 0.0
O871 O 0.3048 0.1776 0.46302 0.0
H872 H 0.5641 0.21158 0.43402 0.0
H873 H 0.67565 0.22317 0.43877 0.0
H874 H 0.65122 0.20649 0.49378 0.0
H875 H 0.53846 0.19534 0.48907 0.0
H876 H 0.06907 0.24936 0.49491 0.0
H877 H 0.95755 0.23351 0.49613 0.0
H878 H 0.93525 0.26454 0.4427 0.0
H879 H 0.04548 0.2811 0.44156 0.0
Tb880 Tb 0.44906 0.2122 0.35295 0.0
Tb881 Tb 0.57774 0.25057 0.35437 0.0
C882 C 0.34368 0.19006 0.36245 0.0
C883 C 0.27674 0.19577 0.35809 0.0
C884 C 0.25105 0.22864 0.35774 0.0
C885 C 0.18665 0.23346 0.35507 0.0
C886 C 0.1464 0.2056 0.35261 0.0
C887 C 0.17253 0.17279 0.35239 0.0
C888 C 0.23702 0.16794 0.35521 0.0
C889 C 0.49122 0.22271 0.32084 0.0
C890 C 0.46085 0.29252 0.34624 0.0
C891 C 0.68819 0.27326 0.35251 0.0
C892 C 0.75324 0.261 0.35055 0.0
C893 C 0.76697 0.22677 0.34723 0.0
C894 C 0.82962 0.21566 0.34648 0.0
C895 C 0.87933 0.23868 0.34897 0.0
C896 C 0.86509 0.27301 0.35195 0.0
C897 C 0.80267 0.284 0.35278 0.0
C898 C 0.50586 0.24965 0.38278 0.0
C899 C 0.57641 0.17083 0.35628 0.0
O900 O 0.37285 0.21533 0.36997 0.0
O901 O 0.37872 0.17486 0.35074 0.0
O902 O 0.51699 0.23032 0.3351 0.0
O903 O 0.43842 0.20811 0.32465 0.0
O904 O 0.4254 0.26681 0.35185 0.0
O905 O 0.5212 0.28914 0.34293 0.0
O906 O 0.65097 0.27018 0.33904 0.0
O907 O 0.66017 0.26534 0.36712 0.0
O908 O 0.51527 0.22579 0.37225 0.0
O909 O 0.53855 0.27554 0.37764 0.0
O910 O 0.60857 0.19872 0.35327 0.0
O911 O 0.51418 0.17025 0.35809 0.0
H912 H 0.28041 0.25066 0.35988 0.0
H913 H 0.16808 0.25904 0.35539 0.0
H914 H 0.14313 0.15084 0.35012 0.0
H915 H 0.25576 0.14237 0.35537 0.0
H916 H 0.72945 0.20865 0.34535 0.0
H917 H 0.8392 0.18915 0.34391 0.0
H918 H 0.90233 0.29128 0.35403 0.0
H919 H 0.79297 0.31049 0.35542 0.0
Tb920 Tb 0.36208 0.50914 0.35477 0.0
Tb921 Tb 0.24253 0.47152 0.35914 0.0
C922 C 0.47259 0.53229 0.35699 0.0
C923 C 0.53843 0.5207 0.35851 0.0
C924 C 0.57826 0.53704 0.37035 0.0
C925 C 0.64203 0.52851 0.37127 0.0
C926 C 0.66726 0.50326 0.36041 0.0
C927 C 0.627 0.4865 0.34874 0.0
C928 C 0.56318 0.49513 0.34779 0.0
C929 C 0.29704 0.50501 0.32564 0.0
C930 C 0.3569 0.42787 0.35166 0.0
C931 C 0.13257 0.44762 0.35867 0.0
C932 C 0.06628 0.45876 0.35844 0.0
C933 C 1.02329 0.44092 0.34812 0.0
C934 C 0.95932 0.4491 0.34849 0.0
C935 C 0.93696 0.47516 0.35931 0.0
C936 C 0.98026 0.49358 0.36937 0.0
C937 C 0.04446 0.48551 0.36891 0.0
C938 C 0.31437 0.47611 0.38748 0.0
C939 C 0.2388 0.55094 0.35979 0.0
O940 O 0.43611 0.52693 0.37035 0.0
O941 O 0.44371 0.52664 0.34231 0.0
O942 O 0.30255 0.48186 0.33703 0.0
O943 O 0.32869 0.53122 0.33068 0.0
O944 O 0.39126 0.45506 0.35546 0.0
O945 O 0.29579 0.4298 0.34974 0.0
O946 O 0.16579 0.45338 0.34466 0.0
O947 O 0.1645 0.45325 0.37288 0.0
O948 O 0.30375 0.49895 0.37641 0.0
O949 O 0.28252 0.44953 0.38306 0.0
O950 O 0.20859 0.52272 0.35636 0.0
O951 O 0.30065 0.55143 0.36191 0.0
H952 H 0.56027 0.55704 0.37864 0.0
H953 H 0.67195 0.54243 0.38011 0.0
H954 H 0.64503 0.46687 0.34024 0.0
H955 H 0.53355 0.48225 0.33847 0.0
H956 H 1.0391 0.42018 0.33998 0.0
H957 H 0.92704 0.43449 0.34061 0.0
H958 H 0.96444 0.51422 0.37757 0.0
H959 H 0.0768 0.49986 0.37689 0.0
Tb960 Tb 0.49535 0.00638 0.1062 0.0
Tb961 Tb 0.6233 0.96813 0.10494 0.0
C962 C 0.38328 0.02651 0.10404 0.0
C963 C 0.31924 0.01212 0.10214 0.0
C964 C 0.2836 0.01964 0.08727 0.0
C965 C 0.22075 0.00933 0.08605 0.0
C966 C 0.19193 -0.00836 0.0998 0.0
C967 C 0.22832 0.98303 0.11439 0.0
C968 C 0.2912 -0.00685 0.11557 0.0
C969 C 0.56379 0.00338 0.13514 0.0
C970 C 0.49637 0.92632 0.10759 0.0
C971 C 0.72799 0.9466 0.11542 0.0
C972 C 0.79501 0.94965 0.11094 0.0
C973 C 0.84011 0.94063 0.12337 0.0
C974 C 0.90406 0.94588 0.12011 0.0
C975 C 0.92411 0.96044 0.10436 0.0
C976 C 0.87874 0.96869 0.09172 0.0
C977 C 0.81461 0.96348 0.09502 0.0
C978 C 0.58372 0.97797 0.07272 0.0
C979 C 0.61191 0.04905 0.09832 0.0
O980 O 0.42115 0.02435 0.09062 0.0
O981 O 0.41233 0.02086 0.11876 0.0
O982 O 0.5556 0.98039 0.12408 0.0
O983 O 0.53195 0.02978 0.13024 0.0
O984 O 0.4651 0.95438 0.10412 0.0
O985 O 0.55822 0.92608 0.1102 0.0
O986 O 0.70146 0.97452 0.12103 0.0
O987 O 0.69199 0.92979 0.1046 0.0
O988 O 0.55694 0.98674 0.08673 0.0
O989 O 0.63506 0.96216 0.07683 0.0
O990 O 0.64732 0.02287 0.10345 0.0
O991 O 0.55088 0.04655 0.09608 0.0
H992 H 0.30396 0.03418 0.07672 0.0
H993 H 0.19445 0.01564 0.07445 0.0
H994 H 0.20752 0.96949 0.12521 0.0
H995 H 0.31718 0.98687 0.12723 0.0
H996 H 0.82573 0.93023 0.13579 0.0
H997 H 0.93774 0.93951 0.13015 0.0
H998 H 0.89281 0.97943 0.07936 0.0
H999 H 0.78033 0.97075 0.0853 0.0
Tb1000 Tb 0.83521 0.22641 0.10576 0.0
Tb1001 Tb 0.70768 0.26535 0.10454 0.0
C1002 C 0.94727 0.20579 0.10465 0.0
C1003 C 1.01134 0.21927 0.1018 0.0
C1004 C 1.02949 0.25104 0.10836 0.0
C1005 C 0.09223 0.26162 0.10723 0.0
C1006 C 0.13809 0.24072 0.09951 0.0
C1007 C 0.11939 0.2093 0.09259 0.0
C1008 C 0.05664 0.19874 0.09372 0.0
C1009 C 0.76544 0.22858 0.13457 0.0
C1010 C 0.83508 0.30639 0.10546 0.0
C1011 C 0.60246 0.28754 0.1144 0.0
C1012 C 0.53578 0.28355 0.10954 0.0
C1013 C 0.51515 0.25496 0.10031 0.0
C1014 C 0.45086 0.24974 0.0974 0.0
C1015 C 0.40601 0.27317 0.10354 0.0
C1016 C 0.42718 0.30225 0.11235 0.0
C1017 C 0.49144 0.30735 0.11532 0.0
C1018 C 0.74724 0.25477 0.07229 0.0
C1019 C 0.71824 0.18436 0.09818 0.0
O1020 O 0.90928 0.20477 0.09125 0.0
O1021 O 0.91877 0.21568 0.11888 0.0
O1022 O 0.77434 0.25215 0.12379 0.0
O1023 O 0.79772 0.20251 0.1295 0.0
O1024 O 0.86485 0.278 0.10182 0.0
O1025 O 0.774 0.30718 0.10927 0.0
O1026 O 0.62953 0.26041 0.1208 0.0
O1027 O 0.6389 0.30378 0.10342 0.0
O1028 O 0.77391 0.2463 0.08634 0.0
O1029 O 0.69559 0.27023 0.07642 0.0
O1030 O 0.68314 0.21075 0.10318 0.0
O1031 O 0.77937 0.18631 0.09564 0.0
H1032 H 0.99554 0.26735 0.11473 0.0
H1033 H 0.10507 0.28601 0.11262 0.0
H1034 H 0.15368 0.19226 0.08691 0.0
H1035 H 0.04388 0.17399 0.08876 0.0
H1036 H 0.54863 0.23622 0.09581 0.0
H1037 H 0.4362 0.22675 0.09088 0.0
H1038 H 0.39391 0.32085 0.11716 0.0
H1039 H 0.50639 0.32953 0.12251 0.0
Tb1040 Tb 0.49052 0.22673 0.21509 0.0
Tb1041 Tb 0.61834 0.26438 0.21829 0.0
C1042 C 0.37738 0.20859 0.21384 0.0
C1043 C 0.31451 0.22221 0.21842 0.0
C1044 C 0.27322 0.20241 0.2284 0.0
C1045 C 0.21086 0.21273 0.23099 0.0
C1046 C 0.18829 0.24305 0.22359 0.0
C1047 C 0.23043 0.26347 0.21412 0.0
C1048 C 0.29289 0.25327 0.21164 0.0
C1049 C 0.56515 0.22879 0.18722 0.0
C1050 C 0.49169 0.30586 0.21671 0.0
C1051 C 0.72404 0.28766 0.20967 0.0
C1052 C 0.79031 0.28458 0.21499 0.0
C1053 C 0.83508 0.30656 0.20777 0.0
C1054 C 0.89922 0.30168 0.211 0.0
C1055 C 0.91975 0.27469 0.22155 0.0
C1056 C 0.87447 0.25328 0.22916 0.0
C1057 C 0.81027 0.25821 0.22593 0.0
C1058 C 0.57253 0.25341 0.24992 0.0
C1059 C 0.60498 0.18338 0.2237 0.0
O1060 O 0.41514 0.20029 0.22663 0.0
O1061 O 0.40696 0.22359 0.20101 0.0
O1062 O 0.55515 0.25222 0.19799 0.0
O1063 O 0.5311 0.20304 0.1917 0.0
O1064 O 0.46247 0.2778 0.22114 0.0
O1065 O 0.55256 0.30612 0.2127 0.0
O1066 O 0.69922 0.26019 0.20303 0.0
O1067 O 0.68565 0.30323 0.22041 0.0
O1068 O 0.5484 0.24575 0.23543 0.0
O1069 O 0.62588 0.26797 0.24669 0.0
O1070 O 0.64146 0.20954 0.2192 0.0
O1071 O 0.54381 0.18625 0.22599 0.0
H1072 H 0.28866 0.17838 0.23374 0.0
H1073 H 0.17979 0.19654 0.23845 0.0
H1074 H 0.21452 0.28661 0.20794 0.0
H1075 H 0.3235 0.26916 0.20388 0.0
H1076 H 0.82058 0.32682 0.19914 0.0
H1077 H 0.93283 0.31818 0.20465 0.0
H1078 H 0.88883 0.23232 0.23736 0.0
H1079 H 0.77637 0.24087 0.23156 0.0
Tb1080 Tb 0.83496 0.0071 0.21606 0.0
Tb1081 Tb 0.71638 0.96783 0.22049 0.0
C1082 C 0.94489 0.03104 0.21707 0.0
C1083 C 1.01105 0.01931 0.21691 0.0
C1084 C 0.05468 0.03524 0.22783 0.0
C1085 C 0.11826 0.02603 0.22741 0.0
C1086 C 0.13979 0.00065 0.21602 0.0
C1087 C 0.09584 0.9845 0.20514 0.0
C1088 C 1.03205 -0.00637 0.20563 0.0
C1089 C 0.7615 0.00307 0.18822 0.0
C1090 C 0.84029 0.92686 0.21506 0.0
C1091 C 0.60627 0.9441 0.21855 0.0
C1092 C 0.5394 0.95456 0.21796 0.0
C1093 C 0.51647 0.97813 0.20577 0.0
C1094 C 0.4519 0.98553 0.20499 0.0
C1095 C 0.40913 0.96935 0.21627 0.0
C1096 C 0.43268 0.94649 0.22869 0.0
C1097 C 0.49691 0.93907 0.22945 0.0
C1098 C 0.78312 0.97274 0.24936 0.0
C1099 C 0.71784 0.04925 0.22365 0.0
O1100 O 0.91174 0.02393 0.23094 0.0
O1101 O 0.91251 0.02724 0.20276 0.0
O1102 O 0.77365 0.97974 0.19891 0.0
O1103 O 0.79322 0.02975 0.19259 0.0
O1104 O 0.8707 0.95557 0.2173 0.0
O1105 O 0.77818 0.9256 0.21385 0.0
O1106 O 0.64165 0.95059 0.20504 0.0
O1107 O 0.63596 0.94909 0.23316 0.0
O1108 O 0.77527 -0.00424 0.23805 0.0
O1109 O 0.75236 0.94614 0.24442 0.0
O1110 O 0.6852 0.02142 0.21998 0.0
O1111 O 0.77927 0.04834 0.22552 0.0
H1112 H 0.03962 0.05513 0.23661 0.0
H1113 H 0.15067 0.0388 0.23604 0.0
H1114 H 0.1109 0.96532 0.19597 0.0
H1115 H 0.99942 0.98097 0.19701 0.0
H1116 H 0.54816 -0.00947 0.19675 0.0
H1117 H 0.43526 0.00343 0.19534 0.0
H1118 H 0.4014 0.93435 0.2379 0.0
H1119 H 0.51343 0.92087 0.23897 0.0
Tb1120 Tb 0.46533 0.01029 0.97111 0.0
Tb1121 Tb 0.58416 0.97221 0.96556 0.0
C1122 C 0.35438 0.03319 0.96963 0.0
C1123 C 0.28816 0.02184 0.96964 0.0
C1124 C 0.26758 -0.00599 0.95976 0.0
C1125 C 0.2036 0.98529 0.95947 0.0
C1126 C 0.15932 0.00405 0.96914 0.0
C1127 C 0.18037 0.03169 0.97905 0.0
C1128 C 0.24404 0.04043 0.9793 0.0
C1129 C 0.53428 0.00671 0.99952 0.0
C1130 C 0.47057 0.929 0.97494 0.0
C1131 C 0.69405 0.94807 0.96394 0.0
C1132 C 0.76057 0.95881 0.96417 0.0
C1133 C 0.78136 0.98617 0.97431 0.0
C1134 C 0.84554 -0.00574 0.97499 0.0
C1135 C 0.88995 0.97515 0.96553 0.0
C1136 C 0.86852 0.94848 0.955 0.0
C1137 C 0.80454 0.94036 0.95438 0.0
C1138 C 0.50635 0.97578 0.93851 0.0
C1139 C 0.5879 0.05196 0.9653 0.0
O1140 O 0.38864 0.0261 0.95599 0.0
O1141 O 0.3856 0.02929 0.98408 0.0
O1142 O 0.52766 0.98331 0.98834 0.0
O1143 O 0.50162 0.03275 0.99465 0.0
O1144 O 0.436 0.9564 0.97163 0.0
O1145 O 0.53218 0.93045 0.97573 0.0
O1146 O 0.66198 0.95116 0.97839 0.0
O1147 O 0.66116 0.9568 0.95031 0.0
O1148 O 0.52004 -0.00086 0.94897 0.0
O1149 O 0.53817 0.94907 0.94281 0.0
O1150 O 0.61878 0.02356 0.96807 0.0
O1151 O 0.52584 0.0526 0.96371 0.0
H1152 H 0.3007 0.97925 0.95218 0.0
H1153 H 0.18872 0.96384 0.95173 0.0
H1154 H 0.14735 0.04704 0.98635 0.0
H1155 H 0.25878 0.06215 0.98688 0.0
H1156 H 0.7482 0.00102 0.98183 0.0
H1157 H 0.86045 0.01544 0.98291 0.0
H1158 H 0.90148 0.93332 0.94757 0.0
H1159 H 0.78946 0.91922 0.94643 0.0
Tb1160 Tb 0.37223 0.71391 0.97018 0.0
Tb1161 Tb 0.24708 0.75278 0.96646 0.0
C1162 C 0.47976 0.69296 0.96167 0.0
C1163 C 0.54626 0.70022 0.96613 0.0
C1164 C 0.57652 0.72882 0.95906 0.0
C1165 C 0.63996 0.7349 0.96234 0.0
C1166 C 0.67503 0.7127 0.97281 0.0
C1167 C 0.64521 0.68393 0.97981 0.0
C1168 C 0.58137 0.67774 0.9765 0.0
C1169 C 0.32652 0.72451 1.00174 0.0
C1170 C 0.36012 0.79487 0.97686 0.0
C1171 C 0.13436 0.7714 0.96372 0.0
C1172 C 0.07038 0.75859 0.96775 0.0
C1173 C 0.03939 0.76811 0.98314 0.0
C1174 C 0.97694 0.75847 0.98614 0.0
C1175 C 0.94376 0.73968 0.97364 0.0
C1176 C 0.97518 0.72953 0.95844 0.0
C1177 C 1.03764 0.7389 0.95551 0.0
C1178 C 0.32304 0.75022 0.93894 0.0
C1179 C 0.24556 0.67346 0.9689 0.0
O1180 O 0.4496 0.71744 0.95377 0.0
O1181 O 0.44452 0.67758 0.97328 0.0
O1182 O 0.3024 0.73319 0.98734 0.0
O1183 O 0.37879 0.70889 0.99842 0.0
O1184 O 0.39613 0.7686 0.97215 0.0
O1185 O 0.2987 0.79249 0.97832 0.0
O1186 O 0.17064 0.78021 0.97673 0.0
O1187 O 0.1654 0.75537 0.95151 0.0
O1188 O 0.31094 0.7267 0.94951 0.0
O1189 O 0.2915 0.77674 0.94365 0.0
O1190 O 0.2179 0.70218 0.97302 0.0
O1191 O 0.3065 0.67211 0.965 0.0
H1192 H 0.55161 0.74636 0.95069 0.0
H1193 H 0.66202 0.75665 0.95626 0.0
H1194 H 0.67132 0.6662 0.98779 0.0
H1195 H 0.5597 0.6552 0.98187 0.0
H1196 H 0.06281 0.78371 0.99269 0.0
H1197 H 0.95429 0.76623 0.9981 0.0
H1198 H 0.95077 0.71525 0.94851 0.0
H1199 H 0.05966 0.7314 0.94341 0.0
Tb1200 Tb 0.46197 0.7156 0.85529 0.0
Tb1201 Tb 0.58906 0.75458 0.85646 0.0
C1202 C 0.35654 0.69463 0.86558 0.0
C1203 C 0.28878 0.70012 0.86187 0.0
C1204 C 0.25554 0.72549 0.87088 0.0
C1205 C 0.19142 0.73045 0.86804 0.0
C1206 C 0.15845 0.70989 0.8563 0.0
C1207 C 0.19111 0.68417 0.84741 0.0
C1208 C 0.25575 0.67935 0.85015 0.0
C1209 C 0.50185 0.72561 0.82304 0.0
C1210 C 0.47235 0.79642 0.84831 0.0
C1211 C 0.69987 0.77661 0.85466 0.0
C1212 C 0.76495 0.7637 0.85387 0.0
C1213 C 0.78178 0.73502 0.84405 0.0
C1214 C 0.84467 0.72417 0.84343 0.0
C1215 C 0.89146 0.74177 0.85267 0.0
C1216 C 0.87391 0.7701 0.86264 0.0
C1217 C 0.81144 0.78092 0.86321 0.0
C1218 C 0.51962 0.75173 0.88531 0.0
C1219 C 0.5904 0.67472 0.8586 0.0
O1220 O 0.38629 0.72056 0.87226 0.0
O1221 O 0.3909 0.67839 0.85407 0.0
O1222 O 0.52824 0.73434 0.83708 0.0
O1223 O 0.45023 0.71017 0.82719 0.0
O1224 O 0.43739 0.77045 0.85391 0.0
O1225 O 0.53282 0.79334 0.84519 0.0
O1226 O 0.66396 0.77189 0.84105 0.0
O1227 O 0.66998 0.77151 0.8693 0.0
O1228 O 0.52908 0.72857 0.8744 0.0
O1229 O 0.55025 0.77837 0.8802 0.0
O1230 O 0.6212 0.70291 0.85524 0.0
O1231 O 0.52805 0.67361 0.86038 0.0
H1232 H 0.27896 0.74153 0.88028 0.0
H1233 H 0.16729 0.75019 0.87522 0.0
H1234 H 0.16684 0.6681 0.8382 0.0
H1235 H 0.27975 0.65937 0.84314 0.0
H1236 H 0.74655 0.72119 0.8368 0.0
H1237 H 0.8568 0.70246 0.83549 0.0
H1238 H 0.90866 0.78395 0.87006 0.0
H1239 H 0.79942 0.80297 0.87094 0.0
Tb1240 Tb 0.37304 0.01246 0.85533 0.0
Tb1241 Tb 0.24513 0.97339 0.8555 0.0
C1242 C 0.47626 0.03395 0.86686 0.0
C1243 C 0.54398 0.02975 0.86355 0.0
C1244 C 0.58701 0.04481 0.87494 0.0
C1245 C 0.6514 0.03822 0.87334 0.0
C1246 C 0.67389 0.01627 0.86035 0.0
C1247 C 0.63075 0.00197 0.8486 0.0
C1248 C 0.56618 0.00852 0.85025 0.0
C1249 C 0.33755 0.0014 0.82282 0.0
C1250 C 0.36426 0.93188 0.84865 0.0
C1251 C 0.13495 0.9514 0.8513 0.0
C1252 C 0.06923 0.96352 0.85247 0.0
C1253 C 1.02573 0.95333 0.83983 0.0
C1254 C 0.96237 0.96268 0.84117 0.0
C1255 C 0.9411 0.98241 0.85523 0.0
C1256 C 0.98514 -0.00675 0.86768 0.0
C1257 C 0.04849 0.98377 0.86636 0.0
C1258 C 0.31014 0.97668 0.88503 0.0
C1259 C 0.24447 0.05373 0.85843 0.0
O1260 O 0.44777 0.00678 0.87263 0.0
O1261 O 0.443 0.05017 0.85513 0.0
O1262 O 0.30935 -0.00689 0.83669 0.0
O1263 O 0.3889 0.01677 0.82727 0.0
O1264 O 0.39795 0.95801 0.85446 0.0
O1265 O 0.30381 0.93425 0.84516 0.0
O1266 O 0.16937 0.96373 0.83867 0.0
O1267 O 0.16626 0.94888 0.86588 0.0
O1268 O 0.3031 -0.00044 0.87379 0.0
O1269 O 0.27848 0.95034 0.88002 0.0
O1270 O 0.21252 0.02527 0.85668 0.0
O1271 O 0.30705 0.05492 0.85905 0.0
H1272 H 0.57064 0.06108 0.88536 0.0
H1273 H 0.68362 0.05001 0.88239 0.0
H1274 H 0.6468 0.9849 0.8385 0.0
H1275 H 0.53349 -0.00362 0.84145 0.0
H1276 H 0.04061 0.93758 0.82905 0.0
H1277 H 0.9297 0.95381 0.83141 0.0
H1278 H 0.97061 0.00904 0.87846 0.0
H1279 H 0.08104 -0.00806 0.87631 0.0
C1280 C 0.89499 0.39424 0.11737 0.0
C1281 C 0.95473 0.39528 0.10938 0.0
C1282 C 0.85564 0.36584 0.11578 0.0
C1283 C 0.87436 0.33754 0.10598 0.0
H1284 H 0.8785 0.4156 0.12496 0.0
H1285 H 0.81073 0.36593 0.12245 0.0
S1286 S 1.02381 0.32936 0.08095 0.0
N1287 N 1.02923 0.36657 0.09061 0.0
N1288 N 0.95538 0.3136 0.08705 0.0
C1289 C 0.93366 0.33869 0.09759 0.0
C1290 C 0.97389 0.36739 0.09947 0.0
C1291 C 0.39218 0.8966 0.10735 0.0
C1292 C 0.45845 0.89471 0.10882 0.0
C1293 C 0.35439 0.86753 0.10776 0.0
C1294 C 0.3811 0.83521 0.1096 0.0
H1295 H 0.36877 0.92079 0.10565 0.0
H1296 H 0.30405 0.87042 0.10619 0.0
S1297 S 0.55166 0.81617 0.11542 0.0
N1298 N 0.54859 0.85775 0.11316 0.0
N1299 N 0.47815 0.80309 0.11412 0.0
C1300 C 0.44721 0.83293 0.11167 0.0
C1301 C 0.48566 0.86262 0.11124 0.0
C1302 C 0.93924 0.89482 0.20849 0.0
C1303 C 0.8779 0.89535 0.21547 0.0
C1304 C 0.97795 0.86604 0.21006 0.0
C1305 C 0.957 0.83698 0.21893 0.0
H1306 H 0.95738 0.91679 0.20168 0.0
H1307 H 1.02413 0.86646 0.2041 0.0
S1308 S 0.80312 0.82774 0.24167 0.0
N1309 N 0.79986 0.86565 0.23266 0.0
N1310 N 0.87241 0.81209 0.23622 0.0
C1311 C 0.89632 0.83784 0.2265 0.0
C1312 C 0.85678 0.86684 0.2246 0.0
C1313 C 0.35068 0.36458 0.22186 0.0
C1314 C 0.37119 0.3949 0.21427 0.0
C1315 C 0.3905 0.33628 0.22272 0.0
C1316 C 0.45233 0.33702 0.21587 0.0
H1317 H 0.30443 0.36303 0.22774 0.0
H1318 H 0.37249 0.31372 0.22902 0.0
S1319 S 0.52535 0.40935 0.19266 0.0
N1320 N 0.45524 0.42343 0.19848 0.0
N1321 N 0.52979 0.37009 0.20001 0.0
C1322 C 0.47252 0.3669 0.2077 0.0
C1323 C 0.432 0.39581 0.20688 0.0
C1324 C 0.19017 0.5827 0.96169 0.0
C1325 C 0.12584 0.58413 0.96619 0.0
C1326 C 0.22881 0.61148 0.96265 0.0
C1327 C 0.20479 0.64277 0.96834 0.0
H1328 H 0.21107 0.55907 0.95743 0.0
H1329 H 0.27778 0.6091 0.95894 0.0
S1330 S 0.03947 0.6593 0.98246 0.0
N1331 N 0.04012 0.61896 0.97687 0.0
N1332 N 0.11169 0.67296 0.979 0.0
C1333 C 0.1402 0.64439 0.97296 0.0
C1334 C 0.10099 0.61515 0.97177 0.0
C1335 C 0.72674 0.1121 0.96152 0.0
C1336 C 0.70219 0.14288 0.96777 0.0
C1337 C 0.68894 0.08302 0.96038 0.0
C1338 C 0.62492 0.08368 0.96522 0.0
H1339 H 0.77541 0.1104 0.95742 0.0
H1340 H 0.71014 0.05978 0.95565 0.0
S1341 S 0.53791 0.15691 0.98336 0.0
N1342 N 0.60939 0.17146 0.97965 0.0
N1343 N 0.5392 0.11698 0.97707 0.0
C1344 C 0.59969 0.11408 0.97149 0.0
C1345 C 0.6381 0.14358 0.9729 0.0
C1346 C 0.18736 0.14293 0.8493 0.0
C1347 C 0.12649 0.14332 0.85674 0.0
C1348 C 0.22677 0.11451 0.85064 0.0
C1349 C 0.20672 0.08523 0.85935 0.0
H1350 H 0.20475 0.16465 0.84214 0.0
H1351 H 0.27227 0.11507 0.84429 0.0
S1352 S 0.05509 0.07414 0.88272 0.0
N1353 N 0.05046 0.11254 0.87427 0.0
N1354 N 0.12423 0.05903 0.87669 0.0
C1355 C 0.14686 0.08551 0.86727 0.0
C1356 C 0.10679 0.11451 0.86596 0.0
C1357 C 0.6062 0.61231 0.85484 0.0
C1358 C 0.62942 0.64374 0.86025 0.0
C1359 C 0.64544 0.58377 0.85428 0.0
C1360 C 0.70949 0.58532 0.85928 0.0
H1361 H 0.55804 0.60996 0.85042 0.0
H1362 H 0.62512 0.56037 0.84957 0.0
S1363 S 0.79113 0.66132 0.8763 0.0
N1364 N 0.71913 0.67455 0.872 0.0
N1365 N 0.79261 0.62081 0.87094 0.0
C1366 C 0.73263 0.61645 0.8653 0.0
C1367 C 0.69268 0.64561 0.86582 0.0
C1368 C 0.88966 0.89917 0.6071 0.0
C1369 C 0.95564 0.8977 0.60933 0.0
C1370 C 0.8524 0.86987 0.60739 0.0
C1371 C 0.87948 0.83778 0.60985 0.0
H1372 H 0.86623 0.92317 0.60484 0.0
H1373 H 0.80231 0.87235 0.60516 0.0
S1374 S 0.04924 0.81999 0.61788 0.0
N1375 N 0.04573 0.86145 0.61514 0.0
N1376 N 0.97625 0.80642 0.61587 0.0
C1377 C 0.94518 0.83599 0.61274 0.0
C1378 C 0.98307 0.86588 0.61243 0.0
C1379 C 0.43609 0.33963 0.60202 0.0
C1380 C 0.37247 0.34073 0.60742 0.0
C1381 C 0.47568 0.36786 0.60342 0.0
C1382 C 0.4532 0.39853 0.61017 0.0
H1383 H 0.45577 0.31685 0.59641 0.0
H1384 H 0.52351 0.36595 0.59864 0.0
S1385 S 0.29287 0.41443 0.6278 0.0
N1386 N 0.29053 0.37485 0.62089 0.0
N1387 N 0.36476 0.42793 0.6236 0.0
C1388 C 0.39037 0.39988 0.61613 0.0
C1389 C 0.35005 0.37106 0.61471 0.0
C1390 C 0.98065 0.36844 0.71901 0.0
C1391 C 0.95543 0.33665 0.71486 0.0
C1392 C 0.94199 0.39725 0.72005 0.0
C1393 C 0.87648 0.39557 0.71689 0.0
H1394 H 1.0302 0.37096 0.72199 0.0
H1395 H 0.96401 0.421 0.72358 0.0
S1396 S 0.78824 0.31871 0.70383 0.0
N1397 N 0.86135 0.3055 0.70631 0.0
N1398 N 0.78926 0.35958 0.70836 0.0
C1399 C 0.8511 0.3641 0.71215 0.0
C1400 C 0.89038 0.33473 0.7111 0.0
C1401 C 0.47938 0.86657 0.7112 0.0
C1402 C 0.45817 0.83649 0.71905 0.0
C1403 C 0.44051 0.89535 0.71029 0.0
C1404 C 0.37882 0.89514 0.71707 0.0
H1405 H 0.52599 0.86783 0.70553 0.0
H1406 H 0.45885 0.91796 0.7041 0.0
S1407 S 0.30199 0.82419 0.74023 0.0
N1408 N 0.37184 0.80929 0.73476 0.0
N1409 N 0.29939 0.86324 0.73258 0.0
C1410 C 0.35707 0.86552 0.72503 0.0
C1411 C 0.39664 0.83631 0.72618 0.0
C1412 C 0.19261 0.08603 0.46712 0.0
C1413 C 0.12678 0.08774 0.46458 0.0
C1414 C 0.23035 0.11518 0.46675 0.0
C1415 C 0.20382 0.14726 0.46391 0.0
H1416 H 0.21552 0.062 0.46969 0.0
H1417 H 0.28028 0.1126 0.46921 0.0
S1418 S 1.03489 0.16555 0.45492 0.0
N1419 N 1.0376 0.12418 0.45805 0.0
N1420 N 0.10795 0.17884 0.45717 0.0
C1421 C 0.13833 0.14925 0.46073 0.0
C1422 C 0.09999 0.11957 0.46112 0.0
C1423 C 0.64873 0.64638 0.47141 0.0
C1424 C 0.71278 0.64448 0.46647 0.0
C1425 C 0.60893 0.61823 0.47047 0.0
C1426 C 0.63162 0.58688 0.4647 0.0
H1427 H 0.6288 0.66975 0.4763 0.0
H1428 H 0.56073 0.62079 0.47488 0.0
S1429 S 0.7931 0.56855 0.44863 0.0
N1430 N 0.79545 0.60881 0.45446 0.0
N1431 N 0.72076 0.55571 0.45278 0.0
C1432 C 0.69493 0.58463 0.45925 0.0
C1433 C 0.7355 0.61341 0.46015 0.0
C1434 C 0.1382 0.58196 0.35468 0.0
C1435 C 0.20047 0.58214 0.36108 0.0
C1436 C 0.10032 0.61096 0.35532 0.0
C1437 C 0.12331 0.64123 0.36232 0.0
H1438 H 0.11867 0.55943 0.34874 0.0
H1439 H 0.05375 0.60999 0.34964 0.0
S1440 S 0.27915 0.6539 0.38313 0.0
N1441 N 0.28083 0.61432 0.3762 0.0
N1442 N 0.20956 0.66892 0.37751 0.0
C1443 C 0.18429 0.6414 0.36953 0.0
C1444 C 0.22294 0.61186 0.36885 0.0
C1445 C 0.71563 0.11219 0.36265 0.0
C1446 C 0.69345 0.08118 0.3562 0.0
C1447 C 0.67646 0.14076 0.36318 0.0
C1448 C 0.61358 0.13936 0.35738 0.0
H1449 H 0.76354 0.11452 0.36725 0.0
H1450 H 0.69582 0.16427 0.36809 0.0
S1451 S 0.53229 0.06478 0.33895 0.0
N1452 N 0.60373 0.05113 0.34357 0.0
N1453 N 0.53096 0.10492 0.34493 0.0
C1454 C 0.59038 0.10858 0.35116 0.0
C1455 C 0.63017 0.07951 0.35042 0.0
C1456 C 0.13575 0.53397 0.15753 0.0
C1457 C 0.11077 0.50352 0.15093 0.0
C1458 C 0.18444 0.5339 0.16998 0.0
C1459 C 0.20989 0.50337 0.17643 0.0
H1460 H 0.11811 0.55812 0.15289 0.0
H1461 H 0.20178 0.55799 0.17471 0.0
S1462 S 0.16089 0.4167 0.16349 0.0
N1463 N 0.11465 0.44198 0.1521 0.0
N1464 N 0.2068 0.44185 0.17499 0.0
C1465 C 0.18546 0.47278 0.16987 0.0
C1466 C 0.13556 0.47285 0.15736 0.0
C1467 C 0.19463 0.69826 0.15612 0.0
C1468 C 0.22079 0.72859 0.14968 0.0
C1469 C 0.1463 0.69855 0.16869 0.0
C1470 C 0.12228 0.72915 0.17546 0.0
H1471 H 0.21092 0.67405 0.15122 0.0
H1472 H 0.12786 0.67451 0.17322 0.0
S1473 S 0.1749 0.81559 0.1631 0.0
N1474 N 0.21984 0.79011 0.1514 0.0
N1475 N 0.1281 0.79065 0.17452 0.0
C1476 C 0.14804 0.75965 0.16913 0.0
C1477 C 0.19772 0.75935 0.15649 0.0
C1478 C 0.89225 0.50511 0.90671 0.0
C1479 C 0.86699 0.47463 0.9002 0.0
C1480 C 0.93924 0.50513 0.91965 0.0
C1481 C 0.96269 0.47467 0.92672 0.0
H1482 H 0.87602 0.52922 0.90164 0.0
H1483 H 0.95772 0.52922 0.92404 0.0
S1484 S 0.91084 0.3879 0.91467 0.0
N1485 N 0.86838 0.41312 0.90218 0.0
N1486 N 0.95564 0.41314 0.92645 0.0
C1487 C 0.93728 0.44404 0.92046 0.0
C1488 C 0.88954 0.44402 0.90731 0.0
C1489 C 0.94158 0.28012 0.9055 0.0
C1490 C 0.96548 0.24969 0.89852 0.0
C1491 C 0.89301 0.28004 0.91798 0.0
C1492 C 0.86673 0.24952 0.92415 0.0
H1493 H 0.96006 0.30427 0.90115 0.0
H1494 H 0.87643 0.30412 0.92298 0.0
S1495 S 0.9128 0.16291 0.9102 0.0
N1496 N 0.95954 0.18816 0.89895 0.0
N1497 N 0.86794 0.18804 0.92212 0.0
C1498 C 0.89009 0.21893 0.91725 0.0
C1499 C 0.93969 0.21901 0.9046 0.0
C1500 C 0.146 0.03366 0.65516 0.0
C1501 C 0.11981 0.00329 0.64883 0.0
C1502 C 0.1947 0.03345 0.66756 0.0
C1503 C 0.21888 0.00286 0.67429 0.0
H1504 H 0.1291 0.05787 0.6504 0.0
H1505 H 0.21292 0.05751 0.67208 0.0
S1506 S 0.16638 0.91636 0.66215 0.0
N1507 N 0.12126 0.94178 0.65049 0.0
N1508 N 0.2134 0.94134 0.67341 0.0
C1509 C 0.19343 0.97232 0.66797 0.0
C1510 C 0.14366 0.97255 0.65541 0.0
C1511 C 0.18468 0.25971 0.65497 0.0
C1512 C 0.20811 0.22969 0.64743 0.0
C1513 C 0.13771 0.2589 0.66794 0.0
C1514 C 0.11275 0.22802 0.67411 0.0
H1515 H 0.20293 0.28406 0.65084 0.0
H1516 H 0.12145 0.28269 0.67337 0.0
S1517 S 0.15656 0.14221 0.65831 0.0
N1518 N 0.20118 0.16817 0.64683 0.0
N1519 N 0.11415 0.16666 0.67123 0.0
C1520 C 0.13519 0.19786 0.66651 0.0
C1521 C 0.18279 0.19869 0.65328 0.0
C1522 C 0.93557 0.01079 0.417 0.0
C1523 C 0.95335 0.98103 0.42589 0.0
C1524 C 0.88655 0.01059 0.40459 0.0
C1525 C 0.85403 0.98053 0.40044 0.0
H1526 H 0.96051 0.03426 0.41939 0.0
H1527 H 0.87487 0.03403 0.398 0.0
S1528 S 0.87212 0.89807 0.42311 0.0
N1529 N 0.92742 0.92216 0.43165 0.0
N1530 N 0.83629 0.92178 0.40852 0.0
C1531 C 0.86844 0.95134 0.4102 0.0
C1532 C 0.91808 0.95152 0.42277 0.0
C1533 C 0.94836 0.72085 0.40475 0.0
C1534 C 0.98344 0.75004 0.40057 0.0
C1535 C 0.89922 0.72188 0.41705 0.0
C1536 C 0.88457 0.7519 0.42608 0.0
H1537 H 0.95743 0.69723 0.39801 0.0
H1538 H 0.87212 0.69908 0.41939 0.0
S1539 S 0.97487 0.83215 0.42379 0.0
N1540 N 1.00766 0.80791 0.40884 0.0
N1541 N 0.91705 0.80963 0.43231 0.0
C1542 C 0.92283 0.78042 0.42311 0.0
C1543 C 0.97227 0.77944 0.41042 0.0
C1544 C 0.64095 0.53525 0.65718 0.0
C1545 C 0.61484 0.50498 0.65072 0.0
C1546 C 0.68941 0.53485 0.66967 0.0
C1547 C 0.71353 0.50416 0.67631 0.0
H1548 H 0.6244 0.55951 0.65239 0.0
H1549 H 0.70772 0.55883 0.67427 0.0
S1550 S 0.66116 0.41783 0.66379 0.0
N1551 N 0.61603 0.44343 0.65224 0.0
N1552 N 0.708 0.44265 0.67519 0.0
C1553 C 0.68794 0.47372 0.6699 0.0
C1554 C 0.63817 0.47414 0.65736 0.0
C1555 C 0.69905 0.75761 0.65574 0.0
C1556 C 0.72297 0.72715 0.64875 0.0
C1557 C 0.65133 0.75757 0.66851 0.0
C1558 C 0.6265 0.72706 0.67515 0.0
H1559 H 0.71669 0.78174 0.6511 0.0
H1560 H 0.63396 0.78166 0.67329 0.0
S1561 S 0.67379 0.64031 0.66152 0.0
N1562 N 0.71802 0.66562 0.64956 0.0
N1563 N 0.63023 0.66549 0.67375 0.0
C1564 C 0.65051 0.69645 0.66838 0.0
C1565 C 0.69857 0.6965 0.65528 0.0
C1566 C 0.39333 0.50807 0.40592 0.0
C1567 C 0.36083 0.47781 0.4021 0.0
C1568 C 0.44181 0.509 0.41845 0.0
C1569 C 0.4589 0.47979 0.42788 0.0
H1570 H 0.38153 0.53124 0.39912 0.0
H1571 H 0.46666 0.53258 0.42059 0.0
S1572 S 0.37695 0.39706 0.42652 0.0
N1573 N 0.34197 0.4197 0.41127 0.0
N1574 N 0.43218 0.42158 0.43468 0.0
C1575 C 0.42355 0.4502 0.42516 0.0
C1576 C 0.37449 0.44923 0.41242 0.0
C1577 C 0.39015 0.22269 0.41831 0.0
C1578 C 0.35754 0.25296 0.4222 0.0
C1579 C 0.43806 0.22171 0.4056 0.0
C1580 C 0.4544 0.25079 0.39598 0.0
H1581 H 0.37975 0.19971 0.42548 0.0
H1582 H 0.46297 0.19811 0.40342 0.0
S1583 S 0.37166 0.33338 0.39742 0.0
N1584 N 0.33775 0.31097 0.41296 0.0
N1585 N 0.42685 0.30887 0.38909 0.0
C1586 C 0.4191 0.28042 0.3988 0.0
C1587 C 0.37059 0.2815 0.41178 0.0
C1588 C 0.68376 0.03293 0.16883 0.0
C1589 C 0.71065 0.0024 0.17485 0.0
C1590 C 0.63534 0.03305 0.15633 0.0
C1591 C 0.6121 0.00266 0.14923 0.0
H1592 H 0.70008 0.057 0.17386 0.0
H1593 H 0.61678 0.05721 0.15198 0.0
S1594 S 0.66643 0.91588 0.16052 0.0
N1595 N 0.71073 0.941 0.17251 0.0
N1596 N 0.61892 0.94113 0.14951 0.0
C1597 C 0.63796 0.97196 0.15533 0.0
C1598 C 0.68752 0.97186 0.16795 0.0
C1599 C 0.6915 0.25858 0.15516 0.0
C1600 C 0.71541 0.22806 0.14825 0.0
C1601 C 0.64279 0.25866 0.16763 0.0
C1602 C 0.6162 0.22822 0.17382 0.0
H1603 H 0.71027 0.28264 0.15079 0.0
H1604 H 0.62583 0.28278 0.17248 0.0
S1605 S 0.66226 0.14137 0.16009 0.0
N1606 N 0.7086 0.16654 0.14866 0.0
N1607 N 0.61805 0.16668 0.17208 0.0
C1608 C 0.63987 0.19755 0.16706 0.0
C1609 C 0.68941 0.19747 0.15439 0.0
C1610 C 0.38132 0.9466 0.9062 0.0
C1611 C 0.35751 0.97716 0.89935 0.0
C1612 C 0.42939 0.94645 0.91879 0.0
C1613 C 0.45543 0.97684 0.92516 0.0
H1614 H 0.3636 0.92254 0.90153 0.0
H1615 H 0.44627 0.92225 0.92358 0.0
S1616 S 0.40932 0.06372 0.91163 0.0
N1617 N 0.36257 0.03868 0.90031 0.0
N1618 N 0.45406 0.03834 0.92342 0.0
C1619 C 0.43165 0.00755 0.91854 0.0
C1620 C 0.38227 0.00772 0.90586 0.0
C1621 C 0.44592 0.78099 0.90619 0.0
C1622 C 0.47137 0.75074 0.89945 0.0
C1623 C 0.39771 0.78055 0.91879 0.0
C1624 C 0.3731 0.74984 0.92526 0.0
H1625 H 0.46268 0.80527 0.9015 0.0
H1626 H 0.37983 0.80453 0.92357 0.0
S1627 S 0.42385 0.66354 0.91206 0.0
N1628 N 0.46924 0.68915 0.9006 0.0
N1629 N 0.37758 0.68836 0.92373 0.0
C1630 C 0.39812 0.71942 0.91862 0.0
C1631 C 0.44774 0.71987 0.90598 0.0
C1632 C 0.22716 0.62087 0.09907 0.0
C1633 C 0.1894 0.65015 0.09748 0.0
C1634 C 0.20071 0.58843 0.09947 0.0
C1635 C 0.13548 0.58393 0.09812 0.0
H1636 H 0.27765 0.62293 0.10061 0.0
H1637 H 0.23167 0.56684 0.10119 0.0
S1638 S 1.01633 0.65256 0.09226 0.0
N1639 N 0.08413 0.67266 0.09359 0.0
N1640 N 1.03364 0.61191 0.09407 0.0
C1641 C 0.09725 0.61308 0.09583 0.0
C1642 C 0.12438 0.64612 0.09562 0.0
C1643 C 0.19749 0.64272 0.22782 0.0
C1644 C 0.13254 0.648 0.22953 0.0
C1645 C 0.22268 0.60997 0.22773 0.0
C1646 C 0.18396 0.58106 0.22919 0.0
H1647 H 0.22918 0.66393 0.22605 0.0
H1648 H 0.27298 0.60744 0.22587 0.0
S1649 S 1.01135 0.58072 0.23568 0.0
N1650 N 1.03006 0.62122 0.23413 0.0
N1651 N 0.07817 0.55977 0.23364 0.0
C1652 C 0.11928 0.58585 0.23158 0.0
C1653 C 0.09342 0.61927 0.23187 0.0
C1654 C 0.94738 0.33506 0.9782 0.0
C1655 C 0.88237 0.33062 0.97633 0.0
C1656 C 0.97364 0.36754 0.97856 0.0
C1657 C 0.93598 0.39687 0.97688 0.0
H1658 H 0.97837 0.31332 0.97926 0.0
H1659 H 1.02424 0.36946 0.97981 0.0
S1660 S 0.76269 0.39915 0.97163 0.0
N1661 N 0.78038 0.35848 0.97285 0.0
N1662 N 0.83024 0.41931 0.97345 0.0
C1663 C 0.87078 0.39283 0.97519 0.0
C1664 C 0.84386 0.35978 0.97494 0.0
C1665 C 0.95728 0.39267 0.85044 0.0
C1666 C 0.8935 0.39809 0.84662 0.0
C1667 C 0.98282 0.35995 0.85046 0.0
C1668 C 0.94551 0.33131 0.84682 0.0
H1669 H 0.98755 0.4137 0.85385 0.0
H1670 H 1.03192 0.35708 0.85392 0.0
S1671 S 0.77727 0.33144 0.83452 0.0
N1672 N 0.79438 0.37171 0.83785 0.0
N1673 N 0.84304 0.31044 0.83822 0.0
C1674 C 0.88233 0.33629 0.84245 0.0
C1675 C 0.85622 0.36961 0.84223 0.0
C1676 C 0.1969 0.09327 0.5923 0.0
C1677 C 0.13837 0.08713 0.60004 0.0
C1678 C 0.22012 0.12642 0.5909 0.0
C1679 C 0.18577 0.15444 0.59734 0.0
H1680 H 0.22429 0.07248 0.58703 0.0
H1681 H 0.26563 0.13001 0.58484 0.0
S1682 S 1.03184 0.15083 0.62013 0.0
N1683 N 0.04786 0.1111 0.61509 0.0
N1684 N 0.09134 0.17316 0.61252 0.0
C1685 C 0.1274 0.14834 0.60532 0.0
C1686 C 0.10387 0.11472 0.60671 0.0
C1687 C 0.20677 0.14489 0.72287 0.0
C1688 C 0.14334 0.14986 0.72733 0.0
C1689 C 0.23309 0.11234 0.72255 0.0
C1690 C 0.19695 0.0834 0.72653 0.0
H1691 H 0.2361 0.16613 0.71915 0.0
H1692 H 0.28179 0.10982 0.71859 0.0
S1693 S 1.03034 0.08234 0.7406 0.0
N1694 N 0.04604 0.12275 0.73709 0.0
N1695 N 0.09611 0.0618 0.73621 0.0
C1696 C 0.13422 0.08794 0.73156 0.0
C1697 C 0.10732 0.12109 0.73207 0.0
C1698 C 0.95524 0.83789 0.47927 0.0
C1699 C 0.89121 0.83209 0.4764 0.0
C1700 C 0.97946 0.87082 0.47894 0.0
C1701 C 0.94074 0.8992 0.47546 0.0
H1702 H 0.98693 0.81689 0.48173 0.0
H1703 H 1.02943 0.8738 0.48116 0.0
S1704 S 0.76957 0.89745 0.4665 0.0
N1705 N 0.78906 0.85743 0.46969 0.0
N1706 N 0.8352 0.91912 0.469 0.0
C1707 C 0.87647 0.89376 0.47269 0.0
C1708 C 0.85159 0.86025 0.47313 0.0
C1709 C 0.8797 0.8339 0.3493 0.0
C1710 C 0.94493 0.82951 0.35002 0.0
C1711 C 0.85333 0.86627 0.34959 0.0
C1712 C 0.89113 0.89558 0.35083 0.0
H1713 H 0.84867 0.81219 0.34847 0.0
H1714 H 0.80254 0.86808 0.34904 0.0
S1715 S 0.06512 0.89758 0.35364 0.0
N1716 N 0.04739 0.85693 0.35231 0.0
N1717 N 0.99731 0.91795 0.35298 0.0
C1718 C 0.9566 0.89156 0.3516 0.0
C1719 C 0.98363 0.85848 0.35115 0.0
C1720 C 0.60457 0.61365 0.59903 0.0
C1721 C 0.64265 0.58434 0.59815 0.0
C1722 C 0.63053 0.64616 0.59838 0.0
C1723 C 0.69559 0.65076 0.59666 0.0
H1724 H 0.55411 0.61166 0.6007 0.0
H1725 H 0.59931 0.66779 0.59952 0.0
S1726 S 0.81584 0.5822 0.59287 0.0
N1727 N 0.74835 0.56196 0.59478 0.0
N1728 N 0.79787 0.6229 0.59348 0.0
C1729 C 0.73425 0.6216 0.59525 0.0
C1730 C 0.70763 0.58845 0.59605 0.0
C1731 C 0.73178 0.6119 0.72663 0.0
C1732 C 0.6942 0.58299 0.72949 0.0
C1733 C 0.70594 0.64453 0.72669 0.0
C1734 C 0.64153 0.64963 0.72977 0.0
H1735 H 0.78137 0.60935 0.72364 0.0
H1736 H 0.73649 0.66574 0.72375 0.0
S1737 S 0.5242 0.58231 0.74004 0.0
N1738 N 0.5906 0.56155 0.73679 0.0
N1739 N 0.54149 0.62276 0.73732 0.0
C1740 C 0.60394 0.62093 0.73357 0.0
C1741 C 0.63035 0.58766 0.73328 0.0
C1742 C 0.47517 0.37222 0.47912 0.0
C1743 C 0.43777 0.40159 0.47709 0.0
C1744 C 0.44926 0.33972 0.47803 0.0
C1745 C 0.38485 0.33531 0.47505 0.0
H1746 H 0.52539 0.37413 0.48122 0.0
H1747 H 0.47994 0.31795 0.47951 0.0
S1748 S 0.2661 0.40374 0.4687 0.0
N1749 N 0.3328 0.42399 0.47203 0.0
N1750 N 0.2838 0.36305 0.46988 0.0
C1751 C 0.34656 0.36443 0.47323 0.0
C1752 C 0.37305 0.39753 0.4743 0.0
C1753 C 0.37081 0.33251 0.34912 0.0
C1754 C 0.43499 0.32732 0.3459 0.0
C1755 C 0.34648 0.36519 0.35092 0.0
C1756 C 0.38535 0.39404 0.34963 0.0
H1757 H 0.33915 0.31122 0.35066 0.0
H1758 H 0.29672 0.36769 0.35368 0.0
S1759 S 0.55633 0.39474 0.34051 0.0
N1760 N 0.5371 0.35422 0.34084 0.0
N1761 N 0.49043 0.41556 0.34436 0.0
C1762 C 0.44933 0.38942 0.34612 0.0
C1763 C 0.47433 0.3561 0.34414 0.0
C1764 C 0.70231 0.08906 0.10132 0.0
C1765 C 0.63952 0.0834 0.09654 0.0
C1766 C 0.72733 0.12184 0.1015 0.0
C1767 C 0.69045 0.15027 0.09704 0.0
H1768 H 0.73209 0.06821 0.10538 0.0
H1769 H 0.77564 0.12497 0.10565 0.0
S1770 S 0.52523 0.14948 0.08207 0.0
N1771 N 0.54207 0.10932 0.08599 0.0
N1772 N 0.58977 0.17077 0.08672 0.0
C1773 C 0.62832 0.1451 0.0918 0.0
C1774 C 0.60276 0.1117 0.0914 0.0
C1775 C 0.69673 0.14448 0.2272 0.0
C1776 C 0.63195 0.14888 0.22473 0.0
C1777 C 0.72348 0.11207 0.22734 0.0
C1778 C 0.68662 0.08274 0.22481 0.0
H1779 H 0.72716 0.16623 0.22895 0.0
H1780 H 0.77388 0.11022 0.22913 0.0
S1781 S 0.51422 0.08045 0.21759 0.0
N1782 N 0.53105 0.12108 0.21966 0.0
N1783 N 0.58173 0.06029 0.21987 0.0
C1784 C 0.62158 0.08673 0.2225 0.0
C1785 C 0.59416 0.11975 0.22247 0.0
C1786 C 0.45262 0.83362 0.97596 0.0
C1787 C 0.38783 0.82914 0.97852 0.0
C1788 C 0.47881 0.86605 0.97527 0.0
C1789 C 0.44124 0.89536 0.97698 0.0
H1790 H 0.48334 0.81201 0.97399 0.0
H1791 H 0.52886 0.86802 0.97283 0.0
S1792 S 0.26969 0.89786 0.9854 0.0
N1793 N 0.28693 0.85714 0.98403 0.0
N1794 N 0.33682 0.91797 0.98243 0.0
C1795 C 0.37679 0.89139 0.98015 0.0
C1796 C 0.34997 0.85832 0.98104 0.0
C1797 C 0.38022 0.83608 0.84828 0.0
C1798 C 0.44541 0.83108 0.84702 0.0
C1799 C 0.35451 0.8688 0.84833 0.0
C1800 C 0.39303 0.89785 0.84733 0.0
H1801 H 0.34873 0.81462 0.84947 0.0
H1802 H 0.30397 0.87125 0.84964 0.0
S1803 S 0.56657 0.89908 0.84321 0.0
N1804 N 0.54818 0.85849 0.84419 0.0
N1805 N 0.49913 0.91964 0.84446 0.0
C1806 C 0.45809 0.89335 0.84577 0.0
C1807 C 0.48444 0.86007 0.84554 0.0
C1808 C 0.58481 0.48122 0.09277 0.0
C1809 C 0.62126 0.48414 0.10795 0.0
C1810 C 0.52051 0.47327 0.09358 0.0
C1811 C 0.49013 0.46789 0.1096 0.0
H1812 H 0.6062 0.4851 0.08014 0.0
H1813 H 0.49438 0.47123 0.08155 0.0
S1814 S 0.56326 0.4748 0.15323 0.0
N1815 N 0.62146 0.48241 0.13954 0.0
N1816 N 0.50087 0.46746 0.14106 0.0
C1817 C 0.52598 0.47081 0.12489 0.0
C1818 C 0.59141 0.47891 0.12407 0.0
C1819 C 0.73586 0.77065 0.09747 0.0
C1820 C 0.71248 0.73998 0.1043 0.0
C1821 C 0.80037 0.77853 0.09828 0.0
C1822 C 0.84358 0.75603 0.10599 0.0
H1823 H 0.70385 0.7891 0.09192 0.0
H1824 H 0.81625 0.80279 0.09335 0.0
S1825 S 0.8079 0.67063 0.12359 0.0
N1826 N 0.73894 0.68567 0.11741 0.0
N1827 N 0.85948 0.70067 0.1191 0.0
C1828 C 0.82117 0.72479 0.1122 0.0
C1829 C 0.75585 0.71672 0.11132 0.0
C1830 C 0.60165 0.77097 0.22608 0.0
C1831 C 0.62287 0.73717 0.22662 0.0
C1832 C 0.53698 0.77859 0.22599 0.0
C1833 C 0.49155 0.75263 0.22649 0.0
H1834 H 0.63513 0.79152 0.22483 0.0
H1835 H 0.52251 0.80481 0.22465 0.0
S1836 S 0.52342 0.66048 0.23091 0.0
N1837 N 0.59384 0.67794 0.22965 0.0
N1838 N 0.47269 0.69215 0.22973 0.0
C1839 C 0.5125 0.71894 0.22821 0.0
C1840 C 0.57804 0.71123 0.22821 0.0
C1841 C 0.81243 0.49666 0.22592 0.0
C1842 C 0.8326 0.46422 0.22063 0.0
C1843 C 0.74827 0.5051 0.22665 0.0
C1844 C 0.7016 0.48152 0.22202 0.0
H1845 H 0.84656 0.51607 0.22906 0.0
H1846 H 0.73517 0.53062 0.23041 0.0
S1847 S 0.72859 0.39206 0.20912 0.0
N1848 N 0.79994 0.40751 0.21207 0.0
N1849 N 0.67962 0.42363 0.21318 0.0
C1850 C 0.72086 0.44873 0.21717 0.0
C1851 C 0.78618 0.44003 0.21654 0.0
C1852 C 0.56637 0.46777 0.96633 0.0
C1853 C 0.58864 0.50136 0.96642 0.0
C1854 C 0.50172 0.46065 0.96699 0.0
C1855 C 0.45654 0.4868 0.96782 0.0
H1856 H 0.59921 0.44678 0.96562 0.0
H1857 H 0.48697 0.43437 0.96673 0.0
S1858 S 0.49037 0.57906 0.96954 0.0
N1859 N 0.56036 0.56106 0.9681 0.0
N1860 N 0.43906 0.54767 0.96939 0.0
C1861 C 0.47818 0.52052 0.968 0.0
C1862 C 0.54407 0.52778 0.9673 0.0
C1863 C 0.34701 0.21055 0.9766 0.0
C1864 C 0.36766 0.24387 0.97334 0.0
C1865 C 0.28261 0.20235 0.97626 0.0
C1866 C 0.23692 0.22723 0.97262 0.0
H1867 H 0.38095 0.19041 0.97863 0.0
H1868 H 0.26872 0.17616 0.97805 0.0
S1869 S 0.26592 0.31903 0.96597 0.0
N1870 N 0.33675 0.30246 0.96842 0.0
N1871 N 0.21624 0.28704 0.96765 0.0
C1872 C 0.25682 0.26091 0.97038 0.0
C1873 C 0.32204 0.26924 0.97077 0.0
C1874 C 0.55099 0.20819 0.86479 0.0
C1875 C 0.58985 0.21237 0.8501 0.0
C1876 C 0.48653 0.21566 0.86417 0.0
C1877 C 0.45816 0.22775 0.84886 0.0
H1878 H 0.57084 0.19991 0.87703 0.0
H1879 H 0.45901 0.21285 0.87594 0.0
S1880 S 0.53735 0.23998 0.80633 0.0
N1881 N 0.59408 0.22711 0.81943 0.0
N1882 N 0.47292 0.24147 0.81834 0.0
C1883 C 0.49598 0.23129 0.83395 0.0
C1884 C 0.56173 0.22355 0.83456 0.0
C1885 C 0.26801 0.48062 0.8548 0.0
C1886 C 0.24621 0.51415 0.85292 0.0
C1887 C 0.33233 0.47281 0.85385 0.0
C1888 C 0.37772 0.49818 0.85096 0.0
H1889 H 0.23521 0.46028 0.85748 0.0
H1890 H 0.34669 0.44673 0.85583 0.0
S1891 S 0.34507 0.58954 0.84362 0.0
N1892 N 0.27502 0.57269 0.847 0.0
N1893 N 0.39589 0.55798 0.84516 0.0
C1894 C 0.35653 0.53173 0.84867 0.0
C1895 C 0.29091 0.53971 0.84966 0.0
C1896 C 0.52303 0.98624 0.62022 0.0
C1897 C 0.49039 0.98446 0.60435 0.0
C1898 C 0.58789 -0.00719 0.6207 0.0
C1899 C 0.62267 -0.00221 0.60532 0.0
H1900 H 0.49842 0.98203 0.63237 0.0
H1901 H 0.61116 -0.00635 0.6332 0.0
S1902 S 0.55851 -0.00135 0.56053 0.0
N1903 N 0.49711 -0.00984 0.57295 0.0
N1904 N 0.61889 0.00243 0.57385 0.0
C1905 C 0.59045 -0.00345 0.58939 0.0
C1906 C 0.52442 -0.01008 0.58891 0.0
C1907 C 0.74832 0.22621 0.59311 0.0
C1908 C 0.70178 0.24992 0.5978 0.0
C1909 C 0.81243 0.23439 0.59379 0.0
C1910 C 0.8329 0.26661 0.59925 0.0
H1911 H 0.73508 0.20082 0.58921 0.0
H1912 H 0.84639 0.21503 0.59032 0.0
S1913 S 0.72985 0.33804 0.61272 0.0
N1914 N 0.68044 0.30727 0.60775 0.0
N1915 N 0.801 0.32263 0.60916 0.0
C1916 C 0.78678 0.29097 0.60344 0.0
C1917 C 0.72128 0.28264 0.60269 0.0
C1918 C 0.60338 0.27718 0.71323 0.0
C1919 C 0.62482 0.2492 0.72292 0.0
C1920 C 0.53912 0.28514 0.71223 0.0
C1921 C 0.49348 0.26532 0.7208 0.0
H1922 H 0.63657 0.29284 0.70617 0.0
H1923 H 0.52498 0.30677 0.70447 0.0
S1924 S 0.5251 0.18895 0.74768 0.0
N1925 N 0.59544 0.20166 0.7413 0.0
N1926 N 0.47466 0.21628 0.73927 0.0
C1927 C 0.51444 0.23764 0.73083 0.0
C1928 C 0.58002 0.22966 0.73192 0.0
C1929 C 0.79983 0.95463 0.71412 0.0
C1930 C 0.84354 0.97204 0.72456 0.0
C1931 C 0.7354 0.9625 0.71468 0.0
C1932 C 0.71209 0.98816 0.72565 0.0
H1933 H 0.81577 0.93559 0.70498 0.0
H1934 H 0.70393 0.94924 0.70597 0.0
S1935 S 0.80536 0.0382 0.75721 0.0
N1936 N 0.85777 0.01385 0.74742 0.0
N1937 N 0.73693 0.02881 0.74832 0.0
C1938 C 0.75482 0.00478 0.73666 0.0
C1939 C 0.82037 -0.00331 0.73615 0.0
C1940 C 0.54693 0.02469 0.47003 0.0
C1941 C 0.59203 -0.00084 0.46701 0.0
C1942 C 0.48228 0.01746 0.4701 0.0
C1943 C 0.45999 0.98437 0.46714 0.0
H1944 H 0.56176 0.05049 0.47256 0.0
H1945 H 0.4495 0.0379 0.47269 0.0
S1946 S 0.55843 0.90889 0.45724 0.0
N1947 N 0.60969 0.93977 0.46017 0.0
N1948 N 0.48839 0.92613 0.46019 0.0
C1949 C 0.5046 0.95865 0.4639 0.0
C1950 C 0.57046 0.96603 0.46387 0.0
C1951 C 0.3522 0.72788 0.48113 0.0
C1952 C 0.38516 0.73238 0.4654 0.0
C1953 C 0.28776 0.71989 0.48123 0.0
C1954 C 0.25417 0.71628 0.46561 0.0
H1955 H 0.37579 0.73177 0.49343 0.0
H1956 H 0.26356 0.71777 0.49358 0.0
S1957 S 0.32042 0.72049 0.42105 0.0
N1958 N 0.38066 0.72884 0.43387 0.0
N1959 N 0.25972 0.71439 0.4341 0.0
C1960 C 0.28721 0.71908 0.44985 0.0
C1961 C 0.35263 0.72699 0.44973 0.0
C1962 C 0.49307 0.72103 0.34387 0.0
C1963 C 0.45922 0.73447 0.35804 0.0
C1964 C 0.55709 0.71285 0.34528 0.0
C1965 C 0.58976 0.71757 0.36096 0.0
H1966 H 0.46983 0.7167 0.33155 0.0
H1967 H 0.58114 0.70256 0.33404 0.0
S1968 S 0.52405 0.75346 0.40172 0.0
N1969 N 0.46406 0.75318 0.38812 0.0
N1970 N 0.58412 0.73746 0.39082 0.0
C1971 C 0.55659 0.73088 0.37526 0.0
C1972 C 0.49143 0.73937 0.3738 0.0
C1973 C 0.28034 0.02427 0.35225 0.0
C1974 C 0.23469 -0.00154 0.35346 0.0
C1975 C 0.34498 0.01671 0.35186 0.0
C1976 C 0.36677 0.98301 0.3526 0.0
H1977 H 0.26599 0.0506 0.35151 0.0
H1978 H 0.37817 0.03744 0.35085 0.0
S1979 S 0.2672 0.90621 0.35706 0.0
N1980 N 0.21639 0.93787 0.3562 0.0
N1981 N 0.33749 0.92368 0.35537 0.0
C1982 C 0.32173 0.95697 0.35389 0.0
C1983 C 0.25591 0.96467 0.35433 0.0
C1984 C 0.10222 0.46264 0.60885 0.0
C1985 C 0.12327 0.49297 0.60114 0.0
C1986 C 1.03781 0.45459 0.60953 0.0
C1987 C 0.99204 0.47651 0.60247 0.0
H1988 H 0.13555 0.44563 0.61498 0.0
H1989 H 1.02363 0.43164 0.6162 0.0
S1990 S 1.02368 0.55657 0.5786 0.0
N1991 N 0.09384 0.5433 0.58481 0.0
N1992 N 0.97329 0.52806 0.58589 0.0
C1993 C 1.01293 0.50605 0.59395 0.0
C1994 C 0.07832 0.51429 0.59334 0.0
C1995 C 0.30062 0.78254 0.59927 0.0
C1996 C 0.34422 0.75858 0.6055 0.0
C1997 C 0.23614 0.77485 0.59835 0.0
C1998 C 0.21328 0.74292 0.60358 0.0
H1999 H 0.31623 0.8077 0.59561 0.0
H2000 H 0.20377 0.79432 0.594 0.0
S2001 S 0.30967 0.67001 0.61855 0.0
N2002 N 0.36098 0.70083 0.61547 0.0
N2003 N 0.24037 0.6862 0.61354 0.0
C2004 C 0.25697 0.71834 0.60909 0.0
C2005 C 0.32227 0.72621 0.61009 0.0
C2006 C 1.01761 0.72505 0.71936 0.0
C2007 C 0.99648 0.75837 0.72234 0.0
C2008 C 0.08178 0.71701 0.7196 0.0
C2009 C 0.12755 0.74194 0.72282 0.0
H2010 H 0.98423 0.70513 0.71644 0.0
H2011 H 0.09581 0.69112 0.71687 0.0
S2012 S 0.09698 0.83297 0.73159 0.0
N2013 N 1.02629 0.81642 0.72893 0.0
N2014 N 0.14724 0.80127 0.72935 0.0
C2015 C 0.10707 0.77516 0.7264 0.0
C2016 C 0.04147 0.78338 0.72617 0.0
C2017 C 0.25051 0.50758 0.72804 0.0
C2018 C 0.2065 0.48097 0.72754 0.0
C2019 C 0.31525 0.50122 0.72713 0.0
C2020 C 0.3388 0.46797 0.72573 0.0
H2021 H 0.23483 0.53372 0.72843 0.0
H2022 H 0.34719 0.5226 0.72714 0.0
S2023 S 0.24394 0.38909 0.72516 0.0
N2024 N 0.19138 0.41984 0.72673 0.0
N2025 N 0.31323 0.40795 0.72462 0.0
C2026 C 0.29561 0.44099 0.72589 0.0
C2027 C 0.22948 0.44747 0.72683 0.0
C2028 C 1.00415 0.46622 0.46741 0.0
C2029 C 0.95864 0.49221 0.46669 0.0
C2030 C 0.06883 0.47354 0.46753 0.0
C2031 C 0.09078 0.50718 0.46692 0.0
H2032 H 0.98966 0.43994 0.46821 0.0
H2033 H 0.10189 0.45268 0.46844 0.0
S2034 S 0.99138 0.58441 0.46321 0.0
N2035 N 0.94047 0.55289 0.46428 0.0
N2036 N 0.06165 0.56667 0.46438 0.0
C2037 C 0.04582 0.5334 0.46581 0.0
C2038 C 0.97997 0.52593 0.46574 0.0
C2039 C 0.84654 0.20983 0.47635 0.0
C2040 C 0.86897 0.24146 0.47051 0.0
C2041 C 0.78204 0.20199 0.47574 0.0
C2042 C 0.73818 0.22552 0.46925 0.0
H2043 H 0.87925 0.19065 0.48083 0.0
H2044 H 0.76667 0.177 0.47976 0.0
S2045 S 0.77157 0.31328 0.45469 0.0
N2046 N 0.84116 0.29755 0.4598 0.0
N2047 N 0.72058 0.28257 0.45842 0.0
C2048 C 0.75967 0.25767 0.46416 0.0
C2049 C 0.82491 0.2657 0.46485 0.0
C2050 C 0.05509 0.23744 0.33988 0.0
C2051 C 0.07736 0.21118 0.35066 0.0
C2052 C 0.99088 0.2454 0.33901 0.0
C2053 C 0.94614 0.22735 0.34881 0.0
H2054 H 0.08771 0.2523 0.3322 0.0
H2055 H 0.97618 0.26619 0.33074 0.0
S2056 S 0.97939 0.15631 0.37909 0.0
N2057 N 0.0491 0.16706 0.37137 0.0
N2058 N 0.92837 0.18184 0.36955 0.0
C2059 C 0.96736 0.20043 0.35929 0.0
C2060 C 1.0329 0.19239 0.36025 0.0
C2061 C 0.8344 0.48742 0.34456 0.0
C2062 C 0.86846 0.48277 0.36004 0.0
C2063 C 0.76949 0.49381 0.34483 0.0
C2064 C 0.73593 0.49566 0.36059 0.0
H2065 H 0.85828 0.48643 0.33212 0.0
H2066 H 0.74556 0.49779 0.33258 0.0
S2067 S 0.80234 0.48268 0.40469 0.0
N2068 N 0.8634 0.47888 0.39154 0.0
N2069 N 0.74132 0.4906 0.39206 0.0
C2070 C 0.76932 0.49064 0.37617 0.0
C2071 C 0.83553 0.48427 0.37589 0.0
C2072 C 1.03801 0.94353 0.10557 0.0
C2073 C 0.99202 0.96807 0.10161 0.0
C2074 C 0.10242 0.95103 0.10449 0.0
C2075 C 0.12351 0.9834 0.09941 0.0
H2076 H 1.02407 0.91838 0.10972 0.0
H2077 H 0.13602 0.9314 0.10781 0.0
S2078 S 1.0222 0.05702 0.08825 0.0
N2079 N 0.97213 0.02623 0.09267 0.0
N2080 N 0.09294 0.04038 0.09069 0.0
C2081 C 0.078 0.00804 0.09518 0.0
C2082 C 1.01241 0.00037 0.09626 0.0
C2083 C 0.23311 0.26227 0.11532 0.0
C2084 C 0.20581 0.2506 0.09978 0.0
C2085 C 0.29742 0.26997 0.11629 0.0
C2086 C 0.33727 0.26635 0.10178 0.0
H2087 H 0.20486 0.26464 0.12698 0.0
H2088 H 0.31638 0.27801 0.12868 0.0
S2089 S 0.28809 0.23998 0.05756 0.0
N2090 N 0.22289 0.23802 0.06922 0.0
N2091 N 0.34373 0.25251 0.07105 0.0
C2092 C 0.31032 0.25554 0.08603 0.0
C2093 C 0.24473 0.24768 0.08504 0.0
C2094 C 1.01038 0.23404 0.22055 0.0
C2095 C 0.98817 0.2672 0.22342 0.0
C2096 C 0.07482 0.22647 0.22102 0.0
C2097 C 0.11995 0.25171 0.22444 0.0
H2098 H 0.97781 0.21389 0.21737 0.0
H2099 H 0.08946 0.20076 0.21815 0.0
S2100 S 0.08596 0.34199 0.23448 0.0
N2101 N 1.01612 0.32513 0.23088 0.0
N2102 N 0.13727 0.31089 0.23192 0.0
C2103 C 0.09828 0.28483 0.22783 0.0
C2104 C 1.03251 0.29257 0.22728 0.0
C2105 C 0.31838 0.01025 0.2148 0.0
C2106 C 0.34023 0.97656 0.21533 0.0
C2107 C 0.25374 0.0177 0.21489 0.0
C2108 C 0.20814 -0.00821 0.21538 0.0
H2109 H 0.35152 0.03109 0.21471 0.0
H2110 H 0.23934 0.04405 0.21456 0.0
S2111 S 0.24063 0.89925 0.21615 0.0
N2112 N 0.31095 0.91695 0.21561 0.0
N2113 N 0.18978 0.93095 0.21618 0.0
C2114 C 0.22936 0.95796 0.21559 0.0
C2115 C 0.2952 0.95037 0.21551 0.0
C2116 C 0.99552 0.98505 0.9516 0.0
C2117 C 0.95861 0.98249 0.96677 0.0
C2118 C 0.06044 -0.00851 0.95247 0.0
C2119 C 0.09103 -0.00438 0.96854 0.0
H2120 H 0.97389 0.98248 0.93894 0.0
H2121 H 0.08668 -0.00612 0.94046 0.0
S2122 S 1.01711 0.988 1.01208 0.0
N2123 N 0.95844 0.98239 0.99835 0.0
N2124 N 0.08014 -0.00547 0.99998 0.0
C2125 C 0.05492 -0.00754 0.9838 0.0
C2126 C 0.98888 0.98591 0.98292 0.0
C2127 C 0.85218 0.69962 0.97214 0.0
C2128 C 0.87554 0.73227 0.97574 0.0
C2129 C 0.7873 0.69303 0.97207 0.0
C2130 C 0.74334 0.71891 0.97548 0.0
H2131 H 0.88428 0.67918 0.96897 0.0
H2132 H 0.77142 0.66785 0.96858 0.0
S2133 S 0.78004 0.80813 0.98683 0.0
N2134 N 0.84941 0.79039 0.98351 0.0
N2135 N 0.72783 0.77777 0.98382 0.0
C2136 C 0.76617 0.75126 0.97985 0.0
C2137 C 0.83212 0.75799 0.97989 0.0
C2138 C 0.06919 0.74916 0.84993 0.0
C2139 C 0.09025 0.71606 0.85346 0.0
C2140 C 1.00496 0.75681 0.84907 0.0
C2141 C 0.95895 0.73171 0.85178 0.0
H2142 H 0.10276 0.76952 0.84813 0.0
H2143 H 0.99117 0.78281 0.84656 0.0
S2144 S 0.98946 0.6408 0.86111 0.0
N2145 N 0.06023 0.65768 0.85926 0.0
N2146 N 0.93915 0.67208 0.85774 0.0
C2147 C 0.97931 0.6982 0.85474 0.0
C2148 C 0.04501 0.69038 0.85557 0.0
C2149 C 0.7748 0.01081 0.84354 0.0
C2150 C 0.742 0.00768 0.85935 0.0
C2151 C 0.83909 0.00286 0.84236 0.0
C2152 C 0.87308 -0.00873 0.85691 0.0
H2153 H 0.75071 0.01985 0.83203 0.0
H2154 H 0.86251 0.00609 0.82996 0.0
S2155 S 0.80745 0.9759 0.90098 0.0
N2156 N 0.74738 -0.00939 0.88966 0.0
N2157 N 0.86771 0.97523 0.88742 0.0
C2158 C 0.84046 0.98756 0.87275 0.0
C2159 C 0.77513 -0.00416 0.87396 0.0
C2160 C 0.07957 0.46481 0.04315 0.0
C2161 C 0.05837 0.48687 0.05635 0.0
C2162 C 0.06913 0.47178 1.02548 0.0
C2163 C 1.03829 0.50156 1.02019 0.0
H2164 H 0.10499 0.4419 0.04651 0.0
H2165 H 0.08598 0.45384 1.01589 0.0
S2166 S 0.9743 0.56813 0.0496 0.0
N2167 N 1.0048 0.53963 0.06288 0.0
N2168 N 0.98644 0.55351 1.02977 0.0
C2169 C 1.01678 0.52394 1.03328 0.0
C2170 C 1.02636 0.51638 0.05132 0.0
C2171 C 0.34283 0.72211 1.03392 0.0
C2172 C 0.3048 0.73202 1.01974 0.0
C2173 C 0.32542 0.729 0.05121 0.0
C2174 C 0.26928 0.74615 0.05504 0.0
H2175 H 0.38686 0.70896 1.03169 0.0
H2176 H 0.35625 0.72096 0.06159 0.0
S2177 S 0.15208 0.77675 1.02275 0.0
N2178 N 0.20787 0.75917 1.01083 0.0
N2179 N 0.17487 0.77243 0.04312 0.0
C2180 C 0.23057 0.75599 0.04097 0.0
C2181 C 0.24835 0.74887 1.02339 0.0
C2182 C 0.066 0.75229 0.30152 0.0
C2183 C 1.01198 0.73333 0.30531 0.0
C2184 C 0.0842 0.75863 0.28427 0.0
C2185 C 0.04894 0.74651 0.27003 0.0
H2186 H 0.09437 0.76246 0.31191 0.0
H2187 H 0.12667 0.77319 0.28211 0.0
S2188 S 0.90155 0.69695 0.27285 0.0
N2189 N 0.9219 0.70327 0.2933 0.0
N2190 N 0.95621 0.71565 0.26098 0.0
C2191 C 0.99413 0.72812 0.27361 0.0
C2192 C 0.97563 0.72146 0.29121 0.0
C2193 C 0.24325 0.46162 0.284 0.0
C2194 C 0.26522 0.48327 0.2707 0.0
C2195 C 0.25365 0.46875 0.30166 0.0
C2196 C 0.28533 0.49828 0.30683 0.0
H2197 H 0.2172 0.43891 0.28073 0.0
H2198 H 0.23611 0.45115 0.31133 0.0
S2199 S 0.35192 0.56365 0.27713 0.0
N2200 N 0.32052 0.53533 0.26398 0.0
N2201 N 0.33906 0.54946 0.29702 0.0
C2202 C 0.3077 0.5202 0.29364 0.0
C2203 C 0.29804 0.5125 0.27563 0.0
C2204 C 0.84094 0.22457 1.0329 0.0
C2205 C 0.80224 0.23386 1.01874 0.0
C2206 C 0.82337 0.23124 0.0502 0.0
C2207 C 0.76634 0.24752 0.05405 0.0
H2208 H 0.88559 0.21206 1.03063 0.0
H2209 H 0.85471 0.22372 0.06059 0.0
S2210 S 0.64742 0.27644 1.0218 0.0
N2211 N 0.70397 0.25959 1.00988 0.0
N2212 N 0.67059 0.27247 0.04216 0.0
C2213 C 0.72706 0.25681 0.04 0.0
C2214 C 0.74504 0.24991 1.02242 0.0
C2215 C 0.98607 0.22921 0.79008 0.0
C2216 C 1.02794 0.23397 0.80412 0.0
C2217 C 1.00437 0.23539 0.7728 0.0
C2218 C 0.0653 0.2466 0.76885 0.0
H2219 H 0.93833 0.22082 0.79246 0.0
H2220 H 0.97033 0.23182 0.76253 0.0
S2221 S 0.19434 0.26058 0.80065 0.0
N2222 N 0.13391 0.24871 0.81269 0.0
N2223 N 0.16861 0.26085 0.78042 0.0
C2224 C 0.10793 0.25099 0.78274 0.0
C2225 C 0.08922 0.24456 0.80031 0.0
C2226 C 0.75596 0.48484 0.80199 0.0
C2227 C 0.81671 0.4964 0.80584 0.0
C2228 C 0.73739 0.479 0.78471 0.0
C2229 C 0.77878 0.48445 0.77059 0.0
H2230 H 0.72233 0.48067 0.81235 0.0
H2231 H 0.68982 0.47031 0.78241 0.0
S2232 S 0.94457 0.51217 0.77377 0.0
N2233 N 0.91934 0.51172 0.79407 0.0
N2234 N 0.88416 0.50019 0.76182 0.0
C2235 C 0.83988 0.49539 0.77429 0.0
C2236 C 0.85886 0.50148 0.79185 0.0
C2237 C 1.03615 0.01797 0.54895 0.0
C2238 C 0.04287 0.98439 0.55488 0.0
C2239 C 1.03473 0.02557 0.53108 0.0
C2240 C 0.04008 -4e-05 0.51837 0.0
H2241 H 1.03278 0.03864 0.55817 0.0
H2242 H 1.02894 0.0518 0.52719 0.0
S2243 S 0.05712 0.90777 0.52705 0.0
N2244 N 0.05357 0.92516 0.54653 0.0
N2245 N 0.05183 0.93951 0.51313 0.0
C2246 C 0.04683 0.96629 0.52414 0.0
C2247 C 0.04776 0.95851 0.54232 0.0
C2248 C 0.24919 0.24986 0.52205 0.0
C2249 C 0.31056 0.23921 0.51811 0.0
C2250 C 0.23066 0.25596 0.53936 0.0
C2251 C 0.27267 0.25166 0.55342 0.0
H2252 H 0.21503 0.25308 0.51177 0.0
H2253 H 0.18262 0.26392 0.54173 0.0
S2254 S 0.44021 0.22693 0.54995 0.0
N2255 N 0.41444 0.2262 0.52973 0.0
N2256 N 0.37932 0.2382 0.56197 0.0
C2257 C 0.33437 0.2417 0.54961 0.0
C2258 C 0.35333 0.23536 0.53204 0.0
C2259 C 0.25783 0.9849 0.80023 0.0
C2260 C 0.31905 -0.00497 0.80445 0.0
C2261 C 0.23973 0.9802 0.78284 0.0
C2262 C 0.28204 0.98546 0.76892 0.0
H2263 H 0.22335 0.98103 0.81036 0.0
H2264 H 0.19172 0.9725 0.78032 0.0
S2265 S 0.44924 0.01009 0.77299 0.0
N2266 N 0.42312 0.00907 0.79321 0.0
N2267 N 0.3887 -0.00022 0.76068 0.0
C2268 C 0.34361 -0.00486 0.77295 0.0
C2269 C 0.36217 3e-05 0.79066 0.0
C2270 C 0.84857 0.72826 0.53344 0.0
C2271 C 0.8085 0.73493 0.5192 0.0
C2272 C 0.82998 0.73485 0.55064 0.0
C2273 C 0.7705 0.74841 0.55436 0.0
H2274 H 0.89518 0.71792 0.53131 0.0
H2275 H 0.86266 0.72956 0.56103 0.0
S2276 S 0.64646 0.76895 0.52193 0.0
N2277 N 0.70578 0.75469 0.51014 0.0
N2278 N 0.67053 0.7675 0.54231 0.0
C2279 C 0.72965 0.75496 0.54026 0.0
C2280 C 0.74868 0.74813 0.52274 0.0
C2281 C 0.79756 0.01306 0.27433 0.0
C2282 C 0.79268 0.97959 0.26819 0.0
C2283 C 0.79954 0.02009 0.29223 0.0
C2284 C 0.79666 -0.006 0.30476 0.0
H2285 H 0.79873 0.03408 0.26526 0.0
H2286 H 0.80342 0.0463 0.29629 0.0
S2287 S 0.78651 0.90185 0.29549 0.0
N2288 N 0.78721 0.9199 0.27612 0.0
N2289 N 0.79035 0.93321 0.30964 0.0
C2290 C 0.79236 0.9604 0.2988 0.0
C2291 C 0.79073 0.9532 0.28057 0.0
C2292 C 0.58023 0.467 0.54284 0.0
C2293 C 0.55949 0.48884 0.55618 0.0
C2294 C 0.57097 0.47478 0.52522 0.0
C2295 C 0.54168 0.50513 0.52014 0.0
H2296 H 0.60452 0.44365 0.54604 0.0
H2297 H 0.58747 0.45699 0.51551 0.0
S2298 S 0.47931 0.57138 0.54999 0.0
N2299 N 0.50806 0.54204 0.56308 0.0
N2300 N 0.49161 0.55735 0.53005 0.0
C2301 C 0.52054 0.52728 0.53337 0.0
C2302 C 0.52905 0.51895 0.55136 0.0
C2303 C 0.57597 0.75107 0.80103 0.0
C2304 C 0.52121 0.7327 0.80479 0.0
C2305 C 0.59356 0.75794 0.78375 0.0
C2306 C 0.55709 0.74678 0.76952 0.0
H2307 H 0.60542 0.76024 0.81145 0.0
H2308 H 0.63644 0.77212 0.78156 0.0
S2309 S 0.40884 0.69802 0.77233 0.0
N2310 N 0.4301 0.70355 0.79275 0.0
N2311 N 0.46344 0.71681 0.76049 0.0
C2312 C 0.50213 0.72859 0.77311 0.0
C2313 C 0.48417 0.72147 0.79067 0.0
C2314 C 0.57235 0.24242 0.29914 0.0
C2315 C 0.51118 0.23118 0.30279 0.0
C2316 C 0.5913 0.24944 0.28197 0.0
C2317 C 0.5499 0.24548 0.26777 0.0
H2318 H 0.60605 0.24538 0.30954 0.0
H2319 H 0.63917 0.25784 0.27982 0.0
S2320 S 0.38326 0.21895 0.27044 0.0
N2321 N 0.40824 0.21767 0.29073 0.0
N2322 N 0.44417 0.23132 0.25873 0.0
C2323 C 0.48843 0.23481 0.27128 0.0
C2324 C 0.46904 0.22756 0.28871 0.0
C2325 C 0.58862 0.96359 0.04121 0.0
C2326 C 0.56547 0.98501 0.05444 0.0
C2327 C 0.57864 0.97076 1.02353 0.0
C2328 C 0.54633 0.00013 1.01831 0.0
H2329 H 0.61509 0.94102 0.04455 0.0
H2330 H 0.59687 0.95332 1.01388 0.0
S2331 S 0.47729 0.06504 0.04786 0.0
N2332 N 0.50877 0.03674 0.06107 0.0
N2333 N 0.49124 0.05106 1.02801 0.0
C2334 C 0.5231 0.02191 1.03145 0.0
C2335 C 0.53221 0.01412 0.04946 0.0
loop_
_geom_bond_atom_site_label_1
_geom_bond_atom_site_label_2
_geom_bond_distance
_geom_bond_site_symmetry_2
_ccdc_geom_bond_type
Tb0 C2 2.809 . S
Tb0 O20 2.484 . S
Tb0 O21 2.440 . S
Tb0 O22 2.658 1_655 S
Tb0 O23 2.409 . S
Tb0 O24 2.378 . S
Tb0 O28 2.325 1_655 S
Tb0 O31 2.341 1_655 S
Tb1 C11 2.809 . S
Tb1 O22 2.325 . S
Tb1 O25 2.341 . S
Tb1 O26 2.484 . S
Tb1 O27 2.440 . S
Tb1 O28 2.658 . S
Tb1 O29 2.409 . S
Tb1 O30 2.378 . S
C2 Tb0 2.809 . S
C2 C3 1.514 . S
C2 O20 1.248 . S
C2 O21 1.266 . S
C3 C2 1.514 . S
C3 C4 1.359 . S
C3 C8 1.348 . S
C4 C3 1.359 . S
C4 C5 1.380 . S
C4 H32 0.929 . S
C5 C4 1.380 . S
C5 C6 1.347 . S
C5 H33 0.931 . S
C6 C5 1.347 . S
C6 C7 1.369 . S
C7 C6 1.369 . S
C7 C8 1.408 . S
C7 H34 0.930 . S
C8 C3 1.348 . S
C8 C7 1.408 . S
C8 H35 0.930 . S
C9 O22 1.281 . S
C9 O23 1.254 1_455 S
C10 O24 1.236 . S
C10 O25 1.266 1_655 S
C11 Tb1 2.809 . S
C11 C12 1.514 . S
C11 O26 1.248 . S
C11 O27 1.266 . S
C12 C11 1.514 . S
C12 C13 1.359 . S
C12 C17 1.348 . S
C13 C12 1.359 . S
C13 C14 1.380 . S
C13 H36 0.929 . S
C14 C13 1.380 . S
C14 C15 1.347 . S
C14 H37 0.931 . S
C15 C14 1.347 . S
C15 C16 1.369 . S
C16 C15 1.369 . S
C16 C17 1.408 . S
C16 H38 0.930 . S
C17 C12 1.348 . S
C17 C16 1.408 . S
C17 H39 0.930 . S
C18 O28 1.281 . S
C18 O29 1.254 . S
C19 O30 1.236 . S
C19 O31 1.266 . S
O20 Tb0 2.484 . S
O20 C2 1.248 . S
O21 Tb0 2.440 . S
O21 C2 1.266 . S
O22 Tb0 2.658 1_455 S
O22 Tb1 2.325 . S
O22 C9 1.281 . S
O23 Tb0 2.409 . S
O23 C9 1.254 1_655 S
O24 Tb0 2.378 . S
O24 C10 1.236 . S
O25 Tb1 2.341 . S
O25 C10 1.266 1_455 S
O26 Tb1 2.484 . S
O26 C11 1.248 . S
O27 Tb1 2.440 . S
O27 C11 1.266 . S
O28 Tb0 2.325 1_455 S
O28 Tb1 2.658 . S
O28 C18 1.281 . S
O29 Tb1 2.409 . S
O29 C18 1.254 . S
O30 Tb1 2.378 . S
O30 C19 1.236 . S
O31 Tb0 2.341 1_455 S
O31 C19 1.266 . S
H32 C4 0.929 . S
H33 C5 0.931 . S
H34 C7 0.930 . S
H35 C8 0.930 . S
H36 C13 0.929 . S
H37 C14 0.931 . S
H38 C16 0.930 . S
H39 C17 0.930 . S
Tb40 C42 2.809 . S
Tb40 O60 2.484 . S
Tb40 O61 2.440 . S
Tb40 O62 2.658 . S
Tb40 O63 2.409 . S
Tb40 O64 2.378 . S
Tb40 O68 2.325 . S
Tb40 O71 2.341 . S
Tb41 C51 2.809 . S
Tb41 O62 2.325 . S
Tb41 O65 2.341 . S
Tb41 O66 2.484 . S
Tb41 O67 2.440 . S
Tb41 O68 2.658 . S
Tb41 O69 2.409 . S
Tb41 O70 2.378 . S
C42 Tb40 2.809 . S
C42 C43 1.514 . S
C42 O60 1.248 . S
C42 O61 1.266 . S
C43 C42 1.514 . S
C43 C44 1.359 . S
C43 C48 1.348 . S
C44 C43 1.359 . S
C44 C45 1.380 . S
C44 H72 0.929 . S
C45 C44 1.380 . S
C45 C46 1.347 . S
C45 H73 0.931 . S
C46 C45 1.347 . S
C46 C47 1.369 . S
C47 C46 1.369 . S
C47 C48 1.408 . S
C47 H74 0.930 . S
C48 C43 1.348 . S
C48 C47 1.408 . S
C48 H75 0.930 . S
C49 O62 1.281 . S
C49 O63 1.254 . S
C50 O64 1.236 . S
C50 O65 1.266 . S
C51 Tb41 2.809 . S
C51 C52 1.514 1_455 S
C51 O66 1.248 . S
C51 O67 1.266 . S
C52 C51 1.514 1_655 S
C52 C53 1.359 . S
C52 C57 1.348 . S
C53 C52 1.359 . S
C53 C54 1.380 . S
C53 H76 0.929 . S
C54 C53 1.380 . S
C54 C55 1.347 . S
C54 H77 0.931 . S
C55 C54 1.347 . S
C55 C56 1.369 . S
C56 C55 1.369 . S
C56 C57 1.408 . S
C56 H78 0.930 . S
C57 C52 1.348 . S
C57 C56 1.408 . S
C57 H79 0.930 . S
C58 O68 1.281 . S
C58 O69 1.254 . S
C59 O70 1.236 . S
C59 O71 1.266 . S
O60 Tb40 2.484 . S
O60 C42 1.248 . S
O61 Tb40 2.440 . S
O61 C42 1.266 . S
O62 Tb40 2.658 . S
O62 Tb41 2.325 . S
O62 C49 1.281 . S
O63 Tb40 2.409 . S
O63 C49 1.254 . S
O64 Tb40 2.378 . S
O64 C50 1.236 . S
O65 Tb41 2.341 . S
O65 C50 1.266 . S
O66 Tb41 2.484 . S
O66 C51 1.248 . S
O67 Tb41 2.440 . S
O67 C51 1.266 . S
O68 Tb40 2.325 . S
O68 Tb41 2.658 . S
O68 C58 1.281 . S
O69 Tb41 2.409 . S
O69 C58 1.254 . S
O70 Tb41 2.378 . S
O70 C59 1.236 . S
O71 Tb40 2.341 . S
O71 C59 1.266 . S
H72 C44 0.929 . S
H73 C45 0.931 . S
H74 C47 0.930 . S
H75 C48 0.930 . S
H76 C53 0.929 . S
H77 C54 0.931 . S
H78 C56 0.930 . S
H79 C57 0.930 . S
Tb80 C82 2.809 . S
Tb80 O100 2.484 . S
Tb80 O101 2.440 . S
Tb80 O102 2.658 1_655 S
Tb80 O103 2.409 . S
Tb80 O104 2.378 . S
Tb80 O108 2.325 1_655 S
Tb80 O111 2.341 1_655 S
Tb81 C91 2.809 . S
Tb81 O102 2.325 . S
Tb81 O105 2.341 . S
Tb81 O106 2.484 . S
Tb81 O107 2.440 . S
Tb81 O108 2.658 . S
Tb81 O109 2.409 . S
Tb81 O110 2.378 . S
C82 Tb80 2.809 . S
C82 C83 1.514 . S
C82 O100 1.248 . S
C82 O101 1.266 . S
C83 C82 1.514 . S
C83 C84 1.359 . S
C83 C88 1.348 . S
C84 C83 1.359 . S
C84 C85 1.380 . S
C84 H112 0.929 . S
C85 C84 1.380 . S
C85 C86 1.347 . S
C85 H113 0.931 . S
C86 C85 1.347 . S
C86 C87 1.369 . S
C87 C86 1.369 . S
C87 C88 1.408 . S
C87 H114 0.930 . S
C88 C83 1.348 . S
C88 C87 1.408 . S
C88 H115 0.930 . S
C89 O102 1.281 . S
C89 O103 1.254 1_455 S
C90 O104 1.236 . S
C90 O105 1.266 1_655 S
C91 Tb81 2.809 . S
C91 C92 1.514 . S
C91 O106 1.248 . S
C91 O107 1.266 . S
C92 C91 1.514 . S
C92 C93 1.359 . S
C92 C97 1.348 . S
C93 C92 1.359 . S
C93 C94 1.380 . S
C93 H116 0.929 . S
C94 C93 1.380 . S
C94 C95 1.347 . S
C94 H117 0.931 . S
C95 C94 1.347 . S
C95 C96 1.369 . S
C96 C95 1.369 . S
C96 C97 1.408 . S
C96 H118 0.930 . S
C97 C92 1.348 . S
C97 C96 1.408 . S
C97 H119 0.930 . S
C98 O108 1.281 . S
C98 O109 1.254 . S
C99 O110 1.236 . S
C99 O111 1.266 . S
O100 Tb80 2.484 . S
O100 C82 1.248 . S
O101 Tb80 2.440 . S
O101 C82 1.266 . S
O102 Tb80 2.658 1_455 S
O102 Tb81 2.325 . S
O102 C89 1.281 . S
O103 Tb80 2.409 . S
O103 C89 1.254 1_655 S
O104 Tb80 2.378 . S
O104 C90 1.236 . S
O105 Tb81 2.341 . S
O105 C90 1.266 1_455 S
O106 Tb81 2.484 . S
O106 C91 1.248 . S
O107 Tb81 2.440 . S
O107 C91 1.266 . S
O108 Tb80 2.325 1_455 S
O108 Tb81 2.658 . S
O108 C98 1.281 . S
O109 Tb81 2.409 . S
O109 C98 1.254 . S
O110 Tb81 2.378 . S
O110 C99 1.236 . S
O111 Tb80 2.341 1_455 S
O111 C99 1.266 . S
H112 C84 0.929 . S
H113 C85 0.931 . S
H114 C87 0.930 . S
H115 C88 0.930 . S
H116 C93 0.929 . S
H117 C94 0.931 . S
H118 C96 0.930 . S
H119 C97 0.930 . S
Tb120 C122 2.809 . S
Tb120 O140 2.484 . S
Tb120 O141 2.440 . S
Tb120 O142 2.658 . S
Tb120 O143 2.409 . S
Tb120 O144 2.378 . S
Tb120 O148 2.325 . S
Tb120 O151 2.341 . S
Tb121 C131 2.809 . S
Tb121 O142 2.325 . S
Tb121 O145 2.341 . S
Tb121 O146 2.484 . S
Tb121 O147 2.440 . S
Tb121 O148 2.658 . S
Tb121 O149 2.409 . S
Tb121 O150 2.378 . S
C122 Tb120 2.809 . S
C122 C123 1.514 . S
C122 O140 1.248 . S
C122 O141 1.266 . S
C123 C122 1.514 . S
C123 C124 1.359 . S
C123 C128 1.348 . S
C124 C123 1.359 . S
C124 C125 1.380 . S
C124 H152 0.929 . S
C125 C124 1.380 . S
C125 C126 1.347 . S
C125 H153 0.931 . S
C126 C125 1.347 . S
C126 C127 1.369 . S
C127 C126 1.369 . S
C127 C128 1.408 . S
C127 H154 0.930 . S
C128 C123 1.348 . S
C128 C127 1.408 . S
C128 H155 0.930 . S
C129 O142 1.281 . S
C129 O143 1.254 . S
C130 O144 1.236 . S
C130 O145 1.266 . S
C131 Tb121 2.809 . S
C131 C132 1.514 1_455 S
C131 O146 1.248 . S
C131 O147 1.266 . S
C132 C131 1.514 1_655 S
C132 C133 1.359 . S
C132 C137 1.348 . S
C133 C132 1.359 . S
C133 C134 1.380 . S
C133 H156 0.929 . S
C134 C133 1.380 . S
C134 C135 1.347 . S
C134 H157 0.931 . S
C135 C134 1.347 . S
C135 C136 1.369 . S
C136 C135 1.369 . S
C136 C137 1.408 . S
C136 H158 0.930 . S
C137 C132 1.348 . S
C137 C136 1.408 . S
C137 H159 0.930 . S
C138 O148 1.281 . S
C138 O149 1.254 . S
C139 O150 1.236 . S
C139 O151 1.266 . S
O140 Tb120 2.484 . S
O140 C122 1.248 . S
O141 Tb120 2.440 . S
O141 C122 1.266 . S
O142 Tb120 2.658 . S
O142 Tb121 2.325 . S
O142 C129 1.281 . S
O143 Tb120 2.409 . S
O143 C129 1.254 . S
O144 Tb120 2.378 . S
O144 C130 1.236 . S
O145 Tb121 2.341 . S
O145 C130 1.266 . S
O146 Tb121 2.484 . S
O146 C131 1.248 . S
O147 Tb121 2.440 . S
O147 C131 1.266 . S
O148 Tb120 2.325 . S
O148 Tb121 2.658 . S
O148 C138 1.281 . S
O149 Tb121 2.409 . S
O149 C138 1.254 . S
O150 Tb121 2.378 . S
O150 C139 1.236 . S
O151 Tb120 2.341 . S
O151 C139 1.266 . S
H152 C124 0.929 . S
H153 C125 0.931 . S
H154 C127 0.930 . S
H155 C128 0.930 . S
H156 C133 0.929 . S
H157 C134 0.931 . S
H158 C136 0.930 . S
H159 C137 0.930 . S
Tb160 C162 2.809 . S
Tb160 O180 2.484 . S
Tb160 O181 2.440 . S
Tb160 O182 2.658 . S
Tb160 O183 2.409 . S
Tb160 O184 2.378 . S
Tb160 O188 2.325 . S
Tb160 O191 2.341 . S
Tb161 C171 2.809 . S
Tb161 O182 2.325 1_455 S
Tb161 O185 2.341 1_455 S
Tb161 O186 2.484 . S
Tb161 O187 2.440 . S
Tb161 O188 2.658 1_455 S
Tb161 O189 2.409 . S
Tb161 O190 2.378 . S
C162 Tb160 2.809 . S
C162 C163 1.514 . S
C162 O180 1.248 . S
C162 O181 1.266 . S
C163 C162 1.514 . S
C163 C164 1.359 . S
C163 C168 1.348 . S
C164 C163 1.359 . S
C164 C165 1.380 . S
C164 H192 0.929 . S
C165 C164 1.380 . S
C165 C166 1.347 . S
C165 H193 0.931 . S
C166 C165 1.347 . S
C166 C167 1.369 . S
C167 C166 1.369 . S
C167 C168 1.408 . S
C167 H194 0.930 . S
C168 C163 1.348 . S
C168 C167 1.408 . S
C168 H195 0.930 . S
C169 O182 1.281 . S
C169 O183 1.254 . S
C170 O184 1.236 . S
C170 O185 1.266 . S
C171 Tb161 2.809 . S
C171 C172 1.514 . S
C171 O186 1.248 . S
C171 O187 1.266 . S
C172 C171 1.514 . S
C172 C173 1.359 . S
C172 C177 1.348 . S
C173 C172 1.359 . S
C173 C174 1.380 . S
C173 H196 0.929 . S
C174 C173 1.380 . S
C174 C175 1.347 . S
C174 H197 0.931 . S
C175 C174 1.347 . S
C175 C176 1.369 . S
C176 C175 1.369 . S
C176 C177 1.408 . S
C176 H198 0.930 . S
C177 C172 1.348 . S
C177 C176 1.408 . S
C177 H199 0.930 . S
C178 O188 1.281 . S
C178 O189 1.254 1_655 S
C179 O190 1.236 . S
C179 O191 1.266 1_455 S
O180 Tb160 2.484 . S
O180 C162 1.248 . S
O181 Tb160 2.440 . S
O181 C162 1.266 . S
O182 Tb160 2.658 . S
O182 Tb161 2.325 1_655 S
O182 C169 1.281 . S
O183 Tb160 2.409 . S
O183 C169 1.254 . S
O184 Tb160 2.378 . S
O184 C170 1.236 . S
O185 Tb161 2.341 1_655 S
O185 C170 1.266 . S
O186 Tb161 2.484 . S
O186 C171 1.248 . S
O187 Tb161 2.440 . S
O187 C171 1.266 . S
O188 Tb160 2.325 . S
O188 Tb161 2.658 1_655 S
O188 C178 1.281 . S
O189 Tb161 2.409 . S
O189 C178 1.254 1_455 S
O190 Tb161 2.378 . S
O190 C179 1.236 . S
O191 Tb160 2.341 . S
O191 C179 1.266 1_655 S
H192 C164 0.929 . S
H193 C165 0.931 . S
H194 C167 0.930 . S
H195 C168 0.930 . S
H196 C173 0.929 . S
H197 C174 0.931 . S
H198 C176 0.930 . S
H199 C177 0.930 . S
Tb200 C202 2.809 . S
Tb200 O220 2.484 . S
Tb200 O221 2.440 . S
Tb200 O222 2.658 . S
Tb200 O223 2.409 . S
Tb200 O224 2.378 . S
Tb200 O228 2.325 . S
Tb200 O231 2.341 . S
Tb201 C211 2.809 . S
Tb201 O222 2.325 . S
Tb201 O225 2.341 . S
Tb201 O226 2.484 . S
Tb201 O227 2.440 . S
Tb201 O228 2.658 . S
Tb201 O229 2.409 . S
Tb201 O230 2.378 . S
C202 Tb200 2.809 . S
C202 C203 1.514 1_655 S
C202 O220 1.248 . S
C202 O221 1.266 . S
C203 C202 1.514 1_455 S
C203 C204 1.359 . S
C203 C208 1.348 . S
C204 C203 1.359 . S
C204 C205 1.380 . S
C204 H232 0.929 . S
C205 C204 1.380 . S
C205 C206 1.347 . S
C205 H233 0.931 . S
C206 C205 1.347 . S
C206 C207 1.369 . S
C207 C206 1.369 . S
C207 C208 1.408 . S
C207 H234 0.930 . S
C208 C203 1.348 . S
C208 C207 1.408 . S
C208 H235 0.930 . S
C209 O222 1.281 . S
C209 O223 1.254 . S
C210 O224 1.236 . S
C210 O225 1.266 . S
C211 Tb201 2.809 . S
C211 C212 1.514 . S
C211 O226 1.248 . S
C211 O227 1.266 . S
C212 C211 1.514 . S
C212 C213 1.359 . S
C212 C217 1.348 . S
C213 C212 1.359 . S
C213 C214 1.380 . S
C213 H236 0.929 . S
C214 C213 1.380 . S
C214 C215 1.347 . S
C214 H237 0.931 . S
C215 C214 1.347 . S
C215 C216 1.369 . S
C216 C215 1.369 . S
C216 C217 1.408 . S
C216 H238 0.930 . S
C217 C212 1.348 . S
C217 C216 1.408 . S
C217 H239 0.930 . S
C218 O228 1.281 . S
C218 O229 1.254 . S
C219 O230 1.236 . S
C219 O231 1.266 . S
O220 Tb200 2.484 . S
O220 C202 1.248 . S
O221 Tb200 2.440 . S
O221 C202 1.266 . S
O222 Tb200 2.658 . S
O222 Tb201 2.325 . S
O222 C209 1.281 . S
O223 Tb200 2.409 . S
O223 C209 1.254 . S
O224 Tb200 2.378 . S
O224 C210 1.236 . S
O225 Tb201 2.341 . S
O225 C210 1.266 . S
O226 Tb201 2.484 . S
O226 C211 1.248 . S
O227 Tb201 2.440 . S
O227 C211 1.266 . S
O228 Tb200 2.325 . S
O228 Tb201 2.658 . S
O228 C218 1.281 . S
O229 Tb201 2.409 . S
O229 C218 1.254 . S
O230 Tb201 2.378 . S
O230 C219 1.236 . S
O231 Tb200 2.341 . S
O231 C219 1.266 . S
H232 C204 0.929 . S
H233 C205 0.931 . S
H234 C207 0.930 . S
H235 C208 0.930 . S
H236 C213 0.929 . S
H237 C214 0.931 . S
H238 C216 0.930 . S
H239 C217 0.930 . S
Tb240 C242 2.809 . S
Tb240 O260 2.484 . S
Tb240 O261 2.440 . S
Tb240 O262 2.658 . S
Tb240 O263 2.409 . S
Tb240 O264 2.378 . S
Tb240 O268 2.325 . S
Tb240 O271 2.341 . S
Tb241 C251 2.809 . S
Tb241 O262 2.325 1_455 S
Tb241 O265 2.341 1_455 S
Tb241 O266 2.484 . S
Tb241 O267 2.440 . S
Tb241 O268 2.658 1_455 S
Tb241 O269 2.409 . S
Tb241 O270 2.378 . S
C242 Tb240 2.809 . S
C242 C243 1.514 . S
C242 O260 1.248 . S
C242 O261 1.266 . S
C243 C242 1.514 . S
C243 C244 1.359 . S
C243 C248 1.348 . S
C244 C243 1.359 . S
C244 C245 1.380 . S
C244 H272 0.929 . S
C245 C244 1.380 . S
C245 C246 1.347 . S
C245 H273 0.931 . S
C246 C245 1.347 . S
C246 C247 1.369 . S
C247 C246 1.369 . S
C247 C248 1.408 . S
C247 H274 0.930 . S
C248 C243 1.348 . S
C248 C247 1.408 . S
C248 H275 0.930 . S
C249 O262 1.281 . S
C249 O263 1.254 . S
C250 O264 1.236 . S
C250 O265 1.266 . S
C251 Tb241 2.809 . S
C251 C252 1.514 . S
C251 O266 1.248 . S
C251 O267 1.266 . S
C252 C251 1.514 . S
C252 C253 1.359 . S
C252 C257 1.348 . S
C253 C252 1.359 . S
C253 C254 1.380 . S
C253 H276 0.929 . S
C254 C253 1.380 . S
C254 C255 1.347 . S
C254 H277 0.931 . S
C255 C254 1.347 . S
C255 C256 1.369 . S
C256 C255 1.369 . S
C256 C257 1.408 . S
C256 H278 0.930 . S
C257 C252 1.348 . S
C257 C256 1.408 . S
C257 H279 0.930 . S
C258 O268 1.281 . S
C258 O269 1.254 1_655 S
C259 O270 1.236 . S
C259 O271 1.266 1_455 S
O260 Tb240 2.484 . S
O260 C242 1.248 . S
O261 Tb240 2.440 . S
O261 C242 1.266 . S
O262 Tb240 2.658 . S
O262 Tb241 2.325 1_655 S
O262 C249 1.281 . S
O263 Tb240 2.409 . S
O263 C249 1.254 . S
O264 Tb240 2.378 . S
O264 C250 1.236 . S
O265 Tb241 2.341 1_655 S
O265 C250 1.266 . S
O266 Tb241 2.484 . S
O266 C251 1.248 . S
O267 Tb241 2.440 . S
O267 C251 1.266 . S
O268 Tb240 2.325 . S
O268 Tb241 2.658 1_655 S
O268 C258 1.281 . S
O269 Tb241 2.409 . S
O269 C258 1.254 1_455 S
O270 Tb241 2.378 . S
O270 C259 1.236 . S
O271 Tb240 2.341 . S
O271 C259 1.266 1_655 S
H272 C244 0.929 . S
H273 C245 0.931 . S
H274 C247 0.930 . S
H275 C248 0.930 . S
H276 C253 0.929 . S
H277 C254 0.931 . S
H278 C256 0.930 . S
H279 C257 0.930 . S
Tb280 C282 2.809 . S
Tb280 O300 2.484 . S
Tb280 O301 2.440 . S
Tb280 O302 2.658 . S
Tb280 O303 2.409 . S
Tb280 O304 2.378 . S
Tb280 O308 2.325 . S
Tb280 O311 2.341 . S
Tb281 C291 2.809 . S
Tb281 O302 2.325 . S
Tb281 O305 2.341 . S
Tb281 O306 2.484 . S
Tb281 O307 2.440 . S
Tb281 O308 2.658 . S
Tb281 O309 2.409 . S
Tb281 O310 2.378 . S
C282 Tb280 2.809 . S
C282 C283 1.514 1_655 S
C282 O300 1.248 . S
C282 O301 1.266 . S
C283 C282 1.514 1_455 S
C283 C284 1.359 . S
C283 C288 1.348 . S
C284 C283 1.359 . S
C284 C285 1.380 . S
C284 H312 0.929 . S
C285 C284 1.380 . S
C285 C286 1.347 . S
C285 H313 0.931 . S
C286 C285 1.347 . S
C286 C287 1.369 . S
C287 C286 1.369 . S
C287 C288 1.408 . S
C287 H314 0.930 . S
C288 C283 1.348 . S
C288 C287 1.408 . S
C288 H315 0.930 . S
C289 O302 1.281 . S
C289 O303 1.254 . S
C290 O304 1.236 . S
C290 O305 1.266 . S
C291 Tb281 2.809 . S
C291 C292 1.514 . S
C291 O306 1.248 . S
C291 O307 1.266 . S
C292 C291 1.514 . S
C292 C293 1.359 . S
C292 C297 1.348 . S
C293 C292 1.359 . S
C293 C294 1.380 . S
C293 H316 0.929 . S
C294 C293 1.380 . S
C294 C295 1.347 . S
C294 H317 0.931 . S
C295 C294 1.347 . S
C295 C296 1.369 . S
C296 C295 1.369 . S
C296 C297 1.408 . S
C296 H318 0.930 . S
C297 C292 1.348 . S
C297 C296 1.408 . S
C297 H319 0.930 . S
C298 O308 1.281 . S
C298 O309 1.254 . S
C299 O310 1.236 . S
C299 O311 1.266 . S
O300 Tb280 2.484 . S
O300 C282 1.248 . S
O301 Tb280 2.440 . S
O301 C282 1.266 . S
O302 Tb280 2.658 . S
O302 Tb281 2.325 . S
O302 C289 1.281 . S
O303 Tb280 2.409 . S
O303 C289 1.254 . S
O304 Tb280 2.378 . S
O304 C290 1.236 . S
O305 Tb281 2.341 . S
O305 C290 1.266 . S
O306 Tb281 2.484 . S
O306 C291 1.248 . S
O307 Tb281 2.440 . S
O307 C291 1.266 . S
O308 Tb280 2.325 . S
O308 Tb281 2.658 . S
O308 C298 1.281 . S
O309 Tb281 2.409 . S
O309 C298 1.254 . S
O310 Tb281 2.378 . S
O310 C299 1.236 . S
O311 Tb280 2.341 . S
O311 C299 1.266 . S
H312 C284 0.929 . S
H313 C285 0.931 . S
H314 C287 0.930 . S
H315 C288 0.930 . S
H316 C293 0.929 . S
H317 C294 0.931 . S
H318 C296 0.930 . S
H319 C297 0.930 . S
Tb320 C322 2.804 1_545 S
Tb320 O340 2.484 1_545 S
Tb320 O341 2.440 . S
Tb320 O342 2.658 1_645 S
Tb320 O343 2.409 . S
Tb320 O344 2.378 1_545 S
Tb320 O348 2.325 1_645 S
Tb320 O351 2.341 1_655 S
Tb321 C331 2.809 . S
Tb321 O342 2.325 . S
Tb321 O345 2.341 . S
Tb321 O346 2.484 . S
Tb321 O347 2.440 . S
Tb321 O348 2.658 . S
Tb321 O349 2.409 . S
Tb321 O350 2.378 1_565 S
C322 Tb320 2.804 1_565 S
C322 C323 1.518 . S
C322 O340 1.250 . S
C322 O341 1.259 1_565 S
C323 C322 1.518 . S
C323 C324 1.359 . S
C323 C328 1.348 . S
C324 C323 1.359 . S
C324 C325 1.380 . S
C324 H352 0.929 . S
C325 C324 1.380 . S
C325 C326 1.347 . S
C325 H353 0.931 . S
C326 C325 1.347 . S
C326 C327 1.369 . S
C327 C326 1.369 . S
C327 C328 1.408 . S
C327 H354 0.930 . S
C328 C323 1.348 . S
C328 C327 1.408 . S
C328 H355 0.930 . S
C329 O342 1.281 . S
C329 O343 1.254 1_465 S
C330 O344 1.236 . S
C330 O345 1.266 1_655 S
C331 Tb321 2.809 . S
C331 C332 1.514 . S
C331 O346 1.248 . S
C331 O347 1.266 . S
C332 C331 1.514 . S
C332 C333 1.359 . S
C332 C337 1.348 . S
C333 C332 1.359 . S
C333 C334 1.380 1_565 S
C333 H356 0.929 . S
C334 C333 1.380 1_545 S
C334 C335 1.349 . S
C334 H357 0.931 . S
C335 C334 1.349 . S
C335 C336 1.363 1_545 S
C336 C335 1.363 1_565 S
C336 C337 1.408 . S
C336 H358 0.930 . S
C337 C332 1.348 . S
C337 C336 1.408 . S
C337 H359 0.930 . S
C338 O348 1.281 . S
C338 O349 1.254 . S
C339 O350 1.236 . S
C339 O351 1.266 . S
O340 Tb320 2.484 1_565 S
O340 C322 1.250 . S
O341 Tb320 2.440 . S
O341 C322 1.259 1_545 S
O342 Tb320 2.658 1_465 S
O342 Tb321 2.325 . S
O342 C329 1.281 . S
O343 Tb320 2.409 . S
O343 C329 1.254 1_645 S
O344 Tb320 2.378 1_565 S
O344 C330 1.236 . S
O345 Tb321 2.341 . S
O345 C330 1.266 1_455 S
O346 Tb321 2.484 . S
O346 C331 1.248 . S
O347 Tb321 2.440 . S
O347 C331 1.266 . S
O348 Tb320 2.325 1_465 S
O348 Tb321 2.658 . S
O348 C338 1.281 . S
O349 Tb321 2.409 . S
O349 C338 1.254 . S
O350 Tb321 2.378 1_545 S
O350 C339 1.236 . S
O351 Tb320 2.341 1_455 S
O351 C339 1.266 . S
H352 C324 0.929 . S
H353 C325 0.931 . S
H354 C327 0.930 . S
H355 C328 0.930 . S
H356 C333 0.929 . S
H357 C334 0.931 . S
H358 C336 0.930 . S
H359 C337 0.930 . S
Tb360 C362 2.809 . S
Tb360 O380 2.484 . S
Tb360 O381 2.440 . S
Tb360 O382 2.658 . S
Tb360 O383 2.409 . S
Tb360 O384 2.378 . S
Tb360 O388 2.325 . S
Tb360 O391 2.341 . S
Tb361 C371 2.809 . S
Tb361 O382 2.325 . S
Tb361 O385 2.341 . S
Tb361 O386 2.484 . S
Tb361 O387 2.440 . S
Tb361 O388 2.658 . S
Tb361 O389 2.409 . S
Tb361 O390 2.378 . S
C362 Tb360 2.809 . S
C362 C363 1.514 . S
C362 O380 1.248 . S
C362 O381 1.266 . S
C363 C362 1.514 . S
C363 C364 1.359 . S
C363 C368 1.348 . S
C364 C363 1.359 . S
C364 C365 1.380 . S
C364 H392 0.929 . S
C365 C364 1.380 . S
C365 C366 1.347 . S
C365 H393 0.931 . S
C366 C365 1.347 . S
C366 C367 1.369 . S
C367 C366 1.369 . S
C367 C368 1.408 . S
C367 H394 0.930 . S
C368 C363 1.348 . S
C368 C367 1.408 . S
C368 H395 0.930 . S
C369 O382 1.281 . S
C369 O383 1.254 . S
C370 O384 1.236 . S
C370 O385 1.266 . S
C371 Tb361 2.809 . S
C371 C372 1.514 1_455 S
C371 O386 1.248 . S
C371 O387 1.266 . S
C372 C371 1.514 1_655 S
C372 C373 1.359 . S
C372 C377 1.348 . S
C373 C372 1.359 . S
C373 C374 1.380 . S
C373 H396 0.929 . S
C374 C373 1.380 . S
C374 C375 1.347 . S
C374 H397 0.931 . S
C375 C374 1.347 . S
C375 C376 1.369 . S
C376 C375 1.369 . S
C376 C377 1.408 . S
C376 H398 0.930 . S
C377 C372 1.348 . S
C377 C376 1.408 . S
C377 H399 0.930 . S
C378 O388 1.281 . S
C378 O389 1.254 . S
C379 O390 1.236 . S
C379 O391 1.266 . S
O380 Tb360 2.484 . S
O380 C362 1.248 . S
O381 Tb360 2.440 . S
O381 C362 1.266 . S
O382 Tb360 2.658 . S
O382 Tb361 2.325 . S
O382 C369 1.281 . S
O383 Tb360 2.409 . S
O383 C369 1.254 . S
O384 Tb360 2.378 . S
O384 C370 1.236 . S
O385 Tb361 2.341 . S
O385 C370 1.266 . S
O386 Tb361 2.484 . S
O386 C371 1.248 . S
O387 Tb361 2.440 . S
O387 C371 1.266 . S
O388 Tb360 2.325 . S
O388 Tb361 2.658 . S
O388 C378 1.281 . S
O389 Tb361 2.409 . S
O389 C378 1.254 . S
O390 Tb361 2.378 . S
O390 C379 1.236 . S
O391 Tb360 2.341 . S
O391 C379 1.266 . S
H392 C364 0.929 . S
H393 C365 0.931 . S
H394 C367 0.930 . S
H395 C368 0.930 . S
H396 C373 0.929 . S
H397 C374 0.931 . S
H398 C376 0.930 . S
H399 C377 0.930 . S
Tb400 C402 2.809 . S
Tb400 O420 2.484 . S
Tb400 O421 2.440 . S
Tb400 O422 2.658 1_655 S
Tb400 O423 2.409 . S
Tb400 O424 2.378 . S
Tb400 O428 2.325 1_655 S
Tb400 O431 2.341 1_655 S
Tb401 C411 2.809 . S
Tb401 O422 2.325 . S
Tb401 O425 2.341 . S
Tb401 O426 2.484 . S
Tb401 O427 2.440 . S
Tb401 O428 2.658 . S
Tb401 O429 2.409 . S
Tb401 O430 2.378 . S
C402 Tb400 2.809 . S
C402 C403 1.514 . S
C402 O420 1.248 . S
C402 O421 1.266 . S
C403 C402 1.514 . S
C403 C404 1.359 . S
C403 C408 1.348 . S
C404 C403 1.359 . S
C404 C405 1.380 . S
C404 H432 0.929 . S
C405 C404 1.380 . S
C405 C406 1.347 . S
C405 H433 0.931 . S
C406 C405 1.347 . S
C406 C407 1.369 . S
C407 C406 1.369 . S
C407 C408 1.408 . S
C407 H434 0.930 . S
C408 C403 1.348 . S
C408 C407 1.408 . S
C408 H435 0.930 . S
C409 O422 1.281 . S
C409 O423 1.254 1_455 S
C410 O424 1.236 . S
C410 O425 1.266 1_655 S
C411 Tb401 2.809 . S
C411 C412 1.514 . S
C411 O426 1.248 . S
C411 O427 1.266 . S
C412 C411 1.514 . S
C412 C413 1.359 . S
C412 C417 1.348 . S
C413 C412 1.359 . S
C413 C414 1.380 . S
C413 H436 0.929 . S
C414 C413 1.380 . S
C414 C415 1.347 . S
C414 H437 0.931 . S
C415 C414 1.347 . S
C415 C416 1.369 . S
C416 C415 1.369 . S
C416 C417 1.408 . S
C416 H438 0.930 . S
C417 C412 1.348 . S
C417 C416 1.408 . S
C417 H439 0.930 . S
C418 O428 1.281 . S
C418 O429 1.254 . S
C419 O430 1.236 . S
C419 O431 1.266 . S
O420 Tb400 2.484 . S
O420 C402 1.248 . S
O421 Tb400 2.440 . S
O421 C402 1.266 . S
O422 Tb400 2.658 1_455 S
O422 Tb401 2.325 . S
O422 C409 1.281 . S
O423 Tb400 2.409 . S
O423 C409 1.254 1_655 S
O424 Tb400 2.378 . S
O424 C410 1.236 . S
O425 Tb401 2.341 . S
O425 C410 1.266 1_455 S
O426 Tb401 2.484 . S
O426 C411 1.248 . S
O427 Tb401 2.440 . S
O427 C411 1.266 . S
O428 Tb400 2.325 1_455 S
O428 Tb401 2.658 . S
O428 C418 1.281 . S
O429 Tb401 2.409 . S
O429 C418 1.254 . S
O430 Tb401 2.378 . S
O430 C419 1.236 . S
O431 Tb400 2.341 1_455 S
O431 C419 1.266 . S
H432 C404 0.929 . S
H433 C405 0.931 . S
H434 C407 0.930 . S
H435 C408 0.930 . S
H436 C413 0.929 . S
H437 C414 0.931 . S
H438 C416 0.930 . S
H439 C417 0.930 . S
Tb440 C442 2.804 1_545 S
Tb440 O460 2.484 1_545 S
Tb440 O461 2.440 . S
Tb440 O462 2.658 1_545 S
Tb440 O463 2.409 . S
Tb440 O464 2.378 1_545 S
Tb440 O468 2.325 1_545 S
Tb440 O471 2.341 . S
Tb441 C451 2.809 . S
Tb441 O462 2.325 . S
Tb441 O465 2.341 . S
Tb441 O466 2.484 . S
Tb441 O467 2.440 . S
Tb441 O468 2.658 . S
Tb441 O469 2.409 . S
Tb441 O470 2.378 1_565 S
C442 Tb440 2.804 1_565 S
C442 C443 1.518 . S
C442 O460 1.250 . S
C442 O461 1.259 1_565 S
C443 C442 1.518 . S
C443 C444 1.359 . S
C443 C448 1.348 . S
C444 C443 1.359 . S
C444 C445 1.380 . S
C444 H472 0.929 . S
C445 C444 1.380 . S
C445 C446 1.347 . S
C445 H473 0.931 . S
C446 C445 1.347 . S
C446 C447 1.369 . S
C447 C446 1.369 . S
C447 C448 1.408 . S
C447 H474 0.930 . S
C448 C443 1.348 . S
C448 C447 1.408 . S
C448 H475 0.930 . S
C449 O462 1.281 . S
C449 O463 1.254 1_565 S
C450 O464 1.236 . S
C450 O465 1.266 . S
C451 Tb441 2.809 . S
C451 C452 1.514 1_455 S
C451 O466 1.248 . S
C451 O467 1.266 . S
C452 C451 1.514 1_655 S
C452 C453 1.359 . S
C452 C457 1.348 . S
C453 C452 1.359 . S
C453 C454 1.380 1_565 S
C453 H476 0.929 . S
C454 C453 1.380 1_545 S
C454 C455 1.349 . S
C454 H477 0.931 . S
C455 C454 1.349 . S
C455 C456 1.363 1_545 S
C456 C455 1.363 1_565 S
C456 C457 1.408 . S
C456 H478 0.930 . S
C457 C452 1.348 . S
C457 C456 1.408 . S
C457 H479 0.930 . S
C458 O468 1.281 . S
C458 O469 1.254 . S
C459 O470 1.236 . S
C459 O471 1.266 . S
O460 Tb440 2.484 1_565 S
O460 C442 1.250 . S
O461 Tb440 2.440 . S
O461 C442 1.259 1_545 S
O462 Tb440 2.658 1_565 S
O462 Tb441 2.325 . S
O462 C449 1.281 . S
O463 Tb440 2.409 . S
O463 C449 1.254 1_545 S
O464 Tb440 2.378 1_565 S
O464 C450 1.236 . S
O465 Tb441 2.341 . S
O465 C450 1.266 . S
O466 Tb441 2.484 . S
O466 C451 1.248 . S
O467 Tb441 2.440 . S
O467 C451 1.266 . S
O468 Tb440 2.325 1_565 S
O468 Tb441 2.658 . S
O468 C458 1.281 . S
O469 Tb441 2.409 . S
O469 C458 1.254 . S
O470 Tb441 2.378 1_545 S
O470 C459 1.236 . S
O471 Tb440 2.341 . S
O471 C459 1.266 . S
H472 C444 0.929 . S
H473 C445 0.931 . S
H474 C447 0.930 . S
H475 C448 0.930 . S
H476 C453 0.929 . S
H477 C454 0.931 . S
H478 C456 0.930 . S
H479 C457 0.930 . S
Tb480 C482 2.809 . S
Tb480 O500 2.484 . S
Tb480 O501 2.440 . S
Tb480 O502 2.658 . S
Tb480 O503 2.409 . S
Tb480 O504 2.378 1_545 S
Tb480 O508 2.325 . S
Tb480 O511 2.341 . S
Tb481 C491 2.804 1_565 S
Tb481 O502 2.325 1_465 S
Tb481 O505 2.341 1_455 S
Tb481 O506 2.484 1_565 S
Tb481 O507 2.440 . S
Tb481 O508 2.658 1_465 S
Tb481 O509 2.409 . S
Tb481 O510 2.378 1_565 S
C482 Tb480 2.809 . S
C482 C483 1.514 . S
C482 O500 1.248 . S
C482 O501 1.266 . S
C483 C482 1.514 . S
C483 C484 1.359 . S
C483 C488 1.348 . S
C484 C483 1.359 . S
C484 C485 1.380 1_545 S
C484 H512 0.929 . S
C485 C484 1.380 1_565 S
C485 C486 1.349 . S
C485 H513 0.931 . S
C486 C485 1.349 . S
C486 C487 1.363 1_565 S
C487 C486 1.363 1_545 S
C487 C488 1.408 . S
C487 H514 0.930 . S
C488 C483 1.348 . S
C488 C487 1.408 . S
C488 H515 0.930 . S
C489 O502 1.281 . S
C489 O503 1.254 . S
C490 O504 1.236 . S
C490 O505 1.266 . S
C491 Tb481 2.804 1_545 S
C491 C492 1.518 . S
C491 O506 1.250 . S
C491 O507 1.259 1_545 S
C492 C491 1.518 . S
C492 C493 1.359 . S
C492 C497 1.348 . S
C493 C492 1.359 . S
C493 C494 1.380 . S
C493 H516 0.929 . S
C494 C493 1.380 . S
C494 C495 1.347 . S
C494 H517 0.931 . S
C495 C494 1.347 . S
C495 C496 1.369 . S
C496 C495 1.369 . S
C496 C497 1.408 . S
C496 H518 0.930 . S
C497 C492 1.348 . S
C497 C496 1.408 . S
C497 H519 0.930 . S
C498 O508 1.281 . S
C498 O509 1.254 1_645 S
C499 O510 1.236 . S
C499 O511 1.266 1_455 S
O500 Tb480 2.484 . S
O500 C482 1.248 . S
O501 Tb480 2.440 . S
O501 C482 1.266 . S
O502 Tb480 2.658 . S
O502 Tb481 2.325 1_645 S
O502 C489 1.281 . S
O503 Tb480 2.409 . S
O503 C489 1.254 . S
O504 Tb480 2.378 1_565 S
O504 C490 1.236 . S
O505 Tb481 2.341 1_655 S
O505 C490 1.266 . S
O506 Tb481 2.484 1_545 S
O506 C491 1.250 . S
O507 Tb481 2.440 . S
O507 C491 1.259 1_565 S
O508 Tb480 2.325 . S
O508 Tb481 2.658 1_645 S
O508 C498 1.281 . S
O509 Tb481 2.409 . S
O509 C498 1.254 1_465 S
O510 Tb481 2.378 1_545 S
O510 C499 1.236 . S
O511 Tb480 2.341 . S
O511 C499 1.266 1_655 S
H512 C484 0.929 . S
H513 C485 0.931 . S
H514 C487 0.930 . S
H515 C488 0.930 . S
H516 C493 0.929 . S
H517 C494 0.931 . S
H518 C496 0.930 . S
H519 C497 0.930 . S
Tb520 C522 2.809 . S
Tb520 O540 2.484 . S
Tb520 O541 2.440 . S
Tb520 O542 2.658 . S
Tb520 O543 2.409 . S
Tb520 O544 2.378 . S
Tb520 O548 2.325 . S
Tb520 O551 2.341 . S
Tb521 C531 2.809 . S
Tb521 O542 2.325 . S
Tb521 O545 2.341 . S
Tb521 O546 2.484 . S
Tb521 O547 2.440 . S
Tb521 O548 2.658 . S
Tb521 O549 2.409 . S
Tb521 O550 2.378 . S
C522 Tb520 2.809 . S
C522 C523 1.514 1_655 S
C522 O540 1.248 . S
C522 O541 1.266 . S
C523 C522 1.514 1_455 S
C523 C524 1.359 . S
C523 C528 1.348 . S
C524 C523 1.359 . S
C524 C525 1.380 . S
C524 H552 0.929 . S
C525 C524 1.380 . S
C525 C526 1.347 . S
C525 H553 0.931 . S
C526 C525 1.347 . S
C526 C527 1.369 . S
C527 C526 1.369 . S
C527 C528 1.408 . S
C527 H554 0.930 . S
C528 C523 1.348 . S
C528 C527 1.408 . S
C528 H555 0.930 . S
C529 O542 1.281 . S
C529 O543 1.254 . S
C530 O544 1.236 . S
C530 O545 1.266 . S
C531 Tb521 2.809 . S
C531 C532 1.514 . S
C531 O546 1.248 . S
C531 O547 1.266 . S
C532 C531 1.514 . S
C532 C533 1.359 . S
C532 C537 1.348 . S
C533 C532 1.359 . S
C533 C534 1.380 . S
C533 H556 0.929 . S
C534 C533 1.380 . S
C534 C535 1.347 . S
C534 H557 0.931 . S
C535 C534 1.347 . S
C535 C536 1.369 . S
C536 C535 1.369 . S
C536 C537 1.408 . S
C536 H558 0.930 . S
C537 C532 1.348 . S
C537 C536 1.408 . S
C537 H559 0.930 . S
C538 O548 1.281 . S
C538 O549 1.254 . S
C539 O550 1.236 . S
C539 O551 1.266 . S
O540 Tb520 2.484 . S
O540 C522 1.248 . S
O541 Tb520 2.440 . S
O541 C522 1.266 . S
O542 Tb520 2.658 . S
O542 Tb521 2.325 . S
O542 C529 1.281 . S
O543 Tb520 2.409 . S
O543 C529 1.254 . S
O544 Tb520 2.378 . S
O544 C530 1.236 . S
O545 Tb521 2.341 . S
O545 C530 1.266 . S
O546 Tb521 2.484 . S
O546 C531 1.248 . S
O547 Tb521 2.440 . S
O547 C531 1.266 . S
O548 Tb520 2.325 . S
O548 Tb521 2.658 . S
O548 C538 1.281 . S
O549 Tb521 2.409 . S
O549 C538 1.254 . S
O550 Tb521 2.378 . S
O550 C539 1.236 . S
O551 Tb520 2.341 . S
O551 C539 1.266 . S
H552 C524 0.929 . S
H553 C525 0.931 . S
H554 C527 0.930 . S
H555 C528 0.930 . S
H556 C533 0.929 . S
H557 C534 0.931 . S
H558 C536 0.930 . S
H559 C537 0.930 . S
Tb560 C562 2.809 . S
Tb560 O580 2.484 . S
Tb560 O581 2.440 . S
Tb560 O582 2.658 . S
Tb560 O583 2.409 . S
Tb560 O584 2.378 . S
Tb560 O588 2.325 . S
Tb560 O591 2.341 . S
Tb561 C571 2.809 . S
Tb561 O582 2.325 1_455 S
Tb561 O585 2.341 1_455 S
Tb561 O586 2.484 . S
Tb561 O587 2.440 . S
Tb561 O588 2.658 1_455 S
Tb561 O589 2.409 . S
Tb561 O590 2.378 . S
C562 Tb560 2.809 . S
C562 C563 1.514 . S
C562 O580 1.248 . S
C562 O581 1.266 . S
C563 C562 1.514 . S
C563 C564 1.359 . S
C563 C568 1.348 . S
C564 C563 1.359 . S
C564 C565 1.380 . S
C564 H592 0.929 . S
C565 C564 1.380 . S
C565 C566 1.347 . S
C565 H593 0.931 . S
C566 C565 1.347 . S
C566 C567 1.369 . S
C567 C566 1.369 . S
C567 C568 1.408 . S
C567 H594 0.930 . S
C568 C563 1.348 . S
C568 C567 1.408 . S
C568 H595 0.930 . S
C569 O582 1.281 . S
C569 O583 1.254 . S
C570 O584 1.236 . S
C570 O585 1.266 . S
C571 Tb561 2.809 . S
C571 C572 1.514 . S
C571 O586 1.248 . S
C571 O587 1.266 . S
C572 C571 1.514 . S
C572 C573 1.359 . S
C572 C577 1.348 . S
C573 C572 1.359 . S
C573 C574 1.380 . S
C573 H596 0.929 . S
C574 C573 1.380 . S
C574 C575 1.347 . S
C574 H597 0.931 . S
C575 C574 1.347 . S
C575 C576 1.369 . S
C576 C575 1.369 . S
C576 C577 1.408 . S
C576 H598 0.930 . S
C577 C572 1.348 . S
C577 C576 1.408 . S
C577 H599 0.930 . S
C578 O588 1.281 . S
C578 O589 1.254 1_655 S
C579 O590 1.236 . S
C579 O591 1.266 1_455 S
O580 Tb560 2.484 . S
O580 C562 1.248 . S
O581 Tb560 2.440 . S
O581 C562 1.266 . S
O582 Tb560 2.658 . S
O582 Tb561 2.325 1_655 S
O582 C569 1.281 . S
O583 Tb560 2.409 . S
O583 C569 1.254 . S
O584 Tb560 2.378 . S
O584 C570 1.236 . S
O585 Tb561 2.341 1_655 S
O585 C570 1.266 . S
O586 Tb561 2.484 . S
O586 C571 1.248 . S
O587 Tb561 2.440 . S
O587 C571 1.266 . S
O588 Tb560 2.325 . S
O588 Tb561 2.658 1_655 S
O588 C578 1.281 . S
O589 Tb561 2.409 . S
O589 C578 1.254 1_455 S
O590 Tb561 2.378 . S
O590 C579 1.236 . S
O591 Tb560 2.341 . S
O591 C579 1.266 1_655 S
H592 C564 0.929 . S
H593 C565 0.931 . S
H594 C567 0.930 . S
H595 C568 0.930 . S
H596 C573 0.929 . S
H597 C574 0.931 . S
H598 C576 0.930 . S
H599 C577 0.930 . S
Tb600 C602 2.809 . S
Tb600 O620 2.484 . S
Tb600 O621 2.440 . S
Tb600 O622 2.658 . S
Tb600 O623 2.409 . S
Tb600 O624 2.378 1_545 S
Tb600 O628 2.325 . S
Tb600 O631 2.341 . S
Tb601 C611 2.804 1_565 S
Tb601 O622 2.325 1_565 S
Tb601 O625 2.341 . S
Tb601 O626 2.484 1_565 S
Tb601 O627 2.440 . S
Tb601 O628 2.658 1_565 S
Tb601 O629 2.409 . S
Tb601 O630 2.378 1_565 S
C602 Tb600 2.809 . S
C602 C603 1.514 1_655 S
C602 O620 1.248 . S
C602 O621 1.266 . S
C603 C602 1.514 1_455 S
C603 C604 1.359 . S
C603 C608 1.348 . S
C604 C603 1.359 . S
C604 C605 1.380 1_545 S
C604 H632 0.929 . S
C605 C604 1.380 1_565 S
C605 C606 1.349 . S
C605 H633 0.931 . S
C606 C605 1.349 . S
C606 C607 1.363 1_565 S
C607 C606 1.363 1_545 S
C607 C608 1.408 . S
C607 H634 0.930 . S
C608 C603 1.348 . S
C608 C607 1.408 . S
C608 H635 0.930 . S
C609 O622 1.281 . S
C609 O623 1.254 . S
C610 O624 1.236 . S
C610 O625 1.266 . S
C611 Tb601 2.804 1_545 S
C611 C612 1.518 . S
C611 O626 1.250 . S
C611 O627 1.259 1_545 S
C612 C611 1.518 . S
C612 C613 1.359 . S
C612 C617 1.348 . S
C613 C612 1.359 . S
C613 C614 1.380 . S
C613 H636 0.929 . S
C614 C613 1.380 . S
C614 C615 1.347 . S
C614 H637 0.931 . S
C615 C614 1.347 . S
C615 C616 1.369 . S
C616 C615 1.369 . S
C616 C617 1.408 . S
C616 H638 0.930 . S
C617 C612 1.348 . S
C617 C616 1.408 . S
C617 H639 0.930 . S
C618 O628 1.281 . S
C618 O629 1.254 1_545 S
C619 O630 1.236 . S
C619 O631 1.266 . S
O620 Tb600 2.484 . S
O620 C602 1.248 . S
O621 Tb600 2.440 . S
O621 C602 1.266 . S
O622 Tb600 2.658 . S
O622 Tb601 2.325 1_545 S
O622 C609 1.281 . S
O623 Tb600 2.409 . S
O623 C609 1.254 . S
O624 Tb600 2.378 1_565 S
O624 C610 1.236 . S
O625 Tb601 2.341 . S
O625 C610 1.266 . S
O626 Tb601 2.484 1_545 S
O626 C611 1.250 . S
O627 Tb601 2.440 . S
O627 C611 1.259 1_565 S
O628 Tb600 2.325 . S
O628 Tb601 2.658 1_545 S
O628 C618 1.281 . S
O629 Tb601 2.409 . S
O629 C618 1.254 1_565 S
O630 Tb601 2.378 1_545 S
O630 C619 1.236 . S
O631 Tb600 2.341 . S
O631 C619 1.266 . S
H632 C604 0.929 . S
H633 C605 0.931 . S
H634 C607 0.930 . S
H635 C608 0.930 . S
H636 C613 0.929 . S
H637 C614 0.931 . S
H638 C616 0.930 . S
H639 C617 0.930 . S
Tb640 C642 2.809 . S
Tb640 O660 2.484 . S
Tb640 O661 2.440 . S
Tb640 O662 2.658 . S
Tb640 O663 2.409 . S
Tb640 O664 2.378 . S
Tb640 O668 2.325 . S
Tb640 O671 2.341 . S
Tb641 C651 2.809 . S
Tb641 O662 2.325 . S
Tb641 O665 2.341 . S
Tb641 O666 2.484 . S
Tb641 O667 2.440 . S
Tb641 O668 2.658 . S
Tb641 O669 2.409 . S
Tb641 O670 2.378 . S
C642 Tb640 2.809 . S
C642 C643 1.514 . S
C642 O660 1.248 . S
C642 O661 1.266 . S
C643 C642 1.514 . S
C643 C644 1.359 . S
C643 C648 1.348 . S
C644 C643 1.359 . S
C644 C645 1.380 . S
C644 H672 0.929 . S
C645 C644 1.380 . S
C645 C646 1.347 . S
C645 H673 0.931 . S
C646 C645 1.347 . S
C646 C647 1.369 . S
C647 C646 1.369 . S
C647 C648 1.408 . S
C647 H674 0.930 . S
C648 C643 1.348 . S
C648 C647 1.408 . S
C648 H675 0.930 . S
C649 O662 1.281 . S
C649 O663 1.254 . S
C650 O664 1.236 . S
C650 O665 1.266 . S
C651 Tb641 2.809 . S
C651 C652 1.514 . S
C651 O666 1.248 . S
C651 O667 1.266 . S
C652 C651 1.514 . S
C652 C653 1.359 . S
C652 C657 1.348 . S
C653 C652 1.359 . S
C653 C654 1.380 . S
C653 H676 0.929 . S
C654 C653 1.380 . S
C654 C655 1.347 . S
C654 H677 0.931 . S
C655 C654 1.347 . S
C655 C656 1.369 . S
C656 C655 1.369 . S
C656 C657 1.408 . S
C656 H678 0.930 . S
C657 C652 1.348 . S
C657 C656 1.408 . S
C657 H679 0.930 . S
C658 O668 1.281 . S
C658 O669 1.254 . S
C659 O670 1.236 . S
C659 O671 1.266 . S
O660 Tb640 2.484 . S
O660 C642 1.248 . S
O661 Tb640 2.440 . S
O661 C642 1.266 . S
O662 Tb640 2.658 . S
O662 Tb641 2.325 . S
O662 C649 1.281 . S
O663 Tb640 2.409 . S
O663 C649 1.254 . S
O664 Tb640 2.378 . S
O664 C650 1.236 . S
O665 Tb641 2.341 . S
O665 C650 1.266 . S
O666 Tb641 2.484 . S
O666 C651 1.248 . S
O667 Tb641 2.440 . S
O667 C651 1.266 . S
O668 Tb640 2.325 . S
O668 Tb641 2.658 . S
O668 C658 1.281 . S
O669 Tb641 2.409 . S
O669 C658 1.254 . S
O670 Tb641 2.378 . S
O670 C659 1.236 . S
O671 Tb640 2.341 . S
O671 C659 1.266 . S
H672 C644 0.929 . S
H673 C645 0.931 . S
H674 C647 0.930 . S
H675 C648 0.930 . S
H676 C653 0.929 . S
H677 C654 0.931 . S
H678 C656 0.930 . S
H679 C657 0.930 . S
Tb680 C682 2.809 . S
Tb680 O700 2.484 . S
Tb680 O701 2.440 . S
Tb680 O702 2.658 . S
Tb680 O703 2.409 . S
Tb680 O704 2.378 . S
Tb680 O708 2.325 . S
Tb680 O711 2.341 . S
Tb681 C691 2.809 . S
Tb681 O702 2.325 . S
Tb681 O705 2.341 . S
Tb681 O706 2.484 . S
Tb681 O707 2.440 . S
Tb681 O708 2.658 . S
Tb681 O709 2.409 . S
Tb681 O710 2.378 . S
C682 Tb680 2.809 . S
C682 C683 1.514 . S
C682 O700 1.248 . S
C682 O701 1.266 . S
C683 C682 1.514 . S
C683 C684 1.355 1_655 S
C683 C688 1.348 1_655 S
C684 C683 1.355 1_455 S
C684 C685 1.387 . S
C684 H712 0.925 1_455 S
C685 C684 1.387 . S
C685 C686 1.347 . S
C685 H713 0.931 . S
C686 C685 1.347 . S
C686 C687 1.369 . S
C687 C686 1.369 . S
C687 C688 1.408 . S
C687 H714 0.930 . S
C688 C683 1.348 1_455 S
C688 C687 1.408 . S
C688 H715 0.930 1_455 S
C689 O702 1.281 . S
C689 O703 1.254 . S
C690 O704 1.236 . S
C690 O705 1.266 . S
C691 Tb681 2.809 . S
C691 C692 1.514 . S
C691 O706 1.248 . S
C691 O707 1.266 . S
C692 C691 1.514 . S
C692 C693 1.359 . S
C692 C697 1.348 . S
C693 C692 1.359 . S
C693 C694 1.380 . S
C693 H716 0.929 . S
C694 C693 1.380 . S
C694 C695 1.347 . S
C694 H717 0.931 . S
C695 C694 1.347 . S
C695 C696 1.369 . S
C696 C695 1.369 . S
C696 C697 1.408 . S
C696 H718 0.930 . S
C697 C692 1.348 . S
C697 C696 1.408 . S
C697 H719 0.930 . S
C698 O708 1.281 . S
C698 O709 1.254 . S
C699 O710 1.236 . S
C699 O711 1.266 . S
O700 Tb680 2.484 . S
O700 C682 1.248 . S
O701 Tb680 2.440 . S
O701 C682 1.266 . S
O702 Tb680 2.658 . S
O702 Tb681 2.325 . S
O702 C689 1.281 . S
O703 Tb680 2.409 . S
O703 C689 1.254 . S
O704 Tb680 2.378 . S
O704 C690 1.236 . S
O705 Tb681 2.341 . S
O705 C690 1.266 . S
O706 Tb681 2.484 . S
O706 C691 1.248 . S
O707 Tb681 2.440 . S
O707 C691 1.266 . S
O708 Tb680 2.325 . S
O708 Tb681 2.658 . S
O708 C698 1.281 . S
O709 Tb681 2.409 . S
O709 C698 1.254 . S
O710 Tb681 2.378 . S
O710 C699 1.236 . S
O711 Tb680 2.341 . S
O711 C699 1.266 . S
H712 C684 0.925 1_655 S
H713 C685 0.931 . S
H714 C687 0.930 . S
H715 C688 0.930 1_655 S
H716 C693 0.929 . S
H717 C694 0.931 . S
H718 C696 0.930 . S
H719 C697 0.930 . S
Tb720 C722 2.809 . S
Tb720 O740 2.484 . S
Tb720 O741 2.440 . S
Tb720 O742 2.658 . S
Tb720 O743 2.409 . S
Tb720 O744 2.378 . S
Tb720 O748 2.325 . S
Tb720 O751 2.341 . S
Tb721 C731 2.809 . S
Tb721 O742 2.325 . S
Tb721 O745 2.341 . S
Tb721 O746 2.484 . S
Tb721 O747 2.440 . S
Tb721 O748 2.658 . S
Tb721 O749 2.409 . S
Tb721 O750 2.378 . S
C722 Tb720 2.809 . S
C722 C723 1.514 . S
C722 O740 1.248 . S
C722 O741 1.266 . S
C723 C722 1.514 . S
C723 C724 1.359 . S
C723 C728 1.348 . S
C724 C723 1.359 . S
C724 C725 1.380 . S
C724 H752 0.929 . S
C725 C724 1.380 . S
C725 C726 1.347 . S
C725 H753 0.931 . S
C726 C725 1.347 . S
C726 C727 1.369 . S
C727 C726 1.369 . S
C727 C728 1.408 . S
C727 H754 0.930 . S
C728 C723 1.348 . S
C728 C727 1.408 . S
C728 H755 0.930 . S
C729 O742 1.281 . S
C729 O743 1.254 . S
C730 O744 1.236 . S
C730 O745 1.266 . S
C731 Tb721 2.809 . S
C731 C732 1.514 . S
C731 O746 1.248 . S
C731 O747 1.266 . S
C732 C731 1.514 . S
C732 C733 1.359 . S
C732 C737 1.348 . S
C733 C732 1.359 . S
C733 C734 1.380 . S
C733 H756 0.929 . S
C734 C733 1.380 . S
C734 C735 1.347 . S
C734 H757 0.931 . S
C735 C734 1.347 . S
C735 C736 1.369 . S
C736 C735 1.369 . S
C736 C737 1.408 . S
C736 H758 0.930 . S
C737 C732 1.348 . S
C737 C736 1.408 . S
C737 H759 0.930 . S
C738 O748 1.281 . S
C738 O749 1.254 . S
C739 O750 1.236 . S
C739 O751 1.266 . S
O740 Tb720 2.484 . S
O740 C722 1.248 . S
O741 Tb720 2.440 . S
O741 C722 1.266 . S
O742 Tb720 2.658 . S
O742 Tb721 2.325 . S
O742 C729 1.281 . S
O743 Tb720 2.409 . S
O743 C729 1.254 . S
O744 Tb720 2.378 . S
O744 C730 1.236 . S
O745 Tb721 2.341 . S
O745 C730 1.266 . S
O746 Tb721 2.484 . S
O746 C731 1.248 . S
O747 Tb721 2.440 . S
O747 C731 1.266 . S
O748 Tb720 2.325 . S
O748 Tb721 2.658 . S
O748 C738 1.281 . S
O749 Tb721 2.409 . S
O749 C738 1.254 . S
O750 Tb721 2.378 . S
O750 C739 1.236 . S
O751 Tb720 2.341 . S
O751 C739 1.266 . S
H752 C724 0.929 . S
H753 C725 0.931 . S
H754 C727 0.930 . S
H755 C728 0.930 . S
H756 C733 0.929 . S
H757 C734 0.931 . S
H758 C736 0.930 . S
H759 C737 0.930 . S
Tb760 C762 2.809 . S
Tb760 O780 2.484 . S
Tb760 O781 2.440 . S
Tb760 O782 2.658 . S
Tb760 O783 2.409 . S
Tb760 O784 2.378 . S
Tb760 O788 2.325 . S
Tb760 O791 2.341 . S
Tb761 C771 2.809 . S
Tb761 O782 2.325 . S
Tb761 O785 2.341 . S
Tb761 O786 2.484 . S
Tb761 O787 2.440 . S
Tb761 O788 2.658 . S
Tb761 O789 2.409 . S
Tb761 O790 2.378 . S
C762 Tb760 2.809 . S
C762 C763 1.514 . S
C762 O780 1.248 . S
C762 O781 1.266 . S
C763 C762 1.514 . S
C763 C764 1.355 1_655 S
C763 C768 1.348 1_655 S
C764 C763 1.355 1_455 S
C764 C765 1.387 . S
C764 H792 0.925 1_455 S
C765 C764 1.387 . S
C765 C766 1.347 . S
C765 H793 0.931 . S
C766 C765 1.347 . S
C766 C767 1.369 . S
C767 C766 1.369 . S
C767 C768 1.408 . S
C767 H794 0.930 . S
C768 C763 1.348 1_455 S
C768 C767 1.408 . S
C768 H795 0.930 1_455 S
C769 O782 1.281 . S
C769 O783 1.254 . S
C770 O784 1.236 . S
C770 O785 1.266 . S
C771 Tb761 2.809 . S
C771 C772 1.514 . S
C771 O786 1.248 . S
C771 O787 1.266 . S
C772 C771 1.514 . S
C772 C773 1.359 . S
C772 C777 1.348 . S
C773 C772 1.359 . S
C773 C774 1.380 . S
C773 H796 0.929 . S
C774 C773 1.380 . S
C774 C775 1.347 . S
C774 H797 0.931 . S
C775 C774 1.347 . S
C775 C776 1.369 . S
C776 C775 1.369 . S
C776 C777 1.408 . S
C776 H798 0.930 . S
C777 C772 1.348 . S
C777 C776 1.408 . S
C777 H799 0.930 . S
C778 O788 1.281 . S
C778 O789 1.254 . S
C779 O790 1.236 . S
C779 O791 1.266 . S
O780 Tb760 2.484 . S
O780 C762 1.248 . S
O781 Tb760 2.440 . S
O781 C762 1.266 . S
O782 Tb760 2.658 . S
O782 Tb761 2.325 . S
O782 C769 1.281 . S
O783 Tb760 2.409 . S
O783 C769 1.254 . S
O784 Tb760 2.378 . S
O784 C770 1.236 . S
O785 Tb761 2.341 . S
O785 C770 1.266 . S
O786 Tb761 2.484 . S
O786 C771 1.248 . S
O787 Tb761 2.440 . S
O787 C771 1.266 . S
O788 Tb760 2.325 . S
O788 Tb761 2.658 . S
O788 C778 1.281 . S
O789 Tb761 2.409 . S
O789 C778 1.254 . S
O790 Tb761 2.378 . S
O790 C779 1.236 . S
O791 Tb760 2.341 . S
O791 C779 1.266 . S
H792 C764 0.925 1_655 S
H793 C765 0.931 . S
H794 C767 0.930 . S
H795 C768 0.930 1_655 S
H796 C773 0.929 . S
H797 C774 0.931 . S
H798 C776 0.930 . S
H799 C777 0.930 . S
Tb800 C802 2.809 . S
Tb800 O820 2.484 . S
Tb800 O821 2.440 . S
Tb800 O822 2.658 . S
Tb800 O823 2.409 . S
Tb800 O824 2.378 . S
Tb800 O828 2.325 . S
Tb800 O831 2.341 . S
Tb801 C811 2.809 . S
Tb801 O822 2.325 . S
Tb801 O825 2.341 . S
Tb801 O826 2.484 . S
Tb801 O827 2.440 . S
Tb801 O828 2.658 . S
Tb801 O829 2.409 . S
Tb801 O830 2.378 . S
C802 Tb800 2.809 . S
C802 C803 1.514 . S
C802 O820 1.248 . S
C802 O821 1.266 . S
C803 C802 1.514 . S
C803 C804 1.359 . S
C803 C808 1.348 . S
C804 C803 1.359 . S
C804 C805 1.380 . S
C804 H832 0.929 . S
C805 C804 1.380 . S
C805 C806 1.347 . S
C805 H833 0.931 . S
C806 C805 1.347 . S
C806 C807 1.369 . S
C807 C806 1.369 . S
C807 C808 1.408 . S
C807 H834 0.930 . S
C808 C803 1.348 . S
C808 C807 1.408 . S
C808 H835 0.930 . S
C809 O822 1.281 . S
C809 O823 1.254 . S
C810 O824 1.236 . S
C810 O825 1.266 . S
C811 Tb801 2.809 . S
C811 C812 1.514 . S
C811 O826 1.248 . S
C811 O827 1.266 . S
C812 C811 1.514 . S
C812 C813 1.359 . S
C812 C817 1.348 . S
C813 C812 1.359 . S
C813 C814 1.380 . S
C813 H836 0.929 . S
C814 C813 1.380 . S
C814 C815 1.347 . S
C814 H837 0.931 . S
C815 C814 1.347 . S
C815 C816 1.369 . S
C816 C815 1.369 . S
C816 C817 1.408 . S
C816 H838 0.930 . S
C817 C812 1.348 . S
C817 C816 1.408 . S
C817 H839 0.930 . S
C818 O828 1.281 . S
C818 O829 1.254 . S
C819 O830 1.236 . S
C819 O831 1.266 . S
O820 Tb800 2.484 . S
O820 C802 1.248 . S
O821 Tb800 2.440 . S
O821 C802 1.266 . S
O822 Tb800 2.658 . S
O822 Tb801 2.325 . S
O822 C809 1.281 . S
O823 Tb800 2.409 . S
O823 C809 1.254 . S
O824 Tb800 2.378 . S
O824 C810 1.236 . S
O825 Tb801 2.341 . S
O825 C810 1.266 . S
O826 Tb801 2.484 . S
O826 C811 1.248 . S
O827 Tb801 2.440 . S
O827 C811 1.266 . S
O828 Tb800 2.325 . S
O828 Tb801 2.658 . S
O828 C818 1.281 . S
O829 Tb801 2.409 . S
O829 C818 1.254 . S
O830 Tb801 2.378 . S
O830 C819 1.236 . S
O831 Tb800 2.341 . S
O831 C819 1.266 . S
H832 C804 0.929 . S
H833 C805 0.931 . S
H834 C807 0.930 . S
H835 C808 0.930 . S
H836 C813 0.929 . S
H837 C814 0.931 . S
H838 C816 0.930 . S
H839 C817 0.930 . S
Tb840 C842 2.809 . S
Tb840 O860 2.484 . S
Tb840 O861 2.440 . S
Tb840 O862 2.658 . S
Tb840 O863 2.409 . S
Tb840 O864 2.378 . S
Tb840 O868 2.325 . S
Tb840 O871 2.341 . S
Tb841 C851 2.809 . S
Tb841 O862 2.325 . S
Tb841 O865 2.341 . S
Tb841 O866 2.484 . S
Tb841 O867 2.440 . S
Tb841 O868 2.658 . S
Tb841 O869 2.409 . S
Tb841 O870 2.378 . S
C842 Tb840 2.809 . S
C842 C843 1.514 . S
C842 O860 1.248 . S
C842 O861 1.266 . S
C843 C842 1.514 . S
C843 C844 1.359 . S
C843 C848 1.348 . S
C844 C843 1.359 . S
C844 C845 1.380 . S
C844 H872 0.929 . S
C845 C844 1.380 . S
C845 C846 1.347 . S
C845 H873 0.931 . S
C846 C845 1.347 . S
C846 C847 1.369 . S
C847 C846 1.369 . S
C847 C848 1.408 . S
C847 H874 0.930 . S
C848 C843 1.348 . S
C848 C847 1.408 . S
C848 H875 0.930 . S
C849 O862 1.281 . S
C849 O863 1.254 . S
C850 O864 1.236 . S
C850 O865 1.266 . S
C851 Tb841 2.809 . S
C851 C852 1.514 . S
C851 O866 1.248 . S
C851 O867 1.266 . S
C852 C851 1.514 . S
C852 C853 1.355 1_455 S
C852 C857 1.348 1_455 S
C853 C852 1.355 1_655 S
C853 C854 1.387 . S
C853 H876 0.925 1_655 S
C854 C853 1.387 . S
C854 C855 1.347 . S
C854 H877 0.931 . S
C855 C854 1.347 . S
C855 C856 1.369 . S
C856 C855 1.369 . S
C856 C857 1.408 . S
C856 H878 0.930 . S
C857 C852 1.348 1_655 S
C857 C856 1.408 . S
C857 H879 0.930 1_655 S
C858 O868 1.281 . S
C858 O869 1.254 . S
C859 O870 1.236 . S
C859 O871 1.266 . S
O860 Tb840 2.484 . S
O860 C842 1.248 . S
O861 Tb840 2.440 . S
O861 C842 1.266 . S
O862 Tb840 2.658 . S
O862 Tb841 2.325 . S
O862 C849 1.281 . S
O863 Tb840 2.409 . S
O863 C849 1.254 . S
O864 Tb840 2.378 . S
O864 C850 1.236 . S
O865 Tb841 2.341 . S
O865 C850 1.266 . S
O866 Tb841 2.484 . S
O866 C851 1.248 . S
O867 Tb841 2.440 . S
O867 C851 1.266 . S
O868 Tb840 2.325 . S
O868 Tb841 2.658 . S
O868 C858 1.281 . S
O869 Tb841 2.409 . S
O869 C858 1.254 . S
O870 Tb841 2.378 . S
O870 C859 1.236 . S
O871 Tb840 2.341 . S
O871 C859 1.266 . S
H872 C844 0.929 . S
H873 C845 0.931 . S
H874 C847 0.930 . S
H875 C848 0.930 . S
H876 C853 0.925 1_455 S
H877 C854 0.931 . S
H878 C856 0.930 . S
H879 C857 0.930 1_455 S
Tb880 C882 2.809 . S
Tb880 O900 2.484 . S
Tb880 O901 2.440 . S
Tb880 O902 2.658 . S
Tb880 O903 2.409 . S
Tb880 O904 2.378 . S
Tb880 O908 2.325 . S
Tb880 O911 2.341 . S
Tb881 C891 2.809 . S
Tb881 O902 2.325 . S
Tb881 O905 2.341 . S
Tb881 O906 2.484 . S
Tb881 O907 2.440 . S
Tb881 O908 2.658 . S
Tb881 O909 2.409 . S
Tb881 O910 2.378 . S
C882 Tb880 2.809 . S
C882 C883 1.514 . S
C882 O900 1.248 . S
C882 O901 1.266 . S
C883 C882 1.514 . S
C883 C884 1.359 . S
C883 C888 1.348 . S
C884 C883 1.359 . S
C884 C885 1.380 . S
C884 H912 0.929 . S
C885 C884 1.380 . S
C885 C886 1.347 . S
C885 H913 0.931 . S
C886 C885 1.347 . S
C886 C887 1.369 . S
C887 C886 1.369 . S
C887 C888 1.408 . S
C887 H914 0.930 . S
C888 C883 1.348 . S
C888 C887 1.408 . S
C888 H915 0.930 . S
C889 O902 1.281 . S
C889 O903 1.254 . S
C890 O904 1.236 . S
C890 O905 1.266 . S
C891 Tb881 2.809 . S
C891 C892 1.514 . S
C891 O906 1.248 . S
C891 O907 1.266 . S
C892 C891 1.514 . S
C892 C893 1.359 . S
C892 C897 1.348 . S
C893 C892 1.359 . S
C893 C894 1.380 . S
C893 H916 0.929 . S
C894 C893 1.380 . S
C894 C895 1.347 . S
C894 H917 0.931 . S
C895 C894 1.347 . S
C895 C896 1.369 . S
C896 C895 1.369 . S
C896 C897 1.408 . S
C896 H918 0.930 . S
C897 C892 1.348 . S
C897 C896 1.408 . S
C897 H919 0.930 . S
C898 O908 1.281 . S
C898 O909 1.254 . S
C899 O910 1.236 . S
C899 O911 1.266 . S
O900 Tb880 2.484 . S
O900 C882 1.248 . S
O901 Tb880 2.440 . S
O901 C882 1.266 . S
O902 Tb880 2.658 . S
O902 Tb881 2.325 . S
O902 C889 1.281 . S
O903 Tb880 2.409 . S
O903 C889 1.254 . S
O904 Tb880 2.378 . S
O904 C890 1.236 . S
O905 Tb881 2.341 . S
O905 C890 1.266 . S
O906 Tb881 2.484 . S
O906 C891 1.248 . S
O907 Tb881 2.440 . S
O907 C891 1.266 . S
O908 Tb880 2.325 . S
O908 Tb881 2.658 . S
O908 C898 1.281 . S
O909 Tb881 2.409 . S
O909 C898 1.254 . S
O910 Tb881 2.378 . S
O910 C899 1.236 . S
O911 Tb880 2.341 . S
O911 C899 1.266 . S
H912 C884 0.929 . S
H913 C885 0.931 . S
H914 C887 0.930 . S
H915 C888 0.930 . S
H916 C893 0.929 . S
H917 C894 0.931 . S
H918 C896 0.930 . S
H919 C897 0.930 . S
Tb920 C922 2.809 . S
Tb920 O940 2.484 . S
Tb920 O941 2.440 . S
Tb920 O942 2.658 . S
Tb920 O943 2.409 . S
Tb920 O944 2.378 . S
Tb920 O948 2.325 . S
Tb920 O951 2.341 . S
Tb921 C931 2.809 . S
Tb921 O942 2.325 . S
Tb921 O945 2.341 . S
Tb921 O946 2.484 . S
Tb921 O947 2.440 . S
Tb921 O948 2.658 . S
Tb921 O949 2.409 . S
Tb921 O950 2.378 . S
C922 Tb920 2.809 . S
C922 C923 1.514 . S
C922 O940 1.248 . S
C922 O941 1.266 . S
C923 C922 1.514 . S
C923 C924 1.359 . S
C923 C928 1.348 . S
C924 C923 1.359 . S
C924 C925 1.380 . S
C924 H952 0.929 . S
C925 C924 1.380 . S
C925 C926 1.347 . S
C925 H953 0.931 . S
C926 C925 1.347 . S
C926 C927 1.369 . S
C927 C926 1.369 . S
C927 C928 1.408 . S
C927 H954 0.930 . S
C928 C923 1.348 . S
C928 C927 1.408 . S
C928 H955 0.930 . S
C929 O942 1.281 . S
C929 O943 1.254 . S
C930 O944 1.236 . S
C930 O945 1.266 . S
C931 Tb921 2.809 . S
C931 C932 1.514 . S
C931 O946 1.248 . S
C931 O947 1.266 . S
C932 C931 1.514 . S
C932 C933 1.355 1_455 S
C932 C937 1.348 1_455 S
C933 C932 1.355 1_655 S
C933 C934 1.387 . S
C933 H956 0.925 1_655 S
C934 C933 1.387 . S
C934 C935 1.347 . S
C934 H957 0.931 . S
C935 C934 1.347 . S
C935 C936 1.369 . S
C936 C935 1.369 . S
C936 C937 1.408 . S
C936 H958 0.930 . S
C937 C932 1.348 1_655 S
C937 C936 1.408 . S
C937 H959 0.930 1_655 S
C938 O948 1.281 . S
C938 O949 1.254 . S
C939 O950 1.236 . S
C939 O951 1.266 . S
O940 Tb920 2.484 . S
O940 C922 1.248 . S
O941 Tb920 2.440 . S
O941 C922 1.266 . S
O942 Tb920 2.658 . S
O942 Tb921 2.325 . S
O942 C929 1.281 . S
O943 Tb920 2.409 . S
O943 C929 1.254 . S
O944 Tb920 2.378 . S
O944 C930 1.236 . S
O945 Tb921 2.341 . S
O945 C930 1.266 . S
O946 Tb921 2.484 . S
O946 C931 1.248 . S
O947 Tb921 2.440 . S
O947 C931 1.266 . S
O948 Tb920 2.325 . S
O948 Tb921 2.658 . S
O948 C938 1.281 . S
O949 Tb921 2.409 . S
O949 C938 1.254 . S
O950 Tb921 2.378 . S
O950 C939 1.236 . S
O951 Tb920 2.341 . S
O951 C939 1.266 . S
H952 C924 0.929 . S
H953 C925 0.931 . S
H954 C927 0.930 . S
H955 C928 0.930 . S
H956 C933 0.925 1_455 S
H957 C934 0.931 . S
H958 C936 0.930 . S
H959 C937 0.930 1_455 S
Tb960 C962 2.804 1_545 S
Tb960 O980 2.484 1_545 S
Tb960 O981 2.440 . S
Tb960 O982 2.658 1_545 S
Tb960 O983 2.409 . S
Tb960 O984 2.378 1_545 S
Tb960 O988 2.325 1_545 S
Tb960 O991 2.341 . S
Tb961 C971 2.809 . S
Tb961 O982 2.325 . S
Tb961 O985 2.341 . S
Tb961 O986 2.484 . S
Tb961 O987 2.440 . S
Tb961 O988 2.658 . S
Tb961 O989 2.409 . S
Tb961 O990 2.378 1_565 S
C962 Tb960 2.804 1_565 S
C962 C963 1.518 . S
C962 O980 1.250 . S
C962 O981 1.259 1_565 S
C963 C962 1.518 . S
C963 C964 1.359 . S
C963 C968 1.348 . S
C964 C963 1.359 . S
C964 C965 1.380 . S
C964 H992 0.929 . S
C965 C964 1.380 . S
C965 C966 1.347 . S
C965 H993 0.931 . S
C966 C965 1.347 . S
C966 C967 1.369 . S
C967 C966 1.369 . S
C967 C968 1.408 . S
C967 H994 0.930 . S
C968 C963 1.348 . S
C968 C967 1.408 . S
C968 H995 0.930 . S
C969 O982 1.281 . S
C969 O983 1.254 1_565 S
C970 O984 1.236 . S
C970 O985 1.266 . S
C971 Tb961 2.809 . S
C971 C972 1.514 . S
C971 O986 1.248 . S
C971 O987 1.266 . S
C972 C971 1.514 . S
C972 C973 1.359 . S
C972 C977 1.348 . S
C973 C972 1.359 . S
C973 C974 1.380 1_565 S
C973 H996 0.929 . S
C974 C973 1.380 1_545 S
C974 C975 1.349 . S
C974 H997 0.931 . S
C975 C974 1.349 . S
C975 C976 1.363 1_545 S
C976 C975 1.363 1_565 S
C976 C977 1.408 . S
C976 H998 0.930 . S
C977 C972 1.348 . S
C977 C976 1.408 . S
C977 H999 0.930 . S
C978 O988 1.281 . S
C978 O989 1.254 . S
C979 O990 1.236 . S
C979 O991 1.266 . S
O980 Tb960 2.484 1_565 S
O980 C962 1.250 . S
O981 Tb960 2.440 . S
O981 C962 1.259 1_545 S
O982 Tb960 2.658 1_565 S
O982 Tb961 2.325 . S
O982 C969 1.281 . S
O983 Tb960 2.409 . S
O983 C969 1.254 1_545 S
O984 Tb960 2.378 1_565 S
O984 C970 1.236 . S
O985 Tb961 2.341 . S
O985 C970 1.266 . S
O986 Tb961 2.484 . S
O986 C971 1.248 . S
O987 Tb961 2.440 . S
O987 C971 1.266 . S
O988 Tb960 2.325 1_565 S
O988 Tb961 2.658 . S
O988 C978 1.281 . S
O989 Tb961 2.409 . S
O989 C978 1.254 . S
O990 Tb961 2.378 1_545 S
O990 C979 1.236 . S
O991 Tb960 2.341 . S
O991 C979 1.266 . S
H992 C964 0.929 . S
H993 C965 0.931 . S
H994 C967 0.930 . S
H995 C968 0.930 . S
H996 C973 0.929 . S
H997 C974 0.931 . S
H998 C976 0.930 . S
H999 C977 0.930 . S
Tb1000 C1002 2.809 . S
Tb1000 O1020 2.484 . S
Tb1000 O1021 2.440 . S
Tb1000 O1022 2.658 . S
Tb1000 O1023 2.409 . S
Tb1000 O1024 2.378 . S
Tb1000 O1028 2.325 . S
Tb1000 O1031 2.341 . S
Tb1001 C1011 2.809 . S
Tb1001 O1022 2.325 . S
Tb1001 O1025 2.341 . S
Tb1001 O1026 2.484 . S
Tb1001 O1027 2.440 . S
Tb1001 O1028 2.658 . S
Tb1001 O1029 2.409 . S
Tb1001 O1030 2.378 . S
C1002 Tb1000 2.809 . S
C1002 C1003 1.514 . S
C1002 O1020 1.248 . S
C1002 O1021 1.266 . S
C1003 C1002 1.514 . S
C1003 C1004 1.355 1_655 S
C1003 C1008 1.348 1_655 S
C1004 C1003 1.355 1_455 S
C1004 C1005 1.387 . S
C1004 H1032 0.925 1_455 S
C1005 C1004 1.387 . S
C1005 C1006 1.347 . S
C1005 H1033 0.931 . S
C1006 C1005 1.347 . S
C1006 C1007 1.369 . S
C1007 C1006 1.369 . S
C1007 C1008 1.408 . S
C1007 H1034 0.930 . S
C1008 C1003 1.348 1_455 S
C1008 C1007 1.408 . S
C1008 H1035 0.930 1_455 S
C1009 O1022 1.281 . S
C1009 O1023 1.254 . S
C1010 O1024 1.236 . S
C1010 O1025 1.266 . S
C1011 Tb1001 2.809 . S
C1011 C1012 1.514 . S
C1011 O1026 1.248 . S
C1011 O1027 1.266 . S
C1012 C1011 1.514 . S
C1012 C1013 1.359 . S
C1012 C1017 1.348 . S
C1013 C1012 1.359 . S
C1013 C1014 1.380 . S
C1013 H1036 0.929 . S
C1014 C1013 1.380 . S
C1014 C1015 1.347 . S
C1014 H1037 0.931 . S
C1015 C1014 1.347 . S
C1015 C1016 1.369 . S
C1016 C1015 1.369 . S
C1016 C1017 1.408 . S
C1016 H1038 0.930 . S
C1017 C1012 1.348 . S
C1017 C1016 1.408 . S
C1017 H1039 0.930 . S
C1018 O1028 1.281 . S
C1018 O1029 1.254 . S
C1019 O1030 1.236 . S
C1019 O1031 1.266 . S
O1020 Tb1000 2.484 . S
O1020 C1002 1.248 . S
O1021 Tb1000 2.440 . S
O1021 C1002 1.266 . S
O1022 Tb1000 2.658 . S
O1022 Tb1001 2.325 . S
O1022 C1009 1.281 . S
O1023 Tb1000 2.409 . S
O1023 C1009 1.254 . S
O1024 Tb1000 2.378 . S
O1024 C1010 1.236 . S
O1025 Tb1001 2.341 . S
O1025 C1010 1.266 . S
O1026 Tb1001 2.484 . S
O1026 C1011 1.248 . S
O1027 Tb1001 2.440 . S
O1027 C1011 1.266 . S
O1028 Tb1000 2.325 . S
O1028 Tb1001 2.658 . S
O1028 C1018 1.281 . S
O1029 Tb1001 2.409 . S
O1029 C1018 1.254 . S
O1030 Tb1001 2.378 . S
O1030 C1019 1.236 . S
O1031 Tb1000 2.341 . S
O1031 C1019 1.266 . S
H1032 C1004 0.925 1_655 S
H1033 C1005 0.931 . S
H1034 C1007 0.930 . S
H1035 C1008 0.930 1_655 S
H1036 C1013 0.929 . S
H1037 C1014 0.931 . S
H1038 C1016 0.930 . S
H1039 C1017 0.930 . S
Tb1040 C1042 2.809 . S
Tb1040 O1060 2.484 . S
Tb1040 O1061 2.440 . S
Tb1040 O1062 2.658 . S
Tb1040 O1063 2.409 . S
Tb1040 O1064 2.378 . S
Tb1040 O1068 2.325 . S
Tb1040 O1071 2.341 . S
Tb1041 C1051 2.809 . S
Tb1041 O1062 2.325 . S
Tb1041 O1065 2.341 . S
Tb1041 O1066 2.484 . S
Tb1041 O1067 2.440 . S
Tb1041 O1068 2.658 . S
Tb1041 O1069 2.409 . S
Tb1041 O1070 2.378 . S
C1042 Tb1040 2.809 . S
C1042 C1043 1.514 . S
C1042 O1060 1.248 . S
C1042 O1061 1.266 . S
C1043 C1042 1.514 . S
C1043 C1044 1.359 . S
C1043 C1048 1.348 . S
C1044 C1043 1.359 . S
C1044 C1045 1.380 . S
C1044 H1072 0.929 . S
C1045 C1044 1.380 . S
C1045 C1046 1.347 . S
C1045 H1073 0.931 . S
C1046 C1045 1.347 . S
C1046 C1047 1.369 . S
C1047 C1046 1.369 . S
C1047 C1048 1.408 . S
C1047 H1074 0.930 . S
C1048 C1043 1.348 . S
C1048 C1047 1.408 . S
C1048 H1075 0.930 . S
C1049 O1062 1.281 . S
C1049 O1063 1.254 . S
C1050 O1064 1.236 . S
C1050 O1065 1.266 . S
C1051 Tb1041 2.809 . S
C1051 C1052 1.514 . S
C1051 O1066 1.248 . S
C1051 O1067 1.266 . S
C1052 C1051 1.514 . S
C1052 C1053 1.359 . S
C1052 C1057 1.348 . S
C1053 C1052 1.359 . S
C1053 C1054 1.380 . S
C1053 H1076 0.929 . S
C1054 C1053 1.380 . S
C1054 C1055 1.347 . S
C1054 H1077 0.931 . S
C1055 C1054 1.347 . S
C1055 C1056 1.369 . S
C1056 C1055 1.369 . S
C1056 C1057 1.408 . S
C1056 H1078 0.930 . S
C1057 C1052 1.348 . S
C1057 C1056 1.408 . S
C1057 H1079 0.930 . S
C1058 O1068 1.281 . S
C1058 O1069 1.254 . S
C1059 O1070 1.236 . S
C1059 O1071 1.266 . S
O1060 Tb1040 2.484 . S
O1060 C1042 1.248 . S
O1061 Tb1040 2.440 . S
O1061 C1042 1.266 . S
O1062 Tb1040 2.658 . S
O1062 Tb1041 2.325 . S
O1062 C1049 1.281 . S
O1063 Tb1040 2.409 . S
O1063 C1049 1.254 . S
O1064 Tb1040 2.378 . S
O1064 C1050 1.236 . S
O1065 Tb1041 2.341 . S
O1065 C1050 1.266 . S
O1066 Tb1041 2.484 . S
O1066 C1051 1.248 . S
O1067 Tb1041 2.440 . S
O1067 C1051 1.266 . S
O1068 Tb1040 2.325 . S
O1068 Tb1041 2.658 . S
O1068 C1058 1.281 . S
O1069 Tb1041 2.409 . S
O1069 C1058 1.254 . S
O1070 Tb1041 2.378 . S
O1070 C1059 1.236 . S
O1071 Tb1040 2.341 . S
O1071 C1059 1.266 . S
H1072 C1044 0.929 . S
H1073 C1045 0.931 . S
H1074 C1047 0.930 . S
H1075 C1048 0.930 . S
H1076 C1053 0.929 . S
H1077 C1054 0.931 . S
H1078 C1056 0.930 . S
H1079 C1057 0.930 . S
Tb1080 C1082 2.804 1_545 S
Tb1080 O1100 2.484 1_545 S
Tb1080 O1101 2.440 . S
Tb1080 O1102 2.658 1_545 S
Tb1080 O1103 2.409 . S
Tb1080 O1104 2.378 1_545 S
Tb1080 O1108 2.325 1_545 S
Tb1080 O1111 2.341 . S
Tb1081 C1091 2.809 . S
Tb1081 O1102 2.325 . S
Tb1081 O1105 2.341 . S
Tb1081 O1106 2.484 . S
Tb1081 O1107 2.440 . S
Tb1081 O1108 2.658 . S
Tb1081 O1109 2.409 . S
Tb1081 O1110 2.378 1_565 S
C1082 Tb1080 2.804 1_565 S
C1082 C1083 1.518 . S
C1082 O1100 1.250 . S
C1082 O1101 1.259 1_565 S
C1083 C1082 1.518 . S
C1083 C1084 1.355 1_655 S
C1083 C1088 1.348 1_655 S
C1084 C1083 1.355 1_455 S
C1084 C1085 1.387 . S
C1084 H1112 0.925 1_455 S
C1085 C1084 1.387 . S
C1085 C1086 1.347 . S
C1085 H1113 0.931 . S
C1086 C1085 1.347 . S
C1086 C1087 1.369 . S
C1087 C1086 1.369 . S
C1087 C1088 1.408 . S
C1087 H1114 0.930 . S
C1088 C1083 1.348 1_455 S
C1088 C1087 1.408 . S
C1088 H1115 0.930 1_455 S
C1089 O1102 1.281 . S
C1089 O1103 1.254 1_565 S
C1090 O1104 1.236 . S
C1090 O1105 1.266 . S
C1091 Tb1081 2.809 . S
C1091 C1092 1.514 . S
C1091 O1106 1.248 . S
C1091 O1107 1.266 . S
C1092 C1091 1.514 . S
C1092 C1093 1.359 . S
C1092 C1097 1.348 . S
C1093 C1092 1.359 . S
C1093 C1094 1.380 1_565 S
C1093 H1116 0.929 . S
C1094 C1093 1.380 1_545 S
C1094 C1095 1.349 . S
C1094 H1117 0.931 . S
C1095 C1094 1.349 . S
C1095 C1096 1.363 1_545 S
C1096 C1095 1.363 1_565 S
C1096 C1097 1.408 . S
C1096 H1118 0.930 . S
C1097 C1092 1.348 . S
C1097 C1096 1.408 . S
C1097 H1119 0.930 . S
C1098 O1108 1.281 . S
C1098 O1109 1.254 . S
C1099 O1110 1.236 . S
C1099 O1111 1.266 . S
O1100 Tb1080 2.484 1_565 S
O1100 C1082 1.250 . S
O1101 Tb1080 2.440 . S
O1101 C1082 1.259 1_545 S
O1102 Tb1080 2.658 1_565 S
O1102 Tb1081 2.325 . S
O1102 C1089 1.281 . S
O1103 Tb1080 2.409 . S
O1103 C1089 1.254 1_545 S
O1104 Tb1080 2.378 1_565 S
O1104 C1090 1.236 . S
O1105 Tb1081 2.341 . S
O1105 C1090 1.266 . S
O1106 Tb1081 2.484 . S
O1106 C1091 1.248 . S
O1107 Tb1081 2.440 . S
O1107 C1091 1.266 . S
O1108 Tb1080 2.325 1_565 S
O1108 Tb1081 2.658 . S
O1108 C1098 1.281 . S
O1109 Tb1081 2.409 . S
O1109 C1098 1.254 . S
O1110 Tb1081 2.378 1_545 S
O1110 C1099 1.236 . S
O1111 Tb1080 2.341 . S
O1111 C1099 1.266 . S
H1112 C1084 0.925 1_655 S
H1113 C1085 0.931 . S
H1114 C1087 0.930 . S
H1115 C1088 0.930 1_655 S
H1116 C1093 0.929 . S
H1117 C1094 0.931 . S
H1118 C1096 0.930 . S
H1119 C1097 0.930 . S
Tb1120 C1122 2.809 . S
Tb1120 O1140 2.484 . S
Tb1120 O1141 2.440 . S
Tb1120 O1142 2.658 . S
Tb1120 O1143 2.409 . S
Tb1120 O1144 2.378 1_545 S
Tb1120 O1148 2.325 . S
Tb1120 O1151 2.341 . S
Tb1121 C1131 2.804 1_565 S
Tb1121 O1142 2.325 1_565 S
Tb1121 O1145 2.341 . S
Tb1121 O1146 2.484 1_565 S
Tb1121 O1147 2.440 . S
Tb1121 O1148 2.658 1_565 S
Tb1121 O1149 2.409 . S
Tb1121 O1150 2.378 1_565 S
C1122 Tb1120 2.809 . S
C1122 C1123 1.514 . S
C1122 O1140 1.248 . S
C1122 O1141 1.266 . S
C1123 C1122 1.514 . S
C1123 C1124 1.359 . S
C1123 C1128 1.348 . S
C1124 C1123 1.359 . S
C1124 C1125 1.380 1_545 S
C1124 H1152 0.929 . S
C1125 C1124 1.380 1_565 S
C1125 C1126 1.349 . S
C1125 H1153 0.931 . S
C1126 C1125 1.349 . S
C1126 C1127 1.363 1_565 S
C1127 C1126 1.363 1_545 S
C1127 C1128 1.408 . S
C1127 H1154 0.930 . S
C1128 C1123 1.348 . S
C1128 C1127 1.408 . S
C1128 H1155 0.930 . S
C1129 O1142 1.281 . S
C1129 O1143 1.254 . S
C1130 O1144 1.236 . S
C1130 O1145 1.266 . S
C1131 Tb1121 2.804 1_545 S
C1131 C1132 1.518 . S
C1131 O1146 1.250 . S
C1131 O1147 1.259 1_545 S
C1132 C1131 1.518 . S
C1132 C1133 1.359 . S
C1132 C1137 1.348 . S
C1133 C1132 1.359 . S
C1133 C1134 1.380 . S
C1133 H1156 0.929 . S
C1134 C1133 1.380 . S
C1134 C1135 1.347 . S
C1134 H1157 0.931 . S
C1135 C1134 1.347 . S
C1135 C1136 1.369 . S
C1136 C1135 1.369 . S
C1136 C1137 1.408 . S
C1136 H1158 0.930 . S
C1137 C1132 1.348 . S
C1137 C1136 1.408 . S
C1137 H1159 0.930 . S
C1138 O1148 1.281 . S
C1138 O1149 1.254 1_545 S
C1139 O1150 1.236 . S
C1139 O1151 1.266 . S
O1140 Tb1120 2.484 . S
O1140 C1122 1.248 . S
O1141 Tb1120 2.440 . S
O1141 C1122 1.266 . S
O1142 Tb1120 2.658 . S
O1142 Tb1121 2.325 1_545 S
O1142 C1129 1.281 . S
O1143 Tb1120 2.409 . S
O1143 C1129 1.254 . S
O1144 Tb1120 2.378 1_565 S
O1144 C1130 1.236 . S
O1145 Tb1121 2.341 . S
O1145 C1130 1.266 . S
O1146 Tb1121 2.484 1_545 S
O1146 C1131 1.250 . S
O1147 Tb1121 2.440 . S
O1147 C1131 1.259 1_565 S
O1148 Tb1120 2.325 . S
O1148 Tb1121 2.658 1_545 S
O1148 C1138 1.281 . S
O1149 Tb1121 2.409 . S
O1149 C1138 1.254 1_565 S
O1150 Tb1121 2.378 1_545 S
O1150 C1139 1.236 . S
O1151 Tb1120 2.341 . S
O1151 C1139 1.266 . S
H1152 C1124 0.929 . S
H1153 C1125 0.931 . S
H1154 C1127 0.930 . S
H1155 C1128 0.930 . S
H1156 C1133 0.929 . S
H1157 C1134 0.931 . S
H1158 C1136 0.930 . S
H1159 C1137 0.930 . S
Tb1160 C1162 2.809 . S
Tb1160 O1180 2.484 . S
Tb1160 O1181 2.440 . S
Tb1160 O1182 2.658 . S
Tb1160 O1183 2.409 . S
Tb1160 O1184 2.378 . S
Tb1160 O1188 2.325 . S
Tb1160 O1191 2.341 . S
Tb1161 C1171 2.809 . S
Tb1161 O1182 2.325 . S
Tb1161 O1185 2.341 . S
Tb1161 O1186 2.484 . S
Tb1161 O1187 2.440 . S
Tb1161 O1188 2.658 . S
Tb1161 O1189 2.409 . S
Tb1161 O1190 2.378 . S
C1162 Tb1160 2.809 . S
C1162 C1163 1.514 . S
C1162 O1180 1.248 . S
C1162 O1181 1.266 . S
C1163 C1162 1.514 . S
C1163 C1164 1.359 . S
C1163 C1168 1.348 . S
C1164 C1163 1.359 . S
C1164 C1165 1.380 . S
C1164 H1192 0.929 . S
C1165 C1164 1.380 . S
C1165 C1166 1.347 . S
C1165 H1193 0.931 . S
C1166 C1165 1.347 . S
C1166 C1167 1.369 . S
C1167 C1166 1.369 . S
C1167 C1168 1.408 . S
C1167 H1194 0.930 . S
C1168 C1163 1.348 . S
C1168 C1167 1.408 . S
C1168 H1195 0.930 . S
C1169 O1182 1.281 . S
C1169 O1183 1.254 . S
C1170 O1184 1.236 . S
C1170 O1185 1.266 . S
C1171 Tb1161 2.809 . S
C1171 C1172 1.514 . S
C1171 O1186 1.248 . S
C1171 O1187 1.266 . S
C1172 C1171 1.514 . S
C1172 C1173 1.355 1_455 S
C1172 C1177 1.348 1_455 S
C1173 C1172 1.355 1_655 S
C1173 C1174 1.387 . S
C1173 H1196 0.925 1_655 S
C1174 C1173 1.387 . S
C1174 C1175 1.347 . S
C1174 H1197 0.931 . S
C1175 C1174 1.347 . S
C1175 C1176 1.369 . S
C1176 C1175 1.369 . S
C1176 C1177 1.408 . S
C1176 H1198 0.930 . S
C1177 C1172 1.348 1_655 S
C1177 C1176 1.408 . S
C1177 H1199 0.930 1_655 S
C1178 O1188 1.281 . S
C1178 O1189 1.254 . S
C1179 O1190 1.236 . S
C1179 O1191 1.266 . S
O1180 Tb1160 2.484 . S
O1180 C1162 1.248 . S
O1181 Tb1160 2.440 . S
O1181 C1162 1.266 . S
O1182 Tb1160 2.658 . S
O1182 Tb1161 2.325 . S
O1182 C1169 1.281 . S
O1183 Tb1160 2.409 . S
O1183 C1169 1.254 . S
O1184 Tb1160 2.378 . S
O1184 C1170 1.236 . S
O1185 Tb1161 2.341 . S
O1185 C1170 1.266 . S
O1186 Tb1161 2.484 . S
O1186 C1171 1.248 . S
O1187 Tb1161 2.440 . S
O1187 C1171 1.266 . S
O1188 Tb1160 2.325 . S
O1188 Tb1161 2.658 . S
O1188 C1178 1.281 . S
O1189 Tb1161 2.409 . S
O1189 C1178 1.254 . S
O1190 Tb1161 2.378 . S
O1190 C1179 1.236 . S
O1191 Tb1160 2.341 . S
O1191 C1179 1.266 . S
H1192 C1164 0.929 . S
H1193 C1165 0.931 . S
H1194 C1167 0.930 . S
H1195 C1168 0.930 . S
H1196 C1173 0.925 1_455 S
H1197 C1174 0.931 . S
H1198 C1176 0.930 . S
H1199 C1177 0.930 1_455 S
Tb1200 C1202 2.809 . S
Tb1200 O1220 2.484 . S
Tb1200 O1221 2.440 . S
Tb1200 O1222 2.658 . S
Tb1200 O1223 2.409 . S
Tb1200 O1224 2.378 . S
Tb1200 O1228 2.325 . S
Tb1200 O1231 2.341 . S
Tb1201 C1211 2.809 . S
Tb1201 O1222 2.325 . S
Tb1201 O1225 2.341 . S
Tb1201 O1226 2.484 . S
Tb1201 O1227 2.440 . S
Tb1201 O1228 2.658 . S
Tb1201 O1229 2.409 . S
Tb1201 O1230 2.378 . S
C1202 Tb1200 2.809 . S
C1202 C1203 1.514 . S
C1202 O1220 1.248 . S
C1202 O1221 1.266 . S
C1203 C1202 1.514 . S
C1203 C1204 1.359 . S
C1203 C1208 1.348 . S
C1204 C1203 1.359 . S
C1204 C1205 1.380 . S
C1204 H1232 0.929 . S
C1205 C1204 1.380 . S
C1205 C1206 1.347 . S
C1205 H1233 0.931 . S
C1206 C1205 1.347 . S
C1206 C1207 1.369 . S
C1207 C1206 1.369 . S
C1207 C1208 1.408 . S
C1207 H1234 0.930 . S
C1208 C1203 1.348 . S
C1208 C1207 1.408 . S
C1208 H1235 0.930 . S
C1209 O1222 1.281 . S
C1209 O1223 1.254 . S
C1210 O1224 1.236 . S
C1210 O1225 1.266 . S
C1211 Tb1201 2.809 . S
C1211 C1212 1.514 . S
C1211 O1226 1.248 . S
C1211 O1227 1.266 . S
C1212 C1211 1.514 . S
C1212 C1213 1.359 . S
C1212 C1217 1.348 . S
C1213 C1212 1.359 . S
C1213 C1214 1.380 . S
C1213 H1236 0.929 . S
C1214 C1213 1.380 . S
C1214 C1215 1.347 . S
C1214 H1237 0.931 . S
C1215 C1214 1.347 . S
C1215 C1216 1.369 . S
C1216 C1215 1.369 . S
C1216 C1217 1.408 . S
C1216 H1238 0.930 . S
C1217 C1212 1.348 . S
C1217 C1216 1.408 . S
C1217 H1239 0.930 . S
C1218 O1228 1.281 . S
C1218 O1229 1.254 . S
C1219 O1230 1.236 . S
C1219 O1231 1.266 . S
O1220 Tb1200 2.484 . S
O1220 C1202 1.248 . S
O1221 Tb1200 2.440 . S
O1221 C1202 1.266 . S
O1222 Tb1200 2.658 . S
O1222 Tb1201 2.325 . S
O1222 C1209 1.281 . S
O1223 Tb1200 2.409 . S
O1223 C1209 1.254 . S
O1224 Tb1200 2.378 . S
O1224 C1210 1.236 . S
O1225 Tb1201 2.341 . S
O1225 C1210 1.266 . S
O1226 Tb1201 2.484 . S
O1226 C1211 1.248 . S
O1227 Tb1201 2.440 . S
O1227 C1211 1.266 . S
O1228 Tb1200 2.325 . S
O1228 Tb1201 2.658 . S
O1228 C1218 1.281 . S
O1229 Tb1201 2.409 . S
O1229 C1218 1.254 . S
O1230 Tb1201 2.378 . S
O1230 C1219 1.236 . S
O1231 Tb1200 2.341 . S
O1231 C1219 1.266 . S
H1232 C1204 0.929 . S
H1233 C1205 0.931 . S
H1234 C1207 0.930 . S
H1235 C1208 0.930 . S
H1236 C1213 0.929 . S
H1237 C1214 0.931 . S
H1238 C1216 0.930 . S
H1239 C1217 0.930 . S
Tb1240 C1242 2.809 . S
Tb1240 O1260 2.484 . S
Tb1240 O1261 2.440 . S
Tb1240 O1262 2.658 . S
Tb1240 O1263 2.409 . S
Tb1240 O1264 2.378 1_545 S
Tb1240 O1268 2.325 . S
Tb1240 O1271 2.341 . S
Tb1241 C1251 2.804 1_565 S
Tb1241 O1262 2.325 1_565 S
Tb1241 O1265 2.341 . S
Tb1241 O1266 2.484 1_565 S
Tb1241 O1267 2.440 . S
Tb1241 O1268 2.658 1_565 S
Tb1241 O1269 2.409 . S
Tb1241 O1270 2.378 1_565 S
C1242 Tb1240 2.809 . S
C1242 C1243 1.514 . S
C1242 O1260 1.248 . S
C1242 O1261 1.266 . S
C1243 C1242 1.514 . S
C1243 C1244 1.359 . S
C1243 C1248 1.348 . S
C1244 C1243 1.359 . S
C1244 C1245 1.380 1_545 S
C1244 H1272 0.929 . S
C1245 C1244 1.380 1_565 S
C1245 C1246 1.349 . S
C1245 H1273 0.931 . S
C1246 C1245 1.349 . S
C1246 C1247 1.363 1_565 S
C1247 C1246 1.363 1_545 S
C1247 C1248 1.408 . S
C1247 H1274 0.930 . S
C1248 C1243 1.348 . S
C1248 C1247 1.408 . S
C1248 H1275 0.930 . S
C1249 O1262 1.281 . S
C1249 O1263 1.254 . S
C1250 O1264 1.236 . S
C1250 O1265 1.266 . S
C1251 Tb1241 2.804 1_545 S
C1251 C1252 1.518 . S
C1251 O1266 1.250 . S
C1251 O1267 1.259 1_545 S
C1252 C1251 1.518 . S
C1252 C1253 1.355 1_455 S
C1252 C1257 1.348 1_455 S
C1253 C1252 1.355 1_655 S
C1253 C1254 1.387 . S
C1253 H1276 0.925 1_655 S
C1254 C1253 1.387 . S
C1254 C1255 1.347 . S
C1254 H1277 0.931 . S
C1255 C1254 1.347 . S
C1255 C1256 1.369 . S
C1256 C1255 1.369 . S
C1256 C1257 1.408 . S
C1256 H1278 0.930 . S
C1257 C1252 1.348 1_655 S
C1257 C1256 1.408 . S
C1257 H1279 0.930 1_655 S
C1258 O1268 1.281 . S
C1258 O1269 1.254 1_545 S
C1259 O1270 1.236 . S
C1259 O1271 1.266 . S
O1260 Tb1240 2.484 . S
O1260 C1242 1.248 . S
O1261 Tb1240 2.440 . S
O1261 C1242 1.266 . S
O1262 Tb1240 2.658 . S
O1262 Tb1241 2.325 1_545 S
O1262 C1249 1.281 . S
O1263 Tb1240 2.409 . S
O1263 C1249 1.254 . S
O1264 Tb1240 2.378 1_565 S
O1264 C1250 1.236 . S
O1265 Tb1241 2.341 . S
O1265 C1250 1.266 . S
O1266 Tb1241 2.484 1_545 S
O1266 C1251 1.250 . S
O1267 Tb1241 2.440 . S
O1267 C1251 1.259 1_565 S
O1268 Tb1240 2.325 . S
O1268 Tb1241 2.658 1_545 S
O1268 C1258 1.281 . S
O1269 Tb1241 2.409 . S
O1269 C1258 1.254 1_565 S
O1270 Tb1241 2.378 1_545 S
O1270 C1259 1.236 . S
O1271 Tb1240 2.341 . S
O1271 C1259 1.266 . S
H1272 C1244 0.929 . S
H1273 C1245 0.931 . S
H1274 C1247 0.930 . S
H1275 C1248 0.930 . S
H1276 C1253 0.925 1_455 S
H1277 C1254 0.931 . S
H1278 C1256 0.930 . S
H1279 C1257 0.930 1_455 S
C1280 C1281 1.369 . S
C1280 C1282 1.419 . S
C1280 H1284 0.930 . S
C1281 C1280 1.369 . S
C1281 C1290 1.429 . S
C1282 C1280 1.419 . S
C1282 C1283 1.363 . S
C1282 H1285 0.929 . S
C1283 C1282 1.363 . S
C1283 C1289 1.428 . S
H1284 C1280 0.930 . S
H1285 C1282 0.929 . S
S1286 N1287 1.613 . S
S1286 N1288 1.610 . S
N1287 S1286 1.613 . S
N1287 C1290 1.350 . S
N1288 S1286 1.610 . S
N1288 C1289 1.351 . S
C1289 C1283 1.428 . S
C1289 N1288 1.351 . S
C1289 C1290 1.434 . S
C1290 C1281 1.429 . S
C1290 N1287 1.350 . S
C1290 C1289 1.434 . S
C1291 C1292 1.369 . S
C1291 C1293 1.419 . S
C1291 H1295 0.930 . S
C1292 C1291 1.369 . S
C1292 C1301 1.429 . S
C1293 C1291 1.419 . S
C1293 C1294 1.363 . S
C1293 H1296 0.929 . S
C1294 C1293 1.363 . S
C1294 C1300 1.428 . S
H1295 C1291 0.930 . S
H1296 C1293 0.929 . S
S1297 N1298 1.613 . S
S1297 N1299 1.610 . S
N1298 S1297 1.613 . S
N1298 C1301 1.350 . S
N1299 S1297 1.610 . S
N1299 C1300 1.351 . S
C1300 C1294 1.428 . S
C1300 N1299 1.351 . S
C1300 C1301 1.434 . S
C1301 C1292 1.429 . S
C1301 N1298 1.350 . S
C1301 C1300 1.434 . S
C1302 C1303 1.369 . S
C1302 C1304 1.419 . S
C1302 H1306 0.930 . S
C1303 C1302 1.369 . S
C1303 C1312 1.429 . S
C1304 C1302 1.419 . S
C1304 C1305 1.363 . S
C1304 H1307 0.929 . S
C1305 C1304 1.363 . S
C1305 C1311 1.428 . S
H1306 C1302 0.930 . S
H1307 C1304 0.929 . S
S1308 N1309 1.613 . S
S1308 N1310 1.610 . S
N1309 S1308 1.613 . S
N1309 C1312 1.350 . S
N1310 S1308 1.610 . S
N1310 C1311 1.351 . S
C1311 C1305 1.428 . S
C1311 N1310 1.351 . S
C1311 C1312 1.434 . S
C1312 C1303 1.429 . S
C1312 N1309 1.350 . S
C1312 C1311 1.434 . S
C1313 C1314 1.369 . S
C1313 C1315 1.419 . S
C1313 H1317 0.930 . S
C1314 C1313 1.369 . S
C1314 C1323 1.429 . S
C1315 C1313 1.419 . S
C1315 C1316 1.363 . S
C1315 H1318 0.929 . S
C1316 C1315 1.363 . S
C1316 C1322 1.428 . S
H1317 C1313 0.930 . S
H1318 C1315 0.929 . S
S1319 N1320 1.613 . S
S1319 N1321 1.610 . S
N1320 S1319 1.613 . S
N1320 C1323 1.350 . S
N1321 S1319 1.610 . S
N1321 C1322 1.351 . S
C1322 C1316 1.428 . S
C1322 N1321 1.351 . S
C1322 C1323 1.434 . S
C1323 C1314 1.429 . S
C1323 N1320 1.350 . S
C1323 C1322 1.434 . S
C1324 C1325 1.369 . S
C1324 C1326 1.419 . S
C1324 H1328 0.930 . S
C1325 C1324 1.369 . S
C1325 C1334 1.429 . S
C1326 C1324 1.419 . S
C1326 C1327 1.363 . S
C1326 H1329 0.929 . S
C1327 C1326 1.363 . S
C1327 C1333 1.428 . S
H1328 C1324 0.930 . S
H1329 C1326 0.929 . S
S1330 N1331 1.613 . S
S1330 N1332 1.610 . S
N1331 S1330 1.613 . S
N1331 C1334 1.350 . S
N1332 S1330 1.610 . S
N1332 C1333 1.351 . S
C1333 C1327 1.428 . S
C1333 N1332 1.351 . S
C1333 C1334 1.434 . S
C1334 C1325 1.429 . S
C1334 N1331 1.350 . S
C1334 C1333 1.434 . S
C1335 C1336 1.369 . S
C1335 C1337 1.419 . S
C1335 H1339 0.930 . S
C1336 C1335 1.369 . S
C1336 C1345 1.429 . S
C1337 C1335 1.419 . S
C1337 C1338 1.363 . S
C1337 H1340 0.929 . S
C1338 C1337 1.363 . S
C1338 C1344 1.428 . S
H1339 C1335 0.930 . S
H1340 C1337 0.929 . S
S1341 N1342 1.613 . S
S1341 N1343 1.610 . S
N1342 S1341 1.613 . S
N1342 C1345 1.350 . S
N1343 S1341 1.610 . S
N1343 C1344 1.351 . S
C1344 C1338 1.428 . S
C1344 N1343 1.351 . S
C1344 C1345 1.434 . S
C1345 C1336 1.429 . S
C1345 N1342 1.350 . S
C1345 C1344 1.434 . S
C1346 C1347 1.369 . S
C1346 C1348 1.419 . S
C1346 H1350 0.930 . S
C1347 C1346 1.369 . S
C1347 C1356 1.429 . S
C1348 C1346 1.419 . S
C1348 C1349 1.363 . S
C1348 H1351 0.929 . S
C1349 C1348 1.363 . S
C1349 C1355 1.428 . S
H1350 C1346 0.930 . S
H1351 C1348 0.929 . S
S1352 N1353 1.613 . S
S1352 N1354 1.610 . S
N1353 S1352 1.613 . S
N1353 C1356 1.350 . S
N1354 S1352 1.610 . S
N1354 C1355 1.351 . S
C1355 C1349 1.428 . S
C1355 N1354 1.351 . S
C1355 C1356 1.434 . S
C1356 C1347 1.429 . S
C1356 N1353 1.350 . S
C1356 C1355 1.434 . S
C1357 C1358 1.369 . S
C1357 C1359 1.419 . S
C1357 H1361 0.930 . S
C1358 C1357 1.369 . S
C1358 C1367 1.429 . S
C1359 C1357 1.419 . S
C1359 C1360 1.363 . S
C1359 H1362 0.929 . S
C1360 C1359 1.363 . S
C1360 C1366 1.428 . S
H1361 C1357 0.930 . S
H1362 C1359 0.929 . S
S1363 N1364 1.613 . S
S1363 N1365 1.610 . S
N1364 S1363 1.613 . S
N1364 C1367 1.350 . S
N1365 S1363 1.610 . S
N1365 C1366 1.351 . S
C1366 C1360 1.428 . S
C1366 N1365 1.351 . S
C1366 C1367 1.434 . S
C1367 C1358 1.429 . S
C1367 N1364 1.350 . S
C1367 C1366 1.434 . S
C1368 C1369 1.369 . S
C1368 C1370 1.419 . S
C1368 H1372 0.930 . S
C1369 C1368 1.369 . S
C1369 C1378 1.429 . S
C1370 C1368 1.419 . S
C1370 C1371 1.363 . S
C1370 H1373 0.929 . S
C1371 C1370 1.363 . S
C1371 C1377 1.428 . S
H1372 C1368 0.930 . S
H1373 C1370 0.929 . S
S1374 N1375 1.613 . S
S1374 N1376 1.610 . S
N1375 S1374 1.613 . S
N1375 C1378 1.350 . S
N1376 S1374 1.610 . S
N1376 C1377 1.351 . S
C1377 C1371 1.428 . S
C1377 N1376 1.351 . S
C1377 C1378 1.434 . S
C1378 C1369 1.429 . S
C1378 N1375 1.350 . S
C1378 C1377 1.434 . S
C1379 C1380 1.369 . S
C1379 C1381 1.419 . S
C1379 H1383 0.930 . S
C1380 C1379 1.369 . S
C1380 C1389 1.429 . S
C1381 C1379 1.419 . S
C1381 C1382 1.363 . S
C1381 H1384 0.929 . S
C1382 C1381 1.363 . S
C1382 C1388 1.428 . S
H1383 C1379 0.930 . S
H1384 C1381 0.929 . S
S1385 N1386 1.613 . S
S1385 N1387 1.610 . S
N1386 S1385 1.613 . S
N1386 C1389 1.350 . S
N1387 S1385 1.610 . S
N1387 C1388 1.351 . S
C1388 C1382 1.428 . S
C1388 N1387 1.351 . S
C1388 C1389 1.434 . S
C1389 C1380 1.429 . S
C1389 N1386 1.350 . S
C1389 C1388 1.434 . S
C1390 C1391 1.369 . S
C1390 C1392 1.419 . S
C1390 H1394 0.930 . S
C1391 C1390 1.369 . S
C1391 C1400 1.429 . S
C1392 C1390 1.419 . S
C1392 C1393 1.363 . S
C1392 H1395 0.929 . S
C1393 C1392 1.363 . S
C1393 C1399 1.428 . S
H1394 C1390 0.930 . S
H1395 C1392 0.929 . S
S1396 N1397 1.613 . S
S1396 N1398 1.610 . S
N1397 S1396 1.613 . S
N1397 C1400 1.350 . S
N1398 S1396 1.610 . S
N1398 C1399 1.351 . S
C1399 C1393 1.428 . S
C1399 N1398 1.351 . S
C1399 C1400 1.434 . S
C1400 C1391 1.429 . S
C1400 N1397 1.350 . S
C1400 C1399 1.434 . S
C1401 C1402 1.369 . S
C1401 C1403 1.419 . S
C1401 H1405 0.930 . S
C1402 C1401 1.369 . S
C1402 C1411 1.429 . S
C1403 C1401 1.419 . S
C1403 C1404 1.363 . S
C1403 H1406 0.929 . S
C1404 C1403 1.363 . S
C1404 C1410 1.428 . S
H1405 C1401 0.930 . S
H1406 C1403 0.929 . S
S1407 N1408 1.613 . S
S1407 N1409 1.610 . S
N1408 S1407 1.613 . S
N1408 C1411 1.350 . S
N1409 S1407 1.610 . S
N1409 C1410 1.351 . S
C1410 C1404 1.428 . S
C1410 N1409 1.351 . S
C1410 C1411 1.434 . S
C1411 C1402 1.429 . S
C1411 N1408 1.350 . S
C1411 C1410 1.434 . S
C1412 C1413 1.369 . S
C1412 C1414 1.419 . S
C1412 H1416 0.930 . S
C1413 C1412 1.369 . S
C1413 C1422 1.429 . S
C1414 C1412 1.419 . S
C1414 C1415 1.363 . S
C1414 H1417 0.929 . S
C1415 C1414 1.363 . S
C1415 C1421 1.428 . S
H1416 C1412 0.930 . S
H1417 C1414 0.929 . S
S1418 N1419 1.613 . S
S1418 N1420 1.610 . S
N1419 S1418 1.613 . S
N1419 C1422 1.350 . S
N1420 S1418 1.610 . S
N1420 C1421 1.351 . S
C1421 C1415 1.428 . S
C1421 N1420 1.351 . S
C1421 C1422 1.434 . S
C1422 C1413 1.429 . S
C1422 N1419 1.350 . S
C1422 C1421 1.434 . S
C1423 C1424 1.369 . S
C1423 C1425 1.419 . S
C1423 H1427 0.930 . S
C1424 C1423 1.369 . S
C1424 C1433 1.429 . S
C1425 C1423 1.419 . S
C1425 C1426 1.363 . S
C1425 H1428 0.929 . S
C1426 C1425 1.363 . S
C1426 C1432 1.428 . S
H1427 C1423 0.930 . S
H1428 C1425 0.929 . S
S1429 N1430 1.613 . S
S1429 N1431 1.610 . S
N1430 S1429 1.613 . S
N1430 C1433 1.350 . S
N1431 S1429 1.610 . S
N1431 C1432 1.351 . S
C1432 C1426 1.428 . S
C1432 N1431 1.351 . S
C1432 C1433 1.434 . S
C1433 C1424 1.429 . S
C1433 N1430 1.350 . S
C1433 C1432 1.434 . S
C1434 C1435 1.369 . S
C1434 C1436 1.419 . S
C1434 H1438 0.930 . S
C1435 C1434 1.369 . S
C1435 C1444 1.429 . S
C1436 C1434 1.419 . S
C1436 C1437 1.363 . S
C1436 H1439 0.929 . S
C1437 C1436 1.363 . S
C1437 C1443 1.428 . S
H1438 C1434 0.930 . S
H1439 C1436 0.929 . S
S1440 N1441 1.613 . S
S1440 N1442 1.610 . S
N1441 S1440 1.613 . S
N1441 C1444 1.350 . S
N1442 S1440 1.610 . S
N1442 C1443 1.351 . S
C1443 C1437 1.428 . S
C1443 N1442 1.351 . S
C1443 C1444 1.434 . S
C1444 C1435 1.429 . S
C1444 N1441 1.350 . S
C1444 C1443 1.434 . S
C1445 C1446 1.369 . S
C1445 C1447 1.419 . S
C1445 H1449 0.930 . S
C1446 C1445 1.369 . S
C1446 C1455 1.429 . S
C1447 C1445 1.419 . S
C1447 C1448 1.363 . S
C1447 H1450 0.929 . S
C1448 C1447 1.363 . S
C1448 C1454 1.428 . S
H1449 C1445 0.930 . S
H1450 C1447 0.929 . S
S1451 N1452 1.613 . S
S1451 N1453 1.610 . S
N1452 S1451 1.613 . S
N1452 C1455 1.350 . S
N1453 S1451 1.610 . S
N1453 C1454 1.351 . S
C1454 C1448 1.428 . S
C1454 N1453 1.351 . S
C1454 C1455 1.434 . S
C1455 C1446 1.429 . S
C1455 N1452 1.350 . S
C1455 C1454 1.434 . S
C1456 C1457 1.369 . S
C1456 C1458 1.419 . S
C1456 H1460 0.930 . S
C1457 C1456 1.369 . S
C1457 C1466 1.429 . S
C1458 C1456 1.419 . S
C1458 C1459 1.363 . S
C1458 H1461 0.929 . S
C1459 C1458 1.363 . S
C1459 C1465 1.428 . S
H1460 C1456 0.930 . S
H1461 C1458 0.929 . S
S1462 N1463 1.613 . S
S1462 N1464 1.610 . S
N1463 S1462 1.613 . S
N1463 C1466 1.350 . S
N1464 S1462 1.610 . S
N1464 C1465 1.351 . S
C1465 C1459 1.428 . S
C1465 N1464 1.351 . S
C1465 C1466 1.434 . S
C1466 C1457 1.429 . S
C1466 N1463 1.350 . S
C1466 C1465 1.434 . S
C1467 C1468 1.369 . S
C1467 C1469 1.419 . S
C1467 H1471 0.930 . S
C1468 C1467 1.369 . S
C1468 C1477 1.429 . S
C1469 C1467 1.419 . S
C1469 C1470 1.363 . S
C1469 H1472 0.929 . S
C1470 C1469 1.363 . S
C1470 C1476 1.428 . S
H1471 C1467 0.930 . S
H1472 C1469 0.929 . S
S1473 N1474 1.613 . S
S1473 N1475 1.610 . S
N1474 S1473 1.613 . S
N1474 C1477 1.350 . S
N1475 S1473 1.610 . S
N1475 C1476 1.351 . S
C1476 C1470 1.428 . S
C1476 N1475 1.351 . S
C1476 C1477 1.434 . S
C1477 C1468 1.429 . S
C1477 N1474 1.350 . S
C1477 C1476 1.434 . S
C1478 C1479 1.369 . S
C1478 C1480 1.419 . S
C1478 H1482 0.930 . S
C1479 C1478 1.369 . S
C1479 C1488 1.429 . S
C1480 C1478 1.419 . S
C1480 C1481 1.363 . S
C1480 H1483 0.929 . S
C1481 C1480 1.363 . S
C1481 C1487 1.428 . S
H1482 C1478 0.930 . S
H1483 C1480 0.929 . S
S1484 N1485 1.613 . S
S1484 N1486 1.610 . S
N1485 S1484 1.613 . S
N1485 C1488 1.350 . S
N1486 S1484 1.610 . S
N1486 C1487 1.351 . S
C1487 C1481 1.428 . S
C1487 N1486 1.351 . S
C1487 C1488 1.434 . S
C1488 C1479 1.429 . S
C1488 N1485 1.350 . S
C1488 C1487 1.434 . S
C1489 C1490 1.369 . S
C1489 C1491 1.419 . S
C1489 H1493 0.930 . S
C1490 C1489 1.369 . S
C1490 C1499 1.429 . S
C1491 C1489 1.419 . S
C1491 C1492 1.363 . S
C1491 H1494 0.929 . S
C1492 C1491 1.363 . S
C1492 C1498 1.428 . S
H1493 C1489 0.930 . S
H1494 C1491 0.929 . S
S1495 N1496 1.613 . S
S1495 N1497 1.610 . S
N1496 S1495 1.613 . S
N1496 C1499 1.350 . S
N1497 S1495 1.610 . S
N1497 C1498 1.351 . S
C1498 C1492 1.428 . S
C1498 N1497 1.351 . S
C1498 C1499 1.434 . S
C1499 C1490 1.429 . S
C1499 N1496 1.350 . S
C1499 C1498 1.434 . S
C1500 C1501 1.369 1_545 S
C1500 C1502 1.419 . S
C1500 H1504 0.930 . S
C1501 C1500 1.369 1_565 S
C1501 C1510 1.429 . S
C1502 C1500 1.419 . S
C1502 C1503 1.363 1_545 S
C1502 H1505 0.929 . S
C1503 C1502 1.363 1_565 S
C1503 C1509 1.428 . S
H1504 C1500 0.930 . S
H1505 C1502 0.929 . S
S1506 N1507 1.613 . S
S1506 N1508 1.610 . S
N1507 S1506 1.613 . S
N1507 C1510 1.350 . S
N1508 S1506 1.610 . S
N1508 C1509 1.351 . S
C1509 C1503 1.428 . S
C1509 N1508 1.351 . S
C1509 C1510 1.434 . S
C1510 C1501 1.429 . S
C1510 N1507 1.350 . S
C1510 C1509 1.434 . S
C1511 C1512 1.369 . S
C1511 C1513 1.419 . S
C1511 H1515 0.930 . S
C1512 C1511 1.369 . S
C1512 C1521 1.429 . S
C1513 C1511 1.419 . S
C1513 C1514 1.363 . S
C1513 H1516 0.929 . S
C1514 C1513 1.363 . S
C1514 C1520 1.428 . S
H1515 C1511 0.930 . S
H1516 C1513 0.929 . S
S1517 N1518 1.613 . S
S1517 N1519 1.610 . S
N1518 S1517 1.613 . S
N1518 C1521 1.350 . S
N1519 S1517 1.610 . S
N1519 C1520 1.351 . S
C1520 C1514 1.428 . S
C1520 N1519 1.351 . S
C1520 C1521 1.434 . S
C1521 C1512 1.429 . S
C1521 N1518 1.350 . S
C1521 C1520 1.434 . S
C1522 C1523 1.369 . S
C1522 C1524 1.419 . S
C1522 H1526 0.930 . S
C1523 C1522 1.369 . S
C1523 C1532 1.429 . S
C1524 C1522 1.419 . S
C1524 C1525 1.363 . S
C1524 H1527 0.929 . S
C1525 C1524 1.363 . S
C1525 C1531 1.428 . S
H1526 C1522 0.930 . S
H1527 C1524 0.929 . S
S1528 N1529 1.613 1_565 S
S1528 N1530 1.610 1_565 S
N1529 S1528 1.613 1_545 S
N1529 C1532 1.350 . S
N1530 S1528 1.610 1_545 S
N1530 C1531 1.351 . S
C1531 C1525 1.428 . S
C1531 N1530 1.351 . S
C1531 C1532 1.434 . S
C1532 C1523 1.429 . S
C1532 N1529 1.350 . S
C1532 C1531 1.434 . S
C1533 C1534 1.369 . S
C1533 C1535 1.419 . S
C1533 H1537 0.930 . S
C1534 C1533 1.369 . S
C1534 C1543 1.429 . S
C1535 C1533 1.419 . S
C1535 C1536 1.363 . S
C1535 H1538 0.929 . S
C1536 C1535 1.363 . S
C1536 C1542 1.428 . S
H1537 C1533 0.930 . S
H1538 C1535 0.929 . S
S1539 N1540 1.613 . S
S1539 N1541 1.610 . S
N1540 S1539 1.613 . S
N1540 C1543 1.350 . S
N1541 S1539 1.610 . S
N1541 C1542 1.351 . S
C1542 C1536 1.428 . S
C1542 N1541 1.351 . S
C1542 C1543 1.434 . S
C1543 C1534 1.429 . S
C1543 N1540 1.350 . S
C1543 C1542 1.434 . S
C1544 C1545 1.369 . S
C1544 C1546 1.419 . S
C1544 H1548 0.930 . S
C1545 C1544 1.369 . S
C1545 C1554 1.429 . S
C1546 C1544 1.419 . S
C1546 C1547 1.363 . S
C1546 H1549 0.929 . S
C1547 C1546 1.363 . S
C1547 C1553 1.428 . S
H1548 C1544 0.930 . S
H1549 C1546 0.929 . S
S1550 N1551 1.613 . S
S1550 N1552 1.610 . S
N1551 S1550 1.613 . S
N1551 C1554 1.350 . S
N1552 S1550 1.610 . S
N1552 C1553 1.351 . S
C1553 C1547 1.428 . S
C1553 N1552 1.351 . S
C1553 C1554 1.434 . S
C1554 C1545 1.429 . S
C1554 N1551 1.350 . S
C1554 C1553 1.434 . S
C1555 C1556 1.369 . S
C1555 C1557 1.419 . S
C1555 H1559 0.930 . S
C1556 C1555 1.369 . S
C1556 C1565 1.429 . S
C1557 C1555 1.419 . S
C1557 C1558 1.363 . S
C1557 H1560 0.929 . S
C1558 C1557 1.363 . S
C1558 C1564 1.428 . S
H1559 C1555 0.930 . S
H1560 C1557 0.929 . S
S1561 N1562 1.613 . S
S1561 N1563 1.610 . S
N1562 S1561 1.613 . S
N1562 C1565 1.350 . S
N1563 S1561 1.610 . S
N1563 C1564 1.351 . S
C1564 C1558 1.428 . S
C1564 N1563 1.351 . S
C1564 C1565 1.434 . S
C1565 C1556 1.429 . S
C1565 N1562 1.350 . S
C1565 C1564 1.434 . S
C1566 C1567 1.369 . S
C1566 C1568 1.419 . S
C1566 H1570 0.930 . S
C1567 C1566 1.369 . S
C1567 C1576 1.429 . S
C1568 C1566 1.419 . S
C1568 C1569 1.363 . S
C1568 H1571 0.929 . S
C1569 C1568 1.363 . S
C1569 C1575 1.428 . S
H1570 C1566 0.930 . S
H1571 C1568 0.929 . S
S1572 N1573 1.613 . S
S1572 N1574 1.610 . S
N1573 S1572 1.613 . S
N1573 C1576 1.350 . S
N1574 S1572 1.610 . S
N1574 C1575 1.351 . S
C1575 C1569 1.428 . S
C1575 N1574 1.351 . S
C1575 C1576 1.434 . S
C1576 C1567 1.429 . S
C1576 N1573 1.350 . S
C1576 C1575 1.434 . S
C1577 C1578 1.369 . S
C1577 C1579 1.419 . S
C1577 H1581 0.930 . S
C1578 C1577 1.369 . S
C1578 C1587 1.429 . S
C1579 C1577 1.419 . S
C1579 C1580 1.363 . S
C1579 H1582 0.929 . S
C1580 C1579 1.363 . S
C1580 C1586 1.428 . S
H1581 C1577 0.930 . S
H1582 C1579 0.929 . S
S1583 N1584 1.613 . S
S1583 N1585 1.610 . S
N1584 S1583 1.613 . S
N1584 C1587 1.350 . S
N1585 S1583 1.610 . S
N1585 C1586 1.351 . S
C1586 C1580 1.428 . S
C1586 N1585 1.351 . S
C1586 C1587 1.434 . S
C1587 C1578 1.429 . S
C1587 N1584 1.350 . S
C1587 C1586 1.434 . S
C1588 C1589 1.369 . S
C1588 C1590 1.419 . S
C1588 H1592 0.930 . S
C1589 C1588 1.369 . S
C1589 C1598 1.429 . S
C1590 C1588 1.419 . S
C1590 C1591 1.363 . S
C1590 H1593 0.929 . S
C1591 C1590 1.363 . S
C1591 C1597 1.428 . S
H1592 C1588 0.930 . S
H1593 C1590 0.929 . S
S1594 N1595 1.613 . S
S1594 N1596 1.610 . S
N1595 S1594 1.613 . S
N1595 C1598 1.350 . S
N1596 S1594 1.610 . S
N1596 C1597 1.351 . S
C1597 C1591 1.428 . S
C1597 N1596 1.351 . S
C1597 C1598 1.434 . S
C1598 C1589 1.429 . S
C1598 N1595 1.350 . S
C1598 C1597 1.434 . S
C1599 C1600 1.369 . S
C1599 C1601 1.419 . S
C1599 H1603 0.930 . S
C1600 C1599 1.369 . S
C1600 C1609 1.429 . S
C1601 C1599 1.419 . S
C1601 C1602 1.363 . S
C1601 H1604 0.929 . S
C1602 C1601 1.363 . S
C1602 C1608 1.428 . S
H1603 C1599 0.930 . S
H1604 C1601 0.929 . S
S1605 N1606 1.613 . S
S1605 N1607 1.610 . S
N1606 S1605 1.613 . S
N1606 C1609 1.350 . S
N1607 S1605 1.610 . S
N1607 C1608 1.351 . S
C1608 C1602 1.428 . S
C1608 N1607 1.351 . S
C1608 C1609 1.434 . S
C1609 C1600 1.429 . S
C1609 N1606 1.350 . S
C1609 C1608 1.434 . S
C1610 C1611 1.369 1_565 S
C1610 C1612 1.419 . S
C1610 H1614 0.930 . S
C1611 C1610 1.369 1_545 S
C1611 C1620 1.429 . S
C1612 C1610 1.419 . S
C1612 C1613 1.363 1_565 S
C1612 H1615 0.929 . S
C1613 C1612 1.363 1_545 S
C1613 C1619 1.428 . S
H1614 C1610 0.930 . S
H1615 C1612 0.929 . S
S1616 N1617 1.613 . S
S1616 N1618 1.610 . S
N1617 S1616 1.613 . S
N1617 C1620 1.350 . S
N1618 S1616 1.610 . S
N1618 C1619 1.351 . S
C1619 C1613 1.428 . S
C1619 N1618 1.351 . S
C1619 C1620 1.434 . S
C1620 C1611 1.429 . S
C1620 N1617 1.350 . S
C1620 C1619 1.434 . S
C1621 C1622 1.369 . S
C1621 C1623 1.419 . S
C1621 H1625 0.930 . S
C1622 C1621 1.369 . S
C1622 C1631 1.429 . S
C1623 C1621 1.419 . S
C1623 C1624 1.363 . S
C1623 H1626 0.929 . S
C1624 C1623 1.363 . S
C1624 C1630 1.428 . S
H1625 C1621 0.930 . S
H1626 C1623 0.929 . S
S1627 N1628 1.613 . S
S1627 N1629 1.610 . S
N1628 S1627 1.613 . S
N1628 C1631 1.350 . S
N1629 S1627 1.610 . S
N1629 C1630 1.351 . S
C1630 C1624 1.428 . S
C1630 N1629 1.351 . S
C1630 C1631 1.434 . S
C1631 C1622 1.429 . S
C1631 N1628 1.350 . S
C1631 C1630 1.434 . S
C1632 C1633 1.369 . S
C1632 C1634 1.419 . S
C1632 H1636 0.930 . S
C1633 C1632 1.369 . S
C1633 C1642 1.429 . S
C1634 C1632 1.419 . S
C1634 C1635 1.363 . S
C1634 H1637 0.929 . S
C1635 C1634 1.363 . S
C1635 C1641 1.428 . S
H1636 C1632 0.930 . S
H1637 C1634 0.929 . S
S1638 N1639 1.613 . S
S1638 N1640 1.610 . S
N1639 S1638 1.613 . S
N1639 C1642 1.350 . S
N1640 S1638 1.610 . S
N1640 C1641 1.351 . S
C1641 C1635 1.428 . S
C1641 N1640 1.351 . S
C1641 C1642 1.434 . S
C1642 C1633 1.429 . S
C1642 N1639 1.350 . S
C1642 C1641 1.434 . S
C1643 C1644 1.369 . S
C1643 C1645 1.419 . S
C1643 H1647 0.930 . S
C1644 C1643 1.369 . S
C1644 C1653 1.429 . S
C1645 C1643 1.419 . S
C1645 C1646 1.363 . S
C1645 H1648 0.929 . S
C1646 C1645 1.363 . S
C1646 C1652 1.428 . S
H1647 C1643 0.930 . S
H1648 C1645 0.929 . S
S1649 N1650 1.613 . S
S1649 N1651 1.610 . S
N1650 S1649 1.613 . S
N1650 C1653 1.350 . S
N1651 S1649 1.610 . S
N1651 C1652 1.351 . S
C1652 C1646 1.428 . S
C1652 N1651 1.351 . S
C1652 C1653 1.434 . S
C1653 C1644 1.429 . S
C1653 N1650 1.350 . S
C1653 C1652 1.434 . S
C1654 C1655 1.369 . S
C1654 C1656 1.419 . S
C1654 H1658 0.930 . S
C1655 C1654 1.369 . S
C1655 C1664 1.429 . S
C1656 C1654 1.419 . S
C1656 C1657 1.363 . S
C1656 H1659 0.929 . S
C1657 C1656 1.363 . S
C1657 C1663 1.428 . S
H1658 C1654 0.930 . S
H1659 C1656 0.929 . S
S1660 N1661 1.613 . S
S1660 N1662 1.610 . S
N1661 S1660 1.613 . S
N1661 C1664 1.350 . S
N1662 S1660 1.610 . S
N1662 C1663 1.351 . S
C1663 C1657 1.428 . S
C1663 N1662 1.351 . S
C1663 C1664 1.434 . S
C1664 C1655 1.429 . S
C1664 N1661 1.350 . S
C1664 C1663 1.434 . S
C1665 C1666 1.369 . S
C1665 C1667 1.419 . S
C1665 H1669 0.930 . S
C1666 C1665 1.369 . S
C1666 C1675 1.429 . S
C1667 C1665 1.419 . S
C1667 C1668 1.363 . S
C1667 H1670 0.929 . S
C1668 C1667 1.363 . S
C1668 C1674 1.428 . S
H1669 C1665 0.930 . S
H1670 C1667 0.929 . S
S1671 N1672 1.613 . S
S1671 N1673 1.610 . S
N1672 S1671 1.613 . S
N1672 C1675 1.350 . S
N1673 S1671 1.610 . S
N1673 C1674 1.351 . S
C1674 C1668 1.428 . S
C1674 N1673 1.351 . S
C1674 C1675 1.434 . S
C1675 C1666 1.429 . S
C1675 N1672 1.350 . S
C1675 C1674 1.434 . S
C1676 C1677 1.369 . S
C1676 C1678 1.419 . S
C1676 H1680 0.930 . S
C1677 C1676 1.369 . S
C1677 C1686 1.429 . S
C1678 C1676 1.419 . S
C1678 C1679 1.363 . S
C1678 H1681 0.929 . S
C1679 C1678 1.363 . S
C1679 C1685 1.428 . S
H1680 C1676 0.930 . S
H1681 C1678 0.929 . S
S1682 N1683 1.613 1_655 S
S1682 N1684 1.610 1_655 S
N1683 S1682 1.613 1_455 S
N1683 C1686 1.350 . S
N1684 S1682 1.610 1_455 S
N1684 C1685 1.351 . S
C1685 C1679 1.428 . S
C1685 N1684 1.351 . S
C1685 C1686 1.434 . S
C1686 C1677 1.429 . S
C1686 N1683 1.350 . S
C1686 C1685 1.434 . S
C1687 C1688 1.369 . S
C1687 C1689 1.419 . S
C1687 H1691 0.930 . S
C1688 C1687 1.369 . S
C1688 C1697 1.429 . S
C1689 C1687 1.419 . S
C1689 C1690 1.363 . S
C1689 H1692 0.929 . S
C1690 C1689 1.363 . S
C1690 C1696 1.428 . S
H1691 C1687 0.930 . S
H1692 C1689 0.929 . S
S1693 N1694 1.613 1_655 S
S1693 N1695 1.610 1_655 S
N1694 S1693 1.613 1_455 S
N1694 C1697 1.350 . S
N1695 S1693 1.610 1_455 S
N1695 C1696 1.351 . S
C1696 C1690 1.428 . S
C1696 N1695 1.351 . S
C1696 C1697 1.434 . S
C1697 C1688 1.429 . S
C1697 N1694 1.350 . S
C1697 C1696 1.434 . S
C1698 C1699 1.369 . S
C1698 C1700 1.419 . S
C1698 H1702 0.930 . S
C1699 C1698 1.369 . S
C1699 C1708 1.429 . S
C1700 C1698 1.419 . S
C1700 C1701 1.363 . S
C1700 H1703 0.929 . S
C1701 C1700 1.363 . S
C1701 C1707 1.428 . S
H1702 C1698 0.930 . S
H1703 C1700 0.929 . S
S1704 N1705 1.613 . S
S1704 N1706 1.610 . S
N1705 S1704 1.613 . S
N1705 C1708 1.350 . S
N1706 S1704 1.610 . S
N1706 C1707 1.351 . S
C1707 C1701 1.428 . S
C1707 N1706 1.351 . S
C1707 C1708 1.434 . S
C1708 C1699 1.429 . S
C1708 N1705 1.350 . S
C1708 C1707 1.434 . S
C1709 C1710 1.369 . S
C1709 C1711 1.419 . S
C1709 H1713 0.930 . S
C1710 C1709 1.369 . S
C1710 C1719 1.429 . S
C1711 C1709 1.419 . S
C1711 C1712 1.363 . S
C1711 H1714 0.929 . S
C1712 C1711 1.363 . S
C1712 C1718 1.428 . S
H1713 C1709 0.930 . S
H1714 C1711 0.929 . S
S1715 N1716 1.613 1_455 S
S1715 N1717 1.610 1_455 S
N1716 S1715 1.613 1_655 S
N1716 C1719 1.350 . S
N1717 S1715 1.610 1_655 S
N1717 C1718 1.351 . S
C1718 C1712 1.428 . S
C1718 N1717 1.351 . S
C1718 C1719 1.434 . S
C1719 C1710 1.429 . S
C1719 N1716 1.350 . S
C1719 C1718 1.434 . S
C1720 C1721 1.369 . S
C1720 C1722 1.419 . S
C1720 H1724 0.930 . S
C1721 C1720 1.369 . S
C1721 C1730 1.429 . S
C1722 C1720 1.419 . S
C1722 C1723 1.363 . S
C1722 H1725 0.929 . S
C1723 C1722 1.363 . S
C1723 C1729 1.428 . S
H1724 C1720 0.930 . S
H1725 C1722 0.929 . S
S1726 N1727 1.613 . S
S1726 N1728 1.610 . S
N1727 S1726 1.613 . S
N1727 C1730 1.350 . S
N1728 S1726 1.610 . S
N1728 C1729 1.351 . S
C1729 C1723 1.428 . S
C1729 N1728 1.351 . S
C1729 C1730 1.434 . S
C1730 C1721 1.429 . S
C1730 N1727 1.350 . S
C1730 C1729 1.434 . S
C1731 C1732 1.369 . S
C1731 C1733 1.419 . S
C1731 H1735 0.930 . S
C1732 C1731 1.369 . S
C1732 C1741 1.429 . S
C1733 C1731 1.419 . S
C1733 C1734 1.363 . S
C1733 H1736 0.929 . S
C1734 C1733 1.363 . S
C1734 C1740 1.428 . S
H1735 C1731 0.930 . S
H1736 C1733 0.929 . S
S1737 N1738 1.613 . S
S1737 N1739 1.610 . S
N1738 S1737 1.613 . S
N1738 C1741 1.350 . S
N1739 S1737 1.610 . S
N1739 C1740 1.351 . S
C1740 C1734 1.428 . S
C1740 N1739 1.351 . S
C1740 C1741 1.434 . S
C1741 C1732 1.429 . S
C1741 N1738 1.350 . S
C1741 C1740 1.434 . S
C1742 C1743 1.369 . S
C1742 C1744 1.419 . S
C1742 H1746 0.930 . S
C1743 C1742 1.369 . S
C1743 C1752 1.429 . S
C1744 C1742 1.419 . S
C1744 C1745 1.363 . S
C1744 H1747 0.929 . S
C1745 C1744 1.363 . S
C1745 C1751 1.428 . S
H1746 C1742 0.930 . S
H1747 C1744 0.929 . S
S1748 N1749 1.613 . S
S1748 N1750 1.610 . S
N1749 S1748 1.613 . S
N1749 C1752 1.350 . S
N1750 S1748 1.610 . S
N1750 C1751 1.351 . S
C1751 C1745 1.428 . S
C1751 N1750 1.351 . S
C1751 C1752 1.434 . S
C1752 C1743 1.429 . S
C1752 N1749 1.350 . S
C1752 C1751 1.434 . S
C1753 C1754 1.369 . S
C1753 C1755 1.419 . S
C1753 H1757 0.930 . S
C1754 C1753 1.369 . S
C1754 C1763 1.429 . S
C1755 C1753 1.419 . S
C1755 C1756 1.363 . S
C1755 H1758 0.929 . S
C1756 C1755 1.363 . S
C1756 C1762 1.428 . S
H1757 C1753 0.930 . S
H1758 C1755 0.929 . S
S1759 N1760 1.613 . S
S1759 N1761 1.610 . S
N1760 S1759 1.613 . S
N1760 C1763 1.350 . S
N1761 S1759 1.610 . S
N1761 C1762 1.351 . S
C1762 C1756 1.428 . S
C1762 N1761 1.351 . S
C1762 C1763 1.434 . S
C1763 C1754 1.429 . S
C1763 N1760 1.350 . S
C1763 C1762 1.434 . S
C1764 C1765 1.369 . S
C1764 C1766 1.419 . S
C1764 H1768 0.930 . S
C1765 C1764 1.369 . S
C1765 C1774 1.429 . S
C1766 C1764 1.419 . S
C1766 C1767 1.363 . S
C1766 H1769 0.929 . S
C1767 C1766 1.363 . S
C1767 C1773 1.428 . S
H1768 C1764 0.930 . S
H1769 C1766 0.929 . S
S1770 N1771 1.613 . S
S1770 N1772 1.610 . S
N1771 S1770 1.613 . S
N1771 C1774 1.350 . S
N1772 S1770 1.610 . S
N1772 C1773 1.351 . S
C1773 C1767 1.428 . S
C1773 N1772 1.351 . S
C1773 C1774 1.434 . S
C1774 C1765 1.429 . S
C1774 N1771 1.350 . S
C1774 C1773 1.434 . S
C1775 C1776 1.369 . S
C1775 C1777 1.419 . S
C1775 H1779 0.930 . S
C1776 C1775 1.369 . S
C1776 C1785 1.429 . S
C1777 C1775 1.419 . S
C1777 C1778 1.363 . S
C1777 H1780 0.929 . S
C1778 C1777 1.363 . S
C1778 C1784 1.428 . S
H1779 C1775 0.930 . S
H1780 C1777 0.929 . S
S1781 N1782 1.613 . S
S1781 N1783 1.610 . S
N1782 S1781 1.613 . S
N1782 C1785 1.350 . S
N1783 S1781 1.610 . S
N1783 C1784 1.351 . S
C1784 C1778 1.428 . S
C1784 N1783 1.351 . S
C1784 C1785 1.434 . S
C1785 C1776 1.429 . S
C1785 N1782 1.350 . S
C1785 C1784 1.434 . S
C1786 C1787 1.369 . S
C1786 C1788 1.419 . S
C1786 H1790 0.930 . S
C1787 C1786 1.369 . S
C1787 C1796 1.429 . S
C1788 C1786 1.419 . S
C1788 C1789 1.363 . S
C1788 H1791 0.929 . S
C1789 C1788 1.363 . S
C1789 C1795 1.428 . S
H1790 C1786 0.930 . S
H1791 C1788 0.929 . S
S1792 N1793 1.613 . S
S1792 N1794 1.610 . S
N1793 S1792 1.613 . S
N1793 C1796 1.350 . S
N1794 S1792 1.610 . S
N1794 C1795 1.351 . S
C1795 C1789 1.428 . S
C1795 N1794 1.351 . S
C1795 C1796 1.434 . S
C1796 C1787 1.429 . S
C1796 N1793 1.350 . S
C1796 C1795 1.434 . S
C1797 C1798 1.369 . S
C1797 C1799 1.419 . S
C1797 H1801 0.930 . S
C1798 C1797 1.369 . S
C1798 C1807 1.429 . S
C1799 C1797 1.419 . S
C1799 C1800 1.363 . S
C1799 H1802 0.929 . S
C1800 C1799 1.363 . S
C1800 C1806 1.428 . S
H1801 C1797 0.930 . S
H1802 C1799 0.929 . S
S1803 N1804 1.613 . S
S1803 N1805 1.610 . S
N1804 S1803 1.613 . S
N1804 C1807 1.350 . S
N1805 S1803 1.610 . S
N1805 C1806 1.351 . S
C1806 C1800 1.428 . S
C1806 N1805 1.351 . S
C1806 C1807 1.434 . S
C1807 C1798 1.429 . S
C1807 N1804 1.350 . S
C1807 C1806 1.434 . S
C1808 C1809 1.369 . S
C1808 C1810 1.419 . S
C1808 H1812 0.930 . S
C1809 C1808 1.369 . S
C1809 C1818 1.429 . S
C1810 C1808 1.419 . S
C1810 C1811 1.363 . S
C1810 H1813 0.929 . S
C1811 C1810 1.363 . S
C1811 C1817 1.428 . S
H1812 C1808 0.930 . S
H1813 C1810 0.929 . S
S1814 N1815 1.613 . S
S1814 N1816 1.610 . S
N1815 S1814 1.613 . S
N1815 C1818 1.350 . S
N1816 S1814 1.610 . S
N1816 C1817 1.351 . S
C1817 C1811 1.428 . S
C1817 N1816 1.351 . S
C1817 C1818 1.434 . S
C1818 C1809 1.429 . S
C1818 N1815 1.350 . S
C1818 C1817 1.434 . S
C1819 C1820 1.369 . S
C1819 C1821 1.419 . S
C1819 H1823 0.930 . S
C1820 C1819 1.369 . S
C1820 C1829 1.429 . S
C1821 C1819 1.419 . S
C1821 C1822 1.363 . S
C1821 H1824 0.929 . S
C1822 C1821 1.363 . S
C1822 C1828 1.428 . S
H1823 C1819 0.930 . S
H1824 C1821 0.929 . S
S1825 N1826 1.613 . S
S1825 N1827 1.610 . S
N1826 S1825 1.613 . S
N1826 C1829 1.350 . S
N1827 S1825 1.610 . S
N1827 C1828 1.351 . S
C1828 C1822 1.428 . S
C1828 N1827 1.351 . S
C1828 C1829 1.434 . S
C1829 C1820 1.429 . S
C1829 N1826 1.350 . S
C1829 C1828 1.434 . S
C1830 C1831 1.369 . S
C1830 C1832 1.419 . S
C1830 H1834 0.930 . S
C1831 C1830 1.369 . S
C1831 C1840 1.429 . S
C1832 C1830 1.419 . S
C1832 C1833 1.363 . S
C1832 H1835 0.929 . S
C1833 C1832 1.363 . S
C1833 C1839 1.428 . S
H1834 C1830 0.930 . S
H1835 C1832 0.929 . S
S1836 N1837 1.613 . S
S1836 N1838 1.610 . S
N1837 S1836 1.613 . S
N1837 C1840 1.350 . S
N1838 S1836 1.610 . S
N1838 C1839 1.351 . S
C1839 C1833 1.428 . S
C1839 N1838 1.351 . S
C1839 C1840 1.434 . S
C1840 C1831 1.429 . S
C1840 N1837 1.350 . S
C1840 C1839 1.434 . S
C1841 C1842 1.369 . S
C1841 C1843 1.419 . S
C1841 H1845 0.930 . S
C1842 C1841 1.369 . S
C1842 C1851 1.429 . S
C1843 C1841 1.419 . S
C1843 C1844 1.363 . S
C1843 H1846 0.929 . S
C1844 C1843 1.363 . S
C1844 C1850 1.428 . S
H1845 C1841 0.930 . S
H1846 C1843 0.929 . S
S1847 N1848 1.613 . S
S1847 N1849 1.610 . S
N1848 S1847 1.613 . S
N1848 C1851 1.350 . S
N1849 S1847 1.610 . S
N1849 C1850 1.351 . S
C1850 C1844 1.428 . S
C1850 N1849 1.351 . S
C1850 C1851 1.434 . S
C1851 C1842 1.429 . S
C1851 N1848 1.350 . S
C1851 C1850 1.434 . S
C1852 C1853 1.369 . S
C1852 C1854 1.419 . S
C1852 H1856 0.930 . S
C1853 C1852 1.369 . S
C1853 C1862 1.429 . S
C1854 C1852 1.419 . S
C1854 C1855 1.363 . S
C1854 H1857 0.929 . S
C1855 C1854 1.363 . S
C1855 C1861 1.428 . S
H1856 C1852 0.930 . S
H1857 C1854 0.929 . S
S1858 N1859 1.613 . S
S1858 N1860 1.610 . S
N1859 S1858 1.613 . S
N1859 C1862 1.350 . S
N1860 S1858 1.610 . S
N1860 C1861 1.351 . S
C1861 C1855 1.428 . S
C1861 N1860 1.351 . S
C1861 C1862 1.434 . S
C1862 C1853 1.429 . S
C1862 N1859 1.350 . S
C1862 C1861 1.434 . S
C1863 C1864 1.369 . S
C1863 C1865 1.419 . S
C1863 H1867 0.930 . S
C1864 C1863 1.369 . S
C1864 C1873 1.429 . S
C1865 C1863 1.419 . S
C1865 C1866 1.363 . S
C1865 H1868 0.929 . S
C1866 C1865 1.363 . S
C1866 C1872 1.428 . S
H1867 C1863 0.930 . S
H1868 C1865 0.929 . S
S1869 N1870 1.613 . S
S1869 N1871 1.610 . S
N1870 S1869 1.613 . S
N1870 C1873 1.350 . S
N1871 S1869 1.610 . S
N1871 C1872 1.351 . S
C1872 C1866 1.428 . S
C1872 N1871 1.351 . S
C1872 C1873 1.434 . S
C1873 C1864 1.429 . S
C1873 N1870 1.350 . S
C1873 C1872 1.434 . S
C1874 C1875 1.369 . S
C1874 C1876 1.419 . S
C1874 H1878 0.930 . S
C1875 C1874 1.369 . S
C1875 C1884 1.429 . S
C1876 C1874 1.419 . S
C1876 C1877 1.363 . S
C1876 H1879 0.929 . S
C1877 C1876 1.363 . S
C1877 C1883 1.428 . S
H1878 C1874 0.930 . S
H1879 C1876 0.929 . S
S1880 N1881 1.613 . S
S1880 N1882 1.610 . S
N1881 S1880 1.613 . S
N1881 C1884 1.350 . S
N1882 S1880 1.610 . S
N1882 C1883 1.351 . S
C1883 C1877 1.428 . S
C1883 N1882 1.351 . S
C1883 C1884 1.434 . S
C1884 C1875 1.429 . S
C1884 N1881 1.350 . S
C1884 C1883 1.434 . S
C1885 C1886 1.369 . S
C1885 C1887 1.419 . S
C1885 H1889 0.930 . S
C1886 C1885 1.369 . S
C1886 C1895 1.429 . S
C1887 C1885 1.419 . S
C1887 C1888 1.363 . S
C1887 H1890 0.929 . S
C1888 C1887 1.363 . S
C1888 C1894 1.428 . S
H1889 C1885 0.930 . S
H1890 C1887 0.929 . S
S1891 N1892 1.613 . S
S1891 N1893 1.610 . S
N1892 S1891 1.613 . S
N1892 C1895 1.350 . S
N1893 S1891 1.610 . S
N1893 C1894 1.351 . S
C1894 C1888 1.428 . S
C1894 N1893 1.351 . S
C1894 C1895 1.434 . S
C1895 C1886 1.429 . S
C1895 N1892 1.350 . S
C1895 C1894 1.434 . S
C1896 C1897 1.369 . S
C1896 C1898 1.419 . S
C1896 H1900 0.930 . S
C1897 C1896 1.369 . S
C1897 C1906 1.429 1_565 S
C1898 C1896 1.419 . S
C1898 C1899 1.363 . S
C1898 H1901 0.929 . S
C1899 C1898 1.363 . S
C1899 C1905 1.428 . S
H1900 C1896 0.930 . S
H1901 C1898 0.929 . S
S1902 N1903 1.613 . S
S1902 N1904 1.606 1_545 S
N1903 S1902 1.613 . S
N1903 C1906 1.350 . S
N1904 S1902 1.606 1_565 S
N1904 C1905 1.353 . S
C1905 C1899 1.428 . S
C1905 N1904 1.353 . S
C1905 C1906 1.434 1_565 S
C1906 C1897 1.429 1_545 S
C1906 N1903 1.350 . S
C1906 C1905 1.434 1_545 S
C1907 C1908 1.369 . S
C1907 C1909 1.419 . S
C1907 H1911 0.930 . S
C1908 C1907 1.369 . S
C1908 C1917 1.429 . S
C1909 C1907 1.419 . S
C1909 C1910 1.363 . S
C1909 H1912 0.929 . S
C1910 C1909 1.363 . S
C1910 C1916 1.428 . S
H1911 C1907 0.930 . S
H1912 C1909 0.929 . S
S1913 N1914 1.613 . S
S1913 N1915 1.610 . S
N1914 S1913 1.613 . S
N1914 C1917 1.350 . S
N1915 S1913 1.610 . S
N1915 C1916 1.351 . S
C1916 C1910 1.428 . S
C1916 N1915 1.351 . S
C1916 C1917 1.434 . S
C1917 C1908 1.429 . S
C1917 N1914 1.350 . S
C1917 C1916 1.434 . S
C1918 C1919 1.369 . S
C1918 C1920 1.419 . S
C1918 H1922 0.930 . S
C1919 C1918 1.369 . S
C1919 C1928 1.429 . S
C1920 C1918 1.419 . S
C1920 C1921 1.363 . S
C1920 H1923 0.929 . S
C1921 C1920 1.363 . S
C1921 C1927 1.428 . S
H1922 C1918 0.930 . S
H1923 C1920 0.929 . S
S1924 N1925 1.613 . S
S1924 N1926 1.610 . S
N1925 S1924 1.613 . S
N1925 C1928 1.350 . S
N1926 S1924 1.610 . S
N1926 C1927 1.351 . S
C1927 C1921 1.428 . S
C1927 N1926 1.351 . S
C1927 C1928 1.434 . S
C1928 C1919 1.429 . S
C1928 N1925 1.350 . S
C1928 C1927 1.434 . S
C1929 C1930 1.369 . S
C1929 C1931 1.419 . S
C1929 H1933 0.930 . S
C1930 C1929 1.369 . S
C1930 C1939 1.429 1_565 S
C1931 C1929 1.419 . S
C1931 C1932 1.363 . S
C1931 H1934 0.929 . S
C1932 C1931 1.363 . S
C1932 C1938 1.428 1_565 S
H1933 C1929 0.930 . S
H1934 C1931 0.929 . S
S1935 N1936 1.613 . S
S1935 N1937 1.610 . S
N1936 S1935 1.613 . S
N1936 C1939 1.350 . S
N1937 S1935 1.610 . S
N1937 C1938 1.351 . S
C1938 C1932 1.428 1_545 S
C1938 N1937 1.351 . S
C1938 C1939 1.434 . S
C1939 C1930 1.429 1_545 S
C1939 N1936 1.350 . S
C1939 C1938 1.434 . S
C1940 C1941 1.369 . S
C1940 C1942 1.419 . S
C1940 H1944 0.930 . S
C1941 C1940 1.369 . S
C1941 C1950 1.429 1_545 S
C1942 C1940 1.419 . S
C1942 C1943 1.363 . S
C1942 H1945 0.929 . S
C1943 C1942 1.363 . S
C1943 C1949 1.428 1_545 S
H1944 C1940 0.930 . S
H1945 C1942 0.929 . S
S1946 N1947 1.613 . S
S1946 N1948 1.610 . S
N1947 S1946 1.613 . S
N1947 C1950 1.350 . S
N1948 S1946 1.610 . S
N1948 C1949 1.351 . S
C1949 C1943 1.428 1_565 S
C1949 N1948 1.351 . S
C1949 C1950 1.434 . S
C1950 C1941 1.429 1_565 S
C1950 N1947 1.350 . S
C1950 C1949 1.434 . S
C1951 C1952 1.369 . S
C1951 C1953 1.419 . S
C1951 H1955 0.930 . S
C1952 C1951 1.369 . S
C1952 C1961 1.429 . S
C1953 C1951 1.419 . S
C1953 C1954 1.363 . S
C1953 H1956 0.929 . S
C1954 C1953 1.363 . S
C1954 C1960 1.428 . S
H1955 C1951 0.930 . S
H1956 C1953 0.929 . S
S1957 N1958 1.613 . S
S1957 N1959 1.610 . S
N1958 S1957 1.613 . S
N1958 C1961 1.350 . S
N1959 S1957 1.610 . S
N1959 C1960 1.351 . S
C1960 C1954 1.428 . S
C1960 N1959 1.351 . S
C1960 C1961 1.434 . S
C1961 C1952 1.429 . S
C1961 N1958 1.350 . S
C1961 C1960 1.434 . S
C1962 C1963 1.369 . S
C1962 C1964 1.419 . S
C1962 H1966 0.930 . S
C1963 C1962 1.369 . S
C1963 C1972 1.429 . S
C1964 C1962 1.419 . S
C1964 C1965 1.363 . S
C1964 H1967 0.929 . S
C1965 C1964 1.363 . S
C1965 C1971 1.428 . S
H1966 C1962 0.930 . S
H1967 C1964 0.929 . S
S1968 N1969 1.613 . S
S1968 N1970 1.610 . S
N1969 S1968 1.613 . S
N1969 C1972 1.350 . S
N1970 S1968 1.610 . S
N1970 C1971 1.351 . S
C1971 C1965 1.428 . S
C1971 N1970 1.351 . S
C1971 C1972 1.434 . S
C1972 C1963 1.429 . S
C1972 N1969 1.350 . S
C1972 C1971 1.434 . S
C1973 C1974 1.369 . S
C1973 C1975 1.419 . S
C1973 H1977 0.930 . S
C1974 C1973 1.369 . S
C1974 C1983 1.429 1_545 S
C1975 C1973 1.419 . S
C1975 C1976 1.363 . S
C1975 H1978 0.929 . S
C1976 C1975 1.363 . S
C1976 C1982 1.428 1_545 S
H1977 C1973 0.930 . S
H1978 C1975 0.929 . S
S1979 N1980 1.613 . S
S1979 N1981 1.610 . S
N1980 S1979 1.613 . S
N1980 C1983 1.350 . S
N1981 S1979 1.610 . S
N1981 C1982 1.351 . S
C1982 C1976 1.428 1_565 S
C1982 N1981 1.351 . S
C1982 C1983 1.434 . S
C1983 C1974 1.429 1_565 S
C1983 N1980 1.350 . S
C1983 C1982 1.434 . S
C1984 C1985 1.369 . S
C1984 C1986 1.419 1_455 S
C1984 H1988 0.930 . S
C1985 C1984 1.369 . S
C1985 C1994 1.429 . S
C1986 C1984 1.419 1_655 S
C1986 C1987 1.363 . S
C1986 H1989 0.929 . S
C1987 C1986 1.363 . S
C1987 C1993 1.428 1_655 S
H1988 C1984 0.930 . S
H1989 C1986 0.929 . S
S1990 N1991 1.613 . S
S1990 N1992 1.610 1_455 S
N1991 S1990 1.613 . S
N1991 C1994 1.350 . S
N1992 S1990 1.610 1_655 S
N1992 C1993 1.351 1_655 S
C1993 C1987 1.428 1_455 S
C1993 N1992 1.351 1_455 S
C1993 C1994 1.434 . S
C1994 C1985 1.429 . S
C1994 N1991 1.350 . S
C1994 C1993 1.434 . S
C1995 C1996 1.369 . S
C1995 C1997 1.419 . S
C1995 H1999 0.930 . S
C1996 C1995 1.369 . S
C1996 C2005 1.429 . S
C1997 C1995 1.419 . S
C1997 C1998 1.363 . S
C1997 H2000 0.929 . S
C1998 C1997 1.363 . S
C1998 C2004 1.428 . S
H1999 C1995 0.930 . S
H2000 C1997 0.929 . S
S2001 N2002 1.613 . S
S2001 N2003 1.610 . S
N2002 S2001 1.613 . S
N2002 C2005 1.350 . S
N2003 S2001 1.610 . S
N2003 C2004 1.351 . S
C2004 C1998 1.428 . S
C2004 N2003 1.351 . S
C2004 C2005 1.434 . S
C2005 C1996 1.429 . S
C2005 N2002 1.350 . S
C2005 C2004 1.434 . S
C2006 C2007 1.369 1_455 S
C2006 C2008 1.419 . S
C2006 H2010 0.930 1_455 S
C2007 C2006 1.369 1_655 S
C2007 C2016 1.429 . S
C2008 C2006 1.419 . S
C2008 C2009 1.363 . S
C2008 H2011 0.929 . S
C2009 C2008 1.363 . S
C2009 C2015 1.428 . S
H2010 C2006 0.930 1_655 S
H2011 C2008 0.929 . S
S2012 N2013 1.613 1_455 S
S2012 N2014 1.610 . S
N2013 S2012 1.613 1_655 S
N2013 C2016 1.350 . S
N2014 S2012 1.610 . S
N2014 C2015 1.351 . S
C2015 C2009 1.428 . S
C2015 N2014 1.351 . S
C2015 C2016 1.434 1_455 S
C2016 C2007 1.429 . S
C2016 N2013 1.350 . S
C2016 C2015 1.434 1_655 S
C2017 C2018 1.369 . S
C2017 C2019 1.419 . S
C2017 H2021 0.930 . S
C2018 C2017 1.369 . S
C2018 C2027 1.429 . S
C2019 C2017 1.419 . S
C2019 C2020 1.363 . S
C2019 H2022 0.929 . S
C2020 C2019 1.363 . S
C2020 C2026 1.428 . S
H2021 C2017 0.930 . S
H2022 C2019 0.929 . S
S2023 N2024 1.613 . S
S2023 N2025 1.610 . S
N2024 S2023 1.613 . S
N2024 C2027 1.350 . S
N2025 S2023 1.610 . S
N2025 C2026 1.351 . S
C2026 C2020 1.428 . S
C2026 N2025 1.351 . S
C2026 C2027 1.434 . S
C2027 C2018 1.429 . S
C2027 N2024 1.350 . S
C2027 C2026 1.434 . S
C2028 C2029 1.369 . S
C2028 C2030 1.419 . S
C2028 H2032 0.930 . S
C2029 C2028 1.369 . S
C2029 C2038 1.429 . S
C2030 C2028 1.419 . S
C2030 C2031 1.363 1_655 S
C2030 H2033 0.924 1_655 S
C2031 C2030 1.363 1_455 S
C2031 C2037 1.428 . S
H2032 C2028 0.930 . S
H2033 C2030 0.924 1_455 S
S2034 N2035 1.613 . S
S2034 N2036 1.610 1_655 S
N2035 S2034 1.613 . S
N2035 C2038 1.350 . S
N2036 S2034 1.610 1_455 S
N2036 C2037 1.351 . S
C2037 C2031 1.428 . S
C2037 N2036 1.351 . S
C2037 C2038 1.434 1_455 S
C2038 C2029 1.429 . S
C2038 N2035 1.350 . S
C2038 C2037 1.434 1_655 S
C2039 C2040 1.369 . S
C2039 C2041 1.419 . S
C2039 H2043 0.930 . S
C2040 C2039 1.369 . S
C2040 C2049 1.429 . S
C2041 C2039 1.419 . S
C2041 C2042 1.363 . S
C2041 H2044 0.929 . S
C2042 C2041 1.363 . S
C2042 C2048 1.428 . S
H2043 C2039 0.930 . S
H2044 C2041 0.929 . S
S2045 N2046 1.613 . S
S2045 N2047 1.610 . S
N2046 S2045 1.613 . S
N2046 C2049 1.350 . S
N2047 S2045 1.610 . S
N2047 C2048 1.351 . S
C2048 C2042 1.428 . S
C2048 N2047 1.351 . S
C2048 C2049 1.434 . S
C2049 C2040 1.429 . S
C2049 N2046 1.350 . S
C2049 C2048 1.434 . S
C2050 C2051 1.369 1_655 S
C2050 C2052 1.419 . S
C2050 H2054 0.930 . S
C2051 C2050 1.369 1_455 S
C2051 C2060 1.429 . S
C2052 C2050 1.419 . S
C2052 C2053 1.363 . S
C2052 H2055 0.929 . S
C2053 C2052 1.363 . S
C2053 C2059 1.428 . S
H2054 C2050 0.930 . S
H2055 C2052 0.929 . S
S2056 N2057 1.613 . S
S2056 N2058 1.610 1_455 S
N2057 S2056 1.613 . S
N2057 C2060 1.350 . S
N2058 S2056 1.610 1_655 S
N2058 C2059 1.351 . S
C2059 C2053 1.428 . S
C2059 N2058 1.351 . S
C2059 C2060 1.434 1_655 S
C2060 C2051 1.429 . S
C2060 N2057 1.350 . S
C2060 C2059 1.434 1_455 S
C2061 C2062 1.369 . S
C2061 C2063 1.419 . S
C2061 H2065 0.930 . S
C2062 C2061 1.369 . S
C2062 C2071 1.429 . S
C2063 C2061 1.419 . S
C2063 C2064 1.363 . S
C2063 H2066 0.929 . S
C2064 C2063 1.363 . S
C2064 C2070 1.428 . S
H2065 C2061 0.930 . S
H2066 C2063 0.929 . S
S2067 N2068 1.613 . S
S2067 N2069 1.610 . S
N2068 S2067 1.613 . S
N2068 C2071 1.350 . S
N2069 S2067 1.610 . S
N2069 C2070 1.351 . S
C2070 C2064 1.428 . S
C2070 N2069 1.351 . S
C2070 C2071 1.434 . S
C2071 C2062 1.429 . S
C2071 N2068 1.350 . S
C2071 C2070 1.434 . S
C2072 C2073 1.369 . S
C2072 C2074 1.419 1_655 S
C2072 H2076 0.930 . S
C2073 C2072 1.369 . S
C2073 C2082 1.429 1_665 S
C2074 C2072 1.419 1_455 S
C2074 C2075 1.363 . S
C2074 H2077 0.929 . S
C2075 C2074 1.363 . S
C2075 C2081 1.428 1_565 S
H2076 C2072 0.930 . S
H2077 C2074 0.929 . S
S2078 N2079 1.613 . S
S2078 N2080 1.610 . S
N2079 S2078 1.613 . S
N2079 C2082 1.350 . S
N2080 S2078 1.610 . S
N2080 C2081 1.351 . S
C2081 C2075 1.428 1_545 S
C2081 N2080 1.351 . S
C2081 C2082 1.434 . S
C2082 C2073 1.429 1_445 S
C2082 N2079 1.350 . S
C2082 C2081 1.434 . S
C2083 C2084 1.369 . S
C2083 C2085 1.419 . S
C2083 H2087 0.930 . S
C2084 C2083 1.369 . S
C2084 C2093 1.429 . S
C2085 C2083 1.419 . S
C2085 C2086 1.363 . S
C2085 H2088 0.929 . S
C2086 C2085 1.363 . S
C2086 C2092 1.428 . S
H2087 C2083 0.930 . S
H2088 C2085 0.929 . S
S2089 N2090 1.613 . S
S2089 N2091 1.610 . S
N2090 S2089 1.613 . S
N2090 C2093 1.350 . S
N2091 S2089 1.610 . S
N2091 C2092 1.351 . S
C2092 C2086 1.428 . S
C2092 N2091 1.351 . S
C2092 C2093 1.434 . S
C2093 C2084 1.429 . S
C2093 N2090 1.350 . S
C2093 C2092 1.434 . S
C2094 C2095 1.369 1_455 S
C2094 C2096 1.419 . S
C2094 H2098 0.930 . S
C2095 C2094 1.369 1_655 S
C2095 C2104 1.429 . S
C2096 C2094 1.419 . S
C2096 C2097 1.363 . S
C2096 H2099 0.929 . S
C2097 C2096 1.363 . S
C2097 C2103 1.428 . S
H2098 C2094 0.930 . S
H2099 C2096 0.929 . S
S2100 N2101 1.613 . S
S2100 N2102 1.610 1_655 S
N2101 S2100 1.613 . S
N2101 C2104 1.350 . S
N2102 S2100 1.610 1_455 S
N2102 C2103 1.351 . S
C2103 C2097 1.428 . S
C2103 N2102 1.351 . S
C2103 C2104 1.434 1_455 S
C2104 C2095 1.429 . S
C2104 N2101 1.350 . S
C2104 C2103 1.434 1_655 S
C2105 C2106 1.369 1_545 S
C2105 C2107 1.419 . S
C2105 H2109 0.930 . S
C2106 C2105 1.369 1_565 S
C2106 C2115 1.429 . S
C2107 C2105 1.419 . S
C2107 C2108 1.363 1_545 S
C2107 H2110 0.929 . S
C2108 C2107 1.363 1_565 S
C2108 C2114 1.428 . S
H2109 C2105 0.930 . S
H2110 C2107 0.929 . S
S2111 N2112 1.613 . S
S2111 N2113 1.610 . S
N2112 S2111 1.613 . S
N2112 C2115 1.350 . S
N2113 S2111 1.610 . S
N2113 C2114 1.351 . S
C2114 C2108 1.428 . S
C2114 N2113 1.351 . S
C2114 C2115 1.434 . S
C2115 C2106 1.429 . S
C2115 N2112 1.350 . S
C2115 C2114 1.434 . S
C2116 C2117 1.369 . S
C2116 C2118 1.419 1_655 S
C2116 H2120 0.930 . S
C2117 C2116 1.369 . S
C2117 C2126 1.429 . S
C2118 C2116 1.419 1_455 S
C2118 C2119 1.363 . S
C2118 H2121 0.934 . S
C2119 C2118 1.363 . S
C2119 C2125 1.428 1_455 S
H2120 C2116 0.930 . S
H2121 C2118 0.934 . S
S2122 N2123 1.613 . S
S2122 N2124 1.610 . S
N2123 S2122 1.613 . S
N2123 C2126 1.350 . S
N2124 S2122 1.610 . S
N2124 C2125 1.351 . S
C2125 C2119 1.428 1_655 S
C2125 N2124 1.351 . S
C2125 C2126 1.434 . S
C2126 C2117 1.429 . S
C2126 N2123 1.350 . S
C2126 C2125 1.434 . S
C2127 C2128 1.369 . S
C2127 C2129 1.419 . S
C2127 H2131 0.930 . S
C2128 C2127 1.369 . S
C2128 C2137 1.429 . S
C2129 C2127 1.419 . S
C2129 C2130 1.363 . S
C2129 H2132 0.929 . S
C2130 C2129 1.363 . S
C2130 C2136 1.428 . S
H2131 C2127 0.930 . S
H2132 C2129 0.929 . S
S2133 N2134 1.613 . S
S2133 N2135 1.610 . S
N2134 S2133 1.613 . S
N2134 C2137 1.350 . S
N2135 S2133 1.610 . S
N2135 C2136 1.351 . S
C2136 C2130 1.428 . S
C2136 N2135 1.351 . S
C2136 C2137 1.434 . S
C2137 C2128 1.429 . S
C2137 N2134 1.350 . S
C2137 C2136 1.434 . S
C2138 C2139 1.369 1_655 S
C2138 C2140 1.419 . S
C2138 H2142 0.930 . S
C2139 C2138 1.369 1_455 S
C2139 C2148 1.429 . S
C2140 C2138 1.419 . S
C2140 C2141 1.363 . S
C2140 H2143 0.929 . S
C2141 C2140 1.363 . S
C2141 C2147 1.428 . S
H2142 C2138 0.930 . S
H2143 C2140 0.929 . S
S2144 N2145 1.613 1_655 S
S2144 N2146 1.610 . S
N2145 S2144 1.613 1_455 S
N2145 C2148 1.350 . S
N2146 S2144 1.610 . S
N2146 C2147 1.351 . S
C2147 C2141 1.428 . S
C2147 N2146 1.351 . S
C2147 C2148 1.434 1_655 S
C2148 C2139 1.429 . S
C2148 N2145 1.350 . S
C2148 C2147 1.434 1_455 S
C2149 C2150 1.369 . S
C2149 C2151 1.419 . S
C2149 H2153 0.930 . S
C2150 C2149 1.369 . S
C2150 C2159 1.429 1_545 S
C2151 C2149 1.419 . S
C2151 C2152 1.363 . S
C2151 H2154 0.929 . S
C2152 C2151 1.363 . S
C2152 C2158 1.428 . S
H2153 C2149 0.930 . S
H2154 C2151 0.929 . S
S2155 N2156 1.613 . S
S2155 N2157 1.610 . S
N2156 S2155 1.613 . S
N2156 C2159 1.350 . S
N2157 S2155 1.610 . S
N2157 C2158 1.351 1_565 S
C2158 C2152 1.428 . S
C2158 N2157 1.351 1_545 S
C2158 C2159 1.434 1_545 S
C2159 C2150 1.429 1_565 S
C2159 N2156 1.350 . S
C2159 C2158 1.434 1_565 S
C2160 C2161 1.369 1_655 S
C2160 C2162 1.419 1_554 S
C2160 H2164 0.930 . S
C2161 C2160 1.369 1_455 S
C2161 C2170 1.429 . S
C2162 C2160 1.419 1_556 S
C2162 C2163 1.363 . S
C2162 H2165 0.929 . S
C2163 C2162 1.363 . S
C2163 C2169 1.428 1_655 S
H2164 C2160 0.930 . S
H2165 C2162 0.929 . S
S2166 N2167 1.613 . S
S2166 N2168 1.610 1_554 S
N2167 S2166 1.613 . S
N2167 C2170 1.350 . S
N2168 S2166 1.610 1_556 S
N2168 C2169 1.351 . S
C2169 C2163 1.428 1_455 S
C2169 N2168 1.351 . S
C2169 C2170 1.434 1_556 S
C2170 C2161 1.429 . S
C2170 N2167 1.350 . S
C2170 C2169 1.434 1_554 S
C2171 C2172 1.369 . S
C2171 C2173 1.419 1_556 S
C2171 H2175 0.930 . S
C2172 C2171 1.369 . S
C2172 C2181 1.429 . S
C2173 C2171 1.419 1_554 S
C2173 C2174 1.363 . S
C2173 H2176 0.929 . S
C2174 C2173 1.363 . S
C2174 C2180 1.428 . S
H2175 C2171 0.930 . S
H2176 C2173 0.929 . S
S2177 N2178 1.613 . S
S2177 N2179 1.610 1_556 S
N2178 S2177 1.613 . S
N2178 C2181 1.350 . S
N2179 S2177 1.610 1_554 S
N2179 C2180 1.351 . S
C2180 C2174 1.428 . S
C2180 N2179 1.351 . S
C2180 C2181 1.434 1_554 S
C2181 C2172 1.429 . S
C2181 N2178 1.350 . S
C2181 C2180 1.434 1_556 S
C2182 C2183 1.369 1_455 S
C2182 C2184 1.419 . S
C2182 H2186 0.930 . S
C2183 C2182 1.369 1_655 S
C2183 C2192 1.429 . S
C2184 C2182 1.419 . S
C2184 C2185 1.363 . S
C2184 H2187 0.929 . S
C2185 C2184 1.363 . S
C2185 C2191 1.428 1_455 S
H2186 C2182 0.930 . S
H2187 C2184 0.929 . S
S2188 N2189 1.613 . S
S2188 N2190 1.610 . S
N2189 S2188 1.613 . S
N2189 C2192 1.350 . S
N2190 S2188 1.610 . S
N2190 C2191 1.351 . S
C2191 C2185 1.428 1_655 S
C2191 N2190 1.351 . S
C2191 C2192 1.434 . S
C2192 C2183 1.429 . S
C2192 N2189 1.350 . S
C2192 C2191 1.434 . S
C2193 C2194 1.369 . S
C2193 C2195 1.419 . S
C2193 H2197 0.930 . S
C2194 C2193 1.369 . S
C2194 C2203 1.429 . S
C2195 C2193 1.419 . S
C2195 C2196 1.363 . S
C2195 H2198 0.929 . S
C2196 C2195 1.363 . S
C2196 C2202 1.428 . S
H2197 C2193 0.930 . S
H2198 C2195 0.929 . S
S2199 N2200 1.613 . S
S2199 N2201 1.610 . S
N2200 S2199 1.613 . S
N2200 C2203 1.350 . S
N2201 S2199 1.610 . S
N2201 C2202 1.351 . S
C2202 C2196 1.428 . S
C2202 N2201 1.351 . S
C2202 C2203 1.434 . S
C2203 C2194 1.429 . S
C2203 N2200 1.350 . S
C2203 C2202 1.434 . S
C2204 C2205 1.369 . S
C2204 C2206 1.419 1_556 S
C2204 H2208 0.930 . S
C2205 C2204 1.369 . S
C2205 C2214 1.429 . S
C2206 C2204 1.419 1_554 S
C2206 C2207 1.363 . S
C2206 H2209 0.929 . S
C2207 C2206 1.363 . S
C2207 C2213 1.428 . S
H2208 C2204 0.930 . S
H2209 C2206 0.929 . S
S2210 N2211 1.613 . S
S2210 N2212 1.610 1_556 S
N2211 S2210 1.613 . S
N2211 C2214 1.350 . S
N2212 S2210 1.610 1_554 S
N2212 C2213 1.351 . S
C2213 C2207 1.428 . S
C2213 N2212 1.351 . S
C2213 C2214 1.434 1_554 S
C2214 C2205 1.429 . S
C2214 N2211 1.350 . S
C2214 C2213 1.434 1_556 S
C2215 C2216 1.369 . S
C2215 C2217 1.419 . S
C2215 H2219 0.930 . S
C2216 C2215 1.369 . S
C2216 C2225 1.429 1_655 S
C2217 C2215 1.419 . S
C2217 C2218 1.363 1_655 S
C2217 H2220 0.929 . S
C2218 C2217 1.363 1_455 S
C2218 C2224 1.428 . S
H2219 C2215 0.930 . S
H2220 C2217 0.929 . S
S2221 N2222 1.613 . S
S2221 N2223 1.610 . S
N2222 S2221 1.613 . S
N2222 C2225 1.350 . S
N2223 S2221 1.610 . S
N2223 C2224 1.351 . S
C2224 C2218 1.428 . S
C2224 N2223 1.351 . S
C2224 C2225 1.434 . S
C2225 C2216 1.429 1_455 S
C2225 N2222 1.350 . S
C2225 C2224 1.434 . S
C2226 C2227 1.369 . S
C2226 C2228 1.419 . S
C2226 H2230 0.930 . S
C2227 C2226 1.369 . S
C2227 C2236 1.429 . S
C2228 C2226 1.419 . S
C2228 C2229 1.363 . S
C2228 H2231 0.929 . S
C2229 C2228 1.363 . S
C2229 C2235 1.428 . S
H2230 C2226 0.930 . S
H2231 C2228 0.929 . S
S2232 N2233 1.613 . S
S2232 N2234 1.610 . S
N2233 S2232 1.613 . S
N2233 C2236 1.350 . S
N2234 S2232 1.610 . S
N2234 C2235 1.351 . S
C2235 C2229 1.428 . S
C2235 N2234 1.351 . S
C2235 C2236 1.434 . S
C2236 C2227 1.429 . S
C2236 N2233 1.350 . S
C2236 C2235 1.434 . S
C2237 C2238 1.369 1_545 S
C2237 C2239 1.419 . S
C2237 H2241 0.930 . S
C2238 C2237 1.369 1_565 S
C2238 C2247 1.429 1_455 S
C2239 C2237 1.419 . S
C2239 C2240 1.363 1_455 S
C2239 H2242 0.929 . S
C2240 C2239 1.363 1_655 S
C2240 C2246 1.428 1_545 S
H2241 C2237 0.930 . S
H2242 C2239 0.929 . S
S2243 N2244 1.613 . S
S2243 N2245 1.610 . S
N2244 S2243 1.613 . S
N2244 C2247 1.350 . S
N2245 S2243 1.610 . S
N2245 C2246 1.351 . S
C2246 C2240 1.428 1_565 S
C2246 N2245 1.351 . S
C2246 C2247 1.434 . S
C2247 C2238 1.429 1_655 S
C2247 N2244 1.350 . S
C2247 C2246 1.434 . S
C2248 C2249 1.369 . S
C2248 C2250 1.419 . S
C2248 H2252 0.930 . S
C2249 C2248 1.369 . S
C2249 C2258 1.429 . S
C2250 C2248 1.419 . S
C2250 C2251 1.363 . S
C2250 H2253 0.929 . S
C2251 C2250 1.363 . S
C2251 C2257 1.428 . S
H2252 C2248 0.930 . S
H2253 C2250 0.929 . S
S2254 N2255 1.613 . S
S2254 N2256 1.610 . S
N2255 S2254 1.613 . S
N2255 C2258 1.350 . S
N2256 S2254 1.610 . S
N2256 C2257 1.351 . S
C2257 C2251 1.428 . S
C2257 N2256 1.351 . S
C2257 C2258 1.434 . S
C2258 C2249 1.429 . S
C2258 N2255 1.350 . S
C2258 C2257 1.434 . S
C2259 C2260 1.369 1_565 S
C2259 C2261 1.419 . S
C2259 H2263 0.930 . S
C2260 C2259 1.369 1_545 S
C2260 C2269 1.429 . S
C2261 C2259 1.419 . S
C2261 C2262 1.363 . S
C2261 H2264 0.929 . S
C2262 C2261 1.363 . S
C2262 C2268 1.428 1_565 S
H2263 C2259 0.930 . S
H2264 C2261 0.929 . S
S2265 N2266 1.613 . S
S2265 N2267 1.610 . S
N2266 S2265 1.613 . S
N2266 C2269 1.350 . S
N2267 S2265 1.610 . S
N2267 C2268 1.351 . S
C2268 C2262 1.428 1_545 S
C2268 N2267 1.351 . S
C2268 C2269 1.434 . S
C2269 C2260 1.429 . S
C2269 N2266 1.350 . S
C2269 C2268 1.434 . S
C2270 C2271 1.369 . S
C2270 C2272 1.419 . S
C2270 H2274 0.930 . S
C2271 C2270 1.369 . S
C2271 C2280 1.429 . S
C2272 C2270 1.419 . S
C2272 C2273 1.363 . S
C2272 H2275 0.929 . S
C2273 C2272 1.363 . S
C2273 C2279 1.428 . S
H2274 C2270 0.930 . S
H2275 C2272 0.929 . S
S2276 N2277 1.613 . S
S2276 N2278 1.610 . S
N2277 S2276 1.613 . S
N2277 C2280 1.350 . S
N2278 S2276 1.610 . S
N2278 C2279 1.351 . S
C2279 C2273 1.428 . S
C2279 N2278 1.351 . S
C2279 C2280 1.434 . S
C2280 C2271 1.429 . S
C2280 N2277 1.350 . S
C2280 C2279 1.434 . S
C2281 C2282 1.369 1_545 S
C2281 C2283 1.419 . S
C2281 H2285 0.930 . S
C2282 C2281 1.369 1_565 S
C2282 C2291 1.429 . S
C2283 C2281 1.419 . S
C2283 C2284 1.363 . S
C2283 H2286 0.929 . S
C2284 C2283 1.363 . S
C2284 C2290 1.428 1_545 S
H2285 C2281 0.930 . S
H2286 C2283 0.929 . S
S2287 N2288 1.613 . S
S2287 N2289 1.610 . S
N2288 S2287 1.613 . S
N2288 C2291 1.350 . S
N2289 S2287 1.610 . S
N2289 C2290 1.351 . S
C2290 C2284 1.428 1_565 S
C2290 N2289 1.351 . S
C2290 C2291 1.434 . S
C2291 C2282 1.429 . S
C2291 N2288 1.350 . S
C2291 C2290 1.434 . S
C2292 C2293 1.369 . S
C2292 C2294 1.419 . S
C2292 H2296 0.930 . S
C2293 C2292 1.369 . S
C2293 C2302 1.429 . S
C2294 C2292 1.419 . S
C2294 C2295 1.363 . S
C2294 H2297 0.929 . S
C2295 C2294 1.363 . S
C2295 C2301 1.428 . S
H2296 C2292 0.930 . S
H2297 C2294 0.929 . S
S2298 N2299 1.613 . S
S2298 N2300 1.610 . S
N2299 S2298 1.613 . S
N2299 C2302 1.350 . S
N2300 S2298 1.610 . S
N2300 C2301 1.351 . S
C2301 C2295 1.428 . S
C2301 N2300 1.351 . S
C2301 C2302 1.434 . S
C2302 C2293 1.429 . S
C2302 N2299 1.350 . S
C2302 C2301 1.434 . S
C2303 C2304 1.369 . S
C2303 C2305 1.419 . S
C2303 H2307 0.930 . S
C2304 C2303 1.369 . S
C2304 C2313 1.429 . S
C2305 C2303 1.419 . S
C2305 C2306 1.363 . S
C2305 H2308 0.929 . S
C2306 C2305 1.363 . S
C2306 C2312 1.428 . S
H2307 C2303 0.930 . S
H2308 C2305 0.929 . S
S2309 N2310 1.613 . S
S2309 N2311 1.610 . S
N2310 S2309 1.613 . S
N2310 C2313 1.350 . S
N2311 S2309 1.610 . S
N2311 C2312 1.351 . S
C2312 C2306 1.428 . S
C2312 N2311 1.351 . S
C2312 C2313 1.434 . S
C2313 C2304 1.429 . S
C2313 N2310 1.350 . S
C2313 C2312 1.434 . S
C2314 C2315 1.369 . S
C2314 C2316 1.419 . S
C2314 H2318 0.930 . S
C2315 C2314 1.369 . S
C2315 C2324 1.429 . S
C2316 C2314 1.419 . S
C2316 C2317 1.363 . S
C2316 H2319 0.929 . S
C2317 C2316 1.363 . S
C2317 C2323 1.428 . S
H2318 C2314 0.930 . S
H2319 C2316 0.929 . S
S2320 N2321 1.613 . S
S2320 N2322 1.610 . S
N2321 S2320 1.613 . S
N2321 C2324 1.350 . S
N2322 S2320 1.610 . S
N2322 C2323 1.351 . S
C2323 C2317 1.428 . S
C2323 N2322 1.351 . S
C2323 C2324 1.434 . S
C2324 C2315 1.429 . S
C2324 N2321 1.350 . S
C2324 C2323 1.434 . S
C2325 C2326 1.369 . S
C2325 C2327 1.419 1_554 S
C2325 H2329 0.930 . S
C2326 C2325 1.369 . S
C2326 C2335 1.429 1_565 S
C2327 C2325 1.419 1_556 S
C2327 C2328 1.363 1_565 S
C2327 H2330 0.929 . S
C2328 C2327 1.363 1_545 S
C2328 C2334 1.428 . S
H2329 C2325 0.930 . S
H2330 C2327 0.929 . S
S2331 N2332 1.613 . S
S2331 N2333 1.610 1_554 S
N2332 S2331 1.613 . S
N2332 C2335 1.350 . S
N2333 S2331 1.610 1_556 S
N2333 C2334 1.351 . S
C2334 C2328 1.428 . S
C2334 N2333 1.351 . S
C2334 C2335 1.434 1_556 S
C2335 C2326 1.429 1_545 S
C2335 N2332 1.350 . S
C2335 C2334 1.434 1_554 S
C1281 C10 1.597 . S
C1283 C1010 1.597 . S
C1292 C970 1.598 . S
C1294 C50 1.596 . S
C1303 C1090 1.597 . S
C1305 C90 1.597 . S
C1314 C130 1.594 . S
C1316 C1050 1.596 . S
C1325 C179 1.597 . S
C1327 C1179 1.595 . S
C1336 C219 1.598 . S
C1338 C1139 1.597 . S
C1347 C259 1.594 . S
C1349 C1259 1.595 . S
C1358 C1219 1.594 . S
C1360 C299 1.596 . S
C1369 C330 1.597 . S
C1371 C690 1.595 . S
C1380 C370 1.596 . S
C1382 C650 1.594 . S
C1391 C410 1.596 . S
C1393 C770 1.597 . S
C1402 C730 1.594 . S
C1404 C450 1.597 . S
C1413 C499 1.597 . S
C1415 C859 1.595 . S
C1424 C539 1.595 . S
C1426 C819 1.595 . S
C1435 C939 1.597 . S
C1437 C579 1.595 . S
C1446 C619 1.597 . S
C1448 C899 1.597 . S
C1457 C9 1.696 . S
C1459 C129 1.696 . S
C1468 C49 1.695 . S
C1470 C89 1.694 . S
C1479 C298 1.691 . S
C1481 C178 1.691 . S
C1490 C258 1.696 . S
C1492 C218 1.694 . S
C1501 C329 1.696 . S
C1503 C449 1.696 . S
C1512 C369 1.693 . S
C1514 C409 1.692 . S
C1523 C498 1.691 . S
C1525 C618 1.693 . S
C1534 C578 1.694 . S
C1536 C538 1.693 . S
C1545 C649 1.694 . S
C1547 C769 1.695 . S
C1556 C689 1.692 . S
C1558 C729 1.692 . S
C1567 C938 1.694 . S
C1569 C818 1.693 . S
C1578 C858 1.693 . S
C1580 C898 1.692 . S
C1589 C1089 1.694 . S
C1591 C969 1.695 . S
C1600 C1009 1.693 . S
C1602 C1049 1.692 . S
C1611 C1258 1.695 . S
C1613 C1138 1.695 . S
C1622 C1218 1.697 . S
C1624 C1178 1.696 . S
C1633 C59 1.621 . S
C1635 C19 1.617 . S
C1644 C99 1.616 . S
C1646 C139 1.618 . S
C1655 C210 1.619 . S
C1657 C170 1.619 . S
C1666 C290 1.614 . S
C1668 C250 1.619 . S
C1677 C339 1.614 . S
C1679 C379 1.621 . S
C1688 C419 1.613 . S
C1690 C459 1.621 . S
C1699 C530 1.619 . S
C1701 C490 1.620 . S
C1710 C570 1.617 . S
C1712 C610 1.621 . S
C1721 C659 1.622 . S
C1723 C699 1.617 . S
C1732 C779 1.620 . S
C1734 C739 1.618 . S
C1743 C810 1.622 . S
C1745 C850 1.615 . S
C1754 C890 1.615 . S
C1756 C930 1.621 . S
C1765 C979 1.614 . S
C1767 C1019 1.620 . S
C1776 C1059 1.618 . S
C1778 C1099 1.620 . S
C1787 C1170 1.617 . S
C1789 C1130 1.621 . S
C1798 C1210 1.621 . S
C1800 C1250 1.618 . S
C1809 C6 1.588 . S
C1811 C15 1.588 . S
C1820 C46 1.587 . S
C1822 C55 1.588 . S
C1831 C86 1.587 . S
C1833 C95 1.589 . S
C1842 C135 1.584 . S
C1844 C126 1.591 . S
C1853 C166 1.584 . S
C1855 C175 1.591 . S
C1864 C215 1.585 . S
C1866 C206 1.590 . S
C1875 C246 1.591 . S
C1877 C255 1.586 . S
C1886 C286 1.584 . S
C1888 C295 1.591 . S
C1897 C335 1.589 1_565 S
C1899 C326 1.586 . S
C1908 C366 1.588 . S
C1910 C375 1.587 . S
C1919 C406 1.584 . S
C1921 C415 1.591 . S
C1930 C455 1.590 1_565 S
C1932 C446 1.585 . S
C1941 C486 1.590 1_545 S
C1943 C495 1.585 . S
C1952 C535 1.590 . S
C1954 C526 1.586 . S
C1963 C575 1.585 . S
C1965 C566 1.590 . S
C1974 C606 1.589 1_545 S
C1976 C615 1.585 . S
C1985 C646 1.588 . S
C1987 C655 1.588 . S
C1996 C695 1.590 . S
C1998 C686 1.586 . S
C2007 C735 1.585 . S
C2009 C726 1.590 . S
C2018 C766 1.590 . S
C2020 C775 1.586 . S
C2029 C815 1.591 . S
C2031 C806 1.585 . S
C2040 C855 1.586 . S
C2042 C846 1.589 . S
C2051 C886 1.586 . S
C2053 C895 1.590 . S
C2062 C935 1.586 . S
C2064 C926 1.589 . S
C2073 C975 1.590 1_565 S
C2075 C966 1.585 . S
C2084 C1006 1.586 . S
C2086 C1015 1.589 . S
C2095 C1055 1.584 . S
C2097 C1046 1.591 . S
C2106 C1095 1.582 1_565 S
C2108 C1086 1.591 . S
C2117 C1135 1.587 . S
C2119 C1126 1.587 1_545 S
C2128 C1175 1.584 . S
C2130 C1166 1.591 . S
C2139 C1206 1.587 . S
C2141 C1215 1.589 . S
C2150 C1246 1.583 1_545 S
C2152 C1255 1.590 . S
C2161 C18 1.477 . S
C2163 C169 1.470 . S
C2172 C1169 1.477 . S
C2174 C58 1.469 . S
C2183 C569 1.471 . S
C2185 C98 1.475 . S
C2194 C138 1.476 . S
C2196 C929 1.471 . S
C2205 C209 1.474 . S
C2207 C1018 1.472 . S
C2216 C249 1.476 . S
C2218 C418 1.470 . S
C2227 C289 1.469 . S
C2229 C778 1.476 . S
C2238 C338 1.472 . S
C2240 C489 1.474 . S
C2249 C849 1.469 . S
C2251 C378 1.476 . S
C2260 C1249 1.470 . S
C2262 C458 1.476 . S
C2271 C529 1.475 . S
C2273 C698 1.472 . S
C2282 C1098 1.471 . S
C2284 C609 1.474 . S
C2293 C658 1.475 . S
C2295 C809 1.472 . S
C2304 C1209 1.468 . S
C2306 C738 1.477 . S
C2315 C889 1.470 . S
C2317 C1058 1.475 . S
C2326 C978 1.476 . S
C2328 C1129 1.471 . S
