# Generated by pormake.
# Topology pbz, (3)-cn, num edge types: 1
# Building blocks:
#     Node 0, Type 0, BuildingBlock: OLANEW_clean_sbu_2, # of connection points: 3
#     Node 1, Type 0, BuildingBlock: OLANEW_clean_sbu_2, # of connection points: 3
#     Node 2, Type 0, BuildingBlock: OLANEW_clean_sbu_2, # of connection points: 3
#     Node 3, Type 0, BuildingBlock: OLANEW_clean_sbu_2, # of connection points: 3
#     Node 4, Type 0, BuildingBlock: OLANEW_clean_sbu_2, # of connection points: 3
#     Node 5, Type 0, BuildingBlock: OLANEW_clean_sbu_2, # of connection points: 3
#     Node 6, Type 0, BuildingBlock: OLANEW_clean_sbu_2, # of connection points: 3
#     Node 7, Type 0, BuildingBlock: OLANEW_clean_sbu_2, # of connection points: 3
#     Node 8, Type 0, BuildingBlock: OLANEW_clean_sbu_2, # of connection points: 3
#     Node 9, Type 0, BuildingBlock: OLANEW_clean_sbu_2, # of connection points: 3
#     Node 10, Type 0, BuildingBlock: OLANEW_clean_sbu_2, # of connection points: 3
#     Node 11, Type 0, BuildingBlock: OLANEW_clean_sbu_2, # of connection points: 3
#     Node 12, Type 0, BuildingBlock: OLANEW_clean_sbu_2, # of connection points: 3
#     Node 13, Type 0, BuildingBlock: OLANEW_clean_sbu_2, # of connection points: 3
#     Node 14, Type 0, BuildingBlock: OLANEW_clean_sbu_2, # of connection points: 3
#     Node 15, Type 0, BuildingBlock: OLANEW_clean_sbu_2, # of connection points: 3
#     Node 16, Type 0, BuildingBlock: OLANEW_clean_sbu_2, # of connection points: 3
#     Node 17, Type 0, BuildingBlock: OLANEW_clean_sbu_2, # of connection points: 3
#     Node 18, Type 0, BuildingBlock: OLANEW_clean_sbu_2, # of connection points: 3
#     Node 19, Type 0, BuildingBlock: OLANEW_clean_sbu_2, # of connection points: 3
#     Node 20, Type 0, BuildingBlock: OLANEW_clean_sbu_2, # of connection points: 3
#     Node 21, Type 0, BuildingBlock: OLANEW_clean_sbu_2, # of connection points: 3
#     Node 22, Type 0, BuildingBlock: OLANEW_clean_sbu_2, # of connection points: 3
#     Node 23, Type 0, BuildingBlock: OLANEW_clean_sbu_2, # of connection points: 3
#     Edge 24, Type (0, 0), BuildingBlock: ZUJKAS_clean_linker_0, # of connection points: 2
#     Edge 25, Type (0, 0), BuildingBlock: ZUJKAS_clean_linker_0, # of connection points: 2
#     Edge 26, Type (0, 0), BuildingBlock: ZUJKAS_clean_linker_0, # of connection points: 2
#     Edge 27, Type (0, 0), BuildingBlock: ZUJKAS_clean_linker_0, # of connection points: 2
#     Edge 28, Type (0, 0), BuildingBlock: ZUJKAS_clean_linker_0, # of connection points: 2
#     Edge 29, Type (0, 0), BuildingBlock: ZUJKAS_clean_linker_0, # of connection points: 2
#     Edge 30, Type (0, 0), BuildingBlock: ZUJKAS_clean_linker_0, # of connection points: 2
#     Edge 31, Type (0, 0), BuildingBlock: ZUJKAS_clean_linker_0, # of connection points: 2
#     Edge 32, Type (0, 0), BuildingBlock: ZUJKAS_clean_linker_0, # of connection points: 2
#     Edge 33, Type (0, 0), BuildingBlock: ZUJKAS_clean_linker_0, # of connection points: 2
#     Edge 34, Type (0, 0), BuildingBlock: ZUJKAS_clean_linker_0, # of connection points: 2
#     Edge 35, Type (0, 0), BuildingBlock: ZUJKAS_clean_linker_0, # of connection points: 2
#     Edge 36, Type (0, 0), BuildingBlock: ZUJKAS_clean_linker_0, # of connection points: 2
#     Edge 37, Type (0, 0), BuildingBlock: ZUJKAS_clean_linker_0, # of connection points: 2
#     Edge 38, Type (0, 0), BuildingBlock: ZUJKAS_clean_linker_0, # of connection points: 2
#     Edge 39, Type (0, 0), BuildingBlock: ZUJKAS_clean_linker_0, # of connection points: 2
#     Edge 40, Type (0, 0), BuildingBlock: ZUJKAS_clean_linker_0, # of connection points: 2
#     Edge 41, Type (0, 0), BuildingBlock: ZUJKAS_clean_linker_0, # of connection points: 2
#     Edge 42, Type (0, 0), BuildingBlock: ZUJKAS_clean_linker_0, # of connection points: 2
#     Edge 43, Type (0, 0), BuildingBlock: ZUJKAS_clean_linker_0, # of connection points: 2
#     Edge 44, Type (0, 0), BuildingBlock: ZUJKAS_clean_linker_0, # of connection points: 2
#     Edge 45, Type (0, 0), BuildingBlock: ZUJKAS_clean_linker_0, # of connection points: 2
#     Edge 46, Type (0, 0), BuildingBlock: ZUJKAS_clean_linker_0, # of connection points: 2
#     Edge 47, Type (0, 0), BuildingBlock: ZUJKAS_clean_linker_0, # of connection points: 2
#     Edge 48, Type (0, 0), BuildingBlock: ZUJKAS_clean_linker_0, # of connection points: 2
#     Edge 49, Type (0, 0), BuildingBlock: ZUJKAS_clean_linker_0, # of connection points: 2
#     Edge 50, Type (0, 0), BuildingBlock: ZUJKAS_clean_linker_0, # of connection points: 2
#     Edge 51, Type (0, 0), BuildingBlock: ZUJKAS_clean_linker_0, # of connection points: 2
#     Edge 52, Type (0, 0), BuildingBlock: ZUJKAS_clean_linker_0, # of connection points: 2
#     Edge 53, Type (0, 0), BuildingBlock: ZUJKAS_clean_linker_0, # of connection points: 2
#     Edge 54, Type (0, 0), BuildingBlock: ZUJKAS_clean_linker_0, # of connection points: 2
#     Edge 55, Type (0, 0), BuildingBlock: ZUJKAS_clean_linker_0, # of connection points: 2
#     Edge 56, Type (0, 0), BuildingBlock: ZUJKAS_clean_linker_0, # of connection points: 2
#     Edge 57, Type (0, 0), BuildingBlock: ZUJKAS_clean_linker_0, # of connection points: 2
#     Edge 58, Type (0, 0), BuildingBlock: ZUJKAS_clean_linker_0, # of connection points: 2
#     Edge 59, Type (0, 0), BuildingBlock: ZUJKAS_clean_linker_0, # of connection points: 2
# Relax obj value: 0.052
# Max RMSD: 0.149
# Mean RMSD: 0.114
data_MOF--net-pbz--node1-OLANEW_clean_sbu_2--edge1-ZUJKAS_clean_linker_0
_symmetry_space_group_name_H-M    P1
_symmetry_Int_Tables_number       1
_symmetry_cell_setting            triclinic
loop_
_symmetry_equiv_pos_as_xyz
'x, y, z'
_cell_length_a     85.226563
_cell_length_b     83.035386
_cell_length_c     81.402975
_cell_angle_alpha  91.083902
_cell_angle_beta   90.086372
_cell_angle_gamma 94.538391
loop_
_atom_site_label
_atom_site_type_symbol
_atom_site_fract_x
_atom_site_fract_y
_atom_site_fract_z
_atom_type_partial_charge
O0 O 0.02628 0.25038 0.78771 0.0
Cd1 Cd 0.02266 0.22224 0.77806 0.0
O2 O 0.00189 0.24931 0.79672 0.0
Cd3 Cd 0.99479 0.22555 0.78603 0.0
O4 O 0.98093 0.20917 0.76936 0.0
C5 C 0.98574 0.20692 0.7548 0.0
O6 O 0.99957 0.21361 0.7505 0.0
C7 C 0.01526 0.25706 0.79507 0.0
C8 C 0.04941 0.20536 0.78164 0.0
O9 O 0.04004 0.20718 0.79371 0.0
O10 O 0.04622 0.21165 0.76789 0.0
O11 O 0.92983 0.56361 0.24895 0.0
Cd12 Cd 0.9022 0.55309 0.24988 0.0
O13 O 0.93859 0.54264 0.26112 0.0
Cd14 Cd 0.91479 0.53281 0.26673 0.0
O15 O 0.89365 0.5336 0.28167 0.0
C16 C 0.89342 0.54621 0.29074 0.0
O17 O 0.90533 0.55723 0.29004 0.0
C18 C 0.94128 0.55619 0.2542 0.0
C19 C 0.89234 0.53817 0.22024 0.0
O20 O 0.8908 0.55322 0.22297 0.0
O21 O 0.89854 0.53018 0.23155 0.0
O22 O 0.53943 0.33949 0.74484 0.0
Cd23 Cd 0.53857 0.35819 0.72208 0.0
O24 O 0.51865 0.32408 0.73653 0.0
Cd25 Cd 0.51223 0.34175 0.7187 0.0
O26 O 0.50015 0.36225 0.71006 0.0
C27 C 0.50167 0.37522 0.71864 0.0
O28 O 0.5109 0.37584 0.73162 0.0
C29 C 0.53015 0.32685 0.74643 0.0
C30 C 0.5676 0.36053 0.70615 0.0
O31 O 0.5647 0.37024 0.71799 0.0
O32 O 0.55666 0.34986 0.70167 0.0
O33 O 0.79447 0.04653 0.23603 0.0
Cd34 Cd 0.76804 0.04722 0.22448 0.0
O35 O 0.79393 0.02004 0.23682 0.0
Cd36 Cd 0.76892 0.01727 0.23069 0.0
O37 O 0.74409 0.01404 0.23732 0.0
C38 C 0.73607 0.00066 0.23475 0.0
O39 O 0.74264 0.98894 0.22696 0.0
C40 C 0.80132 0.03383 0.23899 0.0
C41 C 0.76916 0.06625 0.1966 0.0
O42 O 0.76741 0.0725 0.21093 0.0
O43 O 0.77016 0.05094 0.19544 0.0
O44 O 0.01448 0.42492 0.86467 0.0
Cd45 Cd 0.00746 0.44947 0.87904 0.0
O46 O -2e-05 0.42846 0.84284 0.0
Cd47 Cd 0.98955 0.44887 0.85459 0.0
O48 O 0.97359 0.45818 0.87277 0.0
C49 C 0.96845 0.44768 0.883 0.0
O50 O 0.9733 0.43306 0.88178 0.0
C51 C 0.00969 0.42034 0.85039 0.0
C52 C 0.03396 0.47087 0.88402 0.0
O53 O 0.0297 0.46032 0.89476 0.0
O54 O 0.02556 0.47139 0.87099 0.0
O55 O 0.7599 0.56649 0.40893 0.0
Cd56 Cd 0.73941 0.57056 0.42921 0.0
O57 O 0.77419 0.58866 0.41633 0.0
Cd58 Cd 0.75493 0.5979 0.43036 0.0
O59 O 0.73451 0.6122 0.431 0.0
C60 C 0.73317 0.62079 0.41839 0.0
O61 O 0.7439 0.62042 0.40684 0.0
C62 C 0.77251 0.57566 0.40778 0.0
C63 C 0.74428 0.5512 0.45609 0.0
O64 O 0.73543 0.54597 0.44408 0.0
O65 O 0.75055 0.56573 0.45554 0.0
O66 O 0.54029 0.21994 0.89339 0.0
Cd67 Cd 0.54037 0.20397 0.91823 0.0
O68 O 0.53033 0.24049 0.90592 0.0
Cd69 Cd 0.52533 0.2274 0.92862 0.0
O70 O 0.5118 0.21475 0.94795 0.0
C71 C 0.50807 0.19967 0.94639 0.0
O72 O 0.51311 0.19186 0.9335 0.0
C73 C 0.53594 0.23423 0.89305 0.0
C74 C 0.5705 0.20518 0.93179 0.0
O75 O 0.56584 0.19416 0.92124 0.0
O76 O 0.56084 0.21557 0.93602 0.0
O77 O 0.95247 0.0869 0.41826 0.0
Cd78 Cd 0.9603 0.07294 0.39319 0.0
O79 O 0.92766 0.07809 0.41467 0.0
Cd80 Cd 0.931 0.06518 0.39149 0.0
O81 O 0.92416 0.05609 0.36699 0.0
C82 C 0.92046 0.06643 0.35665 0.0
O83 O 0.92193 0.08182 0.36094 0.0
C84 C 0.93823 0.08621 0.42304 0.0
C85 C 0.97988 0.04827 0.399 0.0
O86 O 0.98563 0.06269 0.39617 0.0
O87 O 0.96487 0.04556 0.39922 0.0
O88 O 0.2793 0.69934 0.11026 0.0
Cd89 Cd 0.26155 0.67521 0.11473 0.0
O90 O 0.30079 0.68776 0.11665 0.0
Cd91 Cd 0.28713 0.66589 0.12437 0.0
O92 O 0.26963 0.65251 0.13944 0.0
C93 C 0.27361 0.64657 0.15295 0.0
O94 O 0.28857 0.64757 0.15709 0.0
C95 C 0.2942 0.70008 0.11184 0.0
C96 C 0.25682 0.65632 0.08619 0.0
O97 O 0.24754 0.66723 0.08998 0.0
O98 O 0.26833 0.65436 0.09591 0.0
O99 O 0.22787 0.8523 0.68305 0.0
Cd100 Cd 0.20512 0.86226 0.69699 0.0
O101 O 0.21935 0.86229 0.66035 0.0
Cd102 Cd 0.2192 0.86884 0.63447 0.0
O103 O 0.21273 0.87526 0.60964 0.0
C104 C 0.20389 0.88673 0.60785 0.0
O105 O 0.1994 0.89461 0.62096 0.0
C106 C 0.22949 0.85459 0.66774 0.0
C107 C 0.21036 0.89471 0.70625 0.0
O108 O 0.21395 0.88348 0.71583 0.0
O109 O 0.20428 0.89059 0.69223 0.0
O110 O 0.38209 0.7028 0.58425 0.0
Cd111 Cd 0.37618 0.72718 0.56986 0.0
O112 O 0.37765 0.71351 0.60856 0.0
Cd113 Cd 0.36923 0.73585 0.59944 0.0
O114 O 0.35423 0.756 0.59934 0.0
C115 C 0.35517 0.76572 0.61161 0.0
O116 O 0.36564 0.76373 0.6231 0.0
C117 C 0.38179 0.70173 0.59981 0.0
C118 C 0.39754 0.73349 0.54444 0.0
O119 O 0.40027 0.73937 0.55893 0.0
O120 O 0.38464 0.72476 0.54196 0.0
O121 O 0.39933 0.904 0.17434 0.0
Cd122 Cd 0.37777 0.89728 0.15489 0.0
O123 O 0.41655 0.89114 0.16014 0.0
Cd124 Cd 0.39908 0.88089 0.14246 0.0
O125 O 0.38361 0.86184 0.13071 0.0
C126 C 0.38925 0.84822 0.12874 0.0
O127 O 0.4039 0.84678 0.13317 0.0
C128 C 0.41327 0.89984 0.17249 0.0
C129 C 0.37298 0.923 0.13438 0.0
O130 O 0.3661 0.92169 0.14834 0.0
O131 O 0.38212 0.91213 0.13012 0.0
O132 O 0.11745 0.89902 0.44795 0.0
Cd133 Cd 0.10229 0.89554 0.42244 0.0
O134 O 0.13187 0.87886 0.44203 0.0
Cd135 Cd 0.11976 0.87083 0.41934 0.0
O136 O 0.11355 0.85227 0.40058 0.0
C137 C 0.10954 0.83819 0.40573 0.0
O138 O 0.10857 0.83601 0.42166 0.0
C139 C 0.12855 0.89036 0.45162 0.0
C140 C 0.08221 0.92022 0.4189 0.0
O141 O 0.07748 0.90694 0.42576 0.0
O142 O 0.09641 0.92178 0.41365 0.0
O143 O 0.24921 0.5454 0.89009 0.0
Cd144 Cd 0.2266 0.54321 0.90867 0.0
O145 O 0.24124 0.56658 0.87759 0.0
Cd146 Cd 0.21883 0.56536 0.89056 0.0
O147 O 0.19447 0.55809 0.89692 0.0
C148 C 0.18377 0.56107 0.88679 0.0
O149 O 0.18775 0.56903 0.87343 0.0
C150 C 0.25143 0.55634 0.87941 0.0
C151 C 0.23208 0.56138 0.93759 0.0
O152 O 0.23508 0.5465 0.93671 0.0
O153 O 0.22652 0.56766 0.92478 0.0
O154 O 0.57404 0.74417 0.35657 0.0
Cd155 Cd 0.57374 0.71471 0.3559 0.0
O156 O 0.55725 0.74215 0.37685 0.0
Cd157 Cd 0.54221 0.75 0.39675 0.0
O158 O 0.52525 0.75269 0.41649 0.0
C159 C 0.51154 0.74565 0.41473 0.0
O160 O 0.50812 0.73743 0.40106 0.0
C161 C 0.56541 0.75096 0.36689 0.0
C162 C 0.60018 0.70322 0.37052 0.0
O163 O 0.60015 0.70691 0.3553 0.0
O164 O 0.58771 0.70511 0.3789 0.0
O165 O 0.37203 0.10037 0.00932 0.0
Cd166 Cd 0.34707 0.08368 0.01012 0.0
O167 O 0.36223 0.12272 0.01798 0.0
Cd168 Cd 0.33821 0.11208 0.01436 0.0
O169 O 0.31888 0.10609 0.99712 0.0
C170 C 0.32309 0.10158 0.98289 0.0
O171 O 0.33812 0.10025 0.98012 0.0
C172 C 0.37404 0.11516 0.01378 0.0
C173 C 0.34965 0.05696 0.02994 0.0
O174 O 0.35305 0.0564 0.01462 0.0
O175 O 0.34489 0.07013 0.03586 0.0
O176 O 0.13963 0.6557 0.26317 0.0
Cd177 Cd 0.11841 0.66604 0.27939 0.0
O178 O 0.15466 0.65213 0.28457 0.0
Cd179 Cd 0.13916 0.66445 0.30108 0.0
O180 O 0.12895 0.684 0.31465 0.0
C181 C 0.12754 0.6971 0.30715 0.0
O182 O 0.13172 0.698 0.29165 0.0
C183 C 0.15217 0.65085 0.26917 0.0
C184 C 0.09033 0.64726 0.27371 0.0
O185 O 0.09396 0.65987 0.26525 0.0
O186 O 0.09992 0.64364 0.28494 0.0
O187 O 0.38333 0.5481 0.69149 0.0
Cd188 Cd 0.37755 0.52694 0.71157 0.0
O189 O 0.39942 0.56285 0.70792 0.0
Cd190 Cd 0.39288 0.5483 0.72925 0.0
O191 O 0.37804 0.54458 0.75091 0.0
C192 C 0.36877 0.55562 0.75341 0.0
O193 O 0.36908 0.56769 0.74316 0.0
C194 C 0.3929 0.56047 0.69393 0.0
C195 C 0.39872 0.50304 0.70937 0.0
O196 O 0.38603 0.50202 0.70081 0.0
O197 O 0.40138 0.51538 0.71897 0.0
O198 O 0.57995 0.93216 0.37088 0.0
Cd199 Cd 0.58379 0.9613 0.36711 0.0
O200 O 0.5654 0.93141 0.34873 0.0
Cd201 Cd 0.55138 0.92143 0.32785 0.0
O202 O 0.5356 0.91674 0.30684 0.0
C203 C 0.52262 0.92329 0.30686 0.0
O204 O 0.51914 0.93232 0.31958 0.0
C205 C 0.5715 0.92396 0.36036 0.0
C206 C 0.6063 0.96828 0.34291 0.0
O207 O 0.61019 0.96781 0.3581 0.0
O208 O 0.5917 0.96561 0.33917 0.0
O209 O 0.22063 0.09465 0.8312 0.0
Cd210 Cd 0.20886 0.09303 0.80371 0.0
O211 O 0.24343 0.08839 0.82134 0.0
Cd212 Cd 0.23445 0.08154 0.79688 0.0
O213 O 0.22853 0.06326 0.77779 0.0
C214 C 0.2395 0.05465 0.77331 0.0
O215 O 0.25365 0.05795 0.77954 0.0
C216 C 0.2351 0.09257 0.83342 0.0
C217 C 0.18296 0.1113 0.80075 0.0
O218 O 0.18113 0.09613 0.80355 0.0
O219 O 0.19703 0.11784 0.79949 0.0
O220 O 0.84808 0.45395 0.01619 0.0
Cd221 Cd 0.82979 0.44622 0.03831 0.0
O222 O 0.83745 0.43532 0.9991 0.0
Cd223 Cd 0.82136 0.42339 0.01672 0.0
O224 O 0.81103 0.40084 0.02694 0.0
C225 C 0.80155 0.39193 0.01798 0.0
O226 O 0.79748 0.39724 0.00359 0.0
C227 C 0.84751 0.44717 0.00204 0.0
C228 C 0.83963 0.46077 0.06815 0.0
O229 O 0.84377 0.44677 0.06392 0.0
O230 O 0.83078 0.46784 0.0583 0.0
O231 O 0.88482 0.19246 0.60829 0.0
Cd232 Cd 0.86998 0.19744 0.58348 0.0
O233 O 0.86412 0.18993 0.62441 0.0
Cd234 Cd 0.84885 0.19986 0.60622 0.0
O235 O 0.83645 0.21988 0.59687 0.0
C236 C 0.82471 0.22432 0.60491 0.0
O237 O 0.81987 0.21602 0.61778 0.0
C238 C 0.87882 0.18921 0.62225 0.0
C239 C 0.88196 0.18013 0.55726 0.0
O240 O 0.88713 0.19478 0.56042 0.0
O241 O 0.87094 0.17378 0.56632 0.0
O242 O 0.79725 0.39773 0.60172 0.0
Cd243 Cd 0.79577 0.42618 0.6094 0.0
O244 O 0.77324 0.39305 0.61084 0.0
Cd245 Cd 0.75094 0.3794 0.61651 0.0
O246 O 0.72687 0.37267 0.62443 0.0
C247 C 0.72405 0.37107 0.63967 0.0
O248 O 0.73584 0.37287 0.65014 0.0
C249 C 0.78557 0.38774 0.60467 0.0
C250 C 0.78671 0.44534 0.58383 0.0
O251 O 0.80125 0.44325 0.5864 0.0
O252 O 0.77644 0.43817 0.59323 0.0
O253 O 0.80396 0.21534 0.03468 0.0
Cd254 Cd 0.80804 0.18677 0.0305 0.0
O255 O 0.7808 0.21119 0.023 0.0
Cd256 Cd 0.75776 0.21747 0.0144 0.0
O257 O 0.73408 0.21959 0.00481 0.0
C258 C 0.72865 0.20913 0.99425 0.0
O259 O 0.73752 0.19769 0.98946 0.0
C260 C 0.79137 0.22087 0.02966 0.0
C261 C 0.79983 0.16803 0.05767 0.0
O262 O 0.81366 0.17513 0.05629 0.0
O263 O 0.78981 0.16992 0.04623 0.0
H264 H 0.99749 0.40402 0.82319 0.0
H265 H 0.00271 0.37689 0.81367 0.0
H266 H 0.03789 0.37468 0.85152 0.0
H267 H 0.03245 0.40167 0.86143 0.0
H268 H 0.02882 0.36242 0.80266 0.0
H269 H 0.00736 0.33611 0.86158 0.0
H270 H 0.00488 0.35675 0.85632 0.0
H271 H 0.02359 0.35117 0.86359 0.0
C272 C 0.00646 0.39785 0.82939 0.0
C273 C 0.01438 0.40491 0.84323 0.0
C274 C 0.00945 0.38235 0.82391 0.0
C275 C 0.02044 0.37364 0.83211 0.0
C276 C 0.02908 0.38104 0.84528 0.0
H277 H 0.04231 0.27746 0.79458 0.0
H278 H 0.0455 0.3058 0.8039 0.0
C279 C 0.026 0.39649 0.85087 0.0
C280 C 0.02209 0.3565 0.82743 0.0
H281 H 0.01613 0.31808 0.84162 0.0
C282 C 0.02617 0.35271 0.81119 0.0
C283 C 0.01844 0.34386 0.83857 0.0
C284 C 0.01319 0.3471 0.85594 0.0
C285 C 0.02641 0.33659 0.80568 0.0
C286 C 0.02276 0.32397 0.81683 0.0
C287 C 0.01904 0.32779 0.83315 0.0
C288 C 0.02127 0.30674 0.81152 0.0
C289 C 0.02989 0.3332 0.78783 0.0
C290 C 0.00673 0.29776 0.81316 0.0
C291 C 0.00492 0.2816 0.80805 0.0
C292 C 0.01761 0.27402 0.80116 0.0
C293 C 0.03227 0.28296 0.79976 0.0
C294 C 0.0341 0.29917 0.80497 0.0
H295 H 0.02918 0.34409 0.78022 0.0
H296 H 0.04198 0.32923 0.78673 0.0
H297 H 0.02156 0.32339 0.78277 0.0
H298 H 0.99669 0.30334 0.81823 0.0
H299 H 0.99346 0.27511 0.80933 0.0
H300 H 0.80037 0.59307 0.40143 0.0
H301 H 0.82022 0.58691 0.38112 0.0
H302 H 0.79271 0.54296 0.36719 0.0
H303 H 0.77279 0.54891 0.38758 0.0
H304 H 0.82552 0.53955 0.37145 0.0
H305 H 0.81433 0.59054 0.33101 0.0
H306 H 0.81812 0.59628 0.35212 0.0
H307 H 0.80076 0.58351 0.34682 0.0
C308 C 0.79853 0.58206 0.39409 0.0
C309 C 0.78493 0.57154 0.39606 0.0
C310 C 0.80986 0.57861 0.38243 0.0
C311 C 0.80777 0.56463 0.37248 0.0
C312 C 0.79445 0.55387 0.37469 0.0
H313 H 0.86693 0.52585 0.2956 0.0
H314 H 0.84555 0.52958 0.31508 0.0
C315 C 0.78309 0.55731 0.38634 0.0
C316 C 0.81952 0.56128 0.35976 0.0
H317 H 0.83693 0.5765 0.32503 0.0
C318 C 0.82796 0.54753 0.36121 0.0
C319 C 0.82259 0.57172 0.34642 0.0
C320 C 0.81339 0.58627 0.34386 0.0
C321 C 0.83981 0.54424 0.34996 0.0
C322 C 0.84306 0.55484 0.33677 0.0
C323 C 0.83442 0.56842 0.33517 0.0
C324 C 0.85582 0.55246 0.32485 0.0
C325 C 0.84911 0.52976 0.35257 0.0
C326 C 0.86844 0.56426 0.32363 0.0
C327 C 0.88057 0.56223 0.31247 0.0
C328 C 0.8803 0.54837 0.30226 0.0
C329 C 0.86752 0.53663 0.30335 0.0
C330 C 0.85536 0.53869 0.31454 0.0
H331 H 0.84757 0.52501 0.36519 0.0
H332 H 0.84501 0.51999 0.34373 0.0
H333 H 0.86184 0.53285 0.35041 0.0
H334 H 0.86898 0.57501 0.33143 0.0
H335 H 0.89021 0.57153 0.31193 0.0
H336 H 0.55108 0.3311 0.77195 0.0
H337 H 0.55323 0.31389 0.79571 0.0
H338 H 0.51643 0.28041 0.77588 0.0
H339 H 0.51393 0.29774 0.75222 0.0
H340 H 0.51121 0.28813 0.80756 0.0
H341 H 0.57247 0.27128 0.80065 0.0
H342 H 0.5711 0.29273 0.80066 0.0
H343 H 0.56205 0.28033 0.78434 0.0
C344 C 0.54356 0.31998 0.77252 0.0
C345 C 0.53232 0.3158 0.76018 0.0
C346 C 0.54489 0.3101 0.78608 0.0
C347 C 0.53516 0.29574 0.78746 0.0
C348 C 0.52411 0.2914 0.77502 0.0
H349 H 0.54427 0.22347 0.86251 0.0
H350 H 0.54409 0.23807 0.83669 0.0
C351 C 0.5227 0.30132 0.76151 0.0
C352 C 0.53573 0.28586 0.8024 0.0
H353 H 0.56037 0.2662 0.82676 0.0
C354 C 0.52193 0.28323 0.81169 0.0
C355 C 0.54968 0.27931 0.80767 0.0
C356 C 0.56462 0.2809 0.79772 0.0
C357 C 0.52178 0.27454 0.8263 0.0
C358 C 0.53591 0.26867 0.83199 0.0
C359 C 0.54961 0.27092 0.82249 0.0
C360 C 0.53664 0.2601 0.84774 0.0
C361 C 0.50644 0.2716 0.83541 0.0
C362 C 0.53286 0.26778 0.86255 0.0
C363 C 0.53287 0.25946 0.87731 0.0
C364 C 0.53682 0.24333 0.87756 0.0
C365 C 0.54112 0.23585 0.86276 0.0
C366 C 0.54103 0.24417 0.84799 0.0
H367 H 0.49615 0.27277 0.82724 0.0
H368 H 0.50536 0.25939 0.84083 0.0
H369 H 0.50596 0.28069 0.84552 0.0
H370 H 0.52981 0.28019 0.86269 0.0
H371 H 0.52964 0.26563 0.88849 0.0
H372 H 0.90806 0.08543 0.33375 0.0
H373 H 0.89185 0.07663 0.31001 0.0
H374 H 0.89907 0.02694 0.32003 0.0
H375 H 0.91507 0.03561 0.34409 0.0
H376 H 0.89621 0.05799 0.2815 0.0
H377 H 0.85132 0.02818 0.32293 0.0
H378 H 0.86746 0.04161 0.33056 0.0
H379 H 0.87069 0.02125 0.32437 0.0
C380 C 0.90638 0.07263 0.33082 0.0
C381 C 0.91264 0.0612 0.34098 0.0
C382 C 0.89714 0.06763 0.3172 0.0
C383 C 0.89402 0.05113 0.31346 0.0
C384 C 0.90108 0.03972 0.32292 0.0
H385 H 0.81851 0.00936 0.24927 0.0
H386 H 0.84316 0.01194 0.26488 0.0
C387 C 0.91027 0.0447 0.33662 0.0
C388 C 0.88239 0.046 0.30046 0.0
H389 H 0.84546 0.02769 0.2948 0.0
C390 C 0.88518 0.05122 0.28434 0.0
C391 C 0.868 0.03718 0.30423 0.0
C392 C 0.86406 0.03181 0.32146 0.0
C393 C 0.8738 0.0481 0.27194 0.0
C394 C 0.85922 0.03976 0.27586 0.0
C395 C 0.85669 0.03403 0.29182 0.0
C396 C 0.84583 0.03804 0.26416 0.0
C397 C 0.87742 0.05389 0.25481 0.0
C398 C 0.83929 0.05186 0.25838 0.0
C399 C 0.8252 0.05044 0.24948 0.0
C400 C 0.81731 0.03517 0.24632 0.0
C401 C 0.82426 0.0213 0.25151 0.0
C402 C 0.83835 0.02275 0.26042 0.0
H403 H 0.89031 0.05524 0.25257 0.0
H404 H 0.8718 0.04546 0.24539 0.0
H405 H 0.87281 0.06591 0.25329 0.0
H406 H 0.84466 0.0638 0.26143 0.0
H407 H 0.82018 0.06136 0.24569 0.0
H408 H 0.32611 0.70625 0.11508 0.0
H409 H 0.34125 0.73247 0.11386 0.0
H410 H 0.29909 0.75516 0.10166 0.0
H411 H 0.28377 0.72904 0.10297 0.0
H412 H 0.34473 0.75626 0.08818 0.0
H413 H 0.31573 0.77868 0.14444 0.0
H414 H 0.31466 0.75755 0.13859 0.0
H415 H 0.30282 0.77108 0.1281 0.0
C416 C 0.32006 0.71677 0.11197 0.0
C417 C 0.30369 0.71556 0.10929 0.0
C418 C 0.32874 0.73174 0.11125 0.0
C419 C 0.32123 0.74575 0.10792 0.0
C420 C 0.30504 0.7445 0.10451 0.0
H421 H 0.35817 0.84659 0.1196 0.0
H422 H 0.34126 0.82233 0.11209 0.0
C423 C 0.29633 0.72954 0.1052 0.0
C424 C 0.33023 0.76173 0.10885 0.0
H425 H 0.33461 0.79656 0.13189 0.0
C426 C 0.34249 0.76514 0.09766 0.0
C427 C 0.32721 0.77326 0.12122 0.0
C428 C 0.31448 0.76999 0.13388 0.0
C429 C 0.35191 0.77979 0.09857 0.0
C430 C 0.34917 0.79114 0.11123 0.0
C431 C 0.33666 0.78787 0.12217 0.0
C432 C 0.35971 0.806 0.1141 0.0
C433 C 0.36466 0.783 0.08595 0.0
C434 C 0.37569 0.80487 0.11767 0.0
C435 C 0.38537 0.81867 0.12191 0.0
C436 C 0.37923 0.83389 0.12285 0.0
C437 C 0.36327 0.83505 0.11897 0.0
C438 C 0.35359 0.82121 0.11468 0.0
H439 H 0.36201 0.77592 0.07443 0.0
H440 H 0.36623 0.79602 0.08298 0.0
H441 H 0.37595 0.77931 0.0909 0.0
H442 H 0.38058 0.79322 0.1177 0.0
H443 H 0.39758 0.81733 0.1249 0.0
H444 H 0.33065 0.7717 0.59135 0.0
H445 H 0.30998 0.78997 0.59673 0.0
H446 H 0.33247 0.80517 0.64255 0.0
H447 H 0.35324 0.7872 0.63719 0.0
H448 H 0.28989 0.78764 0.62283 0.0
H449 H 0.32238 0.84804 0.62376 0.0
H450 H 0.33054 0.83037 0.61505 0.0
H451 H 0.33118 0.83415 0.6369 0.0
C452 C 0.33135 0.77915 0.60243 0.0
C453 C 0.34358 0.77796 0.61386 0.0
C454 C 0.31953 0.78957 0.60548 0.0
C455 C 0.31979 0.79909 0.61993 0.0
C456 C 0.33221 0.79824 0.63113 0.0
H457 H 0.25839 0.85027 0.6802 0.0
H458 H 0.28006 0.83774 0.6666 0.0
C459 C 0.34403 0.78785 0.6281 0.0
C460 C 0.30636 0.80868 0.62415 0.0
H461 H 0.29707 0.84614 0.63701 0.0
C462 C 0.29139 0.8005 0.62565 0.0
C463 C 0.30836 0.82543 0.62785 0.0
C464 C 0.32396 0.83505 0.62565 0.0
C465 C 0.27852 0.80844 0.63151 0.0
C466 C 0.28066 0.82506 0.63576 0.0
C467 C 0.2955 0.83338 0.63377 0.0
C468 C 0.26789 0.83371 0.64337 0.0
C469 C 0.26294 0.79881 0.63386 0.0
C470 C 0.25397 0.83581 0.63471 0.0
C471 C 0.24154 0.84293 0.64247 0.0
C472 C 0.24291 0.84819 0.65897 0.0
C473 C 0.25701 0.84636 0.66747 0.0
C474 C 0.26941 0.83928 0.6597 0.0
H475 H 0.26405 0.78558 0.63298 0.0
H476 H 0.25781 0.80169 0.646 0.0
H477 H 0.25458 0.80201 0.62421 0.0
H478 H 0.2526 0.83165 0.62206 0.0
H479 H 0.23068 0.84369 0.63576 0.0
H480 H 0.11228 0.83808 0.37218 0.0
H481 H 0.11166 0.81449 0.35361 0.0
H482 H 0.10242 0.78308 0.39466 0.0
H483 H 0.10274 0.80651 0.41322 0.0
H484 H 0.13202 0.79074 0.35528 0.0
H485 H 0.07076 0.76381 0.36105 0.0
H486 H 0.0767 0.78424 0.36778 0.0
H487 H 0.08038 0.76747 0.38054 0.0
C488 C 0.10984 0.82616 0.37721 0.0
C489 C 0.10759 0.82417 0.39419 0.0
C490 C 0.10949 0.8127 0.36659 0.0
C491 C 0.1068 0.79704 0.37272 0.0
C492 C 0.10415 0.79505 0.38959 0.0
H493 H 0.11949 0.69992 0.33961 0.0
H494 H 0.1134 0.7245 0.3546 0.0
C495 C 0.10446 0.80848 0.40021 0.0
C496 C 0.10823 0.78274 0.3618 0.0
H497 H 0.08937 0.74676 0.34926 0.0
C498 C 0.12262 0.78123 0.35378 0.0
C499 C 0.09598 0.7703 0.35994 0.0
C500 C 0.08003 0.77158 0.36766 0.0
C501 C 0.12528 0.76739 0.34437 0.0
C502 C 0.11313 0.75483 0.34276 0.0
C503 C 0.09865 0.75641 0.35056 0.0
C504 C 0.11549 0.73978 0.33337 0.0
C505 C 0.14125 0.76607 0.33671 0.0
C506 C 0.11827 0.7402 0.3164 0.0
C507 C 0.12177 0.72622 0.30781 0.0
C508 C 0.1225 0.71154 0.31603 0.0
C509 C 0.11909 0.71104 0.33292 0.0
C510 C 0.11559 0.72505 0.34151 0.0
H511 H 0.15026 0.77512 0.342 0.0
H512 H 0.14528 0.75381 0.33839 0.0
H513 H 0.14046 0.76816 0.32332 0.0
H514 H 0.11801 0.75142 0.30986 0.0
H515 H 0.12422 0.727 0.29478 0.0
H516 H 0.365 0.5327 0.7773 0.0
H517 H 0.34596 0.53172 0.79993 0.0
H518 H 0.32856 0.57614 0.78374 0.0
H519 H 0.34735 0.57721 0.76115 0.0
H520 H 0.34166 0.55568 0.82561 0.0
H521 H 0.28895 0.54402 0.78574 0.0
H522 H 0.30861 0.54104 0.77868 0.0
H523 H 0.30189 0.56102 0.77975 0.0
C524 C 0.35711 0.54225 0.77856 0.0
C525 C 0.35762 0.55498 0.76735 0.0
C526 C 0.34628 0.54168 0.7915 0.0
C527 C 0.33574 0.55374 0.79333 0.0
C528 C 0.33643 0.56658 0.78236 0.0
H529 H 0.25973 0.57812 0.85558 0.0
H530 H 0.28115 0.57716 0.83579 0.0
C531 C 0.34723 0.56718 0.76948 0.0
C532 C 0.32394 0.55304 0.80667 0.0
H533 H 0.28438 0.55152 0.81355 0.0
C534 C 0.32912 0.55461 0.82304 0.0
C535 C 0.30762 0.55162 0.80322 0.0
C536 C 0.30139 0.54918 0.78591 0.0
C537 C 0.31837 0.55542 0.83605 0.0
C538 C 0.30205 0.55438 0.83253 0.0
C539 C 0.2969 0.55243 0.81619 0.0
C540 C 0.29003 0.55558 0.84553 0.0
C541 C 0.32454 0.55791 0.85336 0.0
C542 C 0.28802 0.54383 0.85767 0.0
C543 C 0.27579 0.54436 0.86906 0.0
C544 C 0.26528 0.55658 0.86841 0.0
C545 C 0.26758 0.56853 0.85644 0.0
C546 C 0.27981 0.568 0.8451 0.0
H547 H 0.33724 0.56214 0.8536 0.0
H548 H 0.31786 0.56684 0.86019 0.0
H549 H 0.32306 0.54629 0.8599 0.0
H550 H 0.29562 0.53398 0.85804 0.0
H551 H 0.27431 0.53493 0.87807 0.0
H552 H 0.54676 0.90325 0.34934 0.0
H553 H 0.54419 0.87374 0.35083 0.0
H554 H 0.58855 0.87495 0.37652 0.0
H555 H 0.59142 0.9044 0.37468 0.0
H556 H 0.56592 0.85162 0.33835 0.0
H557 H 0.55741 0.84736 0.40578 0.0
H558 H 0.55474 0.86558 0.39468 0.0
H559 H 0.5742 0.86032 0.39971 0.0
C560 C 0.55613 0.89724 0.35496 0.0
C561 C 0.56948 0.90615 0.36152 0.0
C562 C 0.55454 0.88039 0.35602 0.0
C563 C 0.56613 0.87221 0.36388 0.0
C564 C 0.57937 0.88107 0.3706 0.0
H565 H 0.58873 0.77305 0.35744 0.0
H566 H 0.5881 0.80244 0.35661 0.0
C567 C 0.581 0.89788 0.36949 0.0
C568 C 0.56467 0.85436 0.36465 0.0
H569 H 0.56238 0.82305 0.39138 0.0
C570 C 0.56504 0.84535 0.34992 0.0
C571 C 0.56336 0.84625 0.37977 0.0
C572 C 0.56226 0.85533 0.3959 0.0
C573 C 0.56461 0.82842 0.34994 0.0
C574 C 0.56392 0.82035 0.3651 0.0
C575 C 0.56306 0.82931 0.3798 0.0
C576 C 0.56435 0.8026 0.36592 0.0
C577 C 0.56489 0.81928 0.33376 0.0
C578 C 0.5513 0.79302 0.37168 0.0
C579 C 0.55162 0.77621 0.37215 0.0
C580 C 0.5651 0.76876 0.36711 0.0
C581 C 0.57819 0.77844 0.36145 0.0
C582 C 0.57784 0.79521 0.36092 0.0
H583 H 0.5617 0.82682 0.32332 0.0
H584 H 0.57692 0.81551 0.33158 0.0
H585 H 0.55666 0.80823 0.33395 0.0
H586 H 0.54075 0.79852 0.37549 0.0
H587 H 0.54112 0.76909 0.37591 0.0
H588 H 0.29164 0.10673 0.9831 0.0
H589 H 0.27327 0.10405 0.95978 0.0
H590 H 0.31026 0.08839 0.92866 0.0
H591 H 0.32856 0.09086 0.95176 0.0
H592 H 0.27645 0.12053 0.92997 0.0
H593 H 0.27391 0.05436 0.91916 0.0
H594 H 0.28118 0.06388 0.93812 0.0
H595 H 0.29371 0.06342 0.92037 0.0
C596 C 0.29579 0.10251 0.97133 0.0
C597 C 0.31156 0.09898 0.96929 0.0
C598 C 0.2853 0.10103 0.95804 0.0
C599 C 0.29036 0.09581 0.94257 0.0
C600 C 0.30602 0.09211 0.94057 0.0
H601 H 0.26544 0.08843 0.84203 0.0
H602 H 0.27697 0.08964 0.8695 0.0
C603 C 0.3165 0.09363 0.95379 0.0
C604 C 0.27967 0.0951 0.92816 0.0
H605 H 0.26584 0.07017 0.89668 0.0
C606 C 0.27386 0.10948 0.92283 0.0
C607 C 0.27629 0.08064 0.91892 0.0
C608 C 0.28147 0.06467 0.92452 0.0
C609 C 0.26553 0.10996 0.90796 0.0
C610 C 0.26283 0.09565 0.89835 0.0
C611 C 0.26804 0.08115 0.90405 0.0
C612 C 0.25566 0.09564 0.88178 0.0
C613 C 0.26035 0.12589 0.90223 0.0
C614 C 0.23984 0.09869 0.8796 0.0
C615 C 0.23316 0.09802 0.86384 0.0
C616 C 0.24221 0.09424 0.85005 0.0
C617 C 0.25811 0.09139 0.85235 0.0
C618 C 0.26474 0.09203 0.86805 0.0
H619 H 0.2655 0.13624 0.90983 0.0
H620 H 0.26375 0.12785 0.88921 0.0
H621 H 0.24734 0.1257 0.90298 0.0
H622 H 0.2326 0.1013 0.89009 0.0
H623 H 0.22087 0.10021 0.86251 0.0
H624 H 0.77631 0.23987 0.00861 0.0
H625 H 0.77537 0.26922 0.01015 0.0
H626 H 0.80193 0.27089 0.05537 0.0
H627 H 0.80286 0.24149 0.05391 0.0
H628 H 0.76439 0.29069 0.03429 0.0
H629 H 0.82903 0.30028 0.02499 0.0
H630 H 0.81828 0.28089 0.02165 0.0
H631 H 0.82322 0.28795 0.04217 0.0
C632 C 0.78152 0.24641 0.01913 0.0
C633 C 0.78946 0.23836 0.03127 0.0
C634 C 0.78111 0.26321 0.01992 0.0
C635 C 0.78873 0.27223 0.03277 0.0
C636 C 0.79619 0.26417 0.04521 0.0
H637 H 0.81045 0.37604 0.04524 0.0
H638 H 0.8056 0.34722 0.05077 0.0
C639 C 0.79667 0.24739 0.04439 0.0
C640 C 0.78956 0.29012 0.03267 0.0
H641 H 0.81536 0.32351 0.02958 0.0
C642 C 0.77552 0.2979 0.03331 0.0
C643 C 0.80411 0.29946 0.03136 0.0
C644 C 0.81952 0.29176 0.02985 0.0
C645 C 0.77567 0.31481 0.03273 0.0
C646 C 0.79021 0.32412 0.03125 0.0
C647 C 0.80424 0.31634 0.03084 0.0
C648 C 0.79124 0.34186 0.02912 0.0
C649 C 0.76028 0.32258 0.03381 0.0
C650 C 0.78459 0.34843 0.01524 0.0
C651 C 0.78734 0.36488 0.01202 0.0
C652 C 0.7969 0.37505 0.02259 0.0
C653 C 0.80304 0.36855 0.03684 0.0
C654 C 0.80029 0.35208 0.04003 0.0
H655 H 0.75097 0.31449 0.03963 0.0
H656 H 0.76166 0.33416 0.04092 0.0
H657 H 0.75626 0.32517 0.02123 0.0
H658 H 0.77783 0.34071 0.00648 0.0
H659 H 0.78244 0.36948 0.00093 0.0
H660 H 0.77166 0.36217 0.6215 0.0
H661 H 0.77613 0.33359 0.61781 0.0
H662 H 0.80739 0.34536 0.57743 0.0
H663 H 0.80294 0.37398 0.58103 0.0
H664 H 0.77253 0.31136 0.59078 0.0
H665 H 0.83503 0.3233 0.61003 0.0
H666 H 0.82073 0.33801 0.61282 0.0
H667 H 0.82934 0.33495 0.59296 0.0
C668 C 0.77909 0.35864 0.61152 0.0
C669 C 0.7868 0.3703 0.60143 0.0
C670 C 0.78175 0.34231 0.60952 0.0
C671 C 0.79224 0.33739 0.59749 0.0
C672 C 0.79945 0.34893 0.58697 0.0
H673 H 0.83381 0.24596 0.58107 0.0
H674 H 0.82458 0.2728 0.57724 0.0
C675 C 0.79686 0.36525 0.58901 0.0
C676 C 0.79632 0.32037 0.59658 0.0
H677 H 0.82686 0.29667 0.60154 0.0
C678 C 0.78441 0.30812 0.59309 0.0
C679 C 0.81182 0.3162 0.59964 0.0
C680 C 0.82496 0.32877 0.60422 0.0
C681 C 0.78763 0.29177 0.59248 0.0
C682 C 0.80311 0.28762 0.59567 0.0
C683 C 0.81503 0.2999 0.59897 0.0
C684 C 0.80717 0.27062 0.59654 0.0
C685 C 0.77449 0.27911 0.58829 0.0
C686 C 0.80031 0.26042 0.60854 0.0
C687 C 0.80556 0.24508 0.61078 0.0
C688 C 0.81785 0.23969 0.60113 0.0
C689 C 0.82432 0.24972 0.58872 0.0
C690 C 0.81907 0.26507 0.58651 0.0
H691 H 0.76476 0.28435 0.58163 0.0
H692 H 0.77883 0.26919 0.58064 0.0
H693 H 0.7696 0.27386 0.59981 0.0
H694 H 0.79134 0.26456 0.61665 0.0
H695 H 0.80033 0.23768 0.62047 0.0
H696 H 0.15265 0.10032 0.79359 0.0
H697 H 0.13016 0.11637 0.7895 0.0
H698 H 0.15962 0.15997 0.80035 0.0
H699 H 0.1823 0.14404 0.80365 0.0
H700 H 0.11534 0.13482 0.80908 0.0
H701 H 0.14005 0.17276 0.75878 0.0
H702 H 0.14947 0.15551 0.76595 0.0
H703 H 0.15231 0.17469 0.77672 0.0
C704 C 0.15434 0.11334 0.79502 0.0
C705 C 0.16925 0.12095 0.7988 0.0
C706 C 0.14147 0.12251 0.79268 0.0
C707 C 0.14323 0.13943 0.79426 0.0
C708 C 0.15805 0.147 0.79851 0.0
H709 H 0.06416 0.19815 0.81004 0.0
H710 H 0.08698 0.18237 0.81306 0.0
C711 C 0.17098 0.13786 0.80053 0.0
C712 C 0.12945 0.14908 0.79191 0.0
H713 H 0.11689 0.18135 0.77166 0.0
C714 C 0.11566 0.14492 0.8008 0.0
C715 C 0.12972 0.16209 0.78089 0.0
C716 C 0.14362 0.16641 0.76992 0.0
C717 C 0.10222 0.15352 0.79916 0.0
C718 C 0.10279 0.1671 0.78883 0.0
C719 C 0.11651 0.1711 0.77976 0.0
C720 C 0.08924 0.17715 0.78703 0.0
C721 C 0.08747 0.14765 0.8082 0.0
C722 C 0.08334 0.18016 0.77135 0.0
C723 C 0.07057 0.18957 0.76958 0.0
C724 C 0.06333 0.19599 0.78346 0.0
C725 C 0.06937 0.19317 0.79913 0.0
C726 C 0.08233 0.18403 0.80088 0.0
H727 H 0.08739 0.13459 0.81096 0.0
H728 H 0.08697 0.15436 0.82008 0.0
H729 H 0.07674 0.14959 0.80099 0.0
H730 H 0.08851 0.17507 0.76047 0.0
H731 H 0.06616 0.19153 0.75735 0.0
H732 H 0.08066 0.61848 0.28763 0.0
H733 H 0.0562 0.60174 0.28236 0.0
H734 H 0.04188 0.63651 0.24779 0.0
H735 H 0.06646 0.65315 0.2527 0.0
H736 H 0.02618 0.60945 0.28743 0.0
H737 H 0.03464 0.59466 0.22147 0.0
H738 H 0.05046 0.60329 0.23444 0.0
H739 H 0.03639 0.61596 0.22603 0.0
C740 C 0.07235 0.62252 0.27883 0.0
C741 C 0.07553 0.63712 0.27054 0.0
C742 C 0.05839 0.61293 0.27582 0.0
C743 C 0.04735 0.61773 0.26447 0.0
C744 C 0.05041 0.63237 0.25628 0.0
H745 H 0.95136 0.58471 0.23985 0.0
H746 H 0.97761 0.5989 0.24163 0.0
C747 C 0.06442 0.64193 0.2592 0.0
C748 C 0.03229 0.60781 0.26182 0.0
H749 H 0.00903 0.58806 0.2324 0.0
C750 C 0.02249 0.60466 0.27542 0.0
C751 C 0.0275 0.60159 0.24613 0.0
C752 C 0.03786 0.6039 0.23121 0.0
C753 C 0.0079 0.59574 0.27371 0.0
C754 C 0.00305 0.58968 0.25801 0.0
C755 C 0.01282 0.59275 0.24441 0.0
C756 C 0.98771 0.58034 0.25556 0.0
C757 C 0.99758 0.59315 0.28864 0.0
C758 C 0.98489 0.56502 0.2624 0.0
C759 C 0.96994 0.55685 0.26138 0.0
C760 C 0.95753 0.5639 0.25351 0.0
C761 C 0.96062 0.57897 0.24605 0.0
C762 C 0.9756 0.58709 0.24703 0.0
H763 H 0.00166 0.60117 0.29913 0.0
H764 H 0.98521 0.59534 0.28572 0.0
H765 H 0.99778 0.58043 0.29254 0.0
H766 H 0.99418 0.55955 0.26886 0.0
H767 H 0.968 0.54524 0.2672 0.0
H768 H 0.50254 0.40455 0.7345 0.0
H769 H 0.48543 0.42633 0.73007 0.0
H770 H 0.46231 0.39892 0.6902 0.0
H771 H 0.47931 0.37694 0.69461 0.0
H772 H 0.4801 0.44455 0.70123 0.0
H773 H 0.42624 0.40851 0.72214 0.0
H774 H 0.4458 0.40257 0.72606 0.0
H775 H 0.43717 0.39948 0.70601 0.0
C776 C 0.49389 0.40316 0.72472 0.0
C777 C 0.4922 0.38893 0.715 0.0
C778 C 0.48414 0.41564 0.72219 0.0
C779 C 0.47247 0.41411 0.70998 0.0
C780 C 0.47109 0.40019 0.69987 0.0
H781 H 0.39672 0.47587 0.68969 0.0
H782 H 0.41502 0.45461 0.68839 0.0
C783 C 0.48086 0.38769 0.70236 0.0
C784 C 0.46152 0.42696 0.7082 0.0
H785 H 0.42313 0.43492 0.71333 0.0
C786 C 0.46763 0.44246 0.7038 0.0
C787 C 0.44526 0.42414 0.71155 0.0
C788 C 0.43817 0.40783 0.71683 0.0
C789 C 0.4579 0.45527 0.70268 0.0
C790 C 0.4417 0.45255 0.7064 0.0
C791 C 0.43555 0.43696 0.71049 0.0
C792 C 0.43101 0.46579 0.70669 0.0
C793 C 0.46503 0.47156 0.69739 0.0
C794 C 0.43386 0.47906 0.71752 0.0
C795 C 0.42346 0.49123 0.71827 0.0
C796 C 0.40991 0.4903 0.70832 0.0
C797 C 0.40706 0.47697 0.69751 0.0
C798 C 0.4175 0.46481 0.69674 0.0
H799 H 0.4761 0.47049 0.69042 0.0
H800 H 0.4567 0.47773 0.68964 0.0
H801 H 0.46787 0.47926 0.70845 0.0
H802 H 0.44402 0.47987 0.7256 0.0
H803 H 0.42595 0.50128 0.7268 0.0
H804 H 0.71586 0.97342 0.23209 0.0
H805 H 0.69123 0.96754 0.247 0.0
H806 H 0.69636 0.01501 0.26975 0.0
H807 H 0.72074 0.02111 0.25467 0.0
H808 H 0.68867 0.9662 0.27982 0.0
H809 H 0.65042 0.01177 0.25705 0.0
H810 H 0.66828 0.00716 0.24668 0.0
H811 H 0.66906 0.02082 0.26416 0.0
C812 C 0.71159 0.98272 0.24003 0.0
C813 C 0.72029 0.99772 0.24222 0.0
C814 C 0.69752 0.97934 0.24855 0.0
C815 C 0.69185 0.99089 0.25935 0.0
C816 C 0.70028 0.00604 0.26119 0.0
H817 H 0.63784 0.97574 0.34722 0.0
H818 H 0.65784 0.98059 0.32605 0.0
C819 C 0.71431 0.00946 0.25263 0.0
C820 C 0.67803 0.98663 0.26991 0.0
H821 H 0.64298 0.99961 0.2828 0.0
C822 C 0.67859 0.97339 0.2803 0.0
C823 C 0.66477 0.99587 0.27042 0.0
C824 C 0.663 0.00959 0.25885 0.0
C825 C 0.66657 0.96952 0.29165 0.0
C826 C 0.65381 0.97939 0.29288 0.0
C827 C 0.65289 0.99221 0.28201 0.0
C828 C 0.64155 0.97681 0.30566 0.0
C829 C 0.66767 0.95492 0.30222 0.0
C830 C 0.62568 0.97361 0.30123 0.0
C831 C 0.61417 0.97097 0.31333 0.0
C832 C 0.61835 0.97155 0.33007 0.0
C833 C 0.63424 0.97508 0.33445 0.0
C834 C 0.6457 0.97775 0.32236 0.0
H835 H 0.67531 0.94613 0.29652 0.0
H836 H 0.67291 0.95882 0.31428 0.0
H837 H 0.65587 0.9487 0.30442 0.0
H838 H 0.62222 0.97294 0.28841 0.0
H839 H 0.60204 0.96832 0.30956 0.0
H840 H 0.0464 0.49391 0.86315 0.0
H841 H 0.07109 0.51082 0.86636 0.0
H842 H 0.07874 0.48971 0.91341 0.0
H843 H 0.05416 0.4726 0.91024 0.0
H844 H 0.0815 0.53352 0.89166 0.0
H845 H 0.11876 0.48158 0.88713 0.0
H846 H 0.09825 0.47995 0.88126 0.0
H847 H 0.10372 0.47999 0.90258 0.0
C848 C 0.0533 0.49289 0.87421 0.0
C849 C 0.04839 0.4818 0.88638 0.0
C850 C 0.06738 0.50259 0.87604 0.0
C851 C 0.07682 0.50133 0.89001 0.0
C852 C 0.07174 0.49065 0.9024 0.0
H853 H 0.17181 0.5428 0.91221 0.0
H854 H 0.14521 0.52965 0.91463 0.0
C855 C 0.05766 0.48093 0.90059 0.0
C856 C 0.0922 0.51089 0.89135 0.0
H857 H 0.13179 0.50726 0.89234 0.0
C858 C 0.09251 0.52781 0.89185 0.0
C859 C 0.10651 0.50336 0.89162 0.0
C860 C 0.10689 0.48523 0.89049 0.0
C861 C 0.10681 0.53745 0.89265 0.0
C862 C 0.12113 0.52992 0.89266 0.0
C863 C 0.12079 0.51299 0.89241 0.0
C864 C 0.13665 0.53927 0.89209 0.0
C865 C 0.10645 0.55558 0.89361 0.0
C866 C 0.14062 0.54912 0.87866 0.0
C867 C 0.15579 0.55666 0.87725 0.0
C868 C 0.16733 0.55437 0.88916 0.0
C869 C 0.1632 0.54481 0.90281 0.0
C870 C 0.14802 0.53729 0.90422 0.0
H871 H 0.09501 0.55917 0.8984 0.0
H872 H 0.11605 0.56114 0.9016 0.0
H873 H 0.10806 0.56054 0.88111 0.0
H874 H 0.13214 0.55054 0.86897 0.0
H875 H 0.15857 0.5639 0.86655 0.0
H876 H 0.60293 0.69159 0.40157 0.0
H877 H 0.62558 0.67948 0.41341 0.0
H878 H 0.65125 0.68748 0.36831 0.0
H879 H 0.62877 0.69963 0.3564 0.0
H880 H 0.63958 0.652 0.40056 0.0
H881 H 0.68244 0.70576 0.40405 0.0
H882 H 0.66151 0.70726 0.40187 0.0
H883 H 0.6732 0.70262 0.38428 0.0
C884 C 0.61346 0.69092 0.39423 0.0
C885 C 0.61406 0.69659 0.37804 0.0
C886 C 0.62637 0.68399 0.40101 0.0
C887 C 0.64014 0.68279 0.39181 0.0
C888 C 0.64083 0.68858 0.37573 0.0
H889 H 0.72688 0.63929 0.39227 0.0
H890 H 0.70401 0.6546 0.38801 0.0
C891 C 0.62793 0.69543 0.36891 0.0
C892 C 0.65351 0.67464 0.39856 0.0
H893 H 0.69296 0.68002 0.40628 0.0
C894 C 0.65121 0.65815 0.40207 0.0
C895 C 0.66864 0.68274 0.40052 0.0
C896 C 0.67161 0.70061 0.39764 0.0
C897 C 0.66385 0.6493 0.40666 0.0
C898 C 0.6791 0.65729 0.40807 0.0
C899 C 0.68126 0.67393 0.40515 0.0
C900 C 0.69315 0.64839 0.41128 0.0
C901 C 0.6609 0.63135 0.40915 0.0
C902 C 0.69475 0.63999 0.42592 0.0
C903 C 0.70783 0.63111 0.42839 0.0
C904 C 0.71956 0.6306 0.41628 0.0
C905 C 0.71806 0.63937 0.40183 0.0
C906 C 0.705 0.64817 0.39937 0.0
H907 H 0.64923 0.62655 0.40431 0.0
H908 H 0.67015 0.6247 0.40303 0.0
H909 H 0.66125 0.62886 0.42248 0.0
H910 H 0.68587 0.64025 0.43541 0.0
H911 H 0.7087 0.62458 0.4397 0.0
H912 H 0.49805 0.16761 0.94662 0.0
H913 H 0.47728 0.15449 0.96354 0.0
H914 H 0.47187 0.19964 0.98911 0.0
H915 H 0.4926 0.21295 0.97219 0.0
H916 H 0.47318 0.15269 0.99948 0.0
H917 H 0.4281 0.18596 0.9676 0.0
H918 H 0.44763 0.18452 0.95943 0.0
H919 H 0.4446 0.1979 0.97651 0.0
C920 C 0.49258 0.17474 0.95596 0.0
C921 C 0.49685 0.19137 0.95792 0.0
C922 C 0.48076 0.1672 0.96565 0.0
C923 C 0.47295 0.17615 0.97741 0.0
C924 C 0.47766 0.19258 0.97996 0.0
H925 H 0.38284 0.1465 0.02297 0.0
H926 H 0.40795 0.16178 0.01748 0.0
C927 C 0.48953 0.20014 0.9703 0.0
C928 C 0.45916 0.16849 0.98609 0.0
H929 H 0.41908 0.16723 0.98728 0.0
C930 C 0.46134 0.15594 0.99697 0.0
C931 C 0.44377 0.17282 0.98279 0.0
C932 C 0.44076 0.18596 0.97087 0.0
C933 C 0.44847 0.14744 0.00449 0.0
C934 C 0.43303 0.15137 0.0007 0.0
C935 C 0.43092 0.16426 0.99021 0.0
C936 C 0.4188 0.14157 0.00634 0.0
C937 C 0.45154 0.13434 0.01639 0.0
C938 C 0.41664 0.12507 0.00214 0.0
C939 C 0.40235 0.11628 0.00535 0.0
C940 C 0.38983 0.12388 0.0126 0.0
C941 C 0.39222 0.14027 0.01734 0.0
C942 C 0.40656 0.14903 0.01422 0.0
H943 H 0.46332 0.1366 0.02223 0.0
H944 H 0.44248 0.13336 0.02619 0.0
H945 H 0.45132 0.12259 0.00964 0.0
H946 H 0.42573 0.11913 0.99568 0.0
H947 H 0.40091 0.10371 0.00146 0.0
H948 H 0.01193 0.04956 0.39627 0.0
H949 H 0.02899 0.02753 0.39979 0.0
H950 H 0.98858 0.9953 0.41162 0.0
H951 H 0.97138 0.01716 0.40776 0.0
H952 H 0.0341 0.00938 0.42665 0.0
H953 H 0.00916 0.97007 0.37562 0.0
H954 H 0.00487 0.99091 0.37812 0.0
H955 H 0.99476 0.97554 0.39034 0.0
C956 C 0.00666 0.03778 0.39959 0.0
C957 C 0.99028 0.03508 0.40162 0.0
C958 C 0.01643 0.0252 0.4016 0.0
C959 C 0.01003 0.0097 0.40567 0.0
C960 C 0.99373 0.00706 0.40807 0.0
H961 H 0.05086 0.91958 0.42629 0.0
H962 H 0.03343 0.94145 0.42344 0.0
C963 C 0.98393 0.0196 0.40597 0.0
C964 C 0.02047 0.99639 0.40764 0.0
H965 H 0.02731 0.95865 0.39331 0.0
C966 C 0.03266 0.99832 0.41931 0.0
C967 C 0.01858 0.98197 0.39803 0.0
C968 C 0.00624 0.97951 0.38472 0.0
C969 C 0.04287 0.98612 0.4218 0.0
C970 C 0.04091 0.9717 0.41226 0.0
C971 C 0.02872 0.96973 0.40063 0.0
C972 C 0.05151 0.95856 0.41405 0.0
C973 C 0.05554 0.98862 0.43476 0.0
C974 C 0.06739 0.96093 0.40953 0.0
C975 C 0.07736 0.94846 0.41106 0.0
C976 C 0.07162 0.93339 0.41716 0.0
C977 C 0.05566 0.93105 0.4216 0.0
C978 C 0.04569 0.94351 0.41997 0.0
H979 H 0.0534 0.99877 0.44335 0.0
H980 H 0.05634 0.97748 0.44196 0.0
H981 H 0.06707 0.99144 0.42872 0.0
H982 H 0.07204 0.97241 0.40471 0.0
H983 H 0.08957 0.95065 0.4075 0.0
H984 H 0.7711 0.09922 0.19551 0.0
H985 H 0.77472 0.11607 0.17132 0.0
H986 H 0.77362 0.07335 0.14023 0.0
H987 H 0.77039 0.05638 0.16441 0.0
H988 H 0.798 0.09454 0.13293 0.0
H989 H 0.7435 0.12658 0.1365 0.0
H990 H 0.75482 0.12852 0.15513 0.0
H991 H 0.74635 0.10894 0.14844 0.0
C992 C 0.77148 0.0934 0.18351 0.0
C993 C 0.77044 0.07646 0.18188 0.0
C994 C 0.77344 0.10306 0.16968 0.0
C995 C 0.77417 0.09598 0.15393 0.0
C996 C 0.773 0.07907 0.15226 0.0
H997 H 0.77263 0.14895 0.06251 0.0
H998 H 0.76627 0.13106 0.08553 0.0
C999 C 0.77114 0.06939 0.16609 0.0
C1000 C 0.77708 0.10618 0.13932 0.0
H1001 H 0.76348 0.13752 0.11838 0.0
C1002 C 0.79039 0.10386 0.12968 0.0
C1003 C 0.76703 0.11819 0.13495 0.0
C1004 C 0.75204 0.12061 0.1442 0.0
C1005 C 0.79412 0.11346 0.11602 0.0
C1006 C 0.7845 0.12599 0.11213 0.0
C1007 C 0.77097 0.12805 0.12151 0.0
C1008 C 0.78827 0.13706 0.09837 0.0
C1009 C 0.80824 0.10994 0.10577 0.0
C1010 C 0.80263 0.14658 0.0981 0.0
C1011 C 0.80634 0.15672 0.08493 0.0
C1012 C 0.79567 0.15769 0.07186 0.0
C1013 C 0.78112 0.14845 0.07237 0.0
C1014 C 0.77746 0.13823 0.08551 0.0
H1015 H 0.81148 0.09736 0.1074 0.0
H1016 H 0.80601 0.11176 0.09252 0.0
H1017 H 0.81847 0.11825 0.10966 0.0
H1018 H 0.81098 0.14617 0.1081 0.0
H1019 H 0.81758 0.16379 0.08499 0.0
H1020 H 0.95548 0.19403 0.75905 0.0
H1021 H 0.93652 0.18488 0.73763 0.0
H1022 H 0.97237 0.19328 0.70077 0.0
H1023 H 0.99145 0.20227 0.72208 0.0
H1024 H 0.92843 0.20535 0.71333 0.0
H1025 H 0.95039 0.15007 0.68551 0.0
H1026 H 0.95675 0.15792 0.70549 0.0
H1027 H 0.96519 0.16665 0.68715 0.0
C1028 C 0.95944 0.19359 0.74643 0.0
C1029 C 0.97496 0.199 0.74226 0.0
C1030 C 0.94858 0.18834 0.73421 0.0
C1031 C 0.95307 0.18827 0.71763 0.0
C1032 C 0.96873 0.19292 0.71351 0.0
H1033 H 0.91096 0.19014 0.62278 0.0
H1034 H 0.92797 0.1877 0.64662 0.0
C1035 C 0.9796 0.19818 0.72571 0.0
C1036 C 0.941 0.18543 0.70455 0.0
H1037 H 0.93176 0.16342 0.66953 0.0
C1038 C 0.92898 0.196 0.7039 0.0
C1039 C 0.94185 0.17331 0.69223 0.0
C1040 C 0.95416 0.16124 0.69267 0.0
C1041 C 0.91817 0.19526 0.69086 0.0
C1042 C 0.9192 0.18337 0.67832 0.0
C1043 C 0.93098 0.1725 0.67918 0.0
C1044 C 0.90882 0.18282 0.66368 0.0
C1045 C 0.90622 0.20774 0.69024 0.0
C1046 C 0.89241 0.18036 0.66527 0.0
C1047 C 0.88263 0.18189 0.65168 0.0
C1048 C 0.8891 0.18574 0.63622 0.0
C1049 C 0.90557 0.18726 0.63451 0.0
C1050 C 0.91533 0.18583 0.64812 0.0
H1051 H 0.90928 0.21812 0.69877 0.0
H1052 H 0.90521 0.21241 0.67762 0.0
H1053 H 0.89453 0.2021 0.69386 0.0
H1054 H 0.88717 0.1777 0.67712 0.0
H1055 H 0.87 0.18046 0.65339 0.0
H1056 H 0.8956 0.50701 0.21013 0.0
H1057 H 0.887 0.49401 0.18407 0.0
H1058 H 0.86828 0.53817 0.16893 0.0
H1059 H 0.8771 0.55136 0.1948 0.0
H1060 H 0.8571 0.48905 0.17121 0.0
H1061 H 0.89529 0.52718 0.12982 0.0
H1062 H 0.89833 0.52709 0.15176 0.0
H1063 H 0.88335 0.53852 0.14317 0.0
C1064 C 0.88972 0.51399 0.20123 0.0
C1065 C 0.88711 0.53025 0.2045 0.0
C1066 C 0.88481 0.50653 0.18635 0.0
C1067 C 0.87723 0.5152 0.17445 0.0
C1068 C 0.87443 0.53137 0.17777 0.0
H1069 H 0.83438 0.49105 0.07959 0.0
H1070 H 0.84335 0.50394 0.1056 0.0
C1071 C 0.8794 0.53886 0.19261 0.0
C1072 C 0.87188 0.50717 0.15878 0.0
H1073 H 0.87539 0.50948 0.11707 0.0
C1074 C 0.86117 0.49345 0.15938 0.0
C1075 C 0.87721 0.51295 0.14335 0.0
C1076 C 0.88929 0.52715 0.14193 0.0
C1077 C 0.85541 0.48553 0.14495 0.0
C1078 C 0.86065 0.49139 0.12955 0.0
C1079 C 0.87137 0.50507 0.12893 0.0
C1080 C 0.85516 0.48345 0.11391 0.0
C1081 C 0.84352 0.47115 0.14627 0.0
C1082 C 0.85897 0.46772 0.10994 0.0
C1083 C 0.85391 0.46033 0.09508 0.0
C1084 C 0.84495 0.46856 0.08392 0.0
C1085 C 0.84122 0.48435 0.08793 0.0
C1086 C 0.84634 0.49175 0.10277 0.0
H1087 H 0.8381 0.47041 0.15867 0.0
H1088 H 0.83404 0.47167 0.13697 0.0
H1089 H 0.84946 0.45992 0.14394 0.0
H1090 H 0.86598 0.46121 0.11827 0.0
H1091 H 0.85704 0.44818 0.09234 0.0
H1092 H 0.57774 0.34086 0.68166 0.0
H1093 H 0.60393 0.34176 0.66924 0.0
H1094 H 0.61903 0.38279 0.70022 0.0
H1095 H 0.59287 0.38209 0.71262 0.0
H1096 H 0.62768 0.3861 0.66678 0.0
H1097 H 0.6439 0.32799 0.69223 0.0
H1098 H 0.62562 0.32696 0.68108 0.0
H1099 H 0.62759 0.33845 0.69999 0.0
C1100 C 0.58662 0.3501 0.68582 0.0
C1101 C 0.58324 0.36136 0.69819 0.0
C1102 C 0.6016 0.35053 0.67877 0.0
C1103 C 0.61346 0.36219 0.68399 0.0
C1104 C 0.61004 0.37364 0.69608 0.0
H1105 H 0.71413 0.36732 0.67138 0.0
H1106 H 0.68704 0.36468 0.6814 0.0
C1107 C 0.59509 0.37321 0.70316 0.0
C1108 C 0.62945 0.36253 0.67686 0.0
H1109 H 0.66194 0.34108 0.67381 0.0
C1110 C 0.63517 0.37625 0.66826 0.0
C1111 C 0.63922 0.34972 0.67899 0.0
C1112 C 0.63388 0.33498 0.68868 0.0
C1113 C 0.65042 0.37749 0.66168 0.0
C1114 C 0.66011 0.36458 0.6636 0.0
C1115 C 0.65441 0.35088 0.67224 0.0
C1116 C 0.67644 0.36538 0.65729 0.0
C1117 C 0.65619 0.39278 0.65308 0.0
C1118 C 0.67943 0.3663 0.64038 0.0
C1119 C 0.6949 0.3678 0.63459 0.0
C1120 C 0.70766 0.36838 0.64564 0.0
C1121 C 0.70459 0.36698 0.66254 0.0
C1122 C 0.68912 0.36546 0.6683 0.0
H1123 H 0.64866 0.40283 0.65578 0.0
H1124 H 0.66848 0.39666 0.65677 0.0
H1125 H 0.65602 0.39048 0.63961 0.0
H1126 H 0.66978 0.36598 0.63167 0.0
H1127 H 0.69685 0.36876 0.62149 0.0
H1128 H 0.76317 0.55852 0.48284 0.0
H1129 H 0.76991 0.54041 0.50468 0.0
H1130 H 0.73969 0.50188 0.48249 0.0
H1131 H 0.73301 0.51982 0.46049 0.0
H1132 H 0.75057 0.52301 0.52727 0.0
H1133 H 0.78232 0.48226 0.48648 0.0
H1134 H 0.77722 0.50192 0.48021 0.0
H1135 H 0.76258 0.48511 0.48004 0.0
C1136 C 0.75791 0.54621 0.48262 0.0
C1137 C 0.74763 0.54058 0.46986 0.0
C1138 C 0.76177 0.53588 0.49512 0.0
C1139 C 0.75549 0.51975 0.49504 0.0
C1140 C 0.7449 0.51421 0.48259 0.0
H1141 H 0.75692 0.45232 0.57548 0.0
H1142 H 0.74923 0.47042 0.55404 0.0
C1143 C 0.74103 0.52451 0.47008 0.0
C1144 C 0.76011 0.50869 0.50795 0.0
H1145 H 0.77817 0.474 0.51396 0.0
C1146 C 0.75661 0.51229 0.52439 0.0
C1147 C 0.76819 0.49486 0.50414 0.0
C1148 C 0.77295 0.49083 0.48679 0.0
C1149 C 0.76079 0.50228 0.53713 0.0
C1150 C 0.76846 0.4882 0.53327 0.0
C1151 C 0.77215 0.48472 0.51685 0.0
C1152 C 0.77305 0.47706 0.54612 0.0
C1153 C 0.75721 0.50703 0.55463 0.0
C1154 C 0.78896 0.47447 0.54846 0.0
C1155 C 0.79339 0.46406 0.56063 0.0
C1156 C 0.78197 0.45598 0.57062 0.0
C1157 C 0.76601 0.45841 0.56805 0.0
C1158 C 0.76159 0.46883 0.55588 0.0
H1159 H 0.75494 0.51999 0.55581 0.0
H1160 H 0.74654 0.49973 0.55879 0.0
H1161 H 0.76709 0.50468 0.56295 0.0
H1162 H 0.79797 0.48065 0.54099 0.0
H1163 H 0.80578 0.46243 0.56226 0.0
H1164 H 0.59356 0.18495 0.92513 0.0
H1165 H 0.62031 0.18651 0.93626 0.0
H1166 H 0.61083 0.22887 0.96487 0.0
H1167 H 0.58398 0.22732 0.95396 0.0
H1168 H 0.64367 0.21222 0.93385 0.0
H1169 H 0.62867 0.19932 0.99896 0.0
H1170 H 0.61472 0.19531 0.98238 0.0
H1171 H 0.6189 0.21556 0.99025 0.0
C1172 C 0.59712 0.19455 0.93386 0.0
C1173 C 0.58661 0.20597 0.93871 0.0
C1174 C 0.61242 0.19543 0.94019 0.0
C1175 C 0.61747 0.20768 0.95154 0.0
C1176 C 0.60706 0.21915 0.95636 0.0
H1177 H 0.70698 0.23075 0.00192 0.0
H1178 H 0.68016 0.23112 0.99115 0.0
C1179 C 0.59175 0.21828 0.95004 0.0
C1180 C 0.6338 0.20866 0.95796 0.0
H1181 H 0.65544 0.20671 0.9931 0.0
C1182 C 0.64626 0.21099 0.9468 0.0
C1183 C 0.63711 0.20713 0.97487 0.0
C1184 C 0.62417 0.20405 0.98733 0.0
C1185 C 0.66199 0.21192 0.9521 0.0
C1186 C 0.6653 0.21019 0.96898 0.0
C1187 C 0.65284 0.20805 0.98017 0.0
C1188 C 0.68164 0.21015 0.97522 0.0
C1189 C 0.67491 0.21496 0.93963 0.0
C1190 C 0.69127 0.19815 0.96993 0.0
C1191 C 0.70657 0.1979 0.97603 0.0
C1192 C 0.7125 0.20961 0.98763 0.0
C1193 C 0.70279 0.22159 0.99297 0.0
C1194 C 0.68746 0.22181 0.98685 0.0
H1195 H 0.6705 0.22034 0.92828 0.0
H1196 H 0.68471 0.22315 0.94477 0.0
H1197 H 0.67967 0.20332 0.93614 0.0
H1198 H 0.68688 0.18884 0.96121 0.0
H1199 H 0.7137 0.18845 0.97173 0.0
H1200 H 0.87516 0.14823 0.54918 0.0
H1201 H 0.88658 0.13265 0.52706 0.0
H1202 H 0.91541 0.17502 0.51265 0.0
H1203 H 0.90403 0.19075 0.53473 0.0
H1204 H 0.89888 0.15775 0.4864 0.0
H1205 H 0.93189 0.11759 0.52516 0.0
H1206 H 0.91153 0.11847 0.53054 0.0
H1207 H 0.92486 0.13624 0.53289 0.0
C1208 C 0.88395 0.15425 0.54133 0.0
C1209 C 0.88871 0.17073 0.54374 0.0
C1210 C 0.89054 0.14529 0.52877 0.0
C1211 C 0.902 0.15264 0.5184 0.0
C1212 C 0.90665 0.16912 0.52062 0.0
H1213 H 0.95751 0.10433 0.44464 0.0
H1214 H 0.9495 0.12082 0.46804 0.0
C1215 C 0.90013 0.17808 0.53323 0.0
C1216 C 0.9087 0.14324 0.50485 0.0
H1217 H 0.92969 0.11065 0.49667 0.0
C1218 C 0.90571 0.14752 0.48863 0.0
C1219 C 0.91774 0.13002 0.50784 0.0
C1220 C 0.92185 0.12535 0.52504 0.0
C1221 C 0.91111 0.1386 0.47527 0.0
C1222 C 0.91962 0.12501 0.47826 0.0
C1223 C 0.92306 0.12102 0.49446 0.0
C1224 C 0.92458 0.11452 0.46465 0.0
C1225 C 0.90764 0.14373 0.45804 0.0
C1226 C 0.91322 0.1053 0.45529 0.0
C1227 C 0.91772 0.09584 0.44202 0.0
C1228 C 0.9337 0.09544 0.43783 0.0
C1229 C 0.94511 0.10441 0.44751 0.0
C1230 C 0.94057 0.11382 0.46087 0.0
H1231 H 0.90417 0.15634 0.45779 0.0
H1232 H 0.91804 0.14273 0.44999 0.0
H1233 H 0.89779 0.13565 0.45286 0.0
H1234 H 0.90083 0.10552 0.45818 0.0
H1235 H 0.90862 0.08905 0.4349 0.0
H1236 H 0.95467 0.42718 0.90537 0.0
H1237 H 0.93475 0.43274 0.92567 0.0
H1238 H 0.93601 0.48219 0.91011 0.0
H1239 H 0.95589 0.47663 0.88941 0.0
H1240 H 0.93604 0.45482 0.95164 0.0
H1241 H 0.88913 0.46687 0.90686 0.0
H1242 H 0.90679 0.4577 0.90079 0.0
H1243 H 0.90746 0.47902 0.90517 0.0
C1244 C 0.95076 0.43926 0.90622 0.0
C1245 C 0.95681 0.45144 0.89569 0.0
C1246 C 0.93938 0.44242 0.91788 0.0
C1247 C 0.93378 0.45781 0.91928 0.0
C1248 C 0.93999 0.47014 0.90904 0.0
H1249 H 0.87117 0.47163 0.00387 0.0
H1250 H 0.89208 0.47771 0.98377 0.0
C1251 C 0.95139 0.46697 0.89728 0.0
C1252 C 0.92132 0.46062 0.93145 0.0
H1253 H 0.88238 0.46709 0.93483 0.0
C1254 C 0.92435 0.45773 0.94804 0.0
C1255 C 0.90608 0.46432 0.92663 0.0
C1256 C 0.90204 0.46706 0.90889 0.0
C1257 C 0.91239 0.45773 0.95986 0.0
C1258 C 0.89705 0.46108 0.95499 0.0
C1259 C 0.89418 0.46464 0.93852 0.0
C1260 C 0.88351 0.45902 0.96637 0.0
C1261 C 0.91608 0.45321 0.97725 0.0
C1262 C 0.87138 0.44702 0.9629 0.0
C1263 C 0.85937 0.44363 0.97424 0.0
C1264 C 0.85924 0.45216 0.98932 0.0
C1265 C 0.871 0.46473 0.99244 0.0
C1266 C 0.883 0.46817 0.98101 0.0
H1267 H 0.92764 0.44796 0.97818 0.0
H1268 H 0.91647 0.46418 0.98529 0.0
H1269 H 0.90683 0.44434 0.98199 0.0
H1270 H 0.87152 0.43984 0.95165 0.0
H1271 H 0.85047 0.43394 0.97137 0.0
H1272 H 0.24165 0.64581 0.1494 0.0
H1273 H 0.22179 0.64054 0.17062 0.0
H1274 H 0.25787 0.6291 0.2047 0.0
H1275 H 0.27792 0.6346 0.18361 0.0
H1276 H 0.21286 0.61392 0.19117 0.0
H1277 H 0.23833 0.66792 0.22644 0.0
H1278 H 0.24376 0.66381 0.20546 0.0
H1279 H 0.25159 0.65268 0.22187 0.0
C1280 C 0.24537 0.64195 0.16132 0.0
C1281 C 0.26141 0.64089 0.16489 0.0
C1282 C 0.23398 0.6389 0.17343 0.0
C1283 C 0.23841 0.63473 0.18929 0.0
C1284 C 0.25427 0.6326 0.1926 0.0
H1285 H 0.18078 0.64049 0.27764 0.0
H1286 H 0.20179 0.63327 0.25913 0.0
C1287 C 0.26569 0.6357 0.18051 0.0
C1288 C 0.22657 0.63398 0.2026 0.0
H1289 H 0.21568 0.65415 0.23713 0.0
C1290 C 0.21353 0.62259 0.20132 0.0
C1291 C 0.2275 0.64533 0.21582 0.0
C1292 C 0.24096 0.65822 0.2175 0.0
C1293 C 0.20123 0.62243 0.21281 0.0
C1294 C 0.20191 0.63415 0.22568 0.0
C1295 C 0.21522 0.64515 0.22727 0.0
C1296 C 0.18849 0.6362 0.23687 0.0
C1297 C 0.18759 0.6098 0.21098 0.0
C1298 C 0.17399 0.6401 0.2305 0.0
C1299 C 0.16196 0.64423 0.24103 0.0
C1300 C 0.16426 0.64471 0.25815 0.0
C1301 C 0.17862 0.64028 0.26452 0.0
C1302 C 0.19064 0.63612 0.25397 0.0
H1303 H 0.1911 0.5989 0.20424 0.0
H1304 H 0.18278 0.60611 0.22314 0.0
H1305 H 0.17808 0.61484 0.20384 0.0
H1306 H 0.17219 0.64062 0.21735 0.0
H1307 H 0.15107 0.64761 0.2357 0.0
H1308 H 0.15297 0.87415 0.46278 0.0
H1309 H 0.16646 0.87757 0.48921 0.0
H1310 H 0.13786 0.91639 0.50232 0.0
H1311 H 0.12408 0.91295 0.47589 0.0
H1312 H 0.1835 0.90484 0.5038 0.0
H1313 H 0.13056 0.88431 0.54006 0.0
H1314 H 0.13159 0.88128 0.51809 0.0
H1315 H 0.12832 0.90085 0.52656 0.0
C1316 C 0.14955 0.88347 0.47123 0.0
C1317 C 0.13733 0.89318 0.46726 0.0
C1318 C 0.15731 0.88543 0.48632 0.0
C1319 C 0.15301 0.89707 0.49778 0.0
C1320 C 0.14117 0.90714 0.49373 0.0
H1321 H 0.18368 0.90945 0.6001 0.0
H1322 H 0.17223 0.91418 0.57321 0.0
C1323 C 0.13336 0.9052 0.4786 0.0
C1324 C 0.1607 0.89823 0.51413 0.0
H1325 H 0.1539 0.89142 0.55481 0.0
C1326 C 0.17703 0.90202 0.51498 0.0
C1327 C 0.1522 0.89457 0.52867 0.0
C1328 C 0.13472 0.88989 0.52839 0.0
C1329 C 0.18514 0.90205 0.53001 0.0
C1330 C 0.17671 0.89792 0.54447 0.0
C1331 C 0.16032 0.8946 0.54368 0.0
C1332 C 0.1847 0.89605 0.56041 0.0
C1333 C 0.20265 0.90649 0.53026 0.0
C1334 C 0.19552 0.8843 0.56211 0.0
C1335 C 0.20208 0.88155 0.57745 0.0
C1336 C 0.19784 0.89043 0.5914 0.0
C1337 C 0.1872 0.9024 0.5896 0.0
C1338 C 0.18064 0.90513 0.57425 0.0
H1339 H 0.20643 0.91387 0.51952 0.0
H1340 H 0.20628 0.91331 0.54169 0.0
H1341 H 0.20892 0.89528 0.52975 0.0
H1342 H 0.19855 0.87691 0.55166 0.0
H1343 H 0.21019 0.8722 0.57841 0.0
H1344 H 0.23208 0.65566 0.06468 0.0
H1345 H 0.22803 0.63904 0.03965 0.0
H1346 H 0.27176 0.61779 0.04833 0.0
H1347 H 0.27594 0.63434 0.0734 0.0
H1348 H 0.26702 0.62945 0.01518 0.0
H1349 H 0.21687 0.58894 0.03774 0.0
H1350 H 0.21514 0.61025 0.04067 0.0
H1351 H 0.23018 0.60072 0.05144 0.0
C1352 C 0.24083 0.64743 0.0613 0.0
C1353 C 0.25432 0.64628 0.07106 0.0
C1354 C 0.23845 0.6379 0.04704 0.0
C1355 C 0.24952 0.6271 0.04227 0.0
C1356 C 0.26306 0.62602 0.05187 0.0
H1357 H 0.2411 0.55084 0.96754 0.0
H1358 H 0.24568 0.56685 0.99291 0.0
C1359 C 0.26541 0.63547 0.06619 0.0
C1360 C 0.24712 0.61712 0.0271 0.0
H1361 H 0.22331 0.58652 0.00954 0.0
C1362 C 0.25749 0.62004 0.01393 0.0
C1363 C 0.23476 0.60478 0.02562 0.0
C1364 C 0.22364 0.60083 0.03964 0.0
C1365 C 0.25565 0.61109 0.99916 0.0
C1366 C 0.24308 0.599 0.99754 0.0
C1367 C 0.23287 0.59588 0.01081 0.0
C1368 C 0.24035 0.58941 0.98216 0.0
C1369 C 0.26724 0.6145 0.98543 0.0
C1370 C 0.23569 0.5968 0.96779 0.0
C1371 C 0.23299 0.58769 0.95331 0.0
C1372 C 0.23493 0.57102 0.95294 0.0
C1373 C 0.23955 0.56365 0.9674 0.0
C1374 C 0.24216 0.57276 0.9819 0.0
H1375 H 0.27802 0.62174 0.98978 0.0
H1376 H 0.2707 0.60306 0.97973 0.0
H1377 H 0.26164 0.6214 0.97578 0.0
H1378 H 0.23404 0.6096 0.96783 0.0
H1379 H 0.22941 0.59373 0.9424 0.0
H1380 H 0.42613 0.75095 0.546 0.0
H1381 H 0.44545 0.75512 0.52396 0.0
H1382 H 0.41457 0.72664 0.49072 0.0
H1383 H 0.39512 0.72255 0.51258 0.0
H1384 H 0.46023 0.7313 0.50649 0.0
H1385 H 0.42626 0.76754 0.46465 0.0
H1386 H 0.42093 0.7645 0.48589 0.0
H1387 H 0.41587 0.74895 0.4707 0.0
C1388 C 0.42339 0.74568 0.53396 0.0
C1389 C 0.40906 0.73646 0.53103 0.0
C1390 C 0.43445 0.74807 0.5214 0.0
C1391 C 0.43134 0.74139 0.50566 0.0
C1392 C 0.41706 0.73219 0.50269 0.0
H1393 H 0.48154 0.7314 0.41488 0.0
H1394 H 0.46252 0.73117 0.43733 0.0
C1395 C 0.40599 0.72979 0.51523 0.0
C1396 C 0.44333 0.74338 0.49255 0.0
H1397 H 0.44944 0.75723 0.45367 0.0
C1398 C 0.45795 0.73711 0.495 0.0
C1399 C 0.44028 0.75094 0.47758 0.0
C1400 C 0.42504 0.75851 0.47456 0.0
C1401 C 0.46946 0.73775 0.48266 0.0
C1402 C 0.46632 0.74511 0.4676 0.0
C1403 C 0.45178 0.75158 0.46524 0.0
C1404 C 0.47781 0.74576 0.45395 0.0
C1405 C 0.48466 0.73008 0.48564 0.0
C1406 C 0.49261 0.75429 0.45577 0.0
C1407 C 0.50354 0.75443 0.44297 0.0
C1408 C 0.49981 0.7461 0.42809 0.0
C1409 C 0.48482 0.73789 0.42619 0.0
C1410 C 0.47392 0.73775 0.439 0.0
H1411 H 0.48375 0.72178 0.4962 0.0
H1412 H 0.48815 0.72323 0.47457 0.0
H1413 H 0.49414 0.73969 0.48841 0.0
H1414 H 0.49572 0.7608 0.46712 0.0
H1415 H 0.51494 0.76095 0.44479 0.0
H1416 H 0.36211 0.02856 0.02169 0.0
H1417 H 0.36551 0.0056 0.03942 0.0
H1418 H 0.34471 0.03056 0.0798 0.0
H1419 H 0.34124 0.0536 0.06219 0.0
H1420 H 0.38287 0.00692 0.07045 0.0
H1421 H 0.31987 0.98507 0.07715 0.0
H1422 H 0.32684 0.99807 0.06071 0.0
H1423 H 0.32461 0.00629 0.08104 0.0
C1424 C 0.35817 0.02915 0.03432 0.0
C1425 C 0.35137 0.0429 0.04053 0.0
C1426 C 0.36015 0.01603 0.04442 0.0
C1427 C 0.35521 0.01635 0.06084 0.0
C1428 C 0.34838 0.03001 0.06708 0.0
H1429 H 0.35651 0.94929 0.14117 0.0
H1430 H 0.35263 0.97203 0.12333 0.0
C1431 C 0.34648 0.04318 0.05702 0.0
C1432 C 0.35768 0.00259 0.07159 0.0
H1433 H 0.33825 0.97248 0.09334 0.0
C1434 C 0.37315 0.99933 0.07542 0.0
C1435 C 0.34493 0.99282 0.07809 0.0
C1436 C 0.3281 0.99559 0.07399 0.0
C1437 C 0.37623 0.98667 0.08585 0.0
C1438 C 0.36349 0.97677 0.09226 0.0
C1439 C 0.348 0.98006 0.08841 0.0
C1440 C 0.36595 0.96296 0.10301 0.0
C1441 C 0.3931 0.9843 0.09023 0.0
C1442 C 0.37455 0.95021 0.09744 0.0
C1443 C 0.37688 0.93725 0.10764 0.0
C1444 C 0.37047 0.9367 0.12355 0.0
C1445 C 0.36163 0.94936 0.129 0.0
C1446 C 0.35939 0.96236 0.11882 0.0
H1447 H 0.40093 0.99543 0.08824 0.0
H1448 H 0.39417 0.98076 0.10324 0.0
H1449 H 0.39734 0.97455 0.0823 0.0
H1450 H 0.37939 0.95022 0.08514 0.0
H1451 H 0.38363 0.92763 0.10302 0.0
H1452 H 0.49369 0.93494 0.30362 0.0
H1453 H 0.47573 0.93147 0.28015 0.0
H1454 H 0.50895 0.90368 0.25442 0.0
H1455 H 0.52691 0.90685 0.27794 0.0
H1456 H 0.48062 0.94081 0.24779 0.0
H1457 H 0.46827 0.87431 0.25148 0.0
H1458 H 0.47754 0.88636 0.26801 0.0
H1459 H 0.48882 0.88089 0.25041 0.0
C1460 C 0.49716 0.92801 0.29301 0.0
C1461 C 0.5117 0.92109 0.29269 0.0
C1462 C 0.48689 0.92608 0.2796 0.0
C1463 C 0.49092 0.91714 0.26565 0.0
C1464 C 0.50548 0.91035 0.26521 0.0
H1465 H 0.44365 0.89142 0.17327 0.0
H1466 H 0.46295 0.89674 0.19534 0.0
C1467 C 0.51575 0.91224 0.27863 0.0
C1468 C 0.47996 0.91515 0.25148 0.0
H1469 H 0.45843 0.88684 0.2281 0.0
C1470 C 0.47572 0.92902 0.2435 0.0
C1471 C 0.4736 0.89975 0.24593 0.0
C1472 C 0.47715 0.88447 0.25447 0.0
C1473 C 0.46545 0.92789 0.22995 0.0
C1474 C 0.45911 0.91249 0.22441 0.0
C1475 C 0.46338 0.89862 0.23235 0.0
C1476 C 0.4478 0.91043 0.21056 0.0
C1477 C 0.46165 0.94313 0.22152 0.0
C1478 C 0.43291 0.91644 0.21179 0.0
C1479 C 0.42183 0.91342 0.1992 0.0
C1480 C 0.42542 0.90426 0.18518 0.0
C1481 C 0.44049 0.89854 0.18387 0.0
C1482 C 0.45154 0.90154 0.19648 0.0
H1483 H 0.47038 0.95341 0.22457 0.0
H1484 H 0.46127 0.9413 0.20797 0.0
H1485 H 0.4499 0.94647 0.22559 0.0
H1486 H 0.42971 0.92309 0.22269 0.0
H1487 H 0.41033 0.91796 0.20064 0.0
H1488 H 0.21119 0.04316 0.75983 0.0
H1489 H 0.20515 0.01727 0.74538 0.0
H1490 H 0.25381 0.00695 0.74914 0.0
H1491 H 0.26002 0.03285 0.76331 0.0
H1492 H 0.24014 0.99801 0.71859 0.0
H1493 H 0.20334 0.97487 0.77073 0.0
H1494 H 0.19758 0.9932 0.76194 0.0
H1495 H 0.21619 0.99318 0.77232 0.0
C1496 C 0.22064 0.03547 0.75741 0.0
C1497 C 0.23606 0.03998 0.7629 0.0
C1498 C 0.21715 0.02065 0.74922 0.0
C1499 C 0.22898 0.01008 0.74649 0.0
C1500 C 0.2445 0.01491 0.75121 0.0
H1501 H 0.22374 0.90705 0.73475 0.0
H1502 H 0.22794 0.93541 0.74332 0.0
C1503 C 0.24801 0.02971 0.75934 0.0
C1504 C 0.22516 0.99362 0.73956 0.0
H1505 H 0.20532 0.95737 0.74787 0.0
C1506 C 0.23244 0.98913 0.7249 0.0
C1507 C 0.21529 0.98203 0.74799 0.0
C1508 C 0.20773 0.98595 0.76419 0.0
C1509 C 0.23021 0.97328 0.71849 0.0
C1510 C 0.22027 0.96174 0.72688 0.0
C1511 C 0.21287 0.96629 0.74144 0.0
C1512 C 0.21797 0.94464 0.72127 0.0
C1513 C 0.23891 0.96889 0.70312 0.0
C1514 C 0.2109 0.94043 0.70605 0.0
C1515 C 0.20851 0.9242 0.70108 0.0
C1516 C 0.21307 0.91191 0.71132 0.0
C1517 C 0.2201 0.9162 0.72657 0.0
C1518 C 0.2225 0.93241 0.7315 0.0
H1519 H 0.24869 0.97806 0.7003 0.0
H1520 H 0.24379 0.95696 0.70432 0.0
H1521 H 0.23062 0.9681 0.69256 0.0
H1522 H 0.20705 0.94968 0.69811 0.0
H1523 H 0.20299 0.92129 0.68929 0.0
H1524 H 0.41134 0.58897 0.69564 0.0
H1525 H 0.41171 0.61127 0.67644 0.0
H1526 H 0.38004 0.58261 0.64415 0.0
H1527 H 0.37944 0.56025 0.66333 0.0
H1528 H 0.41845 0.6145 0.64163 0.0
H1529 H 0.35606 0.62243 0.65782 0.0
H1530 H 0.36825 0.61018 0.66972 0.0
H1531 H 0.36012 0.60265 0.65045 0.0
C1532 C 0.40464 0.58728 0.68434 0.0
C1533 C 0.39517 0.5729 0.68114 0.0
C1534 C 0.40491 0.60003 0.67336 0.0
C1535 C 0.39571 0.59864 0.65904 0.0
C1536 C 0.38705 0.58397 0.65527 0.0
H1537 H 0.39043 0.67371 0.58516 0.0
H1538 H 0.39482 0.64825 0.59855 0.0
C1539 C 0.38676 0.57119 0.66624 0.0
C1540 C 0.39412 0.61303 0.64889 0.0
H1541 H 0.36799 0.6403 0.63865 0.0
C1542 C 0.40741 0.6201 0.64083 0.0
C1543 C 0.37972 0.62037 0.6481 0.0
C1544 C 0.36522 0.61364 0.65707 0.0
C1545 C 0.40669 0.63444 0.63205 0.0
C1546 C 0.39229 0.64176 0.6313 0.0
C1547 C 0.37899 0.63458 0.63922 0.0
C1548 C 0.39085 0.65735 0.62314 0.0
C1549 C 0.42139 0.64195 0.62407 0.0
C1550 C 0.38714 0.67084 0.63255 0.0
C1551 C 0.38459 0.68534 0.62498 0.0
C1552 C 0.38559 0.68663 0.6078 0.0
C1553 C 0.38959 0.67315 0.59841 0.0
C1554 C 0.39218 0.65861 0.60603 0.0
H1555 H 0.43211 0.63634 0.62818 0.0
H1556 H 0.42036 0.64032 0.61054 0.0
H1557 H 0.42286 0.65512 0.62687 0.0
H1558 H 0.38602 0.67007 0.64578 0.0
H1559 H 0.38155 0.69546 0.6326 0.0
loop_
_geom_bond_atom_site_label_1
_geom_bond_atom_site_label_2
_geom_bond_distance
_geom_bond_site_symmetry_2
_ccdc_geom_bond_type
O0 Cd1 2.300 . S
O0 C7 1.275 . S
Cd1 O0 2.300 . S
Cd1 O9 2.381 . S
Cd1 O10 2.378 . S
O2 Cd3 2.385 . S
O2 C7 1.255 1_655 S
Cd3 O2 2.385 . S
Cd3 O4 2.317 . S
O4 Cd3 2.317 . S
O4 C5 1.232 . S
C5 O4 1.232 . S
C5 O6 1.218 . S
O6 C5 1.218 . S
C7 O0 1.275 . S
C7 O2 1.255 1_455 S
C8 O9 1.258 . S
C8 O10 1.256 . S
O9 Cd1 2.381 . S
O9 C8 1.258 . S
O10 Cd1 2.378 . S
O10 C8 1.256 . S
O11 Cd12 2.300 . S
O11 C18 1.275 . S
Cd12 O11 2.300 . S
Cd12 O20 2.381 . S
Cd12 O21 2.378 . S
O13 Cd14 2.385 . S
O13 C18 1.255 . S
Cd14 O13 2.385 . S
Cd14 O15 2.317 . S
O15 Cd14 2.317 . S
O15 C16 1.232 . S
C16 O15 1.232 . S
C16 O17 1.218 . S
O17 C16 1.218 . S
C18 O11 1.275 . S
C18 O13 1.255 . S
C19 O20 1.258 . S
C19 O21 1.256 . S
O20 Cd12 2.381 . S
O20 C19 1.258 . S
O21 Cd12 2.378 . S
O21 C19 1.256 . S
O22 Cd23 2.300 . S
O22 C29 1.275 . S
Cd23 O22 2.300 . S
Cd23 O31 2.381 . S
Cd23 O32 2.378 . S
O24 Cd25 2.385 . S
O24 C29 1.255 . S
Cd25 O24 2.385 . S
Cd25 O26 2.317 . S
O26 Cd25 2.317 . S
O26 C27 1.232 . S
C27 O26 1.232 . S
C27 O28 1.218 . S
O28 C27 1.218 . S
C29 O22 1.275 . S
C29 O24 1.255 . S
C30 O31 1.258 . S
C30 O32 1.256 . S
O31 Cd23 2.381 . S
O31 C30 1.258 . S
O32 Cd23 2.378 . S
O32 C30 1.256 . S
O33 Cd34 2.300 . S
O33 C40 1.275 . S
Cd34 O33 2.300 . S
Cd34 O42 2.381 . S
Cd34 O43 2.378 . S
O35 Cd36 2.385 . S
O35 C40 1.255 . S
Cd36 O35 2.385 . S
Cd36 O37 2.317 . S
O37 Cd36 2.317 . S
O37 C38 1.232 . S
C38 O37 1.232 . S
C38 O39 1.218 . S
O39 C38 1.218 . S
C40 O33 1.275 . S
C40 O35 1.255 . S
C41 O42 1.258 . S
C41 O43 1.256 . S
O42 Cd34 2.381 . S
O42 C41 1.258 . S
O43 Cd34 2.378 . S
O43 C41 1.256 . S
O44 Cd45 2.300 . S
O44 C51 1.294 . S
Cd45 O44 2.300 . S
Cd45 O53 2.381 . S
Cd45 O54 2.378 . S
O46 Cd47 2.385 . S
O46 C51 1.240 1_655 S
Cd47 O46 2.385 . S
Cd47 O48 2.317 . S
O48 Cd47 2.317 . S
O48 C49 1.232 . S
C49 O48 1.232 . S
C49 O50 1.218 . S
O50 C49 1.218 . S
C51 O44 1.294 . S
C51 O46 1.240 1_455 S
C52 O53 1.258 . S
C52 O54 1.256 . S
O53 Cd45 2.381 . S
O53 C52 1.258 . S
O54 Cd45 2.378 . S
O54 C52 1.256 . S
O55 Cd56 2.300 . S
O55 C62 1.275 . S
Cd56 O55 2.300 . S
Cd56 O64 2.381 . S
Cd56 O65 2.378 . S
O57 Cd58 2.385 . S
O57 C62 1.255 . S
Cd58 O57 2.385 . S
Cd58 O59 2.317 . S
O59 Cd58 2.317 . S
O59 C60 1.232 . S
C60 O59 1.232 . S
C60 O61 1.218 . S
O61 C60 1.218 . S
C62 O55 1.275 . S
C62 O57 1.255 . S
C63 O64 1.258 . S
C63 O65 1.256 . S
O64 Cd56 2.381 . S
O64 C63 1.258 . S
O65 Cd56 2.378 . S
O65 C63 1.256 . S
O66 Cd67 2.300 . S
O66 C73 1.275 . S
Cd67 O66 2.300 . S
Cd67 O75 2.381 . S
Cd67 O76 2.378 . S
O68 Cd69 2.385 . S
O68 C73 1.255 . S
Cd69 O68 2.385 . S
Cd69 O70 2.317 . S
O70 Cd69 2.317 . S
O70 C71 1.232 . S
C71 O70 1.232 . S
C71 O72 1.218 . S
O72 C71 1.218 . S
C73 O66 1.275 . S
C73 O68 1.255 . S
C74 O75 1.258 . S
C74 O76 1.256 . S
O75 Cd67 2.381 . S
O75 C74 1.258 . S
O76 Cd67 2.378 . S
O76 C74 1.256 . S
O77 Cd78 2.300 . S
O77 C84 1.275 . S
Cd78 O77 2.300 . S
Cd78 O86 2.381 . S
Cd78 O87 2.378 . S
O79 Cd80 2.385 . S
O79 C84 1.255 . S
Cd80 O79 2.385 . S
Cd80 O81 2.317 . S
O81 Cd80 2.317 . S
O81 C82 1.232 . S
C82 O81 1.232 . S
C82 O83 1.218 . S
O83 C82 1.218 . S
C84 O77 1.275 . S
C84 O79 1.255 . S
C85 O86 1.258 . S
C85 O87 1.256 . S
O86 Cd78 2.381 . S
O86 C85 1.258 . S
O87 Cd78 2.378 . S
O87 C85 1.256 . S
O88 Cd89 2.300 . S
O88 C95 1.275 . S
Cd89 O88 2.300 . S
Cd89 O97 2.381 . S
Cd89 O98 2.378 . S
O90 Cd91 2.385 . S
O90 C95 1.255 . S
Cd91 O90 2.385 . S
Cd91 O92 2.317 . S
O92 Cd91 2.317 . S
O92 C93 1.232 . S
C93 O92 1.232 . S
C93 O94 1.218 . S
O94 C93 1.218 . S
C95 O88 1.275 . S
C95 O90 1.255 . S
C96 O97 1.258 . S
C96 O98 1.256 . S
O97 Cd89 2.381 . S
O97 C96 1.258 . S
O98 Cd89 2.378 . S
O98 C96 1.256 . S
O99 Cd100 2.300 . S
O99 C106 1.275 . S
Cd100 O99 2.300 . S
Cd100 O108 2.381 . S
Cd100 O109 2.378 . S
O101 Cd102 2.385 . S
O101 C106 1.255 . S
Cd102 O101 2.385 . S
Cd102 O103 2.317 . S
O103 Cd102 2.317 . S
O103 C104 1.232 . S
C104 O103 1.232 . S
C104 O105 1.218 . S
O105 C104 1.218 . S
C106 O99 1.275 . S
C106 O101 1.255 . S
C107 O108 1.258 . S
C107 O109 1.256 . S
O108 Cd100 2.381 . S
O108 C107 1.258 . S
O109 Cd100 2.378 . S
O109 C107 1.256 . S
O110 Cd111 2.300 . S
O110 C117 1.275 . S
Cd111 O110 2.300 . S
Cd111 O119 2.381 . S
Cd111 O120 2.378 . S
O112 Cd113 2.385 . S
O112 C117 1.255 . S
Cd113 O112 2.385 . S
Cd113 O114 2.317 . S
O114 Cd113 2.317 . S
O114 C115 1.232 . S
C115 O114 1.232 . S
C115 O116 1.218 . S
O116 C115 1.218 . S
C117 O110 1.275 . S
C117 O112 1.255 . S
C118 O119 1.258 . S
C118 O120 1.256 . S
O119 Cd111 2.381 . S
O119 C118 1.258 . S
O120 Cd111 2.378 . S
O120 C118 1.256 . S
O121 Cd122 2.300 . S
O121 C128 1.275 . S
Cd122 O121 2.300 . S
Cd122 O130 2.381 . S
Cd122 O131 2.378 . S
O123 Cd124 2.385 . S
O123 C128 1.255 . S
Cd124 O123 2.385 . S
Cd124 O125 2.317 . S
O125 Cd124 2.317 . S
O125 C126 1.232 . S
C126 O125 1.232 . S
C126 O127 1.218 . S
O127 C126 1.218 . S
C128 O121 1.275 . S
C128 O123 1.255 . S
C129 O130 1.258 . S
C129 O131 1.256 . S
O130 Cd122 2.381 . S
O130 C129 1.258 . S
O131 Cd122 2.378 . S
O131 C129 1.256 . S
O132 Cd133 2.300 . S
O132 C139 1.275 . S
Cd133 O132 2.300 . S
Cd133 O141 2.381 . S
Cd133 O142 2.378 . S
O134 Cd135 2.385 . S
O134 C139 1.255 . S
Cd135 O134 2.385 . S
Cd135 O136 2.317 . S
O136 Cd135 2.317 . S
O136 C137 1.232 . S
C137 O136 1.232 . S
C137 O138 1.218 . S
O138 C137 1.218 . S
C139 O132 1.275 . S
C139 O134 1.255 . S
C140 O141 1.258 . S
C140 O142 1.256 . S
O141 Cd133 2.381 . S
O141 C140 1.258 . S
O142 Cd133 2.378 . S
O142 C140 1.256 . S
O143 Cd144 2.300 . S
O143 C150 1.275 . S
Cd144 O143 2.300 . S
Cd144 O152 2.381 . S
Cd144 O153 2.378 . S
O145 Cd146 2.385 . S
O145 C150 1.255 . S
Cd146 O145 2.385 . S
Cd146 O147 2.317 . S
O147 Cd146 2.317 . S
O147 C148 1.232 . S
C148 O147 1.232 . S
C148 O149 1.218 . S
O149 C148 1.218 . S
C150 O143 1.275 . S
C150 O145 1.255 . S
C151 O152 1.258 . S
C151 O153 1.256 . S
O152 Cd144 2.381 . S
O152 C151 1.258 . S
O153 Cd144 2.378 . S
O153 C151 1.256 . S
O154 Cd155 2.300 . S
O154 C161 1.275 . S
Cd155 O154 2.300 . S
Cd155 O163 2.381 . S
Cd155 O164 2.378 . S
O156 Cd157 2.385 . S
O156 C161 1.255 . S
Cd157 O156 2.385 . S
Cd157 O158 2.317 . S
O158 Cd157 2.317 . S
O158 C159 1.232 . S
C159 O158 1.232 . S
C159 O160 1.218 . S
O160 C159 1.218 . S
C161 O154 1.275 . S
C161 O156 1.255 . S
C162 O163 1.258 . S
C162 O164 1.256 . S
O163 Cd155 2.381 . S
O163 C162 1.258 . S
O164 Cd155 2.378 . S
O164 C162 1.256 . S
O165 Cd166 2.300 . S
O165 C172 1.275 . S
Cd166 O165 2.300 . S
Cd166 O174 2.381 1_556 S
Cd166 O175 2.378 1_556 S
O167 Cd168 2.385 . S
O167 C172 1.255 . S
Cd168 O167 2.385 . S
Cd168 O169 2.317 . S
O169 Cd168 2.317 . S
O169 C170 1.232 . S
C170 O169 1.232 . S
C170 O171 1.218 . S
O171 C170 1.218 . S
C172 O165 1.275 . S
C172 O167 1.255 . S
C173 O174 1.258 . S
C173 O175 1.256 . S
O174 Cd166 2.381 1_554 S
O174 C173 1.258 . S
O175 Cd166 2.378 1_554 S
O175 C173 1.256 . S
O176 Cd177 2.300 . S
O176 C183 1.275 . S
Cd177 O176 2.300 . S
Cd177 O185 2.381 . S
Cd177 O186 2.378 . S
O178 Cd179 2.385 . S
O178 C183 1.255 . S
Cd179 O178 2.385 . S
Cd179 O180 2.317 . S
O180 Cd179 2.317 . S
O180 C181 1.232 . S
C181 O180 1.232 . S
C181 O182 1.218 . S
O182 C181 1.218 . S
C183 O176 1.275 . S
C183 O178 1.255 . S
C184 O185 1.258 . S
C184 O186 1.256 . S
O185 Cd177 2.381 . S
O185 C184 1.258 . S
O186 Cd177 2.378 . S
O186 C184 1.256 . S
O187 Cd188 2.300 . S
O187 C194 1.275 . S
Cd188 O187 2.300 . S
Cd188 O196 2.381 . S
Cd188 O197 2.378 . S
O189 Cd190 2.385 . S
O189 C194 1.255 . S
Cd190 O189 2.385 . S
Cd190 O191 2.317 . S
O191 Cd190 2.317 . S
O191 C192 1.232 . S
C192 O191 1.232 . S
C192 O193 1.218 . S
O193 C192 1.218 . S
C194 O187 1.275 . S
C194 O189 1.255 . S
C195 O196 1.258 . S
C195 O197 1.256 . S
O196 Cd188 2.381 . S
O196 C195 1.258 . S
O197 Cd188 2.378 . S
O197 C195 1.256 . S
O198 Cd199 2.300 . S
O198 C205 1.275 . S
Cd199 O198 2.300 . S
Cd199 O207 2.381 . S
Cd199 O208 2.378 . S
O200 Cd201 2.385 . S
O200 C205 1.255 . S
Cd201 O200 2.385 . S
Cd201 O202 2.317 . S
O202 Cd201 2.317 . S
O202 C203 1.232 . S
C203 O202 1.232 . S
C203 O204 1.218 . S
O204 C203 1.218 . S
C205 O198 1.275 . S
C205 O200 1.255 . S
C206 O207 1.258 . S
C206 O208 1.256 . S
O207 Cd199 2.381 . S
O207 C206 1.258 . S
O208 Cd199 2.378 . S
O208 C206 1.256 . S
O209 Cd210 2.300 . S
O209 C216 1.275 . S
Cd210 O209 2.300 . S
Cd210 O218 2.381 . S
Cd210 O219 2.378 . S
O211 Cd212 2.385 . S
O211 C216 1.255 . S
Cd212 O211 2.385 . S
Cd212 O213 2.317 . S
O213 Cd212 2.317 . S
O213 C214 1.232 . S
C214 O213 1.232 . S
C214 O215 1.218 . S
O215 C214 1.218 . S
C216 O209 1.275 . S
C216 O211 1.255 . S
C217 O218 1.258 . S
C217 O219 1.256 . S
O218 Cd210 2.381 . S
O218 C217 1.258 . S
O219 Cd210 2.378 . S
O219 C217 1.256 . S
O220 Cd221 2.300 . S
O220 C227 1.275 1_554 S
Cd221 O220 2.300 . S
Cd221 O229 2.381 . S
Cd221 O230 2.378 . S
O222 Cd223 2.385 . S
O222 C227 1.255 . S
Cd223 O222 2.385 . S
Cd223 O224 2.317 1_556 S
O224 Cd223 2.317 1_554 S
O224 C225 1.232 . S
C225 O224 1.232 . S
C225 O226 1.218 1_554 S
O226 C225 1.218 1_556 S
C227 O220 1.275 1_556 S
C227 O222 1.255 . S
C228 O229 1.258 . S
C228 O230 1.256 . S
O229 Cd221 2.381 . S
O229 C228 1.258 . S
O230 Cd221 2.378 . S
O230 C228 1.256 . S
O231 Cd232 2.300 . S
O231 C238 1.275 . S
Cd232 O231 2.300 . S
Cd232 O240 2.381 . S
Cd232 O241 2.378 . S
O233 Cd234 2.385 . S
O233 C238 1.255 . S
Cd234 O233 2.385 . S
Cd234 O235 2.317 . S
O235 Cd234 2.317 . S
O235 C236 1.232 . S
C236 O235 1.232 . S
C236 O237 1.218 . S
O237 C236 1.218 . S
C238 O231 1.275 . S
C238 O233 1.255 . S
C239 O240 1.258 . S
C239 O241 1.256 . S
O240 Cd232 2.381 . S
O240 C239 1.258 . S
O241 Cd232 2.378 . S
O241 C239 1.256 . S
O242 Cd243 2.300 . S
O242 C249 1.275 . S
Cd243 O242 2.300 . S
Cd243 O251 2.381 . S
Cd243 O252 2.378 . S
O244 Cd245 2.385 . S
O244 C249 1.255 . S
Cd245 O244 2.385 . S
Cd245 O246 2.317 . S
O246 Cd245 2.317 . S
O246 C247 1.232 . S
C247 O246 1.232 . S
C247 O248 1.218 . S
O248 C247 1.218 . S
C249 O242 1.275 . S
C249 O244 1.255 . S
C250 O251 1.258 . S
C250 O252 1.256 . S
O251 Cd243 2.381 . S
O251 C250 1.258 . S
O252 Cd243 2.378 . S
O252 C250 1.256 . S
O253 Cd254 2.300 . S
O253 C260 1.289 . S
Cd254 O253 2.300 . S
Cd254 O262 2.381 . S
Cd254 O263 2.378 . S
O255 Cd256 2.385 . S
O255 C260 1.268 . S
Cd256 O255 2.385 . S
Cd256 O257 2.317 1_554 S
O257 Cd256 2.317 1_556 S
O257 C258 1.232 . S
C258 O257 1.232 . S
C258 O259 1.218 . S
O259 C258 1.218 . S
C260 O253 1.289 . S
C260 O255 1.268 . S
C261 O262 1.258 . S
C261 O263 1.256 . S
O262 Cd254 2.381 . S
O262 C261 1.258 . S
O263 Cd254 2.378 . S
O263 C261 1.256 . S
H264 C272 0.929 . S
H265 C274 0.930 . S
H266 C276 0.930 . S
H267 C279 0.929 . S
H268 C282 0.930 . S
H269 C284 0.960 . S
H270 C284 0.960 . S
H271 C284 0.960 . S
C272 H264 0.929 . S
C272 C273 1.377 . S
C272 C274 1.384 . S
C273 C272 1.377 . S
C273 C279 1.390 1_655 S
C274 H265 0.930 . S
C274 C272 1.384 . S
C274 C275 1.372 . S
C275 C274 1.372 . S
C275 C276 1.400 1_655 S
C275 C280 1.490 . S
C276 H266 0.930 . S
C276 C275 1.400 1_455 S
C276 C279 1.386 . S
H277 C293 0.930 . S
H278 C294 0.931 . S
C279 H267 0.929 . S
C279 C273 1.390 1_455 S
C279 C276 1.386 . S
C280 C275 1.490 . S
C280 C282 1.395 . S
C280 C283 1.403 1_655 S
H281 C287 0.930 . S
C282 H268 0.930 . S
C282 C280 1.395 . S
C282 C285 1.403 . S
C283 C280 1.403 1_455 S
C283 C284 1.524 . S
C283 C287 1.400 . S
C284 H269 0.960 . S
C284 H270 0.960 . S
C284 H271 0.960 . S
C284 C283 1.524 . S
C285 C282 1.403 . S
C285 C286 1.392 . S
C285 C289 1.495 . S
C286 C285 1.392 . S
C286 C287 1.385 1_655 S
C286 C288 1.478 . S
C287 H281 0.930 . S
C287 C283 1.400 . S
C287 C286 1.385 1_455 S
C288 C286 1.478 . S
C288 C290 1.381 . S
C288 C294 1.383 1_655 S
C289 C285 1.495 . S
C289 H295 0.959 . S
C289 H296 0.961 . S
C289 H297 0.960 . S
C290 C288 1.381 . S
C290 C291 1.394 . S
C290 H298 0.930 . S
C291 C290 1.394 . S
C291 C292 1.412 . S
C291 H299 0.929 . S
C292 C291 1.412 . S
C292 C293 1.355 1_655 S
C293 H277 0.930 . S
C293 C292 1.355 1_455 S
C293 C294 1.379 . S
C294 H278 0.931 . S
C294 C288 1.383 1_455 S
C294 C293 1.379 . S
H295 C289 0.959 . S
H296 C289 0.961 . S
H297 C289 0.960 . S
H298 C290 0.930 . S
H299 C291 0.929 . S
H300 C308 0.929 . S
H301 C310 0.930 . S
H302 C312 0.930 . S
H303 C315 0.929 . S
H304 C318 0.930 . S
H305 C320 0.960 . S
H306 C320 0.960 . S
H307 C320 0.960 . S
C308 H300 0.929 . S
C308 C309 1.377 . S
C308 C310 1.384 . S
C309 C308 1.377 . S
C309 C315 1.390 . S
C310 H301 0.930 . S
C310 C308 1.384 . S
C310 C311 1.372 . S
C311 C310 1.372 . S
C311 C312 1.400 . S
C311 C316 1.490 . S
C312 H302 0.930 . S
C312 C311 1.400 . S
C312 C315 1.386 . S
H313 C329 0.930 . S
H314 C330 0.931 . S
C315 H303 0.929 . S
C315 C309 1.390 . S
C315 C312 1.386 . S
C316 C311 1.490 . S
C316 C318 1.395 . S
C316 C319 1.403 . S
H317 C323 0.930 . S
C318 H304 0.930 . S
C318 C316 1.395 . S
C318 C321 1.403 . S
C319 C316 1.403 . S
C319 C320 1.524 . S
C319 C323 1.400 . S
C320 H305 0.960 . S
C320 H306 0.960 . S
C320 H307 0.960 . S
C320 C319 1.524 . S
C321 C318 1.403 . S
C321 C322 1.392 . S
C321 C325 1.495 . S
C322 C321 1.392 . S
C322 C323 1.385 . S
C322 C324 1.478 . S
C323 H317 0.930 . S
C323 C319 1.400 . S
C323 C322 1.385 . S
C324 C322 1.478 . S
C324 C326 1.381 . S
C324 C330 1.383 . S
C325 C321 1.495 . S
C325 H331 0.959 . S
C325 H332 0.961 . S
C325 H333 0.960 . S
C326 C324 1.381 . S
C326 C327 1.394 . S
C326 H334 0.930 . S
C327 C326 1.394 . S
C327 C328 1.383 . S
C327 H335 0.929 . S
C328 C327 1.383 . S
C328 C329 1.377 . S
C329 H313 0.930 . S
C329 C328 1.377 . S
C329 C330 1.379 . S
C330 H314 0.931 . S
C330 C324 1.383 . S
C330 C329 1.379 . S
H331 C325 0.959 . S
H332 C325 0.961 . S
H333 C325 0.960 . S
H334 C326 0.930 . S
H335 C327 0.929 . S
H336 C344 0.929 . S
H337 C346 0.930 . S
H338 C348 0.930 . S
H339 C351 0.929 . S
H340 C354 0.930 . S
H341 C356 0.960 . S
H342 C356 0.960 . S
H343 C356 0.960 . S
C344 H336 0.929 . S
C344 C345 1.377 . S
C344 C346 1.384 . S
C345 C344 1.377 . S
C345 C351 1.390 . S
C346 H337 0.930 . S
C346 C344 1.384 . S
C346 C347 1.372 . S
C347 C346 1.372 . S
C347 C348 1.400 . S
C347 C352 1.490 . S
C348 H338 0.930 . S
C348 C347 1.400 . S
C348 C351 1.386 . S
H349 C365 0.930 . S
H350 C366 0.931 . S
C351 H339 0.929 . S
C351 C345 1.390 . S
C351 C348 1.386 . S
C352 C347 1.490 . S
C352 C354 1.395 . S
C352 C355 1.403 . S
H353 C359 0.930 . S
C354 H340 0.930 . S
C354 C352 1.395 . S
C354 C357 1.403 . S
C355 C352 1.403 . S
C355 C356 1.524 . S
C355 C359 1.400 . S
C356 H341 0.960 . S
C356 H342 0.960 . S
C356 H343 0.960 . S
C356 C355 1.524 . S
C357 C354 1.403 . S
C357 C358 1.392 . S
C357 C361 1.495 . S
C358 C357 1.392 . S
C358 C359 1.385 . S
C358 C360 1.478 . S
C359 H353 0.930 . S
C359 C355 1.400 . S
C359 C358 1.385 . S
C360 C358 1.478 . S
C360 C362 1.381 . S
C360 C366 1.383 . S
C361 C357 1.495 . S
C361 H367 0.959 . S
C361 H368 0.961 . S
C361 H369 0.960 . S
C362 C360 1.381 . S
C362 C363 1.394 . S
C362 H370 0.930 . S
C363 C362 1.394 . S
C363 C364 1.383 . S
C363 H371 0.929 . S
C364 C363 1.383 . S
C364 C365 1.377 . S
C365 H349 0.930 . S
C365 C364 1.377 . S
C365 C366 1.379 . S
C366 H350 0.931 . S
C366 C360 1.383 . S
C366 C365 1.379 . S
H367 C361 0.959 . S
H368 C361 0.961 . S
H369 C361 0.960 . S
H370 C362 0.930 . S
H371 C363 0.929 . S
H372 C380 0.929 . S
H373 C382 0.930 . S
H374 C384 0.930 . S
H375 C387 0.929 . S
H376 C390 0.930 . S
H377 C392 0.960 . S
H378 C392 0.960 . S
H379 C392 0.960 . S
C380 H372 0.929 . S
C380 C381 1.377 . S
C380 C382 1.384 . S
C381 C380 1.377 . S
C381 C387 1.390 . S
C382 H373 0.930 . S
C382 C380 1.384 . S
C382 C383 1.372 . S
C383 C382 1.372 . S
C383 C384 1.400 . S
C383 C388 1.490 . S
C384 H374 0.930 . S
C384 C383 1.400 . S
C384 C387 1.386 . S
H385 C401 0.930 . S
H386 C402 0.931 . S
C387 H375 0.929 . S
C387 C381 1.390 . S
C387 C384 1.386 . S
C388 C383 1.490 . S
C388 C390 1.395 . S
C388 C391 1.403 . S
H389 C395 0.930 . S
C390 H376 0.930 . S
C390 C388 1.395 . S
C390 C393 1.403 . S
C391 C388 1.403 . S
C391 C392 1.524 . S
C391 C395 1.400 . S
C392 H377 0.960 . S
C392 H378 0.960 . S
C392 H379 0.960 . S
C392 C391 1.524 . S
C393 C390 1.403 . S
C393 C394 1.392 . S
C393 C397 1.495 . S
C394 C393 1.392 . S
C394 C395 1.385 . S
C394 C396 1.478 . S
C395 H389 0.930 . S
C395 C391 1.400 . S
C395 C394 1.385 . S
C396 C394 1.478 . S
C396 C398 1.381 . S
C396 C402 1.383 . S
C397 C393 1.495 . S
C397 H403 0.959 . S
C397 H404 0.961 . S
C397 H405 0.960 . S
C398 C396 1.381 . S
C398 C399 1.394 . S
C398 H406 0.930 . S
C399 C398 1.394 . S
C399 C400 1.383 . S
C399 H407 0.929 . S
C400 C399 1.383 . S
C400 C401 1.377 . S
C401 H385 0.930 . S
C401 C400 1.377 . S
C401 C402 1.379 . S
C402 H386 0.931 . S
C402 C396 1.383 . S
C402 C401 1.379 . S
H403 C397 0.959 . S
H404 C397 0.961 . S
H405 C397 0.960 . S
H406 C398 0.930 . S
H407 C399 0.929 . S
H408 C416 0.929 . S
H409 C418 0.930 . S
H410 C420 0.930 . S
H411 C423 0.929 . S
H412 C426 0.930 . S
H413 C428 0.960 . S
H414 C428 0.960 . S
H415 C428 0.960 . S
C416 H408 0.929 . S
C416 C417 1.377 . S
C416 C418 1.384 . S
C417 C416 1.377 . S
C417 C423 1.390 . S
C418 H409 0.930 . S
C418 C416 1.384 . S
C418 C419 1.372 . S
C419 C418 1.372 . S
C419 C420 1.400 . S
C419 C424 1.490 . S
C420 H410 0.930 . S
C420 C419 1.400 . S
C420 C423 1.386 . S
H421 C437 0.930 . S
H422 C438 0.931 . S
C423 H411 0.929 . S
C423 C417 1.390 . S
C423 C420 1.386 . S
C424 C419 1.490 . S
C424 C426 1.395 . S
C424 C427 1.403 . S
H425 C431 0.930 . S
C426 H412 0.930 . S
C426 C424 1.395 . S
C426 C429 1.403 . S
C427 C424 1.403 . S
C427 C428 1.524 . S
C427 C431 1.400 . S
C428 H413 0.960 . S
C428 H414 0.960 . S
C428 H415 0.960 . S
C428 C427 1.524 . S
C429 C426 1.403 . S
C429 C430 1.392 . S
C429 C433 1.495 . S
C430 C429 1.392 . S
C430 C431 1.385 . S
C430 C432 1.478 . S
C431 H425 0.930 . S
C431 C427 1.400 . S
C431 C430 1.385 . S
C432 C430 1.478 . S
C432 C434 1.381 . S
C432 C438 1.383 . S
C433 C429 1.495 . S
C433 H439 0.959 . S
C433 H440 0.961 . S
C433 H441 0.960 . S
C434 C432 1.381 . S
C434 C435 1.394 . S
C434 H442 0.930 . S
C435 C434 1.394 . S
C435 C436 1.383 . S
C435 H443 0.929 . S
C436 C435 1.383 . S
C436 C437 1.377 . S
C437 H421 0.930 . S
C437 C436 1.377 . S
C437 C438 1.379 . S
C438 H422 0.931 . S
C438 C432 1.383 . S
C438 C437 1.379 . S
H439 C433 0.959 . S
H440 C433 0.961 . S
H441 C433 0.960 . S
H442 C434 0.930 . S
H443 C435 0.929 . S
H444 C452 0.929 . S
H445 C454 0.930 . S
H446 C456 0.930 . S
H447 C459 0.929 . S
H448 C462 0.930 . S
H449 C464 0.960 . S
H450 C464 0.960 . S
H451 C464 0.960 . S
C452 H444 0.929 . S
C452 C453 1.377 . S
C452 C454 1.384 . S
C453 C452 1.377 . S
C453 C459 1.390 . S
C454 H445 0.930 . S
C454 C452 1.384 . S
C454 C455 1.372 . S
C455 C454 1.372 . S
C455 C456 1.400 . S
C455 C460 1.490 . S
C456 H446 0.930 . S
C456 C455 1.400 . S
C456 C459 1.386 . S
H457 C473 0.930 . S
H458 C474 0.931 . S
C459 H447 0.929 . S
C459 C453 1.390 . S
C459 C456 1.386 . S
C460 C455 1.490 . S
C460 C462 1.395 . S
C460 C463 1.403 . S
H461 C467 0.930 . S
C462 H448 0.930 . S
C462 C460 1.395 . S
C462 C465 1.403 . S
C463 C460 1.403 . S
C463 C464 1.524 . S
C463 C467 1.400 . S
C464 H449 0.960 . S
C464 H450 0.960 . S
C464 H451 0.960 . S
C464 C463 1.524 . S
C465 C462 1.403 . S
C465 C466 1.392 . S
C465 C469 1.495 . S
C466 C465 1.392 . S
C466 C467 1.385 . S
C466 C468 1.478 . S
C467 H461 0.930 . S
C467 C463 1.400 . S
C467 C466 1.385 . S
C468 C466 1.478 . S
C468 C470 1.381 . S
C468 C474 1.383 . S
C469 C465 1.495 . S
C469 H475 0.959 . S
C469 H476 0.961 . S
C469 H477 0.960 . S
C470 C468 1.381 . S
C470 C471 1.394 . S
C470 H478 0.930 . S
C471 C470 1.394 . S
C471 C472 1.383 . S
C471 H479 0.929 . S
C472 C471 1.383 . S
C472 C473 1.377 . S
C473 H457 0.930 . S
C473 C472 1.377 . S
C473 C474 1.379 . S
C474 H458 0.931 . S
C474 C468 1.383 . S
C474 C473 1.379 . S
H475 C469 0.959 . S
H476 C469 0.961 . S
H477 C469 0.960 . S
H478 C470 0.930 . S
H479 C471 0.929 . S
H480 C488 0.929 . S
H481 C490 0.930 . S
H482 C492 0.930 . S
H483 C495 0.929 . S
H484 C498 0.930 . S
H485 C500 0.960 . S
H486 C500 0.960 . S
H487 C500 0.960 . S
C488 H480 0.929 . S
C488 C489 1.377 . S
C488 C490 1.384 . S
C489 C488 1.377 . S
C489 C495 1.390 . S
C490 H481 0.930 . S
C490 C488 1.384 . S
C490 C491 1.372 . S
C491 C490 1.372 . S
C491 C492 1.400 . S
C491 C496 1.490 . S
C492 H482 0.930 . S
C492 C491 1.400 . S
C492 C495 1.386 . S
H493 C509 0.930 . S
H494 C510 0.931 . S
C495 H483 0.929 . S
C495 C489 1.390 . S
C495 C492 1.386 . S
C496 C491 1.490 . S
C496 C498 1.395 . S
C496 C499 1.403 . S
H497 C503 0.930 . S
C498 H484 0.930 . S
C498 C496 1.395 . S
C498 C501 1.403 . S
C499 C496 1.403 . S
C499 C500 1.524 . S
C499 C503 1.400 . S
C500 H485 0.960 . S
C500 H486 0.960 . S
C500 H487 0.960 . S
C500 C499 1.524 . S
C501 C498 1.403 . S
C501 C502 1.392 . S
C501 C505 1.495 . S
C502 C501 1.392 . S
C502 C503 1.385 . S
C502 C504 1.478 . S
C503 H497 0.930 . S
C503 C499 1.400 . S
C503 C502 1.385 . S
C504 C502 1.478 . S
C504 C506 1.381 . S
C504 C510 1.383 . S
C505 C501 1.495 . S
C505 H511 0.959 . S
C505 H512 0.961 . S
C505 H513 0.960 . S
C506 C504 1.381 . S
C506 C507 1.394 . S
C506 H514 0.930 . S
C507 C506 1.394 . S
C507 C508 1.383 . S
C507 H515 0.929 . S
C508 C507 1.383 . S
C508 C509 1.377 . S
C509 H493 0.930 . S
C509 C508 1.377 . S
C509 C510 1.379 . S
C510 H494 0.931 . S
C510 C504 1.383 . S
C510 C509 1.379 . S
H511 C505 0.959 . S
H512 C505 0.961 . S
H513 C505 0.960 . S
H514 C506 0.930 . S
H515 C507 0.929 . S
H516 C524 0.929 . S
H517 C526 0.930 . S
H518 C528 0.930 . S
H519 C531 0.929 . S
H520 C534 0.930 . S
H521 C536 0.960 . S
H522 C536 0.960 . S
H523 C536 0.960 . S
C524 H516 0.929 . S
C524 C525 1.377 . S
C524 C526 1.384 . S
C525 C524 1.377 . S
C525 C531 1.390 . S
C526 H517 0.930 . S
C526 C524 1.384 . S
C526 C527 1.372 . S
C527 C526 1.372 . S
C527 C528 1.400 . S
C527 C532 1.490 . S
C528 H518 0.930 . S
C528 C527 1.400 . S
C528 C531 1.386 . S
H529 C545 0.930 . S
H530 C546 0.931 . S
C531 H519 0.929 . S
C531 C525 1.390 . S
C531 C528 1.386 . S
C532 C527 1.490 . S
C532 C534 1.395 . S
C532 C535 1.403 . S
H533 C539 0.930 . S
C534 H520 0.930 . S
C534 C532 1.395 . S
C534 C537 1.403 . S
C535 C532 1.403 . S
C535 C536 1.524 . S
C535 C539 1.400 . S
C536 H521 0.960 . S
C536 H522 0.960 . S
C536 H523 0.960 . S
C536 C535 1.524 . S
C537 C534 1.403 . S
C537 C538 1.392 . S
C537 C541 1.495 . S
C538 C537 1.392 . S
C538 C539 1.385 . S
C538 C540 1.478 . S
C539 H533 0.930 . S
C539 C535 1.400 . S
C539 C538 1.385 . S
C540 C538 1.478 . S
C540 C542 1.381 . S
C540 C546 1.383 . S
C541 C537 1.495 . S
C541 H547 0.959 . S
C541 H548 0.961 . S
C541 H549 0.960 . S
C542 C540 1.381 . S
C542 C543 1.394 . S
C542 H550 0.930 . S
C543 C542 1.394 . S
C543 C544 1.383 . S
C543 H551 0.929 . S
C544 C543 1.383 . S
C544 C545 1.377 . S
C545 H529 0.930 . S
C545 C544 1.377 . S
C545 C546 1.379 . S
C546 H530 0.931 . S
C546 C540 1.383 . S
C546 C545 1.379 . S
H547 C541 0.959 . S
H548 C541 0.961 . S
H549 C541 0.960 . S
H550 C542 0.930 . S
H551 C543 0.929 . S
H552 C560 0.929 . S
H553 C562 0.930 . S
H554 C564 0.930 . S
H555 C567 0.929 . S
H556 C570 0.930 . S
H557 C572 0.960 . S
H558 C572 0.960 . S
H559 C572 0.960 . S
C560 H552 0.929 . S
C560 C561 1.377 . S
C560 C562 1.384 . S
C561 C560 1.377 . S
C561 C567 1.390 . S
C562 H553 0.930 . S
C562 C560 1.384 . S
C562 C563 1.372 . S
C563 C562 1.372 . S
C563 C564 1.400 . S
C563 C568 1.490 . S
C564 H554 0.930 . S
C564 C563 1.400 . S
C564 C567 1.386 . S
H565 C581 0.930 . S
H566 C582 0.931 . S
C567 H555 0.929 . S
C567 C561 1.390 . S
C567 C564 1.386 . S
C568 C563 1.490 . S
C568 C570 1.395 . S
C568 C571 1.403 . S
H569 C575 0.930 . S
C570 H556 0.930 . S
C570 C568 1.395 . S
C570 C573 1.403 . S
C571 C568 1.403 . S
C571 C572 1.524 . S
C571 C575 1.400 . S
C572 H557 0.960 . S
C572 H558 0.960 . S
C572 H559 0.960 . S
C572 C571 1.524 . S
C573 C570 1.403 . S
C573 C574 1.392 . S
C573 C577 1.495 . S
C574 C573 1.392 . S
C574 C575 1.385 . S
C574 C576 1.478 . S
C575 H569 0.930 . S
C575 C571 1.400 . S
C575 C574 1.385 . S
C576 C574 1.478 . S
C576 C578 1.381 . S
C576 C582 1.383 . S
C577 C573 1.495 . S
C577 H583 0.959 . S
C577 H584 0.961 . S
C577 H585 0.960 . S
C578 C576 1.381 . S
C578 C579 1.394 . S
C578 H586 0.930 . S
C579 C578 1.394 . S
C579 C580 1.383 . S
C579 H587 0.929 . S
C580 C579 1.383 . S
C580 C581 1.377 . S
C581 H565 0.930 . S
C581 C580 1.377 . S
C581 C582 1.379 . S
C582 H566 0.931 . S
C582 C576 1.383 . S
C582 C581 1.379 . S
H583 C577 0.959 . S
H584 C577 0.961 . S
H585 C577 0.960 . S
H586 C578 0.930 . S
H587 C579 0.929 . S
H588 C596 0.929 . S
H589 C598 0.930 . S
H590 C600 0.930 . S
H591 C603 0.929 . S
H592 C606 0.930 . S
H593 C608 0.960 . S
H594 C608 0.960 . S
H595 C608 0.960 . S
C596 H588 0.929 . S
C596 C597 1.377 . S
C596 C598 1.384 . S
C597 C596 1.377 . S
C597 C603 1.390 . S
C598 H589 0.930 . S
C598 C596 1.384 . S
C598 C599 1.372 . S
C599 C598 1.372 . S
C599 C600 1.400 . S
C599 C604 1.490 . S
C600 H590 0.930 . S
C600 C599 1.400 . S
C600 C603 1.386 . S
H601 C617 0.930 . S
H602 C618 0.931 . S
C603 H591 0.929 . S
C603 C597 1.390 . S
C603 C600 1.386 . S
C604 C599 1.490 . S
C604 C606 1.395 . S
C604 C607 1.403 . S
H605 C611 0.930 . S
C606 H592 0.930 . S
C606 C604 1.395 . S
C606 C609 1.403 . S
C607 C604 1.403 . S
C607 C608 1.524 . S
C607 C611 1.400 . S
C608 H593 0.960 . S
C608 H594 0.960 . S
C608 H595 0.960 . S
C608 C607 1.524 . S
C609 C606 1.403 . S
C609 C610 1.392 . S
C609 C613 1.495 . S
C610 C609 1.392 . S
C610 C611 1.385 . S
C610 C612 1.478 . S
C611 H605 0.930 . S
C611 C607 1.400 . S
C611 C610 1.385 . S
C612 C610 1.478 . S
C612 C614 1.381 . S
C612 C618 1.383 . S
C613 C609 1.495 . S
C613 H619 0.959 . S
C613 H620 0.961 . S
C613 H621 0.960 . S
C614 C612 1.381 . S
C614 C615 1.394 . S
C614 H622 0.930 . S
C615 C614 1.394 . S
C615 C616 1.383 . S
C615 H623 0.929 . S
C616 C615 1.383 . S
C616 C617 1.377 . S
C617 H601 0.930 . S
C617 C616 1.377 . S
C617 C618 1.379 . S
C618 H602 0.931 . S
C618 C612 1.383 . S
C618 C617 1.379 . S
H619 C613 0.959 . S
H620 C613 0.961 . S
H621 C613 0.960 . S
H622 C614 0.930 . S
H623 C615 0.929 . S
H624 C632 0.929 . S
H625 C634 0.930 . S
H626 C636 0.930 . S
H627 C639 0.929 . S
H628 C642 0.930 . S
H629 C644 0.960 . S
H630 C644 0.960 . S
H631 C644 0.960 . S
C632 H624 0.929 . S
C632 C633 1.377 . S
C632 C634 1.384 . S
C633 C632 1.377 . S
C633 C639 1.390 1_556 S
C634 H625 0.930 . S
C634 C632 1.384 . S
C634 C635 1.372 . S
C635 C634 1.372 . S
C635 C636 1.400 1_556 S
C635 C640 1.490 . S
C636 H626 0.930 . S
C636 C635 1.400 1_554 S
C636 C639 1.386 . S
H637 C653 0.930 . S
H638 C654 0.931 . S
C639 H627 0.929 . S
C639 C633 1.390 1_554 S
C639 C636 1.386 . S
C640 C635 1.490 . S
C640 C642 1.395 1_556 S
C640 C643 1.403 . S
H641 C647 0.930 . S
C642 H628 0.930 . S
C642 C640 1.395 1_554 S
C642 C645 1.403 . S
C643 C640 1.403 . S
C643 C644 1.524 . S
C643 C647 1.400 . S
C644 H629 0.960 . S
C644 H630 0.960 . S
C644 H631 0.960 . S
C644 C643 1.524 . S
C645 C642 1.403 . S
C645 C646 1.392 . S
C645 C649 1.495 . S
C646 C645 1.392 . S
C646 C647 1.385 1_554 S
C646 C648 1.478 . S
C647 H641 0.930 . S
C647 C643 1.400 . S
C647 C646 1.385 1_556 S
C648 C646 1.478 . S
C648 C650 1.381 1_554 S
C648 C654 1.383 . S
C649 C645 1.495 . S
C649 H655 0.959 . S
C649 H656 0.961 . S
C649 H657 0.960 . S
C650 C648 1.381 1_556 S
C650 C651 1.394 . S
C650 H658 0.930 . S
C651 C650 1.394 . S
C651 C652 1.383 1_556 S
C651 H659 0.929 . S
C652 C651 1.383 1_554 S
C652 C653 1.377 . S
C653 H637 0.930 . S
C653 C652 1.377 . S
C653 C654 1.379 . S
C654 H638 0.931 . S
C654 C648 1.383 . S
C654 C653 1.379 . S
H655 C649 0.959 . S
H656 C649 0.961 . S
H657 C649 0.960 . S
H658 C650 0.930 . S
H659 C651 0.929 . S
H660 C668 0.929 . S
H661 C670 0.930 . S
H662 C672 0.930 . S
H663 C675 0.929 . S
H664 C678 0.930 . S
H665 C680 0.960 . S
H666 C680 0.960 . S
H667 C680 0.960 . S
C668 H660 0.929 . S
C668 C669 1.377 . S
C668 C670 1.384 . S
C669 C668 1.377 . S
C669 C675 1.390 . S
C670 H661 0.930 . S
C670 C668 1.384 . S
C670 C671 1.372 . S
C671 C670 1.372 . S
C671 C672 1.400 . S
C671 C676 1.490 . S
C672 H662 0.930 . S
C672 C671 1.400 . S
C672 C675 1.386 . S
H673 C689 0.930 . S
H674 C690 0.931 . S
C675 H663 0.929 . S
C675 C669 1.390 . S
C675 C672 1.386 . S
C676 C671 1.490 . S
C676 C678 1.395 . S
C676 C679 1.403 . S
H677 C683 0.930 . S
C678 H664 0.930 . S
C678 C676 1.395 . S
C678 C681 1.403 . S
C679 C676 1.403 . S
C679 C680 1.524 . S
C679 C683 1.400 . S
C680 H665 0.960 . S
C680 H666 0.960 . S
C680 H667 0.960 . S
C680 C679 1.524 . S
C681 C678 1.403 . S
C681 C682 1.392 . S
C681 C685 1.495 . S
C682 C681 1.392 . S
C682 C683 1.385 . S
C682 C684 1.478 . S
C683 H677 0.930 . S
C683 C679 1.400 . S
C683 C682 1.385 . S
C684 C682 1.478 . S
C684 C686 1.381 . S
C684 C690 1.383 . S
C685 C681 1.495 . S
C685 H691 0.959 . S
C685 H692 0.961 . S
C685 H693 0.960 . S
C686 C684 1.381 . S
C686 C687 1.394 . S
C686 H694 0.930 . S
C687 C686 1.394 . S
C687 C688 1.383 . S
C687 H695 0.929 . S
C688 C687 1.383 . S
C688 C689 1.377 . S
C689 H673 0.930 . S
C689 C688 1.377 . S
C689 C690 1.379 . S
C690 H674 0.931 . S
C690 C684 1.383 . S
C690 C689 1.379 . S
H691 C685 0.959 . S
H692 C685 0.961 . S
H693 C685 0.960 . S
H694 C686 0.930 . S
H695 C687 0.929 . S
H696 C704 0.929 . S
H697 C706 0.930 . S
H698 C708 0.930 . S
H699 C711 0.929 . S
H700 C714 0.930 . S
H701 C716 0.960 . S
H702 C716 0.960 . S
H703 C716 0.960 . S
C704 H696 0.929 . S
C704 C705 1.377 . S
C704 C706 1.384 . S
C705 C704 1.377 . S
C705 C711 1.390 . S
C706 H697 0.930 . S
C706 C704 1.384 . S
C706 C707 1.372 . S
C707 C706 1.372 . S
C707 C708 1.400 . S
C707 C712 1.490 . S
C708 H698 0.930 . S
C708 C707 1.400 . S
C708 C711 1.386 . S
H709 C725 0.930 . S
H710 C726 0.931 . S
C711 H699 0.929 . S
C711 C705 1.390 . S
C711 C708 1.386 . S
C712 C707 1.490 . S
C712 C714 1.395 . S
C712 C715 1.403 . S
H713 C719 0.930 . S
C714 H700 0.930 . S
C714 C712 1.395 . S
C714 C717 1.403 . S
C715 C712 1.403 . S
C715 C716 1.524 . S
C715 C719 1.400 . S
C716 H701 0.960 . S
C716 H702 0.960 . S
C716 H703 0.960 . S
C716 C715 1.524 . S
C717 C714 1.403 . S
C717 C718 1.392 . S
C717 C721 1.495 . S
C718 C717 1.392 . S
C718 C719 1.385 . S
C718 C720 1.478 . S
C719 H713 0.930 . S
C719 C715 1.400 . S
C719 C718 1.385 . S
C720 C718 1.478 . S
C720 C722 1.381 . S
C720 C726 1.383 . S
C721 C717 1.495 . S
C721 H727 0.959 . S
C721 H728 0.961 . S
C721 H729 0.960 . S
C722 C720 1.381 . S
C722 C723 1.394 . S
C722 H730 0.930 . S
C723 C722 1.394 . S
C723 C724 1.383 . S
C723 H731 0.929 . S
C724 C723 1.383 . S
C724 C725 1.377 . S
C725 H709 0.930 . S
C725 C724 1.377 . S
C725 C726 1.379 . S
C726 H710 0.931 . S
C726 C720 1.383 . S
C726 C725 1.379 . S
H727 C721 0.959 . S
H728 C721 0.961 . S
H729 C721 0.960 . S
H730 C722 0.930 . S
H731 C723 0.929 . S
H732 C740 0.929 . S
H733 C742 0.930 . S
H734 C744 0.930 . S
H735 C747 0.929 . S
H736 C750 0.922 1_455 S
H737 C752 0.960 . S
H738 C752 0.960 . S
H739 C752 0.960 . S
C740 H732 0.929 . S
C740 C741 1.377 . S
C740 C742 1.384 . S
C741 C740 1.377 . S
C741 C747 1.390 . S
C742 H733 0.930 . S
C742 C740 1.384 . S
C742 C743 1.372 . S
C743 C742 1.372 . S
C743 C744 1.400 . S
C743 C748 1.490 . S
C744 H734 0.930 . S
C744 C743 1.400 . S
C744 C747 1.386 . S
H745 C761 0.930 . S
H746 C762 0.931 . S
C747 H735 0.929 . S
C747 C741 1.390 . S
C747 C744 1.386 . S
C748 C743 1.490 . S
C748 C750 1.395 1_455 S
C748 C751 1.403 . S
H749 C755 0.930 . S
C750 H736 0.922 1_655 S
C750 C748 1.395 1_655 S
C750 C753 1.403 . S
C751 C748 1.403 . S
C751 C752 1.524 . S
C751 C755 1.400 1_455 S
C752 H737 0.960 . S
C752 H738 0.960 . S
C752 H739 0.960 . S
C752 C751 1.524 . S
C753 C750 1.403 . S
C753 C754 1.392 . S
C753 C757 1.495 . S
C754 C753 1.392 . S
C754 C755 1.385 . S
C754 C756 1.478 . S
C755 H749 0.930 . S
C755 C751 1.400 1_655 S
C755 C754 1.385 . S
C756 C754 1.478 . S
C756 C758 1.381 . S
C756 C762 1.383 . S
C757 C753 1.495 . S
C757 H763 0.959 . S
C757 H764 0.961 . S
C757 H765 0.960 . S
C758 C756 1.381 . S
C758 C759 1.394 . S
C758 H766 0.930 . S
C759 C758 1.394 . S
C759 C760 1.383 . S
C759 H767 0.929 . S
C760 C759 1.383 . S
C760 C761 1.377 . S
C761 H745 0.930 . S
C761 C760 1.377 . S
C761 C762 1.379 . S
C762 H746 0.931 . S
C762 C756 1.383 . S
C762 C761 1.379 . S
H763 C757 0.959 . S
H764 C757 0.961 . S
H765 C757 0.960 . S
H766 C758 0.930 . S
H767 C759 0.929 . S
H768 C776 0.929 . S
H769 C778 0.930 . S
H770 C780 0.930 . S
H771 C783 0.929 . S
H772 C786 0.930 . S
H773 C788 0.960 . S
H774 C788 0.960 . S
H775 C788 0.960 . S
C776 H768 0.929 . S
C776 C777 1.377 . S
C776 C778 1.384 . S
C777 C776 1.377 . S
C777 C783 1.390 . S
C778 H769 0.930 . S
C778 C776 1.384 . S
C778 C779 1.372 . S
C779 C778 1.372 . S
C779 C780 1.400 . S
C779 C784 1.490 . S
C780 H770 0.930 . S
C780 C779 1.400 . S
C780 C783 1.386 . S
H781 C797 0.930 . S
H782 C798 0.931 . S
C783 H771 0.929 . S
C783 C777 1.390 . S
C783 C780 1.386 . S
C784 C779 1.490 . S
C784 C786 1.395 . S
C784 C787 1.403 . S
H785 C791 0.930 . S
C786 H772 0.930 . S
C786 C784 1.395 . S
C786 C789 1.403 . S
C787 C784 1.403 . S
C787 C788 1.524 . S
C787 C791 1.400 . S
C788 H773 0.960 . S
C788 H774 0.960 . S
C788 H775 0.960 . S
C788 C787 1.524 . S
C789 C786 1.403 . S
C789 C790 1.392 . S
C789 C793 1.495 . S
C790 C789 1.392 . S
C790 C791 1.385 . S
C790 C792 1.478 . S
C791 H785 0.930 . S
C791 C787 1.400 . S
C791 C790 1.385 . S
C792 C790 1.478 . S
C792 C794 1.381 . S
C792 C798 1.383 . S
C793 C789 1.495 . S
C793 H799 0.959 . S
C793 H800 0.961 . S
C793 H801 0.960 . S
C794 C792 1.381 . S
C794 C795 1.394 . S
C794 H802 0.930 . S
C795 C794 1.394 . S
C795 C796 1.383 . S
C795 H803 0.929 . S
C796 C795 1.383 . S
C796 C797 1.377 . S
C797 H781 0.930 . S
C797 C796 1.377 . S
C797 C798 1.379 . S
C798 H782 0.931 . S
C798 C792 1.383 . S
C798 C797 1.379 . S
H799 C793 0.959 . S
H800 C793 0.961 . S
H801 C793 0.960 . S
H802 C794 0.930 . S
H803 C795 0.929 . S
H804 C812 0.929 1_565 S
H805 C814 0.930 . S
H806 C816 0.930 . S
H807 C819 0.929 . S
H808 C822 0.930 . S
H809 C824 0.960 . S
H810 C824 0.960 . S
H811 C824 0.960 1_545 S
C812 H804 0.929 1_545 S
C812 C813 1.377 . S
C812 C814 1.384 1_545 S
C813 C812 1.377 . S
C813 C819 1.390 . S
C814 H805 0.930 . S
C814 C812 1.384 1_565 S
C814 C815 1.372 1_565 S
C815 C814 1.372 1_545 S
C815 C816 1.400 . S
C815 C820 1.490 1_545 S
C816 H806 0.930 . S
C816 C815 1.400 . S
C816 C819 1.386 . S
H817 C833 0.930 . S
H818 C834 0.931 . S
C819 H807 0.929 . S
C819 C813 1.390 . S
C819 C816 1.386 . S
C820 C815 1.490 1_565 S
C820 C822 1.395 . S
C820 C823 1.403 . S
H821 C827 0.930 . S
C822 H808 0.930 . S
C822 C820 1.395 . S
C822 C825 1.403 . S
C823 C820 1.403 . S
C823 C824 1.524 . S
C823 C827 1.400 . S
C824 H809 0.960 . S
C824 H810 0.960 . S
C824 H811 0.960 1_565 S
C824 C823 1.524 . S
C825 C822 1.403 . S
C825 C826 1.392 . S
C825 C829 1.495 . S
C826 C825 1.392 . S
C826 C827 1.385 . S
C826 C828 1.478 . S
C827 H821 0.930 . S
C827 C823 1.400 . S
C827 C826 1.385 . S
C828 C826 1.478 . S
C828 C830 1.381 . S
C828 C834 1.383 . S
C829 C825 1.495 . S
C829 H835 0.959 . S
C829 H836 0.961 . S
C829 H837 0.960 . S
C830 C828 1.381 . S
C830 C831 1.394 . S
C830 H838 0.930 . S
C831 C830 1.394 . S
C831 C832 1.383 . S
C831 H839 0.929 . S
C832 C831 1.383 . S
C832 C833 1.377 . S
C833 H817 0.930 . S
C833 C832 1.377 . S
C833 C834 1.379 . S
C834 H818 0.931 . S
C834 C828 1.383 . S
C834 C833 1.379 . S
H835 C829 0.959 . S
H836 C829 0.961 . S
H837 C829 0.960 . S
H838 C830 0.930 . S
H839 C831 0.929 . S
H840 C848 0.929 . S
H841 C850 0.930 . S
H842 C852 0.930 . S
H843 C855 0.929 . S
H844 C858 0.930 . S
H845 C860 0.960 . S
H846 C860 0.960 . S
H847 C860 0.960 . S
C848 H840 0.929 . S
C848 C849 1.377 . S
C848 C850 1.384 . S
C849 C848 1.377 . S
C849 C855 1.390 . S
C850 H841 0.930 . S
C850 C848 1.384 . S
C850 C851 1.372 . S
C851 C850 1.372 . S
C851 C852 1.400 . S
C851 C856 1.490 . S
C852 H842 0.930 . S
C852 C851 1.400 . S
C852 C855 1.386 . S
H853 C869 0.930 . S
H854 C870 0.931 . S
C855 H843 0.929 . S
C855 C849 1.390 . S
C855 C852 1.386 . S
C856 C851 1.490 . S
C856 C858 1.395 . S
C856 C859 1.403 . S
H857 C863 0.930 . S
C858 H844 0.930 . S
C858 C856 1.395 . S
C858 C861 1.403 . S
C859 C856 1.403 . S
C859 C860 1.524 . S
C859 C863 1.400 . S
C860 H845 0.960 . S
C860 H846 0.960 . S
C860 H847 0.960 . S
C860 C859 1.524 . S
C861 C858 1.403 . S
C861 C862 1.392 . S
C861 C865 1.495 . S
C862 C861 1.392 . S
C862 C863 1.385 . S
C862 C864 1.478 . S
C863 H857 0.930 . S
C863 C859 1.400 . S
C863 C862 1.385 . S
C864 C862 1.478 . S
C864 C866 1.381 . S
C864 C870 1.383 . S
C865 C861 1.495 . S
C865 H871 0.959 . S
C865 H872 0.961 . S
C865 H873 0.960 . S
C866 C864 1.381 . S
C866 C867 1.394 . S
C866 H874 0.930 . S
C867 C866 1.394 . S
C867 C868 1.383 . S
C867 H875 0.929 . S
C868 C867 1.383 . S
C868 C869 1.377 . S
C869 H853 0.930 . S
C869 C868 1.377 . S
C869 C870 1.379 . S
C870 H854 0.931 . S
C870 C864 1.383 . S
C870 C869 1.379 . S
H871 C865 0.959 . S
H872 C865 0.961 . S
H873 C865 0.960 . S
H874 C866 0.930 . S
H875 C867 0.929 . S
H876 C884 0.929 . S
H877 C886 0.930 . S
H878 C888 0.930 . S
H879 C891 0.929 . S
H880 C894 0.930 . S
H881 C896 0.960 . S
H882 C896 0.960 . S
H883 C896 0.960 . S
C884 H876 0.929 . S
C884 C885 1.377 . S
C884 C886 1.384 . S
C885 C884 1.377 . S
C885 C891 1.390 . S
C886 H877 0.930 . S
C886 C884 1.384 . S
C886 C887 1.372 . S
C887 C886 1.372 . S
C887 C888 1.400 . S
C887 C892 1.490 . S
C888 H878 0.930 . S
C888 C887 1.400 . S
C888 C891 1.386 . S
H889 C905 0.930 . S
H890 C906 0.931 . S
C891 H879 0.929 . S
C891 C885 1.390 . S
C891 C888 1.386 . S
C892 C887 1.490 . S
C892 C894 1.395 . S
C892 C895 1.403 . S
H893 C899 0.930 . S
C894 H880 0.930 . S
C894 C892 1.395 . S
C894 C897 1.403 . S
C895 C892 1.403 . S
C895 C896 1.524 . S
C895 C899 1.400 . S
C896 H881 0.960 . S
C896 H882 0.960 . S
C896 H883 0.960 . S
C896 C895 1.524 . S
C897 C894 1.403 . S
C897 C898 1.392 . S
C897 C901 1.495 . S
C898 C897 1.392 . S
C898 C899 1.385 . S
C898 C900 1.478 . S
C899 H893 0.930 . S
C899 C895 1.400 . S
C899 C898 1.385 . S
C900 C898 1.478 . S
C900 C902 1.381 . S
C900 C906 1.383 . S
C901 C897 1.495 . S
C901 H907 0.959 . S
C901 H908 0.961 . S
C901 H909 0.960 . S
C902 C900 1.381 . S
C902 C903 1.394 . S
C902 H910 0.930 . S
C903 C902 1.394 . S
C903 C904 1.383 . S
C903 H911 0.929 . S
C904 C903 1.383 . S
C904 C905 1.377 . S
C905 H889 0.930 . S
C905 C904 1.377 . S
C905 C906 1.379 . S
C906 H890 0.931 . S
C906 C900 1.383 . S
C906 C905 1.379 . S
H907 C901 0.959 . S
H908 C901 0.961 . S
H909 C901 0.960 . S
H910 C902 0.930 . S
H911 C903 0.929 . S
H912 C920 0.929 . S
H913 C922 0.930 . S
H914 C924 0.930 . S
H915 C927 0.929 . S
H916 C930 0.930 . S
H917 C932 0.960 . S
H918 C932 0.960 . S
H919 C932 0.960 . S
C920 H912 0.929 . S
C920 C921 1.377 . S
C920 C922 1.384 . S
C921 C920 1.377 . S
C921 C927 1.390 . S
C922 H913 0.930 . S
C922 C920 1.384 . S
C922 C923 1.372 . S
C923 C922 1.372 . S
C923 C924 1.400 . S
C923 C928 1.490 . S
C924 H914 0.930 . S
C924 C923 1.400 . S
C924 C927 1.386 . S
H925 C941 0.930 . S
H926 C942 0.931 . S
C927 H915 0.929 . S
C927 C921 1.390 . S
C927 C924 1.386 . S
C928 C923 1.490 . S
C928 C930 1.395 . S
C928 C931 1.403 . S
H929 C935 0.930 . S
C930 H916 0.930 . S
C930 C928 1.395 . S
C930 C933 1.403 . S
C931 C928 1.403 . S
C931 C932 1.524 . S
C931 C935 1.400 . S
C932 H917 0.960 . S
C932 H918 0.960 . S
C932 H919 0.960 . S
C932 C931 1.524 . S
C933 C930 1.403 . S
C933 C934 1.392 . S
C933 C937 1.495 . S
C934 C933 1.392 . S
C934 C935 1.385 . S
C934 C936 1.478 . S
C935 H929 0.930 . S
C935 C931 1.400 . S
C935 C934 1.385 . S
C936 C934 1.478 . S
C936 C938 1.381 . S
C936 C942 1.383 . S
C937 C933 1.495 . S
C937 H943 0.959 . S
C937 H944 0.961 . S
C937 H945 0.960 . S
C938 C936 1.381 . S
C938 C939 1.394 . S
C938 H946 0.930 . S
C939 C938 1.394 . S
C939 C940 1.383 . S
C939 H947 0.929 . S
C940 C939 1.383 . S
C940 C941 1.377 . S
C941 H925 0.930 . S
C941 C940 1.377 . S
C941 C942 1.379 . S
C942 H926 0.931 . S
C942 C936 1.383 . S
C942 C941 1.379 . S
H943 C937 0.959 . S
H944 C937 0.961 . S
H945 C937 0.960 . S
H946 C938 0.930 . S
H947 C939 0.929 . S
H948 C956 0.929 . S
H949 C958 0.930 . S
H950 C960 0.930 . S
H951 C963 0.929 1_565 S
H952 C966 0.930 1_545 S
H953 C968 0.960 . S
H954 C968 0.960 . S
H955 C968 0.960 . S
C956 H948 0.929 . S
C956 C957 1.377 1_455 S
C956 C958 1.384 . S
C957 C956 1.377 1_655 S
C957 C963 1.390 . S
C958 H949 0.930 . S
C958 C956 1.384 . S
C958 C959 1.368 . S
C959 C958 1.368 . S
C959 C960 1.401 1_545 S
C959 C964 1.492 1_545 S
C960 H950 0.930 . S
C960 C959 1.401 1_565 S
C960 C963 1.386 1_465 S
H961 C977 0.930 . S
H962 C978 0.931 . S
C963 H951 0.929 1_545 S
C963 C957 1.390 . S
C963 C960 1.386 1_645 S
C964 C959 1.492 1_565 S
C964 C966 1.395 . S
C964 C967 1.403 . S
H965 C971 0.930 . S
C966 H952 0.930 1_565 S
C966 C964 1.395 . S
C966 C969 1.403 . S
C967 C964 1.403 . S
C967 C968 1.524 . S
C967 C971 1.400 . S
C968 H953 0.960 . S
C968 H954 0.960 . S
C968 H955 0.960 . S
C968 C967 1.524 . S
C969 C966 1.403 . S
C969 C970 1.392 . S
C969 C973 1.495 . S
C970 C969 1.392 . S
C970 C971 1.385 . S
C970 C972 1.478 . S
C971 H965 0.930 . S
C971 C967 1.400 . S
C971 C970 1.385 . S
C972 C970 1.478 . S
C972 C974 1.381 . S
C972 C978 1.383 . S
C973 C969 1.495 . S
C973 H979 0.959 . S
C973 H980 0.961 . S
C973 H981 0.960 . S
C974 C972 1.381 . S
C974 C975 1.394 . S
C974 H982 0.930 . S
C975 C974 1.394 . S
C975 C976 1.383 . S
C975 H983 0.929 . S
C976 C975 1.383 . S
C976 C977 1.377 . S
C977 H961 0.930 . S
C977 C976 1.377 . S
C977 C978 1.379 . S
C978 H962 0.931 . S
C978 C972 1.383 . S
C978 C977 1.379 . S
H979 C973 0.959 . S
H980 C973 0.961 . S
H981 C973 0.960 . S
H982 C974 0.930 . S
H983 C975 0.929 . S
H984 C992 0.929 . S
H985 C994 0.930 . S
H986 C996 0.930 . S
H987 C999 0.929 . S
H988 C1002 0.930 . S
H989 C1004 0.960 . S
H990 C1004 0.960 . S
H991 C1004 0.960 . S
C992 H984 0.929 . S
C992 C993 1.377 . S
C992 C994 1.384 . S
C993 C992 1.377 . S
C993 C999 1.390 . S
C994 H985 0.930 . S
C994 C992 1.384 . S
C994 C995 1.372 . S
C995 C994 1.372 . S
C995 C996 1.400 . S
C995 C1000 1.490 . S
C996 H986 0.930 . S
C996 C995 1.400 . S
C996 C999 1.386 . S
H997 C1013 0.930 . S
H998 C1014 0.931 . S
C999 H987 0.929 . S
C999 C993 1.390 . S
C999 C996 1.386 . S
C1000 C995 1.490 . S
C1000 C1002 1.395 . S
C1000 C1003 1.403 . S
H1001 C1007 0.930 . S
C1002 H988 0.930 . S
C1002 C1000 1.395 . S
C1002 C1005 1.403 . S
C1003 C1000 1.403 . S
C1003 C1004 1.524 . S
C1003 C1007 1.400 . S
C1004 H989 0.960 . S
C1004 H990 0.960 . S
C1004 H991 0.960 . S
C1004 C1003 1.524 . S
C1005 C1002 1.403 . S
C1005 C1006 1.392 . S
C1005 C1009 1.495 . S
C1006 C1005 1.392 . S
C1006 C1007 1.385 . S
C1006 C1008 1.478 . S
C1007 H1001 0.930 . S
C1007 C1003 1.400 . S
C1007 C1006 1.385 . S
C1008 C1006 1.478 . S
C1008 C1010 1.381 . S
C1008 C1014 1.383 . S
C1009 C1005 1.495 . S
C1009 H1015 0.959 . S
C1009 H1016 0.961 . S
C1009 H1017 0.960 . S
C1010 C1008 1.381 . S
C1010 C1011 1.394 . S
C1010 H1018 0.930 . S
C1011 C1010 1.394 . S
C1011 C1012 1.383 . S
C1011 H1019 0.929 . S
C1012 C1011 1.383 . S
C1012 C1013 1.377 . S
C1013 H997 0.930 . S
C1013 C1012 1.377 . S
C1013 C1014 1.379 . S
C1014 H998 0.931 . S
C1014 C1008 1.383 . S
C1014 C1013 1.379 . S
H1015 C1009 0.959 . S
H1016 C1009 0.961 . S
H1017 C1009 0.960 . S
H1018 C1010 0.930 . S
H1019 C1011 0.929 . S
H1020 C1028 0.929 . S
H1021 C1030 0.930 . S
H1022 C1032 0.930 . S
H1023 C1035 0.929 . S
H1024 C1038 0.930 . S
H1025 C1040 0.960 . S
H1026 C1040 0.960 . S
H1027 C1040 0.960 . S
C1028 H1020 0.929 . S
C1028 C1029 1.377 . S
C1028 C1030 1.384 . S
C1029 C1028 1.377 . S
C1029 C1035 1.390 . S
C1030 H1021 0.930 . S
C1030 C1028 1.384 . S
C1030 C1031 1.372 . S
C1031 C1030 1.372 . S
C1031 C1032 1.400 . S
C1031 C1036 1.490 . S
C1032 H1022 0.930 . S
C1032 C1031 1.400 . S
C1032 C1035 1.386 . S
H1033 C1049 0.930 . S
H1034 C1050 0.931 . S
C1035 H1023 0.929 . S
C1035 C1029 1.390 . S
C1035 C1032 1.386 . S
C1036 C1031 1.490 . S
C1036 C1038 1.395 . S
C1036 C1039 1.403 . S
H1037 C1043 0.930 . S
C1038 H1024 0.930 . S
C1038 C1036 1.395 . S
C1038 C1041 1.403 . S
C1039 C1036 1.403 . S
C1039 C1040 1.524 . S
C1039 C1043 1.400 . S
C1040 H1025 0.960 . S
C1040 H1026 0.960 . S
C1040 H1027 0.960 . S
C1040 C1039 1.524 . S
C1041 C1038 1.403 . S
C1041 C1042 1.392 . S
C1041 C1045 1.495 . S
C1042 C1041 1.392 . S
C1042 C1043 1.385 . S
C1042 C1044 1.478 . S
C1043 H1037 0.930 . S
C1043 C1039 1.400 . S
C1043 C1042 1.385 . S
C1044 C1042 1.478 . S
C1044 C1046 1.381 . S
C1044 C1050 1.383 . S
C1045 C1041 1.495 . S
C1045 H1051 0.959 . S
C1045 H1052 0.961 . S
C1045 H1053 0.960 . S
C1046 C1044 1.381 . S
C1046 C1047 1.394 . S
C1046 H1054 0.930 . S
C1047 C1046 1.394 . S
C1047 C1048 1.383 . S
C1047 H1055 0.929 . S
C1048 C1047 1.383 . S
C1048 C1049 1.377 . S
C1049 H1033 0.930 . S
C1049 C1048 1.377 . S
C1049 C1050 1.379 . S
C1050 H1034 0.931 . S
C1050 C1044 1.383 . S
C1050 C1049 1.379 . S
H1051 C1045 0.959 . S
H1052 C1045 0.961 . S
H1053 C1045 0.960 . S
H1054 C1046 0.930 . S
H1055 C1047 0.929 . S
H1056 C1064 0.929 . S
H1057 C1066 0.930 . S
H1058 C1068 0.930 . S
H1059 C1071 0.929 . S
H1060 C1074 0.930 . S
H1061 C1076 0.960 . S
H1062 C1076 0.960 . S
H1063 C1076 0.960 . S
C1064 H1056 0.929 . S
C1064 C1065 1.377 . S
C1064 C1066 1.384 . S
C1065 C1064 1.377 . S
C1065 C1071 1.390 . S
C1066 H1057 0.930 . S
C1066 C1064 1.384 . S
C1066 C1067 1.372 . S
C1067 C1066 1.372 . S
C1067 C1068 1.400 . S
C1067 C1072 1.490 . S
C1068 H1058 0.930 . S
C1068 C1067 1.400 . S
C1068 C1071 1.386 . S
H1069 C1085 0.930 . S
H1070 C1086 0.931 . S
C1071 H1059 0.929 . S
C1071 C1065 1.390 . S
C1071 C1068 1.386 . S
C1072 C1067 1.490 . S
C1072 C1074 1.395 . S
C1072 C1075 1.403 . S
H1073 C1079 0.930 . S
C1074 H1060 0.930 . S
C1074 C1072 1.395 . S
C1074 C1077 1.403 . S
C1075 C1072 1.403 . S
C1075 C1076 1.524 . S
C1075 C1079 1.400 . S
C1076 H1061 0.960 . S
C1076 H1062 0.960 . S
C1076 H1063 0.960 . S
C1076 C1075 1.524 . S
C1077 C1074 1.403 . S
C1077 C1078 1.392 . S
C1077 C1081 1.495 . S
C1078 C1077 1.392 . S
C1078 C1079 1.385 . S
C1078 C1080 1.478 . S
C1079 H1073 0.930 . S
C1079 C1075 1.400 . S
C1079 C1078 1.385 . S
C1080 C1078 1.478 . S
C1080 C1082 1.381 . S
C1080 C1086 1.383 . S
C1081 C1077 1.495 . S
C1081 H1087 0.959 . S
C1081 H1088 0.961 . S
C1081 H1089 0.960 . S
C1082 C1080 1.381 . S
C1082 C1083 1.394 . S
C1082 H1090 0.930 . S
C1083 C1082 1.394 . S
C1083 C1084 1.383 . S
C1083 H1091 0.929 . S
C1084 C1083 1.383 . S
C1084 C1085 1.377 . S
C1085 H1069 0.930 . S
C1085 C1084 1.377 . S
C1085 C1086 1.379 . S
C1086 H1070 0.931 . S
C1086 C1080 1.383 . S
C1086 C1085 1.379 . S
H1087 C1081 0.959 . S
H1088 C1081 0.961 . S
H1089 C1081 0.960 . S
H1090 C1082 0.930 . S
H1091 C1083 0.929 . S
H1092 C1100 0.929 . S
H1093 C1102 0.930 . S
H1094 C1104 0.930 . S
H1095 C1107 0.929 . S
H1096 C1110 0.930 . S
H1097 C1112 0.960 . S
H1098 C1112 0.960 . S
H1099 C1112 0.960 . S
C1100 H1092 0.929 . S
C1100 C1101 1.377 . S
C1100 C1102 1.384 . S
C1101 C1100 1.377 . S
C1101 C1107 1.390 . S
C1102 H1093 0.930 . S
C1102 C1100 1.384 . S
C1102 C1103 1.372 . S
C1103 C1102 1.372 . S
C1103 C1104 1.400 . S
C1103 C1108 1.490 . S
C1104 H1094 0.930 . S
C1104 C1103 1.400 . S
C1104 C1107 1.386 . S
H1105 C1121 0.930 . S
H1106 C1122 0.931 . S
C1107 H1095 0.929 . S
C1107 C1101 1.390 . S
C1107 C1104 1.386 . S
C1108 C1103 1.490 . S
C1108 C1110 1.395 . S
C1108 C1111 1.403 . S
H1109 C1115 0.930 . S
C1110 H1096 0.930 . S
C1110 C1108 1.395 . S
C1110 C1113 1.403 . S
C1111 C1108 1.403 . S
C1111 C1112 1.524 . S
C1111 C1115 1.400 . S
C1112 H1097 0.960 . S
C1112 H1098 0.960 . S
C1112 H1099 0.960 . S
C1112 C1111 1.524 . S
C1113 C1110 1.403 . S
C1113 C1114 1.392 . S
C1113 C1117 1.495 . S
C1114 C1113 1.392 . S
C1114 C1115 1.385 . S
C1114 C1116 1.478 . S
C1115 H1109 0.930 . S
C1115 C1111 1.400 . S
C1115 C1114 1.385 . S
C1116 C1114 1.478 . S
C1116 C1118 1.381 . S
C1116 C1122 1.383 . S
C1117 C1113 1.495 . S
C1117 H1123 0.959 . S
C1117 H1124 0.961 . S
C1117 H1125 0.960 . S
C1118 C1116 1.381 . S
C1118 C1119 1.394 . S
C1118 H1126 0.930 . S
C1119 C1118 1.394 . S
C1119 C1120 1.383 . S
C1119 H1127 0.929 . S
C1120 C1119 1.383 . S
C1120 C1121 1.377 . S
C1121 H1105 0.930 . S
C1121 C1120 1.377 . S
C1121 C1122 1.379 . S
C1122 H1106 0.931 . S
C1122 C1116 1.383 . S
C1122 C1121 1.379 . S
H1123 C1117 0.959 . S
H1124 C1117 0.961 . S
H1125 C1117 0.960 . S
H1126 C1118 0.930 . S
H1127 C1119 0.929 . S
H1128 C1136 0.929 . S
H1129 C1138 0.930 . S
H1130 C1140 0.930 . S
H1131 C1143 0.929 . S
H1132 C1146 0.930 . S
H1133 C1148 0.960 . S
H1134 C1148 0.960 . S
H1135 C1148 0.960 . S
C1136 H1128 0.929 . S
C1136 C1137 1.377 . S
C1136 C1138 1.384 . S
C1137 C1136 1.377 . S
C1137 C1143 1.390 . S
C1138 H1129 0.930 . S
C1138 C1136 1.384 . S
C1138 C1139 1.372 . S
C1139 C1138 1.372 . S
C1139 C1140 1.400 . S
C1139 C1144 1.490 . S
C1140 H1130 0.930 . S
C1140 C1139 1.400 . S
C1140 C1143 1.386 . S
H1141 C1157 0.930 . S
H1142 C1158 0.931 . S
C1143 H1131 0.929 . S
C1143 C1137 1.390 . S
C1143 C1140 1.386 . S
C1144 C1139 1.490 . S
C1144 C1146 1.395 . S
C1144 C1147 1.403 . S
H1145 C1151 0.930 . S
C1146 H1132 0.930 . S
C1146 C1144 1.395 . S
C1146 C1149 1.403 . S
C1147 C1144 1.403 . S
C1147 C1148 1.524 . S
C1147 C1151 1.400 . S
C1148 H1133 0.960 . S
C1148 H1134 0.960 . S
C1148 H1135 0.960 . S
C1148 C1147 1.524 . S
C1149 C1146 1.403 . S
C1149 C1150 1.392 . S
C1149 C1153 1.495 . S
C1150 C1149 1.392 . S
C1150 C1151 1.385 . S
C1150 C1152 1.478 . S
C1151 H1145 0.930 . S
C1151 C1147 1.400 . S
C1151 C1150 1.385 . S
C1152 C1150 1.478 . S
C1152 C1154 1.381 . S
C1152 C1158 1.383 . S
C1153 C1149 1.495 . S
C1153 H1159 0.959 . S
C1153 H1160 0.961 . S
C1153 H1161 0.960 . S
C1154 C1152 1.381 . S
C1154 C1155 1.394 . S
C1154 H1162 0.930 . S
C1155 C1154 1.394 . S
C1155 C1156 1.383 . S
C1155 H1163 0.929 . S
C1156 C1155 1.383 . S
C1156 C1157 1.377 . S
C1157 H1141 0.930 . S
C1157 C1156 1.377 . S
C1157 C1158 1.379 . S
C1158 H1142 0.931 . S
C1158 C1152 1.383 . S
C1158 C1157 1.379 . S
H1159 C1153 0.959 . S
H1160 C1153 0.961 . S
H1161 C1153 0.960 . S
H1162 C1154 0.930 . S
H1163 C1155 0.929 . S
H1164 C1172 0.929 . S
H1165 C1174 0.930 . S
H1166 C1176 0.930 . S
H1167 C1179 0.929 . S
H1168 C1182 0.930 . S
H1169 C1184 0.960 . S
H1170 C1184 0.960 . S
H1171 C1184 0.960 . S
C1172 H1164 0.929 . S
C1172 C1173 1.377 . S
C1172 C1174 1.384 . S
C1173 C1172 1.377 . S
C1173 C1179 1.390 . S
C1174 H1165 0.930 . S
C1174 C1172 1.384 . S
C1174 C1175 1.372 . S
C1175 C1174 1.372 . S
C1175 C1176 1.400 . S
C1175 C1180 1.490 . S
C1176 H1166 0.930 . S
C1176 C1175 1.400 . S
C1176 C1179 1.386 . S
H1177 C1193 0.930 . S
H1178 C1194 0.931 . S
C1179 H1167 0.929 . S
C1179 C1173 1.390 . S
C1179 C1176 1.386 . S
C1180 C1175 1.490 . S
C1180 C1182 1.395 . S
C1180 C1183 1.403 . S
H1181 C1187 0.930 . S
C1182 H1168 0.930 . S
C1182 C1180 1.395 . S
C1182 C1185 1.403 . S
C1183 C1180 1.403 . S
C1183 C1184 1.524 . S
C1183 C1187 1.400 . S
C1184 H1169 0.960 . S
C1184 H1170 0.960 . S
C1184 H1171 0.960 . S
C1184 C1183 1.524 . S
C1185 C1182 1.403 . S
C1185 C1186 1.392 . S
C1185 C1189 1.495 . S
C1186 C1185 1.392 . S
C1186 C1187 1.385 . S
C1186 C1188 1.478 . S
C1187 H1181 0.930 . S
C1187 C1183 1.400 . S
C1187 C1186 1.385 . S
C1188 C1186 1.478 . S
C1188 C1190 1.381 . S
C1188 C1194 1.383 . S
C1189 C1185 1.495 . S
C1189 H1195 0.959 . S
C1189 H1196 0.961 . S
C1189 H1197 0.960 . S
C1190 C1188 1.381 . S
C1190 C1191 1.394 . S
C1190 H1198 0.930 . S
C1191 C1190 1.394 . S
C1191 C1192 1.383 . S
C1191 H1199 0.929 . S
C1192 C1191 1.383 . S
C1192 C1193 1.377 . S
C1193 H1177 0.930 . S
C1193 C1192 1.377 . S
C1193 C1194 1.379 . S
C1194 H1178 0.931 . S
C1194 C1188 1.383 . S
C1194 C1193 1.379 . S
H1195 C1189 0.959 . S
H1196 C1189 0.961 . S
H1197 C1189 0.960 . S
H1198 C1190 0.930 . S
H1199 C1191 0.929 . S
H1200 C1208 0.929 . S
H1201 C1210 0.930 . S
H1202 C1212 0.930 . S
H1203 C1215 0.929 . S
H1204 C1218 0.930 . S
H1205 C1220 0.960 . S
H1206 C1220 0.960 . S
H1207 C1220 0.960 . S
C1208 H1200 0.929 . S
C1208 C1209 1.377 . S
C1208 C1210 1.384 . S
C1209 C1208 1.377 . S
C1209 C1215 1.390 . S
C1210 H1201 0.930 . S
C1210 C1208 1.384 . S
C1210 C1211 1.372 . S
C1211 C1210 1.372 . S
C1211 C1212 1.400 . S
C1211 C1216 1.490 . S
C1212 H1202 0.930 . S
C1212 C1211 1.400 . S
C1212 C1215 1.386 . S
H1213 C1229 0.930 . S
H1214 C1230 0.931 . S
C1215 H1203 0.929 . S
C1215 C1209 1.390 . S
C1215 C1212 1.386 . S
C1216 C1211 1.490 . S
C1216 C1218 1.395 . S
C1216 C1219 1.403 . S
H1217 C1223 0.930 . S
C1218 H1204 0.930 . S
C1218 C1216 1.395 . S
C1218 C1221 1.403 . S
C1219 C1216 1.403 . S
C1219 C1220 1.524 . S
C1219 C1223 1.400 . S
C1220 H1205 0.960 . S
C1220 H1206 0.960 . S
C1220 H1207 0.960 . S
C1220 C1219 1.524 . S
C1221 C1218 1.403 . S
C1221 C1222 1.392 . S
C1221 C1225 1.495 . S
C1222 C1221 1.392 . S
C1222 C1223 1.385 . S
C1222 C1224 1.478 . S
C1223 H1217 0.930 . S
C1223 C1219 1.400 . S
C1223 C1222 1.385 . S
C1224 C1222 1.478 . S
C1224 C1226 1.381 . S
C1224 C1230 1.383 . S
C1225 C1221 1.495 . S
C1225 H1231 0.959 . S
C1225 H1232 0.961 . S
C1225 H1233 0.960 . S
C1226 C1224 1.381 . S
C1226 C1227 1.394 . S
C1226 H1234 0.930 . S
C1227 C1226 1.394 . S
C1227 C1228 1.383 . S
C1227 H1235 0.929 . S
C1228 C1227 1.383 . S
C1228 C1229 1.377 . S
C1229 H1213 0.930 . S
C1229 C1228 1.377 . S
C1229 C1230 1.379 . S
C1230 H1214 0.931 . S
C1230 C1224 1.383 . S
C1230 C1229 1.379 . S
H1231 C1225 0.959 . S
H1232 C1225 0.961 . S
H1233 C1225 0.960 . S
H1234 C1226 0.930 . S
H1235 C1227 0.929 . S
H1236 C1244 0.929 . S
H1237 C1246 0.930 . S
H1238 C1248 0.930 . S
H1239 C1251 0.929 . S
H1240 C1254 0.930 . S
H1241 C1256 0.960 . S
H1242 C1256 0.960 . S
H1243 C1256 0.960 . S
C1244 H1236 0.929 . S
C1244 C1245 1.377 . S
C1244 C1246 1.384 . S
C1245 C1244 1.377 . S
C1245 C1251 1.390 . S
C1246 H1237 0.930 . S
C1246 C1244 1.384 . S
C1246 C1247 1.372 . S
C1247 C1246 1.372 . S
C1247 C1248 1.400 . S
C1247 C1252 1.490 . S
C1248 H1238 0.930 . S
C1248 C1247 1.400 . S
C1248 C1251 1.386 . S
H1249 C1265 0.930 . S
H1250 C1266 0.931 . S
C1251 H1239 0.929 . S
C1251 C1245 1.390 . S
C1251 C1248 1.386 . S
C1252 C1247 1.490 . S
C1252 C1254 1.395 . S
C1252 C1255 1.403 . S
H1253 C1259 0.930 . S
C1254 H1240 0.930 . S
C1254 C1252 1.395 . S
C1254 C1257 1.403 . S
C1255 C1252 1.403 . S
C1255 C1256 1.524 . S
C1255 C1259 1.400 . S
C1256 H1241 0.960 . S
C1256 H1242 0.960 . S
C1256 H1243 0.960 . S
C1256 C1255 1.524 . S
C1257 C1254 1.403 . S
C1257 C1258 1.392 . S
C1257 C1261 1.495 . S
C1258 C1257 1.392 . S
C1258 C1259 1.385 . S
C1258 C1260 1.478 . S
C1259 H1253 0.930 . S
C1259 C1255 1.400 . S
C1259 C1258 1.385 . S
C1260 C1258 1.478 . S
C1260 C1262 1.381 . S
C1260 C1266 1.383 . S
C1261 C1257 1.495 . S
C1261 H1267 0.959 . S
C1261 H1268 0.961 . S
C1261 H1269 0.960 . S
C1262 C1260 1.381 . S
C1262 C1263 1.394 . S
C1262 H1270 0.930 . S
C1263 C1262 1.394 . S
C1263 C1264 1.383 . S
C1263 H1271 0.929 . S
C1264 C1263 1.383 . S
C1264 C1265 1.377 . S
C1265 H1249 0.930 . S
C1265 C1264 1.377 . S
C1265 C1266 1.379 . S
C1266 H1250 0.931 . S
C1266 C1260 1.383 . S
C1266 C1265 1.379 . S
H1267 C1261 0.959 . S
H1268 C1261 0.961 . S
H1269 C1261 0.960 . S
H1270 C1262 0.930 . S
H1271 C1263 0.929 . S
H1272 C1280 0.929 . S
H1273 C1282 0.930 . S
H1274 C1284 0.930 . S
H1275 C1287 0.929 . S
H1276 C1290 0.930 . S
H1277 C1292 0.960 . S
H1278 C1292 0.960 . S
H1279 C1292 0.960 . S
C1280 H1272 0.929 . S
C1280 C1281 1.377 . S
C1280 C1282 1.384 . S
C1281 C1280 1.377 . S
C1281 C1287 1.390 . S
C1282 H1273 0.930 . S
C1282 C1280 1.384 . S
C1282 C1283 1.372 . S
C1283 C1282 1.372 . S
C1283 C1284 1.400 . S
C1283 C1288 1.490 . S
C1284 H1274 0.930 . S
C1284 C1283 1.400 . S
C1284 C1287 1.386 . S
H1285 C1301 0.930 . S
H1286 C1302 0.931 . S
C1287 H1275 0.929 . S
C1287 C1281 1.390 . S
C1287 C1284 1.386 . S
C1288 C1283 1.490 . S
C1288 C1290 1.395 . S
C1288 C1291 1.403 . S
H1289 C1295 0.930 . S
C1290 H1276 0.930 . S
C1290 C1288 1.395 . S
C1290 C1293 1.403 . S
C1291 C1288 1.403 . S
C1291 C1292 1.524 . S
C1291 C1295 1.400 . S
C1292 H1277 0.960 . S
C1292 H1278 0.960 . S
C1292 H1279 0.960 . S
C1292 C1291 1.524 . S
C1293 C1290 1.403 . S
C1293 C1294 1.392 . S
C1293 C1297 1.495 . S
C1294 C1293 1.392 . S
C1294 C1295 1.385 . S
C1294 C1296 1.478 . S
C1295 H1289 0.930 . S
C1295 C1291 1.400 . S
C1295 C1294 1.385 . S
C1296 C1294 1.478 . S
C1296 C1298 1.381 . S
C1296 C1302 1.383 . S
C1297 C1293 1.495 . S
C1297 H1303 0.959 . S
C1297 H1304 0.961 . S
C1297 H1305 0.960 . S
C1298 C1296 1.381 . S
C1298 C1299 1.394 . S
C1298 H1306 0.930 . S
C1299 C1298 1.394 . S
C1299 C1300 1.383 . S
C1299 H1307 0.929 . S
C1300 C1299 1.383 . S
C1300 C1301 1.377 . S
C1301 H1285 0.930 . S
C1301 C1300 1.377 . S
C1301 C1302 1.379 . S
C1302 H1286 0.931 . S
C1302 C1296 1.383 . S
C1302 C1301 1.379 . S
H1303 C1297 0.959 . S
H1304 C1297 0.961 . S
H1305 C1297 0.960 . S
H1306 C1298 0.930 . S
H1307 C1299 0.929 . S
H1308 C1316 0.929 . S
H1309 C1318 0.930 . S
H1310 C1320 0.930 . S
H1311 C1323 0.929 . S
H1312 C1326 0.930 . S
H1313 C1328 0.960 . S
H1314 C1328 0.960 . S
H1315 C1328 0.960 . S
C1316 H1308 0.929 . S
C1316 C1317 1.377 . S
C1316 C1318 1.384 . S
C1317 C1316 1.377 . S
C1317 C1323 1.390 . S
C1318 H1309 0.930 . S
C1318 C1316 1.384 . S
C1318 C1319 1.372 . S
C1319 C1318 1.372 . S
C1319 C1320 1.400 . S
C1319 C1324 1.490 . S
C1320 H1310 0.930 . S
C1320 C1319 1.400 . S
C1320 C1323 1.386 . S
H1321 C1337 0.930 . S
H1322 C1338 0.931 . S
C1323 H1311 0.929 . S
C1323 C1317 1.390 . S
C1323 C1320 1.386 . S
C1324 C1319 1.490 . S
C1324 C1326 1.395 . S
C1324 C1327 1.403 . S
H1325 C1331 0.930 . S
C1326 H1312 0.930 . S
C1326 C1324 1.395 . S
C1326 C1329 1.403 . S
C1327 C1324 1.403 . S
C1327 C1328 1.524 . S
C1327 C1331 1.400 . S
C1328 H1313 0.960 . S
C1328 H1314 0.960 . S
C1328 H1315 0.960 . S
C1328 C1327 1.524 . S
C1329 C1326 1.403 . S
C1329 C1330 1.392 . S
C1329 C1333 1.495 . S
C1330 C1329 1.392 . S
C1330 C1331 1.385 . S
C1330 C1332 1.478 . S
C1331 H1325 0.930 . S
C1331 C1327 1.400 . S
C1331 C1330 1.385 . S
C1332 C1330 1.478 . S
C1332 C1334 1.381 . S
C1332 C1338 1.383 . S
C1333 C1329 1.495 . S
C1333 H1339 0.959 . S
C1333 H1340 0.961 . S
C1333 H1341 0.960 . S
C1334 C1332 1.381 . S
C1334 C1335 1.394 . S
C1334 H1342 0.930 . S
C1335 C1334 1.394 . S
C1335 C1336 1.383 . S
C1335 H1343 0.929 . S
C1336 C1335 1.383 . S
C1336 C1337 1.377 . S
C1337 H1321 0.930 . S
C1337 C1336 1.377 . S
C1337 C1338 1.379 . S
C1338 H1322 0.931 . S
C1338 C1332 1.383 . S
C1338 C1337 1.379 . S
H1339 C1333 0.959 . S
H1340 C1333 0.961 . S
H1341 C1333 0.960 . S
H1342 C1334 0.930 . S
H1343 C1335 0.929 . S
H1344 C1352 0.929 . S
H1345 C1354 0.930 . S
H1346 C1356 0.930 . S
H1347 C1359 0.929 . S
H1348 C1362 0.930 . S
H1349 C1364 0.960 . S
H1350 C1364 0.960 . S
H1351 C1364 0.960 . S
C1352 H1344 0.929 . S
C1352 C1353 1.377 . S
C1352 C1354 1.384 . S
C1353 C1352 1.377 . S
C1353 C1359 1.390 . S
C1354 H1345 0.930 . S
C1354 C1352 1.384 . S
C1354 C1355 1.372 . S
C1355 C1354 1.372 . S
C1355 C1356 1.400 . S
C1355 C1360 1.490 . S
C1356 H1346 0.930 . S
C1356 C1355 1.400 . S
C1356 C1359 1.386 . S
H1357 C1373 0.930 . S
H1358 C1374 0.931 . S
C1359 H1347 0.929 . S
C1359 C1353 1.390 . S
C1359 C1356 1.386 . S
C1360 C1355 1.490 . S
C1360 C1362 1.395 . S
C1360 C1363 1.403 . S
H1361 C1367 0.930 . S
C1362 H1348 0.930 . S
C1362 C1360 1.395 . S
C1362 C1365 1.403 . S
C1363 C1360 1.403 . S
C1363 C1364 1.524 . S
C1363 C1367 1.400 . S
C1364 H1349 0.960 . S
C1364 H1350 0.960 . S
C1364 H1351 0.960 . S
C1364 C1363 1.524 . S
C1365 C1362 1.403 . S
C1365 C1366 1.392 . S
C1365 C1369 1.495 1_554 S
C1366 C1365 1.392 . S
C1366 C1367 1.385 . S
C1366 C1368 1.478 1_554 S
C1367 H1361 0.930 . S
C1367 C1363 1.400 . S
C1367 C1366 1.385 . S
C1368 C1366 1.478 1_556 S
C1368 C1370 1.381 . S
C1368 C1374 1.383 . S
C1369 C1365 1.495 1_556 S
C1369 H1375 0.959 1_556 S
C1369 H1376 0.961 . S
C1369 H1377 0.960 . S
C1370 C1368 1.381 . S
C1370 C1371 1.394 . S
C1370 H1378 0.930 . S
C1371 C1370 1.394 . S
C1371 C1372 1.383 . S
C1371 H1379 0.929 . S
C1372 C1371 1.383 . S
C1372 C1373 1.377 . S
C1373 H1357 0.930 . S
C1373 C1372 1.377 . S
C1373 C1374 1.379 . S
C1374 H1358 0.931 . S
C1374 C1368 1.383 . S
C1374 C1373 1.379 . S
H1375 C1369 0.959 1_554 S
H1376 C1369 0.961 . S
H1377 C1369 0.960 . S
H1378 C1370 0.930 . S
H1379 C1371 0.929 . S
H1380 C1388 0.929 . S
H1381 C1390 0.930 . S
H1382 C1392 0.930 . S
H1383 C1395 0.929 . S
H1384 C1398 0.930 . S
H1385 C1400 0.960 . S
H1386 C1400 0.960 . S
H1387 C1400 0.960 . S
C1388 H1380 0.929 . S
C1388 C1389 1.377 . S
C1388 C1390 1.384 . S
C1389 C1388 1.377 . S
C1389 C1395 1.390 . S
C1390 H1381 0.930 . S
C1390 C1388 1.384 . S
C1390 C1391 1.372 . S
C1391 C1390 1.372 . S
C1391 C1392 1.400 . S
C1391 C1396 1.490 . S
C1392 H1382 0.930 . S
C1392 C1391 1.400 . S
C1392 C1395 1.386 . S
H1393 C1409 0.930 . S
H1394 C1410 0.931 . S
C1395 H1383 0.929 . S
C1395 C1389 1.390 . S
C1395 C1392 1.386 . S
C1396 C1391 1.490 . S
C1396 C1398 1.395 . S
C1396 C1399 1.403 . S
H1397 C1403 0.930 . S
C1398 H1384 0.930 . S
C1398 C1396 1.395 . S
C1398 C1401 1.403 . S
C1399 C1396 1.403 . S
C1399 C1400 1.524 . S
C1399 C1403 1.400 . S
C1400 H1385 0.960 . S
C1400 H1386 0.960 . S
C1400 H1387 0.960 . S
C1400 C1399 1.524 . S
C1401 C1398 1.403 . S
C1401 C1402 1.392 . S
C1401 C1405 1.495 . S
C1402 C1401 1.392 . S
C1402 C1403 1.385 . S
C1402 C1404 1.478 . S
C1403 H1397 0.930 . S
C1403 C1399 1.400 . S
C1403 C1402 1.385 . S
C1404 C1402 1.478 . S
C1404 C1406 1.381 . S
C1404 C1410 1.383 . S
C1405 C1401 1.495 . S
C1405 H1411 0.959 . S
C1405 H1412 0.961 . S
C1405 H1413 0.960 . S
C1406 C1404 1.381 . S
C1406 C1407 1.394 . S
C1406 H1414 0.930 . S
C1407 C1406 1.394 . S
C1407 C1408 1.383 . S
C1407 H1415 0.929 . S
C1408 C1407 1.383 . S
C1408 C1409 1.377 . S
C1409 H1393 0.930 . S
C1409 C1408 1.377 . S
C1409 C1410 1.379 . S
C1410 H1394 0.931 . S
C1410 C1404 1.383 . S
C1410 C1409 1.379 . S
H1411 C1405 0.959 . S
H1412 C1405 0.961 . S
H1413 C1405 0.960 . S
H1414 C1406 0.930 . S
H1415 C1407 0.929 . S
H1416 C1424 0.929 . S
H1417 C1426 0.930 . S
H1418 C1428 0.930 . S
H1419 C1431 0.929 . S
H1420 C1434 0.930 . S
H1421 C1436 0.960 . S
H1422 C1436 0.960 . S
H1423 C1436 0.960 . S
C1424 H1416 0.929 . S
C1424 C1425 1.377 . S
C1424 C1426 1.384 . S
C1425 C1424 1.377 . S
C1425 C1431 1.390 . S
C1426 H1417 0.930 . S
C1426 C1424 1.384 . S
C1426 C1427 1.372 . S
C1427 C1426 1.372 . S
C1427 C1428 1.400 . S
C1427 C1432 1.490 . S
C1428 H1418 0.930 . S
C1428 C1427 1.400 . S
C1428 C1431 1.386 . S
H1429 C1445 0.930 . S
H1430 C1446 0.931 . S
C1431 H1419 0.929 . S
C1431 C1425 1.390 . S
C1431 C1428 1.386 . S
C1432 C1427 1.490 . S
C1432 C1434 1.395 . S
C1432 C1435 1.403 1_545 S
H1433 C1439 0.930 . S
C1434 H1420 0.930 . S
C1434 C1432 1.395 . S
C1434 C1437 1.403 . S
C1435 C1432 1.403 1_565 S
C1435 C1436 1.524 . S
C1435 C1439 1.400 . S
C1436 H1421 0.960 . S
C1436 H1422 0.960 . S
C1436 H1423 0.960 . S
C1436 C1435 1.524 . S
C1437 C1434 1.403 . S
C1437 C1438 1.392 1_545 S
C1437 C1441 1.495 . S
C1438 C1437 1.392 1_565 S
C1438 C1439 1.385 . S
C1438 C1440 1.478 . S
C1439 H1433 0.930 . S
C1439 C1435 1.400 . S
C1439 C1438 1.385 . S
C1440 C1438 1.478 . S
C1440 C1442 1.381 . S
C1440 C1446 1.383 . S
C1441 C1437 1.495 . S
C1441 H1447 0.959 . S
C1441 H1448 0.961 . S
C1441 H1449 1.017 . S
C1442 C1440 1.381 . S
C1442 C1443 1.394 . S
C1442 H1450 0.930 . S
C1443 C1442 1.394 . S
C1443 C1444 1.383 . S
C1443 H1451 0.929 . S
C1444 C1443 1.383 . S
C1444 C1445 1.377 . S
C1445 H1429 0.930 . S
C1445 C1444 1.377 . S
C1445 C1446 1.379 . S
C1446 H1430 0.931 . S
C1446 C1440 1.383 . S
C1446 C1445 1.379 . S
H1447 C1441 0.959 . S
H1448 C1441 0.961 . S
H1449 C1441 1.017 . S
H1450 C1442 0.930 . S
H1451 C1443 0.929 . S
H1452 C1460 0.929 . S
H1453 C1462 0.930 . S
H1454 C1464 0.930 . S
H1455 C1467 0.929 . S
H1456 C1470 0.930 . S
H1457 C1472 0.960 . S
H1458 C1472 0.960 . S
H1459 C1472 0.960 . S
C1460 H1452 0.929 . S
C1460 C1461 1.377 . S
C1460 C1462 1.384 . S
C1461 C1460 1.377 . S
C1461 C1467 1.390 . S
C1462 H1453 0.930 . S
C1462 C1460 1.384 . S
C1462 C1463 1.372 . S
C1463 C1462 1.372 . S
C1463 C1464 1.400 . S
C1463 C1468 1.490 . S
C1464 H1454 0.930 . S
C1464 C1463 1.400 . S
C1464 C1467 1.386 . S
H1465 C1481 0.930 . S
H1466 C1482 0.931 . S
C1467 H1455 0.929 . S
C1467 C1461 1.390 . S
C1467 C1464 1.386 . S
C1468 C1463 1.490 . S
C1468 C1470 1.395 . S
C1468 C1471 1.403 . S
H1469 C1475 0.930 . S
C1470 H1456 0.930 . S
C1470 C1468 1.395 . S
C1470 C1473 1.403 . S
C1471 C1468 1.403 . S
C1471 C1472 1.524 . S
C1471 C1475 1.400 . S
C1472 H1457 0.960 . S
C1472 H1458 0.960 . S
C1472 H1459 0.960 . S
C1472 C1471 1.524 . S
C1473 C1470 1.403 . S
C1473 C1474 1.392 . S
C1473 C1477 1.495 . S
C1474 C1473 1.392 . S
C1474 C1475 1.385 . S
C1474 C1476 1.478 . S
C1475 H1469 0.930 . S
C1475 C1471 1.400 . S
C1475 C1474 1.385 . S
C1476 C1474 1.478 . S
C1476 C1478 1.381 . S
C1476 C1482 1.383 . S
C1477 C1473 1.495 . S
C1477 H1483 0.959 . S
C1477 H1484 0.961 . S
C1477 H1485 0.960 . S
C1478 C1476 1.381 . S
C1478 C1479 1.394 . S
C1478 H1486 0.930 . S
C1479 C1478 1.394 . S
C1479 C1480 1.383 . S
C1479 H1487 0.929 . S
C1480 C1479 1.383 . S
C1480 C1481 1.377 . S
C1481 H1465 0.930 . S
C1481 C1480 1.377 . S
C1481 C1482 1.379 . S
C1482 H1466 0.931 . S
C1482 C1476 1.383 . S
C1482 C1481 1.379 . S
H1483 C1477 0.959 . S
H1484 C1477 0.961 . S
H1485 C1477 0.960 . S
H1486 C1478 0.930 . S
H1487 C1479 0.929 . S
H1488 C1496 0.929 . S
H1489 C1498 0.930 . S
H1490 C1500 0.930 . S
H1491 C1503 0.929 . S
H1492 C1506 0.930 1_545 S
H1493 C1508 0.960 . S
H1494 C1508 0.960 . S
H1495 C1508 0.960 . S
C1496 H1488 0.929 . S
C1496 C1497 1.377 . S
C1496 C1498 1.384 . S
C1497 C1496 1.377 . S
C1497 C1503 1.390 . S
C1498 H1489 0.930 . S
C1498 C1496 1.384 . S
C1498 C1499 1.372 . S
C1499 C1498 1.372 . S
C1499 C1500 1.400 . S
C1499 C1504 1.490 1_545 S
C1500 H1490 0.930 . S
C1500 C1499 1.400 . S
C1500 C1503 1.386 . S
H1501 C1517 0.930 . S
H1502 C1518 0.931 . S
C1503 H1491 0.929 . S
C1503 C1497 1.390 . S
C1503 C1500 1.386 . S
C1504 C1499 1.490 1_565 S
C1504 C1506 1.395 . S
C1504 C1507 1.403 . S
H1505 C1511 0.930 . S
C1506 H1492 0.930 1_565 S
C1506 C1504 1.395 . S
C1506 C1509 1.403 . S
C1507 C1504 1.403 . S
C1507 C1508 1.524 . S
C1507 C1511 1.400 . S
C1508 H1493 0.960 . S
C1508 H1494 0.960 . S
C1508 H1495 0.960 . S
C1508 C1507 1.524 . S
C1509 C1506 1.403 . S
C1509 C1510 1.392 . S
C1509 C1513 1.495 . S
C1510 C1509 1.392 . S
C1510 C1511 1.385 . S
C1510 C1512 1.478 . S
C1511 H1505 0.930 . S
C1511 C1507 1.400 . S
C1511 C1510 1.385 . S
C1512 C1510 1.478 . S
C1512 C1514 1.381 . S
C1512 C1518 1.383 . S
C1513 C1509 1.495 . S
C1513 H1519 0.959 . S
C1513 H1520 0.961 . S
C1513 H1521 0.960 . S
C1514 C1512 1.381 . S
C1514 C1515 1.394 . S
C1514 H1522 0.930 . S
C1515 C1514 1.394 . S
C1515 C1516 1.383 . S
C1515 H1523 0.929 . S
C1516 C1515 1.383 . S
C1516 C1517 1.377 . S
C1517 H1501 0.930 . S
C1517 C1516 1.377 . S
C1517 C1518 1.379 . S
C1518 H1502 0.931 . S
C1518 C1512 1.383 . S
C1518 C1517 1.379 . S
H1519 C1513 0.959 . S
H1520 C1513 0.961 . S
H1521 C1513 0.960 . S
H1522 C1514 0.930 . S
H1523 C1515 0.929 . S
H1524 C1532 0.929 . S
H1525 C1534 0.930 . S
H1526 C1536 0.930 . S
H1527 C1539 0.929 . S
H1528 C1542 0.930 . S
H1529 C1544 0.960 . S
H1530 C1544 0.960 . S
H1531 C1544 0.960 . S
C1532 H1524 0.929 . S
C1532 C1533 1.377 . S
C1532 C1534 1.384 . S
C1533 C1532 1.377 . S
C1533 C1539 1.390 . S
C1534 H1525 0.930 . S
C1534 C1532 1.384 . S
C1534 C1535 1.372 . S
C1535 C1534 1.372 . S
C1535 C1536 1.400 . S
C1535 C1540 1.490 . S
C1536 H1526 0.930 . S
C1536 C1535 1.400 . S
C1536 C1539 1.386 . S
H1537 C1553 0.930 . S
H1538 C1554 0.931 . S
C1539 H1527 0.929 . S
C1539 C1533 1.390 . S
C1539 C1536 1.386 . S
C1540 C1535 1.490 . S
C1540 C1542 1.395 . S
C1540 C1543 1.403 . S
H1541 C1547 0.930 . S
C1542 H1528 0.930 . S
C1542 C1540 1.395 . S
C1542 C1545 1.403 . S
C1543 C1540 1.403 . S
C1543 C1544 1.524 . S
C1543 C1547 1.400 . S
C1544 H1529 0.960 . S
C1544 H1530 0.960 . S
C1544 H1531 0.960 . S
C1544 C1543 1.524 . S
C1545 C1542 1.403 . S
C1545 C1546 1.392 . S
C1545 C1549 1.495 . S
C1546 C1545 1.392 . S
C1546 C1547 1.385 . S
C1546 C1548 1.478 . S
C1547 H1541 0.930 . S
C1547 C1543 1.400 . S
C1547 C1546 1.385 . S
C1548 C1546 1.478 . S
C1548 C1550 1.381 . S
C1548 C1554 1.383 . S
C1549 C1545 1.495 . S
C1549 H1555 0.959 . S
C1549 H1556 0.961 . S
C1549 H1557 0.960 . S
C1550 C1548 1.381 . S
C1550 C1551 1.394 . S
C1550 H1558 0.930 . S
C1551 C1550 1.394 . S
C1551 C1552 1.383 . S
C1551 H1559 0.929 . S
C1552 C1551 1.383 . S
C1552 C1553 1.377 . S
C1553 H1537 0.930 . S
C1553 C1552 1.377 . S
C1553 C1554 1.379 . S
C1554 H1538 0.931 . S
C1554 C1548 1.383 . S
C1554 C1553 1.379 . S
H1555 C1549 0.959 . S
H1556 C1549 0.961 . S
H1557 C1549 0.960 . S
H1558 C1550 0.930 . S
H1559 C1551 0.929 . S
C273 C51 1.704 1_655 S
C292 C7 1.699 1_655 S
C309 C62 1.444 . S
C328 C16 1.147 . S
C345 C29 1.666 . S
C364 C73 1.666 . S
C381 C82 1.229 . S
C400 C40 1.441 . S
C417 C95 1.875 . S
C436 C126 1.502 . S
C453 C115 1.410 . S
C472 C106 1.574 . S
C489 C137 1.617 . S
C508 C181 1.621 . S
C525 C192 1.143 . S
C544 C150 1.355 . S
C561 C205 1.407 . S
C580 C161 1.432 . S
C597 C170 1.131 . S
C616 C216 1.185 . S
C633 C260 1.420 1_556 S
C652 C225 1.431 . S
C669 C249 1.334 . S
C688 C236 1.268 . S
C705 C217 1.684 . S
C724 C8 1.682 . S
C741 C184 1.974 . S
C760 C18 1.905 . S
C777 C27 1.980 . S
C796 C195 2.059 . S
C813 C38 1.591 . S
C832 C206 1.729 . S
C849 C52 1.864 . S
C868 C148 1.680 . S
C885 C162 1.854 . S
C904 C60 1.842 . S
C921 C71 1.771 . S
C940 C172 1.848 . S
C957 C85 1.885 . S
C976 C140 1.892 . S
C993 C41 1.682 . S
C1012 C261 1.629 . S
C1029 C5 1.715 . S
C1048 C238 1.835 . S
C1065 C19 1.593 . S
C1084 C228 1.607 . S
C1101 C30 1.974 . S
C1120 C247 1.598 . S
C1137 C63 1.602 . S
C1156 C250 1.569 . S
C1173 C74 1.871 . S
C1192 C258 1.433 . S
C1209 C239 1.846 . S
C1228 C84 1.788 . S
C1245 C49 1.759 . S
C1264 C227 1.839 . S
C1281 C93 1.938 . S
C1300 C183 1.998 . S
C1317 C139 1.864 . S
C1336 C104 1.483 . S
C1353 C96 1.983 . S
C1372 C151 1.990 . S
C1389 C118 1.876 . S
C1408 C159 1.526 . S
C1425 C173 1.914 . S
C1444 C129 1.868 . S
C1461 C203 1.773 . S
C1480 C128 1.995 . S
C1497 C214 1.793 . S
C1516 C107 1.799 . S
C1533 C194 2.184 . S
C1552 C117 2.193 . S
