# Generated by pormake.
# Topology pcu-h, (3)-cn, num edge types: 1
# Building blocks:
#     Node 0, Type 0, BuildingBlock: OLANEW_clean_sbu_2, # of connection points: 3
#     Node 1, Type 0, BuildingBlock: OLANEW_clean_sbu_2, # of connection points: 3
#     Node 2, Type 0, BuildingBlock: OLANEW_clean_sbu_2, # of connection points: 3
#     Node 3, Type 0, BuildingBlock: OLANEW_clean_sbu_2, # of connection points: 3
#     Node 4, Type 0, BuildingBlock: OLANEW_clean_sbu_2, # of connection points: 3
#     Node 5, Type 0, BuildingBlock: OLANEW_clean_sbu_2, # of connection points: 3
#     Node 6, Type 0, BuildingBlock: OLANEW_clean_sbu_2, # of connection points: 3
#     Node 7, Type 0, BuildingBlock: OLANEW_clean_sbu_2, # of connection points: 3
#     Node 8, Type 0, BuildingBlock: OLANEW_clean_sbu_2, # of connection points: 3
#     Node 9, Type 0, BuildingBlock: OLANEW_clean_sbu_2, # of connection points: 3
#     Node 10, Type 0, BuildingBlock: OLANEW_clean_sbu_2, # of connection points: 3
#     Node 11, Type 0, BuildingBlock: OLANEW_clean_sbu_2, # of connection points: 3
#     Node 12, Type 0, BuildingBlock: OLANEW_clean_sbu_2, # of connection points: 3
#     Node 13, Type 0, BuildingBlock: OLANEW_clean_sbu_2, # of connection points: 3
#     Node 14, Type 0, BuildingBlock: OLANEW_clean_sbu_2, # of connection points: 3
#     Node 15, Type 0, BuildingBlock: OLANEW_clean_sbu_2, # of connection points: 3
#     Node 16, Type 0, BuildingBlock: OLANEW_clean_sbu_2, # of connection points: 3
#     Node 17, Type 0, BuildingBlock: OLANEW_clean_sbu_2, # of connection points: 3
#     Edge 18, Type (0, 0), BuildingBlock: OJICUG_clean_linker_0, # of connection points: 2
#     Edge 19, Type (0, 0), BuildingBlock: OJICUG_clean_linker_0, # of connection points: 2
#     Edge 20, Type (0, 0), BuildingBlock: OJICUG_clean_linker_0, # of connection points: 2
#     Edge 21, Type (0, 0), BuildingBlock: OJICUG_clean_linker_0, # of connection points: 2
#     Edge 22, Type (0, 0), BuildingBlock: OJICUG_clean_linker_0, # of connection points: 2
#     Edge 23, Type (0, 0), BuildingBlock: OJICUG_clean_linker_0, # of connection points: 2
#     Edge 24, Type (0, 0), BuildingBlock: OJICUG_clean_linker_0, # of connection points: 2
#     Edge 25, Type (0, 0), BuildingBlock: OJICUG_clean_linker_0, # of connection points: 2
#     Edge 26, Type (0, 0), BuildingBlock: OJICUG_clean_linker_0, # of connection points: 2
#     Edge 27, Type (0, 0), BuildingBlock: OJICUG_clean_linker_0, # of connection points: 2
#     Edge 28, Type (0, 0), BuildingBlock: OJICUG_clean_linker_0, # of connection points: 2
#     Edge 29, Type (0, 0), BuildingBlock: OJICUG_clean_linker_0, # of connection points: 2
#     Edge 30, Type (0, 0), BuildingBlock: OJICUG_clean_linker_0, # of connection points: 2
#     Edge 31, Type (0, 0), BuildingBlock: OJICUG_clean_linker_0, # of connection points: 2
#     Edge 32, Type (0, 0), BuildingBlock: OJICUG_clean_linker_0, # of connection points: 2
#     Edge 33, Type (0, 0), BuildingBlock: OJICUG_clean_linker_0, # of connection points: 2
#     Edge 34, Type (0, 0), BuildingBlock: OJICUG_clean_linker_0, # of connection points: 2
#     Edge 35, Type (0, 0), BuildingBlock: OJICUG_clean_linker_0, # of connection points: 2
#     Edge 36, Type (0, 0), BuildingBlock: OJICUG_clean_linker_0, # of connection points: 2
#     Edge 37, Type (0, 0), BuildingBlock: OJICUG_clean_linker_0, # of connection points: 2
#     Edge 38, Type (0, 0), BuildingBlock: OJICUG_clean_linker_0, # of connection points: 2
#     Edge 39, Type (0, 0), BuildingBlock: OJICUG_clean_linker_0, # of connection points: 2
#     Edge 40, Type (0, 0), BuildingBlock: OJICUG_clean_linker_0, # of connection points: 2
#     Edge 41, Type (0, 0), BuildingBlock: OJICUG_clean_linker_0, # of connection points: 2
#     Edge 42, Type (0, 0), BuildingBlock: OJICUG_clean_linker_0, # of connection points: 2
#     Edge 43, Type (0, 0), BuildingBlock: OJICUG_clean_linker_0, # of connection points: 2
#     Edge 44, Type (0, 0), BuildingBlock: OJICUG_clean_linker_0, # of connection points: 2
# Relax obj value: 0.007
# Max RMSD: 0.070
# Mean RMSD: 0.046
data_MOF--net-pcu-h--node1-OLANEW_clean_sbu_2--edge1-OJICUG_clean_linker_0
_symmetry_space_group_name_H-M    P1
_symmetry_Int_Tables_number       1
_symmetry_cell_setting            triclinic
loop_
_symmetry_equiv_pos_as_xyz
'x, y, z'
_cell_length_a     55.870844
_cell_length_b     48.283866
_cell_length_c     43.245256
_cell_angle_alpha  98.339882
_cell_angle_beta   90.006672
_cell_angle_gamma 125.40491
loop_
_atom_site_label
_atom_site_type_symbol
_atom_site_fract_x
_atom_site_fract_y
_atom_site_fract_z
_atom_type_partial_charge
O0 O 0.19284 0.07929 0.04118 0.0
Cd1 Cd 0.22122 0.13935 0.06816 0.0
O2 O 0.20727 0.09274 0.99496 0.0
Cd3 Cd 0.22903 0.14785 0.01122 0.0
O4 O 0.23972 0.19937 0.01342 0.0
C5 C 0.21866 0.20107 0.00592 0.0
O6 O 0.19196 0.17227 0.99863 0.0
C7 C 0.193 0.07001 0.01216 0.0
C8 C 0.26584 0.15354 0.11115 0.0
O9 O 0.24015 0.14268 0.11935 0.0
O10 O 0.27049 0.15795 0.08266 0.0
O11 O 0.8784 0.0976 1.00011 0.0
Cd12 Cd 0.90949 0.15979 0.02 0.0
O13 O 0.89875 0.08748 0.03625 0.0
Cd14 Cd 0.93596 0.14161 0.04978 0.0
O15 O 0.98199 0.18454 0.04869 0.0
C16 C 0.99772 0.17592 0.03574 0.0
O17 O 0.98536 0.14308 0.02483 0.0
C18 C 0.87913 0.07631 0.01355 0.0
C19 C 0.88392 0.17404 0.06938 0.0
O20 O 0.87776 0.1745 0.04099 0.0
O21 O 0.90267 0.16757 0.07448 0.0
O22 O 0.91532 0.64932 0.00813 0.0
Cd23 Cd 0.87978 0.60214 0.03449 0.0
O24 O 0.88261 0.65855 0.99636 0.0
Cd25 Cd 0.86698 0.68531 0.97649 0.0
O26 O 0.85638 0.71922 0.96301 0.0
C27 C 0.83062 0.71188 0.96429 0.0
O28 O 0.80987 0.68291 0.97321 0.0
C29 C 0.90886 0.6671 0.99633 0.0
C30 C 0.8908 0.62652 0.09916 0.0
O31 O 0.90429 0.61478 0.08536 0.0
O32 O 0.87164 0.62616 0.08246 0.0
O33 O 0.26851 0.34949 0.97176 0.0
Cd34 Cd 0.27877 0.39761 0.94795 0.0
O35 O 0.22444 0.33564 0.98008 0.0
Cd36 Cd 0.18028 0.30455 0.99562 0.0
O37 O 0.13479 0.26786 0.00523 0.0
C38 C 0.12015 0.27755 0.01925 0.0
O39 O 0.13281 0.3107 0.02862 0.0
C40 C 0.2434 0.32902 0.981 0.0
C41 C 0.25999 0.3734 0.88389 0.0
O42 O 0.28577 0.38388 0.89488 0.0
O43 O 0.24324 0.3751 0.9031 0.0
O44 O 0.78731 0.91839 0.93805 0.0
Cd45 Cd 0.75742 0.85799 0.912 0.0
O46 O 0.80635 0.90962 0.97677 0.0
Cd47 Cd 0.78633 0.85518 0.95888 0.0
O48 O 0.78653 0.80968 0.95459 0.0
C49 C 0.81072 0.81417 0.94868 0.0
O50 O 0.83298 0.84474 0.94398 0.0
C51 C 0.80389 0.92989 0.96363 0.0
C52 C 0.71212 0.84465 0.87071 0.0
O53 O 0.70824 0.84055 0.89936 0.0
O54 O 0.73734 0.85472 0.86151 0.0
O55 O 0.12236 0.91536 0.92751 0.0
Cd56 Cd 0.09205 0.85526 0.90047 0.0
O57 O 0.1026 0.903 0.97198 0.0
Cd58 Cd 0.06997 0.84791 0.9547 0.0
O59 O 0.03033 0.79602 0.95504 0.0
C60 C 0.00729 0.79351 0.96283 0.0
O61 O 0.0083 0.82167 0.96868 0.0
C62 C 0.12111 0.92507 0.95604 0.0
C63 C 0.1147 0.84728 0.84502 0.0
O64 O 0.09541 0.85368 0.84504 0.0
O65 O 0.12317 0.8445 0.87122 0.0
O66 O 0.8241 0.36975 0.37804 0.0
Cd67 Cd 0.84318 0.42458 0.41295 0.0
O68 O 0.84191 0.39549 0.33731 0.0
Cd69 Cd 0.85781 0.44718 0.36122 0.0
O70 O 0.87124 0.50016 0.36606 0.0
C71 C 0.85193 0.50488 0.35898 0.0
O72 O 0.82447 0.47785 0.35086 0.0
C73 C 0.8283 0.36813 0.34913 0.0
C74 C 0.89507 0.44888 0.44957 0.0
O75 O 0.86976 0.42981 0.4596 0.0
O76 O 0.89584 0.45647 0.42221 0.0
O77 O 0.51738 0.4336 0.33504 0.0
Cd78 Cd 0.54696 0.49514 0.35716 0.0
O79 O 0.54497 0.42572 0.3634 0.0
Cd80 Cd 0.5806 0.48038 0.3782 0.0
O81 O 0.62752 0.52205 0.37994 0.0
C82 C 0.64496 0.51367 0.38374 0.0
O83 O 0.63378 0.482 0.38771 0.0
C84 C 0.52238 0.41341 0.34429 0.0
C85 C 0.52169 0.50634 0.40869 0.0
O86 O 0.54067 0.49984 0.41205 0.0
O87 O 0.51498 0.50801 0.38101 0.0
O88 O 0.57488 0.00671 0.38317 0.0
Cd89 Cd 0.53242 0.95935 0.40386 0.0
O90 O 0.55024 0.02601 0.36882 0.0
Cd91 Cd 0.5427 0.05813 0.34571 0.0
O92 O 0.53155 0.08947 0.32711 0.0
C93 C 0.50482 0.07682 0.31864 0.0
O94 O 0.48416 0.04452 0.32068 0.0
C95 C 0.57419 0.02856 0.37074 0.0
C96 C 0.53072 0.97674 0.46775 0.0
O97 O 0.54773 0.96828 0.45817 0.0
O98 O 0.5145 0.97716 0.44714 0.0
O99 O 0.91346 0.6543 0.32237 0.0
Cd100 Cd 0.92902 0.7037 0.29748 0.0
O101 O 0.87244 0.64797 0.33344 0.0
Cd102 Cd 0.82943 0.6232 0.35198 0.0
O103 O 0.78445 0.59315 0.36528 0.0
C104 C 0.76847 0.60401 0.36505 0.0
O105 O 0.77952 0.63424 0.3572 0.0
C106 C 0.88866 0.63737 0.33334 0.0
C107 C 0.91745 0.68133 0.23251 0.0
O108 O 0.94183 0.69124 0.24715 0.0
O109 O 0.89873 0.68271 0.2485 0.0
O110 O 0.43092 0.25474 0.26941 0.0
Cd111 Cd 0.40223 0.19456 0.24283 0.0
O112 O 0.45913 0.24936 0.29977 0.0
Cd113 Cd 0.4411 0.19554 0.28171 0.0
O114 O 0.44743 0.15512 0.28299 0.0
C115 C 0.4742 0.16569 0.28693 0.0
O116 O 0.49513 0.19873 0.28828 0.0
C117 C 0.45182 0.26778 0.29109 0.0
C118 C 0.35763 0.18039 0.19978 0.0
O119 O 0.38328 0.19104 0.19154 0.0
O120 O 0.35302 0.17617 0.22831 0.0
O121 O 0.80228 0.23814 0.24781 0.0
Cd122 Cd 0.78348 0.18239 0.21506 0.0
O123 O 0.76292 0.20963 0.27229 0.0
Cd124 Cd 0.72905 0.19854 0.30403 0.0
O125 O 0.68846 0.16425 0.32493 0.0
C126 C 0.68065 0.13349 0.32286 0.0
O127 O 0.69739 0.1254 0.3093 0.0
C128 C 0.78686 0.23818 0.2694 0.0
C129 C 0.81938 0.18524 0.16896 0.0
O130 O 0.79902 0.18907 0.16337 0.0
O131 O 0.82305 0.18063 0.19653 0.0
O132 O 0.54537 0.75131 0.71605 0.0
Cd133 Cd 0.57471 0.81031 0.74565 0.0
O134 O 0.56331 0.76673 0.67142 0.0
Cd135 Cd 0.5835 0.82107 0.69001 0.0
O136 O 0.58108 0.86505 0.69793 0.0
C137 C 0.5595 0.86121 0.71171 0.0
O138 O 0.54118 0.8322 0.722 0.0
C139 C 0.54713 0.74313 0.68725 0.0
C140 C 0.61945 0.82164 0.78632 0.0
O141 O 0.594 0.81076 0.79532 0.0
O142 O 0.62377 0.82734 0.75811 0.0
O143 O 0.15813 0.76195 0.65203 0.0
Cd144 Cd 0.18457 0.82313 0.6747 0.0
O145 O 0.19608 0.76202 0.6658 0.0
Cd146 Cd 0.22758 0.8172 0.68404 0.0
O147 O 0.27346 0.86132 0.69816 0.0
C148 C 0.29075 0.87322 0.67693 0.0
O149 O 0.27984 0.86039 0.64733 0.0
C150 C 0.16965 0.74585 0.65349 0.0
C151 C 0.16234 0.83179 0.73022 0.0
O152 O 0.15203 0.83156 0.70362 0.0
O153 O 0.1833 0.82813 0.73056 0.0
O154 O 0.24174 0.33777 0.66049 0.0
Cd155 Cd 0.20394 0.29286 0.6874 0.0
O156 O 0.21345 0.35356 0.64954 0.0
Cd157 Cd 0.20164 0.38442 0.63076 0.0
O158 O 0.18991 0.41751 0.61766 0.0
C159 C 0.16306 0.40628 0.6125 0.0
O160 O 0.14218 0.37407 0.6146 0.0
C161 C 0.23831 0.35818 0.64904 0.0
C162 C 0.21994 0.31649 0.75194 0.0
O163 O 0.22978 0.30127 0.73591 0.0
O164 O 0.20191 0.31984 0.7376 0.0
O165 O 0.53722 0.97342 0.68375 0.0
Cd166 Cd 0.52188 0.00703 0.6657 0.0
O167 O 0.49937 0.94239 0.71013 0.0
Cd168 Cd 0.4753 0.96304 0.69812 0.0
O169 O 0.43276 0.95356 0.68662 0.0
C170 C 0.41614 0.94882 0.70838 0.0
O171 O 0.42615 0.95254 0.7373 0.0
C172 C 0.52381 0.95033 0.70074 0.0
C173 C 0.5245 0.00213 0.60094 0.0
O174 O 0.54767 0.02381 0.62018 0.0
O175 O 0.49982 0.98335 0.61225 0.0
O176 O 0.08093 0.58332 0.58619 0.0
Cd177 Cd 0.05434 0.52249 0.56186 0.0
O178 O 0.11822 0.58518 0.60612 0.0
Cd179 Cd 0.10177 0.53146 0.59014 0.0
O180 O 0.10751 0.49029 0.58966 0.0
C181 C 0.13411 0.50002 0.59229 0.0
O182 O 0.15544 0.53296 0.59382 0.0
C183 C 0.10608 0.60014 0.60199 0.0
C184 C 0.00253 0.49877 0.52539 0.0
O185 O 0.02727 0.5129 0.51363 0.0
O186 O 0.00229 0.49586 0.55441 0.0
O187 O 0.47217 0.59182 0.59611 0.0
Cd188 Cd 0.43916 0.53338 0.56594 0.0
O189 O 0.44701 0.57976 0.63731 0.0
Cd190 Cd 0.41092 0.52684 0.61652 0.0
O191 O 0.36754 0.47767 0.6136 0.0
C192 C 0.34574 0.47869 0.61953 0.0
O193 O 0.35011 0.50886 0.62547 0.0
C194 C 0.46907 0.60113 0.62396 0.0
C195 C 0.46561 0.52405 0.51464 0.0
O196 O 0.44921 0.53435 0.51206 0.0
O197 O 0.46929 0.5179 0.54142 0.0
C198 C 0.17649 0.02236 0.96627 0.0
C199 C 0.17579 0.03286 0.99815 0.0
H200 H 0.15993 0.98017 0.928 0.0
C201 C 0.15774 0.00753 0.01625 0.0
H202 H 0.19021 0.0412 0.95166 0.0
C203 C 0.14031 0.97256 0.00265 0.0
C204 C 0.14061 0.96208 0.97065 0.0
H205 H 0.15668 0.01469 0.04087 0.0
H206 H 0.12638 0.95378 0.01722 0.0
C207 C 0.15914 0.98735 0.95269 0.0
C208 C 0.04598 0.19187 0.01758 0.0
C209 C 0.0292 0.20212 0.03229 0.0
H210 H 0.08769 0.20749 0.00199 0.0
C211 C 0.04271 0.23745 0.0432 0.0
H212 H 0.03629 0.16487 0.00892 0.0
C213 C 0.07233 0.262 0.0392 0.0
C214 C 0.08901 0.2517 0.02423 0.0
H215 H 0.03039 0.24618 0.05466 0.0
H216 H 0.08207 0.28904 0.0477 0.0
C217 C 0.07551 0.21635 0.0136 0.0
C218 C 0.7969 0.73018 0.96169 0.0
C219 C 0.82466 0.73678 0.95785 0.0
H220 H 0.7706 0.74934 0.96166 0.0
C221 C 0.84711 0.7681 0.94904 0.0
H222 H 0.77908 0.70625 0.96836 0.0
C223 C 0.84223 0.79273 0.94515 0.0
C224 C 0.8148 0.78666 0.95002 0.0
H225 H 0.86871 0.77395 0.94572 0.0
H226 H 0.86024 0.81688 0.93899 0.0
C227 C 0.79202 0.75487 0.95782 0.0
C228 C 0.83836 0.02581 0.97488 0.0
C229 C 0.8582 0.03867 0.00197 0.0
H230 H 0.80558 0.98139 0.94151 0.0
C231 C 0.85881 0.01524 0.0172 0.0
H232 H 0.83728 0.04315 0.96261 0.0
C233 C 0.84064 0.9799 0.00514 0.0
C234 C 0.82145 0.9671 0.97753 0.0
H235 H 0.87371 0.0242 0.03819 0.0
H236 H 0.84212 0.9627 0.01721 0.0
C237 C 0.82018 0.99039 0.96277 0.0
C238 C 0.95667 0.75852 0.98039 0.0
C239 C 0.98075 0.76016 0.96831 0.0
H240 H 0.91561 0.72825 0.99965 0.0
C241 C 0.97994 0.73019 0.96353 0.0
H242 H 0.95669 0.78119 0.98464 0.0
C243 C 0.956 0.69958 0.97163 0.0
C244 C 0.93231 0.69823 0.98444 0.0
H245 H 0.99813 0.73057 0.95429 0.0
H246 H 0.95629 0.6771 0.96843 0.0
C247 C 0.93281 0.72795 0.98855 0.0
C248 C 0.25292 0.26543 0.01008 0.0
C249 C 0.22442 0.23448 0.00258 0.0
H250 H 0.28111 0.31974 0.00944 0.0
C251 C 0.20175 0.23541 0.98996 0.0
H252 H 0.27087 0.26561 0.01983 0.0
C253 C 0.20767 0.26635 0.9839 0.0
C254 C 0.23627 0.29714 0.99077 0.0
H255 H 0.17961 0.21199 0.98361 0.0
H256 H 0.19016 0.26564 0.97224 0.0
C257 C 0.25878 0.29642 0.00415 0.0
C258 C 0.81488 0.30227 0.27882 0.0
C259 C 0.79668 0.27103 0.28992 0.0
H260 H 0.83888 0.35718 0.2886 0.0
C261 C 0.78904 0.27186 0.32082 0.0
H262 H 0.82122 0.30248 0.25514 0.0
C263 C 0.79934 0.30335 0.3402 0.0
C264 C 0.81738 0.3346 0.32897 0.0
H265 H 0.77578 0.24834 0.33036 0.0
H266 H 0.79319 0.30319 0.36396 0.0
C267 C 0.82496 0.33364 0.29803 0.0
C268 C 0.68897 0.57093 0.37422 0.0
C269 C 0.67698 0.53798 0.38122 0.0
H270 H 0.72729 0.6177 0.36369 0.0
C271 C 0.69567 0.5277 0.38436 0.0
H272 H 0.67517 0.57966 0.37169 0.0
C273 C 0.72547 0.54943 0.37974 0.0
C274 C 0.73731 0.58199 0.37188 0.0
H275 H 0.6872 0.50254 0.38984 0.0
H276 H 0.73909 0.5404 0.38183 0.0
C277 C 0.71884 0.59272 0.3696 0.0
C278 C 0.46721 0.08576 0.30143 0.0
C279 C 0.49693 0.09876 0.30833 0.0
H280 H 0.43664 0.0966 0.28911 0.0
C281 C 0.51905 0.13336 0.30637 0.0
H282 H 0.44962 0.05918 0.30262 0.0
C283 C 0.51161 0.15474 0.29857 0.0
C284 C 0.48188 0.14206 0.2926 0.0
H285 H 0.54216 0.14417 0.31137 0.0
H286 H 0.52923 0.18144 0.29785 0.0
C287 C 0.45975 0.10719 0.29366 0.0
C288 C 0.47931 0.36171 0.30859 0.0
C289 C 0.50289 0.37582 0.33193 0.0
H290 H 0.44458 0.31647 0.27733 0.0
C291 C 0.50856 0.35381 0.34257 0.0
H292 H 0.47432 0.37796 0.2999 0.0
C293 C 0.4916 0.31872 0.32969 0.0
C294 C 0.4685 0.30469 0.30579 0.0
H295 H 0.52646 0.36373 0.36059 0.0
H296 H 0.49695 0.30271 0.33821 0.0
C297 C 0.46227 0.32647 0.29564 0.0
C298 C 0.60762 0.08854 0.35853 0.0
C299 C 0.60089 0.05554 0.35795 0.0
H300 H 0.63827 0.13929 0.34805 0.0
C301 C 0.62064 0.04862 0.34608 0.0
H302 H 0.59334 0.09501 0.36851 0.0
C303 C 0.64639 0.07392 0.33463 0.0
C304 C 0.6532 0.10694 0.33509 0.0
H305 H 0.61609 0.02346 0.34547 0.0
H306 H 0.66102 0.06756 0.32555 0.0
C307 C 0.63356 0.11403 0.3472 0.0
C308 C 0.8399 0.5443 0.34473 0.0
C309 C 0.86077 0.5398 0.3562 0.0
H310 H 0.83243 0.57833 0.32768 0.0
C311 C 0.89049 0.56849 0.3626 0.0
H312 H 0.81686 0.5227 0.33933 0.0
C313 C 0.89931 0.6006 0.35638 0.0
C314 C 0.87858 0.60477 0.3439 0.0
H315 H 0.90714 0.56594 0.37145 0.0
H316 H 0.9225 0.62201 0.3606 0.0
C317 C 0.84875 0.5764 0.33849 0.0
C318 C 0.53132 0.69688 0.64021 0.0
C319 C 0.52891 0.70641 0.67173 0.0
H320 H 0.51447 0.65617 0.60041 0.0
C321 C 0.5077 0.68068 0.68781 0.0
H322 H 0.54749 0.71605 0.62716 0.0
C323 C 0.48868 0.64644 0.67243 0.0
C324 C 0.49053 0.63705 0.64066 0.0
H325 H 0.50525 0.68708 0.7121 0.0
H326 H 0.47222 0.62742 0.68538 0.0
C327 C 0.51239 0.66255 0.62486 0.0
C328 C 0.37283 0.92587 0.66928 0.0
C329 C 0.38468 0.93429 0.70069 0.0
H330 H 0.33388 0.90026 0.63716 0.0
C331 C 0.36561 0.92581 0.72447 0.0
H332 H 0.38691 0.93222 0.65039 0.0
C333 C 0.33517 0.90747 0.71688 0.0
C334 C 0.32314 0.89719 0.68533 0.0
H335 H 0.37402 0.93212 0.74893 0.0
H336 H 0.321 0.90015 0.73569 0.0
C337 C 0.34238 0.90752 0.66169 0.0
C338 C 0.17082 0.48688 0.59919 0.0
C339 C 0.14122 0.47535 0.5956 0.0
H340 H 0.20091 0.47423 0.60723 0.0
C341 C 0.11877 0.44052 0.59639 0.0
H342 H 0.18867 0.51353 0.59863 0.0
C343 C 0.12582 0.41791 0.60136 0.0
C344 C 0.15546 0.42967 0.60564 0.0
H345 H 0.09575 0.4308 0.59367 0.0
H346 H 0.10802 0.39134 0.60229 0.0
C347 C 0.17785 0.46432 0.60415 0.0
C348 C 0.10901 0.65482 0.61203 0.0
C349 C 0.12172 0.63727 0.61549 0.0
H350 H 0.11407 0.70291 0.62139 0.0
C351 C 0.14996 0.65565 0.6319 0.0
H352 H 0.08727 0.64141 0.59955 0.0
C353 C 0.16526 0.69071 0.64429 0.0
C354 C 0.15274 0.7084 0.64071 0.0
H355 H 0.16047 0.64303 0.63509 0.0
H356 H 0.18703 0.70394 0.65665 0.0
C357 C 0.12435 0.69004 0.62457 0.0
C358 C 0.29396 0.44893 0.63407 0.0
C359 C 0.31675 0.44694 0.62326 0.0
H360 H 0.25168 0.42275 0.6515 0.0
C361 C 0.31229 0.41478 0.61835 0.0
H362 H 0.29674 0.47335 0.63832 0.0
C363 C 0.28612 0.38558 0.62539 0.0
C364 C 0.2638 0.38786 0.63731 0.0
H365 H 0.32936 0.41232 0.61 0.0
H366 H 0.28368 0.36136 0.62232 0.0
C367 C 0.26783 0.41973 0.64119 0.0
C368 C 0.56105 0.93705 0.69486 0.0
C369 C 0.5353 0.9305 0.70725 0.0
H370 H 0.58908 0.92049 0.68674 0.0
C371 C 0.51932 0.90296 0.72378 0.0
H372 H 0.57398 0.95815 0.68213 0.0
C373 C 0.52797 0.88136 0.72639 0.0
C374 C 0.55281 0.88682 0.71256 0.0
H375 H 0.49948 0.89727 0.73379 0.0
H376 H 0.51456 0.85969 0.73836 0.0
C377 C 0.56973 0.91545 0.69751 0.0
C378 C 0.28397 0.15547 0.165 0.0
C379 C 0.28936 0.16053 0.13385 0.0
H380 H 0.30124 0.15772 0.21022 0.0
C381 C 0.31737 0.17209 0.12454 0.0
H382 H 0.26263 0.14656 0.17294 0.0
C383 C 0.33951 0.17846 0.14591 0.0
C384 C 0.33412 0.17341 0.17707 0.0
H385 H 0.32224 0.17622 0.1007 0.0
H386 H 0.36085 0.18737 0.13798 0.0
C387 C 0.30611 0.16185 0.18638 0.0
C388 C 0.85905 0.17961 0.15014 0.0
C389 C 0.83734 0.1848 0.14398 0.0
H390 H 0.89087 0.17231 0.13148 0.0
C391 C 0.83216 0.18818 0.1134 0.0
H392 H 0.86364 0.17699 0.17345 0.0
C393 C 0.84777 0.18548 0.08932 0.0
C394 C 0.86893 0.17938 0.09531 0.0
H395 H 0.81564 0.19227 0.10788 0.0
H396 H 0.84286 0.18756 0.0659 0.0
C397 C 0.87468 0.17694 0.12607 0.0
C398 C 0.9288 0.66033 0.18221 0.0
C399 C 0.91083 0.66787 0.19829 0.0
H400 H 0.93639 0.64103 0.13843 0.0
C401 C 0.88617 0.66171 0.1815 0.0
H402 H 0.94789 0.66465 0.19449 0.0
C403 C 0.87969 0.64838 0.14927 0.0
C404 C 0.89753 0.64055 0.13327 0.0
H405 H 0.8719 0.66727 0.19322 0.0
H406 H 0.86058 0.64399 0.13696 0.0
C407 C 0.92213 0.64664 0.1501 0.0
C408 C 0.22448 0.3545 0.83672 0.0
C409 C 0.2497 0.35903 0.85012 0.0
H410 H 0.19539 0.33773 0.79506 0.0
C411 C 0.26482 0.34915 0.83105 0.0
H412 H 0.21237 0.36187 0.85083 0.0
C413 C 0.25485 0.33485 0.7993 0.0
C414 C 0.22981 0.33061 0.7858 0.0
H415 H 0.28424 0.35213 0.84072 0.0
H416 H 0.26701 0.3275 0.78525 0.0
C417 C 0.21477 0.34069 0.8048 0.0
C418 C 0.66064 0.82706 0.85927 0.0
C419 C 0.6883 0.83837 0.849 0.0
H420 H 0.61725 0.81293 0.84758 0.0
C421 C 0.69308 0.844 0.8179 0.0
H422 H 0.65623 0.82249 0.88308 0.0
C423 C 0.67074 0.83857 0.79755 0.0
C424 C 0.64311 0.82736 0.80785 0.0
H425 H 0.71415 0.85273 0.80925 0.0
H426 H 0.67517 0.84321 0.77375 0.0
C427 C 0.63829 0.8216 0.83891 0.0
C428 C 0.16067 0.83437 0.78845 0.0
C429 C 0.15027 0.83593 0.75961 0.0
H430 H 0.15758 0.83663 0.83797 0.0
C431 C 0.12808 0.84128 0.75912 0.0
H432 H 0.17773 0.83025 0.78965 0.0
C433 C 0.11656 0.84499 0.78684 0.0
C434 C 0.12691 0.84334 0.81566 0.0
H435 H 0.11958 0.84262 0.7373 0.0
H436 H 0.09949 0.84909 0.78563 0.0
C437 C 0.14909 0.83799 0.81616 0.0
C438 C 0.97594 0.49204 0.47502 0.0
C439 C 0.97505 0.4861 0.50602 0.0
H440 H 0.95146 0.4851 0.43296 0.0
C441 C 0.94764 0.46787 0.5183 0.0
H442 H 0.9967 0.50603 0.46486 0.0
C443 C 0.92169 0.45573 0.49996 0.0
C444 C 0.92258 0.46172 0.46898 0.0
H445 H 0.94618 0.46283 0.54208 0.0
H446 H 0.90093 0.44172 0.51012 0.0
C447 C 0.95 0.48007 0.45674 0.0
C448 C 0.48801 0.52019 0.43223 0.0
C449 C 0.50762 0.51128 0.43588 0.0
H450 H 0.45942 0.53126 0.4542 0.0
C451 C 0.51334 0.50667 0.46566 0.0
H452 H 0.48313 0.52393 0.4096 0.0
C453 C 0.49963 0.51071 0.4912 0.0
C454 C 0.48002 0.51961 0.48755 0.0
H455 H 0.52829 0.49973 0.46925 0.0
H456 H 0.50448 0.50691 0.51382 0.0
C457 C 0.47441 0.52439 0.45781 0.0
C458 C 0.55417 0.99844 0.52312 0.0
C459 C 0.52952 0.98507 0.50166 0.0
H460 H 0.57206 0.01513 0.5714 0.0
C461 C 0.5035 0.97871 0.51297 0.0
H462 H 0.57454 0.00371 0.51499 0.0
C463 C 0.50185 0.98448 0.5453 0.0
C464 C 0.52647 0.99767 0.56677 0.0
H465 H 0.48415 0.96829 0.49688 0.0
H466 H 0.48132 0.97857 0.55351 0.0
C467 C 0.55279 0.00513 0.55536 0.0
loop_
_geom_bond_atom_site_label_1
_geom_bond_atom_site_label_2
_geom_bond_distance
_geom_bond_site_symmetry_2
_ccdc_geom_bond_type
O0 Cd1 2.300 . S
O0 C7 1.275 . S
Cd1 O0 2.300 . S
Cd1 O9 2.381 . S
Cd1 O10 2.378 . S
O2 Cd3 2.385 1_554 S
O2 C7 1.255 . S
Cd3 O2 2.385 1_556 S
Cd3 O4 2.317 1_556 S
O4 Cd3 2.317 1_554 S
O4 C5 1.227 1_554 S
C5 O4 1.227 1_556 S
C5 O6 1.230 . S
O6 C5 1.230 . S
C7 O0 1.275 . S
C7 O2 1.255 . S
C8 O9 1.258 . S
C8 O10 1.256 . S
O9 Cd1 2.381 . S
O9 C8 1.258 . S
O10 Cd1 2.378 . S
O10 C8 1.256 . S
O11 Cd12 2.300 . S
O11 C18 1.275 . S
Cd12 O11 2.300 . S
Cd12 O20 2.381 . S
Cd12 O21 2.378 . S
O13 Cd14 2.385 . S
O13 C18 1.255 . S
Cd14 O13 2.385 . S
Cd14 O15 2.317 . S
O15 Cd14 2.317 . S
O15 C16 1.232 . S
C16 O15 1.232 . S
C16 O17 1.218 . S
O17 C16 1.218 . S
C18 O11 1.275 . S
C18 O13 1.255 . S
C19 O20 1.258 . S
C19 O21 1.256 . S
O20 Cd12 2.381 . S
O20 C19 1.258 . S
O21 Cd12 2.378 . S
O21 C19 1.256 . S
O22 Cd23 2.300 . S
O22 C29 1.275 . S
Cd23 O22 2.300 . S
Cd23 O31 2.381 . S
Cd23 O32 2.378 . S
O24 Cd25 2.385 . S
O24 C29 1.255 . S
Cd25 O24 2.385 . S
Cd25 O26 2.317 . S
O26 Cd25 2.317 . S
O26 C27 1.232 . S
C27 O26 1.232 . S
C27 O28 1.223 . S
O28 C27 1.223 . S
C29 O22 1.275 . S
C29 O24 1.255 . S
C30 O31 1.258 . S
C30 O32 1.256 . S
O31 Cd23 2.381 . S
O31 C30 1.258 . S
O32 Cd23 2.378 . S
O32 C30 1.256 . S
O33 Cd34 2.300 . S
O33 C40 1.275 . S
Cd34 O33 2.300 . S
Cd34 O42 2.381 . S
Cd34 O43 2.378 . S
O35 Cd36 2.385 . S
O35 C40 1.255 . S
Cd36 O35 2.385 . S
Cd36 O37 2.317 . S
O37 Cd36 2.317 . S
O37 C38 1.232 . S
C38 O37 1.232 . S
C38 O39 1.218 . S
O39 C38 1.218 . S
C40 O33 1.275 . S
C40 O35 1.255 . S
C41 O42 1.258 . S
C41 O43 1.256 . S
O42 Cd34 2.381 . S
O42 C41 1.258 . S
O43 Cd34 2.378 . S
O43 C41 1.256 . S
O44 Cd45 2.300 . S
O44 C51 1.275 . S
Cd45 O44 2.300 . S
Cd45 O53 2.381 . S
Cd45 O54 2.378 . S
O46 Cd47 2.385 . S
O46 C51 1.255 . S
Cd47 O46 2.385 . S
Cd47 O48 2.317 . S
O48 Cd47 2.317 . S
O48 C49 1.232 . S
C49 O48 1.232 . S
C49 O50 1.218 . S
O50 C49 1.218 . S
C51 O44 1.275 . S
C51 O46 1.255 . S
C52 O53 1.258 . S
C52 O54 1.256 . S
O53 Cd45 2.381 . S
O53 C52 1.258 . S
O54 Cd45 2.378 . S
O54 C52 1.256 . S
O55 Cd56 2.300 . S
O55 C62 1.275 . S
Cd56 O55 2.300 . S
Cd56 O64 2.381 . S
Cd56 O65 2.378 . S
O57 Cd58 2.385 1_556 S
O57 C62 1.255 . S
Cd58 O57 2.385 1_554 S
Cd58 O59 2.317 1_554 S
O59 Cd58 2.317 1_556 S
O59 C60 1.232 . S
C60 O59 1.232 . S
C60 O61 1.218 1_556 S
O61 C60 1.218 1_554 S
C62 O55 1.275 . S
C62 O57 1.255 . S
C63 O64 1.258 . S
C63 O65 1.256 . S
O64 Cd56 2.381 . S
O64 C63 1.258 . S
O65 Cd56 2.378 . S
O65 C63 1.256 . S
O66 Cd67 2.300 . S
O66 C73 1.275 . S
Cd67 O66 2.300 . S
Cd67 O75 2.381 . S
Cd67 O76 2.378 . S
O68 Cd69 2.385 . S
O68 C73 1.255 . S
Cd69 O68 2.385 . S
Cd69 O70 2.317 . S
O70 Cd69 2.317 . S
O70 C71 1.232 . S
C71 O70 1.232 . S
C71 O72 1.218 . S
O72 C71 1.218 . S
C73 O66 1.275 . S
C73 O68 1.255 . S
C74 O75 1.258 . S
C74 O76 1.256 . S
O75 Cd67 2.381 . S
O75 C74 1.258 . S
O76 Cd67 2.378 . S
O76 C74 1.256 . S
O77 Cd78 2.300 . S
O77 C84 1.275 . S
Cd78 O77 2.300 . S
Cd78 O86 2.381 . S
Cd78 O87 2.378 . S
O79 Cd80 2.385 . S
O79 C84 1.255 . S
Cd80 O79 2.385 . S
Cd80 O81 2.317 . S
O81 Cd80 2.317 . S
O81 C82 1.232 . S
C82 O81 1.232 . S
C82 O83 1.218 . S
O83 C82 1.218 . S
C84 O77 1.275 . S
C84 O79 1.255 . S
C85 O86 1.258 . S
C85 O87 1.256 . S
O86 Cd78 2.381 . S
O86 C85 1.258 . S
O87 Cd78 2.378 . S
O87 C85 1.256 . S
O88 Cd89 2.300 . S
O88 C95 1.275 . S
Cd89 O88 2.300 . S
Cd89 O97 2.381 . S
Cd89 O98 2.378 . S
O90 Cd91 2.385 . S
O90 C95 1.255 . S
Cd91 O90 2.385 . S
Cd91 O92 2.317 . S
O92 Cd91 2.317 . S
O92 C93 1.232 . S
C93 O92 1.232 . S
C93 O94 1.218 . S
O94 C93 1.218 . S
C95 O88 1.275 . S
C95 O90 1.255 . S
C96 O97 1.258 . S
C96 O98 1.256 . S
O97 Cd89 2.381 . S
O97 C96 1.258 . S
O98 Cd89 2.378 . S
O98 C96 1.256 . S
O99 Cd100 2.300 . S
O99 C106 1.275 . S
Cd100 O99 2.300 . S
Cd100 O108 2.381 . S
Cd100 O109 2.378 . S
O101 Cd102 2.385 . S
O101 C106 1.255 . S
Cd102 O101 2.385 . S
Cd102 O103 2.317 . S
O103 Cd102 2.317 . S
O103 C104 1.232 . S
C104 O103 1.232 . S
C104 O105 1.218 . S
O105 C104 1.218 . S
C106 O99 1.275 . S
C106 O101 1.255 . S
C107 O108 1.258 . S
C107 O109 1.256 . S
O108 Cd100 2.381 . S
O108 C107 1.258 . S
O109 Cd100 2.378 . S
O109 C107 1.256 . S
O110 Cd111 2.300 . S
O110 C117 1.275 . S
Cd111 O110 2.300 . S
Cd111 O119 2.381 . S
Cd111 O120 2.378 . S
O112 Cd113 2.385 . S
O112 C117 1.255 . S
Cd113 O112 2.385 . S
Cd113 O114 2.317 . S
O114 Cd113 2.317 . S
O114 C115 1.232 . S
C115 O114 1.232 . S
C115 O116 1.218 . S
O116 C115 1.218 . S
C117 O110 1.275 . S
C117 O112 1.255 . S
C118 O119 1.258 . S
C118 O120 1.256 . S
O119 Cd111 2.381 . S
O119 C118 1.258 . S
O120 Cd111 2.378 . S
O120 C118 1.256 . S
O121 Cd122 2.300 . S
O121 C128 1.275 . S
Cd122 O121 2.300 . S
Cd122 O130 2.381 . S
Cd122 O131 2.378 . S
O123 Cd124 2.385 . S
O123 C128 1.255 . S
Cd124 O123 2.385 . S
Cd124 O125 2.317 . S
O125 Cd124 2.317 . S
O125 C126 1.232 . S
C126 O125 1.232 . S
C126 O127 1.218 . S
O127 C126 1.218 . S
C128 O121 1.275 . S
C128 O123 1.255 . S
C129 O130 1.258 . S
C129 O131 1.256 . S
O130 Cd122 2.381 . S
O130 C129 1.258 . S
O131 Cd122 2.378 . S
O131 C129 1.256 . S
O132 Cd133 2.300 . S
O132 C139 1.275 . S
Cd133 O132 2.300 . S
Cd133 O141 2.381 . S
Cd133 O142 2.378 . S
O134 Cd135 2.385 . S
O134 C139 1.255 . S
Cd135 O134 2.385 . S
Cd135 O136 2.317 . S
O136 Cd135 2.317 . S
O136 C137 1.232 . S
C137 O136 1.232 . S
C137 O138 1.218 . S
O138 C137 1.218 . S
C139 O132 1.275 . S
C139 O134 1.255 . S
C140 O141 1.258 . S
C140 O142 1.256 . S
O141 Cd133 2.381 . S
O141 C140 1.258 . S
O142 Cd133 2.378 . S
O142 C140 1.256 . S
O143 Cd144 2.300 . S
O143 C150 1.275 . S
Cd144 O143 2.300 . S
Cd144 O152 2.381 . S
Cd144 O153 2.378 . S
O145 Cd146 2.385 . S
O145 C150 1.255 . S
Cd146 O145 2.385 . S
Cd146 O147 2.317 . S
O147 Cd146 2.317 . S
O147 C148 1.232 . S
C148 O147 1.232 . S
C148 O149 1.218 . S
O149 C148 1.218 . S
C150 O143 1.275 . S
C150 O145 1.255 . S
C151 O152 1.258 . S
C151 O153 1.256 . S
O152 Cd144 2.381 . S
O152 C151 1.258 . S
O153 Cd144 2.378 . S
O153 C151 1.256 . S
O154 Cd155 2.300 . S
O154 C161 1.275 . S
Cd155 O154 2.300 . S
Cd155 O163 2.381 . S
Cd155 O164 2.378 . S
O156 Cd157 2.385 . S
O156 C161 1.255 . S
Cd157 O156 2.385 . S
Cd157 O158 2.317 . S
O158 Cd157 2.317 . S
O158 C159 1.232 . S
C159 O158 1.232 . S
C159 O160 1.218 . S
O160 C159 1.218 . S
C161 O154 1.275 . S
C161 O156 1.255 . S
C162 O163 1.258 . S
C162 O164 1.256 . S
O163 Cd155 2.381 . S
O163 C162 1.258 . S
O164 Cd155 2.378 . S
O164 C162 1.256 . S
O165 Cd166 2.300 . S
O165 C172 1.275 . S
Cd166 O165 2.300 . S
Cd166 O174 2.381 . S
Cd166 O175 2.378 . S
O167 Cd168 2.385 . S
O167 C172 1.255 . S
Cd168 O167 2.385 . S
Cd168 O169 2.317 . S
O169 Cd168 2.317 . S
O169 C170 1.232 . S
C170 O169 1.232 . S
C170 O171 1.218 . S
O171 C170 1.218 . S
C172 O165 1.275 . S
C172 O167 1.255 . S
C173 O174 1.258 . S
C173 O175 1.256 . S
O174 Cd166 2.381 . S
O174 C173 1.258 . S
O175 Cd166 2.378 . S
O175 C173 1.256 . S
O176 Cd177 2.300 . S
O176 C183 1.275 . S
Cd177 O176 2.300 . S
Cd177 O185 2.381 . S
Cd177 O186 2.378 . S
O178 Cd179 2.385 . S
O178 C183 1.255 . S
Cd179 O178 2.385 . S
Cd179 O180 2.317 . S
O180 Cd179 2.317 . S
O180 C181 1.232 . S
C181 O180 1.232 . S
C181 O182 1.218 . S
O182 C181 1.218 . S
C183 O176 1.275 . S
C183 O178 1.255 . S
C184 O185 1.258 . S
C184 O186 1.256 . S
O185 Cd177 2.381 . S
O185 C184 1.258 . S
O186 Cd177 2.378 . S
O186 C184 1.256 . S
O187 Cd188 2.300 . S
O187 C194 1.275 . S
Cd188 O187 2.300 . S
Cd188 O196 2.381 . S
Cd188 O197 2.378 . S
O189 Cd190 2.385 . S
O189 C194 1.255 . S
Cd190 O189 2.385 . S
Cd190 O191 2.317 . S
O191 Cd190 2.317 . S
O191 C192 1.232 . S
C192 O191 1.232 . S
C192 O193 1.218 . S
O193 C192 1.218 . S
C194 O187 1.275 . S
C194 O189 1.255 . S
C195 O196 1.258 . S
C195 O197 1.256 . S
O196 Cd188 2.381 . S
O196 C195 1.258 . S
O197 Cd188 2.378 . S
O197 C195 1.256 . S
C198 C199 1.387 1_556 S
C198 H202 0.950 . S
C198 C207 1.390 1_545 S
C199 C198 1.387 1_554 S
C199 C201 1.387 . S
H200 C207 0.950 . S
C201 C199 1.387 . S
C201 C203 1.390 1_544 S
C201 H205 0.950 . S
H202 C198 0.950 . S
C203 C201 1.390 1_566 S
C203 C204 1.387 . S
C203 H206 0.950 . S
C204 C203 1.387 . S
C204 C207 1.387 . S
H205 C201 0.950 . S
H206 C203 0.950 . S
C207 C198 1.390 1_565 S
C207 H200 0.950 . S
C207 C204 1.387 . S
C208 C209 1.387 1_556 S
C208 H212 0.950 . S
C208 C217 1.390 1_655 S
C209 C208 1.387 1_554 S
C209 C211 1.387 1_655 S
H210 C217 0.950 . S
C211 C209 1.387 1_455 S
C211 C213 1.390 . S
C211 H215 0.950 . S
H212 C208 0.950 . S
C213 C211 1.390 . S
C213 C214 1.387 1_554 S
C213 H216 0.950 . S
C214 C213 1.387 1_556 S
C214 C217 1.387 . S
H215 C211 0.950 . S
H216 C213 0.950 . S
C217 C208 1.390 1_455 S
C217 H210 0.950 . S
C217 C214 1.387 . S
C218 C219 1.387 . S
C218 H222 0.950 . S
C218 C227 1.390 . S
C219 C218 1.387 . S
C219 C221 1.387 . S
H220 C227 0.950 . S
C221 C219 1.387 . S
C221 C223 1.390 . S
C221 H225 0.950 . S
H222 C218 0.950 . S
C223 C221 1.390 . S
C223 C224 1.387 . S
C223 H226 0.950 . S
C224 C223 1.387 . S
C224 C227 1.387 . S
H225 C221 0.950 . S
H226 C223 0.950 . S
C227 C218 1.390 . S
C227 H220 0.950 . S
C227 C224 1.387 . S
C228 C229 1.387 1_556 S
C228 H232 0.950 1_556 S
C228 C237 1.390 1_545 S
C229 C228 1.387 1_554 S
C229 C231 1.387 . S
H230 C237 0.950 . S
C231 C229 1.387 . S
C231 C233 1.390 1_544 S
C231 H235 0.950 . S
H232 C228 0.950 1_554 S
C233 C231 1.390 1_566 S
C233 C234 1.387 . S
C233 H236 0.950 . S
C234 C233 1.387 . S
C234 C237 1.387 . S
H235 C231 0.950 . S
H236 C233 0.950 . S
C237 C228 1.390 1_565 S
C237 H230 0.950 . S
C237 C234 1.387 . S
C238 C239 1.387 1_554 S
C238 H242 0.950 . S
C238 C247 1.390 1_455 S
C239 C238 1.387 1_556 S
C239 C241 1.387 1_455 S
H240 C247 0.950 . S
C241 C239 1.387 1_655 S
C241 C243 1.390 . S
C241 H245 0.950 . S
H242 C238 0.950 . S
C243 C241 1.390 . S
C243 C244 1.387 1_556 S
C243 H246 0.950 . S
C244 C243 1.387 1_554 S
C244 C247 1.387 . S
H245 C241 0.950 . S
H246 C243 0.950 . S
C247 C238 1.390 1_655 S
C247 H240 0.950 . S
C247 C244 1.387 . S
C248 C249 1.387 . S
C248 H252 0.950 . S
C248 C257 1.402 . S
C249 C248 1.387 . S
C249 C251 1.387 1_554 S
H250 C257 0.956 . S
C251 C249 1.387 1_556 S
C251 C253 1.390 . S
C251 H255 0.950 . S
H252 C248 0.950 . S
C253 C251 1.390 . S
C253 C254 1.387 . S
C253 H256 0.950 . S
C254 C253 1.387 . S
C254 C257 1.370 1_556 S
H255 C251 0.950 . S
H256 C253 0.950 . S
C257 C248 1.402 . S
C257 H250 0.956 . S
C257 C254 1.370 1_554 S
C258 C259 1.387 . S
C258 H262 0.950 . S
C258 C267 1.390 . S
C259 C258 1.387 . S
C259 C261 1.387 . S
H260 C267 0.950 . S
C261 C259 1.387 . S
C261 C263 1.390 . S
C261 H265 0.950 . S
H262 C258 0.950 . S
C263 C261 1.390 . S
C263 C264 1.387 . S
C263 H266 0.950 . S
C264 C263 1.387 . S
C264 C267 1.387 . S
H265 C261 0.950 . S
H266 C263 0.950 . S
C267 C258 1.390 . S
C267 H260 0.950 . S
C267 C264 1.387 . S
C268 C269 1.387 . S
C268 H272 0.950 . S
C268 C277 1.390 . S
C269 C268 1.387 . S
C269 C271 1.387 . S
H270 C277 0.950 . S
C271 C269 1.387 . S
C271 C273 1.390 . S
C271 H275 0.950 . S
H272 C268 0.950 . S
C273 C271 1.390 . S
C273 C274 1.387 . S
C273 H276 0.950 . S
C274 C273 1.387 . S
C274 C277 1.387 . S
H275 C271 0.950 . S
H276 C273 0.950 . S
C277 C268 1.390 . S
C277 H270 0.950 . S
C277 C274 1.387 . S
C278 C279 1.387 . S
C278 H282 0.950 . S
C278 C287 1.390 . S
C279 C278 1.387 . S
C279 C281 1.387 . S
H280 C287 0.950 . S
C281 C279 1.387 . S
C281 C283 1.390 . S
C281 H285 0.950 . S
H282 C278 0.950 . S
C283 C281 1.390 . S
C283 C284 1.387 . S
C283 H286 0.950 . S
C284 C283 1.387 . S
C284 C287 1.387 . S
H285 C281 0.950 . S
H286 C283 0.950 . S
C287 C278 1.390 . S
C287 H280 0.950 . S
C287 C284 1.387 . S
C288 C289 1.387 . S
C288 H292 0.950 . S
C288 C297 1.390 . S
C289 C288 1.387 . S
C289 C291 1.387 . S
H290 C297 0.950 . S
C291 C289 1.387 . S
C291 C293 1.390 . S
C291 H295 0.950 . S
H292 C288 0.950 . S
C293 C291 1.390 . S
C293 C294 1.387 . S
C293 H296 0.950 . S
C294 C293 1.387 . S
C294 C297 1.387 . S
H295 C291 0.950 . S
H296 C293 0.950 . S
C297 C288 1.390 . S
C297 H290 0.950 . S
C297 C294 1.387 . S
C298 C299 1.387 . S
C298 H302 0.950 . S
C298 C307 1.390 . S
C299 C298 1.387 . S
C299 C301 1.387 . S
H300 C307 0.950 . S
C301 C299 1.387 . S
C301 C303 1.390 . S
C301 H305 0.950 . S
H302 C298 0.950 . S
C303 C301 1.390 . S
C303 C304 1.387 . S
C303 H306 0.950 . S
C304 C303 1.387 . S
C304 C307 1.387 . S
H305 C301 0.950 . S
H306 C303 0.950 . S
C307 C298 1.390 . S
C307 H300 0.950 . S
C307 C304 1.387 . S
C308 C309 1.387 . S
C308 H312 0.950 . S
C308 C317 1.390 . S
C309 C308 1.387 . S
C309 C311 1.387 . S
H310 C317 0.950 . S
C311 C309 1.387 . S
C311 C313 1.390 . S
C311 H315 0.950 . S
H312 C308 0.950 . S
C313 C311 1.390 . S
C313 C314 1.387 . S
C313 H316 0.950 . S
C314 C313 1.387 . S
C314 C317 1.387 . S
H315 C311 0.950 . S
H316 C313 0.950 . S
C317 C308 1.390 . S
C317 H310 0.950 . S
C317 C314 1.387 . S
C318 C319 1.387 . S
C318 H322 0.950 . S
C318 C327 1.390 . S
C319 C318 1.387 . S
C319 C321 1.387 . S
H320 C327 0.950 . S
C321 C319 1.387 . S
C321 C323 1.390 . S
C321 H325 0.950 . S
H322 C318 0.950 . S
C323 C321 1.390 . S
C323 C324 1.387 . S
C323 H326 0.950 . S
C324 C323 1.387 . S
C324 C327 1.387 . S
H325 C321 0.950 . S
H326 C323 0.950 . S
C327 C318 1.390 . S
C327 H320 0.950 . S
C327 C324 1.387 . S
C328 C329 1.387 . S
C328 H332 0.950 . S
C328 C337 1.390 . S
C329 C328 1.387 . S
C329 C331 1.387 . S
H330 C337 0.950 . S
C331 C329 1.387 . S
C331 C333 1.390 . S
C331 H335 0.950 . S
H332 C328 0.950 . S
C333 C331 1.390 . S
C333 C334 1.387 . S
C333 H336 0.950 . S
C334 C333 1.387 . S
C334 C337 1.387 . S
H335 C331 0.950 . S
H336 C333 0.950 . S
C337 C328 1.390 . S
C337 H330 0.950 . S
C337 C334 1.387 . S
C338 C339 1.387 . S
C338 H342 0.950 . S
C338 C347 1.390 . S
C339 C338 1.387 . S
C339 C341 1.387 . S
H340 C347 0.950 . S
C341 C339 1.387 . S
C341 C343 1.390 . S
C341 H345 0.950 . S
H342 C338 0.950 . S
C343 C341 1.390 . S
C343 C344 1.387 . S
C343 H346 0.950 . S
C344 C343 1.387 . S
C344 C347 1.387 . S
H345 C341 0.950 . S
H346 C343 0.950 . S
C347 C338 1.390 . S
C347 H340 0.950 . S
C347 C344 1.387 . S
C348 C349 1.387 . S
C348 H352 0.950 . S
C348 C357 1.390 . S
C349 C348 1.387 . S
C349 C351 1.387 . S
H350 C357 0.950 . S
C351 C349 1.387 . S
C351 C353 1.390 . S
C351 H355 0.950 . S
H352 C348 0.950 . S
C353 C351 1.390 . S
C353 C354 1.387 . S
C353 H356 0.950 . S
C354 C353 1.387 . S
C354 C357 1.387 . S
H355 C351 0.950 . S
H356 C353 0.950 . S
C357 C348 1.390 . S
C357 H350 0.950 . S
C357 C354 1.387 . S
C358 C359 1.387 . S
C358 H362 0.950 . S
C358 C367 1.390 . S
C359 C358 1.387 . S
C359 C361 1.387 . S
H360 C367 0.950 . S
C361 C359 1.387 . S
C361 C363 1.390 . S
C361 H365 0.950 . S
H362 C358 0.950 . S
C363 C361 1.390 . S
C363 C364 1.387 . S
C363 H366 0.950 . S
C364 C363 1.387 . S
C364 C367 1.387 . S
H365 C361 0.950 . S
H366 C363 0.950 . S
C367 C358 1.390 . S
C367 H360 0.950 . S
C367 C364 1.387 . S
C368 C369 1.387 . S
C368 H372 0.950 . S
C368 C377 1.390 . S
C369 C368 1.387 . S
C369 C371 1.387 . S
H370 C377 0.950 . S
C371 C369 1.387 . S
C371 C373 1.390 . S
C371 H375 0.950 . S
H372 C368 0.950 . S
C373 C371 1.390 . S
C373 C374 1.387 . S
C373 H376 0.950 . S
C374 C373 1.387 . S
C374 C377 1.387 . S
H375 C371 0.950 . S
H376 C373 0.950 . S
C377 C368 1.390 . S
C377 H370 0.950 . S
C377 C374 1.387 . S
C378 C379 1.387 . S
C378 H382 0.950 . S
C378 C387 1.390 . S
C379 C378 1.387 . S
C379 C381 1.387 . S
H380 C387 0.950 . S
C381 C379 1.387 . S
C381 C383 1.390 . S
C381 H385 0.950 . S
H382 C378 0.950 . S
C383 C381 1.390 . S
C383 C384 1.387 . S
C383 H386 0.950 . S
C384 C383 1.387 . S
C384 C387 1.387 . S
H385 C381 0.950 . S
H386 C383 0.950 . S
C387 C378 1.390 . S
C387 H380 0.950 . S
C387 C384 1.387 . S
C388 C389 1.387 . S
C388 H392 0.950 . S
C388 C397 1.390 . S
C389 C388 1.387 . S
C389 C391 1.387 . S
H390 C397 0.950 . S
C391 C389 1.387 . S
C391 C393 1.390 . S
C391 H395 0.950 . S
H392 C388 0.950 . S
C393 C391 1.390 . S
C393 C394 1.387 . S
C393 H396 0.950 . S
C394 C393 1.387 . S
C394 C397 1.387 . S
H395 C391 0.950 . S
H396 C393 0.950 . S
C397 C388 1.390 . S
C397 H390 0.950 . S
C397 C394 1.387 . S
C398 C399 1.387 . S
C398 H402 0.950 . S
C398 C407 1.390 . S
C399 C398 1.387 . S
C399 C401 1.387 . S
H400 C407 0.950 . S
C401 C399 1.387 . S
C401 C403 1.390 . S
C401 H405 0.950 . S
H402 C398 0.950 . S
C403 C401 1.390 . S
C403 C404 1.387 . S
C403 H406 0.950 . S
C404 C403 1.387 . S
C404 C407 1.387 . S
H405 C401 0.950 . S
H406 C403 0.950 . S
C407 C398 1.390 . S
C407 H400 0.950 . S
C407 C404 1.387 . S
C408 C409 1.387 . S
C408 H412 0.950 . S
C408 C417 1.390 . S
C409 C408 1.387 . S
C409 C411 1.387 . S
H410 C417 0.950 . S
C411 C409 1.387 . S
C411 C413 1.390 . S
C411 H415 0.950 . S
H412 C408 0.950 . S
C413 C411 1.390 . S
C413 C414 1.387 . S
C413 H416 0.950 . S
C414 C413 1.387 . S
C414 C417 1.387 . S
H415 C411 0.950 . S
H416 C413 0.950 . S
C417 C408 1.390 . S
C417 H410 0.950 . S
C417 C414 1.387 . S
C418 C419 1.387 . S
C418 H422 0.950 . S
C418 C427 1.390 . S
C419 C418 1.387 . S
C419 C421 1.387 . S
H420 C427 0.950 . S
C421 C419 1.387 . S
C421 C423 1.390 . S
C421 H425 0.950 . S
H422 C418 0.950 . S
C423 C421 1.390 . S
C423 C424 1.387 . S
C423 H426 0.950 . S
C424 C423 1.387 . S
C424 C427 1.387 . S
H425 C421 0.950 . S
H426 C423 0.950 . S
C427 C418 1.390 . S
C427 H420 0.950 . S
C427 C424 1.387 . S
C428 C429 1.387 . S
C428 H432 0.950 . S
C428 C437 1.390 . S
C429 C428 1.387 . S
C429 C431 1.387 . S
H430 C437 0.950 . S
C431 C429 1.387 . S
C431 C433 1.390 . S
C431 H435 0.950 . S
H432 C428 0.950 . S
C433 C431 1.390 . S
C433 C434 1.387 . S
C433 H436 0.950 . S
C434 C433 1.387 . S
C434 C437 1.387 . S
H435 C431 0.950 . S
H436 C433 0.950 . S
C437 C428 1.390 . S
C437 H430 0.950 . S
C437 C434 1.387 . S
C438 C439 1.387 . S
C438 H442 0.950 . S
C438 C447 1.390 . S
C439 C438 1.387 . S
C439 C441 1.387 . S
H440 C447 0.950 . S
C441 C439 1.387 . S
C441 C443 1.390 1_455 S
C441 H445 0.950 . S
H442 C438 0.950 . S
C443 C441 1.390 1_655 S
C443 C444 1.387 . S
C443 H446 0.950 . S
C444 C443 1.387 . S
C444 C447 1.387 1_655 S
H445 C441 0.950 . S
H446 C443 0.950 . S
C447 C438 1.390 . S
C447 H440 0.950 . S
C447 C444 1.387 1_455 S
C448 C449 1.387 . S
C448 H452 0.950 . S
C448 C457 1.390 . S
C449 C448 1.387 . S
C449 C451 1.387 . S
H450 C457 0.950 . S
C451 C449 1.387 . S
C451 C453 1.390 . S
C451 H455 0.950 . S
H452 C448 0.950 . S
C453 C451 1.390 . S
C453 C454 1.387 . S
C453 H456 0.950 . S
C454 C453 1.387 . S
C454 C457 1.387 . S
H455 C451 0.950 . S
H456 C453 0.950 . S
C457 C448 1.390 . S
C457 H450 0.950 . S
C457 C454 1.387 . S
C458 C459 1.387 . S
C458 H462 0.950 . S
C458 C467 1.390 1_545 S
C459 C458 1.387 . S
C459 C461 1.387 . S
H460 C467 0.950 . S
C461 C459 1.387 . S
C461 C463 1.390 1_545 S
C461 H465 0.950 . S
H462 C458 0.950 . S
C463 C461 1.390 1_565 S
C463 C464 1.387 . S
C463 H466 0.950 . S
C464 C463 1.387 . S
C464 C467 1.387 . S
H465 C461 0.950 . S
H466 C463 0.950 . S
C467 C458 1.390 1_565 S
C467 H460 0.950 . S
C467 C464 1.387 . S
C199 C7 1.564 . S
C204 C62 1.563 . S
C209 C16 1.378 . S
C214 C38 1.329 . S
C219 C27 1.329 1_556 S
C224 C49 1.381 . S
C229 C18 1.487 . S
C234 C51 1.487 . S
C239 C60 1.265 . S
C244 C29 1.473 . S
C249 C5 1.270 1_554 S
C254 C40 1.471 . S
C259 C128 1.562 . S
C264 C73 1.564 . S
C269 C82 1.382 . S
C274 C104 1.329 . S
C279 C93 1.329 . S
C284 C115 1.382 . S
C289 C84 1.487 . S
C294 C117 1.487 . S
C299 C95 1.472 . S
C304 C126 1.266 . S
C309 C71 1.265 . S
C314 C106 1.474 . S
C319 C139 1.565 . S
C324 C194 1.562 . S
C329 C170 1.330 . S
C334 C148 1.380 . S
C339 C181 1.378 . S
C344 C159 1.328 . S
C349 C183 1.487 . S
C354 C150 1.487 . S
C359 C192 1.265 . S
C364 C161 1.473 . S
C369 C172 1.471 . S
C374 C137 1.270 . S
C379 C8 1.526 . S
C384 C118 1.556 . S
C389 C129 1.524 . S
C394 C19 1.556 . S
C399 C107 1.520 . S
C404 C30 1.520 . S
C409 C41 1.519 . S
C414 C162 1.519 . S
C419 C52 1.556 . S
C424 C140 1.526 . S
C429 C151 1.557 . S
C434 C63 1.526 . S
C439 C184 1.556 . S
C444 C74 1.523 . S
C449 C85 1.556 . S
C454 C195 1.526 . S
C459 C96 1.520 . S
C464 C173 1.520 . S
