# Generated by pormake.
# Topology wkh, (6)-cn, num edge types: 1
# Building blocks:
#     Node 0, Type 0, BuildingBlock: IZENUY_clean_sbu_0, # of connection points: 6
#     Node 1, Type 0, BuildingBlock: IZENUY_clean_sbu_0, # of connection points: 6
#     Node 2, Type 0, BuildingBlock: IZENUY_clean_sbu_0, # of connection points: 6
#     Node 3, Type 0, BuildingBlock: IZENUY_clean_sbu_0, # of connection points: 6
#     Node 4, Type 0, BuildingBlock: IZENUY_clean_sbu_0, # of connection points: 6
#     Node 5, Type 0, BuildingBlock: IZENUY_clean_sbu_0, # of connection points: 6
#     Node 6, Type 0, BuildingBlock: IZENUY_clean_sbu_0, # of connection points: 6
#     Node 7, Type 0, BuildingBlock: IZENUY_clean_sbu_0, # of connection points: 6
#     Node 8, Type 0, BuildingBlock: IZENUY_clean_sbu_0, # of connection points: 6
#     Node 9, Type 0, BuildingBlock: IZENUY_clean_sbu_0, # of connection points: 6
#     Node 10, Type 0, BuildingBlock: IZENUY_clean_sbu_0, # of connection points: 6
#     Node 11, Type 0, BuildingBlock: IZENUY_clean_sbu_0, # of connection points: 6
#     Edge 12, Type (0, 0), BuildingBlock: KIFKEQ_clean_linker_1, # of connection points: 2
#     Edge 13, Type (0, 0), BuildingBlock: KIFKEQ_clean_linker_1, # of connection points: 2
#     Edge 14, Type (0, 0), BuildingBlock: KIFKEQ_clean_linker_1, # of connection points: 2
#     Edge 15, Type (0, 0), BuildingBlock: KIFKEQ_clean_linker_1, # of connection points: 2
#     Edge 16, Type (0, 0), BuildingBlock: KIFKEQ_clean_linker_1, # of connection points: 2
#     Edge 17, Type (0, 0), BuildingBlock: KIFKEQ_clean_linker_1, # of connection points: 2
#     Edge 18, Type (0, 0), BuildingBlock: KIFKEQ_clean_linker_1, # of connection points: 2
#     Edge 19, Type (0, 0), BuildingBlock: KIFKEQ_clean_linker_1, # of connection points: 2
#     Edge 20, Type (0, 0), BuildingBlock: KIFKEQ_clean_linker_1, # of connection points: 2
#     Edge 21, Type (0, 0), BuildingBlock: KIFKEQ_clean_linker_1, # of connection points: 2
#     Edge 22, Type (0, 0), BuildingBlock: KIFKEQ_clean_linker_1, # of connection points: 2
#     Edge 23, Type (0, 0), BuildingBlock: KIFKEQ_clean_linker_1, # of connection points: 2
#     Edge 24, Type (0, 0), BuildingBlock: KIFKEQ_clean_linker_1, # of connection points: 2
#     Edge 25, Type (0, 0), BuildingBlock: KIFKEQ_clean_linker_1, # of connection points: 2
#     Edge 26, Type (0, 0), BuildingBlock: KIFKEQ_clean_linker_1, # of connection points: 2
#     Edge 27, Type (0, 0), BuildingBlock: KIFKEQ_clean_linker_1, # of connection points: 2
#     Edge 28, Type (0, 0), BuildingBlock: KIFKEQ_clean_linker_1, # of connection points: 2
#     Edge 29, Type (0, 0), BuildingBlock: KIFKEQ_clean_linker_1, # of connection points: 2
#     Edge 30, Type (0, 0), BuildingBlock: KIFKEQ_clean_linker_1, # of connection points: 2
#     Edge 31, Type (0, 0), BuildingBlock: KIFKEQ_clean_linker_1, # of connection points: 2
#     Edge 32, Type (0, 0), BuildingBlock: KIFKEQ_clean_linker_1, # of connection points: 2
#     Edge 33, Type (0, 0), BuildingBlock: KIFKEQ_clean_linker_1, # of connection points: 2
#     Edge 34, Type (0, 0), BuildingBlock: KIFKEQ_clean_linker_1, # of connection points: 2
#     Edge 35, Type (0, 0), BuildingBlock: KIFKEQ_clean_linker_1, # of connection points: 2
#     Edge 36, Type (0, 0), BuildingBlock: KIFKEQ_clean_linker_1, # of connection points: 2
#     Edge 37, Type (0, 0), BuildingBlock: KIFKEQ_clean_linker_1, # of connection points: 2
#     Edge 38, Type (0, 0), BuildingBlock: KIFKEQ_clean_linker_1, # of connection points: 2
#     Edge 39, Type (0, 0), BuildingBlock: KIFKEQ_clean_linker_1, # of connection points: 2
#     Edge 40, Type (0, 0), BuildingBlock: KIFKEQ_clean_linker_1, # of connection points: 2
#     Edge 41, Type (0, 0), BuildingBlock: KIFKEQ_clean_linker_1, # of connection points: 2
#     Edge 42, Type (0, 0), BuildingBlock: KIFKEQ_clean_linker_1, # of connection points: 2
#     Edge 43, Type (0, 0), BuildingBlock: KIFKEQ_clean_linker_1, # of connection points: 2
#     Edge 44, Type (0, 0), BuildingBlock: KIFKEQ_clean_linker_1, # of connection points: 2
#     Edge 45, Type (0, 0), BuildingBlock: KIFKEQ_clean_linker_1, # of connection points: 2
#     Edge 46, Type (0, 0), BuildingBlock: KIFKEQ_clean_linker_1, # of connection points: 2
#     Edge 47, Type (0, 0), BuildingBlock: KIFKEQ_clean_linker_1, # of connection points: 2
# Relax obj value: 0.286
# Max RMSD: 0.257
# Mean RMSD: 0.257
data_MOF--net-wkh--node1-IZENUY_clean_sbu_0--edge1-KIFKEQ_clean_linker_1
_symmetry_space_group_name_H-M    P1
_symmetry_Int_Tables_number       1
_symmetry_cell_setting            triclinic
loop_
_symmetry_equiv_pos_as_xyz
'x, y, z'
_cell_length_a     26.989036
_cell_length_b     27.054872
_cell_length_c     79.975844
_cell_angle_alpha  90.166839
_cell_angle_beta   89.944108
_cell_angle_gamma 120.05116
loop_
_atom_site_label
_atom_site_type_symbol
_atom_site_fract_x
_atom_site_fract_y
_atom_site_fract_z
_atom_type_partial_charge
Fe0 Fe 0.24147 0.32448 1.02524 0.0
Fe1 Fe 0.33398 0.29146 1.02781 0.0
O2 O 0.30464 0.33324 0.03475 0.0
Fe3 Fe 0.33876 0.3835 0.05113 0.0
O4 O 0.27544 0.3482 0.06413 0.0
O5 O 0.21247 0.33806 0.04491 0.0
O6 O 0.20116 0.25018 0.0308 0.0
C7 C 0.21489 0.2147 1.02587 0.0
C8 C 0.29399 0.43779 0.0298 0.0
O9 O 0.26563 0.2301 1.02164 0.0
C10 C 0.43295 0.39837 0.03388 0.0
O11 O 0.25857 0.30742 1.00393 0.0
O12 O 0.34556 0.32163 1.00709 0.0
O13 O 0.3159 0.43394 0.04349 0.0
O14 O 0.27768 0.3985 1.01912 0.0
C15 C 0.34573 0.28659 0.06144 0.0
O16 O 0.40796 0.34466 0.03256 0.0
O17 O 0.40596 0.42241 0.03927 0.0
C18 C 0.30499 0.3139 0.99761 0.0
O19 O 0.32382 0.259 0.04815 0.0
O20 O 0.36439 0.34012 0.06211 0.0
C21 C 0.2259 0.33817 0.06022 0.0
Fe22 Fe 0.96175 0.3342 0.21868 0.0
Fe23 Fe 0.92559 0.23998 0.19201 0.0
O24 O 0.97937 0.30266 0.20193 0.0
Fe25 Fe 0.05096 0.33385 0.19514 0.0
O26 O 0.07418 0.32396 0.21547 0.0
O27 O 0.03092 0.36136 0.22963 0.0
O28 O 0.93672 0.2702 0.23114 0.0
C29 C 0.8985 0.22065 0.22686 0.0
C30 C 0.03883 0.42996 0.20174 0.0
O31 O 0.88309 0.20917 0.2116 0.0
C32 C 0.9998 0.30573 0.16472 0.0
O33 O 0.88759 0.3095 0.21121 0.0
O34 O 0.88656 0.27546 0.18635 0.0
O35 O 0.06912 0.40663 0.20025 0.0
O36 O 0.9879 0.40176 0.20726 0.0
C37 C 1.01059 0.21542 0.19234 0.0
O38 O 0.95988 0.25893 0.17077 0.0
O39 O 0.03227 0.34574 0.17444 0.0
C40 C 0.86231 0.28918 0.19734 0.0
O41 O 0.9608 0.20048 0.1971 0.0
O42 O 0.04582 0.26666 0.18865 0.0
C43 C 0.06698 0.34429 0.22887 0.0
Fe44 Fe 0.72143 0.94245 0.36118 0.0
Fe45 Fe 0.719 0.05369 0.36579 0.0
O46 O 0.68822 0.97935 0.3695 0.0
Fe47 Fe 0.62632 0.94355 0.38232 0.0
O48 O 0.64535 0.89292 0.39144 0.0
O49 O 0.73203 0.92131 0.38208 0.0
O50 O 0.79342 1.00263 0.36278 0.0
C51 C 0.81254 0.04406 0.37283 0.0
C52 C 0.60228 0.86118 0.35857 0.0
O53 O 0.78486 0.06896 0.37604 0.0
C54 C 0.6078 0.02346 0.36329 0.0
O55 O 0.71448 0.9614 0.33961 0.0
O56 O 0.74681 0.0523 0.34497 0.0
O57 O 0.58495 0.89169 0.36584 0.0
O58 O 0.65473 0.87587 0.35837 0.0
C59 C 0.69092 0.04454 0.39958 0.0
O60 O 0.65461 0.04233 0.35562 0.0
O61 O 0.59622 0.98928 0.37556 0.0
C62 C 0.73348 0.01216 0.33459 0.0
O63 O 0.6973 0.06986 0.38585 0.0
O64 O 0.66481 0.99067 0.39993 0.0
C65 C 0.69311 0.89501 0.39282 0.0
Fe66 Fe 0.68942 0.62664 0.5511 0.0
Fe67 Fe 0.78726 0.71803 0.52943 0.0
O68 O 0.71803 0.68852 0.53831 0.0
Fe69 Fe 0.67808 0.72377 0.53527 0.0
O70 O 0.63939 0.70209 0.55508 0.0
O71 O 0.68429 0.66732 0.5689 0.0
O72 O 0.75837 0.64171 0.56005 0.0
C73 C 0.8068 0.68683 0.56072 0.0
C74 C 0.59203 0.6146 0.53213 0.0
O75 O 0.82092 0.7259 0.54998 0.0
C76 C 0.73095 0.73684 0.50374 0.0
O77 O 0.69687 0.58281 0.53465 0.0
O78 O 0.78247 0.64951 0.52604 0.0
O79 O 0.62167 0.66183 0.52479 0.0
O80 O 0.61365 0.60055 0.54422 0.0
C81 C 0.78476 0.81268 0.54213 0.0
O82 O 0.75957 0.71341 0.50805 0.0
O83 O 0.70824 0.75269 0.51475 0.0
C84 C 0.74372 0.59769 0.52695 0.0
O85 O 0.80393 0.79151 0.53165 0.0
O86 O 0.73236 0.78729 0.54588 0.0
C87 C 0.65788 0.69484 0.5687 0.0
Fe88 Fe 0.05952 0.67879 0.72028 0.0
Fe89 Fe 0.09744 0.76911 0.69241 0.0
O90 O 0.0434 0.70679 0.70237 0.0
Fe91 Fe 0.97285 0.67282 0.6945 0.0
O92 O 0.94618 0.68524 0.71387 0.0
O93 O 0.98834 0.65215 0.73023 0.0
O94 O 0.08265 0.7447 0.73179 0.0
C95 C 0.12237 0.79323 0.72735 0.0
C96 C 0.98563 0.57909 0.70416 0.0
O97 O 0.1378 0.80298 0.71208 0.0
C98 C 0.02743 0.69962 0.66484 0.0
O99 O 0.13502 0.70346 0.71376 0.0
O100 O 0.1391 0.73496 0.68829 0.0
O101 O 0.95503 0.60093 0.70079 0.0
O102 O 0.03565 0.6094 0.71014 0.0
C103 C 1.00994 0.7899 0.6901 0.0
O104 O 0.06594 0.74714 0.67095 0.0
O105 O 0.99579 0.65938 0.67457 0.0
C106 C 0.16206 0.72257 0.70002 0.0
O107 O 0.05926 0.80733 0.69592 0.0
O108 O 0.97699 0.7379 0.68669 0.0
C109 C 0.95165 0.66797 0.72799 0.0
Fe110 Fe 0.32242 0.08159 0.86001 0.0
Fe111 Fe 0.30898 0.96268 0.86168 0.0
O112 O 0.3417 0.03385 0.86911 0.0
Fe113 Fe 0.39286 0.05692 0.88558 0.0
O114 O 0.35103 0.07739 0.89858 0.0
O115 O 0.33182 0.12351 0.87949 0.0
O116 O 0.24834 0.03767 0.86591 0.0
C117 C 0.21873 0.98625 0.86152 0.0
C118 C 0.43547 0.15467 0.86373 0.0
O119 O 0.2416 0.95827 0.85641 0.0
C120 C 0.42205 0.98728 0.86841 0.0
O121 O 0.30806 0.04828 0.83885 0.0
O122 O 0.3366 0.98552 0.84064 0.0
O123 O 0.43615 0.13141 0.87752 0.0
O124 O 0.39513 0.12804 0.85352 0.0
C125 C 0.30556 0.94607 0.89555 0.0
O126 O 0.3697 0.95311 0.86585 0.0
O127 O 0.43918 0.03691 0.87419 0.0
C128 C 0.32123 0.01413 0.83181 0.0
O129 O 0.27858 0.93545 0.88195 0.0
O130 O 0.35668 0.98756 0.89675 0.0
C131 C 0.33514 0.11248 0.89477 0.0
Fe132 Fe 0.71511 0.66636 0.8563 0.0
Fe133 Fe 0.62306 0.68317 0.83917 0.0
O134 O 0.68296 0.70877 0.85279 0.0
Fe135 Fe 0.71335 0.77734 0.86211 0.0
O136 O 0.78613 0.79108 0.86099 0.0
O137 O 0.78106 0.71961 0.84664 0.0
O138 O 0.69584 0.63029 0.83605 0.0
C139 C 0.69173 0.65074 0.82237 0.0
C140 C 0.72506 0.71707 0.88808 0.0
O141 O 0.66466 0.67755 0.82181 0.0
C142 C 0.59343 0.73664 0.86322 0.0
O143 O 0.65022 0.61078 0.86582 0.0
O144 O 0.5941 0.60727 0.84531 0.0
O145 O 0.70453 0.74803 0.88345 0.0
O146 O 0.74115 0.69384 0.8773 0.0
C147 C 0.68896 0.79976 0.83011 0.0
O148 O 0.5783 0.69046 0.85521 0.0
O149 O 0.64546 0.77482 0.8645 0.0
C150 C 0.60433 0.58367 0.8576 0.0
O151 O 0.64185 0.7532 0.83065 0.0
O152 O 0.72571 0.81254 0.84161 0.0
C153 C 0.80722 0.77171 0.85057 0.0
Fe154 Fe 0.05163 0.72186 1.02841 0.0
Fe155 Fe 0.96312 0.62846 1.00568 0.0
O156 O 0.98027 0.68042 1.02157 0.0
Fe157 Fe 0.92662 0.69169 0.03057 0.0
O158 O 0.9622 0.7649 1.02406 0.0
O159 O 0.04657 0.78508 0.03338 0.0
O160 O 0.07478 0.75159 1.00784 0.0
C161 C 0.06864 0.72267 0.99485 0.0
C162 C 0.99958 0.70325 0.05852 0.0
O163 O 0.03268 0.66931 0.99456 0.0
C164 C 0.86366 0.57805 1.02714 0.0
O165 O 0.07044 0.66683 1.02464 0.0
O166 O 0.98967 0.58946 1.0181 0.0
O167 O 0.96084 0.71087 0.05187 0.0
O168 O 0.03237 0.69447 0.04936 0.0
C169 C 0.89852 0.67579 0.99558 0.0
O170 O 0.88913 0.58011 1.01351 0.0
O171 O 0.88713 0.61854 0.03745 0.0
C172 C 0.0406 0.6131 1.02362 0.0
O173 O 0.93719 0.66411 0.99217 0.0
O174 O 0.88416 0.67655 1.01077 0.0
C175 C 0.01302 0.80063 1.02762 0.0
Fe176 Fe 0.33469 0.04629 0.19511 0.0
Fe177 Fe 0.33839 0.95614 0.17277 0.0
O178 O 0.30425 0.97462 0.18858 0.0
Fe179 Fe 0.23933 0.92198 0.19784 0.0
O180 O 0.20174 0.95726 0.19088 0.0
O181 O 0.26646 0.04175 0.19992 0.0
O182 O 0.32787 0.06834 0.17444 0.0
C183 C 0.34924 0.06065 0.16138 0.0
C184 C 0.30113 0.99652 0.22544 0.0
O185 O 0.36618 0.02437 0.16115 0.0
C186 C 0.29015 0.85892 0.19495 0.0
O187 O 0.40852 0.06468 0.19136 0.0
O188 O 0.40485 0.98385 0.18497 0.0
O189 O 0.25469 0.95768 0.21885 0.0
O190 O 0.343 0.02819 0.21622 0.0
C191 C 0.22566 0.89044 0.16318 0.0
O192 O 0.31342 0.88339 0.18121 0.0
O193 O 0.27311 0.88292 0.20507 0.0
C194 C 0.43241 0.03487 0.19033 0.0
O195 O 0.2759 0.92851 0.15938 0.0
O196 O 0.21135 0.87797 0.17845 0.0
C197 C 0.2175 0.00848 0.19395 0.0
Fe198 Fe 0.39283 0.33837 0.33775 0.0
Fe199 Fe 0.32492 0.24446 0.36383 0.0
O200 O 0.34389 0.3115 0.35475 0.0
Fe201 Fe 0.3127 0.35118 0.36252 0.0
O202 O 0.27966 0.34722 0.34247 0.0
O203 O 0.35664 0.37215 0.32723 0.0
O204 O 0.34852 0.27609 0.32506 0.0
C205 C 0.33209 0.22498 0.32882 0.0
C206 C 0.42555 0.43799 0.35478 0.0
O207 O 0.33007 0.21064 0.34405 0.0
C208 C 0.32814 0.31292 0.39219 0.0
O209 O 0.43582 0.30635 0.34496 0.0
O210 O 0.39852 0.26835 0.36928 0.0
O211 O 0.37353 0.42078 0.35767 0.0
O212 O 0.44134 0.40459 0.34886 0.0
C213 C 0.22178 0.23737 0.36487 0.0
O214 O 0.31497 0.26539 0.38525 0.0
O215 O 0.34287 0.35665 0.38326 0.0
C216 C 0.43707 0.28203 0.35842 0.0
O217 O 0.24992 0.21572 0.35903 0.0
O218 O 0.24585 0.28939 0.36882 0.0
C219 C 0.30559 0.36216 0.32866 0.0
Fe220 Fe 0.0575 0.38274 0.50209 0.0
Fe221 Fe 0.09271 0.32793 0.53003 0.0
O222 O 0.03986 0.33819 0.51997 0.0
Fe223 Fe 0.96914 0.30324 0.52781 0.0
O224 O 0.94127 0.265 0.5084 0.0
O225 O 0.98671 0.33925 0.49182 0.0
O226 O 0.08016 0.3394 0.49063 0.0
C227 C 0.11935 0.32989 0.49516 0.0
C228 C 0.98449 0.41074 0.51804 0.0
O229 O 0.13359 0.33423 0.51051 0.0
C230 C 0.02333 0.32853 0.55757 0.0
O231 O 0.13297 0.43245 0.50898 0.0
O232 O 0.13579 0.40344 0.53437 0.0
O233 O 0.95326 0.35871 0.5217 0.0
O234 O 0.03429 0.42924 0.51203 0.0
C235 C 1.00327 0.22069 0.53212 0.0
O236 O 0.06102 0.31845 0.55142 0.0
O237 O 0.99274 0.33879 0.54786 0.0
C238 C 0.15946 0.43925 0.52279 0.0
O239 O 0.05287 0.25159 0.52634 0.0
O240 O 0.97126 0.24099 0.53541 0.0
C241 C 0.94775 0.28764 0.49422 0.0
Fe242 Fe 0.68196 0.962 0.69117 0.0
Fe243 Fe 0.69022 0.06573 0.67294 0.0
O244 O 0.72073 0.0363 0.68657 0.0
Fe245 Fe 0.79071 0.07929 0.69474 0.0
O246 O 0.80905 0.02345 0.69401 0.0
O247 O 0.73659 0.95124 0.68149 0.0
O248 O 0.64349 0.93999 0.67127 0.0
C249 C 0.66078 0.96331 0.65724 0.0
C250 C 0.73743 0.01084 0.72195 0.0
O251 O 0.68563 0.01707 0.65607 0.0
C252 C 0.74373 0.15321 0.69585 0.0
O253 O 0.62474 0.96839 0.7008 0.0
O254 O 0.61507 0.01613 0.68005 0.0
O255 O 0.76561 0.06139 0.71643 0.0
O256 O 0.71251 0.96893 0.71206 0.0
C257 C 0.80684 0.12328 0.66267 0.0
O258 O 0.69672 0.11907 0.68853 0.0
O259 O 0.78418 0.14252 0.69671 0.0
C260 C 0.59407 0.98291 0.69264 0.0
O261 O 0.75814 0.11931 0.66343 0.0
O262 O 0.82227 0.10046 0.67376 0.0
C263 C 0.78927 0.9799 0.68476 0.0
H264 H 0.78692 0.51982 1.00197 0.0
H265 H 0.79612 0.55717 0.05478 0.0
H266 H 0.68375 0.4811 1.00263 0.0
H267 H 0.69271 0.51742 0.05551 0.0
H268 H 0.51637 0.49962 0.04822 0.0
H269 H 0.62051 0.53997 0.04645 0.0
H270 H 0.59506 0.40532 1.01225 0.0
H271 H 0.49246 0.36659 1.01366 0.0
C272 C 0.76682 0.51816 1.01385 0.0
C273 C 0.80017 0.54148 1.02834 0.0
C274 C 0.70745 0.49633 1.01421 0.0
C275 C 0.67962 0.49691 1.02908 0.0
C276 C 0.71261 0.51755 0.04374 0.0
C277 C 0.77194 0.53948 0.04337 0.0
C278 C 0.53327 0.47959 0.04006 0.0
C279 C 0.496 0.42983 0.03113 0.0
C280 C 0.59291 0.5021 0.03922 0.0
C281 C 0.61651 0.47556 1.02934 0.0
C282 C 0.57898 0.42732 1.01989 0.0
C283 C 0.51985 0.40492 1.02077 0.0
H284 H 0.2692 0.78203 0.16977 0.0
H285 H 0.24445 0.79219 0.22275 0.0
H286 H 0.2035 0.67969 0.17044 0.0
H287 H 0.17993 0.68908 0.22356 0.0
H288 H 0.02181 0.5124 0.21714 0.0
H289 H 0.08525 0.6164 0.21541 0.0
H290 H 0.18989 0.59167 0.17918 0.0
H291 H 0.12602 0.48958 0.18043 0.0
C292 C 0.25133 0.76223 0.1817 0.0
C293 C 0.26266 0.79564 0.19623 0.0
C294 C 0.21307 0.70325 0.18208 0.0
C295 C 0.18544 0.67572 0.19703 0.0
C296 C 0.19906 0.70874 0.21173 0.0
C297 C 0.237 0.76784 0.21132 0.0
C298 C 0.05751 0.52954 0.20851 0.0
C299 C 0.06884 0.49268 0.19895 0.0
C300 C 0.09453 0.58907 0.2077 0.0
C301 C 0.14343 0.61283 0.19729 0.0
C302 C 0.15276 0.57562 0.18723 0.0
C303 C 0.11603 0.51671 0.18801 0.0
H304 H 0.48117 0.25164 0.33216 0.0
H305 H 0.46565 0.24127 0.38593 0.0
H306 H 0.51624 0.18476 0.3324 0.0
H307 H 0.50362 0.17627 0.38633 0.0
H308 H 0.51885 0.01768 0.38196 0.0
H309 H 0.47984 0.08185 0.3805 0.0
H310 H 0.58977 0.1678 0.33835 0.0
H311 H 0.62592 0.10222 0.33924 0.0
C312 C 0.48717 0.23667 0.34412 0.0
C313 C 0.47099 0.25241 0.35905 0.0
C314 C 0.50713 0.19781 0.34427 0.0
C315 C 0.51244 0.17412 0.35939 0.0
C316 C 0.49882 0.19213 0.37439 0.0
C317 C 0.478 0.23035 0.3742 0.0
C318 C 0.53359 0.04937 0.37213 0.0
C319 C 0.57576 0.05461 0.36078 0.0
C320 C 0.51194 0.087 0.37145 0.0
C321 C 0.53219 0.13114 0.35947 0.0
C322 C 0.57246 0.13445 0.34768 0.0
C323 C 0.59351 0.09662 0.34825 0.0
H324 H 0.2365 0.4806 0.49673 0.0
H325 H 0.22791 0.47555 0.55061 0.0
H326 H 0.33972 0.51886 0.49813 0.0
H327 H 0.33116 0.51517 0.55207 0.0
H328 H 0.50554 0.52805 0.55064 0.0
H329 H 0.40238 0.48942 0.54791 0.0
H330 H 0.43127 0.59597 0.50472 0.0
H331 H 0.53363 0.63296 0.50714 0.0
C332 C 0.25678 0.48942 0.5089 0.0
C333 C 0.22345 0.47527 0.52355 0.0
C334 C 0.31629 0.51107 0.50973 0.0
C335 C 0.34447 0.51955 0.52524 0.0
C336 C 0.31135 0.50798 0.53987 0.0
C337 C 0.25196 0.48608 0.53904 0.0
C338 C 0.48986 0.54241 0.54037 0.0
C339 C 0.52851 0.5838 0.52915 0.0
C340 C 0.43048 0.52086 0.53892 0.0
C341 C 0.40776 0.53998 0.52622 0.0
C342 C 0.4464 0.57965 0.51462 0.0
C343 C 0.50558 0.60109 0.51605 0.0
H344 H 0.80426 0.21101 0.72298 0.0
H345 H 0.72636 0.23115 0.67848 0.0
H346 H 0.86453 0.31338 0.72538 0.0
H347 H 0.78431 0.33501 0.68137 0.0
H348 H 0.9429 0.5103 0.67703 0.0
H349 H 0.87618 0.40767 0.6766 0.0
H350 H 0.88649 0.4044 0.73055 0.0
H351 H 0.95622 0.50636 0.73057 0.0
C352 C 0.79802 0.2377 0.71413 0.0
C353 C 0.76014 0.21268 0.70059 0.0
C354 C 0.83308 0.29697 0.71545 0.0
C355 C 0.83099 0.33364 0.70338 0.0
C356 C 0.78896 0.30865 0.69067 0.0
C357 C 0.75423 0.24889 0.68923 0.0
C358 C 0.93229 0.48694 0.68871 0.0
C359 C 0.95635 0.51589 0.70377 0.0
C360 C 0.89273 0.42814 0.68855 0.0
C361 C 0.87452 0.39669 0.70355 0.0
C362 C 0.89958 0.42604 0.71864 0.0
C363 C 0.94015 0.48469 0.71871 0.0
H364 H 0.59962 0.79978 0.89009 0.0
H365 H 0.49926 0.72207 0.84579 0.0
H366 H 0.56266 0.86465 0.89169 0.0
H367 H 0.45854 0.78478 0.84792 0.0
H368 H 0.45316 0.94768 0.84164 0.0
H369 H 0.48666 0.87904 0.84215 0.0
H370 H 0.49522 0.89016 0.89616 0.0
H371 H 0.46547 0.96155 0.89529 0.0
C372 C 0.56725 0.79471 0.88113 0.0
C373 C 0.55249 0.75579 0.86779 0.0
C374 C 0.5461 0.83237 0.88199 0.0
C375 C 0.50856 0.83162 0.86967 0.0
C376 C 0.48898 0.78834 0.85732 0.0
C377 C 0.51095 0.75101 0.85634 0.0
C378 C 0.46485 0.93719 0.85352 0.0
C379 C 0.45887 0.96146 0.86836 0.0
C380 C 0.48243 0.89648 0.8539 0.0
C381 C 0.49277 0.87757 0.86923 0.0
C382 C 0.48856 0.90367 0.88406 0.0
C383 C 0.47216 0.94531 0.88361 0.0
H384 H 0.56487 0.50806 0.8319 0.0
H385 H 0.58058 0.51728 0.88559 0.0
H386 H 0.53373 0.40738 0.83266 0.0
H387 H 0.54406 0.41454 0.88673 0.0
H388 H 0.51784 0.23601 0.88473 0.0
H389 H 0.55923 0.33946 0.88314 0.0
H390 H 0.4654 0.31834 0.8373 0.0
H391 H 0.4293 0.2175 0.83813 0.0
C392 C 0.55936 0.48786 0.84397 0.0
C393 C 0.57415 0.52048 0.8587 0.0
C394 C 0.54138 0.4296 0.84447 0.0
C395 C 0.53571 0.40142 0.85979 0.0
C396 C 0.54883 0.43411 0.87461 0.0
C397 C 0.5687 0.493 0.87404 0.0
C398 C 0.50768 0.25389 0.87406 0.0
C399 C 0.47017 0.21792 0.86158 0.0
C400 C 0.53051 0.3134 0.87329 0.0
C401 C 0.51547 0.33843 0.86019 0.0
C402 C 0.47952 0.30214 0.84747 0.0
C403 C 0.45818 0.24336 0.84801 0.0
H404 H 0.02463 0.51387 1.00855 0.0
H405 H 0.12794 0.64189 0.04514 0.0
H406 H 0.08901 0.47445 1.01034 0.0
H407 H 0.19254 0.60413 0.04661 0.0
H408 H 0.27178 0.49098 0.05561 0.0
H409 H 0.20602 0.52794 0.05526 0.0
H410 H 0.18548 0.50084 1.00187 0.0
H411 H 0.25042 0.46274 1.00229 0.0
C412 C 0.06028 0.53281 1.0172 0.0
C413 C 0.07113 0.58099 1.02668 0.0
C414 C 0.09781 0.51092 1.01805 0.0
C415 C 0.1467 0.53658 1.02846 0.0
C416 C 0.15547 0.58291 0.03853 0.0
C417 C 0.11832 0.6047 0.03764 0.0
C418 C 0.25462 0.49438 0.04371 0.0
C419 C 0.26685 0.47404 1.02896 0.0
C420 C 0.2163 0.51516 0.04352 0.0
C421 C 0.18936 0.5165 1.02857 0.0
C422 C 0.20405 0.49906 1.01369 0.0
C423 C 0.2422 0.47815 1.01389 0.0
H424 H 0.51588 0.01891 0.17528 0.0
H425 H 0.49115 0.12174 0.212 0.0
H426 H 0.61996 0.08274 0.1773 0.0
H427 H 0.59376 0.18567 0.21373 0.0
H428 H 0.78614 0.26436 0.22313 0.0
H429 H 0.68336 0.19811 0.22256 0.0
H430 H 0.69069 0.17939 0.16911 0.0
H431 H 0.79379 0.24488 0.16973 0.0
C432 C 0.53263 0.05432 0.18401 0.0
C433 C 0.4952 0.06519 0.19346 0.0
C434 C 0.59222 0.09152 0.185 0.0
C435 C 0.61555 0.14006 0.19554 0.0
C436 C 0.57787 0.14886 0.20556 0.0
C437 C 0.51877 0.11209 0.20452 0.0
C438 C 0.76576 0.24741 0.21117 0.0
C439 C 0.79859 0.26051 0.19646 0.0
C440 C 0.70662 0.20884 0.21086 0.0
C441 C 0.67848 0.18243 0.19581 0.0
C442 C 0.7109 0.19762 0.181 0.0
C443 C 0.77001 0.23607 0.18131 0.0
H444 H 0.45277 0.50941 0.38121 0.0
H445 H 0.47618 0.50647 0.32802 0.0
H446 H 0.48886 0.61193 0.38017 0.0
H447 H 0.50907 0.60837 0.32658 0.0
H448 H 0.61592 0.80334 0.33315 0.0
H449 H 0.57792 0.70121 0.33191 0.0
H450 H 0.46237 0.67837 0.37249 0.0
H451 H 0.50362 0.78191 0.37431 0.0
C452 C 0.46735 0.53131 0.36935 0.0
C453 C 0.46347 0.50048 0.35479 0.0
C454 C 0.48653 0.58986 0.36863 0.0
C455 C 0.50083 0.61892 0.35322 0.0
C456 C 0.49909 0.58816 0.33873 0.0
C457 C 0.4809 0.5297 0.33953 0.0
C458 C 0.58101 0.77632 0.34146 0.0
C459 C 0.56289 0.80083 0.35385 0.0
C460 C 0.55924 0.71739 0.3408 0.0
C461 C 0.51794 0.68092 0.35239 0.0
C462 C 0.49558 0.70504 0.36371 0.0
C463 C 0.51802 0.76441 0.36449 0.0
H464 H 0.96235 0.46269 0.49216 0.0
H465 H 0.93736 0.43166 0.54508 0.0
H466 H 0.89426 0.49712 0.49216 0.0
H467 H 0.87221 0.4694 0.54556 0.0
H468 H 0.72381 0.49868 0.54274 0.0
H469 H 0.78199 0.45305 0.53969 0.0
H470 H 0.87167 0.56525 0.49831 0.0
H471 H 0.81127 0.60724 0.50077 0.0
C472 C 0.9441 0.46563 0.50394 0.0
C473 C 0.95644 0.44596 0.51869 0.0
C474 C 0.90441 0.48497 0.50398 0.0
C475 C 0.87641 0.48586 0.51886 0.0
C476 C 0.891 0.46817 0.53372 0.0
C477 C 0.92966 0.44778 0.53357 0.0
C478 C 0.75405 0.51148 0.53251 0.0
C479 C 0.76243 0.5564 0.52194 0.0
C480 C 0.78885 0.48647 0.531 0.0
C481 C 0.83341 0.50621 0.51902 0.0
C482 C 0.83828 0.5481 0.50767 0.0
C483 C 0.80319 0.57234 0.50905 0.0
H484 H 0.50778 0.98069 0.6735 0.0
H485 H 0.53542 0.90603 0.71761 0.0
H486 H 0.40487 0.91494 0.67578 0.0
H487 H 0.43318 0.83933 0.71958 0.0
H488 H 0.23753 0.75858 0.72648 0.0
H489 H 0.3407 0.82379 0.72554 0.0
H490 H 0.33522 0.81767 0.67156 0.0
H491 H 0.23195 0.75383 0.67256 0.0
C492 C 0.49203 0.95079 0.6838 0.0
C493 C 0.5305 0.94907 0.69534 0.0
C494 C 0.4328 0.91228 0.68499 0.0
C495 C 0.41003 0.87067 0.69773 0.0
C496 C 0.44841 0.87057 0.70963 0.0
C497 C 0.5075 0.90907 0.70847 0.0
C498 C 0.25849 0.76981 0.71441 0.0
C499 C 0.22601 0.75032 0.6996 0.0
C500 C 0.31796 0.80779 0.71384 0.0
C501 C 0.34694 0.82727 0.69845 0.0
C502 C 0.31473 0.80524 0.68367 0.0
C503 C 0.25535 0.76764 0.68424 0.0
H504 H 0.21645 0.25401 0.97501 0.0
H505 H 0.39989 0.33312 0.98018 0.0
H506 H 0.22136 0.20905 0.94873 0.0
H507 H 0.40426 0.28766 0.95438 0.0
H508 H 0.37153 0.12309 0.92706 0.0
H509 H 0.36243 0.17791 0.94976 0.0
H510 H 0.2708 0.23148 0.91728 0.0
H511 H 0.28097 0.17689 0.89408 0.0
C512 C 0.25791 0.26321 0.97036 0.0
C513 C 0.30771 0.29712 0.97988 0.0
C514 C 0.26066 0.23718 0.95532 0.0
C515 C 0.31314 0.24407 0.94958 0.0
C516 C 0.36308 0.2808 0.95854 0.0
C517 C 0.36048 0.30711 0.97336 0.0
C518 C 0.34928 0.14632 0.92462 0.0
C519 C 0.32713 0.14542 0.9086 0.0
C520 C 0.3443 0.17808 0.93769 0.0
C521 C 0.31618 0.20941 0.93536 0.0
C522 C 0.29269 0.20775 0.91949 0.0
C523 C 0.2987 0.17665 0.9062 0.0
H524 H 0.07636 0.40173 0.14798 0.0
H525 H 0.96977 0.21958 0.14116 0.0
H526 H 0.12484 0.4082 0.12174 0.0
H527 H 0.01838 0.22661 0.11447 0.0
H528 H 0.10717 0.28623 0.06003 0.0
H529 H 0.04404 0.27643 0.08369 0.0
H530 H 0.19207 0.36845 0.11535 0.0
H531 H 0.2543 0.37722 0.09219 0.0
C532 C 0.06223 0.36305 0.14073 0.0
C533 C 0.01913 0.30999 0.1469 0.0
C534 C 0.09038 0.36685 0.12565 0.0
C535 C 0.07615 0.31789 0.11606 0.0
C536 C 0.03035 0.26521 0.12153 0.0
C537 C 1.00232 0.26124 0.13682 0.0
C538 C 0.12609 0.30441 0.07205 0.0
C539 C 0.18601 0.33255 0.07412 0.0
C540 C 0.08992 0.29851 0.08562 0.0
C541 C 0.11296 0.32193 0.10143 0.0
C542 C 0.17276 0.35034 0.10336 0.0
C543 C 0.20854 0.35515 0.09002 0.0
H544 H 0.783 0.14597 0.23123 0.0
H545 H 0.94802 0.20068 0.2535 0.0
H546 H 0.73617 0.08577 0.25586 0.0
H547 H 0.90159 0.13924 0.27765 0.0
H548 H 0.79496 0.98487 0.31273 0.0
H549 H 0.83116 0.02693 0.28499 0.0
H550 H 0.73869 0.11832 0.28842 0.0
H551 H 0.70453 0.07819 0.3163 0.0
C552 C 0.80923 0.14399 0.24116 0.0
C553 C 0.86921 0.17791 0.2404 0.0
C554 C 0.78247 0.10979 0.25529 0.0
C555 C 0.8152 0.10746 0.26868 0.0
C556 C 0.87517 0.13953 0.2675 0.0
C557 C 0.90174 0.17486 0.25368 0.0
C558 C 0.78133 0.01284 0.30736 0.0
C559 C 0.74654 0.02787 0.31664 0.0
C560 C 0.80232 0.03722 0.29154 0.0
C561 C 0.78763 0.07586 0.28446 0.0
C562 C 0.75035 0.08834 0.29341 0.0
C563 C 0.73081 0.06536 0.30938 0.0
H564 H 0.61068 0.80631 0.41064 0.0
H565 H 0.79415 0.91368 0.40739 0.0
H566 H 0.62125 0.76139 0.43555 0.0
H567 H 0.80489 0.86959 0.43295 0.0
H568 H 0.80107 0.75112 0.47627 0.0
H569 H 0.79434 0.78427 0.44809 0.0
H570 H 0.64453 0.79104 0.4636 0.0
H571 H 0.65036 0.75734 0.491 0.0
C572 C 0.65348 0.82037 0.41524 0.0
C573 C 0.70149 0.86422 0.40706 0.0
C574 C 0.65959 0.79466 0.42964 0.0
C575 C 0.71392 0.81243 0.4366 0.0
C576 C 0.76236 0.85452 0.42799 0.0
C577 C 0.75622 0.88 0.41336 0.0
C578 C 0.76629 0.75888 0.47349 0.0
C579 C 0.72632 0.75147 0.48598 0.0
C580 C 0.7627 0.77843 0.45739 0.0
C581 C 0.71864 0.79021 0.45341 0.0
C582 C 0.67845 0.78159 0.46591 0.0
C583 C 0.68214 0.76255 0.48181 0.0
H584 H 0.82149 0.60139 0.57296 0.0
H585 H 0.88511 0.78186 0.57835 0.0
H586 H 0.88295 0.60489 0.59561 0.0
H587 H 0.94425 0.78527 0.60201 0.0
H588 H 0.06671 0.78451 0.64077 0.0
H589 H 0.02072 0.78294 0.61431 0.0
H590 H 0.89044 0.60785 0.62368 0.0
H591 H 0.93805 0.6086 0.64924 0.0
C592 C 0.84854 0.64195 0.57911 0.0
C593 C 0.84805 0.69125 0.57389 0.0
C594 C 0.88367 0.644 0.59231 0.0
C595 C 0.91842 0.69516 0.60117 0.0
C596 C 0.91895 0.745 0.59558 0.0
C597 C 0.88471 0.74314 0.58202 0.0
C598 C 0.02917 0.7452 0.63691 0.0
C599 C 1.00656 0.69665 0.64726 0.0
C600 C 1.00201 0.74451 0.62178 0.0
C601 C 0.95103 0.69539 0.61659 0.0
C602 C 0.9299 0.64641 0.62676 0.0
C603 C 0.95736 0.64689 0.64166 0.0
H604 H 0.35441 0.95569 0.81052 0.0
H605 H 0.24229 0.02627 0.81344 0.0
H606 H 0.31048 0.91019 0.78379 0.0
H607 H 0.1979 0.97991 0.787 0.0
H608 H 0.0812 0.81068 0.75649 0.0
H609 H 0.13483 0.87237 0.77997 0.0
H610 H 0.29244 0.93112 0.7527 0.0
H611 H 0.23826 0.87014 0.72888 0.0
C612 C 0.32127 0.96251 0.80533 0.0
C613 C 0.30223 0.99498 0.8142 0.0
C614 C 0.29609 0.93641 0.78998 0.0
C615 C 0.25036 0.94105 0.78328 0.0
C616 C 0.23278 0.97518 0.79183 0.0
C617 C 0.25868 1.0022 0.80697 0.0
C618 C 0.12721 0.83745 0.75537 0.0
C619 C 0.15532 0.83572 0.74074 0.0
C620 C 0.15797 0.87294 0.76883 0.0
C621 C 0.218 0.90679 0.76825 0.0
C622 C 0.24627 0.90555 0.75356 0.0
C623 C 0.21521 0.87098 0.73987 0.0
H624 H 0.72187 0.62467 0.90182 0.0
H625 H 0.7558 0.79366 0.91485 0.0
H626 H 0.75777 0.61602 0.92881 0.0
H627 H 0.79257 0.78489 0.94233 0.0
H628 H 0.8187 0.71289 0.99552 0.0
H629 H 0.7695 0.72439 0.97107 0.0
H630 H 0.85983 0.66842 0.93871 0.0
H631 H 0.9083 0.65731 0.96257 0.0
C632 C 0.73626 0.65985 0.91058 0.0
C633 C 0.73647 0.71016 0.906 0.0
C634 C 0.7571 0.65489 0.9261 0.0
C635 C 0.7792 0.7001 0.93769 0.0
C636 C 0.77591 0.74921 0.9337 0.0
C637 C 0.75473 0.75422 0.91797 0.0
C638 C 0.82792 0.70306 0.98317 0.0
C639 C 0.86741 0.68371 0.98118 0.0
C640 C 0.79997 0.70998 0.96915 0.0
C641 C 0.81021 0.6968 0.95289 0.0
C642 C 0.85007 0.67819 0.95101 0.0
C643 C 0.87817 0.67197 0.96482 0.0
H644 H 0.97431 0.76609 0.08104 0.0
H645 H 0.06743 0.67533 0.07657 0.0
H646 H 0.02256 0.80647 0.1079 0.0
H647 H 0.11563 0.71614 0.10293 0.0
H648 H 0.25317 0.87545 0.13153 0.0
H649 H 0.18978 0.82373 0.10834 0.0
H650 H 0.04279 0.7791 0.13946 0.0
H651 H 0.10693 0.83049 0.16313 0.0
C652 C 1.00368 0.75344 0.08594 0.0
C653 C 0.01716 0.71772 0.07646 0.0
C654 C 0.03152 0.77678 0.10132 0.0
C655 C 0.07367 0.76524 0.10743 0.0
C656 C 0.08408 0.7266 0.09849 0.0
C657 C 0.05612 0.70302 0.08335 0.0
C658 C 0.20739 0.85457 0.13356 0.0
C659 C 0.18535 0.85713 0.1493 0.0
C660 C 0.17096 0.82468 0.12022 0.0
C661 C 0.11115 0.79709 0.12201 0.0
C662 C 0.08868 0.8 0.13766 0.0
C663 C 0.1254 0.8291 0.15123 0.0
H664 H 0.39542 0.07258 0.24302 0.0
H665 H 0.21207 0.96625 0.24796 0.0
H666 H 0.39888 0.12105 0.26901 0.0
H667 H 0.2162 0.0148 0.27446 0.0
H668 H 0.28187 0.10675 0.32976 0.0
H669 H 0.27075 0.0422 0.30639 0.0
H670 H 0.35083 0.18657 0.27317 0.0
H671 H 0.36076 0.25026 0.296 0.0
C672 C 0.35584 0.05848 0.24981 0.0
C673 C 0.30331 0.01567 0.24316 0.0
C674 C 0.35796 0.08653 0.26474 0.0
C675 C 0.3078 0.07228 0.2737 0.0
C676 C 0.2556 0.02665 0.26784 0.0
C677 C 0.25331 0.99875 0.25267 0.0
C678 C 0.29669 0.12457 0.31744 0.0
C679 C 0.32236 0.18395 0.31488 0.0
C680 C 0.29015 0.08757 0.30406 0.0
C681 C 0.31031 0.10938 0.28796 0.0
C682 C 0.33529 0.16845 0.28544 0.0
C683 C 0.34079 0.205 0.2986 0.0
H684 H 0.24836 0.22155 0.4102 0.0
H685 H 0.35919 0.40427 0.41353 0.0
H686 H 0.20111 0.22287 0.43609 0.0
H687 H 0.31254 0.40508 0.43983 0.0
H688 H 0.23516 0.36816 0.49456 0.0
H689 H 0.29167 0.36329 0.47109 0.0
H690 H 0.13707 0.26849 0.44218 0.0
H691 H 0.0811 0.27483 0.46531 0.0
C692 C 0.26398 0.26188 0.41668 0.0
C693 C 0.30805 0.31284 0.40969 0.0
C694 C 0.23637 0.2626 0.43149 0.0
C695 C 0.25279 0.31407 0.44003 0.0
C696 C 0.29901 0.36465 0.43362 0.0
C697 C 0.32582 0.36415 0.41855 0.0
C698 C 0.21322 0.34561 0.48327 0.0
C699 C 0.15348 0.32154 0.48187 0.0
C700 C 0.24565 0.34323 0.46978 0.0
C701 C 0.21892 0.31536 0.45475 0.0
C702 C 0.15902 0.28985 0.4536 0.0
C703 C 0.12692 0.29353 0.46686 0.0
H704 H 0.93202 0.32736 0.57288 0.0
H705 H 0.06378 0.2846 0.58182 0.0
H706 H 0.88505 0.28071 0.59852 0.0
H707 H 0.01836 0.24038 0.60834 0.0
H708 H 0.88579 0.10703 0.64514 0.0
H709 H 0.94329 0.16154 0.62108 0.0
H710 H 0.87832 0.27796 0.62662 0.0
H711 H 0.81859 0.22121 0.64966 0.0
C712 C 0.95212 0.30943 0.58057 0.0
C713 C 1.0021 0.31018 0.5751 0.0
C714 C 0.92502 0.28255 0.59552 0.0
C715 C 0.94728 0.25611 0.60586 0.0
C716 C 0.99882 0.25903 0.60075 0.0
C717 C 0.02562 0.28538 0.58558 0.0
C718 C 0.88422 0.14449 0.64119 0.0
C719 C 0.84705 0.15931 0.6492 0.0
C720 C 0.9175 0.17618 0.62739 0.0
C721 C 0.91546 0.22435 0.62145 0.0
C722 C 0.88018 0.24038 0.63018 0.0
C723 C 0.84604 0.208 0.64361 0.0
H724 H 0.78251 0.90724 0.82351 0.0
H725 H 0.61875 0.78081 0.80346 0.0
H726 H 0.79721 0.96813 0.79911 0.0
H727 H 0.63398 0.83961 0.77925 0.0
H728 H 0.6444 0.96303 0.74194 0.0
H729 H 0.63518 0.92068 0.76942 0.0
H730 H 0.81643 0.97916 0.7695 0.0
H731 H 0.82554 0.02421 0.74219 0.0
C732 C 0.74958 0.89244 0.81399 0.0
C733 C 0.69916 0.83907 0.81567 0.0
C734 C 0.75814 0.92724 0.79991 0.0
C735 C 0.71653 0.90957 0.78712 0.0
C736 C 0.6665 0.85605 0.78889 0.0
C737 C 0.65791 0.82173 0.80287 0.0
C738 C 0.68255 0.96841 0.7481 0.0
C739 C 0.73576 0.99765 0.74003 0.0
C740 C 0.67726 0.94325 0.76378 0.0
C741 C 0.72478 0.94495 0.77171 0.0
C742 C 0.77879 0.97695 0.76397 0.0
C743 C 0.78419 1.00305 0.74831 0.0
H744 H 0.32918 0.14974 0.15976 0.0
H745 H 0.38481 0.05386 0.12953 0.0
H746 H 0.33435 0.20604 0.13563 0.0
H747 H 0.39084 0.11148 0.1052 0.0
H748 H 0.31685 0.17433 0.06315 0.0
H749 H 0.32446 0.12288 0.08697 0.0
H750 H 0.3996 0.2781 0.11625 0.0
H751 H 0.39113 0.3297 0.09242 0.0
C752 C 0.34318 0.14097 0.14799 0.0
C753 C 0.3565 0.097 0.14663 0.0
C754 C 0.34654 0.17374 0.13413 0.0
C755 C 0.36314 0.16351 0.11846 0.0
C756 C 0.37742 0.12017 0.11708 0.0
C757 C 0.37429 0.08735 0.13103 0.0
C758 C 0.33534 0.19776 0.07462 0.0
C759 C 0.35311 0.25627 0.07586 0.0
C760 C 0.34011 0.1682 0.08826 0.0
C761 C 0.36262 0.19624 0.10355 0.0
C762 C 0.38145 0.25501 0.10471 0.0
C763 C 0.37679 0.28468 0.09103 0.0
H764 H 0.0393 0.33589 0.2619 0.0
H765 H 0.17849 0.37039 0.22854 0.0
H766 H 0.09851 0.34324 0.28578 0.0
H767 H 0.23965 0.38236 0.25231 0.0
H768 H 0.31722 0.33904 0.29626 0.0
H769 H 0.26075 0.33671 0.27233 0.0
H770 H 0.17134 0.39755 0.30366 0.0
H771 H 0.22518 0.39529 0.32778 0.0
C772 C 0.08308 0.34616 0.25974 0.0
C773 C 0.10423 0.35231 0.24339 0.0
C774 C 0.11744 0.35088 0.27345 0.0
C775 C 0.17446 0.36343 0.2712 0.0
C776 C 0.1958 0.37117 0.25473 0.0
C777 C 0.16088 0.36482 0.24102 0.0
C778 C 0.28578 0.35237 0.29795 0.0
C779 C 0.27557 0.36732 0.31387 0.0
C780 C 0.25336 0.35137 0.28417 0.0
C781 C 0.2108 0.3668 0.28584 0.0
C782 C 0.20234 0.38384 0.30178 0.0
C783 C 0.23369 0.38324 0.31564 0.0
H784 H 0.71369 0.00877 0.42919 0.0
H785 H 0.73526 0.15934 0.40405 0.0
H786 H 0.77394 0.06818 0.45207 0.0
H787 H 0.79406 0.21859 0.4271 0.0
H788 H 0.8492 0.18458 0.49703 0.0
H789 H 0.7828 0.12695 0.47516 0.0
H790 H 0.88714 0.25422 0.43859 0.0
H791 H 0.95293 0.31302 0.4607 0.0
C792 C 0.73009 0.05439 0.42873 0.0
C793 C 0.71945 0.07913 0.41476 0.0
C794 C 0.76483 0.08865 0.44187 0.0
C795 C 0.78958 0.14856 0.44145 0.0
C796 C 0.77696 0.1729 0.42775 0.0
C797 C 0.74259 0.13874 0.41459 0.0
C798 C 0.85804 0.20058 0.48434 0.0
C799 C 0.90667 0.25367 0.48067 0.0
C800 C 0.81994 0.16715 0.47173 0.0
C801 C 0.82938 0.18547 0.455 0.0
C802 C 0.87779 0.23888 0.45133 0.0
C803 C 0.91583 0.27261 0.46401 0.0
H804 H 0.56847 0.7087 0.57764 0.0
H805 H 0.73971 0.75404 0.59249 0.0
H806 H 0.56778 0.77458 0.5985 0.0
H807 H 0.73955 0.82121 0.61325 0.0
H808 H 0.73752 0.98533 0.63186 0.0
H809 H 0.73616 0.91653 0.61143 0.0
H810 H 0.57208 0.78756 0.63035 0.0
H811 H 0.57397 0.85564 0.65086 0.0
C812 C 0.60551 0.73187 0.58565 0.0
C813 C 0.65374 0.7254 0.58362 0.0
C814 C 0.60526 0.76989 0.59752 0.0
C815 C 0.65381 0.8036 0.60742 0.0
C816 C 0.70168 0.79624 0.60569 0.0
C817 C 0.70144 0.7571 0.59403 0.0
C818 C 0.70063 0.94267 0.63137 0.0
C819 C 0.65549 0.92615 0.64282 0.0
C820 C 0.70026 0.90302 0.61987 0.0
C821 C 0.65421 0.8464 0.61937 0.0
C822 C 0.60812 0.83076 0.63039 0.0
C823 C 0.60907 0.86988 0.64207 0.0
H824 H 0.91525 0.59479 0.75475 0.0
H825 H 0.89679 0.72868 0.73171 0.0
H826 H 0.84697 0.58468 0.77633 0.0
H827 H 0.83143 0.72144 0.75375 0.0
H828 H 0.68294 0.6726 0.78905 0.0
H829 H 0.7417 0.67215 0.7658 0.0
H830 H 0.83554 0.62548 0.79997 0.0
H831 H 0.7751 0.62251 0.82263 0.0
C832 C 0.89711 0.62257 0.75443 0.0
C833 C 0.9115 0.66253 0.74153 0.0
C834 C 0.85801 0.61708 0.76688 0.0
C835 C 0.83326 0.65237 0.76699 0.0
C836 C 0.84818 0.69253 0.75404 0.0
C837 C 0.88627 0.69713 0.74143 0.0
C838 C 0.71553 0.66132 0.79146 0.0
C839 C 0.72371 0.64701 0.80769 0.0
C840 C 0.74982 0.66164 0.77816 0.0
C841 C 0.79393 0.64881 0.78084 0.0
C842 C 0.80149 0.63423 0.79712 0.0
C843 C 0.7667 0.63283 0.81025 0.0
H844 H 0.1494 0.83539 0.99222 0.0
H845 H 0.07514 0.67633 0.96474 0.0
H846 H 0.21022 0.88503 0.96858 0.0
H847 H 0.13745 0.72632 0.94101 0.0
H848 H 0.19962 0.85067 0.89611 0.0
H849 H 0.14651 0.79409 0.92004 0.0
H850 H 0.29077 0.8985 0.95208 0.0
H851 H 0.34394 0.95648 0.92801 0.0
C852 C 0.1464 0.81072 0.98119 0.0
C853 C 0.10707 0.75166 0.98041 0.0
C854 C 0.18183 0.83932 0.96763 0.0
C855 C 0.17909 0.80982 0.95287 0.0
C856 C 0.14035 0.75054 0.95214 0.0
C857 C 0.10473 0.72179 0.96575 0.0
C858 C 0.22049 0.86146 0.90821 0.0
C859 C 0.27615 0.90856 0.9101 0.0
C860 C 0.18997 0.82854 0.92196 0.0
C861 C 0.21411 0.84166 0.93804 0.0
C862 C 0.27051 0.88762 0.9399 0.0
C863 C 0.30119 0.92069 0.92608 0.0
H864 H 0.21214 0.14904 1.00018 0.0
H865 H 0.11778 0.14983 0.04379 0.0
H866 H 0.14911 0.04639 0.99733 0.0
H867 H 0.05504 0.04618 0.04108 0.0
H868 H 0.94927 0.85319 1.0251 0.0
H869 H 0.98586 0.95576 1.02121 0.0
H870 H 0.15877 0.98545 1.02119 0.0
H871 H 0.12299 0.88436 1.02512 0.0
C872 C 0.1772 0.12716 1.00897 0.0
C873 C 0.17051 0.15615 1.02255 0.0
C874 C 0.14098 0.06889 1.00722 0.0
C875 C 0.09837 0.03905 1.01917 0.0
C876 C 0.08776 0.06885 0.03174 0.0
C877 C 0.12377 0.12763 0.03338 0.0
C878 C 0.99504 0.88189 1.02421 0.0
C879 C 0.03354 0.86136 1.02551 0.0
C880 C 0.01568 0.94007 1.02197 0.0
C881 C 0.0747 0.97754 1.02065 0.0
C882 C 0.1129 0.95682 1.02185 0.0
C883 C 0.09251 0.89923 1.02431 0.0
H884 H 0.10093 0.94707 0.1909 0.0
H885 H 0.24682 0.11845 0.18987 0.0
H886 H 0.037 0.98579 0.18622 0.0
H887 H 0.18368 0.15641 0.18524 0.0
H888 H 0.07625 0.2165 0.16682 0.0
H889 H 0.11449 0.15264 0.16294 0.0
H890 H 0.01656 0.05283 0.20537 0.0
H891 H 0.97685 0.11613 0.20899 0.0
C892 C 0.11917 0.99277 0.18957 0.0
C893 C 0.17848 0.03005 0.19095 0.0
C894 C 0.0828 0.01465 0.18685 0.0
C895 C 0.1058 0.07369 0.18516 0.0
C896 C 0.16515 0.11054 0.18617 0.0
C897 C 0.20116 0.08893 0.18908 0.0
C898 C 0.06215 0.18024 0.17511 0.0
C899 C 0.02551 0.17189 0.18857 0.0
C900 C 0.0834 0.14355 0.17277 0.0
C901 C 0.06903 0.09887 0.18406 0.0
C902 C 0.02791 0.08707 0.1965 0.0
C903 C 1.00587 0.12347 0.1987 0.0
H904 H 0.17279 0.25682 0.39158 0.0
H905 H 0.14089 0.13495 0.35205 0.0
H906 H 0.07351 0.20185 0.40032 0.0
H907 H 0.04064 0.08051 0.36054 0.0
H908 H 0.86691 0.98497 0.37822 0.0
H909 H 0.96939 0.02478 0.3823 0.0
H910 H 0.99105 0.1942 0.38507 0.0
H911 H 0.88844 0.15417 0.38138 0.0
C912 C 0.1444 0.21802 0.3848 0.0
C913 C 0.16353 0.20063 0.37082 0.0
C914 C 0.08789 0.18651 0.38992 0.0
C915 C 0.04961 0.13753 0.38101 0.0
C916 C 0.06965 0.11795 0.36774 0.0
C917 C 0.12659 0.14925 0.36273 0.0
C918 C 0.89365 0.03062 0.38008 0.0
C919 C 0.87082 0.06707 0.37892 0.0
C920 C 0.95195 0.05317 0.38247 0.0
C921 C 0.98788 0.11239 0.3836 0.0
C922 C 0.96408 0.14824 0.38427 0.0
C923 C 0.90556 0.12555 0.38202 0.0
H924 H 0.02331 0.14012 0.51831 0.0
H925 H 0.94484 0.17435 0.56051 0.0
H926 H 0.97867 0.04013 0.52679 0.0
H927 H 0.90157 0.07523 0.56925 0.0
H928 H 0.75623 0.89144 0.55253 0.0
H929 H 0.82184 0.99368 0.5553 0.0
H930 H 0.96565 0.96748 0.54749 0.0
H931 H 0.8999 0.86537 0.5444 0.0
C932 C 0.99781 0.12641 0.52961 0.0
C933 C 0.98584 0.16381 0.53848 0.0
C934 C 0.97267 0.06954 0.53458 0.0
C935 C 0.93603 0.05002 0.54857 0.0
C936 C 0.9287 0.08903 0.55827 0.0
C937 C 0.95319 0.14547 0.55321 0.0
C938 C 0.80188 0.90746 0.55185 0.0
C939 C 0.82315 0.87127 0.5477 0.0
C940 C 0.83954 0.96586 0.55355 0.0
C941 C 0.89874 0.98837 0.55126 0.0
C942 C 0.92014 0.9512 0.54893 0.0
C943 C 0.88255 0.89299 0.54714 0.0
H944 H 0.95039 0.78142 0.66221 0.0
H945 H 0.03192 0.8892 0.70514 0.0
H946 H 0.9062 0.83803 0.65515 0.0
H947 H 0.98645 0.94523 0.69836 0.0
H948 H 0.90477 0.04228 0.68308 0.0
H949 H 0.97077 1.0067 0.67902 0.0
H950 H 0.82736 0.83697 0.67066 0.0
H951 H 0.76136 0.87275 0.67441 0.0
C952 C 0.95933 0.81784 0.67 0.0
C953 C 0.993 0.83047 0.68447 0.0
C954 C 0.93429 0.85018 0.66591 0.0
C955 C 0.94211 0.89514 0.67637 0.0
C956 C 0.98001 0.91088 0.69002 0.0
C957 C 1.00568 0.87877 0.69401 0.0
C958 C 0.88745 0.99748 0.68013 0.0
C959 C 0.82805 0.95967 0.67957 0.0
C960 C 0.92523 0.97735 0.67775 0.0
C961 C 0.9041 0.91915 0.67481 0.0
C962 C 0.84483 0.88225 0.67282 0.0
C963 C 0.80697 0.90249 0.67511 0.0
H964 H 0.1639 0.03835 0.84836 0.0
H965 H 0.13896 0.87751 0.86677 0.0
H966 H 0.06456 0.99028 0.83848 0.0
H967 H 0.0402 0.82992 0.85745 0.0
H968 H 0.87807 0.74177 0.83455 0.0
H969 H 0.98175 0.80172 0.83205 0.0
H970 H 0.97182 0.94506 0.85217 0.0
H971 H 0.86893 0.88641 0.85402 0.0
C972 C 0.1366 0.99304 0.85059 0.0
C973 C 0.15795 0.96132 0.85845 0.0
C974 C 0.08046 0.96551 0.84472 0.0
C975 C 0.04544 0.90627 0.84681 0.0
C976 C 0.06688 0.87524 0.8551 0.0
C977 C 0.12278 0.90253 0.86079 0.0
C978 C 0.89805 0.78648 0.83798 0.0
C979 C 0.86634 0.80895 0.8453 0.0
C980 C 0.95711 0.82071 0.83651 0.0
C981 C 0.98453 0.87722 0.84249 0.0
C982 C 0.95181 0.90151 0.84762 0.0
C983 C 0.89295 0.86756 0.84895 0.0
loop_
_geom_bond_atom_site_label_1
_geom_bond_atom_site_label_2
_geom_bond_distance
_geom_bond_site_symmetry_2
_ccdc_geom_bond_type
Fe0 O2 1.933 . S
Fe0 O5 2.027 . S
Fe0 O6 2.005 . S
Fe0 O11 1.944 1_554 S
Fe0 O14 1.991 1_554 S
Fe1 O2 1.918 . S
Fe1 O9 1.997 . S
Fe1 O12 1.996 1_554 S
Fe1 O16 1.976 . S
Fe1 O19 2.002 . S
O2 Fe0 1.933 . S
O2 Fe1 1.918 . S
O2 Fe3 1.918 . S
Fe3 O2 1.918 . S
Fe3 O4 2.002 . S
Fe3 O13 1.976 . S
Fe3 O17 1.996 . S
Fe3 O20 1.997 . S
O4 Fe3 2.002 . S
O4 C21 1.295 . S
O5 Fe0 2.027 . S
O5 C21 1.235 . S
O6 Fe0 2.005 . S
O6 C7 1.295 . S
C7 O6 1.295 . S
C7 O9 1.235 . S
C8 O13 1.287 . S
C8 O14 1.255 1_554 S
O9 Fe1 1.997 . S
O9 C7 1.235 . S
C10 O16 1.287 . S
C10 O17 1.255 . S
O11 Fe0 1.944 1_556 S
O11 C18 1.287 . S
O12 Fe1 1.996 1_556 S
O12 C18 1.255 . S
O13 Fe3 1.976 . S
O13 C8 1.287 . S
O14 Fe0 1.991 1_556 S
O14 C8 1.255 1_556 S
C15 O19 1.295 . S
C15 O20 1.235 . S
O16 Fe1 1.976 . S
O16 C10 1.287 . S
O17 Fe3 1.996 . S
O17 C10 1.255 . S
C18 O11 1.287 . S
C18 O12 1.255 . S
O19 Fe1 2.002 . S
O19 C15 1.295 . S
O20 Fe3 1.997 . S
O20 C15 1.235 . S
C21 O4 1.295 . S
C21 O5 1.235 . S
Fe22 O24 1.918 . S
Fe22 O27 1.999 . S
Fe22 O28 2.002 . S
Fe22 O33 1.976 . S
Fe22 O36 1.996 . S
Fe23 O24 1.918 . S
Fe23 O31 1.997 . S
Fe23 O34 1.996 . S
Fe23 O38 1.976 . S
Fe23 O41 2.002 . S
O24 Fe22 1.918 . S
O24 Fe23 1.918 . S
O24 Fe25 1.918 1_655 S
Fe25 O24 1.918 1_455 S
Fe25 O26 2.002 . S
Fe25 O35 1.976 . S
Fe25 O39 1.996 . S
Fe25 O42 1.997 . S
O26 Fe25 2.002 . S
O26 C43 1.295 . S
O27 Fe22 1.999 . S
O27 C43 1.232 1_655 S
O28 Fe22 2.002 . S
O28 C29 1.295 . S
C29 O28 1.295 . S
C29 O31 1.235 . S
C30 O35 1.287 . S
C30 O36 1.255 1_455 S
O31 Fe23 1.997 . S
O31 C29 1.235 . S
C32 O38 1.287 . S
C32 O39 1.255 1_655 S
O33 Fe22 1.976 . S
O33 C40 1.287 . S
O34 Fe23 1.996 . S
O34 C40 1.255 . S
O35 Fe25 1.976 . S
O35 C30 1.287 . S
O36 Fe22 1.996 . S
O36 C30 1.255 1_655 S
C37 O41 1.295 1_455 S
C37 O42 1.235 . S
O38 Fe23 1.976 . S
O38 C32 1.287 . S
O39 Fe25 1.996 . S
O39 C32 1.255 1_455 S
C40 O33 1.287 . S
C40 O34 1.255 . S
O41 Fe23 2.002 . S
O41 C37 1.295 1_655 S
O42 Fe25 1.997 . S
O42 C37 1.235 . S
C43 O26 1.295 . S
C43 O27 1.232 1_455 S
Fe44 O46 1.918 . S
Fe44 O49 1.997 . S
Fe44 O50 2.002 . S
Fe44 O55 1.976 . S
Fe44 O58 1.996 . S
Fe45 O46 1.918 1_545 S
Fe45 O53 1.997 . S
Fe45 O56 1.996 . S
Fe45 O60 1.976 . S
Fe45 O63 2.002 . S
O46 Fe44 1.918 . S
O46 Fe45 1.918 1_565 S
O46 Fe47 1.918 . S
Fe47 O46 1.918 . S
Fe47 O48 2.002 . S
Fe47 O57 1.976 . S
Fe47 O61 1.996 . S
Fe47 O64 1.997 . S
O48 Fe47 2.002 . S
O48 C65 1.295 . S
O49 Fe44 1.997 . S
O49 C65 1.235 . S
O50 Fe44 2.002 . S
O50 C51 1.295 1_565 S
C51 O50 1.295 1_545 S
C51 O53 1.235 . S
C52 O57 1.287 . S
C52 O58 1.255 . S
O53 Fe45 1.997 . S
O53 C51 1.235 . S
C54 O60 1.287 . S
C54 O61 1.255 1_545 S
O55 Fe44 1.976 . S
O55 C62 1.287 . S
O56 Fe45 1.996 . S
O56 C62 1.255 1_545 S
O57 Fe47 1.976 . S
O57 C52 1.287 . S
O58 Fe44 1.996 . S
O58 C52 1.255 . S
C59 O63 1.295 . S
C59 O64 1.235 1_545 S
O60 Fe45 1.976 . S
O60 C54 1.287 . S
O61 Fe47 1.996 . S
O61 C54 1.255 1_565 S
C62 O55 1.287 . S
C62 O56 1.255 1_565 S
O63 Fe45 2.002 . S
O63 C59 1.295 . S
O64 Fe47 1.997 . S
O64 C59 1.235 1_565 S
C65 O48 1.295 . S
C65 O49 1.235 . S
Fe66 O68 1.918 . S
Fe66 O71 1.997 . S
Fe66 O72 2.002 . S
Fe66 O77 1.976 . S
Fe66 O80 1.996 . S
Fe67 O68 1.918 . S
Fe67 O75 1.997 . S
Fe67 O78 1.996 . S
Fe67 O82 1.976 . S
Fe67 O85 2.002 . S
O68 Fe66 1.918 . S
O68 Fe67 1.918 . S
O68 Fe69 1.918 . S
Fe69 O68 1.918 . S
Fe69 O70 2.002 . S
Fe69 O79 1.976 . S
Fe69 O83 1.996 . S
Fe69 O86 1.997 . S
O70 Fe69 2.002 . S
O70 C87 1.295 . S
O71 Fe66 1.997 . S
O71 C87 1.235 . S
O72 Fe66 2.002 . S
O72 C73 1.295 . S
C73 O72 1.295 . S
C73 O75 1.235 . S
C74 O79 1.287 . S
C74 O80 1.255 . S
O75 Fe67 1.997 . S
O75 C73 1.235 . S
C76 O82 1.287 . S
C76 O83 1.255 . S
O77 Fe66 1.976 . S
O77 C84 1.287 . S
O78 Fe67 1.996 . S
O78 C84 1.255 . S
O79 Fe69 1.976 . S
O79 C74 1.287 . S
O80 Fe66 1.996 . S
O80 C74 1.255 . S
C81 O85 1.295 . S
C81 O86 1.235 . S
O82 Fe67 1.976 . S
O82 C76 1.287 . S
O83 Fe69 1.996 . S
O83 C76 1.255 . S
C84 O77 1.287 . S
C84 O78 1.255 . S
O85 Fe67 2.002 . S
O85 C81 1.295 . S
O86 Fe69 1.997 . S
O86 C81 1.235 . S
C87 O70 1.295 . S
C87 O71 1.235 . S
Fe88 O90 1.918 . S
Fe88 O93 1.996 . S
Fe88 O94 2.002 . S
Fe88 O99 1.976 . S
Fe88 O102 1.996 . S
Fe89 O90 1.918 . S
Fe89 O97 1.997 . S
Fe89 O100 1.996 . S
Fe89 O104 1.976 . S
Fe89 O107 2.002 . S
O90 Fe88 1.918 . S
O90 Fe89 1.918 . S
O90 Fe91 1.918 1_455 S
Fe91 O90 1.918 1_655 S
Fe91 O92 2.002 . S
Fe91 O101 1.976 . S
Fe91 O105 1.996 . S
Fe91 O108 1.997 . S
O92 Fe91 2.002 . S
O92 C109 1.295 . S
O93 Fe88 1.996 . S
O93 C109 1.236 1_455 S
O94 Fe88 2.002 . S
O94 C95 1.295 . S
C95 O94 1.295 . S
C95 O97 1.235 . S
C96 O101 1.287 . S
C96 O102 1.255 1_655 S
O97 Fe89 1.997 . S
O97 C95 1.235 . S
C98 O104 1.287 . S
C98 O105 1.255 1_455 S
O99 Fe88 1.976 . S
O99 C106 1.287 . S
O100 Fe89 1.996 . S
O100 C106 1.255 . S
O101 Fe91 1.976 . S
O101 C96 1.287 . S
O102 Fe88 1.996 . S
O102 C96 1.255 1_455 S
C103 O107 1.295 1_655 S
C103 O108 1.235 . S
O104 Fe89 1.976 . S
O104 C98 1.287 . S
O105 Fe91 1.996 . S
O105 C98 1.255 1_655 S
C106 O99 1.287 . S
C106 O100 1.255 . S
O107 Fe89 2.002 . S
O107 C103 1.295 1_455 S
O108 Fe91 1.997 . S
O108 C103 1.235 . S
C109 O92 1.295 . S
C109 O93 1.236 1_655 S
Fe110 O112 1.918 . S
Fe110 O115 1.997 . S
Fe110 O116 2.002 . S
Fe110 O121 1.976 . S
Fe110 O124 1.996 . S
Fe111 O112 1.918 1_565 S
Fe111 O119 1.997 . S
Fe111 O122 1.996 . S
Fe111 O126 1.976 . S
Fe111 O129 2.002 . S
O112 Fe110 1.918 . S
O112 Fe111 1.918 1_545 S
O112 Fe113 1.918 . S
Fe113 O112 1.918 . S
Fe113 O114 2.002 . S
Fe113 O123 1.976 . S
Fe113 O127 1.996 . S
Fe113 O130 1.997 . S
O114 Fe113 2.002 . S
O114 C131 1.295 . S
O115 Fe110 1.997 . S
O115 C131 1.235 . S
O116 Fe110 2.002 . S
O116 C117 1.295 1_545 S
C117 O116 1.295 1_565 S
C117 O119 1.235 . S
C118 O123 1.287 . S
C118 O124 1.255 . S
O119 Fe111 1.997 . S
O119 C117 1.235 . S
C120 O126 1.287 . S
C120 O127 1.255 1_565 S
O121 Fe110 1.976 . S
O121 C128 1.287 . S
O122 Fe111 1.996 . S
O122 C128 1.255 1_565 S
O123 Fe113 1.976 . S
O123 C118 1.287 . S
O124 Fe110 1.996 . S
O124 C118 1.255 . S
C125 O129 1.295 . S
C125 O130 1.235 1_565 S
O126 Fe111 1.976 . S
O126 C120 1.287 . S
O127 Fe113 1.996 . S
O127 C120 1.255 1_545 S
C128 O121 1.287 . S
C128 O122 1.255 1_545 S
O129 Fe111 2.002 . S
O129 C125 1.295 . S
O130 Fe113 1.997 . S
O130 C125 1.235 1_545 S
C131 O114 1.295 . S
C131 O115 1.235 . S
Fe132 O134 1.918 . S
Fe132 O137 1.997 . S
Fe132 O138 2.002 . S
Fe132 O143 1.976 . S
Fe132 O146 1.996 . S
Fe133 O134 1.918 . S
Fe133 O141 1.997 . S
Fe133 O144 1.996 . S
Fe133 O148 1.976 . S
Fe133 O151 2.002 . S
O134 Fe132 1.918 . S
O134 Fe133 1.918 . S
O134 Fe135 1.918 . S
Fe135 O134 1.918 . S
Fe135 O136 2.002 . S
Fe135 O145 1.976 . S
Fe135 O149 1.996 . S
Fe135 O152 1.997 . S
O136 Fe135 2.002 . S
O136 C153 1.295 . S
O137 Fe132 1.997 . S
O137 C153 1.235 . S
O138 Fe132 2.002 . S
O138 C139 1.295 . S
C139 O138 1.295 . S
C139 O141 1.235 . S
C140 O145 1.287 . S
C140 O146 1.255 . S
O141 Fe133 1.997 . S
O141 C139 1.235 . S
C142 O148 1.287 . S
C142 O149 1.255 . S
O143 Fe132 1.976 . S
O143 C150 1.287 . S
O144 Fe133 1.996 . S
O144 C150 1.255 . S
O145 Fe135 1.976 . S
O145 C140 1.287 . S
O146 Fe132 1.996 . S
O146 C140 1.255 . S
C147 O151 1.295 . S
C147 O152 1.235 . S
O148 Fe133 1.976 . S
O148 C142 1.287 . S
O149 Fe135 1.996 . S
O149 C142 1.255 . S
C150 O143 1.287 . S
C150 O144 1.255 . S
O151 Fe133 2.002 . S
O151 C147 1.295 . S
O152 Fe135 1.997 . S
O152 C147 1.235 . S
C153 O136 1.295 . S
C153 O137 1.235 . S
Fe154 O156 1.918 1_455 S
Fe154 O159 1.997 . S
Fe154 O160 2.002 . S
Fe154 O165 1.976 . S
Fe154 O168 1.996 1_556 S
Fe155 O156 1.918 . S
Fe155 O163 1.998 . S
Fe155 O166 1.996 . S
Fe155 O170 1.976 . S
Fe155 O173 2.002 . S
O156 Fe154 1.918 1_655 S
O156 Fe155 1.918 . S
O156 Fe157 1.918 . S
Fe157 O156 1.918 . S
Fe157 O158 2.002 . S
Fe157 O167 1.976 1_556 S
Fe157 O171 1.999 . S
Fe157 O174 1.997 . S
O158 Fe157 2.002 . S
O158 C175 1.295 1_655 S
O159 Fe154 1.997 . S
O159 C175 1.235 . S
O160 Fe154 2.002 . S
O160 C161 1.295 . S
C161 O160 1.295 . S
C161 O163 1.234 1_455 S
C162 O167 1.287 . S
C162 O168 1.255 1_655 S
O163 Fe155 1.998 . S
O163 C161 1.234 1_655 S
C164 O170 1.287 . S
C164 O171 1.263 . S
O165 Fe154 1.976 . S
O165 C172 1.287 . S
O166 Fe155 1.996 . S
O166 C172 1.255 1_655 S
O167 Fe157 1.976 1_554 S
O167 C162 1.287 . S
O168 Fe154 1.996 1_554 S
O168 C162 1.255 1_455 S
C169 O173 1.295 . S
C169 O174 1.235 . S
O170 Fe155 1.976 . S
O170 C164 1.287 . S
O171 Fe157 1.999 . S
O171 C164 1.263 . S
C172 O165 1.287 . S
C172 O166 1.255 1_455 S
O173 Fe155 2.002 . S
O173 C169 1.295 . S
O174 Fe157 1.997 . S
O174 C169 1.235 . S
C175 O158 1.295 1_455 S
C175 O159 1.235 . S
Fe176 O178 1.918 1_545 S
Fe176 O181 1.997 . S
Fe176 O182 2.002 . S
Fe176 O187 1.976 . S
Fe176 O190 1.996 . S
Fe177 O178 1.918 . S
Fe177 O185 1.997 . S
Fe177 O188 1.996 . S
Fe177 O192 1.976 . S
Fe177 O195 2.002 . S
O178 Fe176 1.918 1_565 S
O178 Fe177 1.918 . S
O178 Fe179 1.918 . S
Fe179 O178 1.918 . S
Fe179 O180 2.002 . S
Fe179 O189 1.976 . S
Fe179 O193 1.996 . S
Fe179 O196 1.997 . S
O180 Fe179 2.002 . S
O180 C197 1.295 1_565 S
O181 Fe176 1.997 . S
O181 C197 1.235 . S
O182 Fe176 2.002 . S
O182 C183 1.295 . S
C183 O182 1.295 . S
C183 O185 1.234 1_545 S
C184 O189 1.287 . S
C184 O190 1.255 1_565 S
O185 Fe177 1.997 . S
O185 C183 1.234 1_565 S
C186 O192 1.287 . S
C186 O193 1.255 . S
O187 Fe176 1.976 . S
O187 C194 1.287 . S
O188 Fe177 1.996 . S
O188 C194 1.255 1_565 S
O189 Fe179 1.976 . S
O189 C184 1.287 . S
O190 Fe176 1.996 . S
O190 C184 1.255 1_545 S
C191 O195 1.295 . S
C191 O196 1.235 . S
O192 Fe177 1.976 . S
O192 C186 1.287 . S
O193 Fe179 1.996 . S
O193 C186 1.255 . S
C194 O187 1.287 . S
C194 O188 1.255 1_545 S
O195 Fe177 2.002 . S
O195 C191 1.295 . S
O196 Fe179 1.997 . S
O196 C191 1.235 . S
C197 O180 1.295 1_545 S
C197 O181 1.235 . S
Fe198 O200 1.918 . S
Fe198 O203 1.997 . S
Fe198 O204 2.002 . S
Fe198 O209 1.976 . S
Fe198 O212 1.996 . S
Fe199 O200 1.918 . S
Fe199 O207 1.997 . S
Fe199 O210 1.996 . S
Fe199 O214 1.976 . S
Fe199 O217 2.002 . S
O200 Fe198 1.918 . S
O200 Fe199 1.918 . S
O200 Fe201 1.918 . S
Fe201 O200 1.918 . S
Fe201 O202 2.002 . S
Fe201 O211 1.976 . S
Fe201 O215 1.996 . S
Fe201 O218 1.997 . S
O202 Fe201 2.002 . S
O202 C219 1.295 . S
O203 Fe198 1.997 . S
O203 C219 1.235 . S
O204 Fe198 2.002 . S
O204 C205 1.295 . S
C205 O204 1.295 . S
C205 O207 1.235 . S
C206 O211 1.287 . S
C206 O212 1.255 . S
O207 Fe199 1.997 . S
O207 C205 1.235 . S
C208 O214 1.287 . S
C208 O215 1.255 . S
O209 Fe198 1.976 . S
O209 C216 1.287 . S
O210 Fe199 1.996 . S
O210 C216 1.255 . S
O211 Fe201 1.976 . S
O211 C206 1.287 . S
O212 Fe198 1.996 . S
O212 C206 1.255 . S
C213 O217 1.295 . S
C213 O218 1.235 . S
O214 Fe199 1.976 . S
O214 C208 1.287 . S
O215 Fe201 1.996 . S
O215 C208 1.255 . S
C216 O209 1.287 . S
C216 O210 1.255 . S
O217 Fe199 2.002 . S
O217 C213 1.295 . S
O218 Fe201 1.997 . S
O218 C213 1.235 . S
C219 O202 1.295 . S
C219 O203 1.235 . S
Fe220 O222 1.918 . S
Fe220 O225 1.996 . S
Fe220 O226 2.002 . S
Fe220 O231 1.976 . S
Fe220 O234 1.996 . S
Fe221 O222 1.918 . S
Fe221 O229 1.997 . S
Fe221 O232 1.996 . S
Fe221 O236 1.976 . S
Fe221 O239 2.002 . S
O222 Fe220 1.918 . S
O222 Fe221 1.918 . S
O222 Fe223 1.918 1_455 S
Fe223 O222 1.918 1_655 S
Fe223 O224 2.002 . S
Fe223 O233 1.976 . S
Fe223 O237 1.996 . S
Fe223 O240 1.997 . S
O224 Fe223 2.002 . S
O224 C241 1.295 . S
O225 Fe220 1.996 . S
O225 C241 1.236 1_455 S
O226 Fe220 2.002 . S
O226 C227 1.295 . S
C227 O226 1.295 . S
C227 O229 1.235 . S
C228 O233 1.287 . S
C228 O234 1.255 1_655 S
O229 Fe221 1.997 . S
O229 C227 1.235 . S
C230 O236 1.287 . S
C230 O237 1.255 1_455 S
O231 Fe220 1.976 . S
O231 C238 1.287 . S
O232 Fe221 1.996 . S
O232 C238 1.255 . S
O233 Fe223 1.976 . S
O233 C228 1.287 . S
O234 Fe220 1.996 . S
O234 C228 1.255 1_455 S
C235 O239 1.295 1_655 S
C235 O240 1.235 . S
O236 Fe221 1.976 . S
O236 C230 1.287 . S
O237 Fe223 1.996 . S
O237 C230 1.255 1_655 S
C238 O231 1.287 . S
C238 O232 1.255 . S
O239 Fe221 2.002 . S
O239 C235 1.295 1_455 S
O240 Fe223 1.997 . S
O240 C235 1.235 . S
C241 O224 1.295 . S
C241 O225 1.236 1_655 S
Fe242 O244 1.918 1_565 S
Fe242 O247 1.997 . S
Fe242 O248 2.002 . S
Fe242 O253 1.976 . S
Fe242 O256 1.996 . S
Fe243 O244 1.918 . S
Fe243 O251 1.998 . S
Fe243 O254 1.996 . S
Fe243 O258 1.976 . S
Fe243 O261 2.002 . S
O244 Fe242 1.918 1_545 S
O244 Fe243 1.918 . S
O244 Fe245 1.918 . S
Fe245 O244 1.918 . S
Fe245 O246 2.002 . S
Fe245 O255 1.976 . S
Fe245 O259 1.996 . S
Fe245 O262 1.997 . S
O246 Fe245 2.002 . S
O246 C263 1.295 1_545 S
O247 Fe242 1.997 . S
O247 C263 1.235 . S
O248 Fe242 2.002 . S
O248 C249 1.295 . S
C249 O248 1.295 . S
C249 O251 1.234 1_565 S
C250 O255 1.287 . S
C250 O256 1.255 1_545 S
O251 Fe243 1.998 . S
O251 C249 1.234 1_545 S
C252 O258 1.287 . S
C252 O259 1.255 . S
O253 Fe242 1.976 . S
O253 C260 1.287 . S
O254 Fe243 1.996 . S
O254 C260 1.255 1_545 S
O255 Fe245 1.976 . S
O255 C250 1.287 . S
O256 Fe242 1.996 . S
O256 C250 1.255 1_565 S
C257 O261 1.295 . S
C257 O262 1.235 . S
O258 Fe243 1.976 . S
O258 C252 1.287 . S
O259 Fe245 1.996 . S
O259 C252 1.255 . S
C260 O253 1.287 . S
C260 O254 1.255 1_565 S
O261 Fe243 2.002 . S
O261 C257 1.295 . S
O262 Fe245 1.997 . S
O262 C257 1.235 . S
C263 O246 1.295 1_565 S
C263 O247 1.235 . S
H264 C272 0.950 . S
H265 C277 0.950 . S
H266 C274 0.950 . S
H267 C276 0.950 . S
H268 C278 0.950 . S
H269 C280 0.950 . S
H270 C282 0.950 . S
H271 C283 0.950 . S
C272 H264 0.950 . S
C272 C273 1.386 . S
C272 C274 1.391 . S
C273 C272 1.386 . S
C273 C277 1.393 1_556 S
C274 H266 0.950 . S
C274 C272 1.391 . S
C274 C275 1.376 1_556 S
C275 C274 1.376 1_554 S
C275 C276 1.420 . S
C275 C281 1.496 . S
C276 H267 0.950 . S
C276 C275 1.420 . S
C276 C277 1.391 . S
C277 H265 0.950 . S
C277 C273 1.393 1_554 S
C277 C276 1.391 . S
C278 H268 0.950 . S
C278 C279 1.386 . S
C278 C280 1.391 . S
C279 C278 1.386 . S
C279 C283 1.393 1_554 S
C280 H269 0.950 . S
C280 C278 1.391 . S
C280 C281 1.400 . S
C281 C275 1.496 . S
C281 C280 1.400 . S
C281 C282 1.398 1_554 S
C282 H270 0.950 . S
C282 C281 1.398 1_556 S
C282 C283 1.391 . S
C283 H271 0.950 . S
C283 C279 1.393 1_556 S
C283 C282 1.391 . S
H284 C292 0.950 . S
H285 C297 0.950 . S
H286 C294 0.950 . S
H287 C296 0.950 . S
H288 C298 0.950 1_655 S
H289 C300 0.950 . S
H290 C302 0.950 . S
H291 C303 0.950 . S
C292 H284 0.950 . S
C292 C293 1.386 . S
C292 C294 1.391 . S
C293 C292 1.386 . S
C293 C297 1.393 . S
C294 H286 0.950 . S
C294 C292 1.391 . S
C294 C295 1.400 . S
C295 C294 1.400 . S
C295 C296 1.398 . S
C295 C301 1.491 . S
C296 H287 0.950 . S
C296 C295 1.398 . S
C296 C297 1.391 . S
C297 H285 0.950 . S
C297 C293 1.393 . S
C297 C296 1.391 . S
C298 H288 0.950 1_455 S
C298 C299 1.386 . S
C298 C300 1.391 . S
C299 C298 1.386 . S
C299 C303 1.393 . S
C300 H289 0.950 . S
C300 C298 1.391 . S
C300 C301 1.400 . S
C301 C295 1.491 . S
C301 C300 1.400 . S
C301 C302 1.398 . S
C302 H290 0.950 . S
C302 C301 1.398 . S
C302 C303 1.391 . S
C303 H291 0.950 . S
C303 C299 1.393 . S
C303 C302 1.391 . S
H304 C312 0.950 . S
H305 C317 0.950 . S
H306 C314 0.950 . S
H307 C316 0.950 . S
H308 C318 0.950 1_565 S
H309 C320 0.950 . S
H310 C322 0.950 . S
H311 C323 0.950 . S
C312 H304 0.950 . S
C312 C313 1.386 . S
C312 C314 1.391 . S
C313 C312 1.386 . S
C313 C317 1.393 . S
C314 H306 0.950 . S
C314 C312 1.391 . S
C314 C315 1.400 . S
C315 C314 1.400 . S
C315 C316 1.398 . S
C315 C321 1.491 . S
C316 H307 0.950 . S
C316 C315 1.398 . S
C316 C317 1.391 . S
C317 H305 0.950 . S
C317 C313 1.393 . S
C317 C316 1.391 . S
C318 H308 0.950 1_545 S
C318 C319 1.386 . S
C318 C320 1.391 . S
C319 C318 1.386 . S
C319 C323 1.393 . S
C320 H309 0.950 . S
C320 C318 1.391 . S
C320 C321 1.400 . S
C321 C315 1.491 . S
C321 C320 1.400 . S
C321 C322 1.398 . S
C322 H310 0.950 . S
C322 C321 1.398 . S
C322 C323 1.391 . S
C323 H311 0.950 . S
C323 C319 1.393 . S
C323 C322 1.391 . S
H324 C332 0.950 . S
H325 C337 0.950 . S
H326 C334 0.950 . S
H327 C336 0.950 . S
H328 C338 0.950 . S
H329 C340 0.950 . S
H330 C342 0.950 . S
H331 C343 0.950 . S
C332 H324 0.950 . S
C332 C333 1.386 . S
C332 C334 1.391 . S
C333 C332 1.386 . S
C333 C337 1.393 . S
C334 H326 0.950 . S
C334 C332 1.391 . S
C334 C335 1.400 . S
C335 C334 1.400 . S
C335 C336 1.398 . S
C335 C341 1.491 . S
C336 H327 0.950 . S
C336 C335 1.398 . S
C336 C337 1.391 . S
C337 H325 0.950 . S
C337 C333 1.393 . S
C337 C336 1.391 . S
C338 H328 0.950 . S
C338 C339 1.386 . S
C338 C340 1.391 . S
C339 C338 1.386 . S
C339 C343 1.393 . S
C340 H329 0.950 . S
C340 C338 1.391 . S
C340 C341 1.400 . S
C341 C335 1.491 . S
C341 C340 1.400 . S
C341 C342 1.398 . S
C342 H330 0.950 . S
C342 C341 1.398 . S
C342 C343 1.391 . S
C343 H331 0.950 . S
C343 C339 1.393 . S
C343 C342 1.391 . S
H344 C352 0.950 . S
H345 C357 0.950 . S
H346 C354 0.950 . S
H347 C356 0.950 . S
H348 C358 0.950 . S
H349 C360 0.950 . S
H350 C362 0.950 . S
H351 C363 0.950 1_455 S
C352 H344 0.950 . S
C352 C353 1.386 . S
C352 C354 1.391 . S
C353 C352 1.386 . S
C353 C357 1.393 . S
C354 H346 0.950 . S
C354 C352 1.391 . S
C354 C355 1.400 . S
C355 C354 1.400 . S
C355 C356 1.398 . S
C355 C361 1.491 . S
C356 H347 0.950 . S
C356 C355 1.398 . S
C356 C357 1.391 . S
C357 H345 0.950 . S
C357 C353 1.393 . S
C357 C356 1.391 . S
C358 H348 0.950 . S
C358 C359 1.386 . S
C358 C360 1.391 . S
C359 C358 1.386 . S
C359 C363 1.393 . S
C360 H349 0.950 . S
C360 C358 1.391 . S
C360 C361 1.400 . S
C361 C355 1.491 . S
C361 C360 1.400 . S
C361 C362 1.398 . S
C362 H350 0.950 . S
C362 C361 1.398 . S
C362 C363 1.391 . S
C363 H351 0.950 1_655 S
C363 C359 1.393 . S
C363 C362 1.391 . S
H364 C372 0.950 . S
H365 C377 0.950 . S
H366 C374 0.950 . S
H367 C376 0.950 . S
H368 C378 0.950 . S
H369 C380 0.950 . S
H370 C382 0.950 . S
H371 C383 0.950 1_545 S
C372 H364 0.950 . S
C372 C373 1.386 . S
C372 C374 1.391 . S
C373 C372 1.386 . S
C373 C377 1.393 . S
C374 H366 0.950 . S
C374 C372 1.391 . S
C374 C375 1.400 . S
C375 C374 1.400 . S
C375 C376 1.398 . S
C375 C381 1.491 . S
C376 H367 0.950 . S
C376 C375 1.398 . S
C376 C377 1.391 . S
C377 H365 0.950 . S
C377 C373 1.393 . S
C377 C376 1.391 . S
C378 H368 0.950 . S
C378 C379 1.386 . S
C378 C380 1.391 . S
C379 C378 1.386 . S
C379 C383 1.393 . S
C380 H369 0.950 . S
C380 C378 1.391 . S
C380 C381 1.400 . S
C381 C375 1.491 . S
C381 C380 1.400 . S
C381 C382 1.398 . S
C382 H370 0.950 . S
C382 C381 1.398 . S
C382 C383 1.391 . S
C383 H371 0.950 1_565 S
C383 C379 1.393 . S
C383 C382 1.391 . S
H384 C392 0.950 . S
H385 C397 0.950 . S
H386 C394 0.950 . S
H387 C396 0.950 . S
H388 C398 0.950 . S
H389 C400 0.950 . S
H390 C402 0.950 . S
H391 C403 0.950 . S
C392 H384 0.950 . S
C392 C393 1.386 . S
C392 C394 1.391 . S
C393 C392 1.386 . S
C393 C397 1.393 . S
C394 H386 0.950 . S
C394 C392 1.391 . S
C394 C395 1.400 . S
C395 C394 1.400 . S
C395 C396 1.398 . S
C395 C401 1.491 . S
C396 H387 0.950 . S
C396 C395 1.398 . S
C396 C397 1.391 . S
C397 H385 0.950 . S
C397 C393 1.393 . S
C397 C396 1.391 . S
C398 H388 0.950 . S
C398 C399 1.386 . S
C398 C400 1.391 . S
C399 C398 1.386 . S
C399 C403 1.393 . S
C400 H389 0.950 . S
C400 C398 1.391 . S
C400 C401 1.400 . S
C401 C395 1.491 . S
C401 C400 1.400 . S
C401 C402 1.398 . S
C402 H390 0.950 . S
C402 C401 1.398 . S
C402 C403 1.391 . S
C403 H391 0.950 . S
C403 C399 1.393 . S
C403 C402 1.391 . S
H404 C412 0.950 . S
H405 C417 0.950 . S
H406 C414 0.950 . S
H407 C416 0.950 . S
H408 C418 0.950 . S
H409 C420 0.950 . S
H410 C422 0.950 . S
H411 C423 0.950 . S
C412 H404 0.950 . S
C412 C413 1.386 . S
C412 C414 1.391 . S
C413 C412 1.386 . S
C413 C417 1.393 1_556 S
C414 H406 0.950 . S
C414 C412 1.391 . S
C414 C415 1.400 . S
C415 C414 1.400 . S
C415 C416 1.398 1_556 S
C415 C421 1.491 . S
C416 H407 0.950 . S
C416 C415 1.398 1_554 S
C416 C417 1.391 . S
C417 H405 0.950 . S
C417 C413 1.393 1_554 S
C417 C416 1.391 . S
C418 H408 0.950 . S
C418 C419 1.391 1_554 S
C418 C420 1.391 . S
C419 C418 1.391 1_556 S
C419 C423 1.387 . S
C420 H409 0.950 . S
C420 C418 1.391 . S
C420 C421 1.400 1_554 S
C421 C415 1.491 . S
C421 C420 1.400 1_556 S
C421 C422 1.398 . S
C422 H410 0.950 . S
C422 C421 1.398 . S
C422 C423 1.391 . S
C423 H411 0.950 . S
C423 C419 1.387 . S
C423 C422 1.391 . S
H424 C432 0.950 1_565 S
H425 C437 0.950 . S
H426 C434 0.950 . S
H427 C436 0.950 . S
H428 C438 0.950 . S
H429 C440 0.950 . S
H430 C442 0.950 . S
H431 C443 0.950 . S
C432 H424 0.950 1_545 S
C432 C433 1.386 . S
C432 C434 1.391 . S
C433 C432 1.386 . S
C433 C437 1.393 . S
C434 H426 0.950 . S
C434 C432 1.391 . S
C434 C435 1.400 . S
C435 C434 1.400 . S
C435 C436 1.398 . S
C435 C441 1.491 . S
C436 H427 0.950 . S
C436 C435 1.398 . S
C436 C437 1.391 . S
C437 H425 0.950 . S
C437 C433 1.393 . S
C437 C436 1.391 . S
C438 H428 0.950 . S
C438 C439 1.386 . S
C438 C440 1.391 . S
C439 C438 1.386 . S
C439 C443 1.393 . S
C440 H429 0.950 . S
C440 C438 1.391 . S
C440 C441 1.400 . S
C441 C435 1.491 . S
C441 C440 1.400 . S
C441 C442 1.398 . S
C442 H430 0.950 . S
C442 C441 1.398 . S
C442 C443 1.391 . S
C443 H431 0.950 . S
C443 C439 1.393 . S
C443 C442 1.391 . S
H444 C452 0.950 . S
H445 C457 0.950 . S
H446 C454 0.950 . S
H447 C456 0.950 . S
H448 C458 0.950 . S
H449 C460 0.950 . S
H450 C462 0.950 . S
H451 C463 0.950 . S
C452 H444 0.950 . S
C452 C453 1.386 . S
C452 C454 1.391 . S
C453 C452 1.386 . S
C453 C457 1.393 . S
C454 H446 0.950 . S
C454 C452 1.391 . S
C454 C455 1.400 . S
C455 C454 1.400 . S
C455 C456 1.398 . S
C455 C461 1.491 . S
C456 H447 0.950 . S
C456 C455 1.398 . S
C456 C457 1.391 . S
C457 H445 0.950 . S
C457 C453 1.393 . S
C457 C456 1.391 . S
C458 H448 0.950 . S
C458 C459 1.386 . S
C458 C460 1.391 . S
C459 C458 1.386 . S
C459 C463 1.393 . S
C460 H449 0.950 . S
C460 C458 1.391 . S
C460 C461 1.400 . S
C461 C455 1.491 . S
C461 C460 1.400 . S
C461 C462 1.398 . S
C462 H450 0.950 . S
C462 C461 1.398 . S
C462 C463 1.391 . S
C463 H451 0.950 . S
C463 C459 1.393 . S
C463 C462 1.391 . S
H464 C472 0.950 1_455 S
H465 C477 0.950 . S
H466 C474 0.950 . S
H467 C476 0.950 . S
H468 C478 0.950 . S
H469 C480 0.950 . S
H470 C482 0.950 . S
H471 C483 0.950 . S
C472 H464 0.950 1_655 S
C472 C473 1.386 . S
C472 C474 1.391 . S
C473 C472 1.386 . S
C473 C477 1.393 . S
C474 H466 0.950 . S
C474 C472 1.391 . S
C474 C475 1.400 . S
C475 C474 1.400 . S
C475 C476 1.398 . S
C475 C481 1.491 . S
C476 H467 0.950 . S
C476 C475 1.398 . S
C476 C477 1.391 . S
C477 H465 0.950 . S
C477 C473 1.393 . S
C477 C476 1.391 . S
C478 H468 0.950 . S
C478 C479 1.386 . S
C478 C480 1.391 . S
C479 C478 1.386 . S
C479 C483 1.393 . S
C480 H469 0.950 . S
C480 C478 1.391 . S
C480 C481 1.400 . S
C481 C475 1.491 . S
C481 C480 1.400 . S
C481 C482 1.398 . S
C482 H470 0.950 . S
C482 C481 1.398 . S
C482 C483 1.391 . S
C483 H471 0.950 . S
C483 C479 1.393 . S
C483 C482 1.391 . S
H484 C492 0.950 . S
H485 C497 0.950 . S
H486 C494 0.950 . S
H487 C496 0.950 . S
H488 C498 0.950 . S
H489 C500 0.950 . S
H490 C502 0.950 . S
H491 C503 0.950 . S
C492 H484 0.950 . S
C492 C493 1.386 . S
C492 C494 1.391 . S
C493 C492 1.386 . S
C493 C497 1.393 . S
C494 H486 0.950 . S
C494 C492 1.391 . S
C494 C495 1.400 . S
C495 C494 1.400 . S
C495 C496 1.398 . S
C495 C501 1.491 . S
C496 H487 0.950 . S
C496 C495 1.398 . S
C496 C497 1.391 . S
C497 H485 0.950 . S
C497 C493 1.393 . S
C497 C496 1.391 . S
C498 H488 0.950 . S
C498 C499 1.386 . S
C498 C500 1.391 . S
C499 C498 1.386 . S
C499 C503 1.393 . S
C500 H489 0.950 . S
C500 C498 1.391 . S
C500 C501 1.400 . S
C501 C495 1.491 . S
C501 C500 1.400 . S
C501 C502 1.398 . S
C502 H490 0.950 . S
C502 C501 1.398 . S
C502 C503 1.391 . S
C503 H491 0.950 . S
C503 C499 1.393 . S
C503 C502 1.391 . S
H504 C512 0.950 . S
H505 C517 0.950 . S
H506 C514 0.950 . S
H507 C516 0.950 . S
H508 C518 0.950 . S
H509 C520 0.950 . S
H510 C522 0.950 . S
H511 C523 0.950 . S
C512 H504 0.950 . S
C512 C513 1.386 . S
C512 C514 1.391 . S
C513 C512 1.386 . S
C513 C517 1.393 . S
C514 H506 0.950 . S
C514 C512 1.391 . S
C514 C515 1.400 . S
C515 C514 1.400 . S
C515 C516 1.398 . S
C515 C521 1.491 . S
C516 H507 0.950 . S
C516 C515 1.398 . S
C516 C517 1.391 . S
C517 H505 0.950 . S
C517 C513 1.393 . S
C517 C516 1.391 . S
C518 H508 0.950 . S
C518 C519 1.386 . S
C518 C520 1.391 . S
C519 C518 1.386 . S
C519 C523 1.393 . S
C520 H509 0.950 . S
C520 C518 1.391 . S
C520 C521 1.400 . S
C521 C515 1.491 . S
C521 C520 1.400 . S
C521 C522 1.398 . S
C522 H510 0.950 . S
C522 C521 1.398 . S
C522 C523 1.391 . S
C523 H511 0.950 . S
C523 C519 1.393 . S
C523 C522 1.391 . S
H524 C532 0.950 . S
H525 C537 0.950 . S
H526 C534 0.950 . S
H527 C536 0.950 . S
H528 C538 0.950 . S
H529 C540 0.950 . S
H530 C542 0.950 . S
H531 C543 0.950 . S
C532 H524 0.950 . S
C532 C533 1.372 1_455 S
C532 C534 1.391 . S
C533 C532 1.372 1_655 S
C533 C537 1.398 . S
C534 H526 0.950 . S
C534 C532 1.391 . S
C534 C535 1.400 . S
C535 C534 1.400 . S
C535 C536 1.398 1_455 S
C535 C541 1.491 . S
C536 H527 0.950 . S
C536 C535 1.398 1_655 S
C536 C537 1.391 . S
C537 H525 0.950 . S
C537 C533 1.398 . S
C537 C536 1.391 . S
C538 H528 0.950 . S
C538 C539 1.386 . S
C538 C540 1.391 . S
C539 C538 1.386 . S
C539 C543 1.393 . S
C540 H529 0.950 . S
C540 C538 1.391 . S
C540 C541 1.400 . S
C541 C535 1.491 . S
C541 C540 1.400 . S
C541 C542 1.398 . S
C542 H530 0.950 . S
C542 C541 1.398 . S
C542 C543 1.391 . S
C543 H531 0.950 . S
C543 C539 1.393 . S
C543 C542 1.391 . S
H544 C552 0.950 . S
H545 C557 0.950 . S
H546 C554 0.950 . S
H547 C556 0.950 . S
H548 C558 0.950 1_565 S
H549 C560 0.950 . S
H550 C562 0.950 . S
H551 C563 0.950 . S
C552 H544 0.950 . S
C552 C553 1.386 . S
C552 C554 1.391 . S
C553 C552 1.386 . S
C553 C557 1.393 . S
C554 H546 0.950 . S
C554 C552 1.391 . S
C554 C555 1.400 . S
C555 C554 1.400 . S
C555 C556 1.398 . S
C555 C561 1.491 . S
C556 H547 0.950 . S
C556 C555 1.398 . S
C556 C557 1.391 . S
C557 H545 0.950 . S
C557 C553 1.393 . S
C557 C556 1.391 . S
C558 H548 0.950 1_545 S
C558 C559 1.378 . S
C558 C560 1.391 . S
C559 C558 1.378 . S
C559 C563 1.405 . S
C560 H549 0.950 . S
C560 C558 1.391 . S
C560 C561 1.400 . S
C561 C555 1.491 . S
C561 C560 1.400 . S
C561 C562 1.398 . S
C562 H550 0.950 . S
C562 C561 1.398 . S
C562 C563 1.391 . S
C563 H551 0.950 . S
C563 C559 1.405 . S
C563 C562 1.391 . S
H564 C572 0.950 . S
H565 C577 0.950 . S
H566 C574 0.950 . S
H567 C576 0.950 . S
H568 C578 0.950 . S
H569 C580 0.950 . S
H570 C582 0.950 . S
H571 C583 0.950 . S
C572 H564 0.950 . S
C572 C573 1.386 . S
C572 C574 1.391 . S
C573 C572 1.386 . S
C573 C577 1.393 . S
C574 H566 0.950 . S
C574 C572 1.391 . S
C574 C575 1.400 . S
C575 C574 1.400 . S
C575 C576 1.398 . S
C575 C581 1.491 . S
C576 H567 0.950 . S
C576 C575 1.398 . S
C576 C577 1.391 . S
C577 H565 0.950 . S
C577 C573 1.393 . S
C577 C576 1.391 . S
C578 H568 0.950 . S
C578 C579 1.386 . S
C578 C580 1.391 . S
C579 C578 1.386 . S
C579 C583 1.393 . S
C580 H569 0.950 . S
C580 C578 1.391 . S
C580 C581 1.400 . S
C581 C575 1.491 . S
C581 C580 1.400 . S
C581 C582 1.398 . S
C582 H570 0.950 . S
C582 C581 1.398 . S
C582 C583 1.391 . S
C583 H571 0.950 . S
C583 C579 1.393 . S
C583 C582 1.391 . S
H584 C592 0.950 . S
H585 C597 0.950 . S
H586 C594 0.950 . S
H587 C596 0.950 . S
H588 C598 0.950 . S
H589 C600 0.950 1_455 S
H590 C602 0.950 . S
H591 C603 0.950 . S
C592 H584 0.950 . S
C592 C593 1.386 . S
C592 C594 1.391 . S
C593 C592 1.386 . S
C593 C597 1.393 . S
C594 H586 0.950 . S
C594 C592 1.391 . S
C594 C595 1.400 . S
C595 C594 1.400 . S
C595 C596 1.398 . S
C595 C601 1.491 . S
C596 H587 0.950 . S
C596 C595 1.398 . S
C596 C597 1.391 . S
C597 H585 0.950 . S
C597 C593 1.393 . S
C597 C596 1.391 . S
C598 H588 0.950 . S
C598 C599 1.386 1_455 S
C598 C600 1.391 1_455 S
C599 C598 1.386 1_655 S
C599 C603 1.396 . S
C600 H589 0.950 1_655 S
C600 C598 1.391 1_655 S
C600 C601 1.400 . S
C601 C595 1.491 . S
C601 C600 1.400 . S
C601 C602 1.398 . S
C602 H590 0.950 . S
C602 C601 1.398 . S
C602 C603 1.391 . S
C603 H591 0.950 . S
C603 C599 1.396 . S
C603 C602 1.391 . S
H604 C612 0.950 . S
H605 C617 0.950 . S
H606 C614 0.950 . S
H607 C616 0.950 . S
H608 C618 0.950 . S
H609 C620 0.950 . S
H610 C622 0.950 . S
H611 C623 0.950 . S
C612 H604 0.950 . S
C612 C613 1.388 1_545 S
C612 C614 1.391 1_545 S
C613 C612 1.388 1_565 S
C613 C617 1.395 . S
C614 H606 0.950 . S
C614 C612 1.391 1_565 S
C614 C615 1.400 . S
C615 C614 1.400 . S
C615 C616 1.398 . S
C615 C621 1.491 . S
C616 H607 0.950 . S
C616 C615 1.398 . S
C616 C617 1.391 . S
C617 H605 0.950 . S
C617 C613 1.395 . S
C617 C616 1.391 . S
C618 H608 0.950 . S
C618 C619 1.386 . S
C618 C620 1.391 . S
C619 C618 1.386 . S
C619 C623 1.393 . S
C620 H609 0.950 . S
C620 C618 1.391 . S
C620 C621 1.400 . S
C621 C615 1.491 . S
C621 C620 1.400 . S
C621 C622 1.398 . S
C622 H610 0.950 . S
C622 C621 1.398 . S
C622 C623 1.391 . S
C623 H611 0.950 . S
C623 C619 1.393 . S
C623 C622 1.391 . S
H624 C632 0.950 . S
H625 C637 0.950 . S
H626 C634 0.950 . S
H627 C636 0.950 . S
H628 C638 0.950 . S
H629 C640 0.950 . S
H630 C642 0.950 . S
H631 C643 0.950 . S
C632 H624 0.950 . S
C632 C633 1.386 . S
C632 C634 1.391 . S
C633 C632 1.386 . S
C633 C637 1.393 . S
C634 H626 0.950 . S
C634 C632 1.391 . S
C634 C635 1.400 . S
C635 C634 1.400 . S
C635 C636 1.398 . S
C635 C641 1.491 . S
C636 H627 0.950 . S
C636 C635 1.398 . S
C636 C637 1.391 . S
C637 H625 0.950 . S
C637 C633 1.393 . S
C637 C636 1.391 . S
C638 H628 0.950 . S
C638 C639 1.386 . S
C638 C640 1.391 . S
C639 C638 1.386 . S
C639 C643 1.393 . S
C640 H629 0.950 . S
C640 C638 1.391 . S
C640 C641 1.400 . S
C641 C635 1.491 . S
C641 C640 1.400 . S
C641 C642 1.398 . S
C642 H630 0.950 . S
C642 C641 1.398 . S
C642 C643 1.391 . S
C643 H631 0.950 . S
C643 C639 1.393 . S
C643 C642 1.391 . S
H644 C652 0.950 . S
H645 C657 0.950 . S
H646 C654 0.950 . S
H647 C656 0.950 . S
H648 C658 0.950 . S
H649 C660 0.950 . S
H650 C662 0.950 . S
H651 C663 0.950 . S
C652 H644 0.950 . S
C652 C653 1.386 . S
C652 C654 1.391 . S
C653 C652 1.386 . S
C653 C657 1.393 1_655 S
C654 H646 0.950 . S
C654 C652 1.391 . S
C654 C655 1.400 1_655 S
C655 C654 1.400 1_455 S
C655 C656 1.398 . S
C655 C661 1.491 . S
C656 H647 0.950 . S
C656 C655 1.398 . S
C656 C657 1.391 . S
C657 H645 0.950 . S
C657 C653 1.393 1_455 S
C657 C656 1.391 . S
C658 H648 0.950 . S
C658 C659 1.386 . S
C658 C660 1.391 . S
C659 C658 1.386 . S
C659 C663 1.393 . S
C660 H649 0.950 . S
C660 C658 1.391 . S
C660 C661 1.400 . S
C661 C655 1.491 . S
C661 C660 1.400 . S
C661 C662 1.398 . S
C662 H650 0.950 . S
C662 C661 1.398 . S
C662 C663 1.391 . S
C663 H651 0.950 . S
C663 C659 1.393 . S
C663 C662 1.391 . S
H664 C672 0.950 . S
H665 C677 0.950 . S
H666 C674 0.950 . S
H667 C676 0.950 . S
H668 C678 0.950 . S
H669 C680 0.950 . S
H670 C682 0.950 . S
H671 C683 0.950 . S
C672 H664 0.950 . S
C672 C673 1.386 1_545 S
C672 C674 1.391 . S
C673 C672 1.386 1_565 S
C673 C677 1.393 . S
C674 H666 0.950 . S
C674 C672 1.391 . S
C674 C675 1.400 . S
C675 C674 1.400 . S
C675 C676 1.398 1_545 S
C675 C681 1.491 . S
C676 H667 0.950 . S
C676 C675 1.398 1_565 S
C676 C677 1.391 . S
C677 H665 0.950 . S
C677 C673 1.393 . S
C677 C676 1.391 . S
C678 H668 0.950 . S
C678 C679 1.386 . S
C678 C680 1.391 . S
C679 C678 1.386 . S
C679 C683 1.393 . S
C680 H669 0.950 . S
C680 C678 1.391 . S
C680 C681 1.400 . S
C681 C675 1.491 . S
C681 C680 1.400 . S
C681 C682 1.398 . S
C682 H670 0.950 . S
C682 C681 1.398 . S
C682 C683 1.391 . S
C683 H671 0.950 . S
C683 C679 1.393 . S
C683 C682 1.391 . S
H684 C692 0.950 . S
H685 C697 0.950 . S
H686 C694 0.950 . S
H687 C696 0.950 . S
H688 C698 0.950 . S
H689 C700 0.950 . S
H690 C702 0.950 . S
H691 C703 0.950 . S
C692 H684 0.950 . S
C692 C693 1.386 . S
C692 C694 1.391 . S
C693 C692 1.386 . S
C693 C697 1.393 . S
C694 H686 0.950 . S
C694 C692 1.391 . S
C694 C695 1.400 . S
C695 C694 1.400 . S
C695 C696 1.398 . S
C695 C701 1.491 . S
C696 H687 0.950 . S
C696 C695 1.398 . S
C696 C697 1.391 . S
C697 H685 0.950 . S
C697 C693 1.393 . S
C697 C696 1.391 . S
C698 H688 0.950 . S
C698 C699 1.386 . S
C698 C700 1.391 . S
C699 C698 1.386 . S
C699 C703 1.393 . S
C700 H689 0.950 . S
C700 C698 1.391 . S
C700 C701 1.400 . S
C701 C695 1.491 . S
C701 C700 1.400 . S
C701 C702 1.398 . S
C702 H690 0.950 . S
C702 C701 1.398 . S
C702 C703 1.391 . S
C703 H691 0.950 . S
C703 C699 1.393 . S
C703 C702 1.391 . S
H704 C712 0.950 . S
H705 C717 0.950 . S
H706 C714 0.950 . S
H707 C716 0.950 . S
H708 C718 0.950 . S
H709 C720 0.950 . S
H710 C722 0.950 . S
H711 C723 0.950 . S
C712 H704 0.950 . S
C712 C713 1.393 . S
C712 C714 1.391 . S
C713 C712 1.393 . S
C713 C717 1.388 1_655 S
C714 H706 0.950 . S
C714 C712 1.391 . S
C714 C715 1.400 . S
C715 C714 1.400 . S
C715 C716 1.398 . S
C715 C721 1.491 . S
C716 H707 0.950 . S
C716 C715 1.398 . S
C716 C717 1.391 1_655 S
C717 H705 0.950 . S
C717 C713 1.388 1_455 S
C717 C716 1.391 1_455 S
C718 H708 0.950 . S
C718 C719 1.386 . S
C718 C720 1.391 . S
C719 C718 1.386 . S
C719 C723 1.393 . S
C720 H709 0.950 . S
C720 C718 1.391 . S
C720 C721 1.400 . S
C721 C715 1.491 . S
C721 C720 1.400 . S
C721 C722 1.398 . S
C722 H710 0.950 . S
C722 C721 1.398 . S
C722 C723 1.391 . S
C723 H711 0.950 . S
C723 C719 1.393 . S
C723 C722 1.391 . S
H724 C732 0.950 . S
H725 C737 0.950 . S
H726 C734 0.950 . S
H727 C736 0.950 . S
H728 C738 0.950 . S
H729 C740 0.950 . S
H730 C742 0.950 1_545 S
H731 C743 0.950 . S
C732 H724 0.950 . S
C732 C733 1.386 . S
C732 C734 1.391 . S
C733 C732 1.386 . S
C733 C737 1.393 . S
C734 H726 0.950 . S
C734 C732 1.391 . S
C734 C735 1.400 . S
C735 C734 1.400 . S
C735 C736 1.398 . S
C735 C741 1.491 . S
C736 H727 0.950 . S
C736 C735 1.398 . S
C736 C737 1.391 . S
C737 H725 0.950 . S
C737 C733 1.393 . S
C737 C736 1.391 . S
C738 H728 0.950 . S
C738 C739 1.387 1_565 S
C738 C740 1.391 . S
C739 C738 1.387 1_545 S
C739 C743 1.392 . S
C740 H729 0.950 . S
C740 C738 1.391 . S
C740 C741 1.400 . S
C741 C735 1.491 . S
C741 C740 1.400 . S
C741 C742 1.398 . S
C742 H730 0.950 1_565 S
C742 C741 1.398 . S
C742 C743 1.391 1_565 S
C743 H731 0.950 . S
C743 C739 1.392 . S
C743 C742 1.391 1_545 S
H744 C752 0.950 . S
H745 C757 0.950 . S
H746 C754 0.950 . S
H747 C756 0.950 . S
H748 C758 0.950 . S
H749 C760 0.950 . S
H750 C762 0.950 . S
H751 C763 0.950 . S
C752 H744 0.950 . S
C752 C753 1.386 . S
C752 C754 1.391 . S
C753 C752 1.386 . S
C753 C757 1.393 . S
C754 H746 0.950 . S
C754 C752 1.391 . S
C754 C755 1.400 . S
C755 C754 1.400 . S
C755 C756 1.398 . S
C755 C761 1.491 . S
C756 H747 0.950 . S
C756 C755 1.398 . S
C756 C757 1.391 . S
C757 H745 0.950 . S
C757 C753 1.393 . S
C757 C756 1.391 . S
C758 H748 0.950 . S
C758 C759 1.386 . S
C758 C760 1.391 . S
C759 C758 1.386 . S
C759 C763 1.393 . S
C760 H749 0.950 . S
C760 C758 1.391 . S
C760 C761 1.400 . S
C761 C755 1.491 . S
C761 C760 1.400 . S
C761 C762 1.398 . S
C762 H750 0.950 . S
C762 C761 1.398 . S
C762 C763 1.391 . S
C763 H751 0.950 . S
C763 C759 1.393 . S
C763 C762 1.391 . S
H764 C772 0.950 . S
H765 C777 0.950 . S
H766 C774 0.950 . S
H767 C776 0.950 . S
H768 C778 0.950 . S
H769 C780 0.950 . S
H770 C782 0.950 . S
H771 C783 0.950 . S
C772 H764 0.950 . S
C772 C773 1.386 . S
C772 C774 1.391 . S
C773 C772 1.386 . S
C773 C777 1.393 . S
C774 H766 0.950 . S
C774 C772 1.391 . S
C774 C775 1.400 . S
C775 C774 1.400 . S
C775 C776 1.398 . S
C775 C781 1.491 . S
C776 H767 0.950 . S
C776 C775 1.398 . S
C776 C777 1.391 . S
C777 H765 0.950 . S
C777 C773 1.393 . S
C777 C776 1.391 . S
C778 H768 0.950 . S
C778 C779 1.386 . S
C778 C780 1.391 . S
C779 C778 1.386 . S
C779 C783 1.393 . S
C780 H769 0.950 . S
C780 C778 1.391 . S
C780 C781 1.400 . S
C781 C775 1.491 . S
C781 C780 1.400 . S
C781 C782 1.398 . S
C782 H770 0.950 . S
C782 C781 1.398 . S
C782 C783 1.391 . S
C783 H771 0.950 . S
C783 C779 1.393 . S
C783 C782 1.391 . S
H784 C792 0.950 . S
H785 C797 0.950 . S
H786 C794 0.950 . S
H787 C796 0.950 . S
H788 C798 0.950 . S
H789 C800 0.950 . S
H790 C802 0.950 . S
H791 C803 0.950 . S
C792 H784 0.950 . S
C792 C793 1.386 . S
C792 C794 1.391 . S
C793 C792 1.386 . S
C793 C797 1.393 . S
C794 H786 0.950 . S
C794 C792 1.391 . S
C794 C795 1.400 . S
C795 C794 1.400 . S
C795 C796 1.398 . S
C795 C801 1.491 . S
C796 H787 0.950 . S
C796 C795 1.398 . S
C796 C797 1.391 . S
C797 H785 0.950 . S
C797 C793 1.393 . S
C797 C796 1.391 . S
C798 H788 0.950 . S
C798 C799 1.386 . S
C798 C800 1.391 . S
C799 C798 1.386 . S
C799 C803 1.393 . S
C800 H789 0.950 . S
C800 C798 1.391 . S
C800 C801 1.400 . S
C801 C795 1.491 . S
C801 C800 1.400 . S
C801 C802 1.398 . S
C802 H790 0.950 . S
C802 C801 1.398 . S
C802 C803 1.391 . S
C803 H791 0.950 . S
C803 C799 1.393 . S
C803 C802 1.391 . S
H804 C812 0.950 . S
H805 C817 0.950 . S
H806 C814 0.950 . S
H807 C816 0.950 . S
H808 C818 0.950 . S
H809 C820 0.950 . S
H810 C822 0.950 . S
H811 C823 0.950 . S
C812 H804 0.950 . S
C812 C813 1.386 . S
C812 C814 1.391 . S
C813 C812 1.386 . S
C813 C817 1.393 . S
C814 H806 0.950 . S
C814 C812 1.391 . S
C814 C815 1.400 . S
C815 C814 1.400 . S
C815 C816 1.398 . S
C815 C821 1.491 . S
C816 H807 0.950 . S
C816 C815 1.398 . S
C816 C817 1.391 . S
C817 H805 0.950 . S
C817 C813 1.393 . S
C817 C816 1.391 . S
C818 H808 0.950 . S
C818 C819 1.386 . S
C818 C820 1.391 . S
C819 C818 1.386 . S
C819 C823 1.393 . S
C820 H809 0.950 . S
C820 C818 1.391 . S
C820 C821 1.400 . S
C821 C815 1.491 . S
C821 C820 1.400 . S
C821 C822 1.398 . S
C822 H810 0.950 . S
C822 C821 1.398 . S
C822 C823 1.391 . S
C823 H811 0.950 . S
C823 C819 1.393 . S
C823 C822 1.391 . S
H824 C832 0.950 . S
H825 C837 0.950 . S
H826 C834 0.950 . S
H827 C836 0.950 . S
H828 C838 0.950 . S
H829 C840 0.950 . S
H830 C842 0.950 . S
H831 C843 0.950 . S
C832 H824 0.950 . S
C832 C833 1.386 . S
C832 C834 1.391 . S
C833 C832 1.386 . S
C833 C837 1.393 . S
C834 H826 0.950 . S
C834 C832 1.391 . S
C834 C835 1.400 . S
C835 C834 1.400 . S
C835 C836 1.398 . S
C835 C841 1.491 . S
C836 H827 0.950 . S
C836 C835 1.398 . S
C836 C837 1.391 . S
C837 H825 0.950 . S
C837 C833 1.393 . S
C837 C836 1.391 . S
C838 H828 0.950 . S
C838 C839 1.386 . S
C838 C840 1.391 . S
C839 C838 1.386 . S
C839 C843 1.393 . S
C840 H829 0.950 . S
C840 C838 1.391 . S
C840 C841 1.400 . S
C841 C835 1.491 . S
C841 C840 1.400 . S
C841 C842 1.398 . S
C842 H830 0.950 . S
C842 C841 1.398 . S
C842 C843 1.391 . S
C843 H831 0.950 . S
C843 C839 1.393 . S
C843 C842 1.391 . S
H844 C852 0.950 . S
H845 C857 0.950 . S
H846 C854 0.950 . S
H847 C856 0.950 . S
H848 C858 0.950 . S
H849 C860 0.950 . S
H850 C862 0.950 . S
H851 C863 0.950 . S
C852 H844 0.950 . S
C852 C853 1.386 . S
C852 C854 1.391 . S
C853 C852 1.386 . S
C853 C857 1.393 . S
C854 H846 0.950 . S
C854 C852 1.391 . S
C854 C855 1.400 . S
C855 C854 1.400 . S
C855 C856 1.398 . S
C855 C861 1.491 . S
C856 H847 0.950 . S
C856 C855 1.398 . S
C856 C857 1.391 . S
C857 H845 0.950 . S
C857 C853 1.393 . S
C857 C856 1.391 . S
C858 H848 0.950 . S
C858 C859 1.386 . S
C858 C860 1.391 . S
C859 C858 1.386 . S
C859 C863 1.393 . S
C860 H849 0.950 . S
C860 C858 1.391 . S
C860 C861 1.400 . S
C861 C855 1.491 . S
C861 C860 1.400 . S
C861 C862 1.398 . S
C862 H850 0.950 . S
C862 C861 1.398 . S
C862 C863 1.391 . S
C863 H851 0.950 . S
C863 C859 1.393 . S
C863 C862 1.391 . S
H864 C872 0.950 . S
H865 C877 0.950 . S
H866 C874 0.950 . S
H867 C876 0.950 . S
H868 C878 0.952 . S
H869 C880 0.950 . S
H870 C882 0.950 . S
H871 C883 0.950 . S
C872 H864 0.950 . S
C872 C873 1.386 1_556 S
C872 C874 1.391 . S
C873 C872 1.386 1_554 S
C873 C877 1.393 . S
C874 H866 0.950 . S
C874 C872 1.391 . S
C874 C875 1.396 1_556 S
C875 C874 1.396 1_554 S
C875 C876 1.404 . S
C875 C881 1.489 1_544 S
C876 H867 0.950 . S
C876 C875 1.404 . S
C876 C877 1.391 . S
C877 H865 0.950 . S
C877 C873 1.393 . S
C877 C876 1.391 . S
C878 H868 0.952 . S
C878 C879 1.386 1_554 S
C878 C880 1.391 . S
C879 C878 1.386 1_556 S
C879 C883 1.393 . S
C880 H869 0.950 . S
C880 C878 1.391 . S
C880 C881 1.400 1_554 S
C881 C875 1.489 1_566 S
C881 C880 1.400 1_556 S
C881 C882 1.398 . S
C882 H870 0.950 . S
C882 C881 1.398 . S
C882 C883 1.391 . S
C883 H871 0.950 . S
C883 C879 1.393 . S
C883 C882 1.391 . S
H884 C892 0.950 . S
H885 C897 0.950 . S
H886 C894 0.950 . S
H887 C896 0.950 . S
H888 C898 0.950 . S
H889 C900 0.950 . S
H890 C902 0.950 . S
H891 C903 0.950 . S
C892 H884 0.950 . S
C892 C893 1.386 . S
C892 C894 1.391 . S
C893 C892 1.386 . S
C893 C897 1.393 . S
C894 H886 0.950 . S
C894 C892 1.391 . S
C894 C895 1.400 . S
C895 C894 1.400 . S
C895 C896 1.398 . S
C895 C901 1.491 . S
C896 H887 0.950 . S
C896 C895 1.398 . S
C896 C897 1.391 . S
C897 H885 0.950 . S
C897 C893 1.393 . S
C897 C896 1.391 . S
C898 H888 0.950 . S
C898 C899 1.386 . S
C898 C900 1.391 . S
C899 C898 1.386 . S
C899 C903 1.393 . S
C900 H889 0.950 . S
C900 C898 1.391 . S
C900 C901 1.400 . S
C901 C895 1.491 . S
C901 C900 1.400 . S
C901 C902 1.398 . S
C902 H890 0.950 . S
C902 C901 1.398 . S
C902 C903 1.391 . S
C903 H891 0.950 . S
C903 C899 1.393 . S
C903 C902 1.391 . S
H904 C912 0.950 . S
H905 C917 0.950 . S
H906 C914 0.950 . S
H907 C916 0.950 . S
H908 C918 0.950 1_565 S
H909 C920 0.950 . S
H910 C922 0.950 . S
H911 C923 0.950 . S
C912 H904 0.950 . S
C912 C913 1.386 . S
C912 C914 1.391 . S
C913 C912 1.386 . S
C913 C917 1.393 . S
C914 H906 0.950 . S
C914 C912 1.391 . S
C914 C915 1.400 . S
C915 C914 1.400 . S
C915 C916 1.398 . S
C915 C921 1.491 1_455 S
C916 H907 0.950 . S
C916 C915 1.398 . S
C916 C917 1.391 . S
C917 H905 0.950 . S
C917 C913 1.393 . S
C917 C916 1.391 . S
C918 H908 0.950 1_545 S
C918 C919 1.386 . S
C918 C920 1.391 . S
C919 C918 1.386 . S
C919 C923 1.393 . S
C920 H909 0.950 . S
C920 C918 1.391 . S
C920 C921 1.400 . S
C921 C915 1.491 1_655 S
C921 C920 1.400 . S
C921 C922 1.398 . S
C922 H910 0.950 . S
C922 C921 1.398 . S
C922 C923 1.391 . S
C923 H911 0.950 . S
C923 C919 1.393 . S
C923 C922 1.391 . S
H924 C932 0.950 1_455 S
H925 C937 0.950 . S
H926 C934 0.950 . S
H927 C936 0.950 . S
H928 C938 0.950 . S
H929 C940 0.950 . S
H930 C942 0.950 . S
H931 C943 0.950 . S
C932 H924 0.950 1_655 S
C932 C933 1.386 . S
C932 C934 1.391 . S
C933 C932 1.386 . S
C933 C937 1.393 . S
C934 H926 0.950 . S
C934 C932 1.391 . S
C934 C935 1.400 . S
C935 C934 1.400 . S
C935 C936 1.398 . S
C935 C941 1.491 1_545 S
C936 H927 0.950 . S
C936 C935 1.398 . S
C936 C937 1.391 . S
C937 H925 0.950 . S
C937 C933 1.393 . S
C937 C936 1.391 . S
C938 H928 0.950 . S
C938 C939 1.386 . S
C938 C940 1.391 . S
C939 C938 1.386 . S
C939 C943 1.393 . S
C940 H929 0.950 . S
C940 C938 1.391 . S
C940 C941 1.400 . S
C941 C935 1.491 1_565 S
C941 C940 1.400 . S
C941 C942 1.398 . S
C942 H930 0.950 . S
C942 C941 1.398 . S
C942 C943 1.391 . S
C943 H931 0.950 . S
C943 C939 1.393 . S
C943 C942 1.391 . S
H944 C952 0.950 . S
H945 C957 0.950 1_455 S
H946 C954 0.950 . S
H947 C956 0.950 . S
H948 C958 0.950 . S
H949 C960 0.950 . S
H950 C962 0.950 . S
H951 C963 0.950 . S
C952 H944 0.950 . S
C952 C953 1.386 . S
C952 C954 1.391 . S
C953 C952 1.386 . S
C953 C957 1.393 . S
C954 H946 0.950 . S
C954 C952 1.391 . S
C954 C955 1.400 . S
C955 C954 1.400 . S
C955 C956 1.398 . S
C955 C961 1.491 . S
C956 H947 0.950 . S
C956 C955 1.398 . S
C956 C957 1.391 . S
C957 H945 0.950 1_655 S
C957 C953 1.393 . S
C957 C956 1.391 . S
C958 H948 0.950 . S
C958 C959 1.386 . S
C958 C960 1.391 . S
C959 C958 1.386 . S
C959 C963 1.393 . S
C960 H949 0.950 . S
C960 C958 1.391 . S
C960 C961 1.400 . S
C961 C955 1.491 . S
C961 C960 1.400 . S
C961 C962 1.398 . S
C962 H950 0.950 . S
C962 C961 1.398 . S
C962 C963 1.391 . S
C963 H951 0.950 . S
C963 C959 1.393 . S
C963 C962 1.391 . S
H964 C972 0.950 . S
H965 C977 0.950 . S
H966 C974 0.958 . S
H967 C976 0.950 . S
H968 C978 0.950 . S
H969 C980 0.950 . S
H970 C982 0.950 . S
H971 C983 0.950 . S
C972 H964 0.950 . S
C972 C973 1.386 1_545 S
C972 C974 1.391 1_545 S
C973 C972 1.386 1_565 S
C973 C977 1.393 . S
C974 H966 0.958 . S
C974 C972 1.391 1_565 S
C974 C975 1.400 . S
C975 C974 1.400 . S
C975 C976 1.398 . S
C975 C981 1.491 1_455 S
C976 H967 0.950 . S
C976 C975 1.398 . S
C976 C977 1.391 . S
C977 H965 0.950 . S
C977 C973 1.393 . S
C977 C976 1.391 . S
C978 H968 0.950 . S
C978 C979 1.386 . S
C978 C980 1.391 . S
C979 C978 1.386 . S
C979 C983 1.393 . S
C980 H969 0.950 . S
C980 C978 1.391 . S
C980 C981 1.400 . S
C981 C975 1.491 1_655 S
C981 C980 1.400 . S
C981 C982 1.398 . S
C982 H970 0.950 . S
C982 C981 1.398 . S
C982 C983 1.391 . S
C983 H971 0.950 . S
C983 C979 1.393 . S
C983 C982 1.391 . S
C273 C164 1.790 . S
C279 C10 1.835 . S
C293 C186 1.787 . S
C299 C30 1.833 . S
C313 C216 1.787 . S
C319 C54 1.833 . S
C333 C238 1.785 . S
C339 C74 1.832 . S
C353 C252 1.788 . S
C359 C96 1.833 . S
C373 C142 1.787 . S
C379 C120 1.833 . S
C393 C150 1.829 . S
C399 C118 1.778 . S
C413 C172 1.827 . S
C419 C8 1.775 1_556 S
C433 C194 1.827 . S
C439 C40 1.774 . S
C453 C206 1.833 . S
C459 C52 1.786 . S
C473 C228 1.830 . S
C479 C84 1.780 . S
C493 C260 1.827 . S
C499 C106 1.774 . S
C513 C18 1.437 . S
C519 C131 1.434 . S
C533 C32 1.428 . S
C539 C21 1.436 . S
C553 C29 1.444 . S
C559 C62 1.416 1_545 S
C573 C65 1.437 . S
C579 C76 1.422 . S
C593 C73 1.442 . S
C599 C98 1.417 1_655 S
C613 C128 1.420 1_565 S
C619 C95 1.445 . S
C633 C140 1.433 . S
C639 C169 1.428 . S
C653 C162 1.434 . S
C659 C191 1.438 . S
C673 C184 1.429 . S
C679 C205 1.430 . S
C693 C208 1.439 . S
C699 C227 1.429 . S
C713 C230 1.417 1_655 S
C719 C257 1.442 . S
C733 C147 1.443 . S
C739 C250 1.427 . S
C753 C183 1.144 . S
C759 C15 1.133 . S
C773 C43 1.140 . S
C779 C219 1.146 . S
C793 C59 1.140 . S
C799 C241 1.131 . S
C813 C87 1.145 . S
C819 C249 1.142 . S
C833 C109 1.145 . S
C839 C139 1.143 . S
C853 C161 1.144 . S
C859 C125 1.133 . S
C873 C7 0.342 . S
C879 C175 0.357 . S
C893 C197 0.328 . S
C899 C37 0.344 . S
C913 C213 0.362 . S
C919 C51 0.349 . S
C933 C235 0.324 . S
C939 C81 0.340 . S
C953 C103 0.354 . S
C959 C263 0.339 . S
C973 C117 0.302 . S
C979 C153 0.307 . S
