# Generated by pormake.
# Topology uli, (4)-cn, num edge types: 1
# Building blocks:
#     Node 0, Type 0, BuildingBlock: GALJAG_clean_sbu_0, # of connection points: 4
#     Node 1, Type 0, BuildingBlock: GALJAG_clean_sbu_0, # of connection points: 4
#     Node 2, Type 0, BuildingBlock: GALJAG_clean_sbu_0, # of connection points: 4
#     Node 3, Type 0, BuildingBlock: GALJAG_clean_sbu_0, # of connection points: 4
#     Node 4, Type 0, BuildingBlock: GALJAG_clean_sbu_0, # of connection points: 4
#     Node 5, Type 0, BuildingBlock: GALJAG_clean_sbu_0, # of connection points: 4
#     Node 6, Type 0, BuildingBlock: GALJAG_clean_sbu_0, # of connection points: 4
#     Node 7, Type 0, BuildingBlock: GALJAG_clean_sbu_0, # of connection points: 4
#     Node 8, Type 0, BuildingBlock: GALJAG_clean_sbu_0, # of connection points: 4
#     Node 9, Type 0, BuildingBlock: GALJAG_clean_sbu_0, # of connection points: 4
#     Node 10, Type 0, BuildingBlock: GALJAG_clean_sbu_0, # of connection points: 4
#     Node 11, Type 0, BuildingBlock: GALJAG_clean_sbu_0, # of connection points: 4
#     Node 12, Type 0, BuildingBlock: GALJAG_clean_sbu_0, # of connection points: 4
#     Node 13, Type 0, BuildingBlock: GALJAG_clean_sbu_0, # of connection points: 4
#     Node 14, Type 0, BuildingBlock: GALJAG_clean_sbu_0, # of connection points: 4
#     Node 15, Type 0, BuildingBlock: GALJAG_clean_sbu_0, # of connection points: 4
#     Node 16, Type 0, BuildingBlock: GALJAG_clean_sbu_0, # of connection points: 4
#     Node 17, Type 0, BuildingBlock: GALJAG_clean_sbu_0, # of connection points: 4
#     Node 18, Type 0, BuildingBlock: GALJAG_clean_sbu_0, # of connection points: 4
#     Node 19, Type 0, BuildingBlock: GALJAG_clean_sbu_0, # of connection points: 4
#     Node 20, Type 0, BuildingBlock: GALJAG_clean_sbu_0, # of connection points: 4
#     Node 21, Type 0, BuildingBlock: GALJAG_clean_sbu_0, # of connection points: 4
#     Node 22, Type 0, BuildingBlock: GALJAG_clean_sbu_0, # of connection points: 4
#     Node 23, Type 0, BuildingBlock: GALJAG_clean_sbu_0, # of connection points: 4
#     Node 24, Type 0, BuildingBlock: GALJAG_clean_sbu_0, # of connection points: 4
#     Node 25, Type 0, BuildingBlock: GALJAG_clean_sbu_0, # of connection points: 4
#     Node 26, Type 0, BuildingBlock: GALJAG_clean_sbu_0, # of connection points: 4
#     Node 27, Type 0, BuildingBlock: GALJAG_clean_sbu_0, # of connection points: 4
#     Node 28, Type 0, BuildingBlock: GALJAG_clean_sbu_0, # of connection points: 4
#     Node 29, Type 0, BuildingBlock: GALJAG_clean_sbu_0, # of connection points: 4
#     Node 30, Type 0, BuildingBlock: GALJAG_clean_sbu_0, # of connection points: 4
#     Node 31, Type 0, BuildingBlock: GALJAG_clean_sbu_0, # of connection points: 4
#     Node 32, Type 0, BuildingBlock: GALJAG_clean_sbu_0, # of connection points: 4
#     Node 33, Type 0, BuildingBlock: GALJAG_clean_sbu_0, # of connection points: 4
#     Node 34, Type 0, BuildingBlock: GALJAG_clean_sbu_0, # of connection points: 4
#     Node 35, Type 0, BuildingBlock: GALJAG_clean_sbu_0, # of connection points: 4
#     Node 36, Type 0, BuildingBlock: GALJAG_clean_sbu_0, # of connection points: 4
#     Node 37, Type 0, BuildingBlock: GALJAG_clean_sbu_0, # of connection points: 4
#     Node 38, Type 0, BuildingBlock: GALJAG_clean_sbu_0, # of connection points: 4
#     Node 39, Type 0, BuildingBlock: GALJAG_clean_sbu_0, # of connection points: 4
#     Node 40, Type 0, BuildingBlock: GALJAG_clean_sbu_0, # of connection points: 4
#     Node 41, Type 0, BuildingBlock: GALJAG_clean_sbu_0, # of connection points: 4
#     Node 42, Type 0, BuildingBlock: GALJAG_clean_sbu_0, # of connection points: 4
#     Node 43, Type 0, BuildingBlock: GALJAG_clean_sbu_0, # of connection points: 4
#     Node 44, Type 0, BuildingBlock: GALJAG_clean_sbu_0, # of connection points: 4
#     Node 45, Type 0, BuildingBlock: GALJAG_clean_sbu_0, # of connection points: 4
#     Node 46, Type 0, BuildingBlock: GALJAG_clean_sbu_0, # of connection points: 4
#     Node 47, Type 0, BuildingBlock: GALJAG_clean_sbu_0, # of connection points: 4
#     Edge 48, Type (0, 0), BuildingBlock: KIFKEQ_clean_linker_1, # of connection points: 2
#     Edge 49, Type (0, 0), BuildingBlock: KIFKEQ_clean_linker_1, # of connection points: 2
#     Edge 50, Type (0, 0), BuildingBlock: KIFKEQ_clean_linker_1, # of connection points: 2
#     Edge 51, Type (0, 0), BuildingBlock: KIFKEQ_clean_linker_1, # of connection points: 2
#     Edge 52, Type (0, 0), BuildingBlock: KIFKEQ_clean_linker_1, # of connection points: 2
#     Edge 53, Type (0, 0), BuildingBlock: KIFKEQ_clean_linker_1, # of connection points: 2
#     Edge 54, Type (0, 0), BuildingBlock: KIFKEQ_clean_linker_1, # of connection points: 2
#     Edge 55, Type (0, 0), BuildingBlock: KIFKEQ_clean_linker_1, # of connection points: 2
#     Edge 56, Type (0, 0), BuildingBlock: KIFKEQ_clean_linker_1, # of connection points: 2
#     Edge 57, Type (0, 0), BuildingBlock: KIFKEQ_clean_linker_1, # of connection points: 2
#     Edge 58, Type (0, 0), BuildingBlock: KIFKEQ_clean_linker_1, # of connection points: 2
#     Edge 59, Type (0, 0), BuildingBlock: KIFKEQ_clean_linker_1, # of connection points: 2
#     Edge 60, Type (0, 0), BuildingBlock: KIFKEQ_clean_linker_1, # of connection points: 2
#     Edge 61, Type (0, 0), BuildingBlock: KIFKEQ_clean_linker_1, # of connection points: 2
#     Edge 62, Type (0, 0), BuildingBlock: KIFKEQ_clean_linker_1, # of connection points: 2
#     Edge 63, Type (0, 0), BuildingBlock: KIFKEQ_clean_linker_1, # of connection points: 2
#     Edge 64, Type (0, 0), BuildingBlock: KIFKEQ_clean_linker_1, # of connection points: 2
#     Edge 65, Type (0, 0), BuildingBlock: KIFKEQ_clean_linker_1, # of connection points: 2
#     Edge 66, Type (0, 0), BuildingBlock: KIFKEQ_clean_linker_1, # of connection points: 2
#     Edge 67, Type (0, 0), BuildingBlock: KIFKEQ_clean_linker_1, # of connection points: 2
#     Edge 68, Type (0, 0), BuildingBlock: KIFKEQ_clean_linker_1, # of connection points: 2
#     Edge 69, Type (0, 0), BuildingBlock: KIFKEQ_clean_linker_1, # of connection points: 2
#     Edge 70, Type (0, 0), BuildingBlock: KIFKEQ_clean_linker_1, # of connection points: 2
#     Edge 71, Type (0, 0), BuildingBlock: KIFKEQ_clean_linker_1, # of connection points: 2
#     Edge 72, Type (0, 0), BuildingBlock: KIFKEQ_clean_linker_1, # of connection points: 2
#     Edge 73, Type (0, 0), BuildingBlock: KIFKEQ_clean_linker_1, # of connection points: 2
#     Edge 74, Type (0, 0), BuildingBlock: KIFKEQ_clean_linker_1, # of connection points: 2
#     Edge 75, Type (0, 0), BuildingBlock: KIFKEQ_clean_linker_1, # of connection points: 2
#     Edge 76, Type (0, 0), BuildingBlock: KIFKEQ_clean_linker_1, # of connection points: 2
#     Edge 77, Type (0, 0), BuildingBlock: KIFKEQ_clean_linker_1, # of connection points: 2
#     Edge 78, Type (0, 0), BuildingBlock: KIFKEQ_clean_linker_1, # of connection points: 2
#     Edge 79, Type (0, 0), BuildingBlock: KIFKEQ_clean_linker_1, # of connection points: 2
#     Edge 80, Type (0, 0), BuildingBlock: KIFKEQ_clean_linker_1, # of connection points: 2
#     Edge 81, Type (0, 0), BuildingBlock: KIFKEQ_clean_linker_1, # of connection points: 2
#     Edge 82, Type (0, 0), BuildingBlock: KIFKEQ_clean_linker_1, # of connection points: 2
#     Edge 83, Type (0, 0), BuildingBlock: KIFKEQ_clean_linker_1, # of connection points: 2
#     Edge 84, Type (0, 0), BuildingBlock: KIFKEQ_clean_linker_1, # of connection points: 2
#     Edge 85, Type (0, 0), BuildingBlock: KIFKEQ_clean_linker_1, # of connection points: 2
#     Edge 86, Type (0, 0), BuildingBlock: KIFKEQ_clean_linker_1, # of connection points: 2
#     Edge 87, Type (0, 0), BuildingBlock: KIFKEQ_clean_linker_1, # of connection points: 2
#     Edge 88, Type (0, 0), BuildingBlock: KIFKEQ_clean_linker_1, # of connection points: 2
#     Edge 89, Type (0, 0), BuildingBlock: KIFKEQ_clean_linker_1, # of connection points: 2
#     Edge 90, Type (0, 0), BuildingBlock: KIFKEQ_clean_linker_1, # of connection points: 2
#     Edge 91, Type (0, 0), BuildingBlock: KIFKEQ_clean_linker_1, # of connection points: 2
#     Edge 92, Type (0, 0), BuildingBlock: KIFKEQ_clean_linker_1, # of connection points: 2
#     Edge 93, Type (0, 0), BuildingBlock: KIFKEQ_clean_linker_1, # of connection points: 2
#     Edge 94, Type (0, 0), BuildingBlock: KIFKEQ_clean_linker_1, # of connection points: 2
#     Edge 95, Type (0, 0), BuildingBlock: KIFKEQ_clean_linker_1, # of connection points: 2
#     Edge 96, Type (0, 0), BuildingBlock: KIFKEQ_clean_linker_1, # of connection points: 2
#     Edge 97, Type (0, 0), BuildingBlock: KIFKEQ_clean_linker_1, # of connection points: 2
#     Edge 98, Type (0, 0), BuildingBlock: KIFKEQ_clean_linker_1, # of connection points: 2
#     Edge 99, Type (0, 0), BuildingBlock: KIFKEQ_clean_linker_1, # of connection points: 2
#     Edge 100, Type (0, 0), BuildingBlock: KIFKEQ_clean_linker_1, # of connection points: 2
#     Edge 101, Type (0, 0), BuildingBlock: KIFKEQ_clean_linker_1, # of connection points: 2
#     Edge 102, Type (0, 0), BuildingBlock: KIFKEQ_clean_linker_1, # of connection points: 2
#     Edge 103, Type (0, 0), BuildingBlock: KIFKEQ_clean_linker_1, # of connection points: 2
#     Edge 104, Type (0, 0), BuildingBlock: KIFKEQ_clean_linker_1, # of connection points: 2
#     Edge 105, Type (0, 0), BuildingBlock: KIFKEQ_clean_linker_1, # of connection points: 2
#     Edge 106, Type (0, 0), BuildingBlock: KIFKEQ_clean_linker_1, # of connection points: 2
#     Edge 107, Type (0, 0), BuildingBlock: KIFKEQ_clean_linker_1, # of connection points: 2
#     Edge 108, Type (0, 0), BuildingBlock: KIFKEQ_clean_linker_1, # of connection points: 2
#     Edge 109, Type (0, 0), BuildingBlock: KIFKEQ_clean_linker_1, # of connection points: 2
#     Edge 110, Type (0, 0), BuildingBlock: KIFKEQ_clean_linker_1, # of connection points: 2
#     Edge 111, Type (0, 0), BuildingBlock: KIFKEQ_clean_linker_1, # of connection points: 2
#     Edge 112, Type (0, 0), BuildingBlock: KIFKEQ_clean_linker_1, # of connection points: 2
#     Edge 113, Type (0, 0), BuildingBlock: KIFKEQ_clean_linker_1, # of connection points: 2
#     Edge 114, Type (0, 0), BuildingBlock: KIFKEQ_clean_linker_1, # of connection points: 2
#     Edge 115, Type (0, 0), BuildingBlock: KIFKEQ_clean_linker_1, # of connection points: 2
#     Edge 116, Type (0, 0), BuildingBlock: KIFKEQ_clean_linker_1, # of connection points: 2
#     Edge 117, Type (0, 0), BuildingBlock: KIFKEQ_clean_linker_1, # of connection points: 2
#     Edge 118, Type (0, 0), BuildingBlock: KIFKEQ_clean_linker_1, # of connection points: 2
#     Edge 119, Type (0, 0), BuildingBlock: KIFKEQ_clean_linker_1, # of connection points: 2
#     Edge 120, Type (0, 0), BuildingBlock: KIFKEQ_clean_linker_1, # of connection points: 2
#     Edge 121, Type (0, 0), BuildingBlock: KIFKEQ_clean_linker_1, # of connection points: 2
#     Edge 122, Type (0, 0), BuildingBlock: KIFKEQ_clean_linker_1, # of connection points: 2
#     Edge 123, Type (0, 0), BuildingBlock: KIFKEQ_clean_linker_1, # of connection points: 2
#     Edge 124, Type (0, 0), BuildingBlock: KIFKEQ_clean_linker_1, # of connection points: 2
#     Edge 125, Type (0, 0), BuildingBlock: KIFKEQ_clean_linker_1, # of connection points: 2
#     Edge 126, Type (0, 0), BuildingBlock: KIFKEQ_clean_linker_1, # of connection points: 2
#     Edge 127, Type (0, 0), BuildingBlock: KIFKEQ_clean_linker_1, # of connection points: 2
#     Edge 128, Type (0, 0), BuildingBlock: KIFKEQ_clean_linker_1, # of connection points: 2
#     Edge 129, Type (0, 0), BuildingBlock: KIFKEQ_clean_linker_1, # of connection points: 2
#     Edge 130, Type (0, 0), BuildingBlock: KIFKEQ_clean_linker_1, # of connection points: 2
#     Edge 131, Type (0, 0), BuildingBlock: KIFKEQ_clean_linker_1, # of connection points: 2
#     Edge 132, Type (0, 0), BuildingBlock: KIFKEQ_clean_linker_1, # of connection points: 2
#     Edge 133, Type (0, 0), BuildingBlock: KIFKEQ_clean_linker_1, # of connection points: 2
#     Edge 134, Type (0, 0), BuildingBlock: KIFKEQ_clean_linker_1, # of connection points: 2
#     Edge 135, Type (0, 0), BuildingBlock: KIFKEQ_clean_linker_1, # of connection points: 2
#     Edge 136, Type (0, 0), BuildingBlock: KIFKEQ_clean_linker_1, # of connection points: 2
#     Edge 137, Type (0, 0), BuildingBlock: KIFKEQ_clean_linker_1, # of connection points: 2
#     Edge 138, Type (0, 0), BuildingBlock: KIFKEQ_clean_linker_1, # of connection points: 2
#     Edge 139, Type (0, 0), BuildingBlock: KIFKEQ_clean_linker_1, # of connection points: 2
#     Edge 140, Type (0, 0), BuildingBlock: KIFKEQ_clean_linker_1, # of connection points: 2
#     Edge 141, Type (0, 0), BuildingBlock: KIFKEQ_clean_linker_1, # of connection points: 2
#     Edge 142, Type (0, 0), BuildingBlock: KIFKEQ_clean_linker_1, # of connection points: 2
#     Edge 143, Type (0, 0), BuildingBlock: KIFKEQ_clean_linker_1, # of connection points: 2
# Relax obj value: 0.561
# Max RMSD: 0.175
# Mean RMSD: 0.175
data_MOF--net-uli--node1-GALJAG_clean_sbu_0--edge1-KIFKEQ_clean_linker_1
_symmetry_space_group_name_H-M    P1
_symmetry_Int_Tables_number       1
_symmetry_cell_setting            triclinic
loop_
_symmetry_equiv_pos_as_xyz
'x, y, z'
_cell_length_a     67.576658
_cell_length_b     67.610559
_cell_length_c     67.559435
_cell_angle_alpha  90.014921
_cell_angle_beta   89.982007
_cell_angle_gamma 90.018001
loop_
_atom_site_label
_atom_site_type_symbol
_atom_site_fract_x
_atom_site_fract_y
_atom_site_fract_z
_atom_type_partial_charge
In0 In 0.08662 0.26916 0.23578 0.0
O1 O 0.0863 0.29498 0.25712 0.0
O2 O 0.07931 0.30072 0.22691 0.0
C3 C 0.09908 0.23902 0.25851 0.0
C4 C 0.05063 0.25364 0.23078 0.0
C5 C 0.1181 0.27138 0.21165 0.0
O6 O 0.09895 0.25662 0.26492 0.0
O7 O 0.09312 0.23699 0.24098 0.0
O8 O 0.10074 0.26912 0.20498 0.0
O9 O 0.11929 0.27277 0.23022 0.0
C10 C 0.08228 0.30771 0.24401 0.0
O11 O 0.06369 0.2527 0.21742 0.0
O12 O 0.05521 0.26408 0.24559 0.0
In13 In 0.72391 0.07899 0.21921 0.0
O14 O 0.69908 0.0822 0.24123 0.0
O15 O 0.69124 0.07958 0.21071 0.0
C16 C 0.75472 0.08538 0.24377 0.0
C17 C 0.7301 0.04016 0.21417 0.0
C18 C 0.72847 0.10966 0.19432 0.0
O19 O 0.73724 0.08993 0.24857 0.0
O20 O 0.75639 0.07776 0.22688 0.0
O21 O 0.72967 0.09196 0.18835 0.0
O22 O 0.72454 0.11165 0.21243 0.0
C23 C 0.68547 0.08198 0.22839 0.0
O24 O 0.73697 0.05283 0.20227 0.0
O25 O 0.71877 0.04706 0.22729 0.0
In26 In 0.90027 0.71711 0.20426 0.0
O27 O 0.91908 0.74391 0.19665 0.0
O28 O 0.93344 0.71891 0.20922 0.0
C29 C 0.87777 0.72028 0.17158 0.0
C30 C 0.90383 0.6777 0.20799 0.0
C31 C 0.8811 0.73665 0.23355 0.0
O32 O 0.89357 0.73009 0.17366 0.0
O33 O 0.87376 0.70877 0.18567 0.0
O34 O 0.87269 0.73082 0.21801 0.0
O35 O 0.89898 0.73168 0.23493 0.0
C36 C 0.93482 0.73667 0.20359 0.0
O37 O 0.89795 0.6887 0.22192 0.0
O38 O 0.90926 0.6868 0.19259 0.0
In39 In 0.2484 0.91521 0.18723 0.0
O40 O 0.22806 0.94042 0.17779 0.0
O41 O 0.25681 0.94783 0.18748 0.0
C42 C 0.25044 0.88631 0.15984 0.0
C43 C 0.28441 0.91273 0.20338 0.0
C44 C 0.21811 0.90472 0.21099 0.0
O45 O 0.24739 0.9041 0.15493 0.0
O46 O 0.25263 0.88352 0.17811 0.0
O47 O 0.23532 0.90773 0.2176 0.0
O48 O 0.21637 0.90677 0.19254 0.0
C49 C 0.23995 0.95394 0.18248 0.0
O50 O 0.26867 0.91173 0.21348 0.0
O51 O 0.28196 0.9157 0.18502 0.0
In52 In 0.08902 0.72463 0.76045 0.0
O53 O 0.06362 0.73812 0.77795 0.0
O54 O 0.05912 0.73132 0.74743 0.0
C55 C 0.11653 0.71647 0.78795 0.0
C56 C 0.08415 0.68831 0.74537 0.0
C57 C 0.10467 0.75741 0.7442 0.0
O58 O 0.09908 0.72134 0.79268 0.0
O59 O 0.1199 0.71588 0.76962 0.0
O60 O 0.10733 0.74055 0.73657 0.0
O61 O 0.09457 0.7575 0.75983 0.0
C62 C 0.05238 0.73915 0.76301 0.0
O63 O 0.08965 0.70289 0.735 0.0
O64 O 0.08007 0.69237 0.76318 0.0
In65 In 0.28182 0.09697 0.78927 0.0
O66 O 0.30255 0.09061 0.76341 0.0
O67 O 0.31519 0.10025 0.79059 0.0
C68 C 0.25257 0.10629 0.76354 0.0
C69 C 0.27324 0.06035 0.80174 0.0
C70 C 0.28283 0.12595 0.81673 0.0
O71 O 0.2693 0.11452 0.76316 0.0
O72 O 0.2507 0.09319 0.77664 0.0
O73 O 0.28445 0.10795 0.82136 0.0
O74 O 0.28041 0.12911 0.79854 0.0
C75 C 0.31802 0.09531 0.7728 0.0
O76 O 0.26279 0.0751 0.80639 0.0
O77 O 0.28841 0.06429 0.79157 0.0
In78 In 0.90777 0.26403 0.77908 0.0
O79 O 0.90391 0.28505 0.75331 0.0
O80 O 0.9118 0.29721 0.78143 0.0
C81 C 0.89768 0.22957 0.76176 0.0
C82 C 0.94656 0.25829 0.78456 0.0
C83 C 0.8773 0.27054 0.80383 0.0
O84 O 0.90209 0.23101 0.77981 0.0
O85 O 0.89848 0.24561 0.75221 0.0
O86 O 0.89464 0.26757 0.81028 0.0
O87 O 0.87558 0.2699 0.78527 0.0
C88 C 0.90757 0.30037 0.76346 0.0
O89 O 0.93411 0.25307 0.79752 0.0
O90 O 0.9394 0.26655 0.76949 0.0
In91 In 0.71333 0.90487 0.79514 0.0
O92 O 0.7212 0.93214 0.81355 0.0
O93 O 0.70112 0.93543 0.78965 0.0
C94 C 0.71827 0.87448 0.82023 0.0
C95 C 0.67806 0.89458 0.78042 0.0
C96 C 0.74688 0.90369 0.77349 0.0
O97 O 0.71366 0.89155 0.82637 0.0
O98 O 0.72039 0.87303 0.80175 0.0
O99 O 0.73025 0.89906 0.76636 0.0
O100 O 0.74648 0.90897 0.79136 0.0
C101 C 0.71102 0.94373 0.80306 0.0
O102 O 0.69227 0.90006 0.76955 0.0
O103 O 0.68148 0.89489 0.79882 0.0
In104 In 0.20922 0.09679 0.2891 0.0
O105 O 0.23439 0.09573 0.31121 0.0
O106 O 0.20524 0.09096 0.32211 0.0
C107 C 0.23052 0.11019 0.25808 0.0
C108 C 0.20368 0.06036 0.27453 0.0
C109 C 0.18201 0.12548 0.29372 0.0
O110 O 0.23542 0.11387 0.27575 0.0
O111 O 0.21498 0.10012 0.25621 0.0
O112 O 0.17725 0.1074 0.29324 0.0
O113 O 0.20024 0.12884 0.29182 0.0
C114 C 0.22342 0.09276 0.32605 0.0
O115 O 0.19086 0.07383 0.27263 0.0
O116 O 0.21826 0.06487 0.28531 0.0
In117 In 0.90749 0.17733 0.27457 0.0
O118 O 0.93113 0.16125 0.25675 0.0
O119 O 0.93927 0.17278 0.28463 0.0
C120 C 0.87639 0.1532 0.28013 0.0
C121 C 0.90415 0.20032 0.30683 0.0
C122 C 0.90157 0.19692 0.24033 0.0
O123 O 0.89395 0.1467 0.28025 0.0
O124 O 0.87482 0.17152 0.27712 0.0
O125 O 0.89577 0.17941 0.24314 0.0
O126 O 0.90996 0.20483 0.25503 0.0
C127 C 0.94493 0.16493 0.26869 0.0
O128 O 0.90639 0.20735 0.28966 0.0
O129 O 0.90423 0.18166 0.30778 0.0
In130 In 0.79009 0.88717 0.28626 0.0
O131 O 0.76973 0.88169 0.31227 0.0
O132 O 0.79966 0.89015 0.31819 0.0
C133 C 0.76924 0.87984 0.25328 0.0
C134 C 0.79202 0.92586 0.27894 0.0
C135 C 0.81371 0.8554 0.28507 0.0
O136 O 0.76153 0.87788 0.27028 0.0
O137 O 0.78711 0.88515 0.25327 0.0
O138 O 0.82075 0.87275 0.28369 0.0
O139 O 0.79516 0.85446 0.28692 0.0
C140 C 0.78308 0.88479 0.32509 0.0
O141 O 0.80605 0.91437 0.27418 0.0
O142 O 0.77822 0.91798 0.28874 0.0
In143 In 0.08089 0.8026 0.2772 0.0
O144 O 0.05534 0.8181 0.26165 0.0
O145 O 0.04858 0.79737 0.28428 0.0
C146 C 0.10849 0.83087 0.27263 0.0
C147 C 0.085 0.79067 0.31487 0.0
C148 C 0.08941 0.77662 0.24792 0.0
O149 O 0.09042 0.83515 0.27495 0.0
O150 O 0.11232 0.81265 0.27264 0.0
O151 O 0.09762 0.77586 0.26466 0.0
O152 O 0.07694 0.79028 0.24605 0.0
C153 C 0.04215 0.80844 0.2707 0.0
O154 O 0.08031 0.77903 0.30102 0.0
O155 O 0.08674 0.80859 0.30986 0.0
In156 In 0.22132 0.89597 0.7423 0.0
O157 O 0.21068 0.92572 0.75446 0.0
O158 O 0.24094 0.91731 0.75824 0.0
C159 C 0.189 0.875 0.73271 0.0
C160 C 0.23564 0.90466 0.70629 0.0
C161 C 0.23442 0.87157 0.77068 0.0
O162 O 0.18798 0.89002 0.74385 0.0
O163 O 0.20607 0.87098 0.72638 0.0
O164 O 0.24223 0.87189 0.75365 0.0
O165 O 0.22002 0.88317 0.77306 0.0
C166 C 0.2275 0.92978 0.76168 0.0
O167 O 0.24496 0.89398 0.71853 0.0
O168 O 0.21949 0.91162 0.71263 0.0
In169 In 0.11573 0.21414 0.7253 0.0
O170 O 0.08484 0.20337 0.73478 0.0
O171 O 0.09301 0.23342 0.73963 0.0
C172 C 0.13745 0.18142 0.71922 0.0
C173 C 0.1114 0.2298 0.689 0.0
C174 C 0.13721 0.22815 0.75567 0.0
O175 O 0.12086 0.18082 0.72787 0.0
O176 O 0.14255 0.19829 0.71312 0.0
O177 O 0.13677 0.23677 0.73906 0.0
O178 O 0.12738 0.21233 0.75659 0.0
C179 C 0.08025 0.22006 0.74194 0.0
O180 O 0.12048 0.23845 0.70285 0.0
O181 O 0.10417 0.21316 0.69349 0.0
In182 In 0.76811 0.10789 0.73879 0.0
O183 O 0.77408 0.07611 0.74873 0.0
O184 O 0.74435 0.08676 0.74803 0.0
C185 C 0.80281 0.12591 0.73225 0.0
C186 C 0.75401 0.10845 0.70171 0.0
C187 C 0.75823 0.12798 0.77158 0.0
O188 O 0.80205 0.10804 0.73788 0.0
O189 O 0.78625 0.13419 0.72992 0.0
O190 O 0.74941 0.13067 0.75528 0.0
O191 O 0.77217 0.11559 0.77107 0.0
C192 C 0.75597 0.07285 0.75238 0.0
O193 O 0.74586 0.11771 0.71578 0.0
O194 O 0.76898 0.09833 0.70651 0.0
In195 In 0.90066 0.81752 0.73031 0.0
O196 O 0.90442 0.79061 0.71066 0.0
O197 O 0.89513 0.8176 0.69717 0.0
C198 C 0.89172 0.79322 0.76071 0.0
C199 C 0.93901 0.82618 0.73728 0.0
C200 C 0.87071 0.84371 0.72903 0.0
O201 O 0.89489 0.81146 0.76284 0.0
O202 O 0.89276 0.78713 0.74309 0.0
O203 O 0.88853 0.84938 0.72978 0.0
O204 O 0.86837 0.82524 0.72891 0.0
C205 C 0.89906 0.79944 0.69506 0.0
O206 O 0.92578 0.82765 0.75028 0.0
O207 O 0.93252 0.82246 0.72021 0.0
In208 In 0.27234 0.21924 0.11956 0.0
O209 O 0.26337 0.21056 0.088 0.0
O210 O 0.26357 0.24102 0.09638 0.0
C211 C 0.27501 0.18653 0.1418 0.0
C212 C 0.31038 0.23015 0.11703 0.0
C213 C 0.24092 0.23437 0.13849 0.0
O214 O 0.26724 0.1862 0.12474 0.0
O215 O 0.28187 0.20306 0.1471 0.0
O216 O 0.25791 0.24214 0.13997 0.0
O217 O 0.24013 0.21903 0.12791 0.0
C218 C 0.25999 0.22836 0.08317 0.0
O219 O 0.29757 0.24013 0.12636 0.0
O220 O 0.30391 0.21466 0.10877 0.0
In221 In 0.26348 0.73839 0.89701 0.0
O222 O 0.25546 0.75008 0.92748 0.0
O223 O 0.25392 0.71894 0.92237 0.0
C224 C 0.26426 0.77232 0.87618 0.0
C225 C 0.30161 0.72727 0.89861 0.0
C226 C 0.23361 0.72171 0.87657 0.0
O227 O 0.25545 0.77102 0.89262 0.0
O228 O 0.27291 0.75679 0.87066 0.0
O229 O 0.25149 0.71883 0.8719 0.0
O230 O 0.23104 0.73259 0.89145 0.0
C231 C 0.25086 0.73318 0.93408 0.0
O232 O 0.28817 0.71617 0.8918 0.0
O233 O 0.29554 0.74347 0.90566 0.0
In234 In 0.23591 0.27591 0.90685 0.0
O235 O 0.25814 0.30038 0.90152 0.0
O236 O 0.22817 0.30855 0.90723 0.0
C237 C 0.25697 0.24299 0.8994 0.0
C238 C 0.23137 0.27207 0.9459 0.0
C239 C 0.21107 0.27327 0.87597 0.0
O240 O 0.26388 0.26007 0.89621 0.0
O241 O 0.23986 0.24272 0.9068 0.0
O242 O 0.20483 0.27247 0.89363 0.0
O243 O 0.22947 0.27563 0.87421 0.0
C244 C 0.24554 0.31413 0.90306 0.0
O245 O 0.21775 0.26733 0.93399 0.0
O246 O 0.24674 0.27921 0.93807 0.0
In247 In 0.7238 0.24917 0.90424 0.0
O248 O 0.70241 0.27237 0.89249 0.0
O249 O 0.69044 0.24776 0.908 0.0
C250 C 0.75315 0.26671 0.88358 0.0
C251 C 0.73038 0.25218 0.94322 0.0
C252 C 0.72722 0.21295 0.88784 0.0
O253 O 0.73742 0.26067 0.87554 0.0
O254 O 0.7536 0.26482 0.90212 0.0
O255 O 0.74103 0.22087 0.89756 0.0
O256 O 0.71142 0.2228 0.88741 0.0
C257 C 0.6871 0.26337 0.89835 0.0
O258 O 0.72809 0.23567 0.93477 0.0
O259 O 0.72854 0.26705 0.93212 0.0
In260 In 0.79816 0.73074 0.90344 0.0
O261 O 0.77336 0.70844 0.90602 0.0
O262 O 0.80253 0.69746 0.9009 0.0
C263 C 0.77308 0.76017 0.89339 0.0
C264 C 0.80504 0.74013 0.94154 0.0
C265 C 0.82521 0.73127 0.87421 0.0
O266 O 0.76927 0.74226 0.88984 0.0
O267 O 0.78933 0.76309 0.90196 0.0
O268 O 0.83027 0.73077 0.89222 0.0
O269 O 0.80682 0.73117 0.87124 0.0
C270 C 0.78433 0.69361 0.903 0.0
O271 O 0.81311 0.74925 0.92742 0.0
O272 O 0.7951 0.72521 0.93641 0.0
In273 In 0.72899 0.7943 0.09495 0.0
O274 O 0.70317 0.77327 0.09847 0.0
O275 O 0.69688 0.80375 0.09306 0.0
C276 C 0.76016 0.77087 0.1026 0.0
C277 C 0.73739 0.79803 0.05649 0.0
C278 C 0.73036 0.81817 0.12666 0.0
O279 O 0.7426 0.76518 0.10575 0.0
O280 O 0.76178 0.78816 0.09585 0.0
O281 O 0.73091 0.82512 0.10924 0.0
O282 O 0.7295 0.79958 0.1277 0.0
C283 C 0.6902 0.78667 0.09683 0.0
O284 O 0.74289 0.81085 0.069 0.0
O285 O 0.72629 0.78463 0.06327 0.0
In286 In 0.18399 0.72493 0.10226 0.0
O287 O 0.21265 0.71082 0.11266 0.0
O288 O 0.18819 0.69195 0.1059 0.0
C289 C 0.20254 0.75979 0.10769 0.0
C290 C 0.17964 0.72254 0.06254 0.0
C291 C 0.15434 0.72372 0.12898 0.0
O292 O 0.21194 0.74397 0.10448 0.0
O293 O 0.18401 0.75785 0.10857 0.0
O294 O 0.15113 0.72761 0.11098 0.0
O295 O 0.17212 0.72028 0.13316 0.0
C296 C 0.20591 0.69337 0.11175 0.0
O297 O 0.17802 0.73852 0.0719 0.0
O298 O 0.18186 0.70759 0.07336 0.0
In299 In 0.8019 0.26441 0.11652 0.0
O300 O 0.80565 0.26731 0.08301 0.0
O301 O 0.77755 0.25877 0.09474 0.0
C302 C 0.8398 0.26198 0.12914 0.0
C303 C 0.78824 0.30042 0.12578 0.0
C304 C 0.78558 0.23175 0.13255 0.0
O305 O 0.83365 0.25234 0.11439 0.0
O306 O 0.82725 0.27359 0.13645 0.0
O307 O 0.78288 0.24876 0.13976 0.0
O308 O 0.79674 0.23123 0.11762 0.0
C309 C 0.78788 0.26237 0.07962 0.0
O310 O 0.78675 0.28576 0.13729 0.0
O311 O 0.79676 0.297 0.1095 0.0
In312 In 0.59701 0.75551 0.69904 0.0
O313 O 0.59839 0.77674 0.72497 0.0
O314 O 0.60367 0.78823 0.69597 0.0
C315 C 0.6016 0.7226 0.72125 0.0
C316 C 0.5579 0.75551 0.69165 0.0
C317 C 0.62706 0.7541 0.67291 0.0
O318 O 0.60682 0.73949 0.72725 0.0
O319 O 0.59405 0.72242 0.70422 0.0
O320 O 0.6093 0.75574 0.66724 0.0
O321 O 0.62932 0.75295 0.69138 0.0
C322 C 0.60253 0.79158 0.71435 0.0
O323 O 0.56961 0.7444 0.68226 0.0
O324 O 0.56612 0.76706 0.70371 0.0
In325 In 0.21673 0.59724 0.69997 0.0
O326 O 0.23054 0.57277 0.68104 0.0
O327 O 0.2146 0.56495 0.70712 0.0
C328 C 0.21382 0.62966 0.67733 0.0
C329 C 0.17899 0.5964 0.71184 0.0
C330 C 0.24988 0.60562 0.72041 0.0
O331 O 0.21495 0.61256 0.66975 0.0
O332 O 0.21415 0.6301 0.69597 0.0
O333 O 0.23305 0.60556 0.72862 0.0
O334 O 0.24975 0.60134 0.70226 0.0
C335 C 0.22499 0.55926 0.69271 0.0
O336 O 0.1932 0.59919 0.72374 0.0
O337 O 0.18397 0.59344 0.69403 0.0
In338 In 0.38775 0.22004 0.68904 0.0
O339 O 0.38576 0.19593 0.71198 0.0
O340 O 0.39754 0.18806 0.68375 0.0
C341 C 0.36677 0.24949 0.70529 0.0
C342 C 0.42275 0.23654 0.69704 0.0
C343 C 0.3646 0.21685 0.65706 0.0
O344 O 0.3663 0.23211 0.71224 0.0
O345 O 0.37721 0.25161 0.68996 0.0
O346 O 0.38215 0.22338 0.65585 0.0
O347 O 0.35934 0.21135 0.67413 0.0
C348 C 0.39294 0.18264 0.70103 0.0
O349 O 0.41827 0.23193 0.6794 0.0
O350 O 0.41028 0.23164 0.70996 0.0
In351 In 0.77856 0.39476 0.70864 0.0
O352 O 0.76956 0.4274 0.7054 0.0
O353 O 0.76855 0.41359 0.73376 0.0
C354 C 0.78325 0.37841 0.67283 0.0
C355 C 0.8153 0.3936 0.72317 0.0
C356 C 0.74673 0.373 0.71793 0.0
O357 O 0.77501 0.39511 0.67492 0.0
O358 O 0.78975 0.37074 0.68855 0.0
O359 O 0.76328 0.37028 0.72623 0.0
O360 O 0.74654 0.38627 0.70484 0.0
C361 C 0.76507 0.42878 0.72358 0.0
O362 O 0.80091 0.38457 0.73098 0.0
O363 O 0.81116 0.40364 0.7079 0.0
In364 In 0.59328 0.21296 0.28867 0.0
O365 O 0.57394 0.22877 0.31125 0.0
O366 O 0.55982 0.20995 0.29046 0.0
C367 C 0.62726 0.20907 0.30915 0.0
C368 C 0.593 0.17742 0.27098 0.0
C369 C 0.59649 0.24642 0.2672 0.0
O370 O 0.61056 0.20632 0.3171 0.0
O371 O 0.62666 0.21356 0.29107 0.0
O372 O 0.59258 0.22997 0.25924 0.0
O373 O 0.59912 0.24575 0.28564 0.0
C374 C 0.5579 0.2223 0.30431 0.0
O375 O 0.5957 0.19338 0.26162 0.0
O376 O 0.58969 0.17947 0.28929 0.0
In377 In 0.76558 0.59242 0.23589 0.0
O378 O 0.78636 0.60043 0.21064 0.0
O379 O 0.79659 0.58012 0.23248 0.0
C380 C 0.73213 0.61319 0.23111 0.0
C381 C 0.74794 0.55774 0.22939 0.0
C382 C 0.77797 0.61195 0.26811 0.0
O383 O 0.74649 0.61487 0.21915 0.0
O384 O 0.73496 0.60144 0.24532 0.0
O385 O 0.7726 0.59402 0.26898 0.0
O386 O 0.77719 0.61963 0.25111 0.0
C387 C 0.80054 0.59009 0.21717 0.0
O388 O 0.75558 0.56195 0.24598 0.0
O389 O 0.75058 0.57042 0.21592 0.0
In390 In 0.38482 0.7834 0.2713 0.0
O391 O 0.41348 0.77995 0.28891 0.0
O392 O 0.41515 0.78897 0.25874 0.0
C393 C 0.35611 0.78112 0.2988 0.0
C394 C 0.37713 0.81905 0.25574 0.0
C395 C 0.3803 0.74767 0.25417 0.0
O396 O 0.37415 0.7827 0.30354 0.0
O397 O 0.35279 0.78111 0.28045 0.0
O398 O 0.37476 0.76346 0.24589 0.0
O399 O 0.3883 0.75002 0.27085 0.0
C400 C 0.42431 0.78447 0.27435 0.0
O401 O 0.37667 0.80329 0.24569 0.0
O402 O 0.38171 0.81686 0.27375 0.0
In403 In 0.22465 0.38399 0.27083 0.0
O404 O 0.23621 0.41374 0.28215 0.0
O405 O 0.23452 0.40838 0.25096 0.0
C406 C 0.22046 0.35853 0.30101 0.0
C407 C 0.18703 0.38911 0.2594 0.0
C408 C 0.25633 0.36633 0.25502 0.0
O409 O 0.22646 0.37608 0.30385 0.0
O410 O 0.21625 0.3544 0.28331 0.0
O411 O 0.23918 0.36359 0.24796 0.0
O412 O 0.25716 0.37735 0.27005 0.0
C413 C 0.2399 0.41977 0.26474 0.0
O414 O 0.19974 0.38043 0.24874 0.0
O415 O 0.19349 0.39568 0.27569 0.0
In416 In 0.70528 0.58797 0.7838 0.0
O417 O 0.69187 0.56011 0.77016 0.0
O418 O 0.71159 0.55663 0.79417 0.0
C419 C 0.67216 0.60759 0.77359 0.0
C420 C 0.71799 0.59842 0.82001 0.0
C421 C 0.73298 0.60123 0.75822 0.0
O422 O 0.68654 0.60494 0.76205 0.0
O423 O 0.67414 0.59996 0.79055 0.0
O424 O 0.72692 0.61142 0.77264 0.0
O425 O 0.72541 0.58426 0.757 0.0
C426 C 0.70147 0.54836 0.78092 0.0
O427 O 0.72892 0.58977 0.80759 0.0
O428 O 0.70047 0.60155 0.81428 0.0
In429 In 0.389 0.71812 0.75839 0.0
O430 O 0.38507 0.73743 0.78561 0.0
O431 O 0.39913 0.70951 0.78931 0.0
C432 C 0.37152 0.73852 0.7292 0.0
C433 C 0.42535 0.72372 0.74404 0.0
C434 C 0.36364 0.68753 0.7592 0.0
O435 O 0.36947 0.74336 0.74718 0.0
O436 O 0.38188 0.7233 0.72618 0.0
O437 O 0.38156 0.68524 0.75422 0.0
O438 O 0.35888 0.705 0.76364 0.0
C439 C 0.39257 0.72501 0.79741 0.0
O440 O 0.41809 0.70651 0.74556 0.0
O441 O 0.41485 0.73749 0.75102 0.0
In442 In 0.27183 0.40008 0.75816 0.0
O443 O 0.25061 0.398 0.78402 0.0
O444 O 0.28102 0.40394 0.79021 0.0
C445 C 0.24799 0.3919 0.72729 0.0
C446 C 0.27761 0.43811 0.74916 0.0
C447 C 0.29581 0.36848 0.75661 0.0
O448 O 0.24247 0.38906 0.74496 0.0
O449 O 0.26515 0.39893 0.7255 0.0
O450 O 0.30251 0.38593 0.75559 0.0
O451 O 0.27733 0.36724 0.75873 0.0
C452 C 0.26381 0.40097 0.79696 0.0
O453 O 0.28962 0.42487 0.74367 0.0
O454 O 0.26361 0.43217 0.75999 0.0
In455 In 0.59007 0.27611 0.75507 0.0
O456 O 0.59421 0.25761 0.78284 0.0
O457 O 0.58861 0.28852 0.78609 0.0
C458 C 0.59734 0.25201 0.72433 0.0
C459 C 0.55152 0.28091 0.7486 0.0
C460 C 0.6221 0.29895 0.75064 0.0
O461 O 0.60015 0.24645 0.74201 0.0
O462 O 0.5904 0.26921 0.72253 0.0
O463 O 0.60481 0.30614 0.74979 0.0
O464 O 0.62291 0.2806 0.75379 0.0
C465 C 0.59239 0.27223 0.79443 0.0
O466 O 0.56405 0.29358 0.74284 0.0
O467 O 0.55847 0.26652 0.75826 0.0
In468 In 0.67658 0.39753 0.21492 0.0
O469 O 0.67124 0.426 0.23181 0.0
O470 O 0.66782 0.42686 0.20067 0.0
C471 C 0.64835 0.36938 0.21218 0.0
C472 C 0.70136 0.3958 0.18394 0.0
C473 C 0.69762 0.38598 0.24691 0.0
O474 O 0.64432 0.38686 0.21739 0.0
O475 O 0.66623 0.36653 0.20788 0.0
O476 O 0.70488 0.38724 0.2298 0.0
O477 O 0.67953 0.39045 0.24802 0.0
C478 C 0.6683 0.43643 0.21668 0.0
O479 O 0.70642 0.40231 0.20071 0.0
O480 O 0.68336 0.39081 0.18253 0.0
In481 In 0.60282 0.74232 0.23845 0.0
O482 O 0.57084 0.73347 0.2452 0.0
O483 O 0.57894 0.76389 0.24677 0.0
C484 C 0.61783 0.70574 0.23241 0.0
C485 C 0.6042 0.76008 0.20305 0.0
C486 C 0.62652 0.75407 0.26833 0.0
O487 O 0.60801 0.70998 0.24772 0.0
O488 O 0.61915 0.71953 0.22002 0.0
O489 O 0.6316 0.75565 0.25041 0.0
O490 O 0.6095 0.747 0.27101 0.0
C491 C 0.56557 0.75106 0.24878 0.0
O492 O 0.61321 0.76683 0.21803 0.0
O493 O 0.59403 0.74469 0.20617 0.0
In494 In 0.28979 0.58826 0.23171 0.0
O495 O 0.30606 0.56108 0.24374 0.0
O496 O 0.2872 0.55748 0.21896 0.0
C497 C 0.31468 0.61926 0.23169 0.0
C498 C 0.27216 0.59721 0.19743 0.0
C499 C 0.26867 0.59148 0.26542 0.0
O500 O 0.321 0.6018 0.2293 0.0
O501 O 0.29632 0.62066 0.2345 0.0
O502 O 0.26058 0.59014 0.24864 0.0
O503 O 0.28732 0.59108 0.26512 0.0
C504 C 0.29808 0.54932 0.23166 0.0
O505 O 0.26262 0.59478 0.21335 0.0
O506 O 0.29063 0.59438 0.19868 0.0
In507 In 0.40847 0.26435 0.23153 0.0
O508 O 0.4129 0.24094 0.20783 0.0
O509 O 0.41837 0.27084 0.19998 0.0
C510 C 0.3932 0.23519 0.25412 0.0
C511 C 0.43912 0.27575 0.25405 0.0
C512 C 0.38053 0.29249 0.22761 0.0
O513 O 0.38265 0.24745 0.24487 0.0
O514 O 0.41153 0.23685 0.25107 0.0
O515 O 0.39627 0.2954 0.23724 0.0
O516 O 0.37919 0.27568 0.21972 0.0
C517 C 0.41699 0.25311 0.19426 0.0
O518 O 0.42154 0.27548 0.26024 0.0
O519 O 0.44118 0.27148 0.23594 0.0
In520 In 0.78422 0.69564 0.60674 0.0
O521 O 0.77444 0.67446 0.58217 0.0
O522 O 0.79804 0.69428 0.57629 0.0
C523 C 0.78049 0.67351 0.63964 0.0
C524 C 0.8185 0.71452 0.61321 0.0
C525 C 0.75052 0.71713 0.60638 0.0
O526 O 0.78724 0.66633 0.62373 0.0
O527 O 0.77579 0.69151 0.63872 0.0
O528 O 0.76692 0.7243 0.61172 0.0
O529 O 0.75131 0.69939 0.60074 0.0
C530 C 0.7866 0.68115 0.56971 0.0
O531 O 0.80398 0.72275 0.60476 0.0
O532 O 0.81579 0.69667 0.61806 0.0
In533 In 0.77225 0.28604 0.38406 0.0
O534 O 0.798 0.26499 0.38843 0.0
O535 O 0.80423 0.29341 0.37627 0.0
C536 C 0.7462 0.25661 0.37624 0.0
C537 C 0.76487 0.29444 0.42222 0.0
C538 C 0.76453 0.31337 0.35618 0.0
O539 O 0.76312 0.25722 0.36841 0.0
O540 O 0.74276 0.27047 0.38814 0.0
O541 O 0.76689 0.31806 0.37413 0.0
O542 O 0.76654 0.29522 0.35248 0.0
C543 C 0.81079 0.2767 0.38146 0.0
O544 O 0.75361 0.2999 0.40839 0.0
O545 O 0.78062 0.28615 0.41661 0.0
In546 In 0.75702 0.73958 0.39925 0.0
O547 O 0.74479 0.72756 0.42839 0.0
O548 O 0.77559 0.72435 0.42218 0.0
C549 C 0.72591 0.75023 0.37701 0.0
C550 C 0.77145 0.77591 0.40625 0.0
C551 C 0.76911 0.70997 0.3758 0.0
O552 O 0.72371 0.74084 0.39309 0.0
O553 O 0.74358 0.75419 0.37249 0.0
O554 O 0.77935 0.72548 0.37806 0.0
O555 O 0.75296 0.70969 0.38517 0.0
C556 C 0.7614 0.72078 0.43376 0.0
O557 O 0.78072 0.76317 0.39613 0.0
O558 O 0.7554 0.76987 0.4137 0.0
In559 In 0.21695 0.70253 0.3951 0.0
O560 O 0.23703 0.70136 0.4221 0.0
O561 O 0.20611 0.70113 0.42703 0.0
C562 C 0.2159 0.66917 0.37334 0.0
C563 C 0.18159 0.72018 0.39137 0.0
C564 C 0.2465 0.72408 0.37895 0.0
O565 O 0.21904 0.66873 0.39177 0.0
O566 O 0.21313 0.68618 0.3663 0.0
O567 O 0.24911 0.70721 0.3864 0.0
O568 O 0.22885 0.73013 0.37942 0.0
C569 C 0.22316 0.70184 0.43449 0.0
O570 O 0.19702 0.72962 0.39613 0.0
O571 O 0.18402 0.70185 0.38866 0.0
In572 In 0.29047 0.22031 0.40007 0.0
O573 O 0.26321 0.20093 0.4031 0.0
O574 O 0.29079 0.18868 0.41191 0.0
C575 C 0.26558 0.2453 0.38127 0.0
C576 C 0.30062 0.24156 0.43213 0.0
C577 C 0.31962 0.21021 0.37471 0.0
O578 O 0.27896 0.23579 0.37244 0.0
O579 O 0.26423 0.24174 0.39953 0.0
O580 O 0.32281 0.2213 0.38944 0.0
O581 O 0.30207 0.20416 0.3732 0.0
C582 C 0.27246 0.18601 0.40943 0.0
O583 O 0.30215 0.24822 0.41477 0.0
O584 O 0.29578 0.22355 0.43312 0.0
In585 In 0.2178 0.29218 0.57728 0.0
O586 O 0.1972 0.2661 0.58095 0.0
O587 O 0.18416 0.29432 0.57574 0.0
C588 C 0.25046 0.27116 0.58641 0.0
C589 C 0.22831 0.30061 0.53978 0.0
C590 C 0.21346 0.31718 0.60795 0.0
O591 O 0.23404 0.26295 0.58296 0.0
O592 O 0.2502 0.28977 0.58556 0.0
O593 O 0.21243 0.3231 0.59021 0.0
O594 O 0.21675 0.29894 0.60995 0.0
C595 C 0.18152 0.27617 0.57947 0.0
O596 O 0.23373 0.31108 0.55423 0.0
O597 O 0.21614 0.28717 0.54414 0.0
In598 In 0.71764 0.23036 0.58809 0.0
O599 O 0.70395 0.2429 0.55994 0.0
O600 O 0.73138 0.22754 0.55781 0.0
C601 C 0.68761 0.22892 0.61415 0.0
C602 C 0.72951 0.19281 0.59284 0.0
C603 C 0.73765 0.26308 0.59893 0.0
O604 O 0.68461 0.22769 0.59571 0.0
O605 O 0.70541 0.2315 0.61906 0.0
O606 O 0.74378 0.24589 0.60297 0.0
O607 O 0.72142 0.26368 0.58977 0.0
C608 C 0.71829 0.23763 0.54915 0.0
O609 O 0.74079 0.20741 0.59599 0.0
O610 O 0.71257 0.19721 0.58626 0.0
In611 In 0.25954 0.79005 0.59427 0.0
O612 O 0.2386 0.81466 0.60279 0.0
O613 O 0.26527 0.82255 0.58783 0.0
C614 C 0.24432 0.7571 0.61031 0.0
C615 C 0.25195 0.779 0.55716 0.0
C616 C 0.29163 0.7903 0.6175 0.0
O617 O 0.23609 0.77377 0.61268 0.0
O618 O 0.2601 0.75742 0.60037 0.0
O619 O 0.29259 0.78516 0.59949 0.0
O620 O 0.27476 0.79574 0.62336 0.0
C621 C 0.24961 0.82833 0.5963 0.0
O622 O 0.26949 0.7824 0.56285 0.0
O623 O 0.23863 0.78293 0.56962 0.0
H624 H 0.97745 0.17333 0.29087 0.0
H625 H 0.9583 0.16384 0.2306 0.0
H626 H 0.00514 0.19302 0.27887 0.0
H627 H 0.98577 0.18392 0.21868 0.0
H628 H 0.04449 0.22066 0.2081 0.0
H629 H 0.02248 0.19301 0.2163 0.0
H630 H -0.00181 0.22695 0.26471 0.0
H631 H 0.02006 0.25434 0.25667 0.0
C632 C 0.97965 0.1747 0.27504 0.0
C633 C 0.9654 0.16762 0.26172 0.0
C634 C 0.99534 0.18619 0.26818 0.0
C635 C -0.00303 0.19067 0.24793 0.0
C636 C 0.98462 0.18094 0.23439 0.0
C637 C 0.96896 0.16932 0.24126 0.0
C638 C 0.03405 0.22236 0.22015 0.0
C639 C 0.03404 0.23958 0.23187 0.0
C640 C 0.02167 0.20647 0.22496 0.0
C641 C 0.00924 0.20762 0.24158 0.0
C642 C 0.0082 0.22541 0.25227 0.0
C643 C 0.02046 0.24122 0.24746 0.0
H644 H 0.80531 0.93817 0.24286 0.0
H645 H 0.77038 0.95627 0.29322 0.0
H646 H 0.79055 0.96469 0.22308 0.0
H647 H 0.75605 0.98292 0.27375 0.0
H648 H 0.71365 0.00833 0.23205 0.0
H649 H 0.73179 0.98089 0.24668 0.0
H650 H 0.78547 0.00112 0.21844 0.0
H651 H 0.76709 0.02835 0.2033 0.0
C652 C 0.79512 0.94834 0.24992 0.0
C653 C 0.78885 0.94517 0.26951 0.0
C654 C 0.78652 0.96335 0.23853 0.0
C655 C 0.77164 0.97537 0.24669 0.0
C656 C 0.76696 0.9734 0.26686 0.0
C657 C 0.7754 0.95838 0.27813 0.0
C658 C 0.72915 0.00647 0.22837 0.0
C659 C 0.73901 0.02051 0.21673 0.0
C660 C 0.73962 0.99098 0.23699 0.0
C661 C 0.76019 0.98937 0.2343 0.0
C662 C 0.76967 0.00215 0.22093 0.0
C663 C 0.7591 0.01762 0.21212 0.0
H664 H 0.01179 0.78761 0.28681 0.0
H665 H 0.02829 0.821 0.23482 0.0
H666 H 0.98504 0.7721 0.2683 0.0
H667 H 0.00143 0.80536 0.2163 0.0
H668 H 0.93936 0.77642 0.19745 0.0
H669 H 0.96314 0.79815 0.21413 0.0
H670 H 0.99148 0.7471 0.23995 0.0
H671 H 0.96796 0.72545 0.22335 0.0
C672 C 0.00927 0.79217 0.27165 0.0
C673 C 0.02235 0.80522 0.26216 0.0
C674 C 0.99411 0.78313 0.261 0.0
C675 C 0.99168 0.78711 0.24075 0.0
C676 C 0.00318 0.80192 0.23186 0.0
C677 C 0.01846 0.81095 0.24252 0.0
C678 C 0.951 0.76984 0.20629 0.0
C679 C 0.95173 0.74924 0.20925 0.0
C680 C 0.96447 0.78228 0.21591 0.0
C681 C 0.97868 0.77428 0.22873 0.0
C682 C 0.98027 0.75364 0.23054 0.0
C683 C 0.96697 0.74124 0.22083 0.0
H684 H 0.20177 0.96686 0.18502 0.0
H685 H 0.26231 0.98519 0.19442 0.0
H686 H 0.19037 0.99332 0.20677 0.0
H687 H 0.25085 0.0118 0.21586 0.0
H688 H 0.22928 0.02954 0.2763 0.0
H689 H 0.23677 0.00637 0.2498 0.0
H690 H 0.18841 0.02982 0.21525 0.0
H691 H 0.18074 0.05306 0.24198 0.0
C692 C 0.21258 0.97705 0.19103 0.0
C693 C 0.23297 0.97372 0.1884 0.0
C694 C 0.20603 0.99212 0.20359 0.0
C695 C 0.21979 0.00408 0.21353 0.0
C696 C 0.23998 0.00233 0.20885 0.0
C697 C 0.24653 0.98727 0.19636 0.0
C698 C 0.21995 0.02947 0.26326 0.0
C699 C 0.20454 0.04319 0.26114 0.0
C700 C 0.22443 0.01642 0.24796 0.0
C701 C 0.21358 0.01681 0.23022 0.0
C702 C 0.19715 0.02942 0.22869 0.0
C703 C 0.19266 0.04256 0.24405 0.0
H704 H 0.97025 0.8202 0.71246 0.0
H705 H 0.95412 0.82141 0.77434 0.0
H706 H -0.00052 0.80073 0.72053 0.0
H707 H 0.98287 0.80135 0.7823 0.0
H708 H 0.04233 0.76831 0.78911 0.0
H709 H 0.01808 0.79459 0.7837 0.0
H710 H -0.00042 0.76606 0.72951 0.0
H711 H 0.02406 0.74025 0.73465 0.0
C712 C 0.9733 0.81689 0.72786 0.0
C713 C 0.95968 0.82191 0.7427 0.0
C714 C 0.98986 0.80548 0.73245 0.0
C715 C 0.99298 0.79882 0.75193 0.0
C716 C 0.98077 0.80604 0.76712 0.0
C717 C 0.9643 0.81764 0.76254 0.0
C718 C 0.03277 0.76749 0.77627 0.0
C719 C 0.03505 0.75228 0.76227 0.0
C720 C 0.01903 0.78263 0.77308 0.0
C721 C 0.00732 0.78271 0.75589 0.0
C722 C 0.00888 0.76683 0.74254 0.0
C723 C 0.02264 0.75183 0.74565 0.0
H724 H 0.23652 0.04778 0.813 0.0
H725 H 0.29446 0.02689 0.79585 0.0
H726 H 0.22331 0.01433 0.80907 0.0
H727 H 0.28134 0.99381 0.7916 0.0
H728 H 0.25697 0.93448 0.78821 0.0
H729 H 0.26657 0.96463 0.80532 0.0
H730 H 0.21711 0.99529 0.77877 0.0
H731 H 0.20706 0.96471 0.76221 0.0
C732 C 0.24653 0.03593 0.80897 0.0
C733 C 0.26645 0.03989 0.80448 0.0
C734 C 0.23893 0.01686 0.80655 0.0
C735 C 0.2512 0.00151 0.79977 0.0
C736 C 0.27149 0.00523 0.797 0.0
C737 C 0.27903 0.02424 0.79934 0.0
C738 C 0.24799 0.94761 0.78626 0.0
C739 C 0.23154 0.94749 0.77358 0.0
C740 C 0.25347 0.96484 0.79608 0.0
C741 C 0.2428 0.9824 0.79315 0.0
C742 C 0.22555 0.98195 0.78146 0.0
C743 C 0.21988 0.96454 0.77182 0.0
H744 H 0.04691 0.19692 0.7446 0.0
H745 H 0.07245 0.25204 0.76454 0.0
H746 H 0.01563 0.20577 0.76084 0.0
H747 H 0.04164 0.26058 0.78091 0.0
H748 H 0.96386 0.22515 0.79985 0.0
H749 H -0.00195 0.21426 0.79377 0.0
H750 H 0.01016 0.26966 0.76425 0.0
H751 H 0.97634 0.28027 0.77014 0.0
C752 C 0.04591 0.21072 0.75267 0.0
C753 C 0.06187 0.22401 0.75292 0.0
C754 C 0.02815 0.21569 0.76213 0.0
C755 C 0.02625 0.23393 0.77198 0.0
C756 C 0.04265 0.24656 0.7732 0.0
C757 C 0.06024 0.24169 0.76372 0.0
C758 C 0.97412 0.23514 0.79264 0.0
C759 C 0.96766 0.25351 0.78544 0.0
C760 C 0.99352 0.22886 0.78899 0.0
C761 C 0.00666 0.24109 0.77849 0.0
C762 C 0.00043 0.25999 0.77256 0.0
C763 C 0.98108 0.26608 0.77589 0.0
H764 H 0.7189 0.06633 0.76614 0.0
H765 H 0.77684 0.03957 0.76233 0.0
H766 H 0.70664 0.03767 0.784 0.0
H767 H 0.76434 0.01042 0.77973 0.0
H768 H 0.74097 0.96451 0.82045 0.0
H769 H 0.75147 -0.00211 0.81137 0.0
H770 H 0.69925 0.00417 0.77497 0.0
H771 H 0.68866 0.97119 0.78434 0.0
C772 C 0.729 0.05423 0.769 0.0
C773 C 0.74877 0.05503 0.76261 0.0
C774 C 0.72196 0.03784 0.77929 0.0
C775 C 0.7345 0.02179 0.78328 0.0
C776 C 0.7544 0.02271 0.77716 0.0
C777 C 0.7615 0.03924 0.76696 0.0
C778 C 0.7314 0.97335 0.81112 0.0
C779 C 0.71412 0.96524 0.8029 0.0
C780 C 0.73755 0.99232 0.8057 0.0
C781 C 0.72641 0.00346 0.79213 0.0
C782 C 0.70816 0.99601 0.78549 0.0
C783 C 0.70207 0.97708 0.79085 0.0
H784 H 0.25309 0.20533 0.05038 0.0
H785 H 0.24863 0.26516 0.07251 0.0
H786 H 0.24183 0.21674 0.01778 0.0
H787 H 0.23727 0.27635 0.04033 0.0
H788 H 0.25294 0.28943 0.97467 0.0
H789 H 0.2565 0.27859 0.00878 0.0
H790 H 0.21261 0.23312 -0.00089 0.0
H791 H 0.20897 0.24414 0.96467 0.0
C792 C 0.24951 0.22081 0.04833 0.0
C793 C 0.25207 0.23441 0.06381 0.0
C794 C 0.24292 0.22729 0.0298 0.0
C795 C 0.23883 0.24744 0.0266 0.0
C796 C 0.24056 0.26079 0.04237 0.0
C797 C 0.24712 0.25436 0.06076 0.0
C798 C 0.24375 0.27739 0.97994 0.0
C799 C 0.2307 0.2676 0.96714 0.0
C800 C 0.24575 0.27121 -0.00055 0.0
C801 C 0.23487 0.25497 0.0065 0.0
C802 C 0.22123 0.24559 0.99393 0.0
C803 C 0.21902 0.252 0.97437 0.0
H804 H 0.23077 0.7005 0.94602 0.0
H805 H 0.24568 0.76006 0.96374 0.0
H806 H 0.20937 0.69719 0.97476 0.0
H807 H 0.225 0.75648 0.99309 0.0
H808 H 0.17589 0.7527 0.03603 0.0
H809 H 0.19149 0.75456 0.00353 0.0
H810 H 0.21043 0.69373 0.00932 0.0
H811 H 0.19409 0.69168 0.04123 0.0
C812 C 0.22976 0.71276 0.9563 0.0
C813 C 0.23996 0.73051 0.95275 0.0
C814 C 0.21745 0.71088 0.97276 0.0
C815 C 0.21529 0.72662 0.98617 0.0
C816 C 0.2259 0.74423 0.9828 0.0
C817 C 0.238 0.7462 0.96617 0.0
C818 C 0.18284 0.73957 0.03002 0.0
C819 C 0.18396 0.72211 0.0412 0.0
C820 C 0.19204 0.7407 0.01155 0.0
C821 C 0.20269 0.72447 0.00406 0.0
C822 C 0.20235 0.70653 0.01457 0.0
C823 C 0.19294 0.70533 0.03291 0.0
H824 H 0.73262 0.22297 0.97095 0.0
H825 H 0.74332 0.28535 0.96189 0.0
H826 H 0.74665 0.22548 0.00422 0.0
H827 H 0.75742 0.28777 0.99507 0.0
H828 H 0.80358 0.27583 0.0448 0.0
H829 H 0.78865 0.27355 0.01181 0.0
H830 H 0.73828 0.24306 0.03668 0.0
H831 H 0.75304 0.24537 0.06949 0.0
C832 C 0.73778 0.23722 0.97615 0.0
C833 C 0.73689 0.25396 0.9639 0.0
C834 C 0.74579 0.23865 0.99513 0.0
C835 C 0.75324 0.25678 0.00204 0.0
C836 C 0.752 0.27359 0.98993 0.0
C837 C 0.74377 0.27222 0.97106 0.0
C838 C 0.78936 0.26862 0.04315 0.0
C839 C 0.77944 0.2608 0.05963 0.0
C840 C 0.78079 0.26742 0.02437 0.0
C841 C 0.76234 0.25815 0.02182 0.0
C842 C 0.75257 0.25015 0.03828 0.0
C843 C 0.76099 0.25157 0.05703 0.0
H844 H 0.81251 0.77837 0.95227 0.0
H845 H 0.78995 0.72284 0.97451 0.0
H846 H 0.79682 0.79575 0.97987 0.0
H847 H 0.77458 0.74016 0.00211 0.0
H848 H 0.72458 0.77582 0.02576 0.0
H849 H 0.74495 0.76278 -0.00092 0.0
H850 H 0.7935 0.79992 0.01769 0.0
H851 H 0.77294 0.81319 0.04447 0.0
C852 C 0.80489 0.76979 0.96347 0.0
C853 C 0.80214 0.74929 0.9611 0.0
C854 C 0.7958 0.77978 0.97917 0.0
C855 C 0.78395 0.76935 0.99265 0.0
C856 C 0.78314 0.74861 0.99151 0.0
C857 C 0.79215 0.73866 0.97587 0.0
C858 C 0.73939 0.78165 0.02381 0.0
C859 C 0.74724 0.79537 0.03725 0.0
C860 C 0.75115 0.77398 0.00874 0.0
C861 C 0.77099 0.77986 0.00682 0.0
C862 C 0.77831 0.79499 0.01904 0.0
C863 C 0.76648 0.80271 0.0342 0.0
H864 H 0.53658 0.72395 0.67786 0.0
H865 H 0.53081 0.78051 0.70701 0.0
H866 H 0.50235 0.71599 0.68669 0.0
H867 H 0.49726 0.77245 0.71639 0.0
H868 H 0.43481 0.75833 0.72663 0.0
H869 H 0.46431 0.76634 0.7078 0.0
H870 H 0.48651 0.70713 0.71744 0.0
H871 H 0.45619 0.6988 0.73546 0.0
C872 C 0.52782 0.73488 0.68564 0.0
C873 C 0.53633 0.75276 0.69192 0.0
C874 C 0.50834 0.73023 0.69095 0.0
C875 C 0.49716 0.74342 0.70254 0.0
C876 C 0.50529 0.76196 0.70734 0.0
C877 C 0.52462 0.76659 0.70201 0.0
C878 C 0.446 0.747 0.72471 0.0
C879 C 0.44349 0.72807 0.73284 0.0
C880 C 0.46289 0.75159 0.71388 0.0
C881 C 0.47791 0.73748 0.71129 0.0
C882 C 0.47513 0.71829 0.71895 0.0
C883 C 0.45793 0.71357 0.72949 0.0
H884 H 0.29174 0.44943 0.71301 0.0
H885 H 0.26078 0.47077 0.76472 0.0
H886 H 0.28035 0.47841 0.69428 0.0
H887 H 0.2497 0.49957 0.7462 0.0
H888 H 0.2072 0.52592 0.70527 0.0
H889 H 0.22423 0.4965 0.71715 0.0
H890 H 0.27943 0.51875 0.6939 0.0
H891 H 0.26219 0.54828 0.68163 0.0
C892 C 0.28321 0.4607 0.72056 0.0
C893 C 0.27687 0.45785 0.74019 0.0
C894 C 0.27659 0.47713 0.70981 0.0
C895 C 0.26367 0.49072 0.71869 0.0
C896 C 0.25922 0.48891 0.73891 0.0
C897 C 0.26572 0.47258 0.74956 0.0
C898 C 0.2228 0.52414 0.70197 0.0
C899 C 0.23346 0.53932 0.69275 0.0
C900 C 0.23258 0.50747 0.70895 0.0
C901 C 0.25319 0.50582 0.70697 0.0
C902 C 0.26354 0.51987 0.69573 0.0
C903 C 0.25366 0.53661 0.68858 0.0
H904 H 0.45748 0.24173 0.6763 0.0
H905 H 0.42746 0.2574 0.73058 0.0
H906 H 0.48765 0.25796 0.68861 0.0
H907 H 0.45709 0.27374 0.74251 0.0
H908 H 0.52064 0.2635 0.7669 0.0
H909 H 0.48816 0.25696 0.75292 0.0
H910 H 0.50355 0.29069 0.70082 0.0
H911 H 0.53632 0.29736 0.71503 0.0
C912 C 0.45726 0.24891 0.69064 0.0
C913 C 0.4404 0.24788 0.70272 0.0
C914 C 0.47438 0.25831 0.6976 0.0
C915 C 0.47467 0.26686 0.7166 0.0
C916 C 0.45733 0.26697 0.72796 0.0
C917 C 0.44043 0.25752 0.72114 0.0
C918 C 0.51689 0.26996 0.75271 0.0
C919 C 0.53086 0.28092 0.74203 0.0
C920 C 0.49832 0.26625 0.7447 0.0
C921 C 0.49343 0.27326 0.72575 0.0
C922 C 0.50706 0.28505 0.71541 0.0
C923 C 0.52564 0.28903 0.72361 0.0
H924 H 0.75174 0.43177 0.76118 0.0
H925 H 0.75414 0.46364 0.70578 0.0
H926 H 0.73234 0.45812 0.77578 0.0
H927 H 0.73513 0.49063 0.72076 0.0
H928 H 0.6885 0.52938 0.7477 0.0
H929 H 0.70233 0.49904 0.73382 0.0
H930 H 0.73766 0.49127 0.78658 0.0
H931 H 0.72353 0.52116 0.80056 0.0
C932 C 0.74831 0.44456 0.75216 0.0
C933 C 0.75461 0.44575 0.73236 0.0
C934 C 0.73716 0.45967 0.76056 0.0
C935 C 0.73217 0.47645 0.74945 0.0
C936 C 0.73848 0.47771 0.72961 0.0
C937 C 0.74958 0.46243 0.7211 0.0
C938 C 0.69873 0.52081 0.75657 0.0
C939 C 0.70508 0.52769 0.77514 0.0
C940 C 0.70687 0.50362 0.7485 0.0
C941 C 0.72139 0.49301 0.75891 0.0
C942 C 0.72647 0.49906 0.77817 0.0
C943 C 0.71834 0.5162 0.78622 0.0
H944 H 0.47791 0.28287 0.2455 0.0
H945 H 0.43825 0.2681 0.29346 0.0
H946 H 0.50615 0.27375 0.26624 0.0
H947 H 0.46649 0.25826 0.31379 0.0
H948 H 0.55261 0.26093 0.31345 0.0
H949 H 0.52249 0.27999 0.30707 0.0
H950 H 0.49065 0.22587 0.29574 0.0
H951 H 0.52092 0.20682 0.3012 0.0
C952 C 0.4753 0.27838 0.26067 0.0
C953 C 0.45597 0.27604 0.26783 0.0
C954 C 0.4914 0.27323 0.27253 0.0
C955 C 0.4883 0.26533 0.2915 0.0
C956 C 0.46912 0.2645 0.29925 0.0
C957 C 0.45304 0.27014 0.28759 0.0
C958 C 0.53897 0.25305 0.31047 0.0
C959 C 0.539 0.23243 0.30771 0.0
C960 C 0.52183 0.26398 0.30676 0.0
C961 C 0.50445 0.2543 0.30096 0.0
C962 C 0.50393 0.23355 0.30041 0.0
C963 C 0.52118 0.22267 0.30353 0.0
H964 H 0.6671 0.46061 0.24887 0.0
H965 H 0.678 0.4604 0.18588 0.0
H966 H 0.68377 0.49246 0.25166 0.0
H967 H 0.69542 0.49164 0.18872 0.0
H968 H 0.72265 0.55157 0.19878 0.0
H969 H 0.69786 0.52566 0.19563 0.0
H970 H 0.71815 0.49985 0.25057 0.0
H971 H 0.74232 0.52636 0.25412 0.0
C972 C 0.67254 0.46768 0.23554 0.0
C973 C 0.67155 0.45793 0.21722 0.0
C974 C 0.68237 0.48575 0.23717 0.0
C975 C 0.69156 0.49425 0.22054 0.0
C976 C 0.6886 0.48553 0.20187 0.0
C977 C 0.67852 0.46759 0.20021 0.0
C978 C 0.72188 0.54027 0.21012 0.0
C979 C 0.7345 0.54084 0.22663 0.0
C980 C 0.70762 0.52546 0.20834 0.0
C981 C 0.70585 0.51076 0.22292 0.0
C982 C 0.71873 0.51122 0.23931 0.0
C983 C 0.73281 0.5262 0.24121 0.0
H984 H 0.53473 0.72646 0.258 0.0
H985 H 0.55116 0.78812 0.25387 0.0
H986 H 0.50113 0.73619 0.26758 0.0
H987 H 0.51778 0.79772 0.26344 0.0
H988 H 0.4502 0.8016 0.2491 0.0
H989 H 0.48523 0.79408 0.24536 0.0
H990 H 0.48219 0.75452 0.29546 0.0
H991 H 0.44691 0.76218 0.29931 0.0
C992 C 0.53118 0.74204 0.25923 0.0
C993 C 0.54544 0.75654 0.25502 0.0
C994 C 0.51207 0.74759 0.26489 0.0
C995 C 0.50696 0.76769 0.26624 0.0
C996 C 0.52135 0.78213 0.26239 0.0
C997 C 0.54042 0.77661 0.25691 0.0
C998 C 0.4571 0.7916 0.25956 0.0
C999 C 0.44593 0.78244 0.27447 0.0
C1000 C 0.47713 0.78733 0.25745 0.0
C1001 C 0.48631 0.77364 0.27006 0.0
C1002 C 0.47534 0.76501 0.28548 0.0
C1003 C 0.45528 0.76953 0.28778 0.0
H1004 H 0.28389 0.52173 0.20637 0.0
H1005 H 0.30948 0.5287 0.26453 0.0
H1006 H 0.27294 0.48877 0.215 0.0
H1007 H 0.299 0.49516 0.27311 0.0
H1008 H 0.24727 0.45171 0.28875 0.0
H1009 H 0.26675 0.48111 0.28038 0.0
H1010 H 0.28025 0.45573 0.22318 0.0
H1011 H 0.26015 0.42712 0.23116 0.0
C1012 C 0.28781 0.5159 0.22078 0.0
C1013 C 0.29731 0.52783 0.23485 0.0
C1014 C 0.28156 0.49694 0.22576 0.0
C1015 C 0.2848 0.48943 0.2449 0.0
C1016 C 0.29591 0.50071 0.2584 0.0
C1017 C 0.30217 0.51978 0.25339 0.0
C1018 C 0.2544 0.45255 0.27442 0.0
C1019 C 0.25182 0.43745 0.26043 0.0
C1020 C 0.26577 0.46921 0.26969 0.0
C1021 C 0.27496 0.47081 0.25103 0.0
C1022 C 0.27304 0.45519 0.23749 0.0
C1023 C 0.26146 0.43881 0.24206 0.0
H1024 H 0.75527 0.66516 0.54984 0.0
H1025 H 0.81359 0.68993 0.54144 0.0
H1026 H 0.7486 0.66898 0.51447 0.0
H1027 H 0.80692 0.69404 0.50643 0.0
H1028 H 0.79328 0.69846 0.44328 0.0
H1029 H 0.79958 0.68108 0.47417 0.0
H1030 H 0.74251 0.69974 0.49625 0.0
H1031 H 0.73595 0.7166 0.46496 0.0
C1032 C 0.7669 0.67076 0.54032 0.0
C1033 C 0.78484 0.67753 0.54833 0.0
C1034 C 0.76301 0.67314 0.52014 0.0
C1035 C 0.77708 0.68216 0.50775 0.0
C1036 C 0.79577 0.68697 0.51551 0.0
C1037 C 0.7996 0.68467 0.53562 0.0
C1038 C 0.782 0.69867 0.45467 0.0
C1039 C 0.76429 0.70919 0.45195 0.0
C1040 C 0.78559 0.68866 0.47232 0.0
C1041 C 0.77164 0.68917 0.48771 0.0
C1042 C 0.75346 0.69885 0.48458 0.0
C1043 C 0.74978 0.70872 0.46678 0.0
H1044 H 0.72721 0.29919 0.4358 0.0
H1045 H 0.78659 0.28499 0.45475 0.0
H1046 H 0.71415 0.28615 0.46678 0.0
H1047 H 0.7736 0.27257 0.486 0.0
H1048 H 0.74477 0.22481 0.52191 0.0
H1049 H 0.75561 0.24223 0.49236 0.0
H1050 H 0.71159 0.28742 0.50277 0.0
H1051 H 0.70035 0.26958 0.53218 0.0
C1052 C 0.73753 0.29398 0.44691 0.0
C1053 C 0.75789 0.29279 0.44278 0.0
C1054 C 0.73002 0.28644 0.46463 0.0
C1055 C 0.7428 0.27777 0.47853 0.0
C1056 C 0.76334 0.27855 0.47524 0.0
C1057 C 0.77081 0.28591 0.45748 0.0
C1058 C 0.73715 0.23825 0.51767 0.0
C1059 C 0.72178 0.24588 0.52932 0.0
C1060 C 0.74355 0.24841 0.50092 0.0
C1061 C 0.73484 0.26651 0.49558 0.0
C1062 C 0.71866 0.27356 0.50659 0.0
C1063 C 0.71214 0.26329 0.52333 0.0
H1064 H 0.25791 0.70122 0.45499 0.0
H1065 H 0.19623 0.71716 0.45994 0.0
H1066 H 0.26492 0.7187 0.48579 0.0
H1067 H 0.20327 0.73558 0.48982 0.0
H1068 H 0.21846 0.75857 0.54983 0.0
H1069 H 0.21177 0.73628 0.52266 0.0
H1070 H 0.2681 0.75163 0.49628 0.0
H1071 H 0.27534 0.77304 0.52452 0.0
C1072 C 0.24581 0.70816 0.46289 0.0
C1073 C 0.22656 0.70789 0.45511 0.0
C1074 C 0.24985 0.71847 0.48034 0.0
C1075 C 0.23477 0.72897 0.49012 0.0
C1076 C 0.21528 0.72757 0.4829 0.0
C1077 C 0.2112 0.71696 0.4657 0.0
C1078 C 0.22935 0.75736 0.53813 0.0
C1079 C 0.24734 0.7677 0.53914 0.0
C1080 C 0.22551 0.74453 0.52249 0.0
C1081 C 0.23935 0.74209 0.50718 0.0
C1082 C 0.25725 0.75279 0.50801 0.0
C1083 C 0.2613 0.76532 0.52398 0.0
H1084 H 0.21838 0.28074 0.50635 0.0
H1085 H 0.26379 0.3182 0.53138 0.0
H1086 H 0.24128 0.27046 0.48041 0.0
H1087 H 0.28671 0.30776 0.5052 0.0
H1088 H 0.29909 0.28195 0.43209 0.0
H1089 H 0.2831 0.30218 0.45757 0.0
H1090 H 0.28 0.25137 0.49597 0.0
H1091 H 0.29589 0.23107 0.47069 0.0
C1092 C 0.23298 0.28735 0.50588 0.0
C1093 C 0.23937 0.30008 0.52099 0.0
C1094 C 0.24608 0.28138 0.49114 0.0
C1095 C 0.2657 0.28814 0.49119 0.0
C1096 C 0.2716 0.30239 0.50502 0.0
C1097 C 0.25844 0.30841 0.51986 0.0
C1098 C 0.29582 0.27529 0.4463 0.0
C1099 C 0.29841 0.25484 0.44931 0.0
C1100 C 0.28662 0.28688 0.46078 0.0
C1101 C 0.28016 0.27812 0.47841 0.0
C1102 C 0.28483 0.2583 0.48233 0.0
C1103 C 0.29398 0.24673 0.46791 0.0
H1104 H 0.14156 0.12286 0.29393 0.0
H1105 H 0.18976 0.16477 0.29651 0.0
H1106 H 0.118 0.15022 0.2915 0.0
H1107 H 0.16645 0.19192 0.29368 0.0
H1108 H 0.12161 0.23944 0.29227 0.0
H1109 H 0.139 0.2112 0.30693 0.0
H1110 H 0.11174 0.17239 0.264 0.0
H1111 H 0.09429 0.20029 0.24977 0.0
C1112 C 0.14708 0.1379 0.29429 0.0
C1113 C 0.16748 0.1417 0.29507 0.0
C1114 C 0.13362 0.15355 0.29287 0.0
C1115 C 0.14037 0.17324 0.29223 0.0
C1116 C 0.1607 0.17698 0.29435 0.0
C1117 C 0.17411 0.16138 0.29575 0.0
C1118 C 0.11902 0.22477 0.28635 0.0
C1119 C 0.1069 0.22205 0.26972 0.0
C1120 C 0.12901 0.20864 0.29466 0.0
C1121 C 0.12689 0.18959 0.28651 0.0
C1122 C 0.11358 0.18679 0.27079 0.0
C1123 C 0.10373 0.20284 0.26248 0.0
H1124 H 0.83829 0.16518 0.2832 0.0
H1125 H 0.87466 0.11268 0.2812 0.0
H1126 H 0.80876 0.14504 0.28065 0.0
H1127 H 0.84481 0.09224 0.27913 0.0
H1128 H 0.79264 0.07449 0.23668 0.0
H1129 H 0.82226 0.08785 0.25185 0.0
H1130 H 0.78628 0.12056 0.29343 0.0
H1131 H 0.7564 0.10748 0.27772 0.0
C1132 C 0.83994 0.14925 0.28266 0.0
C1133 C 0.85877 0.1405 0.28199 0.0
C1134 C 0.82296 0.13765 0.28144 0.0
C1135 C 0.8244 0.11701 0.27954 0.0
C1136 C 0.84324 0.10814 0.28032 0.0
C1137 C 0.86031 0.1198 0.28154 0.0
C1138 C 0.79103 0.08422 0.24932 0.0
C1139 C 0.77224 0.09032 0.25576 0.0
C1140 C 0.80806 0.09173 0.25818 0.0
C1141 C 0.80665 0.10548 0.27371 0.0
C1142 C 0.78782 0.11024 0.28126 0.0
C1143 C 0.77073 0.10272 0.27234 0.0
H1144 H 0.842 0.74528 0.23633 0.0
H1145 H 0.89907 0.7607 0.26061 0.0
H1146 H 0.82711 0.77317 0.2535 0.0
H1147 H 0.88409 0.78879 0.27793 0.0
H1148 H 0.85228 0.85166 0.27288 0.0
H1149 H 0.86963 0.82077 0.26526 0.0
H1150 H 0.81929 0.78739 0.28618 0.0
H1151 H 0.80195 0.81805 0.29348 0.0
C1152 C 0.85126 0.75436 0.24575 0.0
C1153 C 0.87167 0.75088 0.2471 0.0
C1154 C 0.84274 0.77032 0.25565 0.0
C1155 C 0.85448 0.78323 0.26698 0.0
C1156 C 0.87474 0.77916 0.26916 0.0
C1157 C 0.88326 0.76301 0.2594 0.0
C1158 C 0.84513 0.83771 0.27619 0.0
C1159 C 0.82567 0.83723 0.28343 0.0
C1160 C 0.85507 0.82004 0.27194 0.0
C1161 C 0.84568 0.80168 0.2749 0.0
C1162 C 0.82675 0.80131 0.28343 0.0
C1163 C 0.81685 0.81888 0.28762 0.0
H1164 H 0.21909 0.89331 0.24979 0.0
H1165 H 0.17944 0.90212 0.20043 0.0
H1166 H 0.19178 0.87948 0.26916 0.0
H1167 H 0.15231 0.88827 0.21965 0.0
H1168 H 0.10411 0.86935 0.26073 0.0
H1169 H 0.13045 0.89161 0.24942 0.0
H1170 H 0.17413 0.84748 0.26454 0.0
H1171 H 0.14803 0.82546 0.27579 0.0
C1172 C 0.20449 0.89256 0.24321 0.0
C1173 C 0.20141 0.8985 0.22354 0.0
C1174 C 0.1889 0.88466 0.25427 0.0
C1175 C 0.16995 0.88275 0.24588 0.0
C1176 C 0.16668 0.88976 0.2266 0.0
C1177 C 0.18227 0.8975 0.21551 0.0
C1178 C 0.11939 0.86466 0.26202 0.0
C1179 C 0.12407 0.84563 0.26887 0.0
C1180 C 0.13442 0.87733 0.2555 0.0
C1181 C 0.15431 0.87122 0.25601 0.0
C1182 C 0.15898 0.8527 0.26414 0.0
C1183 C 0.144 0.84001 0.27042 0.0
H1184 H 0.09012 0.79448 0.74786 0.0
H1185 H 0.13907 0.76151 0.72353 0.0
H1186 H 0.1068 0.82541 0.73995 0.0
H1187 H 0.15646 0.79232 0.71668 0.0
H1188 H 0.18461 0.84909 0.70234 0.0
H1189 H 0.16067 0.82224 0.69999 0.0
H1190 H 0.13297 0.8427 0.75401 0.0
H1191 H 0.15623 0.87006 0.75557 0.0
C1192 C 0.10443 0.79393 0.74064 0.0
C1193 C 0.11348 0.77572 0.73647 0.0
C1194 C 0.11407 0.81162 0.73623 0.0
C1195 C 0.13319 0.81147 0.72803 0.0
C1196 C 0.14168 0.79314 0.72279 0.0
C1197 C 0.1318 0.77542 0.72681 0.0
C1198 C 0.17303 0.84807 0.71338 0.0
C1199 C 0.17231 0.86148 0.72924 0.0
C1200 C 0.15942 0.83259 0.71215 0.0
C1201 C 0.14507 0.82998 0.727 0.0
C1202 C 0.14362 0.84426 0.74215 0.0
C1203 C 0.15701 0.85997 0.74314 0.0
H1204 H 0.25062 0.13933 0.74068 0.0
H1205 H 0.2167 0.08833 0.75882 0.0
H1206 H 0.22144 0.15328 0.72512 0.0
H1207 H 0.18751 0.10182 0.7424 0.0
H1208 H 0.16943 0.17627 0.69533 0.0
H1209 H 0.19687 0.15352 0.70071 0.0
H1210 H 0.16522 0.12743 0.74986 0.0
H1211 H 0.13749 0.14947 0.74372 0.0
C1212 C 0.23701 0.13084 0.74085 0.0
C1213 C 0.23584 0.11291 0.75119 0.0
C1214 C 0.22025 0.13876 0.73176 0.0
C1215 C 0.20196 0.12877 0.7326 0.0
C1216 C 0.2012 0.11012 0.7418 0.0
C1217 C 0.21795 0.10233 0.75111 0.0
C1218 C 0.16815 0.16522 0.70687 0.0
C1219 C 0.1515 0.16476 0.71928 0.0
C1220 C 0.18394 0.15231 0.71009 0.0
C1221 C 0.18355 0.13895 0.72605 0.0
C1222 C 0.16609 0.1374 0.73736 0.0
C1223 C 0.15016 0.1501 0.7339 0.0
H1224 H 0.8864 0.22255 0.72351 0.0
H1225 H 0.89182 0.19463 0.78075 0.0
H1226 H 0.86853 0.19366 0.71116 0.0
H1227 H 0.87347 0.16621 0.76874 0.0
H1228 H 0.83995 0.1158 0.74521 0.0
H1229 H 0.86858 0.13788 0.74775 0.0
H1230 H 0.83537 0.18388 0.71822 0.0
H1231 H 0.80732 0.16184 0.71528 0.0
C1232 C 0.88406 0.21011 0.73334 0.0
C1233 C 0.89013 0.21098 0.75319 0.0
C1234 C 0.87379 0.19359 0.7263 0.0
C1235 C 0.86927 0.17774 0.73904 0.0
C1236 C 0.87679 0.17802 0.75844 0.0
C1237 C 0.88716 0.19444 0.76541 0.0
C1238 C 0.83906 0.13045 0.73879 0.0
C1239 C 0.82134 0.13725 0.73037 0.0
C1240 C 0.85539 0.14312 0.74032 0.0
C1241 C 0.8542 0.16275 0.73342 0.0
C1242 C 0.83696 0.16886 0.72355 0.0
C1243 C 0.82074 0.15626 0.72204 0.0
H1244 H 0.83285 0.83455 0.72012 0.0
H1245 H 0.8698 0.88294 0.7395 0.0
H1246 H 0.80353 0.85406 0.72659 0.0
H1247 H 0.84014 0.9029 0.74574 0.0
H1248 H 0.78421 0.91001 0.78717 0.0
H1249 H 0.81507 0.90009 0.77155 0.0
H1250 H 0.78287 0.88213 0.71928 0.0
H1251 H 0.75184 0.89157 0.73522 0.0
C1252 C 0.83469 0.84958 0.72536 0.0
C1253 C 0.85356 0.85714 0.72961 0.0
C1254 C 0.81785 0.86088 0.72888 0.0
C1255 C 0.81946 0.88003 0.7368 0.0
C1256 C 0.83843 0.8881 0.73983 0.0
C1257 C 0.85539 0.87675 0.73619 0.0
C1258 C 0.78375 0.9043 0.77219 0.0
C1259 C 0.76561 0.90117 0.76255 0.0
C1260 C 0.80148 0.89879 0.76315 0.0
C1261 C 0.80141 0.89009 0.74425 0.0
C1262 C 0.78336 0.88847 0.73399 0.0
C1263 C 0.76561 0.89391 0.74309 0.0
H1264 H 0.25519 0.14204 0.25632 0.0
H1265 H 0.23015 0.09526 0.2208 0.0
H1266 H 0.26939 0.15691 0.22675 0.0
H1267 H 0.24529 0.10934 0.19127 0.0
H1268 H 0.24721 0.15746 0.1426 0.0
H1269 H 0.23959 0.13596 0.1704 0.0
H1270 H 0.29197 0.15681 0.20081 0.0
H1271 H 0.29876 0.17918 0.17336 0.0
C1272 C 0.25317 0.13469 0.2422 0.0
C1273 C 0.24139 0.1177 0.24075 0.0
C1274 C 0.26144 0.1431 0.22521 0.0
C1275 C 0.25841 0.13444 0.20645 0.0
C1276 C 0.24756 0.11672 0.20531 0.0
C1277 C 0.23897 0.10857 0.22225 0.0
C1278 C 0.25734 0.15703 0.15502 0.0
C1279 C 0.27342 0.17008 0.15598 0.0
C1280 C 0.25302 0.14466 0.17102 0.0
C1281 C 0.26496 0.14486 0.18814 0.0
C1282 C 0.28209 0.15668 0.18819 0.0
C1283 C 0.28614 0.16934 0.17237 0.0
H1284 H 0.86464 0.23074 0.12247 0.0
H1285 H 0.85513 0.28059 0.1613 0.0
H1286 H 0.88647 0.21585 0.14708 0.0
H1287 H 0.87628 0.26554 0.18604 0.0
H1288 H 0.91338 0.2343 0.23021 0.0
H1289 H 0.9062 0.25199 0.19947 0.0
H1290 H 0.87552 0.20044 0.17723 0.0
H1291 H 0.88311 0.18278 0.20754 0.0
C1292 C 0.86776 0.23884 0.13595 0.0
C1293 C 0.85783 0.25658 0.14019 0.0
C1294 C 0.88009 0.23022 0.15014 0.0
C1295 C 0.88261 0.2392 0.16878 0.0
C1296 C 0.87466 0.25815 0.17191 0.0
C1297 C 0.86243 0.26678 0.15771 0.0
C1298 C 0.90532 0.22673 0.21861 0.0
C1299 C 0.89854 0.20728 0.22136 0.0
C1300 C 0.90124 0.23683 0.201 0.0
C1301 C 0.89028 0.22766 0.18586 0.0
C1302 C 0.88431 0.20789 0.18837 0.0
C1303 C 0.88842 0.19782 0.20589 0.0
H1304 H 0.73328 0.86164 0.24817 0.0
H1305 H 0.78204 0.88782 0.21615 0.0
H1306 H 0.71903 0.85025 0.21683 0.0
H1307 H 0.76818 0.87619 0.18516 0.0
H1308 H 0.73743 0.85806 0.12987 0.0
H1309 H 0.74203 0.87692 0.16052 0.0
H1310 H 0.72989 0.82421 0.19464 0.0
H1311 H 0.72497 0.8057 0.16433 0.0
C1312 C 0.74076 0.86522 0.23444 0.0
C1313 C 0.7589 0.8753 0.2346 0.0
C1314 C 0.73267 0.85867 0.21653 0.0
C1315 C 0.74258 0.86216 0.19852 0.0
C1316 C 0.76005 0.8734 0.19869 0.0
C1317 C 0.76811 0.87988 0.21652 0.0
C1318 C 0.73545 0.85067 0.14395 0.0
C1319 C 0.73115 0.83038 0.14473 0.0
C1320 C 0.7381 0.86142 0.16148 0.0
C1321 C 0.7364 0.85204 0.18002 0.0
C1322 C 0.73105 0.83199 0.18067 0.0
C1323 C 0.72846 0.8213 0.16325 0.0
H1324 H 0.06918 0.77049 0.2136 0.0
H1325 H 0.12265 0.75422 0.2445 0.0
H1326 H 0.08053 0.75264 0.18435 0.0
H1327 H 0.13456 0.73733 0.21511 0.0
H1328 H 0.15282 0.70345 0.16349 0.0
H1329 H 0.13301 0.71152 0.19251 0.0
H1330 H 0.10379 0.75778 0.15929 0.0
H1331 H 0.12279 0.74871 0.13003 0.0
C1332 C 0.08331 0.76295 0.21415 0.0
C1333 C 0.09513 0.76383 0.23122 0.0
C1334 C 0.08989 0.75283 0.19735 0.0
C1335 C 0.10858 0.74366 0.19718 0.0
C1336 C 0.11995 0.74387 0.21467 0.0
C1337 C 0.11321 0.7537 0.23154 0.0
C1338 C 0.1417 0.71493 0.16232 0.0
C1339 C 0.13938 0.72559 0.14466 0.0
C1340 C 0.13049 0.71973 0.17898 0.0
C1341 C 0.11713 0.73567 0.17849 0.0
C1342 C 0.1138 0.74533 0.1603 0.0
C1343 C 0.12472 0.7402 0.14347 0.0
H1344 H 0.2294 0.87744 0.81001 0.0
H1345 H 0.25528 0.83713 0.76777 0.0
H1346 H 0.23953 0.85596 0.83703 0.0
H1347 H 0.26442 0.81488 0.79465 0.0
H1348 H 0.2892 0.78254 0.84636 0.0
H1349 H 0.28455 0.8086 0.82191 0.0
H1350 H 0.2305 0.8262 0.85145 0.0
H1351 H 0.23594 0.8009 0.87645 0.0
C1352 C 0.23719 0.86387 0.80654 0.0
C1353 C 0.24146 0.85882 0.78685 0.0
C1354 C 0.24291 0.85148 0.82201 0.0
C1355 C 0.25264 0.83352 0.81812 0.0
C1356 C 0.25725 0.82871 0.79833 0.0
C1357 C 0.25189 0.84136 0.78287 0.0
C1358 C 0.27655 0.79229 0.84778 0.0
C1359 C 0.26289 0.78974 0.86321 0.0
C1360 C 0.27375 0.80709 0.83366 0.0
C1361 C 0.25698 0.81938 0.83444 0.0
C1362 C 0.24374 0.81726 0.85043 0.0
C1363 C 0.24679 0.8027 0.86477 0.0
H1364 H 0.15794 0.26279 0.75836 0.0
H1365 H 0.13903 0.21216 0.79249 0.0
H1366 H 0.17384 0.27659 0.78781 0.0
H1367 H 0.15512 0.22571 0.82171 0.0
H1368 H 0.1722 0.26181 0.87499 0.0
H1369 H 0.15288 0.25296 0.84565 0.0
H1370 H 0.20247 0.2685 0.80836 0.0
H1371 H 0.22152 0.27761 0.83747 0.0
C1372 C 0.15726 0.2546 0.77212 0.0
C1373 C 0.14737 0.23637 0.77313 0.0
C1374 C 0.16633 0.26248 0.78896 0.0
C1375 C 0.16562 0.25228 0.8071 0.0
C1376 C 0.15562 0.2341 0.80806 0.0
C1377 C 0.14659 0.22623 0.79126 0.0
C1378 C 0.17879 0.26362 0.86049 0.0
C1379 C 0.19838 0.27022 0.8585 0.0
C1380 C 0.16782 0.25845 0.84372 0.0
C1381 C 0.17624 0.25989 0.82472 0.0
C1382 C 0.1955 0.26739 0.82276 0.0
C1383 C 0.20646 0.27248 0.83947 0.0
H1384 H 0.77316 0.1218 0.80846 0.0
H1385 H 0.73041 0.15685 0.77639 0.0
H1386 H 0.76413 0.13862 0.83906 0.0
H1387 H 0.72174 0.17408 0.8069 0.0
H1388 H 0.69971 0.19356 0.86565 0.0
H1389 H 0.7061 0.17019 0.83891 0.0
H1390 H 0.76844 0.17105 0.8532 0.0
H1391 H 0.76195 0.19397 0.88022 0.0
C1392 C 0.76185 0.13314 0.80796 0.0
C1393 C 0.75256 0.13813 0.79004 0.0
C1394 C 0.75671 0.14278 0.82548 0.0
C1395 C 0.74221 0.15766 0.82544 0.0
C1396 C 0.73273 0.16244 0.80752 0.0
C1397 C 0.73782 0.15273 0.79 0.0
C1398 C 0.7147 0.18835 0.86338 0.0
C1399 C 0.73037 0.1957 0.87488 0.0
C1400 C 0.71839 0.17512 0.84795 0.0
C1401 C 0.73782 0.16907 0.84369 0.0
C1402 C 0.75328 0.17534 0.85613 0.0
C1403 C 0.74958 0.1885 0.87162 0.0
H1404 H 0.81782 0.7265 0.8351 0.0
H1405 H 0.86404 0.74268 0.87617 0.0
H1406 H 0.83815 0.73762 0.80762 0.0
H1407 H 0.88466 0.7537 0.84846 0.0
H1408 H 0.89187 0.80291 0.79972 0.0
H1409 H 0.88004 0.78312 0.82734 0.0
H1410 H 0.8683 0.73449 0.78751 0.0
H1411 H 0.88 0.75451 0.75969 0.0
C1412 C 0.83257 0.73198 0.83819 0.0
C1413 C 0.83926 0.73403 0.85776 0.0
C1414 C 0.84429 0.73822 0.82241 0.0
C1415 C 0.86293 0.74673 0.82589 0.0
C1416 C 0.87024 0.74741 0.84539 0.0
C1417 C 0.85851 0.74102 0.86122 0.0
C1418 C 0.88701 0.78791 0.79688 0.0
C1419 C 0.88655 0.78034 0.77754 0.0
C1420 C 0.88044 0.77647 0.81275 0.0
C1421 C 0.8732 0.75725 0.8096 0.0
C1422 C 0.87366 0.74932 0.79035 0.0
C1423 C 0.88034 0.76076 0.77445 0.0
H1424 H 0.12033 0.26481 0.17175 0.0
H1425 H 0.15622 0.27613 0.22344 0.0
H1426 H 0.1503 0.25917 0.15229 0.0
H1427 H 0.18601 0.27006 0.20423 0.0
H1428 H 0.23772 0.26754 0.16164 0.0
H1429 H 0.20771 0.28043 0.17736 0.0
H1430 H 0.17401 0.2322 0.15231 0.0
H1431 H 0.20367 0.21966 0.13643 0.0
C1432 C 0.13461 0.26635 0.17887 0.0
C1433 C 0.13595 0.27067 0.19914 0.0
C1434 C 0.15175 0.26302 0.16778 0.0
C1435 C 0.17052 0.26394 0.17679 0.0
C1436 C 0.17183 0.26938 0.1968 0.0
C1437 C 0.15472 0.27273 0.20785 0.0
C1438 C 0.22385 0.25981 0.15946 0.0
C1439 C 0.22303 0.24255 0.14793 0.0
C1440 C 0.2067 0.26716 0.16844 0.0
C1441 C 0.18847 0.25739 0.16599 0.0
C1442 C 0.18771 0.24031 0.15419 0.0
C1443 C 0.20478 0.23299 0.14526 0.0
H1444 H 0.23296 0.71412 0.83701 0.0
H1445 H 0.19626 0.71455 0.88927 0.0
H1446 H 0.20375 0.70948 0.81647 0.0
H1447 H 0.16706 0.70863 0.869 0.0
H1448 H 0.11899 0.72992 0.8259 0.0
H1449 H 0.14723 0.72723 0.84809 0.0
H1450 H 0.17744 0.69064 0.80506 0.0
H1451 H 0.14963 0.69448 0.78251 0.0
C1452 C 0.21867 0.71255 0.84411 0.0
C1453 C 0.21677 0.71486 0.86463 0.0
C1454 C 0.20187 0.70981 0.83237 0.0
C1455 C 0.18288 0.70894 0.84101 0.0
C1456 C 0.1813 0.70981 0.86175 0.0
C1457 C 0.19804 0.71298 0.8734 0.0
C1458 C 0.1316 0.72113 0.82136 0.0
C1459 C 0.13228 0.7126 0.80247 0.0
C1460 C 0.14779 0.71944 0.83411 0.0
C1461 C 0.16481 0.70882 0.82837 0.0
C1462 C 0.16488 0.69935 0.80984 0.0
C1463 C 0.14888 0.70141 0.79695 0.0
H1464 H 0.28991 0.23967 0.87618 0.0
H1465 H 0.24537 0.20514 0.90635 0.0
H1466 H 0.30098 0.21002 0.85869 0.0
H1467 H 0.25618 0.17569 0.88872 0.0
H1468 H 0.28308 0.12347 0.85722 0.0
H1469 H 0.28207 0.151 0.88083 0.0
H1470 H 0.28316 0.19247 0.83218 0.0
H1471 H 0.28433 0.1652 0.80882 0.0
C1472 C 0.28283 0.22568 0.87944 0.0
C1473 C 0.26659 0.22474 0.89236 0.0
C1474 C 0.28908 0.20874 0.86937 0.0
C1475 C 0.27923 0.19061 0.87211 0.0
C1476 C 0.26413 0.18939 0.88634 0.0
C1477 C 0.25785 0.20631 0.89635 0.0
C1478 C 0.28334 0.13849 0.85166 0.0
C1479 C 0.28358 0.14223 0.83122 0.0
C1480 C 0.28276 0.15421 0.86514 0.0
C1481 C 0.28261 0.17388 0.85835 0.0
C1482 C 0.28361 0.17751 0.83791 0.0
C1483 C 0.28404 0.16187 0.8245 0.0
H1484 H 0.78836 0.28072 0.89761 0.0
H1485 H 0.75782 0.26526 0.84363 0.0
H1486 H 0.81897 0.28539 0.87899 0.0
H1487 H 0.78839 0.26918 0.82515 0.0
H1488 H 0.84257 0.28735 0.79316 0.0
H1489 H 0.81274 0.29093 0.81294 0.0
H1490 H 0.84284 0.26472 0.86295 0.0
H1491 H 0.87306 0.26198 0.84323 0.0
C1492 C 0.78814 0.27859 0.88173 0.0
C1493 C 0.77073 0.2726 0.87206 0.0
C1494 C 0.80572 0.28107 0.87108 0.0
C1495 C 0.80624 0.27749 0.85058 0.0
C1496 C 0.78855 0.27234 0.84086 0.0
C1497 C 0.77098 0.27002 0.85147 0.0
C1498 C 0.84287 0.28255 0.80846 0.0
C1499 C 0.86003 0.27417 0.81664 0.0
C1500 C 0.82574 0.28452 0.81978 0.0
C1501 C 0.82524 0.27785 0.83947 0.0
C1502 C 0.84271 0.27019 0.8479 0.0
C1503 C 0.86 0.26849 0.8366 0.0
H1504 H 0.72297 0.83625 0.80927 0.0
H1505 H 0.72116 0.87418 0.86071 0.0
H1506 H 0.73199 0.80837 0.82999 0.0
H1507 H 0.73005 0.84597 0.8817 0.0
H1508 H 0.77853 0.79939 0.90033 0.0
H1509 H 0.76095 0.82689 0.88518 0.0
H1510 H 0.72146 0.78576 0.85624 0.0
H1511 H 0.73935 0.75813 0.87118 0.0
C1512 C 0.72422 0.83855 0.82509 0.0
C1513 C 0.7216 0.85742 0.83338 0.0
C1514 C 0.7292 0.82251 0.83701 0.0
C1515 C 0.73173 0.82497 0.85749 0.0
C1516 C 0.72832 0.84369 0.86592 0.0
C1517 C 0.7232 0.85979 0.85396 0.0
C1518 C 0.76589 0.79623 0.89099 0.0
C1519 C 0.76048 0.77663 0.88666 0.0
C1520 C 0.75571 0.812 0.88245 0.0
C1521 C 0.73993 0.80848 0.86938 0.0
C1522 C 0.73375 0.7889 0.86605 0.0
C1523 C 0.74393 0.77309 0.87463 0.0
H1524 H 0.76278 0.74071 0.12923 0.0
H1525 H 0.79715 0.77472 0.08751 0.0
H1526 H 0.79294 0.72543 0.14163 0.0
H1527 H 0.8273 0.75874 0.09907 0.0
H1528 H 0.87495 0.75282 0.14805 0.0
H1529 H 0.84701 0.76191 0.12733 0.0
H1530 H 0.82046 0.70463 0.13793 0.0
H1531 H 0.84805 0.69605 0.15951 0.0
C1532 C 0.77676 0.74446 0.12234 0.0
C1533 C 0.77773 0.75907 0.10767 0.0
C1534 C 0.7941 0.73563 0.12933 0.0
C1535 C 0.81268 0.74101 0.12152 0.0
C1536 C 0.81335 0.7546 0.10579 0.0
C1537 C 0.79607 0.76368 0.09908 0.0
C1538 C 0.86336 0.74203 0.14555 0.0
C1539 C 0.86348 0.72387 0.15555 0.0
C1540 C 0.84731 0.74718 0.13359 0.0
C1541 C 0.83123 0.73412 0.13117 0.0
C1542 C 0.83229 0.71526 0.13989 0.0
C1543 C 0.84817 0.71027 0.1521 0.0
H1544 H 0.24221 0.76761 0.11029 0.0
H1545 H 0.18479 0.79568 0.11096 0.0
H1546 H 0.25783 0.79954 0.11722 0.0
H1547 H 0.20029 0.82737 0.11801 0.0
H1548 H 0.23129 0.88441 0.12419 0.0
H1549 H 0.22255 0.85409 0.10628 0.0
H1550 H 0.25748 0.8199 0.14748 0.0
H1551 H 0.26621 0.84998 0.1651 0.0
C1552 C 0.23297 0.78062 0.11171 0.0
C1553 C 0.21228 0.77914 0.11036 0.0
C1554 C 0.2419 0.79888 0.11563 0.0
C1555 C 0.2303 0.81597 0.11813 0.0
C1556 C 0.20968 0.81456 0.11586 0.0
C1557 C 0.20077 0.79635 0.11207 0.0
C1558 C 0.23758 0.87046 0.12895 0.0
C1559 C 0.24918 0.86943 0.14614 0.0
C1560 C 0.23249 0.85312 0.11882 0.0
C1561 C 0.23912 0.8346 0.12565 0.0
C1562 C 0.25221 0.83391 0.14176 0.0
C1563 C 0.25712 0.85114 0.15194 0.0
H1564 H 0.75388 0.11112 0.16305 0.0
H1565 H 0.71464 0.14702 0.19835 0.0
H1566 H 0.76682 0.14078 0.14715 0.0
H1567 H 0.72649 0.17663 0.18166 0.0
H1568 H 0.76975 0.22641 0.16924 0.0
H1569 H 0.75429 0.19664 0.18232 0.0
H1570 H 0.76293 0.16748 0.12593 0.0
H1571 H 0.77948 0.19693 0.11341 0.0
C1572 C 0.7476 0.12535 0.16692 0.0
C1573 C 0.7334 0.12687 0.18197 0.0
C1574 C 0.75498 0.14239 0.1578 0.0
C1575 C 0.74797 0.16125 0.1633 0.0
C1576 C 0.73274 0.16249 0.17746 0.0
C1577 C 0.72573 0.14551 0.18686 0.0
C1578 C 0.76834 0.21358 0.15971 0.0
C1579 C 0.7759 0.21388 0.1404 0.0
C1580 C 0.75929 0.19655 0.1671 0.0
C1581 C 0.7572 0.17956 0.15517 0.0
C1582 C 0.76455 0.18008 0.1357 0.0
C1583 C 0.77396 0.19699 0.12846 0.0
H1584 H 0.65969 0.61581 0.73653 0.0
H1585 H 0.64778 0.6289 0.79794 0.0
H1586 H 0.63718 0.64192 0.72644 0.0
H1587 H 0.62505 0.65534 0.78779 0.0
H1588 H 0.59142 0.68505 0.71091 0.0
H1589 H 0.60281 0.65439 0.72611 0.0
H1590 H 0.63272 0.688 0.77152 0.0
H1591 H 0.6211 0.7187 0.75646 0.0
C1592 C 0.65183 0.62399 0.74787 0.0
C1593 C 0.65554 0.62048 0.76799 0.0
C1594 C 0.63883 0.63888 0.7421 0.0
C1595 C 0.62941 0.65074 0.75634 0.0
C1596 C 0.63222 0.64648 0.77653 0.0
C1597 C 0.64509 0.63131 0.78232 0.0
C1598 C 0.60009 0.68588 0.72437 0.0
C1599 C 0.60569 0.70425 0.73232 0.0
C1600 C 0.6066 0.66833 0.73306 0.0
C1601 C 0.61883 0.66881 0.74986 0.0
C1602 C 0.62319 0.68715 0.75866 0.0
C1603 C 0.61667 0.70474 0.74995 0.0
H1604 H 0.2869 0.60641 0.70492 0.0
H1605 H 0.25424 0.61946 0.75831 0.0
H1606 H 0.31597 0.62234 0.71861 0.0
H1607 H 0.28374 0.63496 0.77244 0.0
H1608 H 0.32518 0.68998 0.77031 0.0
H1609 H 0.29924 0.66584 0.76504 0.0
H1610 H 0.34232 0.62446 0.74214 0.0
H1611 H 0.36841 0.64913 0.74692 0.0
C1612 C 0.28609 0.61228 0.71982 0.0
C1613 C 0.2682 0.61204 0.73041 0.0
C1614 C 0.30286 0.62126 0.72777 0.0
C1615 C 0.30217 0.63015 0.74656 0.0
C1616 C 0.28466 0.62857 0.75777 0.0
C1617 C 0.26779 0.61963 0.74974 0.0
C1618 C 0.32921 0.67563 0.76441 0.0
C1619 C 0.34877 0.67155 0.75869 0.0
C1620 C 0.31432 0.66166 0.76159 0.0
C1621 C 0.31863 0.64322 0.75303 0.0
C1622 C 0.33846 0.63866 0.74849 0.0
C1623 C 0.35341 0.65273 0.75127 0.0
H1624 H 0.3452 0.24983 0.73962 0.0
H1625 H 0.36654 0.28752 0.69258 0.0
H1626 H 0.33001 0.27855 0.75563 0.0
H1627 H 0.35119 0.31595 0.70828 0.0
H1628 H 0.33511 0.36671 0.74707 0.0
H1629 H 0.35374 0.33729 0.73733 0.0
H1630 H 0.30242 0.30096 0.74896 0.0
H1631 H 0.28403 0.33017 0.75906 0.0
C1632 C 0.34656 0.26421 0.73269 0.0
C1633 C 0.35695 0.26644 0.71482 0.0
C1634 C 0.33791 0.28063 0.74184 0.0
C1635 C 0.33956 0.29953 0.7333 0.0
C1636 C 0.35001 0.30167 0.71546 0.0
C1637 C 0.35861 0.28533 0.70634 0.0
C1638 C 0.32797 0.35237 0.7479 0.0
C1639 C 0.30808 0.35073 0.75359 0.0
C1640 C 0.33858 0.33557 0.74221 0.0
C1641 C 0.32945 0.31686 0.74213 0.0
C1642 C 0.30991 0.31513 0.74897 0.0
C1643 C 0.29933 0.33189 0.75464 0.0
H1644 H 0.65988 0.28558 0.75145 0.0
H1645 H 0.62523 0.3386 0.74288 0.0
H1646 H 0.68997 0.30392 0.74451 0.0
H1647 H 0.6556 0.35721 0.73635 0.0
H1648 H 0.71055 0.37578 0.70072 0.0
H1649 H 0.68028 0.35868 0.71008 0.0
H1650 H 0.71154 0.32941 0.75757 0.0
H1651 H 0.74204 0.34624 0.74787 0.0
C1652 C 0.65872 0.30124 0.74829 0.0
C1653 C 0.64021 0.31067 0.7476 0.0
C1654 C 0.676 0.31178 0.74445 0.0
C1655 C 0.67516 0.332 0.73988 0.0
C1656 C 0.65666 0.34156 0.73959 0.0
C1657 C 0.63931 0.33097 0.74342 0.0
C1658 C 0.71097 0.36566 0.71314 0.0
C1659 C 0.72864 0.36224 0.72352 0.0
C1660 C 0.69358 0.35602 0.71862 0.0
C1661 C 0.6935 0.34279 0.73462 0.0
C1662 C 0.7112 0.3394 0.74505 0.0
C1663 C 0.72863 0.34902 0.73952 0.0
H1664 H 0.61265 0.36874 0.23127 0.0
H1665 H 0.65293 0.33226 0.19764 0.0
H1666 H 0.5943 0.33918 0.24124 0.0
H1667 H 0.63489 0.30286 0.20775 0.0
H1668 H 0.59813 0.25152 0.22697 0.0
H1669 H 0.60475 0.28241 0.20916 0.0
H1670 H 0.60585 0.31399 0.26477 0.0
H1671 H 0.59911 0.28343 0.28236 0.0
C1672 C 0.61722 0.35449 0.22554 0.0
C1673 C 0.63439 0.35272 0.21398 0.0
C1674 C 0.6068 0.33757 0.23133 0.0
C1675 C 0.61336 0.31867 0.22555 0.0
C1676 C 0.62939 0.31717 0.2124 0.0
C1677 C 0.63982 0.33403 0.20671 0.0
C1678 C 0.59948 0.26516 0.23528 0.0
C1679 C 0.5984 0.26507 0.25604 0.0
C1680 C 0.60326 0.2828 0.22511 0.0
C1681 C 0.60582 0.30064 0.23555 0.0
C1682 C 0.60366 0.3006 0.25623 0.0
C1683 C 0.60004 0.28302 0.26635 0.0
H1684 H 0.69759 0.60587 0.25027 0.0
H1685 H 0.72429 0.64502 0.20741 0.0
H1686 H 0.66695 0.62468 0.24863 0.0
H1687 H 0.69388 0.66443 0.20631 0.0
H1688 H 0.63448 0.69102 0.19889 0.0
H1689 H 0.66011 0.66577 0.19671 0.0
H1690 H 0.65517 0.65567 0.25973 0.0
H1691 H 0.62901 0.68033 0.26165 0.0
C1692 C 0.69689 0.61854 0.24049 0.0
C1693 C 0.71336 0.62411 0.22907 0.0
C1694 C 0.67934 0.62937 0.23961 0.0
C1695 C 0.67792 0.64616 0.22745 0.0
C1696 C 0.69429 0.6514 0.21562 0.0
C1697 C 0.7118 0.6404 0.21634 0.0
C1698 C 0.63854 0.683 0.21216 0.0
C1699 C 0.62987 0.68768 0.23047 0.0
C1700 C 0.65338 0.66869 0.21096 0.0
C1701 C 0.66002 0.65895 0.22809 0.0
C1702 C 0.65037 0.66274 0.24618 0.0
C1703 C 0.63534 0.6769 0.24733 0.0
H1704 H 0.35523 0.62172 0.23436 0.0
H1705 H 0.30236 0.65694 0.22732 0.0
H1706 H 0.37514 0.65214 0.23551 0.0
H1707 H 0.32197 0.68691 0.22848 0.0
H1708 H 0.35998 0.73866 0.22046 0.0
H1709 H 0.34744 0.7062 0.21074 0.0
H1710 H 0.37752 0.67967 0.2605 0.0
H1711 H 0.39029 0.71202 0.27004 0.0
C1712 C 0.34794 0.6359 0.23283 0.0
C1713 C 0.32728 0.63702 0.23096 0.0
C1714 C 0.35928 0.65325 0.23349 0.0
C1715 C 0.35011 0.67188 0.23196 0.0
C1716 C 0.32953 0.67281 0.22935 0.0
C1717 C 0.31826 0.65561 0.22893 0.0
C1718 C 0.36428 0.72582 0.22904 0.0
C1719 C 0.3758 0.72788 0.24619 0.0
C1720 C 0.35708 0.70727 0.2235 0.0
C1721 C 0.36129 0.69047 0.23503 0.0
C1722 C 0.37412 0.69232 0.25127 0.0
C1723 C 0.38129 0.71088 0.25682 0.0
H1724 H 0.34892 0.29286 0.20265 0.0
H1725 H 0.37445 0.32333 0.25267 0.0
H1726 H 0.31916 0.31307 0.20542 0.0
H1727 H 0.34446 0.34275 0.25623 0.0
H1728 H 0.29284 0.3824 0.25528 0.0
H1729 H 0.32366 0.36732 0.2445 0.0
H1730 H 0.29139 0.31513 0.22613 0.0
H1731 H 0.26039 0.33098 0.23585 0.0
C1732 C 0.34819 0.30403 0.21413 0.0
C1733 C 0.3639 0.30653 0.2275 0.0
C1734 C 0.33108 0.31548 0.21585 0.0
C1735 C 0.32922 0.32943 0.23118 0.0
C1736 C 0.34538 0.33242 0.24402 0.0
C1737 C 0.3626 0.32121 0.24208 0.0
C1738 C 0.29238 0.3678 0.24867 0.0
C1739 C 0.27438 0.3577 0.24656 0.0
C1740 C 0.31004 0.35909 0.2426 0.0
C1741 C 0.31015 0.33983 0.23477 0.0
C1742 C 0.29193 0.33006 0.2319 0.0
C1743 C 0.27415 0.33903 0.23756 0.0
H1744 H 0.75446 0.63532 0.75941 0.0
H1745 H 0.74003 0.58581 0.72168 0.0
H1746 H 0.77083 0.65163 0.7317 0.0
H1747 H 0.75555 0.60243 0.69376 0.0
H1748 H 0.79024 0.63472 0.64671 0.0
H1749 H 0.78384 0.61578 0.67696 0.0
H1750 H 0.75743 0.66763 0.70358 0.0
H1751 H 0.76437 0.68644 0.67393 0.0
C1752 C 0.75502 0.62783 0.74524 0.0
C1753 C 0.74576 0.60946 0.74259 0.0
C1754 C 0.76427 0.63721 0.72933 0.0
C1755 C 0.76414 0.62853 0.71039 0.0
C1756 C 0.75605 0.60951 0.70813 0.0
C1757 C 0.74704 0.60001 0.72412 0.0
C1758 C 0.78328 0.64203 0.65917 0.0
C1759 C 0.77772 0.662 0.65796 0.0
C1760 C 0.77957 0.63121 0.67645 0.0
C1761 C 0.77019 0.64019 0.69275 0.0
C1762 C 0.76507 0.6603 0.69154 0.0
C1763 C 0.76886 0.67106 0.67441 0.0
H1764 H 0.33842 0.76151 0.73 0.0
H1765 H 0.38471 0.74048 0.69138 0.0
H1766 H 0.32206 0.77708 0.70194 0.0
H1767 H 0.36924 0.7571 0.66345 0.0
H1768 H 0.32098 0.76293 0.61566 0.0
H1769 H 0.34259 0.75291 0.64259 0.0
H1770 H 0.32083 0.80158 0.67811 0.0
H1771 H 0.29827 0.81062 0.65149 0.0
C1772 C 0.34528 0.76061 0.71553 0.0
C1773 C 0.36261 0.74962 0.71274 0.0
C1774 C 0.33603 0.76969 0.69942 0.0
C1775 C 0.34422 0.76833 0.68025 0.0
C1776 C 0.36218 0.75809 0.6778 0.0
C1777 C 0.37113 0.74864 0.69382 0.0
C1778 C 0.32121 0.77172 0.62907 0.0
C1779 C 0.30791 0.7874 0.63163 0.0
C1780 C 0.33364 0.76603 0.64457 0.0
C1781 C 0.3333 0.77621 0.66279 0.0
C1782 C 0.32109 0.79298 0.66459 0.0
C1783 C 0.30834 0.79834 0.64927 0.0
H1784 H 0.21491 0.36847 0.72619 0.0
H1785 H 0.25554 0.40083 0.68894 0.0
H1786 H 0.20042 0.35305 0.69678 0.0
H1787 H 0.24147 0.38527 0.6598 0.0
H1788 H 0.21184 0.35769 0.60833 0.0
H1789 H 0.21403 0.37927 0.63736 0.0
H1790 H 0.21465 0.32786 0.67538 0.0
H1791 H 0.2121 0.30653 0.64661 0.0
C1792 C 0.22042 0.37261 0.71172 0.0
C1793 C 0.23654 0.38557 0.70984 0.0
C1794 C 0.21221 0.36373 0.6949 0.0
C1795 C 0.21996 0.36774 0.67597 0.0
C1796 C 0.23502 0.38194 0.67409 0.0
C1797 C 0.24322 0.39074 0.69084 0.0
C1798 C 0.21206 0.35109 0.62294 0.0
C1799 C 0.21211 0.33046 0.62522 0.0
C1800 C 0.21334 0.36341 0.63954 0.0
C1801 C 0.21463 0.35528 0.65868 0.0
C1802 C 0.21343 0.33466 0.66092 0.0
C1803 C 0.2122 0.3224 0.64438 0.0
H1804 H 0.64747 0.22603 0.60835 0.0
H1805 H 0.6923 0.22752 0.6539 0.0
H1806 H 0.62173 0.22485 0.63392 0.0
H1807 H 0.6669 0.22666 0.67917 0.0
H1808 H 0.62157 0.21958 0.72367 0.0
H1809 H 0.64077 0.20805 0.69526 0.0
H1810 H 0.60967 0.24926 0.65756 0.0
H1811 H 0.59025 0.2603 0.68569 0.0
C1812 C 0.6518 0.22595 0.62378 0.0
C1813 C 0.67184 0.22713 0.62915 0.0
C1814 C 0.63711 0.22523 0.6384 0.0
C1815 C 0.64226 0.22556 0.65859 0.0
C1816 C 0.66238 0.22598 0.66381 0.0
C1817 C 0.67696 0.22677 0.64928 0.0
C1818 C 0.61838 0.22563 0.70917 0.0
C1819 C 0.60476 0.24112 0.70694 0.0
C1820 C 0.62945 0.21915 0.69293 0.0
C1821 C 0.62707 0.22809 0.67426 0.0
C1822 C 0.6119 0.24204 0.67169 0.0
C1823 C 0.60084 0.24848 0.68788 0.0
H1824 H 0.73639 0.37535 0.24705 0.0
H1825 H 0.68538 0.38106 0.2852 0.0
H1826 H 0.75524 0.36119 0.27432 0.0
H1827 H 0.70427 0.36667 0.31252 0.0
H1828 H 0.76622 0.30793 0.31654 0.0
H1829 H 0.75186 0.32865 0.2909 0.0
H1830 H 0.73387 0.37113 0.33517 0.0
H1831 H 0.74836 0.35019 0.36105 0.0
C1832 C 0.72926 0.37374 0.26132 0.0
C1833 C 0.70934 0.37907 0.26396 0.0
C1834 C 0.74006 0.36563 0.27691 0.0
C1835 C 0.73118 0.36272 0.29548 0.0
C1836 C 0.71154 0.36891 0.2984 0.0
C1837 C 0.70068 0.37699 0.28274 0.0
C1838 C 0.75949 0.32184 0.32079 0.0
C1839 C 0.75831 0.32744 0.34076 0.0
C1840 C 0.75136 0.33376 0.30609 0.0
C1841 C 0.74171 0.35148 0.31105 0.0
C1842 C 0.74112 0.35747 0.33098 0.0
C1843 C 0.74951 0.34559 0.34573 0.0
H1844 H 0.6171 0.75633 0.30742 0.0
H1845 H 0.66623 0.76092 0.2668 0.0
H1846 H 0.63977 0.75927 0.33533 0.0
H1847 H 0.68902 0.76308 0.29461 0.0
H1848 H 0.72622 0.77676 0.3469 0.0
H1849 H 0.70091 0.78176 0.32178 0.0
H1850 H 0.66366 0.73866 0.35094 0.0
H1851 H 0.68875 0.73432 0.37652 0.0
C1852 C 0.63275 0.75813 0.30448 0.0
C1853 C 0.63995 0.7583 0.28497 0.0
C1854 C 0.64576 0.75968 0.32046 0.0
C1855 C 0.66625 0.76122 0.31727 0.0
C1856 C 0.67332 0.76218 0.29767 0.0
C1857 C 0.66028 0.76085 0.28169 0.0
C1858 C 0.71247 0.7686 0.34809 0.0
C1859 C 0.70948 0.75502 0.36353 0.0
C1860 C 0.69802 0.77137 0.33363 0.0
C1861 C 0.68036 0.76041 0.33413 0.0
C1862 C 0.67699 0.74751 0.35016 0.0
C1863 C 0.69139 0.74493 0.36479 0.0
H1864 H 0.20317 0.66617 0.33552 0.0
H1865 H 0.23255 0.63316 0.38165 0.0
H1866 H 0.21219 0.64109 0.31155 0.0
H1867 H 0.24142 0.60759 0.35753 0.0
H1868 H 0.28339 0.59665 0.30253 0.0
H1869 H 0.26595 0.60963 0.33116 0.0
H1870 H 0.21097 0.60785 0.29852 0.0
H1871 H 0.22863 0.59529 0.26959 0.0
C1872 C 0.2111 0.65322 0.34063 0.0
C1873 C 0.21749 0.65176 0.36034 0.0
C1874 C 0.21613 0.6387 0.32691 0.0
C1875 C 0.22773 0.62241 0.33258 0.0
C1876 C 0.2327 0.62012 0.35268 0.0
C1877 C 0.22754 0.63467 0.3665 0.0
C1878 C 0.26751 0.59862 0.30159 0.0
C1879 C 0.25743 0.5954 0.28371 0.0
C1880 C 0.25745 0.60588 0.3181 0.0
C1881 C 0.23709 0.61002 0.31705 0.0
C1882 C 0.22672 0.60512 0.29967 0.0
C1883 C 0.23682 0.59791 0.28312 0.0
H1884 H 0.35625 0.22692 0.37027 0.0
H1885 H 0.31579 0.18545 0.34328 0.0
H1886 H 0.37678 0.22612 0.34051 0.0
H1887 H 0.33636 0.18452 0.31367 0.0
H1888 H 0.3549 0.22425 0.2591 0.0
H1889 H 0.3399 0.21185 0.28939 0.0
H1890 H 0.39773 0.20703 0.31621 0.0
H1891 H 0.4128 0.21944 0.28569 0.0
C1892 C 0.35207 0.2172 0.35823 0.0
C1893 C 0.33426 0.20654 0.35893 0.0
C1894 C 0.36387 0.21665 0.34122 0.0
C1895 C 0.35801 0.20543 0.32468 0.0
C1896 C 0.34107 0.19349 0.32609 0.0
C1897 C 0.32932 0.19403 0.34305 0.0
C1898 C 0.36445 0.21993 0.27123 0.0
C1899 C 0.38496 0.22292 0.27012 0.0
C1900 C 0.35589 0.21276 0.28857 0.0
C1901 C 0.36765 0.20864 0.30523 0.0
C1902 C 0.38832 0.21024 0.30363 0.0
C1903 C 0.39693 0.21718 0.28613 0.0
H1904 H 0.71348 0.70343 0.59827 0.0
H1905 H 0.74469 0.75399 0.62182 0.0
H1906 H 0.68236 0.71686 0.61052 0.0
H1907 H 0.71346 0.76763 0.63376 0.0
H1908 H 0.6655 0.75909 0.68265 0.0
H1909 H 0.69433 0.7547 0.66178 0.0
H1910 H 0.65647 0.74308 0.61157 0.0
H1911 H 0.62726 0.74746 0.63278 0.0
C1912 C 0.71361 0.71771 0.60554 0.0
C1913 C 0.73154 0.72747 0.60947 0.0
C1914 C 0.69574 0.72547 0.61245 0.0
C1915 C 0.69551 0.74314 0.6234 0.0
C1916 C 0.71325 0.7538 0.62567 0.0
C1917 C 0.73111 0.74603 0.61878 0.0
C1918 C 0.66327 0.75585 0.66711 0.0
C1919 C 0.64416 0.75339 0.65937 0.0
C1920 C 0.67982 0.75356 0.65507 0.0
C1921 C 0.6777 0.74861 0.63499 0.0
C1922 C 0.65853 0.74684 0.62702 0.0
C1923 C 0.64186 0.74936 0.6391 0.0
H1924 H 0.74843 0.22758 0.34808 0.0
H1925 H 0.70869 0.25431 0.39042 0.0
H1926 H 0.72073 0.20926 0.33376 0.0
H1927 H 0.68107 0.23668 0.37582 0.0
H1928 H 0.6327 0.20248 0.34878 0.0
H1929 H 0.66324 0.20726 0.36759 0.0
H1930 H 0.69432 0.22081 0.3133 0.0
H1931 H 0.66416 0.21544 0.29465 0.0
C1932 C 0.73386 0.22924 0.35456 0.0
C1933 C 0.73063 0.24261 0.37011 0.0
C1934 C 0.71798 0.21884 0.3463 0.0
C1935 C 0.69861 0.22174 0.35341 0.0
C1936 C 0.69575 0.23393 0.37003 0.0
C1937 C 0.7116 0.2442 0.37832 0.0
C1938 C 0.6462 0.20605 0.34089 0.0
C1939 C 0.64602 0.20889 0.32031 0.0
C1940 C 0.66366 0.20886 0.35165 0.0
C1941 C 0.68121 0.21463 0.342 0.0
C1942 C 0.6812 0.21615 0.32125 0.0
C1943 C 0.66382 0.21327 0.31053 0.0
H1944 H 0.79129 0.64979 0.26871 0.0
H1945 H 0.77559 0.60117 0.30711 0.0
H1946 H 0.79361 0.67164 0.29711 0.0
H1947 H 0.77841 0.62304 0.33581 0.0
H1948 H 0.74964 0.67532 0.37039 0.0
H1949 H 0.75683 0.64956 0.34647 0.0
H1950 H 0.80921 0.68126 0.32791 0.0
H1951 H 0.80167 0.70747 0.35176 0.0
C1952 C 0.78879 0.64366 0.2833 0.0
C1953 C 0.78291 0.62388 0.28569 0.0
C1954 C 0.7903 0.65616 0.29963 0.0
C1955 C 0.78598 0.64913 0.31871 0.0
C1956 C 0.78151 0.62895 0.32124 0.0
C1957 C 0.77999 0.61642 0.30485 0.0
C1958 C 0.76283 0.67671 0.36138 0.0
C1959 C 0.77495 0.69353 0.36272 0.0
C1960 C 0.76709 0.66181 0.34781 0.0
C1961 C 0.78359 0.66336 0.33526 0.0
C1962 C 0.79627 0.67975 0.33725 0.0
C1963 C 0.79199 0.69473 0.35089 0.0
H1964 H 0.28544 0.71403 0.37743 0.0
H1965 H 0.2444 0.75996 0.36045 0.0
H1966 H 0.3121 0.73155 0.36068 0.0
H1967 H 0.27122 0.77771 0.34388 0.0
H1968 H 0.31661 0.78184 0.2918 0.0
H1969 H 0.29024 0.77104 0.31375 0.0
H1970 H 0.33291 0.7615 0.36041 0.0
H1971 H 0.35949 0.77216 0.33819 0.0
C1972 C 0.28218 0.72801 0.37032 0.0
C1973 C 0.26281 0.73553 0.37005 0.0
C1974 C 0.2975 0.73815 0.36088 0.0
C1975 C 0.29376 0.75601 0.35094 0.0
C1976 C 0.2745 0.76388 0.35126 0.0
C1977 C 0.25916 0.75374 0.36076 0.0
C1978 C 0.32034 0.77776 0.30685 0.0
C1979 C 0.34011 0.77764 0.31324 0.0
C1980 C 0.3052 0.7717 0.31948 0.0
C1981 C 0.30951 0.76529 0.33877 0.0
C1982 C 0.32919 0.76615 0.34552 0.0
C1983 C 0.34437 0.77235 0.33287 0.0
H1984 H 0.24504 0.27568 0.39832 0.0
H1985 H 0.26023 0.25001 0.34177 0.0
H1986 H 0.22937 0.30367 0.38134 0.0
H1987 H 0.24451 0.2777 0.32492 0.0
H1988 H 0.20469 0.32177 0.29835 0.0
H1989 H 0.21117 0.29371 0.31996 0.0
H1990 H 0.24374 0.3317 0.35969 0.0
H1991 H 0.23718 0.35998 0.338 0.0
C1992 C 0.24467 0.27583 0.38229 0.0
C1993 C 0.25384 0.26073 0.37131 0.0
C1994 C 0.23582 0.29187 0.37262 0.0
C1995 C 0.2357 0.29281 0.35185 0.0
C1996 C 0.24415 0.27724 0.34095 0.0
C1997 C 0.25324 0.26144 0.35058 0.0
C1998 C 0.21286 0.32426 0.31192 0.0
C1999 C 0.22072 0.34299 0.31635 0.0
C2000 C 0.21659 0.30817 0.32425 0.0
C2001 C 0.22822 0.31048 0.34129 0.0
C2002 C 0.23468 0.32953 0.34664 0.0
C2003 C 0.23097 0.3457 0.33423 0.0
H2004 H 0.32715 0.20237 0.65644 0.0
H2005 H 0.36901 0.23572 0.62149 0.0
H2006 H 0.30059 0.21245 0.63449 0.0
H2007 H 0.34238 0.24546 0.59904 0.0
H2008 H 0.28701 0.28629 0.59337 0.0
H2009 H 0.31611 0.26894 0.60523 0.0
H2010 H 0.28419 0.21357 0.60276 0.0
H2011 H 0.25474 0.23117 0.59123 0.0
C2012 C 0.33078 0.21136 0.64367 0.0
C2013 C 0.35007 0.21859 0.64088 0.0
C2014 C 0.31554 0.21705 0.63098 0.0
C2015 C 0.31929 0.23006 0.61521 0.0
C2016 C 0.33896 0.23574 0.61132 0.0
C2017 C 0.35424 0.23005 0.62407 0.0
C2018 C 0.28625 0.27037 0.59513 0.0
C2019 C 0.26853 0.26011 0.59166 0.0
C2020 C 0.30303 0.26037 0.60171 0.0
C2021 C 0.30251 0.23984 0.60496 0.0
C2022 C 0.28501 0.22942 0.60058 0.0
C2023 C 0.26816 0.23947 0.59398 0.0
H2024 H 0.73255 0.30037 0.5846 0.0
H2025 H 0.76629 0.26664 0.62703 0.0
H2026 H 0.74782 0.3308 0.5965 0.0
H2027 H 0.78077 0.29697 0.63974 0.0
H2028 H 0.80907 0.35069 0.65961 0.0
H2029 H 0.80158 0.32411 0.63642 0.0
H2030 H 0.74497 0.35131 0.62403 0.0
H2031 H 0.75317 0.37838 0.64622 0.0
C2032 C 0.74329 0.2995 0.59646 0.0
C2033 C 0.74812 0.28121 0.60505 0.0
C2034 C 0.752 0.31694 0.60335 0.0
C2035 C 0.76548 0.3165 0.61921 0.0
C2036 C 0.77078 0.298 0.62726 0.0
C2037 C 0.76233 0.28055 0.62013 0.0
C2038 C 0.7954 0.35132 0.65125 0.0
C2039 C 0.78163 0.36644 0.65473 0.0
C2040 C 0.79095 0.33595 0.63819 0.0
C2041 C 0.77238 0.33513 0.62879 0.0
C2042 C 0.75944 0.35135 0.63089 0.0
C2043 C 0.76413 0.36697 0.64362 0.0
H2044 H 0.20911 0.66699 0.69122 0.0
H2045 H 0.21769 0.63389 0.63718 0.0
H2046 H 0.21292 0.69777 0.67313 0.0
H2047 H 0.22111 0.66492 0.61886 0.0
H2048 H 0.25898 0.72031 0.60435 0.0
H2049 H 0.24756 0.68941 0.61853 0.0
H2050 H 0.20002 0.72037 0.64807 0.0
H2051 H 0.21178 0.75165 0.634 0.0
C2052 C 0.21146 0.66631 0.67538 0.0
C2053 C 0.2134 0.64805 0.66563 0.0
C2054 C 0.21346 0.68399 0.66497 0.0
C2055 C 0.21746 0.68379 0.64459 0.0
C2056 C 0.21831 0.66551 0.63463 0.0
C2057 C 0.21628 0.64777 0.64507 0.0
C2058 C 0.246 0.72056 0.61376 0.0
C2059 C 0.23638 0.73842 0.61826 0.0
C2060 C 0.23932 0.70278 0.62171 0.0
C2061 C 0.22285 0.70242 0.63437 0.0
C2062 C 0.21285 0.72023 0.63846 0.0
C2063 C 0.21955 0.7381 0.63042 0.0
H2064 H 0.16998 0.37654 0.22522 0.0
H2065 H 0.15599 0.40004 0.28299 0.0
H2066 H 0.136 0.36605 0.22115 0.0
H2067 H 0.12157 0.38986 0.27879 0.0
H2068 H 0.09201 0.32586 0.27863 0.0
H2069 H 0.11125 0.35593 0.28114 0.0
H2070 H 0.10055 0.3681 0.21926 0.0
H2071 H 0.08163 0.33751 0.21665 0.0
C2072 C 0.15943 0.38013 0.23676 0.0
C2073 C 0.16573 0.38852 0.25466 0.0
C2074 C 0.1398 0.3743 0.23436 0.0
C2075 C 0.12607 0.37671 0.24986 0.0
C2076 C 0.13187 0.38743 0.26674 0.0
C2077 C 0.15158 0.39328 0.26913 0.0
C2078 C 0.09305 0.33535 0.26575 0.0
C2079 C 0.08603 0.32896 0.24727 0.0
C2080 C 0.10402 0.35276 0.2672 0.0
C2081 C 0.10808 0.36407 0.25018 0.0
C2082 C 0.09817 0.35937 0.23249 0.0
C2083 C 0.08725 0.34187 0.23102 0.0
H2084 H 0.65455 0.08939 0.20325 0.0
H2085 H 0.67019 0.08713 0.26517 0.0
H2086 H 0.62387 0.10655 0.21169 0.0
H2087 H 0.64019 0.10471 0.27357 0.0
H2088 H 0.59052 0.14093 0.28829 0.0
H2089 H 0.60573 0.11054 0.27611 0.0
H2090 H 0.62067 0.14018 0.22139 0.0
H2091 H 0.60486 0.17005 0.23324 0.0
C2092 C 0.65118 0.09207 0.21869 0.0
C2093 C 0.66495 0.08737 0.23352 0.0
C2094 C 0.63366 0.102 0.22353 0.0
C2095 C 0.62972 0.10744 0.24326 0.0
C2096 C 0.64257 0.10075 0.25822 0.0
C2097 C 0.65996 0.09079 0.25339 0.0
C2098 C 0.59646 0.14069 0.2734 0.0
C2099 C 0.59699 0.15798 0.2619 0.0
C2100 C 0.60526 0.12331 0.26645 0.0
C2101 C 0.61492 0.12303 0.24798 0.0
C2102 C 0.61338 0.13973 0.23566 0.0
C2103 C 0.60444 0.157 0.24253 0.0
H2104 H 0.8344 0.57604 0.23411 0.0
H2105 H 0.8131 0.61098 0.18503 0.0
H2106 H 0.86758 0.58942 0.22925 0.0
H2107 H 0.84612 0.62434 0.18022 0.0
H2108 H 0.90197 0.65309 0.17602 0.0
H2109 H 0.88243 0.62277 0.17441 0.0
H2110 H 0.87526 0.62423 0.23794 0.0
H2111 H 0.89471 0.65438 0.23951 0.0
C2112 C 0.83695 0.58598 0.22181 0.0
C2113 C 0.82108 0.59287 0.21024 0.0
C2114 C 0.85596 0.59366 0.21906 0.0
C2115 C 0.8594 0.6082 0.20461 0.0
C2116 C 0.84402 0.61312 0.19146 0.0
C2117 C 0.82501 0.60556 0.19429 0.0
C2118 C 0.89699 0.64642 0.18972 0.0
C2119 C 0.89939 0.65634 0.20786 0.0
C2120 C 0.88571 0.6291 0.18877 0.0
C2121 C 0.87691 0.62139 0.20596 0.0
C2122 C 0.8818 0.62977 0.22439 0.0
C2123 C 0.8929 0.64715 0.22531 0.0
H2124 H 0.37259 0.85428 0.27513 0.0
H2125 H 0.36712 0.82691 0.21761 0.0
H2126 H 0.35609 0.88388 0.26256 0.0
H2127 H 0.35033 0.85607 0.20522 0.0
H2128 H 0.31961 0.9078 0.18402 0.0
H2129 H 0.34875 0.89073 0.19682 0.0
H2130 H 0.3215 0.88794 0.25465 0.0
H2131 H 0.2928 0.90535 0.24202 0.0
C2132 C 0.36823 0.85475 0.25971 0.0
C2133 C 0.37076 0.83818 0.24744 0.0
C2134 C 0.35876 0.87168 0.25252 0.0
C2135 C 0.35167 0.87227 0.23296 0.0
C2136 C 0.35575 0.85626 0.2203 0.0
C2137 C 0.3652 0.8394 0.22747 0.0
C2138 C 0.32017 0.90411 0.19961 0.0
C2139 C 0.30378 0.90747 0.21193 0.0
C2140 C 0.33682 0.89426 0.20692 0.0
C2141 C 0.33727 0.88759 0.22664 0.0
C2142 C 0.32172 0.8929 0.23941 0.0
C2143 C 0.30514 0.90276 0.23212 0.0
H2144 H 0.09336 0.67598 0.70818 0.0
H2145 H 0.08172 0.65436 0.76719 0.0
H2146 H 0.10951 0.64509 0.69994 0.0
H2147 H 0.09762 0.62306 0.75882 0.0
H2148 H 0.1649 0.60548 0.74847 0.0
H2149 H 0.13319 0.62051 0.75582 0.0
H2150 H 0.1141 0.60996 0.69567 0.0
H2151 H 0.14621 0.59524 0.6882 0.0
C2152 C 0.0935 0.66428 0.71913 0.0
C2153 C 0.08687 0.66779 0.7385 0.0
C2154 C 0.10266 0.64643 0.71438 0.0
C2155 C 0.10535 0.63178 0.72892 0.0
C2156 C 0.09618 0.63426 0.74745 0.0
C2157 C 0.08699 0.65216 0.75221 0.0
C2158 C 0.15372 0.60577 0.73698 0.0
C2159 C 0.15821 0.59975 0.71762 0.0
C2160 C 0.13539 0.61425 0.74123 0.0
C2161 C 0.12122 0.61683 0.72619 0.0
C2162 C 0.12486 0.60853 0.70746 0.0
C2163 C 0.14325 0.60008 0.70319 0.0
H2164 H 0.3718 0.15341 0.68433 0.0
H2165 H 0.41203 0.16596 0.73212 0.0
H2166 H 0.36061 0.12392 0.7012 0.0
H2167 H 0.40252 0.13522 0.74842 0.0
H2168 H 0.34932 0.11611 0.78664 0.0
H2169 H 0.37559 0.13007 0.76716 0.0
H2170 H 0.35732 0.0946 0.71694 0.0
H2171 H 0.32978 0.08182 0.73644 0.0
C2172 C 0.37906 0.14912 0.69798 0.0
C2173 C 0.39245 0.16193 0.70719 0.0
C2174 C 0.37272 0.13208 0.70775 0.0
C2175 C 0.38003 0.12739 0.72675 0.0
C2176 C 0.3958 0.13877 0.73433 0.0
C2177 C 0.40153 0.15624 0.7249 0.0
C2178 C 0.3512 0.11091 0.77159 0.0
C2179 C 0.33715 0.09844 0.76284 0.0
C2180 C 0.36652 0.11881 0.76029 0.0
C2181 C 0.36837 0.1141 0.74004 0.0
C2182 C 0.35591 0.09932 0.73219 0.0
C2183 C 0.34021 0.09182 0.74339 0.0
H2184 H 0.84914 0.39408 0.7011 0.0
H2185 H 0.827 0.38423 0.7602 0.0
H2186 H 0.88035 0.37804 0.71016 0.0
H2187 H 0.85789 0.3684 0.76928 0.0
H2188 H 0.90915 0.33523 0.7838 0.0
H2189 H 0.89407 0.36641 0.77364 0.0
H2190 H 0.88237 0.34175 0.7158 0.0
H2191 H 0.8976 0.31081 0.72585 0.0
C2192 C 0.85128 0.38924 0.71623 0.0
C2193 C 0.83565 0.38999 0.7299 0.0
C2194 C 0.86909 0.38002 0.72139 0.0
C2195 C 0.87148 0.37172 0.74033 0.0
C2196 C 0.85663 0.37472 0.7546 0.0
C2197 C 0.83883 0.38365 0.74938 0.0
C2198 C 0.90399 0.33673 0.76869 0.0
C2199 C 0.904 0.32045 0.75577 0.0
C2200 C 0.89538 0.35459 0.76289 0.0
C2201 C 0.88669 0.35639 0.74408 0.0
C2202 C 0.88897 0.34089 0.73039 0.0
C2203 C 0.89754 0.32305 0.7362 0.0
H2204 H 0.66174 0.90099 0.74414 0.0
H2205 H 0.65465 0.86707 0.79776 0.0
H2206 H 0.6369 0.88054 0.72783 0.0
H2207 H 0.63113 0.84568 0.78129 0.0
H2208 H 0.59067 0.80633 0.74995 0.0
H2209 H 0.60236 0.83645 0.766 0.0
H2210 H 0.6382 0.84946 0.71446 0.0
H2211 H 0.62531 0.8203 0.69815 0.0
C2212 C 0.6546 0.88932 0.75249 0.0
C2213 C 0.66022 0.88539 0.77206 0.0
C2214 C 0.64053 0.87744 0.74312 0.0
C2215 C 0.63233 0.86101 0.75297 0.0
C2216 C 0.63687 0.8582 0.77313 0.0
C2217 C 0.65051 0.87043 0.78263 0.0
C2218 C 0.60071 0.81597 0.74199 0.0
C2219 C 0.60732 0.81095 0.72296 0.0
C2220 C 0.60753 0.83316 0.7512 0.0
C2221 C 0.62158 0.84534 0.74177 0.0
C2222 C 0.62722 0.84077 0.72221 0.0
C2223 C 0.61998 0.82388 0.71285 0.0
H2224 H 0.29091 0.15032 0.41419 0.0
H2225 H 0.23366 0.17682 0.40416 0.0
H2226 H 0.27821 0.11858 0.40258 0.0
H2227 H 0.22114 0.14551 0.39217 0.0
H2228 H 0.20177 0.09548 0.36017 0.0
H2229 H 0.21287 0.11103 0.39083 0.0
H2230 H 0.27264 0.11262 0.36803 0.0
H2231 H 0.26165 0.09676 0.33787 0.0
C2232 C 0.27542 0.1492 0.41021 0.0
C2233 C 0.26342 0.16614 0.40945 0.0
C2234 C 0.26817 0.13103 0.40348 0.0
C2235 C 0.24885 0.12961 0.39584 0.0
C2236 C 0.23611 0.14596 0.39786 0.0
C2237 C 0.24334 0.16406 0.4046 0.0
C2238 C 0.21742 0.09842 0.3621 0.0
C2239 C 0.23077 0.09551 0.34643 0.0
C2240 C 0.22376 0.10739 0.37964 0.0
C2241 C 0.24352 0.11363 0.38169 0.0
C2242 C 0.2573 0.1081 0.36706 0.0
C2243 C 0.25097 0.09913 0.3496 0.0
H2244 H 0.88417 0.18897 0.33969 0.0
H2245 H 0.9107 0.23986 0.31174 0.0
H2246 H 0.86703 0.2103 0.36268 0.0
H2247 H 0.89472 0.26146 0.33582 0.0
H2248 H 0.8345 0.28992 0.35195 0.0
H2249 H 0.86319 0.27319 0.33858 0.0
H2250 H 0.86208 0.23217 0.3878 0.0
H2251 H 0.83223 0.24819 0.40016 0.0
C2252 C 0.88696 0.20475 0.33901 0.0
C2253 C 0.8984 0.21283 0.32371 0.0
C2254 C 0.8772 0.21709 0.35236 0.0
C2255 C 0.87903 0.23782 0.35097 0.0
C2256 C 0.89234 0.24567 0.33696 0.0
C2257 C 0.90168 0.23331 0.32326 0.0
C2258 C 0.84071 0.27762 0.36014 0.0
C2259 C 0.83098 0.27005 0.37681 0.0
C2260 C 0.85734 0.26801 0.35255 0.0
C2261 C 0.86485 0.25088 0.36177 0.0
C2262 C 0.85634 0.24481 0.37982 0.0
C2263 C 0.83935 0.25409 0.38707 0.0
H2264 H 0.74969 0.87115 0.34309 0.0
H2265 H 0.81154 0.88325 0.35374 0.0
H2266 H 0.74873 0.85024 0.37225 0.0
H2267 H 0.81053 0.86242 0.3832 0.0
H2268 H 0.80514 0.79247 0.39167 0.0
H2269 H 0.80864 0.82632 0.38029 0.0
H2270 H 0.75263 0.84131 0.40726 0.0
H2271 H 0.74906 0.80721 0.41856 0.0
C2272 C 0.76288 0.87 0.35214 0.0
C2273 C 0.78082 0.87834 0.34583 0.0
C2274 C 0.76232 0.85809 0.36899 0.0
C2275 C 0.77971 0.85429 0.37979 0.0
C2276 C 0.797 0.86479 0.37494 0.0
C2277 C 0.79754 0.87676 0.35809 0.0
C2278 C 0.79394 0.80315 0.39584 0.0
C2279 C 0.77661 0.7971 0.40553 0.0
C2280 C 0.79599 0.82266 0.38943 0.0
C2281 C 0.78068 0.83643 0.39252 0.0
C2282 C 0.7645 0.83094 0.40438 0.0
C2283 C 0.7625 0.81142 0.4109 0.0
H2284 H 0.15083 0.70588 0.36999 0.0
H2285 H 0.16972 0.75684 0.40351 0.0
H2286 H 0.12253 0.72408 0.35792 0.0
H2287 H 0.14047 0.77493 0.39254 0.0
H2288 H 0.11237 0.80746 0.33887 0.0
H2289 H 0.1318 0.79045 0.36364 0.0
H2290 H 0.09265 0.73991 0.35956 0.0
H2291 H 0.07417 0.75662 0.33348 0.0
C2292 C 0.14853 0.72084 0.37528 0.0
C2293 C 0.16263 0.73011 0.38733 0.0
C2294 C 0.13211 0.73131 0.36852 0.0
C2295 C 0.12917 0.75121 0.37399 0.0
C2296 C 0.14247 0.75986 0.38753 0.0
C2297 C 0.15918 0.74948 0.39392 0.0
C2298 C 0.10758 0.79295 0.34372 0.0
C2299 C 0.09209 0.78314 0.33401 0.0
C2300 C 0.11871 0.78313 0.35806 0.0
C2301 C 0.11425 0.76344 0.36328 0.0
C2302 C 0.09705 0.75472 0.35536 0.0
C2303 C 0.08628 0.76436 0.3406 0.0
H2304 H 0.27702 0.85797 0.59713 0.0
H2305 H 0.21579 0.84511 0.6101 0.0
H2306 H 0.27539 0.88712 0.61841 0.0
H2307 H 0.21413 0.87405 0.63126 0.0
H2308 H 0.21338 0.91848 0.67555 0.0
H2309 H 0.21742 0.90921 0.64086 0.0
H2310 H 0.27376 0.88243 0.65477 0.0
H2311 H 0.26977 0.89173 0.68924 0.0
C2312 C 0.26297 0.86186 0.60379 0.0
C2313 C 0.24666 0.84903 0.60244 0.0
C2314 C 0.26207 0.87852 0.61603 0.0
C2315 C 0.24479 0.88262 0.62687 0.0
C2316 C 0.22769 0.87135 0.62314 0.0
C2317 C 0.22865 0.85464 0.6111 0.0
C2318 C 0.227 0.91133 0.67102 0.0
C2319 C 0.24103 0.9053 0.68514 0.0
C2320 C 0.22928 0.90602 0.65116 0.0
C2321 C 0.24568 0.89473 0.64516 0.0
C2322 C 0.26094 0.89114 0.65885 0.0
C2323 C 0.2586 0.89633 0.6787 0.0
H2324 H 0.14774 0.29679 0.58777 0.0
H2325 H 0.17222 0.2378 0.58715 0.0
H2326 H 0.12131 0.28556 0.60968 0.0
H2327 H 0.14614 0.22668 0.60918 0.0
H2328 H 0.10392 0.20984 0.65455 0.0
H2329 H 0.11232 0.22093 0.62109 0.0
H2330 H 0.1283 0.27828 0.64444 0.0
H2331 H 0.11983 0.26728 0.67752 0.0
C2332 C 0.14704 0.28126 0.59166 0.0
C2333 C 0.16233 0.26827 0.58624 0.0
C2334 C 0.13194 0.27485 0.60428 0.0
C2335 C 0.13194 0.25537 0.6116 0.0
C2336 C 0.14568 0.24179 0.60389 0.0
C2337 C 0.16076 0.2482 0.59132 0.0
C2338 C 0.10861 0.225 0.65236 0.0
C2339 C 0.11163 0.2376 0.66862 0.0
C2340 C 0.11344 0.23133 0.63323 0.0
C2341 C 0.12119 0.2504 0.63011 0.0
C2342 C 0.12222 0.26356 0.64621 0.0
C2343 C 0.11757 0.25719 0.66526 0.0
H2344 H 0.77592 0.1011 0.66857 0.0
H2345 H 0.71957 0.12405 0.68811 0.0
H2346 H 0.76994 0.11457 0.6355 0.0
H2347 H 0.71357 0.13736 0.65522 0.0
H2348 H 0.70438 0.1615 0.59693 0.0
H2349 H 0.70945 0.13303 0.61856 0.0
H2350 H 0.77008 0.15101 0.62783 0.0
H2351 H 0.76504 0.17937 0.60627 0.0
C2352 C 0.76197 0.10842 0.66562 0.0
C2353 C 0.74833 0.11185 0.68094 0.0
C2354 C 0.75859 0.11615 0.64672 0.0
C2355 C 0.74139 0.12715 0.64283 0.0
C2356 C 0.7269 0.12881 0.65768 0.0
C2357 C 0.73039 0.12132 0.67659 0.0
C2358 C 0.719 0.15894 0.60298 0.0
C2359 C 0.73421 0.17287 0.6003 0.0
C2360 C 0.72186 0.14268 0.6154 0.0
C2361 C 0.74003 0.14001 0.62513 0.0
C2362 C 0.75591 0.15262 0.6205 0.0
C2363 C 0.753 0.16897 0.60823 0.0
H2364 H 0.8316 0.74984 0.59867 0.0
H2365 H 0.84539 0.70419 0.64112 0.0
H2366 H 0.85772 0.77059 0.61246 0.0
H2367 H 0.87044 0.72515 0.65576 0.0
H2368 H 0.91318 0.76347 0.68351 0.0
H2369 H 0.89969 0.74248 0.65745 0.0
H2370 H 0.85972 0.78961 0.64067 0.0
H2371 H 0.87421 0.81076 0.66567 0.0
C2372 C 0.8404 0.74419 0.61082 0.0
C2373 C 0.83632 0.72558 0.61906 0.0
C2374 C 0.85528 0.7561 0.61882 0.0
C2375 C 0.86601 0.74983 0.63555 0.0
C2376 C 0.86277 0.73055 0.64279 0.0
C2377 C 0.84822 0.71851 0.6345 0.0
C2378 C 0.90195 0.76945 0.67376 0.0
C2379 C 0.89448 0.78857 0.67676 0.0
C2380 C 0.89407 0.75739 0.65894 0.0
C2381 C 0.87816 0.76405 0.64725 0.0
C2382 C 0.872 0.78386 0.64919 0.0
C2383 C 0.88023 0.79605 0.66367 0.0
H2384 H 0.34173 0.20668 0.10676 0.0
H2385 H 0.32696 0.26451 0.1295 0.0
H2386 H 0.37638 0.21202 0.11576 0.0
H2387 H 0.36121 0.2698 0.13861 0.0
H2388 H 0.41676 0.27817 0.1625 0.0
H2389 H 0.39661 0.27292 0.13307 0.0
H2390 H 0.38878 0.21168 0.14956 0.0
H2391 H 0.40919 0.21682 0.17856 0.0
C2392 C 0.34599 0.22076 0.11313 0.0
C2393 C 0.33163 0.23502 0.1179 0.0
C2394 C 0.36582 0.22381 0.11826 0.0
C2395 C 0.37157 0.24121 0.12812 0.0
C2396 C 0.35745 0.25627 0.13089 0.0
C2397 C 0.33769 0.25317 0.12589 0.0
C2398 C 0.41159 0.26334 0.15928 0.0
C2399 C 0.4138 0.24809 0.17323 0.0
C2400 C 0.39994 0.26037 0.14246 0.0
C2401 C 0.39038 0.24213 0.13947 0.0
C2402 C 0.39567 0.22601 0.15151 0.0
C2403 C 0.40737 0.22897 0.16827 0.0
H2404 H 0.3994 0.69665 0.82537 0.0
H2405 H 0.37927 0.75683 0.81818 0.0
H2406 H 0.38507 0.69583 0.85853 0.0
H2407 H 0.36482 0.75598 0.85103 0.0
H2408 H 0.33259 0.75249 0.90481 0.0
H2409 H 0.36396 0.7518 0.88697 0.0
H2410 H 0.3493 0.69405 0.86381 0.0
H2411 H 0.31822 0.69465 0.88176 0.0
C2412 C 0.39256 0.70994 0.83114 0.0
C2413 C 0.38996 0.72664 0.81903 0.0
C2414 C 0.38431 0.70944 0.85011 0.0
C2415 C 0.37343 0.72566 0.85726 0.0
C2416 C 0.37312 0.74321 0.84606 0.0
C2417 C 0.38128 0.74368 0.8271 0.0
C2418 C 0.33646 0.7393 0.89657 0.0
C2419 C 0.32273 0.72385 0.89418 0.0
C2420 C 0.35441 0.73895 0.88629 0.0
C2421 C 0.35889 0.72313 0.87356 0.0
C2422 C 0.34636 0.7065 0.87345 0.0
C2423 C 0.32841 0.70688 0.88367 0.0
H2424 H 0.22034 0.34572 0.90212 0.0
H2425 H 0.28051 0.32846 0.88925 0.0
H2426 H 0.22479 0.37571 0.88254 0.0
H2427 H 0.28478 0.35784 0.86925 0.0
H2428 H 0.28992 0.40514 0.82756 0.0
H2429 H 0.28594 0.39202 0.86097 0.0
H2430 H 0.22542 0.37633 0.8473 0.0
H2431 H 0.22925 0.38998 0.81439 0.0
C2432 C 0.2347 0.34862 0.8956 0.0
C2433 C 0.24991 0.33452 0.8967 0.0
C2434 C 0.23722 0.36575 0.88431 0.0
C2435 C 0.25493 0.36893 0.87384 0.0
C2436 C 0.27091 0.35597 0.87706 0.0
C2437 C 0.26843 0.33896 0.88844 0.0
C2438 C 0.27559 0.39946 0.83197 0.0
C2439 C 0.26004 0.39806 0.81825 0.0
C2440 C 0.27332 0.39191 0.85109 0.0
C2441 C 0.25553 0.38267 0.85669 0.0
C2442 C 0.23934 0.38336 0.84361 0.0
C2443 C 0.24157 0.39104 0.82459 0.0
H2444 H 0.59328 0.30247 0.82114 0.0
H2445 H 0.60412 0.23977 0.8153 0.0
H2446 H 0.61036 0.30248 0.85295 0.0
H2447 H 0.62133 0.23982 0.84691 0.0
H2448 H 0.65313 0.24201 0.90281 0.0
H2449 H 0.6231 0.24533 0.88301 0.0
H2450 H 0.64641 0.29886 0.85698 0.0
H2451 H 0.67623 0.29562 0.8768 0.0
C2452 C 0.5988 0.28857 0.82692 0.0
C2453 C 0.59775 0.27118 0.81557 0.0
C2454 C 0.60861 0.28862 0.84511 0.0
C2455 C 0.61747 0.27125 0.85228 0.0
C2456 C 0.61459 0.25345 0.84187 0.0
C2457 C 0.60483 0.25342 0.82366 0.0
C2458 C 0.65152 0.25485 0.89335 0.0
C2459 C 0.66716 0.26837 0.89103 0.0
C2460 C 0.63436 0.25669 0.88197 0.0
C2461 C 0.63253 0.27215 0.86821 0.0
C2462 C 0.64729 0.28681 0.86751 0.0
C2463 C 0.66447 0.28491 0.87879 0.0
H2464 H 0.70183 0.62723 0.8429 0.0
H2465 H 0.75208 0.58803 0.83889 0.0
H2466 H 0.71812 0.64559 0.86903 0.0
H2467 H 0.76809 0.60567 0.866 0.0
H2468 H 0.80129 0.66379 0.88209 0.0
H2469 H 0.78431 0.63587 0.86736 0.0
H2470 H 0.73137 0.65068 0.90025 0.0
H2471 H 0.74823 0.67945 0.914 0.0
C2472 C 0.71611 0.62213 0.84812 0.0
C2473 C 0.72588 0.60649 0.83865 0.0
C2474 C 0.72546 0.63258 0.86328 0.0
C2475 C 0.74466 0.62737 0.86952 0.0
C2476 C 0.75357 0.61047 0.86123 0.0
C2477 C 0.74436 0.60027 0.84578 0.0
C2478 C 0.78619 0.66075 0.88658 0.0
C2479 C 0.77592 0.67396 0.89883 0.0
C2480 C 0.77641 0.64461 0.8782 0.0
C2481 C 0.75623 0.64119 0.88222 0.0
C2482 C 0.74669 0.65321 0.8963 0.0
C2483 C 0.75637 0.6696 0.90433 0.0
H2484 H 0.6619 0.81466 0.10355 0.0
H2485 H 0.67229 0.75165 0.10555 0.0
H2486 H 0.63288 0.81052 0.12464 0.0
H2487 H 0.64344 0.74755 0.12663 0.0
H2488 H 0.59426 0.74271 0.16796 0.0
H2489 H 0.60778 0.7508 0.13541 0.0
H2490 H 0.63655 0.80215 0.16035 0.0
H2491 H 0.62308 0.7941 0.19272 0.0
C2492 C 0.65755 0.79984 0.10784 0.0
C2493 C 0.66961 0.78351 0.10334 0.0
C2494 C 0.64098 0.79751 0.11998 0.0
C2495 C 0.63615 0.7788 0.12763 0.0
C2496 C 0.64675 0.76217 0.12098 0.0
C2497 C 0.66338 0.76452 0.10896 0.0
C2498 C 0.60295 0.75608 0.16633 0.0
C2499 C 0.60795 0.7676 0.18291 0.0
C2500 C 0.61069 0.76067 0.1477 0.0
C2501 C 0.62337 0.77697 0.14536 0.0
C2502 C 0.62669 0.78957 0.1616 0.0
C2503 C 0.61911 0.78488 0.18022 0.0
H2504 H 0.29043 0.61147 0.16434 0.0
H2505 H 0.23284 0.60218 0.19055 0.0
H2506 H 0.27533 0.63155 0.13834 0.0
H2507 H 0.21783 0.6223 0.16477 0.0
H2508 H 0.1935 0.65505 0.11354 0.0
H2509 H 0.21046 0.62735 0.12933 0.0
H2510 H 0.26064 0.66507 0.14144 0.0
H2511 H 0.24382 0.69265 0.12549 0.0
C2512 C 0.2745 0.6133 0.16426 0.0
C2513 C 0.26281 0.60552 0.17959 0.0
C2514 C 0.26589 0.62487 0.14945 0.0
C2515 C 0.24546 0.62867 0.14966 0.0
C2516 C 0.23361 0.61952 0.16411 0.0
C2517 C 0.24222 0.60809 0.17896 0.0
C2518 C 0.20831 0.65731 0.11925 0.0
C2519 C 0.21726 0.67606 0.11857 0.0
C2520 C 0.21798 0.64146 0.12829 0.0
C2521 C 0.23679 0.64408 0.13673 0.0
C2522 C 0.24624 0.66253 0.13489 0.0
C2523 C 0.23654 0.67838 0.1259 0.0
H2524 H 0.69544 0.37663 0.14881 0.0
H2525 H 0.741 0.4025 0.18549 0.0
H2526 H 0.72071 0.35867 0.13024 0.0
H2527 H 0.76613 0.38441 0.167 0.0
H2528 H 0.78374 0.31581 0.16238 0.0
H2529 H 0.76586 0.34573 0.17149 0.0
H2530 H 0.7548 0.35814 0.10978 0.0
H2531 H 0.77336 0.32823 0.10056 0.0
C2532 C 0.71087 0.3791 0.15238 0.0
C2533 C 0.71624 0.39052 0.1689 0.0
C2534 C 0.72533 0.36889 0.1417 0.0
C2535 C 0.74526 0.36995 0.14749 0.0
C2536 C 0.75081 0.38326 0.16242 0.0
C2537 C 0.7364 0.39357 0.17299 0.0
C2538 C 0.77788 0.32517 0.15075 0.0
C2539 C 0.77977 0.31976 0.13083 0.0
C2540 C 0.76782 0.34236 0.15593 0.0
C2541 C 0.75909 0.35425 0.14129 0.0
C2542 C 0.76155 0.34924 0.12127 0.0
C2543 C 0.77211 0.33221 0.11605 0.0
loop_
_geom_bond_atom_site_label_1
_geom_bond_atom_site_label_2
_geom_bond_distance
_geom_bond_site_symmetry_2
_ccdc_geom_bond_type
In0 O1 2.294 . S
In0 O2 2.326 . S
In0 O6 2.266 . S
In0 O7 2.326 . S
In0 O8 2.266 . S
In0 O9 2.326 . S
In0 O11 2.294 . S
In0 O12 2.326 . S
O1 In0 2.294 . S
O1 C10 1.240 . S
O2 In0 2.326 . S
O2 C10 1.252 . S
C3 O6 1.252 . S
C3 O7 1.260 . S
C4 O11 1.240 . S
C4 O12 1.252 . S
C5 O8 1.252 . S
C5 O9 1.260 . S
O6 In0 2.266 . S
O6 C3 1.252 . S
O7 In0 2.326 . S
O7 C3 1.260 . S
O8 In0 2.266 . S
O8 C5 1.252 . S
O9 In0 2.326 . S
O9 C5 1.260 . S
C10 O1 1.240 . S
C10 O2 1.252 . S
O11 In0 2.294 . S
O11 C4 1.240 . S
O12 In0 2.326 . S
O12 C4 1.252 . S
In13 O14 2.294 . S
In13 O15 2.326 . S
In13 O19 2.266 . S
In13 O20 2.326 . S
In13 O21 2.266 . S
In13 O22 2.326 . S
In13 O24 2.294 . S
In13 O25 2.326 . S
O14 In13 2.294 . S
O14 C23 1.240 . S
O15 In13 2.326 . S
O15 C23 1.252 . S
C16 O19 1.252 . S
C16 O20 1.260 . S
C17 O24 1.240 . S
C17 O25 1.252 . S
C18 O21 1.252 . S
C18 O22 1.260 . S
O19 In13 2.266 . S
O19 C16 1.252 . S
O20 In13 2.326 . S
O20 C16 1.260 . S
O21 In13 2.266 . S
O21 C18 1.252 . S
O22 In13 2.326 . S
O22 C18 1.260 . S
C23 O14 1.240 . S
C23 O15 1.252 . S
O24 In13 2.294 . S
O24 C17 1.240 . S
O25 In13 2.326 . S
O25 C17 1.252 . S
In26 O27 2.294 . S
In26 O28 2.326 . S
In26 O32 2.266 . S
In26 O33 2.326 . S
In26 O34 2.266 . S
In26 O35 2.326 . S
In26 O37 2.294 . S
In26 O38 2.326 . S
O27 In26 2.294 . S
O27 C36 1.240 . S
O28 In26 2.326 . S
O28 C36 1.252 . S
C29 O32 1.252 . S
C29 O33 1.260 . S
C30 O37 1.240 . S
C30 O38 1.252 . S
C31 O34 1.252 . S
C31 O35 1.260 . S
O32 In26 2.266 . S
O32 C29 1.252 . S
O33 In26 2.326 . S
O33 C29 1.260 . S
O34 In26 2.266 . S
O34 C31 1.252 . S
O35 In26 2.326 . S
O35 C31 1.260 . S
C36 O27 1.240 . S
C36 O28 1.252 . S
O37 In26 2.294 . S
O37 C30 1.240 . S
O38 In26 2.326 . S
O38 C30 1.252 . S
In39 O40 2.294 . S
In39 O41 2.326 . S
In39 O45 2.266 . S
In39 O46 2.326 . S
In39 O47 2.266 . S
In39 O48 2.326 . S
In39 O50 2.294 . S
In39 O51 2.326 . S
O40 In39 2.294 . S
O40 C49 1.240 . S
O41 In39 2.326 . S
O41 C49 1.252 . S
C42 O45 1.252 . S
C42 O46 1.260 . S
C43 O50 1.240 . S
C43 O51 1.252 . S
C44 O47 1.252 . S
C44 O48 1.260 . S
O45 In39 2.266 . S
O45 C42 1.252 . S
O46 In39 2.326 . S
O46 C42 1.260 . S
O47 In39 2.266 . S
O47 C44 1.252 . S
O48 In39 2.326 . S
O48 C44 1.260 . S
C49 O40 1.240 . S
C49 O41 1.252 . S
O50 In39 2.294 . S
O50 C43 1.240 . S
O51 In39 2.326 . S
O51 C43 1.252 . S
In52 O53 2.294 . S
In52 O54 2.326 . S
In52 O58 2.266 . S
In52 O59 2.326 . S
In52 O60 2.266 . S
In52 O61 2.326 . S
In52 O63 2.294 . S
In52 O64 2.326 . S
O53 In52 2.294 . S
O53 C62 1.240 . S
O54 In52 2.326 . S
O54 C62 1.252 . S
C55 O58 1.252 . S
C55 O59 1.260 . S
C56 O63 1.240 . S
C56 O64 1.252 . S
C57 O60 1.252 . S
C57 O61 1.260 . S
O58 In52 2.266 . S
O58 C55 1.252 . S
O59 In52 2.326 . S
O59 C55 1.260 . S
O60 In52 2.266 . S
O60 C57 1.252 . S
O61 In52 2.326 . S
O61 C57 1.260 . S
C62 O53 1.240 . S
C62 O54 1.252 . S
O63 In52 2.294 . S
O63 C56 1.240 . S
O64 In52 2.326 . S
O64 C56 1.252 . S
In65 O66 2.294 . S
In65 O67 2.326 . S
In65 O71 2.266 . S
In65 O72 2.326 . S
In65 O73 2.266 . S
In65 O74 2.326 . S
In65 O76 2.294 . S
In65 O77 2.326 . S
O66 In65 2.294 . S
O66 C75 1.240 . S
O67 In65 2.326 . S
O67 C75 1.252 . S
C68 O71 1.252 . S
C68 O72 1.260 . S
C69 O76 1.240 . S
C69 O77 1.252 . S
C70 O73 1.252 . S
C70 O74 1.260 . S
O71 In65 2.266 . S
O71 C68 1.252 . S
O72 In65 2.326 . S
O72 C68 1.260 . S
O73 In65 2.266 . S
O73 C70 1.252 . S
O74 In65 2.326 . S
O74 C70 1.260 . S
C75 O66 1.240 . S
C75 O67 1.252 . S
O76 In65 2.294 . S
O76 C69 1.240 . S
O77 In65 2.326 . S
O77 C69 1.252 . S
In78 O79 2.294 . S
In78 O80 2.326 . S
In78 O84 2.266 . S
In78 O85 2.326 . S
In78 O86 2.266 . S
In78 O87 2.326 . S
In78 O89 2.294 . S
In78 O90 2.326 . S
O79 In78 2.294 . S
O79 C88 1.240 . S
O80 In78 2.326 . S
O80 C88 1.252 . S
C81 O84 1.252 . S
C81 O85 1.260 . S
C82 O89 1.240 . S
C82 O90 1.252 . S
C83 O86 1.252 . S
C83 O87 1.260 . S
O84 In78 2.266 . S
O84 C81 1.252 . S
O85 In78 2.326 . S
O85 C81 1.260 . S
O86 In78 2.266 . S
O86 C83 1.252 . S
O87 In78 2.326 . S
O87 C83 1.260 . S
C88 O79 1.240 . S
C88 O80 1.252 . S
O89 In78 2.294 . S
O89 C82 1.240 . S
O90 In78 2.326 . S
O90 C82 1.252 . S
In91 O92 2.294 . S
In91 O93 2.326 . S
In91 O97 2.266 . S
In91 O98 2.326 . S
In91 O99 2.266 . S
In91 O100 2.326 . S
In91 O102 2.294 . S
In91 O103 2.326 . S
O92 In91 2.294 . S
O92 C101 1.240 . S
O93 In91 2.326 . S
O93 C101 1.252 . S
C94 O97 1.252 . S
C94 O98 1.260 . S
C95 O102 1.240 . S
C95 O103 1.252 . S
C96 O99 1.252 . S
C96 O100 1.260 . S
O97 In91 2.266 . S
O97 C94 1.252 . S
O98 In91 2.326 . S
O98 C94 1.260 . S
O99 In91 2.266 . S
O99 C96 1.252 . S
O100 In91 2.326 . S
O100 C96 1.260 . S
C101 O92 1.240 . S
C101 O93 1.252 . S
O102 In91 2.294 . S
O102 C95 1.240 . S
O103 In91 2.326 . S
O103 C95 1.252 . S
In104 O105 2.294 . S
In104 O106 2.326 . S
In104 O110 2.266 . S
In104 O111 2.326 . S
In104 O112 2.266 . S
In104 O113 2.326 . S
In104 O115 2.294 . S
In104 O116 2.326 . S
O105 In104 2.294 . S
O105 C114 1.240 . S
O106 In104 2.326 . S
O106 C114 1.252 . S
C107 O110 1.252 . S
C107 O111 1.260 . S
C108 O115 1.240 . S
C108 O116 1.252 . S
C109 O112 1.252 . S
C109 O113 1.260 . S
O110 In104 2.266 . S
O110 C107 1.252 . S
O111 In104 2.326 . S
O111 C107 1.260 . S
O112 In104 2.266 . S
O112 C109 1.252 . S
O113 In104 2.326 . S
O113 C109 1.260 . S
C114 O105 1.240 . S
C114 O106 1.252 . S
O115 In104 2.294 . S
O115 C108 1.240 . S
O116 In104 2.326 . S
O116 C108 1.252 . S
In117 O118 2.294 . S
In117 O119 2.326 . S
In117 O123 2.266 . S
In117 O124 2.326 . S
In117 O125 2.266 . S
In117 O126 2.326 . S
In117 O128 2.294 . S
In117 O129 2.326 . S
O118 In117 2.294 . S
O118 C127 1.240 . S
O119 In117 2.326 . S
O119 C127 1.252 . S
C120 O123 1.252 . S
C120 O124 1.260 . S
C121 O128 1.240 . S
C121 O129 1.252 . S
C122 O125 1.252 . S
C122 O126 1.260 . S
O123 In117 2.266 . S
O123 C120 1.252 . S
O124 In117 2.326 . S
O124 C120 1.260 . S
O125 In117 2.266 . S
O125 C122 1.252 . S
O126 In117 2.326 . S
O126 C122 1.260 . S
C127 O118 1.240 . S
C127 O119 1.252 . S
O128 In117 2.294 . S
O128 C121 1.240 . S
O129 In117 2.326 . S
O129 C121 1.252 . S
In130 O131 2.294 . S
In130 O132 2.326 . S
In130 O136 2.266 . S
In130 O137 2.326 . S
In130 O138 2.266 . S
In130 O139 2.326 . S
In130 O141 2.294 . S
In130 O142 2.326 . S
O131 In130 2.294 . S
O131 C140 1.240 . S
O132 In130 2.326 . S
O132 C140 1.252 . S
C133 O136 1.252 . S
C133 O137 1.260 . S
C134 O141 1.240 . S
C134 O142 1.252 . S
C135 O138 1.252 . S
C135 O139 1.260 . S
O136 In130 2.266 . S
O136 C133 1.252 . S
O137 In130 2.326 . S
O137 C133 1.260 . S
O138 In130 2.266 . S
O138 C135 1.252 . S
O139 In130 2.326 . S
O139 C135 1.260 . S
C140 O131 1.240 . S
C140 O132 1.252 . S
O141 In130 2.294 . S
O141 C134 1.240 . S
O142 In130 2.326 . S
O142 C134 1.252 . S
In143 O144 2.294 . S
In143 O145 2.326 . S
In143 O149 2.266 . S
In143 O150 2.326 . S
In143 O151 2.266 . S
In143 O152 2.326 . S
In143 O154 2.294 . S
In143 O155 2.326 . S
O144 In143 2.294 . S
O144 C153 1.240 . S
O145 In143 2.326 . S
O145 C153 1.252 . S
C146 O149 1.252 . S
C146 O150 1.260 . S
C147 O154 1.240 . S
C147 O155 1.252 . S
C148 O151 1.252 . S
C148 O152 1.260 . S
O149 In143 2.266 . S
O149 C146 1.252 . S
O150 In143 2.326 . S
O150 C146 1.260 . S
O151 In143 2.266 . S
O151 C148 1.252 . S
O152 In143 2.326 . S
O152 C148 1.260 . S
C153 O144 1.240 . S
C153 O145 1.252 . S
O154 In143 2.294 . S
O154 C147 1.240 . S
O155 In143 2.326 . S
O155 C147 1.252 . S
In156 O157 2.294 . S
In156 O158 2.326 . S
In156 O162 2.266 . S
In156 O163 2.326 . S
In156 O164 2.266 . S
In156 O165 2.326 . S
In156 O167 2.294 . S
In156 O168 2.326 . S
O157 In156 2.294 . S
O157 C166 1.240 . S
O158 In156 2.326 . S
O158 C166 1.252 . S
C159 O162 1.252 . S
C159 O163 1.260 . S
C160 O167 1.240 . S
C160 O168 1.252 . S
C161 O164 1.252 . S
C161 O165 1.260 . S
O162 In156 2.266 . S
O162 C159 1.252 . S
O163 In156 2.326 . S
O163 C159 1.260 . S
O164 In156 2.266 . S
O164 C161 1.252 . S
O165 In156 2.326 . S
O165 C161 1.260 . S
C166 O157 1.240 . S
C166 O158 1.252 . S
O167 In156 2.294 . S
O167 C160 1.240 . S
O168 In156 2.326 . S
O168 C160 1.252 . S
In169 O170 2.294 . S
In169 O171 2.326 . S
In169 O175 2.266 . S
In169 O176 2.326 . S
In169 O177 2.266 . S
In169 O178 2.326 . S
In169 O180 2.294 . S
In169 O181 2.326 . S
O170 In169 2.294 . S
O170 C179 1.240 . S
O171 In169 2.326 . S
O171 C179 1.252 . S
C172 O175 1.252 . S
C172 O176 1.260 . S
C173 O180 1.240 . S
C173 O181 1.252 . S
C174 O177 1.252 . S
C174 O178 1.260 . S
O175 In169 2.266 . S
O175 C172 1.252 . S
O176 In169 2.326 . S
O176 C172 1.260 . S
O177 In169 2.266 . S
O177 C174 1.252 . S
O178 In169 2.326 . S
O178 C174 1.260 . S
C179 O170 1.240 . S
C179 O171 1.252 . S
O180 In169 2.294 . S
O180 C173 1.240 . S
O181 In169 2.326 . S
O181 C173 1.252 . S
In182 O183 2.294 . S
In182 O184 2.326 . S
In182 O188 2.266 . S
In182 O189 2.326 . S
In182 O190 2.266 . S
In182 O191 2.326 . S
In182 O193 2.294 . S
In182 O194 2.326 . S
O183 In182 2.294 . S
O183 C192 1.240 . S
O184 In182 2.326 . S
O184 C192 1.252 . S
C185 O188 1.252 . S
C185 O189 1.260 . S
C186 O193 1.240 . S
C186 O194 1.252 . S
C187 O190 1.252 . S
C187 O191 1.260 . S
O188 In182 2.266 . S
O188 C185 1.252 . S
O189 In182 2.326 . S
O189 C185 1.260 . S
O190 In182 2.266 . S
O190 C187 1.252 . S
O191 In182 2.326 . S
O191 C187 1.260 . S
C192 O183 1.240 . S
C192 O184 1.252 . S
O193 In182 2.294 . S
O193 C186 1.240 . S
O194 In182 2.326 . S
O194 C186 1.252 . S
In195 O196 2.294 . S
In195 O197 2.326 . S
In195 O201 2.266 . S
In195 O202 2.326 . S
In195 O203 2.266 . S
In195 O204 2.326 . S
In195 O206 2.294 . S
In195 O207 2.326 . S
O196 In195 2.294 . S
O196 C205 1.240 . S
O197 In195 2.326 . S
O197 C205 1.252 . S
C198 O201 1.252 . S
C198 O202 1.260 . S
C199 O206 1.240 . S
C199 O207 1.252 . S
C200 O203 1.252 . S
C200 O204 1.260 . S
O201 In195 2.266 . S
O201 C198 1.252 . S
O202 In195 2.326 . S
O202 C198 1.260 . S
O203 In195 2.266 . S
O203 C200 1.252 . S
O204 In195 2.326 . S
O204 C200 1.260 . S
C205 O196 1.240 . S
C205 O197 1.252 . S
O206 In195 2.294 . S
O206 C199 1.240 . S
O207 In195 2.326 . S
O207 C199 1.252 . S
In208 O209 2.294 . S
In208 O210 2.326 . S
In208 O214 2.266 . S
In208 O215 2.326 . S
In208 O216 2.266 . S
In208 O217 2.326 . S
In208 O219 2.294 . S
In208 O220 2.326 . S
O209 In208 2.294 . S
O209 C218 1.240 . S
O210 In208 2.326 . S
O210 C218 1.252 . S
C211 O214 1.252 . S
C211 O215 1.260 . S
C212 O219 1.240 . S
C212 O220 1.252 . S
C213 O216 1.252 . S
C213 O217 1.260 . S
O214 In208 2.266 . S
O214 C211 1.252 . S
O215 In208 2.326 . S
O215 C211 1.260 . S
O216 In208 2.266 . S
O216 C213 1.252 . S
O217 In208 2.326 . S
O217 C213 1.260 . S
C218 O209 1.240 . S
C218 O210 1.252 . S
O219 In208 2.294 . S
O219 C212 1.240 . S
O220 In208 2.326 . S
O220 C212 1.252 . S
In221 O222 2.294 . S
In221 O223 2.326 . S
In221 O227 2.266 . S
In221 O228 2.326 . S
In221 O229 2.266 . S
In221 O230 2.326 . S
In221 O232 2.294 . S
In221 O233 2.326 . S
O222 In221 2.294 . S
O222 C231 1.240 . S
O223 In221 2.326 . S
O223 C231 1.252 . S
C224 O227 1.252 . S
C224 O228 1.260 . S
C225 O232 1.240 . S
C225 O233 1.252 . S
C226 O229 1.252 . S
C226 O230 1.260 . S
O227 In221 2.266 . S
O227 C224 1.252 . S
O228 In221 2.326 . S
O228 C224 1.260 . S
O229 In221 2.266 . S
O229 C226 1.252 . S
O230 In221 2.326 . S
O230 C226 1.260 . S
C231 O222 1.240 . S
C231 O223 1.252 . S
O232 In221 2.294 . S
O232 C225 1.240 . S
O233 In221 2.326 . S
O233 C225 1.252 . S
In234 O235 2.294 . S
In234 O236 2.326 . S
In234 O240 2.266 . S
In234 O241 2.326 . S
In234 O242 2.266 . S
In234 O243 2.326 . S
In234 O245 2.294 . S
In234 O246 2.326 . S
O235 In234 2.294 . S
O235 C244 1.240 . S
O236 In234 2.326 . S
O236 C244 1.252 . S
C237 O240 1.252 . S
C237 O241 1.260 . S
C238 O245 1.240 . S
C238 O246 1.252 . S
C239 O242 1.252 . S
C239 O243 1.260 . S
O240 In234 2.266 . S
O240 C237 1.252 . S
O241 In234 2.326 . S
O241 C237 1.260 . S
O242 In234 2.266 . S
O242 C239 1.252 . S
O243 In234 2.326 . S
O243 C239 1.260 . S
C244 O235 1.240 . S
C244 O236 1.252 . S
O245 In234 2.294 . S
O245 C238 1.240 . S
O246 In234 2.326 . S
O246 C238 1.252 . S
In247 O248 2.294 . S
In247 O249 2.326 . S
In247 O253 2.266 . S
In247 O254 2.326 . S
In247 O255 2.266 . S
In247 O256 2.326 . S
In247 O258 2.294 . S
In247 O259 2.326 . S
O248 In247 2.294 . S
O248 C257 1.240 . S
O249 In247 2.326 . S
O249 C257 1.252 . S
C250 O253 1.252 . S
C250 O254 1.260 . S
C251 O258 1.240 . S
C251 O259 1.252 . S
C252 O255 1.252 . S
C252 O256 1.260 . S
O253 In247 2.266 . S
O253 C250 1.252 . S
O254 In247 2.326 . S
O254 C250 1.260 . S
O255 In247 2.266 . S
O255 C252 1.252 . S
O256 In247 2.326 . S
O256 C252 1.260 . S
C257 O248 1.240 . S
C257 O249 1.252 . S
O258 In247 2.294 . S
O258 C251 1.240 . S
O259 In247 2.326 . S
O259 C251 1.252 . S
In260 O261 2.294 . S
In260 O262 2.326 . S
In260 O266 2.266 . S
In260 O267 2.326 . S
In260 O268 2.266 . S
In260 O269 2.326 . S
In260 O271 2.294 . S
In260 O272 2.326 . S
O261 In260 2.294 . S
O261 C270 1.240 . S
O262 In260 2.326 . S
O262 C270 1.252 . S
C263 O266 1.252 . S
C263 O267 1.260 . S
C264 O271 1.240 . S
C264 O272 1.252 . S
C265 O268 1.252 . S
C265 O269 1.260 . S
O266 In260 2.266 . S
O266 C263 1.252 . S
O267 In260 2.326 . S
O267 C263 1.260 . S
O268 In260 2.266 . S
O268 C265 1.252 . S
O269 In260 2.326 . S
O269 C265 1.260 . S
C270 O261 1.240 . S
C270 O262 1.252 . S
O271 In260 2.294 . S
O271 C264 1.240 . S
O272 In260 2.326 . S
O272 C264 1.252 . S
In273 O274 2.294 . S
In273 O275 2.326 . S
In273 O279 2.266 . S
In273 O280 2.326 . S
In273 O281 2.266 . S
In273 O282 2.326 . S
In273 O284 2.294 . S
In273 O285 2.326 . S
O274 In273 2.294 . S
O274 C283 1.240 . S
O275 In273 2.326 . S
O275 C283 1.252 . S
C276 O279 1.252 . S
C276 O280 1.260 . S
C277 O284 1.240 . S
C277 O285 1.252 . S
C278 O281 1.252 . S
C278 O282 1.260 . S
O279 In273 2.266 . S
O279 C276 1.252 . S
O280 In273 2.326 . S
O280 C276 1.260 . S
O281 In273 2.266 . S
O281 C278 1.252 . S
O282 In273 2.326 . S
O282 C278 1.260 . S
C283 O274 1.240 . S
C283 O275 1.252 . S
O284 In273 2.294 . S
O284 C277 1.240 . S
O285 In273 2.326 . S
O285 C277 1.252 . S
In286 O287 2.294 . S
In286 O288 2.326 . S
In286 O292 2.266 . S
In286 O293 2.326 . S
In286 O294 2.266 . S
In286 O295 2.326 . S
In286 O297 2.294 . S
In286 O298 2.326 . S
O287 In286 2.294 . S
O287 C296 1.240 . S
O288 In286 2.326 . S
O288 C296 1.252 . S
C289 O292 1.252 . S
C289 O293 1.260 . S
C290 O297 1.240 . S
C290 O298 1.252 . S
C291 O294 1.252 . S
C291 O295 1.260 . S
O292 In286 2.266 . S
O292 C289 1.252 . S
O293 In286 2.326 . S
O293 C289 1.260 . S
O294 In286 2.266 . S
O294 C291 1.252 . S
O295 In286 2.326 . S
O295 C291 1.260 . S
C296 O287 1.240 . S
C296 O288 1.252 . S
O297 In286 2.294 . S
O297 C290 1.240 . S
O298 In286 2.326 . S
O298 C290 1.252 . S
In299 O300 2.294 . S
In299 O301 2.326 . S
In299 O305 2.266 . S
In299 O306 2.326 . S
In299 O307 2.266 . S
In299 O308 2.326 . S
In299 O310 2.294 . S
In299 O311 2.326 . S
O300 In299 2.294 . S
O300 C309 1.240 . S
O301 In299 2.326 . S
O301 C309 1.252 . S
C302 O305 1.252 . S
C302 O306 1.260 . S
C303 O310 1.240 . S
C303 O311 1.252 . S
C304 O307 1.252 . S
C304 O308 1.260 . S
O305 In299 2.266 . S
O305 C302 1.252 . S
O306 In299 2.326 . S
O306 C302 1.260 . S
O307 In299 2.266 . S
O307 C304 1.252 . S
O308 In299 2.326 . S
O308 C304 1.260 . S
C309 O300 1.240 . S
C309 O301 1.252 . S
O310 In299 2.294 . S
O310 C303 1.240 . S
O311 In299 2.326 . S
O311 C303 1.252 . S
In312 O313 2.294 . S
In312 O314 2.326 . S
In312 O318 2.266 . S
In312 O319 2.326 . S
In312 O320 2.266 . S
In312 O321 2.326 . S
In312 O323 2.294 . S
In312 O324 2.326 . S
O313 In312 2.294 . S
O313 C322 1.240 . S
O314 In312 2.326 . S
O314 C322 1.252 . S
C315 O318 1.252 . S
C315 O319 1.260 . S
C316 O323 1.240 . S
C316 O324 1.252 . S
C317 O320 1.252 . S
C317 O321 1.260 . S
O318 In312 2.266 . S
O318 C315 1.252 . S
O319 In312 2.326 . S
O319 C315 1.260 . S
O320 In312 2.266 . S
O320 C317 1.252 . S
O321 In312 2.326 . S
O321 C317 1.260 . S
C322 O313 1.240 . S
C322 O314 1.252 . S
O323 In312 2.294 . S
O323 C316 1.240 . S
O324 In312 2.326 . S
O324 C316 1.252 . S
In325 O326 2.294 . S
In325 O327 2.326 . S
In325 O331 2.266 . S
In325 O332 2.326 . S
In325 O333 2.266 . S
In325 O334 2.326 . S
In325 O336 2.294 . S
In325 O337 2.326 . S
O326 In325 2.294 . S
O326 C335 1.240 . S
O327 In325 2.326 . S
O327 C335 1.252 . S
C328 O331 1.252 . S
C328 O332 1.260 . S
C329 O336 1.240 . S
C329 O337 1.252 . S
C330 O333 1.252 . S
C330 O334 1.260 . S
O331 In325 2.266 . S
O331 C328 1.252 . S
O332 In325 2.326 . S
O332 C328 1.260 . S
O333 In325 2.266 . S
O333 C330 1.252 . S
O334 In325 2.326 . S
O334 C330 1.260 . S
C335 O326 1.240 . S
C335 O327 1.252 . S
O336 In325 2.294 . S
O336 C329 1.240 . S
O337 In325 2.326 . S
O337 C329 1.252 . S
In338 O339 2.294 . S
In338 O340 2.326 . S
In338 O344 2.266 . S
In338 O345 2.326 . S
In338 O346 2.266 . S
In338 O347 2.326 . S
In338 O349 2.294 . S
In338 O350 2.326 . S
O339 In338 2.294 . S
O339 C348 1.240 . S
O340 In338 2.326 . S
O340 C348 1.252 . S
C341 O344 1.252 . S
C341 O345 1.260 . S
C342 O349 1.240 . S
C342 O350 1.252 . S
C343 O346 1.252 . S
C343 O347 1.260 . S
O344 In338 2.266 . S
O344 C341 1.252 . S
O345 In338 2.326 . S
O345 C341 1.260 . S
O346 In338 2.266 . S
O346 C343 1.252 . S
O347 In338 2.326 . S
O347 C343 1.260 . S
C348 O339 1.240 . S
C348 O340 1.252 . S
O349 In338 2.294 . S
O349 C342 1.240 . S
O350 In338 2.326 . S
O350 C342 1.252 . S
In351 O352 2.294 . S
In351 O353 2.326 . S
In351 O357 2.266 . S
In351 O358 2.326 . S
In351 O359 2.266 . S
In351 O360 2.326 . S
In351 O362 2.294 . S
In351 O363 2.326 . S
O352 In351 2.294 . S
O352 C361 1.240 . S
O353 In351 2.326 . S
O353 C361 1.252 . S
C354 O357 1.252 . S
C354 O358 1.260 . S
C355 O362 1.240 . S
C355 O363 1.252 . S
C356 O359 1.252 . S
C356 O360 1.260 . S
O357 In351 2.266 . S
O357 C354 1.252 . S
O358 In351 2.326 . S
O358 C354 1.260 . S
O359 In351 2.266 . S
O359 C356 1.252 . S
O360 In351 2.326 . S
O360 C356 1.260 . S
C361 O352 1.240 . S
C361 O353 1.252 . S
O362 In351 2.294 . S
O362 C355 1.240 . S
O363 In351 2.326 . S
O363 C355 1.252 . S
In364 O365 2.294 . S
In364 O366 2.326 . S
In364 O370 2.266 . S
In364 O371 2.326 . S
In364 O372 2.266 . S
In364 O373 2.326 . S
In364 O375 2.294 . S
In364 O376 2.326 . S
O365 In364 2.294 . S
O365 C374 1.240 . S
O366 In364 2.326 . S
O366 C374 1.252 . S
C367 O370 1.252 . S
C367 O371 1.260 . S
C368 O375 1.240 . S
C368 O376 1.252 . S
C369 O372 1.252 . S
C369 O373 1.260 . S
O370 In364 2.266 . S
O370 C367 1.252 . S
O371 In364 2.326 . S
O371 C367 1.260 . S
O372 In364 2.266 . S
O372 C369 1.252 . S
O373 In364 2.326 . S
O373 C369 1.260 . S
C374 O365 1.240 . S
C374 O366 1.252 . S
O375 In364 2.294 . S
O375 C368 1.240 . S
O376 In364 2.326 . S
O376 C368 1.252 . S
In377 O378 2.294 . S
In377 O379 2.326 . S
In377 O383 2.266 . S
In377 O384 2.326 . S
In377 O385 2.266 . S
In377 O386 2.326 . S
In377 O388 2.294 . S
In377 O389 2.326 . S
O378 In377 2.294 . S
O378 C387 1.240 . S
O379 In377 2.326 . S
O379 C387 1.252 . S
C380 O383 1.252 . S
C380 O384 1.260 . S
C381 O388 1.240 . S
C381 O389 1.252 . S
C382 O385 1.252 . S
C382 O386 1.260 . S
O383 In377 2.266 . S
O383 C380 1.252 . S
O384 In377 2.326 . S
O384 C380 1.260 . S
O385 In377 2.266 . S
O385 C382 1.252 . S
O386 In377 2.326 . S
O386 C382 1.260 . S
C387 O378 1.240 . S
C387 O379 1.252 . S
O388 In377 2.294 . S
O388 C381 1.240 . S
O389 In377 2.326 . S
O389 C381 1.252 . S
In390 O391 2.294 . S
In390 O392 2.326 . S
In390 O396 2.266 . S
In390 O397 2.326 . S
In390 O398 2.266 . S
In390 O399 2.326 . S
In390 O401 2.294 . S
In390 O402 2.326 . S
O391 In390 2.294 . S
O391 C400 1.240 . S
O392 In390 2.326 . S
O392 C400 1.252 . S
C393 O396 1.252 . S
C393 O397 1.260 . S
C394 O401 1.240 . S
C394 O402 1.252 . S
C395 O398 1.252 . S
C395 O399 1.260 . S
O396 In390 2.266 . S
O396 C393 1.252 . S
O397 In390 2.326 . S
O397 C393 1.260 . S
O398 In390 2.266 . S
O398 C395 1.252 . S
O399 In390 2.326 . S
O399 C395 1.260 . S
C400 O391 1.240 . S
C400 O392 1.252 . S
O401 In390 2.294 . S
O401 C394 1.240 . S
O402 In390 2.326 . S
O402 C394 1.252 . S
In403 O404 2.294 . S
In403 O405 2.326 . S
In403 O409 2.266 . S
In403 O410 2.326 . S
In403 O411 2.266 . S
In403 O412 2.326 . S
In403 O414 2.294 . S
In403 O415 2.326 . S
O404 In403 2.294 . S
O404 C413 1.240 . S
O405 In403 2.326 . S
O405 C413 1.252 . S
C406 O409 1.252 . S
C406 O410 1.260 . S
C407 O414 1.240 . S
C407 O415 1.252 . S
C408 O411 1.252 . S
C408 O412 1.260 . S
O409 In403 2.266 . S
O409 C406 1.252 . S
O410 In403 2.326 . S
O410 C406 1.260 . S
O411 In403 2.266 . S
O411 C408 1.252 . S
O412 In403 2.326 . S
O412 C408 1.260 . S
C413 O404 1.240 . S
C413 O405 1.252 . S
O414 In403 2.294 . S
O414 C407 1.240 . S
O415 In403 2.326 . S
O415 C407 1.252 . S
In416 O417 2.294 . S
In416 O418 2.326 . S
In416 O422 2.266 . S
In416 O423 2.326 . S
In416 O424 2.266 . S
In416 O425 2.326 . S
In416 O427 2.294 . S
In416 O428 2.326 . S
O417 In416 2.294 . S
O417 C426 1.240 . S
O418 In416 2.326 . S
O418 C426 1.252 . S
C419 O422 1.252 . S
C419 O423 1.260 . S
C420 O427 1.240 . S
C420 O428 1.252 . S
C421 O424 1.252 . S
C421 O425 1.260 . S
O422 In416 2.266 . S
O422 C419 1.252 . S
O423 In416 2.326 . S
O423 C419 1.260 . S
O424 In416 2.266 . S
O424 C421 1.252 . S
O425 In416 2.326 . S
O425 C421 1.260 . S
C426 O417 1.240 . S
C426 O418 1.252 . S
O427 In416 2.294 . S
O427 C420 1.240 . S
O428 In416 2.326 . S
O428 C420 1.252 . S
In429 O430 2.294 . S
In429 O431 2.326 . S
In429 O435 2.266 . S
In429 O436 2.326 . S
In429 O437 2.266 . S
In429 O438 2.326 . S
In429 O440 2.294 . S
In429 O441 2.326 . S
O430 In429 2.294 . S
O430 C439 1.240 . S
O431 In429 2.326 . S
O431 C439 1.252 . S
C432 O435 1.252 . S
C432 O436 1.260 . S
C433 O440 1.240 . S
C433 O441 1.252 . S
C434 O437 1.252 . S
C434 O438 1.260 . S
O435 In429 2.266 . S
O435 C432 1.252 . S
O436 In429 2.326 . S
O436 C432 1.260 . S
O437 In429 2.266 . S
O437 C434 1.252 . S
O438 In429 2.326 . S
O438 C434 1.260 . S
C439 O430 1.240 . S
C439 O431 1.252 . S
O440 In429 2.294 . S
O440 C433 1.240 . S
O441 In429 2.326 . S
O441 C433 1.252 . S
In442 O443 2.294 . S
In442 O444 2.326 . S
In442 O448 2.266 . S
In442 O449 2.326 . S
In442 O450 2.266 . S
In442 O451 2.326 . S
In442 O453 2.294 . S
In442 O454 2.326 . S
O443 In442 2.294 . S
O443 C452 1.240 . S
O444 In442 2.326 . S
O444 C452 1.252 . S
C445 O448 1.252 . S
C445 O449 1.260 . S
C446 O453 1.240 . S
C446 O454 1.252 . S
C447 O450 1.252 . S
C447 O451 1.260 . S
O448 In442 2.266 . S
O448 C445 1.252 . S
O449 In442 2.326 . S
O449 C445 1.260 . S
O450 In442 2.266 . S
O450 C447 1.252 . S
O451 In442 2.326 . S
O451 C447 1.260 . S
C452 O443 1.240 . S
C452 O444 1.252 . S
O453 In442 2.294 . S
O453 C446 1.240 . S
O454 In442 2.326 . S
O454 C446 1.252 . S
In455 O456 2.294 . S
In455 O457 2.326 . S
In455 O461 2.266 . S
In455 O462 2.326 . S
In455 O463 2.266 . S
In455 O464 2.326 . S
In455 O466 2.294 . S
In455 O467 2.326 . S
O456 In455 2.294 . S
O456 C465 1.240 . S
O457 In455 2.326 . S
O457 C465 1.252 . S
C458 O461 1.252 . S
C458 O462 1.260 . S
C459 O466 1.240 . S
C459 O467 1.252 . S
C460 O463 1.252 . S
C460 O464 1.260 . S
O461 In455 2.266 . S
O461 C458 1.252 . S
O462 In455 2.326 . S
O462 C458 1.260 . S
O463 In455 2.266 . S
O463 C460 1.252 . S
O464 In455 2.326 . S
O464 C460 1.260 . S
C465 O456 1.240 . S
C465 O457 1.252 . S
O466 In455 2.294 . S
O466 C459 1.240 . S
O467 In455 2.326 . S
O467 C459 1.252 . S
In468 O469 2.294 . S
In468 O470 2.326 . S
In468 O474 2.266 . S
In468 O475 2.326 . S
In468 O476 2.266 . S
In468 O477 2.326 . S
In468 O479 2.294 . S
In468 O480 2.326 . S
O469 In468 2.294 . S
O469 C478 1.240 . S
O470 In468 2.326 . S
O470 C478 1.252 . S
C471 O474 1.252 . S
C471 O475 1.260 . S
C472 O479 1.240 . S
C472 O480 1.252 . S
C473 O476 1.252 . S
C473 O477 1.260 . S
O474 In468 2.266 . S
O474 C471 1.252 . S
O475 In468 2.326 . S
O475 C471 1.260 . S
O476 In468 2.266 . S
O476 C473 1.252 . S
O477 In468 2.326 . S
O477 C473 1.260 . S
C478 O469 1.240 . S
C478 O470 1.252 . S
O479 In468 2.294 . S
O479 C472 1.240 . S
O480 In468 2.326 . S
O480 C472 1.252 . S
In481 O482 2.294 . S
In481 O483 2.326 . S
In481 O487 2.266 . S
In481 O488 2.326 . S
In481 O489 2.266 . S
In481 O490 2.326 . S
In481 O492 2.294 . S
In481 O493 2.326 . S
O482 In481 2.294 . S
O482 C491 1.240 . S
O483 In481 2.326 . S
O483 C491 1.252 . S
C484 O487 1.252 . S
C484 O488 1.260 . S
C485 O492 1.240 . S
C485 O493 1.252 . S
C486 O489 1.252 . S
C486 O490 1.260 . S
O487 In481 2.266 . S
O487 C484 1.252 . S
O488 In481 2.326 . S
O488 C484 1.260 . S
O489 In481 2.266 . S
O489 C486 1.252 . S
O490 In481 2.326 . S
O490 C486 1.260 . S
C491 O482 1.240 . S
C491 O483 1.252 . S
O492 In481 2.294 . S
O492 C485 1.240 . S
O493 In481 2.326 . S
O493 C485 1.252 . S
In494 O495 2.294 . S
In494 O496 2.326 . S
In494 O500 2.266 . S
In494 O501 2.326 . S
In494 O502 2.266 . S
In494 O503 2.326 . S
In494 O505 2.294 . S
In494 O506 2.326 . S
O495 In494 2.294 . S
O495 C504 1.240 . S
O496 In494 2.326 . S
O496 C504 1.252 . S
C497 O500 1.252 . S
C497 O501 1.260 . S
C498 O505 1.240 . S
C498 O506 1.252 . S
C499 O502 1.252 . S
C499 O503 1.260 . S
O500 In494 2.266 . S
O500 C497 1.252 . S
O501 In494 2.326 . S
O501 C497 1.260 . S
O502 In494 2.266 . S
O502 C499 1.252 . S
O503 In494 2.326 . S
O503 C499 1.260 . S
C504 O495 1.240 . S
C504 O496 1.252 . S
O505 In494 2.294 . S
O505 C498 1.240 . S
O506 In494 2.326 . S
O506 C498 1.252 . S
In507 O508 2.294 . S
In507 O509 2.326 . S
In507 O513 2.266 . S
In507 O514 2.326 . S
In507 O515 2.266 . S
In507 O516 2.326 . S
In507 O518 2.294 . S
In507 O519 2.326 . S
O508 In507 2.294 . S
O508 C517 1.240 . S
O509 In507 2.326 . S
O509 C517 1.252 . S
C510 O513 1.252 . S
C510 O514 1.260 . S
C511 O518 1.240 . S
C511 O519 1.252 . S
C512 O515 1.252 . S
C512 O516 1.260 . S
O513 In507 2.266 . S
O513 C510 1.252 . S
O514 In507 2.326 . S
O514 C510 1.260 . S
O515 In507 2.266 . S
O515 C512 1.252 . S
O516 In507 2.326 . S
O516 C512 1.260 . S
C517 O508 1.240 . S
C517 O509 1.252 . S
O518 In507 2.294 . S
O518 C511 1.240 . S
O519 In507 2.326 . S
O519 C511 1.252 . S
In520 O521 2.294 . S
In520 O522 2.326 . S
In520 O526 2.266 . S
In520 O527 2.326 . S
In520 O528 2.266 . S
In520 O529 2.326 . S
In520 O531 2.294 . S
In520 O532 2.326 . S
O521 In520 2.294 . S
O521 C530 1.240 . S
O522 In520 2.326 . S
O522 C530 1.252 . S
C523 O526 1.252 . S
C523 O527 1.260 . S
C524 O531 1.240 . S
C524 O532 1.252 . S
C525 O528 1.252 . S
C525 O529 1.260 . S
O526 In520 2.266 . S
O526 C523 1.252 . S
O527 In520 2.326 . S
O527 C523 1.260 . S
O528 In520 2.266 . S
O528 C525 1.252 . S
O529 In520 2.326 . S
O529 C525 1.260 . S
C530 O521 1.240 . S
C530 O522 1.252 . S
O531 In520 2.294 . S
O531 C524 1.240 . S
O532 In520 2.326 . S
O532 C524 1.252 . S
In533 O534 2.294 . S
In533 O535 2.326 . S
In533 O539 2.266 . S
In533 O540 2.326 . S
In533 O541 2.266 . S
In533 O542 2.326 . S
In533 O544 2.294 . S
In533 O545 2.326 . S
O534 In533 2.294 . S
O534 C543 1.240 . S
O535 In533 2.326 . S
O535 C543 1.252 . S
C536 O539 1.252 . S
C536 O540 1.260 . S
C537 O544 1.240 . S
C537 O545 1.252 . S
C538 O541 1.252 . S
C538 O542 1.260 . S
O539 In533 2.266 . S
O539 C536 1.252 . S
O540 In533 2.326 . S
O540 C536 1.260 . S
O541 In533 2.266 . S
O541 C538 1.252 . S
O542 In533 2.326 . S
O542 C538 1.260 . S
C543 O534 1.240 . S
C543 O535 1.252 . S
O544 In533 2.294 . S
O544 C537 1.240 . S
O545 In533 2.326 . S
O545 C537 1.252 . S
In546 O547 2.294 . S
In546 O548 2.326 . S
In546 O552 2.266 . S
In546 O553 2.326 . S
In546 O554 2.266 . S
In546 O555 2.326 . S
In546 O557 2.294 . S
In546 O558 2.326 . S
O547 In546 2.294 . S
O547 C556 1.240 . S
O548 In546 2.326 . S
O548 C556 1.252 . S
C549 O552 1.252 . S
C549 O553 1.260 . S
C550 O557 1.240 . S
C550 O558 1.252 . S
C551 O554 1.252 . S
C551 O555 1.260 . S
O552 In546 2.266 . S
O552 C549 1.252 . S
O553 In546 2.326 . S
O553 C549 1.260 . S
O554 In546 2.266 . S
O554 C551 1.252 . S
O555 In546 2.326 . S
O555 C551 1.260 . S
C556 O547 1.240 . S
C556 O548 1.252 . S
O557 In546 2.294 . S
O557 C550 1.240 . S
O558 In546 2.326 . S
O558 C550 1.252 . S
In559 O560 2.294 . S
In559 O561 2.326 . S
In559 O565 2.266 . S
In559 O566 2.326 . S
In559 O567 2.266 . S
In559 O568 2.326 . S
In559 O570 2.294 . S
In559 O571 2.326 . S
O560 In559 2.294 . S
O560 C569 1.240 . S
O561 In559 2.326 . S
O561 C569 1.252 . S
C562 O565 1.252 . S
C562 O566 1.260 . S
C563 O570 1.240 . S
C563 O571 1.252 . S
C564 O567 1.252 . S
C564 O568 1.260 . S
O565 In559 2.266 . S
O565 C562 1.252 . S
O566 In559 2.326 . S
O566 C562 1.260 . S
O567 In559 2.266 . S
O567 C564 1.252 . S
O568 In559 2.326 . S
O568 C564 1.260 . S
C569 O560 1.240 . S
C569 O561 1.252 . S
O570 In559 2.294 . S
O570 C563 1.240 . S
O571 In559 2.326 . S
O571 C563 1.252 . S
In572 O573 2.294 . S
In572 O574 2.326 . S
In572 O578 2.266 . S
In572 O579 2.326 . S
In572 O580 2.266 . S
In572 O581 2.326 . S
In572 O583 2.294 . S
In572 O584 2.326 . S
O573 In572 2.294 . S
O573 C582 1.240 . S
O574 In572 2.326 . S
O574 C582 1.252 . S
C575 O578 1.252 . S
C575 O579 1.260 . S
C576 O583 1.240 . S
C576 O584 1.252 . S
C577 O580 1.252 . S
C577 O581 1.260 . S
O578 In572 2.266 . S
O578 C575 1.252 . S
O579 In572 2.326 . S
O579 C575 1.260 . S
O580 In572 2.266 . S
O580 C577 1.252 . S
O581 In572 2.326 . S
O581 C577 1.260 . S
C582 O573 1.240 . S
C582 O574 1.252 . S
O583 In572 2.294 . S
O583 C576 1.240 . S
O584 In572 2.326 . S
O584 C576 1.252 . S
In585 O586 2.294 . S
In585 O587 2.326 . S
In585 O591 2.266 . S
In585 O592 2.326 . S
In585 O593 2.266 . S
In585 O594 2.326 . S
In585 O596 2.294 . S
In585 O597 2.326 . S
O586 In585 2.294 . S
O586 C595 1.240 . S
O587 In585 2.326 . S
O587 C595 1.252 . S
C588 O591 1.252 . S
C588 O592 1.260 . S
C589 O596 1.240 . S
C589 O597 1.252 . S
C590 O593 1.252 . S
C590 O594 1.260 . S
O591 In585 2.266 . S
O591 C588 1.252 . S
O592 In585 2.326 . S
O592 C588 1.260 . S
O593 In585 2.266 . S
O593 C590 1.252 . S
O594 In585 2.326 . S
O594 C590 1.260 . S
C595 O586 1.240 . S
C595 O587 1.252 . S
O596 In585 2.294 . S
O596 C589 1.240 . S
O597 In585 2.326 . S
O597 C589 1.252 . S
In598 O599 2.294 . S
In598 O600 2.326 . S
In598 O604 2.266 . S
In598 O605 2.326 . S
In598 O606 2.266 . S
In598 O607 2.326 . S
In598 O609 2.294 . S
In598 O610 2.326 . S
O599 In598 2.294 . S
O599 C608 1.240 . S
O600 In598 2.326 . S
O600 C608 1.252 . S
C601 O604 1.252 . S
C601 O605 1.260 . S
C602 O609 1.240 . S
C602 O610 1.252 . S
C603 O606 1.252 . S
C603 O607 1.260 . S
O604 In598 2.266 . S
O604 C601 1.252 . S
O605 In598 2.326 . S
O605 C601 1.260 . S
O606 In598 2.266 . S
O606 C603 1.252 . S
O607 In598 2.326 . S
O607 C603 1.260 . S
C608 O599 1.240 . S
C608 O600 1.252 . S
O609 In598 2.294 . S
O609 C602 1.240 . S
O610 In598 2.326 . S
O610 C602 1.252 . S
In611 O612 2.294 . S
In611 O613 2.326 . S
In611 O617 2.266 . S
In611 O618 2.326 . S
In611 O619 2.266 . S
In611 O620 2.326 . S
In611 O622 2.294 . S
In611 O623 2.326 . S
O612 In611 2.294 . S
O612 C621 1.240 . S
O613 In611 2.326 . S
O613 C621 1.252 . S
C614 O617 1.252 . S
C614 O618 1.260 . S
C615 O622 1.240 . S
C615 O623 1.252 . S
C616 O619 1.252 . S
C616 O620 1.260 . S
O617 In611 2.266 . S
O617 C614 1.252 . S
O618 In611 2.326 . S
O618 C614 1.260 . S
O619 In611 2.266 . S
O619 C616 1.252 . S
O620 In611 2.326 . S
O620 C616 1.260 . S
C621 O612 1.240 . S
C621 O613 1.252 . S
O622 In611 2.294 . S
O622 C615 1.240 . S
O623 In611 2.326 . S
O623 C615 1.252 . S
H624 C632 0.950 . S
H625 C637 0.950 . S
H626 C634 0.950 1_455 S
H627 C636 0.950 . S
H628 C638 0.950 . S
H629 C640 0.950 1_655 S
H630 C642 0.950 . S
H631 C643 0.950 . S
C632 H624 0.950 . S
C632 C633 1.386 . S
C632 C634 1.391 . S
C633 C632 1.386 . S
C633 C637 1.393 . S
C634 H626 0.950 1_655 S
C634 C632 1.391 . S
C634 C635 1.400 . S
C635 C634 1.400 . S
C635 C636 1.398 . S
C635 C641 1.491 1_655 S
C636 H627 0.950 . S
C636 C635 1.398 . S
C636 C637 1.391 . S
C637 H625 0.950 . S
C637 C633 1.393 . S
C637 C636 1.391 . S
C638 H628 0.950 . S
C638 C639 1.386 . S
C638 C640 1.391 . S
C639 C638 1.386 . S
C639 C643 1.393 . S
C640 H629 0.950 1_455 S
C640 C638 1.391 . S
C640 C641 1.400 . S
C641 C635 1.491 1_455 S
C641 C640 1.400 . S
C641 C642 1.398 . S
C642 H630 0.950 . S
C642 C641 1.398 . S
C642 C643 1.391 . S
C643 H631 0.950 . S
C643 C639 1.393 . S
C643 C642 1.391 . S
H644 C652 0.950 . S
H645 C657 0.950 . S
H646 C654 0.950 . S
H647 C656 0.950 1_545 S
H648 C658 0.950 . S
H649 C660 0.950 . S
H650 C662 0.950 1_565 S
H651 C663 0.950 . S
C652 H644 0.950 . S
C652 C653 1.386 . S
C652 C654 1.391 . S
C653 C652 1.386 . S
C653 C657 1.393 . S
C654 H646 0.950 . S
C654 C652 1.391 . S
C654 C655 1.400 . S
C655 C654 1.400 . S
C655 C656 1.398 . S
C655 C661 1.491 1_565 S
C656 H647 0.950 1_565 S
C656 C655 1.398 . S
C656 C657 1.391 . S
C657 H645 0.950 . S
C657 C653 1.393 . S
C657 C656 1.391 . S
C658 H648 0.950 . S
C658 C659 1.386 . S
C658 C660 1.391 . S
C659 C658 1.386 . S
C659 C663 1.393 . S
C660 H649 0.950 . S
C660 C658 1.391 . S
C660 C661 1.400 . S
C661 C655 1.491 1_545 S
C661 C660 1.400 . S
C661 C662 1.398 . S
C662 H650 0.950 1_545 S
C662 C661 1.398 . S
C662 C663 1.391 . S
C663 H651 0.950 . S
C663 C659 1.393 . S
C663 C662 1.391 . S
H664 C672 0.950 . S
H665 C677 0.950 . S
H666 C674 0.950 1_655 S
H667 C676 0.950 . S
H668 C678 0.950 . S
H669 C680 0.950 1_455 S
H670 C682 0.950 . S
H671 C683 0.950 . S
C672 H664 0.950 . S
C672 C673 1.386 . S
C672 C674 1.391 . S
C673 C672 1.386 . S
C673 C677 1.393 . S
C674 H666 0.950 1_455 S
C674 C672 1.391 . S
C674 C675 1.400 . S
C675 C674 1.400 . S
C675 C676 1.398 . S
C675 C681 1.491 1_455 S
C676 H667 0.950 . S
C676 C675 1.398 . S
C676 C677 1.391 . S
C677 H665 0.950 . S
C677 C673 1.393 . S
C677 C676 1.391 . S
C678 H668 0.950 . S
C678 C679 1.386 . S
C678 C680 1.391 . S
C679 C678 1.386 . S
C679 C683 1.393 . S
C680 H669 0.950 1_655 S
C680 C678 1.391 . S
C680 C681 1.400 . S
C681 C675 1.491 1_655 S
C681 C680 1.400 . S
C681 C682 1.398 . S
C682 H670 0.950 . S
C682 C681 1.398 . S
C682 C683 1.391 . S
C683 H671 0.950 . S
C683 C679 1.393 . S
C683 C682 1.391 . S
H684 C692 0.950 . S
H685 C697 0.950 . S
H686 C694 0.950 . S
H687 C696 0.950 1_545 S
H688 C698 0.950 . S
H689 C700 0.950 . S
H690 C702 0.950 1_565 S
H691 C703 0.950 . S
C692 H684 0.950 . S
C692 C693 1.386 . S
C692 C694 1.391 . S
C693 C692 1.386 . S
C693 C697 1.393 . S
C694 H686 0.950 . S
C694 C692 1.391 . S
C694 C695 1.400 . S
C695 C694 1.400 . S
C695 C696 1.398 . S
C695 C701 1.491 1_565 S
C696 H687 0.950 1_565 S
C696 C695 1.398 . S
C696 C697 1.391 . S
C697 H685 0.950 . S
C697 C693 1.393 . S
C697 C696 1.391 . S
C698 H688 0.950 . S
C698 C699 1.386 . S
C698 C700 1.391 . S
C699 C698 1.386 . S
C699 C703 1.393 . S
C700 H689 0.950 . S
C700 C698 1.391 . S
C700 C701 1.400 . S
C701 C695 1.491 1_545 S
C701 C700 1.400 . S
C701 C702 1.398 . S
C702 H690 0.950 1_545 S
C702 C701 1.398 . S
C702 C703 1.391 . S
C703 H691 0.950 . S
C703 C699 1.393 . S
C703 C702 1.391 . S
H704 C712 0.950 . S
H705 C717 0.950 . S
H706 C714 0.950 1_455 S
H707 C716 0.950 . S
H708 C718 0.950 . S
H709 C720 0.950 1_655 S
H710 C722 0.950 . S
H711 C723 0.950 . S
C712 H704 0.950 . S
C712 C713 1.386 . S
C712 C714 1.391 . S
C713 C712 1.386 . S
C713 C717 1.393 . S
C714 H706 0.950 1_655 S
C714 C712 1.391 . S
C714 C715 1.400 . S
C715 C714 1.400 . S
C715 C716 1.398 . S
C715 C721 1.491 1_655 S
C716 H707 0.950 . S
C716 C715 1.398 . S
C716 C717 1.391 . S
C717 H705 0.950 . S
C717 C713 1.393 . S
C717 C716 1.391 . S
C718 H708 0.950 . S
C718 C719 1.386 . S
C718 C720 1.391 . S
C719 C718 1.386 . S
C719 C723 1.393 . S
C720 H709 0.950 1_455 S
C720 C718 1.391 . S
C720 C721 1.400 . S
C721 C715 1.491 1_455 S
C721 C720 1.400 . S
C721 C722 1.398 . S
C722 H710 0.950 . S
C722 C721 1.398 . S
C722 C723 1.391 . S
C723 H711 0.950 . S
C723 C719 1.393 . S
C723 C722 1.391 . S
H724 C732 0.950 . S
H725 C737 0.950 . S
H726 C734 0.950 . S
H727 C736 0.950 . S
H728 C738 0.950 . S
H729 C740 0.950 . S
H730 C742 0.950 . S
H731 C743 0.950 . S
C732 H724 0.950 . S
C732 C733 1.386 . S
C732 C734 1.391 . S
C733 C732 1.386 . S
C733 C737 1.393 . S
C734 H726 0.950 . S
C734 C732 1.391 . S
C734 C735 1.400 . S
C735 C734 1.400 . S
C735 C736 1.398 . S
C735 C741 1.491 1_545 S
C736 H727 0.950 . S
C736 C735 1.398 . S
C736 C737 1.391 . S
C737 H725 0.950 . S
C737 C733 1.393 . S
C737 C736 1.391 . S
C738 H728 0.950 . S
C738 C739 1.386 . S
C738 C740 1.391 . S
C739 C738 1.386 . S
C739 C743 1.393 . S
C740 H729 0.950 . S
C740 C738 1.391 . S
C740 C741 1.400 . S
C741 C735 1.491 1_565 S
C741 C740 1.400 . S
C741 C742 1.398 . S
C742 H730 0.950 . S
C742 C741 1.398 . S
C742 C743 1.391 . S
C743 H731 0.950 . S
C743 C739 1.393 . S
C743 C742 1.391 . S
H744 C752 0.950 . S
H745 C757 0.950 . S
H746 C754 0.950 1_655 S
H747 C756 0.950 . S
H748 C758 0.950 . S
H749 C760 0.950 1_455 S
H750 C762 0.950 . S
H751 C763 0.950 . S
C752 H744 0.950 . S
C752 C753 1.386 . S
C752 C754 1.391 . S
C753 C752 1.386 . S
C753 C757 1.393 . S
C754 H746 0.950 1_455 S
C754 C752 1.391 . S
C754 C755 1.400 . S
C755 C754 1.400 . S
C755 C756 1.398 . S
C755 C761 1.491 1_455 S
C756 H747 0.950 . S
C756 C755 1.398 . S
C756 C757 1.391 . S
C757 H745 0.950 . S
C757 C753 1.393 . S
C757 C756 1.391 . S
C758 H748 0.950 . S
C758 C759 1.386 . S
C758 C760 1.391 . S
C759 C758 1.386 . S
C759 C763 1.393 . S
C760 H749 0.950 1_655 S
C760 C758 1.391 . S
C760 C761 1.400 . S
C761 C755 1.491 1_655 S
C761 C760 1.400 . S
C761 C762 1.398 . S
C762 H750 0.950 . S
C762 C761 1.398 . S
C762 C763 1.391 . S
C763 H751 0.950 . S
C763 C759 1.393 . S
C763 C762 1.391 . S
H764 C772 0.950 . S
H765 C777 0.950 . S
H766 C774 0.950 . S
H767 C776 0.950 . S
H768 C778 0.950 . S
H769 C780 0.950 . S
H770 C782 0.950 . S
H771 C783 0.950 . S
C772 H764 0.950 . S
C772 C773 1.386 . S
C772 C774 1.391 . S
C773 C772 1.386 . S
C773 C777 1.393 . S
C774 H766 0.950 . S
C774 C772 1.391 . S
C774 C775 1.400 . S
C775 C774 1.400 . S
C775 C776 1.398 . S
C775 C781 1.491 1_545 S
C776 H767 0.950 . S
C776 C775 1.398 . S
C776 C777 1.391 . S
C777 H765 0.950 . S
C777 C773 1.393 . S
C777 C776 1.391 . S
C778 H768 0.950 . S
C778 C779 1.386 . S
C778 C780 1.391 . S
C779 C778 1.386 . S
C779 C783 1.393 . S
C780 H769 0.950 . S
C780 C778 1.391 . S
C780 C781 1.400 . S
C781 C775 1.491 1_565 S
C781 C780 1.400 . S
C781 C782 1.398 . S
C782 H770 0.950 . S
C782 C781 1.398 . S
C782 C783 1.391 . S
C783 H771 0.950 . S
C783 C779 1.393 . S
C783 C782 1.391 . S
H784 C792 0.950 . S
H785 C797 0.950 . S
H786 C794 0.950 . S
H787 C796 0.950 . S
H788 C798 0.950 . S
H789 C800 0.950 . S
H790 C802 0.950 . S
H791 C803 0.950 . S
C792 H784 0.950 . S
C792 C793 1.386 . S
C792 C794 1.391 . S
C793 C792 1.386 . S
C793 C797 1.393 . S
C794 H786 0.950 . S
C794 C792 1.391 . S
C794 C795 1.400 . S
C795 C794 1.400 . S
C795 C796 1.398 . S
C795 C801 1.491 1_554 S
C796 H787 0.950 . S
C796 C795 1.398 . S
C796 C797 1.391 . S
C797 H785 0.950 . S
C797 C793 1.393 . S
C797 C796 1.391 . S
C798 H788 0.950 . S
C798 C799 1.386 . S
C798 C800 1.391 . S
C799 C798 1.386 . S
C799 C803 1.393 . S
C800 H789 0.950 . S
C800 C798 1.391 . S
C800 C801 1.400 . S
C801 C795 1.491 1_556 S
C801 C800 1.400 . S
C801 C802 1.398 . S
C802 H790 0.950 . S
C802 C801 1.398 . S
C802 C803 1.391 . S
C803 H791 0.950 . S
C803 C799 1.393 . S
C803 C802 1.391 . S
H804 C812 0.950 . S
H805 C817 0.950 . S
H806 C814 0.950 . S
H807 C816 0.950 1_554 S
H808 C818 0.950 . S
H809 C820 0.950 . S
H810 C822 0.950 1_556 S
H811 C823 0.950 . S
C812 H804 0.950 . S
C812 C813 1.386 . S
C812 C814 1.391 . S
C813 C812 1.386 . S
C813 C817 1.393 . S
C814 H806 0.950 . S
C814 C812 1.391 . S
C814 C815 1.400 . S
C815 C814 1.400 . S
C815 C816 1.398 . S
C815 C821 1.491 1_556 S
C816 H807 0.950 1_556 S
C816 C815 1.398 . S
C816 C817 1.391 . S
C817 H805 0.950 . S
C817 C813 1.393 . S
C817 C816 1.391 . S
C818 H808 0.950 . S
C818 C819 1.386 . S
C818 C820 1.391 . S
C819 C818 1.386 . S
C819 C823 1.393 . S
C820 H809 0.950 . S
C820 C818 1.391 . S
C820 C821 1.400 . S
C821 C815 1.491 1_554 S
C821 C820 1.400 . S
C821 C822 1.398 . S
C822 H810 0.950 1_554 S
C822 C821 1.398 . S
C822 C823 1.391 . S
C823 H811 0.950 . S
C823 C819 1.393 . S
C823 C822 1.391 . S
H824 C832 0.950 . S
H825 C837 0.950 . S
H826 C834 0.950 1_554 S
H827 C836 0.950 . S
H828 C838 0.950 . S
H829 C840 0.950 1_556 S
H830 C842 0.950 . S
H831 C843 0.950 . S
C832 H824 0.950 . S
C832 C833 1.386 . S
C832 C834 1.391 . S
C833 C832 1.386 . S
C833 C837 1.393 . S
C834 H826 0.950 1_556 S
C834 C832 1.391 . S
C834 C835 1.400 . S
C835 C834 1.400 . S
C835 C836 1.398 . S
C835 C841 1.491 1_556 S
C836 H827 0.950 . S
C836 C835 1.398 . S
C836 C837 1.391 . S
C837 H825 0.950 . S
C837 C833 1.393 . S
C837 C836 1.391 . S
C838 H828 0.950 . S
C838 C839 1.386 . S
C838 C840 1.391 . S
C839 C838 1.386 . S
C839 C843 1.393 . S
C840 H829 0.950 1_554 S
C840 C838 1.391 . S
C840 C841 1.400 . S
C841 C835 1.491 1_554 S
C841 C840 1.400 . S
C841 C842 1.398 . S
C842 H830 0.950 . S
C842 C841 1.398 . S
C842 C843 1.391 . S
C843 H831 0.950 . S
C843 C839 1.393 . S
C843 C842 1.391 . S
H844 C852 0.950 . S
H845 C857 0.950 . S
H846 C854 0.950 1_554 S
H847 C856 0.950 . S
H848 C858 0.950 . S
H849 C860 0.950 1_556 S
H850 C862 0.950 . S
H851 C863 0.950 . S
C852 H844 0.950 . S
C852 C853 1.386 . S
C852 C854 1.391 . S
C853 C852 1.386 . S
C853 C857 1.393 . S
C854 H846 0.950 1_556 S
C854 C852 1.391 . S
C854 C855 1.400 . S
C855 C854 1.400 . S
C855 C856 1.398 . S
C855 C861 1.491 1_556 S
C856 H847 0.950 . S
C856 C855 1.398 . S
C856 C857 1.391 . S
C857 H845 0.950 . S
C857 C853 1.393 . S
C857 C856 1.391 . S
C858 H848 0.950 . S
C858 C859 1.386 . S
C858 C860 1.391 . S
C859 C858 1.386 . S
C859 C863 1.393 . S
C860 H849 0.950 1_554 S
C860 C858 1.391 . S
C860 C861 1.400 . S
C861 C855 1.491 1_554 S
C861 C860 1.400 . S
C861 C862 1.398 . S
C862 H850 0.950 . S
C862 C861 1.398 . S
C862 C863 1.391 . S
C863 H851 0.950 . S
C863 C859 1.393 . S
C863 C862 1.391 . S
H864 C872 0.950 . S
H865 C877 0.950 . S
H866 C874 0.950 . S
H867 C876 0.950 . S
H868 C878 0.950 . S
H869 C880 0.950 . S
H870 C882 0.950 . S
H871 C883 0.950 . S
C872 H864 0.950 . S
C872 C873 1.386 . S
C872 C874 1.391 . S
C873 C872 1.386 . S
C873 C877 1.393 . S
C874 H866 0.950 . S
C874 C872 1.391 . S
C874 C875 1.400 . S
C875 C874 1.400 . S
C875 C876 1.398 . S
C875 C881 1.491 . S
C876 H867 0.950 . S
C876 C875 1.398 . S
C876 C877 1.391 . S
C877 H865 0.950 . S
C877 C873 1.393 . S
C877 C876 1.391 . S
C878 H868 0.950 . S
C878 C879 1.386 . S
C878 C880 1.391 . S
C879 C878 1.386 . S
C879 C883 1.393 . S
C880 H869 0.950 . S
C880 C878 1.391 . S
C880 C881 1.400 . S
C881 C875 1.491 . S
C881 C880 1.400 . S
C881 C882 1.398 . S
C882 H870 0.950 . S
C882 C881 1.398 . S
C882 C883 1.391 . S
C883 H871 0.950 . S
C883 C879 1.393 . S
C883 C882 1.391 . S
H884 C892 0.950 . S
H885 C897 0.950 . S
H886 C894 0.950 . S
H887 C896 0.950 . S
H888 C898 0.950 . S
H889 C900 0.950 . S
H890 C902 0.950 . S
H891 C903 0.950 . S
C892 H884 0.950 . S
C892 C893 1.386 . S
C892 C894 1.391 . S
C893 C892 1.386 . S
C893 C897 1.393 . S
C894 H886 0.950 . S
C894 C892 1.391 . S
C894 C895 1.400 . S
C895 C894 1.400 . S
C895 C896 1.398 . S
C895 C901 1.491 . S
C896 H887 0.950 . S
C896 C895 1.398 . S
C896 C897 1.391 . S
C897 H885 0.950 . S
C897 C893 1.393 . S
C897 C896 1.391 . S
C898 H888 0.950 . S
C898 C899 1.386 . S
C898 C900 1.391 . S
C899 C898 1.386 . S
C899 C903 1.393 . S
C900 H889 0.950 . S
C900 C898 1.391 . S
C900 C901 1.400 . S
C901 C895 1.491 . S
C901 C900 1.400 . S
C901 C902 1.398 . S
C902 H890 0.950 . S
C902 C901 1.398 . S
C902 C903 1.391 . S
C903 H891 0.950 . S
C903 C899 1.393 . S
C903 C902 1.391 . S
H904 C912 0.950 . S
H905 C917 0.950 . S
H906 C914 0.950 . S
H907 C916 0.950 . S
H908 C918 0.950 . S
H909 C920 0.950 . S
H910 C922 0.950 . S
H911 C923 0.950 . S
C912 H904 0.950 . S
C912 C913 1.386 . S
C912 C914 1.391 . S
C913 C912 1.386 . S
C913 C917 1.393 . S
C914 H906 0.950 . S
C914 C912 1.391 . S
C914 C915 1.400 . S
C915 C914 1.400 . S
C915 C916 1.398 . S
C915 C921 1.491 . S
C916 H907 0.950 . S
C916 C915 1.398 . S
C916 C917 1.391 . S
C917 H905 0.950 . S
C917 C913 1.393 . S
C917 C916 1.391 . S
C918 H908 0.950 . S
C918 C919 1.386 . S
C918 C920 1.391 . S
C919 C918 1.386 . S
C919 C923 1.393 . S
C920 H909 0.950 . S
C920 C918 1.391 . S
C920 C921 1.400 . S
C921 C915 1.491 . S
C921 C920 1.400 . S
C921 C922 1.398 . S
C922 H910 0.950 . S
C922 C921 1.398 . S
C922 C923 1.391 . S
C923 H911 0.950 . S
C923 C919 1.393 . S
C923 C922 1.391 . S
H924 C932 0.950 . S
H925 C937 0.950 . S
H926 C934 0.950 . S
H927 C936 0.950 . S
H928 C938 0.950 . S
H929 C940 0.950 . S
H930 C942 0.950 . S
H931 C943 0.950 . S
C932 H924 0.950 . S
C932 C933 1.386 . S
C932 C934 1.391 . S
C933 C932 1.386 . S
C933 C937 1.393 . S
C934 H926 0.950 . S
C934 C932 1.391 . S
C934 C935 1.400 . S
C935 C934 1.400 . S
C935 C936 1.398 . S
C935 C941 1.491 . S
C936 H927 0.950 . S
C936 C935 1.398 . S
C936 C937 1.391 . S
C937 H925 0.950 . S
C937 C933 1.393 . S
C937 C936 1.391 . S
C938 H928 0.950 . S
C938 C939 1.386 . S
C938 C940 1.391 . S
C939 C938 1.386 . S
C939 C943 1.393 . S
C940 H929 0.950 . S
C940 C938 1.391 . S
C940 C941 1.400 . S
C941 C935 1.491 . S
C941 C940 1.400 . S
C941 C942 1.398 . S
C942 H930 0.950 . S
C942 C941 1.398 . S
C942 C943 1.391 . S
C943 H931 0.950 . S
C943 C939 1.393 . S
C943 C942 1.391 . S
H944 C952 0.950 . S
H945 C957 0.950 . S
H946 C954 0.950 . S
H947 C956 0.950 . S
H948 C958 0.950 . S
H949 C960 0.950 . S
H950 C962 0.950 . S
H951 C963 0.950 . S
C952 H944 0.950 . S
C952 C953 1.386 . S
C952 C954 1.391 . S
C953 C952 1.386 . S
C953 C957 1.393 . S
C954 H946 0.950 . S
C954 C952 1.391 . S
C954 C955 1.400 . S
C955 C954 1.400 . S
C955 C956 1.398 . S
C955 C961 1.491 . S
C956 H947 0.950 . S
C956 C955 1.398 . S
C956 C957 1.391 . S
C957 H945 0.950 . S
C957 C953 1.393 . S
C957 C956 1.391 . S
C958 H948 0.950 . S
C958 C959 1.386 . S
C958 C960 1.391 . S
C959 C958 1.386 . S
C959 C963 1.393 . S
C960 H949 0.950 . S
C960 C958 1.391 . S
C960 C961 1.400 . S
C961 C955 1.491 . S
C961 C960 1.400 . S
C961 C962 1.398 . S
C962 H950 0.950 . S
C962 C961 1.398 . S
C962 C963 1.391 . S
C963 H951 0.950 . S
C963 C959 1.393 . S
C963 C962 1.391 . S
H964 C972 0.950 . S
H965 C977 0.950 . S
H966 C974 0.950 . S
H967 C976 0.950 . S
H968 C978 0.950 . S
H969 C980 0.950 . S
H970 C982 0.950 . S
H971 C983 0.950 . S
C972 H964 0.950 . S
C972 C973 1.386 . S
C972 C974 1.391 . S
C973 C972 1.386 . S
C973 C977 1.393 . S
C974 H966 0.950 . S
C974 C972 1.391 . S
C974 C975 1.400 . S
C975 C974 1.400 . S
C975 C976 1.398 . S
C975 C981 1.491 . S
C976 H967 0.950 . S
C976 C975 1.398 . S
C976 C977 1.391 . S
C977 H965 0.950 . S
C977 C973 1.393 . S
C977 C976 1.391 . S
C978 H968 0.950 . S
C978 C979 1.386 . S
C978 C980 1.391 . S
C979 C978 1.386 . S
C979 C983 1.393 . S
C980 H969 0.950 . S
C980 C978 1.391 . S
C980 C981 1.400 . S
C981 C975 1.491 . S
C981 C980 1.400 . S
C981 C982 1.398 . S
C982 H970 0.950 . S
C982 C981 1.398 . S
C982 C983 1.391 . S
C983 H971 0.950 . S
C983 C979 1.393 . S
C983 C982 1.391 . S
H984 C992 0.950 . S
H985 C997 0.950 . S
H986 C994 0.950 . S
H987 C996 0.950 . S
H988 C998 0.950 . S
H989 C1000 0.950 . S
H990 C1002 0.950 . S
H991 C1003 0.950 . S
C992 H984 0.950 . S
C992 C993 1.386 . S
C992 C994 1.391 . S
C993 C992 1.386 . S
C993 C997 1.393 . S
C994 H986 0.950 . S
C994 C992 1.391 . S
C994 C995 1.400 . S
C995 C994 1.400 . S
C995 C996 1.398 . S
C995 C1001 1.491 . S
C996 H987 0.950 . S
C996 C995 1.398 . S
C996 C997 1.391 . S
C997 H985 0.950 . S
C997 C993 1.393 . S
C997 C996 1.391 . S
C998 H988 0.950 . S
C998 C999 1.386 . S
C998 C1000 1.391 . S
C999 C998 1.386 . S
C999 C1003 1.393 . S
C1000 H989 0.950 . S
C1000 C998 1.391 . S
C1000 C1001 1.400 . S
C1001 C995 1.491 . S
C1001 C1000 1.400 . S
C1001 C1002 1.398 . S
C1002 H990 0.950 . S
C1002 C1001 1.398 . S
C1002 C1003 1.391 . S
C1003 H991 0.950 . S
C1003 C999 1.393 . S
C1003 C1002 1.391 . S
H1004 C1012 0.950 . S
H1005 C1017 0.950 . S
H1006 C1014 0.950 . S
H1007 C1016 0.950 . S
H1008 C1018 0.950 . S
H1009 C1020 0.950 . S
H1010 C1022 0.950 . S
H1011 C1023 0.950 . S
C1012 H1004 0.950 . S
C1012 C1013 1.386 . S
C1012 C1014 1.391 . S
C1013 C1012 1.386 . S
C1013 C1017 1.393 . S
C1014 H1006 0.950 . S
C1014 C1012 1.391 . S
C1014 C1015 1.400 . S
C1015 C1014 1.400 . S
C1015 C1016 1.398 . S
C1015 C1021 1.491 . S
C1016 H1007 0.950 . S
C1016 C1015 1.398 . S
C1016 C1017 1.391 . S
C1017 H1005 0.950 . S
C1017 C1013 1.393 . S
C1017 C1016 1.391 . S
C1018 H1008 0.950 . S
C1018 C1019 1.386 . S
C1018 C1020 1.391 . S
C1019 C1018 1.386 . S
C1019 C1023 1.393 . S
C1020 H1009 0.950 . S
C1020 C1018 1.391 . S
C1020 C1021 1.400 . S
C1021 C1015 1.491 . S
C1021 C1020 1.400 . S
C1021 C1022 1.398 . S
C1022 H1010 0.950 . S
C1022 C1021 1.398 . S
C1022 C1023 1.391 . S
C1023 H1011 0.950 . S
C1023 C1019 1.393 . S
C1023 C1022 1.391 . S
H1024 C1032 0.950 . S
H1025 C1037 0.950 . S
H1026 C1034 0.950 . S
H1027 C1036 0.950 . S
H1028 C1038 0.950 . S
H1029 C1040 0.950 . S
H1030 C1042 0.950 . S
H1031 C1043 0.950 . S
C1032 H1024 0.950 . S
C1032 C1033 1.386 . S
C1032 C1034 1.391 . S
C1033 C1032 1.386 . S
C1033 C1037 1.393 . S
C1034 H1026 0.950 . S
C1034 C1032 1.391 . S
C1034 C1035 1.400 . S
C1035 C1034 1.400 . S
C1035 C1036 1.398 . S
C1035 C1041 1.491 . S
C1036 H1027 0.950 . S
C1036 C1035 1.398 . S
C1036 C1037 1.391 . S
C1037 H1025 0.950 . S
C1037 C1033 1.393 . S
C1037 C1036 1.391 . S
C1038 H1028 0.950 . S
C1038 C1039 1.386 . S
C1038 C1040 1.391 . S
C1039 C1038 1.386 . S
C1039 C1043 1.393 . S
C1040 H1029 0.950 . S
C1040 C1038 1.391 . S
C1040 C1041 1.400 . S
C1041 C1035 1.491 . S
C1041 C1040 1.400 . S
C1041 C1042 1.398 . S
C1042 H1030 0.950 . S
C1042 C1041 1.398 . S
C1042 C1043 1.391 . S
C1043 H1031 0.950 . S
C1043 C1039 1.393 . S
C1043 C1042 1.391 . S
H1044 C1052 0.950 . S
H1045 C1057 0.950 . S
H1046 C1054 0.950 . S
H1047 C1056 0.950 . S
H1048 C1058 0.950 . S
H1049 C1060 0.950 . S
H1050 C1062 0.950 . S
H1051 C1063 0.950 . S
C1052 H1044 0.950 . S
C1052 C1053 1.386 . S
C1052 C1054 1.391 . S
C1053 C1052 1.386 . S
C1053 C1057 1.393 . S
C1054 H1046 0.950 . S
C1054 C1052 1.391 . S
C1054 C1055 1.400 . S
C1055 C1054 1.400 . S
C1055 C1056 1.398 . S
C1055 C1061 1.491 . S
C1056 H1047 0.950 . S
C1056 C1055 1.398 . S
C1056 C1057 1.391 . S
C1057 H1045 0.950 . S
C1057 C1053 1.393 . S
C1057 C1056 1.391 . S
C1058 H1048 0.950 . S
C1058 C1059 1.386 . S
C1058 C1060 1.391 . S
C1059 C1058 1.386 . S
C1059 C1063 1.393 . S
C1060 H1049 0.950 . S
C1060 C1058 1.391 . S
C1060 C1061 1.400 . S
C1061 C1055 1.491 . S
C1061 C1060 1.400 . S
C1061 C1062 1.398 . S
C1062 H1050 0.950 . S
C1062 C1061 1.398 . S
C1062 C1063 1.391 . S
C1063 H1051 0.950 . S
C1063 C1059 1.393 . S
C1063 C1062 1.391 . S
H1064 C1072 0.950 . S
H1065 C1077 0.950 . S
H1066 C1074 0.950 . S
H1067 C1076 0.950 . S
H1068 C1078 0.950 . S
H1069 C1080 0.950 . S
H1070 C1082 0.950 . S
H1071 C1083 0.950 . S
C1072 H1064 0.950 . S
C1072 C1073 1.386 . S
C1072 C1074 1.391 . S
C1073 C1072 1.386 . S
C1073 C1077 1.393 . S
C1074 H1066 0.950 . S
C1074 C1072 1.391 . S
C1074 C1075 1.400 . S
C1075 C1074 1.400 . S
C1075 C1076 1.398 . S
C1075 C1081 1.491 . S
C1076 H1067 0.950 . S
C1076 C1075 1.398 . S
C1076 C1077 1.391 . S
C1077 H1065 0.950 . S
C1077 C1073 1.393 . S
C1077 C1076 1.391 . S
C1078 H1068 0.950 . S
C1078 C1079 1.386 . S
C1078 C1080 1.391 . S
C1079 C1078 1.386 . S
C1079 C1083 1.393 . S
C1080 H1069 0.950 . S
C1080 C1078 1.391 . S
C1080 C1081 1.400 . S
C1081 C1075 1.491 . S
C1081 C1080 1.400 . S
C1081 C1082 1.398 . S
C1082 H1070 0.950 . S
C1082 C1081 1.398 . S
C1082 C1083 1.391 . S
C1083 H1071 0.950 . S
C1083 C1079 1.393 . S
C1083 C1082 1.391 . S
H1084 C1092 0.950 . S
H1085 C1097 0.950 . S
H1086 C1094 0.950 . S
H1087 C1096 0.950 . S
H1088 C1098 0.950 . S
H1089 C1100 0.950 . S
H1090 C1102 0.950 . S
H1091 C1103 0.950 . S
C1092 H1084 0.950 . S
C1092 C1093 1.386 . S
C1092 C1094 1.391 . S
C1093 C1092 1.386 . S
C1093 C1097 1.393 . S
C1094 H1086 0.950 . S
C1094 C1092 1.391 . S
C1094 C1095 1.400 . S
C1095 C1094 1.400 . S
C1095 C1096 1.398 . S
C1095 C1101 1.491 . S
C1096 H1087 0.950 . S
C1096 C1095 1.398 . S
C1096 C1097 1.391 . S
C1097 H1085 0.950 . S
C1097 C1093 1.393 . S
C1097 C1096 1.391 . S
C1098 H1088 0.950 . S
C1098 C1099 1.386 . S
C1098 C1100 1.391 . S
C1099 C1098 1.386 . S
C1099 C1103 1.393 . S
C1100 H1089 0.950 . S
C1100 C1098 1.391 . S
C1100 C1101 1.400 . S
C1101 C1095 1.491 . S
C1101 C1100 1.400 . S
C1101 C1102 1.398 . S
C1102 H1090 0.950 . S
C1102 C1101 1.398 . S
C1102 C1103 1.391 . S
C1103 H1091 0.950 . S
C1103 C1099 1.393 . S
C1103 C1102 1.391 . S
H1104 C1112 0.950 . S
H1105 C1117 0.950 . S
H1106 C1114 0.950 . S
H1107 C1116 0.950 . S
H1108 C1118 0.950 . S
H1109 C1120 0.950 . S
H1110 C1122 0.950 . S
H1111 C1123 0.950 . S
C1112 H1104 0.950 . S
C1112 C1113 1.386 . S
C1112 C1114 1.391 . S
C1113 C1112 1.386 . S
C1113 C1117 1.393 . S
C1114 H1106 0.950 . S
C1114 C1112 1.391 . S
C1114 C1115 1.400 . S
C1115 C1114 1.400 . S
C1115 C1116 1.398 . S
C1115 C1121 1.491 . S
C1116 H1107 0.950 . S
C1116 C1115 1.398 . S
C1116 C1117 1.391 . S
C1117 H1105 0.950 . S
C1117 C1113 1.393 . S
C1117 C1116 1.391 . S
C1118 H1108 0.950 . S
C1118 C1119 1.386 . S
C1118 C1120 1.391 . S
C1119 C1118 1.386 . S
C1119 C1123 1.393 . S
C1120 H1109 0.950 . S
C1120 C1118 1.391 . S
C1120 C1121 1.400 . S
C1121 C1115 1.491 . S
C1121 C1120 1.400 . S
C1121 C1122 1.398 . S
C1122 H1110 0.950 . S
C1122 C1121 1.398 . S
C1122 C1123 1.391 . S
C1123 H1111 0.950 . S
C1123 C1119 1.393 . S
C1123 C1122 1.391 . S
H1124 C1132 0.950 . S
H1125 C1137 0.950 . S
H1126 C1134 0.950 . S
H1127 C1136 0.950 . S
H1128 C1138 0.950 . S
H1129 C1140 0.950 . S
H1130 C1142 0.950 . S
H1131 C1143 0.950 . S
C1132 H1124 0.950 . S
C1132 C1133 1.386 . S
C1132 C1134 1.391 . S
C1133 C1132 1.386 . S
C1133 C1137 1.393 . S
C1134 H1126 0.950 . S
C1134 C1132 1.391 . S
C1134 C1135 1.400 . S
C1135 C1134 1.400 . S
C1135 C1136 1.398 . S
C1135 C1141 1.491 . S
C1136 H1127 0.950 . S
C1136 C1135 1.398 . S
C1136 C1137 1.391 . S
C1137 H1125 0.950 . S
C1137 C1133 1.393 . S
C1137 C1136 1.391 . S
C1138 H1128 0.950 . S
C1138 C1139 1.386 . S
C1138 C1140 1.391 . S
C1139 C1138 1.386 . S
C1139 C1143 1.393 . S
C1140 H1129 0.950 . S
C1140 C1138 1.391 . S
C1140 C1141 1.400 . S
C1141 C1135 1.491 . S
C1141 C1140 1.400 . S
C1141 C1142 1.398 . S
C1142 H1130 0.950 . S
C1142 C1141 1.398 . S
C1142 C1143 1.391 . S
C1143 H1131 0.950 . S
C1143 C1139 1.393 . S
C1143 C1142 1.391 . S
H1144 C1152 0.950 . S
H1145 C1157 0.950 . S
H1146 C1154 0.950 . S
H1147 C1156 0.950 . S
H1148 C1158 0.950 . S
H1149 C1160 0.950 . S
H1150 C1162 0.950 . S
H1151 C1163 0.950 . S
C1152 H1144 0.950 . S
C1152 C1153 1.386 . S
C1152 C1154 1.391 . S
C1153 C1152 1.386 . S
C1153 C1157 1.393 . S
C1154 H1146 0.950 . S
C1154 C1152 1.391 . S
C1154 C1155 1.400 . S
C1155 C1154 1.400 . S
C1155 C1156 1.398 . S
C1155 C1161 1.491 . S
C1156 H1147 0.950 . S
C1156 C1155 1.398 . S
C1156 C1157 1.391 . S
C1157 H1145 0.950 . S
C1157 C1153 1.393 . S
C1157 C1156 1.391 . S
C1158 H1148 0.950 . S
C1158 C1159 1.386 . S
C1158 C1160 1.391 . S
C1159 C1158 1.386 . S
C1159 C1163 1.393 . S
C1160 H1149 0.950 . S
C1160 C1158 1.391 . S
C1160 C1161 1.400 . S
C1161 C1155 1.491 . S
C1161 C1160 1.400 . S
C1161 C1162 1.398 . S
C1162 H1150 0.950 . S
C1162 C1161 1.398 . S
C1162 C1163 1.391 . S
C1163 H1151 0.950 . S
C1163 C1159 1.393 . S
C1163 C1162 1.391 . S
H1164 C1172 0.950 . S
H1165 C1177 0.950 . S
H1166 C1174 0.950 . S
H1167 C1176 0.950 . S
H1168 C1178 0.950 . S
H1169 C1180 0.950 . S
H1170 C1182 0.950 . S
H1171 C1183 0.950 . S
C1172 H1164 0.950 . S
C1172 C1173 1.386 . S
C1172 C1174 1.391 . S
C1173 C1172 1.386 . S
C1173 C1177 1.393 . S
C1174 H1166 0.950 . S
C1174 C1172 1.391 . S
C1174 C1175 1.400 . S
C1175 C1174 1.400 . S
C1175 C1176 1.398 . S
C1175 C1181 1.491 . S
C1176 H1167 0.950 . S
C1176 C1175 1.398 . S
C1176 C1177 1.391 . S
C1177 H1165 0.950 . S
C1177 C1173 1.393 . S
C1177 C1176 1.391 . S
C1178 H1168 0.950 . S
C1178 C1179 1.386 . S
C1178 C1180 1.391 . S
C1179 C1178 1.386 . S
C1179 C1183 1.393 . S
C1180 H1169 0.950 . S
C1180 C1178 1.391 . S
C1180 C1181 1.400 . S
C1181 C1175 1.491 . S
C1181 C1180 1.400 . S
C1181 C1182 1.398 . S
C1182 H1170 0.950 . S
C1182 C1181 1.398 . S
C1182 C1183 1.391 . S
C1183 H1171 0.950 . S
C1183 C1179 1.393 . S
C1183 C1182 1.391 . S
H1184 C1192 0.950 . S
H1185 C1197 0.950 . S
H1186 C1194 0.950 . S
H1187 C1196 0.950 . S
H1188 C1198 0.950 . S
H1189 C1200 0.950 . S
H1190 C1202 0.950 . S
H1191 C1203 0.950 . S
C1192 H1184 0.950 . S
C1192 C1193 1.386 . S
C1192 C1194 1.391 . S
C1193 C1192 1.386 . S
C1193 C1197 1.393 . S
C1194 H1186 0.950 . S
C1194 C1192 1.391 . S
C1194 C1195 1.400 . S
C1195 C1194 1.400 . S
C1195 C1196 1.398 . S
C1195 C1201 1.491 . S
C1196 H1187 0.950 . S
C1196 C1195 1.398 . S
C1196 C1197 1.391 . S
C1197 H1185 0.950 . S
C1197 C1193 1.393 . S
C1197 C1196 1.391 . S
C1198 H1188 0.950 . S
C1198 C1199 1.386 . S
C1198 C1200 1.391 . S
C1199 C1198 1.386 . S
C1199 C1203 1.393 . S
C1200 H1189 0.950 . S
C1200 C1198 1.391 . S
C1200 C1201 1.400 . S
C1201 C1195 1.491 . S
C1201 C1200 1.400 . S
C1201 C1202 1.398 . S
C1202 H1190 0.950 . S
C1202 C1201 1.398 . S
C1202 C1203 1.391 . S
C1203 H1191 0.950 . S
C1203 C1199 1.393 . S
C1203 C1202 1.391 . S
H1204 C1212 0.950 . S
H1205 C1217 0.950 . S
H1206 C1214 0.950 . S
H1207 C1216 0.950 . S
H1208 C1218 0.950 . S
H1209 C1220 0.950 . S
H1210 C1222 0.950 . S
H1211 C1223 0.950 . S
C1212 H1204 0.950 . S
C1212 C1213 1.386 . S
C1212 C1214 1.391 . S
C1213 C1212 1.386 . S
C1213 C1217 1.393 . S
C1214 H1206 0.950 . S
C1214 C1212 1.391 . S
C1214 C1215 1.400 . S
C1215 C1214 1.400 . S
C1215 C1216 1.398 . S
C1215 C1221 1.491 . S
C1216 H1207 0.950 . S
C1216 C1215 1.398 . S
C1216 C1217 1.391 . S
C1217 H1205 0.950 . S
C1217 C1213 1.393 . S
C1217 C1216 1.391 . S
C1218 H1208 0.950 . S
C1218 C1219 1.386 . S
C1218 C1220 1.391 . S
C1219 C1218 1.386 . S
C1219 C1223 1.393 . S
C1220 H1209 0.950 . S
C1220 C1218 1.391 . S
C1220 C1221 1.400 . S
C1221 C1215 1.491 . S
C1221 C1220 1.400 . S
C1221 C1222 1.398 . S
C1222 H1210 0.950 . S
C1222 C1221 1.398 . S
C1222 C1223 1.391 . S
C1223 H1211 0.950 . S
C1223 C1219 1.393 . S
C1223 C1222 1.391 . S
H1224 C1232 0.950 . S
H1225 C1237 0.950 . S
H1226 C1234 0.950 . S
H1227 C1236 0.950 . S
H1228 C1238 0.950 . S
H1229 C1240 0.950 . S
H1230 C1242 0.950 . S
H1231 C1243 0.950 . S
C1232 H1224 0.950 . S
C1232 C1233 1.386 . S
C1232 C1234 1.391 . S
C1233 C1232 1.386 . S
C1233 C1237 1.393 . S
C1234 H1226 0.950 . S
C1234 C1232 1.391 . S
C1234 C1235 1.400 . S
C1235 C1234 1.400 . S
C1235 C1236 1.398 . S
C1235 C1241 1.491 . S
C1236 H1227 0.950 . S
C1236 C1235 1.398 . S
C1236 C1237 1.391 . S
C1237 H1225 0.950 . S
C1237 C1233 1.393 . S
C1237 C1236 1.391 . S
C1238 H1228 0.950 . S
C1238 C1239 1.386 . S
C1238 C1240 1.391 . S
C1239 C1238 1.386 . S
C1239 C1243 1.393 . S
C1240 H1229 0.950 . S
C1240 C1238 1.391 . S
C1240 C1241 1.400 . S
C1241 C1235 1.491 . S
C1241 C1240 1.400 . S
C1241 C1242 1.398 . S
C1242 H1230 0.950 . S
C1242 C1241 1.398 . S
C1242 C1243 1.391 . S
C1243 H1231 0.950 . S
C1243 C1239 1.393 . S
C1243 C1242 1.391 . S
H1244 C1252 0.950 . S
H1245 C1257 0.950 . S
H1246 C1254 0.950 . S
H1247 C1256 0.950 . S
H1248 C1258 0.950 . S
H1249 C1260 0.950 . S
H1250 C1262 0.950 . S
H1251 C1263 0.950 . S
C1252 H1244 0.950 . S
C1252 C1253 1.386 . S
C1252 C1254 1.391 . S
C1253 C1252 1.386 . S
C1253 C1257 1.393 . S
C1254 H1246 0.950 . S
C1254 C1252 1.391 . S
C1254 C1255 1.400 . S
C1255 C1254 1.400 . S
C1255 C1256 1.398 . S
C1255 C1261 1.491 . S
C1256 H1247 0.950 . S
C1256 C1255 1.398 . S
C1256 C1257 1.391 . S
C1257 H1245 0.950 . S
C1257 C1253 1.393 . S
C1257 C1256 1.391 . S
C1258 H1248 0.950 . S
C1258 C1259 1.386 . S
C1258 C1260 1.391 . S
C1259 C1258 1.386 . S
C1259 C1263 1.393 . S
C1260 H1249 0.950 . S
C1260 C1258 1.391 . S
C1260 C1261 1.400 . S
C1261 C1255 1.491 . S
C1261 C1260 1.400 . S
C1261 C1262 1.398 . S
C1262 H1250 0.950 . S
C1262 C1261 1.398 . S
C1262 C1263 1.391 . S
C1263 H1251 0.950 . S
C1263 C1259 1.393 . S
C1263 C1262 1.391 . S
H1264 C1272 0.950 . S
H1265 C1277 0.950 . S
H1266 C1274 0.950 . S
H1267 C1276 0.950 . S
H1268 C1278 0.950 . S
H1269 C1280 0.950 . S
H1270 C1282 0.950 . S
H1271 C1283 0.950 . S
C1272 H1264 0.950 . S
C1272 C1273 1.386 . S
C1272 C1274 1.391 . S
C1273 C1272 1.386 . S
C1273 C1277 1.393 . S
C1274 H1266 0.950 . S
C1274 C1272 1.391 . S
C1274 C1275 1.400 . S
C1275 C1274 1.400 . S
C1275 C1276 1.398 . S
C1275 C1281 1.491 . S
C1276 H1267 0.950 . S
C1276 C1275 1.398 . S
C1276 C1277 1.391 . S
C1277 H1265 0.950 . S
C1277 C1273 1.393 . S
C1277 C1276 1.391 . S
C1278 H1268 0.950 . S
C1278 C1279 1.386 . S
C1278 C1280 1.391 . S
C1279 C1278 1.386 . S
C1279 C1283 1.393 . S
C1280 H1269 0.950 . S
C1280 C1278 1.391 . S
C1280 C1281 1.400 . S
C1281 C1275 1.491 . S
C1281 C1280 1.400 . S
C1281 C1282 1.398 . S
C1282 H1270 0.950 . S
C1282 C1281 1.398 . S
C1282 C1283 1.391 . S
C1283 H1271 0.950 . S
C1283 C1279 1.393 . S
C1283 C1282 1.391 . S
H1284 C1292 0.950 . S
H1285 C1297 0.950 . S
H1286 C1294 0.950 . S
H1287 C1296 0.950 . S
H1288 C1298 0.950 . S
H1289 C1300 0.950 . S
H1290 C1302 0.950 . S
H1291 C1303 0.950 . S
C1292 H1284 0.950 . S
C1292 C1293 1.386 . S
C1292 C1294 1.391 . S
C1293 C1292 1.386 . S
C1293 C1297 1.393 . S
C1294 H1286 0.950 . S
C1294 C1292 1.391 . S
C1294 C1295 1.400 . S
C1295 C1294 1.400 . S
C1295 C1296 1.398 . S
C1295 C1301 1.491 . S
C1296 H1287 0.950 . S
C1296 C1295 1.398 . S
C1296 C1297 1.391 . S
C1297 H1285 0.950 . S
C1297 C1293 1.393 . S
C1297 C1296 1.391 . S
C1298 H1288 0.950 . S
C1298 C1299 1.386 . S
C1298 C1300 1.391 . S
C1299 C1298 1.386 . S
C1299 C1303 1.393 . S
C1300 H1289 0.950 . S
C1300 C1298 1.391 . S
C1300 C1301 1.400 . S
C1301 C1295 1.491 . S
C1301 C1300 1.400 . S
C1301 C1302 1.398 . S
C1302 H1290 0.950 . S
C1302 C1301 1.398 . S
C1302 C1303 1.391 . S
C1303 H1291 0.950 . S
C1303 C1299 1.393 . S
C1303 C1302 1.391 . S
H1304 C1312 0.950 . S
H1305 C1317 0.950 . S
H1306 C1314 0.950 . S
H1307 C1316 0.950 . S
H1308 C1318 0.950 . S
H1309 C1320 0.950 . S
H1310 C1322 0.950 . S
H1311 C1323 0.950 . S
C1312 H1304 0.950 . S
C1312 C1313 1.386 . S
C1312 C1314 1.391 . S
C1313 C1312 1.386 . S
C1313 C1317 1.393 . S
C1314 H1306 0.950 . S
C1314 C1312 1.391 . S
C1314 C1315 1.400 . S
C1315 C1314 1.400 . S
C1315 C1316 1.398 . S
C1315 C1321 1.491 . S
C1316 H1307 0.950 . S
C1316 C1315 1.398 . S
C1316 C1317 1.391 . S
C1317 H1305 0.950 . S
C1317 C1313 1.393 . S
C1317 C1316 1.391 . S
C1318 H1308 0.950 . S
C1318 C1319 1.386 . S
C1318 C1320 1.391 . S
C1319 C1318 1.386 . S
C1319 C1323 1.393 . S
C1320 H1309 0.950 . S
C1320 C1318 1.391 . S
C1320 C1321 1.400 . S
C1321 C1315 1.491 . S
C1321 C1320 1.400 . S
C1321 C1322 1.398 . S
C1322 H1310 0.950 . S
C1322 C1321 1.398 . S
C1322 C1323 1.391 . S
C1323 H1311 0.950 . S
C1323 C1319 1.393 . S
C1323 C1322 1.391 . S
H1324 C1332 0.950 . S
H1325 C1337 0.950 . S
H1326 C1334 0.950 . S
H1327 C1336 0.950 . S
H1328 C1338 0.950 . S
H1329 C1340 0.950 . S
H1330 C1342 0.950 . S
H1331 C1343 0.950 . S
C1332 H1324 0.950 . S
C1332 C1333 1.386 . S
C1332 C1334 1.391 . S
C1333 C1332 1.386 . S
C1333 C1337 1.393 . S
C1334 H1326 0.950 . S
C1334 C1332 1.391 . S
C1334 C1335 1.400 . S
C1335 C1334 1.400 . S
C1335 C1336 1.398 . S
C1335 C1341 1.491 . S
C1336 H1327 0.950 . S
C1336 C1335 1.398 . S
C1336 C1337 1.391 . S
C1337 H1325 0.950 . S
C1337 C1333 1.393 . S
C1337 C1336 1.391 . S
C1338 H1328 0.950 . S
C1338 C1339 1.386 . S
C1338 C1340 1.391 . S
C1339 C1338 1.386 . S
C1339 C1343 1.393 . S
C1340 H1329 0.950 . S
C1340 C1338 1.391 . S
C1340 C1341 1.400 . S
C1341 C1335 1.491 . S
C1341 C1340 1.400 . S
C1341 C1342 1.398 . S
C1342 H1330 0.950 . S
C1342 C1341 1.398 . S
C1342 C1343 1.391 . S
C1343 H1331 0.950 . S
C1343 C1339 1.393 . S
C1343 C1342 1.391 . S
H1344 C1352 0.950 . S
H1345 C1357 0.950 . S
H1346 C1354 0.950 . S
H1347 C1356 0.950 . S
H1348 C1358 0.950 . S
H1349 C1360 0.950 . S
H1350 C1362 0.950 . S
H1351 C1363 0.950 . S
C1352 H1344 0.950 . S
C1352 C1353 1.386 . S
C1352 C1354 1.391 . S
C1353 C1352 1.386 . S
C1353 C1357 1.393 . S
C1354 H1346 0.950 . S
C1354 C1352 1.391 . S
C1354 C1355 1.400 . S
C1355 C1354 1.400 . S
C1355 C1356 1.398 . S
C1355 C1361 1.491 . S
C1356 H1347 0.950 . S
C1356 C1355 1.398 . S
C1356 C1357 1.391 . S
C1357 H1345 0.950 . S
C1357 C1353 1.393 . S
C1357 C1356 1.391 . S
C1358 H1348 0.950 . S
C1358 C1359 1.386 . S
C1358 C1360 1.391 . S
C1359 C1358 1.386 . S
C1359 C1363 1.393 . S
C1360 H1349 0.950 . S
C1360 C1358 1.391 . S
C1360 C1361 1.400 . S
C1361 C1355 1.491 . S
C1361 C1360 1.400 . S
C1361 C1362 1.398 . S
C1362 H1350 0.950 . S
C1362 C1361 1.398 . S
C1362 C1363 1.391 . S
C1363 H1351 0.950 . S
C1363 C1359 1.393 . S
C1363 C1362 1.391 . S
H1364 C1372 0.950 . S
H1365 C1377 0.950 . S
H1366 C1374 0.950 . S
H1367 C1376 0.950 . S
H1368 C1378 0.950 . S
H1369 C1380 0.950 . S
H1370 C1382 0.950 . S
H1371 C1383 0.950 . S
C1372 H1364 0.950 . S
C1372 C1373 1.386 . S
C1372 C1374 1.391 . S
C1373 C1372 1.386 . S
C1373 C1377 1.393 . S
C1374 H1366 0.950 . S
C1374 C1372 1.391 . S
C1374 C1375 1.400 . S
C1375 C1374 1.400 . S
C1375 C1376 1.398 . S
C1375 C1381 1.491 . S
C1376 H1367 0.950 . S
C1376 C1375 1.398 . S
C1376 C1377 1.391 . S
C1377 H1365 0.950 . S
C1377 C1373 1.393 . S
C1377 C1376 1.391 . S
C1378 H1368 0.950 . S
C1378 C1379 1.386 . S
C1378 C1380 1.391 . S
C1379 C1378 1.386 . S
C1379 C1383 1.393 . S
C1380 H1369 0.950 . S
C1380 C1378 1.391 . S
C1380 C1381 1.400 . S
C1381 C1375 1.491 . S
C1381 C1380 1.400 . S
C1381 C1382 1.398 . S
C1382 H1370 0.950 . S
C1382 C1381 1.398 . S
C1382 C1383 1.391 . S
C1383 H1371 0.950 . S
C1383 C1379 1.393 . S
C1383 C1382 1.391 . S
H1384 C1392 0.950 . S
H1385 C1397 0.950 . S
H1386 C1394 0.950 . S
H1387 C1396 0.950 . S
H1388 C1398 0.950 . S
H1389 C1400 0.950 . S
H1390 C1402 0.950 . S
H1391 C1403 0.950 . S
C1392 H1384 0.950 . S
C1392 C1393 1.386 . S
C1392 C1394 1.391 . S
C1393 C1392 1.386 . S
C1393 C1397 1.393 . S
C1394 H1386 0.950 . S
C1394 C1392 1.391 . S
C1394 C1395 1.400 . S
C1395 C1394 1.400 . S
C1395 C1396 1.398 . S
C1395 C1401 1.491 . S
C1396 H1387 0.950 . S
C1396 C1395 1.398 . S
C1396 C1397 1.391 . S
C1397 H1385 0.950 . S
C1397 C1393 1.393 . S
C1397 C1396 1.391 . S
C1398 H1388 0.950 . S
C1398 C1399 1.386 . S
C1398 C1400 1.391 . S
C1399 C1398 1.386 . S
C1399 C1403 1.393 . S
C1400 H1389 0.950 . S
C1400 C1398 1.391 . S
C1400 C1401 1.400 . S
C1401 C1395 1.491 . S
C1401 C1400 1.400 . S
C1401 C1402 1.398 . S
C1402 H1390 0.950 . S
C1402 C1401 1.398 . S
C1402 C1403 1.391 . S
C1403 H1391 0.950 . S
C1403 C1399 1.393 . S
C1403 C1402 1.391 . S
H1404 C1412 0.950 . S
H1405 C1417 0.950 . S
H1406 C1414 0.950 . S
H1407 C1416 0.950 . S
H1408 C1418 0.950 . S
H1409 C1420 0.950 . S
H1410 C1422 0.950 . S
H1411 C1423 0.950 . S
C1412 H1404 0.950 . S
C1412 C1413 1.386 . S
C1412 C1414 1.391 . S
C1413 C1412 1.386 . S
C1413 C1417 1.393 . S
C1414 H1406 0.950 . S
C1414 C1412 1.391 . S
C1414 C1415 1.400 . S
C1415 C1414 1.400 . S
C1415 C1416 1.398 . S
C1415 C1421 1.491 . S
C1416 H1407 0.950 . S
C1416 C1415 1.398 . S
C1416 C1417 1.391 . S
C1417 H1405 0.950 . S
C1417 C1413 1.393 . S
C1417 C1416 1.391 . S
C1418 H1408 0.950 . S
C1418 C1419 1.386 . S
C1418 C1420 1.391 . S
C1419 C1418 1.386 . S
C1419 C1423 1.393 . S
C1420 H1409 0.950 . S
C1420 C1418 1.391 . S
C1420 C1421 1.400 . S
C1421 C1415 1.491 . S
C1421 C1420 1.400 . S
C1421 C1422 1.398 . S
C1422 H1410 0.950 . S
C1422 C1421 1.398 . S
C1422 C1423 1.391 . S
C1423 H1411 0.950 . S
C1423 C1419 1.393 . S
C1423 C1422 1.391 . S
H1424 C1432 0.950 . S
H1425 C1437 0.950 . S
H1426 C1434 0.950 . S
H1427 C1436 0.950 . S
H1428 C1438 0.950 . S
H1429 C1440 0.950 . S
H1430 C1442 0.950 . S
H1431 C1443 0.950 . S
C1432 H1424 0.950 . S
C1432 C1433 1.386 . S
C1432 C1434 1.391 . S
C1433 C1432 1.386 . S
C1433 C1437 1.393 . S
C1434 H1426 0.950 . S
C1434 C1432 1.391 . S
C1434 C1435 1.400 . S
C1435 C1434 1.400 . S
C1435 C1436 1.398 . S
C1435 C1441 1.491 . S
C1436 H1427 0.950 . S
C1436 C1435 1.398 . S
C1436 C1437 1.391 . S
C1437 H1425 0.950 . S
C1437 C1433 1.393 . S
C1437 C1436 1.391 . S
C1438 H1428 0.950 . S
C1438 C1439 1.386 . S
C1438 C1440 1.391 . S
C1439 C1438 1.386 . S
C1439 C1443 1.393 . S
C1440 H1429 0.950 . S
C1440 C1438 1.391 . S
C1440 C1441 1.400 . S
C1441 C1435 1.491 . S
C1441 C1440 1.400 . S
C1441 C1442 1.398 . S
C1442 H1430 0.950 . S
C1442 C1441 1.398 . S
C1442 C1443 1.391 . S
C1443 H1431 0.950 . S
C1443 C1439 1.393 . S
C1443 C1442 1.391 . S
H1444 C1452 0.950 . S
H1445 C1457 0.950 . S
H1446 C1454 0.950 . S
H1447 C1456 0.950 . S
H1448 C1458 0.950 . S
H1449 C1460 0.950 . S
H1450 C1462 0.950 . S
H1451 C1463 0.950 . S
C1452 H1444 0.950 . S
C1452 C1453 1.386 . S
C1452 C1454 1.391 . S
C1453 C1452 1.386 . S
C1453 C1457 1.393 . S
C1454 H1446 0.950 . S
C1454 C1452 1.391 . S
C1454 C1455 1.400 . S
C1455 C1454 1.400 . S
C1455 C1456 1.398 . S
C1455 C1461 1.491 . S
C1456 H1447 0.950 . S
C1456 C1455 1.398 . S
C1456 C1457 1.391 . S
C1457 H1445 0.950 . S
C1457 C1453 1.393 . S
C1457 C1456 1.391 . S
C1458 H1448 0.950 . S
C1458 C1459 1.386 . S
C1458 C1460 1.391 . S
C1459 C1458 1.386 . S
C1459 C1463 1.393 . S
C1460 H1449 0.950 . S
C1460 C1458 1.391 . S
C1460 C1461 1.400 . S
C1461 C1455 1.491 . S
C1461 C1460 1.400 . S
C1461 C1462 1.398 . S
C1462 H1450 0.950 . S
C1462 C1461 1.398 . S
C1462 C1463 1.391 . S
C1463 H1451 0.950 . S
C1463 C1459 1.393 . S
C1463 C1462 1.391 . S
H1464 C1472 0.950 . S
H1465 C1477 0.950 . S
H1466 C1474 0.950 . S
H1467 C1476 0.950 . S
H1468 C1478 0.950 . S
H1469 C1480 0.950 . S
H1470 C1482 0.950 . S
H1471 C1483 0.950 . S
C1472 H1464 0.950 . S
C1472 C1473 1.386 . S
C1472 C1474 1.391 . S
C1473 C1472 1.386 . S
C1473 C1477 1.393 . S
C1474 H1466 0.950 . S
C1474 C1472 1.391 . S
C1474 C1475 1.400 . S
C1475 C1474 1.400 . S
C1475 C1476 1.398 . S
C1475 C1481 1.491 . S
C1476 H1467 0.950 . S
C1476 C1475 1.398 . S
C1476 C1477 1.391 . S
C1477 H1465 0.950 . S
C1477 C1473 1.393 . S
C1477 C1476 1.391 . S
C1478 H1468 0.950 . S
C1478 C1479 1.386 . S
C1478 C1480 1.391 . S
C1479 C1478 1.386 . S
C1479 C1483 1.393 . S
C1480 H1469 0.950 . S
C1480 C1478 1.391 . S
C1480 C1481 1.400 . S
C1481 C1475 1.491 . S
C1481 C1480 1.400 . S
C1481 C1482 1.398 . S
C1482 H1470 0.950 . S
C1482 C1481 1.398 . S
C1482 C1483 1.391 . S
C1483 H1471 0.950 . S
C1483 C1479 1.393 . S
C1483 C1482 1.391 . S
H1484 C1492 0.950 . S
H1485 C1497 0.950 . S
H1486 C1494 0.950 . S
H1487 C1496 0.950 . S
H1488 C1498 0.950 . S
H1489 C1500 0.950 . S
H1490 C1502 0.950 . S
H1491 C1503 0.950 . S
C1492 H1484 0.950 . S
C1492 C1493 1.386 . S
C1492 C1494 1.391 . S
C1493 C1492 1.386 . S
C1493 C1497 1.393 . S
C1494 H1486 0.950 . S
C1494 C1492 1.391 . S
C1494 C1495 1.400 . S
C1495 C1494 1.400 . S
C1495 C1496 1.398 . S
C1495 C1501 1.491 . S
C1496 H1487 0.950 . S
C1496 C1495 1.398 . S
C1496 C1497 1.391 . S
C1497 H1485 0.950 . S
C1497 C1493 1.393 . S
C1497 C1496 1.391 . S
C1498 H1488 0.950 . S
C1498 C1499 1.386 . S
C1498 C1500 1.391 . S
C1499 C1498 1.386 . S
C1499 C1503 1.393 . S
C1500 H1489 0.950 . S
C1500 C1498 1.391 . S
C1500 C1501 1.400 . S
C1501 C1495 1.491 . S
C1501 C1500 1.400 . S
C1501 C1502 1.398 . S
C1502 H1490 0.950 . S
C1502 C1501 1.398 . S
C1502 C1503 1.391 . S
C1503 H1491 0.950 . S
C1503 C1499 1.393 . S
C1503 C1502 1.391 . S
H1504 C1512 0.950 . S
H1505 C1517 0.950 . S
H1506 C1514 0.950 . S
H1507 C1516 0.950 . S
H1508 C1518 0.950 . S
H1509 C1520 0.950 . S
H1510 C1522 0.950 . S
H1511 C1523 0.950 . S
C1512 H1504 0.950 . S
C1512 C1513 1.386 . S
C1512 C1514 1.391 . S
C1513 C1512 1.386 . S
C1513 C1517 1.393 . S
C1514 H1506 0.950 . S
C1514 C1512 1.391 . S
C1514 C1515 1.400 . S
C1515 C1514 1.400 . S
C1515 C1516 1.398 . S
C1515 C1521 1.491 . S
C1516 H1507 0.950 . S
C1516 C1515 1.398 . S
C1516 C1517 1.391 . S
C1517 H1505 0.950 . S
C1517 C1513 1.393 . S
C1517 C1516 1.391 . S
C1518 H1508 0.950 . S
C1518 C1519 1.386 . S
C1518 C1520 1.391 . S
C1519 C1518 1.386 . S
C1519 C1523 1.393 . S
C1520 H1509 0.950 . S
C1520 C1518 1.391 . S
C1520 C1521 1.400 . S
C1521 C1515 1.491 . S
C1521 C1520 1.400 . S
C1521 C1522 1.398 . S
C1522 H1510 0.950 . S
C1522 C1521 1.398 . S
C1522 C1523 1.391 . S
C1523 H1511 0.950 . S
C1523 C1519 1.393 . S
C1523 C1522 1.391 . S
H1524 C1532 0.950 . S
H1525 C1537 0.950 . S
H1526 C1534 0.950 . S
H1527 C1536 0.950 . S
H1528 C1538 0.950 . S
H1529 C1540 0.950 . S
H1530 C1542 0.950 . S
H1531 C1543 0.950 . S
C1532 H1524 0.950 . S
C1532 C1533 1.386 . S
C1532 C1534 1.391 . S
C1533 C1532 1.386 . S
C1533 C1537 1.393 . S
C1534 H1526 0.950 . S
C1534 C1532 1.391 . S
C1534 C1535 1.400 . S
C1535 C1534 1.400 . S
C1535 C1536 1.398 . S
C1535 C1541 1.491 . S
C1536 H1527 0.950 . S
C1536 C1535 1.398 . S
C1536 C1537 1.391 . S
C1537 H1525 0.950 . S
C1537 C1533 1.393 . S
C1537 C1536 1.391 . S
C1538 H1528 0.950 . S
C1538 C1539 1.386 . S
C1538 C1540 1.391 . S
C1539 C1538 1.386 . S
C1539 C1543 1.393 . S
C1540 H1529 0.950 . S
C1540 C1538 1.391 . S
C1540 C1541 1.400 . S
C1541 C1535 1.491 . S
C1541 C1540 1.400 . S
C1541 C1542 1.398 . S
C1542 H1530 0.950 . S
C1542 C1541 1.398 . S
C1542 C1543 1.391 . S
C1543 H1531 0.950 . S
C1543 C1539 1.393 . S
C1543 C1542 1.391 . S
H1544 C1552 0.950 . S
H1545 C1557 0.950 . S
H1546 C1554 0.950 . S
H1547 C1556 0.950 . S
H1548 C1558 0.950 . S
H1549 C1560 0.950 . S
H1550 C1562 0.950 . S
H1551 C1563 0.950 . S
C1552 H1544 0.950 . S
C1552 C1553 1.386 . S
C1552 C1554 1.391 . S
C1553 C1552 1.386 . S
C1553 C1557 1.393 . S
C1554 H1546 0.950 . S
C1554 C1552 1.391 . S
C1554 C1555 1.400 . S
C1555 C1554 1.400 . S
C1555 C1556 1.398 . S
C1555 C1561 1.491 . S
C1556 H1547 0.950 . S
C1556 C1555 1.398 . S
C1556 C1557 1.391 . S
C1557 H1545 0.950 . S
C1557 C1553 1.393 . S
C1557 C1556 1.391 . S
C1558 H1548 0.950 . S
C1558 C1559 1.386 . S
C1558 C1560 1.391 . S
C1559 C1558 1.386 . S
C1559 C1563 1.393 . S
C1560 H1549 0.950 . S
C1560 C1558 1.391 . S
C1560 C1561 1.400 . S
C1561 C1555 1.491 . S
C1561 C1560 1.400 . S
C1561 C1562 1.398 . S
C1562 H1550 0.950 . S
C1562 C1561 1.398 . S
C1562 C1563 1.391 . S
C1563 H1551 0.950 . S
C1563 C1559 1.393 . S
C1563 C1562 1.391 . S
H1564 C1572 0.950 . S
H1565 C1577 0.950 . S
H1566 C1574 0.950 . S
H1567 C1576 0.950 . S
H1568 C1578 0.950 . S
H1569 C1580 0.950 . S
H1570 C1582 0.950 . S
H1571 C1583 0.950 . S
C1572 H1564 0.950 . S
C1572 C1573 1.386 . S
C1572 C1574 1.391 . S
C1573 C1572 1.386 . S
C1573 C1577 1.393 . S
C1574 H1566 0.950 . S
C1574 C1572 1.391 . S
C1574 C1575 1.400 . S
C1575 C1574 1.400 . S
C1575 C1576 1.398 . S
C1575 C1581 1.491 . S
C1576 H1567 0.950 . S
C1576 C1575 1.398 . S
C1576 C1577 1.391 . S
C1577 H1565 0.950 . S
C1577 C1573 1.393 . S
C1577 C1576 1.391 . S
C1578 H1568 0.950 . S
C1578 C1579 1.386 . S
C1578 C1580 1.391 . S
C1579 C1578 1.386 . S
C1579 C1583 1.393 . S
C1580 H1569 0.950 . S
C1580 C1578 1.391 . S
C1580 C1581 1.400 . S
C1581 C1575 1.491 . S
C1581 C1580 1.400 . S
C1581 C1582 1.398 . S
C1582 H1570 0.950 . S
C1582 C1581 1.398 . S
C1582 C1583 1.391 . S
C1583 H1571 0.950 . S
C1583 C1579 1.393 . S
C1583 C1582 1.391 . S
H1584 C1592 0.950 . S
H1585 C1597 0.950 . S
H1586 C1594 0.950 . S
H1587 C1596 0.950 . S
H1588 C1598 0.950 . S
H1589 C1600 0.950 . S
H1590 C1602 0.950 . S
H1591 C1603 0.950 . S
C1592 H1584 0.950 . S
C1592 C1593 1.386 . S
C1592 C1594 1.391 . S
C1593 C1592 1.386 . S
C1593 C1597 1.393 . S
C1594 H1586 0.950 . S
C1594 C1592 1.391 . S
C1594 C1595 1.400 . S
C1595 C1594 1.400 . S
C1595 C1596 1.398 . S
C1595 C1601 1.491 . S
C1596 H1587 0.950 . S
C1596 C1595 1.398 . S
C1596 C1597 1.391 . S
C1597 H1585 0.950 . S
C1597 C1593 1.393 . S
C1597 C1596 1.391 . S
C1598 H1588 0.950 . S
C1598 C1599 1.386 . S
C1598 C1600 1.391 . S
C1599 C1598 1.386 . S
C1599 C1603 1.393 . S
C1600 H1589 0.950 . S
C1600 C1598 1.391 . S
C1600 C1601 1.400 . S
C1601 C1595 1.491 . S
C1601 C1600 1.400 . S
C1601 C1602 1.398 . S
C1602 H1590 0.950 . S
C1602 C1601 1.398 . S
C1602 C1603 1.391 . S
C1603 H1591 0.950 . S
C1603 C1599 1.393 . S
C1603 C1602 1.391 . S
H1604 C1612 0.950 . S
H1605 C1617 0.950 . S
H1606 C1614 0.950 . S
H1607 C1616 0.950 . S
H1608 C1618 0.950 . S
H1609 C1620 0.950 . S
H1610 C1622 0.950 . S
H1611 C1623 0.950 . S
C1612 H1604 0.950 . S
C1612 C1613 1.386 . S
C1612 C1614 1.391 . S
C1613 C1612 1.386 . S
C1613 C1617 1.393 . S
C1614 H1606 0.950 . S
C1614 C1612 1.391 . S
C1614 C1615 1.400 . S
C1615 C1614 1.400 . S
C1615 C1616 1.398 . S
C1615 C1621 1.491 . S
C1616 H1607 0.950 . S
C1616 C1615 1.398 . S
C1616 C1617 1.391 . S
C1617 H1605 0.950 . S
C1617 C1613 1.393 . S
C1617 C1616 1.391 . S
C1618 H1608 0.950 . S
C1618 C1619 1.386 . S
C1618 C1620 1.391 . S
C1619 C1618 1.386 . S
C1619 C1623 1.393 . S
C1620 H1609 0.950 . S
C1620 C1618 1.391 . S
C1620 C1621 1.400 . S
C1621 C1615 1.491 . S
C1621 C1620 1.400 . S
C1621 C1622 1.398 . S
C1622 H1610 0.950 . S
C1622 C1621 1.398 . S
C1622 C1623 1.391 . S
C1623 H1611 0.950 . S
C1623 C1619 1.393 . S
C1623 C1622 1.391 . S
H1624 C1632 0.950 . S
H1625 C1637 0.950 . S
H1626 C1634 0.950 . S
H1627 C1636 0.950 . S
H1628 C1638 0.950 . S
H1629 C1640 0.950 . S
H1630 C1642 0.950 . S
H1631 C1643 0.950 . S
C1632 H1624 0.950 . S
C1632 C1633 1.386 . S
C1632 C1634 1.391 . S
C1633 C1632 1.386 . S
C1633 C1637 1.393 . S
C1634 H1626 0.950 . S
C1634 C1632 1.391 . S
C1634 C1635 1.400 . S
C1635 C1634 1.400 . S
C1635 C1636 1.398 . S
C1635 C1641 1.491 . S
C1636 H1627 0.950 . S
C1636 C1635 1.398 . S
C1636 C1637 1.391 . S
C1637 H1625 0.950 . S
C1637 C1633 1.393 . S
C1637 C1636 1.391 . S
C1638 H1628 0.950 . S
C1638 C1639 1.386 . S
C1638 C1640 1.391 . S
C1639 C1638 1.386 . S
C1639 C1643 1.393 . S
C1640 H1629 0.950 . S
C1640 C1638 1.391 . S
C1640 C1641 1.400 . S
C1641 C1635 1.491 . S
C1641 C1640 1.400 . S
C1641 C1642 1.398 . S
C1642 H1630 0.950 . S
C1642 C1641 1.398 . S
C1642 C1643 1.391 . S
C1643 H1631 0.950 . S
C1643 C1639 1.393 . S
C1643 C1642 1.391 . S
H1644 C1652 0.950 . S
H1645 C1657 0.950 . S
H1646 C1654 0.950 . S
H1647 C1656 0.950 . S
H1648 C1658 0.950 . S
H1649 C1660 0.950 . S
H1650 C1662 0.950 . S
H1651 C1663 0.950 . S
C1652 H1644 0.950 . S
C1652 C1653 1.386 . S
C1652 C1654 1.391 . S
C1653 C1652 1.386 . S
C1653 C1657 1.393 . S
C1654 H1646 0.950 . S
C1654 C1652 1.391 . S
C1654 C1655 1.400 . S
C1655 C1654 1.400 . S
C1655 C1656 1.398 . S
C1655 C1661 1.491 . S
C1656 H1647 0.950 . S
C1656 C1655 1.398 . S
C1656 C1657 1.391 . S
C1657 H1645 0.950 . S
C1657 C1653 1.393 . S
C1657 C1656 1.391 . S
C1658 H1648 0.950 . S
C1658 C1659 1.386 . S
C1658 C1660 1.391 . S
C1659 C1658 1.386 . S
C1659 C1663 1.393 . S
C1660 H1649 0.950 . S
C1660 C1658 1.391 . S
C1660 C1661 1.400 . S
C1661 C1655 1.491 . S
C1661 C1660 1.400 . S
C1661 C1662 1.398 . S
C1662 H1650 0.950 . S
C1662 C1661 1.398 . S
C1662 C1663 1.391 . S
C1663 H1651 0.950 . S
C1663 C1659 1.393 . S
C1663 C1662 1.391 . S
H1664 C1672 0.950 . S
H1665 C1677 0.950 . S
H1666 C1674 0.950 . S
H1667 C1676 0.950 . S
H1668 C1678 0.950 . S
H1669 C1680 0.950 . S
H1670 C1682 0.950 . S
H1671 C1683 0.950 . S
C1672 H1664 0.950 . S
C1672 C1673 1.386 . S
C1672 C1674 1.391 . S
C1673 C1672 1.386 . S
C1673 C1677 1.393 . S
C1674 H1666 0.950 . S
C1674 C1672 1.391 . S
C1674 C1675 1.400 . S
C1675 C1674 1.400 . S
C1675 C1676 1.398 . S
C1675 C1681 1.491 . S
C1676 H1667 0.950 . S
C1676 C1675 1.398 . S
C1676 C1677 1.391 . S
C1677 H1665 0.950 . S
C1677 C1673 1.393 . S
C1677 C1676 1.391 . S
C1678 H1668 0.950 . S
C1678 C1679 1.386 . S
C1678 C1680 1.391 . S
C1679 C1678 1.386 . S
C1679 C1683 1.393 . S
C1680 H1669 0.950 . S
C1680 C1678 1.391 . S
C1680 C1681 1.400 . S
C1681 C1675 1.491 . S
C1681 C1680 1.400 . S
C1681 C1682 1.398 . S
C1682 H1670 0.950 . S
C1682 C1681 1.398 . S
C1682 C1683 1.391 . S
C1683 H1671 0.950 . S
C1683 C1679 1.393 . S
C1683 C1682 1.391 . S
H1684 C1692 0.950 . S
H1685 C1697 0.950 . S
H1686 C1694 0.950 . S
H1687 C1696 0.950 . S
H1688 C1698 0.950 . S
H1689 C1700 0.950 . S
H1690 C1702 0.950 . S
H1691 C1703 0.950 . S
C1692 H1684 0.950 . S
C1692 C1693 1.386 . S
C1692 C1694 1.391 . S
C1693 C1692 1.386 . S
C1693 C1697 1.393 . S
C1694 H1686 0.950 . S
C1694 C1692 1.391 . S
C1694 C1695 1.400 . S
C1695 C1694 1.400 . S
C1695 C1696 1.398 . S
C1695 C1701 1.491 . S
C1696 H1687 0.950 . S
C1696 C1695 1.398 . S
C1696 C1697 1.391 . S
C1697 H1685 0.950 . S
C1697 C1693 1.393 . S
C1697 C1696 1.391 . S
C1698 H1688 0.950 . S
C1698 C1699 1.386 . S
C1698 C1700 1.391 . S
C1699 C1698 1.386 . S
C1699 C1703 1.393 . S
C1700 H1689 0.950 . S
C1700 C1698 1.391 . S
C1700 C1701 1.400 . S
C1701 C1695 1.491 . S
C1701 C1700 1.400 . S
C1701 C1702 1.398 . S
C1702 H1690 0.950 . S
C1702 C1701 1.398 . S
C1702 C1703 1.391 . S
C1703 H1691 0.950 . S
C1703 C1699 1.393 . S
C1703 C1702 1.391 . S
H1704 C1712 0.950 . S
H1705 C1717 0.950 . S
H1706 C1714 0.950 . S
H1707 C1716 0.950 . S
H1708 C1718 0.950 . S
H1709 C1720 0.950 . S
H1710 C1722 0.950 . S
H1711 C1723 0.950 . S
C1712 H1704 0.950 . S
C1712 C1713 1.386 . S
C1712 C1714 1.391 . S
C1713 C1712 1.386 . S
C1713 C1717 1.393 . S
C1714 H1706 0.950 . S
C1714 C1712 1.391 . S
C1714 C1715 1.400 . S
C1715 C1714 1.400 . S
C1715 C1716 1.398 . S
C1715 C1721 1.491 . S
C1716 H1707 0.950 . S
C1716 C1715 1.398 . S
C1716 C1717 1.391 . S
C1717 H1705 0.950 . S
C1717 C1713 1.393 . S
C1717 C1716 1.391 . S
C1718 H1708 0.950 . S
C1718 C1719 1.386 . S
C1718 C1720 1.391 . S
C1719 C1718 1.386 . S
C1719 C1723 1.393 . S
C1720 H1709 0.950 . S
C1720 C1718 1.391 . S
C1720 C1721 1.400 . S
C1721 C1715 1.491 . S
C1721 C1720 1.400 . S
C1721 C1722 1.398 . S
C1722 H1710 0.950 . S
C1722 C1721 1.398 . S
C1722 C1723 1.391 . S
C1723 H1711 0.950 . S
C1723 C1719 1.393 . S
C1723 C1722 1.391 . S
H1724 C1732 0.950 . S
H1725 C1737 0.950 . S
H1726 C1734 0.950 . S
H1727 C1736 0.950 . S
H1728 C1738 0.950 . S
H1729 C1740 0.950 . S
H1730 C1742 0.950 . S
H1731 C1743 0.950 . S
C1732 H1724 0.950 . S
C1732 C1733 1.386 . S
C1732 C1734 1.391 . S
C1733 C1732 1.386 . S
C1733 C1737 1.393 . S
C1734 H1726 0.950 . S
C1734 C1732 1.391 . S
C1734 C1735 1.400 . S
C1735 C1734 1.400 . S
C1735 C1736 1.398 . S
C1735 C1741 1.491 . S
C1736 H1727 0.950 . S
C1736 C1735 1.398 . S
C1736 C1737 1.391 . S
C1737 H1725 0.950 . S
C1737 C1733 1.393 . S
C1737 C1736 1.391 . S
C1738 H1728 0.950 . S
C1738 C1739 1.386 . S
C1738 C1740 1.391 . S
C1739 C1738 1.386 . S
C1739 C1743 1.393 . S
C1740 H1729 0.950 . S
C1740 C1738 1.391 . S
C1740 C1741 1.400 . S
C1741 C1735 1.491 . S
C1741 C1740 1.400 . S
C1741 C1742 1.398 . S
C1742 H1730 0.950 . S
C1742 C1741 1.398 . S
C1742 C1743 1.391 . S
C1743 H1731 0.950 . S
C1743 C1739 1.393 . S
C1743 C1742 1.391 . S
H1744 C1752 0.950 . S
H1745 C1757 0.950 . S
H1746 C1754 0.950 . S
H1747 C1756 0.950 . S
H1748 C1758 0.950 . S
H1749 C1760 0.950 . S
H1750 C1762 0.950 . S
H1751 C1763 0.950 . S
C1752 H1744 0.950 . S
C1752 C1753 1.386 . S
C1752 C1754 1.391 . S
C1753 C1752 1.386 . S
C1753 C1757 1.393 . S
C1754 H1746 0.950 . S
C1754 C1752 1.391 . S
C1754 C1755 1.400 . S
C1755 C1754 1.400 . S
C1755 C1756 1.398 . S
C1755 C1761 1.491 . S
C1756 H1747 0.950 . S
C1756 C1755 1.398 . S
C1756 C1757 1.391 . S
C1757 H1745 0.950 . S
C1757 C1753 1.393 . S
C1757 C1756 1.391 . S
C1758 H1748 0.950 . S
C1758 C1759 1.386 . S
C1758 C1760 1.391 . S
C1759 C1758 1.386 . S
C1759 C1763 1.393 . S
C1760 H1749 0.950 . S
C1760 C1758 1.391 . S
C1760 C1761 1.400 . S
C1761 C1755 1.491 . S
C1761 C1760 1.400 . S
C1761 C1762 1.398 . S
C1762 H1750 0.950 . S
C1762 C1761 1.398 . S
C1762 C1763 1.391 . S
C1763 H1751 0.950 . S
C1763 C1759 1.393 . S
C1763 C1762 1.391 . S
H1764 C1772 0.950 . S
H1765 C1777 0.950 . S
H1766 C1774 0.950 . S
H1767 C1776 0.950 . S
H1768 C1778 0.950 . S
H1769 C1780 0.950 . S
H1770 C1782 0.950 . S
H1771 C1783 0.950 . S
C1772 H1764 0.950 . S
C1772 C1773 1.386 . S
C1772 C1774 1.391 . S
C1773 C1772 1.386 . S
C1773 C1777 1.393 . S
C1774 H1766 0.950 . S
C1774 C1772 1.391 . S
C1774 C1775 1.400 . S
C1775 C1774 1.400 . S
C1775 C1776 1.398 . S
C1775 C1781 1.491 . S
C1776 H1767 0.950 . S
C1776 C1775 1.398 . S
C1776 C1777 1.391 . S
C1777 H1765 0.950 . S
C1777 C1773 1.393 . S
C1777 C1776 1.391 . S
C1778 H1768 0.950 . S
C1778 C1779 1.386 . S
C1778 C1780 1.391 . S
C1779 C1778 1.386 . S
C1779 C1783 1.393 . S
C1780 H1769 0.950 . S
C1780 C1778 1.391 . S
C1780 C1781 1.400 . S
C1781 C1775 1.491 . S
C1781 C1780 1.400 . S
C1781 C1782 1.398 . S
C1782 H1770 0.950 . S
C1782 C1781 1.398 . S
C1782 C1783 1.391 . S
C1783 H1771 0.950 . S
C1783 C1779 1.393 . S
C1783 C1782 1.391 . S
H1784 C1792 0.950 . S
H1785 C1797 0.950 . S
H1786 C1794 0.950 . S
H1787 C1796 0.950 . S
H1788 C1798 0.950 . S
H1789 C1800 0.950 . S
H1790 C1802 0.950 . S
H1791 C1803 0.950 . S
C1792 H1784 0.950 . S
C1792 C1793 1.386 . S
C1792 C1794 1.391 . S
C1793 C1792 1.386 . S
C1793 C1797 1.393 . S
C1794 H1786 0.950 . S
C1794 C1792 1.391 . S
C1794 C1795 1.400 . S
C1795 C1794 1.400 . S
C1795 C1796 1.398 . S
C1795 C1801 1.491 . S
C1796 H1787 0.950 . S
C1796 C1795 1.398 . S
C1796 C1797 1.391 . S
C1797 H1785 0.950 . S
C1797 C1793 1.393 . S
C1797 C1796 1.391 . S
C1798 H1788 0.950 . S
C1798 C1799 1.386 . S
C1798 C1800 1.391 . S
C1799 C1798 1.386 . S
C1799 C1803 1.393 . S
C1800 H1789 0.950 . S
C1800 C1798 1.391 . S
C1800 C1801 1.400 . S
C1801 C1795 1.491 . S
C1801 C1800 1.400 . S
C1801 C1802 1.398 . S
C1802 H1790 0.950 . S
C1802 C1801 1.398 . S
C1802 C1803 1.391 . S
C1803 H1791 0.950 . S
C1803 C1799 1.393 . S
C1803 C1802 1.391 . S
H1804 C1812 0.950 . S
H1805 C1817 0.950 . S
H1806 C1814 0.950 . S
H1807 C1816 0.950 . S
H1808 C1818 0.950 . S
H1809 C1820 0.950 . S
H1810 C1822 0.950 . S
H1811 C1823 0.950 . S
C1812 H1804 0.950 . S
C1812 C1813 1.386 . S
C1812 C1814 1.391 . S
C1813 C1812 1.386 . S
C1813 C1817 1.393 . S
C1814 H1806 0.950 . S
C1814 C1812 1.391 . S
C1814 C1815 1.400 . S
C1815 C1814 1.400 . S
C1815 C1816 1.398 . S
C1815 C1821 1.491 . S
C1816 H1807 0.950 . S
C1816 C1815 1.398 . S
C1816 C1817 1.391 . S
C1817 H1805 0.950 . S
C1817 C1813 1.393 . S
C1817 C1816 1.391 . S
C1818 H1808 0.950 . S
C1818 C1819 1.386 . S
C1818 C1820 1.391 . S
C1819 C1818 1.386 . S
C1819 C1823 1.393 . S
C1820 H1809 0.950 . S
C1820 C1818 1.391 . S
C1820 C1821 1.400 . S
C1821 C1815 1.491 . S
C1821 C1820 1.400 . S
C1821 C1822 1.398 . S
C1822 H1810 0.950 . S
C1822 C1821 1.398 . S
C1822 C1823 1.391 . S
C1823 H1811 0.950 . S
C1823 C1819 1.393 . S
C1823 C1822 1.391 . S
H1824 C1832 0.950 . S
H1825 C1837 0.950 . S
H1826 C1834 0.950 . S
H1827 C1836 0.950 . S
H1828 C1838 0.950 . S
H1829 C1840 0.950 . S
H1830 C1842 0.950 . S
H1831 C1843 0.950 . S
C1832 H1824 0.950 . S
C1832 C1833 1.386 . S
C1832 C1834 1.391 . S
C1833 C1832 1.386 . S
C1833 C1837 1.393 . S
C1834 H1826 0.950 . S
C1834 C1832 1.391 . S
C1834 C1835 1.400 . S
C1835 C1834 1.400 . S
C1835 C1836 1.398 . S
C1835 C1841 1.491 . S
C1836 H1827 0.950 . S
C1836 C1835 1.398 . S
C1836 C1837 1.391 . S
C1837 H1825 0.950 . S
C1837 C1833 1.393 . S
C1837 C1836 1.391 . S
C1838 H1828 0.950 . S
C1838 C1839 1.386 . S
C1838 C1840 1.391 . S
C1839 C1838 1.386 . S
C1839 C1843 1.393 . S
C1840 H1829 0.950 . S
C1840 C1838 1.391 . S
C1840 C1841 1.400 . S
C1841 C1835 1.491 . S
C1841 C1840 1.400 . S
C1841 C1842 1.398 . S
C1842 H1830 0.950 . S
C1842 C1841 1.398 . S
C1842 C1843 1.391 . S
C1843 H1831 0.950 . S
C1843 C1839 1.393 . S
C1843 C1842 1.391 . S
H1844 C1852 0.950 . S
H1845 C1857 0.950 . S
H1846 C1854 0.950 . S
H1847 C1856 0.950 . S
H1848 C1858 0.950 . S
H1849 C1860 0.950 . S
H1850 C1862 0.950 . S
H1851 C1863 0.950 . S
C1852 H1844 0.950 . S
C1852 C1853 1.386 . S
C1852 C1854 1.391 . S
C1853 C1852 1.386 . S
C1853 C1857 1.393 . S
C1854 H1846 0.950 . S
C1854 C1852 1.391 . S
C1854 C1855 1.400 . S
C1855 C1854 1.400 . S
C1855 C1856 1.398 . S
C1855 C1861 1.491 . S
C1856 H1847 0.950 . S
C1856 C1855 1.398 . S
C1856 C1857 1.391 . S
C1857 H1845 0.950 . S
C1857 C1853 1.393 . S
C1857 C1856 1.391 . S
C1858 H1848 0.950 . S
C1858 C1859 1.386 . S
C1858 C1860 1.391 . S
C1859 C1858 1.386 . S
C1859 C1863 1.393 . S
C1860 H1849 0.950 . S
C1860 C1858 1.391 . S
C1860 C1861 1.400 . S
C1861 C1855 1.491 . S
C1861 C1860 1.400 . S
C1861 C1862 1.398 . S
C1862 H1850 0.950 . S
C1862 C1861 1.398 . S
C1862 C1863 1.391 . S
C1863 H1851 0.950 . S
C1863 C1859 1.393 . S
C1863 C1862 1.391 . S
H1864 C1872 0.950 . S
H1865 C1877 0.950 . S
H1866 C1874 0.950 . S
H1867 C1876 0.950 . S
H1868 C1878 0.950 . S
H1869 C1880 0.950 . S
H1870 C1882 0.950 . S
H1871 C1883 0.950 . S
C1872 H1864 0.950 . S
C1872 C1873 1.386 . S
C1872 C1874 1.391 . S
C1873 C1872 1.386 . S
C1873 C1877 1.393 . S
C1874 H1866 0.950 . S
C1874 C1872 1.391 . S
C1874 C1875 1.400 . S
C1875 C1874 1.400 . S
C1875 C1876 1.398 . S
C1875 C1881 1.491 . S
C1876 H1867 0.950 . S
C1876 C1875 1.398 . S
C1876 C1877 1.391 . S
C1877 H1865 0.950 . S
C1877 C1873 1.393 . S
C1877 C1876 1.391 . S
C1878 H1868 0.950 . S
C1878 C1879 1.386 . S
C1878 C1880 1.391 . S
C1879 C1878 1.386 . S
C1879 C1883 1.393 . S
C1880 H1869 0.950 . S
C1880 C1878 1.391 . S
C1880 C1881 1.400 . S
C1881 C1875 1.491 . S
C1881 C1880 1.400 . S
C1881 C1882 1.398 . S
C1882 H1870 0.950 . S
C1882 C1881 1.398 . S
C1882 C1883 1.391 . S
C1883 H1871 0.950 . S
C1883 C1879 1.393 . S
C1883 C1882 1.391 . S
H1884 C1892 0.950 . S
H1885 C1897 0.950 . S
H1886 C1894 0.950 . S
H1887 C1896 0.950 . S
H1888 C1898 0.950 . S
H1889 C1900 0.950 . S
H1890 C1902 0.950 . S
H1891 C1903 0.950 . S
C1892 H1884 0.950 . S
C1892 C1893 1.386 . S
C1892 C1894 1.391 . S
C1893 C1892 1.386 . S
C1893 C1897 1.393 . S
C1894 H1886 0.950 . S
C1894 C1892 1.391 . S
C1894 C1895 1.400 . S
C1895 C1894 1.400 . S
C1895 C1896 1.398 . S
C1895 C1901 1.491 . S
C1896 H1887 0.950 . S
C1896 C1895 1.398 . S
C1896 C1897 1.391 . S
C1897 H1885 0.950 . S
C1897 C1893 1.393 . S
C1897 C1896 1.391 . S
C1898 H1888 0.950 . S
C1898 C1899 1.386 . S
C1898 C1900 1.391 . S
C1899 C1898 1.386 . S
C1899 C1903 1.393 . S
C1900 H1889 0.950 . S
C1900 C1898 1.391 . S
C1900 C1901 1.400 . S
C1901 C1895 1.491 . S
C1901 C1900 1.400 . S
C1901 C1902 1.398 . S
C1902 H1890 0.950 . S
C1902 C1901 1.398 . S
C1902 C1903 1.391 . S
C1903 H1891 0.950 . S
C1903 C1899 1.393 . S
C1903 C1902 1.391 . S
H1904 C1912 0.950 . S
H1905 C1917 0.950 . S
H1906 C1914 0.950 . S
H1907 C1916 0.950 . S
H1908 C1918 0.950 . S
H1909 C1920 0.950 . S
H1910 C1922 0.950 . S
H1911 C1923 0.950 . S
C1912 H1904 0.950 . S
C1912 C1913 1.386 . S
C1912 C1914 1.391 . S
C1913 C1912 1.386 . S
C1913 C1917 1.393 . S
C1914 H1906 0.950 . S
C1914 C1912 1.391 . S
C1914 C1915 1.400 . S
C1915 C1914 1.400 . S
C1915 C1916 1.398 . S
C1915 C1921 1.491 . S
C1916 H1907 0.950 . S
C1916 C1915 1.398 . S
C1916 C1917 1.391 . S
C1917 H1905 0.950 . S
C1917 C1913 1.393 . S
C1917 C1916 1.391 . S
C1918 H1908 0.950 . S
C1918 C1919 1.386 . S
C1918 C1920 1.391 . S
C1919 C1918 1.386 . S
C1919 C1923 1.393 . S
C1920 H1909 0.950 . S
C1920 C1918 1.391 . S
C1920 C1921 1.400 . S
C1921 C1915 1.491 . S
C1921 C1920 1.400 . S
C1921 C1922 1.398 . S
C1922 H1910 0.950 . S
C1922 C1921 1.398 . S
C1922 C1923 1.391 . S
C1923 H1911 0.950 . S
C1923 C1919 1.393 . S
C1923 C1922 1.391 . S
H1924 C1932 0.950 . S
H1925 C1937 0.950 . S
H1926 C1934 0.950 . S
H1927 C1936 0.950 . S
H1928 C1938 0.950 . S
H1929 C1940 0.950 . S
H1930 C1942 0.950 . S
H1931 C1943 0.950 . S
C1932 H1924 0.950 . S
C1932 C1933 1.386 . S
C1932 C1934 1.391 . S
C1933 C1932 1.386 . S
C1933 C1937 1.393 . S
C1934 H1926 0.950 . S
C1934 C1932 1.391 . S
C1934 C1935 1.400 . S
C1935 C1934 1.400 . S
C1935 C1936 1.398 . S
C1935 C1941 1.491 . S
C1936 H1927 0.950 . S
C1936 C1935 1.398 . S
C1936 C1937 1.391 . S
C1937 H1925 0.950 . S
C1937 C1933 1.393 . S
C1937 C1936 1.391 . S
C1938 H1928 0.950 . S
C1938 C1939 1.386 . S
C1938 C1940 1.391 . S
C1939 C1938 1.386 . S
C1939 C1943 1.393 . S
C1940 H1929 0.950 . S
C1940 C1938 1.391 . S
C1940 C1941 1.400 . S
C1941 C1935 1.491 . S
C1941 C1940 1.400 . S
C1941 C1942 1.398 . S
C1942 H1930 0.950 . S
C1942 C1941 1.398 . S
C1942 C1943 1.391 . S
C1943 H1931 0.950 . S
C1943 C1939 1.393 . S
C1943 C1942 1.391 . S
H1944 C1952 0.950 . S
H1945 C1957 0.950 . S
H1946 C1954 0.950 . S
H1947 C1956 0.950 . S
H1948 C1958 0.950 . S
H1949 C1960 0.950 . S
H1950 C1962 0.950 . S
H1951 C1963 0.950 . S
C1952 H1944 0.950 . S
C1952 C1953 1.386 . S
C1952 C1954 1.391 . S
C1953 C1952 1.386 . S
C1953 C1957 1.393 . S
C1954 H1946 0.950 . S
C1954 C1952 1.391 . S
C1954 C1955 1.400 . S
C1955 C1954 1.400 . S
C1955 C1956 1.398 . S
C1955 C1961 1.491 . S
C1956 H1947 0.950 . S
C1956 C1955 1.398 . S
C1956 C1957 1.391 . S
C1957 H1945 0.950 . S
C1957 C1953 1.393 . S
C1957 C1956 1.391 . S
C1958 H1948 0.950 . S
C1958 C1959 1.386 . S
C1958 C1960 1.391 . S
C1959 C1958 1.386 . S
C1959 C1963 1.393 . S
C1960 H1949 0.950 . S
C1960 C1958 1.391 . S
C1960 C1961 1.400 . S
C1961 C1955 1.491 . S
C1961 C1960 1.400 . S
C1961 C1962 1.398 . S
C1962 H1950 0.950 . S
C1962 C1961 1.398 . S
C1962 C1963 1.391 . S
C1963 H1951 0.950 . S
C1963 C1959 1.393 . S
C1963 C1962 1.391 . S
H1964 C1972 0.950 . S
H1965 C1977 0.950 . S
H1966 C1974 0.950 . S
H1967 C1976 0.950 . S
H1968 C1978 0.950 . S
H1969 C1980 0.950 . S
H1970 C1982 0.950 . S
H1971 C1983 0.950 . S
C1972 H1964 0.950 . S
C1972 C1973 1.386 . S
C1972 C1974 1.391 . S
C1973 C1972 1.386 . S
C1973 C1977 1.393 . S
C1974 H1966 0.950 . S
C1974 C1972 1.391 . S
C1974 C1975 1.400 . S
C1975 C1974 1.400 . S
C1975 C1976 1.398 . S
C1975 C1981 1.491 . S
C1976 H1967 0.950 . S
C1976 C1975 1.398 . S
C1976 C1977 1.391 . S
C1977 H1965 0.950 . S
C1977 C1973 1.393 . S
C1977 C1976 1.391 . S
C1978 H1968 0.950 . S
C1978 C1979 1.386 . S
C1978 C1980 1.391 . S
C1979 C1978 1.386 . S
C1979 C1983 1.393 . S
C1980 H1969 0.950 . S
C1980 C1978 1.391 . S
C1980 C1981 1.400 . S
C1981 C1975 1.491 . S
C1981 C1980 1.400 . S
C1981 C1982 1.398 . S
C1982 H1970 0.950 . S
C1982 C1981 1.398 . S
C1982 C1983 1.391 . S
C1983 H1971 0.950 . S
C1983 C1979 1.393 . S
C1983 C1982 1.391 . S
H1984 C1992 0.950 . S
H1985 C1997 0.950 . S
H1986 C1994 0.950 . S
H1987 C1996 0.950 . S
H1988 C1998 0.950 . S
H1989 C2000 0.950 . S
H1990 C2002 0.950 . S
H1991 C2003 0.950 . S
C1992 H1984 0.950 . S
C1992 C1993 1.386 . S
C1992 C1994 1.391 . S
C1993 C1992 1.386 . S
C1993 C1997 1.393 . S
C1994 H1986 0.950 . S
C1994 C1992 1.391 . S
C1994 C1995 1.400 . S
C1995 C1994 1.400 . S
C1995 C1996 1.398 . S
C1995 C2001 1.491 . S
C1996 H1987 0.950 . S
C1996 C1995 1.398 . S
C1996 C1997 1.391 . S
C1997 H1985 0.950 . S
C1997 C1993 1.393 . S
C1997 C1996 1.391 . S
C1998 H1988 0.950 . S
C1998 C1999 1.386 . S
C1998 C2000 1.391 . S
C1999 C1998 1.386 . S
C1999 C2003 1.393 . S
C2000 H1989 0.950 . S
C2000 C1998 1.391 . S
C2000 C2001 1.400 . S
C2001 C1995 1.491 . S
C2001 C2000 1.400 . S
C2001 C2002 1.398 . S
C2002 H1990 0.950 . S
C2002 C2001 1.398 . S
C2002 C2003 1.391 . S
C2003 H1991 0.950 . S
C2003 C1999 1.393 . S
C2003 C2002 1.391 . S
H2004 C2012 0.950 . S
H2005 C2017 0.950 . S
H2006 C2014 0.950 . S
H2007 C2016 0.950 . S
H2008 C2018 0.950 . S
H2009 C2020 0.950 . S
H2010 C2022 0.950 . S
H2011 C2023 0.950 . S
C2012 H2004 0.950 . S
C2012 C2013 1.386 . S
C2012 C2014 1.391 . S
C2013 C2012 1.386 . S
C2013 C2017 1.393 . S
C2014 H2006 0.950 . S
C2014 C2012 1.391 . S
C2014 C2015 1.400 . S
C2015 C2014 1.400 . S
C2015 C2016 1.398 . S
C2015 C2021 1.491 . S
C2016 H2007 0.950 . S
C2016 C2015 1.398 . S
C2016 C2017 1.391 . S
C2017 H2005 0.950 . S
C2017 C2013 1.393 . S
C2017 C2016 1.391 . S
C2018 H2008 0.950 . S
C2018 C2019 1.386 . S
C2018 C2020 1.391 . S
C2019 C2018 1.386 . S
C2019 C2023 1.393 . S
C2020 H2009 0.950 . S
C2020 C2018 1.391 . S
C2020 C2021 1.400 . S
C2021 C2015 1.491 . S
C2021 C2020 1.400 . S
C2021 C2022 1.398 . S
C2022 H2010 0.950 . S
C2022 C2021 1.398 . S
C2022 C2023 1.391 . S
C2023 H2011 0.950 . S
C2023 C2019 1.393 . S
C2023 C2022 1.391 . S
H2024 C2032 0.950 . S
H2025 C2037 0.950 . S
H2026 C2034 0.950 . S
H2027 C2036 0.950 . S
H2028 C2038 0.950 . S
H2029 C2040 0.950 . S
H2030 C2042 0.950 . S
H2031 C2043 0.950 . S
C2032 H2024 0.950 . S
C2032 C2033 1.386 . S
C2032 C2034 1.391 . S
C2033 C2032 1.386 . S
C2033 C2037 1.393 . S
C2034 H2026 0.950 . S
C2034 C2032 1.391 . S
C2034 C2035 1.400 . S
C2035 C2034 1.400 . S
C2035 C2036 1.398 . S
C2035 C2041 1.491 . S
C2036 H2027 0.950 . S
C2036 C2035 1.398 . S
C2036 C2037 1.391 . S
C2037 H2025 0.950 . S
C2037 C2033 1.393 . S
C2037 C2036 1.391 . S
C2038 H2028 0.950 . S
C2038 C2039 1.386 . S
C2038 C2040 1.391 . S
C2039 C2038 1.386 . S
C2039 C2043 1.393 . S
C2040 H2029 0.950 . S
C2040 C2038 1.391 . S
C2040 C2041 1.400 . S
C2041 C2035 1.491 . S
C2041 C2040 1.400 . S
C2041 C2042 1.398 . S
C2042 H2030 0.950 . S
C2042 C2041 1.398 . S
C2042 C2043 1.391 . S
C2043 H2031 0.950 . S
C2043 C2039 1.393 . S
C2043 C2042 1.391 . S
H2044 C2052 0.950 . S
H2045 C2057 0.950 . S
H2046 C2054 0.950 . S
H2047 C2056 0.950 . S
H2048 C2058 0.950 . S
H2049 C2060 0.950 . S
H2050 C2062 0.950 . S
H2051 C2063 0.950 . S
C2052 H2044 0.950 . S
C2052 C2053 1.386 . S
C2052 C2054 1.391 . S
C2053 C2052 1.386 . S
C2053 C2057 1.393 . S
C2054 H2046 0.950 . S
C2054 C2052 1.391 . S
C2054 C2055 1.400 . S
C2055 C2054 1.400 . S
C2055 C2056 1.398 . S
C2055 C2061 1.491 . S
C2056 H2047 0.950 . S
C2056 C2055 1.398 . S
C2056 C2057 1.391 . S
C2057 H2045 0.950 . S
C2057 C2053 1.393 . S
C2057 C2056 1.391 . S
C2058 H2048 0.950 . S
C2058 C2059 1.386 . S
C2058 C2060 1.391 . S
C2059 C2058 1.386 . S
C2059 C2063 1.393 . S
C2060 H2049 0.950 . S
C2060 C2058 1.391 . S
C2060 C2061 1.400 . S
C2061 C2055 1.491 . S
C2061 C2060 1.400 . S
C2061 C2062 1.398 . S
C2062 H2050 0.950 . S
C2062 C2061 1.398 . S
C2062 C2063 1.391 . S
C2063 H2051 0.950 . S
C2063 C2059 1.393 . S
C2063 C2062 1.391 . S
H2064 C2072 0.950 . S
H2065 C2077 0.950 . S
H2066 C2074 0.950 . S
H2067 C2076 0.950 . S
H2068 C2078 0.950 . S
H2069 C2080 0.950 . S
H2070 C2082 0.950 . S
H2071 C2083 0.950 . S
C2072 H2064 0.950 . S
C2072 C2073 1.386 . S
C2072 C2074 1.391 . S
C2073 C2072 1.386 . S
C2073 C2077 1.393 . S
C2074 H2066 0.950 . S
C2074 C2072 1.391 . S
C2074 C2075 1.400 . S
C2075 C2074 1.400 . S
C2075 C2076 1.398 . S
C2075 C2081 1.491 . S
C2076 H2067 0.950 . S
C2076 C2075 1.398 . S
C2076 C2077 1.391 . S
C2077 H2065 0.950 . S
C2077 C2073 1.393 . S
C2077 C2076 1.391 . S
C2078 H2068 0.950 . S
C2078 C2079 1.386 . S
C2078 C2080 1.391 . S
C2079 C2078 1.386 . S
C2079 C2083 1.393 . S
C2080 H2069 0.950 . S
C2080 C2078 1.391 . S
C2080 C2081 1.400 . S
C2081 C2075 1.491 . S
C2081 C2080 1.400 . S
C2081 C2082 1.398 . S
C2082 H2070 0.950 . S
C2082 C2081 1.398 . S
C2082 C2083 1.391 . S
C2083 H2071 0.950 . S
C2083 C2079 1.393 . S
C2083 C2082 1.391 . S
H2084 C2092 0.950 . S
H2085 C2097 0.950 . S
H2086 C2094 0.950 . S
H2087 C2096 0.950 . S
H2088 C2098 0.950 . S
H2089 C2100 0.950 . S
H2090 C2102 0.950 . S
H2091 C2103 0.950 . S
C2092 H2084 0.950 . S
C2092 C2093 1.386 . S
C2092 C2094 1.391 . S
C2093 C2092 1.386 . S
C2093 C2097 1.393 . S
C2094 H2086 0.950 . S
C2094 C2092 1.391 . S
C2094 C2095 1.400 . S
C2095 C2094 1.400 . S
C2095 C2096 1.398 . S
C2095 C2101 1.491 . S
C2096 H2087 0.950 . S
C2096 C2095 1.398 . S
C2096 C2097 1.391 . S
C2097 H2085 0.950 . S
C2097 C2093 1.393 . S
C2097 C2096 1.391 . S
C2098 H2088 0.950 . S
C2098 C2099 1.386 . S
C2098 C2100 1.391 . S
C2099 C2098 1.386 . S
C2099 C2103 1.393 . S
C2100 H2089 0.950 . S
C2100 C2098 1.391 . S
C2100 C2101 1.400 . S
C2101 C2095 1.491 . S
C2101 C2100 1.400 . S
C2101 C2102 1.398 . S
C2102 H2090 0.950 . S
C2102 C2101 1.398 . S
C2102 C2103 1.391 . S
C2103 H2091 0.950 . S
C2103 C2099 1.393 . S
C2103 C2102 1.391 . S
H2104 C2112 0.950 . S
H2105 C2117 0.950 . S
H2106 C2114 0.950 . S
H2107 C2116 0.950 . S
H2108 C2118 0.950 . S
H2109 C2120 0.950 . S
H2110 C2122 0.950 . S
H2111 C2123 0.950 . S
C2112 H2104 0.950 . S
C2112 C2113 1.386 . S
C2112 C2114 1.391 . S
C2113 C2112 1.386 . S
C2113 C2117 1.393 . S
C2114 H2106 0.950 . S
C2114 C2112 1.391 . S
C2114 C2115 1.400 . S
C2115 C2114 1.400 . S
C2115 C2116 1.398 . S
C2115 C2121 1.491 . S
C2116 H2107 0.950 . S
C2116 C2115 1.398 . S
C2116 C2117 1.391 . S
C2117 H2105 0.950 . S
C2117 C2113 1.393 . S
C2117 C2116 1.391 . S
C2118 H2108 0.950 . S
C2118 C2119 1.386 . S
C2118 C2120 1.391 . S
C2119 C2118 1.386 . S
C2119 C2123 1.393 . S
C2120 H2109 0.950 . S
C2120 C2118 1.391 . S
C2120 C2121 1.400 . S
C2121 C2115 1.491 . S
C2121 C2120 1.400 . S
C2121 C2122 1.398 . S
C2122 H2110 0.950 . S
C2122 C2121 1.398 . S
C2122 C2123 1.391 . S
C2123 H2111 0.950 . S
C2123 C2119 1.393 . S
C2123 C2122 1.391 . S
H2124 C2132 0.950 . S
H2125 C2137 0.950 . S
H2126 C2134 0.950 . S
H2127 C2136 0.950 . S
H2128 C2138 0.950 . S
H2129 C2140 0.950 . S
H2130 C2142 0.950 . S
H2131 C2143 0.950 . S
C2132 H2124 0.950 . S
C2132 C2133 1.386 . S
C2132 C2134 1.391 . S
C2133 C2132 1.386 . S
C2133 C2137 1.393 . S
C2134 H2126 0.950 . S
C2134 C2132 1.391 . S
C2134 C2135 1.400 . S
C2135 C2134 1.400 . S
C2135 C2136 1.398 . S
C2135 C2141 1.491 . S
C2136 H2127 0.950 . S
C2136 C2135 1.398 . S
C2136 C2137 1.391 . S
C2137 H2125 0.950 . S
C2137 C2133 1.393 . S
C2137 C2136 1.391 . S
C2138 H2128 0.950 . S
C2138 C2139 1.386 . S
C2138 C2140 1.391 . S
C2139 C2138 1.386 . S
C2139 C2143 1.393 . S
C2140 H2129 0.950 . S
C2140 C2138 1.391 . S
C2140 C2141 1.400 . S
C2141 C2135 1.491 . S
C2141 C2140 1.400 . S
C2141 C2142 1.398 . S
C2142 H2130 0.950 . S
C2142 C2141 1.398 . S
C2142 C2143 1.391 . S
C2143 H2131 0.950 . S
C2143 C2139 1.393 . S
C2143 C2142 1.391 . S
H2144 C2152 0.950 . S
H2145 C2157 0.950 . S
H2146 C2154 0.950 . S
H2147 C2156 0.950 . S
H2148 C2158 0.950 . S
H2149 C2160 0.950 . S
H2150 C2162 0.950 . S
H2151 C2163 0.950 . S
C2152 H2144 0.950 . S
C2152 C2153 1.386 . S
C2152 C2154 1.391 . S
C2153 C2152 1.386 . S
C2153 C2157 1.393 . S
C2154 H2146 0.950 . S
C2154 C2152 1.391 . S
C2154 C2155 1.400 . S
C2155 C2154 1.400 . S
C2155 C2156 1.398 . S
C2155 C2161 1.491 . S
C2156 H2147 0.950 . S
C2156 C2155 1.398 . S
C2156 C2157 1.391 . S
C2157 H2145 0.950 . S
C2157 C2153 1.393 . S
C2157 C2156 1.391 . S
C2158 H2148 0.950 . S
C2158 C2159 1.386 . S
C2158 C2160 1.391 . S
C2159 C2158 1.386 . S
C2159 C2163 1.393 . S
C2160 H2149 0.950 . S
C2160 C2158 1.391 . S
C2160 C2161 1.400 . S
C2161 C2155 1.491 . S
C2161 C2160 1.400 . S
C2161 C2162 1.398 . S
C2162 H2150 0.950 . S
C2162 C2161 1.398 . S
C2162 C2163 1.391 . S
C2163 H2151 0.950 . S
C2163 C2159 1.393 . S
C2163 C2162 1.391 . S
H2164 C2172 0.950 . S
H2165 C2177 0.950 . S
H2166 C2174 0.950 . S
H2167 C2176 0.950 . S
H2168 C2178 0.950 . S
H2169 C2180 0.950 . S
H2170 C2182 0.950 . S
H2171 C2183 0.950 . S
C2172 H2164 0.950 . S
C2172 C2173 1.386 . S
C2172 C2174 1.391 . S
C2173 C2172 1.386 . S
C2173 C2177 1.393 . S
C2174 H2166 0.950 . S
C2174 C2172 1.391 . S
C2174 C2175 1.400 . S
C2175 C2174 1.400 . S
C2175 C2176 1.398 . S
C2175 C2181 1.491 . S
C2176 H2167 0.950 . S
C2176 C2175 1.398 . S
C2176 C2177 1.391 . S
C2177 H2165 0.950 . S
C2177 C2173 1.393 . S
C2177 C2176 1.391 . S
C2178 H2168 0.950 . S
C2178 C2179 1.386 . S
C2178 C2180 1.391 . S
C2179 C2178 1.386 . S
C2179 C2183 1.393 . S
C2180 H2169 0.950 . S
C2180 C2178 1.391 . S
C2180 C2181 1.400 . S
C2181 C2175 1.491 . S
C2181 C2180 1.400 . S
C2181 C2182 1.398 . S
C2182 H2170 0.950 . S
C2182 C2181 1.398 . S
C2182 C2183 1.391 . S
C2183 H2171 0.950 . S
C2183 C2179 1.393 . S
C2183 C2182 1.391 . S
H2184 C2192 0.950 . S
H2185 C2197 0.950 . S
H2186 C2194 0.950 . S
H2187 C2196 0.950 . S
H2188 C2198 0.950 . S
H2189 C2200 0.950 . S
H2190 C2202 0.950 . S
H2191 C2203 0.950 . S
C2192 H2184 0.950 . S
C2192 C2193 1.386 . S
C2192 C2194 1.391 . S
C2193 C2192 1.386 . S
C2193 C2197 1.393 . S
C2194 H2186 0.950 . S
C2194 C2192 1.391 . S
C2194 C2195 1.400 . S
C2195 C2194 1.400 . S
C2195 C2196 1.398 . S
C2195 C2201 1.491 . S
C2196 H2187 0.950 . S
C2196 C2195 1.398 . S
C2196 C2197 1.391 . S
C2197 H2185 0.950 . S
C2197 C2193 1.393 . S
C2197 C2196 1.391 . S
C2198 H2188 0.950 . S
C2198 C2199 1.386 . S
C2198 C2200 1.391 . S
C2199 C2198 1.386 . S
C2199 C2203 1.393 . S
C2200 H2189 0.950 . S
C2200 C2198 1.391 . S
C2200 C2201 1.400 . S
C2201 C2195 1.491 . S
C2201 C2200 1.400 . S
C2201 C2202 1.398 . S
C2202 H2190 0.950 . S
C2202 C2201 1.398 . S
C2202 C2203 1.391 . S
C2203 H2191 0.950 . S
C2203 C2199 1.393 . S
C2203 C2202 1.391 . S
H2204 C2212 0.950 . S
H2205 C2217 0.950 . S
H2206 C2214 0.950 . S
H2207 C2216 0.950 . S
H2208 C2218 0.950 . S
H2209 C2220 0.950 . S
H2210 C2222 0.950 . S
H2211 C2223 0.950 . S
C2212 H2204 0.950 . S
C2212 C2213 1.386 . S
C2212 C2214 1.391 . S
C2213 C2212 1.386 . S
C2213 C2217 1.393 . S
C2214 H2206 0.950 . S
C2214 C2212 1.391 . S
C2214 C2215 1.400 . S
C2215 C2214 1.400 . S
C2215 C2216 1.398 . S
C2215 C2221 1.491 . S
C2216 H2207 0.950 . S
C2216 C2215 1.398 . S
C2216 C2217 1.391 . S
C2217 H2205 0.950 . S
C2217 C2213 1.393 . S
C2217 C2216 1.391 . S
C2218 H2208 0.950 . S
C2218 C2219 1.386 . S
C2218 C2220 1.391 . S
C2219 C2218 1.386 . S
C2219 C2223 1.393 . S
C2220 H2209 0.950 . S
C2220 C2218 1.391 . S
C2220 C2221 1.400 . S
C2221 C2215 1.491 . S
C2221 C2220 1.400 . S
C2221 C2222 1.398 . S
C2222 H2210 0.950 . S
C2222 C2221 1.398 . S
C2222 C2223 1.391 . S
C2223 H2211 0.950 . S
C2223 C2219 1.393 . S
C2223 C2222 1.391 . S
H2224 C2232 0.950 . S
H2225 C2237 0.950 . S
H2226 C2234 0.950 . S
H2227 C2236 0.950 . S
H2228 C2238 0.950 . S
H2229 C2240 0.950 . S
H2230 C2242 0.950 . S
H2231 C2243 0.950 . S
C2232 H2224 0.950 . S
C2232 C2233 1.386 . S
C2232 C2234 1.391 . S
C2233 C2232 1.386 . S
C2233 C2237 1.393 . S
C2234 H2226 0.950 . S
C2234 C2232 1.391 . S
C2234 C2235 1.400 . S
C2235 C2234 1.400 . S
C2235 C2236 1.398 . S
C2235 C2241 1.491 . S
C2236 H2227 0.950 . S
C2236 C2235 1.398 . S
C2236 C2237 1.391 . S
C2237 H2225 0.950 . S
C2237 C2233 1.393 . S
C2237 C2236 1.391 . S
C2238 H2228 0.950 . S
C2238 C2239 1.386 . S
C2238 C2240 1.391 . S
C2239 C2238 1.386 . S
C2239 C2243 1.393 . S
C2240 H2229 0.950 . S
C2240 C2238 1.391 . S
C2240 C2241 1.400 . S
C2241 C2235 1.491 . S
C2241 C2240 1.400 . S
C2241 C2242 1.398 . S
C2242 H2230 0.950 . S
C2242 C2241 1.398 . S
C2242 C2243 1.391 . S
C2243 H2231 0.950 . S
C2243 C2239 1.393 . S
C2243 C2242 1.391 . S
H2244 C2252 0.950 . S
H2245 C2257 0.950 . S
H2246 C2254 0.950 . S
H2247 C2256 0.950 . S
H2248 C2258 0.950 . S
H2249 C2260 0.950 . S
H2250 C2262 0.950 . S
H2251 C2263 0.950 . S
C2252 H2244 0.950 . S
C2252 C2253 1.386 . S
C2252 C2254 1.391 . S
C2253 C2252 1.386 . S
C2253 C2257 1.393 . S
C2254 H2246 0.950 . S
C2254 C2252 1.391 . S
C2254 C2255 1.400 . S
C2255 C2254 1.400 . S
C2255 C2256 1.398 . S
C2255 C2261 1.491 . S
C2256 H2247 0.950 . S
C2256 C2255 1.398 . S
C2256 C2257 1.391 . S
C2257 H2245 0.950 . S
C2257 C2253 1.393 . S
C2257 C2256 1.391 . S
C2258 H2248 0.950 . S
C2258 C2259 1.386 . S
C2258 C2260 1.391 . S
C2259 C2258 1.386 . S
C2259 C2263 1.393 . S
C2260 H2249 0.950 . S
C2260 C2258 1.391 . S
C2260 C2261 1.400 . S
C2261 C2255 1.491 . S
C2261 C2260 1.400 . S
C2261 C2262 1.398 . S
C2262 H2250 0.950 . S
C2262 C2261 1.398 . S
C2262 C2263 1.391 . S
C2263 H2251 0.950 . S
C2263 C2259 1.393 . S
C2263 C2262 1.391 . S
H2264 C2272 0.950 . S
H2265 C2277 0.950 . S
H2266 C2274 0.950 . S
H2267 C2276 0.950 . S
H2268 C2278 0.950 . S
H2269 C2280 0.950 . S
H2270 C2282 0.950 . S
H2271 C2283 0.950 . S
C2272 H2264 0.950 . S
C2272 C2273 1.386 . S
C2272 C2274 1.391 . S
C2273 C2272 1.386 . S
C2273 C2277 1.393 . S
C2274 H2266 0.950 . S
C2274 C2272 1.391 . S
C2274 C2275 1.400 . S
C2275 C2274 1.400 . S
C2275 C2276 1.398 . S
C2275 C2281 1.491 . S
C2276 H2267 0.950 . S
C2276 C2275 1.398 . S
C2276 C2277 1.391 . S
C2277 H2265 0.950 . S
C2277 C2273 1.393 . S
C2277 C2276 1.391 . S
C2278 H2268 0.950 . S
C2278 C2279 1.386 . S
C2278 C2280 1.391 . S
C2279 C2278 1.386 . S
C2279 C2283 1.393 . S
C2280 H2269 0.950 . S
C2280 C2278 1.391 . S
C2280 C2281 1.400 . S
C2281 C2275 1.491 . S
C2281 C2280 1.400 . S
C2281 C2282 1.398 . S
C2282 H2270 0.950 . S
C2282 C2281 1.398 . S
C2282 C2283 1.391 . S
C2283 H2271 0.950 . S
C2283 C2279 1.393 . S
C2283 C2282 1.391 . S
H2284 C2292 0.950 . S
H2285 C2297 0.950 . S
H2286 C2294 0.950 . S
H2287 C2296 0.950 . S
H2288 C2298 0.950 . S
H2289 C2300 0.950 . S
H2290 C2302 0.950 . S
H2291 C2303 0.950 . S
C2292 H2284 0.950 . S
C2292 C2293 1.386 . S
C2292 C2294 1.391 . S
C2293 C2292 1.386 . S
C2293 C2297 1.393 . S
C2294 H2286 0.950 . S
C2294 C2292 1.391 . S
C2294 C2295 1.400 . S
C2295 C2294 1.400 . S
C2295 C2296 1.398 . S
C2295 C2301 1.491 . S
C2296 H2287 0.950 . S
C2296 C2295 1.398 . S
C2296 C2297 1.391 . S
C2297 H2285 0.950 . S
C2297 C2293 1.393 . S
C2297 C2296 1.391 . S
C2298 H2288 0.950 . S
C2298 C2299 1.386 . S
C2298 C2300 1.391 . S
C2299 C2298 1.386 . S
C2299 C2303 1.393 . S
C2300 H2289 0.950 . S
C2300 C2298 1.391 . S
C2300 C2301 1.400 . S
C2301 C2295 1.491 . S
C2301 C2300 1.400 . S
C2301 C2302 1.398 . S
C2302 H2290 0.950 . S
C2302 C2301 1.398 . S
C2302 C2303 1.391 . S
C2303 H2291 0.950 . S
C2303 C2299 1.393 . S
C2303 C2302 1.391 . S
H2304 C2312 0.950 . S
H2305 C2317 0.950 . S
H2306 C2314 0.950 . S
H2307 C2316 0.950 . S
H2308 C2318 0.950 . S
H2309 C2320 0.950 . S
H2310 C2322 0.950 . S
H2311 C2323 0.950 . S
C2312 H2304 0.950 . S
C2312 C2313 1.386 . S
C2312 C2314 1.391 . S
C2313 C2312 1.386 . S
C2313 C2317 1.393 . S
C2314 H2306 0.950 . S
C2314 C2312 1.391 . S
C2314 C2315 1.400 . S
C2315 C2314 1.400 . S
C2315 C2316 1.398 . S
C2315 C2321 1.491 . S
C2316 H2307 0.950 . S
C2316 C2315 1.398 . S
C2316 C2317 1.391 . S
C2317 H2305 0.950 . S
C2317 C2313 1.393 . S
C2317 C2316 1.391 . S
C2318 H2308 0.950 . S
C2318 C2319 1.386 . S
C2318 C2320 1.391 . S
C2319 C2318 1.386 . S
C2319 C2323 1.393 . S
C2320 H2309 0.950 . S
C2320 C2318 1.391 . S
C2320 C2321 1.400 . S
C2321 C2315 1.491 . S
C2321 C2320 1.400 . S
C2321 C2322 1.398 . S
C2322 H2310 0.950 . S
C2322 C2321 1.398 . S
C2322 C2323 1.391 . S
C2323 H2311 0.950 . S
C2323 C2319 1.393 . S
C2323 C2322 1.391 . S
H2324 C2332 0.950 . S
H2325 C2337 0.950 . S
H2326 C2334 0.950 . S
H2327 C2336 0.950 . S
H2328 C2338 0.950 . S
H2329 C2340 0.950 . S
H2330 C2342 0.950 . S
H2331 C2343 0.950 . S
C2332 H2324 0.950 . S
C2332 C2333 1.386 . S
C2332 C2334 1.391 . S
C2333 C2332 1.386 . S
C2333 C2337 1.393 . S
C2334 H2326 0.950 . S
C2334 C2332 1.391 . S
C2334 C2335 1.400 . S
C2335 C2334 1.400 . S
C2335 C2336 1.398 . S
C2335 C2341 1.491 . S
C2336 H2327 0.950 . S
C2336 C2335 1.398 . S
C2336 C2337 1.391 . S
C2337 H2325 0.950 . S
C2337 C2333 1.393 . S
C2337 C2336 1.391 . S
C2338 H2328 0.950 . S
C2338 C2339 1.386 . S
C2338 C2340 1.391 . S
C2339 C2338 1.386 . S
C2339 C2343 1.393 . S
C2340 H2329 0.950 . S
C2340 C2338 1.391 . S
C2340 C2341 1.400 . S
C2341 C2335 1.491 . S
C2341 C2340 1.400 . S
C2341 C2342 1.398 . S
C2342 H2330 0.950 . S
C2342 C2341 1.398 . S
C2342 C2343 1.391 . S
C2343 H2331 0.950 . S
C2343 C2339 1.393 . S
C2343 C2342 1.391 . S
H2344 C2352 0.950 . S
H2345 C2357 0.950 . S
H2346 C2354 0.950 . S
H2347 C2356 0.950 . S
H2348 C2358 0.950 . S
H2349 C2360 0.950 . S
H2350 C2362 0.950 . S
H2351 C2363 0.950 . S
C2352 H2344 0.950 . S
C2352 C2353 1.386 . S
C2352 C2354 1.391 . S
C2353 C2352 1.386 . S
C2353 C2357 1.393 . S
C2354 H2346 0.950 . S
C2354 C2352 1.391 . S
C2354 C2355 1.400 . S
C2355 C2354 1.400 . S
C2355 C2356 1.398 . S
C2355 C2361 1.491 . S
C2356 H2347 0.950 . S
C2356 C2355 1.398 . S
C2356 C2357 1.391 . S
C2357 H2345 0.950 . S
C2357 C2353 1.393 . S
C2357 C2356 1.391 . S
C2358 H2348 0.950 . S
C2358 C2359 1.386 . S
C2358 C2360 1.391 . S
C2359 C2358 1.386 . S
C2359 C2363 1.393 . S
C2360 H2349 0.950 . S
C2360 C2358 1.391 . S
C2360 C2361 1.400 . S
C2361 C2355 1.491 . S
C2361 C2360 1.400 . S
C2361 C2362 1.398 . S
C2362 H2350 0.950 . S
C2362 C2361 1.398 . S
C2362 C2363 1.391 . S
C2363 H2351 0.950 . S
C2363 C2359 1.393 . S
C2363 C2362 1.391 . S
H2364 C2372 0.950 . S
H2365 C2377 0.950 . S
H2366 C2374 0.950 . S
H2367 C2376 0.950 . S
H2368 C2378 0.950 . S
H2369 C2380 0.950 . S
H2370 C2382 0.950 . S
H2371 C2383 0.950 . S
C2372 H2364 0.950 . S
C2372 C2373 1.386 . S
C2372 C2374 1.391 . S
C2373 C2372 1.386 . S
C2373 C2377 1.393 . S
C2374 H2366 0.950 . S
C2374 C2372 1.391 . S
C2374 C2375 1.400 . S
C2375 C2374 1.400 . S
C2375 C2376 1.398 . S
C2375 C2381 1.491 . S
C2376 H2367 0.950 . S
C2376 C2375 1.398 . S
C2376 C2377 1.391 . S
C2377 H2365 0.950 . S
C2377 C2373 1.393 . S
C2377 C2376 1.391 . S
C2378 H2368 0.950 . S
C2378 C2379 1.386 . S
C2378 C2380 1.391 . S
C2379 C2378 1.386 . S
C2379 C2383 1.393 . S
C2380 H2369 0.950 . S
C2380 C2378 1.391 . S
C2380 C2381 1.400 . S
C2381 C2375 1.491 . S
C2381 C2380 1.400 . S
C2381 C2382 1.398 . S
C2382 H2370 0.950 . S
C2382 C2381 1.398 . S
C2382 C2383 1.391 . S
C2383 H2371 0.950 . S
C2383 C2379 1.393 . S
C2383 C2382 1.391 . S
H2384 C2392 0.950 . S
H2385 C2397 0.950 . S
H2386 C2394 0.950 . S
H2387 C2396 0.950 . S
H2388 C2398 0.950 . S
H2389 C2400 0.950 . S
H2390 C2402 0.950 . S
H2391 C2403 0.950 . S
C2392 H2384 0.950 . S
C2392 C2393 1.386 . S
C2392 C2394 1.391 . S
C2393 C2392 1.386 . S
C2393 C2397 1.393 . S
C2394 H2386 0.950 . S
C2394 C2392 1.391 . S
C2394 C2395 1.400 . S
C2395 C2394 1.400 . S
C2395 C2396 1.398 . S
C2395 C2401 1.491 . S
C2396 H2387 0.950 . S
C2396 C2395 1.398 . S
C2396 C2397 1.391 . S
C2397 H2385 0.950 . S
C2397 C2393 1.393 . S
C2397 C2396 1.391 . S
C2398 H2388 0.950 . S
C2398 C2399 1.386 . S
C2398 C2400 1.391 . S
C2399 C2398 1.386 . S
C2399 C2403 1.393 . S
C2400 H2389 0.950 . S
C2400 C2398 1.391 . S
C2400 C2401 1.400 . S
C2401 C2395 1.491 . S
C2401 C2400 1.400 . S
C2401 C2402 1.398 . S
C2402 H2390 0.950 . S
C2402 C2401 1.398 . S
C2402 C2403 1.391 . S
C2403 H2391 0.950 . S
C2403 C2399 1.393 . S
C2403 C2402 1.391 . S
H2404 C2412 0.950 . S
H2405 C2417 0.950 . S
H2406 C2414 0.950 . S
H2407 C2416 0.950 . S
H2408 C2418 0.950 . S
H2409 C2420 0.950 . S
H2410 C2422 0.950 . S
H2411 C2423 0.950 . S
C2412 H2404 0.950 . S
C2412 C2413 1.386 . S
C2412 C2414 1.391 . S
C2413 C2412 1.386 . S
C2413 C2417 1.393 . S
C2414 H2406 0.950 . S
C2414 C2412 1.391 . S
C2414 C2415 1.400 . S
C2415 C2414 1.400 . S
C2415 C2416 1.398 . S
C2415 C2421 1.491 . S
C2416 H2407 0.950 . S
C2416 C2415 1.398 . S
C2416 C2417 1.391 . S
C2417 H2405 0.950 . S
C2417 C2413 1.393 . S
C2417 C2416 1.391 . S
C2418 H2408 0.950 . S
C2418 C2419 1.386 . S
C2418 C2420 1.391 . S
C2419 C2418 1.386 . S
C2419 C2423 1.393 . S
C2420 H2409 0.950 . S
C2420 C2418 1.391 . S
C2420 C2421 1.400 . S
C2421 C2415 1.491 . S
C2421 C2420 1.400 . S
C2421 C2422 1.398 . S
C2422 H2410 0.950 . S
C2422 C2421 1.398 . S
C2422 C2423 1.391 . S
C2423 H2411 0.950 . S
C2423 C2419 1.393 . S
C2423 C2422 1.391 . S
H2424 C2432 0.950 . S
H2425 C2437 0.950 . S
H2426 C2434 0.950 . S
H2427 C2436 0.950 . S
H2428 C2438 0.950 . S
H2429 C2440 0.950 . S
H2430 C2442 0.950 . S
H2431 C2443 0.950 . S
C2432 H2424 0.950 . S
C2432 C2433 1.386 . S
C2432 C2434 1.391 . S
C2433 C2432 1.386 . S
C2433 C2437 1.393 . S
C2434 H2426 0.950 . S
C2434 C2432 1.391 . S
C2434 C2435 1.400 . S
C2435 C2434 1.400 . S
C2435 C2436 1.398 . S
C2435 C2441 1.491 . S
C2436 H2427 0.950 . S
C2436 C2435 1.398 . S
C2436 C2437 1.391 . S
C2437 H2425 0.950 . S
C2437 C2433 1.393 . S
C2437 C2436 1.391 . S
C2438 H2428 0.950 . S
C2438 C2439 1.386 . S
C2438 C2440 1.391 . S
C2439 C2438 1.386 . S
C2439 C2443 1.393 . S
C2440 H2429 0.950 . S
C2440 C2438 1.391 . S
C2440 C2441 1.400 . S
C2441 C2435 1.491 . S
C2441 C2440 1.400 . S
C2441 C2442 1.398 . S
C2442 H2430 0.950 . S
C2442 C2441 1.398 . S
C2442 C2443 1.391 . S
C2443 H2431 0.950 . S
C2443 C2439 1.393 . S
C2443 C2442 1.391 . S
H2444 C2452 0.950 . S
H2445 C2457 0.950 . S
H2446 C2454 0.950 . S
H2447 C2456 0.950 . S
H2448 C2458 0.950 . S
H2449 C2460 0.950 . S
H2450 C2462 0.950 . S
H2451 C2463 0.950 . S
C2452 H2444 0.950 . S
C2452 C2453 1.386 . S
C2452 C2454 1.391 . S
C2453 C2452 1.386 . S
C2453 C2457 1.393 . S
C2454 H2446 0.950 . S
C2454 C2452 1.391 . S
C2454 C2455 1.400 . S
C2455 C2454 1.400 . S
C2455 C2456 1.398 . S
C2455 C2461 1.491 . S
C2456 H2447 0.950 . S
C2456 C2455 1.398 . S
C2456 C2457 1.391 . S
C2457 H2445 0.950 . S
C2457 C2453 1.393 . S
C2457 C2456 1.391 . S
C2458 H2448 0.950 . S
C2458 C2459 1.386 . S
C2458 C2460 1.391 . S
C2459 C2458 1.386 . S
C2459 C2463 1.393 . S
C2460 H2449 0.950 . S
C2460 C2458 1.391 . S
C2460 C2461 1.400 . S
C2461 C2455 1.491 . S
C2461 C2460 1.400 . S
C2461 C2462 1.398 . S
C2462 H2450 0.950 . S
C2462 C2461 1.398 . S
C2462 C2463 1.391 . S
C2463 H2451 0.950 . S
C2463 C2459 1.393 . S
C2463 C2462 1.391 . S
H2464 C2472 0.950 . S
H2465 C2477 0.950 . S
H2466 C2474 0.950 . S
H2467 C2476 0.950 . S
H2468 C2478 0.950 . S
H2469 C2480 0.950 . S
H2470 C2482 0.950 . S
H2471 C2483 0.950 . S
C2472 H2464 0.950 . S
C2472 C2473 1.386 . S
C2472 C2474 1.391 . S
C2473 C2472 1.386 . S
C2473 C2477 1.393 . S
C2474 H2466 0.950 . S
C2474 C2472 1.391 . S
C2474 C2475 1.400 . S
C2475 C2474 1.400 . S
C2475 C2476 1.398 . S
C2475 C2481 1.491 . S
C2476 H2467 0.950 . S
C2476 C2475 1.398 . S
C2476 C2477 1.391 . S
C2477 H2465 0.950 . S
C2477 C2473 1.393 . S
C2477 C2476 1.391 . S
C2478 H2468 0.950 . S
C2478 C2479 1.386 . S
C2478 C2480 1.391 . S
C2479 C2478 1.386 . S
C2479 C2483 1.393 . S
C2480 H2469 0.950 . S
C2480 C2478 1.391 . S
C2480 C2481 1.400 . S
C2481 C2475 1.491 . S
C2481 C2480 1.400 . S
C2481 C2482 1.398 . S
C2482 H2470 0.950 . S
C2482 C2481 1.398 . S
C2482 C2483 1.391 . S
C2483 H2471 0.950 . S
C2483 C2479 1.393 . S
C2483 C2482 1.391 . S
H2484 C2492 0.950 . S
H2485 C2497 0.950 . S
H2486 C2494 0.950 . S
H2487 C2496 0.950 . S
H2488 C2498 0.950 . S
H2489 C2500 0.950 . S
H2490 C2502 0.950 . S
H2491 C2503 0.950 . S
C2492 H2484 0.950 . S
C2492 C2493 1.386 . S
C2492 C2494 1.391 . S
C2493 C2492 1.386 . S
C2493 C2497 1.393 . S
C2494 H2486 0.950 . S
C2494 C2492 1.391 . S
C2494 C2495 1.400 . S
C2495 C2494 1.400 . S
C2495 C2496 1.398 . S
C2495 C2501 1.491 . S
C2496 H2487 0.950 . S
C2496 C2495 1.398 . S
C2496 C2497 1.391 . S
C2497 H2485 0.950 . S
C2497 C2493 1.393 . S
C2497 C2496 1.391 . S
C2498 H2488 0.950 . S
C2498 C2499 1.386 . S
C2498 C2500 1.391 . S
C2499 C2498 1.386 . S
C2499 C2503 1.393 . S
C2500 H2489 0.950 . S
C2500 C2498 1.391 . S
C2500 C2501 1.400 . S
C2501 C2495 1.491 . S
C2501 C2500 1.400 . S
C2501 C2502 1.398 . S
C2502 H2490 0.950 . S
C2502 C2501 1.398 . S
C2502 C2503 1.391 . S
C2503 H2491 0.950 . S
C2503 C2499 1.393 . S
C2503 C2502 1.391 . S
H2504 C2512 0.950 . S
H2505 C2517 0.950 . S
H2506 C2514 0.950 . S
H2507 C2516 0.950 . S
H2508 C2518 0.950 . S
H2509 C2520 0.950 . S
H2510 C2522 0.950 . S
H2511 C2523 0.950 . S
C2512 H2504 0.950 . S
C2512 C2513 1.386 . S
C2512 C2514 1.391 . S
C2513 C2512 1.386 . S
C2513 C2517 1.393 . S
C2514 H2506 0.950 . S
C2514 C2512 1.391 . S
C2514 C2515 1.400 . S
C2515 C2514 1.400 . S
C2515 C2516 1.398 . S
C2515 C2521 1.491 . S
C2516 H2507 0.950 . S
C2516 C2515 1.398 . S
C2516 C2517 1.391 . S
C2517 H2505 0.950 . S
C2517 C2513 1.393 . S
C2517 C2516 1.391 . S
C2518 H2508 0.950 . S
C2518 C2519 1.386 . S
C2518 C2520 1.391 . S
C2519 C2518 1.386 . S
C2519 C2523 1.393 . S
C2520 H2509 0.950 . S
C2520 C2518 1.391 . S
C2520 C2521 1.400 . S
C2521 C2515 1.491 . S
C2521 C2520 1.400 . S
C2521 C2522 1.398 . S
C2522 H2510 0.950 . S
C2522 C2521 1.398 . S
C2522 C2523 1.391 . S
C2523 H2511 0.950 . S
C2523 C2519 1.393 . S
C2523 C2522 1.391 . S
H2524 C2532 0.950 . S
H2525 C2537 0.950 . S
H2526 C2534 0.950 . S
H2527 C2536 0.950 . S
H2528 C2538 0.950 . S
H2529 C2540 0.950 . S
H2530 C2542 0.950 . S
H2531 C2543 0.950 . S
C2532 H2524 0.950 . S
C2532 C2533 1.386 . S
C2532 C2534 1.391 . S
C2533 C2532 1.386 . S
C2533 C2537 1.393 . S
C2534 H2526 0.950 . S
C2534 C2532 1.391 . S
C2534 C2535 1.400 . S
C2535 C2534 1.400 . S
C2535 C2536 1.398 . S
C2535 C2541 1.491 . S
C2536 H2527 0.950 . S
C2536 C2535 1.398 . S
C2536 C2537 1.391 . S
C2537 H2525 0.950 . S
C2537 C2533 1.393 . S
C2537 C2536 1.391 . S
C2538 H2528 0.950 . S
C2538 C2539 1.386 . S
C2538 C2540 1.391 . S
C2539 C2538 1.386 . S
C2539 C2543 1.393 . S
C2540 H2529 0.950 . S
C2540 C2538 1.391 . S
C2540 C2541 1.400 . S
C2541 C2535 1.491 . S
C2541 C2540 1.400 . S
C2541 C2542 1.398 . S
C2542 H2530 0.950 . S
C2542 C2541 1.398 . S
C2542 C2543 1.391 . S
C2543 H2531 0.950 . S
C2543 C2539 1.393 . S
C2543 C2542 1.391 . S
C633 C127 1.634 . S
C639 C4 1.639 . S
C653 C134 1.632 . S
C659 C17 1.625 . S
C673 C153 1.628 . S
C679 C36 1.635 . S
C693 C49 1.626 . S
C699 C108 1.620 . S
C713 C199 1.637 . S
C719 C62 1.641 . S
C733 C69 1.615 . S
C739 C166 1.614 . S
C753 C179 1.623 . S
C759 C82 1.629 . S
C773 C192 1.644 . S
C779 C101 1.645 . S
C793 C218 1.614 . S
C799 C238 1.615 . S
C813 C231 1.644 . S
C819 C290 1.641 . S
C833 C251 1.624 . S
C839 C309 1.630 . S
C853 C264 1.617 . S
C859 C277 1.621 . S
C873 C316 1.615 . S
C879 C433 1.618 . S
C893 C446 1.620 . S
C899 C335 1.626 . S
C913 C342 1.614 . S
C919 C459 1.615 . S
C933 C361 1.644 . S
C939 C426 1.642 . S
C953 C511 1.643 . S
C959 C374 1.640 . S
C973 C478 1.618 . S
C979 C381 1.615 . S
C993 C491 1.620 . S
C999 C400 1.616 . S
C1013 C504 1.644 . S
C1019 C413 1.643 . S
C1033 C530 1.621 . S
C1039 C556 1.616 . S
C1053 C537 1.629 . S
C1059 C608 1.623 . S
C1073 C569 1.614 . S
C1079 C615 1.616 . S
C1093 C589 1.636 . S
C1099 C576 1.641 . S
C1113 C109 1.238 . S
C1119 C3 1.280 . S
C1133 C120 1.214 . S
C1139 C16 1.289 . S
C1153 C31 1.288 . S
C1159 C135 1.211 . S
C1173 C44 1.289 . S
C1179 C146 1.212 . S
C1193 C57 1.283 . S
C1199 C159 1.245 . S
C1213 C68 1.281 . S
C1219 C172 1.219 . S
C1233 C81 1.290 . S
C1239 C185 1.226 . S
C1253 C200 1.211 . S
C1259 C96 1.288 . S
C1273 C107 1.288 . S
C1279 C211 1.210 . S
C1293 C302 1.236 . S
C1299 C122 1.280 . S
C1313 C133 1.289 . S
C1319 C278 1.212 . S
C1333 C148 1.282 . S
C1339 C291 1.244 . S
C1353 C161 1.286 . S
C1359 C224 1.244 . S
C1373 C174 1.281 . S
C1379 C239 1.220 . S
C1393 C187 1.283 . S
C1399 C252 1.245 . S
C1413 C265 1.219 . S
C1419 C198 1.290 . S
C1433 C5 1.227 . S
C1439 C213 1.290 . S
C1453 C226 1.286 . S
C1459 C55 1.210 . S
C1473 C237 1.281 . S
C1479 C70 1.222 . S
C1493 C250 1.289 . S
C1499 C83 1.236 . S
C1513 C94 1.227 . S
C1519 C263 1.280 . S
C1533 C276 1.287 . S
C1539 C29 1.210 . S
C1553 C289 1.290 . S
C1559 C42 1.222 . S
C1573 C18 1.245 . S
C1579 C304 1.284 . S
C1593 C419 1.223 . S
C1599 C315 1.280 . S
C1613 C330 1.280 . S
C1619 C434 1.234 . S
C1633 C341 1.289 . S
C1639 C447 1.212 . S
C1653 C460 1.226 . S
C1659 C356 1.280 . S
C1673 C471 1.226 . S
C1679 C369 1.290 . S
C1693 C380 1.281 . S
C1699 C484 1.242 . S
C1713 C497 1.226 . S
C1719 C395 1.290 . S
C1733 C512 1.217 . S
C1739 C408 1.282 . S
C1753 C421 1.280 . S
C1759 C523 1.226 . S
C1773 C432 1.285 . S
C1779 C616 1.210 . S
C1793 C445 1.282 . S
C1799 C590 1.217 . S
C1813 C601 1.238 . S
C1819 C458 1.280 . S
C1833 C473 1.290 . S
C1839 C538 1.222 . S
C1853 C486 1.281 . S
C1859 C549 1.242 . S
C1873 C562 1.215 . S
C1879 C499 1.290 . S
C1893 C577 1.233 . S
C1899 C510 1.290 . S
C1913 C525 1.280 . S
C1919 C317 1.239 . S
C1933 C536 1.289 . S
C1939 C367 1.214 . S
C1953 C382 1.210 . S
C1959 C551 1.287 . S
C1973 C564 1.281 . S
C1979 C393 1.221 . S
C1993 C575 1.284 . S
C1999 C406 1.245 . S
C2013 C343 1.224 . S
C2019 C588 1.280 . S
C2033 C603 1.280 . S
C2039 C354 1.236 . S
C2053 C328 1.218 . S
C2059 C614 1.290 . S
C2073 C407 1.464 . S
C2079 C10 1.485 . S
C2093 C23 1.473 . S
C2099 C368 1.468 . S
C2113 C387 1.471 . S
C2119 C30 1.469 . S
C2133 C394 1.475 . S
C2139 C43 1.466 . S
C2153 C56 1.464 . S
C2159 C329 1.477 . S
C2173 C348 1.476 . S
C2179 C75 1.465 . S
C2193 C355 1.485 . S
C2199 C88 1.465 . S
C2213 C95 1.460 . S
C2219 C322 1.483 . S
C2233 C582 1.474 . S
C2239 C114 1.467 . S
C2253 C121 1.477 . S
C2259 C543 1.464 . S
C2273 C140 1.462 . S
C2279 C550 1.486 . S
C2293 C563 1.479 . S
C2299 C147 1.462 . S
C2313 C621 1.475 . S
C2319 C160 1.466 . S
C2333 C595 1.486 . S
C2339 C173 1.463 . S
C2353 C186 1.485 . S
C2359 C602 1.460 . S
C2373 C524 1.460 . S
C2379 C205 1.486 . S
C2393 C212 1.480 . S
C2399 C517 1.472 . S
C2413 C439 1.486 . S
C2419 C225 1.460 . S
C2433 C244 1.486 . S
C2439 C452 1.464 . S
C2453 C465 1.484 . S
C2459 C257 1.466 . S
C2473 C420 1.484 . S
C2479 C270 1.460 . S
C2493 C283 1.478 . S
C2499 C485 1.474 . S
C2513 C498 1.484 . S
C2519 C296 1.460 . S
C2533 C472 1.478 . S
C2539 C303 1.463 . S
