# Generated by pormake.
# Topology wir, (6)-cn, num edge types: 1
# Building blocks:
#     Node 0, Type 0, BuildingBlock: GEDQOX_clean_sbu_0, # of connection points: 6
#     Node 1, Type 0, BuildingBlock: GEDQOX_clean_sbu_0, # of connection points: 6
#     Node 2, Type 0, BuildingBlock: GEDQOX_clean_sbu_0, # of connection points: 6
#     Node 3, Type 0, BuildingBlock: GEDQOX_clean_sbu_0, # of connection points: 6
#     Node 4, Type 0, BuildingBlock: GEDQOX_clean_sbu_0, # of connection points: 6
#     Node 5, Type 0, BuildingBlock: GEDQOX_clean_sbu_0, # of connection points: 6
#     Node 6, Type 0, BuildingBlock: GEDQOX_clean_sbu_0, # of connection points: 6
#     Node 7, Type 0, BuildingBlock: GEDQOX_clean_sbu_0, # of connection points: 6
#     Node 8, Type 0, BuildingBlock: GEDQOX_clean_sbu_0, # of connection points: 6
#     Node 9, Type 0, BuildingBlock: GEDQOX_clean_sbu_0, # of connection points: 6
#     Node 10, Type 0, BuildingBlock: GEDQOX_clean_sbu_0, # of connection points: 6
#     Node 11, Type 0, BuildingBlock: GEDQOX_clean_sbu_0, # of connection points: 6
#     Node 12, Type 0, BuildingBlock: GEDQOX_clean_sbu_0, # of connection points: 6
#     Node 13, Type 0, BuildingBlock: GEDQOX_clean_sbu_0, # of connection points: 6
#     Node 14, Type 0, BuildingBlock: GEDQOX_clean_sbu_0, # of connection points: 6
#     Node 15, Type 0, BuildingBlock: GEDQOX_clean_sbu_0, # of connection points: 6
#     Node 16, Type 0, BuildingBlock: GEDQOX_clean_sbu_0, # of connection points: 6
#     Node 17, Type 0, BuildingBlock: GEDQOX_clean_sbu_0, # of connection points: 6
#     Node 18, Type 0, BuildingBlock: GEDQOX_clean_sbu_0, # of connection points: 6
#     Node 19, Type 0, BuildingBlock: GEDQOX_clean_sbu_0, # of connection points: 6
#     Node 20, Type 0, BuildingBlock: GEDQOX_clean_sbu_0, # of connection points: 6
#     Node 21, Type 0, BuildingBlock: GEDQOX_clean_sbu_0, # of connection points: 6
#     Node 22, Type 0, BuildingBlock: GEDQOX_clean_sbu_0, # of connection points: 6
#     Node 23, Type 0, BuildingBlock: GEDQOX_clean_sbu_0, # of connection points: 6
#     Node 24, Type 0, BuildingBlock: GEDQOX_clean_sbu_0, # of connection points: 6
#     Node 25, Type 0, BuildingBlock: GEDQOX_clean_sbu_0, # of connection points: 6
#     Node 26, Type 0, BuildingBlock: GEDQOX_clean_sbu_0, # of connection points: 6
#     Node 27, Type 0, BuildingBlock: GEDQOX_clean_sbu_0, # of connection points: 6
#     Node 28, Type 0, BuildingBlock: GEDQOX_clean_sbu_0, # of connection points: 6
#     Node 29, Type 0, BuildingBlock: GEDQOX_clean_sbu_0, # of connection points: 6
#     Node 30, Type 0, BuildingBlock: GEDQOX_clean_sbu_0, # of connection points: 6
#     Node 31, Type 0, BuildingBlock: GEDQOX_clean_sbu_0, # of connection points: 6
#     Edge 32, Type (0, 0), BuildingBlock: CIFDUS_clean_linker_0, # of connection points: 2
#     Edge 33, Type (0, 0), BuildingBlock: CIFDUS_clean_linker_0, # of connection points: 2
#     Edge 34, Type (0, 0), BuildingBlock: CIFDUS_clean_linker_0, # of connection points: 2
#     Edge 35, Type (0, 0), BuildingBlock: CIFDUS_clean_linker_0, # of connection points: 2
#     Edge 36, Type (0, 0), BuildingBlock: CIFDUS_clean_linker_0, # of connection points: 2
#     Edge 37, Type (0, 0), BuildingBlock: CIFDUS_clean_linker_0, # of connection points: 2
#     Edge 38, Type (0, 0), BuildingBlock: CIFDUS_clean_linker_0, # of connection points: 2
#     Edge 39, Type (0, 0), BuildingBlock: CIFDUS_clean_linker_0, # of connection points: 2
#     Edge 40, Type (0, 0), BuildingBlock: CIFDUS_clean_linker_0, # of connection points: 2
#     Edge 41, Type (0, 0), BuildingBlock: CIFDUS_clean_linker_0, # of connection points: 2
#     Edge 42, Type (0, 0), BuildingBlock: CIFDUS_clean_linker_0, # of connection points: 2
#     Edge 43, Type (0, 0), BuildingBlock: CIFDUS_clean_linker_0, # of connection points: 2
#     Edge 44, Type (0, 0), BuildingBlock: CIFDUS_clean_linker_0, # of connection points: 2
#     Edge 45, Type (0, 0), BuildingBlock: CIFDUS_clean_linker_0, # of connection points: 2
#     Edge 46, Type (0, 0), BuildingBlock: CIFDUS_clean_linker_0, # of connection points: 2
#     Edge 47, Type (0, 0), BuildingBlock: CIFDUS_clean_linker_0, # of connection points: 2
#     Edge 48, Type (0, 0), BuildingBlock: CIFDUS_clean_linker_0, # of connection points: 2
#     Edge 49, Type (0, 0), BuildingBlock: CIFDUS_clean_linker_0, # of connection points: 2
#     Edge 50, Type (0, 0), BuildingBlock: CIFDUS_clean_linker_0, # of connection points: 2
#     Edge 51, Type (0, 0), BuildingBlock: CIFDUS_clean_linker_0, # of connection points: 2
#     Edge 52, Type (0, 0), BuildingBlock: CIFDUS_clean_linker_0, # of connection points: 2
#     Edge 53, Type (0, 0), BuildingBlock: CIFDUS_clean_linker_0, # of connection points: 2
#     Edge 54, Type (0, 0), BuildingBlock: CIFDUS_clean_linker_0, # of connection points: 2
#     Edge 55, Type (0, 0), BuildingBlock: CIFDUS_clean_linker_0, # of connection points: 2
#     Edge 56, Type (0, 0), BuildingBlock: CIFDUS_clean_linker_0, # of connection points: 2
#     Edge 57, Type (0, 0), BuildingBlock: CIFDUS_clean_linker_0, # of connection points: 2
#     Edge 58, Type (0, 0), BuildingBlock: CIFDUS_clean_linker_0, # of connection points: 2
#     Edge 59, Type (0, 0), BuildingBlock: CIFDUS_clean_linker_0, # of connection points: 2
#     Edge 60, Type (0, 0), BuildingBlock: CIFDUS_clean_linker_0, # of connection points: 2
#     Edge 61, Type (0, 0), BuildingBlock: CIFDUS_clean_linker_0, # of connection points: 2
#     Edge 62, Type (0, 0), BuildingBlock: CIFDUS_clean_linker_0, # of connection points: 2
#     Edge 63, Type (0, 0), BuildingBlock: CIFDUS_clean_linker_0, # of connection points: 2
#     Edge 64, Type (0, 0), BuildingBlock: CIFDUS_clean_linker_0, # of connection points: 2
#     Edge 65, Type (0, 0), BuildingBlock: CIFDUS_clean_linker_0, # of connection points: 2
#     Edge 66, Type (0, 0), BuildingBlock: CIFDUS_clean_linker_0, # of connection points: 2
#     Edge 67, Type (0, 0), BuildingBlock: CIFDUS_clean_linker_0, # of connection points: 2
#     Edge 68, Type (0, 0), BuildingBlock: CIFDUS_clean_linker_0, # of connection points: 2
#     Edge 69, Type (0, 0), BuildingBlock: CIFDUS_clean_linker_0, # of connection points: 2
#     Edge 70, Type (0, 0), BuildingBlock: CIFDUS_clean_linker_0, # of connection points: 2
#     Edge 71, Type (0, 0), BuildingBlock: CIFDUS_clean_linker_0, # of connection points: 2
#     Edge 72, Type (0, 0), BuildingBlock: CIFDUS_clean_linker_0, # of connection points: 2
#     Edge 73, Type (0, 0), BuildingBlock: CIFDUS_clean_linker_0, # of connection points: 2
#     Edge 74, Type (0, 0), BuildingBlock: CIFDUS_clean_linker_0, # of connection points: 2
#     Edge 75, Type (0, 0), BuildingBlock: CIFDUS_clean_linker_0, # of connection points: 2
#     Edge 76, Type (0, 0), BuildingBlock: CIFDUS_clean_linker_0, # of connection points: 2
#     Edge 77, Type (0, 0), BuildingBlock: CIFDUS_clean_linker_0, # of connection points: 2
#     Edge 78, Type (0, 0), BuildingBlock: CIFDUS_clean_linker_0, # of connection points: 2
#     Edge 79, Type (0, 0), BuildingBlock: CIFDUS_clean_linker_0, # of connection points: 2
#     Edge 80, Type (0, 0), BuildingBlock: CIFDUS_clean_linker_0, # of connection points: 2
#     Edge 81, Type (0, 0), BuildingBlock: CIFDUS_clean_linker_0, # of connection points: 2
#     Edge 82, Type (0, 0), BuildingBlock: CIFDUS_clean_linker_0, # of connection points: 2
#     Edge 83, Type (0, 0), BuildingBlock: CIFDUS_clean_linker_0, # of connection points: 2
#     Edge 84, Type (0, 0), BuildingBlock: CIFDUS_clean_linker_0, # of connection points: 2
#     Edge 85, Type (0, 0), BuildingBlock: CIFDUS_clean_linker_0, # of connection points: 2
#     Edge 86, Type (0, 0), BuildingBlock: CIFDUS_clean_linker_0, # of connection points: 2
#     Edge 87, Type (0, 0), BuildingBlock: CIFDUS_clean_linker_0, # of connection points: 2
#     Edge 88, Type (0, 0), BuildingBlock: CIFDUS_clean_linker_0, # of connection points: 2
#     Edge 89, Type (0, 0), BuildingBlock: CIFDUS_clean_linker_0, # of connection points: 2
#     Edge 90, Type (0, 0), BuildingBlock: CIFDUS_clean_linker_0, # of connection points: 2
#     Edge 91, Type (0, 0), BuildingBlock: CIFDUS_clean_linker_0, # of connection points: 2
#     Edge 92, Type (0, 0), BuildingBlock: CIFDUS_clean_linker_0, # of connection points: 2
#     Edge 93, Type (0, 0), BuildingBlock: CIFDUS_clean_linker_0, # of connection points: 2
#     Edge 94, Type (0, 0), BuildingBlock: CIFDUS_clean_linker_0, # of connection points: 2
#     Edge 95, Type (0, 0), BuildingBlock: CIFDUS_clean_linker_0, # of connection points: 2
#     Edge 96, Type (0, 0), BuildingBlock: CIFDUS_clean_linker_0, # of connection points: 2
#     Edge 97, Type (0, 0), BuildingBlock: CIFDUS_clean_linker_0, # of connection points: 2
#     Edge 98, Type (0, 0), BuildingBlock: CIFDUS_clean_linker_0, # of connection points: 2
#     Edge 99, Type (0, 0), BuildingBlock: CIFDUS_clean_linker_0, # of connection points: 2
#     Edge 100, Type (0, 0), BuildingBlock: CIFDUS_clean_linker_0, # of connection points: 2
#     Edge 101, Type (0, 0), BuildingBlock: CIFDUS_clean_linker_0, # of connection points: 2
#     Edge 102, Type (0, 0), BuildingBlock: CIFDUS_clean_linker_0, # of connection points: 2
#     Edge 103, Type (0, 0), BuildingBlock: CIFDUS_clean_linker_0, # of connection points: 2
#     Edge 104, Type (0, 0), BuildingBlock: CIFDUS_clean_linker_0, # of connection points: 2
#     Edge 105, Type (0, 0), BuildingBlock: CIFDUS_clean_linker_0, # of connection points: 2
#     Edge 106, Type (0, 0), BuildingBlock: CIFDUS_clean_linker_0, # of connection points: 2
#     Edge 107, Type (0, 0), BuildingBlock: CIFDUS_clean_linker_0, # of connection points: 2
#     Edge 108, Type (0, 0), BuildingBlock: CIFDUS_clean_linker_0, # of connection points: 2
#     Edge 109, Type (0, 0), BuildingBlock: CIFDUS_clean_linker_0, # of connection points: 2
#     Edge 110, Type (0, 0), BuildingBlock: CIFDUS_clean_linker_0, # of connection points: 2
#     Edge 111, Type (0, 0), BuildingBlock: CIFDUS_clean_linker_0, # of connection points: 2
#     Edge 112, Type (0, 0), BuildingBlock: CIFDUS_clean_linker_0, # of connection points: 2
#     Edge 113, Type (0, 0), BuildingBlock: CIFDUS_clean_linker_0, # of connection points: 2
#     Edge 114, Type (0, 0), BuildingBlock: CIFDUS_clean_linker_0, # of connection points: 2
#     Edge 115, Type (0, 0), BuildingBlock: CIFDUS_clean_linker_0, # of connection points: 2
#     Edge 116, Type (0, 0), BuildingBlock: CIFDUS_clean_linker_0, # of connection points: 2
#     Edge 117, Type (0, 0), BuildingBlock: CIFDUS_clean_linker_0, # of connection points: 2
#     Edge 118, Type (0, 0), BuildingBlock: CIFDUS_clean_linker_0, # of connection points: 2
#     Edge 119, Type (0, 0), BuildingBlock: CIFDUS_clean_linker_0, # of connection points: 2
#     Edge 120, Type (0, 0), BuildingBlock: CIFDUS_clean_linker_0, # of connection points: 2
#     Edge 121, Type (0, 0), BuildingBlock: CIFDUS_clean_linker_0, # of connection points: 2
#     Edge 122, Type (0, 0), BuildingBlock: CIFDUS_clean_linker_0, # of connection points: 2
#     Edge 123, Type (0, 0), BuildingBlock: CIFDUS_clean_linker_0, # of connection points: 2
#     Edge 124, Type (0, 0), BuildingBlock: CIFDUS_clean_linker_0, # of connection points: 2
#     Edge 125, Type (0, 0), BuildingBlock: CIFDUS_clean_linker_0, # of connection points: 2
#     Edge 126, Type (0, 0), BuildingBlock: CIFDUS_clean_linker_0, # of connection points: 2
#     Edge 127, Type (0, 0), BuildingBlock: CIFDUS_clean_linker_0, # of connection points: 2
# Relax obj value: 0.619
# Max RMSD: 0.222
# Mean RMSD: 0.222
data_MOF--net-wir--node1-GEDQOX_clean_sbu_0--edge1-CIFDUS_clean_linker_0
_symmetry_space_group_name_H-M    P1
_symmetry_Int_Tables_number       1
_symmetry_cell_setting            triclinic
loop_
_symmetry_equiv_pos_as_xyz
'x, y, z'
_cell_length_a     34.198433
_cell_length_b     34.177896
_cell_length_c     92.021357
_cell_angle_alpha  89.988241
_cell_angle_beta   89.794566
_cell_angle_gamma 89.836926
loop_
_atom_site_label
_atom_site_type_symbol
_atom_site_fract_x
_atom_site_fract_y
_atom_site_fract_z
_atom_type_partial_charge
Nd0 Nd 0.15346 0.10398 0.44378 0.0
Nd1 Nd 0.20495 0.1458 0.43926 0.0
C2 C 0.08543 0.06777 0.44099 0.0
C3 C 1.04598 0.08479 0.43968 0.0
C4 C 1.03944 0.11636 0.43015 0.0
C5 C 1.00959 0.14317 0.43306 0.0
C6 C 0.98678 0.13892 0.44561 0.0
C7 C 0.98859 0.10373 0.45346 0.0
C8 C 1.01823 0.0767 0.45052 0.0
C9 C 0.21167 0.06836 0.46193 0.0
C10 C 0.16866 0.15405 0.47003 0.0
C11 C 0.27344 0.17698 0.43259 0.0
C12 C 0.2846 0.21013 0.42345 0.0
C13 C 0.31217 0.23717 0.42848 0.0
C14 C 0.31961 0.27126 0.42058 0.0
C15 C 0.29944 0.27861 0.40758 0.0
C16 C 0.27257 0.25087 0.40244 0.0
C17 C 0.26496 0.21712 0.41036 0.0
C18 C 0.14455 0.20339 0.43889 0.0
C19 C 0.18509 0.09208 0.41128 0.0
O20 O 0.10925 0.07388 0.43015 0.0
O21 O 0.10227 0.07371 0.45348 0.0
O22 O 0.17469 0.07148 0.46473 0.0
O23 O 0.21787 0.08367 0.44922 0.0
O24 O 0.13814 0.14629 0.46214 0.0
O25 O 0.20294 0.14835 0.46408 0.0
O26 O 0.25908 0.14655 0.42594 0.0
O27 O 0.25367 0.18622 0.44419 0.0
O28 O 0.17945 0.20773 0.44393 0.0
O29 O 0.14129 0.16764 0.4341 0.0
O30 O 0.19465 0.12836 0.41447 0.0
O31 O 0.17399 0.07157 0.4226 0.0
H32 H 1.05999 0.12308 0.42153 0.0
H33 H 1.00786 0.1698 0.42671 0.0
H34 H 0.97106 0.09989 0.46319 0.0
H35 H 1.02246 1.05233 0.45789 0.0
H36 H 0.32717 0.23237 0.43868 0.0
H37 H 0.34042 0.29219 0.42479 0.0
H38 H 0.25732 0.25521 0.39227 0.0
H39 H 0.24321 0.19687 0.40635 0.0
Nd40 Nd 0.27325 0.88659 0.69304 0.0
Nd41 Nd 0.23544 0.93716 0.6893 0.0
C42 C 0.30403 0.81707 0.68719 0.0
C43 C 0.28277 0.78084 0.68393 0.0
C44 C 0.24677 0.78348 0.67662 0.0
C45 C 0.21678 0.75752 0.68006 0.0
C46 C 0.22279 0.72934 0.69089 0.0
C47 C 0.2612 0.72092 0.69531 0.0
C48 C 0.29118 0.74718 0.69204 0.0
C49 C 0.31364 0.93688 0.71257 0.0
C50 C 0.2284 0.90611 0.7207 0.0
C51 C 0.20986 1.00675 0.68087 0.0
C52 C 0.18762 1.02092 0.66836 0.0
C53 C 0.15612 1.04652 0.67059 0.0
C54 C 0.13201 1.05683 0.659 0.0
C55 C 0.13925 1.04167 0.64506 0.0
C56 C 0.17163 1.0171 0.64278 0.0
C57 C 0.1956 1.00673 0.65434 0.0
C58 C 0.17493 0.8803 0.68982 0.0
C59 C 0.28871 0.91926 0.66167 0.0
O60 O 0.30105 0.84484 0.67757 0.0
O61 O 0.29875 0.83013 0.70037 0.0
O62 O 0.30974 0.89928 0.71353 0.0
O63 O 0.29642 0.94858 0.70075 0.0
O64 O 0.23512 0.8744 0.71318 0.0
O65 O 0.23318 0.93942 0.71401 0.0
O66 O 0.24504 0.9938 0.67821 0.0
O67 O 0.19072 0.98434 0.68983 0.0
O68 O 0.17412 0.914 0.69622 0.0
O69 O 0.20917 0.87588 0.68387 0.0
O70 O 0.25139 0.92357 0.66458 0.0
O71 O 0.30907 0.91204 0.67337 0.0
H72 H 0.23971 0.80881 0.67005 0.0
H73 H 0.18742 0.76424 0.67641 0.0
H74 H 0.26653 0.69889 0.70355 0.0
H75 H 0.3189 0.74433 0.69762 0.0
H76 H 0.14956 1.05766 0.68135 0.0
H77 H 0.10741 0.07617 0.66098 0.0
H78 H 0.1776 1.00469 0.63216 0.0
H79 H 0.21966 0.98678 0.65235 0.0
Nd80 Nd 0.49368 1.01068 0.94121 0.0
Nd81 Nd 0.4451 0.96714 0.93924 0.0
C82 C 0.56265 1.04564 0.94014 0.0
C83 C 0.60222 1.02953 0.93874 0.0
C84 C 0.60852 0.99456 0.93102 0.0
C85 C 0.64308 0.97347 0.93292 0.0
C86 C 0.67127 0.9868 0.94275 0.0
C87 C 0.66703 1.02434 0.94889 0.0
C88 C 0.63253 1.0455 0.94695 0.0
C89 C 0.43258 1.05141 0.95667 0.0
C90 C 0.48618 0.95884 0.9694 0.0
C91 C 0.37116 0.95388 0.93288 0.0
C92 C 0.34906 0.94936 0.91936 0.0
C93 C 0.31987 0.92086 0.91842 0.0
C94 C 0.30142 0.91382 0.90518 0.0
C95 C 0.31226 0.93503 0.89271 0.0
C96 C 0.34009 0.96487 0.89385 0.0
C97 C 0.35817 0.97217 0.90709 0.0
C98 C 0.50373 0.9101 0.93754 0.0
C99 C 0.46249 1.01461 0.90897 0.0
O100 O 0.54029 1.04092 0.92887 0.0
O101 O 0.54462 1.03766 0.9523 0.0
O102 O 0.45399 1.06556 0.9463 0.0
O103 O 0.44108 1.01514 0.95747 0.0
O104 O 0.51188 0.98003 0.96241 0.0
O105 O 0.45249 0.95215 0.96317 0.0
O106 O 0.38544 0.98879 0.93516 0.0
O107 O 0.39579 0.92578 0.93606 0.0
O108 O 0.46905 0.90507 0.94309 0.0
O109 O 0.50698 0.94582 0.93243 0.0
O110 O 0.4538 0.97965 0.91395 0.0
O111 O 0.47475 1.03833 0.91899 0.0
H112 H 0.58551 0.98183 0.9245 0.0
H113 H 0.64591 0.94482 0.92798 0.0
H114 H 0.68819 1.03535 0.9566 0.0
H115 H 0.62821 0.07254 0.95289 0.0
H116 H 0.31235 0.90317 0.92779 0.0
H117 H 0.28036 0.89028 0.9045 0.0
H118 H 0.34882 0.98158 0.88437 0.0
H119 H 0.38004 0.9949 0.9076 0.0
Nd120 Nd 0.36539 0.23706 0.19096 0.0
Nd121 Nd 0.40924 0.19654 0.18966 0.0
C122 C 0.3261 0.30283 0.18689 0.0
C123 C 0.33987 0.34343 0.18643 0.0
C124 C 0.37642 0.35226 0.18019 0.0
C125 C 0.39476 0.38762 0.18334 0.0
C126 C 0.37709 0.41421 0.19294 0.0
C127 C 0.3385 0.40734 0.19767 0.0
C128 C 0.32006 0.37206 0.19445 0.0
C129 C 0.32884 0.17674 0.20827 0.0
C130 C 0.41093 0.24262 0.21946 0.0
C131 C 0.42664 0.12347 0.18318 0.0
C132 C 0.43867 0.10417 0.16977 0.0
C133 C 0.43157 1.06421 0.16777 0.0
C134 C 0.44163 1.04627 0.15463 0.0
C135 C 0.45873 0.06827 0.14338 0.0
C136 C 0.46529 0.10847 0.14546 0.0
C137 C 0.45519 0.12627 0.15852 0.0
C138 C 0.46651 0.25358 0.18752 0.0
C139 C 0.35928 0.20456 0.15997 0.0
O140 O 0.33799 0.28045 0.17627 0.0
O141 O 0.32889 0.28574 0.19954 0.0
O142 O 0.31312 0.19497 0.19739 0.0
O143 O 0.36435 0.18783 0.20871 0.0
O144 O 0.38791 0.26452 0.21176 0.0
O145 O 0.42137 0.20885 0.21385 0.0
O146 O 0.3909 0.13724 0.18304 0.0
O147 O 0.4519 0.14789 0.18876 0.0
O148 O 0.47186 0.21864 0.19271 0.0
O149 O 0.43023 0.25784 0.18314 0.0
O150 O 0.39598 0.20663 0.16409 0.0
O151 O 0.33601 0.20787 0.17102 0.0
H152 H 0.3923 0.33066 0.17387 0.0
H153 H 0.42425 0.3925 0.17942 0.0
H154 H 0.32415 0.42717 0.20518 0.0
H155 H 0.29187 0.36578 0.19932 0.0
H156 H 0.41822 1.04699 0.17633 0.0
H157 H 0.43615 1.01528 0.15329 0.0
H158 H 0.47922 0.12606 0.13714 0.0
H159 H 0.4605 0.1573 0.15987 0.0
Nd160 Nd 0.14667 1.01484 0.29334 0.0
Nd161 Nd 0.18828 0.97911 0.29351 0.0
C162 C 0.08415 1.0595 0.29588 0.0
C163 C 1.04494 1.04355 0.2984 0.0
C164 C 1.04192 1.00775 0.3059 0.0
C165 C 1.01321 0.98085 0.30206 0.0
C166 C 0.98714 0.98979 0.29084 0.0
C167 C 0.9857 1.02823 0.28538 0.0
C168 C 1.01467 1.05505 0.28912 0.0
C169 C 0.22052 1.06237 0.27924 0.0
C170 C 0.13644 0.96959 0.26581 0.0
C171 C 0.26128 0.95661 0.2975 0.0
C172 C 0.27582 0.92915 0.30826 0.0
C173 C 0.31568 0.92645 0.31148 0.0
C174 C 0.32815 0.90146 0.32257 0.0
C175 C 0.30065 0.87938 0.33044 0.0
C176 C 0.26095 0.88145 0.32679 0.0
C177 C 0.24861 0.90635 0.31586 0.0
C178 C 0.13556 0.91577 0.2968 0.0
C179 C 0.18009 1.02566 0.32406 0.0
O180 O 0.10914 1.05499 0.30643 0.0
O181 O 0.0989 1.04941 0.28335 0.0
O182 O 0.19522 1.03432 0.27704 0.0
O183 O 0.19483 1.03444 0.27762 0.0
O184 O 0.11268 0.98451 0.27535 0.0
O185 O 0.17307 0.96698 0.26962 0.0
O186 O 0.24716 0.9891 0.30286 0.0
O187 O 0.23833 0.941 0.28787 0.0
O188 O 0.16839 0.91541 0.28975 0.0
O189 O 0.13054 0.95071 0.3022 0.0
O190 O 0.18364 0.98928 0.31957 0.0
O191 O 0.17099 1.04838 0.31334 0.0
H192 H 1.06482 0.99817 0.31319 0.0
H193 H 1.0143 0.95163 0.30658 0.0
H194 H 0.96572 1.03585 0.2767 0.0
H195 H 1.01651 0.08239 0.28319 0.0
H196 H 0.33684 0.94412 0.30568 0.0
H197 H 0.35891 0.90034 0.3253 0.0
H198 H 0.23932 0.86425 0.33256 0.0
H199 H 0.21765 0.9083 0.3135 0.0
Nd200 Nd 0.3743 0.88415 0.54291 0.0
Nd201 Nd 0.41598 0.93365 0.54718 0.0
C202 C 0.34246 0.8136 0.542 0.0
C203 C 0.36061 0.77475 0.54344 0.0
C204 C 0.38961 0.76817 0.554 0.0
C205 C 0.41627 0.73755 0.55229 0.0
C206 C 0.4146 0.71395 0.53989 0.0
C207 C 0.38178 0.71648 0.53075 0.0
C208 C 0.35497 0.74697 0.53248 0.0
C209 C 0.33384 0.94583 0.52775 0.0
C210 C 0.43031 0.8984 0.51622 0.0
C211 C 0.42837 1.00625 0.5557 0.0
C212 C 0.43113 1.0254 0.56994 0.0
C213 C 0.46057 1.05293 0.57239 0.0
C214 C 0.46625 0.06799 0.58631 0.0
C215 C 0.44279 1.05531 0.59797 0.0
C216 C 0.41217 1.02915 0.59538 0.0
C217 C 0.40607 1.01467 0.58142 0.0
C218 C 0.47313 0.87462 0.54927 0.0
C219 C 0.36165 0.91331 0.57533 0.0
O220 O 0.34293 0.83534 0.5536 0.0
O221 O 0.35228 0.83316 0.53037 0.0
O222 O 0.31869 0.92136 0.53691 0.0
O223 O 0.37077 0.93976 0.52797 0.0
O224 O 0.40919 0.87077 0.5221 0.0
O225 O 0.43464 0.93115 0.52341 0.0
O226 O 0.39384 0.99266 0.55235 0.0
O227 O 0.45682 0.98219 0.5523 0.0
O228 O 0.47862 0.90952 0.544 0.0
O229 O 0.43678 0.87139 0.55369 0.0
O230 O 0.39771 0.9228 0.57197 0.0
O231 O 0.34141 0.90159 0.56421 0.0
H232 H 0.39432 0.78888 0.56273 0.0
H233 H 0.44098 0.7354 0.55958 0.0
H234 H 0.37983 0.6985 0.52109 0.0
H235 H 0.33257 0.75128 0.52434 0.0
H236 H 0.48004 1.06169 0.56366 0.0
H237 H 0.49042 0.08781 0.58811 0.0
H238 H 0.39374 1.01907 0.60422 0.0
H239 H 0.38246 0.99423 0.57975 0.0
Nd240 Nd 0.49105 0.10832 0.79276 0.0
Nd241 Nd 0.44553 0.15507 0.79532 0.0
C242 C 0.55892 0.07107 0.79405 0.0
C243 C 0.5987 0.08743 0.79418 0.0
C244 C 0.60797 0.11798 0.80384 0.0
C245 C 0.63643 0.14532 0.80004 0.0
C246 C 0.65494 0.14255 0.78652 0.0
C247 C 0.65144 0.10796 0.77841 0.0
C248 C 0.62326 0.08037 0.78223 0.0
C249 C 0.42921 0.07245 0.77621 0.0
C250 C 0.48727 0.15799 0.76466 0.0
C251 C 0.37368 0.17625 0.80223 0.0
C252 C 0.35484 0.19334 0.81504 0.0
C253 C 0.32924 0.22497 0.8132 0.0
C254 C 0.31697 0.24664 0.8252 0.0
C255 C 0.3302 0.23685 0.83917 0.0
C256 C 0.35352 0.2034 0.8411 0.0
C257 C 0.36586 0.1818 0.82909 0.0
C258 C 0.50537 0.2099 0.79683 0.0
C259 C 0.46114 0.10551 0.82507 0.0
O260 O 0.53736 0.07838 0.80545 0.0
O261 O 0.53975 0.07644 0.78196 0.0
O262 O 0.45249 1.05454 0.78509 0.0
O263 O 0.43689 0.10885 0.77711 0.0
O264 O 0.51291 0.13784 0.77197 0.0
O265 O 0.4534 0.16489 0.77087 0.0
O266 O 0.38651 0.14023 0.80349 0.0
O267 O 0.3983 0.1993 0.79554 0.0
O268 O 0.47054 0.21635 0.79182 0.0
O269 O 0.5085 0.1734 0.80127 0.0
O270 O 0.45666 0.14155 0.82037 0.0
O271 O 0.46886 0.08088 0.81467 0.0
H272 H 0.59017 0.1237 0.81337 0.0
H273 H 0.63994 0.17129 0.80664 0.0
H274 H 0.66586 0.10522 0.76795 0.0
H275 H 0.61708 1.05669 0.77476 0.0
H276 H 0.32043 0.23415 0.80242 0.0
H277 H 0.29856 0.27208 0.82351 0.0
H278 H 0.36427 0.19541 0.85176 0.0
H279 H 0.38553 0.15738 0.83077 0.0
Nd280 Nd 0.27489 0.23296 1.04061 0.0
Nd281 Nd 0.23878 0.17888 1.04604 0.0
C282 C 0.30426 0.30438 1.04277 0.0
C283 C 0.28425 0.34232 1.04379 0.0
C284 C 0.24673 0.34472 1.05003 0.0
C285 C 0.22324 0.37749 1.04756 0.0
C286 C 0.23675 0.40793 1.03865 0.0
C287 C 0.27586 0.40727 1.0338 0.0
C288 C 0.29941 0.37456 1.03632 0.0
C289 C 0.31439 0.17682 1.02262 0.0
C290 C 0.22651 0.2083 1.0146 0.0
C291 C 0.2189 0.10836 1.05525 0.0
C292 C 0.20072 0.09461 1.06872 0.0
C293 C 0.16595 0.07323 1.06796 0.0
C294 C 0.14359 1.06747 1.08044 0.0
C295 C 0.15585 0.08305 1.09378 0.0
C296 C 0.19228 0.10148 1.09476 0.0
C297 C 0.21461 0.10728 1.08229 0.0
C298 C 0.17633 0.2342 1.04532 0.0
C299 C 0.29079 0.20428 1.07317 0.0
O300 O 0.29986 0.28104 1.05384 0.0
O301 O 0.2999 0.28628 1.03043 0.0
O302 O 0.3083 0.21327 1.01951 0.0
O303 O 0.30071 0.17057 1.03553 0.0
O304 O 0.23219 0.24074 1.02175 0.0
O305 O 0.23413 0.17553 1.02135 0.0
O306 O 0.25406 0.12254 1.05642 0.0
O307 O 0.1966 0.12973 1.04698 0.0
O308 O 0.17612 0.19883 1.04024 0.0
O309 O 0.211 0.24077 1.05059 0.0
O310 O 0.25461 0.19405 1.07044 0.0
O311 O 0.31026 0.21492 1.06151 0.0
H312 H 0.23442 0.32011 1.05587 0.0
H313 H 0.1934 0.37759 1.05155 0.0
H314 H 0.28703 0.43013 1.02678 0.0
H315 H 0.32822 0.37315 1.03141 0.0
H316 H 0.15495 1.06308 1.0576 0.0
H317 H 0.11578 1.05257 1.07954 0.0
H318 H 0.20225 0.11373 1.10495 0.0
H319 H 0.24155 0.12364 1.08321 0.0
Nd320 Nd 0.93446 0.98717 0.79246 0.0
Nd321 Nd 0.98587 1.03226 0.79075 0.0
C322 C 0.86479 0.9572 0.79722 0.0
C323 C 0.85204 0.93669 0.81025 0.0
C324 C 0.81319 0.92499 0.81218 0.0
C325 C 0.8024 0.90517 0.82487 0.0
C326 C 0.83036 0.89781 0.83571 0.0
C327 C 0.86902 0.91004 0.83373 0.0
C328 C 0.87985 0.92894 0.82103 0.0
C329 C 0.9961 0.93264 0.79525 0.0
C330 C 0.95269 1.03555 0.8234 0.0
C331 C 1.05364 0.0691 0.78857 0.0
C332 C 0.09335 1.05367 0.79023 0.0
C333 C 0.09973 1.01997 0.79867 0.0
C334 C 0.1345 0.99889 0.79725 0.0
C335 C 0.16297 1.01098 0.78723 0.0
C336 C 0.1583 1.04717 0.7801 0.0
C337 C 0.12355 0.0683 0.78155 0.0
C338 C 0.92142 0.0722 0.77628 0.0
C339 C 0.97877 0.98413 0.76291 0.0
O340 O 0.87265 0.99422 0.79924 0.0
O341 O 0.892 0.93902 0.78985 0.0
O342 O 0.96307 0.92689 0.78883 0.0
O343 O 0.99675 0.96825 0.80051 0.0
O344 O 0.93138 1.00824 0.81718 0.0
O345 O 0.9784 1.05206 0.81493 0.0
O346 O 1.03233 0.06915 0.80031 0.0
O347 O 1.03466 1.05581 0.77736 0.0
O348 O 0.9433 0.08613 0.78651 0.0
O349 O 0.93111 1.03646 0.77516 0.0
O350 O 1.00673 0.99403 0.77172 0.0
O351 O 0.94288 0.98695 0.76781 0.0
H352 H 0.79153 0.93077 0.80389 0.0
H353 H 0.77247 0.89549 0.82623 0.0
H354 H 0.89118 0.90381 0.84181 0.0
H355 H 0.91019 0.93701 0.81954 0.0
H356 H 0.07666 1.0082 0.80548 0.0
H357 H 0.13762 0.97129 0.80293 0.0
H358 H 0.1796 1.05709 0.77218 0.0
H359 H 0.11905 0.09421 0.77496 0.0
Nd360 Nd 0.90309 0.20027 0.54408 0.0
Nd361 Nd 0.86386 0.24687 0.54121 0.0
C362 C 0.91678 0.12678 0.55137 0.0
C363 C 0.9301 0.10539 0.56418 0.0
C364 C 0.95664 0.07455 0.56233 0.0
C365 C 0.97541 1.05846 0.57434 0.0
C366 C 0.96786 0.07316 0.58833 0.0
C367 C 0.93892 0.1019 0.59027 0.0
C368 C 0.92017 0.11802 0.57824 0.0
C369 C 0.96503 0.25379 0.54513 0.0
C370 C 0.85146 0.2168 0.57289 0.0
C371 C 0.83323 0.31761 0.54391 0.0
C372 C 0.85241 0.35567 0.54557 0.0
C373 C 0.88806 0.35836 0.55308 0.0
C374 C 0.91204 0.39087 0.55117 0.0
C375 C 0.90096 0.42065 0.54154 0.0
C376 C 0.86302 0.42024 0.53563 0.0
C377 C 0.83895 0.38777 0.53758 0.0
C378 C 0.82059 0.18878 0.52513 0.0
C379 C 0.91039 0.23801 0.51274 0.0
O380 O 0.88213 0.14304 0.55216 0.0
O381 O 0.94293 0.14934 0.5453 0.0
O382 O 0.96655 0.21832 0.54014 0.0
O383 O 0.92945 0.26088 0.54982 0.0
O384 O 0.88836 0.21227 0.56929 0.0
O385 O 0.83006 0.2243 0.5616 0.0
O386 O 0.83753 0.29353 0.55478 0.0
O387 O 0.8385 0.30057 0.53135 0.0
O388 O 0.80644 0.21338 0.5345 0.0
O389 O 0.8576 0.19306 0.52534 0.0
O390 O 0.89043 0.26499 0.51944 0.0
O391 O 0.9161 0.20497 0.51965 0.0
H392 H 0.96441 1.06437 0.55155 0.0
H393 H 0.99738 1.036 0.57264 0.0
H394 H 0.93278 0.11383 0.60095 0.0
H395 H 0.89951 0.14163 0.57991 0.0
H396 H 0.89899 0.33398 0.55942 0.0
H397 H 0.94096 0.39075 0.55594 0.0
H398 H 0.85371 0.4427 0.52807 0.0
H399 H 0.81149 0.38624 0.53177 0.0
Nd400 Nd 0.68427 0.16422 0.29329 0.0
Nd401 Nd 0.63758 0.12476 0.29259 0.0
C402 C 0.75951 0.17235 0.29856 0.0
C403 C 0.78389 0.18195 0.31106 0.0
C404 C 0.81318 0.21015 0.30947 0.0
C405 C 0.83151 0.22536 0.3217 0.0
C406 C 0.82065 0.21245 0.33562 0.0
C407 C 0.79406 0.18157 0.33711 0.0
C408 C 0.77565 0.16643 0.32488 0.0
C409 C 0.63174 0.22682 0.29516 0.0
C410 C 0.66978 0.12164 0.32432 0.0
C411 C 0.56779 0.09269 0.29589 0.0
C412 C 0.53001 0.11275 0.29765 0.0
C413 C 0.52756 0.14643 0.30644 0.0
C414 C 0.49941 0.17491 0.30357 0.0
C415 C 0.4741 0.17011 0.2918 0.0
C416 C 0.47174 0.13338 0.28498 0.0
C417 C 0.4999 0.1048 0.28783 0.0
C418 C 0.69498 0.0811 0.27593 0.0
C419 C 0.64055 0.17272 0.26373 0.0
O420 O 0.74142 0.13864 0.29907 0.0
O421 O 0.73754 0.20085 0.29366 0.0
O422 O 0.66641 0.22752 0.2893 0.0
O423 O 0.62481 0.19164 0.30035 0.0
O424 O 0.67557 0.15671 0.31892 0.0
O425 O 0.65974 0.09675 0.31437 0.0
O426 O 0.59237 0.09724 0.30652 0.0
O427 O 0.58446 0.09728 0.28323 0.0
O428 O 0.67526 0.06826 0.28699 0.0
O429 O 0.68648 0.11717 0.27492 0.0
O430 O 0.61534 0.1529 0.27143 0.0
O431 O 0.67519 0.17823 0.26932 0.0
H432 H 0.82009 0.22213 0.29886 0.0
H433 H 0.85213 0.24913 0.32037 0.0
H434 H 0.78508 0.17145 0.34777 0.0
H435 H 0.75341 0.14431 0.32635 0.0
H436 H 0.55009 0.15312 0.31429 0.0
H437 H 0.50098 0.20273 0.30916 0.0
H438 H 0.45223 0.12899 0.27587 0.0
H439 H 0.50104 0.07889 0.28105 0.0
Nd440 Nd 0.72181 0.94196 1.04481 0.0
Nd441 Nd 0.76394 0.89333 1.04242 0.0
C442 C 0.6858 1.00918 1.05031 0.0
C443 C 0.64806 1.01707 1.05719 0.0
C444 C 0.63624 1.05543 1.06021 0.0
C445 C 0.60119 1.06221 1.06766 0.0
C446 C 0.57763 1.0306 1.07208 0.0
C447 C 0.5888 0.99237 1.06832 0.0
C448 C 0.62394 0.98567 1.0611 0.0
C449 C 0.66487 0.88136 1.0449 0.0
C450 C 0.77427 0.92972 1.07355 0.0
C451 C 0.80093 0.82731 1.04879 0.0
C452 C 0.78596 0.78739 1.05057 0.0
C453 C 0.749 0.78117 1.05691 0.0
C454 C 0.72912 0.74624 1.05443 0.0
C455 C 0.74561 0.71761 1.04535 0.0
C456 C 0.78474 0.72174 1.0408 0.0
C457 C 0.80475 0.75655 1.04337 0.0
C458 C 0.80182 0.94628 1.02285 0.0
C459 C 0.71873 0.90244 1.01451 0.0
O460 O 0.71237 0.99419 1.05878 0.0
O461 O 0.68388 0.99115 1.03791 0.0
O462 O 0.66151 0.91511 1.03878 0.0
O463 O 0.69946 0.87903 1.05064 0.0
O464 O 0.73733 0.93431 1.07003 0.0
O465 O 0.79611 0.92073 1.06237 0.0
O466 O 0.78987 0.85264 1.05855 0.0
O467 O 0.79846 0.84128 1.03564 0.0
O468 O 0.79916 0.9086 1.02176 0.0
O469 O 0.78411 0.95668 1.03481 0.0
O470 O 0.72735 0.87326 1.02302 0.0
O471 O 0.72164 0.93749 1.02004 0.0
H472 H 0.65463 0.07994 1.05723 0.0
H473 H 0.59359 0.09196 1.07061 0.0
H474 H 0.57109 0.96751 1.07145 0.0
H475 H 0.63278 0.95584 1.05899 0.0
H476 H 0.73391 0.8045 1.06261 0.0
H477 H 0.69923 0.74345 1.05823 0.0
H478 H 0.79829 0.70023 1.03374 0.0
H479 H 0.83328 0.76079 1.03846 0.0
Nd480 Nd 0.93699 0.16012 0.9393 0.0
Nd481 Nd 0.97673 0.12005 0.94045 0.0
C482 C 0.86163 0.16215 0.93354 0.0
C483 C 0.83439 0.16843 0.92162 0.0
C484 C 0.79758 0.18451 0.92465 0.0
C485 C 0.77382 0.19716 0.91331 0.0
C486 C 0.78691 0.19393 0.89888 0.0
C487 C 0.82188 0.17388 0.89586 0.0
C488 C 0.84567 0.16137 0.9072 0.0
C489 C 0.98751 0.22271 0.93648 0.0
C490 C 0.95011 0.11856 0.90856 0.0
C491 C 1.04246 0.08002 0.93686 0.0
C492 C 0.08321 0.09289 0.9362 0.0
C493 C 0.09239 0.13005 0.93063 0.0
C494 C 0.12854 0.1469 0.93361 0.0
C495 C 0.15553 0.12711 0.94244 0.0
C496 C 0.14801 0.088 0.94639 0.0
C497 C 0.11195 0.07106 0.94332 0.0
C498 C 0.92016 0.08404 0.9599 0.0
C499 C 0.98353 0.17262 0.96773 0.0
O500 O 0.88276 0.13011 0.93288 0.0
O501 O 0.88123 0.19288 0.93791 0.0
O502 O 0.95127 0.22475 0.94091 0.0
O503 O 0.99675 0.18629 0.9332 0.0
O504 O 0.95218 0.15393 0.91398 0.0
O505 O 0.95055 0.09296 0.91897 0.0
O506 O 1.02041 0.09133 0.92614 0.0
O507 O 1.0254 0.08448 0.94945 0.0
O508 O 0.93628 1.06719 0.94875 0.0
O509 O 0.93157 0.11933 0.95947 0.0
O510 O 1.00596 0.14983 0.95998 0.0
O511 O 0.94833 0.17902 0.96273 0.0
H512 H 0.78836 0.18961 0.93577 0.0
H513 H 0.74696 0.21267 0.91584 0.0
H514 H 0.83278 0.17149 0.88482 0.0
H515 H 0.87382 0.14856 0.90468 0.0
H516 H 0.07059 0.1474 0.92502 0.0
H517 H 0.13376 0.17685 0.93027 0.0
H518 H 0.16802 0.07193 0.95328 0.0
H519 H 0.10532 1.04233 0.94764 0.0
Nd520 Nd 0.72412 0.20524 0.68754 0.0
Nd521 Nd 0.76866 0.25265 0.69126 0.0
C522 C 0.68612 0.14051 0.6809 0.0
C523 C 0.64929 0.13541 0.67301 0.0
C524 C 0.61941 0.1124 0.67899 0.0
C525 C 0.58301 0.11033 0.67217 0.0
C526 C 0.5761 0.13121 0.65925 0.0
C527 C 0.60617 0.15441 0.6534 0.0
C528 C 0.64224 0.15673 0.66026 0.0
C529 C 0.66925 0.26769 0.6876 0.0
C530 C 0.77981 0.21823 0.65957 0.0
C531 C 0.80851 0.31763 0.68628 0.0
C532 C 0.79482 0.35829 0.68538 0.0
C533 C 0.75831 0.36682 0.67912 0.0
C534 C 0.73879 0.4014 0.6827 0.0
C535 C 0.75516 0.42724 0.69282 0.0
C536 C 0.79414 0.42137 0.69724 0.0
C537 C 0.81381 0.38696 0.69356 0.0
C538 C 0.80215 0.19433 0.70976 0.0
C539 C 0.72021 0.24234 0.71851 0.0
O540 O 0.71587 0.15337 0.67339 0.0
O541 O 0.68269 0.15794 0.69339 0.0
O542 O 0.66366 0.23289 0.69254 0.0
O543 O 0.705 0.27001 0.68273 0.0
O544 O 0.74249 0.2139 0.66266 0.0
O545 O 0.80089 0.22645 0.67099 0.0
O546 O 0.7968 0.29431 0.67599 0.0
O547 O 0.80529 0.30176 0.69911 0.0
O548 O 0.80169 0.23173 0.71197 0.0
O549 O 0.7853 0.1876 0.69736 0.0
O550 O 0.73219 0.27194 0.71081 0.0
O551 O 0.72138 0.20789 0.71236 0.0
H552 H 0.62408 0.09644 0.68901 0.0
H553 H 0.56036 0.09241 0.677 0.0
H554 H 0.60227 0.17015 0.64329 0.0
H555 H 0.66453 0.17537 0.65557 0.0
H556 H 0.74309 0.34524 0.67265 0.0
H557 H 0.70912 0.4057 0.67891 0.0
H558 H 0.80771 0.44073 0.70504 0.0
H559 H 0.84202 0.38096 0.69841 0.0
Nd560 Nd 0.69508 0.98617 0.43808 0.0
Nd561 Nd 0.64272 1.02916 0.44126 0.0
C562 C 0.76503 0.95825 0.4313 0.0
C563 C 0.77998 0.93344 0.41956 0.0
C564 C 0.80169 0.89981 0.42292 0.0
C565 C 0.81231 0.87365 0.41195 0.0
C566 C 0.80152 0.88108 0.3975 0.0
C567 C 0.78095 0.91544 0.39411 0.0
C568 C 0.77015 0.94136 0.40505 0.0
C569 C 0.63524 0.92893 0.43827 0.0
C570 C 0.67462 1.03378 0.4087 0.0
C571 C 0.57418 1.06425 0.43762 0.0
C572 C 0.53479 1.0471 0.43705 0.0
C573 C 0.52878 1.01144 0.42975 0.0
C574 C 0.49693 0.98792 0.43339 0.0
C575 C 0.47128 0.99951 0.4445 0.0
C576 C 0.47403 1.03758 0.45017 0.0
C577 C 0.50576 1.06126 0.44647 0.0
C578 C 0.69982 1.06646 0.45929 0.0
C579 C 0.65836 0.98268 0.46881 0.0
O580 O 0.75288 0.99302 0.42758 0.0
O581 O 0.7416 0.94122 0.44051 0.0
O582 O 0.66987 0.92507 0.44371 0.0
O583 O 0.63171 0.96412 0.43291 0.0
O584 O 0.68301 0.99819 0.41319 0.0
O585 O 0.66398 1.05756 0.41919 0.0
O586 O 0.59769 1.05569 0.42691 0.0
O587 O 0.5914 1.06122 0.45017 0.0
O588 O 0.66258 1.06467 0.46168 0.0
O589 O 0.7066 1.0496 0.44691 0.0
O590 O 0.62788 0.99049 0.46083 0.0
O591 O 0.69278 0.98612 0.46278 0.0
H592 H 0.80941 0.89324 0.43407 0.0
H593 H 0.82838 0.84738 0.41477 0.0
H594 H 0.77181 0.92153 0.38308 0.0
H595 H 0.75312 0.96695 0.40215 0.0
H596 H 0.55063 0.99982 0.42236 0.0
H597 H 0.49493 0.95883 0.42879 0.0
H598 H 0.45461 1.0471 0.45881 0.0
H599 H 0.5098 0.08868 0.45218 0.0
Nd600 Nd 0.89378 0.95178 0.18836 0.0
Nd601 Nd 0.8535 0.8969 0.19326 0.0
C602 C 0.91555 1.02419 0.18215 0.0
C603 C 0.93565 1.04575 0.17069 0.0
C604 C 0.96313 0.0742 0.17452 0.0
C605 C 0.98554 0.09223 0.16379 0.0
C606 C 0.98036 0.0821 0.14915 0.0
C607 C 0.95112 1.05537 0.14529 0.0
C608 C 0.92902 1.03708 0.15601 0.0
C609 C 0.95253 0.89238 0.18823 0.0
C610 C 0.84208 0.9291 0.1605 0.0
C611 C 0.82099 0.82689 0.19079 0.0
C612 C 0.83934 0.78805 0.18993 0.0
C613 C 0.82425 0.75741 0.19833 0.0
C614 C 0.8475 0.72482 0.2014 0.0
C615 C 0.88617 0.72279 0.19618 0.0
C616 C 0.89925 0.75101 0.18624 0.0
C617 C 0.87606 0.78362 0.18319 0.0
C618 C 0.81537 0.9548 0.21075 0.0
C619 C 0.90216 0.91878 0.21971 0.0
O620 O 0.88152 1.00972 0.17883 0.0
O621 O 0.93686 1.00012 0.18975 0.0
O622 O 0.95655 0.92793 0.19285 0.0
O623 O 0.91697 0.88816 0.1835 0.0
O624 O 0.87784 0.94033 0.16365 0.0
O625 O 0.82185 0.91666 0.17177 0.0
O626 O 0.827 0.8501 0.17978 0.0
O627 O 0.82551 0.84472 0.20317 0.0
O628 O 0.81929 0.91809 0.21388 0.0
O629 O 0.83056 0.96034 0.198 0.0
O630 O 0.89515 0.88685 0.21239 0.0
O631 O 0.89616 0.95204 0.2131 0.0
H632 H 0.96829 0.0813 0.18583 0.0
H633 H 1.00808 0.11273 0.16695 0.0
H634 H 0.94714 1.04667 0.13407 0.0
H635 H 0.9079 1.01514 0.15284 0.0
H636 H 0.79604 0.76035 0.20362 0.0
H637 H 0.83678 0.70355 0.20917 0.0
H638 H 0.92885 0.74982 0.18203 0.0
H639 H 0.88836 0.80692 0.17665 0.0
Nd640 Nd 0.64692 0.60461 0.94651 0.0
Nd641 Nd 0.69955 0.64737 0.94222 0.0
C642 C 0.5787 0.57027 0.95117 0.0
C643 C 0.53925 0.58494 0.94829 0.0
C644 C 0.53401 0.61614 0.93853 0.0
C645 C 0.49924 0.6376 0.93865 0.0
C646 C 0.46966 0.62823 0.94862 0.0
C647 C 0.47321 0.59401 0.95705 0.0
C648 C 0.50801 0.57261 0.95695 0.0
C649 C 0.71232 0.56337 0.95977 0.0
C650 C 0.66311 0.65551 0.97313 0.0
C651 C 0.76785 0.67721 0.93505 0.0
C652 C 0.77797 0.69654 0.92146 0.0
C653 C 0.81542 0.71155 0.91901 0.0
C654 C 0.82332 0.73173 0.90612 0.0
C655 C 0.79388 0.73642 0.89562 0.0
C656 C 0.75677 0.72047 0.89804 0.0
C657 C 0.74879 0.70104 0.91093 0.0
C658 C 0.63741 0.7022 0.93983 0.0
C659 C 0.67439 0.59526 0.91311 0.0
O660 O 0.60018 0.56375 0.93974 0.0
O661 O 0.59763 0.5892 0.9612 0.0
O662 O 0.68731 0.54926 0.95064 0.0
O663 O 0.70532 0.59991 0.96028 0.0
O664 O 0.63268 0.64594 0.96547 0.0
O665 O 0.69746 0.65033 0.96707 0.0
O666 O 0.75984 0.64001 0.93378 0.0
O667 O 0.74205 0.69599 0.94287 0.0
O668 O 0.67128 0.7083 0.94556 0.0
O669 O 0.63631 0.66616 0.93511 0.0
O670 O 0.70036 0.61989 0.91829 0.0
O671 O 0.64753 0.58433 0.92235 0.0
H672 H 0.55793 0.62598 0.9317 0.0
H673 H 0.49696 0.66372 0.93204 0.0
H674 H 0.45097 0.58634 0.96496 0.0
H675 H 0.51164 0.5486 0.96453 0.0
H676 H 0.8381 0.70836 0.92711 0.0
H677 H 0.8521 0.7441 0.90442 0.0
H678 H 0.73345 0.7245 0.89023 0.0
H679 H 0.71942 0.69045 0.91284 0.0
Nd680 Nd 0.77464 0.38859 0.19451 0.0
Nd681 Nd 0.73486 0.44216 0.18932 0.0
C682 C 0.80835 0.31887 0.19203 0.0
C683 C 0.79095 0.27986 0.19029 0.0
C684 C 0.75723 0.27502 0.18178 0.0
C685 C 0.73323 0.24251 0.18386 0.0
C686 C 0.74237 0.21496 0.19461 0.0
C687 C 0.77886 0.21702 0.20157 0.0
C688 C 0.80298 0.24944 0.19945 0.0
C689 C 0.81081 0.44559 0.21281 0.0
C690 C 0.72345 0.40974 0.22044 0.0
C691 C 0.71125 0.51258 0.1812 0.0
C692 C 0.69131 0.5279 0.16837 0.0
C693 C 0.65831 0.55177 0.17017 0.0
C694 C 0.6358 0.56205 0.15816 0.0
C695 C 0.64621 0.54862 0.14425 0.0
C696 C 0.6804 0.52644 0.14239 0.0
C697 C 0.70277 0.51604 0.15437 0.0
C698 C 0.67627 0.38326 0.189 0.0
C699 C 0.78858 0.41964 0.16193 0.0
O700 O 0.80413 0.34297 0.18118 0.0
O701 O 0.80123 0.33566 0.20447 0.0
O702 O 0.80666 0.40876 0.21564 0.0
O703 O 0.79659 0.45203 0.19998 0.0
O704 O 0.73111 0.37797 0.21308 0.0
O705 O 0.72991 0.44319 0.21402 0.0
O706 O 0.74668 0.49951 0.17915 0.0
O707 O 0.69047 0.48967 0.18947 0.0
O708 O 0.67235 0.41839 0.19408 0.0
O709 O 0.71192 0.37911 0.18421 0.0
O710 O 0.75209 0.42902 0.16479 0.0
O711 O 0.80847 0.40902 0.17347 0.0
H712 H 0.74736 0.29801 0.17455 0.0
H713 H 0.70542 0.24118 0.17828 0.0
H714 H 0.78655 0.1962 0.20998 0.0
H715 H 0.82893 0.25257 0.20607 0.0
H716 H 0.64916 0.56118 0.1809 0.0
H717 H 0.60968 0.57955 0.15979 0.0
H718 H 0.68878 0.51546 0.13177 0.0
H719 H 0.72812 0.49752 0.15269 0.0
Nd720 Nd 0.99747 0.51186 0.44272 0.0
Nd721 Nd 0.94902 0.46705 0.44039 0.0
C722 C 1.06155 0.55248 0.43688 0.0
C723 C 0.10184 0.53921 0.43446 0.0
C724 C 0.10901 0.50246 0.42811 0.0
C725 C 0.14464 0.48352 0.43039 0.0
C726 C 0.17288 0.50068 0.4394 0.0
C727 C 0.16784 0.53996 0.4437 0.0
C728 C 0.13236 0.55903 0.4413 0.0
C729 C 0.94104 0.54636 0.46203 0.0
C730 C 0.99033 0.46405 0.47031 0.0
C731 C 0.87975 0.43706 0.43435 0.0
C732 C 0.86431 0.41575 0.42185 0.0
C733 C 0.84407 0.38064 0.42401 0.0
C734 C 0.83304 0.35801 0.4121 0.0
C735 C 0.84207 0.37042 0.39793 0.0
C736 C 0.8612 0.40622 0.39581 0.0
C737 C 0.87228 0.42869 0.40766 0.0
C738 C 1.01106 0.41213 0.4398 0.0
C739 C 0.96332 0.51518 0.41078 0.0
O740 O 1.03628 0.54239 0.42704 0.0
O741 O 1.04831 0.54691 0.45001 0.0
O742 O 0.97855 0.54576 0.46377 0.0
O743 O 0.93355 0.52922 0.4498 0.0
O744 O 1.01885 0.47433 0.4617 0.0
O745 O 0.95488 0.46569 0.46507 0.0
O746 O 0.88888 0.47355 0.43206 0.0
O747 O 0.90597 0.41864 0.44198 0.0
O748 O 0.97713 0.40708 0.4458 0.0
O749 O 1.01265 0.4474 0.43433 0.0
O750 O 0.95926 0.47893 0.4153 0.0
O751 O 0.97144 0.53956 0.42131 0.0
H752 H 0.08588 0.48667 0.42266 0.0
H753 H 0.14808 0.45362 0.42668 0.0
H754 H 0.18898 0.55427 0.45062 0.0
H755 H 0.12738 0.58748 0.44618 0.0
H756 H 0.83778 0.37026 0.43489 0.0
H757 H 0.81802 0.33059 0.41397 0.0
H758 H 0.86897 0.41617 0.385 0.0
H759 H 0.88805 0.4556 0.40567 0.0
Nd760 Nd 0.86951 0.73565 0.6936 0.0
Nd761 Nd 0.91446 0.68386 0.69327 0.0
C762 C 0.83593 0.80532 0.69239 0.0
C763 C 0.85438 0.84361 0.6906 0.0
C764 C 0.89169 0.8461 0.6842 0.0
C765 C 0.91371 0.88013 0.68561 0.0
C766 C 0.89889 0.91187 0.69361 0.0
C767 C 0.85986 0.91068 0.69858 0.0
C768 C 0.83781 0.87663 0.69714 0.0
C769 C 0.8285 0.67416 0.70917 0.0
C770 C 0.91594 0.7314 0.72248 0.0
C771 C 0.93792 0.61048 0.69087 0.0
C772 C 0.95194 0.58489 0.67925 0.0
C773 C 0.98404 0.56041 0.68185 0.0
C774 C 1.00254 0.5416 0.67029 0.0
C775 C 0.98905 0.54723 0.65604 0.0
C776 C 0.95469 0.56877 0.65366 0.0
C777 C 0.93629 0.58766 0.66521 0.0
C778 C 0.96817 0.74582 0.69041 0.0
C779 C 0.8673 0.69846 0.66196 0.0
O780 O 0.839 0.78209 0.68124 0.0
O781 O 0.84365 0.78758 0.7046 0.0
O782 O 0.81463 0.69546 0.69871 0.0
O783 O 0.86422 0.68357 0.71025 0.0
O784 O 0.90203 0.75808 0.71378 0.0
O785 O 0.91797 0.69544 0.71765 0.0
O786 O 0.90128 0.6213 0.69009 0.0
O787 O 0.96132 0.63908 0.69443 0.0
O788 O 0.97275 0.71486 0.6984 0.0
O789 O 0.93426 0.74369 0.68393 0.0
O790 O 0.8993 0.68372 0.66785 0.0
O791 O 0.84547 0.71865 0.67082 0.0
H792 H 0.905 0.82081 0.67907 0.0
H793 H 0.94357 0.88029 0.68163 0.0
H794 H 0.84766 0.93444 0.70494 0.0
H795 H 0.8091 0.87511 0.70212 0.0
H796 H 0.99621 0.5578 0.69267 0.0
H797 H 1.02896 0.52492 0.67232 0.0
H798 H 0.94399 0.57384 0.64275 0.0
H799 H 0.91133 0.60624 0.66298 0.0
Nd800 Nd 0.65182 0.51718 0.79404 0.0
Nd801 Nd 0.69823 0.47505 0.79849 0.0
C802 C 0.58623 0.55688 0.79862 0.0
C803 C 0.54545 0.54412 0.79942 0.0
C804 C 0.53628 0.50673 0.80477 0.0
C805 C 0.50058 0.48951 0.80131 0.0
C806 C 0.47419 0.50917 0.7922 0.0
C807 C 0.48135 0.54864 0.78864 0.0
C808 C 0.51687 0.56593 0.79221 0.0
C809 C 0.7083 0.55277 0.77552 0.0
C810 C 0.66804 0.46875 0.76704 0.0
C811 C 0.76469 0.44608 0.80837 0.0
C812 C 0.77283 0.42279 0.82137 0.0
C813 C 0.79205 0.38676 0.81999 0.0
C814 C 0.79327 0.36099 0.83172 0.0
C815 C 0.77496 0.3709 0.84494 0.0
C816 C 0.75755 0.40788 0.84649 0.0
C817 C 0.7567 0.43368 0.83484 0.0
C818 C 0.63804 0.41821 0.79755 0.0
C819 C 0.68117 0.52714 0.82621 0.0
O820 O 0.60895 0.54486 0.80903 0.0
O821 O 0.60247 0.55315 0.78586 0.0
O822 O 0.67105 0.55081 0.7732 0.0
O823 O 0.71578 0.53569 0.78783 0.0
O824 O 0.63689 0.47878 0.77438 0.0
O825 O 0.70144 0.47142 0.77378 0.0
O826 O 0.75355 0.48211 0.8106 0.0
O827 O 0.74367 0.42859 0.79856 0.0
O828 O 0.67341 0.41373 0.79275 0.0
O829 O 0.63417 0.45373 0.8025 0.0
O830 O 0.68145 0.48982 0.823 0.0
O831 O 0.67842 0.54884 0.81453 0.0
H832 H 0.55792 0.48943 0.81048 0.0
H833 H 0.49546 0.4594 0.80445 0.0
H834 H 0.46176 0.56475 0.7816 0.0
H835 H 0.52347 0.59487 0.78806 0.0
H836 H 0.80466 0.37791 0.80968 0.0
H837 H 0.80774 0.33299 0.83036 0.0
H838 H 0.74304 0.41631 0.85649 0.0
H839 H 0.74189 0.46142 0.83627 0.0
Nd840 Nd 0.87493 0.3859 1.04349 0.0
Nd841 Nd 0.9151 0.43711 1.04704 0.0
C842 C 0.84224 0.31684 1.04806 0.0
C843 C 0.8608 0.27816 1.04916 0.0
C844 C 0.89823 0.2746 1.05533 0.0
C845 C 0.92167 0.24232 1.05206 0.0
C846 C 0.90822 0.21373 1.04238 0.0
C847 C 0.86883 0.21456 1.038 0.0
C848 C 0.84528 0.24678 1.04133 0.0
C849 C 0.83522 0.44243 1.02574 0.0
C850 C 0.91924 0.40283 1.0158 0.0
C851 C 0.94955 0.50433 1.05344 0.0
C852 C 0.98779 0.51178 1.05984 0.0
C853 C 1.00046 0.55001 1.06239 0.0
C854 C 1.03594 0.55638 1.06949 0.0
C855 C 1.0591 0.52448 1.074 0.0
C856 C 1.04712 0.48631 1.07062 0.0
C857 C 1.01152 0.48005 1.06377 0.0
C858 C 0.97406 0.37789 1.04571 0.0
C859 C 0.86142 0.41951 1.07532 0.0
O860 O 0.85017 0.34139 1.05845 0.0
O861 O 0.84459 0.33303 1.03525 0.0
O862 O 0.83863 0.40529 1.02318 0.0
O863 O 0.85216 0.44976 1.03805 0.0
O864 O 0.91262 0.37175 1.02359 0.0
O865 O 0.91463 0.43667 1.02219 0.0
O866 O 0.92446 0.4872 1.06199 0.0
O867 O 0.95051 0.48855 1.04061 0.0
O868 O 0.97497 0.41205 1.03979 0.0
O869 O 0.94011 0.3745 1.05201 0.0
O870 O 0.89788 0.42794 1.07202 0.0
O871 O 0.84101 0.40828 1.06407 0.0
H872 H 0.91088 0.2984 1.06149 0.0
H873 H 0.95176 0.24195 1.05569 0.0
H874 H 0.8577 0.19296 1.03047 0.0
H875 H 0.81649 0.24898 1.03651 0.0
H876 H 0.98237 0.57477 1.05938 0.0
H877 H 1.04411 0.58611 1.07214 0.0
H878 H 1.06447 0.46121 1.07383 0.0
H879 H 1.00188 0.45033 1.06199 0.0
Nd880 Nd 0.98945 0.61234 0.29438 0.0
Nd881 Nd 0.93972 0.65117 0.29655 0.0
C882 C 1.06097 0.58274 0.29477 0.0
C883 C 0.09811 0.60423 0.29544 0.0
C884 C 0.10147 0.63685 0.30472 0.0
C885 C 0.12852 0.66613 0.30162 0.0
C886 C 0.1519 0.66326 0.28917 0.0
C887 C 0.15305 0.62785 0.2814 0.0
C888 C 0.12608 0.59843 0.2845 0.0
C889 C 0.93092 0.56852 0.27856 0.0
C890 C 0.97966 0.66342 0.26648 0.0
C891 C 0.86519 0.65961 0.30328 0.0
C892 C 0.84289 0.67058 0.31626 0.0
C893 C 0.8134 0.69883 0.31497 0.0
C894 C 0.79823 0.71667 0.32737 0.0
C895 C 0.81252 0.70642 0.34114 0.0
C896 C 0.83891 0.67521 0.34251 0.0
C897 C 0.85411 0.65735 0.3301 0.0
C898 C 0.99258 0.71358 0.29824 0.0
C899 C 0.96022 0.60636 0.32685 0.0
O900 O 1.03884 0.58525 0.30628 0.0
O901 O 1.04115 0.5877 0.28282 0.0
O902 O 0.95293 0.55522 0.28889 0.0
O903 O 0.93775 0.60497 0.27792 0.0
O904 O 1.00756 0.6466 0.27386 0.0
O905 O 0.94488 0.66465 0.2724 0.0
O906 O 0.8835 0.6259 0.30374 0.0
O907 O 0.88627 0.68762 0.29757 0.0
O908 O 0.95758 0.71467 0.29277 0.0
O909 O 0.99954 0.67824 0.30323 0.0
O910 O 0.95013 0.64094 0.32187 0.0
O911 O 0.97285 0.58311 0.31668 0.0
H912 H 0.08054 0.64196 0.31338 0.0
H913 H 0.12795 0.69293 0.30789 0.0
H914 H 0.17094 0.62509 0.27171 0.0
H915 H 0.12412 0.57346 0.27729 0.0
H916 H 0.80421 0.70909 0.30437 0.0
H917 H 0.77766 0.74061 0.32615 0.0
H918 H 0.8504 0.66702 0.35305 0.0
H919 H 0.87646 0.63515 0.33135 0.0
Nd920 Nd 0.78091 0.72864 0.54474 0.0
Nd921 Nd 0.73697 0.67934 0.54661 0.0
C922 C 0.81544 0.79777 0.54442 0.0
C923 C 0.79702 0.83666 0.54385 0.0
C924 C 0.76453 0.84506 0.55279 0.0
C925 C 0.73784 0.87394 0.54874 0.0
C926 C 0.74327 0.89418 0.53571 0.0
C927 C 0.77858 0.89003 0.52802 0.0
C928 C 0.80543 0.86131 0.53209 0.0
C929 C 0.82036 0.66693 0.52892 0.0
C930 C 0.72845 0.72345 0.51711 0.0
C931 C 0.72343 0.60449 0.55128 0.0
C932 C 0.71112 0.57899 0.56315 0.0
C933 C 0.68644 0.54749 0.56009 0.0
C934 C 0.66798 0.52767 0.5714 0.0
C935 C 0.67402 0.53939 0.58585 0.0
C936 C 0.70192 0.56824 0.58891 0.0
C937 C 0.7203 0.5881 0.5776 0.0
C938 C 0.67991 0.73794 0.5494 0.0
C939 C 0.78347 0.69699 0.57716 0.0
O940 O 0.80947 0.77778 0.55627 0.0
O941 O 0.81079 0.77652 0.53278 0.0
O942 O 0.83488 0.68747 0.53943 0.0
O943 O 0.78444 0.67663 0.52823 0.0
O944 O 0.74611 0.74993 0.52488 0.0
O945 O 0.72549 0.68821 0.52251 0.0
O946 O 0.75805 0.62043 0.55255 0.0
O947 O 0.69678 0.62875 0.54644 0.0
O948 O 0.67427 0.70319 0.54406 0.0
O949 O 0.71616 0.74125 0.55388 0.0
O950 O 0.74929 0.68642 0.57197 0.0
O951 O 0.80709 0.71118 0.56737 0.0
H952 H 0.75738 0.82672 0.56202 0.0
H953 H 0.71093 0.87733 0.55487 0.0
H954 H 0.78314 0.90553 0.51788 0.0
H955 H 0.83033 0.85545 0.5251 0.0
H956 H 0.67944 0.53995 0.54896 0.0
H957 H 0.6466 0.50539 0.56884 0.0
H958 H 0.70676 0.57801 0.59996 0.0
H959 H 0.73964 0.61213 0.58016 0.0
Nd960 Nd 0.42718 0.48731 0.29554 0.0
Nd961 Nd 0.47917 0.5275 0.29173 0.0
C962 C 0.35588 0.46554 0.30353 0.0
C963 C 0.3373 0.45555 0.31739 0.0
C964 C 0.30865 0.42642 0.31785 0.0
C965 C 0.29363 0.41406 0.33119 0.0
C966 C 0.3074 0.43057 0.34419 0.0
C967 C 0.33461 0.46112 0.34363 0.0
C968 C 0.34935 0.47365 0.33032 0.0
C969 C 0.48562 0.42803 0.29465 0.0
C970 C 0.4495 0.53462 0.32446 0.0
C971 C 0.5479 0.56167 0.29533 0.0
C972 C 0.58675 0.54393 0.29674 0.0
C973 C 0.5905 0.50595 0.30244 0.0
C974 C 0.62429 0.48414 0.29979 0.0
C975 C 0.6544 0.49984 0.29119 0.0
C976 C 0.65243 0.53953 0.2871 0.0
C977 C 0.61869 0.56139 0.28982 0.0
C978 C 0.42312 0.56524 0.2732 0.0
C979 C 0.46161 0.4795 0.26454 0.0
O980 O 0.36675 0.50179 0.30218 0.0
O981 O 0.38215 0.44109 0.2987 0.0
O982 O 0.45099 0.42643 0.2889 0.0
O983 O 0.48988 0.46259 0.30046 0.0
O984 O 0.442 0.49883 0.32017 0.0
O985 O 0.45852 0.55804 0.31366 0.0
O986 O 0.52361 0.55504 0.30595 0.0
O987 O 0.53169 0.55691 0.28267 0.0
O988 O 0.46011 0.56117 0.27064 0.0
O989 O 0.41637 0.55031 0.28591 0.0
O990 O 0.49256 0.48767 0.27223 0.0
O991 O 0.42756 0.48329 0.27086 0.0
H992 H 0.29897 0.41231 0.30796 0.0
H993 H 0.27301 0.39006 0.33139 0.0
H994 H 0.34553 0.47428 0.35353 0.0
H995 H 0.37096 0.49668 0.3302 0.0
H996 H 0.56611 0.49188 0.30785 0.0
H997 H 0.62526 0.45384 0.30323 0.0
H998 H 0.67497 0.55251 0.28037 0.0
H999 H 0.61622 0.59061 0.28534 0.0
Nd1000 Nd 0.39698 0.693 1.04417 0.0
Nd1001 Nd 0.35491 0.74729 1.04095 0.0
C1002 C 0.41978 0.62069 1.05012 0.0
C1003 C 0.43742 0.60053 1.06245 0.0
C1004 C 0.46674 0.57267 1.05995 0.0
C1005 C 0.48705 0.55663 1.07162 0.0
C1006 C 0.47808 0.5683 1.08589 0.0
C1007 C 0.44707 0.59439 1.0884 0.0
C1008 C 0.42695 0.61057 1.07674 0.0
C1009 C 0.45469 0.75238 1.04443 0.0
C1010 C 0.34994 0.71432 1.07361 0.0
C1011 C 0.32033 0.81622 1.04458 0.0
C1012 C 0.33786 0.8553 1.04599 0.0
C1013 C 0.37273 0.86012 1.05385 0.0
C1014 C 0.39684 0.89218 1.0511 0.0
C1015 C 0.38666 0.91926 1.04031 0.0
C1016 C 0.34919 0.9175 1.0341 0.0
C1017 C 0.32494 0.88555 1.03691 0.0
C1018 C 0.31842 0.69035 1.02253 0.0
C1019 C 0.40349 0.73147 1.01373 0.0
O1020 O 0.38425 0.63347 1.0521 0.0
O1021 O 0.44189 0.64592 1.0434 0.0
O1022 O 0.45847 0.71779 1.03879 0.0
O1023 O 0.4195 0.75596 1.04981 0.0
O1024 O 0.38517 0.70461 1.06907 0.0
O1025 O 0.32659 0.72638 1.0632 0.0
O1026 O 0.32671 0.79181 1.05518 0.0
O1027 O 0.32528 0.79983 1.03193 0.0
O1028 O 0.32125 0.72745 1.02001 0.0
O1029 O 0.33359 0.68401 1.03518 0.0
O1030 O 0.3957 0.76184 1.02186 0.0
O1031 O 0.39915 0.69683 1.01951 0.0
H1032 H 0.47493 0.56452 1.04897 0.0
H1033 H 0.51084 0.53639 1.0695 0.0
H1034 H 0.44 0.60416 1.0993 0.0
H1035 H 0.40429 0.632 1.07891 0.0
H1036 H 0.38338 0.83729 1.061 0.0
H1037 H 0.42544 0.89332 1.05611 0.0
H1038 H 0.3407 0.938 1.02569 0.0
H1039 H 0.29812 0.88244 1.03078 0.0
Nd1040 Nd 0.18935 0.66775 0.79508 0.0
Nd1041 Nd 0.1389 0.62356 0.7926 0.0
C1042 C 0.25784 0.70084 0.80008 0.0
C1043 C 0.26907 0.73469 0.80885 0.0
C1044 C 0.29519 0.76245 0.80324 0.0
C1045 C 0.30352 0.79634 0.81114 0.0
C1046 C 0.28574 0.80278 0.82473 0.0
C1047 C 0.25986 0.77458 0.83031 0.0
C1048 C 0.25135 0.74108 0.8224 0.0
C1049 C 0.12828 0.72392 0.79593 0.0
C1050 C 0.17289 0.61938 0.82472 0.0
C1051 C 0.07306 0.58483 0.79734 0.0
C1052 C 1.03319 0.60044 0.79901 0.0
C1053 C 1.02708 0.63622 0.80624 0.0
C1054 C 0.99315 0.6579 0.80373 0.0
C1055 C 0.96534 0.64439 0.79377 0.0
C1056 C 0.96902 0.6062 0.7882 0.0
C1057 C 1.00288 0.58439 0.79077 0.0
C1058 C 0.19715 0.58948 0.77381 0.0
C1059 C 0.14628 0.67224 0.76532 0.0
O1060 O 0.2452 0.67029 0.80716 0.0
O1061 O 0.23651 0.70891 0.78879 0.0
O1062 O 0.16266 0.72871 0.79039 0.0
O1063 O 0.12566 0.6884 0.80105 0.0
O1064 O 0.18003 0.65521 0.82019 0.0
O1065 O 0.16228 0.59553 0.81433 0.0
O1066 O 0.09761 0.59368 0.8076 0.0
O1067 O 0.08832 0.58938 0.78446 0.0
O1068 O 0.16008 0.59198 0.77127 0.0
O1069 O 0.20291 0.60432 0.78656 0.0
O1070 O 0.11786 0.66153 0.77386 0.0
O1071 O 0.18187 0.67006 0.77041 0.0
H1072 H 0.30866 0.75816 0.79268 0.0
H1073 H 0.3235 0.8176 0.80656 0.0
H1074 H 0.24646 0.77808 0.84091 0.0
H1075 H 0.23069 0.72032 0.82689 0.0
H1076 H 1.05 0.64929 0.81271 0.0
H1077 H 0.99068 0.68704 0.80828 0.0
H1078 H 0.9481 0.59504 0.78042 0.0
H1079 H 1.00703 0.55687 0.78511 0.0
Nd1080 Nd 0.2282 0.45414 0.54491 0.0
Nd1081 Nd 0.26662 0.40322 0.54084 0.0
C1082 C 0.2042 0.52435 0.55319 0.0
C1083 C 0.18591 0.53851 0.56663 0.0
C1084 C 0.14856 0.55538 0.56608 0.0
C1085 C 0.12777 0.56219 0.57888 0.0
C1086 C 0.14427 0.55237 0.59236 0.0
C1087 C 0.18265 0.53801 0.59294 0.0
C1088 C 0.20334 0.53105 0.58017 0.0
C1089 C 0.16731 0.39759 0.54416 0.0
C1090 C 0.27852 0.43454 0.57302 0.0
C1091 C 0.3009 0.33467 0.54535 0.0
C1092 C 0.28439 0.29544 0.54698 0.0
C1093 C 0.24612 0.29076 0.55231 0.0
C1094 C 0.22624 0.25573 0.55004 0.0
C1095 C 0.24414 0.22535 0.54215 0.0
C1096 C 0.28409 0.22857 0.53852 0.0
C1097 C 0.30401 0.2635 0.54088 0.0
C1098 C 0.30594 0.45792 0.52223 0.0
C1099 C 0.22016 0.42132 0.5137 0.0
O1100 O 0.24028 0.51242 0.55425 0.0
O1101 O 0.18297 0.50088 0.54538 0.0
O1102 O 0.16677 0.43231 0.5385 0.0
O1103 O 0.20185 0.39203 0.5498 0.0
O1104 O 0.2417 0.44068 0.56979 0.0
O1105 O 0.29973 0.42641 0.56152 0.0
O1106 O 0.29272 0.35931 0.5557 0.0
O1107 O 0.29675 0.35012 0.5325 0.0
O1108 O 0.30117 0.42095 0.51974 0.0
O1109 O 0.29047 0.46556 0.53479 0.0
O1110 O 0.22726 0.39004 0.52138 0.0
O1111 O 0.22522 0.45501 0.52012 0.0
H1112 H 0.13474 0.56144 0.55574 0.0
H1113 H 0.09832 0.57381 0.57823 0.0
H1114 H 0.19585 0.53001 0.60321 0.0
H1115 H 0.23217 0.51803 0.58095 0.0
H1116 H 0.23046 0.31513 0.55713 0.0
H1117 H 0.19572 0.25387 0.55316 0.0
H1118 H 0.29885 0.2059 0.53235 0.0
H1119 H 0.33355 0.26666 0.53675 0.0
Nd1120 Nd 0.44499 0.66459 0.44137 0.0
Nd1121 Nd 0.49314 0.61751 0.441 0.0
C1122 C 0.37462 0.69504 0.43893 0.0
C1123 C 0.35957 0.72094 0.42774 0.0
C1124 C 0.31947 0.72334 0.4249 0.0
C1125 C 0.30622 0.74602 0.41328 0.0
C1126 C 0.33315 0.76615 0.40447 0.0
C1127 C 0.37317 0.76432 0.40767 0.0
C1128 C 0.38629 0.74164 0.41913 0.0
C1129 C 0.50607 0.71871 0.43882 0.0
C1130 C 0.45675 0.61892 0.40939 0.0
C1131 C 0.56045 0.57938 0.43966 0.0
C1132 C 0.60041 0.59495 0.43959 0.0
C1133 C 0.60832 0.63091 0.43276 0.0
C1134 C 0.64235 0.6514 0.43604 0.0
C1135 C 0.66855 0.63646 0.44632 0.0
C1136 C 0.66284 0.59845 0.45181 0.0
C1137 C 0.62882 0.57785 0.44849 0.0
C1138 C 0.42929 0.57821 0.45611 0.0
C1139 C 0.49368 0.65771 0.47044 0.0
O1140 O 0.38322 0.65971 0.43444 0.0
O1141 O 0.40196 0.71039 0.44697 0.0
O1142 O 0.4735 0.72405 0.44571 0.0
O1143 O 0.50655 0.68358 0.43305 0.0
O1144 O 0.44326 0.651 0.41572 0.0
O1145 O 0.47622 0.59584 0.41795 0.0
O1146 O 0.53948 0.58764 0.42826 0.0
O1147 O 0.5411 0.58452 0.45176 0.0
O1148 O 0.44955 0.56452 0.44529 0.0
O1149 O 0.44064 0.61324 0.4577 0.0
O1150 O 0.51959 0.64583 0.4611 0.0
O1151 O 0.4576 0.66094 0.46581 0.0
H1152 H 0.29867 0.70711 0.43143 0.0
H1153 H 0.27521 0.74693 0.41093 0.0
H1154 H 0.39444 0.78015 0.40121 0.0
H1155 H 0.41746 0.73976 0.42113 0.0
H1156 H 0.58681 0.64475 0.42582 0.0
H1157 H 0.64645 0.68049 0.43162 0.0
H1158 H 0.68247 0.58639 0.45988 0.0
H1159 H 0.6232 0.55021 0.45387 0.0
Nd1160 Nd 0.21837 0.70126 0.18975 0.0
Nd1161 Nd 0.2633 0.74834 0.19051 0.0
C1162 C 0.20062 0.6276 0.18462 0.0
C1163 C 0.18884 0.60653 0.17158 0.0
C1164 C 0.19703 0.56653 0.17019 0.0
C1165 C 0.18832 0.54707 0.15725 0.0
C1166 C 0.17158 0.5676 0.14558 0.0
C1167 C 0.16361 0.60778 0.14709 0.0
C1168 C 0.1723 0.62709 0.15996 0.0
C1169 C 0.16189 0.76 0.1875 0.0
C1170 C 0.26436 0.71591 0.15855 0.0
C1171 C 0.29849 0.8171 0.18922 0.0
C1172 C 0.27992 0.85611 0.18941 0.0
C1173 C 0.24959 0.86484 0.17958 0.0
C1174 C 0.22094 0.89227 0.18327 0.0
C1175 C 0.22227 0.91068 0.19681 0.0
C1176 C 0.25615 0.90735 0.20531 0.0
C1177 C 0.28495 0.88009 0.20162 0.0
C1178 C 0.30237 0.68654 0.20655 0.0
C1179 C 0.21559 0.74746 0.21927 0.0
O1180 O 0.23639 0.64101 0.18417 0.0
O1181 O 0.17539 0.65299 0.18977 0.0
O1182 O 0.15699 0.72627 0.19374 0.0
O1183 O 0.1976 0.76254 0.18223 0.0
O1184 O 0.2299 0.70738 0.16413 0.0
O1185 O 0.28907 0.72876 0.1681 0.0
O1186 O 0.29163 0.79568 0.1778 0.0
O1187 O 0.29493 0.7971 0.20124 0.0
O1188 O 0.31671 0.7061 0.19569 0.0
O1189 O 0.26679 0.69727 0.20756 0.0
O1190 O 0.23433 0.77224 0.2111 0.0
O1191 O 0.20918 0.71245 0.21401 0.0
H1192 H 0.21044 0.55051 0.17903 0.0
H1193 H 0.19478 0.51612 0.15636 0.0
H1194 H 0.14988 0.62422 0.13842 0.0
H1195 H 0.16615 0.65812 0.16082 0.0
H1196 H 0.24528 0.84747 0.16987 0.0
H1197 H 0.19546 0.89553 0.17643 0.0
H1198 H 0.2577 0.92153 0.21583 0.0
H1199 H 0.30829 0.87428 0.20926 0.0
Nd1200 Nd 0.19049 0.48216 0.9392 0.0
Nd1201 Nd 0.14126 0.52324 0.94074 0.0
C1202 C 0.26435 0.46593 0.93339 0.0
C1203 C 0.28568 0.4503 0.92085 0.0
C1204 C 0.31219 0.41956 0.92297 0.0
C1205 C 0.32658 0.39869 0.91109 0.0
C1206 C 0.31452 0.40835 0.89696 0.0
C1207 C 0.29056 0.44122 0.89478 0.0
C1208 C 0.27617 0.46207 0.90666 0.0
C1209 C 0.13463 0.42229 0.9374 0.0
C1210 C 0.17301 0.52818 0.90862 0.0
C1211 C 0.07124 0.55605 0.93951 0.0
C1212 C 1.03256 0.53794 0.93865 0.0
C1213 C 1.0282 0.50141 0.93182 0.0
C1214 C 0.99477 0.47913 0.9343 0.0
C1215 C 0.96577 0.49277 0.94387 0.0
C1216 C 0.96813 0.53139 0.94917 0.0
C1217 C 1.00147 0.55378 0.94661 0.0
C1218 C 0.20079 0.56614 0.95645 0.0
C1219 C 0.14796 0.47477 0.96914 0.0
O1220 O 0.24925 0.501 0.93197 0.0
O1221 O 0.24062 0.44122 0.93969 0.0
O1222 O 0.16875 0.42006 0.94348 0.0
O1223 O 0.13004 0.45751 0.93198 0.0
O1224 O 0.18279 0.49364 0.91375 0.0
O1225 O 0.15951 0.5516 0.91856 0.0
O1226 O 0.09357 0.55088 0.92818 0.0
O1227 O 0.08987 0.55035 0.95169 0.0
O1228 O 0.17908 0.57954 0.94605 0.0
O1229 O 0.1931 0.52988 0.95727 0.0
O1230 O 0.12055 0.49031 0.96118 0.0
O1231 O 0.18323 0.47327 0.96363 0.0
H1232 H 0.31995 0.41026 0.93385 0.0
H1233 H 0.34548 0.37372 0.91299 0.0
H1234 H 0.2807 0.44914 0.884 0.0
H1235 H 0.25597 0.48593 0.90474 0.0
H1236 H 1.05188 0.48866 0.92555 0.0
H1237 H 0.99344 0.4497 0.92996 0.0
H1238 H 0.94643 0.54276 0.95667 0.0
H1239 H 1.00436 0.58194 0.9519 0.0
Nd1240 Nd 0.40013 0.45811 0.687 0.0
Nd1241 Nd 0.3615 0.40519 0.6928 0.0
C1242 C 0.42354 0.52702 0.67734 0.0
C1243 C 0.44544 0.53793 0.66425 0.0
C1244 C 0.48134 0.55716 0.66566 0.0
C1245 C 0.50634 0.56035 0.65374 0.0
C1246 C 0.49566 0.54433 0.64027 0.0
C1247 C 0.45857 0.52755 0.63864 0.0
C1248 C 0.43361 0.52439 0.65053 0.0
C1249 C 0.45987 0.39971 0.68707 0.0
C1250 C 0.34775 0.43368 0.65986 0.0
C1251 C 0.32861 0.33508 0.69134 0.0
C1252 C 0.34718 0.29624 0.69044 0.0
C1253 C 0.37934 0.2901 0.68111 0.0
C1254 C 0.40613 0.26025 0.68403 0.0
C1255 C 0.40128 0.2369 0.69639 0.0
C1256 C 0.36598 0.23892 0.70422 0.0
C1257 C 0.33903 0.26857 0.70126 0.0
C1258 C 0.32456 0.46311 0.71067 0.0
C1259 C 0.41297 0.42911 0.7183 0.0
O1260 O 0.38839 0.51348 0.67531 0.0
O1261 O 0.4431 0.50661 0.68683 0.0
O1262 O 0.46316 0.43523 0.69179 0.0
O1263 O 0.42424 0.3948 0.68249 0.0
O1264 O 0.38418 0.44282 0.66264 0.0
O1265 O 0.32768 0.42408 0.67153 0.0
O1266 O 0.33301 0.35789 0.68012 0.0
O1267 O 0.33447 0.35361 0.7035 0.0
O1268 O 0.33096 0.42701 0.71416 0.0
O1269 O 0.33756 0.46819 0.69753 0.0
O1270 O 0.40556 0.39673 0.71131 0.0
O1271 O 0.40578 0.46194 0.71155 0.0
H1272 H 0.49089 0.56786 0.67615 0.0
H1273 H 0.53457 0.57411 0.65516 0.0
H1274 H 0.44968 0.51487 0.62838 0.0
H1275 H 0.40599 0.50953 0.64908 0.0
H1276 H 0.38617 0.31072 0.67253 0.0
H1277 H 0.43286 0.25841 0.67772 0.0
H1278 H 0.36166 0.22109 0.71383 0.0
H1279 H 0.31429 0.27258 0.70851 0.0
H1280 H 0.20658 0.11787 0.49147 0.0
H1281 H 0.12385 0.21023 0.48289 0.0
H1282 H 0.13216 0.23513 0.50771 0.0
H1283 H 0.175 0.2391 0.52884 0.0
H1284 H 0.25956 0.14766 0.53698 0.0
H1285 H 0.23715 0.11255 0.51546 0.0
C1286 C 0.18966 0.14283 0.49523 0.0
C1287 C 0.16557 0.16312 0.48549 0.0
C1288 C 0.19499 0.15697 0.50932 0.0
C1289 C 0.14293 0.19474 0.49032 0.0
C1290 C 0.1478 0.20892 0.50444 0.0
C1291 C 0.18737 0.2106 0.52637 0.0
C1292 C 0.21996 0.19666 0.53417 0.0
C1293 C 0.17546 0.19152 0.5137 0.0
C1294 C 0.23519 0.15946 0.53087 0.0
C1295 C 0.22265 0.13959 0.51851 0.0
H1296 H 0.26888 0.94637 0.74017 0.0
H1297 H 0.17233 0.86667 0.73609 0.0
H1298 H 0.14884 0.88546 0.76034 0.0
H1299 H 0.14672 0.93746 0.77869 0.0
H1300 H 0.24074 1.02107 0.78125 0.0
H1301 H 0.27568 0.98671 0.76186 0.0
C1302 C 0.24357 0.93206 0.74486 0.0
C1303 C 0.22169 0.90601 0.73641 0.0
C1304 C 0.22984 0.94403 0.75844 0.0
C1305 C 0.18923 0.88711 0.74246 0.0
C1306 C 0.17576 0.8981 0.75625 0.0
C1307 C 0.17575 0.94702 0.77552 0.0
C1308 C 0.19083 0.98228 0.78107 0.0
C1309 C 0.19444 0.92845 0.76384 0.0
C1310 C 0.22843 0.99434 0.77692 0.0
C1311 C 0.24814 0.97495 0.76575 0.0
H1312 H 0.46423 1.00855 0.99002 0.0
H1313 H 0.51195 0.89338 0.98311 0.0
H1314 H 0.49382 0.87462 1.00794 0.0
H1315 H 0.44926 0.8858 1.02823 0.0
H1316 H 0.39123 0.9971 1.03312 0.0
H1317 H 0.42911 1.02341 1.01268 0.0
C1318 C 0.47197 0.97993 0.99426 0.0
C1319 C 0.48935 0.95226 0.985 0.0
C1320 C 0.45882 0.9687 1.00806 0.0
C1321 C 0.49892 0.91503 0.99025 0.0
C1322 C 0.48813 0.9043 1.00434 0.0
C1323 C 0.44635 0.91638 1.02529 0.0
C1324 C 0.41774 0.93962 1.03214 0.0
C1325 C 0.46587 0.9301 1.01293 0.0
C1326 C 0.41324 0.97886 1.02798 0.0
C1327 C 0.4345 0.99364 1.01621 0.0
H1328 H 0.4018 0.19284 0.28284 0.0
H1329 H 0.52431 0.22088 0.28 0.0
H1330 H 0.51369 0.25671 0.25766 0.0
H1331 H 0.47351 0.26139 0.23567 0.0
H1332 H 0.35114 0.23303 0.23794 0.0
H1333 H 0.35734 0.216 0.26362 0.0
C1334 C 0.42556 0.2087 0.2777 0.0
C1335 C 0.46363 0.20445 0.28302 0.0
C1336 C 0.41948 0.22794 0.26444 0.0
C1337 C 0.49455 0.2247 0.2763 0.0
C1338 C 0.48867 0.24445 0.26329 0.0
C1339 C 0.44802 0.25329 0.24205 0.0
C1340 C 0.41225 0.2476 0.23514 0.0
C1341 C 0.45188 0.24359 0.25675 0.0
C1342 C 0.37905 0.23723 0.24325 0.0
C1343 C 0.38262 0.2273 0.25787 0.0
H1344 H 0.11648 0.90761 0.24934 0.0
H1345 H 0.14033 1.03106 0.24801 0.0
H1346 H 0.16283 1.02574 0.22291 0.0
H1347 H 0.19444 0.98202 0.20501 0.0
H1348 H 0.17065 0.85845 0.20659 0.0
H1349 H 0.12802 0.8676 0.22753 0.0
C1350 C 0.12421 0.93358 0.24319 0.0
C1351 C 0.12744 0.96944 0.25036 0.0
C1352 C 0.13791 0.93004 0.22887 0.0
C1353 C 0.13769 1.00314 0.24251 0.0
C1354 C 0.15114 1.0 0.22825 0.0
C1355 C 0.17811 0.95764 0.20949 0.0
C1356 C 0.18559 0.91974 0.20445 0.0
C1357 C 0.1543 0.96304 0.22178 0.0
C1358 C 0.16473 0.88799 0.21028 0.0
C1359 C 0.14082 0.89311 0.2224 0.0
H1360 H 0.50579 0.93898 0.45747 0.0
H1361 H 0.39389 0.99542 0.45227 0.0
H1362 H 0.36791 0.95838 0.47298 0.0
H1363 H 0.3823 0.92274 0.49553 0.0
H1364 H 0.49772 0.87635 0.50275 0.0
H1365 H 0.51734 0.89565 0.47809 0.0
C1366 C 0.47523 0.94182 0.46047 0.0
C1367 C 0.45156 0.9695 0.45336 0.0
C1368 C 0.46164 0.92277 0.47294 0.0
C1369 C 0.41237 0.97401 0.45758 0.0
C1370 C 0.39778 0.95323 0.46949 0.0
C1371 C 0.4113 0.91585 0.49143 0.0
C1372 C 0.43869 0.89826 0.50068 0.0
C1373 C 0.42286 0.92941 0.47772 0.0
C1374 C 0.47633 0.88959 0.4956 0.0
C1375 C 0.48751 0.90096 0.48161 0.0
H1376 H 0.41698 0.16183 0.70436 0.0
H1377 H 0.46081 0.27968 0.70645 0.0
H1378 H 0.502 0.2626 0.72698 0.0
H1379 H 0.50975 0.21937 0.74819 0.0
H1380 H 0.46659 0.10139 0.74622 0.0
H1381 H 0.4414 0.11271 0.72178 0.0
C1382 C 0.43709 0.18304 0.70889 0.0
C1383 C 0.43591 0.22184 0.70402 0.0
C1384 C 0.46004 0.1732 0.72096 0.0
C1385 C 0.46178 0.24943 0.70993 0.0
C1386 C 0.48487 0.23986 0.72185 0.0
C1387 C 0.4967 0.19571 0.74204 0.0
C1388 C 0.48929 0.15995 0.74885 0.0
C1389 C 0.48209 0.2026 0.72805 0.0
C1390 C 0.47222 0.12926 0.74102 0.0
C1391 C 0.45756 0.13581 0.72712 0.0
H1392 H 0.25996 0.16306 0.99444 0.0
H1393 H 0.17316 0.25335 1.00036 0.0
H1394 H 0.14948 0.24266 0.97553 0.0
H1395 H 0.1449 0.1978 0.95497 0.0
H1396 H 0.23058 0.10587 0.94949 0.0
H1397 H 0.26477 0.12826 0.97122 0.0
C1398 C 0.23637 0.18087 0.99013 0.0
C1399 C 0.2173 0.20802 0.99913 0.0
C1400 C 0.22301 0.17433 0.97603 0.0
C1401 C 0.18762 0.23188 0.99353 0.0
C1402 C 0.17418 0.22571 0.9794 0.0
C1403 C 0.17205 0.18367 0.95808 0.0
C1404 C 0.18461 0.14945 0.9509 0.0
C1405 C 0.19043 0.19565 0.97087 0.0
C1406 C 0.21994 0.13171 0.95507 0.0
C1407 C 0.23922 0.14426 0.96755 0.0
H1408 H 0.94818 1.02402 0.7409 0.0
H1409 H 1.02301 0.92624 0.75089 0.0
H1410 H 1.01354 0.90005 0.72635 0.0
H1411 H 0.96885 0.89609 0.70577 0.0
H1412 H 0.88879 0.991 0.69703 0.0
H1413 H 0.91641 1.02829 0.71714 0.0
C1414 C 0.96351 0.99777 0.73743 0.0
C1415 C 0.98547 0.97638 0.74753 0.0
C1416 C 0.95652 0.98234 0.72363 0.0
C1417 C 1.00583 0.9428 0.74315 0.0
C1418 C 1.00009 0.92777 0.7292 0.0
C1419 C 0.95874 0.92573 0.70775 0.0
C1420 C 0.92594 0.94035 0.70027 0.0
C1421 C 0.97327 0.94591 0.71979 0.0
C1422 C 0.91341 0.97888 0.7029 0.0
C1423 C 0.92895 1.00001 0.71447 0.0
H1424 H 0.97538 0.2514 0.49709 0.0
H1425 H 0.8537 0.22139 0.49372 0.0
H1426 H 0.86495 0.19257 0.46975 0.0
H1427 H 0.91298 0.16195 0.45307 0.0
H1428 H 1.03475 0.19161 0.45714 0.0
H1429 H 1.02004 0.23602 0.47702 0.0
C1430 C 0.95114 0.24043 0.4907 0.0
C1431 C 0.91403 0.23797 0.49698 0.0
C1432 C 0.95802 0.22355 0.47707 0.0
C1433 C 0.88257 0.22342 0.48889 0.0
C1434 C 0.88907 0.20661 0.47528 0.0
C1435 C 0.93577 0.17964 0.45791 0.0
C1436 C 0.9747 0.17413 0.45361 0.0
C1437 C 0.92718 0.20432 0.4697 0.0
C1438 C 1.00441 0.19648 0.46003 0.0
C1439 C 0.99612 0.22134 0.47159 0.0
H1440 H 0.67628 0.24551 0.20521 0.0
H1441 H 0.73962 0.13681 0.20133 0.0
H1442 H 0.70078 0.10892 0.22118 0.0
H1443 H 0.66379 0.12276 0.24345 0.0
H1444 H 0.6105 0.23578 0.2496 0.0
H1445 H 0.62901 0.25468 0.22482 0.0
C1446 C 0.68015 0.21506 0.20821 0.0
C1447 C 0.71069 0.19316 0.2019 0.0
C1448 C 0.65991 0.2005 0.22028 0.0
C1449 C 0.71622 0.15406 0.20608 0.0
C1450 C 0.69436 0.13837 0.21752 0.0
C1451 C 0.6548 0.15081 0.23903 0.0
C1452 C 0.63595 0.17798 0.2481 0.0
C1453 C 0.66826 0.16231 0.22531 0.0
C1454 C 0.62471 0.21448 0.24262 0.0
C1455 C 0.63578 0.22536 0.22856 0.0
H1456 H 0.65011 0.91692 0.95354 0.0
H1457 H 0.74883 0.99449 0.94947 0.0
H1458 H 0.77808 0.96566 0.97117 0.0
H1459 H 0.7644 0.93431 0.99445 0.0
H1460 H 0.66297 0.86154 0.99982 0.0
H1461 H 0.6455 0.87224 0.97425 0.0
C1462 C 0.67904 0.92605 0.95692 0.0
C1463 C 0.69694 0.95847 0.9502 0.0
C1464 C 0.69424 0.9111 0.96987 0.0
C1465 C 0.73439 0.96998 0.95465 0.0
C1466 C 0.75077 0.95387 0.96715 0.0
C1467 C 0.73944 0.91956 0.98982 0.0
C1468 C 0.71456 0.89783 0.99883 0.0
C1469 C 0.72929 0.92688 0.97541 0.0
C1470 C 0.68224 0.87858 0.99293 0.0
C1471 C 0.67225 0.88492 0.97839 0.0
H1472 H 0.96484 0.12364 0.98892 0.0
H1473 H 1.01581 0.23645 0.98054 0.0
H1474 H 1.00716 0.25454 1.00615 0.0
H1475 H 0.96958 0.24432 1.02834 0.0
H1476 H 0.90798 0.1359 1.03512 0.0
H1477 H 0.93703 0.10911 1.01289 0.0
C1478 C 0.97538 0.15154 0.99293 0.0
C1479 C 0.99095 0.17882 0.98313 0.0
C1480 C 0.96777 0.16246 1.00731 0.0
C1481 C 1.00408 0.21514 0.98809 0.0
C1482 C 0.99877 0.22547 1.00265 0.0
C1483 C 0.96404 0.21415 1.02535 0.0
C1484 C 0.9365 0.1921 1.03324 0.0
C1485 C 0.97844 0.20026 1.01207 0.0
C1486 C 0.92904 0.15329 1.02914 0.0
C1487 C 0.94529 0.13823 1.01637 0.0
H1488 H 0.65332 0.2498 0.73364 0.0
H1489 H 0.77778 0.23763 0.73833 0.0
H1490 H 0.76944 0.21018 0.76259 0.0
H1491 H 0.72529 0.17441 0.77926 0.0
H1492 H 0.60076 0.18857 0.77467 0.0
H1493 H 0.6102 0.23192 0.75398 0.0
C1494 C 0.67853 0.24308 0.74034 0.0
C1495 C 0.71596 0.24464 0.73426 0.0
C1496 C 0.67335 0.22726 0.75425 0.0
C1497 C 0.74866 0.23585 0.74283 0.0
C1498 C 0.74387 0.21999 0.75668 0.0
C1499 C 0.70054 0.18861 0.77412 0.0
C1500 C 0.66255 0.17851 0.77831 0.0
C1501 C 0.70618 0.2131 0.76206 0.0
C1502 C 0.63032 0.19655 0.77161 0.0
C1503 C 0.63566 0.22092 0.75968 0.0
H1504 H 0.63593 0.91855 0.4836 0.0
H1505 H 0.67811 1.03611 0.48876 0.0
H1506 H 0.70173 1.02102 0.51305 0.0
H1507 H 0.72601 0.96957 0.52939 0.0
H1508 H 0.68739 0.85096 0.52335 0.0
H1509 H 0.64574 0.87095 0.50328 0.0
C1510 C 0.64846 0.94118 0.4904 0.0
C1511 C 0.65591 0.9781 0.48453 0.0
C1512 C 0.66322 0.93174 0.50416 0.0
C1513 C 0.67249 1.0074 0.49319 0.0
C1514 C 0.68628 0.99866 0.50702 0.0
C1515 C 0.70696 0.9487 0.52407 0.0
C1516 C 0.70929 0.90913 0.52778 0.0
C1517 C 0.68428 0.96021 0.51216 0.0
C1518 C 0.68517 0.88181 0.5208 0.0
C1519 C 0.66183 0.89312 0.50916 0.0
H1520 H 0.91219 0.98098 0.28221 0.0
H1521 H 1.02713 0.93017 0.27844 0.0
H1522 H 1.0075 0.89419 0.25686 0.0
H1523 H 0.963 0.8915 0.23576 0.0
H1524 H 0.8507 0.94793 0.23877 0.0
H1525 H 0.86315 0.96675 0.26375 0.0
C1526 C 0.93223 0.96066 0.27698 0.0
C1527 C 0.97083 0.95813 0.28186 0.0
C1528 C 0.92137 0.94175 0.26413 0.0
C1529 C 0.99691 0.93194 0.27504 0.0
C1530 C 0.98593 0.91193 0.2625 0.0
C1531 C 0.94087 0.90654 0.24215 0.0
C1532 C 0.90614 0.91875 0.23553 0.0
C1533 C 0.94903 0.91864 0.25643 0.0
C1534 C 0.87764 0.93852 0.24372 0.0
C1535 C 0.88486 0.94946 0.25799 0.0
H1536 H 0.67764 0.73648 1.03245 0.0
H1537 H 0.75744 0.64008 1.03893 0.0
H1538 H 0.73087 0.60722 1.01755 0.0
H1539 H 0.69775 0.6149 0.99413 0.0
H1540 H 0.62266 0.71404 0.9866 0.0
H1541 H 0.63379 0.73687 1.01155 0.0
C1542 C 0.68794 0.70742 1.02964 0.0
C1543 C 0.71997 0.69098 1.03707 0.0
C1544 C 0.67404 0.6899 1.01694 0.0
C1545 C 0.73315 0.65343 1.03323 0.0
C1546 C 0.71827 0.6349 1.02094 0.0
C1547 C 0.68323 0.64099 0.99814 0.0
C1548 C 0.6604 0.66352 0.98868 0.0
C1549 C 0.69082 0.65428 1.0122 0.0
C1550 C 0.64064 0.69667 0.99383 0.0
C1551 C 0.64721 0.70971 1.00801 0.0
H1552 H 0.63642 0.43097 0.27849 0.0
H1553 H 0.73234 0.51063 0.28536 0.0
H1554 H 0.76683 0.48264 0.2645 0.0
H1555 H 0.76104 0.44804 0.24131 0.0
H1556 H 0.6642 0.3704 0.23385 0.0
H1557 H 0.63869 0.38448 0.25829 0.0
C1558 C 0.6657 0.44098 0.27592 0.0
C1559 C 0.68144 0.47354 0.28322 0.0
C1560 C 0.68454 0.42577 0.26362 0.0
C1561 C 0.71936 0.48615 0.27969 0.0
C1562 C 0.7389 0.47037 0.26771 0.0
C1563 C 0.73498 0.43339 0.24525 0.0
C1564 C 0.71381 0.40905 0.2359 0.0
C1565 C 0.72042 0.44221 0.25907 0.0
C1566 C 0.68054 0.38951 0.24098 0.0
C1567 C 0.66596 0.39775 0.25486 0.0
H1568 H 0.96818 0.39342 0.53031 0.0
H1569 H 0.9 0.499 0.5351 0.0
H1570 H 0.93264 0.52715 0.51389 0.0
H1571 H 0.96442 0.51263 0.49066 0.0
H1572 H 1.02633 0.40412 0.48453 0.0
H1573 H 1.01335 0.38611 0.50991 0.0
C1574 C 0.96205 0.42343 0.52725 0.0
C1575 C 0.93125 0.44392 0.53405 0.0
C1576 C 0.97917 0.43824 0.51459 0.0
C1577 C 0.9233 0.48263 0.52988 0.0
C1578 C 0.94164 0.49847 0.51767 0.0
C1579 C 0.97638 0.48586 0.49511 0.0
C1580 C 0.99569 0.45938 0.48593 0.0
C1581 C 0.96716 0.47522 0.50936 0.0
C1582 C 1.01132 0.42471 0.49157 0.0
C1583 C 1.00356 0.41439 0.50599 0.0
H1584 H 0.86837 0.70454 0.74294 0.0
H1585 H 0.97406 0.77038 0.73644 0.0
H1586 H 0.99349 0.7576 0.76164 0.0
H1587 H 0.98882 0.71228 0.78206 0.0
H1588 H 0.88765 0.6383 0.78683 0.0
H1589 H 0.85711 0.67025 0.76594 0.0
C1590 C 0.89483 0.71734 0.74732 0.0
C1591 C 0.92006 0.73798 0.73806 0.0
C1592 C 0.90674 0.70766 0.76139 0.0
C1593 C 0.95431 0.7546 0.74355 0.0
C1594 C 0.96553 0.74682 0.75786 0.0
C1595 C 0.95926 0.70452 0.77901 0.0
C1596 C 0.94062 0.6727 0.78583 0.0
C1597 C 0.94325 0.72114 0.76647 0.0
C1598 C 0.90256 0.66252 0.78164 0.0
C1599 C 0.88535 0.68049 0.76962 0.0
H1600 H 0.6857 0.40624 0.70442 0.0
H1601 H 0.76789 0.50178 0.7027 0.0
H1602 H 0.74161 0.5274 0.72552 0.0
H1603 H 0.70812 0.51203 0.74828 0.0
H1604 H 0.6277 0.41566 0.75071 0.0
H1605 H 0.64047 0.40038 0.725 0.0
C1606 C 0.69664 0.43373 0.70861 0.0
C1607 C 0.7294 0.45162 0.70209 0.0
C1608 C 0.68259 0.44714 0.72202 0.0
C1609 C 0.74316 0.48721 0.70769 0.0
C1610 C 0.72843 0.50156 0.72079 0.0
C1611 C 0.69243 0.48859 0.74303 0.0
C1612 C 0.66762 0.46455 0.75123 0.0
C1613 C 0.70022 0.48011 0.72848 0.0
C1614 C 0.64716 0.43422 0.74447 0.0
C1615 C 0.65457 0.42554 0.72985 0.0
H1616 H 0.98762 0.42254 0.95456 0.0
H1617 H 0.88855 0.50064 0.9515 0.0
H1618 H 0.86029 0.47154 0.97337 0.0
H1619 H 0.8743 0.43855 0.99637 0.0
H1620 H 0.9751 0.36367 1.00032 0.0
H1621 H 0.9925 0.37662 0.97485 0.0
C1622 C 0.95889 0.43192 0.95821 0.0
C1623 C 0.94072 0.46461 0.95175 0.0
C1624 C 0.94402 0.41651 0.97117 0.0
C1625 C 0.90339 0.47612 0.95654 0.0
C1626 C 0.88751 0.4598 0.96912 0.0
C1627 C 0.89928 0.42411 0.99146 0.0
C1628 C 0.92401 0.40106 1.00005 0.0
C1629 C 0.90921 0.43234 0.97707 0.0
C1630 C 0.95606 0.38186 0.99376 0.0
C1631 C 0.96598 0.38941 0.97928 0.0
H1632 H 0.95074 0.7488 0.20932 0.0
H1633 H 0.88351 0.64422 0.20196 0.0
H1634 H 0.91735 0.6117 0.22204 0.0
H1635 H 0.95281 0.61972 0.24495 0.0
H1636 H 1.01262 0.72752 0.254 0.0
H1637 H 0.99636 0.75203 0.22968 0.0
C1638 C 0.94495 0.71825 0.21164 0.0
C1639 C 0.91475 0.69882 0.20424 0.0
C1640 C 0.96281 0.70077 0.22367 0.0
C1641 C 0.90665 0.6596 0.20757 0.0
C1642 C 0.92571 0.64123 0.21911 0.0
C1643 C 0.96342 0.64795 0.24129 0.0
C1644 C 0.98354 0.67207 0.25103 0.0
C1645 C 0.9519 0.66245 0.22775 0.0
C1646 C 0.9973 0.70861 0.24649 0.0
C1647 C 0.98757 0.72267 0.2327 0.0
H1648 H 0.77191 0.69321 0.4961 0.0
H1649 H 0.66911 0.76309 0.50391 0.0
H1650 H 0.64632 0.75002 0.47911 0.0
H1651 H 0.64781 0.70468 0.45853 0.0
H1652 H 0.746 0.62667 0.45277 0.0
H1653 H 0.77941 0.65753 0.47323 0.0
C1654 C 0.74529 0.70669 0.49208 0.0
C1655 C 0.72188 0.72869 0.50159 0.0
C1656 C 0.7315 0.69696 0.47829 0.0
C1657 C 0.68743 0.7462 0.49659 0.0
C1658 C 0.67433 0.73833 0.48252 0.0
C1659 C 0.67729 0.69567 0.46135 0.0
C1660 C 0.69443 0.66325 0.45433 0.0
C1661 C 0.69491 0.71169 0.47368 0.0
C1662 C 0.73235 0.65144 0.45813 0.0
C1663 C 0.75118 0.66882 0.46988 0.0
H1664 H 0.42094 0.51729 0.24438 0.0
H1665 H 0.50563 0.42515 0.25007 0.0
H1666 H 0.49371 0.40241 0.22515 0.0
H1667 H 0.4477 0.39999 0.20483 0.0
H1668 H 0.35999 0.49014 0.20012 0.0
H1669 H 0.38578 0.5239 0.22143 0.0
C1670 C 0.43762 0.49301 0.23995 0.0
C1671 C 0.46341 0.47222 0.24892 0.0
C1672 C 0.42992 0.4799 0.22589 0.0
C1673 C 0.48544 0.44118 0.24324 0.0
C1674 C 0.47842 0.42818 0.22907 0.0
C1675 C 0.43534 0.42797 0.20803 0.0
C1676 C 0.40137 0.44217 0.20117 0.0
C1677 C 0.44909 0.44602 0.22066 0.0
C1678 C 0.38572 0.47843 0.20543 0.0
C1679 C 0.40021 0.49746 0.21767 0.0
H1680 H 0.36108 0.698 0.99317 0.0
H1681 H 0.46268 0.76975 0.99976 0.0
H1682 H 0.48713 0.75208 0.97552 0.0
H1683 H 0.48826 0.70104 0.95685 0.0
H1684 H 0.39053 0.62253 0.95252 0.0
H1685 H 0.3546 0.65906 0.9711 0.0
C1686 C 0.38772 0.71099 0.98898 0.0
C1687 C 0.4106 0.73437 0.99811 0.0
C1688 C 0.40226 0.699 0.97551 0.0
C1689 C 0.44489 0.75153 0.99279 0.0
C1690 C 0.45894 0.74107 0.97903 0.0
C1691 C 0.45829 0.69325 0.95942 0.0
C1692 C 0.44219 0.65876 0.95362 0.0
C1693 C 0.43922 0.71257 0.97084 0.0
C1694 C 0.40345 0.64877 0.957 0.0
C1695 C 0.38322 0.66934 0.96775 0.0
H1696 H 0.14639 0.74021 0.75121 0.0
H1697 H 0.13629 0.61592 0.74508 0.0
H1698 H 0.15318 0.62281 0.71934 0.0
H1699 H 0.18526 0.66324 0.70036 0.0
H1700 H 0.19714 0.78715 0.70749 0.0
H1701 H 0.16439 0.78185 0.73085 0.0
C1702 C 0.14612 0.71502 0.74401 0.0
C1703 C 0.14052 0.67779 0.7498 0.0
C1704 C 0.15658 0.71921 0.72941 0.0
C1705 C 0.14056 0.64496 0.74065 0.0
C1706 C 0.15056 0.64885 0.726 0.0
C1707 C 0.17885 0.68909 0.70678 0.0
C1708 C 0.19255 0.72564 0.70216 0.0
C1709 C 0.1608 0.68565 0.72046 0.0
C1710 C 0.18536 0.75901 0.71068 0.0
C1711 C 0.16726 0.75592 0.72414 0.0
H1712 H 0.2618 0.46091 0.49419 0.0
H1713 H 0.1677 0.37816 0.49824 0.0
H1714 H 0.15149 0.38748 0.47247 0.0
H1715 H 0.15528 0.43067 0.45139 0.0
H1716 H 0.24864 0.5149 0.44777 0.0
H1717 H 0.27593 0.49164 0.47071 0.0
C1718 C 0.23853 0.4441 0.48928 0.0
C1719 C 0.21523 0.41972 0.49796 0.0
C1720 C 0.22961 0.44974 0.47464 0.0
C1721 C 0.18549 0.39748 0.49164 0.0
C1722 C 0.17633 0.40285 0.47698 0.0
C1723 C 0.18267 0.44274 0.45516 0.0
C1724 C 0.19913 0.47552 0.44816 0.0
C1725 C 0.19696 0.4305 0.46864 0.0
C1726 C 0.2349 0.49035 0.45319 0.0
C1727 C 0.25019 0.47739 0.46637 0.0
H1728 H 0.43094 0.64006 0.53071 0.0
H1729 H 0.47772 0.75657 0.53333 0.0
H1730 H 0.52014 0.74421 0.51273 0.0
H1731 H 0.52401 0.70936 0.48944 0.0
H1732 H 0.47462 0.59418 0.48585 0.0
H1733 H 0.45348 0.59632 0.51117 0.0
C1734 C 0.45218 0.66171 0.52726 0.0
C1735 C 0.45115 0.69915 0.53342 0.0
C1736 C 0.47495 0.65507 0.5148 0.0
C1737 C 0.47862 0.72726 0.52894 0.0
C1738 C 0.50226 0.72052 0.51687 0.0
C1739 C 0.51071 0.68399 0.49452 0.0
C1740 C 0.49976 0.6522 0.48596 0.0
C1741 C 0.49792 0.68588 0.50899 0.0
C1742 C 0.48259 0.61921 0.49241 0.0
C1743 C 0.4703 0.62053 0.50684 0.0
H1744 H 0.22448 0.68596 0.28061 0.0
H1745 H 0.10262 0.71767 0.27908 0.0
H1746 H 0.11417 0.75899 0.25809 0.0
H1747 H 0.15453 0.76789 0.23623 0.0
H1748 H 0.27589 0.73446 0.23701 0.0
H1749 H 0.2695 0.71247 0.26214 0.0
C1750 C 0.20109 0.70366 0.2761 0.0
C1751 C 0.16291 0.69902 0.28133 0.0
C1752 C 0.2077 0.72613 0.26359 0.0
C1753 C 0.13245 0.72161 0.27542 0.0
C1754 C 0.13888 0.74465 0.26319 0.0
C1755 C 0.17988 0.75781 0.24224 0.0
C1756 C 0.21534 0.75215 0.23498 0.0
C1757 C 0.17573 0.74464 0.25657 0.0
C1758 C 0.24828 0.7389 0.2426 0.0
C1759 C 0.24454 0.72598 0.2569 0.0
H1760 H 0.17685 0.51652 0.99088 0.0
H1761 H 0.10944 0.41358 0.98145 0.0
H1762 H 0.12303 0.38777 1.0058 0.0
H1763 H 0.16874 0.38713 1.02618 0.0
H1764 H 0.2428 0.48688 1.03399 0.0
H1765 H 0.2113 0.52214 1.01408 0.0
C1766 C 0.16397 0.48918 0.99446 0.0
C1767 C 0.14262 0.4666 0.98458 0.0
C1768 C 0.17377 0.47385 1.00806 0.0
C1769 C 0.12583 0.43128 0.98905 0.0
C1770 C 0.13401 0.41644 1.00287 0.0
C1771 C 0.17675 0.41725 1.02398 0.0
C1772 C 0.20861 0.43418 1.0313 0.0
C1773 C 0.16011 0.43632 1.01203 0.0
C1774 C 0.21875 0.47315 1.02832 0.0
C1775 C 0.20098 0.49314 1.01688 0.0
H1776 H 0.37972 0.47605 0.73773 0.0
H1777 H 0.46459 0.38348 0.73345 0.0
H1778 H 0.4853 0.39401 0.75872 0.0
H1779 H 0.48712 0.43862 0.77958 0.0
H1780 H 0.40012 0.52986 0.78378 0.0
H1781 H 0.37012 0.50886 0.76107 0.0
C1782 C 0.40176 0.45729 0.74252 0.0
C1783 C 0.42119 0.4296 0.73387 0.0
C1784 C 0.4127 0.46309 0.75693 0.0
C1785 C 0.44972 0.40528 0.74001 0.0
C1786 C 0.46142 0.41131 0.75439 0.0
C1787 C 0.4605 0.45285 0.77595 0.0
C1788 C 0.44663 0.48672 0.78308 0.0
C1789 C 0.44419 0.44134 0.7627 0.0
C1790 C 0.4119 0.50442 0.77826 0.0
C1791 C 0.39501 0.49268 0.76522 0.0
H1792 H 0.15694 0.28607 0.44073 0.0
H1793 H 1.06431 0.20384 0.43353 0.0
H1794 H 1.01645 0.25782 0.43355 0.0
H1795 H 0.99926 0.33003 0.43629 0.0
H1796 H 0.0929 0.41311 0.44024 0.0
H1797 H 0.1405 0.3589 0.44068 0.0
C1798 C 0.12632 0.27954 0.43903 0.0
C1799 C 0.11509 0.23898 0.43737 0.0
C1800 C 0.09847 0.31196 0.43845 0.0
C1801 C 0.07474 0.2333 0.43501 0.0
C1802 C 1.04706 0.26481 0.43501 0.0
C1803 C 1.03012 0.33674 0.43706 0.0
C1804 C 1.0414 0.37737 0.4382 0.0
C1805 C 1.05821 0.30454 0.43682 0.0
C1806 C 0.08221 0.38349 0.43918 0.0
C1807 C 0.10981 0.35188 0.43952 0.0
H1808 H 1.03043 0.76605 0.7087 0.0
H1809 H 0.989 0.79075 0.66557 0.0
H1810 H 1.04815 0.83008 0.66089 0.0
H1811 H 0.1142 0.8589 0.66904 0.0
H1812 H 0.14923 0.83954 0.7133 0.0
H1813 H 0.09192 0.79828 0.71729 0.0
C1814 C 1.03384 0.78004 0.69821 0.0
C1815 C 1.00369 0.77422 0.68755 0.0
C1816 C 0.06827 0.80388 0.69564 0.0
C1817 C 1.01024 0.79381 0.67418 0.0
C1818 C 1.04482 0.81652 0.67145 0.0
C1819 C 0.11007 0.84495 0.67949 0.0
C1820 C 0.13922 0.85122 0.69062 0.0
C1821 C 0.07465 0.82181 0.68203 0.0
C1822 C 0.12999 0.83429 0.70421 0.0
C1823 C 0.09635 0.81069 0.70658 0.0
H1824 H 0.49133 0.82761 0.93697 0.0
H1825 H 0.58547 0.9108 0.93606 0.0
H1826 H 0.63305 0.85673 0.93658 0.0
H1827 H 0.64951 0.78433 0.93818 0.0
H1828 H 0.55567 0.70092 0.93726 0.0
H1829 H 0.50797 0.75494 0.93653 0.0
C1830 C 0.52226 0.83434 0.93668 0.0
C1831 C 0.53374 0.87502 0.9363 0.0
C1832 C 0.55023 0.80207 0.93671 0.0
C1833 C 0.5746 0.88116 0.93606 0.0
C1834 C 0.6022 0.84962 0.93648 0.0
C1835 C 0.61864 0.77751 0.93761 0.0
C1836 C 0.60727 0.7368 0.93765 0.0
C1837 C 0.59069 0.8097 0.93689 0.0
C1838 C 0.56646 0.73056 0.93701 0.0
C1839 C 0.5388 0.76209 0.93669 0.0
H1840 H 0.54847 0.24025 0.18623 0.0
H1841 H 0.46624 0.33578 0.18687 0.0
H1842 H 0.52087 0.38247 0.18754 0.0
H1843 H 0.5938 0.39765 0.18863 0.0
H1844 H 0.67559 0.30214 0.18617 0.0
H1845 H 0.62096 0.25553 0.18544 0.0
C1846 C 0.54205 0.2713 0.18631 0.0
C1847 C 0.50155 0.28341 0.18633 0.0
C1848 C 0.57455 0.29873 0.18642 0.0
C1849 C 0.49578 0.32443 0.18657 0.0
C1850 C 0.52764 0.35152 0.18707 0.0
C1851 C 0.60008 0.36665 0.1878 0.0
C1852 C 0.64058 0.35436 0.1874 0.0
C1853 C 0.56745 0.33933 0.18707 0.0
C1854 C 0.64612 0.31349 0.18633 0.0
C1855 C 0.61427 0.28649 0.186 0.0
H1856 H 0.07561 0.73316 0.30196 0.0
H1857 H 0.96275 0.78799 0.29829 0.0
H1858 H 0.99307 0.85231 0.29858 0.0
H1859 H 1.05257 0.89641 0.29882 0.0
H1860 H 0.16605 0.84202 0.30024 0.0
H1861 H 0.13565 0.77753 0.30187 0.0
C1862 C 1.05741 0.75889 0.3013 0.0
C1863 C 1.01579 0.75345 0.30016 0.0
C1864 C 0.07572 0.79763 0.30103 0.0
C1865 C 0.99427 0.78909 0.29925 0.0
C1866 C 1.0119 0.82685 0.29938 0.0
C1867 C 0.07097 0.8708 0.29967 0.0
C1868 C 0.11269 0.8762 0.29962 0.0
C1869 C 1.05279 0.83209 0.30014 0.0
C1870 C 0.13441 0.84071 0.30041 0.0
C1871 C 0.11673 0.80295 0.30129 0.0
H1872 H 0.55559 0.88467 0.54573 0.0
H1873 H 0.47285 0.79588 0.55766 0.0
H1874 H 0.52607 0.7472 0.55852 0.0
H1875 H 0.59775 0.72784 0.55498 0.0
H1876 H 0.68119 0.81847 0.5463 0.0
H1877 H 0.62788 0.86702 0.54527 0.0
C1878 C 0.54875 0.85475 0.54864 0.0
C1879 C 0.50825 0.84478 0.55129 0.0
C1880 C 0.58073 0.82653 0.54971 0.0
C1881 C 0.50224 0.80532 0.55526 0.0
C1882 C 0.53333 0.77714 0.5558 0.0
C1883 C 0.60475 0.75829 0.55307 0.0
C1884 C 0.64534 0.76862 0.55083 0.0
C1885 C 0.57297 0.78696 0.55289 0.0
C1886 C 0.6517 0.80886 0.54834 0.0
C1887 C 0.62056 0.83685 0.5476 0.0
H1888 H 0.65077 0.33568 0.79936 0.0
H1889 H 0.55619 0.41892 0.79754 0.0
H1890 H 0.50901 0.36483 0.7971 0.0
H1891 H 0.49296 0.29232 0.79656 0.0
H1892 H 0.58654 0.20913 0.80067 0.0
H1893 H 0.63424 0.26304 0.80087 0.0
C1894 C 0.61982 0.34242 0.79902 0.0
C1895 C 0.60815 0.38311 0.79856 0.0
C1896 C 0.59196 0.31017 0.79913 0.0
C1897 C 0.56724 0.38928 0.79811 0.0
C1898 C 0.53984 0.35772 0.79777 0.0
C1899 C 0.52376 0.28554 0.79767 0.0
C1900 C 0.53524 0.24484 0.79855 0.0
C1901 C 0.55152 0.31778 0.79821 0.0
C1902 C 0.57588 0.23875 0.8 0.0
C1903 C 0.60346 0.27023 0.80008 0.0
H1904 H 0.15673 0.31742 1.04822 0.0
H1905 H 0.10218 0.20426 1.04581 0.0
H1906 H 1.03773 0.23473 1.04654 0.0
H1907 H 0.99338 0.29452 1.04697 0.0
H1908 H 1.04797 0.40777 1.04813 0.0
H1909 H 0.11234 0.37723 1.04886 0.0
C1910 C 0.13103 0.29909 1.04811 0.0
C1911 C 0.13644 0.25739 1.04718 0.0
C1912 C 0.09225 0.31738 1.04829 0.0
C1913 C 0.10093 0.23584 1.04665 0.0
C1914 C 1.06314 0.25354 1.04704 0.0
C1915 C 1.01905 0.31278 1.04772 0.0
C1916 C 1.01366 0.35454 1.04789 0.0
C1917 C 1.05781 0.29448 1.0478 0.0
C1918 C 1.04917 0.37613 1.04827 0.0
C1919 C 0.08693 0.35837 1.04861 0.0
H1920 H 0.14132 0.80623 0.79674 0.0
H1921 H 1.04669 0.72365 0.79807 0.0
H1922 H 0.99943 0.77811 0.79804 0.0
H1923 H 0.98346 0.85068 0.79678 0.0
H1924 H 0.07798 0.93343 0.79752 0.0
H1925 H 0.12528 0.87901 0.79769 0.0
C1926 C 0.11036 0.79973 0.79721 0.0
C1927 C 0.09858 0.75913 0.79748 0.0
C1928 C 0.08264 0.83219 0.79756 0.0
C1929 C 1.05771 0.75325 0.79804 0.0
C1930 C 1.03033 0.78499 0.79794 0.0
C1931 C 1.0144 0.85725 0.79722 0.0
C1932 C 1.02607 0.89787 0.79731 0.0
C1933 C 1.04213 0.82484 0.79762 0.0
C1934 C 0.06695 0.90384 0.79774 0.0
C1935 C 0.09439 0.87209 0.79771 0.0
H1936 H 0.98427 0.33763 0.54642 0.0
H1937 H 1.03917 0.22416 0.54738 0.0
H1938 H 0.10348 0.25451 0.54784 0.0
H1939 H 0.1479 0.31406 0.54708 0.0
H1940 H 0.09307 0.42757 0.54514 0.0
H1941 H 1.02875 0.39736 0.54614 0.0
C1942 C 1.01 0.31924 0.54699 0.0
C1943 C 1.00463 0.27743 0.54707 0.0
C1944 C 1.04881 0.33744 0.54701 0.0
C1945 C 1.04027 0.25582 0.54742 0.0
C1946 C 0.07804 0.27346 0.54765 0.0
C1947 C 0.12216 0.33258 0.54708 0.0
C1948 C 0.12753 0.37433 0.54622 0.0
C1949 C 0.08334 0.31443 0.54735 0.0
C1950 C 0.09191 0.39597 0.54588 0.0
C1951 C 1.05414 0.37839 0.5464 0.0
H1952 H 0.54948 0.2468 0.3017 0.0
H1953 H 0.65972 0.30114 0.2917 0.0
H1954 H 0.62866 0.36513 0.29156 0.0
H1955 H 0.56886 0.40914 0.29301 0.0
H1956 H 0.45744 0.35486 0.30105 0.0
H1957 H 0.48912 0.29084 0.30285 0.0
C1958 C 0.56698 0.27232 0.29946 0.0
C1959 C 0.60813 0.26678 0.29669 0.0
C1960 C 0.54809 0.3109 0.29894 0.0
C1961 C 0.62863 0.30225 0.29393 0.0
C1962 C 0.61054 0.33987 0.29379 0.0
C1963 C 0.55125 0.38368 0.29546 0.0
C1964 C 0.50971 0.38896 0.29723 0.0
C1965 C 0.57006 0.34517 0.29615 0.0
C1966 C 0.48893 0.35364 0.29984 0.0
C1967 C 0.50734 0.31616 0.30084 0.0
H1968 H 0.58273 0.89548 1.04607 0.0
H1969 H 0.66457 0.79967 1.04617 0.0
H1970 H 0.60985 0.75307 1.04584 0.0
H1971 H 0.53705 0.73801 1.04479 0.0
H1972 H 0.45533 0.83359 1.047 0.0
H1973 H 0.51002 0.88027 1.04721 0.0
C1974 C 0.589 0.86439 1.04619 0.0
C1975 C 0.62945 0.85208 1.04624 0.0
C1976 C 0.55641 0.83702 1.04637 0.0
C1977 C 0.63506 0.81108 1.04636 0.0
C1978 C 0.60317 0.78406 1.04607 0.0
C1979 C 0.53079 0.76904 1.04547 0.0
C1980 C 0.49034 0.78135 1.0459 0.0
C1981 C 0.56343 0.79636 1.04599 0.0
C1982 C 0.48482 0.82226 1.04679 0.0
C1983 C 0.51669 0.84929 1.04683 0.0
H1984 H 1.05081 0.40458 0.93535 0.0
H1985 H 0.16339 0.34783 0.93495 0.0
H1986 H 0.13205 0.28396 0.93414 0.0
H1987 H 0.07174 0.24049 0.93444 0.0
H1988 H 0.95919 0.29753 0.93545 0.0
H1989 H 0.99056 0.36128 0.93506 0.0
C1990 C 0.06884 0.37855 0.93477 0.0
C1991 C 0.11068 0.38319 0.93495 0.0
C1992 C 1.05007 0.34006 0.93451 0.0
C1993 C 0.13175 0.34721 0.93467 0.0
C1994 C 0.11353 0.30972 0.93424 0.0
C1995 C 1.05369 0.26659 0.93435 0.0
C1996 C 1.01182 0.26199 0.93482 0.0
C1997 C 0.07249 0.30511 0.93427 0.0
C1998 C 0.99082 0.29804 0.93501 0.0
C1999 C 1.00906 0.3355 0.9348 0.0
H2000 H 0.54257 0.41314 0.68878 0.0
H2001 H 0.46103 0.31946 0.68242 0.0
H2002 H 0.51533 0.27207 0.68217 0.0
H2003 H 0.58749 0.25556 0.68439 0.0
H2004 H 0.66996 0.3497 0.68829 0.0
H2005 H 0.61557 0.39709 0.68877 0.0
C2006 C 0.53629 0.38239 0.68722 0.0
C2007 C 0.49585 0.37072 0.68576 0.0
C2008 C 0.56888 0.35473 0.68663 0.0
C2009 C 0.49042 0.3302 0.68365 0.0
C2010 C 0.52209 0.30279 0.68351 0.0
C2011 C 0.59403 0.28648 0.68517 0.0
C2012 C 0.63453 0.29802 0.68621 0.0
C2013 C 0.56171 0.31435 0.68508 0.0
C2014 C 0.64045 0.33887 0.68724 0.0
C2015 C 0.6087 0.36633 0.68762 0.0
H2016 H 0.64968 0.84648 0.4366 0.0
H2017 H 0.5539 0.92813 0.43743 0.0
H2018 H 0.50736 0.87336 0.43762 0.0
H2019 H 0.49243 0.80066 0.43832 0.0
H2020 H 0.58778 0.71872 0.43538 0.0
H2021 H 0.63443 0.77348 0.43515 0.0
C2022 C 0.61861 0.8527 0.43664 0.0
C2023 C 0.60622 0.89321 0.43691 0.0
C2024 C 0.59128 0.81999 0.43636 0.0
C2025 C 0.56526 0.89867 0.437 0.0
C2026 C 0.53834 0.86672 0.4372 0.0
C2027 C 0.5234 0.79434 0.4374 0.0
C2028 C 0.53552 0.75382 0.43672 0.0
C2029 C 0.55068 0.82698 0.43694 0.0
C2030 C 0.57642 0.74822 0.43565 0.0
C2031 C 0.60347 0.78018 0.43564 0.0
H2032 H 1.034 0.904 0.18184 0.0
H2033 H 0.95369 0.81215 0.19309 0.0
H2034 H 1.00824 0.76516 0.1938 0.0
H2035 H 0.0804 0.74896 0.19225 0.0
H2036 H 0.16027 0.83847 0.17852 0.0
H2037 H 0.10603 0.88615 0.17797 0.0
C2038 C 1.02795 0.87361 0.18429 0.0
C2039 C 0.98786 0.86253 0.18718 0.0
C2040 C 1.06042 0.84575 0.18444 0.0
C2041 C 0.98267 0.82243 0.1904 0.0
C2042 C 1.01452 0.79527 0.19099 0.0
C2043 C 0.08638 0.7788 0.18898 0.0
C2044 C 0.12634 0.78931 0.18566 0.0
C2045 C 1.0538 0.80629 0.18813 0.0
C2046 C 0.1313 0.82867 0.18135 0.0
C2047 C 0.09962 0.85622 0.18101 0.0
H2048 H 0.24554 0.32421 0.39429 0.0
H2049 H 0.36965 0.31333 0.40175 0.0
H2050 H 0.3822 0.3657 0.38433 0.0
H2051 H 0.35868 0.40623 0.36426 0.0
H2052 H 0.23532 0.41186 0.3549 0.0
H2053 H 0.22148 0.36946 0.37575 0.0
C2054 C 0.27533 0.33346 0.39214 0.0
C2055 C 0.30668 0.31446 0.39904 0.0
C2056 C 0.28238 0.36225 0.38168 0.0
C2057 C 0.34503 0.32749 0.39655 0.0
C2058 C 0.35224 0.35718 0.38651 0.0
C2059 C 0.32869 0.39904 0.36706 0.0
C2060 C 0.29798 0.41185 0.35815 0.0
C2061 C 0.32125 0.37362 0.37863 0.0
C2062 C 0.2593 0.40198 0.36165 0.0
C2063 C 0.25147 0.37777 0.3735 0.0
H2064 H 1.04616 0.07372 0.58758 0.0
H2065 H 0.94827 1.05233 0.61614 0.0
H2066 H 0.99315 1.04144 0.63648 0.0
H2067 H 1.06024 1.03855 0.64595 0.0
H2068 H 0.15755 1.06169 0.61723 0.0
H2069 H 0.11266 0.07108 0.59695 0.0
C2070 C 1.03471 1.06595 0.5982 0.0
C2071 C 0.99419 1.06319 0.6004 0.0
C2072 C 1.06046 1.0604 0.60975 0.0
C2073 C 0.97949 1.05432 0.61426 0.0
C2074 C 1.00506 1.04823 0.62585 0.0
C2075 C 0.0715 1.04614 0.63528 0.0
C2076 C 0.112 1.04957 0.63304 0.0
C2077 C 1.04558 1.05151 0.62371 0.0
C2078 C 0.12643 1.05869 0.61915 0.0
C2079 C 0.10085 1.06408 0.60758 0.0
H2080 H 0.3577 0.91787 0.86973 0.0
H2081 H 0.2374 0.92159 0.88387 0.0
H2082 H 0.21746 0.88679 0.86186 0.0
H2083 H 0.23588 0.84683 0.84088 0.0
H2084 H 0.35745 0.83629 0.82864 0.0
H2085 H 0.3752 0.88381 0.84724 0.0
C2086 C 0.32699 0.91205 0.86775 0.0
C2087 C 0.29897 0.92193 0.87833 0.0
C2088 C 0.31613 0.89069 0.85547 0.0
C2089 C 0.25935 0.91389 0.87584 0.0
C2090 C 0.24805 0.89399 0.86332 0.0
C2091 C 0.26624 0.85518 0.84222 0.0
C2092 C 0.2954 0.8374 0.83365 0.0
C2093 C 0.27643 0.88079 0.85341 0.0
C2094 C 0.33443 0.84946 0.83512 0.0
C2095 C 0.34465 0.87633 0.84586 0.0
H2096 H 0.45277 0.09557 1.11577 0.0
H2097 H 0.49732 0.99871 0.14095 0.0
H2098 H 0.53335 0.97484 0.11985 0.0
H2099 H 0.56124 0.98828 1.09603 0.0
H2100 H 0.52116 0.08769 1.07121 0.0
H2101 H 0.47477 0.10438 1.09057 0.0
C2102 C 0.47004 0.06898 1.11656 0.0
C2103 C 0.47301 1.04934 0.12994 0.0
C2104 C 0.49203 1.05641 1.10459 0.0
C2105 C 0.49452 1.01435 0.13077 0.0
C2106 C 0.51549 1.00091 0.11875 0.0
C2107 C 0.54153 1.0129 1.09461 0.0
C2108 C 0.54478 1.03695 1.08228 0.0
C2109 C 0.51576 1.02269 1.10585 0.0
C2110 C 0.51951 0.06913 1.08073 0.0
C2111 C 0.49301 0.0786 1.09176 0.0
H2112 H 0.36574 0.76467 0.3778 0.0
H2113 H 0.27186 0.81709 0.40258 0.0
H2114 H 0.25376 0.85718 0.38162 0.0
H2115 H 0.26651 0.87877 0.35675 0.0
H2116 H 0.36102 0.82727 0.33207 0.0
H2117 H 0.37829 0.78605 0.35287 0.0
C2118 C 0.34147 0.78508 0.37862 0.0
C2119 C 0.32028 0.78834 0.39167 0.0
C2120 C 0.33187 0.80836 0.36671 0.0
C2121 C 0.28834 0.81406 0.39257 0.0
C2122 C 0.27825 0.83712 0.38067 0.0
C2123 C 0.2907 0.85826 0.35592 0.0
C2124 C 0.31242 0.85565 0.34298 0.0
C2125 C 0.30008 0.83471 0.36777 0.0
C2126 C 0.34418 0.82974 0.34202 0.0
C2127 C 0.3538 0.8061 0.35383 0.0
H2128 H 0.53519 1.0641 0.65536 0.0
H2129 H 0.53455 0.18695 0.64442 0.0
H2130 H 0.48656 0.17494 0.6254 0.0
H2131 H 0.4555 0.12752 0.60902 0.0
H2132 H 0.45626 1.00499 0.62013 0.0
H2133 H 0.49234 1.0191 0.64236 0.0
C2134 C 0.52355 0.08854 0.64922 0.0
C2135 C 0.53943 0.12611 0.65095 0.0
C2136 C 0.49622 0.0814 0.63825 0.0
C2137 C 0.52378 0.15745 0.64292 0.0
C2138 C 0.49629 0.15066 0.63207 0.0
C2139 C 0.46269 0.10419 0.61656 0.0
C2140 C 0.45411 1.06533 0.61292 0.0
C2141 C 0.48402 0.11243 0.62914 0.0
C2142 C 0.46283 1.03517 0.62276 0.0
C2143 C 0.48372 1.04316 0.63539 0.0
H2144 H 0.34113 0.31478 0.83897 0.0
H2145 H 0.3066 0.21912 0.86676 0.0
H2146 H 0.30084 0.26403 0.88737 0.0
H2147 H 0.30496 0.33031 0.89724 0.0
H2148 H 0.33931 0.42608 0.86948 0.0
H2149 H 0.34566 0.38108 0.84889 0.0
C2150 C 0.33174 0.30392 0.8495 0.0
C2151 C 0.32383 0.26394 0.85139 0.0
C2152 C 0.32885 0.32973 0.86123 0.0
C2153 C 0.31271 0.2499 0.86512 0.0
C2154 C 0.3095 0.27548 0.87686 0.0
C2155 C 0.31456 0.34118 0.88674 0.0
C2156 C 0.32214 0.38122 0.88484 0.0
C2157 C 0.31769 0.31536 0.87503 0.0
C2158 C 0.33348 0.39525 0.87113 0.0
C2159 C 0.33699 0.36963 0.8594 0.0
H2160 H 0.08093 0.10642 1.09325 0.0
H2161 H 0.17089 1.06391 0.12201 0.0
H2162 H 0.12488 1.06589 0.14245 0.0
H2163 H 1.05794 0.07404 0.15141 0.0
H2164 H 0.96728 0.11338 0.12236 0.0
H2165 H 1.01504 0.11882 1.10258 0.0
C2166 C 0.09029 0.09731 1.10399 0.0
C2167 C 0.12873 0.0842 1.10617 0.0
C2168 C 1.06381 0.09833 1.11554 0.0
C2169 C 0.14116 0.07369 0.12015 0.0
C2170 C 0.11499 0.0749 0.13178 0.0
C2171 C 1.04895 0.08488 0.14085 0.0
C2172 C 1.00948 0.0935 0.13823 0.0
C2173 C 0.07614 0.08659 0.12953 0.0
C2174 C 0.99772 0.10672 0.12449 0.0
C2175 C 1.02486 0.10953 1.11322 0.0
H2176 H 0.82121 0.80992 0.8953 0.0
H2177 H 0.7785 0.71817 0.86746 0.0
H2178 H 0.78255 0.76182 0.84641 0.0
H2179 H 0.7992 0.82583 0.83603 0.0
H2180 H 0.84256 0.91721 0.86389 0.0
H2181 H 0.83672 0.87414 0.88503 0.0
C2182 C 0.81341 0.79945 0.88457 0.0
C2183 C 0.80011 0.76105 0.88277 0.0
C2184 C 0.81524 0.82475 0.87267 0.0
C2185 C 0.78908 0.74775 0.86895 0.0
C2186 C 0.79118 0.77266 0.85699 0.0
C2187 C 0.80652 0.83639 0.84681 0.0
C2188 C 0.82087 0.87441 0.84858 0.0
C2189 C 0.804 0.81126 0.85875 0.0
C2190 C 0.8312 0.88791 0.86244 0.0
C2191 C 0.82816 0.8633 0.87444 0.0
H2192 H 0.85646 0.29281 0.39552 0.0
H2193 H 0.81034 0.39215 0.37213 0.0
H2194 H 0.80246 0.35195 0.35044 0.0
H2195 H 0.80842 0.28906 0.33829 0.0
H2196 H 0.85175 0.18849 0.36154 0.0
H2197 H 0.86108 0.22881 0.38334 0.0
C2198 C 0.84413 0.30541 0.38573 0.0
C2199 C 0.83397 0.34524 0.38535 0.0
C2200 C 0.83969 0.28216 0.37334 0.0
C2201 C 0.81861 0.36155 0.37258 0.0
C2202 C 0.81413 0.33867 0.36021 0.0
C2203 C 0.82062 0.27619 0.34806 0.0
C2204 C 0.83026 0.23633 0.34835 0.0
C2205 C 0.82489 0.29913 0.36046 0.0
C2206 C 0.84472 0.2194 0.36114 0.0
C2207 C 0.8498 0.24232 0.37356 0.0
H2208 H 0.76061 0.29303 0.84291 0.0
H2209 H 0.7836 0.38507 0.87389 0.0
H2210 H 0.78034 0.3381 0.89372 0.0
H2211 H 0.77874 0.27076 0.90187 0.0
H2212 H 0.76413 0.17708 0.87103 0.0
H2213 H 0.75588 0.22497 0.85138 0.0
C2214 C 0.76519 0.30272 0.85399 0.0
C2215 C 0.77269 0.34237 0.85693 0.0
C2216 C 0.76444 0.2754 0.8653 0.0
C2217 C 0.77756 0.35474 0.87136 0.0
C2218 C 0.7758 0.32793 0.8827 0.0
C2219 C 0.77235 0.26085 0.89093 0.0
C2220 C 0.77146 0.22072 0.88782 0.0
C2221 C 0.76999 0.2882 0.87975 0.0
C2222 C 0.76443 0.20802 0.87358 0.0
C2223 C 0.76019 0.23531 0.86239 0.0
H2224 H 0.78825 0.8031 0.39868 0.0
H2225 H 0.83107 0.89469 0.37056 0.0
H2226 H 0.83665 0.8483 0.35051 0.0
H2227 H 0.82793 0.78265 0.34092 0.0
H2228 H 0.78701 0.68984 0.36875 0.0
H2229 H 0.78209 0.73591 0.38919 0.0
C2230 C 0.79943 0.81263 0.38822 0.0
C2231 C 0.80916 0.85211 0.38601 0.0
C2232 C 0.80233 0.78588 0.37675 0.0
C2233 C 0.82312 0.86442 0.37241 0.0
C2234 C 0.82626 0.83801 0.36097 0.0
C2235 C 0.81736 0.7727 0.35142 0.0
C2236 C 0.80686 0.73344 0.35337 0.0
C2237 C 0.81539 0.79892 0.36299 0.0
C2238 C 0.79458 0.72026 0.36707 0.0
C2239 C 0.79199 0.74647 0.3787 0.0
H2240 H 0.56848 0.53646 0.1439 0.0
H2241 H 0.66529 0.57278 1.11694 0.0
H2242 H 0.62164 0.57879 1.09607 0.0
H2243 H 0.556 0.57549 1.08585 0.0
H2244 H 0.4587 0.54075 1.11281 0.0
H2245 H 0.5027 0.53223 0.13353 0.0
C2246 C 0.57983 0.54619 0.13349 0.0
C2247 C 0.61976 0.55458 0.1319 0.0
C2248 C 0.5547 0.54944 0.12162 0.0
C2249 C 0.63453 0.56624 0.11833 0.0
C2250 C 0.60968 0.56961 1.10645 0.0
C2251 C 0.54463 0.56525 1.09619 0.0
C2252 C 0.50449 0.55827 1.09787 0.0
C2253 C 0.5698 0.56124 1.10799 0.0
C2254 C 0.48968 0.54606 1.11136 0.0
C2255 C 0.51472 0.54138 0.12316 0.0
H2256 H 1.06443 0.56657 0.65356 0.0
H2257 H 0.97016 0.51068 0.63058 0.0
H2258 H 1.01063 0.50739 0.60856 0.0
H2259 H 0.07147 0.52383 0.59575 0.0
H2260 H 0.16443 0.58208 0.61872 0.0
H2261 H 0.12563 0.58098 0.64108 0.0
C2262 C 1.05314 0.55269 0.64384 0.0
C2263 C 1.01474 0.53839 0.64364 0.0
C2264 C 0.07599 0.55202 0.63126 0.0
C2265 C 0.99987 0.52154 0.63091 0.0
C2266 C 1.02283 0.51995 0.61836 0.0
C2267 C 0.08296 0.53666 0.60563 0.0
C2268 C 0.12037 0.55346 0.60565 0.0
C2269 C 1.06059 0.53589 0.61836 0.0
C2270 C 0.13556 0.56912 0.61853 0.0
C2271 C 0.1135 0.56842 0.63127 0.0
H2272 H 0.1804 0.59239 0.11775 0.0
H2273 H 0.13481 0.49721 0.14352 0.0
H2274 H 0.10135 0.47117 0.1223 0.0
H2275 H 0.07506 0.4829 1.09816 0.0
H2276 H 0.11614 0.58067 1.0727 0.0
H2277 H 0.16107 0.59874 1.0922 0.0
C2278 C 0.16354 0.56565 0.11864 0.0
C2279 C 0.15934 0.54719 0.13221 0.0
C2280 C 0.14302 0.55183 1.10657 0.0
C2281 C 0.13843 0.51199 0.13319 0.0
C2282 C 0.11895 0.49731 0.1211 0.0
C2283 C 0.09475 0.50739 1.09663 0.0
C2284 C 0.09201 0.53072 1.08409 0.0
C2285 C 0.11959 0.51805 1.10796 0.0
C2286 C 0.11733 0.5627 1.08238 0.0
C2287 C 0.14298 0.57297 1.0935 0.0
H2288 H 0.57167 0.52308 0.64197 0.0
H2289 H 0.48285 0.56003 0.61165 0.0
H2290 H 0.5298 0.55536 0.59168 0.0
H2291 H 0.59665 0.54591 0.5833 0.0
H2292 H 0.68705 0.51355 0.61359 0.0
H2293 H 0.63861 0.51094 0.6333 0.0
C2294 C 0.56276 0.53047 0.631 0.0
C2295 C 0.52412 0.54236 0.62825 0.0
C2296 C 0.58993 0.52815 0.61965 0.0
C2297 C 0.51252 0.55085 0.61398 0.0
C2298 C 0.53927 0.54817 0.60259 0.0
C2299 C 0.60553 0.53711 0.59413 0.0
C2300 C 0.64504 0.5294 0.59705 0.0
C2301 C 0.57805 0.53725 0.60535 0.0
C2302 C 0.65658 0.51922 0.61117 0.0
C2303 C 0.62904 0.51808 0.6224 0.0
H2304 H 0.19766 1.0287 0.48833 0.0
H2305 H 0.29385 1.05815 0.46016 0.0
H2306 H 0.33935 1.02603 0.47714 0.0
H2307 H 0.35332 0.98773 0.50073 0.0
H2308 H 0.25486 0.95805 0.52795 0.0
H2309 H 0.21093 0.99102 0.51113 0.0
C2310 C 0.22854 1.02808 0.48568 0.0
C2311 C 0.24109 1.0465 0.47239 0.0
C2312 C 0.25518 1.00884 0.49568 0.0
C2313 C 0.28198 1.04466 0.46986 0.0
C2314 C 0.30847 1.02596 0.47978 0.0
C2315 C 0.32229 0.9882 0.50309 0.0
C2316 C 0.3086 0.96918 0.51621 0.0
C2317 C 0.29576 1.00762 0.49286 0.0
C2318 C 0.26761 0.97146 0.51839 0.0
C2319 C 0.24188 0.99066 0.50857 0.0
H2320 H 0.41936 0.9922 0.76805 0.0
H2321 H 0.38445 0.10764 0.75457 0.0
H2322 H 0.34795 0.07953 0.73418 0.0
H2323 H 0.3237 1.02068 0.71942 0.0
H2324 H 0.36017 0.90594 0.73355 0.0
H2325 H 0.39642 0.93465 0.75347 0.0
C2326 C 0.40379 1.01158 0.76075 0.0
C2327 C 0.4055 1.05291 0.76345 0.0
C2328 C 0.3823 0.99485 0.74864 0.0
C2329 C 0.38445 0.07613 0.75333 0.0
C2330 C 0.36323 1.05977 0.74142 0.0
C2331 C 0.33985 1.00169 0.72668 0.0
C2332 C 0.33839 0.96001 0.72423 0.0
C2333 C 0.36162 1.01892 0.73878 0.0
C2334 C 0.35986 0.93752 0.73447 0.0
C2335 C 0.38101 0.95416 0.74618 0.0
H2336 H 0.349 0.18946 0.99511 0.0
H2337 H 0.32943 0.09612 1.02564 0.0
H2338 H 0.36134 1.04985 1.00885 0.0
H2339 H 0.39671 1.03444 0.98484 0.0
H2340 H 0.41628 0.12972 0.95499 0.0
H2341 H 0.38367 0.17464 0.9717 0.0
C2342 C 0.35184 0.15908 0.99831 0.0
C2343 C 0.33631 0.14749 1.01219 0.0
C2344 C 0.37091 0.13199 0.98839 0.0
C2345 C 0.34076 0.10719 1.01545 0.0
C2346 C 0.35931 0.08028 1.00565 0.0
C2347 C 0.39405 1.06499 0.98188 0.0
C2348 C 0.41004 0.07757 0.9681 0.0
C2349 C 0.37483 0.09201 0.99198 0.0
C2350 C 0.40516 0.11794 0.96511 0.0
C2351 C 0.38619 0.1442 0.97485 0.0
H2352 H 0.20585 0.07428 0.24818 0.0
H2353 H 0.29148 0.09733 0.28127 0.0
H2354 H 0.33239 0.13154 0.26352 0.0
H2355 H 0.34544 0.15732 0.23818 0.0
H2356 H 0.25733 0.13999 0.20554 0.0
H2357 H 0.21793 0.10244 0.2229 0.0
C2358 C 0.2336 0.08629 0.2516 0.0
C2359 C 0.24498 0.08163 0.26657 0.0
C2360 C 0.25743 0.10783 0.24109 0.0
C2361 C 0.28117 0.09917 0.27017 0.0
C2362 C 0.30499 0.11921 0.25985 0.0
C2363 C 0.31766 0.14549 0.23472 0.0
C2364 C 0.30547 0.15236 0.21998 0.0
C2365 C 0.29373 0.12415 0.24519 0.0
C2366 C 0.26862 0.13604 0.21642 0.0
C2367 C 0.24561 0.11417 0.22653 0.0
H2368 H 0.88237 1.05335 0.74902 0.0
H2369 H 0.90918 0.15171 0.77654 0.0
H2370 H 0.87729 0.19568 0.75933 0.0
H2371 H 0.84166 0.20874 0.7361 0.0
H2372 H 0.8125 0.11205 0.70826 0.0
H2373 H 0.84494 1.06689 0.72533 0.0
C2374 C 0.88138 0.08438 0.75138 0.0
C2375 C 0.89924 0.0981 0.76466 0.0
C2376 C 0.86224 0.11073 0.74104 0.0
C2377 C 0.89654 0.13903 0.76685 0.0
C2378 C 0.878 0.16472 0.75682 0.0
C2379 C 0.84194 0.17778 0.73361 0.0
C2380 C 0.82364 0.16499 0.72037 0.0
C2381 C 0.86069 0.1513 0.7438 0.0
C2382 C 0.82567 0.12407 0.71795 0.0
C2383 C 0.84448 0.09779 0.72793 0.0
H2384 H 0.84038 0.14549 0.49867 0.0
H2385 H 0.74093 0.18053 0.52455 0.0
H2386 H 0.69722 0.14843 0.50743 0.0
H2387 H 0.68467 0.10981 0.48481 0.0
H2388 H 0.78223 0.07406 0.45825 0.0
H2389 H 0.82723 0.10643 0.4753 0.0
C2390 C 0.80918 0.14627 0.50068 0.0
C2391 C 0.79507 0.16646 0.5135 0.0
C2392 C 0.78292 0.12727 0.49033 0.0
C2393 C 0.7539 0.16607 0.51523 0.0
C2394 C 0.72836 0.14739 0.50525 0.0
C2395 C 0.71577 0.10891 0.48256 0.0
C2396 C 0.72889 0.08866 0.46971 0.0
C2397 C 0.74213 0.12784 0.49269 0.0
C2398 C 0.76999 0.08886 0.46763 0.0
C2399 C 0.79617 0.10759 0.4776 0.0
H2400 H 0.775 0.94186 0.23707 0.0
H2401 H 0.80404 1.03652 0.20818 0.0
H2402 H 0.77143 0.08288 0.22481 0.0
H2403 H 0.73386 0.0981 0.2484 0.0
H2404 H 0.70645 1.00169 0.27686 0.0
H2405 H 0.73839 0.95647 0.26006 0.0
C2406 C 0.77422 0.9726 0.23421 0.0
C2407 C 0.7927 0.98451 0.22085 0.0
C2408 C 0.75522 0.99976 0.24409 0.0
C2409 C 0.79057 1.02519 0.21797 0.0
C2410 C 0.77168 1.05216 0.22769 0.0
C2411 C 0.73463 1.06722 0.25102 0.0
C2412 C 0.71665 1.05441 0.26444 0.0
C2413 C 0.75374 1.04013 0.24092 0.0
C2414 C 0.71917 1.01365 0.26703 0.0
C2415 C 0.73775 0.98725 0.25724 0.0
H2416 H 0.8188 1.03076 1.01799 0.0
H2417 H 0.84135 0.91654 0.99974 0.0
H2418 H 0.87665 0.94582 0.9797 0.0
H2419 H 0.90277 1.00368 0.96606 0.0
H2420 H 0.88425 0.11852 0.98397 0.0
H2421 H 0.84786 0.08995 1.00441 0.0
C2422 C 0.83155 1.01193 1.00977 0.0
C2423 C 0.8261 0.97015 1.01109 0.0
C2424 C 0.85338 1.02952 0.99765 0.0
C2425 C 0.84388 0.9481 0.99973 0.0
C2426 C 0.86455 0.9651 0.98792 0.0
C2427 C 0.89087 1.02286 0.97435 0.0
C2428 C 0.89704 1.0642 0.97284 0.0
C2429 C 0.86969 1.0058 0.98656 0.0
C2430 C 0.88072 0.08706 0.98425 0.0
C2431 C 0.8595 0.0704 0.9962 0.0
H2432 H 0.75576 0.58283 0.9861 0.0
H2433 H 0.72247 0.4836 0.96006 0.0
H2434 H 0.75511 0.43981 0.97714 0.0
H2435 H 0.79341 0.42715 0.9999 0.0
H2436 H 0.82625 0.52469 1.02673 0.0
H2437 H 0.7941 0.56965 1.00955 0.0
C2438 C 0.75519 0.55165 0.98408 0.0
C2439 C 0.73534 0.53767 0.97124 0.0
C2440 C 0.7743 0.52537 0.99445 0.0
C2441 C 0.73657 0.49652 0.96941 0.0
C2442 C 0.75553 0.47092 0.97938 0.0
C2443 C 0.79351 0.45822 1.00221 0.0
C2444 C 0.81291 0.47134 1.0152 0.0
C2445 C 0.77447 0.48459 0.99204 0.0
C2446 C 0.81201 0.51243 1.01729 0.0
C2447 C 0.79338 0.53859 1.00725 0.0
H2448 H 0.84852 0.43145 0.23957 0.0
H2449 H 0.82317 0.52704 0.21062 0.0
H2450 H 0.85539 0.57248 0.22752 0.0
H2451 H 0.89202 0.58659 0.25123 0.0
H2452 H 0.918 0.48924 0.27941 0.0
H2453 H 0.8852 0.44496 0.26261 0.0
C2454 C 0.85008 0.46218 0.23674 0.0
C2455 C 0.83279 0.47464 0.22327 0.0
C2456 C 0.86933 0.48878 0.24672 0.0
C2457 C 0.83577 0.51531 0.22048 0.0
C2458 C 0.85448 0.54174 0.23035 0.0
C2459 C 0.89087 0.5557 0.25378 0.0
C2460 C 0.90865 0.54235 0.26713 0.0
C2461 C 0.87163 0.52915 0.24362 0.0
C2462 C 0.90549 0.5016 0.26964 0.0
C2463 C 0.88641 0.47575 0.25984 0.0
H2464 H 0.95609 0.58595 0.4884 0.0
H2465 H 0.85902 0.55675 0.46086 0.0
H2466 H 0.81414 0.58938 0.47804 0.0
H2467 H 0.80091 0.62729 0.5017 0.0
H2468 H 0.89963 0.6545 0.52888 0.0
H2469 H 0.9433 0.62222 0.51161 0.0
C2470 C 0.92512 0.58652 0.48597 0.0
C2471 C 0.91213 0.56808 0.47278 0.0
C2472 C 0.89878 0.60549 0.49621 0.0
C2473 C 0.87118 0.57009 0.4705 0.0
C2474 C 0.84506 0.58904 0.48054 0.0
C2475 C 0.83195 0.62642 0.50396 0.0
C2476 C 0.84585 0.64455 0.51717 0.0
C2477 C 0.85817 0.60706 0.49357 0.0
C2478 C 0.8868 0.64175 0.51924 0.0
C2479 C 0.91234 0.62297 0.50917 0.0
H2480 H 0.69317 0.59159 0.74909 0.0
H2481 H 0.78998 0.56485 0.77718 0.0
H2482 H 0.83462 0.59795 0.7601 0.0
H2483 H 0.84762 0.63552 0.73642 0.0
H2484 H 0.74928 0.66082 0.70874 0.0
H2485 H 0.70572 0.62802 0.72591 0.0
C2486 C 0.72401 0.59299 0.75169 0.0
C2487 C 0.73706 0.57506 0.76498 0.0
C2488 C 0.75016 0.61228 0.74153 0.0
C2489 C 0.77783 0.57783 0.76746 0.0
C2490 C 0.80379 0.59703 0.75748 0.0
C2491 C 0.81667 0.6341 0.73404 0.0
C2492 C 0.80277 0.65178 0.72075 0.0
C2493 C 0.79062 0.61455 0.74435 0.0
C2494 C 0.762 0.64839 0.71847 0.0
C2495 C 0.73658 0.62933 0.72847 0.0
H2496 H 0.43681 0.59811 0.24541 0.0
H2497 H 0.34285 0.58443 0.27619 0.0
H2498 H 0.29834 0.61866 0.25941 0.0
H2499 H 0.28446 0.65369 0.2352 0.0
H2500 H 0.38003 0.66614 0.20488 0.0
H2501 H 0.42341 0.63218 0.22173 0.0
C2502 C 0.40664 0.60254 0.24865 0.0
C2503 C 0.39445 0.58794 0.26264 0.0
C2504 C 0.38046 0.62255 0.23865 0.0
C2505 C 0.35443 0.59468 0.26592 0.0
C2506 C 0.32851 0.61455 0.2561 0.0
C2507 C 0.31474 0.64909 0.23214 0.0
C2508 C 0.32781 0.66356 0.21815 0.0
C2509 C 0.34082 0.62884 0.2423 0.0
C2510 C 0.36783 0.6563 0.21512 0.0
C2511 C 0.3932 0.6365 0.22495 0.0
H2512 H 0.28102 0.70402 0.99568 0.0
H2513 H 0.30675 0.60875 1.02472 0.0
H2514 H 0.275 0.56299 1.00781 0.0
H2515 H 0.23892 0.54846 0.984 0.0
H2516 H 0.21347 0.64542 0.95556 0.0
H2517 H 0.24538 0.69004 0.97247 0.0
C2518 C 0.2797 0.67328 0.99851 0.0
C2519 C 0.29691 0.66103 1.01203 0.0
C2520 C 0.261 0.64645 0.98848 0.0
C2521 C 0.29424 0.62033 1.01482 0.0
C2522 C 0.27583 0.59371 1.00494 0.0
C2523 C 0.24005 0.57933 0.9814 0.0
C2524 C 0.22266 0.59246 0.96795 0.0
C2525 C 0.25889 0.60608 0.9916 0.0
C2526 C 0.22571 0.63321 0.96541 0.0
C2527 C 0.24428 0.65927 0.97526 0.0
H2528 H 0.31243 0.46317 0.74121 0.0
H2529 H 0.27909 0.52894 0.70328 0.0
H2530 H 0.23801 0.57153 0.71863 0.0
H2531 H 0.20941 0.59072 0.74322 0.0
H2532 H 0.25039 0.53061 0.78139 0.0
H2533 H 0.29017 0.48717 0.76595 0.0
C2534 C 0.29687 0.48717 0.73615 0.0
C2535 C 0.3 0.49179 0.72059 0.0
C2536 C 0.27408 0.51331 0.74536 0.0
C2537 C 0.27837 0.52359 0.71487 0.0
C2538 C 0.25446 0.54831 0.72382 0.0
C2539 C 0.22721 0.5684 0.74831 0.0
C2540 C 0.22579 0.56487 0.76394 0.0
C2541 C 0.25174 0.54364 0.73914 0.0
C2542 C 0.25008 0.53523 0.76975 0.0
C2543 C 0.27302 0.50985 0.76075 0.0
H2544 H 0.34009 0.44353 0.49462 0.0
H2545 H 0.32511 0.53777 0.52516 0.0
H2546 H 0.3599 0.58206 0.50846 0.0
H2547 H 0.39544 0.59574 0.48442 0.0
H2548 H 0.40935 0.50029 0.45422 0.0
H2549 H 0.37491 0.45683 0.471 0.0
C2550 C 0.34438 0.47371 0.49781 0.0
C2551 C 0.32921 0.48611 0.51171 0.0
C2552 C 0.36464 0.4998 0.48784 0.0
C2553 C 0.33578 0.5261 0.51495 0.0
C2554 C 0.35594 0.55189 0.50519 0.0
C2555 C 0.39109 0.56546 0.48138 0.0
C2556 C 0.40607 0.55239 0.46748 0.0
C2557 C 0.37066 0.53944 0.49147 0.0
C2558 C 0.39909 0.51241 0.46442 0.0
C2559 C 0.37905 0.48703 0.4742 0.0
H2560 H 0.19319 0.12772 0.38347 0.0
H2561 H 0.17742 1.01477 0.40338 0.0
H2562 H 0.17614 0.98391 0.37942 0.0
H2563 H 0.17801 0.98785 0.35196 0.0
H2564 H 0.1908 0.10153 0.33227 0.0
H2565 H 0.19469 0.13173 0.35622 0.0
C2566 C 0.18966 0.0963 0.38267 0.0
C2567 C 0.18563 0.07415 0.39576 0.0
C2568 C 0.1883 0.07818 0.36848 0.0
C2569 C 0.18072 1.03332 0.39391 0.0
C2570 C 0.17995 1.01533 0.38001 0.0
C2571 C 0.18196 1.01919 0.35283 0.0
C2572 C 0.18431 1.0418 0.33976 0.0
C2573 C 0.18355 1.03723 0.36706 0.0
C2574 C 0.1889 0.08264 0.3417 0.0
C2575 C 0.19113 0.10029 0.3556 0.0
H2576 H 0.25428 0.91497 0.63373 0.0
H2577 H 0.36648 0.92621 0.6544 0.0
H2578 H 0.39873 0.92708 0.63062 0.0
H2579 H 0.3964 0.92327 0.60325 0.0
H2580 H 0.28423 0.90824 0.58282 0.0
H2581 H 0.25203 0.91024 0.60652 0.0
C2582 C 0.2858 0.91775 0.63312 0.0
C2583 C 0.30738 0.92068 0.64633 0.0
C2584 C 0.30481 0.91739 0.61909 0.0
C2585 C 0.34844 0.9239 0.6448 0.0
C2586 C 0.36718 0.92437 0.63101 0.0
C2587 C 0.36489 0.92046 0.6039 0.0
C2588 C 0.34332 0.91555 0.59074 0.0
C2589 C 0.34592 0.92092 0.61796 0.0
C2590 C 0.30232 0.91193 0.59235 0.0
C2591 C 0.28355 0.9131 0.60609 0.0
H2592 H 0.45566 1.03123 0.83859 0.0
H2593 H 0.46498 0.15371 0.84906 0.0
H2594 H 0.46689 0.13766 0.87498 0.0
H2595 H 0.46697 0.08868 0.8954 0.0
H2596 H 0.45267 0.96663 0.88508 0.0
H2597 H 0.45151 0.98254 0.85912 0.0
C2598 C 0.45802 1.0546 0.84648 0.0
C2599 C 0.46047 0.09409 0.84137 0.0
C2600 C 0.45829 1.04508 0.86177 0.0
C2601 C 0.46311 0.12324 0.85221 0.0
C2602 C 0.46427 0.11396 0.86724 0.0
C2603 C 0.46354 1.06537 0.88753 0.0
C2604 C 0.46033 1.02599 0.89268 0.0
C2605 C 0.46207 0.07496 0.87227 0.0
C2606 C 0.45546 0.99699 0.88189 0.0
C2607 C 0.45481 1.0062 0.86685 0.0
H2608 H 0.25731 0.18975 1.10086 0.0
H2609 H 0.36733 0.21921 1.08078 0.0
H2610 H 0.39869 0.22059 1.10465 0.0
H2611 H 0.39578 0.2147 0.13206 0.0
H2612 H 0.28474 0.18721 0.15184 0.0
H2613 H 0.25436 0.18385 0.12797 0.0
C2614 C 0.28819 0.19645 1.1016 0.0
C2615 C 0.30938 0.20435 1.08853 0.0
C2616 C 0.30653 0.19762 1.11569 0.0
C2617 C 0.34956 0.21297 1.09026 0.0
C2618 C 0.36781 0.21378 1.1041 0.0
C2619 C 0.36499 0.20772 0.13122 0.0
C2620 C 0.34315 0.20113 0.14428 0.0
C2621 C 0.34679 0.20629 1.11704 0.0
C2622 C 0.30301 0.19251 0.14241 0.0
C2623 C 0.28525 0.19058 0.12856 0.0
H2624 H 0.97409 0.10423 0.83859 0.0
H2625 H 0.92206 0.99122 0.84584 0.0
H2626 H 0.91733 1.00523 0.87192 0.0
H2627 H 0.9285 1.04952 0.89348 0.0
H2628 H 0.975 0.16471 0.88581 0.0
H2629 H 0.98097 0.1501 0.85983 0.0
C2630 C 0.9616 0.08251 0.8458 0.0
C2631 C 0.94876 1.04617 0.83975 0.0
C2632 C 0.95788 0.09131 0.8611 0.0
C2633 C 0.93234 1.01928 0.84972 0.0
C2634 C 0.92966 1.02736 0.86484 0.0
C2635 C 0.93987 0.07163 0.88618 0.0
C2636 C 0.9515 0.10853 0.89212 0.0
C2637 C 0.94239 1.06325 0.8708 0.0
C2638 C 0.96571 0.13624 0.88201 0.0
C2639 C 0.96925 0.12775 0.86696 0.0
H2640 H 0.74482 0.21541 0.63155 0.0
H2641 H 0.85773 0.21635 0.65215 0.0
H2642 H 0.88981 0.21478 0.62838 0.0
H2643 H 0.88721 0.21435 0.60097 0.0
H2644 H 0.77406 0.21585 0.5805 0.0
H2645 H 0.74219 0.21515 0.60425 0.0
C2646 C 0.77646 0.21507 0.63093 0.0
C2647 C 0.79824 0.21584 0.64415 0.0
C2648 C 0.7954 0.21469 0.61686 0.0
C2649 C 0.83945 0.21572 0.64257 0.0
C2650 C 0.85815 0.21484 0.62878 0.0
C2651 C 0.85557 0.21438 0.60161 0.0
C2652 C 0.83365 0.21509 0.58841 0.0
C2653 C 0.83667 0.21449 0.61571 0.0
C2654 C 0.79246 0.21533 0.59005 0.0
C2655 C 0.77386 0.21494 0.60383 0.0
H2656 H 0.67306 0.10836 0.39492 0.0
H2657 H 0.67696 0.98523 0.38489 0.0
H2658 H 0.67528 1.00024 0.35893 0.0
H2659 H 0.67184 1.0482 0.33829 0.0
H2660 H 0.67288 0.17144 0.34802 0.0
H2661 H 0.67362 0.15665 0.3741 0.0
C2662 C 0.67362 0.08464 0.38711 0.0
C2663 C 0.67487 1.04523 0.39239 0.0
C2664 C 0.67349 0.09363 0.37176 0.0
C2665 C 0.67592 1.01567 0.38164 0.0
C2666 C 0.67491 1.02433 0.36658 0.0
C2667 C 0.67232 0.07203 0.34605 0.0
C2668 C 0.67198 0.11132 0.3407 0.0
C2669 C 0.67355 1.06318 0.36138 0.0
C2670 C 0.673 0.14107 0.35137 0.0
C2671 C 0.67338 0.1325 0.36648 0.0
H2672 H 0.87767 0.93866 0.1327 0.0
H2673 H 0.76488 0.9215 0.15268 0.0
H2674 H 0.73395 0.92182 0.12877 0.0
H2675 H 0.73769 0.92577 1.10143 0.0
H2676 H 0.85098 0.93908 1.08144 0.0
H2677 H 0.88156 0.94145 1.10539 0.0
C2678 C 0.84628 0.9351 0.13192 0.0
C2679 C 0.82416 0.93022 0.14502 0.0
C2680 C 0.82812 0.93458 0.11775 0.0
C2681 C 0.78337 0.92537 0.14321 0.0
C2682 C 0.76535 0.92555 0.12934 0.0
C2683 C 0.76906 0.92948 1.10223 0.0
C2684 C 0.79144 0.93256 1.08912 0.0
C2685 C 0.7872 0.93001 1.11641 0.0
C2686 C 0.8323 0.93673 1.09093 0.0
C2687 C 0.85011 0.93806 1.10482 0.0
H2688 H 0.69999 0.62733 0.88602 0.0
H2689 H 0.65063 0.52256 0.90446 0.0
H2690 H 0.64996 0.49189 0.88048 0.0
H2691 H 0.66208 0.49382 0.85353 0.0
H2692 H 0.7053 0.60055 0.83459 0.0
H2693 H 0.70949 0.63023 0.85877 0.0
C2694 C 0.68923 0.5977 0.88488 0.0
C2695 C 0.67567 0.57762 0.89757 0.0
C2696 C 0.68764 0.58006 0.87059 0.0
C2697 C 0.66138 0.53932 0.8953 0.0
C2698 C 0.66097 0.52148 0.8814 0.0
C2699 C 0.67257 0.52356 0.85461 0.0
C2700 C 0.68364 0.54434 0.84177 0.0
C2701 C 0.67383 0.54138 0.86884 0.0
C2702 C 0.69656 0.5832 0.84389 0.0
C2703 C 0.699 0.60044 0.85791 0.0
H2704 H 0.89652 0.41991 1.10342 0.0
H2705 H 0.78369 0.42325 1.08277 0.0
H2706 H 0.75162 0.42504 1.10654 0.0
H2707 H 0.75412 0.42462 0.13388 0.0
H2708 H 0.86668 0.41697 0.15458 0.0
H2709 H 0.89894 0.41795 0.13081 0.0
C2710 C 0.8649 0.42125 1.10402 0.0
C2711 C 0.84311 0.42173 1.09078 0.0
C2712 C 0.84594 0.42138 0.11811 0.0
C2713 C 0.80195 0.42292 1.09236 0.0
C2714 C 0.78327 0.42393 1.10615 0.0
C2715 C 0.78574 0.42326 0.13329 0.0
C2716 C 0.80739 0.42088 0.14654 0.0
C2717 C 0.80471 0.42302 0.11922 0.0
C2718 C 0.84853 0.41884 0.14498 0.0
C2719 C 0.86731 0.41941 0.1312 0.0
H2720 H 0.95792 0.58989 0.39735 0.0
H2721 H 0.96534 0.4673 0.38673 0.0
H2722 H 0.96589 0.48335 0.36082 0.0
H2723 H 0.96516 0.53228 0.3404 0.0
H2724 H 0.95263 0.65453 0.35084 0.0
H2725 H 0.95309 0.63869 0.37682 0.0
C2726 C 0.95957 0.5665 0.38943 0.0
C2727 C 0.96187 0.52695 0.39451 0.0
C2728 C 0.95904 0.57604 0.37413 0.0
C2729 C 0.96361 0.49781 0.38362 0.0
C2730 C 0.96398 0.50709 0.36859 0.0
C2731 C 0.96247 0.55565 0.3483 0.0
C2732 C 0.95921 0.59505 0.34317 0.0
C2733 C 0.96187 0.54611 0.36358 0.0
C2734 C 0.95534 0.62413 0.35401 0.0
C2735 C 0.95564 0.61496 0.36907 0.0
H2736 H 0.85663 0.691 0.5914 0.0
H2737 H 0.73341 0.7006 0.60066 0.0
H2738 H 0.74735 0.70271 0.62675 0.0
H2739 H 0.79467 0.70322 0.64762 0.0
H2740 H 0.91724 0.68636 0.63862 0.0
H2741 H 0.90355 0.68555 0.61246 0.0
C2742 C 0.83265 0.69342 0.59907 0.0
C2743 C 0.79359 0.69599 0.59357 0.0
C2744 C 0.84091 0.69336 0.61446 0.0
C2745 C 0.76359 0.69859 0.60412 0.0
C2746 C 0.77166 0.69989 0.61924 0.0
C2747 C 0.81856 0.69913 0.64 0.0
C2748 C 0.8574 0.69513 0.64557 0.0
C2749 C 0.81021 0.6975 0.62465 0.0
C2750 C 0.88721 0.68951 0.6351 0.0
C2751 C 0.87929 0.68917 0.61995 0.0
H2752 H 0.46241 0.54714 0.39468 0.0
H2753 H 0.44163 0.66937 0.3863 0.0
H2754 H 0.43887 0.65588 0.36008 0.0
H2755 H 0.44326 0.60889 0.33873 0.0
H2756 H 0.45803 0.48604 0.34787 0.0
H2757 H 0.46201 0.50018 0.37382 0.0
C2758 C 0.45707 0.57104 0.3872 0.0
C2759 C 0.45247 0.60965 0.39296 0.0
C2760 C 0.45453 0.56281 0.37186 0.0
C2761 C 0.44528 0.63946 0.38264 0.0
C2762 C 0.44381 0.63165 0.36745 0.0
C2763 C 0.44735 0.58507 0.34634 0.0
C2764 C 0.45072 0.54599 0.34079 0.0
C2765 C 0.44857 0.5934 0.36178 0.0
C2766 C 0.45543 0.51623 0.35132 0.0
C2767 C 0.45777 0.52438 0.36638 0.0
H2768 H 0.2755 0.7126 1.08778 0.0
H2769 H 0.39885 0.71488 1.09718 0.0
H2770 H 0.38453 0.71623 0.1232 0.0
H2771 H 0.33719 0.71754 0.14409 0.0
H2772 H 0.21397 0.70955 0.1351 0.0
H2773 H 0.22792 0.70947 1.10892 0.0
C2774 C 0.29941 0.71337 1.09546 0.0
C2775 C 0.33869 0.71398 1.08998 0.0
C2776 C 0.29088 0.7131 1.11088 0.0
C2777 C 0.36851 0.71447 1.10058 0.0
C2778 C 0.36025 0.71528 1.11569 0.0
C2779 C 0.31317 0.71566 0.13647 0.0
C2780 C 0.27414 0.71386 0.14207 0.0
C2781 C 0.32158 0.71472 0.1211 0.0
C2782 C 0.24418 0.71107 0.13157 0.0
C2783 C 0.25225 0.7111 1.1164 0.0
H2784 H 0.17606 0.54454 0.83812 0.0
H2785 H 0.17216 0.66726 0.84878 0.0
H2786 H 0.17111 0.65116 0.87468 0.0
H2787 H 0.17036 0.60221 0.89506 0.0
H2788 H 0.17972 0.47969 0.88464 0.0
H2789 H 0.17966 0.49556 0.85865 0.0
C2790 C 0.17508 0.56795 0.84605 0.0
C2791 C 0.17396 0.60756 0.84099 0.0
C2792 C 0.1754 0.55835 0.86135 0.0
C2793 C 0.17306 0.63671 0.85188 0.0
C2794 C 0.17237 0.6274 0.8669 0.0
C2795 C 0.1725 0.57878 0.88717 0.0
C2796 C 0.17473 0.53933 0.8923 0.0
C2797 C 0.17339 0.58833 0.8719 0.0
C2798 C 0.17787 0.51015 0.88147 0.0
C2799 C 0.17778 0.51934 0.8664 0.0
H2800 H 0.24224 0.43347 0.60099 0.0
H2801 H 0.35591 0.43862 0.58075 0.0
H2802 H 0.38687 0.44005 0.60464 0.0
H2803 H 0.38316 0.43905 0.63196 0.0
H2804 H 0.26988 0.42986 0.65228 0.0
H2805 H 0.23862 0.43081 0.62839 0.0
C2806 C 0.27381 0.43501 0.60172 0.0
C2807 C 0.29618 0.4361 0.58855 0.0
C2808 C 0.29212 0.43501 0.61587 0.0
C2809 C 0.33724 0.43775 0.59027 0.0
C2810 C 0.35527 0.43857 0.60413 0.0
C2811 C 0.35159 0.43727 0.63126 0.0
C2812 C 0.32942 0.43448 0.64443 0.0
C2813 C 0.33326 0.43708 0.61713 0.0
C2814 C 0.28839 0.43201 0.64274 0.0
C2815 C 0.27021 0.43258 0.62889 0.0
loop_
_geom_bond_atom_site_label_1
_geom_bond_atom_site_label_2
_geom_bond_distance
_geom_bond_site_symmetry_2
_ccdc_geom_bond_type
Nd0 C2 2.836 . S
Nd0 O20 2.500 . S
Nd0 O21 2.492 . S
Nd0 O22 2.487 . S
Nd0 O23 2.682 . S
Nd0 O24 2.410 . S
Nd0 O29 2.414 . S
Nd0 O31 2.424 . S
Nd1 C11 2.836 . S
Nd1 O23 2.414 . S
Nd1 O25 2.424 . S
Nd1 O26 2.500 . S
Nd1 O27 2.492 . S
Nd1 O28 2.487 . S
Nd1 O29 2.682 . S
Nd1 O30 2.410 . S
C2 Nd0 2.836 . S
C2 C3 1.498 . S
C2 O20 1.258 . S
C2 O21 1.239 . S
C3 C2 1.498 . S
C3 C4 1.366 1_455 S
C3 C8 1.407 . S
C4 C3 1.366 1_655 S
C4 C5 1.392 . S
C4 H32 0.930 . S
C5 C4 1.392 . S
C5 C6 1.398 . S
C5 H33 0.929 . S
C6 C5 1.398 . S
C6 C7 1.352 . S
C7 C6 1.352 . S
C7 C8 1.384 1_655 S
C7 H34 0.930 . S
C8 C3 1.407 . S
C8 C7 1.384 1_455 S
C8 H35 0.929 . S
C9 O22 1.241 . S
C9 O23 1.273 . S
C10 O24 1.251 . S
C10 O25 1.268 . S
C11 Nd1 2.836 . S
C11 C12 1.498 . S
C11 O26 1.258 . S
C11 O27 1.239 . S
C12 C11 1.498 . S
C12 C13 1.366 . S
C12 C17 1.407 . S
C13 C12 1.366 . S
C13 C14 1.392 . S
C13 H36 0.930 . S
C14 C13 1.392 . S
C14 C15 1.398 . S
C14 H37 0.929 . S
C15 C14 1.398 . S
C15 C16 1.352 . S
C16 C15 1.352 . S
C16 C17 1.384 . S
C16 H38 0.930 . S
C17 C12 1.407 . S
C17 C16 1.384 . S
C17 H39 0.929 . S
C18 O28 1.241 . S
C18 O29 1.273 . S
C19 O30 1.251 . S
C19 O31 1.268 . S
O20 Nd0 2.500 . S
O20 C2 1.258 . S
O21 Nd0 2.492 . S
O21 C2 1.239 . S
O22 Nd0 2.487 . S
O22 C9 1.241 . S
O23 Nd0 2.682 . S
O23 Nd1 2.414 . S
O23 C9 1.273 . S
O24 Nd0 2.410 . S
O24 C10 1.251 . S
O25 Nd1 2.424 . S
O25 C10 1.268 . S
O26 Nd1 2.500 . S
O26 C11 1.258 . S
O27 Nd1 2.492 . S
O27 C11 1.239 . S
O28 Nd1 2.487 . S
O28 C18 1.241 . S
O29 Nd0 2.414 . S
O29 Nd1 2.682 . S
O29 C18 1.273 . S
O30 Nd1 2.410 . S
O30 C19 1.251 . S
O31 Nd0 2.424 . S
O31 C19 1.268 . S
H32 C4 0.930 . S
H33 C5 0.929 . S
H34 C7 0.930 . S
H35 C8 0.929 . S
H36 C13 0.930 . S
H37 C14 0.929 . S
H38 C16 0.930 . S
H39 C17 0.929 . S
Nd40 C42 2.836 . S
Nd40 O60 2.500 . S
Nd40 O61 2.492 . S
Nd40 O62 2.487 . S
Nd40 O63 2.682 . S
Nd40 O64 2.410 . S
Nd40 O69 2.414 . S
Nd40 O71 2.424 . S
Nd41 C51 2.836 . S
Nd41 O63 2.414 . S
Nd41 O65 2.424 . S
Nd41 O66 2.500 . S
Nd41 O67 2.492 . S
Nd41 O68 2.487 . S
Nd41 O69 2.682 . S
Nd41 O70 2.410 . S
C42 Nd40 2.836 . S
C42 C43 1.498 . S
C42 O60 1.258 . S
C42 O61 1.239 . S
C43 C42 1.498 . S
C43 C44 1.366 . S
C43 C48 1.407 . S
C44 C43 1.366 . S
C44 C45 1.392 . S
C44 H72 0.930 . S
C45 C44 1.392 . S
C45 C46 1.398 . S
C45 H73 0.929 . S
C46 C45 1.398 . S
C46 C47 1.352 . S
C47 C46 1.352 . S
C47 C48 1.384 . S
C47 H74 0.930 . S
C48 C43 1.407 . S
C48 C47 1.384 . S
C48 H75 0.929 . S
C49 O62 1.241 . S
C49 O63 1.273 . S
C50 O64 1.251 . S
C50 O65 1.268 . S
C51 Nd41 2.836 . S
C51 C52 1.498 . S
C51 O66 1.258 . S
C51 O67 1.239 . S
C52 C51 1.498 . S
C52 C53 1.366 . S
C52 C57 1.407 . S
C53 C52 1.366 . S
C53 C54 1.392 . S
C53 H76 0.930 . S
C54 C53 1.392 . S
C54 C55 1.398 . S
C54 H77 0.929 1_565 S
C55 C54 1.398 . S
C55 C56 1.352 . S
C56 C55 1.352 . S
C56 C57 1.384 . S
C56 H78 0.930 . S
C57 C52 1.407 . S
C57 C56 1.384 . S
C57 H79 0.929 . S
C58 O68 1.241 . S
C58 O69 1.273 . S
C59 O70 1.251 . S
C59 O71 1.268 . S
O60 Nd40 2.500 . S
O60 C42 1.258 . S
O61 Nd40 2.492 . S
O61 C42 1.239 . S
O62 Nd40 2.487 . S
O62 C49 1.241 . S
O63 Nd40 2.682 . S
O63 Nd41 2.414 . S
O63 C49 1.273 . S
O64 Nd40 2.410 . S
O64 C50 1.251 . S
O65 Nd41 2.424 . S
O65 C50 1.268 . S
O66 Nd41 2.500 . S
O66 C51 1.258 . S
O67 Nd41 2.492 . S
O67 C51 1.239 . S
O68 Nd41 2.487 . S
O68 C58 1.241 . S
O69 Nd40 2.414 . S
O69 Nd41 2.682 . S
O69 C58 1.273 . S
O70 Nd41 2.410 . S
O70 C59 1.251 . S
O71 Nd40 2.424 . S
O71 C59 1.268 . S
H72 C44 0.930 . S
H73 C45 0.929 . S
H74 C47 0.930 . S
H75 C48 0.929 . S
H76 C53 0.930 . S
H77 C54 0.929 1_545 S
H78 C56 0.930 . S
H79 C57 0.929 . S
Nd80 C82 2.836 . S
Nd80 O100 2.500 . S
Nd80 O101 2.492 . S
Nd80 O102 2.487 . S
Nd80 O103 2.682 . S
Nd80 O104 2.410 . S
Nd80 O109 2.414 . S
Nd80 O111 2.424 . S
Nd81 C91 2.836 . S
Nd81 O103 2.414 . S
Nd81 O105 2.424 . S
Nd81 O106 2.500 . S
Nd81 O107 2.492 . S
Nd81 O108 2.487 . S
Nd81 O109 2.682 . S
Nd81 O110 2.410 . S
C82 Nd80 2.836 . S
C82 C83 1.498 . S
C82 O100 1.258 . S
C82 O101 1.239 . S
C83 C82 1.498 . S
C83 C84 1.366 . S
C83 C88 1.407 . S
C84 C83 1.366 . S
C84 C85 1.392 . S
C84 H112 0.930 . S
C85 C84 1.392 . S
C85 C86 1.398 . S
C85 H113 0.929 . S
C86 C85 1.398 . S
C86 C87 1.352 . S
C87 C86 1.352 . S
C87 C88 1.384 . S
C87 H114 0.930 . S
C88 C83 1.407 . S
C88 C87 1.384 . S
C88 H115 0.929 . S
C89 O102 1.241 . S
C89 O103 1.273 . S
C90 O104 1.251 . S
C90 O105 1.268 . S
C91 Nd81 2.836 . S
C91 C92 1.498 . S
C91 O106 1.258 . S
C91 O107 1.239 . S
C92 C91 1.498 . S
C92 C93 1.366 . S
C92 C97 1.407 . S
C93 C92 1.366 . S
C93 C94 1.392 . S
C93 H116 0.930 . S
C94 C93 1.392 . S
C94 C95 1.398 . S
C94 H117 0.929 . S
C95 C94 1.398 . S
C95 C96 1.352 . S
C96 C95 1.352 . S
C96 C97 1.384 . S
C96 H118 0.930 . S
C97 C92 1.407 . S
C97 C96 1.384 . S
C97 H119 0.929 . S
C98 O108 1.241 . S
C98 O109 1.273 . S
C99 O110 1.251 . S
C99 O111 1.268 . S
O100 Nd80 2.500 . S
O100 C82 1.258 . S
O101 Nd80 2.492 . S
O101 C82 1.239 . S
O102 Nd80 2.487 . S
O102 C89 1.241 . S
O103 Nd80 2.682 . S
O103 Nd81 2.414 . S
O103 C89 1.273 . S
O104 Nd80 2.410 . S
O104 C90 1.251 . S
O105 Nd81 2.424 . S
O105 C90 1.268 . S
O106 Nd81 2.500 . S
O106 C91 1.258 . S
O107 Nd81 2.492 . S
O107 C91 1.239 . S
O108 Nd81 2.487 . S
O108 C98 1.241 . S
O109 Nd80 2.414 . S
O109 Nd81 2.682 . S
O109 C98 1.273 . S
O110 Nd81 2.410 . S
O110 C99 1.251 . S
O111 Nd80 2.424 . S
O111 C99 1.268 . S
H112 C84 0.930 . S
H113 C85 0.929 . S
H114 C87 0.930 . S
H115 C88 0.929 . S
H116 C93 0.930 . S
H117 C94 0.929 . S
H118 C96 0.930 . S
H119 C97 0.929 . S
Nd120 C122 2.836 . S
Nd120 O140 2.500 . S
Nd120 O141 2.492 . S
Nd120 O142 2.487 . S
Nd120 O143 2.682 . S
Nd120 O144 2.410 . S
Nd120 O149 2.414 . S
Nd120 O151 2.424 . S
Nd121 C131 2.836 . S
Nd121 O143 2.414 . S
Nd121 O145 2.424 . S
Nd121 O146 2.500 . S
Nd121 O147 2.492 . S
Nd121 O148 2.487 . S
Nd121 O149 2.682 . S
Nd121 O150 2.410 . S
C122 Nd120 2.836 . S
C122 C123 1.498 . S
C122 O140 1.258 . S
C122 O141 1.239 . S
C123 C122 1.498 . S
C123 C124 1.366 . S
C123 C128 1.407 . S
C124 C123 1.366 . S
C124 C125 1.392 . S
C124 H152 0.930 . S
C125 C124 1.392 . S
C125 C126 1.398 . S
C125 H153 0.929 . S
C126 C125 1.398 . S
C126 C127 1.352 . S
C127 C126 1.352 . S
C127 C128 1.384 . S
C127 H154 0.930 . S
C128 C123 1.407 . S
C128 C127 1.384 . S
C128 H155 0.929 . S
C129 O142 1.241 . S
C129 O143 1.273 . S
C130 O144 1.251 . S
C130 O145 1.268 . S
C131 Nd121 2.836 . S
C131 C132 1.498 . S
C131 O146 1.258 . S
C131 O147 1.239 . S
C132 C131 1.498 . S
C132 C133 1.366 . S
C132 C137 1.407 . S
C133 C132 1.366 . S
C133 C134 1.392 . S
C133 H156 0.930 . S
C134 C133 1.392 . S
C134 C135 1.398 . S
C134 H157 0.929 1_545 S
C135 C134 1.398 . S
C135 C136 1.352 . S
C136 C135 1.352 . S
C136 C137 1.384 . S
C136 H158 0.930 . S
C137 C132 1.407 . S
C137 C136 1.384 . S
C137 H159 0.929 . S
C138 O148 1.241 . S
C138 O149 1.273 . S
C139 O150 1.251 . S
C139 O151 1.268 . S
O140 Nd120 2.500 . S
O140 C122 1.258 . S
O141 Nd120 2.492 . S
O141 C122 1.239 . S
O142 Nd120 2.487 . S
O142 C129 1.241 . S
O143 Nd120 2.682 . S
O143 Nd121 2.414 . S
O143 C129 1.273 . S
O144 Nd120 2.410 . S
O144 C130 1.251 . S
O145 Nd121 2.424 . S
O145 C130 1.268 . S
O146 Nd121 2.500 . S
O146 C131 1.258 . S
O147 Nd121 2.492 . S
O147 C131 1.239 . S
O148 Nd121 2.487 . S
O148 C138 1.241 . S
O149 Nd120 2.414 . S
O149 Nd121 2.682 . S
O149 C138 1.273 . S
O150 Nd121 2.410 . S
O150 C139 1.251 . S
O151 Nd120 2.424 . S
O151 C139 1.268 . S
H152 C124 0.930 . S
H153 C125 0.929 . S
H154 C127 0.930 . S
H155 C128 0.929 . S
H156 C133 0.930 . S
H157 C134 0.929 1_565 S
H158 C136 0.930 . S
H159 C137 0.929 . S
Nd160 C162 2.836 . S
Nd160 O180 2.500 . S
Nd160 O181 2.492 . S
Nd160 O182 2.487 . S
Nd160 O183 2.682 . S
Nd160 O184 2.410 . S
Nd160 O189 2.414 . S
Nd160 O191 2.424 . S
Nd161 C171 2.836 . S
Nd161 O183 2.414 . S
Nd161 O185 2.424 . S
Nd161 O186 2.500 . S
Nd161 O187 2.492 . S
Nd161 O188 2.487 . S
Nd161 O189 2.682 . S
Nd161 O190 2.410 . S
C162 Nd160 2.836 . S
C162 C163 1.498 . S
C162 O180 1.258 . S
C162 O181 1.239 . S
C163 C162 1.498 . S
C163 C164 1.366 1_455 S
C163 C168 1.407 . S
C164 C163 1.366 1_655 S
C164 C165 1.392 . S
C164 H192 0.930 . S
C165 C164 1.392 . S
C165 C166 1.398 . S
C165 H193 0.929 . S
C166 C165 1.398 . S
C166 C167 1.352 . S
C167 C166 1.352 . S
C167 C168 1.384 1_655 S
C167 H194 0.930 . S
C168 C163 1.407 . S
C168 C167 1.384 1_455 S
C168 H195 0.929 . S
C169 O182 1.241 . S
C169 O183 1.273 . S
C170 O184 1.251 . S
C170 O185 1.268 . S
C171 Nd161 2.836 . S
C171 C172 1.498 . S
C171 O186 1.258 . S
C171 O187 1.239 . S
C172 C171 1.498 . S
C172 C173 1.366 . S
C172 C177 1.407 . S
C173 C172 1.366 . S
C173 C174 1.392 . S
C173 H196 0.930 . S
C174 C173 1.392 . S
C174 C175 1.398 . S
C174 H197 0.929 . S
C175 C174 1.398 . S
C175 C176 1.352 . S
C176 C175 1.352 . S
C176 C177 1.384 . S
C176 H198 0.930 . S
C177 C172 1.407 . S
C177 C176 1.384 . S
C177 H199 0.929 . S
C178 O188 1.241 . S
C178 O189 1.273 . S
C179 O190 1.251 . S
C179 O191 1.268 . S
O180 Nd160 2.500 . S
O180 C162 1.258 . S
O181 Nd160 2.492 . S
O181 C162 1.239 . S
O182 Nd160 2.487 . S
O182 C169 1.241 . S
O183 Nd160 2.682 . S
O183 Nd161 2.414 . S
O183 C169 1.273 . S
O184 Nd160 2.410 . S
O184 C170 1.251 . S
O185 Nd161 2.424 . S
O185 C170 1.268 . S
O186 Nd161 2.500 . S
O186 C171 1.258 . S
O187 Nd161 2.492 . S
O187 C171 1.239 . S
O188 Nd161 2.487 . S
O188 C178 1.241 . S
O189 Nd160 2.414 . S
O189 Nd161 2.682 . S
O189 C178 1.273 . S
O190 Nd161 2.410 . S
O190 C179 1.251 . S
O191 Nd160 2.424 . S
O191 C179 1.268 . S
H192 C164 0.930 . S
H193 C165 0.929 . S
H194 C167 0.930 . S
H195 C168 0.929 . S
H196 C173 0.930 . S
H197 C174 0.929 . S
H198 C176 0.930 . S
H199 C177 0.929 . S
Nd200 C202 2.836 . S
Nd200 O220 2.500 . S
Nd200 O221 2.492 . S
Nd200 O222 2.487 . S
Nd200 O223 2.682 . S
Nd200 O224 2.410 . S
Nd200 O229 2.414 . S
Nd200 O231 2.424 . S
Nd201 C211 2.836 . S
Nd201 O223 2.414 . S
Nd201 O225 2.424 . S
Nd201 O226 2.500 . S
Nd201 O227 2.492 . S
Nd201 O228 2.487 . S
Nd201 O229 2.682 . S
Nd201 O230 2.410 . S
C202 Nd200 2.836 . S
C202 C203 1.498 . S
C202 O220 1.258 . S
C202 O221 1.239 . S
C203 C202 1.498 . S
C203 C204 1.366 . S
C203 C208 1.407 . S
C204 C203 1.366 . S
C204 C205 1.392 . S
C204 H232 0.930 . S
C205 C204 1.392 . S
C205 C206 1.398 . S
C205 H233 0.929 . S
C206 C205 1.398 . S
C206 C207 1.352 . S
C207 C206 1.352 . S
C207 C208 1.384 . S
C207 H234 0.930 . S
C208 C203 1.407 . S
C208 C207 1.384 . S
C208 H235 0.929 . S
C209 O222 1.241 . S
C209 O223 1.273 . S
C210 O224 1.251 . S
C210 O225 1.268 . S
C211 Nd201 2.836 . S
C211 C212 1.498 . S
C211 O226 1.258 . S
C211 O227 1.239 . S
C212 C211 1.498 . S
C212 C213 1.366 . S
C212 C217 1.407 . S
C213 C212 1.366 . S
C213 C214 1.392 . S
C213 H236 0.930 . S
C214 C213 1.392 . S
C214 C215 1.398 . S
C214 H237 0.929 1_565 S
C215 C214 1.398 . S
C215 C216 1.352 . S
C216 C215 1.352 . S
C216 C217 1.384 . S
C216 H238 0.930 . S
C217 C212 1.407 . S
C217 C216 1.384 . S
C217 H239 0.929 . S
C218 O228 1.241 . S
C218 O229 1.273 . S
C219 O230 1.251 . S
C219 O231 1.268 . S
O220 Nd200 2.500 . S
O220 C202 1.258 . S
O221 Nd200 2.492 . S
O221 C202 1.239 . S
O222 Nd200 2.487 . S
O222 C209 1.241 . S
O223 Nd200 2.682 . S
O223 Nd201 2.414 . S
O223 C209 1.273 . S
O224 Nd200 2.410 . S
O224 C210 1.251 . S
O225 Nd201 2.424 . S
O225 C210 1.268 . S
O226 Nd201 2.500 . S
O226 C211 1.258 . S
O227 Nd201 2.492 . S
O227 C211 1.239 . S
O228 Nd201 2.487 . S
O228 C218 1.241 . S
O229 Nd200 2.414 . S
O229 Nd201 2.682 . S
O229 C218 1.273 . S
O230 Nd201 2.410 . S
O230 C219 1.251 . S
O231 Nd200 2.424 . S
O231 C219 1.268 . S
H232 C204 0.930 . S
H233 C205 0.929 . S
H234 C207 0.930 . S
H235 C208 0.929 . S
H236 C213 0.930 . S
H237 C214 0.929 1_545 S
H238 C216 0.930 . S
H239 C217 0.929 . S
Nd240 C242 2.836 . S
Nd240 O260 2.500 . S
Nd240 O261 2.492 . S
Nd240 O262 2.487 . S
Nd240 O263 2.682 . S
Nd240 O264 2.410 . S
Nd240 O269 2.414 . S
Nd240 O271 2.424 . S
Nd241 C251 2.836 . S
Nd241 O263 2.414 . S
Nd241 O265 2.424 . S
Nd241 O266 2.500 . S
Nd241 O267 2.492 . S
Nd241 O268 2.487 . S
Nd241 O269 2.682 . S
Nd241 O270 2.410 . S
C242 Nd240 2.836 . S
C242 C243 1.498 . S
C242 O260 1.258 . S
C242 O261 1.239 . S
C243 C242 1.498 . S
C243 C244 1.366 . S
C243 C248 1.407 . S
C244 C243 1.366 . S
C244 C245 1.392 . S
C244 H272 0.930 . S
C245 C244 1.392 . S
C245 C246 1.398 . S
C245 H273 0.929 . S
C246 C245 1.398 . S
C246 C247 1.352 . S
C247 C246 1.352 . S
C247 C248 1.384 . S
C247 H274 0.930 . S
C248 C243 1.407 . S
C248 C247 1.384 . S
C248 H275 0.929 . S
C249 O262 1.241 . S
C249 O263 1.273 . S
C250 O264 1.251 . S
C250 O265 1.268 . S
C251 Nd241 2.836 . S
C251 C252 1.498 . S
C251 O266 1.258 . S
C251 O267 1.239 . S
C252 C251 1.498 . S
C252 C253 1.366 . S
C252 C257 1.407 . S
C253 C252 1.366 . S
C253 C254 1.392 . S
C253 H276 0.930 . S
C254 C253 1.392 . S
C254 C255 1.398 . S
C254 H277 0.929 . S
C255 C254 1.398 . S
C255 C256 1.352 . S
C256 C255 1.352 . S
C256 C257 1.384 . S
C256 H278 0.930 . S
C257 C252 1.407 . S
C257 C256 1.384 . S
C257 H279 0.929 . S
C258 O268 1.241 . S
C258 O269 1.273 . S
C259 O270 1.251 . S
C259 O271 1.268 . S
O260 Nd240 2.500 . S
O260 C242 1.258 . S
O261 Nd240 2.492 . S
O261 C242 1.239 . S
O262 Nd240 2.487 . S
O262 C249 1.241 . S
O263 Nd240 2.682 . S
O263 Nd241 2.414 . S
O263 C249 1.273 . S
O264 Nd240 2.410 . S
O264 C250 1.251 . S
O265 Nd241 2.424 . S
O265 C250 1.268 . S
O266 Nd241 2.500 . S
O266 C251 1.258 . S
O267 Nd241 2.492 . S
O267 C251 1.239 . S
O268 Nd241 2.487 . S
O268 C258 1.241 . S
O269 Nd240 2.414 . S
O269 Nd241 2.682 . S
O269 C258 1.273 . S
O270 Nd241 2.410 . S
O270 C259 1.251 . S
O271 Nd240 2.424 . S
O271 C259 1.268 . S
H272 C244 0.930 . S
H273 C245 0.929 . S
H274 C247 0.930 . S
H275 C248 0.929 . S
H276 C253 0.930 . S
H277 C254 0.929 . S
H278 C256 0.930 . S
H279 C257 0.929 . S
Nd280 C282 2.836 . S
Nd280 O300 2.500 . S
Nd280 O301 2.492 . S
Nd280 O302 2.487 . S
Nd280 O303 2.682 . S
Nd280 O304 2.410 . S
Nd280 O309 2.414 . S
Nd280 O311 2.424 . S
Nd281 C291 2.836 . S
Nd281 O303 2.414 . S
Nd281 O305 2.424 . S
Nd281 O306 2.500 . S
Nd281 O307 2.492 . S
Nd281 O308 2.487 . S
Nd281 O309 2.682 . S
Nd281 O310 2.410 . S
C282 Nd280 2.836 . S
C282 C283 1.498 . S
C282 O300 1.258 . S
C282 O301 1.239 . S
C283 C282 1.498 . S
C283 C284 1.366 . S
C283 C288 1.407 . S
C284 C283 1.366 . S
C284 C285 1.392 . S
C284 H312 0.930 . S
C285 C284 1.392 . S
C285 C286 1.398 . S
C285 H313 0.929 . S
C286 C285 1.398 . S
C286 C287 1.352 . S
C287 C286 1.352 . S
C287 C288 1.384 . S
C287 H314 0.930 . S
C288 C283 1.407 . S
C288 C287 1.384 . S
C288 H315 0.929 . S
C289 O302 1.241 . S
C289 O303 1.273 . S
C290 O304 1.251 . S
C290 O305 1.268 . S
C291 Nd281 2.836 . S
C291 C292 1.498 . S
C291 O306 1.258 . S
C291 O307 1.239 . S
C292 C291 1.498 . S
C292 C293 1.366 . S
C292 C297 1.407 . S
C293 C292 1.366 . S
C293 C294 1.392 . S
C293 H316 0.930 . S
C294 C293 1.392 . S
C294 C295 1.398 . S
C294 H317 0.929 1_545 S
C295 C294 1.398 . S
C295 C296 1.352 . S
C296 C295 1.352 . S
C296 C297 1.384 . S
C296 H318 0.930 . S
C297 C292 1.407 . S
C297 C296 1.384 . S
C297 H319 0.929 . S
C298 O308 1.241 . S
C298 O309 1.273 . S
C299 O310 1.251 . S
C299 O311 1.268 . S
O300 Nd280 2.500 . S
O300 C282 1.258 . S
O301 Nd280 2.492 . S
O301 C282 1.239 . S
O302 Nd280 2.487 . S
O302 C289 1.241 . S
O303 Nd280 2.682 . S
O303 Nd281 2.414 . S
O303 C289 1.273 . S
O304 Nd280 2.410 . S
O304 C290 1.251 . S
O305 Nd281 2.424 . S
O305 C290 1.268 . S
O306 Nd281 2.500 . S
O306 C291 1.258 . S
O307 Nd281 2.492 . S
O307 C291 1.239 . S
O308 Nd281 2.487 . S
O308 C298 1.241 . S
O309 Nd280 2.414 . S
O309 Nd281 2.682 . S
O309 C298 1.273 . S
O310 Nd281 2.410 . S
O310 C299 1.251 . S
O311 Nd280 2.424 . S
O311 C299 1.268 . S
H312 C284 0.930 . S
H313 C285 0.929 . S
H314 C287 0.930 . S
H315 C288 0.929 . S
H316 C293 0.930 . S
H317 C294 0.929 1_565 S
H318 C296 0.930 . S
H319 C297 0.929 . S
Nd320 C322 2.836 . S
Nd320 O340 2.500 . S
Nd320 O341 2.492 . S
Nd320 O342 2.487 . S
Nd320 O343 2.682 . S
Nd320 O344 2.410 . S
Nd320 O349 2.414 . S
Nd320 O351 2.424 . S
Nd321 C331 2.836 . S
Nd321 O343 2.414 . S
Nd321 O345 2.424 . S
Nd321 O346 2.500 . S
Nd321 O347 2.492 . S
Nd321 O348 2.487 . S
Nd321 O349 2.682 . S
Nd321 O350 2.410 . S
C322 Nd320 2.836 . S
C322 C323 1.498 . S
C322 O340 1.258 . S
C322 O341 1.239 . S
C323 C322 1.498 . S
C323 C324 1.366 . S
C323 C328 1.407 . S
C324 C323 1.366 . S
C324 C325 1.392 . S
C324 H352 0.930 . S
C325 C324 1.392 . S
C325 C326 1.398 . S
C325 H353 0.929 . S
C326 C325 1.398 . S
C326 C327 1.352 . S
C327 C326 1.352 . S
C327 C328 1.384 . S
C327 H354 0.930 . S
C328 C323 1.407 . S
C328 C327 1.384 . S
C328 H355 0.929 . S
C329 O342 1.241 . S
C329 O343 1.273 . S
C330 O344 1.251 . S
C330 O345 1.268 . S
C331 Nd321 2.836 . S
C331 C332 1.498 . S
C331 O346 1.258 . S
C331 O347 1.239 . S
C332 C331 1.498 . S
C332 C333 1.366 1_655 S
C332 C337 1.407 . S
C333 C332 1.366 1_455 S
C333 C334 1.392 . S
C333 H356 0.930 . S
C334 C333 1.392 . S
C334 C335 1.398 . S
C334 H357 0.929 . S
C335 C334 1.398 . S
C335 C336 1.352 . S
C336 C335 1.352 . S
C336 C337 1.384 1_455 S
C336 H358 0.930 . S
C337 C332 1.407 . S
C337 C336 1.384 1_655 S
C337 H359 0.929 . S
C338 O348 1.241 . S
C338 O349 1.273 . S
C339 O350 1.251 . S
C339 O351 1.268 . S
O340 Nd320 2.500 . S
O340 C322 1.258 . S
O341 Nd320 2.492 . S
O341 C322 1.239 . S
O342 Nd320 2.487 . S
O342 C329 1.241 . S
O343 Nd320 2.682 . S
O343 Nd321 2.414 . S
O343 C329 1.273 . S
O344 Nd320 2.410 . S
O344 C330 1.251 . S
O345 Nd321 2.424 . S
O345 C330 1.268 . S
O346 Nd321 2.500 . S
O346 C331 1.258 . S
O347 Nd321 2.492 . S
O347 C331 1.239 . S
O348 Nd321 2.487 . S
O348 C338 1.241 . S
O349 Nd320 2.414 . S
O349 Nd321 2.682 . S
O349 C338 1.273 . S
O350 Nd321 2.410 . S
O350 C339 1.251 . S
O351 Nd320 2.424 . S
O351 C339 1.268 . S
H352 C324 0.930 . S
H353 C325 0.929 . S
H354 C327 0.930 . S
H355 C328 0.929 . S
H356 C333 0.930 . S
H357 C334 0.929 . S
H358 C336 0.930 . S
H359 C337 0.929 . S
Nd360 C362 2.836 . S
Nd360 O380 2.500 . S
Nd360 O381 2.492 . S
Nd360 O382 2.487 . S
Nd360 O383 2.682 . S
Nd360 O384 2.410 . S
Nd360 O389 2.414 . S
Nd360 O391 2.424 . S
Nd361 C371 2.836 . S
Nd361 O383 2.414 . S
Nd361 O385 2.424 . S
Nd361 O386 2.500 . S
Nd361 O387 2.492 . S
Nd361 O388 2.487 . S
Nd361 O389 2.682 . S
Nd361 O390 2.410 . S
C362 Nd360 2.836 . S
C362 C363 1.498 . S
C362 O380 1.258 . S
C362 O381 1.239 . S
C363 C362 1.498 . S
C363 C364 1.366 . S
C363 C368 1.407 . S
C364 C363 1.366 . S
C364 C365 1.392 . S
C364 H392 0.930 . S
C365 C364 1.392 . S
C365 C366 1.398 . S
C365 H393 0.929 1_545 S
C366 C365 1.398 . S
C366 C367 1.352 . S
C367 C366 1.352 . S
C367 C368 1.384 . S
C367 H394 0.930 . S
C368 C363 1.407 . S
C368 C367 1.384 . S
C368 H395 0.929 . S
C369 O382 1.241 . S
C369 O383 1.273 . S
C370 O384 1.251 . S
C370 O385 1.268 . S
C371 Nd361 2.836 . S
C371 C372 1.498 . S
C371 O386 1.258 . S
C371 O387 1.239 . S
C372 C371 1.498 . S
C372 C373 1.366 . S
C372 C377 1.407 . S
C373 C372 1.366 . S
C373 C374 1.392 . S
C373 H396 0.930 . S
C374 C373 1.392 . S
C374 C375 1.398 . S
C374 H397 0.929 . S
C375 C374 1.398 . S
C375 C376 1.352 . S
C376 C375 1.352 . S
C376 C377 1.384 . S
C376 H398 0.930 . S
C377 C372 1.407 . S
C377 C376 1.384 . S
C377 H399 0.929 . S
C378 O388 1.241 . S
C378 O389 1.273 . S
C379 O390 1.251 . S
C379 O391 1.268 . S
O380 Nd360 2.500 . S
O380 C362 1.258 . S
O381 Nd360 2.492 . S
O381 C362 1.239 . S
O382 Nd360 2.487 . S
O382 C369 1.241 . S
O383 Nd360 2.682 . S
O383 Nd361 2.414 . S
O383 C369 1.273 . S
O384 Nd360 2.410 . S
O384 C370 1.251 . S
O385 Nd361 2.424 . S
O385 C370 1.268 . S
O386 Nd361 2.500 . S
O386 C371 1.258 . S
O387 Nd361 2.492 . S
O387 C371 1.239 . S
O388 Nd361 2.487 . S
O388 C378 1.241 . S
O389 Nd360 2.414 . S
O389 Nd361 2.682 . S
O389 C378 1.273 . S
O390 Nd361 2.410 . S
O390 C379 1.251 . S
O391 Nd360 2.424 . S
O391 C379 1.268 . S
H392 C364 0.930 . S
H393 C365 0.929 1_565 S
H394 C367 0.930 . S
H395 C368 0.929 . S
H396 C373 0.930 . S
H397 C374 0.929 . S
H398 C376 0.930 . S
H399 C377 0.929 . S
Nd400 C402 2.836 . S
Nd400 O420 2.500 . S
Nd400 O421 2.492 . S
Nd400 O422 2.487 . S
Nd400 O423 2.682 . S
Nd400 O424 2.410 . S
Nd400 O429 2.414 . S
Nd400 O431 2.424 . S
Nd401 C411 2.836 . S
Nd401 O423 2.414 . S
Nd401 O425 2.424 . S
Nd401 O426 2.500 . S
Nd401 O427 2.492 . S
Nd401 O428 2.487 . S
Nd401 O429 2.682 . S
Nd401 O430 2.410 . S
C402 Nd400 2.836 . S
C402 C403 1.498 . S
C402 O420 1.258 . S
C402 O421 1.239 . S
C403 C402 1.498 . S
C403 C404 1.366 . S
C403 C408 1.407 . S
C404 C403 1.366 . S
C404 C405 1.392 . S
C404 H432 0.930 . S
C405 C404 1.392 . S
C405 C406 1.398 . S
C405 H433 0.929 . S
C406 C405 1.398 . S
C406 C407 1.352 . S
C407 C406 1.352 . S
C407 C408 1.384 . S
C407 H434 0.930 . S
C408 C403 1.407 . S
C408 C407 1.384 . S
C408 H435 0.929 . S
C409 O422 1.241 . S
C409 O423 1.273 . S
C410 O424 1.251 . S
C410 O425 1.268 . S
C411 Nd401 2.836 . S
C411 C412 1.498 . S
C411 O426 1.258 . S
C411 O427 1.239 . S
C412 C411 1.498 . S
C412 C413 1.366 . S
C412 C417 1.407 . S
C413 C412 1.366 . S
C413 C414 1.392 . S
C413 H436 0.930 . S
C414 C413 1.392 . S
C414 C415 1.398 . S
C414 H437 0.929 . S
C415 C414 1.398 . S
C415 C416 1.352 . S
C416 C415 1.352 . S
C416 C417 1.384 . S
C416 H438 0.930 . S
C417 C412 1.407 . S
C417 C416 1.384 . S
C417 H439 0.929 . S
C418 O428 1.241 . S
C418 O429 1.273 . S
C419 O430 1.251 . S
C419 O431 1.268 . S
O420 Nd400 2.500 . S
O420 C402 1.258 . S
O421 Nd400 2.492 . S
O421 C402 1.239 . S
O422 Nd400 2.487 . S
O422 C409 1.241 . S
O423 Nd400 2.682 . S
O423 Nd401 2.414 . S
O423 C409 1.273 . S
O424 Nd400 2.410 . S
O424 C410 1.251 . S
O425 Nd401 2.424 . S
O425 C410 1.268 . S
O426 Nd401 2.500 . S
O426 C411 1.258 . S
O427 Nd401 2.492 . S
O427 C411 1.239 . S
O428 Nd401 2.487 . S
O428 C418 1.241 . S
O429 Nd400 2.414 . S
O429 Nd401 2.682 . S
O429 C418 1.273 . S
O430 Nd401 2.410 . S
O430 C419 1.251 . S
O431 Nd400 2.424 . S
O431 C419 1.268 . S
H432 C404 0.930 . S
H433 C405 0.929 . S
H434 C407 0.930 . S
H435 C408 0.929 . S
H436 C413 0.930 . S
H437 C414 0.929 . S
H438 C416 0.930 . S
H439 C417 0.929 . S
Nd440 C442 2.836 . S
Nd440 O460 2.500 . S
Nd440 O461 2.492 . S
Nd440 O462 2.487 . S
Nd440 O463 2.682 . S
Nd440 O464 2.410 . S
Nd440 O469 2.414 . S
Nd440 O471 2.424 . S
Nd441 C451 2.836 . S
Nd441 O463 2.414 . S
Nd441 O465 2.424 . S
Nd441 O466 2.500 . S
Nd441 O467 2.492 . S
Nd441 O468 2.487 . S
Nd441 O469 2.682 . S
Nd441 O470 2.410 . S
C442 Nd440 2.836 . S
C442 C443 1.498 . S
C442 O460 1.258 . S
C442 O461 1.239 . S
C443 C442 1.498 . S
C443 C444 1.366 . S
C443 C448 1.407 . S
C444 C443 1.366 . S
C444 C445 1.392 . S
C444 H472 0.930 . S
C445 C444 1.392 . S
C445 C446 1.398 . S
C445 H473 0.929 1_565 S
C446 C445 1.398 . S
C446 C447 1.352 . S
C447 C446 1.352 . S
C447 C448 1.384 . S
C447 H474 0.930 . S
C448 C443 1.407 . S
C448 C447 1.384 . S
C448 H475 0.929 . S
C449 O462 1.241 . S
C449 O463 1.273 . S
C450 O464 1.251 . S
C450 O465 1.268 . S
C451 Nd441 2.836 . S
C451 C452 1.498 . S
C451 O466 1.258 . S
C451 O467 1.239 . S
C452 C451 1.498 . S
C452 C453 1.366 . S
C452 C457 1.407 . S
C453 C452 1.366 . S
C453 C454 1.392 . S
C453 H476 0.930 . S
C454 C453 1.392 . S
C454 C455 1.398 . S
C454 H477 0.929 . S
C455 C454 1.398 . S
C455 C456 1.352 . S
C456 C455 1.352 . S
C456 C457 1.384 . S
C456 H478 0.930 . S
C457 C452 1.407 . S
C457 C456 1.384 . S
C457 H479 0.929 . S
C458 O468 1.241 . S
C458 O469 1.273 . S
C459 O470 1.251 . S
C459 O471 1.268 . S
O460 Nd440 2.500 . S
O460 C442 1.258 . S
O461 Nd440 2.492 . S
O461 C442 1.239 . S
O462 Nd440 2.487 . S
O462 C449 1.241 . S
O463 Nd440 2.682 . S
O463 Nd441 2.414 . S
O463 C449 1.273 . S
O464 Nd440 2.410 . S
O464 C450 1.251 . S
O465 Nd441 2.424 . S
O465 C450 1.268 . S
O466 Nd441 2.500 . S
O466 C451 1.258 . S
O467 Nd441 2.492 . S
O467 C451 1.239 . S
O468 Nd441 2.487 . S
O468 C458 1.241 . S
O469 Nd440 2.414 . S
O469 Nd441 2.682 . S
O469 C458 1.273 . S
O470 Nd441 2.410 . S
O470 C459 1.251 . S
O471 Nd440 2.424 . S
O471 C459 1.268 . S
H472 C444 0.930 . S
H473 C445 0.929 1_545 S
H474 C447 0.930 . S
H475 C448 0.929 . S
H476 C453 0.930 . S
H477 C454 0.929 . S
H478 C456 0.930 . S
H479 C457 0.929 . S
Nd480 C482 2.836 . S
Nd480 O500 2.500 . S
Nd480 O501 2.492 . S
Nd480 O502 2.487 . S
Nd480 O503 2.682 . S
Nd480 O504 2.410 . S
Nd480 O509 2.414 . S
Nd480 O511 2.424 . S
Nd481 C491 2.836 . S
Nd481 O503 2.414 . S
Nd481 O505 2.424 . S
Nd481 O506 2.500 . S
Nd481 O507 2.492 . S
Nd481 O508 2.487 . S
Nd481 O509 2.682 . S
Nd481 O510 2.410 . S
C482 Nd480 2.836 . S
C482 C483 1.498 . S
C482 O500 1.258 . S
C482 O501 1.239 . S
C483 C482 1.498 . S
C483 C484 1.366 . S
C483 C488 1.407 . S
C484 C483 1.366 . S
C484 C485 1.392 . S
C484 H512 0.930 . S
C485 C484 1.392 . S
C485 C486 1.398 . S
C485 H513 0.929 . S
C486 C485 1.398 . S
C486 C487 1.352 . S
C487 C486 1.352 . S
C487 C488 1.384 . S
C487 H514 0.930 . S
C488 C483 1.407 . S
C488 C487 1.384 . S
C488 H515 0.929 . S
C489 O502 1.241 . S
C489 O503 1.273 . S
C490 O504 1.251 . S
C490 O505 1.268 . S
C491 Nd481 2.836 . S
C491 C492 1.498 . S
C491 O506 1.258 . S
C491 O507 1.239 . S
C492 C491 1.498 . S
C492 C493 1.366 1_655 S
C492 C497 1.407 . S
C493 C492 1.366 1_455 S
C493 C494 1.392 . S
C493 H516 0.930 . S
C494 C493 1.392 . S
C494 C495 1.398 . S
C494 H517 0.929 . S
C495 C494 1.398 . S
C495 C496 1.352 . S
C496 C495 1.352 . S
C496 C497 1.384 1_455 S
C496 H518 0.930 . S
C497 C492 1.407 . S
C497 C496 1.384 1_655 S
C497 H519 0.929 . S
C498 O508 1.241 . S
C498 O509 1.273 . S
C499 O510 1.251 . S
C499 O511 1.268 . S
O500 Nd480 2.500 . S
O500 C482 1.258 . S
O501 Nd480 2.492 . S
O501 C482 1.239 . S
O502 Nd480 2.487 . S
O502 C489 1.241 . S
O503 Nd480 2.682 . S
O503 Nd481 2.414 . S
O503 C489 1.273 . S
O504 Nd480 2.410 . S
O504 C490 1.251 . S
O505 Nd481 2.424 . S
O505 C490 1.268 . S
O506 Nd481 2.500 . S
O506 C491 1.258 . S
O507 Nd481 2.492 . S
O507 C491 1.239 . S
O508 Nd481 2.487 . S
O508 C498 1.241 . S
O509 Nd480 2.414 . S
O509 Nd481 2.682 . S
O509 C498 1.273 . S
O510 Nd481 2.410 . S
O510 C499 1.251 . S
O511 Nd480 2.424 . S
O511 C499 1.268 . S
H512 C484 0.930 . S
H513 C485 0.929 . S
H514 C487 0.930 . S
H515 C488 0.929 . S
H516 C493 0.930 . S
H517 C494 0.929 . S
H518 C496 0.930 . S
H519 C497 0.929 . S
Nd520 C522 2.836 . S
Nd520 O540 2.500 . S
Nd520 O541 2.492 . S
Nd520 O542 2.487 . S
Nd520 O543 2.682 . S
Nd520 O544 2.410 . S
Nd520 O549 2.414 . S
Nd520 O551 2.424 . S
Nd521 C531 2.836 . S
Nd521 O543 2.414 . S
Nd521 O545 2.424 . S
Nd521 O546 2.500 . S
Nd521 O547 2.492 . S
Nd521 O548 2.487 . S
Nd521 O549 2.682 . S
Nd521 O550 2.410 . S
C522 Nd520 2.836 . S
C522 C523 1.498 . S
C522 O540 1.258 . S
C522 O541 1.239 . S
C523 C522 1.498 . S
C523 C524 1.366 . S
C523 C528 1.407 . S
C524 C523 1.366 . S
C524 C525 1.392 . S
C524 H552 0.930 . S
C525 C524 1.392 . S
C525 C526 1.398 . S
C525 H553 0.929 1_545 S
C526 C525 1.398 . S
C526 C527 1.352 . S
C527 C526 1.352 . S
C527 C528 1.384 . S
C527 H554 0.930 . S
C528 C523 1.407 . S
C528 C527 1.384 . S
C528 H555 0.929 . S
C529 O542 1.241 . S
C529 O543 1.273 . S
C530 O544 1.251 . S
C530 O545 1.268 . S
C531 Nd521 2.836 . S
C531 C532 1.498 . S
C531 O546 1.258 . S
C531 O547 1.239 . S
C532 C531 1.498 . S
C532 C533 1.366 . S
C532 C537 1.407 . S
C533 C532 1.366 . S
C533 C534 1.392 . S
C533 H556 0.930 . S
C534 C533 1.392 . S
C534 C535 1.398 . S
C534 H557 0.929 . S
C535 C534 1.398 . S
C535 C536 1.352 . S
C536 C535 1.352 . S
C536 C537 1.384 . S
C536 H558 0.930 . S
C537 C532 1.407 . S
C537 C536 1.384 . S
C537 H559 0.929 . S
C538 O548 1.241 . S
C538 O549 1.273 . S
C539 O550 1.251 . S
C539 O551 1.268 . S
O540 Nd520 2.500 . S
O540 C522 1.258 . S
O541 Nd520 2.492 . S
O541 C522 1.239 . S
O542 Nd520 2.487 . S
O542 C529 1.241 . S
O543 Nd520 2.682 . S
O543 Nd521 2.414 . S
O543 C529 1.273 . S
O544 Nd520 2.410 . S
O544 C530 1.251 . S
O545 Nd521 2.424 . S
O545 C530 1.268 . S
O546 Nd521 2.500 . S
O546 C531 1.258 . S
O547 Nd521 2.492 . S
O547 C531 1.239 . S
O548 Nd521 2.487 . S
O548 C538 1.241 . S
O549 Nd520 2.414 . S
O549 Nd521 2.682 . S
O549 C538 1.273 . S
O550 Nd521 2.410 . S
O550 C539 1.251 . S
O551 Nd520 2.424 . S
O551 C539 1.268 . S
H552 C524 0.930 . S
H553 C525 0.929 1_565 S
H554 C527 0.930 . S
H555 C528 0.929 . S
H556 C533 0.930 . S
H557 C534 0.929 . S
H558 C536 0.930 . S
H559 C537 0.929 . S
Nd560 C562 2.836 . S
Nd560 O580 2.500 . S
Nd560 O581 2.492 . S
Nd560 O582 2.487 . S
Nd560 O583 2.682 . S
Nd560 O584 2.410 . S
Nd560 O589 2.414 . S
Nd560 O591 2.424 . S
Nd561 C571 2.836 . S
Nd561 O583 2.414 . S
Nd561 O585 2.424 . S
Nd561 O586 2.500 . S
Nd561 O587 2.492 . S
Nd561 O588 2.487 . S
Nd561 O589 2.682 . S
Nd561 O590 2.410 . S
C562 Nd560 2.836 . S
C562 C563 1.498 . S
C562 O580 1.258 . S
C562 O581 1.239 . S
C563 C562 1.498 . S
C563 C564 1.366 . S
C563 C568 1.407 . S
C564 C563 1.366 . S
C564 C565 1.392 . S
C564 H592 0.930 . S
C565 C564 1.392 . S
C565 C566 1.398 . S
C565 H593 0.929 . S
C566 C565 1.398 . S
C566 C567 1.352 . S
C567 C566 1.352 . S
C567 C568 1.384 . S
C567 H594 0.930 . S
C568 C563 1.407 . S
C568 C567 1.384 . S
C568 H595 0.929 . S
C569 O582 1.241 . S
C569 O583 1.273 . S
C570 O584 1.251 . S
C570 O585 1.268 . S
C571 Nd561 2.836 . S
C571 C572 1.498 . S
C571 O586 1.258 . S
C571 O587 1.239 . S
C572 C571 1.498 . S
C572 C573 1.366 . S
C572 C577 1.407 . S
C573 C572 1.366 . S
C573 C574 1.392 . S
C573 H596 0.930 . S
C574 C573 1.392 . S
C574 C575 1.398 . S
C574 H597 0.929 . S
C575 C574 1.398 . S
C575 C576 1.352 . S
C576 C575 1.352 . S
C576 C577 1.384 . S
C576 H598 0.930 . S
C577 C572 1.407 . S
C577 C576 1.384 . S
C577 H599 0.929 . S
C578 O588 1.241 . S
C578 O589 1.273 . S
C579 O590 1.251 . S
C579 O591 1.268 . S
O580 Nd560 2.500 . S
O580 C562 1.258 . S
O581 Nd560 2.492 . S
O581 C562 1.239 . S
O582 Nd560 2.487 . S
O582 C569 1.241 . S
O583 Nd560 2.682 . S
O583 Nd561 2.414 . S
O583 C569 1.273 . S
O584 Nd560 2.410 . S
O584 C570 1.251 . S
O585 Nd561 2.424 . S
O585 C570 1.268 . S
O586 Nd561 2.500 . S
O586 C571 1.258 . S
O587 Nd561 2.492 . S
O587 C571 1.239 . S
O588 Nd561 2.487 . S
O588 C578 1.241 . S
O589 Nd560 2.414 . S
O589 Nd561 2.682 . S
O589 C578 1.273 . S
O590 Nd561 2.410 . S
O590 C579 1.251 . S
O591 Nd560 2.424 . S
O591 C579 1.268 . S
H592 C564 0.930 . S
H593 C565 0.929 . S
H594 C567 0.930 . S
H595 C568 0.929 . S
H596 C573 0.930 . S
H597 C574 0.929 . S
H598 C576 0.930 . S
H599 C577 0.929 . S
Nd600 C602 2.836 . S
Nd600 O620 2.500 . S
Nd600 O621 2.492 . S
Nd600 O622 2.487 . S
Nd600 O623 2.682 . S
Nd600 O624 2.410 . S
Nd600 O629 2.414 . S
Nd600 O631 2.424 . S
Nd601 C611 2.836 . S
Nd601 O623 2.414 . S
Nd601 O625 2.424 . S
Nd601 O626 2.500 . S
Nd601 O627 2.492 . S
Nd601 O628 2.487 . S
Nd601 O629 2.682 . S
Nd601 O630 2.410 . S
C602 Nd600 2.836 . S
C602 C603 1.498 . S
C602 O620 1.258 . S
C602 O621 1.239 . S
C603 C602 1.498 . S
C603 C604 1.366 . S
C603 C608 1.407 . S
C604 C603 1.366 . S
C604 C605 1.392 . S
C604 H632 0.930 . S
C605 C604 1.392 . S
C605 C606 1.398 . S
C605 H633 0.929 1_565 S
C606 C605 1.398 . S
C606 C607 1.352 . S
C607 C606 1.352 . S
C607 C608 1.384 . S
C607 H634 0.930 . S
C608 C603 1.407 . S
C608 C607 1.384 . S
C608 H635 0.929 . S
C609 O622 1.241 . S
C609 O623 1.273 . S
C610 O624 1.251 . S
C610 O625 1.268 . S
C611 Nd601 2.836 . S
C611 C612 1.498 . S
C611 O626 1.258 . S
C611 O627 1.239 . S
C612 C611 1.498 . S
C612 C613 1.366 . S
C612 C617 1.407 . S
C613 C612 1.366 . S
C613 C614 1.392 . S
C613 H636 0.930 . S
C614 C613 1.392 . S
C614 C615 1.398 . S
C614 H637 0.929 . S
C615 C614 1.398 . S
C615 C616 1.352 . S
C616 C615 1.352 . S
C616 C617 1.384 . S
C616 H638 0.930 . S
C617 C612 1.407 . S
C617 C616 1.384 . S
C617 H639 0.929 . S
C618 O628 1.241 . S
C618 O629 1.273 . S
C619 O630 1.251 . S
C619 O631 1.268 . S
O620 Nd600 2.500 . S
O620 C602 1.258 . S
O621 Nd600 2.492 . S
O621 C602 1.239 . S
O622 Nd600 2.487 . S
O622 C609 1.241 . S
O623 Nd600 2.682 . S
O623 Nd601 2.414 . S
O623 C609 1.273 . S
O624 Nd600 2.410 . S
O624 C610 1.251 . S
O625 Nd601 2.424 . S
O625 C610 1.268 . S
O626 Nd601 2.500 . S
O626 C611 1.258 . S
O627 Nd601 2.492 . S
O627 C611 1.239 . S
O628 Nd601 2.487 . S
O628 C618 1.241 . S
O629 Nd600 2.414 . S
O629 Nd601 2.682 . S
O629 C618 1.273 . S
O630 Nd601 2.410 . S
O630 C619 1.251 . S
O631 Nd600 2.424 . S
O631 C619 1.268 . S
H632 C604 0.930 . S
H633 C605 0.929 1_545 S
H634 C607 0.930 . S
H635 C608 0.929 . S
H636 C613 0.930 . S
H637 C614 0.929 . S
H638 C616 0.930 . S
H639 C617 0.929 . S
Nd640 C642 2.836 . S
Nd640 O660 2.500 . S
Nd640 O661 2.492 . S
Nd640 O662 2.487 . S
Nd640 O663 2.682 . S
Nd640 O664 2.410 . S
Nd640 O669 2.414 . S
Nd640 O671 2.424 . S
Nd641 C651 2.836 . S
Nd641 O663 2.414 . S
Nd641 O665 2.424 . S
Nd641 O666 2.500 . S
Nd641 O667 2.492 . S
Nd641 O668 2.487 . S
Nd641 O669 2.682 . S
Nd641 O670 2.410 . S
C642 Nd640 2.836 . S
C642 C643 1.498 . S
C642 O660 1.258 . S
C642 O661 1.239 . S
C643 C642 1.498 . S
C643 C644 1.366 . S
C643 C648 1.407 . S
C644 C643 1.366 . S
C644 C645 1.392 . S
C644 H672 0.930 . S
C645 C644 1.392 . S
C645 C646 1.398 . S
C645 H673 0.929 . S
C646 C645 1.398 . S
C646 C647 1.352 . S
C647 C646 1.352 . S
C647 C648 1.384 . S
C647 H674 0.930 . S
C648 C643 1.407 . S
C648 C647 1.384 . S
C648 H675 0.929 . S
C649 O662 1.241 . S
C649 O663 1.273 . S
C650 O664 1.251 . S
C650 O665 1.268 . S
C651 Nd641 2.836 . S
C651 C652 1.498 . S
C651 O666 1.258 . S
C651 O667 1.239 . S
C652 C651 1.498 . S
C652 C653 1.366 . S
C652 C657 1.407 . S
C653 C652 1.366 . S
C653 C654 1.392 . S
C653 H676 0.930 . S
C654 C653 1.392 . S
C654 C655 1.398 . S
C654 H677 0.929 . S
C655 C654 1.398 . S
C655 C656 1.352 . S
C656 C655 1.352 . S
C656 C657 1.384 . S
C656 H678 0.930 . S
C657 C652 1.407 . S
C657 C656 1.384 . S
C657 H679 0.929 . S
C658 O668 1.241 . S
C658 O669 1.273 . S
C659 O670 1.251 . S
C659 O671 1.268 . S
O660 Nd640 2.500 . S
O660 C642 1.258 . S
O661 Nd640 2.492 . S
O661 C642 1.239 . S
O662 Nd640 2.487 . S
O662 C649 1.241 . S
O663 Nd640 2.682 . S
O663 Nd641 2.414 . S
O663 C649 1.273 . S
O664 Nd640 2.410 . S
O664 C650 1.251 . S
O665 Nd641 2.424 . S
O665 C650 1.268 . S
O666 Nd641 2.500 . S
O666 C651 1.258 . S
O667 Nd641 2.492 . S
O667 C651 1.239 . S
O668 Nd641 2.487 . S
O668 C658 1.241 . S
O669 Nd640 2.414 . S
O669 Nd641 2.682 . S
O669 C658 1.273 . S
O670 Nd641 2.410 . S
O670 C659 1.251 . S
O671 Nd640 2.424 . S
O671 C659 1.268 . S
H672 C644 0.930 . S
H673 C645 0.929 . S
H674 C647 0.930 . S
H675 C648 0.929 . S
H676 C653 0.930 . S
H677 C654 0.929 . S
H678 C656 0.930 . S
H679 C657 0.929 . S
Nd680 C682 2.836 . S
Nd680 O700 2.500 . S
Nd680 O701 2.492 . S
Nd680 O702 2.487 . S
Nd680 O703 2.682 . S
Nd680 O704 2.410 . S
Nd680 O709 2.414 . S
Nd680 O711 2.424 . S
Nd681 C691 2.836 . S
Nd681 O703 2.414 . S
Nd681 O705 2.424 . S
Nd681 O706 2.500 . S
Nd681 O707 2.492 . S
Nd681 O708 2.487 . S
Nd681 O709 2.682 . S
Nd681 O710 2.410 . S
C682 Nd680 2.836 . S
C682 C683 1.498 . S
C682 O700 1.258 . S
C682 O701 1.239 . S
C683 C682 1.498 . S
C683 C684 1.366 . S
C683 C688 1.407 . S
C684 C683 1.366 . S
C684 C685 1.392 . S
C684 H712 0.930 . S
C685 C684 1.392 . S
C685 C686 1.398 . S
C685 H713 0.929 . S
C686 C685 1.398 . S
C686 C687 1.352 . S
C687 C686 1.352 . S
C687 C688 1.384 . S
C687 H714 0.930 . S
C688 C683 1.407 . S
C688 C687 1.384 . S
C688 H715 0.929 . S
C689 O702 1.241 . S
C689 O703 1.273 . S
C690 O704 1.251 . S
C690 O705 1.268 . S
C691 Nd681 2.836 . S
C691 C692 1.498 . S
C691 O706 1.258 . S
C691 O707 1.239 . S
C692 C691 1.498 . S
C692 C693 1.366 . S
C692 C697 1.407 . S
C693 C692 1.366 . S
C693 C694 1.392 . S
C693 H716 0.930 . S
C694 C693 1.392 . S
C694 C695 1.398 . S
C694 H717 0.929 . S
C695 C694 1.398 . S
C695 C696 1.352 . S
C696 C695 1.352 . S
C696 C697 1.384 . S
C696 H718 0.930 . S
C697 C692 1.407 . S
C697 C696 1.384 . S
C697 H719 0.929 . S
C698 O708 1.241 . S
C698 O709 1.273 . S
C699 O710 1.251 . S
C699 O711 1.268 . S
O700 Nd680 2.500 . S
O700 C682 1.258 . S
O701 Nd680 2.492 . S
O701 C682 1.239 . S
O702 Nd680 2.487 . S
O702 C689 1.241 . S
O703 Nd680 2.682 . S
O703 Nd681 2.414 . S
O703 C689 1.273 . S
O704 Nd680 2.410 . S
O704 C690 1.251 . S
O705 Nd681 2.424 . S
O705 C690 1.268 . S
O706 Nd681 2.500 . S
O706 C691 1.258 . S
O707 Nd681 2.492 . S
O707 C691 1.239 . S
O708 Nd681 2.487 . S
O708 C698 1.241 . S
O709 Nd680 2.414 . S
O709 Nd681 2.682 . S
O709 C698 1.273 . S
O710 Nd681 2.410 . S
O710 C699 1.251 . S
O711 Nd680 2.424 . S
O711 C699 1.268 . S
H712 C684 0.930 . S
H713 C685 0.929 . S
H714 C687 0.930 . S
H715 C688 0.929 . S
H716 C693 0.930 . S
H717 C694 0.929 . S
H718 C696 0.930 . S
H719 C697 0.929 . S
Nd720 C722 2.836 . S
Nd720 O740 2.500 . S
Nd720 O741 2.492 . S
Nd720 O742 2.487 . S
Nd720 O743 2.682 . S
Nd720 O744 2.410 . S
Nd720 O749 2.414 . S
Nd720 O751 2.424 . S
Nd721 C731 2.836 . S
Nd721 O743 2.414 . S
Nd721 O745 2.424 . S
Nd721 O746 2.500 . S
Nd721 O747 2.492 . S
Nd721 O748 2.487 . S
Nd721 O749 2.682 . S
Nd721 O750 2.410 . S
C722 Nd720 2.836 . S
C722 C723 1.498 . S
C722 O740 1.258 . S
C722 O741 1.239 . S
C723 C722 1.498 . S
C723 C724 1.366 1_655 S
C723 C728 1.407 . S
C724 C723 1.366 1_455 S
C724 C725 1.392 . S
C724 H752 0.930 . S
C725 C724 1.392 . S
C725 C726 1.398 . S
C725 H753 0.929 . S
C726 C725 1.398 . S
C726 C727 1.352 . S
C727 C726 1.352 . S
C727 C728 1.384 1_455 S
C727 H754 0.930 . S
C728 C723 1.407 . S
C728 C727 1.384 1_655 S
C728 H755 0.929 . S
C729 O742 1.241 . S
C729 O743 1.273 . S
C730 O744 1.251 . S
C730 O745 1.268 . S
C731 Nd721 2.836 . S
C731 C732 1.498 . S
C731 O746 1.258 . S
C731 O747 1.239 . S
C732 C731 1.498 . S
C732 C733 1.366 . S
C732 C737 1.407 . S
C733 C732 1.366 . S
C733 C734 1.392 . S
C733 H756 0.930 . S
C734 C733 1.392 . S
C734 C735 1.398 . S
C734 H757 0.929 . S
C735 C734 1.398 . S
C735 C736 1.352 . S
C736 C735 1.352 . S
C736 C737 1.384 . S
C736 H758 0.930 . S
C737 C732 1.407 . S
C737 C736 1.384 . S
C737 H759 0.929 . S
C738 O748 1.241 . S
C738 O749 1.273 . S
C739 O750 1.251 . S
C739 O751 1.268 . S
O740 Nd720 2.500 . S
O740 C722 1.258 . S
O741 Nd720 2.492 . S
O741 C722 1.239 . S
O742 Nd720 2.487 . S
O742 C729 1.241 . S
O743 Nd720 2.682 . S
O743 Nd721 2.414 . S
O743 C729 1.273 . S
O744 Nd720 2.410 . S
O744 C730 1.251 . S
O745 Nd721 2.424 . S
O745 C730 1.268 . S
O746 Nd721 2.500 . S
O746 C731 1.258 . S
O747 Nd721 2.492 . S
O747 C731 1.239 . S
O748 Nd721 2.487 . S
O748 C738 1.241 . S
O749 Nd720 2.414 . S
O749 Nd721 2.682 . S
O749 C738 1.273 . S
O750 Nd721 2.410 . S
O750 C739 1.251 . S
O751 Nd720 2.424 . S
O751 C739 1.268 . S
H752 C724 0.930 . S
H753 C725 0.929 . S
H754 C727 0.930 . S
H755 C728 0.929 . S
H756 C733 0.930 . S
H757 C734 0.929 . S
H758 C736 0.930 . S
H759 C737 0.929 . S
Nd760 C762 2.836 . S
Nd760 O780 2.500 . S
Nd760 O781 2.492 . S
Nd760 O782 2.487 . S
Nd760 O783 2.682 . S
Nd760 O784 2.410 . S
Nd760 O789 2.414 . S
Nd760 O791 2.424 . S
Nd761 C771 2.836 . S
Nd761 O783 2.414 . S
Nd761 O785 2.424 . S
Nd761 O786 2.500 . S
Nd761 O787 2.492 . S
Nd761 O788 2.487 . S
Nd761 O789 2.682 . S
Nd761 O790 2.410 . S
C762 Nd760 2.836 . S
C762 C763 1.498 . S
C762 O780 1.258 . S
C762 O781 1.239 . S
C763 C762 1.498 . S
C763 C764 1.366 . S
C763 C768 1.407 . S
C764 C763 1.366 . S
C764 C765 1.392 . S
C764 H792 0.930 . S
C765 C764 1.392 . S
C765 C766 1.398 . S
C765 H793 0.929 . S
C766 C765 1.398 . S
C766 C767 1.352 . S
C767 C766 1.352 . S
C767 C768 1.384 . S
C767 H794 0.930 . S
C768 C763 1.407 . S
C768 C767 1.384 . S
C768 H795 0.929 . S
C769 O782 1.241 . S
C769 O783 1.273 . S
C770 O784 1.251 . S
C770 O785 1.268 . S
C771 Nd761 2.836 . S
C771 C772 1.498 . S
C771 O786 1.258 . S
C771 O787 1.239 . S
C772 C771 1.498 . S
C772 C773 1.366 . S
C772 C777 1.407 . S
C773 C772 1.366 . S
C773 C774 1.392 . S
C773 H796 0.930 . S
C774 C773 1.392 . S
C774 C775 1.398 . S
C774 H797 0.929 . S
C775 C774 1.398 . S
C775 C776 1.352 . S
C776 C775 1.352 . S
C776 C777 1.384 . S
C776 H798 0.930 . S
C777 C772 1.407 . S
C777 C776 1.384 . S
C777 H799 0.929 . S
C778 O788 1.241 . S
C778 O789 1.273 . S
C779 O790 1.251 . S
C779 O791 1.268 . S
O780 Nd760 2.500 . S
O780 C762 1.258 . S
O781 Nd760 2.492 . S
O781 C762 1.239 . S
O782 Nd760 2.487 . S
O782 C769 1.241 . S
O783 Nd760 2.682 . S
O783 Nd761 2.414 . S
O783 C769 1.273 . S
O784 Nd760 2.410 . S
O784 C770 1.251 . S
O785 Nd761 2.424 . S
O785 C770 1.268 . S
O786 Nd761 2.500 . S
O786 C771 1.258 . S
O787 Nd761 2.492 . S
O787 C771 1.239 . S
O788 Nd761 2.487 . S
O788 C778 1.241 . S
O789 Nd760 2.414 . S
O789 Nd761 2.682 . S
O789 C778 1.273 . S
O790 Nd761 2.410 . S
O790 C779 1.251 . S
O791 Nd760 2.424 . S
O791 C779 1.268 . S
H792 C764 0.930 . S
H793 C765 0.929 . S
H794 C767 0.930 . S
H795 C768 0.929 . S
H796 C773 0.930 . S
H797 C774 0.929 . S
H798 C776 0.930 . S
H799 C777 0.929 . S
Nd800 C802 2.836 . S
Nd800 O820 2.500 . S
Nd800 O821 2.492 . S
Nd800 O822 2.487 . S
Nd800 O823 2.682 . S
Nd800 O824 2.410 . S
Nd800 O829 2.414 . S
Nd800 O831 2.424 . S
Nd801 C811 2.836 . S
Nd801 O823 2.414 . S
Nd801 O825 2.424 . S
Nd801 O826 2.500 . S
Nd801 O827 2.492 . S
Nd801 O828 2.487 . S
Nd801 O829 2.682 . S
Nd801 O830 2.410 . S
C802 Nd800 2.836 . S
C802 C803 1.498 . S
C802 O820 1.258 . S
C802 O821 1.239 . S
C803 C802 1.498 . S
C803 C804 1.366 . S
C803 C808 1.407 . S
C804 C803 1.366 . S
C804 C805 1.392 . S
C804 H832 0.930 . S
C805 C804 1.392 . S
C805 C806 1.398 . S
C805 H833 0.929 . S
C806 C805 1.398 . S
C806 C807 1.352 . S
C807 C806 1.352 . S
C807 C808 1.384 . S
C807 H834 0.930 . S
C808 C803 1.407 . S
C808 C807 1.384 . S
C808 H835 0.929 . S
C809 O822 1.241 . S
C809 O823 1.273 . S
C810 O824 1.251 . S
C810 O825 1.268 . S
C811 Nd801 2.836 . S
C811 C812 1.498 . S
C811 O826 1.258 . S
C811 O827 1.239 . S
C812 C811 1.498 . S
C812 C813 1.366 . S
C812 C817 1.407 . S
C813 C812 1.366 . S
C813 C814 1.392 . S
C813 H836 0.930 . S
C814 C813 1.392 . S
C814 C815 1.398 . S
C814 H837 0.929 . S
C815 C814 1.398 . S
C815 C816 1.352 . S
C816 C815 1.352 . S
C816 C817 1.384 . S
C816 H838 0.930 . S
C817 C812 1.407 . S
C817 C816 1.384 . S
C817 H839 0.929 . S
C818 O828 1.241 . S
C818 O829 1.273 . S
C819 O830 1.251 . S
C819 O831 1.268 . S
O820 Nd800 2.500 . S
O820 C802 1.258 . S
O821 Nd800 2.492 . S
O821 C802 1.239 . S
O822 Nd800 2.487 . S
O822 C809 1.241 . S
O823 Nd800 2.682 . S
O823 Nd801 2.414 . S
O823 C809 1.273 . S
O824 Nd800 2.410 . S
O824 C810 1.251 . S
O825 Nd801 2.424 . S
O825 C810 1.268 . S
O826 Nd801 2.500 . S
O826 C811 1.258 . S
O827 Nd801 2.492 . S
O827 C811 1.239 . S
O828 Nd801 2.487 . S
O828 C818 1.241 . S
O829 Nd800 2.414 . S
O829 Nd801 2.682 . S
O829 C818 1.273 . S
O830 Nd801 2.410 . S
O830 C819 1.251 . S
O831 Nd800 2.424 . S
O831 C819 1.268 . S
H832 C804 0.930 . S
H833 C805 0.929 . S
H834 C807 0.930 . S
H835 C808 0.929 . S
H836 C813 0.930 . S
H837 C814 0.929 . S
H838 C816 0.930 . S
H839 C817 0.929 . S
Nd840 C842 2.836 . S
Nd840 O860 2.500 . S
Nd840 O861 2.492 . S
Nd840 O862 2.487 . S
Nd840 O863 2.682 . S
Nd840 O864 2.410 . S
Nd840 O869 2.414 . S
Nd840 O871 2.424 . S
Nd841 C851 2.836 . S
Nd841 O863 2.414 . S
Nd841 O865 2.424 . S
Nd841 O866 2.500 . S
Nd841 O867 2.492 . S
Nd841 O868 2.487 . S
Nd841 O869 2.682 . S
Nd841 O870 2.410 . S
C842 Nd840 2.836 . S
C842 C843 1.498 . S
C842 O860 1.258 . S
C842 O861 1.239 . S
C843 C842 1.498 . S
C843 C844 1.366 . S
C843 C848 1.407 . S
C844 C843 1.366 . S
C844 C845 1.392 . S
C844 H872 0.930 . S
C845 C844 1.392 . S
C845 C846 1.398 . S
C845 H873 0.929 . S
C846 C845 1.398 . S
C846 C847 1.352 . S
C847 C846 1.352 . S
C847 C848 1.384 . S
C847 H874 0.930 . S
C848 C843 1.407 . S
C848 C847 1.384 . S
C848 H875 0.929 . S
C849 O862 1.241 . S
C849 O863 1.273 . S
C850 O864 1.251 . S
C850 O865 1.268 . S
C851 Nd841 2.836 . S
C851 C852 1.498 . S
C851 O866 1.258 . S
C851 O867 1.239 . S
C852 C851 1.498 . S
C852 C853 1.366 . S
C852 C857 1.407 . S
C853 C852 1.366 . S
C853 C854 1.392 . S
C853 H876 0.930 . S
C854 C853 1.392 . S
C854 C855 1.398 . S
C854 H877 0.929 . S
C855 C854 1.398 . S
C855 C856 1.352 . S
C856 C855 1.352 . S
C856 C857 1.384 . S
C856 H878 0.930 . S
C857 C852 1.407 . S
C857 C856 1.384 . S
C857 H879 0.929 . S
C858 O868 1.241 . S
C858 O869 1.273 . S
C859 O870 1.251 . S
C859 O871 1.268 . S
O860 Nd840 2.500 . S
O860 C842 1.258 . S
O861 Nd840 2.492 . S
O861 C842 1.239 . S
O862 Nd840 2.487 . S
O862 C849 1.241 . S
O863 Nd840 2.682 . S
O863 Nd841 2.414 . S
O863 C849 1.273 . S
O864 Nd840 2.410 . S
O864 C850 1.251 . S
O865 Nd841 2.424 . S
O865 C850 1.268 . S
O866 Nd841 2.500 . S
O866 C851 1.258 . S
O867 Nd841 2.492 . S
O867 C851 1.239 . S
O868 Nd841 2.487 . S
O868 C858 1.241 . S
O869 Nd840 2.414 . S
O869 Nd841 2.682 . S
O869 C858 1.273 . S
O870 Nd841 2.410 . S
O870 C859 1.251 . S
O871 Nd840 2.424 . S
O871 C859 1.268 . S
H872 C844 0.930 . S
H873 C845 0.929 . S
H874 C847 0.930 . S
H875 C848 0.929 . S
H876 C853 0.930 . S
H877 C854 0.929 . S
H878 C856 0.930 . S
H879 C857 0.929 . S
Nd880 C882 2.836 . S
Nd880 O900 2.500 . S
Nd880 O901 2.492 . S
Nd880 O902 2.487 . S
Nd880 O903 2.682 . S
Nd880 O904 2.410 . S
Nd880 O909 2.414 . S
Nd880 O911 2.424 . S
Nd881 C891 2.836 . S
Nd881 O903 2.414 . S
Nd881 O905 2.424 . S
Nd881 O906 2.500 . S
Nd881 O907 2.492 . S
Nd881 O908 2.487 . S
Nd881 O909 2.682 . S
Nd881 O910 2.410 . S
C882 Nd880 2.836 . S
C882 C883 1.498 . S
C882 O900 1.258 . S
C882 O901 1.239 . S
C883 C882 1.498 . S
C883 C884 1.366 1_655 S
C883 C888 1.407 . S
C884 C883 1.366 1_455 S
C884 C885 1.392 . S
C884 H912 0.930 . S
C885 C884 1.392 . S
C885 C886 1.398 . S
C885 H913 0.929 . S
C886 C885 1.398 . S
C886 C887 1.352 . S
C887 C886 1.352 . S
C887 C888 1.384 1_455 S
C887 H914 0.930 . S
C888 C883 1.407 . S
C888 C887 1.384 1_655 S
C888 H915 0.929 . S
C889 O902 1.241 . S
C889 O903 1.273 . S
C890 O904 1.251 . S
C890 O905 1.268 . S
C891 Nd881 2.836 . S
C891 C892 1.498 . S
C891 O906 1.258 . S
C891 O907 1.239 . S
C892 C891 1.498 . S
C892 C893 1.366 . S
C892 C897 1.407 . S
C893 C892 1.366 . S
C893 C894 1.392 . S
C893 H916 0.930 . S
C894 C893 1.392 . S
C894 C895 1.398 . S
C894 H917 0.929 . S
C895 C894 1.398 . S
C895 C896 1.352 . S
C896 C895 1.352 . S
C896 C897 1.384 . S
C896 H918 0.930 . S
C897 C892 1.407 . S
C897 C896 1.384 . S
C897 H919 0.929 . S
C898 O908 1.241 . S
C898 O909 1.273 . S
C899 O910 1.251 . S
C899 O911 1.268 . S
O900 Nd880 2.500 . S
O900 C882 1.258 . S
O901 Nd880 2.492 . S
O901 C882 1.239 . S
O902 Nd880 2.487 . S
O902 C889 1.241 . S
O903 Nd880 2.682 . S
O903 Nd881 2.414 . S
O903 C889 1.273 . S
O904 Nd880 2.410 . S
O904 C890 1.251 . S
O905 Nd881 2.424 . S
O905 C890 1.268 . S
O906 Nd881 2.500 . S
O906 C891 1.258 . S
O907 Nd881 2.492 . S
O907 C891 1.239 . S
O908 Nd881 2.487 . S
O908 C898 1.241 . S
O909 Nd880 2.414 . S
O909 Nd881 2.682 . S
O909 C898 1.273 . S
O910 Nd881 2.410 . S
O910 C899 1.251 . S
O911 Nd880 2.424 . S
O911 C899 1.268 . S
H912 C884 0.930 . S
H913 C885 0.929 . S
H914 C887 0.930 . S
H915 C888 0.929 . S
H916 C893 0.930 . S
H917 C894 0.929 . S
H918 C896 0.930 . S
H919 C897 0.929 . S
Nd920 C922 2.836 . S
Nd920 O940 2.500 . S
Nd920 O941 2.492 . S
Nd920 O942 2.487 . S
Nd920 O943 2.682 . S
Nd920 O944 2.410 . S
Nd920 O949 2.414 . S
Nd920 O951 2.424 . S
Nd921 C931 2.836 . S
Nd921 O943 2.414 . S
Nd921 O945 2.424 . S
Nd921 O946 2.500 . S
Nd921 O947 2.492 . S
Nd921 O948 2.487 . S
Nd921 O949 2.682 . S
Nd921 O950 2.410 . S
C922 Nd920 2.836 . S
C922 C923 1.498 . S
C922 O940 1.258 . S
C922 O941 1.239 . S
C923 C922 1.498 . S
C923 C924 1.366 . S
C923 C928 1.407 . S
C924 C923 1.366 . S
C924 C925 1.392 . S
C924 H952 0.930 . S
C925 C924 1.392 . S
C925 C926 1.398 . S
C925 H953 0.929 . S
C926 C925 1.398 . S
C926 C927 1.352 . S
C927 C926 1.352 . S
C927 C928 1.384 . S
C927 H954 0.930 . S
C928 C923 1.407 . S
C928 C927 1.384 . S
C928 H955 0.929 . S
C929 O942 1.241 . S
C929 O943 1.273 . S
C930 O944 1.251 . S
C930 O945 1.268 . S
C931 Nd921 2.836 . S
C931 C932 1.498 . S
C931 O946 1.258 . S
C931 O947 1.239 . S
C932 C931 1.498 . S
C932 C933 1.366 . S
C932 C937 1.407 . S
C933 C932 1.366 . S
C933 C934 1.392 . S
C933 H956 0.930 . S
C934 C933 1.392 . S
C934 C935 1.398 . S
C934 H957 0.929 . S
C935 C934 1.398 . S
C935 C936 1.352 . S
C936 C935 1.352 . S
C936 C937 1.384 . S
C936 H958 0.930 . S
C937 C932 1.407 . S
C937 C936 1.384 . S
C937 H959 0.929 . S
C938 O948 1.241 . S
C938 O949 1.273 . S
C939 O950 1.251 . S
C939 O951 1.268 . S
O940 Nd920 2.500 . S
O940 C922 1.258 . S
O941 Nd920 2.492 . S
O941 C922 1.239 . S
O942 Nd920 2.487 . S
O942 C929 1.241 . S
O943 Nd920 2.682 . S
O943 Nd921 2.414 . S
O943 C929 1.273 . S
O944 Nd920 2.410 . S
O944 C930 1.251 . S
O945 Nd921 2.424 . S
O945 C930 1.268 . S
O946 Nd921 2.500 . S
O946 C931 1.258 . S
O947 Nd921 2.492 . S
O947 C931 1.239 . S
O948 Nd921 2.487 . S
O948 C938 1.241 . S
O949 Nd920 2.414 . S
O949 Nd921 2.682 . S
O949 C938 1.273 . S
O950 Nd921 2.410 . S
O950 C939 1.251 . S
O951 Nd920 2.424 . S
O951 C939 1.268 . S
H952 C924 0.930 . S
H953 C925 0.929 . S
H954 C927 0.930 . S
H955 C928 0.929 . S
H956 C933 0.930 . S
H957 C934 0.929 . S
H958 C936 0.930 . S
H959 C937 0.929 . S
Nd960 C962 2.836 . S
Nd960 O980 2.500 . S
Nd960 O981 2.492 . S
Nd960 O982 2.487 . S
Nd960 O983 2.682 . S
Nd960 O984 2.410 . S
Nd960 O989 2.414 . S
Nd960 O991 2.424 . S
Nd961 C971 2.836 . S
Nd961 O983 2.414 . S
Nd961 O985 2.424 . S
Nd961 O986 2.500 . S
Nd961 O987 2.492 . S
Nd961 O988 2.487 . S
Nd961 O989 2.682 . S
Nd961 O990 2.410 . S
C962 Nd960 2.836 . S
C962 C963 1.498 . S
C962 O980 1.258 . S
C962 O981 1.239 . S
C963 C962 1.498 . S
C963 C964 1.366 . S
C963 C968 1.407 . S
C964 C963 1.366 . S
C964 C965 1.392 . S
C964 H992 0.930 . S
C965 C964 1.392 . S
C965 C966 1.398 . S
C965 H993 0.929 . S
C966 C965 1.398 . S
C966 C967 1.352 . S
C967 C966 1.352 . S
C967 C968 1.384 . S
C967 H994 0.930 . S
C968 C963 1.407 . S
C968 C967 1.384 . S
C968 H995 0.929 . S
C969 O982 1.241 . S
C969 O983 1.273 . S
C970 O984 1.251 . S
C970 O985 1.268 . S
C971 Nd961 2.836 . S
C971 C972 1.498 . S
C971 O986 1.258 . S
C971 O987 1.239 . S
C972 C971 1.498 . S
C972 C973 1.366 . S
C972 C977 1.407 . S
C973 C972 1.366 . S
C973 C974 1.392 . S
C973 H996 0.930 . S
C974 C973 1.392 . S
C974 C975 1.398 . S
C974 H997 0.929 . S
C975 C974 1.398 . S
C975 C976 1.352 . S
C976 C975 1.352 . S
C976 C977 1.384 . S
C976 H998 0.930 . S
C977 C972 1.407 . S
C977 C976 1.384 . S
C977 H999 0.929 . S
C978 O988 1.241 . S
C978 O989 1.273 . S
C979 O990 1.251 . S
C979 O991 1.268 . S
O980 Nd960 2.500 . S
O980 C962 1.258 . S
O981 Nd960 2.492 . S
O981 C962 1.239 . S
O982 Nd960 2.487 . S
O982 C969 1.241 . S
O983 Nd960 2.682 . S
O983 Nd961 2.414 . S
O983 C969 1.273 . S
O984 Nd960 2.410 . S
O984 C970 1.251 . S
O985 Nd961 2.424 . S
O985 C970 1.268 . S
O986 Nd961 2.500 . S
O986 C971 1.258 . S
O987 Nd961 2.492 . S
O987 C971 1.239 . S
O988 Nd961 2.487 . S
O988 C978 1.241 . S
O989 Nd960 2.414 . S
O989 Nd961 2.682 . S
O989 C978 1.273 . S
O990 Nd961 2.410 . S
O990 C979 1.251 . S
O991 Nd960 2.424 . S
O991 C979 1.268 . S
H992 C964 0.930 . S
H993 C965 0.929 . S
H994 C967 0.930 . S
H995 C968 0.929 . S
H996 C973 0.930 . S
H997 C974 0.929 . S
H998 C976 0.930 . S
H999 C977 0.929 . S
Nd1000 C1002 2.836 . S
Nd1000 O1020 2.500 . S
Nd1000 O1021 2.492 . S
Nd1000 O1022 2.487 . S
Nd1000 O1023 2.682 . S
Nd1000 O1024 2.410 . S
Nd1000 O1029 2.414 . S
Nd1000 O1031 2.424 . S
Nd1001 C1011 2.836 . S
Nd1001 O1023 2.414 . S
Nd1001 O1025 2.424 . S
Nd1001 O1026 2.500 . S
Nd1001 O1027 2.492 . S
Nd1001 O1028 2.487 . S
Nd1001 O1029 2.682 . S
Nd1001 O1030 2.410 . S
C1002 Nd1000 2.836 . S
C1002 C1003 1.498 . S
C1002 O1020 1.258 . S
C1002 O1021 1.239 . S
C1003 C1002 1.498 . S
C1003 C1004 1.366 . S
C1003 C1008 1.407 . S
C1004 C1003 1.366 . S
C1004 C1005 1.392 . S
C1004 H1032 0.930 . S
C1005 C1004 1.392 . S
C1005 C1006 1.398 . S
C1005 H1033 0.929 . S
C1006 C1005 1.398 . S
C1006 C1007 1.352 . S
C1007 C1006 1.352 . S
C1007 C1008 1.384 . S
C1007 H1034 0.930 . S
C1008 C1003 1.407 . S
C1008 C1007 1.384 . S
C1008 H1035 0.929 . S
C1009 O1022 1.241 . S
C1009 O1023 1.273 . S
C1010 O1024 1.251 . S
C1010 O1025 1.268 . S
C1011 Nd1001 2.836 . S
C1011 C1012 1.498 . S
C1011 O1026 1.258 . S
C1011 O1027 1.239 . S
C1012 C1011 1.498 . S
C1012 C1013 1.366 . S
C1012 C1017 1.407 . S
C1013 C1012 1.366 . S
C1013 C1014 1.392 . S
C1013 H1036 0.930 . S
C1014 C1013 1.392 . S
C1014 C1015 1.398 . S
C1014 H1037 0.929 . S
C1015 C1014 1.398 . S
C1015 C1016 1.352 . S
C1016 C1015 1.352 . S
C1016 C1017 1.384 . S
C1016 H1038 0.930 . S
C1017 C1012 1.407 . S
C1017 C1016 1.384 . S
C1017 H1039 0.929 . S
C1018 O1028 1.241 . S
C1018 O1029 1.273 . S
C1019 O1030 1.251 . S
C1019 O1031 1.268 . S
O1020 Nd1000 2.500 . S
O1020 C1002 1.258 . S
O1021 Nd1000 2.492 . S
O1021 C1002 1.239 . S
O1022 Nd1000 2.487 . S
O1022 C1009 1.241 . S
O1023 Nd1000 2.682 . S
O1023 Nd1001 2.414 . S
O1023 C1009 1.273 . S
O1024 Nd1000 2.410 . S
O1024 C1010 1.251 . S
O1025 Nd1001 2.424 . S
O1025 C1010 1.268 . S
O1026 Nd1001 2.500 . S
O1026 C1011 1.258 . S
O1027 Nd1001 2.492 . S
O1027 C1011 1.239 . S
O1028 Nd1001 2.487 . S
O1028 C1018 1.241 . S
O1029 Nd1000 2.414 . S
O1029 Nd1001 2.682 . S
O1029 C1018 1.273 . S
O1030 Nd1001 2.410 . S
O1030 C1019 1.251 . S
O1031 Nd1000 2.424 . S
O1031 C1019 1.268 . S
H1032 C1004 0.930 . S
H1033 C1005 0.929 . S
H1034 C1007 0.930 . S
H1035 C1008 0.929 . S
H1036 C1013 0.930 . S
H1037 C1014 0.929 . S
H1038 C1016 0.930 . S
H1039 C1017 0.929 . S
Nd1040 C1042 2.836 . S
Nd1040 O1060 2.500 . S
Nd1040 O1061 2.492 . S
Nd1040 O1062 2.487 . S
Nd1040 O1063 2.682 . S
Nd1040 O1064 2.410 . S
Nd1040 O1069 2.414 . S
Nd1040 O1071 2.424 . S
Nd1041 C1051 2.836 . S
Nd1041 O1063 2.414 . S
Nd1041 O1065 2.424 . S
Nd1041 O1066 2.500 . S
Nd1041 O1067 2.492 . S
Nd1041 O1068 2.487 . S
Nd1041 O1069 2.682 . S
Nd1041 O1070 2.410 . S
C1042 Nd1040 2.836 . S
C1042 C1043 1.498 . S
C1042 O1060 1.258 . S
C1042 O1061 1.239 . S
C1043 C1042 1.498 . S
C1043 C1044 1.366 . S
C1043 C1048 1.407 . S
C1044 C1043 1.366 . S
C1044 C1045 1.392 . S
C1044 H1072 0.930 . S
C1045 C1044 1.392 . S
C1045 C1046 1.398 . S
C1045 H1073 0.929 . S
C1046 C1045 1.398 . S
C1046 C1047 1.352 . S
C1047 C1046 1.352 . S
C1047 C1048 1.384 . S
C1047 H1074 0.930 . S
C1048 C1043 1.407 . S
C1048 C1047 1.384 . S
C1048 H1075 0.929 . S
C1049 O1062 1.241 . S
C1049 O1063 1.273 . S
C1050 O1064 1.251 . S
C1050 O1065 1.268 . S
C1051 Nd1041 2.836 . S
C1051 C1052 1.498 . S
C1051 O1066 1.258 . S
C1051 O1067 1.239 . S
C1052 C1051 1.498 . S
C1052 C1053 1.366 1_455 S
C1052 C1057 1.407 . S
C1053 C1052 1.366 1_655 S
C1053 C1054 1.392 . S
C1053 H1076 0.930 . S
C1054 C1053 1.392 . S
C1054 C1055 1.398 . S
C1054 H1077 0.929 . S
C1055 C1054 1.398 . S
C1055 C1056 1.352 . S
C1056 C1055 1.352 . S
C1056 C1057 1.384 1_655 S
C1056 H1078 0.930 . S
C1057 C1052 1.407 . S
C1057 C1056 1.384 1_455 S
C1057 H1079 0.929 . S
C1058 O1068 1.241 . S
C1058 O1069 1.273 . S
C1059 O1070 1.251 . S
C1059 O1071 1.268 . S
O1060 Nd1040 2.500 . S
O1060 C1042 1.258 . S
O1061 Nd1040 2.492 . S
O1061 C1042 1.239 . S
O1062 Nd1040 2.487 . S
O1062 C1049 1.241 . S
O1063 Nd1040 2.682 . S
O1063 Nd1041 2.414 . S
O1063 C1049 1.273 . S
O1064 Nd1040 2.410 . S
O1064 C1050 1.251 . S
O1065 Nd1041 2.424 . S
O1065 C1050 1.268 . S
O1066 Nd1041 2.500 . S
O1066 C1051 1.258 . S
O1067 Nd1041 2.492 . S
O1067 C1051 1.239 . S
O1068 Nd1041 2.487 . S
O1068 C1058 1.241 . S
O1069 Nd1040 2.414 . S
O1069 Nd1041 2.682 . S
O1069 C1058 1.273 . S
O1070 Nd1041 2.410 . S
O1070 C1059 1.251 . S
O1071 Nd1040 2.424 . S
O1071 C1059 1.268 . S
H1072 C1044 0.930 . S
H1073 C1045 0.929 . S
H1074 C1047 0.930 . S
H1075 C1048 0.929 . S
H1076 C1053 0.930 . S
H1077 C1054 0.929 . S
H1078 C1056 0.930 . S
H1079 C1057 0.929 . S
Nd1080 C1082 2.836 . S
Nd1080 O1100 2.500 . S
Nd1080 O1101 2.492 . S
Nd1080 O1102 2.487 . S
Nd1080 O1103 2.682 . S
Nd1080 O1104 2.410 . S
Nd1080 O1109 2.414 . S
Nd1080 O1111 2.424 . S
Nd1081 C1091 2.836 . S
Nd1081 O1103 2.414 . S
Nd1081 O1105 2.424 . S
Nd1081 O1106 2.500 . S
Nd1081 O1107 2.492 . S
Nd1081 O1108 2.487 . S
Nd1081 O1109 2.682 . S
Nd1081 O1110 2.410 . S
C1082 Nd1080 2.836 . S
C1082 C1083 1.498 . S
C1082 O1100 1.258 . S
C1082 O1101 1.239 . S
C1083 C1082 1.498 . S
C1083 C1084 1.366 . S
C1083 C1088 1.407 . S
C1084 C1083 1.366 . S
C1084 C1085 1.392 . S
C1084 H1112 0.930 . S
C1085 C1084 1.392 . S
C1085 C1086 1.398 . S
C1085 H1113 0.929 . S
C1086 C1085 1.398 . S
C1086 C1087 1.352 . S
C1087 C1086 1.352 . S
C1087 C1088 1.384 . S
C1087 H1114 0.930 . S
C1088 C1083 1.407 . S
C1088 C1087 1.384 . S
C1088 H1115 0.929 . S
C1089 O1102 1.241 . S
C1089 O1103 1.273 . S
C1090 O1104 1.251 . S
C1090 O1105 1.268 . S
C1091 Nd1081 2.836 . S
C1091 C1092 1.498 . S
C1091 O1106 1.258 . S
C1091 O1107 1.239 . S
C1092 C1091 1.498 . S
C1092 C1093 1.366 . S
C1092 C1097 1.407 . S
C1093 C1092 1.366 . S
C1093 C1094 1.392 . S
C1093 H1116 0.930 . S
C1094 C1093 1.392 . S
C1094 C1095 1.398 . S
C1094 H1117 0.929 . S
C1095 C1094 1.398 . S
C1095 C1096 1.352 . S
C1096 C1095 1.352 . S
C1096 C1097 1.384 . S
C1096 H1118 0.930 . S
C1097 C1092 1.407 . S
C1097 C1096 1.384 . S
C1097 H1119 0.929 . S
C1098 O1108 1.241 . S
C1098 O1109 1.273 . S
C1099 O1110 1.251 . S
C1099 O1111 1.268 . S
O1100 Nd1080 2.500 . S
O1100 C1082 1.258 . S
O1101 Nd1080 2.492 . S
O1101 C1082 1.239 . S
O1102 Nd1080 2.487 . S
O1102 C1089 1.241 . S
O1103 Nd1080 2.682 . S
O1103 Nd1081 2.414 . S
O1103 C1089 1.273 . S
O1104 Nd1080 2.410 . S
O1104 C1090 1.251 . S
O1105 Nd1081 2.424 . S
O1105 C1090 1.268 . S
O1106 Nd1081 2.500 . S
O1106 C1091 1.258 . S
O1107 Nd1081 2.492 . S
O1107 C1091 1.239 . S
O1108 Nd1081 2.487 . S
O1108 C1098 1.241 . S
O1109 Nd1080 2.414 . S
O1109 Nd1081 2.682 . S
O1109 C1098 1.273 . S
O1110 Nd1081 2.410 . S
O1110 C1099 1.251 . S
O1111 Nd1080 2.424 . S
O1111 C1099 1.268 . S
H1112 C1084 0.930 . S
H1113 C1085 0.929 . S
H1114 C1087 0.930 . S
H1115 C1088 0.929 . S
H1116 C1093 0.930 . S
H1117 C1094 0.929 . S
H1118 C1096 0.930 . S
H1119 C1097 0.929 . S
Nd1120 C1122 2.836 . S
Nd1120 O1140 2.500 . S
Nd1120 O1141 2.492 . S
Nd1120 O1142 2.487 . S
Nd1120 O1143 2.682 . S
Nd1120 O1144 2.410 . S
Nd1120 O1149 2.414 . S
Nd1120 O1151 2.424 . S
Nd1121 C1131 2.836 . S
Nd1121 O1143 2.414 . S
Nd1121 O1145 2.424 . S
Nd1121 O1146 2.500 . S
Nd1121 O1147 2.492 . S
Nd1121 O1148 2.487 . S
Nd1121 O1149 2.682 . S
Nd1121 O1150 2.410 . S
C1122 Nd1120 2.836 . S
C1122 C1123 1.498 . S
C1122 O1140 1.258 . S
C1122 O1141 1.239 . S
C1123 C1122 1.498 . S
C1123 C1124 1.366 . S
C1123 C1128 1.407 . S
C1124 C1123 1.366 . S
C1124 C1125 1.392 . S
C1124 H1152 0.930 . S
C1125 C1124 1.392 . S
C1125 C1126 1.398 . S
C1125 H1153 0.929 . S
C1126 C1125 1.398 . S
C1126 C1127 1.352 . S
C1127 C1126 1.352 . S
C1127 C1128 1.384 . S
C1127 H1154 0.930 . S
C1128 C1123 1.407 . S
C1128 C1127 1.384 . S
C1128 H1155 0.929 . S
C1129 O1142 1.241 . S
C1129 O1143 1.273 . S
C1130 O1144 1.251 . S
C1130 O1145 1.268 . S
C1131 Nd1121 2.836 . S
C1131 C1132 1.498 . S
C1131 O1146 1.258 . S
C1131 O1147 1.239 . S
C1132 C1131 1.498 . S
C1132 C1133 1.366 . S
C1132 C1137 1.407 . S
C1133 C1132 1.366 . S
C1133 C1134 1.392 . S
C1133 H1156 0.930 . S
C1134 C1133 1.392 . S
C1134 C1135 1.398 . S
C1134 H1157 0.929 . S
C1135 C1134 1.398 . S
C1135 C1136 1.352 . S
C1136 C1135 1.352 . S
C1136 C1137 1.384 . S
C1136 H1158 0.930 . S
C1137 C1132 1.407 . S
C1137 C1136 1.384 . S
C1137 H1159 0.929 . S
C1138 O1148 1.241 . S
C1138 O1149 1.273 . S
C1139 O1150 1.251 . S
C1139 O1151 1.268 . S
O1140 Nd1120 2.500 . S
O1140 C1122 1.258 . S
O1141 Nd1120 2.492 . S
O1141 C1122 1.239 . S
O1142 Nd1120 2.487 . S
O1142 C1129 1.241 . S
O1143 Nd1120 2.682 . S
O1143 Nd1121 2.414 . S
O1143 C1129 1.273 . S
O1144 Nd1120 2.410 . S
O1144 C1130 1.251 . S
O1145 Nd1121 2.424 . S
O1145 C1130 1.268 . S
O1146 Nd1121 2.500 . S
O1146 C1131 1.258 . S
O1147 Nd1121 2.492 . S
O1147 C1131 1.239 . S
O1148 Nd1121 2.487 . S
O1148 C1138 1.241 . S
O1149 Nd1120 2.414 . S
O1149 Nd1121 2.682 . S
O1149 C1138 1.273 . S
O1150 Nd1121 2.410 . S
O1150 C1139 1.251 . S
O1151 Nd1120 2.424 . S
O1151 C1139 1.268 . S
H1152 C1124 0.930 . S
H1153 C1125 0.929 . S
H1154 C1127 0.930 . S
H1155 C1128 0.929 . S
H1156 C1133 0.930 . S
H1157 C1134 0.929 . S
H1158 C1136 0.930 . S
H1159 C1137 0.929 . S
Nd1160 C1162 2.836 . S
Nd1160 O1180 2.500 . S
Nd1160 O1181 2.492 . S
Nd1160 O1182 2.487 . S
Nd1160 O1183 2.682 . S
Nd1160 O1184 2.410 . S
Nd1160 O1189 2.414 . S
Nd1160 O1191 2.424 . S
Nd1161 C1171 2.836 . S
Nd1161 O1183 2.414 . S
Nd1161 O1185 2.424 . S
Nd1161 O1186 2.500 . S
Nd1161 O1187 2.492 . S
Nd1161 O1188 2.487 . S
Nd1161 O1189 2.682 . S
Nd1161 O1190 2.410 . S
C1162 Nd1160 2.836 . S
C1162 C1163 1.498 . S
C1162 O1180 1.258 . S
C1162 O1181 1.239 . S
C1163 C1162 1.498 . S
C1163 C1164 1.366 . S
C1163 C1168 1.407 . S
C1164 C1163 1.366 . S
C1164 C1165 1.392 . S
C1164 H1192 0.930 . S
C1165 C1164 1.392 . S
C1165 C1166 1.398 . S
C1165 H1193 0.929 . S
C1166 C1165 1.398 . S
C1166 C1167 1.352 . S
C1167 C1166 1.352 . S
C1167 C1168 1.384 . S
C1167 H1194 0.930 . S
C1168 C1163 1.407 . S
C1168 C1167 1.384 . S
C1168 H1195 0.929 . S
C1169 O1182 1.241 . S
C1169 O1183 1.273 . S
C1170 O1184 1.251 . S
C1170 O1185 1.268 . S
C1171 Nd1161 2.836 . S
C1171 C1172 1.498 . S
C1171 O1186 1.258 . S
C1171 O1187 1.239 . S
C1172 C1171 1.498 . S
C1172 C1173 1.366 . S
C1172 C1177 1.407 . S
C1173 C1172 1.366 . S
C1173 C1174 1.392 . S
C1173 H1196 0.930 . S
C1174 C1173 1.392 . S
C1174 C1175 1.398 . S
C1174 H1197 0.929 . S
C1175 C1174 1.398 . S
C1175 C1176 1.352 . S
C1176 C1175 1.352 . S
C1176 C1177 1.384 . S
C1176 H1198 0.930 . S
C1177 C1172 1.407 . S
C1177 C1176 1.384 . S
C1177 H1199 0.929 . S
C1178 O1188 1.241 . S
C1178 O1189 1.273 . S
C1179 O1190 1.251 . S
C1179 O1191 1.268 . S
O1180 Nd1160 2.500 . S
O1180 C1162 1.258 . S
O1181 Nd1160 2.492 . S
O1181 C1162 1.239 . S
O1182 Nd1160 2.487 . S
O1182 C1169 1.241 . S
O1183 Nd1160 2.682 . S
O1183 Nd1161 2.414 . S
O1183 C1169 1.273 . S
O1184 Nd1160 2.410 . S
O1184 C1170 1.251 . S
O1185 Nd1161 2.424 . S
O1185 C1170 1.268 . S
O1186 Nd1161 2.500 . S
O1186 C1171 1.258 . S
O1187 Nd1161 2.492 . S
O1187 C1171 1.239 . S
O1188 Nd1161 2.487 . S
O1188 C1178 1.241 . S
O1189 Nd1160 2.414 . S
O1189 Nd1161 2.682 . S
O1189 C1178 1.273 . S
O1190 Nd1161 2.410 . S
O1190 C1179 1.251 . S
O1191 Nd1160 2.424 . S
O1191 C1179 1.268 . S
H1192 C1164 0.930 . S
H1193 C1165 0.929 . S
H1194 C1167 0.930 . S
H1195 C1168 0.929 . S
H1196 C1173 0.930 . S
H1197 C1174 0.929 . S
H1198 C1176 0.930 . S
H1199 C1177 0.929 . S
Nd1200 C1202 2.836 . S
Nd1200 O1220 2.500 . S
Nd1200 O1221 2.492 . S
Nd1200 O1222 2.487 . S
Nd1200 O1223 2.682 . S
Nd1200 O1224 2.410 . S
Nd1200 O1229 2.414 . S
Nd1200 O1231 2.424 . S
Nd1201 C1211 2.836 . S
Nd1201 O1223 2.414 . S
Nd1201 O1225 2.424 . S
Nd1201 O1226 2.500 . S
Nd1201 O1227 2.492 . S
Nd1201 O1228 2.487 . S
Nd1201 O1229 2.682 . S
Nd1201 O1230 2.410 . S
C1202 Nd1200 2.836 . S
C1202 C1203 1.498 . S
C1202 O1220 1.258 . S
C1202 O1221 1.239 . S
C1203 C1202 1.498 . S
C1203 C1204 1.366 . S
C1203 C1208 1.407 . S
C1204 C1203 1.366 . S
C1204 C1205 1.392 . S
C1204 H1232 0.930 . S
C1205 C1204 1.392 . S
C1205 C1206 1.398 . S
C1205 H1233 0.929 . S
C1206 C1205 1.398 . S
C1206 C1207 1.352 . S
C1207 C1206 1.352 . S
C1207 C1208 1.384 . S
C1207 H1234 0.930 . S
C1208 C1203 1.407 . S
C1208 C1207 1.384 . S
C1208 H1235 0.929 . S
C1209 O1222 1.241 . S
C1209 O1223 1.273 . S
C1210 O1224 1.251 . S
C1210 O1225 1.268 . S
C1211 Nd1201 2.836 . S
C1211 C1212 1.498 . S
C1211 O1226 1.258 . S
C1211 O1227 1.239 . S
C1212 C1211 1.498 . S
C1212 C1213 1.366 1_455 S
C1212 C1217 1.407 . S
C1213 C1212 1.366 1_655 S
C1213 C1214 1.392 . S
C1213 H1236 0.930 . S
C1214 C1213 1.392 . S
C1214 C1215 1.398 . S
C1214 H1237 0.929 . S
C1215 C1214 1.398 . S
C1215 C1216 1.352 . S
C1216 C1215 1.352 . S
C1216 C1217 1.384 1_655 S
C1216 H1238 0.930 . S
C1217 C1212 1.407 . S
C1217 C1216 1.384 1_455 S
C1217 H1239 0.929 . S
C1218 O1228 1.241 . S
C1218 O1229 1.273 . S
C1219 O1230 1.251 . S
C1219 O1231 1.268 . S
O1220 Nd1200 2.500 . S
O1220 C1202 1.258 . S
O1221 Nd1200 2.492 . S
O1221 C1202 1.239 . S
O1222 Nd1200 2.487 . S
O1222 C1209 1.241 . S
O1223 Nd1200 2.682 . S
O1223 Nd1201 2.414 . S
O1223 C1209 1.273 . S
O1224 Nd1200 2.410 . S
O1224 C1210 1.251 . S
O1225 Nd1201 2.424 . S
O1225 C1210 1.268 . S
O1226 Nd1201 2.500 . S
O1226 C1211 1.258 . S
O1227 Nd1201 2.492 . S
O1227 C1211 1.239 . S
O1228 Nd1201 2.487 . S
O1228 C1218 1.241 . S
O1229 Nd1200 2.414 . S
O1229 Nd1201 2.682 . S
O1229 C1218 1.273 . S
O1230 Nd1201 2.410 . S
O1230 C1219 1.251 . S
O1231 Nd1200 2.424 . S
O1231 C1219 1.268 . S
H1232 C1204 0.930 . S
H1233 C1205 0.929 . S
H1234 C1207 0.930 . S
H1235 C1208 0.929 . S
H1236 C1213 0.930 . S
H1237 C1214 0.929 . S
H1238 C1216 0.930 . S
H1239 C1217 0.929 . S
Nd1240 C1242 2.836 . S
Nd1240 O1260 2.500 . S
Nd1240 O1261 2.492 . S
Nd1240 O1262 2.487 . S
Nd1240 O1263 2.682 . S
Nd1240 O1264 2.410 . S
Nd1240 O1269 2.414 . S
Nd1240 O1271 2.424 . S
Nd1241 C1251 2.836 . S
Nd1241 O1263 2.414 . S
Nd1241 O1265 2.424 . S
Nd1241 O1266 2.500 . S
Nd1241 O1267 2.492 . S
Nd1241 O1268 2.487 . S
Nd1241 O1269 2.682 . S
Nd1241 O1270 2.410 . S
C1242 Nd1240 2.836 . S
C1242 C1243 1.498 . S
C1242 O1260 1.258 . S
C1242 O1261 1.239 . S
C1243 C1242 1.498 . S
C1243 C1244 1.366 . S
C1243 C1248 1.407 . S
C1244 C1243 1.366 . S
C1244 C1245 1.392 . S
C1244 H1272 0.930 . S
C1245 C1244 1.392 . S
C1245 C1246 1.398 . S
C1245 H1273 0.929 . S
C1246 C1245 1.398 . S
C1246 C1247 1.352 . S
C1247 C1246 1.352 . S
C1247 C1248 1.384 . S
C1247 H1274 0.930 . S
C1248 C1243 1.407 . S
C1248 C1247 1.384 . S
C1248 H1275 0.929 . S
C1249 O1262 1.241 . S
C1249 O1263 1.273 . S
C1250 O1264 1.251 . S
C1250 O1265 1.268 . S
C1251 Nd1241 2.836 . S
C1251 C1252 1.498 . S
C1251 O1266 1.258 . S
C1251 O1267 1.239 . S
C1252 C1251 1.498 . S
C1252 C1253 1.366 . S
C1252 C1257 1.407 . S
C1253 C1252 1.366 . S
C1253 C1254 1.392 . S
C1253 H1276 0.930 . S
C1254 C1253 1.392 . S
C1254 C1255 1.398 . S
C1254 H1277 0.929 . S
C1255 C1254 1.398 . S
C1255 C1256 1.352 . S
C1256 C1255 1.352 . S
C1256 C1257 1.384 . S
C1256 H1278 0.930 . S
C1257 C1252 1.407 . S
C1257 C1256 1.384 . S
C1257 H1279 0.929 . S
C1258 O1268 1.241 . S
C1258 O1269 1.273 . S
C1259 O1270 1.251 . S
C1259 O1271 1.268 . S
O1260 Nd1240 2.500 . S
O1260 C1242 1.258 . S
O1261 Nd1240 2.492 . S
O1261 C1242 1.239 . S
O1262 Nd1240 2.487 . S
O1262 C1249 1.241 . S
O1263 Nd1240 2.682 . S
O1263 Nd1241 2.414 . S
O1263 C1249 1.273 . S
O1264 Nd1240 2.410 . S
O1264 C1250 1.251 . S
O1265 Nd1241 2.424 . S
O1265 C1250 1.268 . S
O1266 Nd1241 2.500 . S
O1266 C1251 1.258 . S
O1267 Nd1241 2.492 . S
O1267 C1251 1.239 . S
O1268 Nd1241 2.487 . S
O1268 C1258 1.241 . S
O1269 Nd1240 2.414 . S
O1269 Nd1241 2.682 . S
O1269 C1258 1.273 . S
O1270 Nd1241 2.410 . S
O1270 C1259 1.251 . S
O1271 Nd1240 2.424 . S
O1271 C1259 1.268 . S
H1272 C1244 0.930 . S
H1273 C1245 0.929 . S
H1274 C1247 0.930 . S
H1275 C1248 0.929 . S
H1276 C1253 0.930 . S
H1277 C1254 0.929 . S
H1278 C1256 0.930 . S
H1279 C1257 0.929 . S
H1280 C1286 0.930 . S
H1281 C1289 0.930 . S
H1282 C1290 0.930 . S
H1283 C1291 0.930 . S
H1284 C1294 0.930 . S
H1285 C1295 0.930 . S
C1286 H1280 0.930 . S
C1286 C1287 1.355 . S
C1286 C1288 1.415 . S
C1287 C1286 1.355 . S
C1287 C1289 1.419 . S
C1288 C1286 1.415 . S
C1288 C1293 1.425 . S
C1288 C1295 1.409 . S
C1289 H1281 0.930 . S
C1289 C1287 1.419 . S
C1289 C1290 1.362 . S
C1290 H1282 0.930 . S
C1290 C1289 1.362 . S
C1290 C1293 1.409 . S
C1291 H1283 0.930 . S
C1291 C1292 1.355 . S
C1291 C1293 1.415 . S
C1292 C1291 1.355 . S
C1292 C1294 1.419 . S
C1293 C1288 1.425 . S
C1293 C1290 1.409 . S
C1293 C1291 1.415 . S
C1294 H1284 0.930 . S
C1294 C1292 1.419 . S
C1294 C1295 1.362 . S
C1295 H1285 0.930 . S
C1295 C1288 1.409 . S
C1295 C1294 1.362 . S
H1296 C1302 0.930 . S
H1297 C1305 0.930 . S
H1298 C1306 0.930 . S
H1299 C1307 0.930 . S
H1300 C1310 0.930 . S
H1301 C1311 0.930 . S
C1302 H1296 0.930 . S
C1302 C1303 1.355 . S
C1302 C1304 1.415 . S
C1303 C1302 1.355 . S
C1303 C1305 1.419 . S
C1304 C1302 1.415 . S
C1304 C1309 1.425 . S
C1304 C1311 1.409 . S
C1305 H1297 0.930 . S
C1305 C1303 1.419 . S
C1305 C1306 1.362 . S
C1306 H1298 0.930 . S
C1306 C1305 1.362 . S
C1306 C1309 1.409 . S
C1307 H1299 0.930 . S
C1307 C1308 1.355 . S
C1307 C1309 1.415 . S
C1308 C1307 1.355 . S
C1308 C1310 1.419 . S
C1309 C1304 1.425 . S
C1309 C1306 1.409 . S
C1309 C1307 1.415 . S
C1310 H1300 0.930 . S
C1310 C1308 1.419 . S
C1310 C1311 1.362 . S
C1311 H1301 0.930 . S
C1311 C1304 1.409 . S
C1311 C1310 1.362 . S
H1312 C1318 0.930 . S
H1313 C1321 0.930 . S
H1314 C1322 0.930 . S
H1315 C1323 0.930 . S
H1316 C1326 0.930 . S
H1317 C1327 0.930 . S
C1318 H1312 0.930 . S
C1318 C1319 1.355 . S
C1318 C1320 1.415 . S
C1319 C1318 1.355 . S
C1319 C1321 1.419 . S
C1320 C1318 1.415 . S
C1320 C1325 1.425 . S
C1320 C1327 1.409 . S
C1321 H1313 0.930 . S
C1321 C1319 1.419 . S
C1321 C1322 1.362 . S
C1322 H1314 0.930 . S
C1322 C1321 1.362 . S
C1322 C1325 1.409 . S
C1323 H1315 0.930 . S
C1323 C1324 1.355 . S
C1323 C1325 1.415 . S
C1324 C1323 1.355 . S
C1324 C1326 1.419 . S
C1325 C1320 1.425 . S
C1325 C1322 1.409 . S
C1325 C1323 1.415 . S
C1326 H1316 0.930 . S
C1326 C1324 1.419 . S
C1326 C1327 1.362 . S
C1327 H1317 0.930 . S
C1327 C1320 1.409 . S
C1327 C1326 1.362 . S
H1328 C1334 0.930 . S
H1329 C1337 0.930 . S
H1330 C1338 0.930 . S
H1331 C1339 0.930 . S
H1332 C1342 0.930 . S
H1333 C1343 0.930 . S
C1334 H1328 0.930 . S
C1334 C1335 1.355 . S
C1334 C1336 1.415 . S
C1335 C1334 1.355 . S
C1335 C1337 1.419 . S
C1336 C1334 1.415 . S
C1336 C1341 1.425 . S
C1336 C1343 1.409 . S
C1337 H1329 0.930 . S
C1337 C1335 1.419 . S
C1337 C1338 1.362 . S
C1338 H1330 0.930 . S
C1338 C1337 1.362 . S
C1338 C1341 1.409 . S
C1339 H1331 0.930 . S
C1339 C1340 1.355 . S
C1339 C1341 1.415 . S
C1340 C1339 1.355 . S
C1340 C1342 1.419 . S
C1341 C1336 1.425 . S
C1341 C1338 1.409 . S
C1341 C1339 1.415 . S
C1342 H1332 0.930 . S
C1342 C1340 1.419 . S
C1342 C1343 1.362 . S
C1343 H1333 0.930 . S
C1343 C1336 1.409 . S
C1343 C1342 1.362 . S
H1344 C1350 0.930 . S
H1345 C1353 0.930 . S
H1346 C1354 0.930 . S
H1347 C1355 0.930 . S
H1348 C1358 0.930 . S
H1349 C1359 0.930 . S
C1350 H1344 0.930 . S
C1350 C1351 1.355 . S
C1350 C1352 1.415 . S
C1351 C1350 1.355 . S
C1351 C1353 1.419 . S
C1352 C1350 1.415 . S
C1352 C1357 1.425 . S
C1352 C1359 1.409 . S
C1353 H1345 0.930 . S
C1353 C1351 1.419 . S
C1353 C1354 1.362 . S
C1354 H1346 0.930 . S
C1354 C1353 1.362 . S
C1354 C1357 1.409 . S
C1355 H1347 0.930 . S
C1355 C1356 1.355 . S
C1355 C1357 1.415 . S
C1356 C1355 1.355 . S
C1356 C1358 1.419 . S
C1357 C1352 1.425 . S
C1357 C1354 1.409 . S
C1357 C1355 1.415 . S
C1358 H1348 0.930 . S
C1358 C1356 1.419 . S
C1358 C1359 1.362 . S
C1359 H1349 0.930 . S
C1359 C1352 1.409 . S
C1359 C1358 1.362 . S
H1360 C1366 0.930 . S
H1361 C1369 0.930 . S
H1362 C1370 0.930 . S
H1363 C1371 0.930 . S
H1364 C1374 0.930 . S
H1365 C1375 0.930 . S
C1366 H1360 0.930 . S
C1366 C1367 1.355 . S
C1366 C1368 1.415 . S
C1367 C1366 1.355 . S
C1367 C1369 1.419 . S
C1368 C1366 1.415 . S
C1368 C1373 1.425 . S
C1368 C1375 1.409 . S
C1369 H1361 0.930 . S
C1369 C1367 1.419 . S
C1369 C1370 1.362 . S
C1370 H1362 0.930 . S
C1370 C1369 1.362 . S
C1370 C1373 1.409 . S
C1371 H1363 0.930 . S
C1371 C1372 1.355 . S
C1371 C1373 1.415 . S
C1372 C1371 1.355 . S
C1372 C1374 1.419 . S
C1373 C1368 1.425 . S
C1373 C1370 1.409 . S
C1373 C1371 1.415 . S
C1374 H1364 0.930 . S
C1374 C1372 1.419 . S
C1374 C1375 1.362 . S
C1375 H1365 0.930 . S
C1375 C1368 1.409 . S
C1375 C1374 1.362 . S
H1376 C1382 0.930 . S
H1377 C1385 0.930 . S
H1378 C1386 0.930 . S
H1379 C1387 0.930 . S
H1380 C1390 0.930 . S
H1381 C1391 0.930 . S
C1382 H1376 0.930 . S
C1382 C1383 1.355 . S
C1382 C1384 1.415 . S
C1383 C1382 1.355 . S
C1383 C1385 1.419 . S
C1384 C1382 1.415 . S
C1384 C1389 1.425 . S
C1384 C1391 1.409 . S
C1385 H1377 0.930 . S
C1385 C1383 1.419 . S
C1385 C1386 1.362 . S
C1386 H1378 0.930 . S
C1386 C1385 1.362 . S
C1386 C1389 1.409 . S
C1387 H1379 0.930 . S
C1387 C1388 1.355 . S
C1387 C1389 1.415 . S
C1388 C1387 1.355 . S
C1388 C1390 1.419 . S
C1389 C1384 1.425 . S
C1389 C1386 1.409 . S
C1389 C1387 1.415 . S
C1390 H1380 0.930 . S
C1390 C1388 1.419 . S
C1390 C1391 1.362 . S
C1391 H1381 0.930 . S
C1391 C1384 1.409 . S
C1391 C1390 1.362 . S
H1392 C1398 0.930 . S
H1393 C1401 0.930 . S
H1394 C1402 0.930 . S
H1395 C1403 0.930 . S
H1396 C1406 0.930 . S
H1397 C1407 0.930 . S
C1398 H1392 0.930 . S
C1398 C1399 1.355 . S
C1398 C1400 1.415 . S
C1399 C1398 1.355 . S
C1399 C1401 1.419 . S
C1400 C1398 1.415 . S
C1400 C1405 1.425 . S
C1400 C1407 1.409 . S
C1401 H1393 0.930 . S
C1401 C1399 1.419 . S
C1401 C1402 1.362 . S
C1402 H1394 0.930 . S
C1402 C1401 1.362 . S
C1402 C1405 1.409 . S
C1403 H1395 0.930 . S
C1403 C1404 1.355 . S
C1403 C1405 1.415 . S
C1404 C1403 1.355 . S
C1404 C1406 1.419 . S
C1405 C1400 1.425 . S
C1405 C1402 1.409 . S
C1405 C1403 1.415 . S
C1406 H1396 0.930 . S
C1406 C1404 1.419 . S
C1406 C1407 1.362 . S
C1407 H1397 0.930 . S
C1407 C1400 1.409 . S
C1407 C1406 1.362 . S
H1408 C1414 0.930 . S
H1409 C1417 0.930 . S
H1410 C1418 0.930 . S
H1411 C1419 0.930 . S
H1412 C1422 0.930 . S
H1413 C1423 0.930 . S
C1414 H1408 0.930 . S
C1414 C1415 1.355 . S
C1414 C1416 1.415 . S
C1415 C1414 1.355 . S
C1415 C1417 1.419 . S
C1416 C1414 1.415 . S
C1416 C1421 1.425 . S
C1416 C1423 1.409 . S
C1417 H1409 0.930 . S
C1417 C1415 1.419 . S
C1417 C1418 1.362 . S
C1418 H1410 0.930 . S
C1418 C1417 1.362 . S
C1418 C1421 1.409 . S
C1419 H1411 0.930 . S
C1419 C1420 1.355 . S
C1419 C1421 1.415 . S
C1420 C1419 1.355 . S
C1420 C1422 1.419 . S
C1421 C1416 1.425 . S
C1421 C1418 1.409 . S
C1421 C1419 1.415 . S
C1422 H1412 0.930 . S
C1422 C1420 1.419 . S
C1422 C1423 1.362 . S
C1423 H1413 0.930 . S
C1423 C1416 1.409 . S
C1423 C1422 1.362 . S
H1424 C1430 0.930 . S
H1425 C1433 0.930 . S
H1426 C1434 0.930 . S
H1427 C1435 0.930 . S
H1428 C1438 0.930 1_455 S
H1429 C1439 0.930 . S
C1430 H1424 0.930 . S
C1430 C1431 1.355 . S
C1430 C1432 1.415 . S
C1431 C1430 1.355 . S
C1431 C1433 1.419 . S
C1432 C1430 1.415 . S
C1432 C1437 1.425 . S
C1432 C1439 1.409 . S
C1433 H1425 0.930 . S
C1433 C1431 1.419 . S
C1433 C1434 1.362 . S
C1434 H1426 0.930 . S
C1434 C1433 1.362 . S
C1434 C1437 1.409 . S
C1435 H1427 0.930 . S
C1435 C1436 1.355 . S
C1435 C1437 1.415 . S
C1436 C1435 1.355 . S
C1436 C1438 1.419 . S
C1437 C1432 1.425 . S
C1437 C1434 1.409 . S
C1437 C1435 1.415 . S
C1438 H1428 0.930 1_655 S
C1438 C1436 1.419 . S
C1438 C1439 1.362 . S
C1439 H1429 0.930 . S
C1439 C1432 1.409 . S
C1439 C1438 1.362 . S
H1440 C1446 0.930 . S
H1441 C1449 0.930 . S
H1442 C1450 0.930 . S
H1443 C1451 0.930 . S
H1444 C1454 0.930 . S
H1445 C1455 0.930 . S
C1446 H1440 0.930 . S
C1446 C1447 1.355 . S
C1446 C1448 1.415 . S
C1447 C1446 1.355 . S
C1447 C1449 1.419 . S
C1448 C1446 1.415 . S
C1448 C1453 1.425 . S
C1448 C1455 1.409 . S
C1449 H1441 0.930 . S
C1449 C1447 1.419 . S
C1449 C1450 1.362 . S
C1450 H1442 0.930 . S
C1450 C1449 1.362 . S
C1450 C1453 1.409 . S
C1451 H1443 0.930 . S
C1451 C1452 1.355 . S
C1451 C1453 1.415 . S
C1452 C1451 1.355 . S
C1452 C1454 1.419 . S
C1453 C1448 1.425 . S
C1453 C1450 1.409 . S
C1453 C1451 1.415 . S
C1454 H1444 0.930 . S
C1454 C1452 1.419 . S
C1454 C1455 1.362 . S
C1455 H1445 0.930 . S
C1455 C1448 1.409 . S
C1455 C1454 1.362 . S
H1456 C1462 0.930 . S
H1457 C1465 0.930 . S
H1458 C1466 0.930 . S
H1459 C1467 0.930 . S
H1460 C1470 0.930 . S
H1461 C1471 0.930 . S
C1462 H1456 0.930 . S
C1462 C1463 1.355 . S
C1462 C1464 1.415 . S
C1463 C1462 1.355 . S
C1463 C1465 1.419 . S
C1464 C1462 1.415 . S
C1464 C1469 1.425 . S
C1464 C1471 1.409 . S
C1465 H1457 0.930 . S
C1465 C1463 1.419 . S
C1465 C1466 1.362 . S
C1466 H1458 0.930 . S
C1466 C1465 1.362 . S
C1466 C1469 1.409 . S
C1467 H1459 0.930 . S
C1467 C1468 1.355 . S
C1467 C1469 1.415 . S
C1468 C1467 1.355 . S
C1468 C1470 1.419 . S
C1469 C1464 1.425 . S
C1469 C1466 1.409 . S
C1469 C1467 1.415 . S
C1470 H1460 0.930 . S
C1470 C1468 1.419 . S
C1470 C1471 1.362 . S
C1471 H1461 0.930 . S
C1471 C1464 1.409 . S
C1471 C1470 1.362 . S
H1472 C1478 0.930 . S
H1473 C1481 0.930 . S
H1474 C1482 0.930 . S
H1475 C1483 0.930 . S
H1476 C1486 0.930 . S
H1477 C1487 0.930 . S
C1478 H1472 0.930 . S
C1478 C1479 1.355 . S
C1478 C1480 1.415 . S
C1479 C1478 1.355 . S
C1479 C1481 1.419 . S
C1480 C1478 1.415 . S
C1480 C1485 1.425 . S
C1480 C1487 1.409 . S
C1481 H1473 0.930 . S
C1481 C1479 1.419 . S
C1481 C1482 1.362 . S
C1482 H1474 0.930 . S
C1482 C1481 1.362 . S
C1482 C1485 1.409 . S
C1483 H1475 0.930 . S
C1483 C1484 1.355 . S
C1483 C1485 1.415 . S
C1484 C1483 1.355 . S
C1484 C1486 1.419 . S
C1485 C1480 1.425 . S
C1485 C1482 1.409 . S
C1485 C1483 1.415 . S
C1486 H1476 0.930 . S
C1486 C1484 1.419 . S
C1486 C1487 1.362 . S
C1487 H1477 0.930 . S
C1487 C1480 1.409 . S
C1487 C1486 1.362 . S
H1488 C1494 0.930 . S
H1489 C1497 0.930 . S
H1490 C1498 0.930 . S
H1491 C1499 0.930 . S
H1492 C1502 0.930 . S
H1493 C1503 0.930 . S
C1494 H1488 0.930 . S
C1494 C1495 1.355 . S
C1494 C1496 1.415 . S
C1495 C1494 1.355 . S
C1495 C1497 1.419 . S
C1496 C1494 1.415 . S
C1496 C1501 1.425 . S
C1496 C1503 1.409 . S
C1497 H1489 0.930 . S
C1497 C1495 1.419 . S
C1497 C1498 1.362 . S
C1498 H1490 0.930 . S
C1498 C1497 1.362 . S
C1498 C1501 1.409 . S
C1499 H1491 0.930 . S
C1499 C1500 1.355 . S
C1499 C1501 1.415 . S
C1500 C1499 1.355 . S
C1500 C1502 1.419 . S
C1501 C1496 1.425 . S
C1501 C1498 1.409 . S
C1501 C1499 1.415 . S
C1502 H1492 0.930 . S
C1502 C1500 1.419 . S
C1502 C1503 1.362 . S
C1503 H1493 0.930 . S
C1503 C1496 1.409 . S
C1503 C1502 1.362 . S
H1504 C1510 0.930 . S
H1505 C1513 0.930 . S
H1506 C1514 0.930 . S
H1507 C1515 0.930 . S
H1508 C1518 0.930 . S
H1509 C1519 0.930 . S
C1510 H1504 0.930 . S
C1510 C1511 1.355 . S
C1510 C1512 1.415 . S
C1511 C1510 1.355 . S
C1511 C1513 1.419 . S
C1512 C1510 1.415 . S
C1512 C1517 1.425 . S
C1512 C1519 1.409 . S
C1513 H1505 0.930 . S
C1513 C1511 1.419 . S
C1513 C1514 1.362 . S
C1514 H1506 0.930 . S
C1514 C1513 1.362 . S
C1514 C1517 1.409 . S
C1515 H1507 0.930 . S
C1515 C1516 1.355 . S
C1515 C1517 1.415 . S
C1516 C1515 1.355 . S
C1516 C1518 1.419 . S
C1517 C1512 1.425 . S
C1517 C1514 1.409 . S
C1517 C1515 1.415 . S
C1518 H1508 0.930 . S
C1518 C1516 1.419 . S
C1518 C1519 1.362 . S
C1519 H1509 0.930 . S
C1519 C1512 1.409 . S
C1519 C1518 1.362 . S
H1520 C1526 0.930 . S
H1521 C1529 0.930 1_455 S
H1522 C1530 0.930 . S
H1523 C1531 0.930 . S
H1524 C1534 0.930 . S
H1525 C1535 0.930 . S
C1526 H1520 0.930 . S
C1526 C1527 1.355 . S
C1526 C1528 1.415 . S
C1527 C1526 1.355 . S
C1527 C1529 1.419 . S
C1528 C1526 1.415 . S
C1528 C1533 1.425 . S
C1528 C1535 1.409 . S
C1529 H1521 0.930 1_655 S
C1529 C1527 1.419 . S
C1529 C1530 1.362 . S
C1530 H1522 0.930 . S
C1530 C1529 1.362 . S
C1530 C1533 1.409 . S
C1531 H1523 0.930 . S
C1531 C1532 1.355 . S
C1531 C1533 1.415 . S
C1532 C1531 1.355 . S
C1532 C1534 1.419 . S
C1533 C1528 1.425 . S
C1533 C1530 1.409 . S
C1533 C1531 1.415 . S
C1534 H1524 0.930 . S
C1534 C1532 1.419 . S
C1534 C1535 1.362 . S
C1535 H1525 0.930 . S
C1535 C1528 1.409 . S
C1535 C1534 1.362 . S
H1536 C1542 0.930 . S
H1537 C1545 0.930 . S
H1538 C1546 0.930 . S
H1539 C1547 0.930 . S
H1540 C1550 0.930 . S
H1541 C1551 0.930 . S
C1542 H1536 0.930 . S
C1542 C1543 1.355 . S
C1542 C1544 1.415 . S
C1543 C1542 1.355 . S
C1543 C1545 1.419 . S
C1544 C1542 1.415 . S
C1544 C1549 1.425 . S
C1544 C1551 1.409 . S
C1545 H1537 0.930 . S
C1545 C1543 1.419 . S
C1545 C1546 1.362 . S
C1546 H1538 0.930 . S
C1546 C1545 1.362 . S
C1546 C1549 1.409 . S
C1547 H1539 0.930 . S
C1547 C1548 1.355 . S
C1547 C1549 1.415 . S
C1548 C1547 1.355 . S
C1548 C1550 1.419 . S
C1549 C1544 1.425 . S
C1549 C1546 1.409 . S
C1549 C1547 1.415 . S
C1550 H1540 0.930 . S
C1550 C1548 1.419 . S
C1550 C1551 1.362 . S
C1551 H1541 0.930 . S
C1551 C1544 1.409 . S
C1551 C1550 1.362 . S
H1552 C1558 0.930 . S
H1553 C1561 0.930 . S
H1554 C1562 0.930 . S
H1555 C1563 0.930 . S
H1556 C1566 0.930 . S
H1557 C1567 0.930 . S
C1558 H1552 0.930 . S
C1558 C1559 1.355 . S
C1558 C1560 1.415 . S
C1559 C1558 1.355 . S
C1559 C1561 1.419 . S
C1560 C1558 1.415 . S
C1560 C1565 1.425 . S
C1560 C1567 1.409 . S
C1561 H1553 0.930 . S
C1561 C1559 1.419 . S
C1561 C1562 1.362 . S
C1562 H1554 0.930 . S
C1562 C1561 1.362 . S
C1562 C1565 1.409 . S
C1563 H1555 0.930 . S
C1563 C1564 1.355 . S
C1563 C1565 1.415 . S
C1564 C1563 1.355 . S
C1564 C1566 1.419 . S
C1565 C1560 1.425 . S
C1565 C1562 1.409 . S
C1565 C1563 1.415 . S
C1566 H1556 0.930 . S
C1566 C1564 1.419 . S
C1566 C1567 1.362 . S
C1567 H1557 0.930 . S
C1567 C1560 1.409 . S
C1567 C1566 1.362 . S
H1568 C1574 0.930 . S
H1569 C1577 0.930 . S
H1570 C1578 0.930 . S
H1571 C1579 0.930 . S
H1572 C1582 0.930 . S
H1573 C1583 0.930 . S
C1574 H1568 0.930 . S
C1574 C1575 1.355 . S
C1574 C1576 1.415 . S
C1575 C1574 1.355 . S
C1575 C1577 1.419 . S
C1576 C1574 1.415 . S
C1576 C1581 1.425 . S
C1576 C1583 1.409 . S
C1577 H1569 0.930 . S
C1577 C1575 1.419 . S
C1577 C1578 1.362 . S
C1578 H1570 0.930 . S
C1578 C1577 1.362 . S
C1578 C1581 1.409 . S
C1579 H1571 0.930 . S
C1579 C1580 1.355 . S
C1579 C1581 1.415 . S
C1580 C1579 1.355 . S
C1580 C1582 1.419 . S
C1581 C1576 1.425 . S
C1581 C1578 1.409 . S
C1581 C1579 1.415 . S
C1582 H1572 0.930 . S
C1582 C1580 1.419 . S
C1582 C1583 1.362 . S
C1583 H1573 0.930 . S
C1583 C1576 1.409 . S
C1583 C1582 1.362 . S
H1584 C1590 0.930 . S
H1585 C1593 0.930 . S
H1586 C1594 0.930 . S
H1587 C1595 0.930 . S
H1588 C1598 0.930 . S
H1589 C1599 0.930 . S
C1590 H1584 0.930 . S
C1590 C1591 1.355 . S
C1590 C1592 1.415 . S
C1591 C1590 1.355 . S
C1591 C1593 1.419 . S
C1592 C1590 1.415 . S
C1592 C1597 1.425 . S
C1592 C1599 1.409 . S
C1593 H1585 0.930 . S
C1593 C1591 1.419 . S
C1593 C1594 1.362 . S
C1594 H1586 0.930 . S
C1594 C1593 1.362 . S
C1594 C1597 1.409 . S
C1595 H1587 0.930 . S
C1595 C1596 1.355 . S
C1595 C1597 1.415 . S
C1596 C1595 1.355 . S
C1596 C1598 1.419 . S
C1597 C1592 1.425 . S
C1597 C1594 1.409 . S
C1597 C1595 1.415 . S
C1598 H1588 0.930 . S
C1598 C1596 1.419 . S
C1598 C1599 1.362 . S
C1599 H1589 0.930 . S
C1599 C1592 1.409 . S
C1599 C1598 1.362 . S
H1600 C1606 0.930 . S
H1601 C1609 0.930 . S
H1602 C1610 0.930 . S
H1603 C1611 0.930 . S
H1604 C1614 0.930 . S
H1605 C1615 0.930 . S
C1606 H1600 0.930 . S
C1606 C1607 1.355 . S
C1606 C1608 1.415 . S
C1607 C1606 1.355 . S
C1607 C1609 1.419 . S
C1608 C1606 1.415 . S
C1608 C1613 1.425 . S
C1608 C1615 1.409 . S
C1609 H1601 0.930 . S
C1609 C1607 1.419 . S
C1609 C1610 1.362 . S
C1610 H1602 0.930 . S
C1610 C1609 1.362 . S
C1610 C1613 1.409 . S
C1611 H1603 0.930 . S
C1611 C1612 1.355 . S
C1611 C1613 1.415 . S
C1612 C1611 1.355 . S
C1612 C1614 1.419 . S
C1613 C1608 1.425 . S
C1613 C1610 1.409 . S
C1613 C1611 1.415 . S
C1614 H1604 0.930 . S
C1614 C1612 1.419 . S
C1614 C1615 1.362 . S
C1615 H1605 0.930 . S
C1615 C1608 1.409 . S
C1615 C1614 1.362 . S
H1616 C1622 0.930 . S
H1617 C1625 0.930 . S
H1618 C1626 0.930 . S
H1619 C1627 0.930 . S
H1620 C1630 0.930 . S
H1621 C1631 0.930 . S
C1622 H1616 0.930 . S
C1622 C1623 1.355 . S
C1622 C1624 1.415 . S
C1623 C1622 1.355 . S
C1623 C1625 1.419 . S
C1624 C1622 1.415 . S
C1624 C1629 1.425 . S
C1624 C1631 1.409 . S
C1625 H1617 0.930 . S
C1625 C1623 1.419 . S
C1625 C1626 1.362 . S
C1626 H1618 0.930 . S
C1626 C1625 1.362 . S
C1626 C1629 1.409 . S
C1627 H1619 0.930 . S
C1627 C1628 1.355 . S
C1627 C1629 1.415 . S
C1628 C1627 1.355 . S
C1628 C1630 1.419 . S
C1629 C1624 1.425 . S
C1629 C1626 1.409 . S
C1629 C1627 1.415 . S
C1630 H1620 0.930 . S
C1630 C1628 1.419 . S
C1630 C1631 1.362 . S
C1631 H1621 0.930 . S
C1631 C1624 1.409 . S
C1631 C1630 1.362 . S
H1632 C1638 0.930 . S
H1633 C1641 0.930 . S
H1634 C1642 0.930 . S
H1635 C1643 0.930 . S
H1636 C1646 0.930 . S
H1637 C1647 0.930 . S
C1638 H1632 0.930 . S
C1638 C1639 1.355 . S
C1638 C1640 1.415 . S
C1639 C1638 1.355 . S
C1639 C1641 1.419 . S
C1640 C1638 1.415 . S
C1640 C1645 1.425 . S
C1640 C1647 1.409 . S
C1641 H1633 0.930 . S
C1641 C1639 1.419 . S
C1641 C1642 1.362 . S
C1642 H1634 0.930 . S
C1642 C1641 1.362 . S
C1642 C1645 1.409 . S
C1643 H1635 0.930 . S
C1643 C1644 1.355 . S
C1643 C1645 1.415 . S
C1644 C1643 1.355 . S
C1644 C1646 1.419 . S
C1645 C1640 1.425 . S
C1645 C1642 1.409 . S
C1645 C1643 1.415 . S
C1646 H1636 0.930 . S
C1646 C1644 1.419 . S
C1646 C1647 1.362 . S
C1647 H1637 0.930 . S
C1647 C1640 1.409 . S
C1647 C1646 1.362 . S
H1648 C1654 0.930 . S
H1649 C1657 0.930 . S
H1650 C1658 0.930 . S
H1651 C1659 0.930 . S
H1652 C1662 0.930 . S
H1653 C1663 0.930 . S
C1654 H1648 0.930 . S
C1654 C1655 1.355 . S
C1654 C1656 1.415 . S
C1655 C1654 1.355 . S
C1655 C1657 1.419 . S
C1656 C1654 1.415 . S
C1656 C1661 1.425 . S
C1656 C1663 1.409 . S
C1657 H1649 0.930 . S
C1657 C1655 1.419 . S
C1657 C1658 1.362 . S
C1658 H1650 0.930 . S
C1658 C1657 1.362 . S
C1658 C1661 1.409 . S
C1659 H1651 0.930 . S
C1659 C1660 1.355 . S
C1659 C1661 1.415 . S
C1660 C1659 1.355 . S
C1660 C1662 1.419 . S
C1661 C1656 1.425 . S
C1661 C1658 1.409 . S
C1661 C1659 1.415 . S
C1662 H1652 0.930 . S
C1662 C1660 1.419 . S
C1662 C1663 1.362 . S
C1663 H1653 0.930 . S
C1663 C1656 1.409 . S
C1663 C1662 1.362 . S
H1664 C1670 0.930 . S
H1665 C1673 0.930 . S
H1666 C1674 0.930 . S
H1667 C1675 0.930 . S
H1668 C1678 0.930 . S
H1669 C1679 0.930 . S
C1670 H1664 0.930 . S
C1670 C1671 1.355 . S
C1670 C1672 1.415 . S
C1671 C1670 1.355 . S
C1671 C1673 1.419 . S
C1672 C1670 1.415 . S
C1672 C1677 1.425 . S
C1672 C1679 1.409 . S
C1673 H1665 0.930 . S
C1673 C1671 1.419 . S
C1673 C1674 1.362 . S
C1674 H1666 0.930 . S
C1674 C1673 1.362 . S
C1674 C1677 1.409 . S
C1675 H1667 0.930 . S
C1675 C1676 1.355 . S
C1675 C1677 1.415 . S
C1676 C1675 1.355 . S
C1676 C1678 1.419 . S
C1677 C1672 1.425 . S
C1677 C1674 1.409 . S
C1677 C1675 1.415 . S
C1678 H1668 0.930 . S
C1678 C1676 1.419 . S
C1678 C1679 1.362 . S
C1679 H1669 0.930 . S
C1679 C1672 1.409 . S
C1679 C1678 1.362 . S
H1680 C1686 0.930 . S
H1681 C1689 0.930 . S
H1682 C1690 0.930 . S
H1683 C1691 0.930 . S
H1684 C1694 0.930 . S
H1685 C1695 0.930 . S
C1686 H1680 0.930 . S
C1686 C1687 1.355 . S
C1686 C1688 1.415 . S
C1687 C1686 1.355 . S
C1687 C1689 1.419 . S
C1688 C1686 1.415 . S
C1688 C1693 1.425 . S
C1688 C1695 1.409 . S
C1689 H1681 0.930 . S
C1689 C1687 1.419 . S
C1689 C1690 1.362 . S
C1690 H1682 0.930 . S
C1690 C1689 1.362 . S
C1690 C1693 1.409 . S
C1691 H1683 0.930 . S
C1691 C1692 1.355 . S
C1691 C1693 1.415 . S
C1692 C1691 1.355 . S
C1692 C1694 1.419 . S
C1693 C1688 1.425 . S
C1693 C1690 1.409 . S
C1693 C1691 1.415 . S
C1694 H1684 0.930 . S
C1694 C1692 1.419 . S
C1694 C1695 1.362 . S
C1695 H1685 0.930 . S
C1695 C1688 1.409 . S
C1695 C1694 1.362 . S
H1696 C1702 0.930 . S
H1697 C1705 0.930 . S
H1698 C1706 0.930 . S
H1699 C1707 0.930 . S
H1700 C1710 0.930 . S
H1701 C1711 0.930 . S
C1702 H1696 0.930 . S
C1702 C1703 1.355 . S
C1702 C1704 1.415 . S
C1703 C1702 1.355 . S
C1703 C1705 1.419 . S
C1704 C1702 1.415 . S
C1704 C1709 1.425 . S
C1704 C1711 1.409 . S
C1705 H1697 0.930 . S
C1705 C1703 1.419 . S
C1705 C1706 1.362 . S
C1706 H1698 0.930 . S
C1706 C1705 1.362 . S
C1706 C1709 1.409 . S
C1707 H1699 0.930 . S
C1707 C1708 1.355 . S
C1707 C1709 1.415 . S
C1708 C1707 1.355 . S
C1708 C1710 1.419 . S
C1709 C1704 1.425 . S
C1709 C1706 1.409 . S
C1709 C1707 1.415 . S
C1710 H1700 0.930 . S
C1710 C1708 1.419 . S
C1710 C1711 1.362 . S
C1711 H1701 0.930 . S
C1711 C1704 1.409 . S
C1711 C1710 1.362 . S
H1712 C1718 0.930 . S
H1713 C1721 0.930 . S
H1714 C1722 0.930 . S
H1715 C1723 0.930 . S
H1716 C1726 0.930 . S
H1717 C1727 0.930 . S
C1718 H1712 0.930 . S
C1718 C1719 1.355 . S
C1718 C1720 1.415 . S
C1719 C1718 1.355 . S
C1719 C1721 1.419 . S
C1720 C1718 1.415 . S
C1720 C1725 1.425 . S
C1720 C1727 1.409 . S
C1721 H1713 0.930 . S
C1721 C1719 1.419 . S
C1721 C1722 1.362 . S
C1722 H1714 0.930 . S
C1722 C1721 1.362 . S
C1722 C1725 1.409 . S
C1723 H1715 0.930 . S
C1723 C1724 1.355 . S
C1723 C1725 1.415 . S
C1724 C1723 1.355 . S
C1724 C1726 1.419 . S
C1725 C1720 1.425 . S
C1725 C1722 1.409 . S
C1725 C1723 1.415 . S
C1726 H1716 0.930 . S
C1726 C1724 1.419 . S
C1726 C1727 1.362 . S
C1727 H1717 0.930 . S
C1727 C1720 1.409 . S
C1727 C1726 1.362 . S
H1728 C1734 0.930 . S
H1729 C1737 0.930 . S
H1730 C1738 0.930 . S
H1731 C1739 0.930 . S
H1732 C1742 0.930 . S
H1733 C1743 0.930 . S
C1734 H1728 0.930 . S
C1734 C1735 1.355 . S
C1734 C1736 1.415 . S
C1735 C1734 1.355 . S
C1735 C1737 1.419 . S
C1736 C1734 1.415 . S
C1736 C1741 1.425 . S
C1736 C1743 1.409 . S
C1737 H1729 0.930 . S
C1737 C1735 1.419 . S
C1737 C1738 1.362 . S
C1738 H1730 0.930 . S
C1738 C1737 1.362 . S
C1738 C1741 1.409 . S
C1739 H1731 0.930 . S
C1739 C1740 1.355 . S
C1739 C1741 1.415 . S
C1740 C1739 1.355 . S
C1740 C1742 1.419 . S
C1741 C1736 1.425 . S
C1741 C1738 1.409 . S
C1741 C1739 1.415 . S
C1742 H1732 0.930 . S
C1742 C1740 1.419 . S
C1742 C1743 1.362 . S
C1743 H1733 0.930 . S
C1743 C1736 1.409 . S
C1743 C1742 1.362 . S
H1744 C1750 0.930 . S
H1745 C1753 0.930 1_655 S
H1746 C1754 0.930 . S
H1747 C1755 0.930 . S
H1748 C1758 0.930 . S
H1749 C1759 0.930 . S
C1750 H1744 0.930 . S
C1750 C1751 1.355 . S
C1750 C1752 1.415 . S
C1751 C1750 1.355 . S
C1751 C1753 1.419 . S
C1752 C1750 1.415 . S
C1752 C1757 1.425 . S
C1752 C1759 1.409 . S
C1753 H1745 0.930 1_455 S
C1753 C1751 1.419 . S
C1753 C1754 1.362 . S
C1754 H1746 0.930 . S
C1754 C1753 1.362 . S
C1754 C1757 1.409 . S
C1755 H1747 0.930 . S
C1755 C1756 1.355 . S
C1755 C1757 1.415 . S
C1756 C1755 1.355 . S
C1756 C1758 1.419 . S
C1757 C1752 1.425 . S
C1757 C1754 1.409 . S
C1757 C1755 1.415 . S
C1758 H1748 0.930 . S
C1758 C1756 1.419 . S
C1758 C1759 1.362 . S
C1759 H1749 0.930 . S
C1759 C1752 1.409 . S
C1759 C1758 1.362 . S
H1760 C1766 0.930 . S
H1761 C1769 0.930 . S
H1762 C1770 0.930 . S
H1763 C1771 0.930 . S
H1764 C1774 0.930 . S
H1765 C1775 0.930 . S
C1766 H1760 0.930 . S
C1766 C1767 1.355 . S
C1766 C1768 1.415 . S
C1767 C1766 1.355 . S
C1767 C1769 1.419 . S
C1768 C1766 1.415 . S
C1768 C1773 1.425 . S
C1768 C1775 1.409 . S
C1769 H1761 0.930 . S
C1769 C1767 1.419 . S
C1769 C1770 1.362 . S
C1770 H1762 0.930 . S
C1770 C1769 1.362 . S
C1770 C1773 1.409 . S
C1771 H1763 0.930 . S
C1771 C1772 1.355 . S
C1771 C1773 1.415 . S
C1772 C1771 1.355 . S
C1772 C1774 1.419 . S
C1773 C1768 1.425 . S
C1773 C1770 1.409 . S
C1773 C1771 1.415 . S
C1774 H1764 0.930 . S
C1774 C1772 1.419 . S
C1774 C1775 1.362 . S
C1775 H1765 0.930 . S
C1775 C1768 1.409 . S
C1775 C1774 1.362 . S
H1776 C1782 0.930 . S
H1777 C1785 0.930 . S
H1778 C1786 0.930 . S
H1779 C1787 0.930 . S
H1780 C1790 0.930 . S
H1781 C1791 0.930 . S
C1782 H1776 0.930 . S
C1782 C1783 1.355 . S
C1782 C1784 1.415 . S
C1783 C1782 1.355 . S
C1783 C1785 1.419 . S
C1784 C1782 1.415 . S
C1784 C1789 1.425 . S
C1784 C1791 1.409 . S
C1785 H1777 0.930 . S
C1785 C1783 1.419 . S
C1785 C1786 1.362 . S
C1786 H1778 0.930 . S
C1786 C1785 1.362 . S
C1786 C1789 1.409 . S
C1787 H1779 0.930 . S
C1787 C1788 1.355 . S
C1787 C1789 1.415 . S
C1788 C1787 1.355 . S
C1788 C1790 1.419 . S
C1789 C1784 1.425 . S
C1789 C1786 1.409 . S
C1789 C1787 1.415 . S
C1790 H1780 0.930 . S
C1790 C1788 1.419 . S
C1790 C1791 1.362 . S
C1791 H1781 0.930 . S
C1791 C1784 1.409 . S
C1791 C1790 1.362 . S
H1792 C1798 0.930 . S
H1793 C1801 0.930 . S
H1794 C1802 0.930 . S
H1795 C1803 0.930 . S
H1796 C1806 0.930 . S
H1797 C1807 0.930 . S
C1798 H1792 0.930 . S
C1798 C1799 1.355 . S
C1798 C1800 1.415 . S
C1799 C1798 1.355 . S
C1799 C1801 1.419 . S
C1800 C1798 1.415 . S
C1800 C1805 1.425 1_455 S
C1800 C1807 1.409 . S
C1801 H1793 0.930 . S
C1801 C1799 1.419 . S
C1801 C1802 1.362 1_455 S
C1802 H1794 0.930 . S
C1802 C1801 1.362 1_655 S
C1802 C1805 1.409 . S
C1803 H1795 0.930 . S
C1803 C1804 1.355 . S
C1803 C1805 1.415 . S
C1804 C1803 1.355 . S
C1804 C1806 1.419 . S
C1805 C1800 1.425 1_655 S
C1805 C1802 1.409 . S
C1805 C1803 1.415 . S
C1806 H1796 0.930 . S
C1806 C1804 1.419 . S
C1806 C1807 1.362 1_655 S
C1807 H1797 0.930 . S
C1807 C1800 1.409 . S
C1807 C1806 1.362 1_455 S
H1808 C1814 0.930 . S
H1809 C1817 0.930 . S
H1810 C1818 0.930 . S
H1811 C1819 0.930 . S
H1812 C1822 0.930 . S
H1813 C1823 0.930 . S
C1814 H1808 0.930 . S
C1814 C1815 1.355 . S
C1814 C1816 1.415 . S
C1815 C1814 1.355 . S
C1815 C1817 1.419 . S
C1816 C1814 1.415 . S
C1816 C1821 1.425 1_655 S
C1816 C1823 1.409 . S
C1817 H1809 0.930 . S
C1817 C1815 1.419 . S
C1817 C1818 1.362 1_655 S
C1818 H1810 0.930 . S
C1818 C1817 1.362 1_455 S
C1818 C1821 1.409 . S
C1819 H1811 0.930 . S
C1819 C1820 1.355 . S
C1819 C1821 1.415 . S
C1820 C1819 1.355 . S
C1820 C1822 1.419 . S
C1821 C1816 1.425 1_455 S
C1821 C1818 1.409 . S
C1821 C1819 1.415 . S
C1822 H1812 0.930 . S
C1822 C1820 1.419 . S
C1822 C1823 1.362 1_455 S
C1823 H1813 0.930 . S
C1823 C1816 1.409 . S
C1823 C1822 1.362 1_655 S
H1824 C1830 0.930 . S
H1825 C1833 0.930 . S
H1826 C1834 0.930 . S
H1827 C1835 0.930 . S
H1828 C1838 0.930 . S
H1829 C1839 0.930 . S
C1830 H1824 0.930 . S
C1830 C1831 1.355 . S
C1830 C1832 1.415 . S
C1831 C1830 1.355 . S
C1831 C1833 1.419 . S
C1832 C1830 1.415 . S
C1832 C1837 1.425 . S
C1832 C1839 1.409 . S
C1833 H1825 0.930 . S
C1833 C1831 1.419 . S
C1833 C1834 1.362 . S
C1834 H1826 0.930 . S
C1834 C1833 1.362 . S
C1834 C1837 1.409 . S
C1835 H1827 0.930 . S
C1835 C1836 1.355 . S
C1835 C1837 1.415 . S
C1836 C1835 1.355 . S
C1836 C1838 1.419 . S
C1837 C1832 1.425 . S
C1837 C1834 1.409 . S
C1837 C1835 1.415 . S
C1838 H1828 0.930 . S
C1838 C1836 1.419 . S
C1838 C1839 1.362 . S
C1839 H1829 0.930 . S
C1839 C1832 1.409 . S
C1839 C1838 1.362 . S
H1840 C1846 0.930 . S
H1841 C1849 0.930 . S
H1842 C1850 0.930 . S
H1843 C1851 0.930 . S
H1844 C1854 0.930 . S
H1845 C1855 0.930 . S
C1846 H1840 0.930 . S
C1846 C1847 1.355 . S
C1846 C1848 1.415 . S
C1847 C1846 1.355 . S
C1847 C1849 1.419 . S
C1848 C1846 1.415 . S
C1848 C1853 1.425 . S
C1848 C1855 1.409 . S
C1849 H1841 0.930 . S
C1849 C1847 1.419 . S
C1849 C1850 1.362 . S
C1850 H1842 0.930 . S
C1850 C1849 1.362 . S
C1850 C1853 1.409 . S
C1851 H1843 0.930 . S
C1851 C1852 1.355 . S
C1851 C1853 1.415 . S
C1852 C1851 1.355 . S
C1852 C1854 1.419 . S
C1853 C1848 1.425 . S
C1853 C1850 1.409 . S
C1853 C1851 1.415 . S
C1854 H1844 0.930 . S
C1854 C1852 1.419 . S
C1854 C1855 1.362 . S
C1855 H1845 0.930 . S
C1855 C1848 1.409 . S
C1855 C1854 1.362 . S
H1856 C1862 0.930 1_455 S
H1857 C1865 0.930 . S
H1858 C1866 0.930 . S
H1859 C1867 0.930 1_655 S
H1860 C1870 0.930 . S
H1861 C1871 0.930 . S
C1862 H1856 0.930 1_655 S
C1862 C1863 1.355 . S
C1862 C1864 1.415 1_655 S
C1863 C1862 1.355 . S
C1863 C1865 1.419 . S
C1864 C1862 1.415 1_455 S
C1864 C1869 1.425 1_455 S
C1864 C1871 1.409 . S
C1865 H1857 0.930 . S
C1865 C1863 1.419 . S
C1865 C1866 1.362 . S
C1866 H1858 0.930 . S
C1866 C1865 1.362 . S
C1866 C1869 1.409 . S
C1867 H1859 0.930 1_455 S
C1867 C1868 1.355 . S
C1867 C1869 1.415 1_455 S
C1868 C1867 1.355 . S
C1868 C1870 1.419 . S
C1869 C1864 1.425 1_655 S
C1869 C1866 1.409 . S
C1869 C1867 1.415 1_655 S
C1870 H1860 0.930 . S
C1870 C1868 1.419 . S
C1870 C1871 1.362 . S
C1871 H1861 0.930 . S
C1871 C1864 1.409 . S
C1871 C1870 1.362 . S
H1872 C1878 0.930 . S
H1873 C1881 0.930 . S
H1874 C1882 0.930 . S
H1875 C1883 0.930 . S
H1876 C1886 0.930 . S
H1877 C1887 0.930 . S
C1878 H1872 0.930 . S
C1878 C1879 1.355 . S
C1878 C1880 1.415 . S
C1879 C1878 1.355 . S
C1879 C1881 1.419 . S
C1880 C1878 1.415 . S
C1880 C1885 1.425 . S
C1880 C1887 1.409 . S
C1881 H1873 0.930 . S
C1881 C1879 1.419 . S
C1881 C1882 1.362 . S
C1882 H1874 0.930 . S
C1882 C1881 1.362 . S
C1882 C1885 1.409 . S
C1883 H1875 0.930 . S
C1883 C1884 1.355 . S
C1883 C1885 1.415 . S
C1884 C1883 1.355 . S
C1884 C1886 1.419 . S
C1885 C1880 1.425 . S
C1885 C1882 1.409 . S
C1885 C1883 1.415 . S
C1886 H1876 0.930 . S
C1886 C1884 1.419 . S
C1886 C1887 1.362 . S
C1887 H1877 0.930 . S
C1887 C1880 1.409 . S
C1887 C1886 1.362 . S
H1888 C1894 0.930 . S
H1889 C1897 0.930 . S
H1890 C1898 0.930 . S
H1891 C1899 0.930 . S
H1892 C1902 0.930 . S
H1893 C1903 0.930 . S
C1894 H1888 0.930 . S
C1894 C1895 1.355 . S
C1894 C1896 1.415 . S
C1895 C1894 1.355 . S
C1895 C1897 1.419 . S
C1896 C1894 1.415 . S
C1896 C1901 1.425 . S
C1896 C1903 1.409 . S
C1897 H1889 0.930 . S
C1897 C1895 1.419 . S
C1897 C1898 1.362 . S
C1898 H1890 0.930 . S
C1898 C1897 1.362 . S
C1898 C1901 1.409 . S
C1899 H1891 0.930 . S
C1899 C1900 1.355 . S
C1899 C1901 1.415 . S
C1900 C1899 1.355 . S
C1900 C1902 1.419 . S
C1901 C1896 1.425 . S
C1901 C1898 1.409 . S
C1901 C1899 1.415 . S
C1902 H1892 0.930 . S
C1902 C1900 1.419 . S
C1902 C1903 1.362 . S
C1903 H1893 0.930 . S
C1903 C1896 1.409 . S
C1903 C1902 1.362 . S
H1904 C1910 0.930 . S
H1905 C1913 0.930 . S
H1906 C1914 0.930 . S
H1907 C1915 0.930 . S
H1908 C1918 0.930 . S
H1909 C1919 0.930 . S
C1910 H1904 0.930 . S
C1910 C1911 1.355 . S
C1910 C1912 1.415 . S
C1911 C1910 1.355 . S
C1911 C1913 1.419 . S
C1912 C1910 1.415 . S
C1912 C1917 1.425 1_455 S
C1912 C1919 1.409 . S
C1913 H1905 0.930 . S
C1913 C1911 1.419 . S
C1913 C1914 1.362 1_455 S
C1914 H1906 0.930 . S
C1914 C1913 1.362 1_655 S
C1914 C1917 1.409 . S
C1915 H1907 0.930 . S
C1915 C1916 1.355 . S
C1915 C1917 1.415 . S
C1916 C1915 1.355 . S
C1916 C1918 1.419 . S
C1917 C1912 1.425 1_655 S
C1917 C1914 1.409 . S
C1917 C1915 1.415 . S
C1918 H1908 0.930 . S
C1918 C1916 1.419 . S
C1918 C1919 1.362 1_655 S
C1919 H1909 0.930 . S
C1919 C1912 1.409 . S
C1919 C1918 1.362 1_455 S
H1920 C1926 0.930 . S
H1921 C1929 0.930 . S
H1922 C1930 0.930 . S
H1923 C1931 0.930 . S
H1924 C1934 0.930 . S
H1925 C1935 0.930 . S
C1926 H1920 0.930 . S
C1926 C1927 1.355 . S
C1926 C1928 1.415 . S
C1927 C1926 1.355 . S
C1927 C1929 1.419 1_455 S
C1928 C1926 1.415 . S
C1928 C1933 1.425 1_455 S
C1928 C1935 1.409 . S
C1929 H1921 0.930 . S
C1929 C1927 1.419 1_655 S
C1929 C1930 1.362 . S
C1930 H1922 0.930 . S
C1930 C1929 1.362 . S
C1930 C1933 1.409 . S
C1931 H1923 0.930 . S
C1931 C1932 1.355 . S
C1931 C1933 1.415 . S
C1932 C1931 1.355 . S
C1932 C1934 1.419 1_655 S
C1933 C1928 1.425 1_655 S
C1933 C1930 1.409 . S
C1933 C1931 1.415 . S
C1934 H1924 0.930 . S
C1934 C1932 1.419 1_455 S
C1934 C1935 1.362 . S
C1935 H1925 0.930 . S
C1935 C1928 1.409 . S
C1935 C1934 1.362 . S
H1936 C1942 0.930 . S
H1937 C1945 0.930 . S
H1938 C1946 0.930 . S
H1939 C1947 0.930 . S
H1940 C1950 0.930 . S
H1941 C1951 0.930 . S
C1942 H1936 0.930 . S
C1942 C1943 1.355 . S
C1942 C1944 1.415 . S
C1943 C1942 1.355 . S
C1943 C1945 1.419 . S
C1944 C1942 1.415 . S
C1944 C1949 1.425 1_655 S
C1944 C1951 1.409 . S
C1945 H1937 0.930 . S
C1945 C1943 1.419 . S
C1945 C1946 1.362 1_655 S
C1946 H1938 0.930 . S
C1946 C1945 1.362 1_455 S
C1946 C1949 1.409 . S
C1947 H1939 0.930 . S
C1947 C1948 1.355 . S
C1947 C1949 1.415 . S
C1948 C1947 1.355 . S
C1948 C1950 1.419 . S
C1949 C1944 1.425 1_455 S
C1949 C1946 1.409 . S
C1949 C1947 1.415 . S
C1950 H1940 0.930 . S
C1950 C1948 1.419 . S
C1950 C1951 1.362 1_455 S
C1951 H1941 0.930 . S
C1951 C1944 1.409 . S
C1951 C1950 1.362 1_655 S
H1952 C1958 0.930 . S
H1953 C1961 0.930 . S
H1954 C1962 0.930 . S
H1955 C1963 0.930 . S
H1956 C1966 0.930 . S
H1957 C1967 0.930 . S
C1958 H1952 0.930 . S
C1958 C1959 1.355 . S
C1958 C1960 1.415 . S
C1959 C1958 1.355 . S
C1959 C1961 1.419 . S
C1960 C1958 1.415 . S
C1960 C1965 1.425 . S
C1960 C1967 1.409 . S
C1961 H1953 0.930 . S
C1961 C1959 1.419 . S
C1961 C1962 1.362 . S
C1962 H1954 0.930 . S
C1962 C1961 1.362 . S
C1962 C1965 1.409 . S
C1963 H1955 0.930 . S
C1963 C1964 1.355 . S
C1963 C1965 1.415 . S
C1964 C1963 1.355 . S
C1964 C1966 1.419 . S
C1965 C1960 1.425 . S
C1965 C1962 1.409 . S
C1965 C1963 1.415 . S
C1966 H1956 0.930 . S
C1966 C1964 1.419 . S
C1966 C1967 1.362 . S
C1967 H1957 0.930 . S
C1967 C1960 1.409 . S
C1967 C1966 1.362 . S
H1968 C1974 0.930 . S
H1969 C1977 0.930 . S
H1970 C1978 0.930 . S
H1971 C1979 0.930 . S
H1972 C1982 0.930 . S
H1973 C1983 0.930 . S
C1974 H1968 0.930 . S
C1974 C1975 1.355 . S
C1974 C1976 1.415 . S
C1975 C1974 1.355 . S
C1975 C1977 1.419 . S
C1976 C1974 1.415 . S
C1976 C1981 1.425 . S
C1976 C1983 1.409 . S
C1977 H1969 0.930 . S
C1977 C1975 1.419 . S
C1977 C1978 1.362 . S
C1978 H1970 0.930 . S
C1978 C1977 1.362 . S
C1978 C1981 1.409 . S
C1979 H1971 0.930 . S
C1979 C1980 1.355 . S
C1979 C1981 1.415 . S
C1980 C1979 1.355 . S
C1980 C1982 1.419 . S
C1981 C1976 1.425 . S
C1981 C1978 1.409 . S
C1981 C1979 1.415 . S
C1982 H1972 0.930 . S
C1982 C1980 1.419 . S
C1982 C1983 1.362 . S
C1983 H1973 0.930 . S
C1983 C1976 1.409 . S
C1983 C1982 1.362 . S
H1984 C1990 0.930 1_655 S
H1985 C1993 0.930 . S
H1986 C1994 0.930 . S
H1987 C1995 0.930 1_455 S
H1988 C1998 0.930 . S
H1989 C1999 0.930 . S
C1990 H1984 0.930 1_455 S
C1990 C1991 1.355 . S
C1990 C1992 1.415 1_455 S
C1991 C1990 1.355 . S
C1991 C1993 1.419 . S
C1992 C1990 1.415 1_655 S
C1992 C1997 1.425 1_655 S
C1992 C1999 1.409 . S
C1993 H1985 0.930 . S
C1993 C1991 1.419 . S
C1993 C1994 1.362 . S
C1994 H1986 0.930 . S
C1994 C1993 1.362 . S
C1994 C1997 1.409 . S
C1995 H1987 0.930 1_655 S
C1995 C1996 1.355 . S
C1995 C1997 1.415 1_655 S
C1996 C1995 1.355 . S
C1996 C1998 1.419 . S
C1997 C1992 1.425 1_455 S
C1997 C1994 1.409 . S
C1997 C1995 1.415 1_455 S
C1998 H1988 0.930 . S
C1998 C1996 1.419 . S
C1998 C1999 1.362 . S
C1999 H1989 0.930 . S
C1999 C1992 1.409 . S
C1999 C1998 1.362 . S
H2000 C2006 0.930 . S
H2001 C2009 0.930 . S
H2002 C2010 0.930 . S
H2003 C2011 0.930 . S
H2004 C2014 0.930 . S
H2005 C2015 0.930 . S
C2006 H2000 0.930 . S
C2006 C2007 1.355 . S
C2006 C2008 1.415 . S
C2007 C2006 1.355 . S
C2007 C2009 1.419 . S
C2008 C2006 1.415 . S
C2008 C2013 1.425 . S
C2008 C2015 1.409 . S
C2009 H2001 0.930 . S
C2009 C2007 1.419 . S
C2009 C2010 1.362 . S
C2010 H2002 0.930 . S
C2010 C2009 1.362 . S
C2010 C2013 1.409 . S
C2011 H2003 0.930 . S
C2011 C2012 1.355 . S
C2011 C2013 1.415 . S
C2012 C2011 1.355 . S
C2012 C2014 1.419 . S
C2013 C2008 1.425 . S
C2013 C2010 1.409 . S
C2013 C2011 1.415 . S
C2014 H2004 0.930 . S
C2014 C2012 1.419 . S
C2014 C2015 1.362 . S
C2015 H2005 0.930 . S
C2015 C2008 1.409 . S
C2015 C2014 1.362 . S
H2016 C2022 0.930 . S
H2017 C2025 0.930 . S
H2018 C2026 0.930 . S
H2019 C2027 0.930 . S
H2020 C2030 0.930 . S
H2021 C2031 0.930 . S
C2022 H2016 0.930 . S
C2022 C2023 1.355 . S
C2022 C2024 1.415 . S
C2023 C2022 1.355 . S
C2023 C2025 1.419 . S
C2024 C2022 1.415 . S
C2024 C2029 1.425 . S
C2024 C2031 1.409 . S
C2025 H2017 0.930 . S
C2025 C2023 1.419 . S
C2025 C2026 1.362 . S
C2026 H2018 0.930 . S
C2026 C2025 1.362 . S
C2026 C2029 1.409 . S
C2027 H2019 0.930 . S
C2027 C2028 1.355 . S
C2027 C2029 1.415 . S
C2028 C2027 1.355 . S
C2028 C2030 1.419 . S
C2029 C2024 1.425 . S
C2029 C2026 1.409 . S
C2029 C2027 1.415 . S
C2030 H2020 0.930 . S
C2030 C2028 1.419 . S
C2030 C2031 1.362 . S
C2031 H2021 0.930 . S
C2031 C2024 1.409 . S
C2031 C2030 1.362 . S
H2032 C2038 0.930 . S
H2033 C2041 0.930 . S
H2034 C2042 0.930 . S
H2035 C2043 0.930 . S
H2036 C2046 0.930 . S
H2037 C2047 0.930 . S
C2038 H2032 0.930 . S
C2038 C2039 1.355 . S
C2038 C2040 1.415 . S
C2039 C2038 1.355 . S
C2039 C2041 1.419 . S
C2040 C2038 1.415 . S
C2040 C2045 1.425 1_655 S
C2040 C2047 1.409 . S
C2041 H2033 0.930 . S
C2041 C2039 1.419 . S
C2041 C2042 1.362 1_655 S
C2042 H2034 0.930 . S
C2042 C2041 1.362 1_455 S
C2042 C2045 1.409 . S
C2043 H2035 0.930 . S
C2043 C2044 1.355 . S
C2043 C2045 1.415 . S
C2044 C2043 1.355 . S
C2044 C2046 1.419 . S
C2045 C2040 1.425 1_455 S
C2045 C2042 1.409 . S
C2045 C2043 1.415 . S
C2046 H2036 0.930 . S
C2046 C2044 1.419 . S
C2046 C2047 1.362 1_455 S
C2047 H2037 0.930 . S
C2047 C2040 1.409 . S
C2047 C2046 1.362 1_655 S
H2048 C2054 0.930 . S
H2049 C2057 0.930 . S
H2050 C2058 0.930 . S
H2051 C2059 0.930 . S
H2052 C2062 0.930 . S
H2053 C2063 0.930 . S
C2054 H2048 0.930 . S
C2054 C2055 1.355 . S
C2054 C2056 1.415 . S
C2055 C2054 1.355 . S
C2055 C2057 1.419 . S
C2056 C2054 1.415 . S
C2056 C2061 1.425 . S
C2056 C2063 1.409 . S
C2057 H2049 0.930 . S
C2057 C2055 1.419 . S
C2057 C2058 1.362 . S
C2058 H2050 0.930 . S
C2058 C2057 1.362 . S
C2058 C2061 1.409 . S
C2059 H2051 0.930 . S
C2059 C2060 1.355 . S
C2059 C2061 1.415 . S
C2060 C2059 1.355 . S
C2060 C2062 1.419 . S
C2061 C2056 1.425 . S
C2061 C2058 1.409 . S
C2061 C2059 1.415 . S
C2062 H2052 0.930 . S
C2062 C2060 1.419 . S
C2062 C2063 1.362 . S
C2063 H2053 0.930 . S
C2063 C2056 1.409 . S
C2063 C2062 1.362 . S
H2064 C2070 0.930 . S
H2065 C2073 0.930 . S
H2066 C2074 0.930 . S
H2067 C2075 0.930 . S
H2068 C2078 0.930 . S
H2069 C2079 0.930 . S
C2070 H2064 0.930 . S
C2070 C2071 1.355 1_545 S
C2070 C2072 1.415 . S
C2071 C2070 1.355 1_565 S
C2071 C2073 1.419 . S
C2072 C2070 1.415 . S
C2072 C2077 1.425 1_645 S
C2072 C2079 1.409 1_655 S
C2073 H2065 0.930 . S
C2073 C2071 1.419 . S
C2073 C2074 1.362 . S
C2074 H2066 0.930 . S
C2074 C2073 1.362 . S
C2074 C2077 1.409 1_655 S
C2075 H2067 0.930 . S
C2075 C2076 1.355 1_565 S
C2075 C2077 1.415 . S
C2076 C2075 1.355 1_545 S
C2076 C2078 1.419 . S
C2077 C2072 1.425 1_465 S
C2077 C2074 1.409 1_455 S
C2077 C2075 1.415 . S
C2078 H2068 0.930 . S
C2078 C2076 1.419 . S
C2078 C2079 1.362 . S
C2079 H2069 0.930 . S
C2079 C2072 1.409 1_455 S
C2079 C2078 1.362 . S
H2080 C2086 0.930 . S
H2081 C2089 0.930 . S
H2082 C2090 0.930 . S
H2083 C2091 0.930 . S
H2084 C2094 0.930 . S
H2085 C2095 0.930 . S
C2086 H2080 0.930 . S
C2086 C2087 1.355 . S
C2086 C2088 1.415 . S
C2087 C2086 1.355 . S
C2087 C2089 1.419 . S
C2088 C2086 1.415 . S
C2088 C2093 1.425 . S
C2088 C2095 1.409 . S
C2089 H2081 0.930 . S
C2089 C2087 1.419 . S
C2089 C2090 1.362 . S
C2090 H2082 0.930 . S
C2090 C2089 1.362 . S
C2090 C2093 1.409 . S
C2091 H2083 0.930 . S
C2091 C2092 1.355 . S
C2091 C2093 1.415 . S
C2092 C2091 1.355 . S
C2092 C2094 1.419 . S
C2093 C2088 1.425 . S
C2093 C2090 1.409 . S
C2093 C2091 1.415 . S
C2094 H2084 0.930 . S
C2094 C2092 1.419 . S
C2094 C2095 1.362 . S
C2095 H2085 0.930 . S
C2095 C2088 1.409 . S
C2095 C2094 1.362 . S
H2096 C2102 0.930 . S
H2097 C2105 0.930 . S
H2098 C2106 0.930 . S
H2099 C2107 0.930 . S
H2100 C2110 0.930 . S
H2101 C2111 0.930 . S
C2102 H2096 0.930 . S
C2102 C2103 1.355 1_556 S
C2102 C2104 1.415 . S
C2103 C2102 1.355 1_554 S
C2103 C2105 1.419 1_565 S
C2104 C2102 1.415 . S
C2104 C2109 1.425 1_566 S
C2104 C2111 1.409 . S
C2105 H2097 0.930 . S
C2105 C2103 1.419 1_545 S
C2105 C2106 1.362 . S
C2106 H2098 0.930 . S
C2106 C2105 1.362 . S
C2106 C2109 1.409 . S
C2107 H2099 0.930 . S
C2107 C2108 1.355 1_554 S
C2107 C2109 1.415 . S
C2108 C2107 1.355 1_556 S
C2108 C2110 1.419 1_545 S
C2109 C2104 1.425 1_544 S
C2109 C2106 1.409 . S
C2109 C2107 1.415 . S
C2110 H2100 0.930 . S
C2110 C2108 1.419 1_565 S
C2110 C2111 1.362 . S
C2111 H2101 0.930 . S
C2111 C2104 1.409 . S
C2111 C2110 1.362 . S
H2112 C2118 0.930 . S
H2113 C2121 0.930 . S
H2114 C2122 0.930 . S
H2115 C2123 0.930 . S
H2116 C2126 0.930 . S
H2117 C2127 0.930 . S
C2118 H2112 0.930 . S
C2118 C2119 1.355 . S
C2118 C2120 1.415 . S
C2119 C2118 1.355 . S
C2119 C2121 1.419 . S
C2120 C2118 1.415 . S
C2120 C2125 1.425 . S
C2120 C2127 1.409 . S
C2121 H2113 0.930 . S
C2121 C2119 1.419 . S
C2121 C2122 1.362 . S
C2122 H2114 0.930 . S
C2122 C2121 1.362 . S
C2122 C2125 1.409 . S
C2123 H2115 0.930 . S
C2123 C2124 1.355 . S
C2123 C2125 1.415 . S
C2124 C2123 1.355 . S
C2124 C2126 1.419 . S
C2125 C2120 1.425 . S
C2125 C2122 1.409 . S
C2125 C2123 1.415 . S
C2126 H2116 0.930 . S
C2126 C2124 1.419 . S
C2126 C2127 1.362 . S
C2127 H2117 0.930 . S
C2127 C2120 1.409 . S
C2127 C2126 1.362 . S
H2128 C2134 0.930 . S
H2129 C2137 0.930 . S
H2130 C2138 0.930 . S
H2131 C2139 0.930 . S
H2132 C2142 0.930 . S
H2133 C2143 0.930 . S
C2134 H2128 0.930 . S
C2134 C2135 1.355 1_565 S
C2134 C2136 1.415 . S
C2135 C2134 1.355 1_545 S
C2135 C2137 1.419 . S
C2136 C2134 1.415 . S
C2136 C2141 1.425 1_565 S
C2136 C2143 1.409 . S
C2137 H2129 0.930 . S
C2137 C2135 1.419 . S
C2137 C2138 1.362 . S
C2138 H2130 0.930 . S
C2138 C2137 1.362 . S
C2138 C2141 1.409 . S
C2139 H2131 0.930 . S
C2139 C2140 1.355 1_545 S
C2139 C2141 1.415 . S
C2140 C2139 1.355 1_565 S
C2140 C2142 1.419 . S
C2141 C2136 1.425 1_545 S
C2141 C2138 1.409 . S
C2141 C2139 1.415 . S
C2142 H2132 0.930 . S
C2142 C2140 1.419 . S
C2142 C2143 1.362 . S
C2143 H2133 0.930 . S
C2143 C2136 1.409 . S
C2143 C2142 1.362 . S
H2144 C2150 0.930 . S
H2145 C2153 0.930 . S
H2146 C2154 0.930 . S
H2147 C2155 0.930 . S
H2148 C2158 0.930 . S
H2149 C2159 0.930 . S
C2150 H2144 0.930 . S
C2150 C2151 1.355 . S
C2150 C2152 1.415 . S
C2151 C2150 1.355 . S
C2151 C2153 1.419 . S
C2152 C2150 1.415 . S
C2152 C2157 1.425 . S
C2152 C2159 1.409 . S
C2153 H2145 0.930 . S
C2153 C2151 1.419 . S
C2153 C2154 1.362 . S
C2154 H2146 0.930 . S
C2154 C2153 1.362 . S
C2154 C2157 1.409 . S
C2155 H2147 0.930 . S
C2155 C2156 1.355 . S
C2155 C2157 1.415 . S
C2156 C2155 1.355 . S
C2156 C2158 1.419 . S
C2157 C2152 1.425 . S
C2157 C2154 1.409 . S
C2157 C2155 1.415 . S
C2158 H2148 0.930 . S
C2158 C2156 1.419 . S
C2158 C2159 1.362 . S
C2159 H2149 0.930 . S
C2159 C2152 1.409 . S
C2159 C2158 1.362 . S
H2160 C2166 0.930 . S
H2161 C2169 0.925 . S
H2162 C2170 0.930 . S
H2163 C2171 0.930 . S
H2164 C2174 0.925 . S
H2165 C2175 0.930 . S
C2166 H2160 0.930 . S
C2166 C2167 1.355 1_565 S
C2166 C2168 1.415 . S
C2167 C2166 1.355 1_545 S
C2167 C2169 1.421 1_556 S
C2168 C2166 1.415 . S
C2168 C2173 1.425 1_466 S
C2168 C2175 1.409 1_455 S
C2169 H2161 0.925 . S
C2169 C2167 1.421 1_554 S
C2169 C2170 1.361 . S
C2170 H2162 0.930 . S
C2170 C2169 1.361 . S
C2170 C2173 1.409 1_455 S
C2171 H2163 0.930 . S
C2171 C2172 1.355 1_545 S
C2171 C2173 1.415 . S
C2172 C2171 1.355 1_565 S
C2172 C2174 1.421 1_554 S
C2173 C2168 1.425 1_644 S
C2173 C2170 1.409 1_655 S
C2173 C2171 1.415 . S
C2174 H2164 0.925 . S
C2174 C2172 1.421 1_556 S
C2174 C2175 1.361 . S
C2175 H2165 0.930 . S
C2175 C2168 1.409 1_655 S
C2175 C2174 1.361 . S
H2176 C2182 0.930 . S
H2177 C2185 0.930 . S
H2178 C2186 0.930 . S
H2179 C2187 0.930 . S
H2180 C2190 0.930 . S
H2181 C2191 0.930 . S
C2182 H2176 0.930 . S
C2182 C2183 1.355 . S
C2182 C2184 1.415 . S
C2183 C2182 1.355 . S
C2183 C2185 1.419 . S
C2184 C2182 1.415 . S
C2184 C2189 1.425 . S
C2184 C2191 1.409 . S
C2185 H2177 0.930 . S
C2185 C2183 1.419 . S
C2185 C2186 1.362 . S
C2186 H2178 0.930 . S
C2186 C2185 1.362 . S
C2186 C2189 1.409 . S
C2187 H2179 0.930 . S
C2187 C2188 1.355 . S
C2187 C2189 1.415 . S
C2188 C2187 1.355 . S
C2188 C2190 1.419 . S
C2189 C2184 1.425 . S
C2189 C2186 1.409 . S
C2189 C2187 1.415 . S
C2190 H2180 0.930 . S
C2190 C2188 1.419 . S
C2190 C2191 1.362 . S
C2191 H2181 0.930 . S
C2191 C2184 1.409 . S
C2191 C2190 1.362 . S
H2192 C2198 0.930 . S
H2193 C2201 0.930 . S
H2194 C2202 0.930 . S
H2195 C2203 0.930 . S
H2196 C2206 0.930 . S
H2197 C2207 0.930 . S
C2198 H2192 0.930 . S
C2198 C2199 1.355 . S
C2198 C2200 1.415 . S
C2199 C2198 1.355 . S
C2199 C2201 1.419 . S
C2200 C2198 1.415 . S
C2200 C2205 1.425 . S
C2200 C2207 1.409 . S
C2201 H2193 0.930 . S
C2201 C2199 1.419 . S
C2201 C2202 1.362 . S
C2202 H2194 0.930 . S
C2202 C2201 1.362 . S
C2202 C2205 1.409 . S
C2203 H2195 0.930 . S
C2203 C2204 1.355 . S
C2203 C2205 1.415 . S
C2204 C2203 1.355 . S
C2204 C2206 1.419 . S
C2205 C2200 1.425 . S
C2205 C2202 1.409 . S
C2205 C2203 1.415 . S
C2206 H2196 0.930 . S
C2206 C2204 1.419 . S
C2206 C2207 1.362 . S
C2207 H2197 0.930 . S
C2207 C2200 1.409 . S
C2207 C2206 1.362 . S
H2208 C2214 0.930 . S
H2209 C2217 0.930 . S
H2210 C2218 0.930 . S
H2211 C2219 0.930 . S
H2212 C2222 0.930 . S
H2213 C2223 0.930 . S
C2214 H2208 0.930 . S
C2214 C2215 1.355 . S
C2214 C2216 1.415 . S
C2215 C2214 1.355 . S
C2215 C2217 1.419 . S
C2216 C2214 1.415 . S
C2216 C2221 1.425 . S
C2216 C2223 1.409 . S
C2217 H2209 0.930 . S
C2217 C2215 1.419 . S
C2217 C2218 1.362 . S
C2218 H2210 0.930 . S
C2218 C2217 1.362 . S
C2218 C2221 1.409 . S
C2219 H2211 0.930 . S
C2219 C2220 1.355 . S
C2219 C2221 1.415 . S
C2220 C2219 1.355 . S
C2220 C2222 1.419 . S
C2221 C2216 1.425 . S
C2221 C2218 1.409 . S
C2221 C2219 1.415 . S
C2222 H2212 0.930 . S
C2222 C2220 1.419 . S
C2222 C2223 1.362 . S
C2223 H2213 0.930 . S
C2223 C2216 1.409 . S
C2223 C2222 1.362 . S
H2224 C2230 0.930 . S
H2225 C2233 0.930 . S
H2226 C2234 0.930 . S
H2227 C2235 0.930 . S
H2228 C2238 0.930 . S
H2229 C2239 0.930 . S
C2230 H2224 0.930 . S
C2230 C2231 1.355 . S
C2230 C2232 1.415 . S
C2231 C2230 1.355 . S
C2231 C2233 1.419 . S
C2232 C2230 1.415 . S
C2232 C2237 1.425 . S
C2232 C2239 1.409 . S
C2233 H2225 0.930 . S
C2233 C2231 1.419 . S
C2233 C2234 1.362 . S
C2234 H2226 0.930 . S
C2234 C2233 1.362 . S
C2234 C2237 1.409 . S
C2235 H2227 0.930 . S
C2235 C2236 1.355 . S
C2235 C2237 1.415 . S
C2236 C2235 1.355 . S
C2236 C2238 1.419 . S
C2237 C2232 1.425 . S
C2237 C2234 1.409 . S
C2237 C2235 1.415 . S
C2238 H2228 0.930 . S
C2238 C2236 1.419 . S
C2238 C2239 1.362 . S
C2239 H2229 0.930 . S
C2239 C2232 1.409 . S
C2239 C2238 1.362 . S
H2240 C2246 0.930 . S
H2241 C2249 0.930 . S
H2242 C2250 0.930 . S
H2243 C2251 0.930 . S
H2244 C2254 0.930 . S
H2245 C2255 0.930 . S
C2246 H2240 0.930 . S
C2246 C2247 1.355 . S
C2246 C2248 1.415 . S
C2247 C2246 1.355 . S
C2247 C2249 1.419 1_554 S
C2248 C2246 1.415 . S
C2248 C2253 1.425 1_554 S
C2248 C2255 1.409 . S
C2249 H2241 0.930 . S
C2249 C2247 1.419 1_556 S
C2249 C2250 1.362 . S
C2250 H2242 0.930 . S
C2250 C2249 1.362 . S
C2250 C2253 1.409 . S
C2251 H2243 0.930 . S
C2251 C2252 1.355 . S
C2251 C2253 1.415 . S
C2252 C2251 1.355 . S
C2252 C2254 1.419 1_556 S
C2253 C2248 1.425 1_556 S
C2253 C2250 1.409 . S
C2253 C2251 1.415 . S
C2254 H2244 0.930 . S
C2254 C2252 1.419 1_554 S
C2254 C2255 1.362 . S
C2255 H2245 0.930 . S
C2255 C2248 1.409 . S
C2255 C2254 1.362 . S
H2256 C2262 0.930 . S
H2257 C2265 0.930 . S
H2258 C2266 0.930 . S
H2259 C2267 0.930 . S
H2260 C2270 0.930 . S
H2261 C2271 0.930 . S
C2262 H2256 0.930 . S
C2262 C2263 1.355 . S
C2262 C2264 1.415 . S
C2263 C2262 1.355 . S
C2263 C2265 1.419 . S
C2264 C2262 1.415 . S
C2264 C2269 1.425 1_655 S
C2264 C2271 1.409 1_655 S
C2265 H2257 0.930 . S
C2265 C2263 1.419 . S
C2265 C2266 1.362 . S
C2266 H2258 0.930 . S
C2266 C2265 1.362 . S
C2266 C2269 1.409 1_655 S
C2267 H2259 0.930 . S
C2267 C2268 1.355 . S
C2267 C2269 1.415 . S
C2268 C2267 1.355 . S
C2268 C2270 1.419 . S
C2269 C2264 1.425 1_455 S
C2269 C2266 1.409 1_455 S
C2269 C2267 1.415 . S
C2270 H2260 0.930 . S
C2270 C2268 1.419 . S
C2270 C2271 1.362 . S
C2271 H2261 0.930 . S
C2271 C2264 1.409 1_455 S
C2271 C2270 1.362 . S
H2272 C2278 0.930 . S
H2273 C2281 0.930 . S
H2274 C2282 0.930 . S
H2275 C2283 0.930 . S
H2276 C2286 0.930 . S
H2277 C2287 0.930 . S
C2278 H2272 0.930 . S
C2278 C2279 1.355 1_556 S
C2278 C2280 1.415 . S
C2279 C2278 1.355 1_554 S
C2279 C2281 1.419 . S
C2280 C2278 1.415 . S
C2280 C2285 1.425 1_456 S
C2280 C2287 1.409 1_455 S
C2281 H2273 0.930 . S
C2281 C2279 1.419 . S
C2281 C2282 1.362 . S
C2282 H2274 0.930 . S
C2282 C2281 1.362 . S
C2282 C2285 1.409 1_455 S
C2283 H2275 0.930 . S
C2283 C2284 1.355 1_554 S
C2283 C2285 1.415 . S
C2284 C2283 1.355 1_556 S
C2284 C2286 1.419 . S
C2285 C2280 1.425 1_654 S
C2285 C2282 1.409 1_655 S
C2285 C2283 1.415 . S
C2286 H2276 0.930 . S
C2286 C2284 1.419 . S
C2286 C2287 1.362 . S
C2287 H2277 0.930 . S
C2287 C2280 1.409 1_655 S
C2287 C2286 1.362 . S
H2288 C2294 0.930 . S
H2289 C2297 0.930 . S
H2290 C2298 0.930 . S
H2291 C2299 0.930 . S
H2292 C2302 0.930 . S
H2293 C2303 0.930 . S
C2294 H2288 0.930 . S
C2294 C2295 1.355 . S
C2294 C2296 1.415 . S
C2295 C2294 1.355 . S
C2295 C2297 1.419 . S
C2296 C2294 1.415 . S
C2296 C2301 1.425 . S
C2296 C2303 1.409 . S
C2297 H2289 0.930 . S
C2297 C2295 1.419 . S
C2297 C2298 1.362 . S
C2298 H2290 0.930 . S
C2298 C2297 1.362 . S
C2298 C2301 1.409 . S
C2299 H2291 0.930 . S
C2299 C2300 1.355 . S
C2299 C2301 1.415 . S
C2300 C2299 1.355 . S
C2300 C2302 1.419 . S
C2301 C2296 1.425 . S
C2301 C2298 1.409 . S
C2301 C2299 1.415 . S
C2302 H2292 0.930 . S
C2302 C2300 1.419 . S
C2302 C2303 1.362 . S
C2303 H2293 0.930 . S
C2303 C2296 1.409 . S
C2303 C2302 1.362 . S
H2304 C2310 0.930 . S
H2305 C2313 0.930 . S
H2306 C2314 0.930 . S
H2307 C2315 0.930 . S
H2308 C2318 0.930 . S
H2309 C2319 0.930 . S
C2310 H2304 0.930 . S
C2310 C2311 1.355 1_565 S
C2310 C2312 1.415 . S
C2311 C2310 1.355 1_545 S
C2311 C2313 1.419 . S
C2312 C2310 1.415 . S
C2312 C2317 1.425 . S
C2312 C2319 1.409 . S
C2313 H2305 0.930 . S
C2313 C2311 1.419 . S
C2313 C2314 1.362 . S
C2314 H2306 0.930 . S
C2314 C2313 1.362 . S
C2314 C2317 1.409 1_545 S
C2315 H2307 0.930 . S
C2315 C2316 1.355 . S
C2315 C2317 1.415 . S
C2316 C2315 1.355 . S
C2316 C2318 1.419 . S
C2317 C2312 1.425 . S
C2317 C2314 1.409 1_565 S
C2317 C2315 1.415 . S
C2318 H2308 0.930 . S
C2318 C2316 1.419 . S
C2318 C2319 1.362 . S
C2319 H2309 0.930 . S
C2319 C2312 1.409 . S
C2319 C2318 1.362 . S
H2320 C2326 0.930 . S
H2321 C2329 0.930 . S
H2322 C2330 0.930 . S
H2323 C2331 0.930 . S
H2324 C2334 0.930 . S
H2325 C2335 0.930 . S
C2326 H2320 0.930 . S
C2326 C2327 1.355 1_565 S
C2326 C2328 1.415 . S
C2327 C2326 1.355 1_545 S
C2327 C2329 1.419 . S
C2328 C2326 1.415 . S
C2328 C2333 1.425 . S
C2328 C2335 1.409 . S
C2329 H2321 0.930 . S
C2329 C2327 1.419 . S
C2329 C2330 1.362 . S
C2330 H2322 0.930 . S
C2330 C2329 1.362 . S
C2330 C2333 1.409 1_545 S
C2331 H2323 0.930 . S
C2331 C2332 1.355 . S
C2331 C2333 1.415 . S
C2332 C2331 1.355 . S
C2332 C2334 1.419 . S
C2333 C2328 1.425 . S
C2333 C2330 1.409 1_565 S
C2333 C2331 1.415 . S
C2334 H2324 0.930 . S
C2334 C2332 1.419 . S
C2334 C2335 1.362 . S
C2335 H2325 0.930 . S
C2335 C2328 1.409 . S
C2335 C2334 1.362 . S
H2336 C2342 0.930 . S
H2337 C2345 0.930 1_565 S
H2338 C2346 0.930 . S
H2339 C2347 0.930 . S
H2340 C2350 0.930 . S
H2341 C2351 0.930 . S
C2342 H2336 0.930 . S
C2342 C2343 1.355 . S
C2342 C2344 1.415 . S
C2343 C2342 1.355 . S
C2343 C2345 1.419 . S
C2344 C2342 1.415 . S
C2344 C2349 1.425 . S
C2344 C2351 1.409 . S
C2345 H2337 0.930 1_545 S
C2345 C2343 1.419 . S
C2345 C2346 1.362 1_545 S
C2346 H2338 0.930 . S
C2346 C2345 1.362 1_565 S
C2346 C2349 1.409 1_565 S
C2347 H2339 0.930 . S
C2347 C2348 1.355 . S
C2347 C2349 1.415 1_565 S
C2348 C2347 1.355 . S
C2348 C2350 1.419 1_565 S
C2349 C2344 1.425 . S
C2349 C2346 1.409 1_545 S
C2349 C2347 1.415 1_545 S
C2350 H2340 0.930 . S
C2350 C2348 1.419 1_545 S
C2350 C2351 1.362 . S
C2351 H2341 0.930 . S
C2351 C2344 1.409 . S
C2351 C2350 1.362 . S
H2352 C2358 0.930 . S
H2353 C2361 0.930 . S
H2354 C2362 0.930 . S
H2355 C2363 0.930 . S
H2356 C2366 0.930 . S
H2357 C2367 0.930 . S
C2358 H2352 0.930 . S
C2358 C2359 1.355 . S
C2358 C2360 1.415 1_565 S
C2359 C2358 1.355 . S
C2359 C2361 1.419 1_565 S
C2360 C2358 1.415 1_545 S
C2360 C2365 1.425 . S
C2360 C2367 1.409 . S
C2361 H2353 0.930 . S
C2361 C2359 1.419 1_545 S
C2361 C2362 1.362 . S
C2362 H2354 0.930 . S
C2362 C2361 1.362 . S
C2362 C2365 1.409 . S
C2363 H2355 0.930 . S
C2363 C2364 1.355 . S
C2363 C2365 1.415 . S
C2364 C2363 1.355 . S
C2364 C2366 1.419 . S
C2365 C2360 1.425 . S
C2365 C2362 1.409 . S
C2365 C2363 1.415 . S
C2366 H2356 0.930 . S
C2366 C2364 1.419 . S
C2366 C2367 1.362 . S
C2367 H2357 0.930 . S
C2367 C2360 1.409 . S
C2367 C2366 1.362 . S
H2368 C2374 0.930 . S
H2369 C2377 0.930 . S
H2370 C2378 0.930 . S
H2371 C2379 0.930 . S
H2372 C2382 0.930 . S
H2373 C2383 0.930 1_565 S
C2374 H2368 0.930 . S
C2374 C2375 1.355 . S
C2374 C2376 1.415 1_565 S
C2375 C2374 1.355 . S
C2375 C2377 1.419 1_565 S
C2376 C2374 1.415 1_545 S
C2376 C2381 1.425 . S
C2376 C2383 1.409 . S
C2377 H2369 0.930 . S
C2377 C2375 1.419 1_545 S
C2377 C2378 1.362 . S
C2378 H2370 0.930 . S
C2378 C2377 1.362 . S
C2378 C2381 1.409 . S
C2379 H2371 0.930 . S
C2379 C2380 1.355 . S
C2379 C2381 1.415 . S
C2380 C2379 1.355 . S
C2380 C2382 1.419 . S
C2381 C2376 1.425 . S
C2381 C2378 1.409 . S
C2381 C2379 1.415 . S
C2382 H2372 0.930 . S
C2382 C2380 1.419 . S
C2382 C2383 1.362 . S
C2383 H2373 0.930 1_545 S
C2383 C2376 1.409 . S
C2383 C2382 1.362 . S
H2384 C2390 0.930 . S
H2385 C2393 0.930 . S
H2386 C2394 0.930 . S
H2387 C2395 0.930 . S
H2388 C2398 0.930 . S
H2389 C2399 0.929 1_565 S
C2390 H2384 0.930 . S
C2390 C2391 1.355 . S
C2390 C2392 1.415 . S
C2391 C2390 1.355 . S
C2391 C2393 1.419 . S
C2392 C2390 1.415 . S
C2392 C2397 1.425 . S
C2392 C2399 1.417 . S
C2393 H2385 0.930 . S
C2393 C2391 1.419 . S
C2393 C2394 1.362 . S
C2394 H2386 0.930 . S
C2394 C2393 1.362 . S
C2394 C2397 1.409 . S
C2395 H2387 0.930 . S
C2395 C2396 1.355 1_545 S
C2395 C2397 1.415 . S
C2396 C2395 1.355 1_565 S
C2396 C2398 1.419 . S
C2397 C2392 1.425 . S
C2397 C2394 1.409 . S
C2397 C2395 1.415 . S
C2398 H2388 0.930 . S
C2398 C2396 1.419 . S
C2398 C2399 1.357 1_565 S
C2399 H2389 0.929 1_545 S
C2399 C2392 1.417 . S
C2399 C2398 1.357 1_545 S
H2400 C2406 0.930 . S
H2401 C2409 0.929 1_545 S
H2402 C2410 0.930 . S
H2403 C2411 0.930 . S
H2404 C2414 0.930 . S
H2405 C2415 0.930 . S
C2406 H2400 0.930 . S
C2406 C2407 1.355 . S
C2406 C2408 1.415 . S
C2407 C2406 1.355 . S
C2407 C2409 1.419 . S
C2408 C2406 1.415 . S
C2408 C2413 1.425 . S
C2408 C2415 1.409 . S
C2409 H2401 0.929 1_565 S
C2409 C2407 1.419 . S
C2409 C2410 1.362 1_565 S
C2410 H2402 0.930 . S
C2410 C2409 1.362 1_545 S
C2410 C2413 1.409 1_545 S
C2411 H2403 0.930 . S
C2411 C2412 1.355 . S
C2411 C2413 1.415 1_545 S
C2412 C2411 1.355 . S
C2412 C2414 1.419 1_545 S
C2413 C2408 1.425 . S
C2413 C2410 1.409 1_565 S
C2413 C2411 1.415 1_565 S
C2414 H2404 0.930 . S
C2414 C2412 1.419 1_565 S
C2414 C2415 1.362 . S
C2415 H2405 0.930 . S
C2415 C2408 1.409 . S
C2415 C2414 1.362 . S
H2416 C2422 0.931 1_545 S
H2417 C2425 0.930 . S
H2418 C2426 0.930 . S
H2419 C2427 0.930 . S
H2420 C2430 0.930 . S
H2421 C2431 0.930 . S
C2422 H2416 0.931 1_565 S
C2422 C2423 1.355 . S
C2422 C2424 1.415 . S
C2423 C2422 1.355 . S
C2423 C2425 1.419 . S
C2424 C2422 1.415 . S
C2424 C2429 1.425 . S
C2424 C2431 1.409 1_565 S
C2425 H2417 0.930 . S
C2425 C2423 1.419 . S
C2425 C2426 1.362 . S
C2426 H2418 0.930 . S
C2426 C2425 1.362 . S
C2426 C2429 1.409 . S
C2427 H2419 0.930 . S
C2427 C2428 1.355 1_565 S
C2427 C2429 1.415 . S
C2428 C2427 1.355 1_545 S
C2428 C2430 1.419 . S
C2429 C2424 1.425 . S
C2429 C2426 1.409 . S
C2429 C2427 1.415 . S
C2430 H2420 0.930 . S
C2430 C2428 1.419 . S
C2430 C2431 1.362 . S
C2431 H2421 0.930 . S
C2431 C2424 1.409 1_545 S
C2431 C2430 1.362 . S
H2432 C2438 0.930 . S
H2433 C2441 0.930 . S
H2434 C2442 0.930 . S
H2435 C2443 0.930 . S
H2436 C2446 0.930 . S
H2437 C2447 0.930 . S
C2438 H2432 0.930 . S
C2438 C2439 1.355 . S
C2438 C2440 1.415 . S
C2439 C2438 1.355 . S
C2439 C2441 1.419 . S
C2440 C2438 1.415 . S
C2440 C2445 1.425 . S
C2440 C2447 1.409 . S
C2441 H2433 0.930 . S
C2441 C2439 1.419 . S
C2441 C2442 1.362 . S
C2442 H2434 0.930 . S
C2442 C2441 1.362 . S
C2442 C2445 1.409 . S
C2443 H2435 0.930 . S
C2443 C2444 1.355 . S
C2443 C2445 1.415 . S
C2444 C2443 1.355 . S
C2444 C2446 1.419 . S
C2445 C2440 1.425 . S
C2445 C2442 1.409 . S
C2445 C2443 1.415 . S
C2446 H2436 0.930 . S
C2446 C2444 1.419 . S
C2446 C2447 1.362 . S
C2447 H2437 0.930 . S
C2447 C2440 1.409 . S
C2447 C2446 1.362 . S
H2448 C2454 0.930 . S
H2449 C2457 0.930 . S
H2450 C2458 0.930 . S
H2451 C2459 0.930 . S
H2452 C2462 0.930 . S
H2453 C2463 0.930 . S
C2454 H2448 0.930 . S
C2454 C2455 1.355 . S
C2454 C2456 1.415 . S
C2455 C2454 1.355 . S
C2455 C2457 1.419 . S
C2456 C2454 1.415 . S
C2456 C2461 1.425 . S
C2456 C2463 1.409 . S
C2457 H2449 0.930 . S
C2457 C2455 1.419 . S
C2457 C2458 1.362 . S
C2458 H2450 0.930 . S
C2458 C2457 1.362 . S
C2458 C2461 1.409 . S
C2459 H2451 0.930 . S
C2459 C2460 1.355 . S
C2459 C2461 1.415 . S
C2460 C2459 1.355 . S
C2460 C2462 1.419 . S
C2461 C2456 1.425 . S
C2461 C2458 1.409 . S
C2461 C2459 1.415 . S
C2462 H2452 0.930 . S
C2462 C2460 1.419 . S
C2462 C2463 1.362 . S
C2463 H2453 0.930 . S
C2463 C2456 1.409 . S
C2463 C2462 1.362 . S
H2464 C2470 0.930 . S
H2465 C2473 0.930 . S
H2466 C2474 0.930 . S
H2467 C2475 0.930 . S
H2468 C2478 0.930 . S
H2469 C2479 0.930 . S
C2470 H2464 0.930 . S
C2470 C2471 1.355 . S
C2470 C2472 1.415 . S
C2471 C2470 1.355 . S
C2471 C2473 1.419 . S
C2472 C2470 1.415 . S
C2472 C2477 1.425 . S
C2472 C2479 1.409 . S
C2473 H2465 0.930 . S
C2473 C2471 1.419 . S
C2473 C2474 1.362 . S
C2474 H2466 0.930 . S
C2474 C2473 1.362 . S
C2474 C2477 1.409 . S
C2475 H2467 0.930 . S
C2475 C2476 1.355 . S
C2475 C2477 1.415 . S
C2476 C2475 1.355 . S
C2476 C2478 1.419 . S
C2477 C2472 1.425 . S
C2477 C2474 1.409 . S
C2477 C2475 1.415 . S
C2478 H2468 0.930 . S
C2478 C2476 1.419 . S
C2478 C2479 1.362 . S
C2479 H2469 0.930 . S
C2479 C2472 1.409 . S
C2479 C2478 1.362 . S
H2480 C2486 0.930 . S
H2481 C2489 0.930 . S
H2482 C2490 0.930 . S
H2483 C2491 0.930 . S
H2484 C2494 0.930 . S
H2485 C2495 0.930 . S
C2486 H2480 0.930 . S
C2486 C2487 1.355 . S
C2486 C2488 1.415 . S
C2487 C2486 1.355 . S
C2487 C2489 1.419 . S
C2488 C2486 1.415 . S
C2488 C2493 1.425 . S
C2488 C2495 1.409 . S
C2489 H2481 0.930 . S
C2489 C2487 1.419 . S
C2489 C2490 1.362 . S
C2490 H2482 0.930 . S
C2490 C2489 1.362 . S
C2490 C2493 1.409 . S
C2491 H2483 0.930 . S
C2491 C2492 1.355 . S
C2491 C2493 1.415 . S
C2492 C2491 1.355 . S
C2492 C2494 1.419 . S
C2493 C2488 1.425 . S
C2493 C2490 1.409 . S
C2493 C2491 1.415 . S
C2494 H2484 0.930 . S
C2494 C2492 1.419 . S
C2494 C2495 1.362 . S
C2495 H2485 0.930 . S
C2495 C2488 1.409 . S
C2495 C2494 1.362 . S
H2496 C2502 0.930 . S
H2497 C2505 0.930 . S
H2498 C2506 0.930 . S
H2499 C2507 0.930 . S
H2500 C2510 0.930 . S
H2501 C2511 0.930 . S
C2502 H2496 0.930 . S
C2502 C2503 1.355 . S
C2502 C2504 1.415 . S
C2503 C2502 1.355 . S
C2503 C2505 1.419 . S
C2504 C2502 1.415 . S
C2504 C2509 1.425 . S
C2504 C2511 1.409 . S
C2505 H2497 0.930 . S
C2505 C2503 1.419 . S
C2505 C2506 1.362 . S
C2506 H2498 0.930 . S
C2506 C2505 1.362 . S
C2506 C2509 1.409 . S
C2507 H2499 0.930 . S
C2507 C2508 1.355 . S
C2507 C2509 1.415 . S
C2508 C2507 1.355 . S
C2508 C2510 1.419 . S
C2509 C2504 1.425 . S
C2509 C2506 1.409 . S
C2509 C2507 1.415 . S
C2510 H2500 0.930 . S
C2510 C2508 1.419 . S
C2510 C2511 1.362 . S
C2511 H2501 0.930 . S
C2511 C2504 1.409 . S
C2511 C2510 1.362 . S
H2512 C2518 0.930 . S
H2513 C2521 0.930 . S
H2514 C2522 0.930 . S
H2515 C2523 0.930 . S
H2516 C2526 0.930 . S
H2517 C2527 0.930 . S
C2518 H2512 0.930 . S
C2518 C2519 1.355 . S
C2518 C2520 1.415 . S
C2519 C2518 1.355 . S
C2519 C2521 1.419 . S
C2520 C2518 1.415 . S
C2520 C2525 1.425 . S
C2520 C2527 1.409 . S
C2521 H2513 0.930 . S
C2521 C2519 1.419 . S
C2521 C2522 1.362 . S
C2522 H2514 0.930 . S
C2522 C2521 1.362 . S
C2522 C2525 1.409 . S
C2523 H2515 0.930 . S
C2523 C2524 1.355 . S
C2523 C2525 1.415 . S
C2524 C2523 1.355 . S
C2524 C2526 1.419 . S
C2525 C2520 1.425 . S
C2525 C2522 1.409 . S
C2525 C2523 1.415 . S
C2526 H2516 0.930 . S
C2526 C2524 1.419 . S
C2526 C2527 1.362 . S
C2527 H2517 0.930 . S
C2527 C2520 1.409 . S
C2527 C2526 1.362 . S
H2528 C2534 0.930 . S
H2529 C2537 0.930 . S
H2530 C2538 0.930 . S
H2531 C2539 0.930 . S
H2532 C2542 0.930 . S
H2533 C2543 0.930 . S
C2534 H2528 0.930 . S
C2534 C2535 1.355 . S
C2534 C2536 1.415 . S
C2535 C2534 1.355 . S
C2535 C2537 1.419 . S
C2536 C2534 1.415 . S
C2536 C2541 1.425 . S
C2536 C2543 1.409 . S
C2537 H2529 0.930 . S
C2537 C2535 1.419 . S
C2537 C2538 1.362 . S
C2538 H2530 0.930 . S
C2538 C2537 1.362 . S
C2538 C2541 1.409 . S
C2539 H2531 0.930 . S
C2539 C2540 1.355 . S
C2539 C2541 1.415 . S
C2540 C2539 1.355 . S
C2540 C2542 1.419 . S
C2541 C2536 1.425 . S
C2541 C2538 1.409 . S
C2541 C2539 1.415 . S
C2542 H2532 0.930 . S
C2542 C2540 1.419 . S
C2542 C2543 1.362 . S
C2543 H2533 0.930 . S
C2543 C2536 1.409 . S
C2543 C2542 1.362 . S
H2544 C2550 0.930 . S
H2545 C2553 0.930 . S
H2546 C2554 0.930 . S
H2547 C2555 0.930 . S
H2548 C2558 0.930 . S
H2549 C2559 0.930 . S
C2550 H2544 0.930 . S
C2550 C2551 1.355 . S
C2550 C2552 1.415 . S
C2551 C2550 1.355 . S
C2551 C2553 1.419 . S
C2552 C2550 1.415 . S
C2552 C2557 1.425 . S
C2552 C2559 1.409 . S
C2553 H2545 0.930 . S
C2553 C2551 1.419 . S
C2553 C2554 1.362 . S
C2554 H2546 0.930 . S
C2554 C2553 1.362 . S
C2554 C2557 1.409 . S
C2555 H2547 0.930 . S
C2555 C2556 1.355 . S
C2555 C2557 1.415 . S
C2556 C2555 1.355 . S
C2556 C2558 1.419 . S
C2557 C2552 1.425 . S
C2557 C2554 1.409 . S
C2557 C2555 1.415 . S
C2558 H2548 0.930 . S
C2558 C2556 1.419 . S
C2558 C2559 1.362 . S
C2559 H2549 0.930 . S
C2559 C2552 1.409 . S
C2559 C2558 1.362 . S
H2560 C2566 0.930 . S
H2561 C2569 0.930 . S
H2562 C2570 0.930 . S
H2563 C2571 0.930 . S
H2564 C2574 0.930 . S
H2565 C2575 0.930 . S
C2566 H2560 0.930 . S
C2566 C2567 1.355 . S
C2566 C2568 1.415 . S
C2567 C2566 1.355 . S
C2567 C2569 1.419 1_545 S
C2568 C2566 1.415 . S
C2568 C2573 1.425 1_545 S
C2568 C2575 1.409 . S
C2569 H2561 0.930 . S
C2569 C2567 1.419 1_565 S
C2569 C2570 1.362 . S
C2570 H2562 0.930 . S
C2570 C2569 1.362 . S
C2570 C2573 1.409 . S
C2571 H2563 0.930 . S
C2571 C2572 1.355 . S
C2571 C2573 1.415 . S
C2572 C2571 1.355 . S
C2572 C2574 1.419 1_565 S
C2573 C2568 1.425 1_565 S
C2573 C2570 1.409 . S
C2573 C2571 1.415 . S
C2574 H2564 0.930 . S
C2574 C2572 1.419 1_545 S
C2574 C2575 1.362 . S
C2575 H2565 0.930 . S
C2575 C2568 1.409 . S
C2575 C2574 1.362 . S
H2576 C2582 0.930 . S
H2577 C2585 0.930 . S
H2578 C2586 0.930 . S
H2579 C2587 0.930 . S
H2580 C2590 0.930 . S
H2581 C2591 0.930 . S
C2582 H2576 0.930 . S
C2582 C2583 1.355 . S
C2582 C2584 1.415 . S
C2583 C2582 1.355 . S
C2583 C2585 1.419 . S
C2584 C2582 1.415 . S
C2584 C2589 1.425 . S
C2584 C2591 1.409 . S
C2585 H2577 0.930 . S
C2585 C2583 1.419 . S
C2585 C2586 1.362 . S
C2586 H2578 0.930 . S
C2586 C2585 1.362 . S
C2586 C2589 1.409 . S
C2587 H2579 0.930 . S
C2587 C2588 1.355 . S
C2587 C2589 1.415 . S
C2588 C2587 1.355 . S
C2588 C2590 1.419 . S
C2589 C2584 1.425 . S
C2589 C2586 1.409 . S
C2589 C2587 1.415 . S
C2590 H2580 0.930 . S
C2590 C2588 1.419 . S
C2590 C2591 1.362 . S
C2591 H2581 0.930 . S
C2591 C2584 1.409 . S
C2591 C2590 1.362 . S
H2592 C2598 0.930 1_565 S
H2593 C2601 0.930 . S
H2594 C2602 0.930 . S
H2595 C2603 0.930 1_545 S
H2596 C2606 0.930 . S
H2597 C2607 0.930 . S
C2598 H2592 0.930 1_545 S
C2598 C2599 1.355 . S
C2598 C2600 1.415 1_545 S
C2599 C2598 1.355 . S
C2599 C2601 1.419 . S
C2600 C2598 1.415 1_565 S
C2600 C2605 1.425 1_565 S
C2600 C2607 1.409 . S
C2601 H2593 0.930 . S
C2601 C2599 1.419 . S
C2601 C2602 1.362 . S
C2602 H2594 0.930 . S
C2602 C2601 1.362 . S
C2602 C2605 1.409 . S
C2603 H2595 0.930 1_565 S
C2603 C2604 1.355 . S
C2603 C2605 1.415 1_565 S
C2604 C2603 1.355 . S
C2604 C2606 1.419 . S
C2605 C2600 1.425 1_545 S
C2605 C2602 1.409 . S
C2605 C2603 1.415 1_545 S
C2606 H2596 0.930 . S
C2606 C2604 1.419 . S
C2606 C2607 1.362 . S
C2607 H2597 0.930 . S
C2607 C2600 1.409 . S
C2607 C2606 1.362 . S
H2608 C2614 0.930 . S
H2609 C2617 0.930 . S
H2610 C2618 0.930 . S
H2611 C2619 0.930 . S
H2612 C2622 0.930 . S
H2613 C2623 0.930 . S
C2614 H2608 0.930 . S
C2614 C2615 1.355 . S
C2614 C2616 1.397 1_556 S
C2615 C2614 1.355 . S
C2615 C2617 1.419 . S
C2616 C2614 1.397 1_554 S
C2616 C2621 1.424 1_554 S
C2616 C2623 1.427 . S
C2617 H2609 0.930 . S
C2617 C2615 1.419 . S
C2617 C2618 1.362 . S
C2618 H2610 0.930 . S
C2618 C2617 1.362 . S
C2618 C2621 1.427 . S
C2619 H2611 0.930 . S
C2619 C2620 1.355 . S
C2619 C2621 1.397 1_554 S
C2620 C2619 1.355 . S
C2620 C2622 1.419 . S
C2621 C2616 1.424 1_556 S
C2621 C2618 1.427 . S
C2621 C2619 1.397 1_556 S
C2622 H2612 0.930 . S
C2622 C2620 1.419 . S
C2622 C2623 1.362 . S
C2623 H2613 0.930 . S
C2623 C2616 1.427 . S
C2623 C2622 1.362 . S
H2624 C2630 0.930 1_545 S
H2625 C2633 0.930 . S
H2626 C2634 0.930 . S
H2627 C2635 0.930 1_565 S
H2628 C2638 0.930 . S
H2629 C2639 0.930 . S
C2630 H2624 0.930 1_565 S
C2630 C2631 1.355 . S
C2630 C2632 1.415 1_565 S
C2631 C2630 1.355 . S
C2631 C2633 1.419 . S
C2632 C2630 1.415 1_545 S
C2632 C2637 1.425 1_545 S
C2632 C2639 1.409 . S
C2633 H2625 0.930 . S
C2633 C2631 1.419 . S
C2633 C2634 1.362 . S
C2634 H2626 0.930 . S
C2634 C2633 1.362 . S
C2634 C2637 1.409 . S
C2635 H2627 0.930 1_545 S
C2635 C2636 1.355 . S
C2635 C2637 1.415 1_545 S
C2636 C2635 1.355 . S
C2636 C2638 1.419 . S
C2637 C2632 1.425 1_565 S
C2637 C2634 1.409 . S
C2637 C2635 1.415 1_565 S
C2638 H2628 0.930 . S
C2638 C2636 1.419 . S
C2638 C2639 1.362 . S
C2639 H2629 0.930 . S
C2639 C2632 1.409 . S
C2639 C2638 1.362 . S
H2640 C2646 0.930 . S
H2641 C2649 0.930 . S
H2642 C2650 0.930 . S
H2643 C2651 0.930 . S
H2644 C2654 0.930 . S
H2645 C2655 0.930 . S
C2646 H2640 0.930 . S
C2646 C2647 1.355 . S
C2646 C2648 1.415 . S
C2647 C2646 1.355 . S
C2647 C2649 1.419 . S
C2648 C2646 1.415 . S
C2648 C2653 1.425 . S
C2648 C2655 1.409 . S
C2649 H2641 0.930 . S
C2649 C2647 1.419 . S
C2649 C2650 1.362 . S
C2650 H2642 0.930 . S
C2650 C2649 1.362 . S
C2650 C2653 1.409 . S
C2651 H2643 0.930 . S
C2651 C2652 1.355 . S
C2651 C2653 1.415 . S
C2652 C2651 1.355 . S
C2652 C2654 1.419 . S
C2653 C2648 1.425 . S
C2653 C2650 1.409 . S
C2653 C2651 1.415 . S
C2654 H2644 0.930 . S
C2654 C2652 1.419 . S
C2654 C2655 1.362 . S
C2655 H2645 0.930 . S
C2655 C2648 1.409 . S
C2655 C2654 1.362 . S
H2656 C2662 0.939 . S
H2657 C2665 0.930 . S
H2658 C2666 0.930 . S
H2659 C2667 0.939 . S
H2660 C2670 0.930 . S
H2661 C2671 0.930 . S
C2662 H2656 0.939 . S
C2662 C2663 1.341 1_545 S
C2662 C2664 1.419 . S
C2663 C2662 1.341 1_565 S
C2663 C2665 1.419 . S
C2664 C2662 1.419 . S
C2664 C2669 1.425 1_545 S
C2664 C2671 1.409 . S
C2665 H2657 0.930 . S
C2665 C2663 1.419 . S
C2665 C2666 1.362 . S
C2666 H2658 0.930 . S
C2666 C2665 1.362 . S
C2666 C2669 1.409 . S
C2667 H2659 0.939 . S
C2667 C2668 1.341 1_565 S
C2667 C2669 1.419 . S
C2668 C2667 1.341 1_545 S
C2668 C2670 1.419 . S
C2669 C2664 1.425 1_565 S
C2669 C2666 1.409 . S
C2669 C2667 1.419 . S
C2670 H2660 0.930 . S
C2670 C2668 1.419 . S
C2670 C2671 1.362 . S
C2671 H2661 0.930 . S
C2671 C2664 1.409 . S
C2671 C2670 1.362 . S
H2672 C2678 0.930 . S
H2673 C2681 0.930 . S
H2674 C2682 0.930 . S
H2675 C2683 0.930 . S
H2676 C2686 0.930 . S
H2677 C2687 0.930 . S
C2678 H2672 0.930 . S
C2678 C2679 1.355 . S
C2678 C2680 1.415 . S
C2679 C2678 1.355 . S
C2679 C2681 1.419 . S
C2680 C2678 1.415 . S
C2680 C2685 1.425 1_554 S
C2680 C2687 1.409 1_554 S
C2681 H2673 0.930 . S
C2681 C2679 1.419 . S
C2681 C2682 1.362 . S
C2682 H2674 0.930 . S
C2682 C2681 1.362 . S
C2682 C2685 1.409 1_554 S
C2683 H2675 0.930 . S
C2683 C2684 1.355 . S
C2683 C2685 1.415 . S
C2684 C2683 1.355 . S
C2684 C2686 1.419 . S
C2685 C2680 1.425 1_556 S
C2685 C2682 1.409 1_556 S
C2685 C2683 1.415 . S
C2686 H2676 0.930 . S
C2686 C2684 1.419 . S
C2686 C2687 1.362 . S
C2687 H2677 0.930 . S
C2687 C2680 1.409 1_556 S
C2687 C2686 1.362 . S
H2688 C2694 0.930 . S
H2689 C2697 0.930 . S
H2690 C2698 0.930 . S
H2691 C2699 0.930 . S
H2692 C2702 0.930 . S
H2693 C2703 0.930 . S
C2694 H2688 0.930 . S
C2694 C2695 1.355 . S
C2694 C2696 1.415 . S
C2695 C2694 1.355 . S
C2695 C2697 1.419 . S
C2696 C2694 1.415 . S
C2696 C2701 1.425 . S
C2696 C2703 1.409 . S
C2697 H2689 0.930 . S
C2697 C2695 1.419 . S
C2697 C2698 1.362 . S
C2698 H2690 0.930 . S
C2698 C2697 1.362 . S
C2698 C2701 1.409 . S
C2699 H2691 0.930 . S
C2699 C2700 1.355 . S
C2699 C2701 1.415 . S
C2700 C2699 1.355 . S
C2700 C2702 1.419 . S
C2701 C2696 1.425 . S
C2701 C2698 1.409 . S
C2701 C2699 1.415 . S
C2702 H2692 0.930 . S
C2702 C2700 1.419 . S
C2702 C2703 1.362 . S
C2703 H2693 0.930 . S
C2703 C2696 1.409 . S
C2703 C2702 1.362 . S
H2704 C2710 0.930 . S
H2705 C2713 0.930 . S
H2706 C2714 0.930 . S
H2707 C2715 0.930 . S
H2708 C2718 0.930 . S
H2709 C2719 0.930 . S
C2710 H2704 0.930 . S
C2710 C2711 1.355 . S
C2710 C2712 1.388 1_556 S
C2711 C2710 1.355 . S
C2711 C2713 1.419 . S
C2712 C2710 1.388 1_554 S
C2712 C2717 1.423 1_554 S
C2712 C2719 1.438 . S
C2713 H2705 0.930 . S
C2713 C2711 1.419 . S
C2713 C2714 1.362 . S
C2714 H2706 0.930 . S
C2714 C2713 1.362 . S
C2714 C2717 1.438 . S
C2715 H2707 0.930 . S
C2715 C2716 1.355 . S
C2715 C2717 1.388 1_554 S
C2716 C2715 1.355 . S
C2716 C2718 1.419 . S
C2717 C2712 1.423 1_556 S
C2717 C2714 1.438 . S
C2717 C2715 1.388 1_556 S
C2718 H2708 0.930 . S
C2718 C2716 1.419 . S
C2718 C2719 1.362 . S
C2719 H2709 0.930 . S
C2719 C2712 1.438 . S
C2719 C2718 1.362 . S
H2720 C2726 0.930 . S
H2721 C2729 0.930 . S
H2722 C2730 0.930 . S
H2723 C2731 0.930 . S
H2724 C2734 0.930 . S
H2725 C2735 0.930 . S
C2726 H2720 0.930 . S
C2726 C2727 1.355 . S
C2726 C2728 1.415 . S
C2727 C2726 1.355 . S
C2727 C2729 1.419 . S
C2728 C2726 1.415 . S
C2728 C2733 1.425 . S
C2728 C2735 1.409 . S
C2729 H2721 0.930 . S
C2729 C2727 1.419 . S
C2729 C2730 1.362 . S
C2730 H2722 0.930 . S
C2730 C2729 1.362 . S
C2730 C2733 1.409 . S
C2731 H2723 0.930 . S
C2731 C2732 1.355 . S
C2731 C2733 1.415 . S
C2732 C2731 1.355 . S
C2732 C2734 1.419 . S
C2733 C2728 1.425 . S
C2733 C2730 1.409 . S
C2733 C2731 1.415 . S
C2734 H2724 0.930 . S
C2734 C2732 1.419 . S
C2734 C2735 1.362 . S
C2735 H2725 0.930 . S
C2735 C2728 1.409 . S
C2735 C2734 1.362 . S
H2736 C2742 0.930 . S
H2737 C2745 0.930 . S
H2738 C2746 0.930 . S
H2739 C2747 0.930 . S
H2740 C2750 0.930 . S
H2741 C2751 0.930 . S
C2742 H2736 0.930 . S
C2742 C2743 1.355 . S
C2742 C2744 1.415 . S
C2743 C2742 1.355 . S
C2743 C2745 1.419 . S
C2744 C2742 1.415 . S
C2744 C2749 1.425 . S
C2744 C2751 1.409 . S
C2745 H2737 0.930 . S
C2745 C2743 1.419 . S
C2745 C2746 1.362 . S
C2746 H2738 0.930 . S
C2746 C2745 1.362 . S
C2746 C2749 1.409 . S
C2747 H2739 0.930 . S
C2747 C2748 1.355 . S
C2747 C2749 1.415 . S
C2748 C2747 1.355 . S
C2748 C2750 1.419 . S
C2749 C2744 1.425 . S
C2749 C2746 1.409 . S
C2749 C2747 1.415 . S
C2750 H2740 0.930 . S
C2750 C2748 1.419 . S
C2750 C2751 1.362 . S
C2751 H2741 0.930 . S
C2751 C2744 1.409 . S
C2751 C2750 1.362 . S
H2752 C2758 0.930 . S
H2753 C2761 0.930 . S
H2754 C2762 0.930 . S
H2755 C2763 0.930 . S
H2756 C2766 0.930 . S
H2757 C2767 0.930 . S
C2758 H2752 0.930 . S
C2758 C2759 1.355 . S
C2758 C2760 1.415 . S
C2759 C2758 1.355 . S
C2759 C2761 1.419 . S
C2760 C2758 1.415 . S
C2760 C2765 1.425 . S
C2760 C2767 1.409 . S
C2761 H2753 0.930 . S
C2761 C2759 1.419 . S
C2761 C2762 1.362 . S
C2762 H2754 0.930 . S
C2762 C2761 1.362 . S
C2762 C2765 1.409 . S
C2763 H2755 0.930 . S
C2763 C2764 1.355 . S
C2763 C2765 1.415 . S
C2764 C2763 1.355 . S
C2764 C2766 1.419 . S
C2765 C2760 1.425 . S
C2765 C2762 1.409 . S
C2765 C2763 1.415 . S
C2766 H2756 0.930 . S
C2766 C2764 1.419 . S
C2766 C2767 1.362 . S
C2767 H2757 0.930 . S
C2767 C2760 1.409 . S
C2767 C2766 1.362 . S
H2768 C2774 0.930 . S
H2769 C2777 0.930 . S
H2770 C2778 0.930 1_554 S
H2771 C2779 0.930 . S
H2772 C2782 0.930 . S
H2773 C2783 0.930 1_556 S
C2774 H2768 0.930 . S
C2774 C2775 1.355 . S
C2774 C2776 1.415 . S
C2775 C2774 1.355 . S
C2775 C2777 1.419 . S
C2776 C2774 1.415 . S
C2776 C2781 1.425 1_556 S
C2776 C2783 1.409 1_556 S
C2777 H2769 0.930 . S
C2777 C2775 1.419 . S
C2777 C2778 1.362 . S
C2778 H2770 0.930 1_556 S
C2778 C2777 1.362 . S
C2778 C2781 1.409 1_556 S
C2779 H2771 0.930 . S
C2779 C2780 1.355 . S
C2779 C2781 1.415 . S
C2780 C2779 1.355 . S
C2780 C2782 1.419 . S
C2781 C2776 1.425 1_554 S
C2781 C2778 1.409 1_554 S
C2781 C2779 1.415 . S
C2782 H2772 0.930 . S
C2782 C2780 1.419 . S
C2782 C2783 1.362 . S
C2783 H2773 0.930 1_554 S
C2783 C2776 1.409 1_554 S
C2783 C2782 1.362 . S
H2784 C2790 0.930 . S
H2785 C2793 0.930 . S
H2786 C2794 0.930 . S
H2787 C2795 0.930 . S
H2788 C2798 0.930 . S
H2789 C2799 0.930 . S
C2790 H2784 0.930 . S
C2790 C2791 1.355 . S
C2790 C2792 1.415 . S
C2791 C2790 1.355 . S
C2791 C2793 1.419 . S
C2792 C2790 1.415 . S
C2792 C2797 1.425 . S
C2792 C2799 1.409 . S
C2793 H2785 0.930 . S
C2793 C2791 1.419 . S
C2793 C2794 1.362 . S
C2794 H2786 0.930 . S
C2794 C2793 1.362 . S
C2794 C2797 1.409 . S
C2795 H2787 0.930 . S
C2795 C2796 1.355 . S
C2795 C2797 1.415 . S
C2796 C2795 1.355 . S
C2796 C2798 1.419 . S
C2797 C2792 1.425 . S
C2797 C2794 1.409 . S
C2797 C2795 1.415 . S
C2798 H2788 0.930 . S
C2798 C2796 1.419 . S
C2798 C2799 1.362 . S
C2799 H2789 0.930 . S
C2799 C2792 1.409 . S
C2799 C2798 1.362 . S
H2800 C2806 0.930 . S
H2801 C2809 0.930 . S
H2802 C2810 0.930 . S
H2803 C2811 0.930 . S
H2804 C2814 0.930 . S
H2805 C2815 0.930 . S
C2806 H2800 0.930 . S
C2806 C2807 1.355 . S
C2806 C2808 1.415 . S
C2807 C2806 1.355 . S
C2807 C2809 1.419 . S
C2808 C2806 1.415 . S
C2808 C2813 1.425 . S
C2808 C2815 1.409 . S
C2809 H2801 0.930 . S
C2809 C2807 1.419 . S
C2809 C2810 1.362 . S
C2810 H2802 0.930 . S
C2810 C2809 1.362 . S
C2810 C2813 1.409 . S
C2811 H2803 0.930 . S
C2811 C2812 1.355 . S
C2811 C2813 1.415 . S
C2812 C2811 1.355 . S
C2812 C2814 1.419 . S
C2813 C2808 1.425 . S
C2813 C2810 1.409 . S
C2813 C2811 1.415 . S
C2814 H2804 0.930 . S
C2814 C2812 1.419 . S
C2814 C2815 1.362 . S
C2815 H2805 0.930 . S
C2815 C2808 1.409 . S
C2815 C2814 1.362 . S
C1287 C10 0.678 . S
C1292 C1095 0.595 . S
C1303 C50 0.753 . S
C1308 C335 0.671 . S
C1319 C90 0.795 . S
C1324 C1015 0.714 . S
C1335 C415 0.537 . S
C1340 C130 0.621 . S
C1351 C170 0.542 . S
C1356 C1175 0.454 . S
C1367 C575 0.619 . S
C1372 C210 0.701 . S
C1383 C1255 0.562 . S
C1388 C250 0.645 . S
C1399 C290 0.798 . S
C1404 C495 0.717 . S
C1415 C339 0.608 . S
C1420 C766 0.523 . S
C1431 C379 0.641 . S
C1436 C6 0.557 . S
C1447 C686 0.573 . S
C1452 C419 0.656 . S
C1463 C86 0.514 . S
C1468 C459 0.599 . S
C1479 C499 0.793 . S
C1484 C846 0.711 . S
C1495 C539 0.709 . S
C1500 C246 0.627 . S
C1511 C579 0.794 . S
C1516 C926 0.713 . S
C1527 C166 0.546 . S
C1532 C619 0.630 . S
C1543 C455 0.520 . S
C1548 C650 0.605 . S
C1559 C975 0.538 . S
C1564 C690 0.623 . S
C1575 C375 0.713 . S
C1580 C730 0.795 . S
C1591 C770 0.773 . S
C1596 C1055 0.691 . S
C1607 C535 0.559 . S
C1612 C810 0.643 . S
C1623 C1215 0.656 . S
C1628 C850 0.737 . S
C1639 C615 0.716 . S
C1644 C890 0.798 . S
C1655 C930 0.776 . S
C1660 C1135 0.695 . S
C1671 C979 0.642 . S
C1676 C126 0.558 . S
C1687 C1019 0.789 . S
C1692 C646 0.707 . S
C1703 C1059 0.652 . S
C1708 C46 0.569 . S
C1719 C1099 0.668 . S
C1724 C726 0.585 . S
C1735 C206 0.513 . S
C1740 C1139 0.598 . S
C1751 C886 0.575 . S
C1756 C1179 0.658 . S
C1767 C1219 0.623 . S
C1772 C286 0.539 . S
C1783 C1259 0.795 . S
C1788 C806 0.714 . S
C1799 C18 1.833 . S
C1804 C738 1.831 . S
C1815 C778 1.780 . S
C1820 C58 1.778 . S
C1831 C98 1.819 . S
C1836 C658 1.821 . S
C1847 C138 1.839 . S
C1852 C698 1.840 . S
C1863 C898 1.789 . S
C1868 C178 1.787 . S
C1879 C218 1.824 . S
C1884 C938 1.826 . S
C1895 C818 1.810 . S
C1900 C258 1.813 . S
C1911 C298 1.774 . S
C1916 C858 1.773 . S
C1927 C1049 1.841 . S
C1932 C329 1.840 . S
C1943 C369 1.772 . S
C1948 C1089 1.772 . S
C1959 C409 1.769 . S
C1964 C969 1.769 . S
C1975 C449 1.838 . S
C1980 C1009 1.839 . S
C1991 C1209 1.777 . S
C1996 C489 1.778 . S
C2007 C1249 1.819 . S
C2012 C529 1.817 . S
C2023 C569 1.841 . S
C2028 C1129 1.841 . S
C2039 C609 1.775 . S
C2044 C1169 1.777 . S
C2055 C15 2.040 . S
C2060 C966 2.040 . S
C2071 C366 2.040 1_565 S
C2076 C55 2.040 1_545 S
C2087 C95 2.040 . S
C2092 C1046 2.040 . S
C2103 C135 1.959 1_565 S
C2108 C446 1.959 1_545 S
C2119 C1126 1.945 . S
C2124 C175 1.945 . S
C2135 C526 1.953 . S
C2140 C215 1.953 . S
C2151 C255 1.941 . S
C2156 C1206 1.941 . S
C2167 C295 1.960 . S
C2172 C606 1.960 . S
C2183 C655 1.960 . S
C2188 C326 1.960 . S
C2199 C735 1.951 . S
C2204 C406 1.951 . S
C2215 C815 2.027 . S
C2220 C486 2.027 . S
C2231 C566 2.040 . S
C2236 C895 2.040 . S
C2247 C695 2.018 . S
C2252 C1006 2.018 . S
C2263 C775 2.020 . S
C2268 C1086 2.020 . S
C2279 C1166 1.976 . S
C2284 C855 1.976 . S
C2295 C1246 2.039 . S
C2300 C935 2.039 . S
C2311 C9 4.416 . S
C2316 C209 4.423 . S
C2327 C249 4.444 . S
C2332 C49 4.426 . S
C2343 C289 4.449 . S
C2348 C89 4.431 . S
C2359 C169 4.453 . S
C2364 C129 4.442 . S
C2375 C338 4.450 . S
C2380 C538 4.452 . S
C2391 C378 4.430 . S
C2396 C578 4.448 . S
C2407 C618 4.453 . S
C2412 C418 4.439 . S
C2423 C458 4.416 . S
C2428 C498 4.427 . S
C2439 C649 4.454 . S
C2444 C849 4.445 . S
C2455 C689 4.421 . S
C2460 C889 4.416 . S
C2471 C729 4.436 . S
C2476 C929 4.419 . S
C2487 C809 4.449 . S
C2492 C769 4.431 . S
C2503 C978 4.438 . S
C2508 C1178 4.420 . S
C2519 C1018 4.444 . S
C2524 C1218 4.425 . S
C2535 C1258 4.446 . S
C2540 C1058 4.454 . S
C2551 C1098 4.424 . S
C2556 C1138 4.416 . S
C2567 C19 3.890 . S
C2572 C179 3.899 . S
C2583 C59 3.889 . S
C2588 C219 3.899 . S
C2599 C259 3.895 . S
C2604 C99 3.886 . S
C2615 C299 3.891 . S
C2620 C139 3.899 . S
C2631 C330 3.892 . S
C2636 C490 3.886 . S
C2647 C530 3.896 . S
C2652 C370 3.897 . S
C2663 C570 3.889 . S
C2668 C410 3.888 . S
C2679 C610 3.890 . S
C2684 C450 3.899 . S
C2695 C659 3.897 . S
C2700 C819 3.895 . S
C2711 C859 3.897 . S
C2716 C699 3.896 . S
C2727 C739 3.898 . S
C2732 C899 3.887 . S
C2743 C939 3.888 . S
C2748 C779 3.889 . S
C2759 C1130 3.895 . S
C2764 C970 3.886 . S
C2775 C1010 3.892 . S
C2780 C1170 3.886 . S
C2791 C1050 3.886 . S
C2796 C1210 3.893 . S
C2807 C1090 3.898 . S
C2812 C1250 3.894 . S
