# Generated by pormake.
# Topology wjk, (5)-cn, num edge types: 1
# Building blocks:
#     Node 0, Type 0, BuildingBlock: XOMCOT_clean_sbu_1, # of connection points: 5
#     Node 1, Type 0, BuildingBlock: XOMCOT_clean_sbu_1, # of connection points: 5
#     Node 2, Type 0, BuildingBlock: XOMCOT_clean_sbu_1, # of connection points: 5
#     Node 3, Type 0, BuildingBlock: XOMCOT_clean_sbu_1, # of connection points: 5
#     Node 4, Type 0, BuildingBlock: XOMCOT_clean_sbu_1, # of connection points: 5
#     Node 5, Type 0, BuildingBlock: XOMCOT_clean_sbu_1, # of connection points: 5
#     Node 6, Type 0, BuildingBlock: XOMCOT_clean_sbu_1, # of connection points: 5
#     Node 7, Type 0, BuildingBlock: XOMCOT_clean_sbu_1, # of connection points: 5
#     Node 8, Type 0, BuildingBlock: XOMCOT_clean_sbu_1, # of connection points: 5
#     Node 9, Type 0, BuildingBlock: XOMCOT_clean_sbu_1, # of connection points: 5
#     Node 10, Type 0, BuildingBlock: XOMCOT_clean_sbu_1, # of connection points: 5
#     Node 11, Type 0, BuildingBlock: XOMCOT_clean_sbu_1, # of connection points: 5
#     Edge 12, Type (0, 0), BuildingBlock: EYOCIG_clean_linker_4, # of connection points: 2
#     Edge 13, Type (0, 0), BuildingBlock: EYOCIG_clean_linker_4, # of connection points: 2
#     Edge 14, Type (0, 0), BuildingBlock: EYOCIG_clean_linker_4, # of connection points: 2
#     Edge 15, Type (0, 0), BuildingBlock: EYOCIG_clean_linker_4, # of connection points: 2
#     Edge 16, Type (0, 0), BuildingBlock: EYOCIG_clean_linker_4, # of connection points: 2
#     Edge 17, Type (0, 0), BuildingBlock: EYOCIG_clean_linker_4, # of connection points: 2
#     Edge 18, Type (0, 0), BuildingBlock: EYOCIG_clean_linker_4, # of connection points: 2
#     Edge 19, Type (0, 0), BuildingBlock: EYOCIG_clean_linker_4, # of connection points: 2
#     Edge 20, Type (0, 0), BuildingBlock: EYOCIG_clean_linker_4, # of connection points: 2
#     Edge 21, Type (0, 0), BuildingBlock: EYOCIG_clean_linker_4, # of connection points: 2
#     Edge 22, Type (0, 0), BuildingBlock: EYOCIG_clean_linker_4, # of connection points: 2
#     Edge 23, Type (0, 0), BuildingBlock: EYOCIG_clean_linker_4, # of connection points: 2
#     Edge 24, Type (0, 0), BuildingBlock: EYOCIG_clean_linker_4, # of connection points: 2
#     Edge 25, Type (0, 0), BuildingBlock: EYOCIG_clean_linker_4, # of connection points: 2
#     Edge 26, Type (0, 0), BuildingBlock: EYOCIG_clean_linker_4, # of connection points: 2
#     Edge 27, Type (0, 0), BuildingBlock: EYOCIG_clean_linker_4, # of connection points: 2
#     Edge 28, Type (0, 0), BuildingBlock: EYOCIG_clean_linker_4, # of connection points: 2
#     Edge 29, Type (0, 0), BuildingBlock: EYOCIG_clean_linker_4, # of connection points: 2
#     Edge 30, Type (0, 0), BuildingBlock: EYOCIG_clean_linker_4, # of connection points: 2
#     Edge 31, Type (0, 0), BuildingBlock: EYOCIG_clean_linker_4, # of connection points: 2
#     Edge 32, Type (0, 0), BuildingBlock: EYOCIG_clean_linker_4, # of connection points: 2
#     Edge 33, Type (0, 0), BuildingBlock: EYOCIG_clean_linker_4, # of connection points: 2
#     Edge 34, Type (0, 0), BuildingBlock: EYOCIG_clean_linker_4, # of connection points: 2
#     Edge 35, Type (0, 0), BuildingBlock: EYOCIG_clean_linker_4, # of connection points: 2
#     Edge 36, Type (0, 0), BuildingBlock: EYOCIG_clean_linker_4, # of connection points: 2
#     Edge 37, Type (0, 0), BuildingBlock: EYOCIG_clean_linker_4, # of connection points: 2
#     Edge 38, Type (0, 0), BuildingBlock: EYOCIG_clean_linker_4, # of connection points: 2
#     Edge 39, Type (0, 0), BuildingBlock: EYOCIG_clean_linker_4, # of connection points: 2
#     Edge 40, Type (0, 0), BuildingBlock: EYOCIG_clean_linker_4, # of connection points: 2
#     Edge 41, Type (0, 0), BuildingBlock: EYOCIG_clean_linker_4, # of connection points: 2
# Relax obj value: 0.531
# Max RMSD: 0.262
# Mean RMSD: 0.262
data_MOF--net-wjk--node1-XOMCOT_clean_sbu_1--edge1-EYOCIG_clean_linker_4
_symmetry_space_group_name_H-M    P1
_symmetry_Int_Tables_number       1
_symmetry_cell_setting            triclinic
loop_
_symmetry_equiv_pos_as_xyz
'x, y, z'
_cell_length_a     28.006338
_cell_length_b     28.035833
_cell_length_c     58.010528
_cell_angle_alpha  89.980433
_cell_angle_beta   90.018117
_cell_angle_gamma 120.0468
loop_
_atom_site_label
_atom_site_type_symbol
_atom_site_fract_x
_atom_site_fract_y
_atom_site_fract_z
_atom_type_partial_charge
C0 C 0.10012 0.21323 0.26619 0.0
C1 C 0.05564 0.1613 0.2697 0.0
N2 N 0.06657 0.12529 0.25914 0.0
N3 N 0.13836 0.20916 0.25352 0.0
C4 C 0.11671 0.15475 0.24962 0.0
H5 H 0.10403 0.2516 0.27209 0.0
Co6 Co 0.20385 0.26784 0.24305 0.0
C7 C 0.22338 0.21554 0.20079 0.0
O8 O 0.22446 0.25238 0.1866 0.0
N9 N 0.27066 0.32808 0.23246 0.0
C10 C 0.33426 0.39786 0.21152 0.0
C11 C 0.28109 0.35488 0.21195 0.0
C12 C 0.31858 0.35629 0.24419 0.0
N13 N 0.35706 0.39832 0.2318 0.0
O14 O 0.24096 0.25477 0.26791 0.0
H15 H 0.25173 0.34555 0.19821 0.0
H16 H 0.32562 0.34702 0.2615 0.0
O17 O 0.21552 0.21781 0.22243 0.0
C18 C 0.23636 0.27881 0.28578 0.0
O19 O 0.21456 0.31053 0.28367 0.0
N20 N 0.16405 0.28272 0.22158 0.0
C21 C 0.09229 0.30792 0.19928 0.0
C22 C 0.0897 0.25747 0.1952 0.0
C23 C 0.12582 0.24523 0.2068 0.0
C24 C 0.16615 0.33162 0.22591 0.0
C25 C 0.1313 0.34571 0.21448 0.0
H26 H 0.12098 0.20471 0.20494 0.0
H27 H 0.19404 0.35913 0.2389 0.0
H28 H 0.13654 0.13683 0.23973 0.0
H29 H 0.01811 0.15081 0.27899 0.0
H30 H 0.35441 0.42691 0.1976 0.0
H31 H 0.0584 0.22683 0.18399 0.0
H32 H 0.13297 0.38433 0.21835 0.0
C33 C 0.87746 0.1052 0.59988 0.0
C34 C 0.88511 0.06094 0.60358 0.0
N35 N 0.93235 0.07199 0.59319 0.0
N36 N 0.91991 0.14345 0.58726 0.0
C37 C 0.95298 0.12201 0.58358 0.0
H38 H 0.84275 0.10893 0.60562 0.0
Co39 Co 0.92656 0.20879 0.57661 0.0
C40 C -0.00216 0.22748 0.53424 0.0
O41 O 0.9618 0.22823 0.52009 0.0
N42 N 0.93302 0.27547 0.56585 0.0
C43 C 0.92663 0.33867 0.54473 0.0
C44 C 0.91645 0.28555 0.54532 0.0
C45 C 0.95284 0.32356 0.57744 0.0
N46 N 0.94917 0.36181 0.56494 0.0
O47 O 0.97706 0.24626 0.60132 0.0
H48 H 0.89626 0.256 0.53167 0.0
H49 H 0.96927 0.33084 0.59473 0.0
O50 O -0.01196 0.22009 0.55592 0.0
C51 C 0.94842 0.2418 0.61919 0.0
O52 O 0.89482 0.21987 0.6171 0.0
N53 N 0.87155 0.16865 0.55528 0.0
C54 C 0.7741 0.09608 0.53343 0.0
C55 C 0.82202 0.09353 0.52933 0.0
C56 C 0.87061 0.13006 0.5407 0.0
C57 C 0.82472 0.1708 0.5596 0.0
C58 C 0.77552 0.13551 0.5484 0.0
H59 H 0.90634 0.12523 0.53886 0.0
H60 H 0.82526 0.19903 0.57245 0.0
H61 H -0.0091 0.14192 0.57377 0.0
H62 H 0.85797 0.02345 0.61285 0.0
H63 H 0.91752 0.35852 0.53076 0.0
H64 H 0.82124 0.06196 0.51829 0.0
H65 H 0.73855 0.13722 0.55227 0.0
C66 C 0.76198 0.88141 0.93305 0.0
C67 C 0.81382 0.88864 0.93661 0.0
N68 N 0.8501 0.93546 0.92599 0.0
N69 N 0.76633 0.9237 0.92031 0.0
C70 C 0.82086 0.95625 0.9164 0.0
H71 H 0.72346 0.84708 0.939 0.0
Co72 Co 0.70776 0.93067 0.9098 0.0
C73 C 0.76037 0.00274 0.86761 0.0
O74 O 0.72332 0.96713 0.85342 0.0
N75 N 0.64757 0.93735 0.8992 0.0
C76 C 0.57771 0.93107 0.87826 0.0
C77 C 0.62073 0.92098 0.87869 0.0
C78 C 0.61933 0.95696 0.91093 0.0
N79 N 0.57724 0.95333 0.89855 0.0
O80 O 0.7209 0.98074 0.93469 0.0
H81 H 0.63003 0.90098 0.86495 0.0
H82 H 0.6286 0.97321 0.92825 0.0
O83 O 0.7581 -0.00752 0.88924 0.0
C84 C 0.69668 0.95204 0.95254 0.0
O85 O 0.66467 0.89855 0.9504 0.0
N86 N 0.69282 0.87612 0.88828 0.0
C87 C 0.66772 0.77929 0.86596 0.0
C88 C 0.71821 0.82725 0.86191 0.0
C89 C 0.7304 0.87553 0.87352 0.0
C90 C 0.64384 0.82923 0.89256 0.0
C91 C 0.6298 0.78035 0.88113 0.0
H92 H 0.77098 0.91127 0.87169 0.0
H93 H 0.61625 0.8295 0.90554 0.0
H94 H 0.839 -0.00607 0.90643 0.0
H95 H 0.82408 0.86156 0.94597 0.0
H96 H 0.54862 0.92212 0.86435 0.0
H97 H 0.74894 0.82672 0.85073 0.0
H98 H 0.59114 0.74332 0.88497 0.0
C99 C 0.87126 0.76755 0.26606 0.0
C100 C 0.91558 0.81959 0.26953 0.0
N101 N 0.90411 0.85547 0.25918 0.0
N102 N 0.8326 0.7714 0.25361 0.0
C103 C 0.85381 0.8258 0.24982 0.0
H104 H 0.86777 0.72924 0.27182 0.0
Co105 Co 0.76715 0.7126 0.24318 0.0
C106 C 0.7476 0.76477 0.20086 0.0
O107 O 0.7466 0.72796 0.18669 0.0
N108 N 0.70038 0.65229 0.23262 0.0
C109 C 0.6367 0.5826 0.21167 0.0
C110 C 0.68993 0.62548 0.21212 0.0
C111 C 0.65243 0.62417 0.24433 0.0
N112 N 0.6139 0.58221 0.23193 0.0
O113 O 0.72999 0.72569 0.26801 0.0
H114 H 0.71928 0.63479 0.19838 0.0
H115 H 0.64539 0.6335 0.26162 0.0
O116 O 0.7554 0.76248 0.22251 0.0
C117 C 0.73478 0.70187 0.28593 0.0
O118 O 0.75692 0.67044 0.28389 0.0
N119 N 0.80699 0.69772 0.22173 0.0
C120 C 0.8789 0.67268 0.19949 0.0
C121 C 0.88143 0.7231 0.1954 0.0
C122 C 0.84524 0.73526 0.20698 0.0
C123 C 0.80493 0.64883 0.22606 0.0
C124 C 0.83986 0.63482 0.21466 0.0
H125 H 0.85005 0.77577 0.20512 0.0
H126 H 0.77702 0.62128 0.23905 0.0
H127 H 0.83357 0.84358 0.2401 0.0
H128 H 0.95339 0.83026 0.27863 0.0
H129 H 0.61651 0.55359 0.19774 0.0
H130 H 0.91274 0.75379 0.18421 0.0
H131 H 0.83822 0.59621 0.21853 0.0
C132 C 0.09447 0.87596 0.59958 0.0
C133 C 0.08685 0.92023 0.60329 0.0
N134 N 0.03947 0.9091 0.59299 0.0
N135 N 0.05187 0.83763 0.58706 0.0
C136 C 0.01874 0.85903 0.58344 0.0
H137 H 0.12923 0.87225 0.60528 0.0
Co138 Co 0.04495 0.77211 0.57652 0.0
C139 C 0.973 0.75281 0.53433 0.0
O140 O 0.00881 0.75181 0.52014 0.0
N141 N 0.03816 0.70521 0.56588 0.0
C142 C 0.04387 0.6416 0.54479 0.0
C143 C 0.05444 0.69484 0.54534 0.0
C144 C 0.01811 0.65714 0.57751 0.0
N145 N 0.02137 0.61864 0.56503 0.0
O146 O -0.00513 0.73503 0.6014 0.0
H147 H 0.0746 0.72424 0.53163 0.0
H148 H 0.00176 0.65003 0.59481 0.0
O149 O 0.98313 0.76057 0.55598 0.0
C150 C 0.02374 0.73959 0.61921 0.0
O151 O 0.0773 0.7614 0.61701 0.0
N152 N 0.0996 0.81188 0.555 0.0
C153 C 0.1965 0.88352 0.53257 0.0
C154 C 0.14862 0.88628 0.52866 0.0
C155 C 0.10031 0.85023 0.54033 0.0
C156 C 0.14643 0.80963 0.55918 0.0
C157 C 0.19533 0.8444 0.54767 0.0
H158 H 0.06464 0.8552 0.53859 0.0
H159 H 0.14611 0.78165 0.5721 0.0
H160 H 0.98067 0.83904 0.57372 0.0
H161 H 0.11406 0.95776 0.61252 0.0
H162 H 0.05264 0.62152 0.53082 0.0
H163 H 0.14925 0.91766 0.51753 0.0
H164 H 0.23229 0.84258 0.55141 0.0
C165 C 0.20832 0.09892 0.93244 0.0
C166 C 0.15615 0.09085 0.93597 0.0
N167 N 0.12028 0.04316 0.92581 0.0
N168 N 0.20456 0.0563 0.92015 0.0
C169 C 0.15008 0.02269 0.91651 0.0
H170 H 0.24665 0.13402 0.93807 0.0
Co171 Co 0.26349 0.04979 0.90978 0.0
C172 C 0.21155 0.97835 0.86742 0.0
O173 O 0.24854 0.01428 0.8533 0.0
N174 N 0.3239 0.04338 0.8993 0.0
C175 C 0.39361 0.04926 0.87841 0.0
C176 C 0.35093 0.05987 0.87884 0.0
C177 C 0.35167 0.02319 0.911 0.0
N178 N 0.39365 0.02653 0.89865 0.0
O179 O 0.25019 -0.0005 0.9346 0.0
H180 H 0.34188 0.08009 0.86511 0.0
H181 H 0.34206 0.00658 0.92826 0.0
O182 O 0.21366 0.98826 0.88907 0.0
C183 C 0.27399 0.02819 0.95251 0.0
O184 O 0.30543 0.08177 0.95044 0.0
N185 N 0.27858 0.10458 0.88833 0.0
C186 C 0.30382 0.2015 0.86601 0.0
C187 C 0.25325 0.15361 0.86198 0.0
C188 C 0.241 0.10529 0.87359 0.0
C189 C 0.32759 0.15143 0.89262 0.0
C190 C 0.34171 0.20035 0.88118 0.0
H191 H 0.20039 0.06958 0.87177 0.0
H192 H 0.35518 0.1511 0.9056 0.0
H193 H 0.13235 0.98444 0.90696 0.0
H194 H 0.14539 0.11797 0.94498 0.0
H195 H 0.4227 0.05807 0.86452 0.0
H196 H 0.22254 0.15421 0.8508 0.0
H197 H 0.38043 0.23732 0.88501 0.0
C198 C 0.76298 0.87594 0.41634 0.0
C199 C 0.81523 0.91991 0.41279 0.0
N200 N 0.85098 0.90784 0.42289 0.0
N201 N 0.76658 0.8369 0.42858 0.0
C202 C 0.82104 0.85753 0.43216 0.0
H203 H 0.72471 0.87294 0.41077 0.0
Co204 Co 0.70749 0.77165 0.439 0.0
C205 C 0.75965 0.75251 0.48145 0.0
O206 O 0.72316 0.75227 0.49562 0.0
N207 N 0.64691 0.70505 0.44953 0.0
C208 C 0.57715 0.64153 0.47052 0.0
C209 C 0.62037 0.69455 0.47011 0.0
C210 C 0.61827 0.65734 0.43773 0.0
N211 N 0.57626 0.61891 0.45015 0.0
O212 O 0.72054 0.73435 0.41422 0.0
H213 H 0.63 0.72378 0.4839 0.0
H214 H 0.62728 0.65043 0.42036 0.0
O215 O 0.7572 0.75977 0.45976 0.0
C216 C 0.69705 0.73948 0.39626 0.0
O217 O 0.66595 0.76201 0.39823 0.0
N218 N 0.69264 0.81161 0.4604 0.0
C219 C 0.66759 0.88335 0.48275 0.0
C220 C 0.71827 0.88618 0.48664 0.0
C221 C 0.73042 0.85008 0.47502 0.0
C222 C 0.64353 0.80932 0.45623 0.0
C223 C 0.62951 0.84415 0.46769 0.0
H224 H 0.77107 0.85506 0.47675 0.0
H225 H 0.61576 0.78128 0.44333 0.0
H226 H 0.83864 0.83685 0.44168 0.0
H227 H 0.82612 0.95791 0.40384 0.0
H228 H 0.54826 0.62136 0.48449 0.0
H229 H 0.74913 0.91762 0.49774 0.0
H230 H 0.59069 0.84228 0.46396 0.0
C231 C 0.8778 0.76794 0.74932 0.0
C232 C 0.88576 0.82 0.74572 0.0
N233 N 0.93345 0.85597 0.75588 0.0
N234 N 0.92048 0.77184 0.76166 0.0
C235 C 0.95403 0.82631 0.76526 0.0
H236 H 0.84269 0.72959 0.74373 0.0
Co237 Co 0.92687 0.71295 0.7722 0.0
C238 C -0.00194 0.76515 0.81464 0.0
O239 O 0.96192 0.72843 0.82877 0.0
N240 N 0.93311 0.65257 0.78286 0.0
C241 C 0.92677 0.58295 0.80394 0.0
C242 C 0.91655 0.62585 0.80338 0.0
C243 C 0.95296 0.62437 0.77125 0.0
N244 N 0.94932 0.58243 0.78372 0.0
O245 O 0.97744 0.72608 0.74752 0.0
H246 H 0.89641 0.63519 0.81704 0.0
H247 H 0.96945 0.63363 0.75397 0.0
O248 O -0.01169 0.76282 0.79296 0.0
C249 C 0.94886 0.70229 0.72959 0.0
O250 O 0.89519 0.67094 0.73157 0.0
N251 N 0.87182 0.69801 0.79352 0.0
C252 C 0.77444 0.67311 0.81541 0.0
C253 C 0.82239 0.72357 0.81953 0.0
C254 C 0.87095 0.73565 0.80813 0.0
C255 C 0.82495 0.64906 0.78917 0.0
C256 C 0.77579 0.63512 0.8004 0.0
H257 H 0.9067 0.77619 0.80999 0.0
H258 H 0.82544 0.62141 0.7763 0.0
H259 H -0.00775 0.84411 0.77487 0.0
H260 H 0.85853 0.8306 0.73669 0.0
H261 H 0.91775 0.55399 0.8179 0.0
H262 H 0.82165 0.75434 0.8306 0.0
H263 H 0.7388 0.59647 0.79651 0.0
C264 C 0.10015 0.88199 0.08276 0.0
C265 C 0.05576 0.88962 0.07936 0.0
N266 N 0.06721 0.9369 0.08976 0.0
N267 N 0.13882 0.92449 0.0952 0.0
C268 C 0.11756 0.95759 0.09907 0.0
H269 H 0.10366 0.84722 0.07697 0.0
Co270 Co 0.20426 0.93109 0.10559 0.0
C271 C 0.22361 0.00254 0.14801 0.0
O272 O 0.22423 0.96653 0.16218 0.0
N273 N 0.27099 0.93742 0.11609 0.0
C274 C 0.33461 0.93113 0.13697 0.0
C275 C 0.28156 0.9213 0.13663 0.0
C276 C 0.31867 0.95656 0.10424 0.0
N277 N 0.35716 0.95295 0.11658 0.0
O278 O 0.24142 0.98149 0.0808 0.0
H279 H 0.25234 0.90159 0.15043 0.0
H280 H 0.32551 0.9725 0.08687 0.0
O281 O 0.21607 -0.00735 0.12634 0.0
C282 C 0.23644 0.95293 0.06285 0.0
O283 O 0.2142 0.89933 0.06485 0.0
N284 N 0.16443 0.87623 0.12701 0.0
C285 C 0.09203 0.77896 0.14896 0.0
C286 C 0.08956 0.82684 0.15311 0.0
C287 C 0.12599 0.87535 0.14169 0.0
C288 C 0.16652 0.82943 0.12265 0.0
C289 C 0.13132 0.78032 0.1339 0.0
H290 H 0.12119 0.91105 0.14358 0.0
H291 H 0.19459 0.82992 0.10972 0.0
H292 H 0.13778 -0.00444 0.10882 0.0
H293 H 0.01791 0.86245 0.07029 0.0
H294 H 0.35483 0.92231 0.15088 0.0
H295 H 0.05808 0.8261 0.16423 0.0
H296 H 0.13294 0.74337 0.12998 0.0
C297 C 0.20916 0.10522 0.4154 0.0
C298 C 0.15739 0.06048 0.41186 0.0
N299 N 0.12106 0.07066 0.42264 0.0
N300 N 0.2047 0.14288 0.42829 0.0
C301 C 0.15019 0.12061 0.43231 0.0
H302 H 0.24771 0.1097 0.40935 0.0
Co303 Co 0.26316 0.20843 0.43883 0.0
C304 C 0.21091 0.22758 0.48116 0.0
O305 O 0.24828 0.22926 0.49522 0.0
N306 N 0.32322 0.27532 0.44948 0.0
C307 C 0.39306 0.33902 0.47039 0.0
C308 C 0.35051 0.28564 0.46988 0.0
C309 C 0.35068 0.32351 0.43792 0.0
N310 N 0.39274 0.36205 0.45027 0.0
O311 O 0.24972 0.24544 0.41405 0.0
H312 H 0.34173 0.25616 0.4835 0.0
H313 H 0.34086 0.33073 0.42073 0.0
O314 O 0.21285 0.21952 0.45951 0.0
C315 C 0.27408 0.24139 0.39617 0.0
O316 O 0.30631 0.22015 0.39823 0.0
N317 N 0.27836 0.16873 0.46022 0.0
C318 C 0.30344 0.09642 0.48205 0.0
C319 C 0.25311 0.09402 0.48635 0.0
C320 C 0.24093 0.13041 0.47498 0.0
C321 C 0.32724 0.1708 0.45573 0.0
C322 C 0.34126 0.13564 0.46692 0.0
H323 H 0.20041 0.12562 0.47697 0.0
H324 H 0.3547 0.19883 0.44276 0.0
H325 H 0.13198 0.13987 0.4424 0.0
H326 H 0.14722 0.0233 0.4024 0.0
H327 H 0.42235 0.35914 0.48424 0.0
H328 H 0.22247 0.06261 0.49752 0.0
H329 H 0.37981 0.13722 0.46289 0.0
C330 C 0.09396 0.21389 0.74861 0.0
C331 C 0.08667 0.16211 0.74498 0.0
N332 N 0.04002 0.12583 0.75572 0.0
N333 N 0.05186 0.20952 0.76152 0.0
C334 C 0.01937 0.15503 0.76546 0.0
H335 H 0.1282 0.25238 0.74261 0.0
Co336 Co 0.04506 0.26808 0.77216 0.0
C337 C 0.97365 0.21564 0.81451 0.0
O338 O 0.00958 0.25269 0.8286 0.0
N339 N 0.0385 0.32824 0.7829 0.0
C340 C 0.045 0.39794 0.80396 0.0
C341 C 0.0554 0.35515 0.80337 0.0
C342 C 0.01825 0.3562 0.77137 0.0
N343 N 0.022 0.39819 0.78382 0.0
O344 O -0.0054 0.25502 0.74742 0.0
H345 H 0.07586 0.34601 0.81697 0.0
H346 H 0.00145 0.34678 0.75414 0.0
O347 O 0.98352 0.21781 0.79284 0.0
C348 C 0.02322 0.27946 0.72958 0.0
O349 O 0.07677 0.31149 0.7317 0.0
N350 N 0.10003 0.28299 0.7935 0.0
C351 C 0.19748 0.30791 0.81536 0.0
C352 C 0.1495 0.25753 0.81956 0.0
C353 C 0.1009 0.24544 0.80818 0.0
C354 C 0.14692 0.33188 0.78909 0.0
C355 C 0.19612 0.34582 0.80029 0.0
H356 H 0.06512 0.20494 0.8101 0.0
H357 H 0.14639 0.35945 0.77617 0.0
H358 H 0.98185 0.13689 0.77555 0.0
H359 H 0.11364 0.1519 0.73549 0.0
H360 H 0.05426 0.42702 0.81788 0.0
H361 H 0.15023 0.22682 0.83068 0.0
H362 H 0.23313 0.3844 0.79634 0.0
C363 C 0.87132 0.09854 0.08275 0.0
C364 C 0.91582 0.09109 0.07937 0.0
N365 N 0.90464 0.04398 0.08987 0.0
N366 N 0.83284 0.0561 0.09529 0.0
C367 C 0.85434 0.02322 0.09923 0.0
H368 H 0.86757 0.13312 0.07686 0.0
Co369 Co 0.76727 0.04924 0.10562 0.0
C370 C 0.74767 0.97797 0.14807 0.0
O371 O 0.74634 0.0138 0.16212 0.0
N372 N 0.70036 0.04261 0.11606 0.0
C373 C 0.63647 0.04869 0.1368 0.0
C374 C 0.68979 0.05929 0.13645 0.0
C375 C 0.6524 0.0223 0.10432 0.0
N376 N 0.61375 0.02578 0.11658 0.0
O377 O 0.73032 -0.00129 0.08085 0.0
H378 H 0.7191 0.0797 0.15017 0.0
H379 H 0.64543 0.00558 0.08709 0.0
O380 O 0.75567 0.98789 0.12642 0.0
C381 C 0.73501 0.02717 0.0629 0.0
O382 O 0.75693 0.08073 0.06488 0.0
N383 N 0.80692 0.10422 0.12699 0.0
C384 C 0.87925 0.2017 0.1488 0.0
C385 C 0.88162 0.15382 0.15315 0.0
C386 C 0.84521 0.1052 0.1418 0.0
C387 C 0.8049 0.15099 0.12245 0.0
C388 C 0.84007 0.20022 0.13363 0.0
H389 H 0.84996 0.0695 0.14383 0.0
H390 H 0.77693 0.15038 0.10943 0.0
H391 H 0.83429 0.98534 0.10905 0.0
H392 H 0.95353 0.11822 0.0702 0.0
H393 H 0.61617 0.05767 0.15062 0.0
H394 H 0.91301 0.15466 0.16436 0.0
H395 H 0.83854 0.23715 0.12956 0.0
C396 C 0.51318 0.51084 0.24237 0.0
C397 C 0.56008 0.54498 0.23858 0.0
C398 C 0.45763 0.46995 0.24233 0.0
C399 C 0.41081 0.4357 0.23849 0.0
C400 C -0.00784 0.51788 0.57525 0.0
C401 C 0.00482 0.56479 0.57159 0.0
C402 C 0.97776 0.4624 0.57519 0.0
C403 C 0.96536 0.4156 0.57148 0.0
C404 C 0.46456 -0.00336 0.90908 0.0
C405 C 0.43061 0.00962 0.9053 0.0
C406 C 0.50542 0.98196 0.90906 0.0
C407 C 0.53977 0.96954 0.90523 0.0
C408 C 0.50429 0.51845 0.43973 0.0
C409 C 0.53871 0.56523 0.44349 0.0
C410 C 0.46348 0.4629 0.43982 0.0
C411 C 0.42963 0.41596 0.44365 0.0
C412 C 0.97835 0.51076 0.77354 0.0
C413 C 0.96577 0.54504 0.7772 0.0
C414 C -0.00714 0.46977 0.77359 0.0
C415 C 0.00549 0.43554 0.7773 0.0
C416 C 0.45748 0.98128 0.10593 0.0
C417 C 0.41076 0.96898 0.10981 0.0
C418 C 0.51302 -0.00407 0.10595 0.0
C419 C 0.55992 0.00889 0.10984 0.0
C420 C 0.26124 0.26228 0.35309 0.0
C421 C 0.26396 0.2546 0.37341 0.0
C422 C 0.25727 0.26626 0.3289 0.0
C423 C 0.24963 0.26892 0.30857 0.0
C424 C 0.98196 0.26297 0.66228 0.0
C425 C 0.97168 0.25524 0.64195 0.0
C426 C -0.0102 0.26693 0.68646 0.0
C427 C 5e-05 0.26953 0.7068 0.0
C428 C 0.71368 -0.00672 0.01986 0.0
C429 C 0.72147 0.0037 0.04018 0.0
C430 C 0.70955 0.98535 0.99568 0.0
C431 C 0.70676 0.9751 0.97534 0.0
C432 C 0.7095 0.71819 0.3532 0.0
C433 C 0.70686 0.7259 0.37352 0.0
C434 C 0.71352 0.71425 0.32901 0.0
C435 C 0.72127 0.71166 0.30868 0.0
C436 C -0.00942 0.71871 0.66236 0.0
C437 C 0.00077 0.72636 0.64202 0.0
C438 C 0.98269 0.71477 0.68654 0.0
C439 C 0.97231 0.71215 0.70686 0.0
C440 C 0.26158 -0.00537 0.9956 0.0
C441 C 0.26418 0.00493 0.97527 0.0
C442 C 0.25764 0.9867 0.01979 0.0
C443 C 0.24994 0.97633 0.04011 0.0
C444 C 0.00241 0.01915 0.25679 0.0
C445 C 0.03215 0.06821 0.25785 0.0
C446 C 0.9678 0.96167 0.2568 0.0
C447 C 0.93826 0.91258 0.25787 0.0
C448 C 0.97448 0.00789 0.59114 0.0
C449 C 0.95512 0.03763 0.59205 0.0
C450 C -0.0028 0.9731 0.59109 0.0
C451 C 0.01662 0.9434 0.59194 0.0
C452 C 0.01386 1e-05 0.92364 0.0
C453 C 0.06305 0.01981 0.9246 0.0
C454 C 0.95631 0.9771 0.92369 0.0
C455 C 0.90721 0.9579 0.92474 0.0
C456 C 0.95741 0.97097 0.42509 0.0
C457 C 0.90822 0.94161 0.42413 0.0
C458 C 0.01493 0.0057 0.42503 0.0
C459 C 0.064 0.03577 0.42394 0.0
C460 C 0.97611 0.96226 0.758 0.0
C461 C 0.95658 0.91313 0.75708 0.0
C462 C -0.00133 0.01973 0.75796 0.0
C463 C 0.01768 0.06877 0.75695 0.0
C464 C 0.96868 0.00192 0.09234 0.0
C465 C 0.93897 0.02126 0.09123 0.0
C466 C 0.00334 0.97914 0.0923 0.0
C467 C 0.03297 0.95973 0.09116 0.0
C468 C 0.96099 0.28788 0.16791 0.0
C469 C 0.92112 0.25286 0.15814 0.0
C470 C 0.01124 0.31285 0.17971 0.0
C471 C 0.05078 0.31736 0.18965 0.0
C472 C 0.68792 0.01442 0.51425 0.0
C473 C 0.72298 0.05425 0.52402 0.0
C474 C 0.66281 0.96426 0.50243 0.0
C475 C 0.65815 0.92474 0.49245 0.0
C476 C 0.68829 0.66852 0.83463 0.0
C477 C 0.72335 0.6638 0.82484 0.0
C478 C 0.66312 0.69355 0.84643 0.0
C479 C 0.6584 0.7284 0.85635 0.0
C480 C 0.01033 0.69292 0.16818 0.0
C481 C 0.05018 0.7279 0.15838 0.0
C482 C 0.96008 0.66793 0.17998 0.0
C483 C 0.92048 0.66332 0.18989 0.0
C484 C 0.28246 0.96445 0.51292 0.0
C485 C 0.24745 0.92494 0.52288 0.0
C486 C 0.30778 0.01468 0.50113 0.0
C487 C 0.31267 0.05454 0.49138 0.0
C488 C 0.30869 0.28731 0.84639 0.0
C489 C 0.3133 0.25241 0.85635 0.0
C490 C 0.28363 0.31241 0.83456 0.0
C491 C 0.24859 0.31718 0.82476 0.0
C492 C 0.22833 0.13302 0.18085 0.0
C493 C 0.22585 0.1694 0.19108 0.0
C494 C 0.22841 0.0899 0.16799 0.0
C495 C 0.22603 0.0511 0.15775 0.0
C496 C 0.0851 0.23204 0.51419 0.0
C497 C 0.04635 0.22976 0.52446 0.0
C498 C 0.12823 0.232 0.5013 0.0
C499 C 0.16468 0.22974 0.49101 0.0
C500 C 0.88642 0.13307 0.83467 0.0
C501 C 0.92515 0.16946 0.82435 0.0
C502 C 0.84325 0.08999 0.84761 0.0
C503 C 0.80675 0.05125 0.85788 0.0
C504 C 0.74289 0.84747 0.18096 0.0
C505 C 0.74525 0.81097 0.19114 0.0
C506 C 0.74293 0.89072 0.16816 0.0
C507 C 0.74532 0.92953 0.15792 0.0
C508 C 0.84219 0.74766 0.5015 0.0
C509 C 0.80578 0.75005 0.49123 0.0
C510 C 0.88542 0.74778 0.51439 0.0
C511 C 0.92431 0.75029 0.52463 0.0
C512 C 0.12885 0.89099 0.84742 0.0
C513 C 0.16536 0.92984 0.85762 0.0
C514 C 0.08556 0.84775 0.83462 0.0
C515 C 0.04666 0.81128 0.82441 0.0
loop_
_geom_bond_atom_site_label_1
_geom_bond_atom_site_label_2
_geom_bond_distance
_geom_bond_site_symmetry_2
_ccdc_geom_bond_type
C0 C1 1.351 . S
C0 N3 1.368 . S
C0 H5 0.931 . S
C1 C0 1.351 . S
C1 N2 1.373 . S
C1 H29 0.930 . S
N2 C1 1.373 . S
N2 C4 1.340 . S
N3 C0 1.368 . S
N3 C4 1.321 . S
N3 Co6 2.135 . S
C4 N2 1.340 . S
C4 N3 1.321 . S
C4 H28 0.930 . S
H5 C0 0.931 . S
Co6 N3 2.135 . S
Co6 N9 2.121 . S
Co6 O14 2.055 . S
Co6 O17 2.039 . S
Co6 N20 2.140 . S
C7 O8 1.227 . S
C7 O17 1.265 . S
O8 C7 1.227 . S
N9 Co6 2.121 . S
N9 C11 1.375 . S
N9 C12 1.313 . S
C10 C11 1.338 . S
C10 N13 1.377 . S
C10 H30 0.930 . S
C11 N9 1.375 . S
C11 C10 1.338 . S
C11 H15 0.931 . S
C12 N9 1.313 . S
C12 N13 1.344 . S
C12 H16 0.930 . S
N13 C10 1.377 . S
N13 C12 1.344 . S
O14 Co6 2.055 . S
O14 C18 1.253 . S
H15 C11 0.931 . S
H16 C12 0.930 . S
O17 Co6 2.039 . S
O17 C7 1.265 . S
C18 O14 1.253 . S
C18 O19 1.227 . S
O19 C18 1.227 . S
N20 Co6 2.140 . S
N20 C23 1.346 . S
N20 C24 1.345 . S
C21 C22 1.387 . S
C21 C25 1.391 . S
C22 C21 1.387 . S
C22 C23 1.369 . S
C22 H31 0.929 . S
C23 N20 1.346 . S
C23 C22 1.369 . S
C23 H26 0.928 . S
C24 N20 1.345 . S
C24 C25 1.371 . S
C24 H27 0.931 . S
C25 C21 1.391 . S
C25 C24 1.371 . S
C25 H32 0.930 . S
H26 C23 0.928 . S
H27 C24 0.931 . S
H28 C4 0.930 . S
H29 C1 0.930 . S
H30 C10 0.930 . S
H31 C22 0.929 . S
H32 C25 0.930 . S
C33 C34 1.351 . S
C33 N36 1.368 . S
C33 H38 0.931 . S
C34 C33 1.351 . S
C34 N35 1.373 . S
C34 H62 0.930 . S
N35 C34 1.373 . S
N35 C37 1.340 . S
N36 C33 1.368 . S
N36 C37 1.321 . S
N36 Co39 2.135 . S
C37 N35 1.340 . S
C37 N36 1.321 . S
C37 H61 0.930 1_655 S
H38 C33 0.931 . S
Co39 N36 2.135 . S
Co39 N42 2.121 . S
Co39 O47 2.055 . S
Co39 O50 2.039 1_655 S
Co39 N53 2.140 . S
C40 O41 1.227 1_455 S
C40 O50 1.265 . S
O41 C40 1.227 1_655 S
N42 Co39 2.121 . S
N42 C44 1.375 . S
N42 C45 1.313 . S
C43 C44 1.338 . S
C43 N46 1.377 . S
C43 H63 0.930 . S
C44 N42 1.375 . S
C44 C43 1.338 . S
C44 H48 0.931 . S
C45 N42 1.313 . S
C45 N46 1.344 . S
C45 H49 0.930 . S
N46 C43 1.377 . S
N46 C45 1.344 . S
O47 Co39 2.055 . S
O47 C51 1.253 . S
H48 C44 0.931 . S
H49 C45 0.930 . S
O50 Co39 2.039 1_455 S
O50 C40 1.265 . S
C51 O47 1.253 . S
C51 O52 1.227 . S
O52 C51 1.227 . S
N53 Co39 2.140 . S
N53 C56 1.346 . S
N53 C57 1.345 . S
C54 C55 1.387 . S
C54 C58 1.391 . S
C55 C54 1.387 . S
C55 C56 1.369 . S
C55 H64 0.929 . S
C56 N53 1.346 . S
C56 C55 1.369 . S
C56 H59 0.928 . S
C57 N53 1.345 . S
C57 C58 1.371 . S
C57 H60 0.931 . S
C58 C54 1.391 . S
C58 C57 1.371 . S
C58 H65 0.930 . S
H59 C56 0.928 . S
H60 C57 0.931 . S
H61 C37 0.930 1_455 S
H62 C34 0.930 . S
H63 C43 0.930 . S
H64 C55 0.929 . S
H65 C58 0.930 . S
C66 C67 1.351 . S
C66 N69 1.368 . S
C66 H71 0.931 . S
C67 C66 1.351 . S
C67 N68 1.373 . S
C67 H95 0.930 . S
N68 C67 1.373 . S
N68 C70 1.340 . S
N69 C66 1.368 . S
N69 C70 1.321 . S
N69 Co72 2.135 . S
C70 N68 1.340 . S
C70 N69 1.321 . S
C70 H94 0.930 1_565 S
H71 C66 0.931 . S
Co72 N69 2.135 . S
Co72 N75 2.121 . S
Co72 O80 2.055 . S
Co72 O83 2.039 1_565 S
Co72 N86 2.140 . S
C73 O74 1.227 1_545 S
C73 O83 1.265 . S
O74 C73 1.227 1_565 S
N75 Co72 2.121 . S
N75 C77 1.375 . S
N75 C78 1.313 . S
C76 C77 1.338 . S
C76 N79 1.377 . S
C76 H96 0.930 . S
C77 N75 1.375 . S
C77 C76 1.338 . S
C77 H81 0.931 . S
C78 N75 1.313 . S
C78 N79 1.344 . S
C78 H82 0.930 . S
N79 C76 1.377 . S
N79 C78 1.344 . S
O80 Co72 2.055 . S
O80 C84 1.253 . S
H81 C77 0.931 . S
H82 C78 0.930 . S
O83 Co72 2.039 1_545 S
O83 C73 1.265 . S
C84 O80 1.253 . S
C84 O85 1.227 . S
O85 C84 1.227 . S
N86 Co72 2.140 . S
N86 C89 1.346 . S
N86 C90 1.345 . S
C87 C88 1.387 . S
C87 C91 1.391 . S
C88 C87 1.387 . S
C88 C89 1.369 . S
C88 H97 0.929 . S
C89 N86 1.346 . S
C89 C88 1.369 . S
C89 H92 0.928 . S
C90 N86 1.345 . S
C90 C91 1.371 . S
C90 H93 0.931 . S
C91 C87 1.391 . S
C91 C90 1.371 . S
C91 H98 0.930 . S
H92 C89 0.928 . S
H93 C90 0.931 . S
H94 C70 0.930 1_545 S
H95 C67 0.930 . S
H96 C76 0.930 . S
H97 C88 0.929 . S
H98 C91 0.930 . S
C99 C100 1.351 . S
C99 N102 1.368 . S
C99 H104 0.931 . S
C100 C99 1.351 . S
C100 N101 1.373 . S
C100 H128 0.930 . S
N101 C100 1.373 . S
N101 C103 1.340 . S
N102 C99 1.368 . S
N102 C103 1.321 . S
N102 Co105 2.135 . S
C103 N101 1.340 . S
C103 N102 1.321 . S
C103 H127 0.930 . S
H104 C99 0.931 . S
Co105 N102 2.135 . S
Co105 N108 2.121 . S
Co105 O113 2.055 . S
Co105 O116 2.039 . S
Co105 N119 2.140 . S
C106 O107 1.227 . S
C106 O116 1.265 . S
O107 C106 1.227 . S
N108 Co105 2.121 . S
N108 C110 1.375 . S
N108 C111 1.313 . S
C109 C110 1.338 . S
C109 N112 1.377 . S
C109 H129 0.930 . S
C110 N108 1.375 . S
C110 C109 1.338 . S
C110 H114 0.931 . S
C111 N108 1.313 . S
C111 N112 1.344 . S
C111 H115 0.930 . S
N112 C109 1.377 . S
N112 C111 1.344 . S
O113 Co105 2.055 . S
O113 C117 1.253 . S
H114 C110 0.931 . S
H115 C111 0.930 . S
O116 Co105 2.039 . S
O116 C106 1.265 . S
C117 O113 1.253 . S
C117 O118 1.227 . S
O118 C117 1.227 . S
N119 Co105 2.140 . S
N119 C122 1.346 . S
N119 C123 1.345 . S
C120 C121 1.387 . S
C120 C124 1.391 . S
C121 C120 1.387 . S
C121 C122 1.369 . S
C121 H130 0.929 . S
C122 N119 1.346 . S
C122 C121 1.369 . S
C122 H125 0.928 . S
C123 N119 1.345 . S
C123 C124 1.371 . S
C123 H126 0.931 . S
C124 C120 1.391 . S
C124 C123 1.371 . S
C124 H131 0.930 . S
H125 C122 0.928 . S
H126 C123 0.931 . S
H127 C103 0.930 . S
H128 C100 0.930 . S
H129 C109 0.930 . S
H130 C121 0.929 . S
H131 C124 0.930 . S
C132 C133 1.351 . S
C132 N135 1.368 . S
C132 H137 0.931 . S
C133 C132 1.351 . S
C133 N134 1.373 . S
C133 H161 0.930 . S
N134 C133 1.373 . S
N134 C136 1.340 . S
N135 C132 1.368 . S
N135 C136 1.321 . S
N135 Co138 2.135 . S
C136 N134 1.340 . S
C136 N135 1.321 . S
C136 H160 0.930 1_455 S
H137 C132 0.931 . S
Co138 N135 2.135 . S
Co138 N141 2.121 . S
Co138 O146 2.055 . S
Co138 O149 2.039 1_455 S
Co138 N152 2.140 . S
C139 O140 1.227 1_655 S
C139 O149 1.265 . S
O140 C139 1.227 1_455 S
N141 Co138 2.121 . S
N141 C143 1.375 . S
N141 C144 1.313 . S
C142 C143 1.338 . S
C142 N145 1.377 . S
C142 H162 0.930 . S
C143 N141 1.375 . S
C143 C142 1.338 . S
C143 H147 0.931 . S
C144 N141 1.313 . S
C144 N145 1.344 . S
C144 H148 0.930 . S
N145 C142 1.377 . S
N145 C144 1.344 . S
O146 Co138 2.055 . S
O146 C150 1.253 . S
H147 C143 0.931 . S
H148 C144 0.930 . S
O149 Co138 2.039 1_655 S
O149 C139 1.265 . S
C150 O146 1.253 . S
C150 O151 1.227 . S
O151 C150 1.227 . S
N152 Co138 2.140 . S
N152 C155 1.346 . S
N152 C156 1.345 . S
C153 C154 1.387 . S
C153 C157 1.391 . S
C154 C153 1.387 . S
C154 C155 1.369 . S
C154 H163 0.929 . S
C155 N152 1.346 . S
C155 C154 1.369 . S
C155 H158 0.928 . S
C156 N152 1.345 . S
C156 C157 1.371 . S
C156 H159 0.931 . S
C157 C153 1.391 . S
C157 C156 1.371 . S
C157 H164 0.930 . S
H158 C155 0.928 . S
H159 C156 0.931 . S
H160 C136 0.930 1_655 S
H161 C133 0.930 . S
H162 C142 0.930 . S
H163 C154 0.929 . S
H164 C157 0.930 . S
C165 C166 1.351 . S
C165 N168 1.368 . S
C165 H170 0.931 . S
C166 C165 1.351 . S
C166 N167 1.373 . S
C166 H194 0.930 . S
N167 C166 1.373 . S
N167 C169 1.340 . S
N168 C165 1.368 . S
N168 C169 1.321 . S
N168 Co171 2.135 . S
C169 N167 1.340 . S
C169 N168 1.321 . S
C169 H193 0.930 1_545 S
H170 C165 0.931 . S
Co171 N168 2.135 . S
Co171 N174 2.121 . S
Co171 O179 2.055 . S
Co171 O182 2.039 1_545 S
Co171 N185 2.140 . S
C172 O173 1.227 1_565 S
C172 O182 1.265 . S
O173 C172 1.227 1_545 S
N174 Co171 2.121 . S
N174 C176 1.375 . S
N174 C177 1.313 . S
C175 C176 1.338 . S
C175 N178 1.377 . S
C175 H195 0.930 . S
C176 N174 1.375 . S
C176 C175 1.338 . S
C176 H180 0.931 . S
C177 N174 1.313 . S
C177 N178 1.344 . S
C177 H181 0.930 . S
N178 C175 1.377 . S
N178 C177 1.344 . S
O179 Co171 2.055 . S
O179 C183 1.253 . S
H180 C176 0.931 . S
H181 C177 0.930 . S
O182 Co171 2.039 1_565 S
O182 C172 1.265 . S
C183 O179 1.253 . S
C183 O184 1.227 . S
O184 C183 1.227 . S
N185 Co171 2.140 . S
N185 C188 1.346 . S
N185 C189 1.345 . S
C186 C187 1.387 . S
C186 C190 1.391 . S
C187 C186 1.387 . S
C187 C188 1.369 . S
C187 H196 0.929 . S
C188 N185 1.346 . S
C188 C187 1.369 . S
C188 H191 0.928 . S
C189 N185 1.345 . S
C189 C190 1.371 . S
C189 H192 0.931 . S
C190 C186 1.391 . S
C190 C189 1.371 . S
C190 H197 0.930 . S
H191 C188 0.928 . S
H192 C189 0.931 . S
H193 C169 0.930 1_565 S
H194 C166 0.930 . S
H195 C175 0.930 . S
H196 C187 0.929 . S
H197 C190 0.930 . S
C198 C199 1.351 . S
C198 N201 1.368 . S
C198 H203 0.931 . S
C199 C198 1.351 . S
C199 N200 1.373 . S
C199 H227 0.930 . S
N200 C199 1.373 . S
N200 C202 1.340 . S
N201 C198 1.368 . S
N201 C202 1.321 . S
N201 Co204 2.135 . S
C202 N200 1.340 . S
C202 N201 1.321 . S
C202 H226 0.930 . S
H203 C198 0.931 . S
Co204 N201 2.135 . S
Co204 N207 2.121 . S
Co204 O212 2.055 . S
Co204 O215 2.039 . S
Co204 N218 2.140 . S
C205 O206 1.227 . S
C205 O215 1.265 . S
O206 C205 1.227 . S
N207 Co204 2.121 . S
N207 C209 1.375 . S
N207 C210 1.313 . S
C208 C209 1.338 . S
C208 N211 1.377 . S
C208 H228 0.930 . S
C209 N207 1.375 . S
C209 C208 1.338 . S
C209 H213 0.931 . S
C210 N207 1.313 . S
C210 N211 1.344 . S
C210 H214 0.930 . S
N211 C208 1.377 . S
N211 C210 1.344 . S
O212 Co204 2.055 . S
O212 C216 1.253 . S
H213 C209 0.931 . S
H214 C210 0.930 . S
O215 Co204 2.039 . S
O215 C205 1.265 . S
C216 O212 1.253 . S
C216 O217 1.227 . S
O217 C216 1.227 . S
N218 Co204 2.140 . S
N218 C221 1.346 . S
N218 C222 1.345 . S
C219 C220 1.387 . S
C219 C223 1.391 . S
C220 C219 1.387 . S
C220 C221 1.369 . S
C220 H229 0.929 . S
C221 N218 1.346 . S
C221 C220 1.369 . S
C221 H224 0.928 . S
C222 N218 1.345 . S
C222 C223 1.371 . S
C222 H225 0.931 . S
C223 C219 1.391 . S
C223 C222 1.371 . S
C223 H230 0.930 . S
H224 C221 0.928 . S
H225 C222 0.931 . S
H226 C202 0.930 . S
H227 C199 0.930 . S
H228 C208 0.930 . S
H229 C220 0.929 . S
H230 C223 0.930 . S
C231 C232 1.351 . S
C231 N234 1.368 . S
C231 H236 0.931 . S
C232 C231 1.351 . S
C232 N233 1.373 . S
C232 H260 0.930 . S
N233 C232 1.373 . S
N233 C235 1.340 . S
N234 C231 1.368 . S
N234 C235 1.321 . S
N234 Co237 2.135 . S
C235 N233 1.340 . S
C235 N234 1.321 . S
C235 H259 0.930 1_655 S
H236 C231 0.931 . S
Co237 N234 2.135 . S
Co237 N240 2.121 . S
Co237 O245 2.055 . S
Co237 O248 2.039 1_655 S
Co237 N251 2.140 . S
C238 O239 1.227 1_455 S
C238 O248 1.265 . S
O239 C238 1.227 1_655 S
N240 Co237 2.121 . S
N240 C242 1.375 . S
N240 C243 1.313 . S
C241 C242 1.338 . S
C241 N244 1.377 . S
C241 H261 0.930 . S
C242 N240 1.375 . S
C242 C241 1.338 . S
C242 H246 0.931 . S
C243 N240 1.313 . S
C243 N244 1.344 . S
C243 H247 0.930 . S
N244 C241 1.377 . S
N244 C243 1.344 . S
O245 Co237 2.055 . S
O245 C249 1.253 . S
H246 C242 0.931 . S
H247 C243 0.930 . S
O248 Co237 2.039 1_455 S
O248 C238 1.265 . S
C249 O245 1.253 . S
C249 O250 1.227 . S
O250 C249 1.227 . S
N251 Co237 2.140 . S
N251 C254 1.346 . S
N251 C255 1.345 . S
C252 C253 1.387 . S
C252 C256 1.391 . S
C253 C252 1.387 . S
C253 C254 1.369 . S
C253 H262 0.929 . S
C254 N251 1.346 . S
C254 C253 1.369 . S
C254 H257 0.928 . S
C255 N251 1.345 . S
C255 C256 1.371 . S
C255 H258 0.931 . S
C256 C252 1.391 . S
C256 C255 1.371 . S
C256 H263 0.930 . S
H257 C254 0.928 . S
H258 C255 0.931 . S
H259 C235 0.930 1_455 S
H260 C232 0.930 . S
H261 C241 0.930 . S
H262 C253 0.929 . S
H263 C256 0.930 . S
C264 C265 1.351 . S
C264 N267 1.368 . S
C264 H269 0.931 . S
C265 C264 1.351 . S
C265 N266 1.373 . S
C265 H293 0.930 . S
N266 C265 1.373 . S
N266 C268 1.340 . S
N267 C264 1.368 . S
N267 C268 1.321 . S
N267 Co270 2.135 . S
C268 N266 1.340 . S
C268 N267 1.321 . S
C268 H292 0.930 1_565 S
H269 C264 0.931 . S
Co270 N267 2.135 . S
Co270 N273 2.121 . S
Co270 O278 2.055 . S
Co270 O281 2.039 1_565 S
Co270 N284 2.140 . S
C271 O272 1.227 1_545 S
C271 O281 1.265 . S
O272 C271 1.227 1_565 S
N273 Co270 2.121 . S
N273 C275 1.375 . S
N273 C276 1.313 . S
C274 C275 1.338 . S
C274 N277 1.377 . S
C274 H294 0.930 . S
C275 N273 1.375 . S
C275 C274 1.338 . S
C275 H279 0.931 . S
C276 N273 1.313 . S
C276 N277 1.344 . S
C276 H280 0.930 . S
N277 C274 1.377 . S
N277 C276 1.344 . S
O278 Co270 2.055 . S
O278 C282 1.253 . S
H279 C275 0.931 . S
H280 C276 0.930 . S
O281 Co270 2.039 1_545 S
O281 C271 1.265 . S
C282 O278 1.253 . S
C282 O283 1.227 . S
O283 C282 1.227 . S
N284 Co270 2.140 . S
N284 C287 1.346 . S
N284 C288 1.345 . S
C285 C286 1.387 . S
C285 C289 1.391 . S
C286 C285 1.387 . S
C286 C287 1.369 . S
C286 H295 0.929 . S
C287 N284 1.346 . S
C287 C286 1.369 . S
C287 H290 0.928 . S
C288 N284 1.345 . S
C288 C289 1.371 . S
C288 H291 0.931 . S
C289 C285 1.391 . S
C289 C288 1.371 . S
C289 H296 0.930 . S
H290 C287 0.928 . S
H291 C288 0.931 . S
H292 C268 0.930 1_545 S
H293 C265 0.930 . S
H294 C274 0.930 . S
H295 C286 0.929 . S
H296 C289 0.930 . S
C297 C298 1.351 . S
C297 N300 1.368 . S
C297 H302 0.931 . S
C298 C297 1.351 . S
C298 N299 1.373 . S
C298 H326 0.930 . S
N299 C298 1.373 . S
N299 C301 1.340 . S
N300 C297 1.368 . S
N300 C301 1.321 . S
N300 Co303 2.135 . S
C301 N299 1.340 . S
C301 N300 1.321 . S
C301 H325 0.930 . S
H302 C297 0.931 . S
Co303 N300 2.135 . S
Co303 N306 2.121 . S
Co303 O311 2.055 . S
Co303 O314 2.039 . S
Co303 N317 2.140 . S
C304 O305 1.227 . S
C304 O314 1.265 . S
O305 C304 1.227 . S
N306 Co303 2.121 . S
N306 C308 1.375 . S
N306 C309 1.313 . S
C307 C308 1.338 . S
C307 N310 1.377 . S
C307 H327 0.930 . S
C308 N306 1.375 . S
C308 C307 1.338 . S
C308 H312 0.931 . S
C309 N306 1.313 . S
C309 N310 1.344 . S
C309 H313 0.930 . S
N310 C307 1.377 . S
N310 C309 1.344 . S
O311 Co303 2.055 . S
O311 C315 1.253 . S
H312 C308 0.931 . S
H313 C309 0.930 . S
O314 Co303 2.039 . S
O314 C304 1.265 . S
C315 O311 1.253 . S
C315 O316 1.227 . S
O316 C315 1.227 . S
N317 Co303 2.140 . S
N317 C320 1.346 . S
N317 C321 1.345 . S
C318 C319 1.387 . S
C318 C322 1.391 . S
C319 C318 1.387 . S
C319 C320 1.369 . S
C319 H328 0.929 . S
C320 N317 1.346 . S
C320 C319 1.369 . S
C320 H323 0.928 . S
C321 N317 1.345 . S
C321 C322 1.371 . S
C321 H324 0.931 . S
C322 C318 1.391 . S
C322 C321 1.371 . S
C322 H329 0.930 . S
H323 C320 0.928 . S
H324 C321 0.931 . S
H325 C301 0.930 . S
H326 C298 0.930 . S
H327 C307 0.930 . S
H328 C319 0.929 . S
H329 C322 0.930 . S
C330 C331 1.351 . S
C330 N333 1.368 . S
C330 H335 0.931 . S
C331 C330 1.351 . S
C331 N332 1.373 . S
C331 H359 0.930 . S
N332 C331 1.373 . S
N332 C334 1.340 . S
N333 C330 1.368 . S
N333 C334 1.321 . S
N333 Co336 2.135 . S
C334 N332 1.340 . S
C334 N333 1.321 . S
C334 H358 0.930 1_455 S
H335 C330 0.931 . S
Co336 N333 2.135 . S
Co336 N339 2.121 . S
Co336 O344 2.055 . S
Co336 O347 2.039 1_455 S
Co336 N350 2.140 . S
C337 O338 1.227 1_655 S
C337 O347 1.265 . S
O338 C337 1.227 1_455 S
N339 Co336 2.121 . S
N339 C341 1.375 . S
N339 C342 1.313 . S
C340 C341 1.338 . S
C340 N343 1.377 . S
C340 H360 0.930 . S
C341 N339 1.375 . S
C341 C340 1.338 . S
C341 H345 0.931 . S
C342 N339 1.313 . S
C342 N343 1.344 . S
C342 H346 0.930 . S
N343 C340 1.377 . S
N343 C342 1.344 . S
O344 Co336 2.055 . S
O344 C348 1.253 . S
H345 C341 0.931 . S
H346 C342 0.930 . S
O347 Co336 2.039 1_655 S
O347 C337 1.265 . S
C348 O344 1.253 . S
C348 O349 1.227 . S
O349 C348 1.227 . S
N350 Co336 2.140 . S
N350 C353 1.346 . S
N350 C354 1.345 . S
C351 C352 1.387 . S
C351 C355 1.391 . S
C352 C351 1.387 . S
C352 C353 1.369 . S
C352 H361 0.929 . S
C353 N350 1.346 . S
C353 C352 1.369 . S
C353 H356 0.928 . S
C354 N350 1.345 . S
C354 C355 1.371 . S
C354 H357 0.931 . S
C355 C351 1.391 . S
C355 C354 1.371 . S
C355 H362 0.930 . S
H356 C353 0.928 . S
H357 C354 0.931 . S
H358 C334 0.930 1_655 S
H359 C331 0.930 . S
H360 C340 0.930 . S
H361 C352 0.929 . S
H362 C355 0.930 . S
C363 C364 1.351 . S
C363 N366 1.368 . S
C363 H368 0.931 . S
C364 C363 1.351 . S
C364 N365 1.373 . S
C364 H392 0.930 . S
N365 C364 1.373 . S
N365 C367 1.340 . S
N366 C363 1.368 . S
N366 C367 1.321 . S
N366 Co369 2.135 . S
C367 N365 1.340 . S
C367 N366 1.321 . S
C367 H391 0.930 1_545 S
H368 C363 0.931 . S
Co369 N366 2.135 . S
Co369 N372 2.121 . S
Co369 O377 2.055 . S
Co369 O380 2.039 1_545 S
Co369 N383 2.140 . S
C370 O371 1.227 1_565 S
C370 O380 1.265 . S
O371 C370 1.227 1_545 S
N372 Co369 2.121 . S
N372 C374 1.375 . S
N372 C375 1.313 . S
C373 C374 1.338 . S
C373 N376 1.377 . S
C373 H393 0.930 . S
C374 N372 1.375 . S
C374 C373 1.338 . S
C374 H378 0.931 . S
C375 N372 1.313 . S
C375 N376 1.344 . S
C375 H379 0.930 . S
N376 C373 1.377 . S
N376 C375 1.344 . S
O377 Co369 2.055 . S
O377 C381 1.253 . S
H378 C374 0.931 . S
H379 C375 0.930 . S
O380 Co369 2.039 1_565 S
O380 C370 1.265 . S
C381 O377 1.253 . S
C381 O382 1.227 . S
O382 C381 1.227 . S
N383 Co369 2.140 . S
N383 C386 1.346 . S
N383 C387 1.345 . S
C384 C385 1.387 . S
C384 C388 1.391 . S
C385 C384 1.387 . S
C385 C386 1.369 . S
C385 H394 0.929 . S
C386 N383 1.346 . S
C386 C385 1.369 . S
C386 H389 0.928 . S
C387 N383 1.345 . S
C387 C388 1.371 . S
C387 H390 0.931 . S
C388 C384 1.391 . S
C388 C387 1.371 . S
C388 H395 0.930 . S
H389 C386 0.928 . S
H390 C387 0.931 . S
H391 C367 0.930 1_565 S
H392 C364 0.930 . S
H393 C373 0.930 . S
H394 C385 0.929 . S
H395 C388 0.930 . S
C396 C397 1.170 . S
C396 C398 1.380 . S
C397 C396 1.170 . S
C398 C396 1.380 . S
C398 C399 1.170 . S
C399 C398 1.170 . S
C400 C401 1.170 . S
C400 C402 1.380 1_455 S
C401 C400 1.170 . S
C402 C400 1.380 1_655 S
C402 C403 1.170 . S
C403 C402 1.170 . S
C404 C405 1.170 . S
C404 C406 1.380 1_545 S
C405 C404 1.170 . S
C406 C404 1.380 1_565 S
C406 C407 1.170 . S
C407 C406 1.170 . S
C408 C409 1.170 . S
C408 C410 1.380 . S
C409 C408 1.170 . S
C410 C408 1.380 . S
C410 C411 1.170 . S
C411 C410 1.170 . S
C412 C413 1.170 . S
C412 C414 1.380 1_655 S
C413 C412 1.170 . S
C414 C412 1.380 1_455 S
C414 C415 1.170 . S
C415 C414 1.170 . S
C416 C417 1.170 . S
C416 C418 1.380 1_565 S
C417 C416 1.170 . S
C418 C416 1.380 1_545 S
C418 C419 1.170 . S
C419 C418 1.170 . S
C420 C421 1.170 . S
C420 C422 1.380 . S
C421 C420 1.170 . S
C422 C420 1.380 . S
C422 C423 1.170 . S
C423 C422 1.170 . S
C424 C425 1.170 . S
C424 C426 1.380 1_655 S
C425 C424 1.170 . S
C426 C424 1.380 1_455 S
C426 C427 1.170 . S
C427 C426 1.170 . S
C428 C429 1.170 . S
C428 C430 1.380 1_544 S
C429 C428 1.170 . S
C430 C428 1.380 1_566 S
C430 C431 1.170 . S
C431 C430 1.170 . S
C432 C433 1.170 . S
C432 C434 1.380 . S
C433 C432 1.170 . S
C434 C432 1.380 . S
C434 C435 1.170 . S
C435 C434 1.170 . S
C436 C437 1.170 . S
C436 C438 1.380 1_455 S
C437 C436 1.170 . S
C438 C436 1.380 1_655 S
C438 C439 1.170 . S
C439 C438 1.170 . S
C440 C441 1.170 . S
C440 C442 1.380 1_546 S
C441 C440 1.170 . S
C442 C440 1.380 1_564 S
C442 C443 1.170 . S
C443 C442 1.170 . S
C444 C445 1.170 . S
C444 C446 1.380 1_445 S
C445 C444 1.170 . S
C446 C444 1.380 1_665 S
C446 C447 1.170 . S
C447 C446 1.170 . S
C448 C449 1.170 . S
C448 C450 1.380 1_645 S
C449 C448 1.170 . S
C450 C448 1.380 1_465 S
C450 C451 1.170 . S
C451 C450 1.170 . S
C452 C453 1.170 . S
C452 C454 1.380 1_445 S
C453 C452 1.170 . S
C454 C452 1.380 1_665 S
C454 C455 1.170 . S
C455 C454 1.170 . S
C456 C457 1.170 . S
C456 C458 1.380 1_665 S
C457 C456 1.170 . S
C458 C456 1.380 1_445 S
C458 C459 1.170 . S
C459 C458 1.170 . S
C460 C461 1.170 . S
C460 C462 1.380 1_665 S
C461 C460 1.170 . S
C462 C460 1.380 1_445 S
C462 C463 1.170 . S
C463 C462 1.170 . S
C464 C465 1.170 . S
C464 C466 1.380 1_645 S
C465 C464 1.170 . S
C466 C464 1.380 1_465 S
C466 C467 1.170 . S
C467 C466 1.170 . S
C468 C469 1.170 . S
C468 C470 1.380 1_655 S
C469 C468 1.170 . S
C470 C468 1.380 1_455 S
C470 C471 1.170 . S
C471 C470 1.170 . S
C472 C473 1.170 . S
C472 C474 1.380 1_545 S
C473 C472 1.170 . S
C474 C472 1.380 1_565 S
C474 C475 1.170 . S
C475 C474 1.170 . S
C476 C477 1.170 . S
C476 C478 1.380 . S
C477 C476 1.170 . S
C478 C476 1.380 . S
C478 C479 1.170 . S
C479 C478 1.170 . S
C480 C481 1.170 . S
C480 C482 1.380 1_455 S
C481 C480 1.170 . S
C482 C480 1.380 1_655 S
C482 C483 1.170 . S
C483 C482 1.170 . S
C484 C485 1.170 . S
C484 C486 1.380 1_565 S
C485 C484 1.170 . S
C486 C484 1.380 1_545 S
C486 C487 1.170 . S
C487 C486 1.170 . S
C488 C489 1.170 . S
C488 C490 1.380 . S
C489 C488 1.170 . S
C490 C488 1.380 . S
C490 C491 1.170 . S
C491 C490 1.170 . S
C492 C493 1.170 . S
C492 C494 1.380 . S
C493 C492 1.170 . S
C494 C492 1.380 . S
C494 C495 1.170 . S
C495 C494 1.170 . S
C496 C497 1.170 . S
C496 C498 1.380 . S
C497 C496 1.170 . S
C498 C496 1.380 . S
C498 C499 1.170 . S
C499 C498 1.170 . S
C500 C501 1.170 . S
C500 C502 1.380 . S
C501 C500 1.170 . S
C502 C500 1.380 . S
C502 C503 1.170 . S
C503 C502 1.170 . S
C504 C505 1.170 . S
C504 C506 1.380 . S
C505 C504 1.170 . S
C506 C504 1.380 . S
C506 C507 1.170 . S
C507 C506 1.170 . S
C508 C509 1.170 . S
C508 C510 1.380 . S
C509 C508 1.170 . S
C510 C508 1.380 . S
C510 C511 1.170 . S
C511 C510 1.170 . S
C512 C513 1.170 . S
C512 C514 1.380 . S
C513 C512 1.170 . S
C514 C512 1.380 . S
C514 C515 1.170 . S
C515 C514 1.170 . S
C397 N112 1.473 . S
C399 N13 1.495 . S
C401 N145 1.476 . S
C403 N46 1.493 . S
C405 N178 1.458 . S
C407 N79 1.513 . S
C409 N211 1.514 . S
C411 N310 1.458 . S
C413 N244 1.477 . S
C415 N343 1.491 . S
C417 N277 1.512 . S
C419 N376 1.467 . S
C421 C315 1.829 . S
C423 C18 1.847 . S
C425 C51 1.836 . S
C427 C348 1.849 . S
C429 C381 1.822 . S
C431 C84 1.835 . S
C433 C216 1.849 . S
C435 C117 1.837 . S
C437 C150 1.847 . S
C439 C249 1.829 . S
C441 C183 1.849 . S
C443 C282 1.839 . S
C445 N2 0.683 . S
C447 N101 0.666 . S
C449 N35 0.630 . S
C451 N134 0.626 . S
C453 N167 0.648 . S
C455 N68 0.676 . S
C457 N200 0.641 . S
C459 N299 0.671 . S
C461 N233 0.629 . S
C463 N332 0.658 . S
C465 N365 0.682 . S
C467 N266 0.674 . S
C469 C384 1.118 . S
C471 C21 1.106 . S
C473 C54 1.140 . S
C475 C219 1.123 . S
C477 C252 1.112 . S
C479 C87 1.103 . S
C481 C285 1.169 . S
C483 C120 1.161 . S
C485 C153 1.151 . S
C487 C318 1.164 . S
C489 C186 1.140 . S
C491 C351 1.156 . S
C493 C7 1.193 . S
C495 C271 1.179 . S
C497 C40 1.191 . S
C499 C304 1.194 . S
C501 C337 1.195 . S
C503 C73 1.185 . S
C505 C106 1.172 . S
C507 C370 1.189 . S
C509 C205 1.186 . S
C511 C139 1.167 . S
C513 C172 1.159 . S
C515 C238 1.149 . S
