# Generated by pormake.
# Topology sth, (5)-cn, num edge types: 1
# Building blocks:
#     Node 0, Type 0, BuildingBlock: BEQFEK_clean_sbu_0, # of connection points: 5
#     Node 1, Type 0, BuildingBlock: BEQFEK_clean_sbu_0, # of connection points: 5
#     Node 2, Type 0, BuildingBlock: BEQFEK_clean_sbu_0, # of connection points: 5
#     Node 3, Type 0, BuildingBlock: BEQFEK_clean_sbu_0, # of connection points: 5
#     Node 4, Type 0, BuildingBlock: BEQFEK_clean_sbu_0, # of connection points: 5
#     Node 5, Type 0, BuildingBlock: BEQFEK_clean_sbu_0, # of connection points: 5
#     Node 6, Type 0, BuildingBlock: BEQFEK_clean_sbu_0, # of connection points: 5
#     Node 7, Type 0, BuildingBlock: BEQFEK_clean_sbu_0, # of connection points: 5
#     Node 8, Type 0, BuildingBlock: BEQFEK_clean_sbu_0, # of connection points: 5
#     Node 9, Type 0, BuildingBlock: BEQFEK_clean_sbu_0, # of connection points: 5
#     Node 10, Type 0, BuildingBlock: BEQFEK_clean_sbu_0, # of connection points: 5
#     Node 11, Type 0, BuildingBlock: BEQFEK_clean_sbu_0, # of connection points: 5
#     Node 12, Type 0, BuildingBlock: BEQFEK_clean_sbu_0, # of connection points: 5
#     Node 13, Type 0, BuildingBlock: BEQFEK_clean_sbu_0, # of connection points: 5
#     Node 14, Type 0, BuildingBlock: BEQFEK_clean_sbu_0, # of connection points: 5
#     Node 15, Type 0, BuildingBlock: BEQFEK_clean_sbu_0, # of connection points: 5
#     Node 16, Type 0, BuildingBlock: BEQFEK_clean_sbu_0, # of connection points: 5
#     Node 17, Type 0, BuildingBlock: BEQFEK_clean_sbu_0, # of connection points: 5
#     Edge 18, Type (0, 0), BuildingBlock: OJICUG_clean_linker_0, # of connection points: 2
#     Edge 19, Type (0, 0), BuildingBlock: OJICUG_clean_linker_0, # of connection points: 2
#     Edge 20, Type (0, 0), BuildingBlock: OJICUG_clean_linker_0, # of connection points: 2
#     Edge 21, Type (0, 0), BuildingBlock: OJICUG_clean_linker_0, # of connection points: 2
#     Edge 22, Type (0, 0), BuildingBlock: OJICUG_clean_linker_0, # of connection points: 2
#     Edge 23, Type (0, 0), BuildingBlock: OJICUG_clean_linker_0, # of connection points: 2
#     Edge 24, Type (0, 0), BuildingBlock: OJICUG_clean_linker_0, # of connection points: 2
#     Edge 25, Type (0, 0), BuildingBlock: OJICUG_clean_linker_0, # of connection points: 2
#     Edge 26, Type (0, 0), BuildingBlock: OJICUG_clean_linker_0, # of connection points: 2
#     Edge 27, Type (0, 0), BuildingBlock: OJICUG_clean_linker_0, # of connection points: 2
#     Edge 28, Type (0, 0), BuildingBlock: OJICUG_clean_linker_0, # of connection points: 2
#     Edge 29, Type (0, 0), BuildingBlock: OJICUG_clean_linker_0, # of connection points: 2
#     Edge 30, Type (0, 0), BuildingBlock: OJICUG_clean_linker_0, # of connection points: 2
#     Edge 31, Type (0, 0), BuildingBlock: OJICUG_clean_linker_0, # of connection points: 2
#     Edge 32, Type (0, 0), BuildingBlock: OJICUG_clean_linker_0, # of connection points: 2
#     Edge 33, Type (0, 0), BuildingBlock: OJICUG_clean_linker_0, # of connection points: 2
#     Edge 34, Type (0, 0), BuildingBlock: OJICUG_clean_linker_0, # of connection points: 2
#     Edge 35, Type (0, 0), BuildingBlock: OJICUG_clean_linker_0, # of connection points: 2
#     Edge 36, Type (0, 0), BuildingBlock: OJICUG_clean_linker_0, # of connection points: 2
#     Edge 37, Type (0, 0), BuildingBlock: OJICUG_clean_linker_0, # of connection points: 2
#     Edge 38, Type (0, 0), BuildingBlock: OJICUG_clean_linker_0, # of connection points: 2
#     Edge 39, Type (0, 0), BuildingBlock: OJICUG_clean_linker_0, # of connection points: 2
#     Edge 40, Type (0, 0), BuildingBlock: OJICUG_clean_linker_0, # of connection points: 2
#     Edge 41, Type (0, 0), BuildingBlock: OJICUG_clean_linker_0, # of connection points: 2
#     Edge 42, Type (0, 0), BuildingBlock: OJICUG_clean_linker_0, # of connection points: 2
#     Edge 43, Type (0, 0), BuildingBlock: OJICUG_clean_linker_0, # of connection points: 2
#     Edge 44, Type (0, 0), BuildingBlock: OJICUG_clean_linker_0, # of connection points: 2
#     Edge 45, Type (0, 0), BuildingBlock: OJICUG_clean_linker_0, # of connection points: 2
#     Edge 46, Type (0, 0), BuildingBlock: OJICUG_clean_linker_0, # of connection points: 2
#     Edge 47, Type (0, 0), BuildingBlock: OJICUG_clean_linker_0, # of connection points: 2
#     Edge 48, Type (0, 0), BuildingBlock: OJICUG_clean_linker_0, # of connection points: 2
#     Edge 49, Type (0, 0), BuildingBlock: OJICUG_clean_linker_0, # of connection points: 2
#     Edge 50, Type (0, 0), BuildingBlock: OJICUG_clean_linker_0, # of connection points: 2
#     Edge 51, Type (0, 0), BuildingBlock: OJICUG_clean_linker_0, # of connection points: 2
#     Edge 52, Type (0, 0), BuildingBlock: OJICUG_clean_linker_0, # of connection points: 2
#     Edge 53, Type (0, 0), BuildingBlock: OJICUG_clean_linker_0, # of connection points: 2
#     Edge 54, Type (0, 0), BuildingBlock: OJICUG_clean_linker_0, # of connection points: 2
#     Edge 55, Type (0, 0), BuildingBlock: OJICUG_clean_linker_0, # of connection points: 2
#     Edge 56, Type (0, 0), BuildingBlock: OJICUG_clean_linker_0, # of connection points: 2
#     Edge 57, Type (0, 0), BuildingBlock: OJICUG_clean_linker_0, # of connection points: 2
#     Edge 58, Type (0, 0), BuildingBlock: OJICUG_clean_linker_0, # of connection points: 2
#     Edge 59, Type (0, 0), BuildingBlock: OJICUG_clean_linker_0, # of connection points: 2
#     Edge 60, Type (0, 0), BuildingBlock: OJICUG_clean_linker_0, # of connection points: 2
#     Edge 61, Type (0, 0), BuildingBlock: OJICUG_clean_linker_0, # of connection points: 2
#     Edge 62, Type (0, 0), BuildingBlock: OJICUG_clean_linker_0, # of connection points: 2
# Relax obj value: 0.289
# Max RMSD: 0.155
# Mean RMSD: 0.155
data_MOF--net-sth--node1-BEQFEK_clean_sbu_0--edge1-OJICUG_clean_linker_0
_symmetry_space_group_name_H-M    P1
_symmetry_Int_Tables_number       1
_symmetry_cell_setting            triclinic
loop_
_symmetry_equiv_pos_as_xyz
'x, y, z'
_cell_length_a     33.457849
_cell_length_b     33.418949
_cell_length_c     50.186668
_cell_angle_alpha  90.242528
_cell_angle_beta   89.958864
_cell_angle_gamma 120.05331
loop_
_atom_site_label
_atom_site_type_symbol
_atom_site_fract_x
_atom_site_fract_y
_atom_site_fract_z
_atom_type_partial_charge
Co0 Co 0.04751 0.23491 0.24695 0.0
Co1 Co 0.14545 0.32102 0.23446 0.0
C2 C 0.06001 0.30711 0.20695 0.0
O3 O 0.03434 0.2697 0.21941 0.0
O4 O 0.10348 0.32958 0.21062 0.0
C5 C 0.96442 0.15307 0.23146 0.0
O6 O 0.97334 0.17515 0.20869 0.0
C7 C 0.22916 0.37831 0.20294 0.0
C8 C 0.28061 0.4164 0.23449 0.0
C9 C 0.27588 0.40952 0.20714 0.0
N10 N 0.20789 0.36662 0.22674 0.0
N11 N 0.23872 0.38997 0.24546 0.0
C12 C 0.20447 0.36053 0.17693 0.0
H13 H 0.16787 0.35119 0.17871 0.0
H14 H 0.20526 0.32888 0.1711 0.0
H15 H 0.2211 0.38683 0.16106 0.0
C16 C 0.09995 0.18625 0.23709 0.0
N17 N 0.09694 0.22504 0.23708 0.0
N18 N 0.13801 0.26077 0.23219 0.0
C19 C 0.16849 0.24576 0.2291 0.0
C20 C 0.14536 0.19808 0.23207 0.0
C21 C 0.06006 0.13882 0.24212 0.0
H22 H 0.0449 0.138 0.26192 0.0
H23 H 0.03324 0.13051 0.22675 0.0
H24 H 0.07022 0.11196 0.24125 0.0
O25 O 0.06377 0.27109 0.28112 0.0
O26 O 0.13169 0.3324 0.27086 0.0
H27 H 0.23183 0.3047 0.24175 0.0
H28 H 0.23847 0.25767 0.22945 0.0
C29 C 0.21962 0.27678 0.22662 0.0
H30 H 0.22777 0.29265 0.20658 0.0
H31 H 0.2314 0.38695 0.26582 0.0
O32 O 0.99077 0.17304 0.25132 0.0
C33 C 0.0986 0.31035 0.28711 0.0
Co34 Co 0.79986 0.82133 0.2463 0.0
Co35 Co 0.71378 0.83285 0.23459 0.0
C36 C 0.72623 0.76149 0.20611 0.0
O37 O 0.76345 0.77294 0.21882 0.0
O38 O 0.70412 0.78294 0.20964 0.0
C39 C 0.88124 0.81974 0.23003 0.0
O40 O 0.85875 0.80602 0.20733 0.0
C41 C 0.65288 0.85723 0.2056 0.0
C42 C 0.62036 0.8745 0.23865 0.0
C43 C 0.62284 0.87344 0.21112 0.0
N44 N 0.66763 0.84932 0.22882 0.0
N45 N 0.64747 0.85896 0.24848 0.0
C46 C 0.67119 0.85393 0.17898 0.0
H47 H 0.7046 0.85476 0.18126 0.0
H48 H 0.67567 0.88258 0.16589 0.0
H49 H 0.64609 0.82074 0.16937 0.0
C50 C 0.84822 0.9226 0.23705 0.0
N51 N 0.80954 0.88071 0.23687 0.0
N52 N 0.77377 0.88594 0.23202 0.0
C53 C 0.78868 0.93143 0.22893 0.0
C54 C 0.83633 0.95616 0.23208 0.0
C55 C 0.89563 0.93025 0.2422 0.0
H56 H 0.89637 0.91563 0.26188 0.0
H57 H 0.90407 0.91194 0.22671 0.0
H58 H 0.92239 0.96735 0.24166 0.0
O59 O 0.76597 0.80224 0.28098 0.0
O60 O 0.70392 0.80737 0.27078 0.0
H61 H 0.73104 0.93758 0.24187 0.0
H62 H 0.77683 0.98958 0.22732 0.0
C63 C 0.75756 0.9513 0.22599 0.0
H64 H 0.73985 0.94083 0.20642 0.0
H65 H 0.65362 0.85664 0.26865 0.0
O66 O 0.86166 0.82645 0.24994 0.0
C67 C 0.72666 0.79727 0.28704 0.0
Co68 Co 0.21283 0.98714 0.24516 0.0
Co69 Co 0.20063 0.88893 0.23297 0.0
C70 C 0.27193 0.97376 0.20494 0.0
O71 O 0.26054 0.99986 0.21736 0.0
O72 O 0.25083 0.93035 0.20886 0.0
C73 C 0.21442 0.07046 0.23006 0.0
O74 O 0.22799 0.06198 0.20722 0.0
C75 C 0.17438 0.80447 0.20188 0.0
C76 C 0.1611 0.7538 0.2337 0.0
C77 C 0.15907 0.75788 0.20632 0.0
N78 N 0.18376 0.8263 0.22557 0.0
N79 N 0.17631 0.79593 0.24447 0.0
C80 C 0.18133 0.8285 0.17572 0.0
H81 H 0.20865 0.86519 0.17733 0.0
H82 H 0.14891 0.82754 0.16983 0.0
H83 H 0.19095 0.81147 0.15998 0.0
C84 C 0.11159 0.93441 0.23563 0.0
N85 N 0.15335 0.93744 0.23555 0.0
N86 N 0.14787 0.89623 0.23076 0.0
C87 C 0.10235 0.86565 0.22778 0.0
C88 C 0.07789 0.88885 0.23075 0.0
C89 C 0.10417 0.97442 0.24063 0.0
H90 H 0.11839 0.98975 0.26045 0.0
H91 H 0.12288 1.00115 0.2253 0.0
H92 H 0.06717 0.96425 0.2397 0.0
O93 O 0.2329 0.97172 0.27936 0.0
O94 O 0.22613 0.90358 0.26923 0.0
H95 H 0.09768 0.80244 0.24064 0.0
H96 H 0.04416 0.79557 0.2281 0.0
C97 C 0.08216 0.81442 0.2254 0.0
H98 H 0.09012 0.806 0.20543 0.0
H99 H 0.18053 0.80376 0.26479 0.0
O100 O 0.20774 0.04381 0.24969 0.0
C101 C 0.2373 0.93701 0.28539 0.0
Co102 Co 0.24168 0.03754 0.76404 0.0
Co103 Co 0.32539 0.13675 0.77616 0.0
C104 C 0.31605 0.05427 0.80414 0.0
O105 O 0.2794 0.02765 0.79115 0.0
O106 O 0.33699 0.09794 0.80102 0.0
C107 C 0.16263 0.953 0.78055 0.0
O108 O 0.18511 0.96347 0.8033 0.0
C109 C 0.38582 0.22321 0.80487 0.0
C110 C 0.41329 0.27326 0.77174 0.0
C111 C 0.41367 0.26986 0.79923 0.0
N112 N 0.36961 0.20024 0.78175 0.0
N113 N 0.38673 0.23024 0.76202 0.0
C114 C 0.37072 0.20129 0.83167 0.0
H115 H 0.33761 0.16812 0.83005 0.0
H116 H 0.36681 0.22486 0.84571 0.0
H117 H 0.39734 0.1941 0.83975 0.0
C118 C 0.18984 0.08632 0.77549 0.0
N119 N 0.22963 0.08536 0.77429 0.0
N120 N 0.26446 0.12719 0.77897 0.0
C121 C 0.24781 0.15614 0.78301 0.0
C122 C 0.20005 0.13111 0.78107 0.0
C123 C 0.14325 0.046 0.76911 0.0
H124 H 0.14491 0.02968 0.75017 0.0
H125 H 0.13286 0.02003 0.78521 0.0
H126 H 0.11671 0.05647 0.76727 0.0
O127 O 0.27534 0.05365 0.72927 0.0
O128 O 0.33609 0.12176 0.73991 0.0
H129 H 0.3014 0.22319 0.77121 0.0
H130 H 0.25572 0.22376 0.79018 0.0
C131 C 0.27698 0.20699 0.78798 0.0
H132 H 0.29724 0.21286 0.80648 0.0
H133 H 0.37893 0.22154 0.74195 0.0
O134 O 0.18136 0.97908 0.76053 0.0
C135 C 0.31419 0.08885 0.72343 0.0
Co136 Co 0.99549 0.20611 0.76449 0.0
Co137 Co 0.89819 0.19526 0.77609 0.0
C138 C 0.98077 0.26342 0.80625 0.0
O139 O 1.00654 0.25238 0.7932 0.0
O140 O 0.93739 0.24272 0.80231 0.0
C141 C 0.06399 0.18911 0.7839 0.0
O142 O 0.03867 0.18179 0.80533 0.0
C143 C 0.81282 0.17294 0.8043 0.0
C144 C 0.76315 0.15321 0.77101 0.0
C145 C 0.76659 0.15621 0.79853 0.0
N146 N 0.83559 0.17928 0.78123 0.0
N147 N 0.80588 0.16826 0.76139 0.0
C148 C 0.83415 0.17758 0.83116 0.0
H149 H 0.86588 0.17504 0.82949 0.0
H150 H 0.80935 0.15055 0.84488 0.0
H151 H 0.84364 0.21192 0.83968 0.0
C152 C 0.93946 0.10354 0.76869 0.0
N153 N 0.94434 0.14596 0.77151 0.0
N154 N 0.90379 0.14137 0.77708 0.0
C155 C 0.87205 0.09588 0.77833 0.0
C156 C 0.89365 0.07047 0.77309 0.0
C157 C 0.97619 0.09453 0.75824 0.0
H158 H 0.99868 0.12183 0.74399 0.0
H159 H 0.99744 0.09434 0.77513 0.0
H160 H 0.9609 0.06045 0.74807 0.0
O161 O 0.98338 0.22864 0.73032 0.0
O162 O 0.91614 0.22352 0.74059 0.0
H163 H 0.80616 0.08565 0.76667 0.0
H164 H 0.80319 0.03891 0.78615 0.0
C165 C 0.82173 0.07696 0.78356 0.0
H166 H 0.81743 0.09291 0.80191 0.0
H167 H 0.81447 0.16918 0.74132 0.0
O168 O 0.05277 0.20172 0.76263 0.0
C169 C 0.94952 0.23457 0.72454 0.0
Co170 Co 0.83406 0.79261 0.76777 0.0
Co171 Co 0.84128 0.70339 0.7774 0.0
C172 C 0.77282 0.71846 0.80695 0.0
O173 O 0.78555 0.75645 0.79488 0.0
O174 O 0.79266 0.695 0.80273 0.0
C175 C 0.82162 0.8744 0.75753 0.0
O176 O 0.78592 0.84906 0.74211 0.0
C177 C 0.86301 0.64018 0.8054 0.0
C178 C 0.8781 0.60629 0.77212 0.0
C179 C 0.87784 0.6091 0.79966 0.0
N180 N 0.85508 0.65519 0.78231 0.0
N181 N 0.86333 0.63418 0.76249 0.0
C182 C 0.86154 0.6595 0.8321 0.0
H183 H 0.86334 0.69339 0.82989 0.0
H184 H 0.89042 0.66345 0.84484 0.0
H185 H 0.82859 0.63522 0.84208 0.0
C186 C 0.93476 0.83642 0.77644 0.0
N187 N 0.89222 0.79875 0.77653 0.0
N188 N 0.89588 0.76186 0.78064 0.0
C189 C 0.94106 0.77508 0.78333 0.0
C190 C 0.9671 0.82276 0.78069 0.0
C191 C 0.94412 0.88464 0.77219 0.0
H192 H 0.92913 0.88663 0.75287 0.0
H193 H 0.92715 0.89329 0.78833 0.0
H194 H 0.98152 0.91043 0.77259 0.0
O195 O 0.81353 0.76083 0.73223 0.0
O196 O 0.81579 0.69668 0.7413 0.0
H197 H 0.94449 0.71634 0.76928 0.0
H198 H 0.99755 0.76081 0.78395 0.0
C199 C 0.95935 0.7425 0.78543 0.0
H200 H 0.94891 0.7244 0.80481 0.0
H201 H 0.86084 0.64044 0.74237 0.0
O202 O 0.84323 0.85639 0.76831 0.0
C203 C 0.80684 0.72093 0.72554 0.0
Co204 Co 0.71677 0.56793 0.57991 0.0
Co205 Co 0.81463 0.65417 0.56726 0.0
C206 C 0.72892 0.63999 0.53988 0.0
O207 O 0.70337 0.60259 0.55237 0.0
O208 O 0.77239 0.66259 0.54354 0.0
C209 C 0.63348 0.48609 0.56449 0.0
O210 O 0.64207 0.50844 0.54183 0.0
C211 C 0.89785 0.71152 0.53532 0.0
C212 C 0.94958 0.75047 0.56657 0.0
C213 C 0.94451 0.7433 0.53925 0.0
N214 N 0.87696 0.69986 0.55922 0.0
N215 N 0.90797 0.72369 0.57778 0.0
C216 C 0.87287 0.69321 0.50943 0.0
H217 H 0.83603 0.68287 0.51144 0.0
H218 H 0.87455 0.66208 0.50349 0.0
H219 H 0.88868 0.71958 0.49353 0.0
C220 C 0.76926 0.51942 0.56984 0.0
N221 N 0.7662 0.55817 0.56987 0.0
N222 N 0.80724 0.59393 0.56491 0.0
C223 C 0.83773 0.57895 0.56174 0.0
C224 C 0.81465 0.53126 0.56473 0.0
C225 C 0.72944 0.47198 0.57498 0.0
H226 H 0.71453 0.47119 0.59485 0.0
H227 H 0.70243 0.46363 0.55973 0.0
H228 H 0.73961 0.44513 0.57401 0.0
O229 O 0.73332 0.60417 0.61412 0.0
O230 O 0.80118 0.66555 0.6038 0.0
H231 H 0.90108 0.63799 0.5743 0.0
H232 H 0.90774 0.59095 0.56198 0.0
C233 C 0.88884 0.61002 0.55919 0.0
H234 H 0.89687 0.62586 0.53914 0.0
H235 H 0.90093 0.72087 0.59816 0.0
O236 O 0.66007 0.5059 0.5843 0.0
C237 C 0.76819 0.64341 0.62011 0.0
Co238 Co 0.46837 0.15405 0.57865 0.0
Co239 Co 0.38266 0.16611 0.56609 0.0
C240 C 0.39552 0.09335 0.53889 0.0
O241 O 0.43314 0.10524 0.55121 0.0
O242 O 0.37347 0.11477 0.54252 0.0
C243 C 0.55 0.15228 0.56372 0.0
O244 O 0.52806 0.13856 0.54086 0.0
C245 C 0.32497 0.19154 0.53427 0.0
C246 C 0.28581 0.20376 0.56558 0.0
C247 C 0.29271 0.20573 0.53826 0.0
N248 N 0.33703 0.1827 0.55814 0.0
N249 N 0.31315 0.18962 0.57674 0.0
C250 C 0.34334 0.18506 0.50837 0.0
H251 H 0.35516 0.1597 0.51046 0.0
H252 H 0.3735 0.21838 0.50223 0.0
H253 H 0.31653 0.17313 0.49259 0.0
C254 C 0.51726 0.25529 0.56904 0.0
N255 N 0.47849 0.21344 0.56869 0.0
N256 N 0.44286 0.21888 0.56378 0.0
C257 C 0.4579 0.26446 0.56103 0.0
C258 C 0.50553 0.28903 0.56427 0.0
C259 C 0.56457 0.26275 0.57428 0.0
H260 H 0.57272 0.24379 0.55908 0.0
H261 H 0.59151 0.29977 0.57335 0.0
H262 H 0.56535 0.24879 0.59417 0.0
O263 O 0.43282 0.13511 0.61288 0.0
O264 O 0.37161 0.14179 0.60256 0.0
H265 H 0.44592 0.32255 0.56171 0.0
H266 H 0.41076 0.2767 0.53869 0.0
C267 C 0.42685 0.28454 0.55873 0.0
H268 H 0.39908 0.26872 0.57383 0.0
H269 H 0.31617 0.18551 0.59711 0.0
O270 O 0.52998 0.15912 0.58335 0.0
C271 C 0.39381 0.13105 0.61886 0.0
Co272 Co 0.88161 0.32013 0.5798 0.0
Co273 Co 0.86956 0.22189 0.5686 0.0
C274 C 0.94004 0.30475 0.53955 0.0
O275 O 0.92908 0.33109 0.55213 0.0
O276 O 0.91853 0.26126 0.54332 0.0
C277 C 0.88322 0.4032 0.56347 0.0
O278 O 0.89663 0.39419 0.54073 0.0
C279 C 0.84408 0.13582 0.53994 0.0
C280 C 0.82781 0.0867 0.57309 0.0
C281 C 0.82789 0.0896 0.54556 0.0
N282 N 0.8529 0.15905 0.56309 0.0
N283 N 0.84388 0.12967 0.58282 0.0
C284 C 0.84643 0.15685 0.51331 0.0
H285 H 0.84586 0.18961 0.51564 0.0
H286 H 0.81725 0.13242 0.50049 0.0
H287 H 0.87915 0.16458 0.50337 0.0
C288 C 0.78023 0.26698 0.57079 0.0
N289 N 0.82201 0.27005 0.57083 0.0
N290 N 0.8166 0.22883 0.56622 0.0
C291 C 0.77112 0.19822 0.56312 0.0
C292 C 0.7466 0.22139 0.56594 0.0
C293 C 0.77281 0.30707 0.57547 0.0
H294 H 0.78753 0.32307 0.59509 0.0
H295 H 0.79111 0.33332 0.55983 0.0
H296 H 0.73577 0.29679 0.57478 0.0
O297 O 0.90216 0.30662 0.61434 0.0
O298 O 0.8965 0.23894 0.60446 0.0
H299 H 0.76538 0.1346 0.57602 0.0
H300 H 0.7129 0.12815 0.56208 0.0
C301 C 0.75106 0.14707 0.56033 0.0
H302 H 0.76059 0.13929 0.54062 0.0
H303 H 0.84695 0.13865 0.60297 0.0
O304 O 0.8767 0.37704 0.58333 0.0
C305 C 0.90749 0.27252 0.62044 0.0
Co306 Co 0.9059 0.37292 0.0987 0.0
Co307 Co 0.992 0.47079 0.11045 0.0
C308 C 0.9788 0.38756 0.13935 0.0
O309 O 0.94178 0.36143 0.1265 0.0
O310 O 1.00105 0.43108 0.13571 0.0
C311 C 0.82432 0.2897 0.11457 0.0
O312 O 0.8465 0.29839 0.13735 0.0
C313 C 0.05317 0.55677 0.13911 0.0
C314 C 0.08573 0.60577 0.10586 0.0
C315 C 0.08332 0.60291 0.13339 0.0
N316 N 0.03828 0.53351 0.11599 0.0
N317 N 0.05848 0.56282 0.0962 0.0
C318 C 0.03489 0.53586 0.16582 0.0
H319 H 1.00143 0.50317 0.16366 0.0
H320 H 0.03051 0.56042 0.17875 0.0
H321 H 0.05997 0.52804 0.17554 0.0
C322 C 0.85768 0.42598 0.10797 0.0
N323 N 0.89635 0.42286 0.10792 0.0
N324 N 0.93217 0.46399 0.11277 0.0
C325 C 0.91733 0.49458 0.11607 0.0
C326 C 0.86966 0.4715 0.1131 0.0
C327 C 0.8102 0.38602 0.10303 0.0
H328 H 0.80914 0.37038 0.08331 0.0
H329 H 0.802 0.35947 0.1185 0.0
H330 H 0.78346 0.39632 0.10376 0.0
O331 O 0.94021 0.38698 0.06418 0.0
O332 O 1.0022 0.45434 0.07452 0.0
H333 H 0.97521 0.55845 0.10343 0.0
H334 H 0.92927 0.56464 0.11782 0.0
C335 C 0.94848 0.54566 0.11919 0.0
H336 H 0.96592 0.55298 0.13883 0.0
H337 H 0.05224 0.55381 0.07608 0.0
O338 O 0.84414 0.31615 0.09484 0.0
C339 C 0.9797 0.42119 0.05828 0.0
Co340 Co 0.65869 0.53831 0.0988 0.0
Co341 Co 0.56099 0.52653 0.11038 0.0
C342 C 0.64457 0.59769 0.13914 0.0
O343 O 0.67048 0.5864 0.12643 0.0
O344 O 0.60104 0.57622 0.13551 0.0
C345 C 0.74176 0.54004 0.11488 0.0
O346 O 0.73294 0.55346 0.13769 0.0
C347 C 0.47556 0.50188 0.13929 0.0
C348 C 0.426 0.48517 0.10621 0.0
C349 C 0.42938 0.48591 0.13373 0.0
N350 N 0.49835 0.51 0.1161 0.0
N351 N 0.4687 0.50069 0.09641 0.0
C352 C 0.49696 0.50481 0.16591 0.0
H353 H 0.52947 0.50384 0.16361 0.0
H354 H 0.47261 0.47606 0.1789 0.0
H355 H 0.50514 0.53793 0.17565 0.0
C356 C 0.60579 0.43691 0.10764 0.0
N357 N 0.60896 0.47877 0.10799 0.0
N358 N 0.56788 0.47343 0.11273 0.0
C359 C 0.53725 0.42787 0.11554 0.0
C360 C 0.56025 0.40322 0.11233 0.0
C361 C 0.64569 0.42943 0.10259 0.0
H362 H 0.67235 0.44787 0.1181 0.0
H363 H 0.63546 0.39236 0.10318 0.0
H364 H 0.66113 0.44401 0.08291 0.0
O365 O 0.64413 0.55771 0.0642 0.0
O366 O 0.57682 0.55237 0.0743 0.0
H367 H 0.46719 0.3697 0.11662 0.0
H368 H 0.4786 0.418 0.13784 0.0
C369 C 0.48619 0.40794 0.11823 0.0
H370 H 0.47371 0.42202 0.10241 0.0
H371 H 0.47731 0.50326 0.07625 0.0
O372 O 0.71543 0.53342 0.09504 0.0
C373 C 0.60982 0.56268 0.05812 0.0
Co374 Co 0.49336 0.12468 0.09679 0.0
Co375 Co 0.50495 0.03857 0.10967 0.0
C376 C 0.43309 0.05259 0.13675 0.0
O377 O 0.44494 0.08987 0.12413 0.0
O378 O 0.4541 0.03008 0.1333 0.0
C379 C 0.49159 0.20631 0.11217 0.0
O380 O 0.47779 0.18392 0.13482 0.0
C381 C 0.53105 0.98135 0.14149 0.0
C382 C 0.54439 0.94296 0.1101 0.0
C383 C 0.54642 0.94999 0.13744 0.0
N384 N 0.52166 0.99296 0.11763 0.0
N385 N 0.52915 0.96944 0.099 0.0
C386 C 0.52408 0.99933 0.16743 0.0
H387 H 0.49708 1.00899 0.1655 0.0
H388 H 0.55662 0.03081 0.17332 0.0
H389 H 0.51403 0.97302 0.18332 0.0
C390 C 0.59422 0.17337 0.10734 0.0
N391 N 0.55244 0.13456 0.10714 0.0
N392 N 0.55773 0.09884 0.11213 0.0
C393 C 0.60318 0.11389 0.11546 0.0
C394 C 0.62774 0.16159 0.11257 0.0
C395 C 0.60181 0.2208 0.10224 0.0
H396 H 0.58797 0.22169 0.08231 0.0
H397 H 0.58287 0.22898 0.11741 0.0
H398 H 0.6388 0.24771 0.10337 0.0
O399 O 0.47445 0.08869 0.06248 0.0
O400 O 0.48064 0.02728 0.07307 0.0
H401 H 0.60768 0.05495 0.10289 0.0
H402 H 0.6613 0.10207 0.11521 0.0
C403 C 0.62332 0.08292 0.118 0.0
H404 H 0.61553 0.06709 0.13806 0.0
H405 H 0.52496 0.97235 0.07863 0.0
O406 O 0.49857 0.18661 0.09237 0.0
C407 C 0.47019 0.04947 0.05659 0.0
Co408 Co 0.38676 0.89983 0.90889 0.0
Co409 Co 0.48392 0.98844 0.89886 0.0
C410 C 0.39902 0.97416 0.87062 0.0
O411 O 0.37367 0.93567 0.88214 0.0
O412 O 0.44224 0.99734 0.87497 0.0
C413 C 0.29473 0.81652 0.92236 0.0
O414 O 0.28803 0.83929 0.94159 0.0
C415 C 0.56739 0.04709 0.86812 0.0
C416 C 0.618 0.08758 0.89956 0.0
C417 C 0.6137 0.07961 0.87229 0.0
N418 N 0.54594 0.03569 0.89184 0.0
N419 N 0.57622 0.06043 0.91053 0.0
C420 C 0.54323 0.02759 0.84214 0.0
H421 H 0.50638 1.01747 0.84351 0.0
H422 H 0.54491 0.9961 0.83715 0.0
H423 H 0.55958 0.05314 0.82588 0.0
C424 C 0.44221 0.85475 0.89948 0.0
N425 N 0.43797 0.89279 0.89939 0.0
N426 N 0.47886 0.92941 0.8956 0.0
C427 C 0.51054 0.91571 0.89345 0.0
C428 C 0.48827 0.86793 0.89583 0.0
C429 C 0.40279 0.80669 0.90341 0.0
H430 H 0.38702 0.80412 0.92325 0.0
H431 H 0.37637 0.79929 0.88795 0.0
H432 H 0.41358 0.78037 0.90173 0.0
O433 O 0.39993 0.93265 0.94431 0.0
O434 O 0.46737 0.99601 0.93535 0.0
H435 H 0.57149 0.97535 0.90807 0.0
H436 H 0.58096 0.92952 0.8967 0.0
C437 C 0.56166 0.9479 0.89283 0.0
H438 H 0.5717 0.96435 0.87297 0.0
H439 H 0.56864 0.05789 0.93084 0.0
O440 O 0.33156 0.83645 0.90866 0.0
C441 C 0.43391 0.97207 0.9511 0.0
Co442 Co 0.13492 0.48687 0.91397 0.0
Co443 Co 0.04827 0.49771 0.90152 0.0
C444 C 0.06281 0.42643 0.87378 0.0
O445 O 0.10038 0.43854 0.8862 0.0
O446 O 0.04027 0.44731 0.87754 0.0
C447 C 0.21788 0.49009 0.89732 0.0
O448 O 0.19624 0.47981 0.8743 0.0
C449 C 0.98972 0.5221 0.86973 0.0
C450 C 0.95163 0.53579 0.90106 0.0
C451 C 0.95796 0.53693 0.8737 0.0
N452 N 1.00222 0.51385 0.89364 0.0
N453 N 0.9789 0.52156 0.91224 0.0
C454 C 1.00762 0.51508 0.84381 0.0
H455 H 1.01773 0.48841 0.84572 0.0
H456 H 0.03879 0.54783 0.83795 0.0
H457 H 0.98116 0.5045 0.8279 0.0
C458 C 0.18209 0.5884 0.90687 0.0
N459 N 0.14403 0.54619 0.90489 0.0
N460 N 0.10805 0.55112 0.90011 0.0
C461 C 0.12215 0.59671 0.89917 0.0
C462 C 0.16951 0.62176 0.90332 0.0
C463 C 0.22839 0.59668 0.91571 0.0
H464 H 0.22434 0.57584 0.9337 0.0
H465 H 0.24356 0.58562 0.89964 0.0
H466 H 0.2525 0.63364 0.92035 0.0
O467 O 0.099 0.46651 0.94806 0.0
O468 O 0.03721 0.47231 0.93772 0.0
H469 H 0.06482 0.60298 0.91255 0.0
H470 H 0.10973 0.65436 0.8966 0.0
C471 C 0.09057 0.61602 0.89623 0.0
H472 H 0.07191 0.60431 0.87701 0.0
H473 H 0.98239 0.5181 0.93264 0.0
O474 O 0.19718 0.49294 0.91793 0.0
C475 C 0.05959 0.46162 0.95394 0.0
Co476 Co 0.54964 0.65381 0.91271 0.0
Co477 Co 0.53567 0.55498 0.90025 0.0
C478 C 0.6093 0.63953 0.87325 0.0
O479 O 0.59814 0.66579 0.88568 0.0
O480 O 0.58719 0.59598 0.87666 0.0
C481 C 0.55554 0.73911 0.89741 0.0
O482 O 0.57069 0.73091 0.87506 0.0
C483 C 0.50768 0.47062 0.86876 0.0
C484 C 0.4947 0.41943 0.9002 0.0
C485 C 0.49214 0.42392 0.87289 0.0
N486 N 0.51776 0.49217 0.89256 0.0
N487 N 0.51044 0.46148 0.91122 0.0
C488 C 0.51428 0.49504 0.84277 0.0
H489 H 0.54168 0.5317 0.84448 0.0
H490 H 0.48183 0.49424 0.83717 0.0
H491 H 0.52354 0.47811 0.82677 0.0
C492 C 0.44868 0.60305 0.90254 0.0
N493 N 0.49003 0.60518 0.90247 0.0
N494 N 0.48374 0.56367 0.89761 0.0
C495 C 0.43804 0.53378 0.89461 0.0
C496 C 0.41436 0.55777 0.89759 0.0
C497 C 0.44221 0.64356 0.90788 0.0
H498 H 0.45598 0.65794 0.92793 0.0
H499 H 0.46194 0.67079 0.89296 0.0
H500 H 0.40545 0.63419 0.90664 0.0
O501 O 0.56762 0.63706 0.94717 0.0
O502 O 0.55999 0.5686 0.93683 0.0
H503 H 0.43248 0.47016 0.9075 0.0
H504 H 0.379 0.46425 0.89557 0.0
C505 C 0.41689 0.48241 0.89245 0.0
H506 H 0.42385 0.47338 0.87238 0.0
H507 H 0.51521 0.46905 0.93156 0.0
O508 O 0.54618 0.71146 0.91686 0.0
C509 C 0.57103 0.60176 0.95318 0.0
Co510 Co 0.57388 0.70534 0.43201 0.0
Co511 Co 0.65852 0.80409 0.44493 0.0
C512 C 0.64687 0.71938 0.47207 0.0
O513 O 0.60971 0.69321 0.4594 0.0
O514 O 0.66855 0.76293 0.46865 0.0
C515 C 0.49416 0.6201 0.44697 0.0
O516 O 0.51692 0.62849 0.46953 0.0
C517 C 0.71584 0.88852 0.47641 0.0
C518 C 0.7527 0.93973 0.44474 0.0
C519 C 0.74688 0.93525 0.47214 0.0
N520 N 0.70334 0.86698 0.45263 0.0
N521 N 0.72588 0.8977 0.43383 0.0
C522 C 0.69913 0.8641 0.5025 0.0
H523 H 0.68909 0.82727 0.50054 0.0
H524 H 0.66816 0.86555 0.50893 0.0
H525 H 0.72627 0.88058 0.51803 0.0
C526 C 0.52344 0.75592 0.44205 0.0
N527 N 0.56269 0.75385 0.44217 0.0
N528 N 0.5978 0.79527 0.44738 0.0
C529 C 0.58189 0.82501 0.45065 0.0
C530 C 0.53427 0.80104 0.44739 0.0
C531 C 0.47657 0.71549 0.43635 0.0
H532 H 0.47649 0.7012 0.41635 0.0
H533 H 0.4686 0.68817 0.45129 0.0
H534 H 0.44919 0.72491 0.43727 0.0
O535 O 0.60921 0.72229 0.39775 0.0
O536 O 0.6698 0.79071 0.40837 0.0
H537 H 0.63953 0.8893 0.43824 0.0
H538 H 0.59218 0.89448 0.4514 0.0
C539 C 0.61205 0.87627 0.45357 0.0
H540 H 0.62858 0.88432 0.47349 0.0
H541 H 0.72225 0.89014 0.41347 0.0
O542 O 0.51291 0.64768 0.42753 0.0
C543 C 0.64797 0.75767 0.3919 0.0
Co544 Co 0.32578 0.87186 0.43009 0.0
Co545 Co 0.22851 0.86151 0.44174 0.0
C546 C 0.31218 0.93036 0.47134 0.0
O547 O 0.3378 0.91907 0.45833 0.0
O548 O 0.26872 0.90964 0.46755 0.0
C549 C 0.40484 0.86791 0.44775 0.0
O550 O 0.39271 0.87748 0.47076 0.0
C551 C 0.14331 0.83797 0.47063 0.0
C552 C 0.09351 0.82029 0.43758 0.0
C553 C 0.09704 0.82168 0.46511 0.0
N554 N 0.16597 0.84558 0.44741 0.0
N555 N 0.13617 0.83574 0.42774 0.0
C556 C 0.16479 0.84109 0.49725 0.0
H557 H 0.19699 0.83955 0.49499 0.0
H558 H 0.14033 0.81276 0.51043 0.0
H559 H 0.1735 0.87454 0.50676 0.0
C560 C 0.27079 0.77023 0.43639 0.0
N561 N 0.27504 0.81247 0.43829 0.0
N562 N 0.23416 0.8077 0.44297 0.0
C563 C 0.20259 0.76216 0.4441 0.0
C564 C 0.2248 0.73699 0.44002 0.0
C565 C 0.30885 0.76185 0.42778 0.0
H566 H 0.32667 0.7835 0.4102 0.0
H567 H 0.3343 0.77183 0.4442 0.0
H568 H 0.29581 0.72506 0.42257 0.0
O569 O 0.31234 0.89309 0.39574 0.0
O570 O 0.24549 0.88881 0.40602 0.0
H571 H 0.13819 0.75396 0.43086 0.0
H572 H 0.13286 0.70464 0.4487 0.0
C573 C 0.15183 0.74294 0.4477 0.0
H574 H 0.14569 0.75665 0.46642 0.0
H575 H 0.14464 0.83776 0.40758 0.0
O576 O 0.38205 0.86577 0.42695 0.0
C577 C 0.27855 0.89908 0.38986 0.0
Co578 Co 0.16471 0.45944 0.43462 0.0
Co579 Co 0.1728 0.37076 0.44381 0.0
C580 C 0.10386 0.38462 0.47353 0.0
O581 O 0.11634 0.4226 0.46153 0.0
O582 O 0.12408 0.36152 0.46933 0.0
C583 C 0.15505 0.54202 0.42235 0.0
O584 O 0.12488 0.51874 0.40352 0.0
C585 C 0.1957 0.30787 0.47111 0.0
C586 C 0.21043 0.27438 0.43745 0.0
C587 C 0.21069 0.27705 0.46501 0.0
N588 N 0.18716 0.32287 0.44821 0.0
N589 N 0.1952 0.30211 0.42816 0.0
C590 C 0.19461 0.32697 0.49795 0.0
H591 H 0.19596 0.36069 0.49594 0.0
H592 H 0.2239 0.3312 0.5104 0.0
H593 H 0.16198 0.30242 0.50813 0.0
C594 C 0.26548 0.50413 0.44313 0.0
N595 N 0.22312 0.46619 0.44321 0.0
N596 N 0.22719 0.42948 0.44703 0.0
C597 C 0.27249 0.44303 0.44945 0.0
C598 C 0.29818 0.4908 0.44699 0.0
C599 C 0.27427 0.55225 0.43924 0.0
H600 H 0.26005 0.5546 0.41972 0.0
H601 H 0.25619 0.56008 0.45513 0.0
H602 H 0.31151 0.57843 0.44028 0.0
O603 O 0.14425 0.42815 0.399 0.0
O604 O 0.14687 0.36414 0.40789 0.0
H605 H 0.27584 0.38449 0.43494 0.0
H606 H 0.32928 0.42918 0.44905 0.0
C607 C 0.29115 0.41071 0.45103 0.0
H608 H 0.28154 0.39266 0.47045 0.0
H609 H 0.19224 0.30844 0.40812 0.0
O610 O 0.17287 0.52264 0.43568 0.0
C611 C 0.13762 0.38832 0.39225 0.0
C612 C 0.35056 0.42462 0.14674 0.0
C613 C 0.39016 0.46709 0.15239 0.0
H614 H 0.28486 0.3717 0.16008 0.0
C615 C 0.39192 0.49081 0.17588 0.0
H616 H 0.34882 0.4053 0.12895 0.0
C617 C 0.35435 0.47234 0.19336 0.0
C618 C 0.31452 0.42969 0.18776 0.0
H619 H 0.42205 0.52382 0.18055 0.0
H620 H 0.3565 0.49149 0.21129 0.0
C621 C 0.31348 0.40571 0.16445 0.0
C622 C 0.60547 0.93478 0.19801 0.0
C623 C 0.60253 0.89225 0.19241 0.0
H624 H 0.5929 0.98776 0.18457 0.0
C625 C 0.58061 0.8685 0.16894 0.0
H626 H 0.623 0.95412 0.21579 0.0
C627 C 0.56168 0.88701 0.15139 0.0
C628 C 0.5646 0.92973 0.15692 0.0
H629 H 0.57764 0.83544 0.16431 0.0
H630 H 0.54473 0.86784 0.13347 0.0
C631 C 0.58744 0.95372 0.18024 0.0
C632 C 0.10001 0.68168 0.14616 0.0
C633 C 0.10348 0.64253 0.15192 0.0
H634 H 0.11198 0.74735 0.15935 0.0
C635 C 0.12564 0.64155 0.1754 0.0
H636 H 0.08224 0.68279 0.12838 0.0
C637 C 0.14437 0.67947 0.19279 0.0
C638 C 0.14097 0.71885 0.18708 0.0
H639 H 0.12894 0.61175 0.18015 0.0
H640 H 0.16155 0.67795 0.21073 0.0
C641 C 0.11782 0.7191 0.16378 0.0
C642 C 0.47734 0.34588 0.85843 0.0
C643 C 0.47341 0.38518 0.85345 0.0
H644 H 0.46191 0.27859 0.845 0.0
C645 C 0.44917 0.38564 0.83071 0.0
H646 H 0.49545 0.34428 0.87591 0.0
C647 C 0.43058 0.34839 0.81295 0.0
C648 C 0.4345 0.30925 0.81797 0.0
H649 H 0.44314 0.41394 0.82686 0.0
H650 H 0.41193 0.34967 0.79564 0.0
C651 C 0.45801 0.30822 0.84085 0.0
C652 C 0.68904 0.09373 0.81246 0.0
C653 C 0.72741 0.13754 0.81721 0.0
H654 H 0.62471 0.0398 0.82675 0.0
C655 C 0.72826 0.16241 0.83998 0.0
H656 H 0.68813 0.07351 0.79529 0.0
C657 C 0.6909 0.14377 0.85764 0.0
C658 C 0.65227 0.09983 0.85289 0.0
H659 H 0.75756 0.19637 0.84399 0.0
H660 H 0.69224 0.16378 0.875 0.0
C661 C 0.65226 0.07472 0.83034 0.0
C662 C 0.8936 0.54989 0.85953 0.0
C663 C 0.93667 0.55376 0.85406 0.0
H664 H 0.84095 0.56419 0.84647 0.0
C665 C 0.95995 0.57622 0.83059 0.0
H666 H 0.87496 0.53322 0.87756 0.0
C667 C 0.94004 0.59299 0.81266 0.0
C668 C 0.89722 0.58919 0.81823 0.0
H669 H 0.99421 0.58245 0.82631 0.0
H670 H 0.95891 0.6104 0.79482 0.0
C671 C 0.87413 0.56761 0.84182 0.0
C672 C 0.71044 0.65268 0.83249 0.0
C673 C 0.73187 0.69921 0.82462 0.0
H674 H 0.65477 0.59731 0.85345 0.0
C675 C 0.71231 0.72604 0.83265 0.0
H676 H 0.72431 0.63086 0.82653 0.0
C677 C 0.67231 0.70674 0.84831 0.0
C678 C 0.65071 0.66005 0.85592 0.0
H679 H 0.72788 0.76196 0.82686 0.0
H680 H 0.65823 0.72835 0.85433 0.0
C681 C 0.67024 0.63328 0.84778 0.0
C682 C 0.40279 0.04091 0.84597 0.0
C683 C 0.37763 0.99406 0.85325 0.0
H684 H 0.40291 0.09676 0.8253 0.0
C685 C 0.33156 0.9673 0.84471 0.0
H686 H 0.43824 0.06266 0.85237 0.0
C687 C 0.31129 0.9869 0.829 0.0
C688 C 0.33648 0.03382 0.82182 0.0
H689 H 0.31117 0.93116 0.85005 0.0
H690 H 0.27587 0.96526 0.82252 0.0
C691 C 0.38238 0.06061 0.83061 0.0
C692 C 0.99607 0.36415 0.84857 0.0
C693 C 0.04269 0.38504 0.85624 0.0
H694 H 0.93992 0.30917 0.82747 0.0
C695 C 0.0687 0.36472 0.84798 0.0
H696 H 0.97482 0.37854 0.85476 0.0
C697 C 0.04858 0.32475 0.83207 0.0
C698 C 1.00188 0.30393 0.82447 0.0
H699 H 0.10465 0.37985 0.85365 0.0
H700 H 0.06963 0.31025 0.82569 0.0
C701 C 0.97587 0.32399 0.83308 0.0
C702 C 0.73213 0.69962 0.18058 0.0
C703 C 0.70618 0.72022 0.18845 0.0
H704 H 0.73313 0.64474 0.15882 0.0
C705 C 0.65978 0.69963 0.18037 0.0
H706 H 0.76791 0.71451 0.18654 0.0
C707 C 0.63968 0.65932 0.16497 0.0
C708 C 0.66561 0.63884 0.15688 0.0
H709 H 0.63862 0.71428 0.18624 0.0
H710 H 0.60387 0.64459 0.15909 0.0
C711 C 0.71215 0.65954 0.16478 0.0
C712 C 0.33304 0.04058 0.17874 0.0
C713 C 0.3125 0.99425 0.18697 0.0
H714 H 0.38727 0.09548 0.15634 0.0
C715 C 0.33231 0.96776 0.17877 0.0
H716 H 0.31869 0.06194 0.18477 0.0
C717 C 0.37184 0.9871 0.16294 0.0
C718 C 0.39231 0.03328 0.15455 0.0
H719 H 0.31764 0.93207 0.18486 0.0
H720 H 0.38603 0.96553 0.15704 0.0
C721 C 0.37238 0.05981 0.16252 0.0
C722 C 0.99249 0.30057 0.18114 0.0
C723 C 0.03886 0.32686 0.18929 0.0
H724 H 0.93698 0.29903 0.15894 0.0
C725 C 0.06471 0.37328 0.18132 0.0
H726 H 0.9716 0.26474 0.18702 0.0
C727 C 0.04473 0.39307 0.16572 0.0
C728 C 0.99854 0.3668 0.15732 0.0
H729 H 0.1004 0.39469 0.18739 0.0
H730 H 0.06586 0.42891 0.15991 0.0
C731 C 0.97262 0.32025 0.16514 0.0
C732 C 0.05953 0.82609 0.50738 0.0
C733 C 0.05789 0.80252 0.48386 0.0
H734 H 1.02433 0.82612 0.54303 0.0
C735 C 1.01863 0.75968 0.47834 0.0
H736 H 0.0894 0.85935 0.51197 0.0
C737 C 0.98184 0.74026 0.49625 0.0
C738 C 0.98279 0.76403 0.51964 0.0
H739 H 1.01699 0.74046 0.46054 0.0
H740 H 0.95356 0.70601 0.49197 0.0
C741 C 1.02224 0.80708 0.52507 0.0
C742 C 0.20788 0.23553 0.50695 0.0
C743 C 0.2305 0.25713 0.48327 0.0
H744 H 0.20953 0.2014 0.54258 0.0
C745 C 0.27325 0.26103 0.47734 0.0
H746 H 0.17472 0.23197 0.51184 0.0
C747 C 0.29363 0.24446 0.49508 0.0
C748 C 0.27091 0.22216 0.5187 0.0
H749 H 0.29173 0.27842 0.45941 0.0
H750 H 0.32783 0.25079 0.49052 0.0
C751 C 0.22782 0.21803 0.52445 0.0
C752 C 0.74554 0.97346 0.51523 0.0
C753 C 0.76828 0.97402 0.49155 0.0
H754 H 0.74717 1.0094 0.551 0.0
C755 C 0.81092 1.01349 0.48565 0.0
H756 H 0.71162 0.94509 0.51987 0.0
C757 C 0.83056 0.05122 0.50317 0.0
C758 C 0.80802 0.05001 0.52697 0.0
H759 H 0.82917 1.01524 0.46746 0.0
H760 H 0.86353 0.08107 0.49825 0.0
C761 C 0.76559 1.01072 0.53295 0.0
C762 C 0.40062 0.03115 0.51314 0.0
C763 C 0.37498 0.05186 0.52141 0.0
H764 H 0.40098 0.97645 0.49081 0.0
C765 C 0.32841 0.03143 0.5137 0.0
H766 H 0.43651 0.04592 0.51884 0.0
C767 C 0.30791 0.99135 0.49813 0.0
C768 C 0.33357 0.97091 0.48951 0.0
H769 H 0.30745 0.04615 0.51988 0.0
H770 H 0.27202 0.97687 0.49248 0.0
C771 C 0.38021 0.99126 0.49718 0.0
C772 C 0.04285 0.3916 0.49902 0.0
C773 C 0.06267 0.36498 0.49101 0.0
H774 H 0.98849 0.39353 0.52058 0.0
C775 C 0.0412 0.31834 0.49865 0.0
H776 H 0.05841 0.42759 0.49338 0.0
C777 C 1.0008 0.29867 0.51376 0.0
C778 C 0.98111 0.32528 0.52197 0.0
H779 H 0.05524 0.29668 0.49265 0.0
H780 H 0.9854 0.26266 0.51933 0.0
C781 C 1.00266 0.37203 0.5145 0.0
C782 C 0.66132 0.6329 0.51391 0.0
C783 C 0.70766 0.65944 0.52207 0.0
H784 H 0.60565 0.6309 0.49164 0.0
C785 C 0.73337 0.70578 0.51391 0.0
H786 H 0.64055 0.59712 0.5199 0.0
C787 C 0.71323 0.72527 0.49817 0.0
C788 C 0.66704 0.69877 0.48983 0.0
H789 H 0.76904 0.72736 0.51996 0.0
H790 H 0.7342 0.76108 0.49228 0.0
C791 C 0.6413 0.65228 0.49778 0.0
C792 C 0.08366 0.30221 0.33612 0.0
C793 C 0.10234 0.33068 0.31379 0.0
H794 H 0.08062 0.29856 0.37871 0.0
C795 C 0.12814 0.37895 0.31739 0.0
H796 H 0.06371 0.26496 0.33393 0.0
C797 C 0.13694 0.39829 0.34297 0.0
C798 C 0.12102 0.36953 0.36534 0.0
H799 H 0.14265 0.40172 0.30043 0.0
H800 H 0.15846 0.43539 0.34528 0.0
C801 C 0.09342 0.32145 0.3617 0.0
C802 C 0.73565 0.79549 0.33635 0.0
C803 C 0.70704 0.7814 0.3138 0.0
H804 H 0.73902 0.79941 0.37898 0.0
C805 C 0.65885 0.75558 0.31713 0.0
H806 H 0.77285 0.81561 0.3343 0.0
C807 C 0.63951 0.74542 0.34262 0.0
C808 C 0.66803 0.76205 0.36517 0.0
H809 H 0.63606 0.74418 0.29999 0.0
H810 H 0.60227 0.72668 0.34465 0.0
C811 C 0.71628 0.78643 0.36184 0.0
C812 C 0.24271 0.95076 0.33457 0.0
C813 C 0.25419 0.93382 0.31197 0.0
H814 H 0.24128 0.9525 0.37721 0.0
C815 C 0.27857 0.90996 0.31516 0.0
H816 H 0.22385 0.96914 0.33264 0.0
C817 C 0.28951 0.90137 0.34058 0.0
C818 C 0.27515 0.91548 0.36321 0.0
H819 H 0.28808 0.8968 0.29798 0.0
H820 H 0.30673 0.88138 0.34253 0.0
C821 C 0.25257 0.94111 0.36 0.0
C822 C 0.32543 0.08975 0.64863 0.0
C823 C 0.3737 0.11474 0.64547 0.0
H824 H 0.26858 0.06067 0.67598 0.0
C825 C 0.40207 0.12701 0.66808 0.0
H826 H 0.30281 0.07967 0.63144 0.0
C827 C 0.38247 0.11702 0.69351 0.0
C828 C 0.33421 0.09349 0.69669 0.0
H829 H 0.43932 0.14636 0.66617 0.0
H830 H 0.40508 0.12869 0.71073 0.0
C831 C 0.30582 0.07864 0.67404 0.0
C832 C 0.96142 0.23843 0.67533 0.0
C833 C 0.94629 0.25154 0.69803 0.0
H834 H 0.96034 0.23454 0.63272 0.0
C835 C 0.92294 0.27647 0.69499 0.0
H836 H 0.97926 0.21902 0.67715 0.0
C837 C 0.91291 0.28618 0.66961 0.0
C838 C 0.92502 0.27002 0.64694 0.0
H839 H 0.91106 0.28711 0.71226 0.0
H840 H 0.89331 0.30382 0.66779 0.0
C841 C 0.95035 0.24709 0.64998 0.0
C842 C 0.80658 0.73106 0.67621 0.0
C843 C 0.79056 0.70221 0.69855 0.0
H844 H 0.81242 0.73474 0.63367 0.0
C845 C 0.76307 0.65413 0.6948 0.0
H846 H 0.82803 0.76816 0.67858 0.0
C847 C 0.7534 0.63503 0.66918 0.0
C848 C 0.77208 0.66361 0.64688 0.0
H849 H 0.7502 0.63115 0.71177 0.0
H850 H 0.73346 0.5978 0.66692 0.0
C851 C 0.79789 0.71187 0.65059 0.0
C852 C 0.9714 0.40948 0.00899 0.0
C853 C 0.99971 0.42463 0.03165 0.0
H854 H 0.96855 0.40999 0.96637 0.0
C855 C 0.04798 0.44768 0.02853 0.0
H856 H 0.93415 0.39184 0.01087 0.0
C857 C 0.06767 0.45723 1.00314 0.0
C858 C 0.03938 0.44494 0.9805 0.0
H859 H 0.07054 0.45953 0.04578 0.0
H860 H 0.10493 0.47648 1.00128 0.0
C861 C 0.9911 0.4201 0.9836 0.0
C862 C 0.58356 0.60409 0.02796 0.0
C863 C 0.60623 0.57859 0.03136 0.0
H864 H 0.55566 0.63257 1.00034 0.0
C865 C 0.62115 0.56475 0.00886 0.0
H866 H 0.57186 0.61529 0.04506 0.0
C867 C 0.61089 0.57367 0.98334 0.0
C868 C 0.58669 0.59767 0.97995 0.0
H869 H 0.63847 0.54488 0.01096 0.0
H870 H 0.62096 0.56086 0.96625 0.0
C871 C 0.57443 0.61412 1.00244 0.0
C872 C 0.43186 0.98116 0.02602 0.0
C873 C 0.45473 0.02943 0.02973 0.0
H874 H 0.40604 0.92487 0.99803 0.0
C875 C 0.46606 0.05813 0.00739 0.0
H876 H 0.42248 0.95822 0.04298 0.0
C877 C 0.45749 0.03907 0.98177 0.0
C878 C 0.43635 0.99094 0.97805 0.0
H879 H 0.48376 0.09537 0.00967 0.0
H880 H 0.46855 0.0621 0.9648 0.0
C881 C 0.4222 0.96202 1.00038 0.0
C882 C 0.17705 0.10921 0.25414 0.0
C883 C 0.20038 0.10604 0.23161 0.0
H884 H 0.14145 0.14108 0.27189 0.0
C885 C 0.20722 0.13503 0.20974 0.0
H886 H 0.17114 0.08742 0.27131 0.0
C887 C 0.19003 0.16552 0.21011 0.0
C888 C 0.16544 0.16743 0.23225 0.0
H889 H 0.22509 0.13355 0.19209 0.0
H890 H 0.195 0.18688 0.19285 0.0
C891 C 0.15975 0.13962 0.25443 0.0
C892 C 0.8943 0.02898 0.2551 0.0
C893 C 0.86694 1.00698 0.23263 0.0
H894 H 0.94631 0.09251 0.27254 0.0
C895 C 0.86949 0.03364 0.21051 0.0
H896 H 0.8924 1.00908 0.27253 0.0
C897 C 0.90012 0.08138 0.21049 0.0
C898 C 0.92865 0.1034 0.23266 0.0
H899 H 0.84855 1.01735 0.19301 0.0
H900 H 0.90209 0.10084 0.19285 0.0
C901 C 0.92486 0.07673 0.25515 0.0
C902 C 0.95778 0.85746 0.2536 0.0
C903 C 0.93087 0.83381 0.23121 0.0
H904 H 1.02554 0.89335 0.27094 0.0
C905 C 0.95259 0.82665 0.20916 0.0
H906 H 0.94223 0.86364 0.27091 0.0
C907 C 1.00028 0.84382 0.20922 0.0
C908 C 0.02717 0.86873 0.23123 0.0
H909 H 0.93292 0.80853 0.1916 0.0
H910 H 1.01636 0.83859 0.19183 0.0
C911 C 1.00547 0.87478 0.25358 0.0
C912 C 0.10168 0.14771 0.8037 0.0
C913 C 0.1008 0.1768 0.7838 0.0
H914 H 0.13367 0.11005 0.81809 0.0
C915 C 0.13405 0.19208 0.76342 0.0
H916 H 0.07634 0.135 0.81955 0.0
C917 C 0.16729 0.17829 0.76292 0.0
C918 C 0.16725 0.14843 0.78251 0.0
H919 H 0.13421 0.21446 0.74782 0.0
H920 H 0.19235 0.19004 0.74693 0.0
C921 C 0.13432 0.1333 0.80289 0.0
C922 C 0.8905 0.99663 0.78471 0.0
C923 C 0.87262 0.01979 0.77016 0.0
H924 H 0.88741 0.93263 0.79284 0.0
C925 C 0.83651 0.99474 0.75199 0.0
H926 H 0.91819 1.01525 0.79893 0.0
C927 C 0.81926 0.94728 0.74804 0.0
C928 C 0.8378 0.92414 0.76229 0.0
H929 H 0.8225 1.0121 0.74035 0.0
H930 H 0.79204 0.92898 0.73354 0.0
C931 C 0.87304 0.94933 0.78101 0.0
C932 C 0.09256 0.8873 0.80167 0.0
C933 C 0.11367 0.91562 0.77939 0.0
H934 H 0.02927 0.8353 0.8194 0.0
C935 C 0.08657 0.91027 0.7568 0.0
H936 H 0.11245 0.89041 0.81936 0.0
C937 C 0.03912 0.87888 0.75695 0.0
C938 C 1.01789 0.85219 0.77963 0.0
H939 H 0.10166 0.93143 0.7393 0.0
H940 H 1.01873 0.87626 0.73958 0.0
C941 C 0.04506 0.85573 0.80174 0.0
C942 C 0.82917 0.47317 0.5874 0.0
C943 C 0.83477 0.50064 0.56508 0.0
H944 H 0.84047 0.42112 0.60458 0.0
C945 C 0.8591 0.49826 0.54294 0.0
H946 H 0.81106 0.47498 0.60486 0.0
C947 C 0.87611 0.46759 0.54273 0.0
C948 C 0.86934 0.43894 0.56476 0.0
H949 H 0.86398 0.51935 0.52556 0.0
H950 H 0.89376 0.46571 0.52509 0.0
C951 C 0.84631 0.44263 0.58728 0.0
C952 C 0.56876 0.41472 0.54351 0.0
C953 C 0.59779 0.43637 0.56556 0.0
H954 H 0.51685 0.35101 0.5259 0.0
C955 C 0.59454 0.40928 0.58773 0.0
H956 H 0.57028 0.43451 0.52612 0.0
C957 C 0.56403 0.3615 0.58747 0.0
C958 C 0.5362 0.33988 0.56509 0.0
H959 H 0.61636 0.42476 0.60503 0.0
H960 H 0.56253 0.34129 0.60466 0.0
C961 C 0.53819 0.36697 0.54332 0.0
C962 C 0.66949 0.17661 0.54385 0.0
C963 C 0.69588 0.2013 0.56604 0.0
H964 H 0.60254 0.14142 0.52575 0.0
C965 C 0.67371 0.20718 0.58821 0.0
H966 H 0.68595 0.17155 0.52658 0.0
C967 C 0.62601 0.18985 0.58788 0.0
C968 C 0.5996 0.16636 0.56531 0.0
H969 H 0.69341 0.22562 0.6057 0.0
H970 H 0.61007 0.19589 0.60505 0.0
C971 C 0.62181 0.15939 0.54344 0.0
C972 C 0.81158 0.48615 0.09058 0.0
C973 C 0.83909 0.49162 0.11292 0.0
H974 H 0.75952 0.49754 0.07351 0.0
C975 C 0.83675 0.51578 0.13522 0.0
H976 H 0.81333 0.46811 0.07302 0.0
C977 C 0.80612 0.53281 0.13555 0.0
C978 C 0.77746 0.52619 0.11349 0.0
H979 H 0.85784 0.52051 0.15262 0.0
H980 H 0.80428 0.55034 0.1533 0.0
C981 C 0.78107 0.50328 0.09083 0.0
C982 C 0.529 0.28302 0.08885 0.0
C983 C 0.50545 0.25598 0.1111 0.0
H984 H 0.56466 0.35097 0.07185 0.0
C985 C 0.49822 0.27762 0.13323 0.0
H986 H 0.53524 0.26755 0.07151 0.0
C987 C 0.51529 0.32534 0.1334 0.0
C988 C 0.54007 0.35239 0.11154 0.0
H989 H 0.48019 0.25786 0.15069 0.0
H990 H 0.51008 0.34132 0.15088 0.0
C991 C 0.54614 0.33078 0.08909 0.0
C992 C 0.70492 0.19441 0.13461 0.0
C993 C 0.67847 0.19227 0.11242 0.0
H994 H 0.77192 0.22677 0.15268 0.0
C995 C 0.70061 0.21997 0.0902 0.0
H996 H 0.6885 0.17313 0.1519 0.0
C997 C 0.74828 0.25052 0.0905 0.0
C998 C 0.77473 0.25397 0.11308 0.0
H999 H 0.68089 0.21832 0.0727 0.0
H1000 H 0.76416 0.27222 0.07329 0.0
C1001 C 0.75259 0.22508 0.13499 0.0
C1002 C 0.5012 0.80967 0.91952 0.0
C1003 C 0.50927 0.83817 0.89734 0.0
H1004 H 0.50982 0.75623 0.93712 0.0
C1005 C 0.53597 0.83679 0.87621 0.0
H1006 H 0.48119 0.81068 0.93623 0.0
C1007 C 0.55251 0.80575 0.87667 0.0
C1008 C 0.54286 0.77573 0.89839 0.0
H1009 H 0.54276 0.85867 0.85896 0.0
H1010 H 0.57183 0.80446 0.85969 0.0
C1011 C 0.51784 0.77875 0.92007 0.0
C1012 C 0.22178 0.74212 0.93318 0.0
C1013 C 0.2606 0.7672 0.91679 0.0
H1014 H 0.16215 0.67607 0.94158 0.0
C1015 C 0.26739 0.7443 0.89514 0.0
H1016 H 0.21539 0.75863 0.94995 0.0
C1017 C 0.23727 0.69726 0.89058 0.0
C1018 C 0.19918 0.6722 0.90722 0.0
H1019 H 0.29625 0.76254 0.88174 0.0
H1020 H 0.2439 0.68028 0.87413 0.0
C1021 C 0.19126 0.695 0.92838 0.0
C1022 C 0.34225 0.54434 0.92065 0.0
C1023 C 0.36373 0.53844 0.89814 0.0
H1024 H 0.27912 0.53318 0.93825 0.0
C1025 C 0.33668 0.51414 0.87605 0.0
H1026 H 0.36246 0.5625 0.93806 0.0
C1027 C 0.28907 0.49735 0.87609 0.0
C1028 C 0.26752 0.50414 0.89836 0.0
H1029 H 0.35257 0.509 0.85854 0.0
H1030 H 0.26927 0.47963 0.85849 0.0
C1031 C 0.29456 0.52724 0.92081 0.0
C1032 C 0.47627 0.81522 0.42422 0.0
C1033 C 0.50288 0.82026 0.44694 0.0
H1034 H 0.42474 0.82681 0.40648 0.0
C1035 C 0.49915 0.84343 0.46931 0.0
H1036 H 0.47907 0.79791 0.40661 0.0
C1037 C 0.46811 0.85996 0.46932 0.0
C1038 C 0.44057 0.85405 0.44681 0.0
H1039 H 0.51955 0.84785 0.48699 0.0
H1040 H 0.46526 0.87681 0.48711 0.0
C1041 C 0.44549 0.83207 0.42411 0.0
C1042 C 0.15516 0.61573 0.41169 0.0
C1043 C 0.17019 0.59135 0.42769 0.0
H1044 H 0.16069 0.68133 0.40321 0.0
C1045 C 0.20124 0.61499 0.44867 0.0
H1046 H 0.1312 0.59862 0.39543 0.0
C1047 C 0.21821 0.6621 0.45291 0.0
C1048 C 0.20395 0.68648 0.43659 0.0
H1049 H 0.21293 0.59729 0.46175 0.0
H1050 H 0.24287 0.67967 0.46881 0.0
C1051 C 0.17185 0.66293 0.41615 0.0
C1052 C 0.4176 0.57978 0.42352 0.0
C1053 C 0.44496 0.58331 0.44565 0.0
H1054 H 0.34951 0.54732 0.40665 0.0
C1055 C 0.42397 0.55363 0.46743 0.0
H1056 H 0.43259 0.60204 0.40641 0.0
C1057 C 0.3764 0.52244 0.46751 0.0
C1058 C 0.34898 0.52054 0.44591 0.0
H1059 H 0.44404 0.55532 0.48476 0.0
H1060 H 0.36078 0.50087 0.48482 0.0
C1061 C 0.37005 0.54869 0.42368 0.0
loop_
_geom_bond_atom_site_label_1
_geom_bond_atom_site_label_2
_geom_bond_distance
_geom_bond_site_symmetry_2
_ccdc_geom_bond_type
Co0 O3 1.970 . S
Co0 N17 1.989 . S
Co0 O25 1.967 . S
Co0 O32 1.920 1_455 S
Co1 O4 1.966 . S
Co1 N10 2.022 . S
Co1 N18 1.993 . S
Co1 O26 1.941 . S
C2 O3 1.258 . S
C2 O4 1.263 . S
O3 Co0 1.970 . S
O3 C2 1.258 . S
O4 Co1 1.966 . S
O4 C2 1.263 . S
C5 O6 1.235 . S
C5 O32 1.289 . S
O6 C5 1.235 . S
C7 C9 1.400 . S
C7 N10 1.351 . S
C7 C12 1.501 . S
C8 C9 1.387 . S
C8 N11 1.341 . S
C9 C7 1.400 . S
C9 C8 1.387 . S
N10 Co1 2.022 . S
N10 C7 1.351 . S
N10 N11 1.365 . S
N11 C8 1.341 . S
N11 N10 1.365 . S
N11 H31 0.862 . S
C12 C7 1.501 . S
C12 H13 0.961 . S
C12 H14 0.961 . S
C12 H15 0.960 . S
H13 C12 0.961 . S
H14 C12 0.961 . S
H15 C12 0.960 . S
C16 N17 1.342 . S
C16 C20 1.401 . S
C16 C21 1.499 . S
N17 Co0 1.989 . S
N17 C16 1.342 . S
N17 N18 1.388 . S
N18 Co1 1.993 . S
N18 N17 1.388 . S
N18 C19 1.346 . S
C19 N18 1.346 . S
C19 C20 1.396 . S
C19 C29 1.510 . S
C20 C16 1.401 . S
C20 C19 1.396 . S
C21 C16 1.499 . S
C21 H22 0.959 . S
C21 H23 0.960 . S
C21 H24 0.961 . S
H22 C21 0.959 . S
H23 C21 0.960 . S
H24 C21 0.961 . S
O25 Co0 1.967 . S
O25 C33 1.258 . S
O26 Co1 1.941 . S
O26 C33 1.266 . S
H27 C29 0.959 . S
H28 C29 0.961 . S
C29 C19 1.510 . S
C29 H27 0.959 . S
C29 H28 0.961 . S
C29 H30 0.960 . S
H30 C29 0.960 . S
H31 N11 0.862 . S
O32 Co0 1.920 1_655 S
O32 C5 1.289 . S
C33 O25 1.258 . S
C33 O26 1.266 . S
Co34 O37 1.970 . S
Co34 N51 1.989 . S
Co34 O59 1.967 . S
Co34 O66 1.920 . S
Co35 O38 1.966 . S
Co35 N44 2.022 . S
Co35 N52 1.993 . S
Co35 O60 1.941 . S
C36 O37 1.258 . S
C36 O38 1.263 . S
O37 Co34 1.970 . S
O37 C36 1.258 . S
O38 Co35 1.966 . S
O38 C36 1.263 . S
C39 O40 1.235 . S
C39 O66 1.289 . S
O40 C39 1.235 . S
C41 C43 1.400 . S
C41 N44 1.351 . S
C41 C46 1.501 . S
C42 C43 1.387 . S
C42 N45 1.341 . S
C43 C41 1.400 . S
C43 C42 1.387 . S
N44 Co35 2.022 . S
N44 C41 1.351 . S
N44 N45 1.365 . S
N45 C42 1.341 . S
N45 N44 1.365 . S
N45 H65 0.862 . S
C46 C41 1.501 . S
C46 H47 0.961 . S
C46 H48 0.961 . S
C46 H49 0.960 . S
H47 C46 0.961 . S
H48 C46 0.961 . S
H49 C46 0.960 . S
C50 N51 1.342 . S
C50 C54 1.401 . S
C50 C55 1.499 . S
N51 Co34 1.989 . S
N51 C50 1.342 . S
N51 N52 1.388 . S
N52 Co35 1.993 . S
N52 N51 1.388 . S
N52 C53 1.346 . S
C53 N52 1.346 . S
C53 C54 1.396 . S
C53 C63 1.510 . S
C54 C50 1.401 . S
C54 C53 1.396 . S
C55 C50 1.499 . S
C55 H56 0.959 . S
C55 H57 0.960 . S
C55 H58 0.961 . S
H56 C55 0.959 . S
H57 C55 0.960 . S
H58 C55 0.961 . S
O59 Co34 1.967 . S
O59 C67 1.258 . S
O60 Co35 1.941 . S
O60 C67 1.266 . S
H61 C63 0.959 . S
H62 C63 0.961 . S
C63 C53 1.510 . S
C63 H61 0.959 . S
C63 H62 0.961 . S
C63 H64 0.960 . S
H64 C63 0.960 . S
H65 N45 0.862 . S
O66 Co34 1.920 . S
O66 C39 1.289 . S
C67 O59 1.258 . S
C67 O60 1.266 . S
Co68 O71 1.970 . S
Co68 N85 1.989 . S
Co68 O93 1.967 . S
Co68 O100 1.920 1_565 S
Co69 O72 1.966 . S
Co69 N78 2.022 . S
Co69 N86 1.993 . S
Co69 O94 1.941 . S
C70 O71 1.258 . S
C70 O72 1.263 . S
O71 Co68 1.970 . S
O71 C70 1.258 . S
O72 Co69 1.966 . S
O72 C70 1.263 . S
C73 O74 1.235 . S
C73 O100 1.289 . S
O74 C73 1.235 . S
C75 C77 1.400 . S
C75 N78 1.351 . S
C75 C80 1.501 . S
C76 C77 1.387 . S
C76 N79 1.341 . S
C77 C75 1.400 . S
C77 C76 1.387 . S
N78 Co69 2.022 . S
N78 C75 1.351 . S
N78 N79 1.365 . S
N79 C76 1.341 . S
N79 N78 1.365 . S
N79 H99 0.862 . S
C80 C75 1.501 . S
C80 H81 0.961 . S
C80 H82 0.961 . S
C80 H83 0.960 . S
H81 C80 0.961 . S
H82 C80 0.961 . S
H83 C80 0.960 . S
C84 N85 1.342 . S
C84 C88 1.401 . S
C84 C89 1.499 . S
N85 Co68 1.989 . S
N85 C84 1.342 . S
N85 N86 1.388 . S
N86 Co69 1.993 . S
N86 N85 1.388 . S
N86 C87 1.346 . S
C87 N86 1.346 . S
C87 C88 1.396 . S
C87 C97 1.510 . S
C88 C84 1.401 . S
C88 C87 1.396 . S
C89 C84 1.499 . S
C89 H90 0.959 . S
C89 H91 0.960 . S
C89 H92 0.961 . S
H90 C89 0.959 . S
H91 C89 0.960 . S
H92 C89 0.961 . S
O93 Co68 1.967 . S
O93 C101 1.258 . S
O94 Co69 1.941 . S
O94 C101 1.266 . S
H95 C97 0.959 . S
H96 C97 0.961 . S
C97 C87 1.510 . S
C97 H95 0.959 . S
C97 H96 0.961 . S
C97 H98 0.960 . S
H98 C97 0.960 . S
H99 N79 0.862 . S
O100 Co68 1.920 1_545 S
O100 C73 1.289 . S
C101 O93 1.258 . S
C101 O94 1.266 . S
Co102 O105 1.970 . S
Co102 N119 1.989 . S
Co102 O127 1.967 . S
Co102 O134 1.920 1_545 S
Co103 O106 1.966 . S
Co103 N112 2.022 . S
Co103 N120 1.993 . S
Co103 O128 1.941 . S
C104 O105 1.258 . S
C104 O106 1.263 . S
O105 Co102 1.970 . S
O105 C104 1.258 . S
O106 Co103 1.966 . S
O106 C104 1.263 . S
C107 O108 1.235 . S
C107 O134 1.289 . S
O108 C107 1.235 . S
C109 C111 1.400 . S
C109 N112 1.351 . S
C109 C114 1.501 . S
C110 C111 1.387 . S
C110 N113 1.341 . S
C111 C109 1.400 . S
C111 C110 1.387 . S
N112 Co103 2.022 . S
N112 C109 1.351 . S
N112 N113 1.365 . S
N113 C110 1.341 . S
N113 N112 1.365 . S
N113 H133 0.862 . S
C114 C109 1.501 . S
C114 H115 0.961 . S
C114 H116 0.961 . S
C114 H117 0.960 . S
H115 C114 0.961 . S
H116 C114 0.961 . S
H117 C114 0.960 . S
C118 N119 1.342 . S
C118 C122 1.401 . S
C118 C123 1.499 . S
N119 Co102 1.989 . S
N119 C118 1.342 . S
N119 N120 1.388 . S
N120 Co103 1.993 . S
N120 N119 1.388 . S
N120 C121 1.346 . S
C121 N120 1.346 . S
C121 C122 1.396 . S
C121 C131 1.510 . S
C122 C118 1.401 . S
C122 C121 1.396 . S
C123 C118 1.499 . S
C123 H124 0.959 . S
C123 H125 0.960 . S
C123 H126 0.961 . S
H124 C123 0.959 . S
H125 C123 0.960 . S
H126 C123 0.961 . S
O127 Co102 1.967 . S
O127 C135 1.258 . S
O128 Co103 1.941 . S
O128 C135 1.266 . S
H129 C131 0.959 . S
H130 C131 0.961 . S
C131 C121 1.510 . S
C131 H129 0.959 . S
C131 H130 0.961 . S
C131 H132 0.960 . S
H132 C131 0.960 . S
H133 N113 0.862 . S
O134 Co102 1.920 1_565 S
O134 C107 1.289 . S
C135 O127 1.258 . S
C135 O128 1.266 . S
Co136 O139 1.970 . S
Co136 N153 1.989 . S
Co136 O161 1.967 . S
Co136 O168 1.920 1_655 S
Co137 O140 1.966 . S
Co137 N146 2.022 . S
Co137 N154 1.993 . S
Co137 O162 1.941 . S
C138 O139 1.258 . S
C138 O140 1.263 . S
O139 Co136 1.970 . S
O139 C138 1.258 . S
O140 Co137 1.966 . S
O140 C138 1.263 . S
C141 O142 1.235 . S
C141 O168 1.289 . S
O142 C141 1.235 . S
C143 C145 1.400 . S
C143 N146 1.351 . S
C143 C148 1.501 . S
C144 C145 1.387 . S
C144 N147 1.341 . S
C145 C143 1.400 . S
C145 C144 1.387 . S
N146 Co137 2.022 . S
N146 C143 1.351 . S
N146 N147 1.365 . S
N147 C144 1.341 . S
N147 N146 1.365 . S
N147 H167 0.862 . S
C148 C143 1.501 . S
C148 H149 0.961 . S
C148 H150 0.961 . S
C148 H151 0.960 . S
H149 C148 0.961 . S
H150 C148 0.961 . S
H151 C148 0.960 . S
C152 N153 1.342 . S
C152 C156 1.401 . S
C152 C157 1.499 . S
N153 Co136 1.989 . S
N153 C152 1.342 . S
N153 N154 1.388 . S
N154 Co137 1.993 . S
N154 N153 1.388 . S
N154 C155 1.346 . S
C155 N154 1.346 . S
C155 C156 1.396 . S
C155 C165 1.510 . S
C156 C152 1.401 . S
C156 C155 1.396 . S
C157 C152 1.499 . S
C157 H158 0.959 . S
C157 H159 0.960 . S
C157 H160 0.961 . S
H158 C157 0.959 . S
H159 C157 0.960 . S
H160 C157 0.961 . S
O161 Co136 1.967 . S
O161 C169 1.258 . S
O162 Co137 1.941 . S
O162 C169 1.266 . S
H163 C165 0.959 . S
H164 C165 0.961 . S
C165 C155 1.510 . S
C165 H163 0.959 . S
C165 H164 0.961 . S
C165 H166 0.960 . S
H166 C165 0.960 . S
H167 N147 0.862 . S
O168 Co136 1.920 1_455 S
O168 C141 1.289 . S
C169 O161 1.258 . S
C169 O162 1.266 . S
Co170 O173 1.970 . S
Co170 N187 1.989 . S
Co170 O195 1.967 . S
Co170 O202 1.920 . S
Co171 O174 1.966 . S
Co171 N180 2.022 . S
Co171 N188 1.993 . S
Co171 O196 1.941 . S
C172 O173 1.258 . S
C172 O174 1.263 . S
O173 Co170 1.970 . S
O173 C172 1.258 . S
O174 Co171 1.966 . S
O174 C172 1.263 . S
C175 O176 1.235 . S
C175 O202 1.289 . S
O176 C175 1.235 . S
C177 C179 1.400 . S
C177 N180 1.351 . S
C177 C182 1.501 . S
C178 C179 1.387 . S
C178 N181 1.341 . S
C179 C177 1.400 . S
C179 C178 1.387 . S
N180 Co171 2.022 . S
N180 C177 1.351 . S
N180 N181 1.365 . S
N181 C178 1.341 . S
N181 N180 1.365 . S
N181 H201 0.862 . S
C182 C177 1.501 . S
C182 H183 0.961 . S
C182 H184 0.961 . S
C182 H185 0.960 . S
H183 C182 0.961 . S
H184 C182 0.961 . S
H185 C182 0.960 . S
C186 N187 1.342 . S
C186 C190 1.401 . S
C186 C191 1.499 . S
N187 Co170 1.989 . S
N187 C186 1.342 . S
N187 N188 1.388 . S
N188 Co171 1.993 . S
N188 N187 1.388 . S
N188 C189 1.346 . S
C189 N188 1.346 . S
C189 C190 1.396 . S
C189 C199 1.510 . S
C190 C186 1.401 . S
C190 C189 1.396 . S
C191 C186 1.499 . S
C191 H192 0.959 . S
C191 H193 0.960 . S
C191 H194 0.961 . S
H192 C191 0.959 . S
H193 C191 0.960 . S
H194 C191 0.961 . S
O195 Co170 1.967 . S
O195 C203 1.258 . S
O196 Co171 1.941 . S
O196 C203 1.266 . S
H197 C199 0.959 . S
H198 C199 0.961 . S
C199 C189 1.510 . S
C199 H197 0.959 . S
C199 H198 0.961 . S
C199 H200 0.960 . S
H200 C199 0.960 . S
H201 N181 0.862 . S
O202 Co170 1.920 . S
O202 C175 1.289 . S
C203 O195 1.258 . S
C203 O196 1.266 . S
Co204 O207 1.970 . S
Co204 N221 1.989 . S
Co204 O229 1.967 . S
Co204 O236 1.920 . S
Co205 O208 1.966 . S
Co205 N214 2.022 . S
Co205 N222 1.993 . S
Co205 O230 1.941 . S
C206 O207 1.258 . S
C206 O208 1.263 . S
O207 Co204 1.970 . S
O207 C206 1.258 . S
O208 Co205 1.966 . S
O208 C206 1.263 . S
C209 O210 1.235 . S
C209 O236 1.289 . S
O210 C209 1.235 . S
C211 C213 1.400 . S
C211 N214 1.351 . S
C211 C216 1.501 . S
C212 C213 1.387 . S
C212 N215 1.341 . S
C213 C211 1.400 . S
C213 C212 1.387 . S
N214 Co205 2.022 . S
N214 C211 1.351 . S
N214 N215 1.365 . S
N215 C212 1.341 . S
N215 N214 1.365 . S
N215 H235 0.862 . S
C216 C211 1.501 . S
C216 H217 0.961 . S
C216 H218 0.961 . S
C216 H219 0.960 . S
H217 C216 0.961 . S
H218 C216 0.961 . S
H219 C216 0.960 . S
C220 N221 1.342 . S
C220 C224 1.401 . S
C220 C225 1.499 . S
N221 Co204 1.989 . S
N221 C220 1.342 . S
N221 N222 1.388 . S
N222 Co205 1.993 . S
N222 N221 1.388 . S
N222 C223 1.346 . S
C223 N222 1.346 . S
C223 C224 1.396 . S
C223 C233 1.510 . S
C224 C220 1.401 . S
C224 C223 1.396 . S
C225 C220 1.499 . S
C225 H226 0.959 . S
C225 H227 0.960 . S
C225 H228 0.961 . S
H226 C225 0.959 . S
H227 C225 0.960 . S
H228 C225 0.961 . S
O229 Co204 1.967 . S
O229 C237 1.258 . S
O230 Co205 1.941 . S
O230 C237 1.266 . S
H231 C233 0.959 . S
H232 C233 0.961 . S
C233 C223 1.510 . S
C233 H231 0.959 . S
C233 H232 0.961 . S
C233 H234 0.960 . S
H234 C233 0.960 . S
H235 N215 0.862 . S
O236 Co204 1.920 . S
O236 C209 1.289 . S
C237 O229 1.258 . S
C237 O230 1.266 . S
Co238 O241 1.970 . S
Co238 N255 1.989 . S
Co238 O263 1.967 . S
Co238 O270 1.920 . S
Co239 O242 1.966 . S
Co239 N248 2.022 . S
Co239 N256 1.993 . S
Co239 O264 1.941 . S
C240 O241 1.258 . S
C240 O242 1.263 . S
O241 Co238 1.970 . S
O241 C240 1.258 . S
O242 Co239 1.966 . S
O242 C240 1.263 . S
C243 O244 1.235 . S
C243 O270 1.289 . S
O244 C243 1.235 . S
C245 C247 1.400 . S
C245 N248 1.351 . S
C245 C250 1.501 . S
C246 C247 1.387 . S
C246 N249 1.341 . S
C247 C245 1.400 . S
C247 C246 1.387 . S
N248 Co239 2.022 . S
N248 C245 1.351 . S
N248 N249 1.365 . S
N249 C246 1.341 . S
N249 N248 1.365 . S
N249 H269 0.862 . S
C250 C245 1.501 . S
C250 H251 0.961 . S
C250 H252 0.961 . S
C250 H253 0.960 . S
H251 C250 0.961 . S
H252 C250 0.961 . S
H253 C250 0.960 . S
C254 N255 1.342 . S
C254 C258 1.401 . S
C254 C259 1.499 . S
N255 Co238 1.989 . S
N255 C254 1.342 . S
N255 N256 1.388 . S
N256 Co239 1.993 . S
N256 N255 1.388 . S
N256 C257 1.346 . S
C257 N256 1.346 . S
C257 C258 1.396 . S
C257 C267 1.510 . S
C258 C254 1.401 . S
C258 C257 1.396 . S
C259 C254 1.499 . S
C259 H260 0.959 . S
C259 H261 0.960 . S
C259 H262 0.961 . S
H260 C259 0.959 . S
H261 C259 0.960 . S
H262 C259 0.961 . S
O263 Co238 1.967 . S
O263 C271 1.258 . S
O264 Co239 1.941 . S
O264 C271 1.266 . S
H265 C267 0.959 . S
H266 C267 0.961 . S
C267 C257 1.510 . S
C267 H265 0.959 . S
C267 H266 0.961 . S
C267 H268 0.960 . S
H268 C267 0.960 . S
H269 N249 0.862 . S
O270 Co238 1.920 . S
O270 C243 1.289 . S
C271 O263 1.258 . S
C271 O264 1.266 . S
Co272 O275 1.970 . S
Co272 N289 1.989 . S
Co272 O297 1.967 . S
Co272 O304 1.920 . S
Co273 O276 1.966 . S
Co273 N282 2.022 . S
Co273 N290 1.993 . S
Co273 O298 1.941 . S
C274 O275 1.258 . S
C274 O276 1.263 . S
O275 Co272 1.970 . S
O275 C274 1.258 . S
O276 Co273 1.966 . S
O276 C274 1.263 . S
C277 O278 1.235 . S
C277 O304 1.289 . S
O278 C277 1.235 . S
C279 C281 1.400 . S
C279 N282 1.351 . S
C279 C284 1.501 . S
C280 C281 1.387 . S
C280 N283 1.341 . S
C281 C279 1.400 . S
C281 C280 1.387 . S
N282 Co273 2.022 . S
N282 C279 1.351 . S
N282 N283 1.365 . S
N283 C280 1.341 . S
N283 N282 1.365 . S
N283 H303 0.862 . S
C284 C279 1.501 . S
C284 H285 0.961 . S
C284 H286 0.961 . S
C284 H287 0.960 . S
H285 C284 0.961 . S
H286 C284 0.961 . S
H287 C284 0.960 . S
C288 N289 1.342 . S
C288 C292 1.401 . S
C288 C293 1.499 . S
N289 Co272 1.989 . S
N289 C288 1.342 . S
N289 N290 1.388 . S
N290 Co273 1.993 . S
N290 N289 1.388 . S
N290 C291 1.346 . S
C291 N290 1.346 . S
C291 C292 1.396 . S
C291 C301 1.510 . S
C292 C288 1.401 . S
C292 C291 1.396 . S
C293 C288 1.499 . S
C293 H294 0.959 . S
C293 H295 0.960 . S
C293 H296 0.961 . S
H294 C293 0.959 . S
H295 C293 0.960 . S
H296 C293 0.961 . S
O297 Co272 1.967 . S
O297 C305 1.258 . S
O298 Co273 1.941 . S
O298 C305 1.266 . S
H299 C301 0.959 . S
H300 C301 0.961 . S
C301 C291 1.510 . S
C301 H299 0.959 . S
C301 H300 0.961 . S
C301 H302 0.960 . S
H302 C301 0.960 . S
H303 N283 0.862 . S
O304 Co272 1.920 . S
O304 C277 1.289 . S
C305 O297 1.258 . S
C305 O298 1.266 . S
Co306 O309 1.970 . S
Co306 N323 1.989 . S
Co306 O331 1.967 . S
Co306 O338 1.920 . S
Co307 O310 1.966 . S
Co307 N316 2.022 1_655 S
Co307 N324 1.993 . S
Co307 O332 1.941 . S
C308 O309 1.258 . S
C308 O310 1.263 . S
O309 Co306 1.970 . S
O309 C308 1.258 . S
O310 Co307 1.966 . S
O310 C308 1.263 . S
C311 O312 1.235 . S
C311 O338 1.289 . S
O312 C311 1.235 . S
C313 C315 1.400 . S
C313 N316 1.351 . S
C313 C318 1.501 . S
C314 C315 1.387 . S
C314 N317 1.341 . S
C315 C313 1.400 . S
C315 C314 1.387 . S
N316 Co307 2.022 1_455 S
N316 C313 1.351 . S
N316 N317 1.365 . S
N317 C314 1.341 . S
N317 N316 1.365 . S
N317 H337 0.859 1_455 S
C318 C313 1.501 . S
C318 H319 0.961 . S
C318 H320 0.961 . S
C318 H321 0.960 . S
H319 C318 0.961 . S
H320 C318 0.961 . S
H321 C318 0.960 . S
C322 N323 1.342 . S
C322 C326 1.401 . S
C322 C327 1.499 . S
N323 Co306 1.989 . S
N323 C322 1.342 . S
N323 N324 1.388 . S
N324 Co307 1.993 . S
N324 N323 1.388 . S
N324 C325 1.346 . S
C325 N324 1.346 . S
C325 C326 1.396 . S
C325 C335 1.510 . S
C326 C322 1.401 . S
C326 C325 1.396 . S
C327 C322 1.499 . S
C327 H328 0.959 . S
C327 H329 0.960 . S
C327 H330 0.961 . S
H328 C327 0.959 . S
H329 C327 0.960 . S
H330 C327 0.961 . S
O331 Co306 1.967 . S
O331 C339 1.258 . S
O332 Co307 1.941 . S
O332 C339 1.266 . S
H333 C335 0.959 . S
H334 C335 0.961 . S
C335 C325 1.510 . S
C335 H333 0.959 . S
C335 H334 0.961 . S
C335 H336 0.960 . S
H336 C335 0.960 . S
H337 N317 0.859 1_655 S
O338 Co306 1.920 . S
O338 C311 1.289 . S
C339 O331 1.258 . S
C339 O332 1.266 . S
Co340 O343 1.970 . S
Co340 N357 1.989 . S
Co340 O365 1.967 . S
Co340 O372 1.920 . S
Co341 O344 1.966 . S
Co341 N350 2.022 . S
Co341 N358 1.993 . S
Co341 O366 1.941 . S
C342 O343 1.258 . S
C342 O344 1.263 . S
O343 Co340 1.970 . S
O343 C342 1.258 . S
O344 Co341 1.966 . S
O344 C342 1.263 . S
C345 O346 1.235 . S
C345 O372 1.289 . S
O346 C345 1.235 . S
C347 C349 1.400 . S
C347 N350 1.351 . S
C347 C352 1.501 . S
C348 C349 1.387 . S
C348 N351 1.341 . S
C349 C347 1.400 . S
C349 C348 1.387 . S
N350 Co341 2.022 . S
N350 C347 1.351 . S
N350 N351 1.365 . S
N351 C348 1.341 . S
N351 N350 1.365 . S
N351 H371 0.862 . S
C352 C347 1.501 . S
C352 H353 0.961 . S
C352 H354 0.961 . S
C352 H355 0.960 . S
H353 C352 0.961 . S
H354 C352 0.961 . S
H355 C352 0.960 . S
C356 N357 1.342 . S
C356 C360 1.401 . S
C356 C361 1.499 . S
N357 Co340 1.989 . S
N357 C356 1.342 . S
N357 N358 1.388 . S
N358 Co341 1.993 . S
N358 N357 1.388 . S
N358 C359 1.346 . S
C359 N358 1.346 . S
C359 C360 1.396 . S
C359 C369 1.510 . S
C360 C356 1.401 . S
C360 C359 1.396 . S
C361 C356 1.499 . S
C361 H362 0.959 . S
C361 H363 0.960 . S
C361 H364 0.961 . S
H362 C361 0.959 . S
H363 C361 0.960 . S
H364 C361 0.961 . S
O365 Co340 1.967 . S
O365 C373 1.258 . S
O366 Co341 1.941 . S
O366 C373 1.266 . S
H367 C369 0.959 . S
H368 C369 0.961 . S
C369 C359 1.510 . S
C369 H367 0.959 . S
C369 H368 0.961 . S
C369 H370 0.960 . S
H370 C369 0.960 . S
H371 N351 0.862 . S
O372 Co340 1.920 . S
O372 C345 1.289 . S
C373 O365 1.258 . S
C373 O366 1.266 . S
Co374 O377 1.970 . S
Co374 N391 1.989 . S
Co374 O399 1.967 . S
Co374 O406 1.920 . S
Co375 O378 1.966 . S
Co375 N384 2.022 1_545 S
Co375 N392 1.993 . S
Co375 O400 1.941 . S
C376 O377 1.258 . S
C376 O378 1.263 . S
O377 Co374 1.970 . S
O377 C376 1.258 . S
O378 Co375 1.966 . S
O378 C376 1.263 . S
C379 O380 1.235 . S
C379 O406 1.289 . S
O380 C379 1.235 . S
C381 C383 1.400 . S
C381 N384 1.351 . S
C381 C386 1.501 . S
C382 C383 1.387 . S
C382 N385 1.341 . S
C383 C381 1.400 . S
C383 C382 1.387 . S
N384 Co375 2.022 1_565 S
N384 C381 1.351 . S
N384 N385 1.365 . S
N385 C382 1.341 . S
N385 N384 1.365 . S
N385 H405 0.862 . S
C386 C381 1.501 . S
C386 H387 0.961 . S
C386 H388 0.961 . S
C386 H389 0.960 . S
H387 C386 0.961 . S
H388 C386 0.961 . S
H389 C386 0.960 . S
C390 N391 1.342 . S
C390 C394 1.401 . S
C390 C395 1.499 . S
N391 Co374 1.989 . S
N391 C390 1.342 . S
N391 N392 1.388 . S
N392 Co375 1.993 . S
N392 N391 1.388 . S
N392 C393 1.346 . S
C393 N392 1.346 . S
C393 C394 1.396 . S
C393 C403 1.510 . S
C394 C390 1.401 . S
C394 C393 1.396 . S
C395 C390 1.499 . S
C395 H396 0.959 . S
C395 H397 0.960 . S
C395 H398 0.961 . S
H396 C395 0.959 . S
H397 C395 0.960 . S
H398 C395 0.961 . S
O399 Co374 1.967 . S
O399 C407 1.258 . S
O400 Co375 1.941 . S
O400 C407 1.266 . S
H401 C403 0.959 . S
H402 C403 0.961 . S
C403 C393 1.510 . S
C403 H401 0.959 . S
C403 H402 0.961 . S
C403 H404 0.960 . S
H404 C403 0.960 . S
H405 N385 0.862 . S
O406 Co374 1.920 . S
O406 C379 1.289 . S
C407 O399 1.258 . S
C407 O400 1.266 . S
Co408 O411 1.970 . S
Co408 N425 1.989 . S
Co408 O433 1.967 . S
Co408 O440 1.920 . S
Co409 O412 1.966 . S
Co409 N418 2.022 1_565 S
Co409 N426 1.993 . S
Co409 O434 1.941 . S
C410 O411 1.258 . S
C410 O412 1.263 . S
O411 Co408 1.970 . S
O411 C410 1.258 . S
O412 Co409 1.966 . S
O412 C410 1.263 . S
C413 O414 1.235 . S
C413 O440 1.289 . S
O414 C413 1.235 . S
C415 C417 1.400 . S
C415 N418 1.351 . S
C415 C420 1.501 . S
C416 C417 1.387 . S
C416 N419 1.341 . S
C417 C415 1.400 . S
C417 C416 1.387 . S
N418 Co409 2.022 1_545 S
N418 C415 1.351 . S
N418 N419 1.365 . S
N419 C416 1.341 . S
N419 N418 1.365 . S
N419 H439 0.859 1_545 S
C420 C415 1.501 . S
C420 H421 0.961 . S
C420 H422 0.961 . S
C420 H423 0.960 . S
H421 C420 0.961 . S
H422 C420 0.961 . S
H423 C420 0.960 . S
C424 N425 1.342 . S
C424 C428 1.401 . S
C424 C429 1.499 . S
N425 Co408 1.989 . S
N425 C424 1.342 . S
N425 N426 1.388 . S
N426 Co409 1.993 . S
N426 N425 1.388 . S
N426 C427 1.346 . S
C427 N426 1.346 . S
C427 C428 1.396 . S
C427 C437 1.510 . S
C428 C424 1.401 . S
C428 C427 1.396 . S
C429 C424 1.499 . S
C429 H430 0.959 . S
C429 H431 0.960 . S
C429 H432 0.961 . S
H430 C429 0.959 . S
H431 C429 0.960 . S
H432 C429 0.961 . S
O433 Co408 1.967 . S
O433 C441 1.258 . S
O434 Co409 1.941 . S
O434 C441 1.266 . S
H435 C437 0.959 . S
H436 C437 0.961 . S
C437 C427 1.510 . S
C437 H435 0.959 . S
C437 H436 0.961 . S
C437 H438 0.960 . S
H438 C437 0.960 . S
H439 N419 0.859 1_565 S
O440 Co408 1.920 . S
O440 C413 1.289 . S
C441 O433 1.258 . S
C441 O434 1.266 . S
Co442 O445 1.970 . S
Co442 N459 1.989 . S
Co442 O467 1.967 . S
Co442 O474 1.920 . S
Co443 O446 1.966 . S
Co443 N452 2.022 1_455 S
Co443 N460 1.993 . S
Co443 O468 1.941 . S
C444 O445 1.258 . S
C444 O446 1.263 . S
O445 Co442 1.970 . S
O445 C444 1.258 . S
O446 Co443 1.966 . S
O446 C444 1.263 . S
C447 O448 1.235 . S
C447 O474 1.289 . S
O448 C447 1.235 . S
C449 C451 1.400 . S
C449 N452 1.351 . S
C449 C454 1.501 . S
C450 C451 1.387 . S
C450 N453 1.341 . S
C451 C449 1.400 . S
C451 C450 1.387 . S
N452 Co443 2.022 1_655 S
N452 C449 1.351 . S
N452 N453 1.365 . S
N453 C450 1.341 . S
N453 N452 1.365 . S
N453 H473 0.862 . S
C454 C449 1.501 . S
C454 H455 0.961 . S
C454 H456 0.961 . S
C454 H457 0.960 . S
H455 C454 0.961 . S
H456 C454 0.961 . S
H457 C454 0.960 . S
C458 N459 1.342 . S
C458 C462 1.401 . S
C458 C463 1.499 . S
N459 Co442 1.989 . S
N459 C458 1.342 . S
N459 N460 1.388 . S
N460 Co443 1.993 . S
N460 N459 1.388 . S
N460 C461 1.346 . S
C461 N460 1.346 . S
C461 C462 1.396 . S
C461 C471 1.510 . S
C462 C458 1.401 . S
C462 C461 1.396 . S
C463 C458 1.499 . S
C463 H464 0.959 . S
C463 H465 0.960 . S
C463 H466 0.961 . S
H464 C463 0.959 . S
H465 C463 0.960 . S
H466 C463 0.961 . S
O467 Co442 1.967 . S
O467 C475 1.258 . S
O468 Co443 1.941 . S
O468 C475 1.266 . S
H469 C471 0.959 . S
H470 C471 0.961 . S
C471 C461 1.510 . S
C471 H469 0.959 . S
C471 H470 0.961 . S
C471 H472 0.960 . S
H472 C471 0.960 . S
H473 N453 0.862 . S
O474 Co442 1.920 . S
O474 C447 1.289 . S
C475 O467 1.258 . S
C475 O468 1.266 . S
Co476 O479 1.970 . S
Co476 N493 1.989 . S
Co476 O501 1.967 . S
Co476 O508 1.920 . S
Co477 O480 1.966 . S
Co477 N486 2.022 . S
Co477 N494 1.993 . S
Co477 O502 1.941 . S
C478 O479 1.258 . S
C478 O480 1.263 . S
O479 Co476 1.970 . S
O479 C478 1.258 . S
O480 Co477 1.966 . S
O480 C478 1.263 . S
C481 O482 1.235 . S
C481 O508 1.289 . S
O482 C481 1.235 . S
C483 C485 1.400 . S
C483 N486 1.351 . S
C483 C488 1.501 . S
C484 C485 1.387 . S
C484 N487 1.341 . S
C485 C483 1.400 . S
C485 C484 1.387 . S
N486 Co477 2.022 . S
N486 C483 1.351 . S
N486 N487 1.365 . S
N487 C484 1.341 . S
N487 N486 1.365 . S
N487 H507 0.862 . S
C488 C483 1.501 . S
C488 H489 0.961 . S
C488 H490 0.961 . S
C488 H491 0.960 . S
H489 C488 0.961 . S
H490 C488 0.961 . S
H491 C488 0.960 . S
C492 N493 1.342 . S
C492 C496 1.401 . S
C492 C497 1.499 . S
N493 Co476 1.989 . S
N493 C492 1.342 . S
N493 N494 1.388 . S
N494 Co477 1.993 . S
N494 N493 1.388 . S
N494 C495 1.346 . S
C495 N494 1.346 . S
C495 C496 1.396 . S
C495 C505 1.510 . S
C496 C492 1.401 . S
C496 C495 1.396 . S
C497 C492 1.499 . S
C497 H498 0.959 . S
C497 H499 0.960 . S
C497 H500 0.961 . S
H498 C497 0.959 . S
H499 C497 0.960 . S
H500 C497 0.961 . S
O501 Co476 1.967 . S
O501 C509 1.258 . S
O502 Co477 1.941 . S
O502 C509 1.266 . S
H503 C505 0.959 . S
H504 C505 0.961 . S
C505 C495 1.510 . S
C505 H503 0.959 . S
C505 H504 0.961 . S
C505 H506 0.960 . S
H506 C505 0.960 . S
H507 N487 0.862 . S
O508 Co476 1.920 . S
O508 C481 1.289 . S
C509 O501 1.258 . S
C509 O502 1.266 . S
Co510 O513 1.970 . S
Co510 N527 1.989 . S
Co510 O535 1.967 . S
Co510 O542 1.920 . S
Co511 O514 1.966 . S
Co511 N520 2.022 . S
Co511 N528 1.993 . S
Co511 O536 1.941 . S
C512 O513 1.258 . S
C512 O514 1.263 . S
O513 Co510 1.970 . S
O513 C512 1.258 . S
O514 Co511 1.966 . S
O514 C512 1.263 . S
C515 O516 1.235 . S
C515 O542 1.289 . S
O516 C515 1.235 . S
C517 C519 1.400 . S
C517 N520 1.351 . S
C517 C522 1.501 . S
C518 C519 1.387 . S
C518 N521 1.341 . S
C519 C517 1.400 . S
C519 C518 1.387 . S
N520 Co511 2.022 . S
N520 C517 1.351 . S
N520 N521 1.365 . S
N521 C518 1.341 . S
N521 N520 1.365 . S
N521 H541 0.862 . S
C522 C517 1.501 . S
C522 H523 0.961 . S
C522 H524 0.961 . S
C522 H525 0.960 . S
H523 C522 0.961 . S
H524 C522 0.961 . S
H525 C522 0.960 . S
C526 N527 1.342 . S
C526 C530 1.401 . S
C526 C531 1.499 . S
N527 Co510 1.989 . S
N527 C526 1.342 . S
N527 N528 1.388 . S
N528 Co511 1.993 . S
N528 N527 1.388 . S
N528 C529 1.346 . S
C529 N528 1.346 . S
C529 C530 1.396 . S
C529 C539 1.510 . S
C530 C526 1.401 . S
C530 C529 1.396 . S
C531 C526 1.499 . S
C531 H532 0.959 . S
C531 H533 0.960 . S
C531 H534 0.961 . S
H532 C531 0.959 . S
H533 C531 0.960 . S
H534 C531 0.961 . S
O535 Co510 1.967 . S
O535 C543 1.258 . S
O536 Co511 1.941 . S
O536 C543 1.266 . S
H537 C539 0.959 . S
H538 C539 0.961 . S
C539 C529 1.510 . S
C539 H537 0.959 . S
C539 H538 0.961 . S
C539 H540 0.960 . S
H540 C539 0.960 . S
H541 N521 0.862 . S
O542 Co510 1.920 . S
O542 C515 1.289 . S
C543 O535 1.258 . S
C543 O536 1.266 . S
Co544 O547 1.970 . S
Co544 N561 1.989 . S
Co544 O569 1.967 . S
Co544 O576 1.920 . S
Co545 O548 1.966 . S
Co545 N554 2.022 . S
Co545 N562 1.993 . S
Co545 O570 1.941 . S
C546 O547 1.258 . S
C546 O548 1.263 . S
O547 Co544 1.970 . S
O547 C546 1.258 . S
O548 Co545 1.966 . S
O548 C546 1.263 . S
C549 O550 1.235 . S
C549 O576 1.289 . S
O550 C549 1.235 . S
C551 C553 1.400 . S
C551 N554 1.351 . S
C551 C556 1.501 . S
C552 C553 1.387 . S
C552 N555 1.341 . S
C553 C551 1.400 . S
C553 C552 1.387 . S
N554 Co545 2.022 . S
N554 C551 1.351 . S
N554 N555 1.365 . S
N555 C552 1.341 . S
N555 N554 1.365 . S
N555 H575 0.862 . S
C556 C551 1.501 . S
C556 H557 0.961 . S
C556 H558 0.961 . S
C556 H559 0.960 . S
H557 C556 0.961 . S
H558 C556 0.961 . S
H559 C556 0.960 . S
C560 N561 1.342 . S
C560 C564 1.401 . S
C560 C565 1.499 . S
N561 Co544 1.989 . S
N561 C560 1.342 . S
N561 N562 1.388 . S
N562 Co545 1.993 . S
N562 N561 1.388 . S
N562 C563 1.346 . S
C563 N562 1.346 . S
C563 C564 1.396 . S
C563 C573 1.510 . S
C564 C560 1.401 . S
C564 C563 1.396 . S
C565 C560 1.499 . S
C565 H566 0.959 . S
C565 H567 0.960 . S
C565 H568 0.961 . S
H566 C565 0.959 . S
H567 C565 0.960 . S
H568 C565 0.961 . S
O569 Co544 1.967 . S
O569 C577 1.258 . S
O570 Co545 1.941 . S
O570 C577 1.266 . S
H571 C573 0.959 . S
H572 C573 0.961 . S
C573 C563 1.510 . S
C573 H571 0.959 . S
C573 H572 0.961 . S
C573 H574 0.960 . S
H574 C573 0.960 . S
H575 N555 0.862 . S
O576 Co544 1.920 . S
O576 C549 1.289 . S
C577 O569 1.258 . S
C577 O570 1.266 . S
Co578 O581 1.970 . S
Co578 N595 1.989 . S
Co578 O603 1.967 . S
Co578 O610 1.920 . S
Co579 O582 1.966 . S
Co579 N588 2.022 . S
Co579 N596 1.993 . S
Co579 O604 1.941 . S
C580 O581 1.258 . S
C580 O582 1.263 . S
O581 Co578 1.970 . S
O581 C580 1.258 . S
O582 Co579 1.966 . S
O582 C580 1.263 . S
C583 O584 1.235 . S
C583 O610 1.289 . S
O584 C583 1.235 . S
C585 C587 1.400 . S
C585 N588 1.351 . S
C585 C590 1.501 . S
C586 C587 1.387 . S
C586 N589 1.341 . S
C587 C585 1.400 . S
C587 C586 1.387 . S
N588 Co579 2.022 . S
N588 C585 1.351 . S
N588 N589 1.365 . S
N589 C586 1.341 . S
N589 N588 1.365 . S
N589 H609 0.862 . S
C590 C585 1.501 . S
C590 H591 0.961 . S
C590 H592 0.961 . S
C590 H593 0.960 . S
H591 C590 0.961 . S
H592 C590 0.961 . S
H593 C590 0.960 . S
C594 N595 1.342 . S
C594 C598 1.401 . S
C594 C599 1.499 . S
N595 Co578 1.989 . S
N595 C594 1.342 . S
N595 N596 1.388 . S
N596 Co579 1.993 . S
N596 N595 1.388 . S
N596 C597 1.346 . S
C597 N596 1.346 . S
C597 C598 1.396 . S
C597 C607 1.510 . S
C598 C594 1.401 . S
C598 C597 1.396 . S
C599 C594 1.499 . S
C599 H600 0.959 . S
C599 H601 0.960 . S
C599 H602 0.961 . S
H600 C599 0.959 . S
H601 C599 0.960 . S
H602 C599 0.961 . S
O603 Co578 1.967 . S
O603 C611 1.258 . S
O604 Co579 1.941 . S
O604 C611 1.266 . S
H605 C607 0.959 . S
H606 C607 0.961 . S
C607 C597 1.510 . S
C607 H605 0.959 . S
C607 H606 0.961 . S
C607 H608 0.960 . S
H608 C607 0.960 . S
H609 N589 0.862 . S
O610 Co578 1.920 . S
O610 C583 1.289 . S
C611 O603 1.258 . S
C611 O604 1.266 . S
C612 C613 1.387 . S
C612 H616 0.950 . S
C612 C621 1.390 . S
C613 C612 1.387 . S
C613 C615 1.387 . S
H614 C621 0.950 . S
C615 C613 1.387 . S
C615 C617 1.390 . S
C615 H619 0.950 . S
H616 C612 0.950 . S
C617 C615 1.390 . S
C617 C618 1.387 . S
C617 H620 0.950 . S
C618 C617 1.387 . S
C618 C621 1.387 . S
H619 C615 0.950 . S
H620 C617 0.950 . S
C621 C612 1.390 . S
C621 H614 0.950 . S
C621 C618 1.387 . S
C622 C623 1.387 . S
C622 H626 0.950 . S
C622 C631 1.390 . S
C623 C622 1.387 . S
C623 C625 1.387 . S
H624 C631 0.950 . S
C625 C623 1.387 . S
C625 C627 1.390 . S
C625 H629 0.950 . S
H626 C622 0.950 . S
C627 C625 1.390 . S
C627 C628 1.387 . S
C627 H630 0.950 . S
C628 C627 1.387 . S
C628 C631 1.387 . S
H629 C625 0.950 . S
H630 C627 0.950 . S
C631 C622 1.390 . S
C631 H624 0.950 . S
C631 C628 1.387 . S
C632 C633 1.387 . S
C632 H636 0.949 . S
C632 C641 1.390 . S
C633 C632 1.387 . S
C633 C635 1.387 . S
H634 C641 0.950 . S
C635 C633 1.387 . S
C635 C637 1.390 . S
C635 H639 0.950 . S
H636 C632 0.949 . S
C637 C635 1.390 . S
C637 C638 1.387 . S
C637 H640 0.950 . S
C638 C637 1.387 . S
C638 C641 1.387 . S
H639 C635 0.950 . S
H640 C637 0.950 . S
C641 C632 1.390 . S
C641 H634 0.950 . S
C641 C638 1.387 . S
C642 C643 1.387 . S
C642 H646 0.950 . S
C642 C651 1.390 . S
C643 C642 1.387 . S
C643 C645 1.387 . S
H644 C651 0.950 . S
C645 C643 1.387 . S
C645 C647 1.390 . S
C645 H649 0.950 . S
H646 C642 0.950 . S
C647 C645 1.390 . S
C647 C648 1.387 . S
C647 H650 0.950 . S
C648 C647 1.387 . S
C648 C651 1.387 . S
H649 C645 0.950 . S
H650 C647 0.950 . S
C651 C642 1.390 . S
C651 H644 0.950 . S
C651 C648 1.387 . S
C652 C653 1.387 . S
C652 H656 0.950 . S
C652 C661 1.390 . S
C653 C652 1.387 . S
C653 C655 1.387 . S
H654 C661 0.950 . S
C655 C653 1.387 . S
C655 C657 1.390 . S
C655 H659 0.950 . S
H656 C652 0.950 . S
C657 C655 1.390 . S
C657 C658 1.387 . S
C657 H660 0.950 . S
C658 C657 1.387 . S
C658 C661 1.387 . S
H659 C655 0.950 . S
H660 C657 0.950 . S
C661 C652 1.390 . S
C661 H654 0.950 . S
C661 C658 1.387 . S
C662 C663 1.387 . S
C662 H666 0.950 . S
C662 C671 1.390 . S
C663 C662 1.387 . S
C663 C665 1.387 . S
H664 C671 0.950 . S
C665 C663 1.387 . S
C665 C667 1.390 . S
C665 H669 0.950 . S
H666 C662 0.950 . S
C667 C665 1.390 . S
C667 C668 1.387 . S
C667 H670 0.950 . S
C668 C667 1.387 . S
C668 C671 1.387 . S
H669 C665 0.950 . S
H670 C667 0.950 . S
C671 C662 1.390 . S
C671 H664 0.950 . S
C671 C668 1.387 . S
C672 C673 1.387 . S
C672 H676 0.950 . S
C672 C681 1.390 . S
C673 C672 1.387 . S
C673 C675 1.387 . S
H674 C681 0.950 . S
C675 C673 1.387 . S
C675 C677 1.390 . S
C675 H679 0.950 . S
H676 C672 0.950 . S
C677 C675 1.390 . S
C677 C678 1.387 . S
C677 H680 0.950 . S
C678 C677 1.387 . S
C678 C681 1.387 . S
H679 C675 0.950 . S
H680 C677 0.950 . S
C681 C672 1.390 . S
C681 H674 0.950 . S
C681 C678 1.387 . S
C682 C683 1.387 1_545 S
C682 H686 0.950 . S
C682 C691 1.390 . S
C683 C682 1.387 1_565 S
C683 C685 1.387 . S
H684 C691 0.950 . S
C685 C683 1.387 . S
C685 C687 1.390 . S
C685 H689 0.950 . S
H686 C682 0.950 . S
C687 C685 1.390 . S
C687 C688 1.387 1_565 S
C687 H690 0.950 . S
C688 C687 1.387 1_545 S
C688 C691 1.387 . S
H689 C685 0.950 . S
H690 C687 0.950 . S
C691 C682 1.390 . S
C691 H684 0.950 . S
C691 C688 1.387 . S
C692 C693 1.387 1_655 S
C692 H696 0.950 . S
C692 C701 1.390 . S
C693 C692 1.387 1_455 S
C693 C695 1.387 . S
H694 C701 0.950 . S
C695 C693 1.387 . S
C695 C697 1.390 . S
C695 H699 0.950 . S
H696 C692 0.950 . S
C697 C695 1.390 . S
C697 C698 1.387 1_455 S
C697 H700 0.950 . S
C698 C697 1.387 1_655 S
C698 C701 1.387 . S
H699 C695 0.950 . S
H700 C697 0.950 . S
C701 C692 1.390 . S
C701 H694 0.950 . S
C701 C698 1.387 . S
C702 C703 1.387 . S
C702 H706 0.950 . S
C702 C711 1.390 . S
C703 C702 1.387 . S
C703 C705 1.387 . S
H704 C711 0.950 . S
C705 C703 1.387 . S
C705 C707 1.390 . S
C705 H709 0.950 . S
H706 C702 0.950 . S
C707 C705 1.390 . S
C707 C708 1.387 . S
C707 H710 0.950 . S
C708 C707 1.387 . S
C708 C711 1.387 . S
H709 C705 0.950 . S
H710 C707 0.950 . S
C711 C702 1.390 . S
C711 H704 0.950 . S
C711 C708 1.387 . S
C712 C713 1.387 1_545 S
C712 H716 0.950 . S
C712 C721 1.390 . S
C713 C712 1.387 1_565 S
C713 C715 1.387 . S
H714 C721 0.950 . S
C715 C713 1.387 . S
C715 C717 1.390 . S
C715 H719 0.950 . S
H716 C712 0.950 . S
C717 C715 1.390 . S
C717 C718 1.387 1_565 S
C717 H720 0.950 . S
C718 C717 1.387 1_545 S
C718 C721 1.387 . S
H719 C715 0.950 . S
H720 C717 0.950 . S
C721 C712 1.390 . S
C721 H714 0.950 . S
C721 C718 1.387 . S
C722 C723 1.387 1_655 S
C722 H726 0.950 . S
C722 C731 1.390 . S
C723 C722 1.387 1_455 S
C723 C725 1.387 . S
H724 C731 0.950 . S
C725 C723 1.387 . S
C725 C727 1.390 . S
C725 H729 0.950 . S
H726 C722 0.950 . S
C727 C725 1.390 . S
C727 C728 1.387 1_455 S
C727 H730 0.950 . S
C728 C727 1.387 1_655 S
C728 C731 1.387 . S
H729 C725 0.950 . S
H730 C727 0.950 . S
C731 C722 1.390 . S
C731 H724 0.950 . S
C731 C728 1.387 . S
C732 C733 1.387 . S
C732 H736 0.950 . S
C732 C741 1.390 1_455 S
C733 C732 1.387 . S
C733 C735 1.387 . S
H734 C741 0.950 . S
C735 C733 1.387 . S
C735 C737 1.390 1_455 S
C735 H739 0.950 . S
H736 C732 0.950 . S
C737 C735 1.390 1_655 S
C737 C738 1.387 . S
C737 H740 0.950 . S
C738 C737 1.387 . S
C738 C741 1.387 . S
H739 C735 0.950 . S
H740 C737 0.950 . S
C741 C732 1.390 1_655 S
C741 H734 0.950 . S
C741 C738 1.387 . S
C742 C743 1.387 . S
C742 H746 0.950 . S
C742 C751 1.390 . S
C743 C742 1.387 . S
C743 C745 1.387 . S
H744 C751 0.950 . S
C745 C743 1.387 . S
C745 C747 1.390 . S
C745 H749 0.950 . S
H746 C742 0.950 . S
C747 C745 1.390 . S
C747 C748 1.387 . S
C747 H750 0.950 . S
C748 C747 1.387 . S
C748 C751 1.387 . S
H749 C745 0.950 . S
H750 C747 0.950 . S
C751 C742 1.390 . S
C751 H744 0.950 . S
C751 C748 1.387 . S
C752 C753 1.387 . S
C752 H756 0.950 . S
C752 C761 1.390 1_565 S
C753 C752 1.387 . S
C753 C755 1.387 . S
H754 C761 0.950 . S
C755 C753 1.387 . S
C755 C757 1.390 1_565 S
C755 H759 0.950 . S
H756 C752 0.950 . S
C757 C755 1.390 1_545 S
C757 C758 1.387 . S
C757 H760 0.950 . S
C758 C757 1.387 . S
C758 C761 1.387 . S
H759 C755 0.950 . S
H760 C757 0.950 . S
C761 C752 1.390 1_545 S
C761 H754 0.950 . S
C761 C758 1.387 . S
C762 C763 1.387 . S
C762 H766 0.950 . S
C762 C771 1.390 1_545 S
C763 C762 1.387 . S
C763 C765 1.387 . S
H764 C771 0.950 . S
C765 C763 1.387 . S
C765 C767 1.390 1_545 S
C765 H769 0.950 . S
H766 C762 0.950 . S
C767 C765 1.390 1_565 S
C767 C768 1.387 . S
C767 H770 0.950 . S
C768 C767 1.387 . S
C768 C771 1.387 . S
H769 C765 0.950 . S
H770 C767 0.950 . S
C771 C762 1.390 1_565 S
C771 H764 0.950 . S
C771 C768 1.387 . S
C772 C773 1.387 . S
C772 H776 0.950 . S
C772 C781 1.390 1_455 S
C773 C772 1.387 . S
C773 C775 1.387 . S
H774 C781 0.950 . S
C775 C773 1.387 . S
C775 C777 1.390 1_455 S
C775 H779 0.950 . S
H776 C772 0.950 . S
C777 C775 1.390 1_655 S
C777 C778 1.387 . S
C777 H780 0.950 . S
C778 C777 1.387 . S
C778 C781 1.387 . S
H779 C775 0.950 . S
H780 C777 0.950 . S
C781 C772 1.390 1_655 S
C781 H774 0.950 . S
C781 C778 1.387 . S
C782 C783 1.387 . S
C782 H786 0.950 . S
C782 C791 1.390 . S
C783 C782 1.387 . S
C783 C785 1.387 . S
H784 C791 0.950 . S
C785 C783 1.387 . S
C785 C787 1.390 . S
C785 H789 0.950 . S
H786 C782 0.950 . S
C787 C785 1.390 . S
C787 C788 1.387 . S
C787 H790 0.950 . S
C788 C787 1.387 . S
C788 C791 1.387 . S
H789 C785 0.950 . S
H790 C787 0.950 . S
C791 C782 1.390 . S
C791 H784 0.950 . S
C791 C788 1.387 . S
C792 C793 1.387 . S
C792 H796 0.950 . S
C792 C801 1.390 . S
C793 C792 1.387 . S
C793 C795 1.387 . S
H794 C801 0.950 . S
C795 C793 1.387 . S
C795 C797 1.390 . S
C795 H799 0.950 . S
H796 C792 0.950 . S
C797 C795 1.390 . S
C797 C798 1.387 . S
C797 H800 0.950 . S
C798 C797 1.387 . S
C798 C801 1.387 . S
H799 C795 0.950 . S
H800 C797 0.950 . S
C801 C792 1.390 . S
C801 H794 0.950 . S
C801 C798 1.387 . S
C802 C803 1.387 . S
C802 H806 0.950 . S
C802 C811 1.390 . S
C803 C802 1.387 . S
C803 C805 1.387 . S
H804 C811 0.950 . S
C805 C803 1.387 . S
C805 C807 1.390 . S
C805 H809 0.950 . S
H806 C802 0.950 . S
C807 C805 1.390 . S
C807 C808 1.387 . S
C807 H810 0.950 . S
C808 C807 1.387 . S
C808 C811 1.387 . S
H809 C805 0.950 . S
H810 C807 0.950 . S
C811 C802 1.390 . S
C811 H804 0.950 . S
C811 C808 1.387 . S
C812 C813 1.387 . S
C812 H816 0.950 . S
C812 C821 1.390 . S
C813 C812 1.387 . S
C813 C815 1.387 . S
H814 C821 0.950 . S
C815 C813 1.387 . S
C815 C817 1.390 . S
C815 H819 0.950 . S
H816 C812 0.950 . S
C817 C815 1.390 . S
C817 C818 1.387 . S
C817 H820 0.950 . S
C818 C817 1.387 . S
C818 C821 1.387 . S
H819 C815 0.950 . S
H820 C817 0.950 . S
C821 C812 1.390 . S
C821 H814 0.950 . S
C821 C818 1.387 . S
C822 C823 1.387 . S
C822 H826 0.950 . S
C822 C831 1.390 . S
C823 C822 1.387 . S
C823 C825 1.387 . S
H824 C831 0.950 . S
C825 C823 1.387 . S
C825 C827 1.390 . S
C825 H829 0.950 . S
H826 C822 0.950 . S
C827 C825 1.390 . S
C827 C828 1.387 . S
C827 H830 0.950 . S
C828 C827 1.387 . S
C828 C831 1.387 . S
H829 C825 0.950 . S
H830 C827 0.950 . S
C831 C822 1.390 . S
C831 H824 0.950 . S
C831 C828 1.387 . S
C832 C833 1.387 . S
C832 H836 0.950 . S
C832 C841 1.390 . S
C833 C832 1.387 . S
C833 C835 1.387 . S
H834 C841 0.950 . S
C835 C833 1.387 . S
C835 C837 1.390 . S
C835 H839 0.950 . S
H836 C832 0.950 . S
C837 C835 1.390 . S
C837 C838 1.387 . S
C837 H840 0.950 . S
C838 C837 1.387 . S
C838 C841 1.387 . S
H839 C835 0.950 . S
H840 C837 0.950 . S
C841 C832 1.390 . S
C841 H834 0.950 . S
C841 C838 1.387 . S
C842 C843 1.387 . S
C842 H846 0.950 . S
C842 C851 1.390 . S
C843 C842 1.387 . S
C843 C845 1.387 . S
H844 C851 0.950 . S
C845 C843 1.387 . S
C845 C847 1.390 . S
C845 H849 0.950 . S
H846 C842 0.950 . S
C847 C845 1.390 . S
C847 C848 1.387 . S
C847 H850 0.950 . S
C848 C847 1.387 . S
C848 C851 1.387 . S
H849 C845 0.950 . S
H850 C847 0.950 . S
C851 C842 1.390 . S
C851 H844 0.950 . S
C851 C848 1.387 . S
C852 C853 1.387 . S
C852 H856 0.950 . S
C852 C861 1.390 1_554 S
C853 C852 1.387 . S
C853 C855 1.387 1_655 S
H854 C861 0.950 . S
C855 C853 1.387 1_455 S
C855 C857 1.390 1_554 S
C855 H859 0.950 . S
H856 C852 0.950 . S
C857 C855 1.390 1_556 S
C857 C858 1.387 . S
C857 H860 0.950 . S
C858 C857 1.387 . S
C858 C861 1.387 1_455 S
H859 C855 0.950 . S
H860 C857 0.950 . S
C861 C852 1.390 1_556 S
C861 H854 0.950 . S
C861 C858 1.387 1_655 S
C862 C863 1.387 . S
C862 H866 0.950 . S
C862 C871 1.390 1_554 S
C863 C862 1.387 . S
C863 C865 1.387 . S
H864 C871 0.950 . S
C865 C863 1.387 . S
C865 C867 1.390 1_554 S
C865 H869 0.950 . S
H866 C862 0.950 . S
C867 C865 1.390 1_556 S
C867 C868 1.387 . S
C867 H870 0.950 . S
C868 C867 1.387 . S
C868 C871 1.387 . S
H869 C865 0.950 . S
H870 C867 0.950 . S
C871 C862 1.390 1_556 S
C871 H864 0.950 . S
C871 C868 1.387 . S
C872 C873 1.387 . S
C872 H876 0.950 . S
C872 C881 1.390 1_544 S
C873 C872 1.387 . S
C873 C875 1.387 . S
H874 C881 0.950 . S
C875 C873 1.387 . S
C875 C877 1.390 1_544 S
C875 H879 0.950 . S
H876 C872 0.950 . S
C877 C875 1.390 1_566 S
C877 C878 1.387 . S
C877 H880 0.950 . S
C878 C877 1.387 . S
C878 C881 1.387 . S
H879 C875 0.950 . S
H880 C877 0.950 . S
C881 C872 1.390 1_566 S
C881 H874 0.950 . S
C881 C878 1.387 . S
C882 C883 1.387 . S
C882 H886 0.950 . S
C882 C891 1.390 . S
C883 C882 1.387 . S
C883 C885 1.387 . S
H884 C891 0.950 . S
C885 C883 1.387 . S
C885 C887 1.390 . S
C885 H889 0.950 . S
H886 C882 0.950 . S
C887 C885 1.390 . S
C887 C888 1.387 . S
C887 H890 0.950 . S
C888 C887 1.387 . S
C888 C891 1.387 . S
H889 C885 0.950 . S
H890 C887 0.950 . S
C891 C882 1.390 . S
C891 H884 0.950 . S
C891 C888 1.387 . S
C892 C893 1.400 . S
C892 H896 0.950 . S
C892 C901 1.390 . S
C893 C892 1.400 . S
C893 C895 1.388 . S
H894 C901 0.950 . S
C895 C893 1.388 . S
C895 C897 1.390 . S
C895 H899 0.950 . S
H896 C892 0.950 . S
C897 C895 1.390 . S
C897 C898 1.387 . S
C897 H900 0.950 . S
C898 C897 1.387 . S
C898 C901 1.387 . S
H899 C895 0.950 . S
H900 C897 0.950 . S
C901 C892 1.390 . S
C901 H894 0.950 . S
C901 C898 1.387 . S
C902 C903 1.387 . S
C902 H906 0.950 . S
C902 C911 1.390 . S
C903 C902 1.387 . S
C903 C905 1.387 . S
H904 C911 0.950 . S
C905 C903 1.387 . S
C905 C907 1.390 . S
C905 H909 0.950 . S
H906 C902 0.950 . S
C907 C905 1.390 . S
C907 C908 1.387 . S
C907 H910 0.950 . S
C908 C907 1.387 . S
C908 C911 1.387 . S
H909 C905 0.950 . S
H910 C907 0.950 . S
C911 C902 1.390 . S
C911 H904 0.950 . S
C911 C908 1.387 . S
C912 C913 1.387 . S
C912 H916 0.950 . S
C912 C921 1.390 . S
C913 C912 1.387 . S
C913 C915 1.387 . S
H914 C921 0.950 . S
C915 C913 1.387 . S
C915 C917 1.390 . S
C915 H919 0.950 . S
H916 C912 0.950 . S
C917 C915 1.390 . S
C917 C918 1.387 . S
C917 H920 0.950 . S
C918 C917 1.387 . S
C918 C921 1.387 . S
H919 C915 0.950 . S
H920 C917 0.950 . S
C921 C912 1.390 . S
C921 H914 0.950 . S
C921 C918 1.387 . S
C922 C923 1.387 . S
C922 H926 0.950 . S
C922 C931 1.390 . S
C923 C922 1.387 . S
C923 C925 1.387 . S
H924 C931 0.950 . S
C925 C923 1.387 . S
C925 C927 1.390 . S
C925 H929 0.950 . S
H926 C922 0.950 . S
C927 C925 1.390 . S
C927 C928 1.387 . S
C927 H930 0.950 . S
C928 C927 1.387 . S
C928 C931 1.387 . S
H929 C925 0.950 . S
H930 C927 0.950 . S
C931 C922 1.390 . S
C931 H924 0.950 . S
C931 C928 1.387 . S
C932 C933 1.387 . S
C932 H936 0.950 . S
C932 C941 1.390 . S
C933 C932 1.387 . S
C933 C935 1.387 . S
H934 C941 0.950 . S
C935 C933 1.387 . S
C935 C937 1.390 . S
C935 H939 0.950 . S
H936 C932 0.950 . S
C937 C935 1.390 . S
C937 C938 1.392 . S
C937 H940 0.950 1_455 S
C938 C937 1.392 . S
C938 C941 1.395 . S
H939 C935 0.950 . S
H940 C937 0.950 1_655 S
C941 C932 1.390 . S
C941 H934 0.950 . S
C941 C938 1.395 . S
C942 C943 1.387 . S
C942 H946 0.950 . S
C942 C951 1.390 . S
C943 C942 1.387 . S
C943 C945 1.387 . S
H944 C951 0.950 . S
C945 C943 1.387 . S
C945 C947 1.390 . S
C945 H949 0.950 . S
H946 C942 0.950 . S
C947 C945 1.390 . S
C947 C948 1.387 . S
C947 H950 0.950 . S
C948 C947 1.387 . S
C948 C951 1.387 . S
H949 C945 0.950 . S
H950 C947 0.950 . S
C951 C942 1.390 . S
C951 H944 0.950 . S
C951 C948 1.387 . S
C952 C953 1.387 . S
C952 H956 0.950 . S
C952 C961 1.390 . S
C953 C952 1.387 . S
C953 C955 1.387 . S
H954 C961 0.950 . S
C955 C953 1.387 . S
C955 C957 1.390 . S
C955 H959 0.950 . S
H956 C952 0.950 . S
C957 C955 1.390 . S
C957 C958 1.387 . S
C957 H960 0.950 . S
C958 C957 1.387 . S
C958 C961 1.387 . S
H959 C955 0.950 . S
H960 C957 0.950 . S
C961 C952 1.390 . S
C961 H954 0.950 . S
C961 C958 1.387 . S
C962 C963 1.387 . S
C962 H966 0.950 . S
C962 C971 1.390 . S
C963 C962 1.387 . S
C963 C965 1.387 . S
H964 C971 0.950 . S
C965 C963 1.387 . S
C965 C967 1.390 . S
C965 H969 0.950 . S
H966 C962 0.950 . S
C967 C965 1.390 . S
C967 C968 1.387 . S
C967 H970 0.950 . S
C968 C967 1.387 . S
C968 C971 1.387 . S
H969 C965 0.950 . S
H970 C967 0.950 . S
C971 C962 1.390 . S
C971 H964 0.950 . S
C971 C968 1.387 . S
C972 C973 1.387 . S
C972 H976 0.950 . S
C972 C981 1.390 . S
C973 C972 1.387 . S
C973 C975 1.387 . S
H974 C981 0.950 . S
C975 C973 1.387 . S
C975 C977 1.390 . S
C975 H979 0.950 . S
H976 C972 0.950 . S
C977 C975 1.390 . S
C977 C978 1.387 . S
C977 H980 0.950 . S
C978 C977 1.387 . S
C978 C981 1.387 . S
H979 C975 0.950 . S
H980 C977 0.950 . S
C981 C972 1.390 . S
C981 H974 0.950 . S
C981 C978 1.387 . S
C982 C983 1.387 . S
C982 H986 0.950 . S
C982 C991 1.390 . S
C983 C982 1.387 . S
C983 C985 1.387 . S
H984 C991 0.950 . S
C985 C983 1.387 . S
C985 C987 1.390 . S
C985 H989 0.950 . S
H986 C982 0.950 . S
C987 C985 1.390 . S
C987 C988 1.387 . S
C987 H990 0.950 . S
C988 C987 1.387 . S
C988 C991 1.387 . S
H989 C985 0.950 . S
H990 C987 0.950 . S
C991 C982 1.390 . S
C991 H984 0.950 . S
C991 C988 1.387 . S
C992 C993 1.387 . S
C992 H996 0.950 . S
C992 C1001 1.390 . S
C993 C992 1.387 . S
C993 C995 1.387 . S
H994 C1001 0.950 . S
C995 C993 1.387 . S
C995 C997 1.390 . S
C995 H999 0.950 . S
H996 C992 0.950 . S
C997 C995 1.390 . S
C997 C998 1.387 . S
C997 H1000 0.950 . S
C998 C997 1.387 . S
C998 C1001 1.387 . S
H999 C995 0.950 . S
H1000 C997 0.950 . S
C1001 C992 1.390 . S
C1001 H994 0.950 . S
C1001 C998 1.387 . S
C1002 C1003 1.387 . S
C1002 H1006 0.950 . S
C1002 C1011 1.390 . S
C1003 C1002 1.387 . S
C1003 C1005 1.387 . S
H1004 C1011 0.950 . S
C1005 C1003 1.387 . S
C1005 C1007 1.390 . S
C1005 H1009 0.950 . S
H1006 C1002 0.950 . S
C1007 C1005 1.390 . S
C1007 C1008 1.387 . S
C1007 H1010 0.950 . S
C1008 C1007 1.387 . S
C1008 C1011 1.387 . S
H1009 C1005 0.950 . S
H1010 C1007 0.950 . S
C1011 C1002 1.390 . S
C1011 H1004 0.950 . S
C1011 C1008 1.387 . S
C1012 C1013 1.387 . S
C1012 H1016 0.950 . S
C1012 C1021 1.390 . S
C1013 C1012 1.387 . S
C1013 C1015 1.387 . S
H1014 C1021 0.950 . S
C1015 C1013 1.387 . S
C1015 C1017 1.390 . S
C1015 H1019 0.950 . S
H1016 C1012 0.950 . S
C1017 C1015 1.390 . S
C1017 C1018 1.387 . S
C1017 H1020 0.950 . S
C1018 C1017 1.387 . S
C1018 C1021 1.387 . S
H1019 C1015 0.950 . S
H1020 C1017 0.950 . S
C1021 C1012 1.390 . S
C1021 H1014 0.950 . S
C1021 C1018 1.387 . S
C1022 C1023 1.387 . S
C1022 H1026 0.950 . S
C1022 C1031 1.390 . S
C1023 C1022 1.387 . S
C1023 C1025 1.387 . S
H1024 C1031 0.950 . S
C1025 C1023 1.387 . S
C1025 C1027 1.390 . S
C1025 H1029 0.950 . S
H1026 C1022 0.950 . S
C1027 C1025 1.390 . S
C1027 C1028 1.387 . S
C1027 H1030 0.950 . S
C1028 C1027 1.387 . S
C1028 C1031 1.387 . S
H1029 C1025 0.950 . S
H1030 C1027 0.950 . S
C1031 C1022 1.390 . S
C1031 H1024 0.950 . S
C1031 C1028 1.387 . S
C1032 C1033 1.387 . S
C1032 H1036 0.950 . S
C1032 C1041 1.390 . S
C1033 C1032 1.387 . S
C1033 C1035 1.387 . S
H1034 C1041 0.950 . S
C1035 C1033 1.387 . S
C1035 C1037 1.390 . S
C1035 H1039 0.950 . S
H1036 C1032 0.950 . S
C1037 C1035 1.390 . S
C1037 C1038 1.387 . S
C1037 H1040 0.950 . S
C1038 C1037 1.387 . S
C1038 C1041 1.387 . S
H1039 C1035 0.950 . S
H1040 C1037 0.950 . S
C1041 C1032 1.390 . S
C1041 H1034 0.950 . S
C1041 C1038 1.387 . S
C1042 C1043 1.387 . S
C1042 H1046 0.950 . S
C1042 C1051 1.390 . S
C1043 C1042 1.387 . S
C1043 C1045 1.387 . S
H1044 C1051 0.950 . S
C1045 C1043 1.387 . S
C1045 C1047 1.390 . S
C1045 H1049 0.950 . S
H1046 C1042 0.950 . S
C1047 C1045 1.390 . S
C1047 C1048 1.387 . S
C1047 H1050 0.950 . S
C1048 C1047 1.387 . S
C1048 C1051 1.387 . S
H1049 C1045 0.950 . S
H1050 C1047 0.950 . S
C1051 C1042 1.390 . S
C1051 H1044 0.950 . S
C1051 C1048 1.387 . S
C1052 C1053 1.387 . S
C1052 H1056 0.950 . S
C1052 C1061 1.390 . S
C1053 C1052 1.387 . S
C1053 C1055 1.387 . S
H1054 C1061 0.950 . S
C1055 C1053 1.387 . S
C1055 C1057 1.390 . S
C1055 H1059 0.950 . S
H1056 C1052 0.950 . S
C1057 C1055 1.390 . S
C1057 C1058 1.387 . S
C1057 H1060 0.950 . S
C1058 C1057 1.387 . S
C1058 C1061 1.387 . S
H1059 C1055 0.950 . S
H1060 C1057 0.950 . S
C1061 C1052 1.390 . S
C1061 H1054 0.950 . S
C1061 C1058 1.387 . S
C613 C349 1.322 . S
C618 C9 1.322 . S
C623 C43 1.322 . S
C628 C383 1.321 . S
C633 C315 1.321 . S
C638 C77 1.321 . S
C643 C485 1.325 . S
C648 C111 1.325 . S
C653 C145 1.322 . S
C658 C417 1.321 . S
C663 C451 1.325 . S
C668 C179 1.325 . S
C673 C172 2.024 . S
C678 C478 2.024 . S
C683 C410 2.024 . S
C688 C104 2.025 . S
C693 C444 2.024 . S
C698 C138 2.024 . S
C703 C36 2.024 . S
C708 C342 2.024 . S
C713 C70 2.024 . S
C718 C376 2.024 . S
C723 C2 2.024 . S
C728 C308 2.024 . S
C733 C553 1.323 . S
C738 C213 1.324 . S
C743 C587 1.323 . S
C748 C247 1.324 . S
C753 C519 1.321 . S
C758 C281 1.321 . S
C763 C240 2.024 . S
C768 C546 2.024 . S
C773 C580 2.024 . S
C778 C274 2.024 . S
C783 C206 2.024 . S
C788 C512 2.024 . S
C793 C33 1.438 . S
C798 C611 1.438 . S
C803 C67 1.438 . S
C808 C543 1.438 . S
C813 C101 1.438 . S
C818 C577 1.437 . S
C823 C271 1.438 . S
C828 C135 1.438 . S
C833 C169 1.438 . S
C838 C305 1.438 . S
C843 C203 1.438 . S
C848 C237 1.438 . S
C853 C339 1.438 . S
C858 C475 1.437 . S
C863 C373 1.438 . S
C868 C509 1.438 . S
C873 C407 1.438 . S
C878 C441 1.438 . S
C883 C73 1.644 . S
C888 C20 1.837 . S
C893 C54 1.825 1_545 S
C898 C5 1.647 . S
C903 C39 1.644 . S
C908 C88 1.836 1_655 S
C913 C141 1.645 . S
C918 C122 1.837 . S
C923 C156 1.836 1_565 S
C928 C175 1.644 . S
C933 C107 1.648 . S
C938 C190 1.826 1_455 S
C943 C224 1.837 . S
C948 C277 1.645 . S
C953 C209 1.648 . S
C958 C258 1.838 . S
C963 C292 1.837 . S
C968 C243 1.646 . S
C973 C326 1.837 . S
C978 C345 1.644 . S
C983 C379 1.644 . S
C988 C360 1.836 . S
C993 C394 1.837 . S
C998 C311 1.647 . S
C1003 C428 1.837 . S
C1008 C481 1.645 . S
C1013 C413 1.647 . S
C1018 C462 1.837 . S
C1023 C496 1.836 . S
C1028 C447 1.644 . S
C1033 C530 1.836 . S
C1038 C549 1.644 . S
C1043 C583 1.648 . S
C1048 C564 1.837 . S
C1053 C515 1.645 . S
C1058 C598 1.837 . S
