# Generated by pormake.
# Topology hjm, (4)-cn, num edge types: 1
# Building blocks:
#     Node 0, Type 0, BuildingBlock: ICAMEG_clean_sbu_1, # of connection points: 4
#     Node 1, Type 0, BuildingBlock: ICAMEG_clean_sbu_1, # of connection points: 4
#     Node 2, Type 0, BuildingBlock: ICAMEG_clean_sbu_1, # of connection points: 4
#     Node 3, Type 0, BuildingBlock: ICAMEG_clean_sbu_1, # of connection points: 4
#     Node 4, Type 0, BuildingBlock: ICAMEG_clean_sbu_1, # of connection points: 4
#     Node 5, Type 0, BuildingBlock: ICAMEG_clean_sbu_1, # of connection points: 4
#     Node 6, Type 0, BuildingBlock: ICAMEG_clean_sbu_1, # of connection points: 4
#     Node 7, Type 0, BuildingBlock: ICAMEG_clean_sbu_1, # of connection points: 4
#     Edge 8, Type (0, 0), BuildingBlock: ZUJKAS_clean_linker_0, # of connection points: 2
#     Edge 9, Type (0, 0), BuildingBlock: ZUJKAS_clean_linker_0, # of connection points: 2
#     Edge 10, Type (0, 0), BuildingBlock: ZUJKAS_clean_linker_0, # of connection points: 2
#     Edge 11, Type (0, 0), BuildingBlock: ZUJKAS_clean_linker_0, # of connection points: 2
#     Edge 12, Type (0, 0), BuildingBlock: ZUJKAS_clean_linker_0, # of connection points: 2
#     Edge 13, Type (0, 0), BuildingBlock: ZUJKAS_clean_linker_0, # of connection points: 2
#     Edge 14, Type (0, 0), BuildingBlock: ZUJKAS_clean_linker_0, # of connection points: 2
#     Edge 15, Type (0, 0), BuildingBlock: ZUJKAS_clean_linker_0, # of connection points: 2
#     Edge 16, Type (0, 0), BuildingBlock: ZUJKAS_clean_linker_0, # of connection points: 2
#     Edge 17, Type (0, 0), BuildingBlock: ZUJKAS_clean_linker_0, # of connection points: 2
#     Edge 18, Type (0, 0), BuildingBlock: ZUJKAS_clean_linker_0, # of connection points: 2
#     Edge 19, Type (0, 0), BuildingBlock: ZUJKAS_clean_linker_0, # of connection points: 2
#     Edge 20, Type (0, 0), BuildingBlock: ZUJKAS_clean_linker_0, # of connection points: 2
#     Edge 21, Type (0, 0), BuildingBlock: ZUJKAS_clean_linker_0, # of connection points: 2
#     Edge 22, Type (0, 0), BuildingBlock: ZUJKAS_clean_linker_0, # of connection points: 2
#     Edge 23, Type (0, 0), BuildingBlock: ZUJKAS_clean_linker_0, # of connection points: 2
# Relax obj value: 0.162
# Max RMSD: 0.209
# Mean RMSD: 0.209
data_MOF--net-hjm--node1-ICAMEG_clean_sbu_1--edge1-ZUJKAS_clean_linker_0
_symmetry_space_group_name_H-M    P1
_symmetry_Int_Tables_number       1
_symmetry_cell_setting            triclinic
loop_
_symmetry_equiv_pos_as_xyz
'x, y, z'
_cell_length_a     32.336871
_cell_length_b     32.850584
_cell_length_c     32.268857
_cell_angle_alpha  90.031638
_cell_angle_beta   68.67739
_cell_angle_gamma 89.967128
loop_
_atom_site_label
_atom_site_type_symbol
_atom_site_fract_x
_atom_site_fract_y
_atom_site_fract_z
_atom_type_partial_charge
Co0 Co 0.17795 0.31579 0.31229 0.0
Co1 Co 0.20813 0.21793 0.32127 0.0
O2 O 0.16672 0.26385 0.34489 0.0
C3 C 0.1346 0.34155 0.40964 0.0
O4 O 0.13202 0.30436 0.42522 0.0
C5 C 0.11718 0.17845 0.36236 0.0
O6 O 0.09708 0.21201 0.35811 0.0
O7 O 0.19574 0.21953 0.26483 0.0
O8 O 0.20469 0.28674 0.25412 0.0
H9 H 0.33201 0.1441 0.20345 0.0
H10 H 0.08635 0.29628 0.37439 0.0
O11 O 0.15187 0.34851 0.36809 0.0
H12 H 0.07236 0.32181 0.2297 0.0
H13 H 0.14301 0.45857 0.27784 0.0
H14 H 0.25507 0.34908 0.23814 0.0
H15 H 0.14532 0.32628 0.23738 0.0
H16 H 0.12724 0.3931 0.31782 0.0
O17 O 0.15944 0.17677 0.34803 0.0
H18 H 0.28054 0.20114 0.23479 0.0
H19 H 0.22272 0.13735 0.35681 0.0
H20 H 0.27199 0.41392 0.19697 0.0
H21 H 0.01288 0.29226 0.3684 0.0
H22 H 0.21575 0.46927 0.21679 0.0
H23 H 0.00537 0.30509 0.29583 0.0
O24 O 0.23692 0.31898 0.31835 0.0
H25 H 0.16696 0.22191 0.48728 0.0
H26 H 0.29077 0.21486 0.34247 0.0
H27 H 0.30684 0.21656 0.41147 0.0
H28 H 0.24468 0.22 0.48459 0.0
H29 H 0.15239 0.22068 0.41744 0.0
H30 H 0.27326 0.07945 0.32657 0.0
H31 H 0.32853 0.08265 0.24941 0.0
O32 O 0.25957 0.25602 0.29437 0.0
C33 C 0.20331 0.25084 0.23967 0.0
C34 C 0.30807 0.14234 0.23712 0.0
C35 C 0.27507 0.10604 0.3062 0.0
N36 N 0.24856 0.17265 0.29759 0.0
C37 C 0.27884 0.17459 0.25509 0.0
C38 C 0.24639 0.13888 0.32307 0.0
C39 C 0.30609 0.10787 0.26292 0.0
C40 C 0.08353 0.30256 0.34279 0.0
N41 N 0.1202 0.31221 0.30657 0.0
C42 C 0.04176 0.29991 0.33951 0.0
C43 C 0.0376 0.30699 0.29868 0.0
C44 C 0.07515 0.31637 0.26166 0.0
C45 C 0.11642 0.31876 0.26622 0.0
C46 C 0.16775 0.43466 0.26882 0.0
C47 C 0.23028 0.37286 0.24676 0.0
C48 C 0.15906 0.39752 0.29142 0.0
N49 N 0.19008 0.36709 0.28012 0.0
C50 C 0.24011 0.40958 0.22341 0.0
C51 C 0.20856 0.44064 0.23457 0.0
C52 C 0.26736 0.29242 0.3031 0.0
C53 C 0.19433 0.22028 0.45563 0.0
C54 C 0.26349 0.21647 0.37411 0.0
C55 C 0.27282 0.21733 0.4131 0.0
C56 C 0.23794 0.21926 0.4541 0.0
N57 N 0.22059 0.21748 0.37585 0.0
C58 C 0.18626 0.21941 0.41595 0.0
Co59 Co 0.81897 0.30925 0.21123 0.0
Co60 Co 0.79962 0.21185 0.18724 0.0
O61 O 0.83557 0.26162 0.17192 0.0
C62 C 0.85451 0.34423 0.11805 0.0
O63 O 0.85084 0.30936 0.09991 0.0
C64 C 0.86788 0.14634 0.16859 0.0
O65 O 0.84733 0.13359 0.20955 0.0
O66 O 0.80989 0.2086 0.24482 0.0
O67 O 0.79475 0.27387 0.26486 0.0
H68 H 0.68423 0.11879 0.28975 0.0
H69 H 0.91132 0.29962 0.14739 0.0
O70 O 0.84273 0.3477 0.16002 0.0
H71 H 0.92391 0.31051 0.2947 0.0
H72 H 0.83982 0.44919 0.26474 0.0
H73 H 0.73904 0.33158 0.28917 0.0
H74 H 0.85066 0.31388 0.28745 0.0
H75 H 0.86193 0.38869 0.21641 0.0
O76 O 0.85496 0.17899 0.15551 0.0
H77 H 0.7293 0.18125 0.26897 0.0
H78 H 0.79443 0.13584 0.13796 0.0
H79 H 0.71584 0.39131 0.33855 0.0
H80 H 0.98517 0.29673 0.15305 0.0
H81 H 0.76636 0.45071 0.32643 0.0
H82 H 0.9919 0.3021 0.22692 0.0
O83 O 0.76001 0.31011 0.20516 0.0
H84 H 0.84582 0.2305 0.0218 0.0
H85 H 0.7192 0.20862 0.16213 0.0
H86 H 0.70579 0.21541 0.09201 0.0
H87 H 0.76937 0.22629 0.02113 0.0
H88 H 0.85771 0.22436 0.09278 0.0
H89 H 0.75011 0.07286 0.15739 0.0
H90 H 0.69454 0.06401 0.23378 0.0
O91 O 0.74357 0.24387 0.2179 0.0
C92 C 0.79975 0.23694 0.27393 0.0
C93 C 0.70837 0.12226 0.25637 0.0
C94 C 0.74533 0.09649 0.18209 0.0
N95 N 0.76458 0.1622 0.20235 0.0
C96 C 0.73402 0.15757 0.24441 0.0
C97 C 0.77034 0.13223 0.17129 0.0
C98 C 0.71416 0.09154 0.22495 0.0
C99 C 0.9139 0.30251 0.17968 0.0
N100 N 0.8767 0.30752 0.21692 0.0
C101 C 0.95584 0.30063 0.1827 0.0
C102 C 0.95956 0.3036 0.22425 0.0
C103 C 0.92146 0.30831 0.2622 0.0
C104 C 0.88005 0.31014 0.25788 0.0
C105 C 0.81752 0.42348 0.27037 0.0
C106 C 0.76133 0.35719 0.28378 0.0
C107 C 0.8298 0.38916 0.24302 0.0
N108 N 0.80186 0.35651 0.24999 0.0
C109 C 0.74797 0.39098 0.31182 0.0
C110 C 0.77631 0.42431 0.30499 0.0
C111 C 0.7322 0.28088 0.21587 0.0
C112 C 0.81784 0.22572 0.05246 0.0
C113 C 0.74707 0.21378 0.13155 0.0
C114 C 0.73925 0.21737 0.09188 0.0
C115 C 0.77494 0.22341 0.05211 0.0
N116 N 0.78926 0.21618 0.13168 0.0
C117 C 0.82438 0.22202 0.09277 0.0
Co118 Co 0.823 0.71688 0.71506 0.0
Co119 Co 0.79008 0.81117 0.69392 0.0
O120 O 0.83218 0.76504 0.67631 0.0
C121 C 0.86218 0.68164 0.6212 0.0
O122 O 0.86278 0.71676 0.60163 0.0
C123 C 0.88038 0.85147 0.65149 0.0
O124 O 0.90063 0.8204 0.66128 0.0
O125 O 0.80136 0.81749 0.75058 0.0
O126 O 0.79788 0.75148 0.76937 0.0
H127 H 0.66409 0.89185 0.80081 0.0
H128 H 0.91275 0.73363 0.64756 0.0
O129 O 0.84762 0.67884 0.66339 0.0
H130 H 0.93329 0.7308 0.79148 0.0
H131 H 0.86245 0.58153 0.76445 0.0
H132 H 0.74892 0.6893 0.79567 0.0
H133 H 0.85967 0.71777 0.78772 0.0
H134 H 0.87554 0.64229 0.71658 0.0
O135 O 0.83829 0.8516 0.66305 0.0
H136 H 0.71651 0.83437 0.77718 0.0
H137 H 0.77524 0.88589 0.64829 0.0
H138 H 0.73469 0.62922 0.84463 0.0
H139 H 0.98689 0.74603 0.64971 0.0
H140 H 0.79166 0.57477 0.8291 0.0
H141 H 0.99745 0.74558 0.72205 0.0
O142 O 0.7629 0.70929 0.71257 0.0
H143 H 0.83429 0.79122 0.52893 0.0
H144 H 0.70837 0.80602 0.6713 0.0
H145 H 0.69383 0.7957 0.60216 0.0
H146 H 0.75705 0.78832 0.53027 0.0
H147 H 0.84733 0.80111 0.59893 0.0
H148 H 0.72376 0.94414 0.67066 0.0
H149 H 0.66756 0.94733 0.74737 0.0
O150 O 0.73918 0.77372 0.72477 0.0
C151 C 0.79734 0.78912 0.77881 0.0
C152 C 0.68841 0.8908 0.76727 0.0
C153 C 0.72192 0.92017 0.69425 0.0
N154 N 0.74891 0.85666 0.71141 0.0
C155 C 0.71816 0.85828 0.75369 0.0
C156 C 0.75111 0.88715 0.68184 0.0
C157 C 0.69038 0.92193 0.73729 0.0
C158 C 0.91708 0.7322 0.67908 0.0
N159 N 0.88178 0.7246 0.71734 0.0
C160 C 0.9592 0.73961 0.68014 0.0
C161 C 0.9651 0.7393 0.72078 0.0
C162 C 0.92909 0.73118 0.75969 0.0
C163 C 0.88745 0.72389 0.75733 0.0
C164 C 0.83739 0.60508 0.77159 0.0
C165 C 0.774 0.66587 0.78882 0.0
C166 C 0.84456 0.63953 0.74453 0.0
N167 N 0.8131 0.66947 0.75342 0.0
C168 C 0.76571 0.63187 0.81662 0.0
C169 C 0.79767 0.60131 0.80787 0.0
C170 C 0.73193 0.7357 0.72323 0.0
C171 C 0.80646 0.79448 0.56003 0.0
C172 C 0.7361 0.80263 0.64021 0.0
C173 C 0.72764 0.79692 0.60113 0.0
C174 C 0.76312 0.79281 0.56081 0.0
N175 N 0.77873 0.80427 0.63919 0.0
C176 C 0.81365 0.80024 0.59977 0.0
Co177 Co 0.19006 0.69883 0.79668 0.0
Co178 Co 0.20408 0.79605 0.82529 0.0
O179 O 0.16886 0.74578 0.83645 0.0
C180 C 0.15189 0.66206 0.88831 0.0
O181 O 0.16072 0.69488 0.90672 0.0
C182 C 0.13607 0.86115 0.83885 0.0
O183 O 0.15947 0.87441 0.79874 0.0
O184 O 0.20003 0.79971 0.76475 0.0
O185 O 0.2187 0.73504 0.7445 0.0
H186 H 0.323 0.89154 0.73238 0.0
H187 H 0.09469 0.70527 0.85257 0.0
O188 O 0.16197 0.65992 0.84647 0.0
H189 H 0.09934 0.69473 0.6985 0.0
H190 H 0.17868 0.5593 0.73666 0.0
H191 H 0.27547 0.6781 0.72476 0.0
H192 H 0.16862 0.69535 0.71398 0.0
H193 H 0.15113 0.61899 0.78525 0.0
O194 O 0.14733 0.82813 0.85281 0.0
H195 H 0.27912 0.82822 0.74855 0.0
H196 H 0.20295 0.87158 0.87797 0.0
H197 H 0.30417 0.61919 0.67524 0.0
H198 H 0.02461 0.70412 0.83864 0.0
H199 H 0.25565 0.5592 0.68103 0.0
H200 H 0.02666 0.69803 0.7613 0.0
O201 O 0.24552 0.69846 0.8096 0.0
H202 H 0.14261 0.77515 0.99104 0.0
H203 H 0.27819 0.80028 0.86001 0.0
H204 H 0.28358 0.79322 0.9339 0.0
H205 H 0.21543 0.78079 1.00014 0.0
H206 H 0.1388 0.78146 0.91639 0.0
H207 H 0.24596 0.93539 0.86314 0.0
H208 H 0.30642 0.94575 0.78986 0.0
O209 O 0.26157 0.76486 0.79928 0.0
C210 C 0.21362 0.77189 0.73518 0.0
C211 C 0.29669 0.88742 0.76441 0.0
C212 C 0.25348 0.91202 0.8378 0.0
N213 N 0.23838 0.84619 0.81407 0.0
C214 C 0.2717 0.85162 0.77376 0.0
C215 C 0.22924 0.87581 0.846 0.0
C216 C 0.28739 0.91781 0.79668 0.0
C217 C 0.09586 0.70277 0.81878 0.0
N218 N 0.13568 0.69988 0.78423 0.0
C219 C 0.05608 0.70224 0.81108 0.0
C220 C 0.05726 0.69905 0.76762 0.0
C221 C 0.09802 0.69702 0.73243 0.0
C222 C 0.13715 0.69755 0.7414 0.0
C223 C 0.20012 0.58527 0.73379 0.0
C224 C 0.25405 0.65223 0.72738 0.0
C225 C 0.18476 0.61914 0.76131 0.0
N226 N 0.21159 0.65215 0.75777 0.0
C227 C 0.27053 0.6189 0.69928 0.0
C228 C 0.24331 0.58524 0.70257 0.0
C229 C 0.27288 0.72794 0.80218 0.0
C230 C 0.17253 0.78066 0.96245 0.0
C231 C 0.2484 0.79441 0.88853 0.0
C232 C 0.25165 0.79067 0.93036 0.0
C233 C 0.2134 0.78375 0.96752 0.0
N234 N 0.20817 0.7913 0.88377 0.0
C235 C 0.17055 0.78451 0.92009 0.0
Co236 Co 0.67855 0.79601 0.30088 0.0
Co237 Co 0.71007 0.7009 0.32162 0.0
O238 O 0.66841 0.7474 0.33916 0.0
C239 C 0.63903 0.83011 0.39512 0.0
O240 O 0.63829 0.79461 0.41401 0.0
C241 C 0.61895 0.66188 0.36533 0.0
O242 O 0.59872 0.69471 0.3593 0.0
O243 O 0.6996 0.69562 0.26445 0.0
O244 O 0.70382 0.76182 0.24627 0.0
H245 H 0.836 0.62005 0.2149 0.0
H246 H 0.58793 0.78011 0.36736 0.0
O247 O 0.65382 0.8336 0.35298 0.0
H248 H 0.56947 0.78715 0.22258 0.0
H249 H 0.64162 0.93282 0.25248 0.0
H250 H 0.75355 0.82358 0.22105 0.0
H251 H 0.64316 0.7967 0.22737 0.0
H252 H 0.62726 0.87156 0.2997 0.0
O253 O 0.66121 0.66049 0.35135 0.0
H254 H 0.78421 0.67799 0.23871 0.0
H255 H 0.72339 0.62521 0.36671 0.0
H256 H 0.76904 0.88416 0.17274 0.0
H257 H 0.51364 0.7712 0.36421 0.0
H258 H 0.71288 0.93936 0.18837 0.0
H259 H 0.50395 0.77439 0.29147 0.0
O260 O 0.73841 0.8027 0.30413 0.0
H261 H 0.66422 0.7194 0.48706 0.0
H262 H 0.79107 0.70424 0.3455 0.0
H263 H 0.80484 0.71334 0.41519 0.0
H264 H 0.74114 0.7209 0.48669 0.0
H265 H 0.65195 0.71074 0.41653 0.0
H266 H 0.7742 0.56649 0.34412 0.0
H267 H 0.83111 0.56369 0.26777 0.0
O268 O 0.7616 0.73815 0.29187 0.0
C269 C 0.70415 0.72429 0.23644 0.0
C270 C 0.81136 0.62092 0.24827 0.0
C271 C 0.77665 0.59085 0.32078 0.0
N272 N 0.75081 0.65509 0.30406 0.0
C273 C 0.78197 0.65371 0.26197 0.0
C274 C 0.74785 0.62414 0.33332 0.0
C275 C 0.80859 0.58931 0.27794 0.0
C276 C 0.58409 0.78231 0.33565 0.0
N277 N 0.61998 0.78936 0.29773 0.0
C278 C 0.54187 0.77693 0.33402 0.0
C279 C 0.53648 0.77867 0.29316 0.0
C280 C 0.5732 0.78577 0.25455 0.0
C281 C 0.61491 0.79104 0.25749 0.0
C282 C 0.66634 0.90895 0.2453 0.0
C283 C 0.72881 0.84733 0.22794 0.0
C284 C 0.65845 0.87421 0.27199 0.0
N285 N 0.68945 0.84386 0.26304 0.0
C286 C 0.73782 0.88162 0.20051 0.0
C287 C 0.70631 0.91259 0.20932 0.0
C288 C 0.76917 0.7761 0.29359 0.0
C289 C 0.69225 0.71603 0.45614 0.0
C290 C 0.76313 0.70769 0.3764 0.0
C291 C 0.77116 0.71272 0.4158 0.0
C292 C 0.73542 0.71692 0.4559 0.0
N293 N 0.72067 0.70679 0.37688 0.0
C294 C 0.68549 0.71093 0.41608 0.0
Co295 Co 0.316 0.81118 0.20519 0.0
Co296 Co 0.29242 0.71392 0.18628 0.0
O297 O 0.33044 0.7618 0.1694 0.0
C298 C 0.32953 0.87498 0.13691 0.0
O299 O 0.28843 0.88661 0.15871 0.0
C300 C 0.3587 0.64683 0.17242 0.0
O301 O 0.33637 0.63434 0.21313 0.0
O302 O 0.29988 0.71309 0.24544 0.0
O303 O 0.28784 0.77961 0.26124 0.0
H304 H 0.17126 0.62697 0.29051 0.0
H305 H 0.40851 0.79661 0.14397 0.0
O306 O 0.34484 0.84355 0.14953 0.0
H307 H 0.41743 0.81112 0.2926 0.0
H308 H 0.34679 0.95118 0.25143 0.0
H309 H 0.23601 0.84155 0.27813 0.0
H310 H 0.3454 0.81666 0.28295 0.0
H311 H 0.36514 0.88788 0.20734 0.0
O312 O 0.34697 0.67935 0.15808 0.0
H313 H 0.2186 0.68793 0.26777 0.0
H314 H 0.28656 0.63602 0.14043 0.0
H315 H 0.21633 0.9043 0.32305 0.0
H316 H 0.48127 0.7915 0.15206 0.0
H317 H 0.27192 0.95969 0.30979 0.0
H318 H 0.48608 0.79893 0.22668 0.0
O319 O 0.25756 0.81348 0.1976 0.0
H320 H 0.34515 0.72942 0.02003 0.0
H321 H 0.21452 0.70917 0.15735 0.0
H322 H 0.20445 0.71415 0.08538 0.0
H323 H 0.27008 0.72417 0.01602 0.0
H324 H 0.35371 0.72486 0.09275 0.0
H325 H 0.24003 0.57445 0.16186 0.0
H326 H 0.18191 0.56962 0.23741 0.0
O327 O 0.23751 0.74822 0.21285 0.0
C328 C 0.28977 0.74283 0.27297 0.0
C329 C 0.19651 0.62869 0.25752 0.0
C330 C 0.23509 0.59921 0.18532 0.0
N331 N 0.25543 0.66553 0.20289 0.0
C332 C 0.22345 0.66313 0.24446 0.0
C333 C 0.26135 0.63415 0.17339 0.0
C334 C 0.20249 0.59653 0.22771 0.0
C335 C 0.41034 0.80016 0.17656 0.0
N336 N 0.37277 0.80738 0.21282 0.0
C337 C 0.45161 0.79707 0.18095 0.0
C338 C 0.45427 0.80114 0.22289 0.0
C339 C 0.41577 0.80803 0.25984 0.0
C340 C 0.37506 0.81101 0.25417 0.0
C341 C 0.32228 0.92726 0.25753 0.0
C342 C 0.26041 0.86548 0.27217 0.0
C343 C 0.33247 0.89135 0.23266 0.0
N344 N 0.30167 0.861 0.24013 0.0
C345 C 0.24907 0.90095 0.29771 0.0
C346 C 0.28027 0.93202 0.29026 0.0
C347 C 0.2282 0.78546 0.20853 0.0
C348 C 0.31631 0.72489 0.05 0.0
C349 C 0.24327 0.71368 0.12737 0.0
C350 C 0.23735 0.71638 0.08668 0.0
C351 C 0.27418 0.722 0.04778 0.0
N352 N 0.28475 0.71635 0.12929 0.0
C353 C 0.32097 0.7221 0.09128 0.0
Co354 Co 0.31236 0.1952 0.70104 0.0
Co355 Co 0.28863 0.2939 0.68617 0.0
O356 O 0.32852 0.24639 0.6671 0.0
C357 C 0.36177 0.16792 0.60537 0.0
O358 O 0.36539 0.20503 0.58942 0.0
C359 C 0.38186 0.33004 0.64639 0.0
O360 O 0.40062 0.29458 0.64616 0.0
O361 O 0.29531 0.29237 0.74552 0.0
O362 O 0.28226 0.22574 0.75764 0.0
H363 H 0.16217 0.37286 0.79467 0.0
H364 H 0.40752 0.21091 0.64575 0.0
O365 O 0.34167 0.16117 0.64668 0.0
H366 H 0.40453 0.1856 0.79729 0.0
H367 H 0.33651 0.05173 0.743 0.0
H368 H 0.22989 0.1652 0.77115 0.0
H369 H 0.33538 0.1845 0.78184 0.0
H370 H 0.35826 0.11627 0.7019 0.0
O371 O 0.33969 0.33354 0.66268 0.0
H372 H 0.21195 0.31383 0.76819 0.0
H373 H 0.2813 0.3746 0.64649 0.0
H374 H 0.20695 0.10133 0.81329 0.0
H375 H 0.47749 0.21165 0.65961 0.0
H376 H 0.26043 0.04398 0.79929 0.0
H377 H 0.47634 0.19841 0.7358 0.0
O378 O 0.25604 0.19363 0.68957 0.0
H379 H 0.34289 0.28673 0.51895 0.0
H380 H 0.21132 0.30031 0.65669 0.0
H381 H 0.20184 0.29916 0.58433 0.0
H382 H 0.26794 0.29247 0.51473 0.0
H383 H 0.35082 0.28748 0.59196 0.0
H384 H 0.23257 0.43445 0.67188 0.0
H385 H 0.17237 0.43378 0.74641 0.0
O386 O 0.23494 0.25768 0.70951 0.0
C387 C 0.28465 0.26164 0.77155 0.0
C388 C 0.18827 0.37351 0.76212 0.0
C389 C 0.2278 0.4081 0.69323 0.0
N390 N 0.24953 0.34068 0.70582 0.0
C391 C 0.21655 0.34014 0.74691 0.0
C392 C 0.25543 0.37416 0.67912 0.0
C393 C 0.19402 0.40769 0.73504 0.0
C394 C 0.40663 0.20493 0.67888 0.0
N395 N 0.3673 0.19708 0.71268 0.0
C396 C 0.44642 0.20561 0.68661 0.0
C397 C 0.44576 0.19839 0.72939 0.0
C398 C 0.40549 0.19109 0.76388 0.0
C399 C 0.36639 0.19064 0.7549 0.0
C400 C 0.31293 0.07652 0.74945 0.0
C401 C 0.25347 0.14053 0.76502 0.0
C402 C 0.325 0.11313 0.72619 0.0
N403 N 0.29546 0.14467 0.73426 0.0
C404 C 0.24024 0.10437 0.78893 0.0
C405 C 0.27024 0.0722 0.78104 0.0
C406 C 0.22626 0.22113 0.70193 0.0
C407 C 0.31384 0.28985 0.54902 0.0
C408 C 0.24031 0.2973 0.62663 0.0
C409 C 0.2347 0.29675 0.58571 0.0
C410 C 0.27179 0.293 0.54667 0.0
N411 N 0.28172 0.29435 0.62872 0.0
C412 C 0.31817 0.29052 0.59055 0.0
Co413 Co 0.68325 0.21164 0.78662 0.0
Co414 Co 0.70383 0.30285 0.8241 0.0
O415 O 0.66471 0.25642 0.82928 0.0
C416 C 0.64619 0.16767 0.87317 0.0
O417 O 0.67296 0.188 0.88798 0.0
C418 C 0.64167 0.37312 0.83878 0.0
O419 O 0.66802 0.38784 0.80042 0.0
O420 O 0.70435 0.31304 0.76253 0.0
O421 O 0.71878 0.24882 0.7378 0.0
H422 H 0.83428 0.39279 0.74477 0.0
H423 H 0.58759 0.22648 0.83756 0.0
O424 O 0.64721 0.17333 0.83384 0.0
H425 H 0.60479 0.23523 0.67954 0.0
H426 H 0.66062 0.08064 0.7165 0.0
H427 H 0.76838 0.18675 0.71662 0.0
H428 H 0.66879 0.21853 0.70062 0.0
H429 H 0.6375 0.13881 0.7682 0.0
O430 O 0.64965 0.33815 0.85139 0.0
H431 H 0.78492 0.33365 0.7533 0.0
H432 H 0.70518 0.3726 0.88346 0.0
H433 H 0.79278 0.1293 0.66414 0.0
H434 H 0.52248 0.24279 0.81791 0.0
H435 H 0.73873 0.0757 0.66387 0.0
H436 H 0.53112 0.24806 0.73841 0.0
O437 O 0.7365 0.2028 0.80261 0.0
H438 H 0.63139 0.26784 0.98624 0.0
H439 H 0.77353 0.29626 0.86448 0.0
H440 H 0.7732 0.27978 0.93912 0.0
H441 H 0.70175 0.26556 1.00068 0.0
H442 H 0.63325 0.28392 0.91094 0.0
H443 H 0.7536 0.43222 0.87628 0.0
H444 H 0.81869 0.44262 0.80652 0.0
O445 O 0.75838 0.26787 0.79862 0.0
C446 C 0.71714 0.28686 0.73106 0.0
C447 C 0.80599 0.38861 0.77531 0.0
C448 C 0.76073 0.41074 0.84912 0.0
N449 N 0.74214 0.34969 0.81877 0.0
C450 C 0.77791 0.35519 0.78032 0.0
C451 C 0.73341 0.37693 0.85297 0.0
C452 C 0.79724 0.41655 0.80998 0.0
C453 C 0.5914 0.22802 0.8029 0.0
N454 N 0.63193 0.22152 0.77032 0.0
C455 C 0.55446 0.2374 0.79197 0.0
C456 C 0.55929 0.24022 0.74735 0.0
C457 C 0.60064 0.23317 0.71431 0.0
C458 C 0.63678 0.22376 0.72648 0.0
C459 C 0.68447 0.10382 0.71627 0.0
C460 C 0.74458 0.16368 0.71661 0.0
C461 C 0.67161 0.13678 0.74557 0.0
N462 N 0.70151 0.16627 0.74534 0.0
C463 C 0.75863 0.13116 0.68685 0.0
C464 C 0.72829 0.10108 0.68674 0.0
C465 C 0.7662 0.22969 0.7987 0.0
C466 C 0.66272 0.27414 0.95973 0.0
C467 C 0.74228 0.28997 0.89101 0.0
C468 C 0.74231 0.28076 0.93326 0.0
C469 C 0.70221 0.27281 0.9678 0.0
N470 N 0.70339 0.29137 0.88336 0.0
C471 C 0.66397 0.28346 0.91705 0.0
H472 H 0.02772 0.17424 0.41246 0.0
H473 H 0.98789 0.11837 0.46115 0.0
H474 H 0.10845 0.04771 0.42049 0.0
H475 H 0.1484 0.10307 0.3722 0.0
H476 H 0.97647 0.0355 0.44266 0.0
H477 H 0.0697 0.04891 0.55641 0.0
H478 H 0.07073 0.08804 0.51678 0.0
H479 H 0.10406 0.04298 0.49881 0.0
C480 C 0.0457 0.1467 0.4136 0.0
C481 C 0.09145 0.14345 0.38863 0.0
C482 C 0.02289 0.11481 0.44157 0.0
C483 C 0.04539 0.07916 0.44529 0.0
C484 C 0.09059 0.07526 0.41911 0.0
H485 H 0.97028 0.85594 0.60335 0.0
H486 H 0.01042 0.91065 0.55293 0.0
C487 C 0.11335 0.107 0.39126 0.0
C488 C 0.02182 0.046 0.47649 0.0
H489 H 0.02187 0.99198 0.56714 0.0
C490 C 0.98624 0.02612 0.47001 0.0
C491 C 0.03473 0.03354 0.51207 0.0
C492 C 0.07163 0.05466 0.52182 0.0
C493 C 0.96374 0.99375 0.49758 0.0
C494 C 0.97645 0.98144 0.53336 0.0
C495 C 0.01213 1.00128 0.53975 0.0
C496 C 0.95249 0.94868 0.56504 0.0
C497 C 0.92721 0.97242 0.48738 0.0
C498 C 0.90685 0.95223 0.58965 0.0
C499 C 0.8839 0.92106 0.61828 0.0
C500 C 0.90606 0.88563 0.62354 0.0
C501 C 0.95214 0.88272 0.60014 0.0
C502 C 0.97511 0.91396 0.57121 0.0
H503 H 0.93044 0.97704 0.45223 0.0
H504 H 0.92723 0.93922 0.49381 0.0
H505 H 0.89466 0.98506 0.50896 0.0
H506 H 0.88883 0.97915 0.58661 0.0
H507 H 0.84857 0.92472 0.63614 0.0
H508 H 0.11082 0.93822 0.82478 0.0
H509 H 0.06528 0.9865 0.88066 0.0
H510 H 0.04192 0.89513 0.98244 0.0
H511 H 0.08762 0.8468 0.92705 0.0
H512 H 0.97665 0.98414 0.94107 0.0
H513 H 0.0945 0.98968 0.03021 0.0
H514 H 0.10901 0.9677 0.97546 0.0
H515 H 0.07584 0.93942 0.02379 0.0
C516 C 0.09559 0.92815 0.85894 0.0
C517 C 0.10324 0.88856 0.8713 0.0
C518 C 0.06962 0.9559 0.89091 0.0
C519 C 0.05095 0.9448 0.93597 0.0
C520 C 0.0568 0.90476 0.94808 0.0
H521 H 0.89487 0.06963 0.18134 0.0
H522 H 0.93972 0.02176 0.12463 0.0
C523 C 0.08269 0.87699 0.91619 0.0
C524 C 0.02605 0.97524 0.97034 0.0
H525 H 0.02602 0.02418 0.06401 0.0
C526 C 0.98754 0.99303 0.96783 0.0
C527 C 0.04023 0.98689 1.00533 0.0
C528 C 0.08236 0.97026 0.00881 0.0
C529 C 0.96234 0.02141 0.9998 0.0
C530 C 0.97653 0.03308 0.03481 0.0
C531 C 0.0151 0.01532 0.03725 0.0
C532 C 0.95149 0.06327 0.06949 0.0
C533 C 0.92007 0.0378 0.99643 0.0
C534 C 0.94431 0.1031 0.05774 0.0
C535 C 0.91868 0.13062 0.09013 0.0
C536 C 0.89985 0.11905 0.13517 0.0
C537 C 0.90875 0.07969 0.14708 0.0
C538 C 0.93435 0.05217 0.11462 0.0
H539 H 0.90777 0.01803 0.97544 0.0
H540 H 0.89357 0.04068 0.02983 0.0
H541 H 0.92652 0.06845 0.98097 0.0
H542 H 0.95809 0.11281 0.02335 0.0
H543 H 0.91278 0.16067 0.07964 0.0
H544 H 0.35364 0.40803 0.64203 0.0
H545 H 0.39455 0.46348 0.59452 0.0
H546 H 0.51182 0.38833 0.54687 0.0
H547 H 0.4707 0.33208 0.5937 0.0
H548 H 0.46858 0.50601 0.58942 0.0
H549 H 0.49935 0.42292 0.43123 0.0
H550 H 0.46108 0.4047 0.48396 0.0
H551 H 0.51982 0.39716 0.46895 0.0
C552 C 0.38817 0.40314 0.62158 0.0
C553 C 0.40863 0.36522 0.62146 0.0
C554 C 0.41159 0.43505 0.59439 0.0
C555 C 0.45606 0.42995 0.56623 0.0
C556 C 0.47722 0.39275 0.56739 0.0
H557 H 0.64988 0.5866 0.37606 0.0
H558 H 0.60956 0.53144 0.42467 0.0
C559 C 0.45375 0.3607 0.59459 0.0
C560 C 0.47983 0.46353 0.53559 0.0
H561 H 0.53425 0.48717 0.42582 0.0
C562 C 0.4828 0.50189 0.55364 0.0
C563 C 0.49826 0.45836 0.48879 0.0
C564 C 0.49419 0.41871 0.46694 0.0
C565 C 0.50433 0.53483 0.52641 0.0
C566 C 0.52293 0.52956 0.47968 0.0
C567 C 0.51998 0.49125 0.4616 0.0
C568 C 0.54662 0.5631 0.44908 0.0
C569 C 0.50789 0.57477 0.54797 0.0
C570 C 0.52452 0.59912 0.44572 0.0
C571 C 0.54754 0.63087 0.41766 0.0
C572 C 0.59319 0.62727 0.39242 0.0
C573 C 0.61486 0.59069 0.39513 0.0
C574 C 0.59182 0.55899 0.42293 0.0
H575 H 0.50107 0.57124 0.5841 0.0
H576 H 0.54145 0.58821 0.53184 0.0
H577 H 0.48329 0.59652 0.54406 0.0
H578 H 0.48946 0.60276 0.46494 0.0
H579 H 0.52974 0.65851 0.41643 0.0
H580 H 0.40962 0.66277 0.08545 0.0
H581 H 0.45707 0.61558 0.02988 0.0
H582 H 0.43076 0.52206 0.12982 0.0
H583 H 0.38264 0.56897 0.18571 0.0
H584 H 0.5329 0.57192 0.02488 0.0
H585 H 0.39505 0.46744 0.03359 0.0
H586 H 0.38555 0.5177 0.05789 0.0
H587 H 0.40129 0.47662 0.08588 0.0
C588 C 0.41413 0.63229 0.09585 0.0
C589 C 0.39197 0.61969 0.14016 0.0
C590 C 0.4413 0.60529 0.06392 0.0
C591 C 0.44681 0.56498 0.07538 0.0
C592 C 0.42624 0.55273 0.11992 0.0
H593 H 0.58883 0.35561 0.92488 0.0
H594 H 0.54149 0.4023 0.98116 0.0
C595 C 0.39905 0.57976 0.15198 0.0
C596 C 0.47366 0.53586 0.04049 0.0
H597 H 0.46749 0.44686 0.98795 0.0
C598 C 0.51859 0.54462 0.01673 0.0
C599 C 0.45497 0.50023 0.02978 0.0
C600 C 0.40649 0.48997 0.05278 0.0
C601 C 0.5455 0.51846 0.98318 0.0
C602 C 0.52677 0.48291 0.97229 0.0
C603 C 0.48185 0.47411 0.99615 0.0
C604 C 0.55349 0.45406 0.93694 0.0
C605 C 0.59405 0.52866 0.9605 0.0
C606 C 0.57496 0.46712 0.8928 0.0
C607 C 0.60221 0.44043 0.86039 0.0
C608 C 0.60828 0.39996 0.87133 0.0
C609 C 0.58506 0.38651 0.91512 0.0
C610 C 0.55797 0.41324 0.94748 0.0
H611 H 0.60557 0.55029 0.98049 0.0
H612 H 0.6149 0.5008 0.9544 0.0
H613 H 0.59928 0.54318 0.92795 0.0
H614 H 0.57113 0.49816 0.8835 0.0
H615 H 0.61934 0.45184 0.82704 0.0
H616 H 0.91294 0.34295 0.03133 0.0
H617 H 0.96293 0.39824 0.99197 0.0
H618 H 0.90197 0.47801 0.10381 0.0
H619 H 0.85234 0.42332 0.14327 0.0
H620 H 0.94654 0.48111 0.97022 0.0
H621 H 0.0346 0.47482 0.08933 0.0
H622 H 0.99831 0.43467 0.08492 0.0
H623 H 0.97543 0.48074 0.11441 0.0
C624 C 0.90966 0.3725 0.04712 0.0
C625 C 0.87913 0.37863 0.09059 0.0
C626 C 0.93834 0.40394 0.02473 0.0
C627 C 0.93678 0.44179 0.04555 0.0
C628 C 0.90438 0.44871 0.08767 0.0
H629 H 0.09477 0.66404 0.97556 0.0
H630 H 0.0424 0.61032 0.0152 0.0
C631 C 0.87593 0.41744 0.11004 0.0
C632 C 0.96994 0.47372 0.02421 0.0
H633 H 0.05437 0.52856 0.03681 0.0
C634 C 0.97026 0.4914 0.9846 0.0
C635 C 0.00062 0.48715 0.04332 0.0
C636 C 0.00265 0.4682 0.08515 0.0
C637 C 1.00012 0.52269 0.96382 0.0
C638 C 0.03105 0.53595 0.98275 0.0
C639 C 0.03058 0.51837 0.02249 0.0
C640 C 0.06501 0.56713 0.96084 0.0
C641 C 0.99777 0.54179 0.9222 0.0
C642 C 0.09618 0.55986 0.91813 0.0
C643 C 0.12583 0.59026 0.89561 0.0
C644 C 0.12529 0.62846 0.91553 0.0
C645 C 0.09596 0.6349 0.95944 0.0
C646 C 0.06594 0.60437 0.98197 0.0
H647 H 0.96506 0.53643 0.91918 0.0
H648 H 0.00373 0.57511 0.92163 0.0
H649 H 0.02369 0.52809 0.89267 0.0
H650 H 0.09687 0.53093 0.90176 0.0
H651 H 0.14849 0.58415 0.86202 0.0
H652 H 0.06506 0.33835 0.49038 0.0
H653 H 0.01677 0.39541 0.52838 0.0
H654 H 0.10033 0.47845 0.43014 0.0
H655 H 0.14843 0.42222 0.39231 0.0
H656 H 0.03677 0.47509 0.56112 0.0
H657 H 0.9743 0.48928 0.42252 0.0
H658 H 0.00231 0.44423 0.43095 0.0
H659 H 0.0337 0.48878 0.40609 0.0
C660 C 0.07364 0.3689 0.47755 0.0
C661 C 0.11028 0.3757 0.43811 0.0
C662 C 0.04591 0.40138 0.49907 0.0
C663 C 0.0545 0.44091 0.48136 0.0
C664 C 0.09263 0.44805 0.44377 0.0
H665 H 0.92755 0.67847 0.53787 0.0
H666 H 0.97311 0.61896 0.50306 0.0
C667 C 0.12019 0.41583 0.42235 0.0
C668 C 0.02303 0.47471 0.50075 0.0
H669 H 0.9538 0.54164 0.47693 0.0
C670 C 0.0183 0.48947 0.54297 0.0
C671 C 0.99931 0.49353 0.47672 0.0
C672 C 0.00224 0.47803 0.43169 0.0
C673 C 0.99121 0.52328 0.56145 0.0
C674 C 0.96747 0.54217 0.53739 0.0
C675 C 0.97205 0.52719 0.49524 0.0
C676 C 0.9374 0.57723 0.55584 0.0
C677 C 0.98925 0.53916 0.60603 0.0
C678 C 0.90109 0.57302 0.59586 0.0
C679 C 0.87525 0.60675 0.61568 0.0
C680 C 0.8848 0.6454 0.59564 0.0
C681 C 0.91932 0.6491 0.55402 0.0
C682 C 0.94549 0.6152 0.53427 0.0
H683 H 0.0181 0.52869 0.61415 0.0
H684 H 0.98836 0.57295 0.60687 0.0
H685 H 0.95865 0.52773 0.63235 0.0
H686 H 0.89345 0.54379 0.61242 0.0
H687 H 0.84852 0.60275 0.64752 0.0
H688 H 0.57871 0.13125 0.85592 0.0
H689 H 0.52523 0.08206 0.90119 0.0
H690 H 0.586 0.08693 0.99999 0.0
H691 H 0.6396 0.13736 0.95495 0.0
H692 H 0.54056 0.00691 0.92622 0.0
H693 H 0.45517 0.10264 0.07485 0.0
H694 H 0.49205 0.12374 0.02294 0.0
H695 H 0.51423 0.0989 0.05995 0.0
C696 C 0.5808 0.1221 0.88735 0.0
C697 C 0.61356 0.13825 0.9018 0.0
C698 C 0.55009 0.0939 0.91321 0.0
C699 C 0.5513 0.08105 0.95414 0.0
C700 C 0.58392 0.09701 0.96887 0.0
H701 H 0.41869 0.86421 0.0933 0.0
H702 H 0.47215 0.91358 0.04782 0.0
C703 C 0.61467 0.12562 0.94301 0.0
C704 C 0.51901 0.05001 0.98023 0.0
H705 H 0.43438 0.03316 0.07931 0.0
C706 C 0.51734 0.01264 0.95972 0.0
C707 C 0.48835 0.05778 0.02366 0.0
C708 C 0.4871 0.09805 0.0466 0.0
C709 C 0.48591 0.98281 0.9814 0.0
C710 C 0.45593 0.99016 0.02522 0.0
C711 C 0.45749 0.02756 0.04574 0.0
C712 C 0.42301 0.9593 0.05061 0.0
C713 C 0.48448 0.94409 0.95674 0.0
C714 C 0.37751 0.96863 0.06757 0.0
C715 C 0.3467 0.94048 0.09396 0.0
C716 C 0.36091 0.90255 0.10403 0.0
C717 C 0.40645 0.89297 0.08597 0.0
C718 C 0.43716 0.92115 0.05979 0.0
H719 H 0.50019 0.94816 0.92014 0.0
H720 H 0.50305 0.91991 0.96659 0.0
H721 H 0.44982 0.93353 0.96481 0.0
H722 H 0.36591 0.99797 0.06092 0.0
H723 H 0.31196 0.94894 0.1075 0.0
H724 H 0.65212 0.90939 0.37023 0.0
H725 H 0.60713 0.96786 0.40668 0.0
H726 H 0.52779 0.89076 0.51437 0.0
H727 H 0.57347 0.8319 0.47827 0.0
H728 H 0.51928 0.97569 0.42257 0.0
H729 H 0.54902 0.98853 0.58088 0.0
H730 H 0.58392 0.95827 0.53468 0.0
H731 H 0.53133 0.93881 0.57122 0.0
C732 C 0.62565 0.90494 0.40215 0.0
C733 C 0.61631 0.86597 0.42139 0.0
C734 C 0.59988 0.93843 0.42287 0.0
C735 C 0.56416 0.93381 0.4633 0.0
C736 C 0.55569 0.89523 0.48355 0.0
H737 H 0.35015 0.08717 0.62422 0.0
H738 H 0.399 0.03131 0.5867 0.0
C739 C 0.5818 0.86158 0.46291 0.0
C740 C 0.53403 0.96879 0.48218 0.0
H741 H 0.48995 0.02822 0.57471 0.0
C742 C 0.51309 0.98737 0.45575 0.0
C743 C 0.52601 0.98401 0.52541 0.0
C744 C 0.54905 0.96667 0.55459 0.0
C745 C 0.48368 0.02017 0.4717 0.0
C746 C 0.4753 0.03503 0.51508 0.0
C747 C 0.49641 0.01667 0.54143 0.0
C748 C 0.44371 0.0688 0.53455 0.0
C749 C 0.46091 0.03799 0.44252 0.0
C750 C 0.45206 0.10842 0.51704 0.0
C751 C 0.42396 0.14069 0.53845 0.0
C752 C 0.38734 0.13375 0.57787 0.0
C753 C 0.37821 0.09368 0.59408 0.0
C754 C 0.40615 0.06165 0.57275 0.0
H755 H 0.46365 0.01774 0.41404 0.0
H756 H 0.42523 0.04367 0.46199 0.0
H757 H 0.47657 0.06756 0.42899 0.0
H758 H 0.48121 0.11467 0.48784 0.0
H759 H 0.43211 0.17121 0.52536 0.0
H760 H 0.21839 0.77382 0.33776 0.0
H761 H 0.20559 0.77805 0.41703 0.0
H762 H 0.32132 0.70369 0.39658 0.0
H763 H 0.3343 0.69939 0.31649 0.0
H764 H 0.19501 0.71916 0.48546 0.0
H765 H 0.34719 0.81344 0.44757 0.0
H766 H 0.32239 0.80312 0.40677 0.0
H767 H 0.35456 0.76459 0.42064 0.0
C768 C 0.24045 0.75746 0.35039 0.0
C769 C 0.27725 0.73616 0.32118 0.0
C770 C 0.23317 0.76002 0.39563 0.0
C771 C 0.26289 0.74181 0.41258 0.0
C772 C 0.2983 0.7184 0.38399 0.0
H773 H 0.2871 0.74659 0.66871 0.0
H774 H 0.2988 0.74354 0.58972 0.0
C775 C 0.30539 0.71548 0.33847 0.0
C776 C 0.25794 0.74992 0.45945 0.0
H777 H 0.30634 0.79957 0.52321 0.0
C778 C 0.21934 0.73668 0.49379 0.0
C779 C 0.28949 0.77325 0.47013 0.0
C780 C 0.33063 0.78979 0.43445 0.0
C781 C 0.2119 0.74532 0.53863 0.0
C782 C 0.24343 0.76872 0.54933 0.0
C783 C 0.28198 0.78204 0.51493 0.0
C784 C 0.23886 0.77654 0.5962 0.0
C785 C 0.17097 0.72832 0.57424 0.0
C786 C 0.20236 0.798 0.62592 0.0
C787 C 0.1958 0.80014 0.67137 0.0
C788 C 0.22569 0.7808 0.68744 0.0
C789 C 0.26368 0.76193 0.65708 0.0
C790 C 0.2703 0.76 0.61195 0.0
H791 H 0.15518 0.70401 0.56113 0.0
H792 H 0.17915 0.71568 0.60225 0.0
H793 H 0.14634 0.7531 0.58753 0.0
H794 H 0.17807 0.81163 0.61429 0.0
H795 H 0.16596 0.81433 0.69422 0.0
H796 H 0.71639 0.7935 0.8435 0.0
H797 H 0.70005 0.78392 0.92317 0.0
H798 H 0.84011 0.78834 0.89959 0.0
H799 H 0.85624 0.79876 0.82 0.0
H800 H 0.72964 0.71608 0.95386 0.0
H801 H 0.78801 0.85531 0.01314 0.0
H802 H 0.77775 0.85388 0.96176 0.0
H803 H 0.82837 0.8333 0.96413 0.0
C804 C 0.74341 0.7947 0.85578 0.0
C805 C 0.78744 0.79829 0.826 0.0
C806 C 0.73415 0.78856 0.90117 0.0
C807 C 0.76879 0.78565 0.91755 0.0
C808 C 0.81273 0.79138 0.88805 0.0
H809 H 0.78512 0.72016 0.1717 0.0
H810 H 0.80149 0.72998 0.09202 0.0
C811 C 0.82196 0.79764 0.84261 0.0
C812 C 0.75933 0.77205 0.9641 0.0
H813 H 0.77194 0.79796 0.06133 0.0
C814 C 0.73862 0.73412 0.97747 0.0
C815 C 0.77139 0.79537 0.99477 0.0
C816 C 0.79225 0.83689 0.98297 0.0
C817 C 0.73019 0.71868 0.02041 0.0
C818 C 0.74224 0.742 0.05109 0.0
C819 C 0.76296 0.77992 0.03771 0.0
C820 C 0.73276 0.7284 0.09765 0.0
C821 C 0.70932 0.67715 0.03222 0.0
C822 C 0.6888 0.72272 0.12713 0.0
C823 C 0.67955 0.71637 0.17256 0.0
C824 C 0.71407 0.71554 0.18916 0.0
C825 C 0.75811 0.71913 0.1594 0.0
C826 C 0.76739 0.72539 0.11402 0.0
H827 H 0.71354 0.65875 1.00205 0.0
H828 H 0.72385 0.66016 0.0534 0.0
H829 H 0.67321 0.68075 0.05109 0.0
H830 H 0.66143 0.72585 0.11558 0.0
H831 H 0.64527 0.71525 0.19515 0.0
H832 H 0.72144 0.2478 0.34049 0.0
H833 H 0.70981 0.25661 0.41918 0.0
H834 H 0.84511 0.21984 0.39276 0.0
H835 H 0.8569 0.21148 0.31343 0.0
H836 H 0.71831 0.20921 0.487 0.0
H837 H 0.84039 0.33601 0.44084 0.0
H838 H 0.81936 0.31311 0.40161 0.0
H839 H 0.86157 0.28774 0.41593 0.0
C840 C 0.74813 0.24004 0.35188 0.0
C841 C 0.78981 0.22829 0.32125 0.0
C842 C 0.7416 0.24545 0.39673 0.0
C843 C 0.77683 0.23975 0.41173 0.0
C844 C 0.81768 0.22508 0.38174 0.0
H845 H 0.7978 0.27575 0.66782 0.0
H846 H 0.81311 0.26934 0.58806 0.0
C847 C 0.82419 0.21953 0.33667 0.0
C848 C 0.77121 0.2521 0.45783 0.0
H849 H 0.80751 0.32018 0.51737 0.0
C850 C 0.73782 0.23345 0.49364 0.0
C851 C 0.79638 0.28409 0.46643 0.0
C852 C 0.83118 0.30673 0.42925 0.0
C853 C 0.72941 0.2454 0.53781 0.0
C854 C 0.75451 0.27742 0.54638 0.0
C855 C 0.78804 0.29596 0.51064 0.0
C856 C 0.74813 0.29001 0.59253 0.0
C857 C 0.69436 0.22304 0.57507 0.0
C858 C 0.70748 0.30628 0.62106 0.0
C859 C 0.69898 0.31068 0.66666 0.0
C860 C 0.73106 0.29885 0.68411 0.0
C861 C 0.77295 0.28593 0.6549 0.0
C862 C 0.78153 0.28183 0.60944 0.0
H863 H 0.68447 0.19406 0.56351 0.0
H864 H 0.70634 0.21618 0.6025 0.0
H865 H 0.66438 0.24251 0.58874 0.0
H866 H 0.6814 0.31318 0.60854 0.0
H867 H 0.66606 0.3196 0.6887 0.0
H868 H 0.25531 0.30141 0.17592 0.0
H869 H 0.26793 0.30168 0.09701 0.0
H870 H 0.19005 0.19229 0.11291 0.0
H871 H 0.1767 0.19198 0.19323 0.0
H872 H 0.30623 0.24307 0.0301 0.0
H873 H 0.12975 0.27555 0.05555 0.0
H874 H 0.15154 0.2813 0.0994 0.0
H875 H 0.13979 0.23149 0.08361 0.0
C876 C 0.24083 0.27721 0.16285 0.0
C877 C 0.21444 0.24691 0.19104 0.0
C878 C 0.24831 0.27738 0.11755 0.0
C879 C 0.2294 0.24745 0.09916 0.0
C880 C 0.20439 0.21608 0.12666 0.0
H881 H 0.22939 0.21305 0.83541 0.0
H882 H 0.21617 0.21261 0.91446 0.0
C883 C 0.19709 0.2157 0.17237 0.0
C884 C 0.23539 0.25041 0.05139 0.0
H885 H 0.1798 0.26948 0.98143 0.0
C886 C 0.27861 0.24875 0.01938 0.0
C887 C 0.19934 0.25832 0.03761 0.0
C888 C 0.15246 0.26214 0.07072 0.0
C889 C 0.28669 0.25407 0.97388 0.0
C890 C 0.25066 0.26213 0.96009 0.0
C891 C 0.20742 0.26374 0.99212 0.0
C892 C 0.25668 0.26547 0.91231 0.0
C893 C 0.33357 0.25 0.94083 0.0
C894 C 0.28287 0.29624 0.88476 0.0
C895 C 0.29057 0.29668 0.83898 0.0
C896 C 0.27231 0.2662 0.82028 0.0
C897 C 0.2445 0.23672 0.84854 0.0
C898 C 0.23672 0.23643 0.8939 0.0
H899 H 0.35591 0.23563 0.95587 0.0
H900 H 0.33438 0.23158 0.91167 0.0
H901 H 0.34684 0.28067 0.9287 0.0
H902 H 0.29797 0.31943 0.8985 0.0
H903 H 0.31211 0.31973 0.81807 0.0
H904 H 0.3362 0.2766 0.22701 0.0
H905 H 0.41526 0.28417 0.21345 0.0
H906 H 0.38304 0.33776 0.34359 0.0
H907 H 0.30348 0.3321 0.35622 0.0
H908 H 0.45682 0.37222 0.28435 0.0
H909 H 0.47186 0.20462 0.2705 0.0
H910 H 0.45222 0.22547 0.22974 0.0
H911 H 0.41894 0.23016 0.28805 0.0
C912 C 0.34611 0.29081 0.25227 0.0
C913 C 0.31407 0.30364 0.29269 0.0
C914 C 0.3912 0.2948 0.24471 0.0
C915 C 0.40509 0.31029 0.27807 0.0
C916 C 0.37308 0.3254 0.31752 0.0
H917 H 0.66388 0.24118 0.27756 0.0
H918 H 0.58455 0.25267 0.29689 0.0
C919 C 0.32775 0.3223 0.32469 0.0
C920 C 0.45266 0.30807 0.27269 0.0
H921 H 0.53954 0.24178 0.24791 0.0
C922 C 0.47493 0.34369 0.27669 0.0
C923 C 0.47604 0.27065 0.26385 0.0
C924 C 0.45341 0.23053 0.26329 0.0
C925 C 0.52023 0.34304 0.27091 0.0
C926 C 0.54418 0.30598 0.25937 0.0
C927 C 0.52152 0.27034 0.25626 0.0
C928 C 0.59252 0.30272 0.25091 0.0
C929 C 0.54152 0.38187 0.27823 0.0
C930 C 0.62375 0.32741 0.2191 0.0
C931 C 0.66933 0.32144 0.20874 0.0
C932 C 0.68439 0.28988 0.22903 0.0
C933 C 0.65319 0.26552 0.26111 0.0
C934 C 0.60781 0.27212 0.2722 0.0
H935 H 0.51649 0.40301 0.3007 0.0
H936 H 0.56723 0.37569 0.29271 0.0
H937 H 0.55747 0.39756 0.24587 0.0
H938 H 0.61304 0.35042 0.2012 0.0
H939 H 0.69277 0.34038 0.1836 0.0
H940 H 0.65796 0.77746 0.77301 0.0
H941 H 0.58077 0.76005 0.78758 0.0
H942 H 0.62186 0.64797 0.71454 0.0
H943 H 0.70003 0.6651 0.6999 0.0
H944 H 0.56166 0.70159 0.68855 0.0
H945 H 0.50018 0.66989 0.86963 0.0
H946 H 0.53353 0.71507 0.85355 0.0
H947 H 0.55817 0.6662 0.83449 0.0
C948 C 0.65075 0.74882 0.76041 0.0
C949 C 0.68519 0.72267 0.73519 0.0
C950 C 0.60652 0.73882 0.76905 0.0
C951 C 0.59562 0.70257 0.75255 0.0
C952 C 0.6297 0.67595 0.72788 0.0
H953 H 0.31046 0.65564 0.81343 0.0
H954 H 0.38912 0.64217 0.79925 0.0
C955 C 0.67422 0.68571 0.71965 0.0
C956 C 0.54869 0.69476 0.75852 0.0
H957 H 0.44521 0.68807 0.83891 0.0
C958 C 0.53622 0.6977 0.72128 0.0
C959 C 0.51564 0.68949 0.80121 0.0
C960 C 0.52747 0.68459 0.84203 0.0
C961 C 0.4913 0.6982 0.72602 0.0
C962 C 0.4582 0.69588 0.76906 0.0
C963 C 0.4707 0.69018 0.80597 0.0
C964 C 0.4108 0.70322 0.77674 0.0
C965 C 0.47946 0.70262 0.68514 0.0
C966 C 0.39704 0.74211 0.76932 0.0
C967 C 0.3523 0.75006 0.77777 0.0
C968 C 0.32028 0.71916 0.7937 0.0
C969 C 0.33422 0.6801 0.8011 0.0
C970 C 0.3791 0.67231 0.79301 0.0
H971 H 0.5075 0.69366 0.65448 0.0
H972 H 0.45001 0.68382 0.688 0.0
H973 H 0.47118 0.73492 0.68166 0.0
H974 H 0.42096 0.76653 0.75738 0.0
H975 H 0.34292 0.78048 0.77166 0.0
H976 H 0.19335 0.85651 0.18953 0.0
H977 H 0.11478 0.8717 0.2043 0.0
H978 H 0.07811 0.7537 0.26485 0.0
H979 H 0.15576 0.73812 0.25012 0.0
H980 H 0.05571 0.82132 0.17321 0.0
H981 H 0.99531 0.83675 0.35673 0.0
H982 H 0.05301 0.84301 0.32165 0.0
H983 H 0.02986 0.79289 0.3357 0.0
C984 C 0.16849 0.83395 0.20628 0.0
C985 C 0.18093 0.79608 0.21855 0.0
C986 C 0.12369 0.84268 0.21467 0.0
C987 C 0.09068 0.81401 0.23618 0.0
C988 C 0.10301 0.77649 0.24884 0.0
H989 H 0.84346 0.73168 0.24994 0.0
H990 H 0.92056 0.75045 0.23373 0.0
C991 C 0.14756 0.76757 0.24009 0.0
C992 C 0.04338 0.82158 0.24342 0.0
H993 H 0.94032 0.82136 0.32504 0.0
C994 C 0.03047 0.8223 0.20636 0.0
C995 C 0.01056 0.82323 0.28668 0.0
C996 C 0.02279 0.82432 0.32752 0.0
C997 C 0.98541 0.82163 0.21155 0.0
C998 C 0.95264 0.82001 0.25484 0.0
C999 C 0.96551 0.82234 0.29187 0.0
C1000 C 0.90563 0.81072 0.26228 0.0
C1001 C 0.9732 0.82107 0.17069 0.0
C1002 C 0.87147 0.83836 0.2841 0.0
C1003 C 0.82697 0.82777 0.29334 0.0
C1004 C 0.81602 0.78905 0.28165 0.0
C1005 C 0.85054 0.76171 0.25955 0.0
C1006 C 0.89476 0.77246 0.24994 0.0
H1007 H 1.00013 0.83399 0.14138 0.0
H1008 H 0.96762 0.78913 0.1628 0.0
H1009 H 0.94216 0.83848 0.17635 0.0
H1010 H 0.87924 0.86792 0.29425 0.0
H1011 H 0.80119 0.84944 0.31056 0.0
H1012 H 0.15355 0.26867 0.74207 0.0
H1013 H 0.07591 0.25182 0.75919 0.0
H1014 H 0.11303 0.13283 0.70123 0.0
H1015 H 0.19178 0.14925 0.6841 0.0
H1016 H 0.04876 0.18355 0.67303 0.0
H1017 H 0.00026 0.16656 0.85559 0.0
H1018 H 0.03426 0.21031 0.83271 0.0
H1019 H 0.05677 0.16013 0.81718 0.0
C1020 C 0.14555 0.23879 0.73294 0.0
C1021 C 0.1791 0.21027 0.7117 0.0
C1022 C 0.10099 0.22918 0.74301 0.0
C1023 C 0.08878 0.19096 0.732 0.0
C1024 C 0.12191 0.1624 0.71031 0.0
H1025 H 0.80011 0.15183 0.79332 0.0
H1026 H 0.87809 0.13243 0.77647 0.0
C1027 C 0.1668 0.17186 0.70055 0.0
C1028 C 0.04118 0.18229 0.74211 0.0
H1029 H 0.94156 0.18214 0.8289 0.0
C1030 C 0.0253 0.18196 0.70702 0.0
C1031 C 0.01074 0.18022 0.7865 0.0
C1032 C 0.02629 0.17894 0.82523 0.0
C1033 C 0.97951 0.1828 0.71542 0.0
C1034 C 0.9492 0.18388 0.75985 0.0
C1035 C 0.965 0.18126 0.79486 0.0
C1036 C 0.90203 0.19439 0.77041 0.0
C1037 C 0.96363 0.18529 0.67698 0.0
C1038 C 0.89 0.2355 0.77295 0.0
C1039 C 0.84589 0.24667 0.78273 0.0
C1040 C 0.81265 0.2169 0.79014 0.0
C1041 C 0.8248 0.17552 0.78789 0.0
C1042 C 0.86924 0.16436 0.7782 0.0
H1043 H 0.99061 0.17855 0.64468 0.0
H1044 H 0.93587 0.16364 0.68195 0.0
H1045 H 0.95087 0.21642 0.67546 0.0
H1046 H 0.91494 0.25905 0.76713 0.0
H1047 H 0.83805 0.27882 0.78407 0.0
loop_
_geom_bond_atom_site_label_1
_geom_bond_atom_site_label_2
_geom_bond_distance
_geom_bond_site_symmetry_2
_ccdc_geom_bond_type
Co0 O2 2.143 . S
Co0 O8 2.074 . S
Co0 O11 2.093 . S
Co0 O24 2.097 . S
Co0 N41 2.151 . S
Co0 N49 2.214 . S
Co1 O2 2.160 . S
Co1 O7 2.058 . S
Co1 O17 2.057 . S
Co1 O32 2.037 . S
Co1 N36 2.145 . S
Co1 N57 2.257 . S
O2 Co0 2.143 . S
O2 Co1 2.160 . S
C3 O4 1.278 . S
C3 O11 1.224 . S
O4 C3 1.278 . S
C5 O6 1.245 . S
C5 O17 1.232 . S
O6 C5 1.245 . S
O7 Co1 2.058 . S
O7 C33 1.269 . S
O8 Co0 2.074 . S
O8 C33 1.257 . S
H9 C34 0.930 . S
H10 C40 0.930 . S
O11 Co0 2.093 . S
O11 C3 1.224 . S
H12 C44 0.929 . S
H13 C46 0.930 . S
H14 C47 0.930 . S
H15 C45 0.929 . S
H16 C48 0.928 . S
O17 Co1 2.057 . S
O17 C5 1.232 . S
H18 C37 0.929 . S
H19 C38 0.929 . S
H20 C50 0.931 . S
H21 C42 0.929 . S
H22 C51 0.930 . S
H23 C43 0.931 . S
O24 Co0 2.097 . S
O24 C52 1.214 . S
H25 C53 0.929 . S
H26 C54 0.929 . S
H27 C55 0.930 . S
H28 C56 0.929 . S
H29 C58 0.930 . S
H30 C35 0.930 . S
H31 C39 0.930 . S
O32 Co1 2.037 . S
O32 C52 1.234 . S
C33 O7 1.269 . S
C33 O8 1.257 . S
C34 H9 0.930 . S
C34 C37 1.388 . S
C34 C39 1.418 . S
C35 H30 0.930 . S
C35 C38 1.404 . S
C35 C39 1.353 . S
N36 Co1 2.145 . S
N36 C37 1.397 . S
N36 C38 1.334 . S
C37 H18 0.929 . S
C37 C34 1.388 . S
C37 N36 1.397 . S
C38 H19 0.929 . S
C38 C35 1.404 . S
C38 N36 1.334 . S
C39 H31 0.930 . S
C39 C34 1.418 . S
C39 C35 1.353 . S
C40 H10 0.930 . S
C40 N41 1.330 . S
C40 C42 1.446 . S
N41 Co0 2.151 . S
N41 C40 1.330 . S
N41 C45 1.418 . S
C42 H21 0.929 . S
C42 C40 1.446 . S
C42 C43 1.332 . S
C43 H23 0.931 . S
C43 C42 1.332 . S
C43 C44 1.267 . S
C44 H12 0.929 . S
C44 C43 1.267 . S
C44 C45 1.251 . S
C45 H15 0.929 . S
C45 N41 1.418 . S
C45 C44 1.251 . S
C46 H13 0.930 . S
C46 C48 1.406 . S
C46 C51 1.261 . S
C47 H14 0.930 . S
C47 N49 1.325 . S
C47 C50 1.357 . S
C48 H16 0.928 . S
C48 C46 1.406 . S
C48 N49 1.261 . S
N49 Co0 2.214 . S
N49 C47 1.325 . S
N49 C48 1.261 . S
C50 H20 0.931 . S
C50 C47 1.357 . S
C50 C51 1.312 . S
C51 H22 0.930 . S
C51 C46 1.261 . S
C51 C50 1.312 . S
C52 O24 1.214 . S
C52 O32 1.234 . S
C53 H25 0.929 . S
C53 C56 1.391 . S
C53 C58 1.391 . S
C54 H26 0.929 . S
C54 C55 1.390 . S
C54 N57 1.391 . S
C55 H27 0.930 . S
C55 C54 1.390 . S
C55 C56 1.392 . S
C56 H28 0.929 . S
C56 C53 1.391 . S
C56 C55 1.392 . S
N57 Co1 2.257 . S
N57 C54 1.391 . S
N57 C58 1.388 . S
C58 H29 0.930 . S
C58 C53 1.391 . S
C58 N57 1.388 . S
Co59 O61 2.143 . S
Co59 O67 2.074 . S
Co59 O70 2.093 . S
Co59 O83 2.097 . S
Co59 N100 2.151 . S
Co59 N108 2.214 . S
Co60 O61 2.160 . S
Co60 O66 2.058 . S
Co60 O76 2.057 . S
Co60 O91 2.037 . S
Co60 N95 2.145 . S
Co60 N116 2.257 . S
O61 Co59 2.143 . S
O61 Co60 2.160 . S
C62 O63 1.278 . S
C62 O70 1.224 . S
O63 C62 1.278 . S
C64 O65 1.245 . S
C64 O76 1.232 . S
O65 C64 1.245 . S
O66 Co60 2.058 . S
O66 C92 1.269 . S
O67 Co59 2.074 . S
O67 C92 1.257 . S
H68 C93 0.930 . S
H69 C99 0.930 . S
O70 Co59 2.093 . S
O70 C62 1.224 . S
H71 C103 0.929 . S
H72 C105 0.930 . S
H73 C106 0.930 . S
H74 C104 0.929 . S
H75 C107 0.928 . S
O76 Co60 2.057 . S
O76 C64 1.232 . S
H77 C96 0.929 . S
H78 C97 0.929 . S
H79 C109 0.931 . S
H80 C101 0.929 . S
H81 C110 0.930 . S
H82 C102 0.931 . S
O83 Co59 2.097 . S
O83 C111 1.214 . S
H84 C112 0.929 . S
H85 C113 0.929 . S
H86 C114 0.930 . S
H87 C115 0.929 . S
H88 C117 0.930 . S
H89 C94 0.930 . S
H90 C98 0.930 . S
O91 Co60 2.037 . S
O91 C111 1.234 . S
C92 O66 1.269 . S
C92 O67 1.257 . S
C93 H68 0.930 . S
C93 C96 1.388 . S
C93 C98 1.418 . S
C94 H89 0.930 . S
C94 C97 1.404 . S
C94 C98 1.353 . S
N95 Co60 2.145 . S
N95 C96 1.397 . S
N95 C97 1.334 . S
C96 H77 0.929 . S
C96 C93 1.388 . S
C96 N95 1.397 . S
C97 H78 0.929 . S
C97 C94 1.404 . S
C97 N95 1.334 . S
C98 H90 0.930 . S
C98 C93 1.418 . S
C98 C94 1.353 . S
C99 H69 0.930 . S
C99 N100 1.330 . S
C99 C101 1.446 . S
N100 Co59 2.151 . S
N100 C99 1.330 . S
N100 C104 1.418 . S
C101 H80 0.929 . S
C101 C99 1.446 . S
C101 C102 1.332 . S
C102 H82 0.931 . S
C102 C101 1.332 . S
C102 C103 1.267 . S
C103 H71 0.929 . S
C103 C102 1.267 . S
C103 C104 1.251 . S
C104 H74 0.929 . S
C104 N100 1.418 . S
C104 C103 1.251 . S
C105 H72 0.930 . S
C105 C107 1.406 . S
C105 C110 1.261 . S
C106 H73 0.930 . S
C106 N108 1.325 . S
C106 C109 1.357 . S
C107 H75 0.928 . S
C107 C105 1.406 . S
C107 N108 1.261 . S
N108 Co59 2.214 . S
N108 C106 1.325 . S
N108 C107 1.261 . S
C109 H79 0.931 . S
C109 C106 1.357 . S
C109 C110 1.312 . S
C110 H81 0.930 . S
C110 C105 1.261 . S
C110 C109 1.312 . S
C111 O83 1.214 . S
C111 O91 1.234 . S
C112 H84 0.929 . S
C112 C115 1.391 . S
C112 C117 1.391 . S
C113 H85 0.929 . S
C113 C114 1.390 . S
C113 N116 1.391 . S
C114 H86 0.930 . S
C114 C113 1.390 . S
C114 C115 1.392 . S
C115 H87 0.929 . S
C115 C112 1.391 . S
C115 C114 1.392 . S
N116 Co60 2.257 . S
N116 C113 1.391 . S
N116 C117 1.388 . S
C117 H88 0.930 . S
C117 C112 1.391 . S
C117 N116 1.388 . S
Co118 O120 2.143 . S
Co118 O126 2.074 . S
Co118 O129 2.093 . S
Co118 O142 2.097 . S
Co118 N159 2.151 . S
Co118 N167 2.214 . S
Co119 O120 2.160 . S
Co119 O125 2.058 . S
Co119 O135 2.057 . S
Co119 O150 2.037 . S
Co119 N154 2.145 . S
Co119 N175 2.257 . S
O120 Co118 2.143 . S
O120 Co119 2.160 . S
C121 O122 1.278 . S
C121 O129 1.224 . S
O122 C121 1.278 . S
C123 O124 1.245 . S
C123 O135 1.232 . S
O124 C123 1.245 . S
O125 Co119 2.058 . S
O125 C151 1.269 . S
O126 Co118 2.074 . S
O126 C151 1.257 . S
H127 C152 0.930 . S
H128 C158 0.930 . S
O129 Co118 2.093 . S
O129 C121 1.224 . S
H130 C162 0.929 . S
H131 C164 0.930 . S
H132 C165 0.930 . S
H133 C163 0.929 . S
H134 C166 0.928 . S
O135 Co119 2.057 . S
O135 C123 1.232 . S
H136 C155 0.929 . S
H137 C156 0.929 . S
H138 C168 0.931 . S
H139 C160 0.929 . S
H140 C169 0.930 . S
H141 C161 0.931 . S
O142 Co118 2.097 . S
O142 C170 1.214 . S
H143 C171 0.929 . S
H144 C172 0.929 . S
H145 C173 0.930 . S
H146 C174 0.929 . S
H147 C176 0.930 . S
H148 C153 0.930 . S
H149 C157 0.930 . S
O150 Co119 2.037 . S
O150 C170 1.234 . S
C151 O125 1.269 . S
C151 O126 1.257 . S
C152 H127 0.930 . S
C152 C155 1.388 . S
C152 C157 1.418 . S
C153 H148 0.930 . S
C153 C156 1.404 . S
C153 C157 1.353 . S
N154 Co119 2.145 . S
N154 C155 1.397 . S
N154 C156 1.334 . S
C155 H136 0.929 . S
C155 C152 1.388 . S
C155 N154 1.397 . S
C156 H137 0.929 . S
C156 C153 1.404 . S
C156 N154 1.334 . S
C157 H149 0.930 . S
C157 C152 1.418 . S
C157 C153 1.353 . S
C158 H128 0.930 . S
C158 N159 1.330 . S
C158 C160 1.446 . S
N159 Co118 2.151 . S
N159 C158 1.330 . S
N159 C163 1.418 . S
C160 H139 0.929 . S
C160 C158 1.446 . S
C160 C161 1.332 . S
C161 H141 0.931 . S
C161 C160 1.332 . S
C161 C162 1.267 . S
C162 H130 0.929 . S
C162 C161 1.267 . S
C162 C163 1.251 . S
C163 H133 0.929 . S
C163 N159 1.418 . S
C163 C162 1.251 . S
C164 H131 0.930 . S
C164 C166 1.406 . S
C164 C169 1.261 . S
C165 H132 0.930 . S
C165 N167 1.325 . S
C165 C168 1.357 . S
C166 H134 0.928 . S
C166 C164 1.406 . S
C166 N167 1.261 . S
N167 Co118 2.214 . S
N167 C165 1.325 . S
N167 C166 1.261 . S
C168 H138 0.931 . S
C168 C165 1.357 . S
C168 C169 1.312 . S
C169 H140 0.930 . S
C169 C164 1.261 . S
C169 C168 1.312 . S
C170 O142 1.214 . S
C170 O150 1.234 . S
C171 H143 0.929 . S
C171 C174 1.391 . S
C171 C176 1.391 . S
C172 H144 0.929 . S
C172 C173 1.390 . S
C172 N175 1.391 . S
C173 H145 0.930 . S
C173 C172 1.390 . S
C173 C174 1.392 . S
C174 H146 0.929 . S
C174 C171 1.391 . S
C174 C173 1.392 . S
N175 Co119 2.257 . S
N175 C172 1.391 . S
N175 C176 1.388 . S
C176 H147 0.930 . S
C176 C171 1.391 . S
C176 N175 1.388 . S
Co177 O179 2.143 . S
Co177 O185 2.074 . S
Co177 O188 2.093 . S
Co177 O201 2.097 . S
Co177 N218 2.151 . S
Co177 N226 2.214 . S
Co178 O179 2.160 . S
Co178 O184 2.058 . S
Co178 O194 2.057 . S
Co178 O209 2.037 . S
Co178 N213 2.145 . S
Co178 N234 2.257 . S
O179 Co177 2.143 . S
O179 Co178 2.160 . S
C180 O181 1.278 . S
C180 O188 1.224 . S
O181 C180 1.278 . S
C182 O183 1.245 . S
C182 O194 1.232 . S
O183 C182 1.245 . S
O184 Co178 2.058 . S
O184 C210 1.269 . S
O185 Co177 2.074 . S
O185 C210 1.257 . S
H186 C211 0.930 . S
H187 C217 0.930 . S
O188 Co177 2.093 . S
O188 C180 1.224 . S
H189 C221 0.929 . S
H190 C223 0.930 . S
H191 C224 0.930 . S
H192 C222 0.929 . S
H193 C225 0.928 . S
O194 Co178 2.057 . S
O194 C182 1.232 . S
H195 C214 0.929 . S
H196 C215 0.929 . S
H197 C227 0.931 . S
H198 C219 0.929 . S
H199 C228 0.930 . S
H200 C220 0.931 . S
O201 Co177 2.097 . S
O201 C229 1.214 . S
H202 C230 0.929 . S
H203 C231 0.929 . S
H204 C232 0.930 . S
H205 C233 0.929 . S
H206 C235 0.930 . S
H207 C212 0.930 . S
H208 C216 0.930 . S
O209 Co178 2.037 . S
O209 C229 1.234 . S
C210 O184 1.269 . S
C210 O185 1.257 . S
C211 H186 0.930 . S
C211 C214 1.388 . S
C211 C216 1.418 . S
C212 H207 0.930 . S
C212 C215 1.404 . S
C212 C216 1.353 . S
N213 Co178 2.145 . S
N213 C214 1.397 . S
N213 C215 1.334 . S
C214 H195 0.929 . S
C214 C211 1.388 . S
C214 N213 1.397 . S
C215 H196 0.929 . S
C215 C212 1.404 . S
C215 N213 1.334 . S
C216 H208 0.930 . S
C216 C211 1.418 . S
C216 C212 1.353 . S
C217 H187 0.930 . S
C217 N218 1.330 . S
C217 C219 1.446 . S
N218 Co177 2.151 . S
N218 C217 1.330 . S
N218 C222 1.418 . S
C219 H198 0.929 . S
C219 C217 1.446 . S
C219 C220 1.332 . S
C220 H200 0.931 . S
C220 C219 1.332 . S
C220 C221 1.267 . S
C221 H189 0.929 . S
C221 C220 1.267 . S
C221 C222 1.251 . S
C222 H192 0.929 . S
C222 N218 1.418 . S
C222 C221 1.251 . S
C223 H190 0.930 . S
C223 C225 1.406 . S
C223 C228 1.261 . S
C224 H191 0.930 . S
C224 N226 1.325 . S
C224 C227 1.357 . S
C225 H193 0.928 . S
C225 C223 1.406 . S
C225 N226 1.261 . S
N226 Co177 2.214 . S
N226 C224 1.325 . S
N226 C225 1.261 . S
C227 H197 0.931 . S
C227 C224 1.357 . S
C227 C228 1.312 . S
C228 H199 0.930 . S
C228 C223 1.261 . S
C228 C227 1.312 . S
C229 O201 1.214 . S
C229 O209 1.234 . S
C230 H202 0.929 . S
C230 C233 1.391 . S
C230 C235 1.391 . S
C231 H203 0.929 . S
C231 C232 1.390 . S
C231 N234 1.391 . S
C232 H204 0.930 . S
C232 C231 1.390 . S
C232 C233 1.392 . S
C233 H205 0.929 . S
C233 C230 1.391 . S
C233 C232 1.392 . S
N234 Co178 2.257 . S
N234 C231 1.391 . S
N234 C235 1.388 . S
C235 H206 0.930 . S
C235 C230 1.391 . S
C235 N234 1.388 . S
Co236 O238 2.143 . S
Co236 O244 2.074 . S
Co236 O247 2.093 . S
Co236 O260 2.097 . S
Co236 N277 2.151 . S
Co236 N285 2.214 . S
Co237 O238 2.160 . S
Co237 O243 2.058 . S
Co237 O253 2.057 . S
Co237 O268 2.037 . S
Co237 N272 2.145 . S
Co237 N293 2.257 . S
O238 Co236 2.143 . S
O238 Co237 2.160 . S
C239 O240 1.278 . S
C239 O247 1.224 . S
O240 C239 1.278 . S
C241 O242 1.245 . S
C241 O253 1.232 . S
O242 C241 1.245 . S
O243 Co237 2.058 . S
O243 C269 1.269 . S
O244 Co236 2.074 . S
O244 C269 1.257 . S
H245 C270 0.930 . S
H246 C276 0.930 . S
O247 Co236 2.093 . S
O247 C239 1.224 . S
H248 C280 0.929 . S
H249 C282 0.930 . S
H250 C283 0.930 . S
H251 C281 0.929 . S
H252 C284 0.928 . S
O253 Co237 2.057 . S
O253 C241 1.232 . S
H254 C273 0.929 . S
H255 C274 0.929 . S
H256 C286 0.931 . S
H257 C278 0.929 . S
H258 C287 0.930 . S
H259 C279 0.931 . S
O260 Co236 2.097 . S
O260 C288 1.214 . S
H261 C289 0.929 . S
H262 C290 0.929 . S
H263 C291 0.930 . S
H264 C292 0.929 . S
H265 C294 0.930 . S
H266 C271 0.930 . S
H267 C275 0.930 . S
O268 Co237 2.037 . S
O268 C288 1.234 . S
C269 O243 1.269 . S
C269 O244 1.257 . S
C270 H245 0.930 . S
C270 C273 1.388 . S
C270 C275 1.418 . S
C271 H266 0.930 . S
C271 C274 1.404 . S
C271 C275 1.353 . S
N272 Co237 2.145 . S
N272 C273 1.397 . S
N272 C274 1.334 . S
C273 H254 0.929 . S
C273 C270 1.388 . S
C273 N272 1.397 . S
C274 H255 0.929 . S
C274 C271 1.404 . S
C274 N272 1.334 . S
C275 H267 0.930 . S
C275 C270 1.418 . S
C275 C271 1.353 . S
C276 H246 0.930 . S
C276 N277 1.330 . S
C276 C278 1.446 . S
N277 Co236 2.151 . S
N277 C276 1.330 . S
N277 C281 1.418 . S
C278 H257 0.929 . S
C278 C276 1.446 . S
C278 C279 1.332 . S
C279 H259 0.931 . S
C279 C278 1.332 . S
C279 C280 1.267 . S
C280 H248 0.929 . S
C280 C279 1.267 . S
C280 C281 1.251 . S
C281 H251 0.929 . S
C281 N277 1.418 . S
C281 C280 1.251 . S
C282 H249 0.930 . S
C282 C284 1.406 . S
C282 C287 1.261 . S
C283 H250 0.930 . S
C283 N285 1.325 . S
C283 C286 1.357 . S
C284 H252 0.928 . S
C284 C282 1.406 . S
C284 N285 1.261 . S
N285 Co236 2.214 . S
N285 C283 1.325 . S
N285 C284 1.261 . S
C286 H256 0.931 . S
C286 C283 1.357 . S
C286 C287 1.312 . S
C287 H258 0.930 . S
C287 C282 1.261 . S
C287 C286 1.312 . S
C288 O260 1.214 . S
C288 O268 1.234 . S
C289 H261 0.929 . S
C289 C292 1.391 . S
C289 C294 1.391 . S
C290 H262 0.929 . S
C290 C291 1.390 . S
C290 N293 1.391 . S
C291 H263 0.930 . S
C291 C290 1.390 . S
C291 C292 1.392 . S
C292 H264 0.929 . S
C292 C289 1.391 . S
C292 C291 1.392 . S
N293 Co237 2.257 . S
N293 C290 1.391 . S
N293 C294 1.388 . S
C294 H265 0.930 . S
C294 C289 1.391 . S
C294 N293 1.388 . S
Co295 O297 2.143 . S
Co295 O303 2.074 . S
Co295 O306 2.093 . S
Co295 O319 2.097 . S
Co295 N336 2.151 . S
Co295 N344 2.214 . S
Co296 O297 2.160 . S
Co296 O302 2.058 . S
Co296 O312 2.057 . S
Co296 O327 2.037 . S
Co296 N331 2.145 . S
Co296 N352 2.257 . S
O297 Co295 2.143 . S
O297 Co296 2.160 . S
C298 O299 1.278 . S
C298 O306 1.224 . S
O299 C298 1.278 . S
C300 O301 1.245 . S
C300 O312 1.232 . S
O301 C300 1.245 . S
O302 Co296 2.058 . S
O302 C328 1.269 . S
O303 Co295 2.074 . S
O303 C328 1.257 . S
H304 C329 0.930 . S
H305 C335 0.930 . S
O306 Co295 2.093 . S
O306 C298 1.224 . S
H307 C339 0.929 . S
H308 C341 0.930 . S
H309 C342 0.930 . S
H310 C340 0.929 . S
H311 C343 0.928 . S
O312 Co296 2.057 . S
O312 C300 1.232 . S
H313 C332 0.929 . S
H314 C333 0.929 . S
H315 C345 0.931 . S
H316 C337 0.929 . S
H317 C346 0.930 . S
H318 C338 0.931 . S
O319 Co295 2.097 . S
O319 C347 1.214 . S
H320 C348 0.929 . S
H321 C349 0.929 . S
H322 C350 0.930 . S
H323 C351 0.929 . S
H324 C353 0.930 . S
H325 C330 0.930 . S
H326 C334 0.930 . S
O327 Co296 2.037 . S
O327 C347 1.234 . S
C328 O302 1.269 . S
C328 O303 1.257 . S
C329 H304 0.930 . S
C329 C332 1.388 . S
C329 C334 1.418 . S
C330 H325 0.930 . S
C330 C333 1.404 . S
C330 C334 1.353 . S
N331 Co296 2.145 . S
N331 C332 1.397 . S
N331 C333 1.334 . S
C332 H313 0.929 . S
C332 C329 1.388 . S
C332 N331 1.397 . S
C333 H314 0.929 . S
C333 C330 1.404 . S
C333 N331 1.334 . S
C334 H326 0.930 . S
C334 C329 1.418 . S
C334 C330 1.353 . S
C335 H305 0.930 . S
C335 N336 1.330 . S
C335 C337 1.446 . S
N336 Co295 2.151 . S
N336 C335 1.330 . S
N336 C340 1.418 . S
C337 H316 0.929 . S
C337 C335 1.446 . S
C337 C338 1.332 . S
C338 H318 0.931 . S
C338 C337 1.332 . S
C338 C339 1.267 . S
C339 H307 0.929 . S
C339 C338 1.267 . S
C339 C340 1.251 . S
C340 H310 0.929 . S
C340 N336 1.418 . S
C340 C339 1.251 . S
C341 H308 0.930 . S
C341 C343 1.406 . S
C341 C346 1.261 . S
C342 H309 0.930 . S
C342 N344 1.325 . S
C342 C345 1.357 . S
C343 H311 0.928 . S
C343 C341 1.406 . S
C343 N344 1.261 . S
N344 Co295 2.214 . S
N344 C342 1.325 . S
N344 C343 1.261 . S
C345 H315 0.931 . S
C345 C342 1.357 . S
C345 C346 1.312 . S
C346 H317 0.930 . S
C346 C341 1.261 . S
C346 C345 1.312 . S
C347 O319 1.214 . S
C347 O327 1.234 . S
C348 H320 0.929 . S
C348 C351 1.391 . S
C348 C353 1.391 . S
C349 H321 0.929 . S
C349 C350 1.390 . S
C349 N352 1.391 . S
C350 H322 0.930 . S
C350 C349 1.390 . S
C350 C351 1.392 . S
C351 H323 0.929 . S
C351 C348 1.391 . S
C351 C350 1.392 . S
N352 Co296 2.257 . S
N352 C349 1.391 . S
N352 C353 1.388 . S
C353 H324 0.930 . S
C353 C348 1.391 . S
C353 N352 1.388 . S
Co354 O356 2.143 . S
Co354 O362 2.074 . S
Co354 O365 2.093 . S
Co354 O378 2.097 . S
Co354 N395 2.151 . S
Co354 N403 2.214 . S
Co355 O356 2.160 . S
Co355 O361 2.058 . S
Co355 O371 2.057 . S
Co355 O386 2.037 . S
Co355 N390 2.145 . S
Co355 N411 2.257 . S
O356 Co354 2.143 . S
O356 Co355 2.160 . S
C357 O358 1.278 . S
C357 O365 1.224 . S
O358 C357 1.278 . S
C359 O360 1.245 . S
C359 O371 1.232 . S
O360 C359 1.245 . S
O361 Co355 2.058 . S
O361 C387 1.269 . S
O362 Co354 2.074 . S
O362 C387 1.257 . S
H363 C388 0.930 . S
H364 C394 0.930 . S
O365 Co354 2.093 . S
O365 C357 1.224 . S
H366 C398 0.929 . S
H367 C400 0.930 . S
H368 C401 0.930 . S
H369 C399 0.929 . S
H370 C402 0.928 . S
O371 Co355 2.057 . S
O371 C359 1.232 . S
H372 C391 0.929 . S
H373 C392 0.929 . S
H374 C404 0.931 . S
H375 C396 0.929 . S
H376 C405 0.930 . S
H377 C397 0.931 . S
O378 Co354 2.097 . S
O378 C406 1.214 . S
H379 C407 0.929 . S
H380 C408 0.929 . S
H381 C409 0.930 . S
H382 C410 0.929 . S
H383 C412 0.930 . S
H384 C389 0.930 . S
H385 C393 0.930 . S
O386 Co355 2.037 . S
O386 C406 1.234 . S
C387 O361 1.269 . S
C387 O362 1.257 . S
C388 H363 0.930 . S
C388 C391 1.388 . S
C388 C393 1.418 . S
C389 H384 0.930 . S
C389 C392 1.404 . S
C389 C393 1.353 . S
N390 Co355 2.145 . S
N390 C391 1.397 . S
N390 C392 1.334 . S
C391 H372 0.929 . S
C391 C388 1.388 . S
C391 N390 1.397 . S
C392 H373 0.929 . S
C392 C389 1.404 . S
C392 N390 1.334 . S
C393 H385 0.930 . S
C393 C388 1.418 . S
C393 C389 1.353 . S
C394 H364 0.930 . S
C394 N395 1.330 . S
C394 C396 1.446 . S
N395 Co354 2.151 . S
N395 C394 1.330 . S
N395 C399 1.418 . S
C396 H375 0.929 . S
C396 C394 1.446 . S
C396 C397 1.332 . S
C397 H377 0.931 . S
C397 C396 1.332 . S
C397 C398 1.267 . S
C398 H366 0.929 . S
C398 C397 1.267 . S
C398 C399 1.251 . S
C399 H369 0.929 . S
C399 N395 1.418 . S
C399 C398 1.251 . S
C400 H367 0.930 . S
C400 C402 1.406 . S
C400 C405 1.261 . S
C401 H368 0.930 . S
C401 N403 1.325 . S
C401 C404 1.357 . S
C402 H370 0.928 . S
C402 C400 1.406 . S
C402 N403 1.261 . S
N403 Co354 2.214 . S
N403 C401 1.325 . S
N403 C402 1.261 . S
C404 H374 0.931 . S
C404 C401 1.357 . S
C404 C405 1.312 . S
C405 H376 0.930 . S
C405 C400 1.261 . S
C405 C404 1.312 . S
C406 O378 1.214 . S
C406 O386 1.234 . S
C407 H379 0.929 . S
C407 C410 1.391 . S
C407 C412 1.391 . S
C408 H380 0.929 . S
C408 C409 1.390 . S
C408 N411 1.391 . S
C409 H381 0.930 . S
C409 C408 1.390 . S
C409 C410 1.392 . S
C410 H382 0.929 . S
C410 C407 1.391 . S
C410 C409 1.392 . S
N411 Co355 2.257 . S
N411 C408 1.391 . S
N411 C412 1.388 . S
C412 H383 0.930 . S
C412 C407 1.391 . S
C412 N411 1.388 . S
Co413 O415 2.143 . S
Co413 O421 2.074 . S
Co413 O424 2.093 . S
Co413 O437 2.097 . S
Co413 N454 2.151 . S
Co413 N462 2.214 . S
Co414 O415 2.160 . S
Co414 O420 2.058 . S
Co414 O430 2.057 . S
Co414 O445 2.037 . S
Co414 N449 2.145 . S
Co414 N470 2.257 . S
O415 Co413 2.143 . S
O415 Co414 2.160 . S
C416 O417 1.278 . S
C416 O424 1.224 . S
O417 C416 1.278 . S
C418 O419 1.245 . S
C418 O430 1.232 . S
O419 C418 1.245 . S
O420 Co414 2.058 . S
O420 C446 1.269 . S
O421 Co413 2.074 . S
O421 C446 1.257 . S
H422 C447 0.930 . S
H423 C453 0.930 . S
O424 Co413 2.093 . S
O424 C416 1.224 . S
H425 C457 0.929 . S
H426 C459 0.930 . S
H427 C460 0.930 . S
H428 C458 0.929 . S
H429 C461 0.928 . S
O430 Co414 2.057 . S
O430 C418 1.232 . S
H431 C450 0.929 . S
H432 C451 0.929 . S
H433 C463 0.931 . S
H434 C455 0.929 . S
H435 C464 0.930 . S
H436 C456 0.931 . S
O437 Co413 2.097 . S
O437 C465 1.214 . S
H438 C466 0.929 . S
H439 C467 0.929 . S
H440 C468 0.930 . S
H441 C469 0.929 . S
H442 C471 0.930 . S
H443 C448 0.930 . S
H444 C452 0.930 . S
O445 Co414 2.037 . S
O445 C465 1.234 . S
C446 O420 1.269 . S
C446 O421 1.257 . S
C447 H422 0.930 . S
C447 C450 1.388 . S
C447 C452 1.418 . S
C448 H443 0.930 . S
C448 C451 1.404 . S
C448 C452 1.353 . S
N449 Co414 2.145 . S
N449 C450 1.397 . S
N449 C451 1.334 . S
C450 H431 0.929 . S
C450 C447 1.388 . S
C450 N449 1.397 . S
C451 H432 0.929 . S
C451 C448 1.404 . S
C451 N449 1.334 . S
C452 H444 0.930 . S
C452 C447 1.418 . S
C452 C448 1.353 . S
C453 H423 0.930 . S
C453 N454 1.330 . S
C453 C455 1.446 . S
N454 Co413 2.151 . S
N454 C453 1.330 . S
N454 C458 1.418 . S
C455 H434 0.929 . S
C455 C453 1.446 . S
C455 C456 1.332 . S
C456 H436 0.931 . S
C456 C455 1.332 . S
C456 C457 1.267 . S
C457 H425 0.929 . S
C457 C456 1.267 . S
C457 C458 1.251 . S
C458 H428 0.929 . S
C458 N454 1.418 . S
C458 C457 1.251 . S
C459 H426 0.930 . S
C459 C461 1.406 . S
C459 C464 1.261 . S
C460 H427 0.930 . S
C460 N462 1.325 . S
C460 C463 1.357 . S
C461 H429 0.928 . S
C461 C459 1.406 . S
C461 N462 1.261 . S
N462 Co413 2.214 . S
N462 C460 1.325 . S
N462 C461 1.261 . S
C463 H433 0.931 . S
C463 C460 1.357 . S
C463 C464 1.312 . S
C464 H435 0.930 . S
C464 C459 1.261 . S
C464 C463 1.312 . S
C465 O437 1.214 . S
C465 O445 1.234 . S
C466 H438 0.929 . S
C466 C469 1.391 . S
C466 C471 1.391 . S
C467 H439 0.929 . S
C467 C468 1.390 . S
C467 N470 1.391 . S
C468 H440 0.930 . S
C468 C467 1.390 . S
C468 C469 1.392 . S
C469 H441 0.929 . S
C469 C466 1.391 . S
C469 C468 1.392 . S
N470 Co414 2.257 . S
N470 C467 1.391 . S
N470 C471 1.388 . S
C471 H442 0.930 . S
C471 C466 1.391 . S
C471 N470 1.388 . S
H472 C480 0.929 . S
H473 C482 0.930 1_655 S
H474 C484 0.930 . S
H475 C487 0.929 . S
H476 C490 0.930 . S
H477 C492 0.960 . S
H478 C492 0.960 . S
H479 C492 0.960 . S
C480 H472 0.929 . S
C480 C481 1.377 . S
C480 C482 1.384 . S
C481 C480 1.377 . S
C481 C487 1.390 . S
C482 H473 0.930 1_455 S
C482 C480 1.384 . S
C482 C483 1.372 . S
C483 C482 1.372 . S
C483 C484 1.400 . S
C483 C488 1.490 . S
C484 H474 0.930 . S
C484 C483 1.400 . S
C484 C487 1.386 . S
H485 C501 0.930 . S
H486 C502 0.931 1_455 S
C487 H475 0.929 . S
C487 C481 1.390 . S
C487 C484 1.386 . S
C488 C483 1.490 . S
C488 C490 1.395 1_455 S
C488 C491 1.403 . S
H489 C495 0.930 . S
C490 H476 0.930 . S
C490 C488 1.395 1_655 S
C490 C493 1.403 1_545 S
C491 C488 1.403 . S
C491 C492 1.524 . S
C491 C495 1.400 1_545 S
C492 H477 0.960 . S
C492 H478 0.960 . S
C492 H479 0.960 . S
C492 C491 1.524 . S
C493 C490 1.403 1_565 S
C493 C494 1.392 . S
C493 C497 1.495 . S
C494 C493 1.392 . S
C494 C495 1.385 1_655 S
C494 C496 1.478 . S
C495 H489 0.930 . S
C495 C491 1.400 1_565 S
C495 C494 1.385 1_455 S
C496 C494 1.478 . S
C496 C498 1.381 . S
C496 C502 1.383 . S
C497 C493 1.495 . S
C497 H503 0.959 . S
C497 H504 0.961 . S
C497 H505 0.960 . S
C498 C496 1.381 . S
C498 C499 1.394 . S
C498 H506 0.930 . S
C499 C498 1.394 . S
C499 C500 1.383 . S
C499 H507 0.929 . S
C500 C499 1.383 . S
C500 C501 1.377 . S
C501 H485 0.930 . S
C501 C500 1.377 . S
C501 C502 1.379 . S
C502 H486 0.931 1_655 S
C502 C496 1.383 . S
C502 C501 1.379 . S
H503 C497 0.959 . S
H504 C497 0.961 . S
H505 C497 0.960 . S
H506 C498 0.930 . S
H507 C499 0.929 . S
H508 C516 0.929 . S
H509 C518 0.930 . S
H510 C520 0.930 . S
H511 C523 0.929 . S
H512 C526 0.930 . S
H513 C528 0.960 1_545 S
H514 C528 0.960 . S
H515 C528 0.960 . S
C516 H508 0.929 . S
C516 C517 1.377 . S
C516 C518 1.384 . S
C517 C516 1.377 . S
C517 C523 1.390 . S
C518 H509 0.930 . S
C518 C516 1.384 . S
C518 C519 1.372 . S
C519 C518 1.372 . S
C519 C520 1.400 . S
C519 C524 1.490 . S
C520 H510 0.930 . S
C520 C519 1.400 . S
C520 C523 1.386 . S
H521 C537 0.930 . S
H522 C538 0.931 . S
C523 H511 0.929 . S
C523 C517 1.390 . S
C523 C520 1.386 . S
C524 C519 1.490 . S
C524 C526 1.395 1_455 S
C524 C527 1.403 . S
H525 C531 0.930 . S
C526 H512 0.930 . S
C526 C524 1.395 1_655 S
C526 C529 1.403 1_566 S
C527 C524 1.403 . S
C527 C528 1.524 . S
C527 C531 1.400 1_566 S
C528 H513 0.960 1_565 S
C528 H514 0.960 . S
C528 H515 0.960 . S
C528 C527 1.524 . S
C529 C526 1.403 1_544 S
C529 C530 1.392 . S
C529 C533 1.495 . S
C530 C529 1.392 . S
C530 C531 1.385 1_655 S
C530 C532 1.478 . S
C531 H525 0.930 . S
C531 C527 1.400 1_544 S
C531 C530 1.385 1_455 S
C532 C530 1.478 . S
C532 C534 1.381 . S
C532 C538 1.383 . S
C533 C529 1.495 . S
C533 H539 0.959 1_545 S
C533 H540 0.961 . S
C533 H541 0.960 . S
C534 C532 1.381 . S
C534 C535 1.394 . S
C534 H542 0.930 . S
C535 C534 1.394 . S
C535 C536 1.383 . S
C535 H543 0.929 . S
C536 C535 1.383 . S
C536 C537 1.377 . S
C537 H521 0.930 . S
C537 C536 1.377 . S
C537 C538 1.379 . S
C538 H522 0.931 . S
C538 C532 1.383 . S
C538 C537 1.379 . S
H539 C533 0.959 1_565 S
H540 C533 0.961 . S
H541 C533 0.960 . S
H542 C534 0.930 . S
H543 C535 0.929 . S
H544 C552 0.929 . S
H545 C554 0.930 . S
H546 C556 0.930 . S
H547 C559 0.929 . S
H548 C562 0.930 . S
H549 C564 0.960 . S
H550 C564 0.960 . S
H551 C564 0.960 . S
C552 H544 0.929 . S
C552 C553 1.377 . S
C552 C554 1.384 . S
C553 C552 1.377 . S
C553 C559 1.390 . S
C554 H545 0.930 . S
C554 C552 1.384 . S
C554 C555 1.372 . S
C555 C554 1.372 . S
C555 C556 1.400 . S
C555 C560 1.490 . S
C556 H546 0.930 . S
C556 C555 1.400 . S
C556 C559 1.386 . S
H557 C573 0.930 . S
H558 C574 0.931 . S
C559 H547 0.929 . S
C559 C553 1.390 . S
C559 C556 1.386 . S
C560 C555 1.490 . S
C560 C562 1.395 . S
C560 C563 1.403 . S
H561 C567 0.930 . S
C562 H548 0.930 . S
C562 C560 1.395 . S
C562 C565 1.403 . S
C563 C560 1.403 . S
C563 C564 1.524 . S
C563 C567 1.400 . S
C564 H549 0.960 . S
C564 H550 0.960 . S
C564 H551 0.960 . S
C564 C563 1.524 . S
C565 C562 1.403 . S
C565 C566 1.392 . S
C565 C569 1.495 . S
C566 C565 1.392 . S
C566 C567 1.385 . S
C566 C568 1.478 . S
C567 H561 0.930 . S
C567 C563 1.400 . S
C567 C566 1.385 . S
C568 C566 1.478 . S
C568 C570 1.381 . S
C568 C574 1.383 . S
C569 C565 1.495 . S
C569 H575 0.959 . S
C569 H576 0.961 . S
C569 H577 0.960 . S
C570 C568 1.381 . S
C570 C571 1.394 . S
C570 H578 0.930 . S
C571 C570 1.394 . S
C571 C572 1.383 . S
C571 H579 0.929 . S
C572 C571 1.383 . S
C572 C573 1.377 . S
C573 H557 0.930 . S
C573 C572 1.377 . S
C573 C574 1.379 . S
C574 H558 0.931 . S
C574 C568 1.383 . S
C574 C573 1.379 . S
H575 C569 0.959 . S
H576 C569 0.961 . S
H577 C569 0.960 . S
H578 C570 0.930 . S
H579 C571 0.929 . S
H580 C588 0.929 . S
H581 C590 0.930 . S
H582 C592 0.930 . S
H583 C595 0.929 . S
H584 C598 0.930 . S
H585 C600 0.960 . S
H586 C600 0.960 . S
H587 C600 0.960 . S
C588 H580 0.929 . S
C588 C589 1.377 . S
C588 C590 1.384 . S
C589 C588 1.377 . S
C589 C595 1.390 . S
C590 H581 0.930 . S
C590 C588 1.384 . S
C590 C591 1.372 . S
C591 C590 1.372 . S
C591 C592 1.400 . S
C591 C596 1.490 . S
C592 H582 0.930 . S
C592 C591 1.400 . S
C592 C595 1.386 . S
H593 C609 0.930 . S
H594 C610 0.931 . S
C595 H583 0.929 . S
C595 C589 1.390 . S
C595 C592 1.386 . S
C596 C591 1.490 . S
C596 C598 1.395 1_554 S
C596 C599 1.403 . S
H597 C603 0.930 . S
C598 H584 0.930 . S
C598 C596 1.395 1_556 S
C598 C601 1.403 . S
C599 C596 1.403 . S
C599 C600 1.524 . S
C599 C603 1.400 . S
C600 H585 0.960 . S
C600 H586 0.960 . S
C600 H587 0.960 . S
C600 C599 1.524 . S
C601 C598 1.403 . S
C601 C602 1.392 . S
C601 C605 1.495 . S
C602 C601 1.392 . S
C602 C603 1.385 1_556 S
C602 C604 1.478 . S
C603 H597 0.930 . S
C603 C599 1.400 . S
C603 C602 1.385 1_554 S
C604 C602 1.478 . S
C604 C606 1.381 . S
C604 C610 1.383 . S
C605 C601 1.495 . S
C605 H611 0.959 . S
C605 H612 0.961 . S
C605 H613 0.960 . S
C606 C604 1.381 . S
C606 C607 1.394 . S
C606 H614 0.930 . S
C607 C606 1.394 . S
C607 C608 1.383 . S
C607 H615 0.929 . S
C608 C607 1.383 . S
C608 C609 1.377 . S
C609 H593 0.930 . S
C609 C608 1.377 . S
C609 C610 1.379 . S
C610 H594 0.931 . S
C610 C604 1.383 . S
C610 C609 1.379 . S
H611 C605 0.959 . S
H612 C605 0.961 . S
H613 C605 0.960 . S
H614 C606 0.930 . S
H615 C607 0.929 . S
H616 C624 0.929 . S
H617 C626 0.930 . S
H618 C628 0.930 . S
H619 C631 0.929 . S
H620 C634 0.927 1_655 S
H621 C636 0.960 . S
H622 C636 0.960 . S
H623 C636 0.960 . S
C624 H616 0.929 . S
C624 C625 1.377 . S
C624 C626 1.384 . S
C625 C624 1.377 . S
C625 C631 1.390 . S
C626 H617 0.930 . S
C626 C624 1.384 . S
C626 C627 1.372 . S
C627 C626 1.372 . S
C627 C628 1.400 . S
C627 C632 1.490 . S
C628 H618 0.930 . S
C628 C627 1.400 . S
C628 C631 1.386 . S
H629 C645 0.930 . S
H630 C646 0.931 . S
C631 H619 0.929 . S
C631 C625 1.390 . S
C631 C628 1.386 . S
C632 C627 1.490 . S
C632 C634 1.391 1_654 S
C632 C635 1.403 . S
H633 C639 0.930 . S
C634 H620 0.927 1_455 S
C634 C632 1.391 1_456 S
C634 C637 1.410 . S
C635 C632 1.403 . S
C635 C636 1.524 . S
C635 C639 1.400 1_655 S
C636 H621 0.960 . S
C636 H622 0.960 . S
C636 H623 0.960 . S
C636 C635 1.524 . S
C637 C634 1.410 . S
C637 C638 1.392 . S
C637 C641 1.495 . S
C638 C637 1.392 . S
C638 C639 1.385 1_556 S
C638 C640 1.478 . S
C639 H633 0.930 . S
C639 C635 1.400 1_455 S
C639 C638 1.385 1_554 S
C640 C638 1.478 . S
C640 C642 1.381 . S
C640 C646 1.383 . S
C641 C637 1.495 . S
C641 H647 0.959 . S
C641 H648 0.961 . S
C641 H649 0.960 . S
C642 C640 1.381 . S
C642 C643 1.394 . S
C642 H650 0.930 . S
C643 C642 1.394 . S
C643 C644 1.383 . S
C643 H651 0.929 . S
C644 C643 1.383 . S
C644 C645 1.377 . S
C645 H629 0.930 . S
C645 C644 1.377 . S
C645 C646 1.379 . S
C646 H630 0.931 . S
C646 C640 1.383 . S
C646 C645 1.379 . S
H647 C641 0.959 . S
H648 C641 0.961 . S
H649 C641 0.960 . S
H650 C642 0.930 . S
H651 C643 0.929 . S
H652 C660 0.929 . S
H653 C662 0.930 . S
H654 C664 0.930 . S
H655 C667 0.929 . S
H656 C670 0.935 . S
H657 C672 0.960 . S
H658 C672 0.960 . S
H659 C672 0.960 . S
C660 H652 0.929 . S
C660 C661 1.377 . S
C660 C662 1.384 . S
C661 C660 1.377 . S
C661 C667 1.390 . S
C662 H653 0.930 . S
C662 C660 1.384 . S
C662 C663 1.372 . S
C663 C662 1.372 . S
C663 C664 1.400 . S
C663 C668 1.490 . S
C664 H654 0.930 . S
C664 C663 1.400 . S
C664 C667 1.386 . S
H665 C681 0.930 . S
H666 C682 0.931 . S
C667 H655 0.929 . S
C667 C661 1.390 . S
C667 C664 1.386 . S
C668 C663 1.490 . S
C668 C670 1.395 1_455 S
C668 C671 1.403 . S
H669 C675 0.930 . S
C670 H656 0.935 . S
C670 C668 1.395 1_655 S
C670 C673 1.403 . S
C671 C668 1.403 . S
C671 C672 1.524 . S
C671 C675 1.400 1_455 S
C672 H657 0.960 . S
C672 H658 0.960 . S
C672 H659 0.960 . S
C672 C671 1.524 . S
C673 C670 1.403 . S
C673 C674 1.392 . S
C673 C677 1.495 . S
C674 C673 1.392 . S
C674 C675 1.385 . S
C674 C676 1.478 . S
C675 H669 0.930 . S
C675 C671 1.400 1_655 S
C675 C674 1.385 . S
C676 C674 1.478 . S
C676 C678 1.381 . S
C676 C682 1.383 . S
C677 C673 1.495 . S
C677 H683 0.959 . S
C677 H684 0.961 . S
C677 H685 0.960 . S
C678 C676 1.381 . S
C678 C679 1.394 . S
C678 H686 0.930 . S
C679 C678 1.394 . S
C679 C680 1.383 . S
C679 H687 0.929 . S
C680 C679 1.383 . S
C680 C681 1.377 . S
C681 H665 0.930 . S
C681 C680 1.377 . S
C681 C682 1.379 . S
C682 H666 0.931 . S
C682 C676 1.383 . S
C682 C681 1.379 . S
H683 C677 0.959 . S
H684 C677 0.961 . S
H685 C677 0.960 . S
H686 C678 0.930 . S
H687 C679 0.929 . S
H688 C696 0.929 . S
H689 C698 0.930 . S
H690 C700 0.930 . S
H691 C703 0.929 . S
H692 C706 0.930 . S
H693 C708 0.960 . S
H694 C708 0.960 . S
H695 C708 0.960 . S
C696 H688 0.929 . S
C696 C697 1.377 . S
C696 C698 1.384 . S
C697 C696 1.377 . S
C697 C703 1.390 . S
C698 H689 0.930 . S
C698 C696 1.384 . S
C698 C699 1.372 . S
C699 C698 1.372 . S
C699 C700 1.400 . S
C699 C704 1.490 . S
C700 H690 0.930 . S
C700 C699 1.400 . S
C700 C703 1.386 . S
H701 C717 0.930 . S
H702 C718 0.931 . S
C703 H691 0.929 . S
C703 C697 1.390 . S
C703 C700 1.386 . S
C704 C699 1.490 . S
C704 C706 1.395 1_545 S
C704 C707 1.403 1_556 S
H705 C711 0.930 . S
C706 H692 0.930 . S
C706 C704 1.395 1_565 S
C706 C709 1.403 . S
C707 C704 1.403 1_554 S
C707 C708 1.524 . S
C707 C711 1.400 1_545 S
C708 H693 0.960 . S
C708 H694 0.960 . S
C708 H695 0.960 . S
C708 C707 1.524 . S
C709 C706 1.403 . S
C709 C710 1.392 1_556 S
C709 C713 1.495 . S
C710 C709 1.392 1_554 S
C710 C711 1.385 . S
C710 C712 1.478 . S
C711 H705 0.930 . S
C711 C707 1.400 1_565 S
C711 C710 1.385 . S
C712 C710 1.478 . S
C712 C714 1.381 . S
C712 C718 1.383 . S
C713 C709 1.495 . S
C713 H719 0.959 . S
C713 H720 0.961 . S
C713 H721 0.960 . S
C714 C712 1.381 . S
C714 C715 1.394 . S
C714 H722 0.930 . S
C715 C714 1.394 . S
C715 C716 1.383 . S
C715 H723 0.929 . S
C716 C715 1.383 . S
C716 C717 1.377 . S
C717 H701 0.930 . S
C717 C716 1.377 . S
C717 C718 1.379 . S
C718 H702 0.931 . S
C718 C712 1.383 . S
C718 C717 1.379 . S
H719 C713 0.959 . S
H720 C713 0.961 . S
H721 C713 0.960 . S
H722 C714 0.930 . S
H723 C715 0.929 . S
H724 C732 0.929 . S
H725 C734 0.930 . S
H726 C736 0.930 . S
H727 C739 0.929 . S
H728 C742 0.930 . S
H729 C744 0.960 . S
H730 C744 0.960 . S
H731 C744 0.960 . S
C732 H724 0.929 . S
C732 C733 1.377 . S
C732 C734 1.384 . S
C733 C732 1.377 . S
C733 C739 1.390 . S
C734 H725 0.930 . S
C734 C732 1.384 . S
C734 C735 1.372 . S
C735 C734 1.372 . S
C735 C736 1.400 . S
C735 C740 1.490 . S
C736 H726 0.930 . S
C736 C735 1.400 . S
C736 C739 1.386 . S
H737 C753 0.930 . S
H738 C754 0.931 . S
C739 H727 0.929 . S
C739 C733 1.390 . S
C739 C736 1.386 . S
C740 C735 1.490 . S
C740 C742 1.395 . S
C740 C743 1.403 . S
H741 C747 0.930 . S
C742 H728 0.930 . S
C742 C740 1.395 . S
C742 C745 1.403 1_565 S
C743 C740 1.403 . S
C743 C744 1.524 . S
C743 C747 1.400 1_565 S
C744 H729 0.960 . S
C744 H730 0.960 . S
C744 H731 0.960 . S
C744 C743 1.524 . S
C745 C742 1.403 1_545 S
C745 C746 1.392 . S
C745 C749 1.495 . S
C746 C745 1.392 . S
C746 C747 1.385 . S
C746 C748 1.478 . S
C747 H741 0.930 . S
C747 C743 1.400 1_545 S
C747 C746 1.385 . S
C748 C746 1.478 . S
C748 C750 1.381 . S
C748 C754 1.383 . S
C749 C745 1.495 . S
C749 H755 0.959 . S
C749 H756 0.961 . S
C749 H757 0.960 . S
C750 C748 1.381 . S
C750 C751 1.394 . S
C750 H758 0.930 . S
C751 C750 1.394 . S
C751 C752 1.383 . S
C751 H759 0.929 . S
C752 C751 1.383 . S
C752 C753 1.377 . S
C753 H737 0.930 . S
C753 C752 1.377 . S
C753 C754 1.379 . S
C754 H738 0.931 . S
C754 C748 1.383 . S
C754 C753 1.379 . S
H755 C749 0.959 . S
H756 C749 0.961 . S
H757 C749 0.960 . S
H758 C750 0.930 . S
H759 C751 0.929 . S
H760 C768 0.929 . S
H761 C770 0.930 . S
H762 C772 0.930 . S
H763 C775 0.929 . S
H764 C778 0.930 . S
H765 C780 0.960 . S
H766 C780 0.960 . S
H767 C780 0.960 . S
C768 H760 0.929 . S
C768 C769 1.377 . S
C768 C770 1.384 . S
C769 C768 1.377 . S
C769 C775 1.390 . S
C770 H761 0.930 . S
C770 C768 1.384 . S
C770 C771 1.372 . S
C771 C770 1.372 . S
C771 C772 1.400 . S
C771 C776 1.490 . S
C772 H762 0.930 . S
C772 C771 1.400 . S
C772 C775 1.386 . S
H773 C789 0.930 . S
H774 C790 0.931 . S
C775 H763 0.929 . S
C775 C769 1.390 . S
C775 C772 1.386 . S
C776 C771 1.490 . S
C776 C778 1.395 . S
C776 C779 1.403 . S
H777 C783 0.930 . S
C778 H764 0.930 . S
C778 C776 1.395 . S
C778 C781 1.403 . S
C779 C776 1.403 . S
C779 C780 1.524 . S
C779 C783 1.400 . S
C780 H765 0.960 . S
C780 H766 0.960 . S
C780 H767 0.960 . S
C780 C779 1.524 . S
C781 C778 1.403 . S
C781 C782 1.392 . S
C781 C785 1.495 . S
C782 C781 1.392 . S
C782 C783 1.385 . S
C782 C784 1.478 . S
C783 H777 0.930 . S
C783 C779 1.400 . S
C783 C782 1.385 . S
C784 C782 1.478 . S
C784 C786 1.381 . S
C784 C790 1.383 . S
C785 C781 1.495 . S
C785 H791 0.959 . S
C785 H792 0.961 . S
C785 H793 0.960 . S
C786 C784 1.381 . S
C786 C787 1.394 . S
C786 H794 0.930 . S
C787 C786 1.394 . S
C787 C788 1.383 . S
C787 H795 0.929 . S
C788 C787 1.383 . S
C788 C789 1.377 . S
C789 H773 0.930 . S
C789 C788 1.377 . S
C789 C790 1.379 . S
C790 H774 0.931 . S
C790 C784 1.383 . S
C790 C789 1.379 . S
H791 C785 0.959 . S
H792 C785 0.961 . S
H793 C785 0.960 . S
H794 C786 0.930 . S
H795 C787 0.929 . S
H796 C804 0.929 . S
H797 C806 0.930 . S
H798 C808 0.930 . S
H799 C811 0.929 . S
H800 C814 0.930 . S
H801 C816 0.960 . S
H802 C816 0.960 . S
H803 C816 0.960 . S
C804 H796 0.929 . S
C804 C805 1.377 . S
C804 C806 1.384 . S
C805 C804 1.377 . S
C805 C811 1.390 . S
C806 H797 0.930 . S
C806 C804 1.384 . S
C806 C807 1.372 . S
C807 C806 1.372 . S
C807 C808 1.400 . S
C807 C812 1.490 . S
C808 H798 0.930 . S
C808 C807 1.400 . S
C808 C811 1.386 . S
H809 C825 0.930 . S
H810 C826 0.931 . S
C811 H799 0.929 . S
C811 C805 1.390 . S
C811 C808 1.386 . S
C812 C807 1.490 . S
C812 C814 1.395 . S
C812 C815 1.403 . S
H813 C819 0.930 . S
C814 H800 0.930 . S
C814 C812 1.395 . S
C814 C817 1.403 1_556 S
C815 C812 1.403 . S
C815 C816 1.524 . S
C815 C819 1.400 1_556 S
C816 H801 0.960 . S
C816 H802 0.960 . S
C816 H803 0.960 . S
C816 C815 1.524 . S
C817 C814 1.403 1_554 S
C817 C818 1.392 . S
C817 C821 1.495 . S
C818 C817 1.392 . S
C818 C819 1.385 . S
C818 C820 1.478 . S
C819 H813 0.930 . S
C819 C815 1.400 1_554 S
C819 C818 1.385 . S
C820 C818 1.478 . S
C820 C822 1.381 . S
C820 C826 1.383 . S
C821 C817 1.495 . S
C821 H827 0.959 . S
C821 H828 0.961 . S
C821 H829 0.960 . S
C822 C820 1.381 . S
C822 C823 1.394 . S
C822 H830 0.930 . S
C823 C822 1.394 . S
C823 C824 1.383 . S
C823 H831 0.929 . S
C824 C823 1.383 . S
C824 C825 1.377 . S
C825 H809 0.930 . S
C825 C824 1.377 . S
C825 C826 1.379 . S
C826 H810 0.931 . S
C826 C820 1.383 . S
C826 C825 1.379 . S
H827 C821 0.959 . S
H828 C821 0.961 . S
H829 C821 0.960 . S
H830 C822 0.930 . S
H831 C823 0.929 . S
H832 C840 0.929 . S
H833 C842 0.930 . S
H834 C844 0.930 . S
H835 C847 0.929 . S
H836 C850 0.930 . S
H837 C852 0.960 . S
H838 C852 0.960 . S
H839 C852 0.960 . S
C840 H832 0.929 . S
C840 C841 1.377 . S
C840 C842 1.384 . S
C841 C840 1.377 . S
C841 C847 1.390 . S
C842 H833 0.930 . S
C842 C840 1.384 . S
C842 C843 1.372 . S
C843 C842 1.372 . S
C843 C844 1.400 . S
C843 C848 1.490 . S
C844 H834 0.930 . S
C844 C843 1.400 . S
C844 C847 1.386 . S
H845 C861 0.930 . S
H846 C862 0.931 . S
C847 H835 0.929 . S
C847 C841 1.390 . S
C847 C844 1.386 . S
C848 C843 1.490 . S
C848 C850 1.395 . S
C848 C851 1.403 . S
H849 C855 0.930 . S
C850 H836 0.930 . S
C850 C848 1.395 . S
C850 C853 1.403 . S
C851 C848 1.403 . S
C851 C852 1.524 . S
C851 C855 1.400 . S
C852 H837 0.960 . S
C852 H838 0.960 . S
C852 H839 0.960 . S
C852 C851 1.524 . S
C853 C850 1.403 . S
C853 C854 1.392 . S
C853 C857 1.495 . S
C854 C853 1.392 . S
C854 C855 1.385 . S
C854 C856 1.478 . S
C855 H849 0.930 . S
C855 C851 1.400 . S
C855 C854 1.385 . S
C856 C854 1.478 . S
C856 C858 1.381 . S
C856 C862 1.383 . S
C857 C853 1.495 . S
C857 H863 0.959 . S
C857 H864 0.961 . S
C857 H865 0.960 . S
C858 C856 1.381 . S
C858 C859 1.394 . S
C858 H866 0.930 . S
C859 C858 1.394 . S
C859 C860 1.383 . S
C859 H867 0.929 . S
C860 C859 1.383 . S
C860 C861 1.377 . S
C861 H845 0.930 . S
C861 C860 1.377 . S
C861 C862 1.379 . S
C862 H846 0.931 . S
C862 C856 1.383 . S
C862 C861 1.379 . S
H863 C857 0.959 . S
H864 C857 0.961 . S
H865 C857 0.960 . S
H866 C858 0.930 . S
H867 C859 0.929 . S
H868 C876 0.929 . S
H869 C878 0.930 . S
H870 C880 0.930 . S
H871 C883 0.929 . S
H872 C886 0.930 . S
H873 C888 0.960 . S
H874 C888 0.960 . S
H875 C888 0.960 . S
C876 H868 0.929 . S
C876 C877 1.377 . S
C876 C878 1.384 . S
C877 C876 1.377 . S
C877 C883 1.390 . S
C878 H869 0.930 . S
C878 C876 1.384 . S
C878 C879 1.372 . S
C879 C878 1.372 . S
C879 C880 1.400 . S
C879 C884 1.490 . S
C880 H870 0.930 . S
C880 C879 1.400 . S
C880 C883 1.386 . S
H881 C897 0.930 . S
H882 C898 0.931 . S
C883 H871 0.929 . S
C883 C877 1.390 . S
C883 C880 1.386 . S
C884 C879 1.490 . S
C884 C886 1.395 . S
C884 C887 1.403 . S
H885 C891 0.930 . S
C886 H872 0.930 . S
C886 C884 1.395 . S
C886 C889 1.403 1_554 S
C887 C884 1.403 . S
C887 C888 1.524 . S
C887 C891 1.400 1_554 S
C888 H873 0.960 . S
C888 H874 0.960 . S
C888 H875 0.960 . S
C888 C887 1.524 . S
C889 C886 1.403 1_556 S
C889 C890 1.392 . S
C889 C893 1.495 . S
C890 C889 1.392 . S
C890 C891 1.385 . S
C890 C892 1.478 . S
C891 H885 0.930 . S
C891 C887 1.400 1_556 S
C891 C890 1.385 . S
C892 C890 1.478 . S
C892 C894 1.381 . S
C892 C898 1.383 . S
C893 C889 1.495 . S
C893 H899 0.959 . S
C893 H900 0.961 . S
C893 H901 0.960 . S
C894 C892 1.381 . S
C894 C895 1.394 . S
C894 H902 0.930 . S
C895 C894 1.394 . S
C895 C896 1.383 . S
C895 H903 0.929 . S
C896 C895 1.383 . S
C896 C897 1.377 . S
C897 H881 0.930 . S
C897 C896 1.377 . S
C897 C898 1.379 . S
C898 H882 0.931 . S
C898 C892 1.383 . S
C898 C897 1.379 . S
H899 C893 0.959 . S
H900 C893 0.961 . S
H901 C893 0.960 . S
H902 C894 0.930 . S
H903 C895 0.929 . S
H904 C912 0.929 . S
H905 C914 0.930 . S
H906 C916 0.930 . S
H907 C919 0.929 . S
H908 C922 0.930 . S
H909 C924 0.960 . S
H910 C924 0.960 . S
H911 C924 0.960 . S
C912 H904 0.929 . S
C912 C913 1.377 . S
C912 C914 1.384 . S
C913 C912 1.377 . S
C913 C919 1.390 . S
C914 H905 0.930 . S
C914 C912 1.384 . S
C914 C915 1.372 . S
C915 C914 1.372 . S
C915 C916 1.400 . S
C915 C920 1.490 . S
C916 H906 0.930 . S
C916 C915 1.400 . S
C916 C919 1.386 . S
H917 C933 0.930 . S
H918 C934 0.931 . S
C919 H907 0.929 . S
C919 C913 1.390 . S
C919 C916 1.386 . S
C920 C915 1.490 . S
C920 C922 1.395 . S
C920 C923 1.403 . S
H921 C927 0.930 . S
C922 H908 0.930 . S
C922 C920 1.395 . S
C922 C925 1.403 . S
C923 C920 1.403 . S
C923 C924 1.524 . S
C923 C927 1.400 . S
C924 H909 0.960 . S
C924 H910 0.960 . S
C924 H911 0.960 . S
C924 C923 1.524 . S
C925 C922 1.403 . S
C925 C926 1.392 . S
C925 C929 1.495 . S
C926 C925 1.392 . S
C926 C927 1.385 . S
C926 C928 1.478 . S
C927 H921 0.930 . S
C927 C923 1.400 . S
C927 C926 1.385 . S
C928 C926 1.478 . S
C928 C930 1.381 . S
C928 C934 1.383 . S
C929 C925 1.495 . S
C929 H935 0.959 . S
C929 H936 0.961 . S
C929 H937 0.960 . S
C930 C928 1.381 . S
C930 C931 1.394 . S
C930 H938 0.930 . S
C931 C930 1.394 . S
C931 C932 1.383 . S
C931 H939 0.929 . S
C932 C931 1.383 . S
C932 C933 1.377 . S
C933 H917 0.930 . S
C933 C932 1.377 . S
C933 C934 1.379 . S
C934 H918 0.931 . S
C934 C928 1.383 . S
C934 C933 1.379 . S
H935 C929 0.959 . S
H936 C929 0.961 . S
H937 C929 0.960 . S
H938 C930 0.930 . S
H939 C931 0.929 . S
H940 C948 0.929 . S
H941 C950 0.930 . S
H942 C952 0.930 . S
H943 C955 0.929 . S
H944 C958 0.930 . S
H945 C960 0.960 . S
H946 C960 0.960 . S
H947 C960 0.960 . S
C948 H940 0.929 . S
C948 C949 1.377 . S
C948 C950 1.384 . S
C949 C948 1.377 . S
C949 C955 1.390 . S
C950 H941 0.930 . S
C950 C948 1.384 . S
C950 C951 1.372 . S
C951 C950 1.372 . S
C951 C952 1.400 . S
C951 C956 1.490 . S
C952 H942 0.930 . S
C952 C951 1.400 . S
C952 C955 1.386 . S
H953 C969 0.930 . S
H954 C970 0.931 . S
C955 H943 0.929 . S
C955 C949 1.390 . S
C955 C952 1.386 . S
C956 C951 1.490 . S
C956 C958 1.395 . S
C956 C959 1.403 . S
H957 C963 0.930 . S
C958 H944 0.930 . S
C958 C956 1.395 . S
C958 C961 1.403 . S
C959 C956 1.403 . S
C959 C960 1.524 . S
C959 C963 1.400 . S
C960 H945 0.960 . S
C960 H946 0.960 . S
C960 H947 0.960 . S
C960 C959 1.524 . S
C961 C958 1.403 . S
C961 C962 1.392 . S
C961 C965 1.495 . S
C962 C961 1.392 . S
C962 C963 1.385 . S
C962 C964 1.478 . S
C963 H957 0.930 . S
C963 C959 1.400 . S
C963 C962 1.385 . S
C964 C962 1.478 . S
C964 C966 1.381 . S
C964 C970 1.383 . S
C965 C961 1.495 . S
C965 H971 0.959 . S
C965 H972 0.961 . S
C965 H973 0.960 . S
C966 C964 1.381 . S
C966 C967 1.394 . S
C966 H974 0.930 . S
C967 C966 1.394 . S
C967 C968 1.383 . S
C967 H975 0.929 . S
C968 C967 1.383 . S
C968 C969 1.377 . S
C969 H953 0.930 . S
C969 C968 1.377 . S
C969 C970 1.379 . S
C970 H954 0.931 . S
C970 C964 1.383 . S
C970 C969 1.379 . S
H971 C965 0.959 . S
H972 C965 0.961 . S
H973 C965 0.960 . S
H974 C966 0.930 . S
H975 C967 0.929 . S
H976 C984 0.929 . S
H977 C986 0.930 . S
H978 C988 0.930 . S
H979 C991 0.929 . S
H980 C994 0.930 . S
H981 C996 0.977 . S
H982 C996 0.960 . S
H983 C996 0.960 . S
C984 H976 0.929 . S
C984 C985 1.377 . S
C984 C986 1.384 . S
C985 C984 1.377 . S
C985 C991 1.390 . S
C986 H977 0.930 . S
C986 C984 1.384 . S
C986 C987 1.372 . S
C987 C986 1.372 . S
C987 C988 1.400 . S
C987 C992 1.490 . S
C988 H978 0.930 . S
C988 C987 1.400 . S
C988 C991 1.386 . S
H989 C1005 0.930 . S
H990 C1006 0.931 . S
C991 H979 0.929 . S
C991 C985 1.390 . S
C991 C988 1.386 . S
C992 C987 1.490 . S
C992 C994 1.395 . S
C992 C995 1.403 . S
H993 C999 0.930 . S
C994 H980 0.930 . S
C994 C992 1.395 . S
C994 C997 1.403 1_455 S
C995 C992 1.403 . S
C995 C996 1.524 . S
C995 C999 1.400 1_455 S
C996 H981 0.977 . S
C996 H982 0.960 . S
C996 H983 0.960 . S
C996 C995 1.524 . S
C997 C994 1.403 1_655 S
C997 C998 1.392 . S
C997 C1001 1.495 . S
C998 C997 1.392 . S
C998 C999 1.385 . S
C998 C1000 1.478 . S
C999 H993 0.930 . S
C999 C995 1.400 1_655 S
C999 C998 1.385 . S
C1000 C998 1.478 . S
C1000 C1002 1.381 . S
C1000 C1006 1.383 . S
C1001 C997 1.495 . S
C1001 H1007 0.959 . S
C1001 H1008 0.961 . S
C1001 H1009 0.960 . S
C1002 C1000 1.381 . S
C1002 C1003 1.394 . S
C1002 H1010 0.930 . S
C1003 C1002 1.394 . S
C1003 C1004 1.383 . S
C1003 H1011 0.929 . S
C1004 C1003 1.383 . S
C1004 C1005 1.377 . S
C1005 H989 0.930 . S
C1005 C1004 1.377 . S
C1005 C1006 1.379 . S
C1006 H990 0.931 . S
C1006 C1000 1.383 . S
C1006 C1005 1.379 . S
H1007 C1001 0.959 . S
H1008 C1001 0.961 . S
H1009 C1001 0.960 . S
H1010 C1002 0.930 . S
H1011 C1003 0.929 . S
H1012 C1020 0.929 . S
H1013 C1022 0.930 . S
H1014 C1024 0.930 . S
H1015 C1027 0.929 . S
H1016 C1030 0.930 . S
H1017 C1032 0.975 . S
H1018 C1032 0.960 . S
H1019 C1032 0.960 . S
C1020 H1012 0.929 . S
C1020 C1021 1.377 . S
C1020 C1022 1.384 . S
C1021 C1020 1.377 . S
C1021 C1027 1.390 . S
C1022 H1013 0.930 . S
C1022 C1020 1.384 . S
C1022 C1023 1.372 . S
C1023 C1022 1.372 . S
C1023 C1024 1.400 . S
C1023 C1028 1.490 . S
C1024 H1014 0.930 . S
C1024 C1023 1.400 . S
C1024 C1027 1.386 . S
H1025 C1041 0.930 . S
H1026 C1042 0.931 . S
C1027 H1015 0.929 . S
C1027 C1021 1.390 . S
C1027 C1024 1.386 . S
C1028 C1023 1.490 . S
C1028 C1030 1.395 . S
C1028 C1031 1.403 . S
H1029 C1035 0.930 . S
C1030 H1016 0.930 . S
C1030 C1028 1.395 . S
C1030 C1033 1.403 1_455 S
C1031 C1028 1.403 . S
C1031 C1032 1.524 . S
C1031 C1035 1.400 1_455 S
C1032 H1017 0.975 . S
C1032 H1018 0.960 . S
C1032 H1019 0.960 . S
C1032 C1031 1.524 . S
C1033 C1030 1.403 1_655 S
C1033 C1034 1.392 . S
C1033 C1037 1.495 . S
C1034 C1033 1.392 . S
C1034 C1035 1.385 . S
C1034 C1036 1.478 . S
C1035 H1029 0.930 . S
C1035 C1031 1.400 1_655 S
C1035 C1034 1.385 . S
C1036 C1034 1.478 . S
C1036 C1038 1.381 . S
C1036 C1042 1.383 . S
C1037 C1033 1.495 . S
C1037 H1043 0.959 . S
C1037 H1044 0.961 . S
C1037 H1045 0.960 . S
C1038 C1036 1.381 . S
C1038 C1039 1.394 . S
C1038 H1046 0.930 . S
C1039 C1038 1.394 . S
C1039 C1040 1.383 . S
C1039 H1047 0.929 . S
C1040 C1039 1.383 . S
C1040 C1041 1.377 . S
C1041 H1025 0.930 . S
C1041 C1040 1.377 . S
C1041 C1042 1.379 . S
C1042 H1026 0.931 . S
C1042 C1036 1.383 . S
C1042 C1041 1.379 . S
H1043 C1037 0.959 . S
H1044 C1037 0.961 . S
H1045 C1037 0.960 . S
H1046 C1038 0.930 . S
H1047 C1039 0.929 . S
C481 C5 2.222 . S
C500 C123 2.210 . S
C517 C182 2.222 . S
C536 C64 2.209 . S
C553 C359 2.220 . S
C572 C241 2.216 . S
C589 C300 2.220 . S
C608 C418 2.214 . S
C625 C62 1.002 . S
C644 C180 0.984 . S
C661 C3 1.002 . S
C680 C121 0.984 . S
C697 C416 1.005 . S
C716 C298 1.021 . S
C733 C239 1.004 . S
C752 C357 1.019 . S
C769 C328 1.570 . S
C788 C210 1.558 . S
C805 C151 1.573 . S
C824 C269 1.577 . S
C841 C92 1.570 . S
C860 C446 1.558 . S
C877 C33 1.569 . S
C896 C387 1.561 . S
C913 C52 1.625 . S
C932 C111 1.632 . S
C949 C170 1.624 . S
C968 C229 1.625 . S
C985 C347 1.628 . S
C1004 C288 1.625 . S
C1021 C406 1.624 . S
C1040 C465 1.627 . S
