# Generated by pormake.
# Topology sth, (5)-cn, num edge types: 1
# Building blocks:
#     Node 0, Type 0, BuildingBlock: BEQFEK_clean_sbu_0, # of connection points: 5
#     Node 1, Type 0, BuildingBlock: BEQFEK_clean_sbu_0, # of connection points: 5
#     Node 2, Type 0, BuildingBlock: BEQFEK_clean_sbu_0, # of connection points: 5
#     Node 3, Type 0, BuildingBlock: BEQFEK_clean_sbu_0, # of connection points: 5
#     Node 4, Type 0, BuildingBlock: BEQFEK_clean_sbu_0, # of connection points: 5
#     Node 5, Type 0, BuildingBlock: BEQFEK_clean_sbu_0, # of connection points: 5
#     Node 6, Type 0, BuildingBlock: BEQFEK_clean_sbu_0, # of connection points: 5
#     Node 7, Type 0, BuildingBlock: BEQFEK_clean_sbu_0, # of connection points: 5
#     Node 8, Type 0, BuildingBlock: BEQFEK_clean_sbu_0, # of connection points: 5
#     Node 9, Type 0, BuildingBlock: BEQFEK_clean_sbu_0, # of connection points: 5
#     Node 10, Type 0, BuildingBlock: BEQFEK_clean_sbu_0, # of connection points: 5
#     Node 11, Type 0, BuildingBlock: BEQFEK_clean_sbu_0, # of connection points: 5
#     Node 12, Type 0, BuildingBlock: BEQFEK_clean_sbu_0, # of connection points: 5
#     Node 13, Type 0, BuildingBlock: BEQFEK_clean_sbu_0, # of connection points: 5
#     Node 14, Type 0, BuildingBlock: BEQFEK_clean_sbu_0, # of connection points: 5
#     Node 15, Type 0, BuildingBlock: BEQFEK_clean_sbu_0, # of connection points: 5
#     Node 16, Type 0, BuildingBlock: BEQFEK_clean_sbu_0, # of connection points: 5
#     Node 17, Type 0, BuildingBlock: BEQFEK_clean_sbu_0, # of connection points: 5
#     Edge 18, Type (0, 0), BuildingBlock: EZIPEK_clean_linker_0, # of connection points: 2
#     Edge 19, Type (0, 0), BuildingBlock: EZIPEK_clean_linker_0, # of connection points: 2
#     Edge 20, Type (0, 0), BuildingBlock: EZIPEK_clean_linker_0, # of connection points: 2
#     Edge 21, Type (0, 0), BuildingBlock: EZIPEK_clean_linker_0, # of connection points: 2
#     Edge 22, Type (0, 0), BuildingBlock: EZIPEK_clean_linker_0, # of connection points: 2
#     Edge 23, Type (0, 0), BuildingBlock: EZIPEK_clean_linker_0, # of connection points: 2
#     Edge 24, Type (0, 0), BuildingBlock: EZIPEK_clean_linker_0, # of connection points: 2
#     Edge 25, Type (0, 0), BuildingBlock: EZIPEK_clean_linker_0, # of connection points: 2
#     Edge 26, Type (0, 0), BuildingBlock: EZIPEK_clean_linker_0, # of connection points: 2
#     Edge 27, Type (0, 0), BuildingBlock: EZIPEK_clean_linker_0, # of connection points: 2
#     Edge 28, Type (0, 0), BuildingBlock: EZIPEK_clean_linker_0, # of connection points: 2
#     Edge 29, Type (0, 0), BuildingBlock: EZIPEK_clean_linker_0, # of connection points: 2
#     Edge 30, Type (0, 0), BuildingBlock: EZIPEK_clean_linker_0, # of connection points: 2
#     Edge 31, Type (0, 0), BuildingBlock: EZIPEK_clean_linker_0, # of connection points: 2
#     Edge 32, Type (0, 0), BuildingBlock: EZIPEK_clean_linker_0, # of connection points: 2
#     Edge 33, Type (0, 0), BuildingBlock: EZIPEK_clean_linker_0, # of connection points: 2
#     Edge 34, Type (0, 0), BuildingBlock: EZIPEK_clean_linker_0, # of connection points: 2
#     Edge 35, Type (0, 0), BuildingBlock: EZIPEK_clean_linker_0, # of connection points: 2
#     Edge 36, Type (0, 0), BuildingBlock: EZIPEK_clean_linker_0, # of connection points: 2
#     Edge 37, Type (0, 0), BuildingBlock: EZIPEK_clean_linker_0, # of connection points: 2
#     Edge 38, Type (0, 0), BuildingBlock: EZIPEK_clean_linker_0, # of connection points: 2
#     Edge 39, Type (0, 0), BuildingBlock: EZIPEK_clean_linker_0, # of connection points: 2
#     Edge 40, Type (0, 0), BuildingBlock: EZIPEK_clean_linker_0, # of connection points: 2
#     Edge 41, Type (0, 0), BuildingBlock: EZIPEK_clean_linker_0, # of connection points: 2
#     Edge 42, Type (0, 0), BuildingBlock: EZIPEK_clean_linker_0, # of connection points: 2
#     Edge 43, Type (0, 0), BuildingBlock: EZIPEK_clean_linker_0, # of connection points: 2
#     Edge 44, Type (0, 0), BuildingBlock: EZIPEK_clean_linker_0, # of connection points: 2
#     Edge 45, Type (0, 0), BuildingBlock: EZIPEK_clean_linker_0, # of connection points: 2
#     Edge 46, Type (0, 0), BuildingBlock: EZIPEK_clean_linker_0, # of connection points: 2
#     Edge 47, Type (0, 0), BuildingBlock: EZIPEK_clean_linker_0, # of connection points: 2
#     Edge 48, Type (0, 0), BuildingBlock: EZIPEK_clean_linker_0, # of connection points: 2
#     Edge 49, Type (0, 0), BuildingBlock: EZIPEK_clean_linker_0, # of connection points: 2
#     Edge 50, Type (0, 0), BuildingBlock: EZIPEK_clean_linker_0, # of connection points: 2
#     Edge 51, Type (0, 0), BuildingBlock: EZIPEK_clean_linker_0, # of connection points: 2
#     Edge 52, Type (0, 0), BuildingBlock: EZIPEK_clean_linker_0, # of connection points: 2
#     Edge 53, Type (0, 0), BuildingBlock: EZIPEK_clean_linker_0, # of connection points: 2
#     Edge 54, Type (0, 0), BuildingBlock: EZIPEK_clean_linker_0, # of connection points: 2
#     Edge 55, Type (0, 0), BuildingBlock: EZIPEK_clean_linker_0, # of connection points: 2
#     Edge 56, Type (0, 0), BuildingBlock: EZIPEK_clean_linker_0, # of connection points: 2
#     Edge 57, Type (0, 0), BuildingBlock: EZIPEK_clean_linker_0, # of connection points: 2
#     Edge 58, Type (0, 0), BuildingBlock: EZIPEK_clean_linker_0, # of connection points: 2
#     Edge 59, Type (0, 0), BuildingBlock: EZIPEK_clean_linker_0, # of connection points: 2
#     Edge 60, Type (0, 0), BuildingBlock: EZIPEK_clean_linker_0, # of connection points: 2
#     Edge 61, Type (0, 0), BuildingBlock: EZIPEK_clean_linker_0, # of connection points: 2
#     Edge 62, Type (0, 0), BuildingBlock: EZIPEK_clean_linker_0, # of connection points: 2
# Relax obj value: 0.289
# Max RMSD: 0.155
# Mean RMSD: 0.155
data_MOF--net-sth--node1-BEQFEK_clean_sbu_0--edge1-EZIPEK_clean_linker_0
_symmetry_space_group_name_H-M    P1
_symmetry_Int_Tables_number       1
_symmetry_cell_setting            triclinic
loop_
_symmetry_equiv_pos_as_xyz
'x, y, z'
_cell_length_a     33.790482
_cell_length_b     33.69323
_cell_length_c     50.233019
_cell_angle_alpha  89.918422
_cell_angle_beta   90.05128
_cell_angle_gamma 120.11564
loop_
_atom_site_label
_atom_site_type_symbol
_atom_site_fract_x
_atom_site_fract_y
_atom_site_fract_z
_atom_type_partial_charge
Co0 Co 0.04723 0.23045 0.24435 0.0
Co1 Co 0.14228 0.31932 0.23193 0.0
C2 C 0.05419 0.30339 0.20664 0.0
O3 O 0.0302 0.26452 0.21811 0.0
O4 O 0.09743 0.32783 0.21006 0.0
C5 C 0.95311 0.14684 0.24614 0.0
O6 O 0.93933 0.16876 0.23046 0.0
C7 C 0.22446 0.39579 0.20599 0.0
C8 C 0.27772 0.39517 0.23121 0.0
C9 C 0.27174 0.41389 0.208 0.0
N10 N 0.20417 0.36611 0.2262 0.0
N11 N 0.23634 0.36764 0.2418 0.0
C12 C 0.19863 0.40702 0.18599 0.0
H13 H 0.17506 0.41557 0.19659 0.0
H14 H 0.17711 0.37638 0.17357 0.0
H15 H 0.22207 0.43637 0.17319 0.0
C16 C 0.10168 0.1868 0.22779 0.0
N17 N 0.09732 0.22421 0.23101 0.0
N18 N 0.13693 0.26093 0.22552 0.0
C19 C 0.16733 0.24748 0.21883 0.0
C20 C 0.14613 0.20018 0.22066 0.0
C21 C 0.06544 0.13884 0.23358 0.0
H22 H 0.06422 0.134 0.25542 0.0
H23 H 0.0321 0.13277 0.22599 0.0
H24 H 0.07333 0.11377 0.22423 0.0
O25 O 0.0634 0.26553 0.27869 0.0
O26 O 0.13167 0.32516 0.26981 0.0
H27 H 0.23649 0.29119 0.23099 0.0
H28 H 0.23068 0.26023 0.20098 0.0
C29 C 0.21665 0.27868 0.21227 0.0
H30 H 0.22076 0.30798 0.20017 0.0
H31 H 0.22982 0.34748 0.25883 0.0
O32 O 0.99508 0.16693 0.25287 0.0
C33 C 0.09892 0.30254 0.28591 0.0
Co34 Co 0.79196 0.81228 0.25104 0.0
Co35 Co 0.71635 0.8332 0.23143 0.0
C36 C 0.72277 0.75771 0.20658 0.0
O37 O 0.75506 0.76549 0.22275 0.0
O38 O 0.7051 0.78339 0.20645 0.0
C39 C 0.88179 0.83565 0.23754 0.0
O40 O 0.87145 0.8548 0.21799 0.0
C41 C 0.64882 0.85234 0.20474 0.0
C42 C 0.66148 0.91379 0.22738 0.0
C43 C 0.63783 0.88708 0.20564 0.0
N44 N 0.6789 0.85965 0.22436 0.0
N45 N 0.68497 0.89547 0.2383 0.0
C46 C 0.63037 0.81219 0.18625 0.0
H47 H 0.61705 0.78028 0.19813 0.0
H48 H 0.65845 0.81478 0.17357 0.0
H49 H 0.60248 0.81011 0.17357 0.0
C50 C 0.84146 0.91464 0.25138 0.0
N51 N 0.80643 0.87377 0.24354 0.0
N52 N 0.778 0.88082 0.22933 0.0
C53 C 0.79638 0.92631 0.22517 0.0
C54 C 0.83687 0.94967 0.23963 0.0
C55 C 0.87448 0.91967 0.2728 0.0
H56 H 0.85851 0.88941 0.28621 0.0
H57 H 0.90531 0.92169 0.26369 0.0
H58 H 0.88529 0.95138 0.28453 0.0
O59 O 0.75516 0.79307 0.2834 0.0
O60 O 0.70264 0.80999 0.26953 0.0
H61 H 0.76121 0.96347 0.21699 0.0
H62 H 0.80581 0.97405 0.19415 0.0
C63 C 0.77753 0.94692 0.20611 0.0
H64 H 0.752 0.92025 0.19265 0.0
H65 H 0.70682 0.90861 0.25465 0.0
O66 O 0.85138 0.81278 0.255 0.0
C67 C 0.71926 0.79555 0.28752 0.0
Co68 Co 0.21062 0.98794 0.24549 0.0
Co69 Co 0.1927 0.88867 0.23316 0.0
C70 C 0.2672 0.96903 0.20549 0.0
O71 O 0.25923 0.99546 0.21978 0.0
O72 O 0.24126 0.92573 0.20693 0.0
C73 C 0.19797 0.06118 0.22706 0.0
O74 O 0.18262 0.03403 0.20621 0.0
C75 C 0.16399 0.8002 0.20637 0.0
C76 C 0.15488 0.75517 0.24062 0.0
C77 C 0.1512 0.75551 0.21321 0.0
N78 N 0.1747 0.82537 0.22874 0.0
N79 N 0.16978 0.79831 0.24911 0.0
C80 C 0.16424 0.81813 0.17911 0.0
H81 H 0.16763 0.85261 0.18019 0.0
H82 H 0.1324 0.794 0.16836 0.0
H83 H 0.19352 0.82054 0.16774 0.0
C84 C 0.10817 0.93702 0.2386 0.0
N85 N 0.14935 0.93961 0.23652 0.0
N86 N 0.14244 0.89853 0.23048 0.0
C87 C 0.09709 0.86907 0.22815 0.0
C88 C 0.07393 0.89248 0.23301 0.0
C89 C 0.10112 0.97466 0.24887 0.0
H90 H 0.10405 0.99756 0.2322 0.0
H91 H 0.06669 0.96109 0.25775 0.0
H92 H 0.12736 0.99463 0.26406 0.0
O93 O 0.22791 0.97346 0.28046 0.0
O94 O 0.21655 0.90433 0.27006 0.0
H95 H 0.038 0.80059 0.2261 0.0
H96 H 0.08557 0.8111 0.20517 0.0
C97 C 0.07587 0.81838 0.22483 0.0
H98 H 0.08887 0.80478 0.24057 0.0
H99 H 0.17557 0.80906 0.26891 0.0
O100 O 0.21331 0.04891 0.24664 0.0
C101 C 0.22835 0.93695 0.28667 0.0
Co102 Co 0.23631 0.03844 0.76796 0.0
Co103 Co 0.32368 0.13571 0.77788 0.0
C104 C 0.30943 0.051 0.8067 0.0
O105 O 0.27133 0.02532 0.79516 0.0
O106 O 0.33248 0.09403 0.80231 0.0
C107 C 0.15088 0.95909 0.78335 0.0
O108 O 0.1693 0.97207 0.80709 0.0
C109 C 0.38181 0.22152 0.80683 0.0
C110 C 0.42827 0.26622 0.77519 0.0
C111 C 0.4174 0.26546 0.80181 0.0
N112 N 0.37169 0.1972 0.78418 0.0
N113 N 0.4 0.22397 0.76541 0.0
C114 C 0.35726 0.20331 0.83264 0.0
H115 H 0.326 0.16937 0.82975 0.0
H116 H 0.34823 0.22794 0.84142 0.0
H117 H 0.38042 0.19964 0.84684 0.0
C118 C 0.19113 0.09413 0.7779 0.0
N119 N 0.2287 0.08964 0.77752 0.0
N120 N 0.26509 0.13043 0.78109 0.0
C121 C 0.25166 0.16197 0.78316 0.0
C122 C 0.20437 0.13992 0.78156 0.0
C123 C 0.14373 0.05625 0.77215 0.0
H124 H 0.13344 0.02906 0.78739 0.0
H125 H 0.11856 0.06822 0.77232 0.0
H126 H 0.1435 0.04188 0.75232 0.0
O127 O 0.2711 0.0513 0.73361 0.0
O128 O 0.33097 0.12062 0.74109 0.0
H129 H 0.26523 0.23123 0.77702 0.0
H130 H 0.2971 0.22407 0.80333 0.0
C131 C 0.28328 0.21273 0.78302 0.0
H132 H 0.31201 0.22176 0.76912 0.0
H133 H 0.39932 0.21374 0.74574 0.0
O134 O 0.17423 0.98236 0.76342 0.0
C135 C 0.30845 0.08617 0.72594 0.0
Co136 Co 0.99244 0.20754 0.76579 0.0
Co137 Co 0.89325 0.18982 0.77939 0.0
C138 C 0.97577 0.26357 0.80703 0.0
O139 O 1.00206 0.25341 0.79423 0.0
O140 O 0.93258 0.24163 0.80361 0.0
C141 C 0.06629 0.19297 0.77988 0.0
O142 O 0.04178 0.17822 0.80176 0.0
C143 C 0.80724 0.16288 0.80885 0.0
C144 C 0.75776 0.14423 0.77583 0.0
C145 C 0.76137 0.14654 0.80328 0.0
N146 N 0.82983 0.1698 0.78571 0.0
N147 N 0.80003 0.15893 0.76607 0.0
C148 C 0.82905 0.17132 0.83572 0.0
H149 H 0.83205 0.20317 0.8441 0.0
H150 H 0.86366 0.17535 0.83429 0.0
H151 H 0.80739 0.1427 0.84944 0.0
C152 C 0.94159 0.10476 0.7723 0.0
N153 N 0.94446 0.1462 0.77428 0.0
N154 N 0.90446 0.13982 0.78215 0.0
C155 C 0.87589 0.09456 0.78636 0.0
C156 C 0.89835 0.07088 0.78021 0.0
C157 C 0.97695 0.09656 0.7598 0.0
H158 H 0.99567 0.12286 0.74438 0.0
H159 H 1.00119 0.09827 0.77526 0.0
H160 H 0.96097 0.06199 0.75057 0.0
O161 O 0.97617 0.22815 0.73232 0.0
O162 O 0.90557 0.21261 0.74208 0.0
H163 H 0.80769 0.08039 0.77975 0.0
H164 H 0.81123 0.03645 0.79848 0.0
C165 C 0.82738 0.07396 0.79511 0.0
H166 H 0.8265 0.09057 0.81393 0.0
H167 H 0.80841 0.1608 0.74594 0.0
O168 O 0.05238 0.2088 0.76136 0.0
C169 C 0.93904 0.22703 0.72589 0.0
Co170 Co 0.81775 0.78973 0.76509 0.0
Co171 Co 0.83729 0.71007 0.77964 0.0
C172 C 0.76097 0.71613 0.80557 0.0
O173 O 0.77051 0.75239 0.79255 0.0
O174 O 0.78418 0.69602 0.80295 0.0
C175 C 0.82509 0.87331 0.78278 0.0
O176 O 0.81796 0.85249 0.80589 0.0
C177 C 0.85427 0.64202 0.80743 0.0
C178 C 0.90456 0.64043 0.78009 0.0
C179 C 0.88415 0.62492 0.80478 0.0
N180 N 0.85895 0.66805 0.78599 0.0
N181 N 0.8875 0.66515 0.76925 0.0
C182 C 0.82036 0.63254 0.82918 0.0
H183 H 0.78624 0.62103 0.82025 0.0
H184 H 0.8303 0.6647 0.84024 0.0
H185 H 0.81782 0.60569 0.84304 0.0
C186 C 0.91707 0.84345 0.77181 0.0
N187 N 0.87762 0.80365 0.77512 0.0
N188 N 0.88612 0.77222 0.78413 0.0
C189 C 0.93149 0.79212 0.78909 0.0
C190 C 0.95308 0.83952 0.78328 0.0
C191 C 0.92012 0.87545 0.75 0.0
H192 H 0.89085 0.85727 0.73611 0.0
H193 H 0.91794 0.90476 0.75823 0.0
H194 H 0.95157 0.88744 0.73797 0.0
O195 O 0.79974 0.75459 0.73121 0.0
O196 O 0.81626 0.70037 0.74189 0.0
H197 H 0.99116 0.78388 0.79719 0.0
H198 H 0.93645 0.73762 0.80811 0.0
C199 C 0.9544 0.7641 0.79257 0.0
H200 H 0.95233 0.74707 0.77342 0.0
H201 H 0.89694 0.68187 0.75088 0.0
O202 O 0.82202 0.85112 0.76162 0.0
C203 C 0.80192 0.71892 0.72523 0.0
Co204 Co 0.70828 0.56128 0.58036 0.0
Co205 Co 0.80659 0.64536 0.56748 0.0
C206 C 0.72326 0.63437 0.53979 0.0
O207 O 0.69745 0.59737 0.55242 0.0
O208 O 0.76643 0.65647 0.54323 0.0
C209 C 0.63538 0.47206 0.5659 0.0
O210 O 0.65998 0.48274 0.54403 0.0
C211 C 0.89282 0.70451 0.5383 0.0
C212 C 0.94012 0.74198 0.57136 0.0
C213 C 0.93796 0.73651 0.54401 0.0
N214 N 0.86923 0.69126 0.56127 0.0
N215 N 0.89764 0.71439 0.58089 0.0
C216 C 0.87302 0.68553 0.51155 0.0
H217 H 0.83834 0.65497 0.51354 0.0
H218 H 0.89586 0.67645 0.50056 0.0
H219 H 0.87075 0.7123 0.49987 0.0
C220 C 0.76083 0.51157 0.57254 0.0
N221 N 0.75727 0.54982 0.57132 0.0
N222 N 0.79755 0.58482 0.56472 0.0
C223 C 0.82733 0.56957 0.56119 0.0
C224 C 0.80493 0.52278 0.56574 0.0
C225 C 0.7253 0.4664 0.58364 0.0
H226 H 0.70488 0.47182 0.59885 0.0
H227 H 0.70268 0.44464 0.56736 0.0
H228 H 0.7413 0.44789 0.59283 0.0
O229 O 0.72379 0.59728 0.61431 0.0
O230 O 0.79354 0.6545 0.60459 0.0
H231 H 0.8918 0.62672 0.57187 0.0
H232 H 0.89566 0.5799 0.55713 0.0
C233 C 0.8774 0.59958 0.55645 0.0
H234 H 0.88284 0.61587 0.53663 0.0
H235 H 0.88832 0.71039 0.60094 0.0
O236 O 0.64891 0.5016 0.58452 0.0
C237 C 0.76031 0.63412 0.62079 0.0
Co238 Co 0.46049 0.14311 0.57965 0.0
Co239 Co 0.37614 0.15731 0.56849 0.0
C240 C 0.38667 0.08531 0.53969 0.0
O241 O 0.42403 0.09651 0.55176 0.0
O242 O 0.36458 0.10623 0.54379 0.0
C243 C 0.54872 0.1571 0.56465 0.0
O244 O 0.53745 0.16862 0.54207 0.0
C245 C 0.31452 0.18383 0.54154 0.0
C246 C 0.27925 0.19283 0.57605 0.0
C247 C 0.28243 0.19607 0.54861 0.0
N248 N 0.32988 0.17387 0.56383 0.0
N249 N 0.30815 0.17879 0.58434 0.0
C250 C 0.33149 0.18342 0.51414 0.0
H251 H 0.36186 0.17896 0.51494 0.0
H252 H 0.34016 0.21582 0.50365 0.0
H253 H 0.30384 0.15475 0.5027 0.0
C254 C 0.50964 0.24578 0.57182 0.0
N255 N 0.47147 0.20383 0.57091 0.0
N256 N 0.43626 0.20916 0.56532 0.0
C257 C 0.45112 0.25437 0.56236 0.0
C258 C 0.49806 0.27901 0.56611 0.0
C259 C 0.55569 0.25468 0.58059 0.0
H260 H 0.55154 0.23061 0.59675 0.0
H261 H 0.5735 0.24971 0.56354 0.0
H262 H 0.57756 0.29031 0.58776 0.0
O263 O 0.42541 0.12168 0.61386 0.0
O264 O 0.36831 0.13457 0.60533 0.0
H265 H 0.43996 0.31225 0.56023 0.0
H266 H 0.40344 0.26394 0.53948 0.0
C267 C 0.42061 0.27424 0.5591 0.0
H268 H 0.39418 0.26065 0.57491 0.0
H269 H 0.31383 0.17359 0.60413 0.0
O270 O 0.51999 0.14347 0.58366 0.0
C271 C 0.38898 0.12132 0.62101 0.0
Co272 Co 0.87439 0.31367 0.5778 0.0
Co273 Co 0.86389 0.21607 0.56763 0.0
C274 C 0.93506 0.30073 0.539 0.0
O275 O 0.92272 0.32634 0.55069 0.0
O276 O 0.91493 0.25761 0.54328 0.0
C277 C 0.87768 0.39877 0.56278 0.0
O278 O 0.90033 0.39729 0.54193 0.0
C279 C 0.83593 0.12866 0.53962 0.0
C280 C 0.83458 0.08461 0.57264 0.0
C281 C 0.82594 0.08444 0.5457 0.0
N282 N 0.84961 0.15394 0.562 0.0
N283 N 0.84935 0.12749 0.58157 0.0
C284 C 0.83072 0.14597 0.5132 0.0
H285 H 0.83383 0.18023 0.51525 0.0
H286 H 0.79717 0.12126 0.50426 0.0
H287 H 0.8578 0.14864 0.49959 0.0
C288 C 0.77412 0.25912 0.56803 0.0
N289 N 0.81587 0.26293 0.56811 0.0
N290 N 0.81101 0.22209 0.56409 0.0
C291 C 0.76593 0.19107 0.56183 0.0
C292 C 0.74114 0.21357 0.56389 0.0
C293 C 0.76549 0.29754 0.57426 0.0
H294 H 0.77955 0.31162 0.59423 0.0
H295 H 0.78328 0.32523 0.55944 0.0
H296 H 0.72849 0.28622 0.57383 0.0
O297 O 0.89501 0.30047 0.61273 0.0
O298 O 0.88538 0.23123 0.60471 0.0
H299 H 0.76472 0.13062 0.57604 0.0
H300 H 0.70929 0.12179 0.5665 0.0
C301 C 0.74628 0.14026 0.56152 0.0
H302 H 0.75039 0.12959 0.54135 0.0
H303 H 0.85799 0.13835 0.60124 0.0
O304 O 0.86636 0.3687 0.58104 0.0
C305 C 0.8968 0.26512 0.62024 0.0
Co306 Co 0.90301 0.3713 0.09671 0.0
Co307 Co 0.98234 0.46849 0.11478 0.0
C308 C 0.97207 0.38416 0.14012 0.0
O309 O 0.93677 0.35936 0.12589 0.0
O310 O 0.99352 0.4278 0.13842 0.0
C311 C 0.81813 0.29735 0.1134 0.0
O312 O 0.83834 0.31154 0.13661 0.0
C313 C 0.0411 0.55266 0.14605 0.0
C314 C 0.06244 0.60598 0.11491 0.0
C315 C 0.06577 0.59982 0.14189 0.0
N316 N 0.02366 0.53196 0.12259 0.0
N317 N 0.03703 0.56407 0.10405 0.0
C318 C 0.03287 0.52764 0.1719 0.0
H319 H 0.05343 0.51031 0.17232 0.0
H320 H 0.99632 0.5006 0.17343 0.0
H321 H 0.04271 0.55139 0.1891 0.0
C322 C 0.85639 0.42514 0.09546 0.0
N323 N 0.89112 0.41948 0.10382 0.0
N324 N 0.92114 0.4565 0.11643 0.0
C325 C 0.90433 0.48519 0.11869 0.0
C326 C 0.86305 0.46702 0.10489 0.0
C327 C 0.82193 0.3944 0.07527 0.0
H328 H 0.83751 0.37992 0.06182 0.0
H329 H 0.79271 0.36537 0.08557 0.0
H330 H 0.80897 0.41319 0.06329 0.0
O331 O 0.94102 0.38824 0.06431 0.0
O332 O 0.99468 0.45846 0.07686 0.0
H333 H 0.95571 0.55578 0.12263 0.0
H334 H 0.90254 0.54052 0.13919 0.0
C335 C 0.92696 0.5287 0.13425 0.0
H336 H 0.94072 0.52264 0.15288 0.0
H337 H 0.02766 0.55741 0.08404 0.0
O338 O 0.84095 0.31565 0.09227 0.0
C339 C 0.97718 0.42645 0.05947 0.0
Co340 Co 0.65158 0.531 0.09866 0.0
Co341 Co 0.55584 0.52076 0.11337 0.0
C342 C 0.64298 0.59525 0.13767 0.0
O343 O 0.66732 0.58345 0.12396 0.0
O344 O 0.5993 0.57241 0.13639 0.0
C345 C 0.74838 0.54837 0.09308 0.0
O346 O 0.76352 0.5888 0.10407 0.0
C347 C 0.47263 0.51516 0.13777 0.0
C348 C 0.41986 0.45633 0.11498 0.0
C349 C 0.42551 0.48468 0.13637 0.0
N350 N 0.49328 0.50326 0.11907 0.0
N351 N 0.46133 0.46954 0.10479 0.0
C352 C 0.49774 0.55634 0.15529 0.0
H353 H 0.51931 0.58666 0.14268 0.0
H354 H 0.521 0.55149 0.16878 0.0
H355 H 0.47388 0.563 0.16702 0.0
C356 C 0.5992 0.43169 0.11421 0.0
N357 N 0.60267 0.47328 0.1121 0.0
N358 N 0.56313 0.46909 0.11899 0.0
C359 C 0.53405 0.42496 0.1261 0.0
C360 C 0.55563 0.39972 0.12255 0.0
C361 C 0.63524 0.42119 0.10611 0.0
H362 H 0.63718 0.42253 0.0841 0.0
H363 H 0.66841 0.44693 0.11485 0.0
H364 H 0.6271 0.38647 0.11278 0.0
O365 O 0.63395 0.54769 0.06449 0.0
O366 O 0.56676 0.53954 0.07556 0.0
H367 H 0.46262 0.39412 0.11787 0.0
H368 H 0.47531 0.37575 0.14839 0.0
C369 C 0.48581 0.40598 0.13533 0.0
H370 H 0.48218 0.43224 0.14655 0.0
H371 H 0.4681 0.45392 0.0889 0.0
O372 O 0.70529 0.52226 0.09067 0.0
C373 C 0.59822 0.54943 0.05854 0.0
Co374 Co 0.48506 0.12232 0.09583 0.0
Co375 Co 0.50665 0.04488 0.11157 0.0
C376 C 0.43073 0.04843 0.13794 0.0
O377 O 0.43863 0.08216 0.12292 0.0
O378 O 0.45649 0.03088 0.13717 0.0
C379 C 0.50013 0.20801 0.11362 0.0
O380 O 0.51765 0.19607 0.13332 0.0
C381 C 0.52531 0.97507 0.13542 0.0
C382 C 0.58712 0.98973 0.11267 0.0
C383 C 0.56024 0.96451 0.13402 0.0
N384 N 0.53278 1.00652 0.11658 0.0
N385 N 0.56874 1.01372 0.10246 0.0
C386 C 0.4852 0.95547 0.15392 0.0
H387 H 0.45344 0.94348 0.14216 0.0
H388 H 0.48812 0.98268 0.16757 0.0
H389 H 0.48274 0.92635 0.16561 0.0
C390 C 0.58732 0.17748 0.10129 0.0
N391 N 0.54677 0.13827 0.10425 0.0
N392 N 0.55429 0.10689 0.11477 0.0
C393 C 0.59926 0.12621 0.12067 0.0
C394 C 0.62171 0.17116 0.1118 0.0
C395 C 0.59406 0.21865 0.08618 0.0
H396 H 0.56626 0.20844 0.07142 0.0
H397 H 0.59393 0.24394 0.10024 0.0
H398 H 0.62761 0.23545 0.07583 0.0
O399 O 0.46676 0.08762 0.06221 0.0
O400 O 0.48272 0.03347 0.07408 0.0
H401 H 0.63872 0.09264 0.12092 0.0
H402 H 0.64727 0.12795 0.14925 0.0
C403 C 0.62093 0.1033 0.13528 0.0
H404 H 0.59501 0.07324 0.14664 0.0
H405 H 0.58231 0.03711 0.08677 0.0
O406 O 0.48176 0.18009 0.09436 0.0
C407 C 0.46839 0.05144 0.05695 0.0
Co408 Co 0.38059 0.89698 0.91036 0.0
Co409 Co 0.47791 0.98382 0.89935 0.0
C410 C 0.39371 0.97119 0.87162 0.0
O411 O 0.36839 0.93356 0.88375 0.0
O412 O 0.43687 0.9939 0.87513 0.0
C413 C 0.30008 0.81541 0.89204 0.0
O414 O 0.30696 0.83977 0.87031 0.0
C415 C 0.56435 0.04328 0.87085 0.0
C416 C 0.60915 0.08678 0.90335 0.0
C417 C 0.60843 0.07809 0.8764 0.0
N418 N 0.53992 0.03158 0.89352 0.0
N419 N 0.56682 0.05814 0.91281 0.0
C420 C 0.54613 0.02091 0.84451 0.0
H421 H 0.51192 0.9898 0.84683 0.0
H422 H 0.57027 1.01184 0.83513 0.0
H423 H 0.5433 0.04561 0.83114 0.0
C424 C 0.43463 0.85083 0.9019 0.0
N425 N 0.43085 0.88884 0.90087 0.0
N426 N 0.47139 0.92461 0.89588 0.0
C427 C 0.50211 0.91027 0.89371 0.0
C428 C 0.47974 0.86308 0.89707 0.0
C429 C 0.39707 0.80457 0.91049 0.0
H430 H 0.38286 0.80764 0.92977 0.0
H431 H 0.36937 0.79135 0.89557 0.0
H432 H 0.40898 0.77945 0.91249 0.0
O433 O 0.39382 0.93022 0.94527 0.0
O434 O 0.46273 0.98996 0.93647 0.0
H435 H 0.56331 0.96973 0.90676 0.0
H436 H 0.57135 0.9228 0.89668 0.0
C437 C 0.55269 0.94135 0.8923 0.0
H438 H 0.56199 0.95591 0.87198 0.0
H439 H 0.55657 0.05604 0.9326 0.0
O440 O 0.32527 0.83408 0.91236 0.0
C441 C 0.42933 0.96759 0.95235 0.0
Co442 Co 0.1307 0.48511 0.91431 0.0
Co443 Co 0.04975 0.50218 0.89979 0.0
C444 C 0.05524 0.42579 0.87435 0.0
O445 O 0.09206 0.43694 0.88717 0.0
O446 O 0.03435 0.44835 0.87675 0.0
C447 C 0.21162 0.48828 0.89547 0.0
O448 O 0.18868 0.47702 0.87298 0.0
C449 C 0.97716 0.5173 0.87647 0.0
C450 C 0.99406 0.58191 0.89692 0.0
C451 C 0.96681 0.55263 0.8769 0.0
N452 N 1.01028 0.52693 0.8945 0.0
N453 N 1.01878 0.56457 0.90733 0.0
C454 C 0.9557 0.47463 0.8599 0.0
H455 H 0.94666 0.44453 0.87284 0.0
H456 H 0.98086 0.47636 0.84508 0.0
H457 H 0.92455 0.46987 0.84958 0.0
C458 C 0.18242 0.58581 0.9057 0.0
N459 N 0.1435 0.54476 0.90435 0.0
N460 N 0.11092 0.55046 0.89406 0.0
C461 C 0.12915 0.59486 0.88667 0.0
C462 C 0.17462 0.61869 0.89429 0.0
C463 C 0.22448 0.59456 0.92051 0.0
H464 H 0.21546 0.56931 0.93687 0.0
H465 H 0.24825 0.59138 0.90673 0.0
H466 H 0.24249 0.62984 0.92882 0.0
O467 O 0.09741 0.46788 0.94874 0.0
O468 O 0.04215 0.4826 0.93787 0.0
H469 H 0.0955 0.63423 0.88621 0.0
H470 H 0.12765 0.63973 0.85691 0.0
C471 C 0.10463 0.61485 0.87208 0.0
H472 H 0.07362 0.58765 0.86207 0.0
H473 H 0.04357 0.57994 0.92216 0.0
O474 O 0.19186 0.48967 0.91674 0.0
C475 C 0.06169 0.46971 0.95476 0.0
Co476 Co 0.54318 0.64901 0.91388 0.0
Co477 Co 0.52466 0.54995 0.89928 0.0
C478 C 0.59966 0.63293 0.8729 0.0
O479 O 0.58945 0.65894 0.88599 0.0
O480 O 0.57716 0.58946 0.87561 0.0
C481 C 0.53071 0.72354 0.8997 0.0
O482 O 0.51624 0.69888 0.87785 0.0
C483 C 0.49826 0.46459 0.86931 0.0
C484 C 0.47752 0.41391 0.90194 0.0
C485 C 0.48131 0.4184 0.87456 0.0
N486 N 0.50412 0.48654 0.89259 0.0
N487 N 0.49195 0.45603 0.912 0.0
C488 C 0.50859 0.48745 0.84266 0.0
H489 H 0.5427 0.49409 0.83602 0.0
H490 H 0.50928 0.52068 0.8439 0.0
H491 H 0.48296 0.46487 0.82772 0.0
C492 C 0.44119 0.59987 0.90587 0.0
N493 N 0.48222 0.60206 0.90438 0.0
N494 N 0.47556 0.56203 0.89613 0.0
C495 C 0.43056 0.53405 0.89129 0.0
C496 C 0.40741 0.55705 0.8973 0.0
C497 C 0.43311 0.63529 0.91854 0.0
H498 H 0.45911 0.65369 0.93413 0.0
H499 H 0.43521 0.65996 0.9032 0.0
H500 H 0.3985 0.61926 0.92759 0.0
O501 O 0.5619 0.63138 0.9474 0.0
O502 O 0.54581 0.56075 0.93679 0.0
H503 H 0.41506 0.46514 0.89782 0.0
H504 H 0.3723 0.46984 0.8787 0.0
C505 C 0.40956 0.48541 0.88238 0.0
H506 H 0.42644 0.48435 0.86373 0.0
H507 H 0.49287 0.46387 0.93216 0.0
O508 O 0.54564 0.70931 0.91849 0.0
C509 C 0.55987 0.5936 0.95344 0.0
Co510 Co 0.56683 0.69812 0.43331 0.0
Co511 Co 0.6473 0.79796 0.44718 0.0
C512 C 0.6409 0.71463 0.47307 0.0
O513 O 0.60421 0.68817 0.46047 0.0
O514 O 0.66114 0.75806 0.47023 0.0
C515 C 0.4818 0.62016 0.44782 0.0
O516 O 0.49287 0.64225 0.47062 0.0
C517 C 0.70933 0.88111 0.47834 0.0
C518 C 0.72704 0.93571 0.44846 0.0
C519 C 0.73289 0.92849 0.47496 0.0
N520 N 0.68957 0.86138 0.45503 0.0
N521 N 0.70108 0.89426 0.43717 0.0
C522 C 0.70408 0.85493 0.50342 0.0
H523 H 0.71981 0.83317 0.50063 0.0
H524 H 0.66715 0.83173 0.50754 0.0
H525 H 0.72059 0.87824 0.52057 0.0
C526 C 0.51303 0.7458 0.4418 0.0
N527 N 0.55221 0.74428 0.44355 0.0
N528 N 0.58571 0.78523 0.45046 0.0
C529 C 0.56857 0.81353 0.45365 0.0
C530 C 0.52214 0.78956 0.44836 0.0
C531 C 0.46899 0.70817 0.4308 0.0
H532 H 0.47632 0.69237 0.41363 0.0
H533 H 0.45094 0.68184 0.44637 0.0
H534 H 0.44594 0.72088 0.42435 0.0
O535 O 0.60208 0.71718 0.39929 0.0
O536 O 0.65701 0.78808 0.40944 0.0
H537 H 0.61548 0.88084 0.43964 0.0
H538 H 0.57524 0.87904 0.46377 0.0
C539 C 0.59668 0.864 0.45816 0.0
H540 H 0.62151 0.87052 0.47416 0.0
H541 H 0.68996 0.88844 0.41743 0.0
O542 O 0.50954 0.63741 0.42845 0.0
C543 C 0.63737 0.75514 0.39288 0.0
Co544 Co 0.32052 0.86986 0.42837 0.0
Co545 Co 0.22246 0.85042 0.44515 0.0
C546 C 0.30473 0.92387 0.47189 0.0
O547 O 0.33014 0.91403 0.45791 0.0
O548 O 0.26133 0.9015 0.46963 0.0
C549 C 0.38604 0.84548 0.44247 0.0
O550 O 0.35576 0.82597 0.46159 0.0
C551 C 0.13757 0.82484 0.4753 0.0
C552 C 0.08514 0.79196 0.44388 0.0
C553 C 0.09067 0.80227 0.47077 0.0
N554 N 0.15877 0.82752 0.45214 0.0
N555 N 0.12719 0.80822 0.43342 0.0
C556 C 0.16188 0.8423 0.50126 0.0
H557 H 0.18878 0.83281 0.50341 0.0
H558 H 0.1378 0.82877 0.51831 0.0
H559 H 0.17915 0.88032 0.5013 0.0
C560 C 0.26737 0.76791 0.42699 0.0
N561 N 0.27223 0.80858 0.43438 0.0
N562 N 0.23489 0.8013 0.44663 0.0
C563 C 0.20703 0.75566 0.44973 0.0
C564 C 0.22627 0.73261 0.43704 0.0
C565 C 0.29774 0.76322 0.40711 0.0
H566 H 0.31331 0.7936 0.39379 0.0
H567 H 0.32545 0.76103 0.41759 0.0
H568 H 0.27818 0.73166 0.39503 0.0
O569 O 0.30519 0.89273 0.39623 0.0
O570 O 0.23435 0.87497 0.40765 0.0
H571 H 0.13616 0.73486 0.45234 0.0
H572 H 0.15197 0.69876 0.47065 0.0
C573 C 0.16312 0.73464 0.46481 0.0
H574 H 0.16793 0.7554 0.4829 0.0
H575 H 0.13431 0.80507 0.41357 0.0
O576 O 0.37917 0.86867 0.42489 0.0
C577 C 0.26734 0.89083 0.39092 0.0
Co578 Co 0.16241 0.45216 0.43464 0.0
Co579 Co 0.1678 0.3622 0.44539 0.0
C580 C 0.09748 0.38123 0.47217 0.0
O581 O 0.11235 0.42038 0.46116 0.0
O582 O 0.116 0.35677 0.46792 0.0
C583 C 0.15269 0.53596 0.43212 0.0
O584 O 0.11654 0.51377 0.44743 0.0
C585 C 0.18557 0.30139 0.4793 0.0
C586 C 0.21133 0.27121 0.44979 0.0
C587 C 0.20536 0.27399 0.47686 0.0
N588 N 0.18151 0.3153 0.45484 0.0
N589 N 0.19601 0.29626 0.43727 0.0
C590 C 0.17282 0.31619 0.50435 0.0
H591 H 0.13569 0.30432 0.50394 0.0
H592 H 0.19138 0.35424 0.50529 0.0
H593 H 0.1807 0.30205 0.52226 0.0
C594 C 0.26062 0.49393 0.45097 0.0
N595 N 0.2184 0.45723 0.44763 0.0
N596 N 0.22171 0.41997 0.44867 0.0
C597 C 0.26634 0.43219 0.45029 0.0
C598 C 0.29233 0.47948 0.45217 0.0
C599 C 0.27186 0.54264 0.45181 0.0
H600 H 0.28674 0.55866 0.43236 0.0
H601 H 0.24117 0.54508 0.45653 0.0
H602 H 0.2985 0.56158 0.46712 0.0
O603 O 0.14184 0.41487 0.40055 0.0
O604 O 0.14909 0.35378 0.40814 0.0
H605 H 0.27057 0.38278 0.42572 0.0
H606 H 0.32237 0.41923 0.44419 0.0
C607 C 0.28443 0.40058 0.44494 0.0
H608 H 0.27292 0.37437 0.46071 0.0
H609 H 0.19755 0.3022 0.41681 0.0
O610 O 0.17472 0.51597 0.42553 0.0
C611 C 0.13899 0.37738 0.39275 0.0
C612 C 0.34276 0.45897 0.14413 0.0
C613 C 0.38745 0.47682 0.15478 0.0
C614 C 0.35436 0.4701 0.19886 0.0
C615 C 0.30968 0.44089 0.18871 0.0
N616 N 0.26697 0.39556 0.15034 0.0
N617 N 0.43042 0.48261 0.19491 0.0
C618 C 0.30479 0.43232 0.16084 0.0
C619 C 0.39239 0.47869 0.18295 0.0
N620 N 0.33629 0.46566 0.11809 0.0
N621 N 0.36076 0.48814 0.22383 0.0
H622 H 0.45559 0.47998 0.18448 0.0
H623 H 0.43316 0.48129 0.21555 0.0
H624 H 0.33359 0.48447 0.23552 0.0
H625 H 0.39328 0.511 0.23123 0.0
H626 H 0.30373 0.45417 0.1102 0.0
H627 H 0.36339 0.48715 0.10562 0.0
H628 H 0.26429 0.3876 0.13011 0.0
H629 H 0.24214 0.36947 0.16204 0.0
C630 C 0.61747 0.8999 0.15879 0.0
C631 C 0.61102 0.8988 0.1868 0.0
C632 C 0.57267 0.94322 0.18068 0.0
C633 C 0.57252 0.93775 0.15262 0.0
N634 N 0.58323 0.89716 0.11617 0.0
N635 N 0.56844 0.90722 0.22291 0.0
C636 C 0.59073 0.91117 0.14207 0.0
C637 C 0.58355 0.91601 0.19723 0.0
N638 N 0.6518 0.89496 0.14801 0.0
N639 N 0.56734 0.97721 0.19173 0.0
H640 H 0.57375 0.88537 0.23524 0.0
H641 H 0.54618 0.91734 0.23059 0.0
H642 H 0.56635 1.00266 0.18047 0.0
H643 H 0.5705 0.98372 0.21215 0.0
H644 H 0.65913 0.89896 0.12769 0.0
H645 H 0.67656 0.89324 0.15947 0.0
H646 H 0.59396 0.87544 0.10836 0.0
H647 H 0.56182 0.90277 0.10367 0.0
C648 C 0.06024 0.64876 0.1778 0.0
C649 C 0.08782 0.63749 0.16175 0.0
C650 C 0.15732 0.7016 0.18124 0.0
C651 C 0.12962 0.71446 0.19584 0.0
N652 N 0.05538 0.70344 0.20691 0.0
N653 N 0.1622 0.65373 0.14671 0.0
C654 C 0.08124 0.68868 0.19396 0.0
C655 C 0.13632 0.66408 0.1631 0.0
N656 N 1.01378 0.62107 0.1777 0.0
N657 N 0.20361 0.72469 0.18528 0.0
H658 H 0.14815 0.62487 0.13446 0.0
H659 H 0.19734 0.67457 0.14425 0.0
H660 H 0.22001 0.75285 0.19799 0.0
H661 H 0.22566 0.71456 0.17746 0.0
H662 H 0.99194 0.62338 0.19139 0.0
H663 H 0.99694 0.59364 0.16475 0.0
H664 H 1.02061 0.69034 0.20359 0.0
H665 H 0.06912 0.73093 0.22011 0.0
C666 C 0.42483 0.36516 0.84086 0.0
C667 C 0.46599 0.38009 0.85531 0.0
C668 C 0.47396 0.31767 0.83589 0.0
C669 C 0.43519 0.30569 0.81969 0.0
N670 N 0.37915 0.32364 0.80272 0.0
N671 N 0.53353 0.37512 0.86407 0.0
C672 C 0.41233 0.33122 0.82091 0.0
C673 C 0.49169 0.35759 0.85213 0.0
N674 N 0.39643 0.38166 0.84712 0.0
N675 N 0.49321 0.29038 0.83614 0.0
H676 H 0.54748 0.40425 0.87611 0.0
H677 H 0.556 0.3631 0.86037 0.0
H678 H 0.48177 0.26159 0.82398 0.0
H679 H 0.51828 0.29431 0.84967 0.0
H680 H 0.36378 0.36861 0.83912 0.0
H681 H 0.40351 0.40509 0.8624 0.0
H682 H 0.36473 0.34454 0.80095 0.0
H683 H 0.36909 0.29917 0.7877 0.0
C684 C 0.70746 0.08771 0.83575 0.0
C685 C 0.72254 0.12983 0.82225 0.0
C686 C 0.66144 0.13772 0.84368 0.0
C687 C 0.64872 0.09716 0.8585 0.0
N688 N 0.6643 0.03641 0.87057 0.0
N689 N 0.71842 0.19854 0.81575 0.0
C690 C 0.67312 0.07337 0.8553 0.0
C691 C 0.70071 0.15588 0.82683 0.0
N692 N 0.72546 0.06048 0.82978 0.0
N693 N 0.63532 0.15815 0.84522 0.0
H694 H 0.74691 0.21268 0.80324 0.0
H695 H 0.70718 0.22133 0.82046 0.0
H696 H 0.60716 0.14643 0.85788 0.0
H697 H 0.63957 0.18472 0.83277 0.0
H698 H 0.71542 0.02942 0.83948 0.0
H699 H 0.74818 0.06764 0.81412 0.0
H700 H 0.64083 0.0241 0.8862 0.0
H701 H 0.64083 0.0241 0.8862 0.0
C702 C 0.91585 0.58594 0.86907 0.0
C703 C 0.93832 0.56329 0.85863 0.0
C704 C 0.91011 0.56819 0.81464 0.0
C705 C 0.89772 0.60013 0.82423 0.0
N706 N 0.90671 0.65104 0.86086 0.0
N707 N 0.96955 0.54931 0.81851 0.0
C708 C 0.90496 0.61213 0.85165 0.0
C709 C 0.93873 0.55827 0.83055 0.0
N710 N 0.90565 0.58345 0.8955 0.0
N711 N 0.89552 0.54786 0.79039 0.0
H712 H 0.99663 0.54988 0.82873 0.0
H713 H 0.97208 0.54831 0.79785 0.0
H714 H 0.87207 0.55194 0.77888 0.0
H715 H 0.90252 0.52279 0.78354 0.0
H716 H 0.88733 0.59811 0.90333 0.0
H717 H 0.91054 0.56227 0.90864 0.0
H718 H 0.91482 0.66173 0.88059 0.0
H719 H 0.90686 0.67568 0.84827 0.0
C720 C 0.72371 0.70622 0.85021 0.0
C721 C 0.71976 0.69495 0.82281 0.0
C722 C 0.6365 0.64549 0.82774 0.0
C723 C 0.6409 0.65413 0.85554 0.0
N724 N 0.68947 0.6858 0.89412 0.0
N725 N 0.67408 0.64953 0.78581 0.0
C726 C 0.68473 0.68277 0.86703 0.0
C727 C 0.67659 0.66325 0.81167 0.0
N728 N 0.7646 0.73991 0.86007 0.0
N729 N 0.59392 0.62189 0.81654 0.0
H730 H 0.70241 0.66288 0.7732 0.0
H731 H 0.64471 0.62266 0.77734 0.0
H732 H 0.56385 0.60864 0.82764 0.0
H733 H 0.58816 0.61857 0.79609 0.0
H734 H 0.76852 0.75348 0.87913 0.0
H735 H 0.79412 0.75689 0.84846 0.0
H736 H 0.72101 0.70205 0.90375 0.0
H737 H 0.66203 0.66849 0.90718 0.0
C738 C 0.36941 0.98517 0.82694 0.0
C739 C 0.37175 0.99115 0.85493 0.0
C740 C 0.32955 0.03293 0.85155 0.0
C741 C 0.32997 0.02965 0.82343 0.0
N742 N 0.35523 1.00835 0.78384 0.0
N743 N 0.3591 0.0247 0.89404 0.0
C744 C 0.35115 1.00719 0.81097 0.0
C745 C 0.35313 0.0161 0.8673 0.0
N746 N 0.38368 0.95753 0.81572 0.0
N747 N 0.30553 0.05104 0.86317 0.0
H748 H 0.3751 1.01196 0.90631 0.0
H749 H 0.35106 0.04692 0.90387 0.0
H750 H 0.28853 0.06426 0.85217 0.0
H751 H 0.29956 0.05007 0.88354 0.0
H752 H 0.3783 0.94747 0.79585 0.0
H753 H 0.39817 0.94179 0.82679 0.0
H754 H 0.37478 0.99735 0.77363 0.0
H755 H 0.34172 0.02347 0.77143 0.0
C756 C 0.02864 0.38822 0.82944 0.0
C757 C 0.03518 0.38425 0.85704 0.0
C758 C 1.00639 0.30158 0.85135 0.0
C759 C 0.99639 0.30497 0.82432 0.0
N760 N 0.99235 0.34989 0.78812 0.0
N761 N 0.02261 0.33588 0.89532 0.0
C762 C 1.00579 0.34785 0.81353 0.0
C763 C 0.02217 0.34058 0.86828 0.0
N764 N 0.04611 0.43074 0.81818 0.0
N765 N 1.00125 0.26117 0.86077 0.0
H766 H 0.03277 0.36322 0.90848 0.0
H767 H 1.00899 0.30429 0.9049 0.0
H768 H 0.98843 0.23161 0.84914 0.0
H769 H 1.01283 0.25783 0.87939 0.0
H770 H 0.0469 0.43626 0.79774 0.0
H771 H 0.06358 0.46109 0.82905 0.0
H772 H 0.99314 0.37882 0.78015 0.0
H773 H 0.97728 0.32154 0.77548 0.0
C774 C 0.73088 0.69801 0.17927 0.0
C775 C 0.70361 0.71654 0.18854 0.0
C776 C 0.64248 0.66292 0.15915 0.0
C777 C 0.66541 0.63788 0.15454 0.0
N778 N 0.72918 0.62777 0.16742 0.0
N779 N 0.6257 0.70152 0.19353 0.0
C780 C 0.70907 0.6542 0.16665 0.0
C781 C 0.65707 0.69467 0.18037 0.0
N782 N 0.77744 0.72241 0.18127 0.0
N783 N 0.60831 0.65857 0.14276 0.0
H784 H 0.63269 0.71888 0.21162 0.0
H785 H 0.59107 0.68391 0.18847 0.0
H786 H 0.60028 0.64051 0.12487 0.0
H787 H 0.59282 0.67845 0.14517 0.0
H788 H 0.79823 0.71092 0.17304 0.0
H789 H 0.79539 0.75634 0.18772 0.0
H790 H 0.75951 0.63775 0.17777 0.0
H791 H 0.71299 0.59385 0.16097 0.0
C792 C 0.33129 0.96396 0.18185 0.0
C793 C 0.3088 0.98909 0.18789 0.0
C794 C 0.3723 0.05591 0.16612 0.0
C795 C 0.38938 0.02816 0.15568 0.0
N796 N 0.37174 0.94999 0.14714 0.0
N797 N 0.30318 0.05642 0.1771 0.0
C798 C 0.36503 0.98041 0.16157 0.0
C799 C 0.32779 0.03438 0.17748 0.0
N800 N 0.32285 0.92592 0.19605 0.0
N801 N 0.39867 0.10262 0.16635 0.0
H802 H 0.26867 0.04041 0.18222 0.0
H803 H 0.31537 0.08839 0.16809 0.0
H804 H 0.43308 0.11993 0.16093 0.0
H805 H 0.38797 0.12347 0.17542 0.0
H806 H 0.34104 0.90888 0.19279 0.0
H807 H 0.30327 0.91553 0.21336 0.0
H808 H 0.35224 0.91463 0.15019 0.0
H809 H 0.39151 0.95913 0.1299 0.0
C810 C 0.0211 0.30902 0.16289 0.0
C811 C 0.03094 0.32212 0.18996 0.0
C812 C 0.99669 0.37126 0.18522 0.0
C813 C 0.99091 0.36163 0.15751 0.0
N814 N 1.00545 0.32787 0.11902 0.0
N815 N 0.03282 0.36917 0.22661 0.0
C816 C 1.0049 0.33197 0.14609 0.0
C817 C 1.02012 0.35431 0.20103 0.0
N818 N 0.02712 0.2745 0.15323 0.0
N819 N 0.97818 0.39512 0.19659 0.0
H820 H 0.04811 0.35607 0.23918 0.0
H821 H 0.03098 0.39653 0.23485 0.0
H822 H 0.96023 0.4074 0.18573 0.0
H823 H 0.97703 0.39933 0.21705 0.0
H824 H 1.01568 0.25975 0.13455 0.0
H825 H 0.04034 0.25801 0.16471 0.0
H826 H 1.01998 0.31089 0.10943 0.0
H827 H 0.99534 0.34508 0.10586 0.0
C828 C 0.0264 0.80904 0.49134 0.0
C829 C 0.05283 0.78696 0.49043 0.0
C830 C 1.00339 0.73156 0.5243 0.0
C831 C 0.97784 0.75444 0.52578 0.0
N832 N 0.96688 0.8173 0.51349 0.0
N833 N 0.06907 0.72939 0.50697 0.0
C834 C 0.98981 0.79382 0.51 0.0
C835 C 0.04207 0.7489 0.50724 0.0
N836 N 0.03605 0.8442 0.47407 0.0
N837 N 0.98962 0.69216 0.53859 0.0
H838 H 0.09492 0.73816 0.49311 0.0
H839 H 0.06755 0.70608 0.5211 0.0
H840 H 0.96343 0.67994 0.55258 0.0
H841 H 1.00233 0.67003 0.53582 0.0
H842 H 1.0153 0.85851 0.47138 0.0
H843 H 0.06417 0.85803 0.4613 0.0
H844 H 0.97644 0.84885 0.50475 0.0
H845 H 0.93944 0.8065 0.52661 0.0
C846 C 0.20053 0.20576 0.5003 0.0
C847 C 0.22155 0.25425 0.4979 0.0
C848 C 0.28238 0.26419 0.52871 0.0
C849 C 0.26103 0.21586 0.53136 0.0
N850 N 0.19707 0.14043 0.52323 0.0
N851 N 0.27812 0.32989 0.51321 0.0
C852 C 0.21926 0.18654 0.51816 0.0
C853 C 0.26106 0.28353 0.5132 0.0
N854 N 0.16287 0.17814 0.48522 0.0
N855 N 0.32404 0.29166 0.54034 0.0
H856 H 0.26497 0.34601 0.50157 0.0
H857 H 0.30305 0.35241 0.52639 0.0
H858 H 0.33959 0.27918 0.55309 0.0
H859 H 0.34476 0.32643 0.53616 0.0
H860 H 0.14916 0.1429 0.48328 0.0
H861 H 0.14591 0.19077 0.47369 0.0
H862 H 0.16423 0.11739 0.51657 0.0
H863 H 0.21046 0.12524 0.53569 0.0
C864 C 0.8056 0.99455 0.49308 0.0
C865 C 0.75735 0.96551 0.49503 0.0
C866 C 0.75445 1.01466 0.53018 0.0
C867 C 0.80266 0.0431 0.52856 0.0
N868 N 0.87535 0.05782 0.5116 0.0
N869 N 0.68647 0.94391 0.5179 0.0
C870 C 0.82862 0.0324 0.51086 0.0
C871 C 0.73202 0.97431 0.51439 0.0
N872 N 0.82929 0.98607 0.47401 0.0
N873 N 0.7298 0.02724 0.54613 0.0
H874 H 0.66801 0.91531 0.50596 0.0
H875 H 0.66739 0.94495 0.53385 0.0
H876 H 0.7449 0.05497 0.55914 0.0
H877 H 0.69436 1.01212 0.54545 0.0
H878 H 0.86328 1.00869 0.46913 0.0
H879 H 0.81436 0.95672 0.46215 0.0
H880 H 0.89684 0.04943 0.5013 0.0
H881 H 0.8931 0.08621 0.52401 0.0
C882 C 0.33461 1.00056 0.53333 0.0
C883 C 0.3662 0.04404 0.52233 0.0
C884 C 0.35515 1.00918 0.4781 0.0
C885 C 0.32643 0.96505 0.48944 0.0
N886 N 0.2939 0.91766 0.52831 0.0
N887 N 0.41192 0.08925 0.48536 0.0
C888 C 0.31739 0.96045 0.5172 0.0
C889 C 0.37816 0.04816 0.49504 0.0
N890 N 0.3206 0.99771 0.55914 0.0
N891 N 0.35847 1.01429 0.45103 0.0
H892 H 0.42845 0.1188 0.49701 0.0
H893 H 0.42596 0.09326 0.46642 0.0
H894 H 0.34132 0.987 0.43783 0.0
H895 H 0.37478 0.04607 0.44155 0.0
H896 H 0.29375 0.96813 0.56748 0.0
H897 H 0.3338 0.02594 0.57187 0.0
H898 H 0.29023 0.91172 0.54874 0.0
H899 H 0.28119 0.8876 0.51717 0.0
C900 C 1.01357 0.35366 0.47882 0.0
C901 C 0.05622 0.36245 0.48955 0.0
C902 C 1.01865 0.32835 0.53213 0.0
C903 C 0.97671 0.32233 0.52195 0.0
N904 N 0.93542 0.33546 0.4872 0.0
N905 N 0.10123 0.36583 0.52761 0.0
C906 C 0.97462 0.33711 0.4958 0.0
C907 C 0.05924 0.35174 0.51654 0.0
N908 N 1.00962 0.35869 0.45209 0.0
N909 N 1.01966 0.31152 0.55675 0.0
H910 H 0.13171 0.38384 0.51696 0.0
H911 H 0.10641 0.36343 0.54783 0.0
H912 H 0.99146 0.29674 0.56943 0.0
H913 H 0.04751 0.30958 0.56401 0.0
H914 H 0.97851 0.34804 0.44258 0.0
H915 H 0.03693 0.36985 0.43886 0.0
H916 H 0.93334 0.35062 0.46958 0.0
H917 H 0.90567 0.32177 0.49864 0.0
C918 C 0.69255 0.6418 0.49554 0.0
C919 C 0.70202 0.65465 0.52266 0.0
C920 C 0.66819 0.70416 0.51787 0.0
C921 C 0.66196 0.69408 0.49024 0.0
N922 N 0.6759 0.66005 0.45172 0.0
N923 N 0.70432 0.70205 0.55923 0.0
C924 C 0.67606 0.66454 0.47878 0.0
C925 C 0.69151 0.68711 0.53368 0.0
N926 N 0.69881 0.60743 0.48588 0.0
N927 N 0.65 0.72832 0.52924 0.0
H928 H 0.71959 0.68892 0.57178 0.0
H929 H 0.70273 0.72956 0.56745 0.0
H930 H 0.63227 0.74088 0.5184 0.0
H931 H 0.649 0.7327 0.54969 0.0
H932 H 0.68766 0.59277 0.46716 0.0
H933 H 0.71215 0.59107 0.49739 0.0
H934 H 0.69028 0.64303 0.442 0.0
H935 H 0.66519 0.67691 0.43868 0.0
C936 C 0.12281 0.36921 0.31704 0.0
C937 C 0.10281 0.32104 0.31338 0.0
C938 C 0.09356 0.31144 0.36169 0.0
C939 C 0.12292 0.35943 0.36533 0.0
N940 N 0.17237 0.43348 0.34489 0.0
N941 N 0.07675 0.24667 0.3338 0.0
C942 C 0.13925 0.38841 0.34261 0.0
C943 C 0.08984 0.29203 0.33611 0.0
N944 N 0.12516 0.39665 0.29635 0.0
N945 N 0.06838 0.2844 0.38249 0.0
H946 H 0.0765 0.23118 0.31584 0.0
H947 H 0.07117 0.22568 0.3503 0.0
H948 H 0.0679 0.29773 0.40114 0.0
H949 H 0.04387 0.24984 0.38019 0.0
H950 H 0.13619 0.43142 0.29871 0.0
H951 H 0.11078 0.38364 0.27774 0.0
H952 H 0.18803 0.45432 0.32838 0.0
H953 H 0.18789 0.4488 0.36284 0.0
C954 C 0.64934 0.7558 0.31705 0.0
C955 C 0.6976 0.78338 0.31434 0.0
C956 C 0.70528 0.78243 0.36276 0.0
C957 C 0.65716 0.76171 0.36567 0.0
N958 N 0.58389 0.73745 0.34477 0.0
N959 N 0.77031 0.833 0.33581 0.0
C960 C 0.62915 0.75061 0.3426 0.0
C961 C 0.72535 0.7995 0.33752 0.0
N962 N 0.62279 0.73318 0.29555 0.0
N963 N 0.7319 0.7847 0.38386 0.0
H964 H 0.78586 0.8494 0.31804 0.0
H965 H 0.79052 0.84841 0.35255 0.0
H966 H 0.71833 0.77017 0.40236 0.0
H967 H 0.76671 0.79609 0.38198 0.0
H968 H 0.58796 0.70941 0.29713 0.0
H969 H 0.6363 0.73414 0.27675 0.0
H970 H 0.56341 0.73341 0.3283 0.0
H971 H 0.56795 0.73538 0.36288 0.0
C972 C 0.27165 0.91188 0.31608 0.0
C973 C 0.24287 0.93116 0.3137 0.0
C974 C 0.23986 0.93385 0.36237 0.0
C975 C 0.26089 0.9065 0.36438 0.0
N976 N 0.2874 0.86076 0.34161 0.0
N977 N 0.19208 0.95231 0.33542 0.0
C978 C 0.27449 0.89324 0.34083 0.0
C979 C 0.22505 0.94026 0.33706 0.0
N980 N 0.29706 0.91211 0.29487 0.0
N981 N 0.23517 0.95487 0.3844 0.0
H982 H 0.17813 0.95508 0.3175 0.0
H983 H 0.17509 0.95476 0.35209 0.0
H984 H 0.2478 0.95315 0.40306 0.0
H985 H 0.22363 0.97831 0.38342 0.0
H986 H 0.32135 0.90178 0.29638 0.0
H987 H 0.29786 0.92769 0.27675 0.0
H988 H 0.29351 0.84727 0.32445 0.0
H989 H 0.2867 0.84325 0.35888 0.0
C990 C 0.3967 0.12018 0.6713 0.0
C991 C 0.36906 0.10522 0.64804 0.0
C992 C 0.3002 0.07518 0.67583 0.0
C993 C 0.32773 0.08733 0.6991 0.0
N994 N 0.40085 0.10627 0.71816 0.0
N995 N 0.29437 0.05424 0.62941 0.0
C996 C 0.37558 0.10487 0.69656 0.0
C997 C 0.32073 0.07803 0.65072 0.0
N998 N 0.44243 0.1513 0.66978 0.0
N999 N 0.25534 0.06381 0.67719 0.0
H1000 H 0.30834 0.05354 0.61103 0.0
H1001 H 0.25939 0.03102 0.63097 0.0
H1002 H 0.2391 0.06365 0.69482 0.0
H1003 H 0.23557 0.05926 0.66029 0.0
H1004 H 0.46256 0.1663 0.6866 0.0
H1005 H 0.4594 0.16599 0.65204 0.0
H1006 H 0.43515 0.1153 0.71676 0.0
H1007 H 0.38621 0.09313 0.73671 0.0
C1008 C 0.91244 0.26928 0.69603 0.0
C1009 C 0.93366 0.24217 0.69885 0.0
C1010 C 0.94257 0.24392 0.65044 0.0
C1011 C 0.91311 0.2624 0.64747 0.0
N1012 N 0.86321 0.28519 0.66868 0.0
N1013 N 0.96044 0.19564 0.67731 0.0
C1014 C 0.89639 0.27346 0.67058 0.0
C1015 C 0.94679 0.2275 0.6757 0.0
N1016 N 0.90853 0.292 0.71746 0.0
N1017 N 0.96731 0.24276 0.62927 0.0
H1018 H 0.96108 0.17988 0.69502 0.0
H1019 H 0.96602 0.18094 0.66053 0.0
H1020 H 0.96699 0.2566 0.61076 0.0
H1021 H 0.99211 0.23316 0.63106 0.0
H1022 H 0.89687 0.31528 0.71585 0.0
H1023 H 0.92194 0.29178 0.73613 0.0
H1024 H 0.84693 0.28894 0.6853 0.0
H1025 H 0.84841 0.28643 0.65074 0.0
C1026 C 0.80163 0.7246 0.67497 0.0
C1027 C 0.78689 0.69749 0.69846 0.0
C1028 C 0.75427 0.62774 0.67115 0.0
C1029 C 0.76521 0.65482 0.64768 0.0
N1030 N 0.7865 0.72866 0.62834 0.0
N1031 N 0.73657 0.62318 0.71805 0.0
C1032 C 0.78483 0.70317 0.64994 0.0
C1033 C 0.75923 0.649 0.6963 0.0
N1034 N 0.83367 0.77021 0.67615 0.0
N1035 N 0.74186 0.58244 0.66984 0.0
H1036 H 0.73729 0.63754 0.73654 0.0
H1037 H 0.71287 0.5882 0.71687 0.0
H1038 H 0.74019 0.56566 0.65212 0.0
H1039 H 0.73807 0.56281 0.68673 0.0
H1040 H 0.84852 0.79005 0.65919 0.0
H1041 H 0.84925 0.7871 0.69378 0.0
H1042 H 0.79688 0.76343 0.62961 0.0
H1043 H 0.77248 0.71406 0.60995 0.0
C1044 C 0.0473 0.45574 0.03041 0.0
C1045 C 0.99897 0.43473 0.03271 0.0
C1046 C 0.99279 0.4272 0.98418 0.0
C1047 C 0.04098 0.45551 0.98176 0.0
N1048 N 0.11349 0.50453 1.00352 0.0
N1049 N 0.92664 0.41057 0.01056 0.0
C1050 C 0.06824 0.47186 1.00513 0.0
C1051 C 0.97183 0.42305 0.00927 0.0
N1052 N 0.07322 0.45904 0.05209 0.0
N1053 N 0.96698 0.40307 0.96278 0.0
H1054 H 0.91029 0.41028 0.02819 0.0
H1055 H 0.90688 0.40587 0.99363 0.0
H1056 H 0.98122 0.40289 0.94439 0.0
H1057 H 0.93221 0.37903 0.96427 0.0
H1058 H 0.1081 0.47045 0.05081 0.0
H1059 H 0.05908 0.44544 0.07065 0.0
H1060 H 0.1334 0.52053 0.02026 0.0
H1061 H 0.12993 0.5193 0.98564 0.0
C1062 C 0.57558 0.5949 0.02886 0.0
C1063 C 0.59298 0.56444 0.0315 0.0
C1064 C 0.59986 0.56437 0.98299 0.0
C1065 C 0.57396 0.58686 0.9804 0.0
N1066 N 0.52862 0.61473 1.00223 0.0
N1067 N 0.61297 0.51265 0.00986 0.0
C1068 C 0.55958 0.59999 1.00369 0.0
C1069 C 0.603 0.54718 0.00824 0.0
N1070 N 0.57552 0.62011 0.05013 0.0
N1071 N 0.62261 0.5605 0.96159 0.0
H1072 H 0.61284 0.49671 0.02767 0.0
H1073 H 0.61625 0.49634 0.99308 0.0
H1074 H 0.62362 0.57518 0.94312 0.0
H1075 H 0.64491 0.54768 0.96313 0.0
H1076 H 0.56658 0.64548 0.04846 0.0
H1077 H 0.58967 0.61976 0.06853 0.0
H1078 H 0.51425 0.6205 0.01909 0.0
H1079 H 0.51324 0.6161 0.98454 0.0
C1080 C 0.46792 0.05681 0.00673 0.0
C1081 C 0.4539 0.02963 0.03022 0.0
C1082 C 0.42251 0.96009 1.00275 0.0
C1083 C 0.43265 0.98728 0.97936 0.0
N1084 N 0.451 0.06059 0.96042 0.0
N1085 N 0.40503 0.95487 0.04973 0.0
C1086 C 0.45081 0.03536 0.98179 0.0
C1087 C 0.42716 0.98105 0.028 0.0
N1088 N 0.49977 0.1025 0.00775 0.0
N1089 N 0.41104 0.91508 1.00125 0.0
H1090 H 0.40529 0.96897 0.06825 0.0
H1091 H 0.38208 0.91971 0.04853 0.0
H1092 H 0.40934 0.89857 0.98342 0.0
H1093 H 0.40791 0.8955 0.01804 0.0
H1094 H 0.51379 0.12234 0.99069 0.0
H1095 H 0.51629 0.11938 0.02519 0.0
H1096 H 0.4605 0.09512 0.9619 0.0
H1097 H 0.43652 0.04581 0.94213 0.0
C1098 C 0.20104 0.12821 0.20317 0.0
C1099 C 0.19456 0.10394 0.22751 0.0
C1100 C 0.17169 0.15534 0.24849 0.0
C1101 C 0.16822 0.17153 0.22305 0.0
N1102 N 0.17744 0.17171 0.17553 0.0
N1103 N 0.17057 0.09424 0.27397 0.0
C1104 C 0.18263 0.1578 0.20019 0.0
C1105 C 0.17973 0.11783 0.25051 0.0
N1106 N 0.22628 0.12428 0.1832 0.0
N1107 N 0.16787 0.17626 0.27086 0.0
H1108 H 0.17747 0.06808 0.27776 0.0
H1109 H 0.15312 0.099 0.2896 0.0
H1110 H 0.16251 0.20416 0.27014 0.0
H1111 H 0.1749 0.1692 0.28992 0.0
H1112 H 0.23524 0.144 0.1659 0.0
H1113 H 0.24297 0.10548 0.18539 0.0
H1114 H 0.18262 0.15856 0.15796 0.0
H1115 H 0.16484 0.19404 0.17267 0.0
C1116 C 0.91406 0.02179 0.24341 0.0
C1117 C 0.86578 1.00036 0.24419 0.0
C1118 C 0.87355 0.0761 0.25204 0.0
C1119 C 0.92199 0.0965 0.25179 0.0
N1120 N 0.97974 0.07927 0.26659 0.0
N1121 N 0.80202 1.00635 0.26115 0.0
C1122 C 0.94025 0.06686 0.25322 0.0
C1123 C 0.84585 0.02721 0.25184 0.0
N1124 N 0.93544 1.00013 0.23302 0.0
N1125 N 0.85392 0.10283 0.25389 0.0
H1126 H 0.78267 0.971 0.26407 0.0
H1127 H 0.78708 0.02436 0.26896 0.0
H1128 H 0.87269 0.13776 0.25827 0.0
H1129 H 0.81905 0.09002 0.25087 0.0
H1130 H 0.97102 0.01648 0.23145 0.0
H1131 H 0.91768 0.96835 0.22358 0.0
H1132 H 0.99224 0.05676 0.26912 0.0
H1133 H 0.99545 0.10868 0.27837 0.0
C1134 C 0.94798 0.83774 0.21406 0.0
C1135 C 0.92862 0.84148 0.23836 0.0
C1136 C 1.00271 0.86754 0.26031 0.0
C1137 C 0.02347 0.87262 0.23506 0.0
N1138 N 1.01638 0.86527 0.1873 0.0
N1139 N 0.93924 0.86288 0.28503 0.0
C1140 C 0.9962 0.85817 0.21176 0.0
C1141 C 0.95619 0.85655 0.26175 0.0
N1142 N 0.92001 0.81322 0.19341 0.0
N1143 N 0.02722 0.87243 0.28295 0.0
H1144 H 0.90537 0.8542 0.28768 0.0
H1145 H 0.95976 0.87972 0.30141 0.0
H1146 H 0.06129 0.88036 0.28261 0.0
H1147 H 1.0126 0.86439 0.30186 0.0
H1148 H 0.93188 0.80581 0.17605 0.0
H1149 H 0.88441 0.79573 0.19494 0.0
H1150 H 0.99856 0.86009 0.16952 0.0
H1151 H 0.0516 0.87983 0.18474 0.0
C1152 C 0.11822 0.17106 0.75424 0.0
C1153 C 0.10865 0.18934 0.77741 0.0
C1154 C 0.16614 0.1801 0.80247 0.0
C1155 C 0.17489 0.16116 0.77961 0.0
N1156 N 0.17037 0.15207 0.73202 0.0
N1157 N 0.13604 0.22669 0.81982 0.0
C1158 C 0.15445 0.16099 0.75494 0.0
C1159 C 0.13662 0.19867 0.80037 0.0
N1160 N 0.09181 0.16108 0.73191 0.0
N1161 N 0.18461 0.17886 0.82645 0.0
H1162 H 0.11677 0.24296 0.81817 0.0
H1163 H 0.15853 0.23805 0.83591 0.0
H1164 H 0.20694 0.1662 0.82875 0.0
H1165 H 0.17514 0.18727 0.84437 0.0
H1166 H 0.09267 0.14094 0.71646 0.0
H1167 H 0.06769 0.17105 0.72889 0.0
H1168 H 0.16039 0.15624 0.71308 0.0
H1169 H 0.19706 0.14494 0.73181 0.0
C1170 C 0.8447 0.9914 0.76239 0.0
C1171 C 0.8796 0.02022 0.78055 0.0
C1172 C 0.88248 0.95351 0.79761 0.0
C1173 C 0.84376 0.92392 0.78179 0.0
N1174 N 0.78329 0.91455 0.75227 0.0
N1175 N 0.92628 0.02781 0.81868 0.0
C1176 C 0.82361 0.94283 0.76496 0.0
C1177 C 0.89691 1.001 0.7991 0.0
N1178 N 0.83264 1.01039 0.74216 0.0
N1179 N 0.90716 0.93691 0.81015 0.0
H1180 H 0.93773 0.06276 0.82051 0.0
H1181 H 0.93594 1.01456 0.83454 0.0
H1182 H 0.89951 0.90295 0.80869 0.0
H1183 H 0.93832 0.95791 0.81956 0.0
H1184 H 0.81089 0.99124 0.72669 0.0
H1185 H 0.84764 0.04574 0.73944 0.0
H1186 H 0.76454 0.92652 0.74202 0.0
H1187 H 0.76628 0.87892 0.75408 0.0
C1188 C 0.07954 0.89091 0.80167 0.0
C1189 C 0.10063 0.92458 0.78124 0.0
C1190 C 0.02593 0.91516 0.7711 0.0
C1191 C 1.00368 0.87509 0.78669 0.0
N1192 N 1.01214 0.84762 0.82922 0.0
N1193 N 0.08733 0.9562 0.74067 0.0
C1194 C 0.03131 0.86939 0.80581 0.0
C1195 C 0.07193 0.93237 0.76387 0.0
N1196 N 0.10502 0.87724 0.81595 0.0
N1197 N 1.00872 0.94387 0.76966 0.0
H1198 H 0.11875 0.96491 0.73222 0.0
H1199 H 0.06559 0.96152 0.72825 0.0
H1200 H 0.98154 0.93869 0.78183 0.0
H1201 H 0.02617 0.97572 0.76016 0.0
H1202 H 0.09074 0.85003 0.82942 0.0
H1203 H 0.13952 0.88941 0.8119 0.0
H1204 H 0.03116 0.8463 0.84518 0.0
H1205 H 0.97767 0.83528 0.83349 0.0
C1206 C 0.84874 0.48875 0.58722 0.0
C1207 C 0.82443 0.49174 0.56498 0.0
C1208 C 0.83248 0.4319 0.54209 0.0
C1209 C 0.86012 0.43149 0.56339 0.0
N1210 N 0.90093 0.46497 0.60419 0.0
N1211 N 0.79942 0.47214 0.51955 0.0
C1212 C 0.8699 0.46135 0.58547 0.0
C1213 C 0.81823 0.46511 0.54191 0.0
N1214 N 0.85079 0.51137 0.6102 0.0
N1215 N 0.81766 0.39903 0.5227 0.0
H1216 H 0.78756 0.49536 0.5188 0.0
H1217 H 0.79899 0.45782 0.50112 0.0
H1218 H 0.82625 0.37336 0.52213 0.0
H1219 H 0.79319 0.39436 0.50853 0.0
H1220 H 0.86348 0.50656 0.62807 0.0
H1221 H 0.83657 0.53248 0.61199 0.0
H1222 H 0.91319 0.48953 0.61922 0.0
H1223 H 0.91768 0.4461 0.60335 0.0
C1224 C 0.56712 0.40492 0.54515 0.0
C1225 C 0.59377 0.42518 0.5684 0.0
C1226 C 0.54683 0.35182 0.59184 0.0
C1227 C 0.52829 0.32994 0.56719 0.0
N1228 N 0.52274 0.33541 0.51961 0.0
N1229 N 0.60905 0.41541 0.61465 0.0
C1230 C 0.53871 0.35646 0.54363 0.0
C1231 C 0.5833 0.39825 0.59213 0.0
N1232 N 0.56761 0.43221 0.52486 0.0
N1233 N 0.52906 0.32843 0.61508 0.0
H1234 H 0.63445 0.44932 0.61716 0.0
H1235 H 0.60681 0.39481 0.63073 0.0
H1236 H 0.50221 0.29452 0.61558 0.0
H1237 H 0.53775 0.34398 0.63374 0.0
H1238 H 0.54593 0.41957 0.50843 0.0
H1239 H 0.58554 0.46796 0.52606 0.0
H1240 H 0.53353 0.35272 0.50151 0.0
H1241 H 0.50156 0.30002 0.51763 0.0
C1242 C 0.66986 0.19293 0.59009 0.0
C1243 C 0.69042 0.19263 0.56558 0.0
C1244 C 0.61461 0.15292 0.54483 0.0
C1245 C 0.59544 0.16243 0.56745 0.0
N1246 N 0.60678 0.1927 0.61258 0.0
N1247 N 0.68272 0.17429 0.51881 0.0
C1248 C 0.62332 0.18214 0.59054 0.0
C1249 C 0.66285 0.1728 0.54276 0.0
N1250 N 0.69454 0.20243 0.61314 0.0
N1251 N 0.58644 0.12337 0.52574 0.0
H1252 H 0.7179 0.18823 0.51646 0.0
H1253 H 0.66464 0.16499 0.50094 0.0
H1254 H 0.55087 0.10583 0.5275 0.0
H1255 H 0.59821 0.11202 0.50997 0.0
H1256 H 0.68011 0.19829 0.63198 0.0
H1257 H 0.72847 0.20993 0.61359 0.0
H1258 H 0.62785 0.21382 0.62774 0.0
H1259 H 0.57263 0.18236 0.61568 0.0
C1260 C 0.78676 0.46303 0.09952 0.0
C1261 C 0.83509 0.48933 0.09883 0.0
C1262 C 0.82854 0.55731 0.08815 0.0
C1263 C 0.77996 0.52944 0.08855 0.0
N1264 N 0.72265 0.45375 0.07431 0.0
N1265 N 0.89979 0.55783 0.08083 0.0
C1266 C 0.76147 0.48145 0.08813 0.0
C1267 C 0.85575 0.53574 0.08986 0.0
N1268 N 0.76443 0.42112 0.11147 0.0
N1269 N 0.84875 0.60357 0.0846 0.0
H1270 H 0.9188 0.54138 0.07886 0.0
H1271 H 0.91532 0.59035 0.07221 0.0
H1272 H 0.83063 0.61945 0.07841 0.0
H1273 H 0.88361 0.6258 0.08768 0.0
H1274 H 0.72877 0.40223 0.11265 0.0
H1275 H 0.78164 0.40835 0.12258 0.0
H1276 H 0.71014 0.41854 0.07251 0.0
H1277 H 0.70742 0.46715 0.06189 0.0
C1278 C 0.50112 0.2723 0.13918 0.0
C1279 C 0.50452 0.25451 0.11414 0.0
C1280 C 0.52732 0.32956 0.09406 0.0
C1281 C 0.53362 0.34898 0.11981 0.0
N1282 N 0.52958 0.33935 0.16743 0.0
N1283 N 0.52455 0.26912 0.06717 0.0
C1284 C 0.52108 0.32047 0.14256 0.0
C1285 C 0.51794 0.28363 0.09127 0.0
N1286 N 0.47742 0.24299 0.15953 0.0
N1287 N 0.5297 0.35485 0.07218 0.0
H1288 H 0.51689 0.23587 0.06308 0.0
H1289 H 0.54077 0.2914 0.05129 0.0
H1290 H 0.53597 0.38842 0.07344 0.0
H1291 H 0.52067 0.34097 0.05312 0.0
H1292 H 0.47069 0.25387 0.1775 0.0
H1293 H 0.45975 0.20742 0.15719 0.0
H1294 H 0.52571 0.32053 0.18468 0.0
H1295 H 0.54375 0.37449 0.17064 0.0
C1296 C 0.69061 0.24281 0.12852 0.0
C1297 C 0.67195 0.20395 0.11163 0.0
C1298 C 0.74933 0.22444 0.09699 0.0
C1299 C 0.76774 0.26533 0.11225 0.0
N1300 N 0.75456 0.31823 0.138 0.0
N1301 N 0.68227 0.16217 0.07595 0.0
C1302 C 0.738 0.27584 0.12679 0.0
C1303 C 0.70096 0.19601 0.09474 0.0
N1304 N 0.66332 0.24756 0.14681 0.0
N1305 N 0.77794 0.21163 0.0856 0.0
H1306 H 0.64706 0.14089 0.07355 0.0
H1307 H 0.70144 0.15787 0.0612 0.0
H1308 H 0.81347 0.23112 0.08711 0.0
H1309 H 0.76646 0.17978 0.07672 0.0
H1310 H 0.67599 0.2723 0.16175 0.0
H1311 H 0.62837 0.22432 0.14858 0.0
H1312 H 0.73367 0.32945 0.14631 0.0
H1313 H 0.78867 0.34411 0.1366 0.0
C1314 C 0.51821 0.82318 0.87626 0.0
C1315 C 0.50052 0.83327 0.89918 0.0
C1316 C 0.5104 0.77699 0.92504 0.0
C1317 C 0.52768 0.76629 0.90185 0.0
N1318 N 0.56425 0.79246 0.85911 0.0
N1319 N 0.49434 0.83155 0.94693 0.0
C1320 C 0.53669 0.79365 0.87861 0.0
C1321 C 0.5014 0.81398 0.92409 0.0
N1322 N 0.51583 0.84032 0.85201 0.0
N1323 N 0.50015 0.75094 0.94758 0.0
H1324 H 0.4881 0.85891 0.94692 0.0
H1325 H 0.49928 0.82223 0.9659 0.0
H1326 H 0.50847 0.72556 0.95064 0.0
H1327 H 0.481 0.75316 0.96315 0.0
H1328 H 0.52347 0.82981 0.8342 0.0
H1329 H 0.50291 0.86241 0.84944 0.0
H1330 H 0.57523 0.81453 0.84278 0.0
H1331 H 0.5806 0.77327 0.86096 0.0
C1332 C 0.23214 0.74589 0.91175 0.0
C1333 C 0.26671 0.76519 0.89193 0.0
C1334 C 0.23762 0.68869 0.87213 0.0
C1335 C 0.20614 0.66916 0.8934 0.0
N1336 N 0.17655 0.67757 0.93535 0.0
N1337 N 0.30676 0.75403 0.85533 0.0
C1338 C 0.20426 0.69733 0.91376 0.0
C1339 C 0.27048 0.7364 0.87254 0.0
N1340 N 0.2246 0.77406 0.92791 0.0
N1341 N 0.23559 0.66169 0.85126 0.0
H1342 H 0.33202 0.78852 0.85484 0.0
H1343 H 0.31432 0.73384 0.84306 0.0
H1344 H 0.21291 0.62638 0.85067 0.0
H1345 H 0.25376 0.67465 0.83362 0.0
H1346 H 0.19688 0.7623 0.94084 0.0
H1347 H 0.24365 0.80976 0.92667 0.0
H1348 H 0.17751 0.69577 0.9523 0.0
H1349 H 0.15486 0.64223 0.93724 0.0
C1350 C 0.32835 0.50621 0.9159 0.0
C1351 C 0.35714 0.53884 0.89668 0.0
C1352 C 0.29118 0.54077 0.87784 0.0
C1353 C 0.26162 0.50489 0.89547 0.0
N1354 N 0.25136 0.44749 0.92783 0.0
N1355 N 0.36545 0.58146 0.85649 0.0
C1356 C 0.28003 0.48598 0.91361 0.0
C1357 C 0.33837 0.55441 0.87679 0.0
N1358 N 0.3472 0.49552 0.93683 0.0
N1359 N 0.2749 0.56368 0.86307 0.0
H1360 H 0.40031 0.59266 0.85518 0.0
H1361 H 0.35264 0.58952 0.83975 0.0
H1362 H 0.24103 0.55619 0.8636 0.0
H1363 H 0.29596 0.59343 0.85235 0.0
H1364 H 0.32825 0.47583 0.95302 0.0
H1365 H 0.38241 0.5096 0.9392 0.0
H1366 H 0.26275 0.42935 0.93924 0.0
H1367 H 0.21583 0.43099 0.92621 0.0
C1368 C 0.47667 0.81512 0.4207 0.0
C1369 C 0.49103 0.8088 0.44611 0.0
C1370 C 0.44869 0.84191 0.4669 0.0
C1371 C 0.42701 0.83953 0.44221 0.0
N1372 N 0.41902 0.82058 0.39518 0.0
N1373 N 0.48806 0.81295 0.49392 0.0
C1374 C 0.44099 0.82584 0.41886 0.0
C1375 C 0.47648 0.82151 0.46937 0.0
N1376 N 0.4977 0.81169 0.39831 0.0
N1377 N 0.44405 0.86526 0.48777 0.0
H1378 H 0.50874 0.79844 0.49659 0.0
H1379 H 0.47415 0.81685 0.51155 0.0
H1380 H 0.42613 0.88293 0.48618 0.0
H1381 H 0.46232 0.87165 0.50548 0.0
H1382 H 0.49213 0.82073 0.37941 0.0
H1383 H 0.52401 0.80402 0.3989 0.0
H1384 H 0.42373 0.80461 0.37872 0.0
H1385 H 0.39388 0.82923 0.39218 0.0
C1386 C 0.21896 0.61727 0.42774 0.0
C1387 C 0.17131 0.58617 0.42634 0.0
C1388 C 0.16111 0.65349 0.42354 0.0
C1389 C 0.20651 0.68195 0.43318 0.0
N1390 N 0.27544 0.68535 0.44991 0.0
N1391 N 0.09611 0.57636 0.41962 0.0
C1392 C 0.23451 0.66221 0.437 0.0
C1393 C 0.14188 0.60477 0.42351 0.0
N1394 N 0.24958 0.60608 0.41795 0.0
N1395 N 0.13762 0.67274 0.41267 0.0
H1396 H 0.08187 0.54145 0.41566 0.0
H1397 H 0.07251 0.58762 0.42076 0.0
H1398 H 0.15223 0.70804 0.41002 0.0
H1399 H 0.10589 0.65364 0.40346 0.0
H1400 H 0.28465 0.62962 0.41749 0.0
H1401 H 0.23946 0.57672 0.40655 0.0
H1402 H 0.29528 0.67027 0.45395 0.0
H1403 H 0.28677 0.71709 0.45898 0.0
C1404 C 0.42017 0.54662 0.46747 0.0
C1405 C 0.43639 0.57696 0.44528 0.0
C1406 C 0.36059 0.53186 0.42445 0.0
C1407 C 0.34274 0.50902 0.44897 0.0
N1408 N 0.35494 0.49408 0.49422 0.0
N1409 N 0.42086 0.59687 0.40142 0.0
C1410 C 0.37244 0.51581 0.47053 0.0
C1411 C 0.4066 0.56873 0.42318 0.0
N1412 N 0.45075 0.54627 0.48515 0.0
N1413 N 0.33378 0.51747 0.40214 0.0
H1414 H 0.45469 0.62095 0.39744 0.0
H1415 H 0.39838 0.59716 0.38733 0.0
H1416 H 0.3001 0.49027 0.4023 0.0
H1417 H 0.34617 0.52927 0.38306 0.0
H1418 H 0.44145 0.52234 0.50046 0.0
H1419 H 0.48607 0.56655 0.48258 0.0
H1420 H 0.37424 0.50181 0.51161 0.0
H1421 H 0.32031 0.47034 0.49695 0.0
loop_
_geom_bond_atom_site_label_1
_geom_bond_atom_site_label_2
_geom_bond_distance
_geom_bond_site_symmetry_2
_ccdc_geom_bond_type
Co0 O3 1.970 . S
Co0 N17 1.989 . S
Co0 O25 1.967 . S
Co0 O32 1.920 1_455 S
Co1 O4 1.966 . S
Co1 N10 2.022 . S
Co1 N18 1.993 . S
Co1 O26 1.941 . S
C2 O3 1.258 . S
C2 O4 1.263 . S
O3 Co0 1.970 . S
O3 C2 1.258 . S
O4 Co1 1.966 . S
O4 C2 1.263 . S
C5 O6 1.235 . S
C5 O32 1.289 . S
O6 C5 1.235 . S
C7 C9 1.400 . S
C7 N10 1.351 . S
C7 C12 1.501 . S
C8 C9 1.387 . S
C8 N11 1.341 . S
C9 C7 1.400 . S
C9 C8 1.387 . S
N10 Co1 2.022 . S
N10 C7 1.351 . S
N10 N11 1.365 . S
N11 C8 1.341 . S
N11 N10 1.365 . S
N11 H31 0.862 . S
C12 C7 1.501 . S
C12 H13 0.961 . S
C12 H14 0.961 . S
C12 H15 0.960 . S
H13 C12 0.961 . S
H14 C12 0.961 . S
H15 C12 0.960 . S
C16 N17 1.342 . S
C16 C20 1.401 . S
C16 C21 1.499 . S
N17 Co0 1.989 . S
N17 C16 1.342 . S
N17 N18 1.388 . S
N18 Co1 1.993 . S
N18 N17 1.388 . S
N18 C19 1.346 . S
C19 N18 1.346 . S
C19 C20 1.396 . S
C19 C29 1.510 . S
C20 C16 1.401 . S
C20 C19 1.396 . S
C21 C16 1.499 . S
C21 H22 0.959 . S
C21 H23 0.960 . S
C21 H24 0.961 . S
H22 C21 0.959 . S
H23 C21 0.960 . S
H24 C21 0.961 . S
O25 Co0 1.967 . S
O25 C33 1.258 . S
O26 Co1 1.941 . S
O26 C33 1.266 . S
H27 C29 0.959 . S
H28 C29 0.961 . S
C29 C19 1.510 . S
C29 H27 0.959 . S
C29 H28 0.961 . S
C29 H30 0.960 . S
H30 C29 0.960 . S
H31 N11 0.862 . S
O32 Co0 1.920 1_655 S
O32 C5 1.289 . S
C33 O25 1.258 . S
C33 O26 1.266 . S
Co34 O37 1.970 . S
Co34 N51 1.989 . S
Co34 O59 1.967 . S
Co34 O66 1.920 . S
Co35 O38 1.966 . S
Co35 N44 2.022 . S
Co35 N52 1.993 . S
Co35 O60 1.941 . S
C36 O37 1.258 . S
C36 O38 1.263 . S
O37 Co34 1.970 . S
O37 C36 1.258 . S
O38 Co35 1.966 . S
O38 C36 1.263 . S
C39 O40 1.235 . S
C39 O66 1.289 . S
O40 C39 1.235 . S
C41 C43 1.400 . S
C41 N44 1.351 . S
C41 C46 1.501 . S
C42 C43 1.387 . S
C42 N45 1.341 . S
C43 C41 1.400 . S
C43 C42 1.387 . S
N44 Co35 2.022 . S
N44 C41 1.351 . S
N44 N45 1.365 . S
N45 C42 1.341 . S
N45 N44 1.365 . S
N45 H65 0.862 . S
C46 C41 1.501 . S
C46 H47 0.961 . S
C46 H48 0.961 . S
C46 H49 0.960 . S
H47 C46 0.961 . S
H48 C46 0.961 . S
H49 C46 0.960 . S
C50 N51 1.342 . S
C50 C54 1.401 . S
C50 C55 1.499 . S
N51 Co34 1.989 . S
N51 C50 1.342 . S
N51 N52 1.388 . S
N52 Co35 1.993 . S
N52 N51 1.388 . S
N52 C53 1.346 . S
C53 N52 1.346 . S
C53 C54 1.396 . S
C53 C63 1.510 . S
C54 C50 1.401 . S
C54 C53 1.396 . S
C55 C50 1.499 . S
C55 H56 0.959 . S
C55 H57 0.960 . S
C55 H58 0.961 . S
H56 C55 0.959 . S
H57 C55 0.960 . S
H58 C55 0.961 . S
O59 Co34 1.967 . S
O59 C67 1.258 . S
O60 Co35 1.941 . S
O60 C67 1.266 . S
H61 C63 0.959 . S
H62 C63 0.961 . S
C63 C53 1.510 . S
C63 H61 0.959 . S
C63 H62 0.961 . S
C63 H64 0.960 . S
H64 C63 0.960 . S
H65 N45 0.862 . S
O66 Co34 1.920 . S
O66 C39 1.289 . S
C67 O59 1.258 . S
C67 O60 1.266 . S
Co68 O71 1.970 . S
Co68 N85 1.989 . S
Co68 O93 1.967 . S
Co68 O100 1.920 1_565 S
Co69 O72 1.966 . S
Co69 N78 2.022 . S
Co69 N86 1.993 . S
Co69 O94 1.941 . S
C70 O71 1.258 . S
C70 O72 1.263 . S
O71 Co68 1.970 . S
O71 C70 1.258 . S
O72 Co69 1.966 . S
O72 C70 1.263 . S
C73 O74 1.235 . S
C73 O100 1.289 . S
O74 C73 1.235 . S
C75 C77 1.400 . S
C75 N78 1.351 . S
C75 C80 1.501 . S
C76 C77 1.387 . S
C76 N79 1.341 . S
C77 C75 1.400 . S
C77 C76 1.387 . S
N78 Co69 2.022 . S
N78 C75 1.351 . S
N78 N79 1.365 . S
N79 C76 1.341 . S
N79 N78 1.365 . S
N79 H99 0.862 . S
C80 C75 1.501 . S
C80 H81 0.961 . S
C80 H82 0.961 . S
C80 H83 0.960 . S
H81 C80 0.961 . S
H82 C80 0.961 . S
H83 C80 0.960 . S
C84 N85 1.342 . S
C84 C88 1.401 . S
C84 C89 1.499 . S
N85 Co68 1.989 . S
N85 C84 1.342 . S
N85 N86 1.388 . S
N86 Co69 1.993 . S
N86 N85 1.388 . S
N86 C87 1.346 . S
C87 N86 1.346 . S
C87 C88 1.396 . S
C87 C97 1.510 . S
C88 C84 1.401 . S
C88 C87 1.396 . S
C89 C84 1.499 . S
C89 H90 0.959 . S
C89 H91 0.960 . S
C89 H92 0.961 . S
H90 C89 0.959 . S
H91 C89 0.960 . S
H92 C89 0.961 . S
O93 Co68 1.967 . S
O93 C101 1.258 . S
O94 Co69 1.941 . S
O94 C101 1.266 . S
H95 C97 0.959 . S
H96 C97 0.961 . S
C97 C87 1.510 . S
C97 H95 0.959 . S
C97 H96 0.961 . S
C97 H98 0.960 . S
H98 C97 0.960 . S
H99 N79 0.862 . S
O100 Co68 1.920 1_545 S
O100 C73 1.289 . S
C101 O93 1.258 . S
C101 O94 1.266 . S
Co102 O105 1.970 . S
Co102 N119 1.989 . S
Co102 O127 1.967 . S
Co102 O134 1.920 1_545 S
Co103 O106 1.966 . S
Co103 N112 2.022 . S
Co103 N120 1.993 . S
Co103 O128 1.941 . S
C104 O105 1.258 . S
C104 O106 1.263 . S
O105 Co102 1.970 . S
O105 C104 1.258 . S
O106 Co103 1.966 . S
O106 C104 1.263 . S
C107 O108 1.235 . S
C107 O134 1.289 . S
O108 C107 1.235 . S
C109 C111 1.400 . S
C109 N112 1.351 . S
C109 C114 1.501 . S
C110 C111 1.387 . S
C110 N113 1.341 . S
C111 C109 1.400 . S
C111 C110 1.387 . S
N112 Co103 2.022 . S
N112 C109 1.351 . S
N112 N113 1.365 . S
N113 C110 1.341 . S
N113 N112 1.365 . S
N113 H133 0.862 . S
C114 C109 1.501 . S
C114 H115 0.961 . S
C114 H116 0.961 . S
C114 H117 0.960 . S
H115 C114 0.961 . S
H116 C114 0.961 . S
H117 C114 0.960 . S
C118 N119 1.342 . S
C118 C122 1.401 . S
C118 C123 1.499 . S
N119 Co102 1.989 . S
N119 C118 1.342 . S
N119 N120 1.388 . S
N120 Co103 1.993 . S
N120 N119 1.388 . S
N120 C121 1.346 . S
C121 N120 1.346 . S
C121 C122 1.396 . S
C121 C131 1.510 . S
C122 C118 1.401 . S
C122 C121 1.396 . S
C123 C118 1.499 . S
C123 H124 0.959 . S
C123 H125 0.960 . S
C123 H126 0.961 . S
H124 C123 0.959 . S
H125 C123 0.960 . S
H126 C123 0.961 . S
O127 Co102 1.967 . S
O127 C135 1.258 . S
O128 Co103 1.941 . S
O128 C135 1.266 . S
H129 C131 0.959 . S
H130 C131 0.961 . S
C131 C121 1.510 . S
C131 H129 0.959 . S
C131 H130 0.961 . S
C131 H132 0.960 . S
H132 C131 0.960 . S
H133 N113 0.862 . S
O134 Co102 1.920 1_565 S
O134 C107 1.289 . S
C135 O127 1.258 . S
C135 O128 1.266 . S
Co136 O139 1.970 . S
Co136 N153 1.989 . S
Co136 O161 1.967 . S
Co136 O168 1.920 1_655 S
Co137 O140 1.966 . S
Co137 N146 2.022 . S
Co137 N154 1.993 . S
Co137 O162 1.941 . S
C138 O139 1.258 . S
C138 O140 1.263 . S
O139 Co136 1.970 . S
O139 C138 1.258 . S
O140 Co137 1.966 . S
O140 C138 1.263 . S
C141 O142 1.235 . S
C141 O168 1.289 . S
O142 C141 1.235 . S
C143 C145 1.400 . S
C143 N146 1.351 . S
C143 C148 1.501 . S
C144 C145 1.387 . S
C144 N147 1.341 . S
C145 C143 1.400 . S
C145 C144 1.387 . S
N146 Co137 2.022 . S
N146 C143 1.351 . S
N146 N147 1.365 . S
N147 C144 1.341 . S
N147 N146 1.365 . S
N147 H167 0.862 . S
C148 C143 1.501 . S
C148 H149 0.961 . S
C148 H150 0.961 . S
C148 H151 0.960 . S
H149 C148 0.961 . S
H150 C148 0.961 . S
H151 C148 0.960 . S
C152 N153 1.342 . S
C152 C156 1.401 . S
C152 C157 1.499 . S
N153 Co136 1.989 . S
N153 C152 1.342 . S
N153 N154 1.388 . S
N154 Co137 1.993 . S
N154 N153 1.388 . S
N154 C155 1.346 . S
C155 N154 1.346 . S
C155 C156 1.396 . S
C155 C165 1.510 . S
C156 C152 1.401 . S
C156 C155 1.396 . S
C157 C152 1.499 . S
C157 H158 0.959 . S
C157 H159 0.960 . S
C157 H160 0.961 . S
H158 C157 0.959 . S
H159 C157 0.960 . S
H160 C157 0.961 . S
O161 Co136 1.967 . S
O161 C169 1.258 . S
O162 Co137 1.941 . S
O162 C169 1.266 . S
H163 C165 0.959 . S
H164 C165 0.961 . S
C165 C155 1.510 . S
C165 H163 0.959 . S
C165 H164 0.961 . S
C165 H166 0.960 . S
H166 C165 0.960 . S
H167 N147 0.862 . S
O168 Co136 1.920 1_455 S
O168 C141 1.289 . S
C169 O161 1.258 . S
C169 O162 1.266 . S
Co170 O173 1.970 . S
Co170 N187 1.989 . S
Co170 O195 1.967 . S
Co170 O202 1.920 . S
Co171 O174 1.966 . S
Co171 N180 2.022 . S
Co171 N188 1.993 . S
Co171 O196 1.941 . S
C172 O173 1.258 . S
C172 O174 1.263 . S
O173 Co170 1.970 . S
O173 C172 1.258 . S
O174 Co171 1.966 . S
O174 C172 1.263 . S
C175 O176 1.235 . S
C175 O202 1.289 . S
O176 C175 1.235 . S
C177 C179 1.400 . S
C177 N180 1.351 . S
C177 C182 1.501 . S
C178 C179 1.387 . S
C178 N181 1.341 . S
C179 C177 1.400 . S
C179 C178 1.387 . S
N180 Co171 2.022 . S
N180 C177 1.351 . S
N180 N181 1.365 . S
N181 C178 1.341 . S
N181 N180 1.365 . S
N181 H201 0.862 . S
C182 C177 1.501 . S
C182 H183 0.961 . S
C182 H184 0.961 . S
C182 H185 0.960 . S
H183 C182 0.961 . S
H184 C182 0.961 . S
H185 C182 0.960 . S
C186 N187 1.342 . S
C186 C190 1.401 . S
C186 C191 1.499 . S
N187 Co170 1.989 . S
N187 C186 1.342 . S
N187 N188 1.388 . S
N188 Co171 1.993 . S
N188 N187 1.388 . S
N188 C189 1.346 . S
C189 N188 1.346 . S
C189 C190 1.396 . S
C189 C199 1.510 . S
C190 C186 1.401 . S
C190 C189 1.396 . S
C191 C186 1.499 . S
C191 H192 0.959 . S
C191 H193 0.960 . S
C191 H194 0.961 . S
H192 C191 0.959 . S
H193 C191 0.960 . S
H194 C191 0.961 . S
O195 Co170 1.967 . S
O195 C203 1.258 . S
O196 Co171 1.941 . S
O196 C203 1.266 . S
H197 C199 0.959 . S
H198 C199 0.961 . S
C199 C189 1.510 . S
C199 H197 0.959 . S
C199 H198 0.961 . S
C199 H200 0.960 . S
H200 C199 0.960 . S
H201 N181 0.862 . S
O202 Co170 1.920 . S
O202 C175 1.289 . S
C203 O195 1.258 . S
C203 O196 1.266 . S
Co204 O207 1.970 . S
Co204 N221 1.989 . S
Co204 O229 1.967 . S
Co204 O236 1.920 . S
Co205 O208 1.966 . S
Co205 N214 2.022 . S
Co205 N222 1.993 . S
Co205 O230 1.941 . S
C206 O207 1.258 . S
C206 O208 1.263 . S
O207 Co204 1.970 . S
O207 C206 1.258 . S
O208 Co205 1.966 . S
O208 C206 1.263 . S
C209 O210 1.235 . S
C209 O236 1.289 . S
O210 C209 1.235 . S
C211 C213 1.400 . S
C211 N214 1.351 . S
C211 C216 1.501 . S
C212 C213 1.387 . S
C212 N215 1.341 . S
C213 C211 1.400 . S
C213 C212 1.387 . S
N214 Co205 2.022 . S
N214 C211 1.351 . S
N214 N215 1.365 . S
N215 C212 1.341 . S
N215 N214 1.365 . S
N215 H235 0.862 . S
C216 C211 1.501 . S
C216 H217 0.961 . S
C216 H218 0.961 . S
C216 H219 0.960 . S
H217 C216 0.961 . S
H218 C216 0.961 . S
H219 C216 0.960 . S
C220 N221 1.342 . S
C220 C224 1.401 . S
C220 C225 1.499 . S
N221 Co204 1.989 . S
N221 C220 1.342 . S
N221 N222 1.388 . S
N222 Co205 1.993 . S
N222 N221 1.388 . S
N222 C223 1.346 . S
C223 N222 1.346 . S
C223 C224 1.396 . S
C223 C233 1.510 . S
C224 C220 1.401 . S
C224 C223 1.396 . S
C225 C220 1.499 . S
C225 H226 0.959 . S
C225 H227 0.960 . S
C225 H228 0.961 . S
H226 C225 0.959 . S
H227 C225 0.960 . S
H228 C225 0.961 . S
O229 Co204 1.967 . S
O229 C237 1.258 . S
O230 Co205 1.941 . S
O230 C237 1.266 . S
H231 C233 0.959 . S
H232 C233 0.961 . S
C233 C223 1.510 . S
C233 H231 0.959 . S
C233 H232 0.961 . S
C233 H234 0.960 . S
H234 C233 0.960 . S
H235 N215 0.862 . S
O236 Co204 1.920 . S
O236 C209 1.289 . S
C237 O229 1.258 . S
C237 O230 1.266 . S
Co238 O241 1.970 . S
Co238 N255 1.989 . S
Co238 O263 1.967 . S
Co238 O270 1.920 . S
Co239 O242 1.966 . S
Co239 N248 2.022 . S
Co239 N256 1.993 . S
Co239 O264 1.941 . S
C240 O241 1.258 . S
C240 O242 1.263 . S
O241 Co238 1.970 . S
O241 C240 1.258 . S
O242 Co239 1.966 . S
O242 C240 1.263 . S
C243 O244 1.235 . S
C243 O270 1.289 . S
O244 C243 1.235 . S
C245 C247 1.400 . S
C245 N248 1.351 . S
C245 C250 1.501 . S
C246 C247 1.387 . S
C246 N249 1.341 . S
C247 C245 1.400 . S
C247 C246 1.387 . S
N248 Co239 2.022 . S
N248 C245 1.351 . S
N248 N249 1.365 . S
N249 C246 1.341 . S
N249 N248 1.365 . S
N249 H269 0.862 . S
C250 C245 1.501 . S
C250 H251 0.961 . S
C250 H252 0.961 . S
C250 H253 0.960 . S
H251 C250 0.961 . S
H252 C250 0.961 . S
H253 C250 0.960 . S
C254 N255 1.342 . S
C254 C258 1.401 . S
C254 C259 1.499 . S
N255 Co238 1.989 . S
N255 C254 1.342 . S
N255 N256 1.388 . S
N256 Co239 1.993 . S
N256 N255 1.388 . S
N256 C257 1.346 . S
C257 N256 1.346 . S
C257 C258 1.396 . S
C257 C267 1.510 . S
C258 C254 1.401 . S
C258 C257 1.396 . S
C259 C254 1.499 . S
C259 H260 0.959 . S
C259 H261 0.960 . S
C259 H262 0.961 . S
H260 C259 0.959 . S
H261 C259 0.960 . S
H262 C259 0.961 . S
O263 Co238 1.967 . S
O263 C271 1.258 . S
O264 Co239 1.941 . S
O264 C271 1.266 . S
H265 C267 0.959 . S
H266 C267 0.961 . S
C267 C257 1.510 . S
C267 H265 0.959 . S
C267 H266 0.961 . S
C267 H268 0.960 . S
H268 C267 0.960 . S
H269 N249 0.862 . S
O270 Co238 1.920 . S
O270 C243 1.289 . S
C271 O263 1.258 . S
C271 O264 1.266 . S
Co272 O275 1.970 . S
Co272 N289 1.989 . S
Co272 O297 1.967 . S
Co272 O304 1.920 . S
Co273 O276 1.966 . S
Co273 N282 2.022 . S
Co273 N290 1.993 . S
Co273 O298 1.941 . S
C274 O275 1.258 . S
C274 O276 1.263 . S
O275 Co272 1.970 . S
O275 C274 1.258 . S
O276 Co273 1.966 . S
O276 C274 1.263 . S
C277 O278 1.235 . S
C277 O304 1.289 . S
O278 C277 1.235 . S
C279 C281 1.400 . S
C279 N282 1.351 . S
C279 C284 1.501 . S
C280 C281 1.387 . S
C280 N283 1.341 . S
C281 C279 1.400 . S
C281 C280 1.387 . S
N282 Co273 2.022 . S
N282 C279 1.351 . S
N282 N283 1.365 . S
N283 C280 1.341 . S
N283 N282 1.365 . S
N283 H303 0.862 . S
C284 C279 1.501 . S
C284 H285 0.961 . S
C284 H286 0.961 . S
C284 H287 0.960 . S
H285 C284 0.961 . S
H286 C284 0.961 . S
H287 C284 0.960 . S
C288 N289 1.342 . S
C288 C292 1.401 . S
C288 C293 1.499 . S
N289 Co272 1.989 . S
N289 C288 1.342 . S
N289 N290 1.388 . S
N290 Co273 1.993 . S
N290 N289 1.388 . S
N290 C291 1.346 . S
C291 N290 1.346 . S
C291 C292 1.396 . S
C291 C301 1.510 . S
C292 C288 1.401 . S
C292 C291 1.396 . S
C293 C288 1.499 . S
C293 H294 0.959 . S
C293 H295 0.960 . S
C293 H296 0.961 . S
H294 C293 0.959 . S
H295 C293 0.960 . S
H296 C293 0.961 . S
O297 Co272 1.967 . S
O297 C305 1.258 . S
O298 Co273 1.941 . S
O298 C305 1.266 . S
H299 C301 0.959 . S
H300 C301 0.961 . S
C301 C291 1.510 . S
C301 H299 0.959 . S
C301 H300 0.961 . S
C301 H302 0.960 . S
H302 C301 0.960 . S
H303 N283 0.862 . S
O304 Co272 1.920 . S
O304 C277 1.289 . S
C305 O297 1.258 . S
C305 O298 1.266 . S
Co306 O309 1.970 . S
Co306 N323 1.989 . S
Co306 O331 1.967 . S
Co306 O338 1.920 . S
Co307 O310 1.966 . S
Co307 N316 2.022 1_655 S
Co307 N324 1.993 . S
Co307 O332 1.941 . S
C308 O309 1.258 . S
C308 O310 1.263 . S
O309 Co306 1.970 . S
O309 C308 1.258 . S
O310 Co307 1.966 . S
O310 C308 1.263 . S
C311 O312 1.235 . S
C311 O338 1.289 . S
O312 C311 1.235 . S
C313 C315 1.400 . S
C313 N316 1.351 . S
C313 C318 1.501 . S
C314 C315 1.387 . S
C314 N317 1.341 . S
C315 C313 1.400 . S
C315 C314 1.387 . S
N316 Co307 2.022 1_455 S
N316 C313 1.351 . S
N316 N317 1.365 . S
N317 C314 1.341 . S
N317 N316 1.365 . S
N317 H337 0.856 1_455 S
C318 C313 1.501 . S
C318 H319 0.961 . S
C318 H320 0.961 . S
C318 H321 0.960 . S
H319 C318 0.961 . S
H320 C318 0.961 . S
H321 C318 0.960 . S
C322 N323 1.342 . S
C322 C326 1.401 . S
C322 C327 1.499 . S
N323 Co306 1.989 . S
N323 C322 1.342 . S
N323 N324 1.388 . S
N324 Co307 1.993 . S
N324 N323 1.388 . S
N324 C325 1.346 . S
C325 N324 1.346 . S
C325 C326 1.396 . S
C325 C335 1.510 . S
C326 C322 1.401 . S
C326 C325 1.396 . S
C327 C322 1.499 . S
C327 H328 0.959 . S
C327 H329 0.960 . S
C327 H330 0.961 . S
H328 C327 0.959 . S
H329 C327 0.960 . S
H330 C327 0.961 . S
O331 Co306 1.967 . S
O331 C339 1.258 . S
O332 Co307 1.941 . S
O332 C339 1.266 . S
H333 C335 0.959 . S
H334 C335 0.961 . S
C335 C325 1.510 . S
C335 H333 0.959 . S
C335 H334 0.961 . S
C335 H336 0.960 . S
H336 C335 0.960 . S
H337 N317 0.856 1_655 S
O338 Co306 1.920 . S
O338 C311 1.289 . S
C339 O331 1.258 . S
C339 O332 1.266 . S
Co340 O343 1.970 . S
Co340 N357 1.989 . S
Co340 O365 1.967 . S
Co340 O372 1.920 . S
Co341 O344 1.966 . S
Co341 N350 2.022 . S
Co341 N358 1.993 . S
Co341 O366 1.941 . S
C342 O343 1.258 . S
C342 O344 1.263 . S
O343 Co340 1.970 . S
O343 C342 1.258 . S
O344 Co341 1.966 . S
O344 C342 1.263 . S
C345 O346 1.235 . S
C345 O372 1.289 . S
O346 C345 1.235 . S
C347 C349 1.400 . S
C347 N350 1.351 . S
C347 C352 1.501 . S
C348 C349 1.387 . S
C348 N351 1.341 . S
C349 C347 1.400 . S
C349 C348 1.387 . S
N350 Co341 2.022 . S
N350 C347 1.351 . S
N350 N351 1.365 . S
N351 C348 1.341 . S
N351 N350 1.365 . S
N351 H371 0.862 . S
C352 C347 1.501 . S
C352 H353 0.961 . S
C352 H354 0.961 . S
C352 H355 0.960 . S
H353 C352 0.961 . S
H354 C352 0.961 . S
H355 C352 0.960 . S
C356 N357 1.342 . S
C356 C360 1.401 . S
C356 C361 1.499 . S
N357 Co340 1.989 . S
N357 C356 1.342 . S
N357 N358 1.388 . S
N358 Co341 1.993 . S
N358 N357 1.388 . S
N358 C359 1.346 . S
C359 N358 1.346 . S
C359 C360 1.396 . S
C359 C369 1.510 . S
C360 C356 1.401 . S
C360 C359 1.396 . S
C361 C356 1.499 . S
C361 H362 0.959 . S
C361 H363 0.960 . S
C361 H364 0.961 . S
H362 C361 0.959 . S
H363 C361 0.960 . S
H364 C361 0.961 . S
O365 Co340 1.967 . S
O365 C373 1.258 . S
O366 Co341 1.941 . S
O366 C373 1.266 . S
H367 C369 0.959 . S
H368 C369 0.961 . S
C369 C359 1.510 . S
C369 H367 0.959 . S
C369 H368 0.961 . S
C369 H370 0.960 . S
H370 C369 0.960 . S
H371 N351 0.862 . S
O372 Co340 1.920 . S
O372 C345 1.289 . S
C373 O365 1.258 . S
C373 O366 1.266 . S
Co374 O377 1.970 . S
Co374 N391 1.989 . S
Co374 O399 1.967 . S
Co374 O406 1.920 . S
Co375 O378 1.966 . S
Co375 N384 2.022 1_545 S
Co375 N392 1.993 . S
Co375 O400 1.941 . S
C376 O377 1.258 . S
C376 O378 1.263 . S
O377 Co374 1.970 . S
O377 C376 1.258 . S
O378 Co375 1.966 . S
O378 C376 1.263 . S
C379 O380 1.235 . S
C379 O406 1.289 . S
O380 C379 1.235 . S
C381 C383 1.400 . S
C381 N384 1.351 . S
C381 C386 1.501 . S
C382 C383 1.387 . S
C382 N385 1.341 . S
C383 C381 1.400 . S
C383 C382 1.387 . S
N384 Co375 2.022 1_565 S
N384 C381 1.351 . S
N384 N385 1.365 . S
N385 C382 1.341 . S
N385 N384 1.365 . S
N385 H405 0.862 . S
C386 C381 1.501 . S
C386 H387 0.961 . S
C386 H388 0.961 . S
C386 H389 0.960 . S
H387 C386 0.961 . S
H388 C386 0.961 . S
H389 C386 0.960 . S
C390 N391 1.342 . S
C390 C394 1.401 . S
C390 C395 1.499 . S
N391 Co374 1.989 . S
N391 C390 1.342 . S
N391 N392 1.388 . S
N392 Co375 1.993 . S
N392 N391 1.388 . S
N392 C393 1.346 . S
C393 N392 1.346 . S
C393 C394 1.396 . S
C393 C403 1.510 . S
C394 C390 1.401 . S
C394 C393 1.396 . S
C395 C390 1.499 . S
C395 H396 0.959 . S
C395 H397 0.960 . S
C395 H398 0.961 . S
H396 C395 0.959 . S
H397 C395 0.960 . S
H398 C395 0.961 . S
O399 Co374 1.967 . S
O399 C407 1.258 . S
O400 Co375 1.941 . S
O400 C407 1.266 . S
H401 C403 0.959 . S
H402 C403 0.961 . S
C403 C393 1.510 . S
C403 H401 0.959 . S
C403 H402 0.961 . S
C403 H404 0.960 . S
H404 C403 0.960 . S
H405 N385 0.862 . S
O406 Co374 1.920 . S
O406 C379 1.289 . S
C407 O399 1.258 . S
C407 O400 1.266 . S
Co408 O411 1.970 . S
Co408 N425 1.989 . S
Co408 O433 1.967 . S
Co408 O440 1.920 . S
Co409 O412 1.966 . S
Co409 N418 2.022 1_565 S
Co409 N426 1.993 . S
Co409 O434 1.941 . S
C410 O411 1.258 . S
C410 O412 1.263 . S
O411 Co408 1.970 . S
O411 C410 1.258 . S
O412 Co409 1.966 . S
O412 C410 1.263 . S
C413 O414 1.235 . S
C413 O440 1.289 . S
O414 C413 1.235 . S
C415 C417 1.400 . S
C415 N418 1.351 . S
C415 C420 1.501 . S
C416 C417 1.387 . S
C416 N419 1.341 . S
C417 C415 1.400 . S
C417 C416 1.387 . S
N418 Co409 2.022 1_545 S
N418 C415 1.351 . S
N418 N419 1.365 . S
N419 C416 1.341 . S
N419 N418 1.365 . S
N419 H439 0.856 1_545 S
C420 C415 1.501 . S
C420 H421 0.961 . S
C420 H422 0.961 . S
C420 H423 0.960 . S
H421 C420 0.961 . S
H422 C420 0.961 . S
H423 C420 0.960 . S
C424 N425 1.342 . S
C424 C428 1.401 . S
C424 C429 1.499 . S
N425 Co408 1.989 . S
N425 C424 1.342 . S
N425 N426 1.388 . S
N426 Co409 1.993 . S
N426 N425 1.388 . S
N426 C427 1.346 . S
C427 N426 1.346 . S
C427 C428 1.396 . S
C427 C437 1.510 . S
C428 C424 1.401 . S
C428 C427 1.396 . S
C429 C424 1.499 . S
C429 H430 0.959 . S
C429 H431 0.960 . S
C429 H432 0.961 . S
H430 C429 0.959 . S
H431 C429 0.960 . S
H432 C429 0.961 . S
O433 Co408 1.967 . S
O433 C441 1.258 . S
O434 Co409 1.941 . S
O434 C441 1.266 . S
H435 C437 0.959 . S
H436 C437 0.961 . S
C437 C427 1.510 . S
C437 H435 0.959 . S
C437 H436 0.961 . S
C437 H438 0.960 . S
H438 C437 0.960 . S
H439 N419 0.856 1_565 S
O440 Co408 1.920 . S
O440 C413 1.289 . S
C441 O433 1.258 . S
C441 O434 1.266 . S
Co442 O445 1.970 . S
Co442 N459 1.989 . S
Co442 O467 1.967 . S
Co442 O474 1.920 . S
Co443 O446 1.966 . S
Co443 N452 2.022 1_455 S
Co443 N460 1.993 . S
Co443 O468 1.941 . S
C444 O445 1.258 . S
C444 O446 1.263 . S
O445 Co442 1.970 . S
O445 C444 1.258 . S
O446 Co443 1.966 . S
O446 C444 1.263 . S
C447 O448 1.235 . S
C447 O474 1.289 . S
O448 C447 1.235 . S
C449 C451 1.400 . S
C449 N452 1.351 . S
C449 C454 1.501 . S
C450 C451 1.387 . S
C450 N453 1.341 . S
C451 C449 1.400 . S
C451 C450 1.387 . S
N452 Co443 2.022 1_655 S
N452 C449 1.351 . S
N452 N453 1.365 . S
N453 C450 1.341 . S
N453 N452 1.365 . S
N453 H473 0.862 . S
C454 C449 1.501 . S
C454 H455 0.961 . S
C454 H456 0.961 . S
C454 H457 0.960 . S
H455 C454 0.961 . S
H456 C454 0.961 . S
H457 C454 0.960 . S
C458 N459 1.342 . S
C458 C462 1.401 . S
C458 C463 1.499 . S
N459 Co442 1.989 . S
N459 C458 1.342 . S
N459 N460 1.388 . S
N460 Co443 1.993 . S
N460 N459 1.388 . S
N460 C461 1.346 . S
C461 N460 1.346 . S
C461 C462 1.396 . S
C461 C471 1.510 . S
C462 C458 1.401 . S
C462 C461 1.396 . S
C463 C458 1.499 . S
C463 H464 0.959 . S
C463 H465 0.960 . S
C463 H466 0.961 . S
H464 C463 0.959 . S
H465 C463 0.960 . S
H466 C463 0.961 . S
O467 Co442 1.967 . S
O467 C475 1.258 . S
O468 Co443 1.941 . S
O468 C475 1.266 . S
H469 C471 0.959 . S
H470 C471 0.961 . S
C471 C461 1.510 . S
C471 H469 0.959 . S
C471 H470 0.961 . S
C471 H472 0.960 . S
H472 C471 0.960 . S
H473 N453 0.862 . S
O474 Co442 1.920 . S
O474 C447 1.289 . S
C475 O467 1.258 . S
C475 O468 1.266 . S
Co476 O479 1.970 . S
Co476 N493 1.989 . S
Co476 O501 1.967 . S
Co476 O508 1.920 . S
Co477 O480 1.966 . S
Co477 N486 2.022 . S
Co477 N494 1.993 . S
Co477 O502 1.941 . S
C478 O479 1.258 . S
C478 O480 1.263 . S
O479 Co476 1.970 . S
O479 C478 1.258 . S
O480 Co477 1.966 . S
O480 C478 1.263 . S
C481 O482 1.235 . S
C481 O508 1.289 . S
O482 C481 1.235 . S
C483 C485 1.400 . S
C483 N486 1.351 . S
C483 C488 1.501 . S
C484 C485 1.387 . S
C484 N487 1.341 . S
C485 C483 1.400 . S
C485 C484 1.387 . S
N486 Co477 2.022 . S
N486 C483 1.351 . S
N486 N487 1.365 . S
N487 C484 1.341 . S
N487 N486 1.365 . S
N487 H507 0.862 . S
C488 C483 1.501 . S
C488 H489 0.961 . S
C488 H490 0.961 . S
C488 H491 0.960 . S
H489 C488 0.961 . S
H490 C488 0.961 . S
H491 C488 0.960 . S
C492 N493 1.342 . S
C492 C496 1.401 . S
C492 C497 1.499 . S
N493 Co476 1.989 . S
N493 C492 1.342 . S
N493 N494 1.388 . S
N494 Co477 1.993 . S
N494 N493 1.388 . S
N494 C495 1.346 . S
C495 N494 1.346 . S
C495 C496 1.396 . S
C495 C505 1.510 . S
C496 C492 1.401 . S
C496 C495 1.396 . S
C497 C492 1.499 . S
C497 H498 0.959 . S
C497 H499 0.960 . S
C497 H500 0.961 . S
H498 C497 0.959 . S
H499 C497 0.960 . S
H500 C497 0.961 . S
O501 Co476 1.967 . S
O501 C509 1.258 . S
O502 Co477 1.941 . S
O502 C509 1.266 . S
H503 C505 0.959 . S
H504 C505 0.961 . S
C505 C495 1.510 . S
C505 H503 0.959 . S
C505 H504 0.961 . S
C505 H506 0.960 . S
H506 C505 0.960 . S
H507 N487 0.862 . S
O508 Co476 1.920 . S
O508 C481 1.289 . S
C509 O501 1.258 . S
C509 O502 1.266 . S
Co510 O513 1.970 . S
Co510 N527 1.989 . S
Co510 O535 1.967 . S
Co510 O542 1.920 . S
Co511 O514 1.966 . S
Co511 N520 2.022 . S
Co511 N528 1.993 . S
Co511 O536 1.941 . S
C512 O513 1.258 . S
C512 O514 1.263 . S
O513 Co510 1.970 . S
O513 C512 1.258 . S
O514 Co511 1.966 . S
O514 C512 1.263 . S
C515 O516 1.235 . S
C515 O542 1.289 . S
O516 C515 1.235 . S
C517 C519 1.400 . S
C517 N520 1.351 . S
C517 C522 1.501 . S
C518 C519 1.387 . S
C518 N521 1.341 . S
C519 C517 1.400 . S
C519 C518 1.387 . S
N520 Co511 2.022 . S
N520 C517 1.351 . S
N520 N521 1.365 . S
N521 C518 1.341 . S
N521 N520 1.365 . S
N521 H541 0.862 . S
C522 C517 1.501 . S
C522 H523 0.961 . S
C522 H524 0.961 . S
C522 H525 0.960 . S
H523 C522 0.961 . S
H524 C522 0.961 . S
H525 C522 0.960 . S
C526 N527 1.342 . S
C526 C530 1.401 . S
C526 C531 1.499 . S
N527 Co510 1.989 . S
N527 C526 1.342 . S
N527 N528 1.388 . S
N528 Co511 1.993 . S
N528 N527 1.388 . S
N528 C529 1.346 . S
C529 N528 1.346 . S
C529 C530 1.396 . S
C529 C539 1.510 . S
C530 C526 1.401 . S
C530 C529 1.396 . S
C531 C526 1.499 . S
C531 H532 0.959 . S
C531 H533 0.960 . S
C531 H534 0.961 . S
H532 C531 0.959 . S
H533 C531 0.960 . S
H534 C531 0.961 . S
O535 Co510 1.967 . S
O535 C543 1.258 . S
O536 Co511 1.941 . S
O536 C543 1.266 . S
H537 C539 0.959 . S
H538 C539 0.961 . S
C539 C529 1.510 . S
C539 H537 0.959 . S
C539 H538 0.961 . S
C539 H540 0.960 . S
H540 C539 0.960 . S
H541 N521 0.862 . S
O542 Co510 1.920 . S
O542 C515 1.289 . S
C543 O535 1.258 . S
C543 O536 1.266 . S
Co544 O547 1.970 . S
Co544 N561 1.989 . S
Co544 O569 1.967 . S
Co544 O576 1.920 . S
Co545 O548 1.966 . S
Co545 N554 2.022 . S
Co545 N562 1.993 . S
Co545 O570 1.941 . S
C546 O547 1.258 . S
C546 O548 1.263 . S
O547 Co544 1.970 . S
O547 C546 1.258 . S
O548 Co545 1.966 . S
O548 C546 1.263 . S
C549 O550 1.235 . S
C549 O576 1.289 . S
O550 C549 1.235 . S
C551 C553 1.400 . S
C551 N554 1.351 . S
C551 C556 1.501 . S
C552 C553 1.387 . S
C552 N555 1.341 . S
C553 C551 1.400 . S
C553 C552 1.387 . S
N554 Co545 2.022 . S
N554 C551 1.351 . S
N554 N555 1.365 . S
N555 C552 1.341 . S
N555 N554 1.365 . S
N555 H575 0.862 . S
C556 C551 1.501 . S
C556 H557 0.961 . S
C556 H558 0.961 . S
C556 H559 0.960 . S
H557 C556 0.961 . S
H558 C556 0.961 . S
H559 C556 0.960 . S
C560 N561 1.342 . S
C560 C564 1.401 . S
C560 C565 1.499 . S
N561 Co544 1.989 . S
N561 C560 1.342 . S
N561 N562 1.388 . S
N562 Co545 1.993 . S
N562 N561 1.388 . S
N562 C563 1.346 . S
C563 N562 1.346 . S
C563 C564 1.396 . S
C563 C573 1.510 . S
C564 C560 1.401 . S
C564 C563 1.396 . S
C565 C560 1.499 . S
C565 H566 0.959 . S
C565 H567 0.960 . S
C565 H568 0.961 . S
H566 C565 0.959 . S
H567 C565 0.960 . S
H568 C565 0.961 . S
O569 Co544 1.967 . S
O569 C577 1.258 . S
O570 Co545 1.941 . S
O570 C577 1.266 . S
H571 C573 0.959 . S
H572 C573 0.961 . S
C573 C563 1.510 . S
C573 H571 0.959 . S
C573 H572 0.961 . S
C573 H574 0.960 . S
H574 C573 0.960 . S
H575 N555 0.862 . S
O576 Co544 1.920 . S
O576 C549 1.289 . S
C577 O569 1.258 . S
C577 O570 1.266 . S
Co578 O581 1.970 . S
Co578 N595 1.989 . S
Co578 O603 1.967 . S
Co578 O610 1.920 . S
Co579 O582 1.966 . S
Co579 N588 2.022 . S
Co579 N596 1.993 . S
Co579 O604 1.941 . S
C580 O581 1.258 . S
C580 O582 1.263 . S
O581 Co578 1.970 . S
O581 C580 1.258 . S
O582 Co579 1.966 . S
O582 C580 1.263 . S
C583 O584 1.235 . S
C583 O610 1.289 . S
O584 C583 1.235 . S
C585 C587 1.400 . S
C585 N588 1.351 . S
C585 C590 1.501 . S
C586 C587 1.387 . S
C586 N589 1.341 . S
C587 C585 1.400 . S
C587 C586 1.387 . S
N588 Co579 2.022 . S
N588 C585 1.351 . S
N588 N589 1.365 . S
N589 C586 1.341 . S
N589 N588 1.365 . S
N589 H609 0.862 . S
C590 C585 1.501 . S
C590 H591 0.961 . S
C590 H592 0.961 . S
C590 H593 0.960 . S
H591 C590 0.961 . S
H592 C590 0.961 . S
H593 C590 0.960 . S
C594 N595 1.342 . S
C594 C598 1.401 . S
C594 C599 1.499 . S
N595 Co578 1.989 . S
N595 C594 1.342 . S
N595 N596 1.388 . S
N596 Co579 1.993 . S
N596 N595 1.388 . S
N596 C597 1.346 . S
C597 N596 1.346 . S
C597 C598 1.396 . S
C597 C607 1.510 . S
C598 C594 1.401 . S
C598 C597 1.396 . S
C599 C594 1.499 . S
C599 H600 0.959 . S
C599 H601 0.960 . S
C599 H602 0.961 . S
H600 C599 0.959 . S
H601 C599 0.960 . S
H602 C599 0.961 . S
O603 Co578 1.967 . S
O603 C611 1.258 . S
O604 Co579 1.941 . S
O604 C611 1.266 . S
H605 C607 0.959 . S
H606 C607 0.961 . S
C607 C597 1.510 . S
C607 H605 0.959 . S
C607 H606 0.961 . S
C607 H608 0.960 . S
H608 C607 0.960 . S
H609 N589 0.862 . S
O610 Co578 1.920 . S
O610 C583 1.289 . S
C611 O603 1.258 . S
C611 O604 1.266 . S
C612 C613 1.363 . S
C612 C618 1.379 . S
C612 N620 1.356 . S
C613 C612 1.363 . S
C613 C619 1.363 . S
C614 C615 1.363 . S
C614 C619 1.379 . S
C614 N621 1.356 . S
C615 C614 1.363 . S
C615 C618 1.363 . S
N616 C618 1.356 . S
N616 H628 0.984 . S
N616 H629 0.985 . S
N617 C619 1.356 . S
N617 H622 0.984 . S
N617 H623 0.985 . S
C618 C612 1.379 . S
C618 C615 1.363 . S
C618 N616 1.356 . S
C619 C613 1.363 . S
C619 C614 1.379 . S
C619 N617 1.356 . S
N620 C612 1.356 . S
N620 H626 0.984 . S
N620 H627 0.984 . S
N621 C614 1.356 . S
N621 H624 0.984 . S
N621 H625 0.985 . S
H622 N617 0.984 . S
H623 N617 0.985 . S
H624 N621 0.984 . S
H625 N621 0.985 . S
H626 N620 0.984 . S
H627 N620 0.984 . S
H628 N616 0.984 . S
H629 N616 0.985 . S
C630 C631 1.363 . S
C630 C636 1.379 . S
C630 N638 1.356 . S
C631 C630 1.363 . S
C631 C637 1.363 . S
C632 C633 1.363 . S
C632 C637 1.379 . S
C632 N639 1.356 . S
C633 C632 1.363 . S
C633 C636 1.363 . S
N634 C636 1.356 . S
N634 H646 0.984 . S
N634 H647 0.985 . S
N635 C637 1.356 . S
N635 H640 0.984 . S
N635 H641 0.985 . S
C636 C630 1.379 . S
C636 C633 1.363 . S
C636 N634 1.356 . S
C637 C631 1.363 . S
C637 C632 1.379 . S
C637 N635 1.356 . S
N638 C630 1.356 . S
N638 H644 0.984 . S
N638 H645 0.984 . S
N639 C632 1.356 . S
N639 H642 0.984 . S
N639 H643 0.985 . S
H640 N635 0.984 . S
H641 N635 0.985 . S
H642 N639 0.984 . S
H643 N639 0.985 . S
H644 N638 0.984 . S
H645 N638 0.984 . S
H646 N634 0.984 . S
H647 N634 0.985 . S
C648 C649 1.363 . S
C648 C654 1.379 . S
C648 N656 1.356 1_455 S
C649 C648 1.363 . S
C649 C655 1.363 . S
C650 C651 1.363 . S
C650 C655 1.379 . S
C650 N657 1.356 . S
C651 C650 1.363 . S
C651 C654 1.363 . S
N652 C654 1.356 . S
N652 H664 0.984 . S
N652 H665 0.985 . S
N653 C655 1.356 . S
N653 H658 0.984 . S
N653 H659 0.985 . S
C654 C648 1.379 . S
C654 C651 1.363 . S
C654 N652 1.356 . S
C655 C649 1.363 . S
C655 C650 1.379 . S
C655 N653 1.356 . S
N656 C648 1.356 1_655 S
N656 H662 0.984 . S
N656 H663 0.984 . S
N657 C650 1.356 . S
N657 H660 0.984 . S
N657 H661 0.985 . S
H658 N653 0.984 . S
H659 N653 0.985 . S
H660 N657 0.984 . S
H661 N657 0.985 . S
H662 N656 0.984 . S
H663 N656 0.984 . S
H664 N652 0.984 . S
H665 N652 0.985 . S
C666 C667 1.363 . S
C666 C672 1.379 . S
C666 N674 1.356 . S
C667 C666 1.363 . S
C667 C673 1.363 . S
C668 C669 1.363 . S
C668 C673 1.379 . S
C668 N675 1.356 . S
C669 C668 1.363 . S
C669 C672 1.363 . S
N670 C672 1.356 . S
N670 H682 0.984 . S
N670 H683 0.985 . S
N671 C673 1.356 . S
N671 H676 0.984 . S
N671 H677 0.985 . S
C672 C666 1.379 . S
C672 C669 1.363 . S
C672 N670 1.356 . S
C673 C667 1.363 . S
C673 C668 1.379 . S
C673 N671 1.356 . S
N674 C666 1.356 . S
N674 H680 0.984 . S
N674 H681 0.984 . S
N675 C668 1.356 . S
N675 H678 0.984 . S
N675 H679 0.985 . S
H676 N671 0.984 . S
H677 N671 0.985 . S
H678 N675 0.984 . S
H679 N675 0.985 . S
H680 N674 0.984 . S
H681 N674 0.984 . S
H682 N670 0.984 . S
H683 N670 0.985 . S
C684 C685 1.363 . S
C684 C690 1.379 . S
C684 N692 1.356 . S
C685 C684 1.363 . S
C685 C691 1.363 . S
C686 C687 1.363 . S
C686 C691 1.379 . S
C686 N693 1.356 . S
C687 C686 1.363 . S
C687 C690 1.363 . S
N688 C690 1.356 . S
N688 H700 0.984 . S
N688 H701 0.985 . S
N689 C691 1.356 . S
N689 H694 0.984 . S
N689 H695 0.985 . S
C690 C684 1.379 . S
C690 C687 1.363 . S
C690 N688 1.356 . S
C691 C685 1.363 . S
C691 C686 1.379 . S
C691 N689 1.356 . S
N692 C684 1.356 . S
N692 H698 0.984 . S
N692 H699 0.984 . S
N693 C686 1.356 . S
N693 H696 0.984 . S
N693 H697 0.985 . S
H694 N689 0.984 . S
H695 N689 0.985 . S
H696 N693 0.984 . S
H697 N693 0.985 . S
H698 N692 0.984 . S
H699 N692 0.984 . S
H700 N688 0.984 . S
H701 N688 0.985 . S
C702 C703 1.363 . S
C702 C708 1.379 . S
C702 N710 1.356 . S
C703 C702 1.363 . S
C703 C709 1.363 . S
C704 C705 1.363 . S
C704 C709 1.379 . S
C704 N711 1.356 . S
C705 C704 1.363 . S
C705 C708 1.363 . S
N706 C708 1.356 . S
N706 H718 0.984 . S
N706 H719 0.985 . S
N707 C709 1.356 . S
N707 H712 0.984 . S
N707 H713 0.985 . S
C708 C702 1.379 . S
C708 C705 1.363 . S
C708 N706 1.356 . S
C709 C703 1.363 . S
C709 C704 1.379 . S
C709 N707 1.356 . S
N710 C702 1.356 . S
N710 H716 0.984 . S
N710 H717 0.984 . S
N711 C704 1.356 . S
N711 H714 0.984 . S
N711 H715 0.985 . S
H712 N707 0.984 . S
H713 N707 0.985 . S
H714 N711 0.984 . S
H715 N711 0.985 . S
H716 N710 0.984 . S
H717 N710 0.984 . S
H718 N706 0.984 . S
H719 N706 0.985 . S
C720 C721 1.363 . S
C720 C726 1.379 . S
C720 N728 1.356 . S
C721 C720 1.363 . S
C721 C727 1.363 . S
C722 C723 1.363 . S
C722 C727 1.379 . S
C722 N729 1.356 . S
C723 C722 1.363 . S
C723 C726 1.363 . S
N724 C726 1.356 . S
N724 H736 0.984 . S
N724 H737 0.985 . S
N725 C727 1.356 . S
N725 H730 0.984 . S
N725 H731 0.985 . S
C726 C720 1.379 . S
C726 C723 1.363 . S
C726 N724 1.356 . S
C727 C721 1.363 . S
C727 C722 1.379 . S
C727 N725 1.356 . S
N728 C720 1.356 . S
N728 H734 0.984 . S
N728 H735 0.984 . S
N729 C722 1.356 . S
N729 H732 0.984 . S
N729 H733 0.985 . S
H730 N725 0.984 . S
H731 N725 0.985 . S
H732 N729 0.984 . S
H733 N729 0.985 . S
H734 N728 0.984 . S
H735 N728 0.984 . S
H736 N724 0.984 . S
H737 N724 0.985 . S
C738 C739 1.363 . S
C738 C744 1.379 1_565 S
C738 N746 1.356 . S
C739 C738 1.363 . S
C739 C745 1.363 1_565 S
C740 C741 1.363 . S
C740 C745 1.379 . S
C740 N747 1.356 . S
C741 C740 1.363 . S
C741 C744 1.363 . S
N742 C744 1.356 . S
N742 H754 0.984 1_545 S
N742 H755 0.985 . S
N743 C745 1.356 . S
N743 H748 0.984 1_545 S
N743 H749 0.985 . S
C744 C738 1.379 1_545 S
C744 C741 1.363 . S
C744 N742 1.356 . S
C745 C739 1.363 1_545 S
C745 C740 1.379 . S
C745 N743 1.356 . S
N746 C738 1.356 . S
N746 H752 0.984 . S
N746 H753 0.984 . S
N747 C740 1.356 . S
N747 H750 0.984 . S
N747 H751 0.985 . S
H748 N743 0.984 1_565 S
H749 N743 0.985 . S
H750 N747 0.984 . S
H751 N747 0.985 . S
H752 N746 0.984 . S
H753 N746 0.984 . S
H754 N742 0.984 1_565 S
H755 N742 0.985 . S
C756 C757 1.363 1_655 S
C756 C762 1.379 . S
C756 N764 1.356 . S
C757 C756 1.363 1_455 S
C757 C763 1.363 . S
C758 C759 1.363 . S
C758 C763 1.379 1_655 S
C758 N765 1.356 . S
C759 C758 1.363 . S
C759 C762 1.363 . S
N760 C762 1.356 . S
N760 H772 0.984 . S
N760 H773 0.985 . S
N761 C763 1.356 . S
N761 H766 0.984 . S
N761 H767 0.985 . S
C762 C756 1.379 . S
C762 C759 1.363 . S
C762 N760 1.356 . S
C763 C757 1.363 . S
C763 C758 1.379 1_455 S
C763 N761 1.356 . S
N764 C756 1.356 . S
N764 H770 0.984 . S
N764 H771 0.984 . S
N765 C758 1.356 . S
N765 H768 0.984 . S
N765 H769 0.985 1_655 S
H766 N761 0.984 . S
H767 N761 0.985 . S
H768 N765 0.984 . S
H769 N765 0.985 1_455 S
H770 N764 0.984 . S
H771 N764 0.984 . S
H772 N760 0.984 . S
H773 N760 0.985 . S
C774 C775 1.363 . S
C774 C780 1.379 . S
C774 N782 1.356 . S
C775 C774 1.363 . S
C775 C781 1.363 . S
C776 C777 1.363 . S
C776 C781 1.379 . S
C776 N783 1.356 . S
C777 C776 1.363 . S
C777 C780 1.363 . S
N778 C780 1.356 . S
N778 H790 0.984 . S
N778 H791 0.985 . S
N779 C781 1.356 . S
N779 H784 0.984 . S
N779 H785 0.985 . S
C780 C774 1.379 . S
C780 C777 1.363 . S
C780 N778 1.356 . S
C781 C775 1.363 . S
C781 C776 1.379 . S
C781 N779 1.356 . S
N782 C774 1.356 . S
N782 H788 0.984 . S
N782 H789 0.984 . S
N783 C776 1.356 . S
N783 H786 0.984 . S
N783 H787 0.985 . S
H784 N779 0.984 . S
H785 N779 0.985 . S
H786 N783 0.984 . S
H787 N783 0.985 . S
H788 N782 0.984 . S
H789 N782 0.984 . S
H790 N778 0.984 . S
H791 N778 0.985 . S
C792 C793 1.363 . S
C792 C798 1.379 . S
C792 N800 1.356 . S
C793 C792 1.363 . S
C793 C799 1.363 1_565 S
C794 C795 1.363 . S
C794 C799 1.379 . S
C794 N801 1.356 . S
C795 C794 1.363 . S
C795 C798 1.363 1_545 S
N796 C798 1.356 . S
N796 H808 0.984 . S
N796 H809 0.985 . S
N797 C799 1.356 . S
N797 H802 0.984 . S
N797 H803 0.985 . S
C798 C792 1.379 . S
C798 C795 1.363 1_565 S
C798 N796 1.356 . S
C799 C793 1.363 1_545 S
C799 C794 1.379 . S
C799 N797 1.356 . S
N800 C792 1.356 . S
N800 H806 0.984 . S
N800 H807 0.984 . S
N801 C794 1.356 . S
N801 H804 0.984 . S
N801 H805 0.985 . S
H802 N797 0.984 . S
H803 N797 0.985 . S
H804 N801 0.984 . S
H805 N801 0.985 . S
H806 N800 0.984 . S
H807 N800 0.984 . S
H808 N796 0.984 . S
H809 N796 0.985 . S
C810 C811 1.363 . S
C810 C816 1.379 1_455 S
C810 N818 1.356 . S
C811 C810 1.363 . S
C811 C817 1.363 . S
C812 C813 1.363 1_455 S
C812 C817 1.379 . S
C812 N819 1.356 . S
C813 C812 1.363 1_655 S
C813 C816 1.363 . S
N814 C816 1.356 . S
N814 H826 0.984 . S
N814 H827 0.985 . S
N815 C817 1.356 . S
N815 H820 0.984 . S
N815 H821 0.985 . S
C816 C810 1.379 1_655 S
C816 C813 1.363 . S
C816 N814 1.356 . S
C817 C811 1.363 . S
C817 C812 1.379 . S
C817 N815 1.356 . S
N818 C810 1.356 . S
N818 H824 0.984 1_455 S
N818 H825 0.984 . S
N819 C812 1.356 . S
N819 H822 0.984 1_455 S
N819 H823 0.985 . S
H820 N815 0.984 . S
H821 N815 0.985 . S
H822 N819 0.984 1_655 S
H823 N819 0.985 . S
H824 N818 0.984 1_655 S
H825 N818 0.984 . S
H826 N814 0.984 . S
H827 N814 0.985 . S
C828 C829 1.363 . S
C828 C834 1.379 1_455 S
C828 N836 1.356 . S
C829 C828 1.363 . S
C829 C835 1.363 . S
C830 C831 1.363 . S
C830 C835 1.379 1_655 S
C830 N837 1.356 . S
C831 C830 1.363 . S
C831 C834 1.363 . S
N832 C834 1.356 . S
N832 H844 0.984 . S
N832 H845 0.985 . S
N833 C835 1.356 . S
N833 H838 0.984 . S
N833 H839 0.985 . S
C834 C828 1.379 1_655 S
C834 C831 1.363 . S
C834 N832 1.356 . S
C835 C829 1.363 . S
C835 C830 1.379 1_455 S
C835 N833 1.356 . S
N836 C828 1.356 . S
N836 H842 0.984 . S
N836 H843 0.984 . S
N837 C830 1.356 . S
N837 H840 0.984 . S
N837 H841 0.985 . S
H838 N833 0.984 . S
H839 N833 0.985 . S
H840 N837 0.984 . S
H841 N837 0.985 . S
H842 N836 0.984 . S
H843 N836 0.984 . S
H844 N832 0.984 . S
H845 N832 0.985 . S
C846 C847 1.363 . S
C846 C852 1.379 . S
C846 N854 1.356 . S
C847 C846 1.363 . S
C847 C853 1.363 . S
C848 C849 1.363 . S
C848 C853 1.379 . S
C848 N855 1.356 . S
C849 C848 1.363 . S
C849 C852 1.363 . S
N850 C852 1.356 . S
N850 H862 0.984 . S
N850 H863 0.985 . S
N851 C853 1.356 . S
N851 H856 0.984 . S
N851 H857 0.985 . S
C852 C846 1.379 . S
C852 C849 1.363 . S
C852 N850 1.356 . S
C853 C847 1.363 . S
C853 C848 1.379 . S
C853 N851 1.356 . S
N854 C846 1.356 . S
N854 H860 0.984 . S
N854 H861 0.984 . S
N855 C848 1.356 . S
N855 H858 0.984 . S
N855 H859 0.985 . S
H856 N851 0.984 . S
H857 N851 0.985 . S
H858 N855 0.984 . S
H859 N855 0.985 . S
H860 N854 0.984 . S
H861 N854 0.984 . S
H862 N850 0.984 . S
H863 N850 0.985 . S
C864 C865 1.363 . S
C864 C870 1.379 1_565 S
C864 N872 1.356 . S
C865 C864 1.363 . S
C865 C871 1.363 . S
C866 C867 1.363 . S
C866 C871 1.379 1_545 S
C866 N873 1.356 . S
C867 C866 1.363 . S
C867 C870 1.363 . S
N868 C870 1.356 . S
N868 H880 0.984 . S
N868 H881 0.985 . S
N869 C871 1.356 . S
N869 H874 0.984 . S
N869 H875 0.985 . S
C870 C864 1.379 1_545 S
C870 C867 1.363 . S
C870 N868 1.356 . S
C871 C865 1.363 . S
C871 C866 1.379 1_565 S
C871 N869 1.356 . S
N872 C864 1.356 . S
N872 H878 0.984 . S
N872 H879 0.984 . S
N873 C866 1.356 . S
N873 H876 0.984 . S
N873 H877 0.985 . S
H874 N869 0.984 . S
H875 N869 0.985 . S
H876 N873 0.984 . S
H877 N873 0.985 . S
H878 N872 0.984 . S
H879 N872 0.984 . S
H880 N868 0.984 . S
H881 N868 0.985 . S
C882 C883 1.359 1_565 S
C882 C888 1.391 . S
C882 N890 1.346 1_565 S
C883 C882 1.359 1_545 S
C883 C889 1.363 . S
C884 C885 1.363 . S
C884 C889 1.379 1_565 S
C884 N891 1.356 . S
C885 C884 1.363 . S
C885 C888 1.363 . S
N886 C888 1.356 . S
N886 H898 0.984 . S
N886 H899 0.985 . S
N887 C889 1.356 . S
N887 H892 0.984 . S
N887 H893 0.985 . S
C888 C882 1.391 . S
C888 C885 1.363 . S
C888 N886 1.356 . S
C889 C883 1.363 . S
C889 C884 1.379 1_545 S
C889 N887 1.356 . S
N890 C882 1.346 1_545 S
N890 H896 0.984 1_545 S
N890 H897 0.984 . S
N891 C884 1.356 . S
N891 H894 0.984 . S
N891 H895 0.985 . S
H892 N887 0.984 . S
H893 N887 0.985 . S
H894 N891 0.984 . S
H895 N891 0.985 . S
H896 N890 0.984 1_565 S
H897 N890 0.984 . S
H898 N886 0.984 . S
H899 N886 0.985 . S
C900 C901 1.363 1_655 S
C900 C906 1.379 . S
C900 N908 1.356 . S
C901 C900 1.363 1_455 S
C901 C907 1.363 . S
C902 C903 1.365 1_455 S
C902 C907 1.377 . S
C902 N909 1.356 1_455 S
C903 C902 1.365 1_655 S
C903 C906 1.363 . S
N904 C906 1.356 . S
N904 H916 0.984 . S
N904 H917 0.985 . S
N905 C907 1.356 . S
N905 H910 0.984 . S
N905 H911 0.985 . S
C906 C900 1.379 . S
C906 C903 1.363 . S
C906 N904 1.356 . S
C907 C901 1.363 . S
C907 C902 1.377 . S
C907 N905 1.356 . S
N908 C900 1.356 . S
N908 H914 0.984 . S
N908 H915 0.984 1_655 S
N909 C902 1.356 1_655 S
N909 H912 0.984 . S
N909 H913 0.985 1_655 S
H910 N905 0.984 . S
H911 N905 0.985 . S
H912 N909 0.984 . S
H913 N909 0.985 1_455 S
H914 N908 0.984 . S
H915 N908 0.984 1_455 S
H916 N904 0.984 . S
H917 N904 0.985 . S
C918 C919 1.363 . S
C918 C924 1.379 . S
C918 N926 1.356 . S
C919 C918 1.363 . S
C919 C925 1.363 . S
C920 C921 1.363 . S
C920 C925 1.379 . S
C920 N927 1.356 . S
C921 C920 1.363 . S
C921 C924 1.363 . S
N922 C924 1.356 . S
N922 H934 0.984 . S
N922 H935 0.985 . S
N923 C925 1.356 . S
N923 H928 0.984 . S
N923 H929 0.985 . S
C924 C918 1.379 . S
C924 C921 1.363 . S
C924 N922 1.356 . S
C925 C919 1.363 . S
C925 C920 1.379 . S
C925 N923 1.356 . S
N926 C918 1.356 . S
N926 H932 0.984 . S
N926 H933 0.984 . S
N927 C920 1.356 . S
N927 H930 0.984 . S
N927 H931 0.985 . S
H928 N923 0.984 . S
H929 N923 0.985 . S
H930 N927 0.984 . S
H931 N927 0.985 . S
H932 N926 0.984 . S
H933 N926 0.984 . S
H934 N922 0.984 . S
H935 N922 0.985 . S
C936 C937 1.363 . S
C936 C942 1.379 . S
C936 N944 1.356 . S
C937 C936 1.363 . S
C937 C943 1.363 . S
C938 C939 1.363 . S
C938 C943 1.379 . S
C938 N945 1.356 . S
C939 C938 1.363 . S
C939 C942 1.363 . S
N940 C942 1.356 . S
N940 H952 0.984 . S
N940 H953 0.985 . S
N941 C943 1.356 . S
N941 H946 0.984 . S
N941 H947 0.985 . S
C942 C936 1.379 . S
C942 C939 1.363 . S
C942 N940 1.356 . S
C943 C937 1.363 . S
C943 C938 1.379 . S
C943 N941 1.356 . S
N944 C936 1.356 . S
N944 H950 0.984 . S
N944 H951 0.984 . S
N945 C938 1.356 . S
N945 H948 0.984 . S
N945 H949 0.985 . S
H946 N941 0.984 . S
H947 N941 0.985 . S
H948 N945 0.984 . S
H949 N945 0.985 . S
H950 N944 0.984 . S
H951 N944 0.984 . S
H952 N940 0.984 . S
H953 N940 0.985 . S
C954 C955 1.363 . S
C954 C960 1.379 . S
C954 N962 1.356 . S
C955 C954 1.363 . S
C955 C961 1.363 . S
C956 C957 1.363 . S
C956 C961 1.379 . S
C956 N963 1.356 . S
C957 C956 1.363 . S
C957 C960 1.363 . S
N958 C960 1.356 . S
N958 H970 0.984 . S
N958 H971 0.985 . S
N959 C961 1.356 . S
N959 H964 0.984 . S
N959 H965 0.985 . S
C960 C954 1.379 . S
C960 C957 1.363 . S
C960 N958 1.356 . S
C961 C955 1.363 . S
C961 C956 1.379 . S
C961 N959 1.356 . S
N962 C954 1.356 . S
N962 H968 0.984 . S
N962 H969 0.984 . S
N963 C956 1.356 . S
N963 H966 0.984 . S
N963 H967 0.985 . S
H964 N959 0.984 . S
H965 N959 0.985 . S
H966 N963 0.984 . S
H967 N963 0.985 . S
H968 N962 0.984 . S
H969 N962 0.984 . S
H970 N958 0.984 . S
H971 N958 0.985 . S
C972 C973 1.363 . S
C972 C978 1.379 . S
C972 N980 1.356 . S
C973 C972 1.363 . S
C973 C979 1.363 . S
C974 C975 1.363 . S
C974 C979 1.379 . S
C974 N981 1.356 . S
C975 C974 1.363 . S
C975 C978 1.363 . S
N976 C978 1.356 . S
N976 H988 0.984 . S
N976 H989 0.985 . S
N977 C979 1.356 . S
N977 H982 0.984 . S
N977 H983 0.985 . S
C978 C972 1.379 . S
C978 C975 1.363 . S
C978 N976 1.356 . S
C979 C973 1.363 . S
C979 C974 1.379 . S
C979 N977 1.356 . S
N980 C972 1.356 . S
N980 H986 0.984 . S
N980 H987 0.984 . S
N981 C974 1.356 . S
N981 H984 0.984 . S
N981 H985 0.985 . S
H982 N977 0.984 . S
H983 N977 0.985 . S
H984 N981 0.984 . S
H985 N981 0.985 . S
H986 N980 0.984 . S
H987 N980 0.984 . S
H988 N976 0.984 . S
H989 N976 0.985 . S
C990 C991 1.363 . S
C990 C996 1.379 . S
C990 N998 1.356 . S
C991 C990 1.363 . S
C991 C997 1.363 . S
C992 C993 1.363 . S
C992 C997 1.379 . S
C992 N999 1.356 . S
C993 C992 1.363 . S
C993 C996 1.363 . S
N994 C996 1.356 . S
N994 H1006 0.984 . S
N994 H1007 0.985 . S
N995 C997 1.356 . S
N995 H1000 0.984 . S
N995 H1001 0.985 . S
C996 C990 1.379 . S
C996 C993 1.363 . S
C996 N994 1.356 . S
C997 C991 1.363 . S
C997 C992 1.379 . S
C997 N995 1.356 . S
N998 C990 1.356 . S
N998 H1004 0.984 . S
N998 H1005 0.984 . S
N999 C992 1.356 . S
N999 H1002 0.984 . S
N999 H1003 0.985 1_545 S
H1000 N995 0.984 . S
H1001 N995 0.985 . S
H1002 N999 0.984 . S
H1003 N999 0.985 1_565 S
H1004 N998 0.984 . S
H1005 N998 0.984 . S
H1006 N994 0.984 . S
H1007 N994 0.985 . S
C1008 C1009 1.363 . S
C1008 C1014 1.379 . S
C1008 N1016 1.356 . S
C1009 C1008 1.363 . S
C1009 C1015 1.363 . S
C1010 C1011 1.363 . S
C1010 C1015 1.379 . S
C1010 N1017 1.356 . S
C1011 C1010 1.363 . S
C1011 C1014 1.363 . S
N1012 C1014 1.356 . S
N1012 H1024 0.984 . S
N1012 H1025 0.985 . S
N1013 C1015 1.356 . S
N1013 H1018 0.984 . S
N1013 H1019 0.985 . S
C1014 C1008 1.379 . S
C1014 C1011 1.363 . S
C1014 N1012 1.356 . S
C1015 C1009 1.363 . S
C1015 C1010 1.379 . S
C1015 N1013 1.356 . S
N1016 C1008 1.356 . S
N1016 H1022 0.984 . S
N1016 H1023 0.984 . S
N1017 C1010 1.356 . S
N1017 H1020 0.984 . S
N1017 H1021 0.985 . S
H1018 N1013 0.984 . S
H1019 N1013 0.985 . S
H1020 N1017 0.984 . S
H1021 N1017 0.985 . S
H1022 N1016 0.984 . S
H1023 N1016 0.984 . S
H1024 N1012 0.984 . S
H1025 N1012 0.985 . S
C1026 C1027 1.363 . S
C1026 C1032 1.379 . S
C1026 N1034 1.356 . S
C1027 C1026 1.363 . S
C1027 C1033 1.363 . S
C1028 C1029 1.363 . S
C1028 C1033 1.379 . S
C1028 N1035 1.356 . S
C1029 C1028 1.363 . S
C1029 C1032 1.363 . S
N1030 C1032 1.356 . S
N1030 H1042 0.984 . S
N1030 H1043 0.985 . S
N1031 C1033 1.356 . S
N1031 H1036 0.984 . S
N1031 H1037 0.985 . S
C1032 C1026 1.379 . S
C1032 C1029 1.363 . S
C1032 N1030 1.356 . S
C1033 C1027 1.363 . S
C1033 C1028 1.379 . S
C1033 N1031 1.356 . S
N1034 C1026 1.356 . S
N1034 H1040 0.984 . S
N1034 H1041 0.984 . S
N1035 C1028 1.356 . S
N1035 H1038 0.984 . S
N1035 H1039 0.985 . S
H1036 N1031 0.984 . S
H1037 N1031 0.985 . S
H1038 N1035 0.984 . S
H1039 N1035 0.985 . S
H1040 N1034 0.984 . S
H1041 N1034 0.984 . S
H1042 N1030 0.984 . S
H1043 N1030 0.985 . S
C1044 C1045 1.363 1_455 S
C1044 C1050 1.379 1_554 S
C1044 N1052 1.356 . S
C1045 C1044 1.363 1_655 S
C1045 C1051 1.363 . S
C1046 C1047 1.363 1_655 S
C1046 C1051 1.379 1_556 S
C1046 N1053 1.356 . S
C1047 C1046 1.363 1_455 S
C1047 C1050 1.363 . S
N1048 C1050 1.356 . S
N1048 H1060 0.984 . S
N1048 H1061 0.985 . S
N1049 C1051 1.356 . S
N1049 H1054 0.984 . S
N1049 H1055 0.985 . S
C1050 C1044 1.379 1_556 S
C1050 C1047 1.363 . S
C1050 N1048 1.356 . S
C1051 C1045 1.363 . S
C1051 C1046 1.379 1_554 S
C1051 N1049 1.356 . S
N1052 C1044 1.356 . S
N1052 H1058 0.984 . S
N1052 H1059 0.984 . S
N1053 C1046 1.356 . S
N1053 H1056 0.984 . S
N1053 H1057 0.985 . S
H1054 N1049 0.984 . S
H1055 N1049 0.985 . S
H1056 N1053 0.984 . S
H1057 N1053 0.985 . S
H1058 N1052 0.984 . S
H1059 N1052 0.984 . S
H1060 N1048 0.984 . S
H1061 N1048 0.985 . S
C1062 C1063 1.363 . S
C1062 C1068 1.379 1_554 S
C1062 N1070 1.356 . S
C1063 C1062 1.363 . S
C1063 C1069 1.363 . S
C1064 C1065 1.363 . S
C1064 C1069 1.379 1_556 S
C1064 N1071 1.356 . S
C1065 C1064 1.363 . S
C1065 C1068 1.363 . S
N1066 C1068 1.356 . S
N1066 H1078 0.984 . S
N1066 H1079 0.985 . S
N1067 C1069 1.356 . S
N1067 H1072 0.984 . S
N1067 H1073 0.985 . S
C1068 C1062 1.379 1_556 S
C1068 C1065 1.363 . S
C1068 N1066 1.356 . S
C1069 C1063 1.363 . S
C1069 C1064 1.379 1_554 S
C1069 N1067 1.356 . S
N1070 C1062 1.356 . S
N1070 H1076 0.984 . S
N1070 H1077 0.984 . S
N1071 C1064 1.356 . S
N1071 H1074 0.984 . S
N1071 H1075 0.985 . S
H1072 N1067 0.984 . S
H1073 N1067 0.985 . S
H1074 N1071 0.984 . S
H1075 N1071 0.985 . S
H1076 N1070 0.984 . S
H1077 N1070 0.984 . S
H1078 N1066 0.984 . S
H1079 N1066 0.985 . S
C1080 C1081 1.363 . S
C1080 C1086 1.379 1_554 S
C1080 N1088 1.356 . S
C1081 C1080 1.363 . S
C1081 C1087 1.363 1_545 S
C1082 C1083 1.363 . S
C1082 C1087 1.379 1_556 S
C1082 N1089 1.356 . S
C1083 C1082 1.363 . S
C1083 C1086 1.363 1_565 S
N1084 C1086 1.356 . S
N1084 H1096 0.984 . S
N1084 H1097 0.985 . S
N1085 C1087 1.356 . S
N1085 H1090 0.984 . S
N1085 H1091 0.985 . S
C1086 C1080 1.379 1_556 S
C1086 C1083 1.363 1_545 S
C1086 N1084 1.356 . S
C1087 C1081 1.363 1_565 S
C1087 C1082 1.379 1_554 S
C1087 N1085 1.356 . S
N1088 C1080 1.356 . S
N1088 H1094 0.984 . S
N1088 H1095 0.984 . S
N1089 C1082 1.356 . S
N1089 H1092 0.984 . S
N1089 H1093 0.985 . S
H1090 N1085 0.984 . S
H1091 N1085 0.985 . S
H1092 N1089 0.984 . S
H1093 N1089 0.985 . S
H1094 N1088 0.984 . S
H1095 N1088 0.984 . S
H1096 N1084 0.984 . S
H1097 N1084 0.985 . S
C1098 C1099 1.363 . S
C1098 C1104 1.379 . S
C1098 N1106 1.356 . S
C1099 C1098 1.363 . S
C1099 C1105 1.363 . S
C1100 C1101 1.363 . S
C1100 C1105 1.379 . S
C1100 N1107 1.356 . S
C1101 C1100 1.363 . S
C1101 C1104 1.363 . S
N1102 C1104 1.356 . S
N1102 H1114 0.984 . S
N1102 H1115 0.985 . S
N1103 C1105 1.356 . S
N1103 H1108 0.984 . S
N1103 H1109 0.985 . S
C1104 C1098 1.379 . S
C1104 C1101 1.363 . S
C1104 N1102 1.356 . S
C1105 C1099 1.363 . S
C1105 C1100 1.379 . S
C1105 N1103 1.356 . S
N1106 C1098 1.356 . S
N1106 H1112 0.984 . S
N1106 H1113 0.984 . S
N1107 C1100 1.356 . S
N1107 H1110 0.984 . S
N1107 H1111 0.985 . S
H1108 N1103 0.984 . S
H1109 N1103 0.985 . S
H1110 N1107 0.984 . S
H1111 N1107 0.985 . S
H1112 N1106 0.984 . S
H1113 N1106 0.984 . S
H1114 N1102 0.984 . S
H1115 N1102 0.985 . S
C1116 C1117 1.363 . S
C1116 C1122 1.379 . S
C1116 N1124 1.356 1_545 S
C1117 C1116 1.363 . S
C1117 C1123 1.362 . S
C1118 C1119 1.363 . S
C1118 C1123 1.379 . S
C1118 N1125 1.356 . S
C1119 C1118 1.363 . S
C1119 C1122 1.363 . S
N1120 C1122 1.356 . S
N1120 H1132 0.984 . S
N1120 H1133 0.985 . S
N1121 C1123 1.356 1_565 S
N1121 H1126 0.984 . S
N1121 H1127 0.985 . S
C1122 C1116 1.379 . S
C1122 C1119 1.363 . S
C1122 N1120 1.356 . S
C1123 C1117 1.362 . S
C1123 C1118 1.379 . S
C1123 N1121 1.356 1_545 S
N1124 C1116 1.356 1_565 S
N1124 H1130 0.984 . S
N1124 H1131 0.984 . S
N1125 C1118 1.356 . S
N1125 H1128 0.984 . S
N1125 H1129 0.985 . S
H1126 N1121 0.984 . S
H1127 N1121 0.985 . S
H1128 N1125 0.984 . S
H1129 N1125 0.985 . S
H1130 N1124 0.984 . S
H1131 N1124 0.984 . S
H1132 N1120 0.984 . S
H1133 N1120 0.985 . S
C1134 C1135 1.363 . S
C1134 C1140 1.379 . S
C1134 N1142 1.356 . S
C1135 C1134 1.363 . S
C1135 C1141 1.363 . S
C1136 C1137 1.363 . S
C1136 C1141 1.379 . S
C1136 N1143 1.356 1_655 S
C1137 C1136 1.363 . S
C1137 C1140 1.363 . S
N1138 C1140 1.356 . S
N1138 H1150 0.984 . S
N1138 H1151 0.985 1_655 S
N1139 C1141 1.356 . S
N1139 H1144 0.984 . S
N1139 H1145 0.985 . S
C1140 C1134 1.379 . S
C1140 C1137 1.363 . S
C1140 N1138 1.356 . S
C1141 C1135 1.363 . S
C1141 C1136 1.379 . S
C1141 N1139 1.356 . S
N1142 C1134 1.356 . S
N1142 H1148 0.984 . S
N1142 H1149 0.984 . S
N1143 C1136 1.356 1_455 S
N1143 H1146 0.984 . S
N1143 H1147 0.985 . S
H1144 N1139 0.984 . S
H1145 N1139 0.985 . S
H1146 N1143 0.984 . S
H1147 N1143 0.985 . S
H1148 N1142 0.984 . S
H1149 N1142 0.984 . S
H1150 N1138 0.984 . S
H1151 N1138 0.985 1_455 S
C1152 C1153 1.363 . S
C1152 C1158 1.379 . S
C1152 N1160 1.356 . S
C1153 C1152 1.363 . S
C1153 C1159 1.363 . S
C1154 C1155 1.363 . S
C1154 C1159 1.379 . S
C1154 N1161 1.356 . S
C1155 C1154 1.363 . S
C1155 C1158 1.363 . S
N1156 C1158 1.356 . S
N1156 H1168 0.984 . S
N1156 H1169 0.985 . S
N1157 C1159 1.356 . S
N1157 H1162 0.984 . S
N1157 H1163 0.985 . S
C1158 C1152 1.379 . S
C1158 C1155 1.363 . S
C1158 N1156 1.356 . S
C1159 C1153 1.363 . S
C1159 C1154 1.379 . S
C1159 N1157 1.356 . S
N1160 C1152 1.356 . S
N1160 H1166 0.984 . S
N1160 H1167 0.984 . S
N1161 C1154 1.356 . S
N1161 H1164 0.984 . S
N1161 H1165 0.985 . S
H1162 N1157 0.984 . S
H1163 N1157 0.985 . S
H1164 N1161 0.984 . S
H1165 N1161 0.985 . S
H1166 N1160 0.984 . S
H1167 N1160 0.984 . S
H1168 N1156 0.984 . S
H1169 N1156 0.985 . S
C1170 C1171 1.363 . S
C1170 C1176 1.379 . S
C1170 N1178 1.356 1_565 S
C1171 C1170 1.363 . S
C1171 C1177 1.363 . S
C1172 C1173 1.363 . S
C1172 C1177 1.379 . S
C1172 N1179 1.356 . S
C1173 C1172 1.363 . S
C1173 C1176 1.363 . S
N1174 C1176 1.356 . S
N1174 H1186 0.984 . S
N1174 H1187 0.985 . S
N1175 C1177 1.356 . S
N1175 H1180 0.984 1_565 S
N1175 H1181 0.985 . S
C1176 C1170 1.379 . S
C1176 C1173 1.363 . S
C1176 N1174 1.356 . S
C1177 C1171 1.363 . S
C1177 C1172 1.379 . S
C1177 N1175 1.356 . S
N1178 C1170 1.356 1_545 S
N1178 H1184 0.984 . S
N1178 H1185 0.984 . S
N1179 C1172 1.356 . S
N1179 H1182 0.984 . S
N1179 H1183 0.985 . S
H1180 N1175 0.984 1_545 S
H1181 N1175 0.985 . S
H1182 N1179 0.984 . S
H1183 N1179 0.985 . S
H1184 N1178 0.984 . S
H1185 N1178 0.984 . S
H1186 N1174 0.984 . S
H1187 N1174 0.985 . S
C1188 C1189 1.363 . S
C1188 C1194 1.379 . S
C1188 N1196 1.356 . S
C1189 C1188 1.363 . S
C1189 C1195 1.363 . S
C1190 C1191 1.363 . S
C1190 C1195 1.379 . S
C1190 N1197 1.356 1_455 S
C1191 C1190 1.363 . S
C1191 C1194 1.362 . S
N1192 C1194 1.356 1_655 S
N1192 H1204 0.984 1_655 S
N1192 H1205 0.985 . S
N1193 C1195 1.356 . S
N1193 H1198 0.984 . S
N1193 H1199 0.985 . S
C1194 C1188 1.379 . S
C1194 C1191 1.362 . S
C1194 N1192 1.356 1_455 S
C1195 C1189 1.363 . S
C1195 C1190 1.379 . S
C1195 N1193 1.356 . S
N1196 C1188 1.356 . S
N1196 H1202 0.984 . S
N1196 H1203 0.984 . S
N1197 C1190 1.356 1_655 S
N1197 H1200 0.984 . S
N1197 H1201 0.985 . S
H1198 N1193 0.984 . S
H1199 N1193 0.985 . S
H1200 N1197 0.984 . S
H1201 N1197 0.985 . S
H1202 N1196 0.984 . S
H1203 N1196 0.984 . S
H1204 N1192 0.984 1_455 S
H1205 N1192 0.985 . S
C1206 C1207 1.363 . S
C1206 C1212 1.379 . S
C1206 N1214 1.356 . S
C1207 C1206 1.363 . S
C1207 C1213 1.363 . S
C1208 C1209 1.363 . S
C1208 C1213 1.379 . S
C1208 N1215 1.356 . S
C1209 C1208 1.363 . S
C1209 C1212 1.363 . S
N1210 C1212 1.356 . S
N1210 H1222 0.984 . S
N1210 H1223 0.985 . S
N1211 C1213 1.356 . S
N1211 H1216 0.984 . S
N1211 H1217 0.985 . S
C1212 C1206 1.379 . S
C1212 C1209 1.363 . S
C1212 N1210 1.356 . S
C1213 C1207 1.363 . S
C1213 C1208 1.379 . S
C1213 N1211 1.356 . S
N1214 C1206 1.356 . S
N1214 H1220 0.984 . S
N1214 H1221 0.984 . S
N1215 C1208 1.356 . S
N1215 H1218 0.984 . S
N1215 H1219 0.985 . S
H1216 N1211 0.984 . S
H1217 N1211 0.985 . S
H1218 N1215 0.984 . S
H1219 N1215 0.985 . S
H1220 N1214 0.984 . S
H1221 N1214 0.984 . S
H1222 N1210 0.984 . S
H1223 N1210 0.985 . S
C1224 C1225 1.363 . S
C1224 C1230 1.379 . S
C1224 N1232 1.356 . S
C1225 C1224 1.363 . S
C1225 C1231 1.363 . S
C1226 C1227 1.363 . S
C1226 C1231 1.379 . S
C1226 N1233 1.356 . S
C1227 C1226 1.363 . S
C1227 C1230 1.363 . S
N1228 C1230 1.356 . S
N1228 H1240 0.984 . S
N1228 H1241 0.985 . S
N1229 C1231 1.356 . S
N1229 H1234 0.984 . S
N1229 H1235 0.985 . S
C1230 C1224 1.379 . S
C1230 C1227 1.363 . S
C1230 N1228 1.356 . S
C1231 C1225 1.363 . S
C1231 C1226 1.379 . S
C1231 N1229 1.356 . S
N1232 C1224 1.356 . S
N1232 H1238 0.984 . S
N1232 H1239 0.984 . S
N1233 C1226 1.356 . S
N1233 H1236 0.984 . S
N1233 H1237 0.985 . S
H1234 N1229 0.984 . S
H1235 N1229 0.985 . S
H1236 N1233 0.984 . S
H1237 N1233 0.985 . S
H1238 N1232 0.984 . S
H1239 N1232 0.984 . S
H1240 N1228 0.984 . S
H1241 N1228 0.985 . S
C1242 C1243 1.363 . S
C1242 C1248 1.379 . S
C1242 N1250 1.356 . S
C1243 C1242 1.363 . S
C1243 C1249 1.363 . S
C1244 C1245 1.363 . S
C1244 C1249 1.379 . S
C1244 N1251 1.356 . S
C1245 C1244 1.363 . S
C1245 C1248 1.363 . S
N1246 C1248 1.356 . S
N1246 H1258 0.984 . S
N1246 H1259 0.985 . S
N1247 C1249 1.356 . S
N1247 H1252 0.984 . S
N1247 H1253 0.985 . S
C1248 C1242 1.379 . S
C1248 C1245 1.363 . S
C1248 N1246 1.356 . S
C1249 C1243 1.363 . S
C1249 C1244 1.379 . S
C1249 N1247 1.356 . S
N1250 C1242 1.356 . S
N1250 H1256 0.984 . S
N1250 H1257 0.984 . S
N1251 C1244 1.356 . S
N1251 H1254 0.984 . S
N1251 H1255 0.985 . S
H1252 N1247 0.984 . S
H1253 N1247 0.985 . S
H1254 N1251 0.984 . S
H1255 N1251 0.985 . S
H1256 N1250 0.984 . S
H1257 N1250 0.984 . S
H1258 N1246 0.984 . S
H1259 N1246 0.985 . S
C1260 C1261 1.363 . S
C1260 C1266 1.379 . S
C1260 N1268 1.356 . S
C1261 C1260 1.363 . S
C1261 C1267 1.363 . S
C1262 C1263 1.363 . S
C1262 C1267 1.379 . S
C1262 N1269 1.356 . S
C1263 C1262 1.363 . S
C1263 C1266 1.363 . S
N1264 C1266 1.356 . S
N1264 H1276 0.984 . S
N1264 H1277 0.985 . S
N1265 C1267 1.356 . S
N1265 H1270 0.984 . S
N1265 H1271 0.985 . S
C1266 C1260 1.379 . S
C1266 C1263 1.363 . S
C1266 N1264 1.356 . S
C1267 C1261 1.363 . S
C1267 C1262 1.379 . S
C1267 N1265 1.356 . S
N1268 C1260 1.356 . S
N1268 H1274 0.984 . S
N1268 H1275 0.984 . S
N1269 C1262 1.356 . S
N1269 H1272 0.984 . S
N1269 H1273 0.985 . S
H1270 N1265 0.984 . S
H1271 N1265 0.985 . S
H1272 N1269 0.984 . S
H1273 N1269 0.985 . S
H1274 N1268 0.984 . S
H1275 N1268 0.984 . S
H1276 N1264 0.984 . S
H1277 N1264 0.985 . S
C1278 C1279 1.363 . S
C1278 C1284 1.379 . S
C1278 N1286 1.356 . S
C1279 C1278 1.363 . S
C1279 C1285 1.363 . S
C1280 C1281 1.363 . S
C1280 C1285 1.379 . S
C1280 N1287 1.356 . S
C1281 C1280 1.363 . S
C1281 C1284 1.363 . S
N1282 C1284 1.356 . S
N1282 H1294 0.984 . S
N1282 H1295 0.985 . S
N1283 C1285 1.356 . S
N1283 H1288 0.984 . S
N1283 H1289 0.985 . S
C1284 C1278 1.379 . S
C1284 C1281 1.363 . S
C1284 N1282 1.356 . S
C1285 C1279 1.363 . S
C1285 C1280 1.379 . S
C1285 N1283 1.356 . S
N1286 C1278 1.356 . S
N1286 H1292 0.984 . S
N1286 H1293 0.984 . S
N1287 C1280 1.356 . S
N1287 H1290 0.984 . S
N1287 H1291 0.985 . S
H1288 N1283 0.984 . S
H1289 N1283 0.985 . S
H1290 N1287 0.984 . S
H1291 N1287 0.985 . S
H1292 N1286 0.984 . S
H1293 N1286 0.984 . S
H1294 N1282 0.984 . S
H1295 N1282 0.985 . S
C1296 C1297 1.363 . S
C1296 C1302 1.379 . S
C1296 N1304 1.356 . S
C1297 C1296 1.363 . S
C1297 C1303 1.363 . S
C1298 C1299 1.363 . S
C1298 C1303 1.379 . S
C1298 N1305 1.356 . S
C1299 C1298 1.363 . S
C1299 C1302 1.363 . S
N1300 C1302 1.356 . S
N1300 H1312 0.984 . S
N1300 H1313 0.985 . S
N1301 C1303 1.356 . S
N1301 H1306 0.984 . S
N1301 H1307 0.985 . S
C1302 C1296 1.379 . S
C1302 C1299 1.363 . S
C1302 N1300 1.356 . S
C1303 C1297 1.363 . S
C1303 C1298 1.379 . S
C1303 N1301 1.356 . S
N1304 C1296 1.356 . S
N1304 H1310 0.984 . S
N1304 H1311 0.984 . S
N1305 C1298 1.356 . S
N1305 H1308 0.984 . S
N1305 H1309 0.985 . S
H1306 N1301 0.984 . S
H1307 N1301 0.985 . S
H1308 N1305 0.984 . S
H1309 N1305 0.985 . S
H1310 N1304 0.984 . S
H1311 N1304 0.984 . S
H1312 N1300 0.984 . S
H1313 N1300 0.985 . S
C1314 C1315 1.363 . S
C1314 C1320 1.379 . S
C1314 N1322 1.356 . S
C1315 C1314 1.363 . S
C1315 C1321 1.363 . S
C1316 C1317 1.363 . S
C1316 C1321 1.379 . S
C1316 N1323 1.356 . S
C1317 C1316 1.363 . S
C1317 C1320 1.363 . S
N1318 C1320 1.356 . S
N1318 H1330 0.984 . S
N1318 H1331 0.985 . S
N1319 C1321 1.356 . S
N1319 H1324 0.984 . S
N1319 H1325 0.985 . S
C1320 C1314 1.379 . S
C1320 C1317 1.363 . S
C1320 N1318 1.356 . S
C1321 C1315 1.363 . S
C1321 C1316 1.379 . S
C1321 N1319 1.356 . S
N1322 C1314 1.356 . S
N1322 H1328 0.984 . S
N1322 H1329 0.984 . S
N1323 C1316 1.356 . S
N1323 H1326 0.984 . S
N1323 H1327 0.985 . S
H1324 N1319 0.984 . S
H1325 N1319 0.985 . S
H1326 N1323 0.984 . S
H1327 N1323 0.985 . S
H1328 N1322 0.984 . S
H1329 N1322 0.984 . S
H1330 N1318 0.984 . S
H1331 N1318 0.985 . S
C1332 C1333 1.363 . S
C1332 C1338 1.379 . S
C1332 N1340 1.356 . S
C1333 C1332 1.363 . S
C1333 C1339 1.363 . S
C1334 C1335 1.363 . S
C1334 C1339 1.379 . S
C1334 N1341 1.356 . S
C1335 C1334 1.363 . S
C1335 C1338 1.363 . S
N1336 C1338 1.356 . S
N1336 H1348 0.984 . S
N1336 H1349 0.985 . S
N1337 C1339 1.356 . S
N1337 H1342 0.984 . S
N1337 H1343 0.985 . S
C1338 C1332 1.379 . S
C1338 C1335 1.363 . S
C1338 N1336 1.356 . S
C1339 C1333 1.363 . S
C1339 C1334 1.379 . S
C1339 N1337 1.356 . S
N1340 C1332 1.356 . S
N1340 H1346 0.984 . S
N1340 H1347 0.984 . S
N1341 C1334 1.356 . S
N1341 H1344 0.984 . S
N1341 H1345 0.985 . S
H1342 N1337 0.984 . S
H1343 N1337 0.985 . S
H1344 N1341 0.984 . S
H1345 N1341 0.985 . S
H1346 N1340 0.984 . S
H1347 N1340 0.984 . S
H1348 N1336 0.984 . S
H1349 N1336 0.985 . S
C1350 C1351 1.363 . S
C1350 C1356 1.379 . S
C1350 N1358 1.356 . S
C1351 C1350 1.363 . S
C1351 C1357 1.363 . S
C1352 C1353 1.363 . S
C1352 C1357 1.379 . S
C1352 N1359 1.356 . S
C1353 C1352 1.363 . S
C1353 C1356 1.363 . S
N1354 C1356 1.356 . S
N1354 H1366 0.984 . S
N1354 H1367 0.985 . S
N1355 C1357 1.356 . S
N1355 H1360 0.984 . S
N1355 H1361 0.985 . S
C1356 C1350 1.379 . S
C1356 C1353 1.363 . S
C1356 N1354 1.356 . S
C1357 C1351 1.363 . S
C1357 C1352 1.379 . S
C1357 N1355 1.356 . S
N1358 C1350 1.356 . S
N1358 H1364 0.984 . S
N1358 H1365 0.984 . S
N1359 C1352 1.356 . S
N1359 H1362 0.984 . S
N1359 H1363 0.985 . S
H1360 N1355 0.984 . S
H1361 N1355 0.985 . S
H1362 N1359 0.984 . S
H1363 N1359 0.985 . S
H1364 N1358 0.984 . S
H1365 N1358 0.984 . S
H1366 N1354 0.984 . S
H1367 N1354 0.985 . S
C1368 C1369 1.363 . S
C1368 C1374 1.379 . S
C1368 N1376 1.356 . S
C1369 C1368 1.363 . S
C1369 C1375 1.363 . S
C1370 C1371 1.363 . S
C1370 C1375 1.379 . S
C1370 N1377 1.356 . S
C1371 C1370 1.363 . S
C1371 C1374 1.363 . S
N1372 C1374 1.356 . S
N1372 H1384 0.984 . S
N1372 H1385 0.985 . S
N1373 C1375 1.356 . S
N1373 H1378 0.984 . S
N1373 H1379 0.985 . S
C1374 C1368 1.379 . S
C1374 C1371 1.363 . S
C1374 N1372 1.356 . S
C1375 C1369 1.363 . S
C1375 C1370 1.379 . S
C1375 N1373 1.356 . S
N1376 C1368 1.356 . S
N1376 H1382 0.984 . S
N1376 H1383 0.984 . S
N1377 C1370 1.356 . S
N1377 H1380 0.984 . S
N1377 H1381 0.985 . S
H1378 N1373 0.984 . S
H1379 N1373 0.985 . S
H1380 N1377 0.984 . S
H1381 N1377 0.985 . S
H1382 N1376 0.984 . S
H1383 N1376 0.984 . S
H1384 N1372 0.984 . S
H1385 N1372 0.985 . S
C1386 C1387 1.363 . S
C1386 C1392 1.379 . S
C1386 N1394 1.356 . S
C1387 C1386 1.363 . S
C1387 C1393 1.363 . S
C1388 C1389 1.363 . S
C1388 C1393 1.379 . S
C1388 N1395 1.356 . S
C1389 C1388 1.363 . S
C1389 C1392 1.363 . S
N1390 C1392 1.356 . S
N1390 H1402 0.984 . S
N1390 H1403 0.985 . S
N1391 C1393 1.356 . S
N1391 H1396 0.984 . S
N1391 H1397 0.985 . S
C1392 C1386 1.379 . S
C1392 C1389 1.363 . S
C1392 N1390 1.356 . S
C1393 C1387 1.363 . S
C1393 C1388 1.379 . S
C1393 N1391 1.356 . S
N1394 C1386 1.356 . S
N1394 H1400 0.984 . S
N1394 H1401 0.984 . S
N1395 C1388 1.356 . S
N1395 H1398 0.984 . S
N1395 H1399 0.985 . S
H1396 N1391 0.984 . S
H1397 N1391 0.985 . S
H1398 N1395 0.984 . S
H1399 N1395 0.985 . S
H1400 N1394 0.984 . S
H1401 N1394 0.984 . S
H1402 N1390 0.984 . S
H1403 N1390 0.985 . S
C1404 C1405 1.363 . S
C1404 C1410 1.379 . S
C1404 N1412 1.356 . S
C1405 C1404 1.363 . S
C1405 C1411 1.363 . S
C1406 C1407 1.363 . S
C1406 C1411 1.379 . S
C1406 N1413 1.356 . S
C1407 C1406 1.363 . S
C1407 C1410 1.363 . S
N1408 C1410 1.356 . S
N1408 H1420 0.984 . S
N1408 H1421 0.985 . S
N1409 C1411 1.356 . S
N1409 H1414 0.984 . S
N1409 H1415 0.985 . S
C1410 C1404 1.379 . S
C1410 C1407 1.363 . S
C1410 N1408 1.356 . S
C1411 C1405 1.363 . S
C1411 C1406 1.379 . S
C1411 N1409 1.356 . S
N1412 C1404 1.356 . S
N1412 H1418 0.984 . S
N1412 H1419 0.984 . S
N1413 C1406 1.356 . S
N1413 H1416 0.984 . S
N1413 H1417 0.985 . S
H1414 N1409 0.984 . S
H1415 N1409 0.985 . S
H1416 N1413 0.984 . S
H1417 N1413 0.985 . S
H1418 N1412 0.984 . S
H1419 N1412 0.984 . S
H1420 N1408 0.984 . S
H1421 N1408 0.985 . S
C613 C349 1.323 . S
C615 C9 1.323 . S
C631 C43 1.323 . S
C633 C383 1.323 . S
C649 C315 1.323 . S
C651 C77 1.323 . S
C667 C485 1.323 . S
C669 C111 1.323 . S
C685 C145 1.323 . S
C687 C417 1.323 . S
C703 C451 1.323 . S
C705 C179 1.323 . S
C721 C172 2.024 . S
C723 C478 2.024 . S
C739 C410 2.024 . S
C741 C104 2.024 . S
C757 C444 2.024 . S
C759 C138 2.024 . S
C775 C36 2.024 . S
C777 C342 2.024 . S
C793 C70 2.024 . S
C795 C376 2.024 . S
C811 C2 2.024 . S
C813 C308 2.024 . S
C829 C553 1.323 . S
C831 C213 1.323 . S
C847 C587 1.323 . S
C849 C247 1.323 . S
C865 C519 1.323 . S
C867 C281 1.323 . S
C883 C240 2.024 . S
C885 C546 2.024 . S
C901 C580 2.024 . S
C903 C274 2.024 . S
C919 C206 2.024 . S
C921 C512 2.024 . S
C937 C33 1.438 . S
C939 C611 1.438 . S
C955 C67 1.438 . S
C957 C543 1.438 . S
C973 C101 1.438 . S
C975 C577 1.438 . S
C991 C271 1.438 . S
C993 C135 1.438 . S
C1009 C169 1.438 . S
C1011 C305 1.438 . S
C1027 C203 1.438 . S
C1029 C237 1.438 . S
C1045 C339 1.438 . S
C1047 C475 1.438 . S
C1063 C373 1.438 . S
C1065 C509 1.438 . S
C1081 C407 1.438 . S
C1083 C441 1.438 . S
C1099 C73 1.645 . S
C1101 C20 1.835 . S
C1117 C54 1.836 1_545 S
C1119 C5 1.645 . S
C1135 C39 1.645 . S
C1137 C88 1.835 1_655 S
C1153 C141 1.645 . S
C1155 C122 1.835 . S
C1171 C156 1.835 1_565 S
C1173 C175 1.645 . S
C1189 C107 1.645 . S
C1191 C190 1.836 1_455 S
C1207 C224 1.835 . S
C1209 C277 1.645 . S
C1225 C209 1.645 . S
C1227 C258 1.835 . S
C1243 C292 1.835 . S
C1245 C243 1.645 . S
C1261 C326 1.835 . S
C1263 C345 1.645 . S
C1279 C379 1.645 . S
C1281 C360 1.835 . S
C1297 C394 1.835 . S
C1299 C311 1.645 . S
C1315 C428 1.835 . S
C1317 C481 1.645 . S
C1333 C413 1.645 . S
C1335 C462 1.835 . S
C1351 C496 1.835 . S
C1353 C447 1.645 . S
C1369 C530 1.835 . S
C1371 C549 1.645 . S
C1387 C583 1.645 . S
C1389 C564 1.835 . S
C1405 C515 1.645 . S
C1407 C598 1.835 . S
