# Generated by pormake.
# Topology smc, (6)-cn, num edge types: 1
# Building blocks:
#     Node 0, Type 0, BuildingBlock: PAMTOO_clean_sbu_0, # of connection points: 6
#     Node 1, Type 0, BuildingBlock: PAMTOO_clean_sbu_0, # of connection points: 6
#     Node 2, Type 0, BuildingBlock: PAMTOO_clean_sbu_0, # of connection points: 6
#     Node 3, Type 0, BuildingBlock: PAMTOO_clean_sbu_0, # of connection points: 6
#     Node 4, Type 0, BuildingBlock: PAMTOO_clean_sbu_0, # of connection points: 6
#     Node 5, Type 0, BuildingBlock: PAMTOO_clean_sbu_0, # of connection points: 6
#     Node 6, Type 0, BuildingBlock: PAMTOO_clean_sbu_0, # of connection points: 6
#     Node 7, Type 0, BuildingBlock: PAMTOO_clean_sbu_0, # of connection points: 6
#     Node 8, Type 0, BuildingBlock: PAMTOO_clean_sbu_0, # of connection points: 6
#     Edge 9, Type (0, 0), BuildingBlock: CIFDUS_clean_linker_0, # of connection points: 2
#     Edge 10, Type (0, 0), BuildingBlock: CIFDUS_clean_linker_0, # of connection points: 2
#     Edge 11, Type (0, 0), BuildingBlock: CIFDUS_clean_linker_0, # of connection points: 2
#     Edge 12, Type (0, 0), BuildingBlock: CIFDUS_clean_linker_0, # of connection points: 2
#     Edge 13, Type (0, 0), BuildingBlock: CIFDUS_clean_linker_0, # of connection points: 2
#     Edge 14, Type (0, 0), BuildingBlock: CIFDUS_clean_linker_0, # of connection points: 2
#     Edge 15, Type (0, 0), BuildingBlock: CIFDUS_clean_linker_0, # of connection points: 2
#     Edge 16, Type (0, 0), BuildingBlock: CIFDUS_clean_linker_0, # of connection points: 2
#     Edge 17, Type (0, 0), BuildingBlock: CIFDUS_clean_linker_0, # of connection points: 2
#     Edge 18, Type (0, 0), BuildingBlock: CIFDUS_clean_linker_0, # of connection points: 2
#     Edge 19, Type (0, 0), BuildingBlock: CIFDUS_clean_linker_0, # of connection points: 2
#     Edge 20, Type (0, 0), BuildingBlock: CIFDUS_clean_linker_0, # of connection points: 2
#     Edge 21, Type (0, 0), BuildingBlock: CIFDUS_clean_linker_0, # of connection points: 2
#     Edge 22, Type (0, 0), BuildingBlock: CIFDUS_clean_linker_0, # of connection points: 2
#     Edge 23, Type (0, 0), BuildingBlock: CIFDUS_clean_linker_0, # of connection points: 2
#     Edge 24, Type (0, 0), BuildingBlock: CIFDUS_clean_linker_0, # of connection points: 2
#     Edge 25, Type (0, 0), BuildingBlock: CIFDUS_clean_linker_0, # of connection points: 2
#     Edge 26, Type (0, 0), BuildingBlock: CIFDUS_clean_linker_0, # of connection points: 2
#     Edge 27, Type (0, 0), BuildingBlock: CIFDUS_clean_linker_0, # of connection points: 2
#     Edge 28, Type (0, 0), BuildingBlock: CIFDUS_clean_linker_0, # of connection points: 2
#     Edge 29, Type (0, 0), BuildingBlock: CIFDUS_clean_linker_0, # of connection points: 2
#     Edge 30, Type (0, 0), BuildingBlock: CIFDUS_clean_linker_0, # of connection points: 2
#     Edge 31, Type (0, 0), BuildingBlock: CIFDUS_clean_linker_0, # of connection points: 2
#     Edge 32, Type (0, 0), BuildingBlock: CIFDUS_clean_linker_0, # of connection points: 2
#     Edge 33, Type (0, 0), BuildingBlock: CIFDUS_clean_linker_0, # of connection points: 2
#     Edge 34, Type (0, 0), BuildingBlock: CIFDUS_clean_linker_0, # of connection points: 2
#     Edge 35, Type (0, 0), BuildingBlock: CIFDUS_clean_linker_0, # of connection points: 2
# Relax obj value: 0.340
# Max RMSD: 0.361
# Mean RMSD: 0.320
data_MOF--net-smc--node1-PAMTOO_clean_sbu_0--edge1-CIFDUS_clean_linker_0
_symmetry_space_group_name_H-M    P1
_symmetry_Int_Tables_number       1
_symmetry_cell_setting            triclinic
loop_
_symmetry_equiv_pos_as_xyz
'x, y, z'
_cell_length_a     38.958715
_cell_length_b     28.281288
_cell_length_c     34.491623
_cell_angle_alpha  90.194451
_cell_angle_beta   90.05704
_cell_angle_gamma 119.58918
loop_
_atom_site_label
_atom_site_type_symbol
_atom_site_fract_x
_atom_site_fract_y
_atom_site_fract_z
_atom_type_partial_charge
Dy0 Dy 0.09132 0.42283 0.98894 0.0
Dy1 Dy 0.08384 0.52969 1.00754 0.0
C2 C 0.12356 0.48405 0.06976 0.0
O3 O 1.02776 0.39165 1.00578 0.0
O4 O 1.03502 0.46474 0.04124 0.0
O5 O 0.08173 0.34244 1.00149 0.0
O6 O 0.10826 0.38159 0.947 0.0
O7 O 1.03681 0.48573 0.96185 0.0
O8 O 1.06228 0.43462 0.93632 0.0
O9 O 0.13033 0.55245 0.96313 0.0
O10 O 0.15255 0.49782 0.98597 0.0
O11 O 0.07284 0.59446 0.99057 0.0
O12 O 0.0954 0.59443 0.04782 0.0
C13 C 1.01393 0.41389 0.03034 0.0
O14 O 0.10715 0.43665 0.05209 0.0
O15 O 0.12413 0.52668 0.05364 0.0
C16 C 0.12555 0.31892 0.97108 0.0
C17 C 0.18582 0.29204 0.96604 0.0
C18 C 0.18648 0.32711 0.99551 0.0
C19 C 0.15663 0.34064 0.9979 0.0
C20 C 0.1233 0.28116 0.94334 0.0
C21 C 0.15324 0.26775 0.9408 0.0
C22 C 0.09755 0.33912 0.96898 0.0
C23 C 1.0374 0.45332 0.93463 0.0
C24 C 0.15969 0.54371 0.9694 0.0
C25 C 1.04908 0.62323 0.04287 0.0
C26 C 0.98942 0.63576 0.07887 0.0
C27 C 0.98018 0.58734 0.05905 0.0
C28 C 1.0098 0.58102 0.04141 0.0
C29 C 1.0587 0.67109 0.06322 0.0
C30 C 1.02907 0.67734 0.08119 0.0
C31 C 0.08021 0.61595 0.02518 0.0
H32 H 0.21153 0.34738 0.01493 0.0
H33 H 0.15888 0.37016 0.01934 0.0
H34 H 0.09938 0.2641 0.92241 0.0
H35 H 0.15197 0.24067 0.91786 0.0
H36 H 0.94992 0.55485 0.05618 0.0
H37 H 1.00201 0.54332 0.02635 0.0
H38 H 0.08908 0.70354 0.06523 0.0
H39 H 1.03716 0.71478 0.09669 0.0
Dy40 Dy 0.65399 0.67312 0.03199 0.0
Dy41 Dy 0.5779 0.63163 0.98851 0.0
C42 C 0.66438 0.67456 0.94146 0.0
O43 O 0.63629 0.74383 0.03163 0.0
O44 O 0.58827 0.71679 0.98565 0.0
O45 O 0.71494 0.73411 0.04112 0.0
O46 O 0.68178 0.67931 0.08734 0.0
O47 O 0.57208 0.65388 0.05259 0.0
O48 O 0.60794 0.61883 0.07198 0.0
O49 O 0.57309 0.55167 1.00858 0.0
O50 O 0.63785 0.58133 0.02006 0.0
O51 O 0.54147 0.58226 0.94092 0.0
O52 O 0.51785 0.61496 0.98343 0.0
C53 C 0.61112 0.7539 1.01077 0.0
O54 O 0.68095 0.6771 0.9748 0.0
O55 O 0.62633 0.66119 0.94026 0.0
C56 C 0.75005 0.71266 0.08613 0.0
C57 C 0.81858 0.7066 0.10053 0.0
C58 C 0.78603 0.66345 0.08179 0.0
C59 C 0.75199 0.66655 0.07452 0.0
C60 C 0.78183 0.75493 0.10594 0.0
C61 C 0.81598 0.75202 0.11305 0.0
C62 C 0.7159 0.71843 0.07633 0.0
C63 C 0.58611 0.63901 0.0821 0.0
C64 C 0.60119 0.53923 0.01444 0.0
C65 C 0.47564 0.5253 0.96085 0.0
C66 C 0.40838 0.42185 0.96999 0.0
C67 C 0.42043 0.46106 0.99973 0.0
C68 C 0.45367 0.51203 0.99528 0.0
C69 C 0.46479 0.48557 0.93174 0.0
C70 C 0.43157 0.43419 0.93632 0.0
C71 C 0.5098 0.58013 0.95527 0.0
H72 H 0.78751 0.62836 0.0713 0.0
H73 H 0.72762 0.6337 0.05903 0.0
H74 H 0.78055 0.79072 0.11511 0.0
H75 H 0.8406 0.78563 0.12768 0.0
H76 H 0.403 0.45371 0.02574 0.0
H77 H 0.46139 0.54145 0.01852 0.0
H78 H 0.48157 0.4946 0.90511 0.0
H79 H 0.42333 0.40479 0.913 0.0
Dy80 Dy 0.4997 0.07057 0.01278 0.0
Dy81 Dy 0.58449 0.12696 0.04879 0.0
C82 C 0.50444 0.0788 0.10243 0.0
O83 O 0.52172 0.16695 1.00848 0.0
O84 O 0.57782 0.20155 0.04586 0.0
O85 O 0.43836 1.0157 0.02388 0.0
O86 O 0.45654 1.04675 0.96577 0.0
O87 O 0.58641 0.15413 0.9851 0.0
O88 O 0.5384 0.07242 0.9661 0.0
O89 O 0.58139 1.04853 0.0287 0.0
O90 O 0.51462 0.99974 0.02377 0.0
O91 O 0.63887 0.12572 0.05419 0.0
O92 O 0.63181 0.18663 0.08561 0.0
C93 C 0.55279 0.21045 0.02568 0.0
O94 O 0.48911 0.0887 0.07231 0.0
O95 O 0.54025 0.08428 0.09927 0.0
C96 C 0.39999 0.95718 0.97344 0.0
C97 C 0.34089 0.84769 0.95755 0.0
C98 C 0.37897 0.86013 0.97002 0.0
C99 C 0.40814 0.91423 0.97794 0.0
C100 C 0.3625 0.9451 0.96022 0.0
C101 C 0.3334 0.8913 0.95246 0.0
C102 C 0.42748 1.01297 0.98787 0.0
C103 C 0.56636 0.12017 0.9566 0.0
C104 C 0.54957 1.00089 0.02492 0.0
C105 C 0.69727 0.2063 0.06884 0.0
C106 C 0.77887 0.26042 0.0519 0.0
C107 C 0.75088 0.25044 0.02252 0.0
C108 C 0.71042 0.22352 0.03091 0.0
C109 C 0.72507 0.21855 0.09847 0.0
C110 C 0.76543 0.24534 0.09016 0.0
C111 C 0.65545 0.16786 0.077 0.0
H112 H 0.3862 0.8281 0.97398 0.0
H113 H 0.43669 0.92234 0.98866 0.0
H114 H 0.35514 0.9772 0.95732 0.0
H115 H 0.30444 0.88389 0.94378 0.0
H116 H 0.76018 0.2623 0.99288 0.0
H117 H 0.68938 0.21406 1.00753 0.0
H118 H 0.71547 0.20486 0.12782 0.0
H119 H 0.78595 0.25175 0.11346 0.0
Dy120 Dy 0.76809 0.79982 0.34323 0.0
Dy121 Dy 0.69481 0.83748 0.36931 0.0
C122 C 0.76035 0.8331 0.43127 0.0
O123 O 0.70319 0.72432 0.34483 0.0
O124 O 0.68537 0.76024 0.39385 0.0
O125 O 0.82 0.82391 0.30652 0.0
O126 O 0.80868 0.76623 0.35184 0.0
O127 O 0.67809 0.79813 0.30884 0.0
O128 O 0.73169 0.78769 0.28916 0.0
O129 O 0.74135 0.90486 0.33521 0.0
O130 O 0.7922 0.88948 0.35176 0.0
O131 O 0.63305 0.80909 0.38236 0.0
O132 O 0.67473 0.89512 0.38563 0.0
C133 C 0.67511 0.72021 0.36956 0.0
O134 O 0.76739 0.80239 0.40747 0.0
O135 O 0.73723 0.8543 0.42173 0.0
C136 C 0.88005 0.82225 0.32988 0.0
C137 C 0.96759 0.86539 0.32892 0.0
C138 C 0.94942 0.89572 0.31579 0.0
C139 C 0.90746 0.87495 0.31611 0.0
C140 C 0.89796 0.79207 0.34367 0.0
C141 C 0.94009 0.8129 0.34342 0.0
C142 C 0.83398 0.79677 0.32515 0.0
C143 C 0.69667 0.78388 0.28278 0.0
C144 C 0.77908 0.92181 0.33974 0.0
C145 C 0.60414 0.86841 0.37847 0.0
C146 C 0.53777 0.88757 0.36831 0.0
C147 C 0.57732 0.93077 0.36797 0.0
C148 C 0.60978 0.92141 0.3731 0.0
C149 C 0.56474 0.82555 0.37905 0.0
C150 C 0.53253 0.83482 0.37421 0.0
C151 C 0.63766 0.85743 0.38885 0.0
H152 H 0.96765 0.93648 0.30495 0.0
H153 H 0.89642 0.90055 0.30472 0.0
H154 H 0.87912 0.75109 0.354 0.0
H155 H 0.95091 0.78661 0.35378 0.0
H156 H 0.58338 0.97204 0.36348 0.0
H157 H 0.63938 0.95597 0.37333 0.0
H158 H 0.55854 0.78432 0.3843 0.0
H159 H 0.50318 0.79999 0.37606 0.0
Dy160 Dy 0.30548 1.02335 0.33397 0.0
Dy161 Dy 0.26768 0.9086 0.33168 0.0
C162 C 0.29081 0.97044 0.41607 0.0
O163 O 0.35539 1.00401 0.35297 0.0
O164 O 0.32477 0.9119 0.34303 0.0
O165 O 0.32774 0.10507 0.3559 0.0
O166 O 0.32681 0.08923 0.29392 0.0
O167 O 0.29608 0.94003 0.27109 0.0
O168 O 0.34671 1.0162 0.29348 0.0
O169 O 0.22172 0.92452 0.35908 0.0
O170 O 0.23795 0.98952 0.31692 0.0
O171 O 0.21017 0.85429 0.30917 0.0
O172 O 0.24865 0.82273 0.32757 0.0
C173 C 0.35681 0.95745 0.35192 0.0
O174 O 0.29546 1.01317 0.39711 0.0
O175 O 0.2823 0.92488 0.3969 0.0
C176 C 0.31134 0.15516 0.3117 0.0
C177 C 0.26382 0.19853 0.28775 0.0
C178 C 0.25983 0.17678 0.32521 0.0
C179 C 0.28311 0.15484 0.33695 0.0
C180 C 0.31625 0.17823 0.27473 0.0
C181 C 0.29244 0.19933 0.26269 0.0
C182 C 0.33146 0.12452 0.32075 0.0
C183 C 0.33292 0.97965 0.26661 0.0
C184 C 0.20943 0.95212 0.33888 0.0
C185 C 0.20987 0.78776 0.26991 0.0
C186 C 0.19025 0.71899 0.20603 0.0
C187 C 0.16397 0.73669 0.21834 0.0
C188 C 0.17289 0.76821 0.252 0.0
C189 C 0.23986 0.7847 0.24968 0.0
C190 C 0.23039 0.75247 0.2164 0.0
C191 C 0.21687 0.81356 0.30823 0.0
H192 H 0.23909 0.17734 0.34583 0.0
H193 H 0.27845 0.13684 0.36549 0.0
H194 H 0.33761 0.17817 0.25465 0.0
H195 H 0.2963 0.21597 0.23376 0.0
H196 H 0.13384 0.71681 0.20774 0.0
H197 H 0.15016 0.77423 0.26535 0.0
H198 H 0.26979 0.80402 0.26079 0.0
H199 H 0.25333 0.74606 0.2041 0.0
Dy200 Dy 0.12561 0.43209 0.3641 0.0
Dy201 Dy 0.22784 0.48685 0.37849 0.0
C202 C 0.15602 0.42938 0.44281 0.0
O203 O 0.15656 0.51706 0.38674 0.0
O204 O 0.2196 0.55737 0.36587 0.0
O205 O 0.0701 0.41095 0.39172 0.0
O206 O 0.07311 0.40472 0.32927 0.0
O207 O 0.21469 0.47623 0.31211 0.0
O208 O 0.15331 0.47095 0.30931 0.0
O209 O 0.2033 0.4011 0.35857 0.0
O210 O 0.13703 0.368 0.3413 0.0
O211 O 0.28909 0.54956 0.36883 0.0
O212 O 0.2774 0.48268 0.40671 0.0
C213 C 0.18572 0.55648 0.36767 0.0
O214 O 0.13883 0.39603 0.41411 0.0
O215 O 0.19102 0.47332 0.4355 0.0
C216 C 1.01767 0.33578 0.35991 0.0
C217 C 0.95968 0.2253 0.35231 0.0
C218 C 0.99365 0.24082 0.37505 0.0
C219 C 1.02253 0.29538 0.37841 0.0
C220 C 0.9834 0.3209 0.33818 0.0
C221 C 0.95462 0.2661 0.33433 0.0
C222 C 1.05019 0.39225 0.35946 0.0
C223 C 0.18476 0.47528 0.29219 0.0
C224 C 0.16938 0.36449 0.34302 0.0
C225 C 0.34753 0.5405 0.3849 0.0
C226 C 0.43245 0.57871 0.38126 0.0
C227 C 0.41227 0.5883 0.35075 0.0
C228 C 0.37088 0.57008 0.35269 0.0
C229 C 0.36749 0.52921 0.41448 0.0
C230 C 0.40865 0.54778 0.41276 0.0
C231 C 0.30464 0.52781 0.39101 0.0
H232 H 0.99826 0.21074 0.38991 0.0
H233 H 1.04918 0.30579 0.39457 0.0
H234 H 0.97951 0.3515 0.32312 0.0
H235 H 0.92913 0.25567 0.31621 0.0
H236 H 0.4288 0.61214 0.32604 0.0
H237 H 0.35741 0.5807 0.32932 0.0
H238 H 0.35142 0.50739 0.44004 0.0
H239 H 0.42209 0.5386 0.43693 0.0
Dy240 Dy 0.42265 0.06885 0.6933 0.0
Dy241 Dy 0.40443 0.16655 0.70727 0.0
C242 C 0.45663 0.14138 0.76933 0.0
O243 O 0.35653 1.03363 0.70076 0.0
O244 O 0.36064 0.098 0.74225 0.0
O245 O 0.40579 0.9866 0.70875 0.0
O246 O 0.45026 1.02827 0.66453 0.0
O247 O 0.36778 0.11843 0.65432 0.0
O248 O 0.40593 0.08218 0.63453 0.0
O249 O 0.45637 0.20141 0.66872 0.0
O250 O 0.48187 0.14827 0.68862 0.0
O251 O 0.38711 0.22333 0.68553 0.0
O252 O 0.39938 0.22247 0.74649 0.0
C253 C 0.34009 1.04983 0.72699 0.0
O254 O 0.44024 0.09196 0.75498 0.0
O255 O 0.45141 0.17931 0.75234 0.0
C256 C 0.45693 0.96539 0.70378 0.0
C257 C 0.51702 0.94805 0.73317 0.0
C258 C 0.49511 0.96229 0.75832 0.0
C259 C 0.46567 0.97175 0.74361 0.0
C260 C 0.47503 0.94438 0.67968 0.0
C261 C 0.50484 0.93574 0.69419 0.0
C262 C 0.43205 0.98501 0.6862 0.0
C263 C 0.37755 0.09314 0.6277 0.0
C264 C 0.48678 0.19447 0.67391 0.0
C265 C 0.34941 0.24204 0.72981 0.0
C266 C 0.27984 0.24439 0.7483 0.0
C267 C 0.27848 0.19475 0.73987 0.0
C268 C 0.31304 0.19359 0.73077 0.0
C269 C 0.35103 0.29141 0.7387 0.0
C270 C 0.31656 0.29264 0.74788 0.0
C271 C 0.38583 0.24152 0.71993 0.0
H272 H 0.50314 0.97096 0.78864 0.0
H273 H 0.45157 0.98723 0.76294 0.0
H274 H 0.4682 0.93853 0.64897 0.0
H275 H 0.52091 0.92494 0.67373 0.0
H276 H 0.25073 0.15687 0.74027 0.0
H277 H 0.31139 0.15499 0.72427 0.0
H278 H 0.37892 0.32912 0.73817 0.0
H279 H 0.31855 0.33159 0.75364 0.0
Dy280 Dy 0.97821 0.34896 0.6977 0.0
Dy281 Dy 0.90039 0.30575 0.65617 0.0
C282 C 0.98421 0.35512 0.60602 0.0
O283 O 0.95897 0.41806 0.70109 0.0
O284 O 0.91458 0.39309 0.65181 0.0
O285 O 1.04067 0.37896 0.70007 0.0
O286 O 1.00994 0.38067 0.75189 0.0
O287 O 0.89791 0.32253 0.7219 0.0
O288 O 0.93559 0.28805 0.73706 0.0
O289 O 0.89522 0.22423 0.67232 0.0
O290 O 0.95982 0.25568 0.6867 0.0
O291 O 0.85309 0.24218 0.62247 0.0
O292 O 0.84608 0.30715 0.64718 0.0
C293 C 0.93502 0.42892 0.67882 0.0
O294 O 1.00248 0.37441 0.63876 0.0
O295 O 0.94494 0.32481 0.60562 0.0
C296 C 0.06537 0.3677 0.75874 0.0
C297 C 0.11613 0.32935 0.78344 0.0
C298 C 0.0766 0.29256 0.77356 0.0
C299 C 1.05143 0.31162 0.76114 0.0
C300 C 0.10365 0.40433 0.77136 0.0
C301 C 0.12884 0.38539 0.78366 0.0
C302 C 1.04321 0.38857 0.73722 0.0
C303 C 0.91122 0.30299 0.74903 0.0
C304 C 0.92357 0.21295 0.6798 0.0
C305 C 0.79469 0.21821 0.6558 0.0
C306 C 0.73297 0.13996 0.70097 0.0
C307 C 0.76632 0.18228 0.71888 0.0
C308 C 0.79699 0.22084 0.6965 0.0
C309 C 0.76183 0.1754 0.63772 0.0
C310 C 0.73108 0.13643 0.66019 0.0
C311 C 0.82827 0.25797 0.63306 0.0
H312 H 0.06568 0.24914 0.77365 0.0
H313 H 1.02189 0.28277 0.75134 0.0
H314 H 0.11494 0.44777 0.76936 0.0
H315 H 0.15912 0.41498 0.79062 0.0
H316 H 0.76851 0.18578 0.75019 0.0
H317 H 0.82251 0.2529 0.71111 0.0
H318 H 0.75993 0.17225 0.60639 0.0
H319 H 0.7053 0.10451 0.64571 0.0
Dy320 Dy 0.81527 0.73868 0.68207 0.0
Dy321 Dy 0.90325 0.80442 0.70731 0.0
C322 C 0.83021 0.74905 0.77065 0.0
O323 O 0.83335 0.83525 0.68558 0.0
O324 O 0.89605 0.87751 0.71149 0.0
O325 O 0.75358 0.70419 0.69844 0.0
O326 O 0.76872 0.69534 0.63994 0.0
O327 O 0.89344 0.83158 0.64631 0.0
O328 O 0.84378 0.7518 0.62572 0.0
O329 O 0.89631 0.71889 0.7059 0.0
O330 O 0.8355 0.67251 0.67835 0.0
O331 O 0.96007 0.83056 0.68233 0.0
O332 O 0.95602 0.84482 0.74449 0.0
C333 C 0.866 0.88169 0.69838 0.0
O334 O 0.81275 0.71378 0.74304 0.0
O335 O 0.86612 0.79082 0.76371 0.0
C336 C 0.71112 0.62048 0.66594 0.0
C337 C 0.65414 0.50747 0.66183 0.0
C338 C 0.69455 0.5248 0.66705 0.0
C339 C 0.72272 0.58066 0.66896 0.0
C340 C 0.67082 0.60328 0.66207 0.0
C341 C 0.64278 0.54774 0.66011 0.0
C342 C 0.74046 0.67973 0.66522 0.0
C343 C 0.86972 0.80132 0.6179 0.0
C344 C 0.86847 0.67326 0.69056 0.0
C345 C 1.02246 0.87531 0.7167 0.0
C346 C 0.10466 0.91135 0.71679 0.0
C347 C 0.08463 0.90822 0.68209 0.0
C348 C 1.04417 0.89031 0.68203 0.0
C349 C 1.04253 0.88048 0.75171 0.0
C350 C 0.08323 0.8983 0.75177 0.0
C351 C 0.97874 0.84926 0.71513 0.0
H352 H 0.70458 0.4953 0.66837 0.0
H353 H 0.75365 0.59275 0.67206 0.0
H354 H 0.66099 0.63295 0.65992 0.0
H355 H 0.61198 0.53634 0.65693 0.0
H356 H 0.10019 0.91924 0.6547 0.0
H357 H 1.02972 0.88716 0.65454 0.0
H358 H 1.02654 0.86881 0.77885 0.0
H359 H 0.09757 0.90003 0.77906 0.0
H360 H 0.35521 0.3759 0.9114 0.0
H361 H 0.37154 0.3577 0.03315 0.0
H362 H 0.30027 0.30222 0.04133 0.0
H363 H 0.23454 0.27997 0.01693 0.0
H364 H 0.21947 0.30114 0.89556 0.0
H365 H 0.28885 0.33174 0.88379 0.0
C366 C 0.34352 0.35794 0.93942 0.0
C367 C 0.36858 0.37287 0.97196 0.0
C368 C 0.30255 0.327 0.94406 0.0
C369 C 0.3527 0.34855 1.00792 0.0
C370 C 0.31194 0.31681 0.01263 0.0
C371 C 0.24629 0.2897 0.98774 0.0
C372 C 0.22234 0.29014 0.95741 0.0
C373 C 0.28661 0.30913 0.98144 0.0
C374 C 0.23744 0.30118 0.9195 0.0
C375 C 0.27728 0.31926 0.91281 0.0
H376 H 0.61421 0.98505 0.04478 0.0
H377 H 0.49703 0.89655 0.99635 0.0
H378 H 0.50565 0.81685 0.98716 0.0
H379 H 0.54662 0.76994 0.99165 0.0
H380 H 0.66182 0.85587 0.04454 0.0
H381 H 0.65368 0.93618 0.05285 0.0
C382 C 0.59018 0.94843 0.03229 0.0
C383 C 0.55456 0.94896 0.02131 0.0
C384 C 0.59516 0.90098 0.02762 0.0
C385 C 0.5246 0.89941 1.00545 0.0
C386 C 0.52971 0.85311 1.00001 0.0
C387 C 0.57029 0.80607 1.00504 0.0
C388 C 0.60548 0.80499 0.01689 0.0
C389 C 0.56489 0.85299 1.01074 0.0
C390 C 0.63462 0.85351 0.03468 0.0
C391 C 0.62983 0.90021 0.03949 0.0
H392 H 0.3252 0.754 0.99733 0.0
H393 H 0.28324 0.81008 0.90164 0.0
H394 H 0.22589 0.72006 0.89476 0.0
H395 H 0.18429 0.62751 0.9191 0.0
H396 H 0.22576 0.56864 0.01304 0.0
H397 H 0.28695 0.65663 0.01643 0.0
C398 C 0.30399 0.74645 0.97445 0.0
C399 C 0.30852 0.78996 0.95071 0.0
C400 C 0.27083 0.69372 0.97019 0.0
C401 C 0.28031 0.77854 0.9213 0.0
C402 C 0.24746 0.72668 0.91705 0.0
C403 C 0.20708 0.63347 0.93981 0.0
C404 C 0.20029 0.59135 0.9658 0.0
C405 C 0.24191 0.68432 0.94186 0.0
C406 C 0.23025 0.59993 0.99238 0.0
C407 C 0.26511 0.65061 0.99461 0.0
H408 H 0.50995 0.2703 1.0071 0.0
H409 H 0.62639 0.29847 0.03587 0.0
H410 H 0.65175 0.39572 0.03564 0.0
H411 H 0.64339 0.47862 0.02857 0.0
H412 H 0.5273 0.45167 1.00013 0.0
H413 H 0.50174 0.35397 0.99918 0.0
C414 C 0.54098 0.29714 0.01309 0.0
C415 C 0.5653 0.27311 0.02168 0.0
C416 C 0.55657 0.35627 0.01327 0.0
C417 C 0.60554 0.3122 0.0294 0.0
C418 C 0.6207 0.36949 0.02928 0.0
C419 C 0.61244 0.45196 0.02209 0.0
C420 C 0.58817 0.47623 0.01454 0.0
C421 C 0.59683 0.39297 0.02154 0.0
C422 C 0.54796 0.43752 1.00633 0.0
C423 C 0.53277 0.38006 1.00568 0.0
H424 H 0.84251 0.33447 0.09376 0.0
H425 H 0.8115 0.23781 0.9891 0.0
H426 H 0.8813 0.2735 0.97452 0.0
H427 H 0.95153 0.33352 0.99095 0.0
H428 H 0.98198 0.43067 0.0953 0.0
H429 H 0.91221 0.39221 0.11105 0.0
C430 C 0.85094 0.32076 0.06793 0.0
C431 C 0.82159 0.2836 0.04255 0.0
C432 C 0.89117 0.34105 0.05987 0.0
C433 C 0.8333 0.26708 1.00888 0.0
C434 C 0.87328 0.28704 1.00069 0.0
C435 C 0.94286 0.34538 0.01752 0.0
C436 C 0.97193 0.38448 0.04211 0.0
C437 C 0.90252 0.32406 0.02597 0.0
C438 C 0.9602 0.40043 0.07597 0.0
C439 C 0.92028 0.37868 0.08492 0.0
H440 H 0.98425 0.72768 0.07489 0.0
H441 H 0.9222 0.56246 0.11657 0.0
H442 H 0.86447 0.57181 0.13096 0.0
H443 H 0.82944 0.62371 0.12468 0.0
H444 H 0.8918 0.78841 0.08229 0.0
H445 H 0.95223 0.78316 0.07662 0.0
C446 C 0.95857 0.69416 0.08816 0.0
C447 C 0.9573 0.6442 0.09407 0.0
C448 C 0.92552 0.6997 0.09616 0.0
C449 C 0.92356 0.601 0.11092 0.0
C450 C 0.89061 0.60635 0.11927 0.0
C451 C 0.85645 0.65857 0.11466 0.0
C452 C 0.85619 0.70609 0.1035 0.0
C453 C 0.89085 0.65493 0.11078 0.0
C454 C 0.89139 0.75144 0.09119 0.0
C455 C 0.92584 0.74832 0.08764 0.0
H456 H 1.01927 0.83735 0.37054 0.0
H457 H 1.02454 0.94613 0.28049 0.0
H458 H 0.0956 0.983 0.27548 0.0
H459 H 0.15984 0.98572 0.29548 0.0
H460 H 0.15269 0.87555 0.3854 0.0
H461 H 0.08209 0.84009 0.39045 0.0
C462 C 1.03538 0.86899 0.34951 0.0
C463 C 1.0139 0.88801 0.32636 0.0
C464 C 0.07785 0.89094 0.34632 0.0
C465 C 1.03794 0.92985 0.29983 0.0
C466 C 0.07963 0.95132 0.29656 0.0
C467 C 0.14321 0.95414 0.31642 0.0
C468 C 0.16404 0.93444 0.34003 0.0
C469 C 0.10054 0.93258 0.3196 0.0
C470 C 0.13966 0.89288 0.36646 0.0
C471 C 0.09828 0.87192 0.36953 0.0
H472 H 0.21887 0.37657 0.28686 0.0
H473 H 0.12148 0.25511 0.35264 0.0
H474 H 0.13638 0.18501 0.32934 0.0
H475 H 0.18707 0.1656 0.30414 0.0
H476 H 0.29001 0.29313 0.24762 0.0
H477 H 0.2618 0.35267 0.25092 0.0
C478 C 0.20041 0.33434 0.29517 0.0
C479 C 0.17017 0.32044 0.32211 0.0
C480 C 0.21022 0.29558 0.28313 0.0
C481 C 0.14538 0.26608 0.33228 0.0
C482 C 0.15402 0.22637 0.31911 0.0
C483 C 0.20291 0.20611 0.29192 0.0
C484 C 0.24121 0.22578 0.27722 0.0
C485 C 0.18797 0.2416 0.29668 0.0
C486 C 0.26071 0.27718 0.25965 0.0
C487 C 0.24484 0.31162 0.26197 0.0
H488 H 0.87922 0.17756 0.34805 0.0
H489 H 0.97445 0.14094 0.3429 0.0
H490 H 0.92704 1.0444 0.33699 0.0
H491 H 0.85877 0.97005 0.33567 0.0
H492 H 0.76323 1.00604 0.33844 0.0
H493 H 0.81068 0.10326 0.34158 0.0
C494 C 0.88968 0.14863 0.34507 0.0
C495 C 0.93044 0.16669 0.3466 0.0
C496 C 0.86224 0.093 0.34103 0.0
C497 C 0.94329 0.12829 0.34294 0.0
C498 C 0.91621 0.073 0.33919 0.0
C499 C 0.84826 0.99913 0.33672 0.0
C500 C 0.8075 0.98072 0.33717 0.0
C501 C 0.87564 1.05487 0.33868 0.0
C502 C 0.79444 1.01903 0.33803 0.0
C503 C 0.82157 0.07467 0.34005 0.0
H504 H 0.11762 0.63166 0.23078 0.0
H505 H 0.22451 0.65768 0.1771 0.0
H506 H 0.23917 0.61757 0.23296 0.0
H507 H 0.22946 0.59785 0.30259 0.0
H508 H 0.11953 0.56522 0.35592 0.0
H509 H 0.10027 0.59261 0.29602 0.0
C510 C 0.14421 0.62843 0.23111 0.0
C511 C 0.17502 0.65878 0.20469 0.0
C512 C 0.15328 0.60922 0.26477 0.0
C513 C 0.20348 0.6422 0.20067 0.0
C514 C 0.21282 0.62136 0.23322 0.0
C515 C 0.20144 0.59728 0.30166 0.0
C516 C 0.17632 0.58074 0.33423 0.0
C517 C 0.18958 0.60963 0.26676 0.0
C518 C 0.13967 0.5788 0.33159 0.0
C519 C 0.12834 0.59338 0.29718 0.0
H520 H 0.48881 0.5898 0.32352 0.0
H521 H 0.48078 0.62788 0.44332 0.0
H522 H 0.55191 0.6691 0.45025 0.0
H523 H 0.61758 0.69737 0.42348 0.0
H524 H 0.6294 0.6607 0.30468 0.0
H525 H 0.55711 0.61609 0.2967 0.0
C526 C 0.5025 0.60704 0.35121 0.0
C527 C 0.47794 0.60454 0.38301 0.0
C528 C 0.54479 0.63099 0.35542 0.0
C529 C 0.49751 0.62758 0.41836 0.0
C530 C 0.53875 0.65167 0.4224 0.0
C531 C 0.60466 0.67902 0.39574 0.0
C532 C 0.6302 0.68294 0.3648 0.0
C533 C 0.56281 0.65367 0.39135 0.0
C534 C 0.6116 0.65855 0.32935 0.0
C535 C 0.56981 0.63322 0.32473 0.0
H536 H 0.37131 0.87447 0.33335 0.0
H537 H 0.42933 1.03543 0.38316 0.0
H538 H 0.48973 1.02933 0.39237 0.0
H539 H 0.52643 0.97672 0.38721 0.0
H540 H 0.46682 0.81779 0.33327 0.0
H541 H 0.4078 0.82496 0.32541 0.0
C542 C 0.39698 0.90848 0.34643 0.0
C543 C 0.39488 0.95531 0.35786 0.0
C544 C 0.43193 0.90492 0.35118 0.0
C545 C 0.42932 0.99872 0.37412 0.0
C546 C 0.46412 0.99515 0.3794 0.0
C547 C 0.50074 0.94364 0.37346 0.0
C548 C 0.50195 0.89588 0.36189 0.0
C549 C 0.46594 0.94828 0.36812 0.0
C550 C 0.46754 0.85425 0.34401 0.0
C551 C 0.43336 0.85848 0.33903 0.0
H552 H 0.68955 1.02982 0.69589 0.0
H553 H 0.69911 0.16818 0.75851 0.0
H554 H 0.63363 0.11209 0.78572 0.0
H555 H 0.56944 1.03258 0.77702 0.0
H556 H 0.55727 0.89453 0.71183 0.0
H557 H 0.62854 0.94108 0.70148 0.0
C558 C 0.67752 1.04713 0.71625 0.0
C559 C 0.69843 0.10311 0.72441 0.0
C560 C 0.63941 1.01494 0.73102 0.0
C561 C 0.6833 0.12518 0.75155 0.0
C562 C 0.64579 0.0932 0.76699 0.0
C563 C 0.58223 1.01118 0.76216 0.0
C564 C 0.55779 0.9612 0.74357 0.0
C565 C 0.62277 1.03903 0.75494 0.0
C566 C 0.57536 0.93403 0.72512 0.0
C567 C 0.61607 0.96081 0.71891 0.0
H568 H 0.87509 0.4498 0.6496 0.0
H569 H 0.97806 0.5249 0.72305 0.0
H570 H 0.9677 0.60317 0.73274 0.0
H571 H 0.92948 0.65359 0.72057 0.0
H572 H 0.8245 0.5754 0.64989 0.0
H573 H 0.83557 0.4981 0.63966 0.0
C574 C 0.89569 0.48311 0.66777 0.0
C575 C 0.92816 0.47938 0.68503 0.0
C576 C 0.88895 0.52899 0.67404 0.0
C577 C 0.95315 0.52448 0.70878 0.0
C578 C 0.94703 0.57009 0.71445 0.0
C579 C 0.90861 0.61978 0.70294 0.0
C580 C 0.8756 0.62274 0.68614 0.0
C581 C 0.91504 0.57341 0.69731 0.0
C582 C 0.84992 0.57659 0.66363 0.0
C583 C 0.85645 0.53153 0.65759 0.0
H584 H 0.64644 0.41589 0.69982 0.0
H585 H 0.59348 0.46499 0.6099 0.0
H586 H 0.54056 0.37167 0.60246 0.0
H587 H 0.5058 0.27766 0.62461 0.0
H588 H 0.55581 0.2255 0.71503 0.0
H589 H 0.61369 0.31733 0.71812 0.0
C590 C 0.62359 0.40607 0.67829 0.0
C591 C 0.62381 0.44837 0.6561 0.0
C592 C 0.59267 0.3514 0.674 0.0
C593 C 0.59379 0.43421 0.62826 0.0
C594 C 0.56352 0.38051 0.62369 0.0
C595 C 0.52974 0.2859 0.6445 0.0
C596 C 0.52631 0.24437 0.66948 0.0
C597 C 0.56217 0.33902 0.64687 0.0
C598 C 0.55774 0.25615 0.69502 0.0
C599 C 0.59065 0.30906 0.69715 0.0
H600 H 0.84943 0.94999 0.64484 0.0
H601 H 0.90302 0.95662 0.75558 0.0
H602 H 0.92773 1.05401 0.75958 0.0
H603 H 0.93693 0.14271 0.73238 0.0
H604 H 0.88061 0.13694 0.62374 0.0
H605 H 0.85587 1.03896 0.61899 0.0
C606 C 0.8656 0.9719 0.67048 0.0
C607 C 0.87296 0.9421 0.70027 0.0
C608 C 0.88071 1.03091 0.67297 0.0
C609 C 0.8956 0.97521 0.73201 0.0
C610 C 0.9104 1.0324 0.73437 0.0
C611 C 0.91977 0.12071 0.7072 0.0
C612 C 0.9123 0.15073 0.67787 0.0
C613 C 0.90387 0.06172 0.70497 0.0
C614 C 0.88831 0.11786 0.64674 0.0
C615 C 0.87357 1.06048 0.64403 0.0
H616 H 0.16307 0.97639 0.76801 0.0
H617 H 0.14286 0.88174 0.66353 0.0
H618 H 0.2132 0.91218 0.659 0.0
H619 H 0.28149 0.97031 0.68247 0.0
H620 H 0.30119 0.06474 0.78698 0.0
H621 H 0.23042 1.02887 0.79406 0.0
C622 C 0.17388 0.96169 0.74457 0.0
C623 C 0.14748 0.92731 0.71592 0.0
C624 C 0.21455 0.97926 0.74212 0.0
C625 C 0.16241 0.90921 0.68558 0.0
C626 C 0.20272 0.92628 0.68308 0.0
C627 C 0.27023 0.98208 0.70724 0.0
C628 C 0.2968 1.02019 0.73412 0.0
C629 C 0.22924 0.96195 0.71087 0.0
C630 C 0.28156 1.03551 0.76577 0.0
C631 C 0.24099 1.01519 0.76981 0.0
H632 H 0.26701 0.30395 0.80288 0.0
H633 H 0.21003 0.1901 0.70902 0.0
H634 H 0.15207 0.20127 0.71516 0.0
H635 H 0.12105 0.25122 0.74178 0.0
H636 H 0.17804 0.36645 0.83492 0.0
H637 H 0.23306 0.34807 0.83356 0.0
C638 C 0.24182 0.28144 0.78388 0.0
C639 C 0.24304 0.24664 0.75529 0.0
C640 C 0.2088 0.28876 0.7871 0.0
C641 C 0.20983 0.21688 0.73143 0.0
C642 C 0.17675 0.22354 0.73474 0.0
C643 C 0.1448 0.27107 0.76273 0.0
C644 C 0.14546 0.31053 0.7882 0.0
C645 C 0.1763 0.26029 0.76184 0.0
C646 C 0.177 0.33648 0.81459 0.0
C647 C 0.2084 0.3258 0.81398 0.0
H648 H 0.13637 0.49891 0.25104 0.0
H649 H 0.22799 0.45739 0.23401 0.0
H650 H 0.21712 0.45496 0.16318 0.0
H651 H 0.17864 0.46206 0.10581 0.0
H652 H 0.09354 0.51458 0.12776 0.0
H653 H 0.10526 0.5159 0.19713 0.0
C654 C 0.15499 0.49041 0.23231 0.0
C655 C 0.18358 0.47917 0.24858 0.0
C656 C 0.14943 0.4909 0.19218 0.0
C657 C 0.2063 0.46723 0.22283 0.0
C658 C 0.19984 0.46556 0.18222 0.0
C659 C 0.16304 0.47421 0.12593 0.0
C660 C 0.13485 0.48783 0.11152 0.0
C661 C 0.17112 0.47694 0.16646 0.0
C662 C 0.11524 0.50402 0.1379 0.0
C663 C 0.1219 0.50469 0.17765 0.0
H664 H 0.6454 0.7972 0.23116 0.0
H665 H 0.69737 0.69602 0.25416 0.0
H666 H 0.66287 0.63889 0.19897 0.0
H667 H 0.6206 0.61819 0.14267 0.0
H668 H 0.57482 0.7236 0.11061 0.0
H669 H 0.60264 0.77661 0.17073 0.0
C670 C 0.64915 0.7627 0.224 0.0
C671 C 0.67459 0.75165 0.24722 0.0
C672 C 0.62978 0.73002 0.19058 0.0
C673 C 0.67884 0.70657 0.23699 0.0
C674 C 0.65873 0.67329 0.20539 0.0
C675 C 0.61617 0.65247 0.14868 0.0
C676 C 0.59516 0.66617 0.12164 0.0
C677 C 0.63444 0.68471 0.18181 0.0
C678 C 0.59016 0.71106 0.13069 0.0
C679 C 0.60667 0.74198 0.16502 0.0
H680 H 0.42385 1.01715 0.10537 0.0
H681 H 0.5255 0.09402 0.18061 0.0
H682 H 0.48153 0.06861 0.23722 0.0
H683 H 0.4138 1.02907 0.26525 0.0
H684 H 0.31246 0.94734 0.19004 0.0
H685 H 0.35651 0.96965 0.13384 0.0
C686 C 0.43664 1.02815 0.13416 0.0
C687 C 0.4785 1.05828 0.13825 0.0
C688 C 0.41096 1.01254 0.16672 0.0
C689 C 0.49387 0.07107 0.17612 0.0
C690 C 0.46852 1.05665 0.20859 0.0
C691 C 0.40119 1.01563 0.23658 0.0
C692 C 0.35932 0.98671 0.23222 0.0
C693 C 0.42698 1.02808 0.20427 0.0
C694 C 0.34409 0.96932 0.1947 0.0
C695 C 0.36947 0.98245 0.16242 0.0
H696 H 0.5445 0.19465 0.93303 0.0
H697 H 0.57545 0.0774 0.89014 0.0
H698 H 0.54547 0.07539 0.82753 0.0
H699 H 0.50243 0.09681 0.78792 0.0
H700 H 0.47075 0.21406 0.82923 0.0
H701 H 0.50861 0.22605 0.88911 0.0
C702 C 0.54627 0.17056 0.90943 0.0
C703 C 0.56321 0.13705 0.91631 0.0
C704 C 0.52756 0.16823 0.87345 0.0
C705 C 0.56375 0.10466 0.88554 0.0
C706 C 0.5459 0.10275 0.84983 0.0
C707 C 0.50404 0.12545 0.80984 0.0
C708 C 0.48303 0.1538 0.80416 0.0
C709 C 0.52633 0.13263 0.84395 0.0
C710 C 0.48629 0.19143 0.83273 0.0
C711 C 0.50799 0.19824 0.86708 0.0
H712 H 0.98643 0.34917 0.91362 0.0
H713 H 1.02262 0.51442 0.88241 0.0
H714 H 0.98023 0.48224 0.8244 0.0
H715 H 0.93892 0.40662 0.77839 0.0
H716 H 0.90247 0.24181 0.81166 0.0
H717 H 0.93723 0.27381 0.87336 0.0
C718 C 0.98459 0.3781 0.89437 0.0
C719 C 1.00811 0.4342 0.90208 0.0
C720 C 0.95955 0.35914 0.86151 0.0
C721 C 1.00498 0.4711 0.87713 0.0
C722 C 0.9807 0.4526 0.8439 0.0
C723 C 0.93703 0.37757 0.79988 0.0
C724 C 0.9174 0.3215 0.79035 0.0
C725 C 0.9584 0.39663 0.83525 0.0
C726 C 0.9165 0.28485 0.81836 0.0
C727 C 0.93709 0.30329 0.85346 0.0
H728 H 0.74935 0.6943 0.77781 0.0
H729 H 0.85432 0.78882 0.84626 0.0
H730 H 0.81289 0.77425 0.90384 0.0
H731 H 0.74625 0.73294 0.93546 0.0
H732 H 0.64182 0.64436 0.86502 0.0
H733 H 0.68343 0.65868 0.80801 0.0
C734 C 0.76357 0.71194 0.80524 0.0
C735 C 0.8057 0.74235 0.80707 0.0
C736 C 0.73928 0.70443 0.83818 0.0
C737 C 0.82254 0.76517 0.8433 0.0
C738 C 0.79859 0.75669 0.87643 0.0
C739 C 0.73235 0.71683 0.90764 0.0
C740 C 0.69017 0.687 0.90526 0.0
C741 C 0.75684 0.72617 0.87437 0.0
C742 C 0.67359 0.66736 0.8684 0.0
C743 C 0.69763 0.67546 0.83561 0.0
H744 H 0.83233 0.8438 0.44722 0.0
H745 H 0.73224 0.83888 0.50428 0.0
H746 H 0.76 0.83501 0.56757 0.0
H747 H 0.80923 0.82225 0.60617 0.0
H748 H 0.90887 0.82719 0.54836 0.0
H749 H 0.88513 0.84224 0.48615 0.0
C750 C 0.81673 0.84279 0.47351 0.0
C751 C 0.77982 0.84137 0.47058 0.0
C752 C 0.83293 0.84037 0.50981 0.0
C753 C 0.76056 0.84043 0.50525 0.0
C754 C 0.77642 0.83776 0.54154 0.0
C755 C 0.82648 0.82847 0.58012 0.0
C756 C 0.86151 0.82475 0.58231 0.0
C757 C 0.81214 0.83638 0.54417 0.0
C758 C 0.88263 0.83123 0.54795 0.0
C759 C 0.86868 0.8392 0.51222 0.0
H760 H 0.28742 1.04375 0.46561 0.0
H761 H 0.31902 0.91758 0.46204 0.0
H762 H 0.34781 0.94392 0.52718 0.0
H763 H 0.36876 1.00757 0.58311 0.0
H764 H 0.33518 0.13173 0.58766 0.0
H765 H 0.30257 0.10153 0.52432 0.0
C766 C 0.29997 1.02125 0.47928 0.0
C767 C 0.30087 0.97843 0.45857 0.0
C768 C 0.31671 1.03693 0.51682 0.0
C769 C 0.31731 0.95003 0.47711 0.0
C770 C 0.33423 0.9656 0.51432 0.0
C771 C 0.35423 1.02808 0.57037 0.0
C772 C 0.35513 0.07275 0.59018 0.0
C773 C 0.33493 1.00979 0.53409 0.0
C774 C 0.33531 0.09771 0.57329 0.0
C775 C 0.31664 0.08036 0.53695 0.0
H776 H 1.06315 0.43158 0.59684 0.0
H777 H 0.96568 0.30193 0.53481 0.0
H778 H 1.01025 0.31243 0.48116 0.0
H779 H 0.07713 0.3556 0.45274 0.0
H780 H 0.17429 0.48923 0.51202 0.0
H781 H 0.12988 0.479 0.56605 0.0
C782 C 1.05129 0.40572 0.57148 0.0
C783 C 1.01032 0.36569 0.57046 0.0
C784 C 0.07739 0.41222 0.54036 0.0
C785 C 0.99639 0.33319 0.53689 0.0
C786 C 1.02217 0.33901 0.50616 0.0
C787 C 0.089 0.38308 0.4772 0.0
C788 C 0.12985 0.4234 0.47761 0.0
C789 C 1.0628 0.37794 0.50771 0.0
C790 C 0.14361 0.45779 0.5103 0.0
C791 C 0.11794 0.45196 0.54129 0.0
loop_
_geom_bond_atom_site_label_1
_geom_bond_atom_site_label_2
_geom_bond_distance
_geom_bond_site_symmetry_2
_ccdc_geom_bond_type
Dy0 O3 2.310 1_455 S
Dy0 O5 2.404 . S
Dy0 O6 2.368 1_554 S
Dy0 O8 2.318 1_554 S
Dy0 O10 2.294 1_554 S
Dy0 O14 2.293 . S
Dy0 C22 2.737 1_554 S
Dy1 O4 2.298 . S
Dy1 O7 2.275 1_554 S
Dy1 O9 2.307 1_655 S
Dy1 O11 2.395 1_554 S
Dy1 O12 2.379 . S
Dy1 O15 2.342 . S
Dy1 C31 2.738 . S
C2 O14 1.254 . S
C2 O15 1.248 1_455 S
O3 Dy0 2.310 1_655 S
O3 C13 1.266 . S
O4 Dy1 2.298 . S
O4 C13 1.236 . S
O5 Dy0 2.404 . S
O5 C22 1.254 1_554 S
O6 Dy0 2.368 1_556 S
O6 C22 1.251 . S
O7 Dy1 2.275 1_556 S
O7 C23 1.254 . S
O8 Dy0 2.318 1_556 S
O8 C23 1.257 1_455 S
O9 Dy1 2.307 1_455 S
O9 C24 1.266 . S
O10 Dy0 2.294 1_556 S
O10 C24 1.236 1_556 S
O11 Dy1 2.395 1_556 S
O11 C31 1.255 1_556 S
O12 Dy1 2.379 . S
O12 C31 1.249 . S
C13 O3 1.266 . S
C13 O4 1.236 . S
O14 Dy0 2.293 . S
O14 C2 1.254 . S
O15 Dy1 2.342 . S
O15 C2 1.248 1_655 S
C16 C19 1.342 1_556 S
C16 C20 1.330 . S
C16 C22 1.516 . S
C17 C18 1.304 . S
C17 C21 1.323 1_554 S
C18 C17 1.304 . S
C18 C19 1.371 . S
C18 H32 0.930 . S
C19 C16 1.342 1_554 S
C19 C18 1.371 . S
C19 H33 0.931 . S
C20 C16 1.330 . S
C20 C21 1.433 . S
C20 H34 0.931 . S
C21 C17 1.323 1_556 S
C21 C20 1.433 . S
C21 H35 0.933 . S
C22 Dy0 2.737 1_556 S
C22 O5 1.254 1_556 S
C22 O6 1.251 . S
C22 C16 1.516 . S
C23 O7 1.254 . S
C23 O8 1.257 1_655 S
C24 O9 1.266 . S
C24 O10 1.236 1_554 S
C25 C28 1.344 1_554 S
C25 C29 1.328 . S
C25 C31 1.516 . S
C26 C27 1.304 1_554 S
C26 C30 1.323 . S
C27 C26 1.304 1_556 S
C27 C28 1.371 . S
C27 H36 0.930 . S
C28 C25 1.344 1_556 S
C28 C27 1.371 . S
C28 H37 0.931 . S
C29 C25 1.328 . S
C29 C30 1.433 . S
C29 H38 0.931 . S
C30 C26 1.323 . S
C30 C29 1.433 . S
C30 H39 0.933 . S
C31 Dy1 2.738 . S
C31 O11 1.255 1_554 S
C31 O12 1.249 . S
C31 C25 1.516 . S
H32 C18 0.930 . S
H33 C19 0.931 . S
H34 C20 0.931 . S
H35 C21 0.933 . S
H36 C27 0.930 . S
H37 C28 0.931 . S
H38 C29 0.931 . S
H39 C30 0.933 . S
Dy40 O43 2.307 . S
Dy40 O45 2.395 1_554 S
Dy40 O46 2.379 . S
Dy40 O48 2.339 . S
Dy40 O50 2.298 . S
Dy40 O54 2.275 1_554 S
Dy40 C62 2.738 . S
Dy41 O44 2.298 . S
Dy41 O47 2.275 1_556 S
Dy41 O49 2.307 . S
Dy41 O51 2.395 1_556 S
Dy41 O52 2.379 . S
Dy41 O55 2.339 . S
Dy41 C71 2.738 . S
C42 O54 1.254 . S
C42 O55 1.257 . S
O43 Dy40 2.307 . S
O43 C53 1.266 1_554 S
O44 Dy41 2.298 . S
O44 C53 1.236 . S
O45 Dy40 2.395 1_556 S
O45 C62 1.255 1_556 S
O46 Dy40 2.379 . S
O46 C62 1.249 . S
O47 Dy41 2.275 1_554 S
O47 C63 1.254 . S
O48 Dy40 2.339 . S
O48 C63 1.257 . S
O49 Dy41 2.307 . S
O49 C64 1.266 1_556 S
O50 Dy40 2.298 . S
O50 C64 1.236 . S
O51 Dy41 2.395 1_554 S
O51 C71 1.255 1_554 S
O52 Dy41 2.379 . S
O52 C71 1.249 . S
C53 O43 1.266 1_556 S
C53 O44 1.236 . S
O54 Dy40 2.275 1_556 S
O54 C42 1.254 . S
O55 Dy41 2.339 . S
O55 C42 1.257 . S
C56 C59 1.344 1_554 S
C56 C60 1.328 . S
C56 C62 1.516 . S
C57 C58 1.304 1_554 S
C57 C61 1.323 . S
C58 C57 1.304 1_556 S
C58 C59 1.371 . S
C58 H72 0.930 . S
C59 C56 1.344 1_556 S
C59 C58 1.371 . S
C59 H73 0.931 . S
C60 C56 1.328 . S
C60 C61 1.433 . S
C60 H74 0.931 . S
C61 C57 1.323 . S
C61 C60 1.433 . S
C61 H75 0.933 . S
C62 Dy40 2.738 . S
C62 O45 1.255 1_554 S
C62 O46 1.249 . S
C62 C56 1.516 . S
C63 O47 1.254 . S
C63 O48 1.257 . S
C64 O49 1.266 1_554 S
C64 O50 1.236 . S
C65 C68 1.344 1_556 S
C65 C69 1.328 . S
C65 C71 1.516 . S
C66 C67 1.304 1_556 S
C66 C70 1.323 . S
C67 C66 1.304 1_554 S
C67 C68 1.371 . S
C67 H76 0.930 . S
C68 C65 1.344 1_554 S
C68 C67 1.371 . S
C68 H77 0.931 . S
C69 C65 1.328 . S
C69 C70 1.433 . S
C69 H78 0.931 . S
C70 C66 1.323 . S
C70 C69 1.433 . S
C70 H79 0.933 . S
C71 Dy41 2.738 . S
C71 O51 1.255 1_556 S
C71 O52 1.249 . S
C71 C65 1.516 . S
H72 C58 0.930 . S
H73 C59 0.931 . S
H74 C60 0.931 . S
H75 C61 0.933 . S
H76 C67 0.930 . S
H77 C68 0.931 . S
H78 C69 0.931 . S
H79 C70 0.933 . S
Dy80 O83 2.306 1_566 S
Dy80 O85 2.383 1_556 S
Dy80 O86 2.389 . S
Dy80 O88 2.363 . S
Dy80 O90 2.301 . S
Dy80 O94 2.255 1_556 S
Dy80 C102 2.737 . S
Dy81 O84 2.298 . S
Dy81 O87 2.275 1_554 S
Dy81 O89 2.307 1_545 S
Dy81 O91 2.395 1_554 S
Dy81 O92 2.379 . S
Dy81 O95 2.339 . S
Dy81 C111 2.738 . S
C82 O94 1.254 . S
C82 O95 1.257 1_565 S
O83 Dy80 2.306 1_544 S
O83 C93 1.266 . S
O84 Dy81 2.298 . S
O84 C93 1.236 . S
O85 Dy80 2.383 1_554 S
O85 C102 1.255 1_554 S
O86 Dy80 2.389 . S
O86 C102 1.249 . S
O87 Dy81 2.275 1_556 S
O87 C103 1.254 . S
O88 Dy80 2.363 . S
O88 C103 1.257 1_565 S
O89 Dy81 2.307 1_565 S
O89 C104 1.266 . S
O90 Dy80 2.301 . S
O90 C104 1.236 1_556 S
O91 Dy81 2.395 1_556 S
O91 C111 1.255 1_556 S
O92 Dy81 2.379 . S
O92 C111 1.249 . S
C93 O83 1.266 . S
C93 O84 1.236 . S
O94 Dy80 2.255 1_554 S
O94 C82 1.254 . S
O95 Dy81 2.339 . S
O95 C82 1.257 1_545 S
C96 C99 1.323 1_556 S
C96 C100 1.348 . S
C96 C102 1.517 . S
C97 C98 1.304 . S
C97 C101 1.323 1_554 S
C98 C97 1.304 . S
C98 C99 1.371 . S
C98 H112 0.930 . S
C99 C96 1.323 1_554 S
C99 C98 1.371 . S
C99 H113 0.931 . S
C100 C96 1.348 . S
C100 C101 1.433 . S
C100 H114 0.931 . S
C101 C97 1.323 1_556 S
C101 C100 1.433 . S
C101 H115 0.933 . S
C102 Dy80 2.737 . S
C102 O85 1.255 1_556 S
C102 O86 1.249 . S
C102 C96 1.517 . S
C103 O87 1.254 . S
C103 O88 1.257 1_545 S
C104 O89 1.266 . S
C104 O90 1.236 1_554 S
C105 C108 1.344 1_554 S
C105 C109 1.328 . S
C105 C111 1.516 . S
C106 C107 1.304 1_554 S
C106 C110 1.323 . S
C107 C106 1.304 1_556 S
C107 C108 1.371 . S
C107 H116 0.930 . S
C108 C105 1.344 1_556 S
C108 C107 1.371 . S
C108 H117 0.931 . S
C109 C105 1.328 . S
C109 C110 1.433 . S
C109 H118 0.931 . S
C110 C106 1.323 . S
C110 C109 1.433 . S
C110 H119 0.933 . S
C111 Dy81 2.738 . S
C111 O91 1.255 1_554 S
C111 O92 1.249 . S
C111 C105 1.516 . S
H112 C98 0.930 . S
H113 C99 0.931 . S
H114 C100 0.931 . S
H115 C101 0.933 . S
H116 C107 0.930 . S
H117 C108 0.931 . S
H118 C109 0.931 . S
H119 C110 0.933 . S
Dy120 O123 2.307 . S
Dy120 O125 2.395 . S
Dy120 O126 2.379 . S
Dy120 O128 2.339 . S
Dy120 O130 2.298 . S
Dy120 O134 2.275 . S
Dy120 C142 2.738 . S
Dy121 O124 2.298 . S
Dy121 O127 2.275 . S
Dy121 O129 2.307 . S
Dy121 O131 2.395 . S
Dy121 O132 2.379 . S
Dy121 O135 2.339 . S
Dy121 C151 2.738 . S
C122 O134 1.254 . S
C122 O135 1.257 . S
O123 Dy120 2.307 . S
O123 C133 1.266 . S
O124 Dy121 2.298 . S
O124 C133 1.236 . S
O125 Dy120 2.395 . S
O125 C142 1.255 . S
O126 Dy120 2.379 . S
O126 C142 1.249 . S
O127 Dy121 2.275 . S
O127 C143 1.254 . S
O128 Dy120 2.339 . S
O128 C143 1.257 . S
O129 Dy121 2.307 . S
O129 C144 1.266 . S
O130 Dy120 2.298 . S
O130 C144 1.236 . S
O131 Dy121 2.395 . S
O131 C151 1.255 . S
O132 Dy121 2.379 . S
O132 C151 1.249 . S
C133 O123 1.266 . S
C133 O124 1.236 . S
O134 Dy120 2.275 . S
O134 C122 1.254 . S
O135 Dy121 2.339 . S
O135 C122 1.257 . S
C136 C139 1.344 . S
C136 C140 1.328 . S
C136 C142 1.516 . S
C137 C138 1.304 . S
C137 C141 1.323 . S
C138 C137 1.304 . S
C138 C139 1.371 . S
C138 H152 0.930 . S
C139 C136 1.344 . S
C139 C138 1.371 . S
C139 H153 0.931 . S
C140 C136 1.328 . S
C140 C141 1.433 . S
C140 H154 0.931 . S
C141 C137 1.323 . S
C141 C140 1.433 . S
C141 H155 0.933 . S
C142 Dy120 2.738 . S
C142 O125 1.255 . S
C142 O126 1.249 . S
C142 C136 1.516 . S
C143 O127 1.254 . S
C143 O128 1.257 . S
C144 O129 1.266 . S
C144 O130 1.236 . S
C145 C148 1.344 . S
C145 C149 1.328 . S
C145 C151 1.516 . S
C146 C147 1.304 . S
C146 C150 1.323 . S
C147 C146 1.304 . S
C147 C148 1.371 . S
C147 H156 0.930 . S
C148 C145 1.344 . S
C148 C147 1.371 . S
C148 H157 0.931 . S
C149 C145 1.328 . S
C149 C150 1.433 . S
C149 H158 0.931 . S
C150 C146 1.323 . S
C150 C149 1.433 . S
C150 H159 0.933 . S
C151 Dy121 2.738 . S
C151 O131 1.255 . S
C151 O132 1.249 . S
C151 C145 1.516 . S
H152 C138 0.930 . S
H153 C139 0.931 . S
H154 C140 0.931 . S
H155 C141 0.933 . S
H156 C147 0.930 . S
H157 C148 0.931 . S
H158 C149 0.931 . S
H159 C150 0.933 . S
Dy160 O163 2.307 . S
Dy160 O165 2.395 1_565 S
Dy160 O166 2.379 1_565 S
Dy160 O168 2.339 . S
Dy160 O170 2.298 . S
Dy160 O174 2.275 . S
Dy160 C182 2.738 1_565 S
Dy161 O164 2.298 . S
Dy161 O167 2.275 . S
Dy161 O169 2.307 . S
Dy161 O171 2.395 . S
Dy161 O172 2.379 . S
Dy161 O175 2.339 . S
Dy161 C191 2.738 . S
C162 O174 1.254 . S
C162 O175 1.257 . S
O163 Dy160 2.307 . S
O163 C173 1.266 . S
O164 Dy161 2.298 . S
O164 C173 1.236 . S
O165 Dy160 2.395 1_545 S
O165 C182 1.255 . S
O166 Dy160 2.379 1_545 S
O166 C182 1.249 . S
O167 Dy161 2.275 . S
O167 C183 1.254 . S
O168 Dy160 2.339 . S
O168 C183 1.257 . S
O169 Dy161 2.307 . S
O169 C184 1.266 . S
O170 Dy160 2.298 . S
O170 C184 1.236 . S
O171 Dy161 2.395 . S
O171 C191 1.255 . S
O172 Dy161 2.379 . S
O172 C191 1.249 . S
C173 O163 1.266 . S
C173 O164 1.236 . S
O174 Dy160 2.275 . S
O174 C162 1.254 . S
O175 Dy161 2.339 . S
O175 C162 1.257 . S
C176 C179 1.344 . S
C176 C180 1.328 . S
C176 C182 1.516 . S
C177 C178 1.304 . S
C177 C181 1.323 . S
C178 C177 1.304 . S
C178 C179 1.371 . S
C178 H192 0.930 . S
C179 C176 1.344 . S
C179 C178 1.371 . S
C179 H193 0.931 . S
C180 C176 1.328 . S
C180 C181 1.433 . S
C180 H194 0.931 . S
C181 C177 1.323 . S
C181 C180 1.433 . S
C181 H195 0.933 . S
C182 Dy160 2.738 1_545 S
C182 O165 1.255 . S
C182 O166 1.249 . S
C182 C176 1.516 . S
C183 O167 1.254 . S
C183 O168 1.257 . S
C184 O169 1.266 . S
C184 O170 1.236 . S
C185 C188 1.344 . S
C185 C189 1.328 . S
C185 C191 1.516 . S
C186 C187 1.304 . S
C186 C190 1.323 . S
C187 C186 1.304 . S
C187 C188 1.371 . S
C187 H196 0.930 . S
C188 C185 1.344 . S
C188 C187 1.371 . S
C188 H197 0.931 . S
C189 C185 1.328 . S
C189 C190 1.433 . S
C189 H198 0.931 . S
C190 C186 1.323 . S
C190 C189 1.433 . S
C190 H199 0.933 . S
C191 Dy161 2.738 . S
C191 O171 1.255 . S
C191 O172 1.249 . S
C191 C185 1.516 . S
H192 C178 0.930 . S
H193 C179 0.931 . S
H194 C180 0.931 . S
H195 C181 0.933 . S
H196 C187 0.930 . S
H197 C188 0.931 . S
H198 C189 0.931 . S
H199 C190 0.933 . S
Dy200 O203 2.307 . S
Dy200 O205 2.395 . S
Dy200 O206 2.379 . S
Dy200 O208 2.339 . S
Dy200 O210 2.298 . S
Dy200 O214 2.275 . S
Dy200 C222 2.738 . S
Dy201 O204 2.298 . S
Dy201 O207 2.275 . S
Dy201 O209 2.307 . S
Dy201 O211 2.395 . S
Dy201 O212 2.379 . S
Dy201 O215 2.339 . S
Dy201 C231 2.738 . S
C202 O214 1.254 . S
C202 O215 1.257 . S
O203 Dy200 2.307 . S
O203 C213 1.266 . S
O204 Dy201 2.298 . S
O204 C213 1.236 . S
O205 Dy200 2.395 . S
O205 C222 1.255 . S
O206 Dy200 2.379 . S
O206 C222 1.249 . S
O207 Dy201 2.275 . S
O207 C223 1.254 . S
O208 Dy200 2.339 . S
O208 C223 1.257 . S
O209 Dy201 2.307 . S
O209 C224 1.266 . S
O210 Dy200 2.298 . S
O210 C224 1.236 . S
O211 Dy201 2.395 . S
O211 C231 1.255 . S
O212 Dy201 2.379 . S
O212 C231 1.249 . S
C213 O203 1.266 . S
C213 O204 1.236 . S
O214 Dy200 2.275 . S
O214 C202 1.254 . S
O215 Dy201 2.339 . S
O215 C202 1.257 . S
C216 C219 1.344 . S
C216 C220 1.328 . S
C216 C222 1.516 1_655 S
C217 C218 1.304 . S
C217 C221 1.323 . S
C218 C217 1.304 . S
C218 C219 1.371 . S
C218 H232 0.930 . S
C219 C216 1.344 . S
C219 C218 1.371 . S
C219 H233 0.931 . S
C220 C216 1.328 . S
C220 C221 1.433 . S
C220 H234 0.931 . S
C221 C217 1.323 . S
C221 C220 1.433 . S
C221 H235 0.933 . S
C222 Dy200 2.738 . S
C222 O205 1.255 . S
C222 O206 1.249 . S
C222 C216 1.516 1_455 S
C223 O207 1.254 . S
C223 O208 1.257 . S
C224 O209 1.266 . S
C224 O210 1.236 . S
C225 C228 1.344 . S
C225 C229 1.328 . S
C225 C231 1.516 . S
C226 C227 1.304 . S
C226 C230 1.323 . S
C227 C226 1.304 . S
C227 C228 1.371 . S
C227 H236 0.930 . S
C228 C225 1.344 . S
C228 C227 1.371 . S
C228 H237 0.931 . S
C229 C225 1.328 . S
C229 C230 1.433 . S
C229 H238 0.931 . S
C230 C226 1.323 . S
C230 C229 1.433 . S
C230 H239 0.933 . S
C231 Dy201 2.738 . S
C231 O211 1.255 . S
C231 O212 1.249 . S
C231 C225 1.516 . S
H232 C218 0.930 . S
H233 C219 0.931 . S
H234 C220 0.931 . S
H235 C221 0.933 . S
H236 C227 0.930 . S
H237 C228 0.931 . S
H238 C229 0.931 . S
H239 C230 0.933 . S
Dy240 O243 2.307 . S
Dy240 O245 2.395 . S
Dy240 O246 2.379 . S
Dy240 O248 2.339 . S
Dy240 O250 2.298 . S
Dy240 O254 2.275 . S
Dy240 C262 2.738 . S
Dy241 O244 2.298 . S
Dy241 O247 2.275 . S
Dy241 O249 2.307 . S
Dy241 O251 2.395 . S
Dy241 O252 2.379 . S
Dy241 O255 2.339 . S
Dy241 C271 2.738 . S
C242 O254 1.254 . S
C242 O255 1.257 . S
O243 Dy240 2.307 . S
O243 C253 1.266 . S
O244 Dy241 2.298 . S
O244 C253 1.236 . S
O245 Dy240 2.395 . S
O245 C262 1.255 . S
O246 Dy240 2.379 . S
O246 C262 1.249 . S
O247 Dy241 2.275 . S
O247 C263 1.254 . S
O248 Dy240 2.339 . S
O248 C263 1.257 . S
O249 Dy241 2.307 . S
O249 C264 1.266 . S
O250 Dy240 2.298 . S
O250 C264 1.236 . S
O251 Dy241 2.395 . S
O251 C271 1.255 . S
O252 Dy241 2.379 . S
O252 C271 1.249 . S
C253 O243 1.266 . S
C253 O244 1.236 . S
O254 Dy240 2.275 . S
O254 C242 1.254 . S
O255 Dy241 2.339 . S
O255 C242 1.257 . S
C256 C259 1.344 . S
C256 C260 1.328 . S
C256 C262 1.516 . S
C257 C258 1.304 . S
C257 C261 1.323 . S
C258 C257 1.304 . S
C258 C259 1.371 . S
C258 H272 0.930 . S
C259 C256 1.344 . S
C259 C258 1.371 . S
C259 H273 0.931 . S
C260 C256 1.328 . S
C260 C261 1.433 . S
C260 H274 0.931 . S
C261 C257 1.323 . S
C261 C260 1.433 . S
C261 H275 0.933 . S
C262 Dy240 2.738 . S
C262 O245 1.255 . S
C262 O246 1.249 . S
C262 C256 1.516 . S
C263 O247 1.254 . S
C263 O248 1.257 . S
C264 O249 1.266 . S
C264 O250 1.236 . S
C265 C268 1.344 . S
C265 C269 1.328 . S
C265 C271 1.516 . S
C266 C267 1.304 . S
C266 C270 1.323 . S
C267 C266 1.304 . S
C267 C268 1.371 . S
C267 H276 0.930 . S
C268 C265 1.344 . S
C268 C267 1.371 . S
C268 H277 0.931 . S
C269 C265 1.328 . S
C269 C270 1.433 . S
C269 H278 0.931 . S
C270 C266 1.323 . S
C270 C269 1.433 . S
C270 H279 0.933 . S
C271 Dy241 2.738 . S
C271 O251 1.255 . S
C271 O252 1.249 . S
C271 C265 1.516 . S
H272 C258 0.930 . S
H273 C259 0.931 . S
H274 C260 0.931 . S
H275 C261 0.933 . S
H276 C267 0.930 . S
H277 C268 0.931 . S
H278 C269 0.931 . S
H279 C270 0.933 . S
Dy280 O283 2.307 . S
Dy280 O285 2.395 . S
Dy280 O286 2.379 . S
Dy280 O288 2.339 . S
Dy280 O290 2.298 . S
Dy280 O294 2.275 . S
Dy280 C302 2.712 1_655 S
Dy281 O284 2.298 . S
Dy281 O287 2.275 . S
Dy281 O289 2.307 . S
Dy281 O291 2.395 . S
Dy281 O292 2.379 . S
Dy281 O295 2.339 . S
Dy281 C311 2.738 . S
C282 O294 1.254 . S
C282 O295 1.257 . S
O283 Dy280 2.307 . S
O283 C293 1.266 . S
O284 Dy281 2.298 . S
O284 C293 1.236 . S
O285 Dy280 2.395 . S
O285 C302 1.243 1_655 S
O286 Dy280 2.379 . S
O286 C302 1.237 1_655 S
O287 Dy281 2.275 . S
O287 C303 1.254 . S
O288 Dy280 2.339 . S
O288 C303 1.257 . S
O289 Dy281 2.307 . S
O289 C304 1.266 . S
O290 Dy280 2.298 . S
O290 C304 1.236 . S
O291 Dy281 2.395 . S
O291 C311 1.255 . S
O292 Dy281 2.379 . S
O292 C311 1.249 . S
C293 O283 1.266 . S
C293 O284 1.236 . S
O294 Dy280 2.275 . S
O294 C282 1.254 . S
O295 Dy281 2.339 . S
O295 C282 1.257 . S
C296 C299 1.344 . S
C296 C300 1.328 . S
C296 C302 1.541 . S
C297 C298 1.304 . S
C297 C301 1.323 . S
C298 C297 1.304 . S
C298 C299 1.371 . S
C298 H312 0.930 . S
C299 C296 1.344 . S
C299 C298 1.371 . S
C299 H313 0.931 . S
C300 C296 1.328 . S
C300 C301 1.433 . S
C300 H314 0.931 . S
C301 C297 1.323 . S
C301 C300 1.433 . S
C301 H315 0.933 . S
C302 Dy280 2.712 1_455 S
C302 O285 1.243 1_455 S
C302 O286 1.237 1_455 S
C302 C296 1.541 . S
C303 O287 1.254 . S
C303 O288 1.257 . S
C304 O289 1.266 . S
C304 O290 1.236 . S
C305 C308 1.344 . S
C305 C309 1.328 . S
C305 C311 1.516 . S
C306 C307 1.304 . S
C306 C310 1.323 . S
C307 C306 1.304 . S
C307 C308 1.371 . S
C307 H316 0.930 . S
C308 C305 1.344 . S
C308 C307 1.371 . S
C308 H317 0.931 . S
C309 C305 1.328 . S
C309 C310 1.433 . S
C309 H318 0.931 . S
C310 C306 1.323 . S
C310 C309 1.433 . S
C310 H319 0.933 . S
C311 Dy281 2.738 . S
C311 O291 1.255 . S
C311 O292 1.249 . S
C311 C305 1.516 . S
H312 C298 0.930 . S
H313 C299 0.931 . S
H314 C300 0.931 . S
H315 C301 0.933 . S
H316 C307 0.930 . S
H317 C308 0.931 . S
H318 C309 0.931 . S
H319 C310 0.933 . S
Dy320 O323 2.307 . S
Dy320 O325 2.395 . S
Dy320 O326 2.379 . S
Dy320 O328 2.339 . S
Dy320 O330 2.298 . S
Dy320 O334 2.275 . S
Dy320 C342 2.738 . S
Dy321 O324 2.298 . S
Dy321 O327 2.275 . S
Dy321 O329 2.307 . S
Dy321 O331 2.395 . S
Dy321 O332 2.379 . S
Dy321 O335 2.339 . S
Dy321 C351 2.738 . S
C322 O334 1.254 . S
C322 O335 1.257 . S
O323 Dy320 2.307 . S
O323 C333 1.266 . S
O324 Dy321 2.298 . S
O324 C333 1.236 . S
O325 Dy320 2.395 . S
O325 C342 1.255 . S
O326 Dy320 2.379 . S
O326 C342 1.249 . S
O327 Dy321 2.275 . S
O327 C343 1.254 . S
O328 Dy320 2.339 . S
O328 C343 1.257 . S
O329 Dy321 2.307 . S
O329 C344 1.266 . S
O330 Dy320 2.298 . S
O330 C344 1.236 . S
O331 Dy321 2.395 . S
O331 C351 1.255 . S
O332 Dy321 2.379 . S
O332 C351 1.249 . S
C333 O323 1.266 . S
C333 O324 1.236 . S
O334 Dy320 2.275 . S
O334 C322 1.254 . S
O335 Dy321 2.339 . S
O335 C322 1.257 . S
C336 C339 1.344 . S
C336 C340 1.328 . S
C336 C342 1.516 . S
C337 C338 1.304 . S
C337 C341 1.323 . S
C338 C337 1.304 . S
C338 C339 1.371 . S
C338 H352 0.930 . S
C339 C336 1.344 . S
C339 C338 1.371 . S
C339 H353 0.931 . S
C340 C336 1.328 . S
C340 C341 1.433 . S
C340 H354 0.931 . S
C341 C337 1.323 . S
C341 C340 1.433 . S
C341 H355 0.933 . S
C342 Dy320 2.738 . S
C342 O325 1.255 . S
C342 O326 1.249 . S
C342 C336 1.516 . S
C343 O327 1.254 . S
C343 O328 1.257 . S
C344 O329 1.266 . S
C344 O330 1.236 . S
C345 C348 1.344 . S
C345 C349 1.328 . S
C345 C351 1.516 . S
C346 C347 1.304 1_455 S
C346 C350 1.323 . S
C347 C346 1.304 1_655 S
C347 C348 1.371 . S
C347 H356 0.930 1_655 S
C348 C345 1.344 . S
C348 C347 1.371 . S
C348 H357 0.931 . S
C349 C345 1.328 . S
C349 C350 1.433 1_655 S
C349 H358 0.931 . S
C350 C346 1.323 . S
C350 C349 1.433 1_455 S
C350 H359 0.933 . S
C351 Dy321 2.738 . S
C351 O331 1.255 . S
C351 O332 1.249 . S
C351 C345 1.516 . S
H352 C338 0.930 . S
H353 C339 0.931 . S
H354 C340 0.931 . S
H355 C341 0.933 . S
H356 C347 0.930 1_455 S
H357 C348 0.931 . S
H358 C349 0.931 . S
H359 C350 0.933 . S
H360 C366 0.930 1_554 S
H361 C369 0.930 . S
H362 C370 0.930 . S
H363 C371 0.930 . S
H364 C374 0.930 . S
H365 C375 0.930 . S
C366 H360 0.930 1_556 S
C366 C367 1.355 . S
C366 C368 1.415 . S
C367 C366 1.355 . S
C367 C369 1.419 . S
C368 C366 1.415 . S
C368 C373 1.425 . S
C368 C375 1.409 1_556 S
C369 H361 0.930 . S
C369 C367 1.419 . S
C369 C370 1.362 . S
C370 H362 0.930 . S
C370 C369 1.362 . S
C370 C373 1.409 . S
C371 H363 0.930 . S
C371 C372 1.362 . S
C371 C373 1.415 . S
C372 C371 1.362 . S
C372 C374 1.415 1_556 S
C373 C368 1.425 . S
C373 C370 1.409 . S
C373 C371 1.415 . S
C374 H364 0.930 . S
C374 C372 1.415 1_554 S
C374 C375 1.362 . S
C375 H365 0.930 . S
C375 C368 1.409 1_554 S
C375 C374 1.362 . S
H376 C382 0.930 . S
H377 C385 0.930 . S
H378 C386 0.930 . S
H379 C387 0.930 . S
H380 C390 0.930 . S
H381 C391 0.930 . S
C382 H376 0.930 . S
C382 C383 1.355 1_556 S
C382 C384 1.415 . S
C383 C382 1.355 1_554 S
C383 C385 1.419 . S
C384 C382 1.415 . S
C384 C389 1.425 1_556 S
C384 C391 1.409 . S
C385 H377 0.930 . S
C385 C383 1.419 . S
C385 C386 1.362 . S
C386 H378 0.930 . S
C386 C385 1.362 . S
C386 C389 1.409 . S
C387 H379 0.930 . S
C387 C388 1.348 1_554 S
C387 C389 1.415 . S
C388 C387 1.348 1_556 S
C388 C390 1.427 . S
C389 C384 1.425 1_554 S
C389 C386 1.409 . S
C389 C387 1.415 . S
C390 H380 0.930 . S
C390 C388 1.427 . S
C390 C391 1.362 . S
C391 H381 0.930 . S
C391 C384 1.409 . S
C391 C390 1.362 . S
H392 C398 0.930 . S
H393 C401 0.930 . S
H394 C402 0.930 . S
H395 C403 0.930 . S
H396 C406 0.930 . S
H397 C407 0.930 . S
C398 H392 0.930 . S
C398 C399 1.355 1_554 S
C398 C400 1.415 . S
C399 C398 1.355 1_556 S
C399 C401 1.419 . S
C400 C398 1.415 . S
C400 C405 1.425 1_554 S
C400 C407 1.409 . S
C401 H393 0.930 . S
C401 C399 1.419 . S
C401 C402 1.362 . S
C402 H394 0.930 . S
C402 C401 1.362 . S
C402 C405 1.409 . S
C403 H395 0.930 . S
C403 C404 1.355 1_556 S
C403 C405 1.415 . S
C404 C403 1.355 1_554 S
C404 C406 1.419 . S
C405 C400 1.425 1_556 S
C405 C402 1.409 . S
C405 C403 1.415 . S
C406 H396 0.930 . S
C406 C404 1.419 . S
C406 C407 1.362 . S
C407 H397 0.930 . S
C407 C400 1.409 . S
C407 C406 1.362 . S
H408 C414 0.924 1_556 S
H409 C417 0.930 . S
H410 C418 0.930 . S
H411 C419 0.930 . S
H412 C422 0.930 . S
H413 C423 0.930 . S
C414 H408 0.924 1_554 S
C414 C415 1.360 . S
C414 C416 1.415 . S
C415 C414 1.360 . S
C415 C417 1.419 . S
C416 C414 1.415 . S
C416 C421 1.425 . S
C416 C423 1.409 1_554 S
C417 H409 0.930 . S
C417 C415 1.419 . S
C417 C418 1.362 . S
C418 H410 0.930 . S
C418 C417 1.362 . S
C418 C421 1.409 . S
C419 H411 0.930 . S
C419 C420 1.355 . S
C419 C421 1.415 . S
C420 C419 1.355 . S
C420 C422 1.419 1_554 S
C421 C416 1.425 . S
C421 C418 1.409 . S
C421 C419 1.415 . S
C422 H412 0.930 . S
C422 C420 1.419 1_556 S
C422 C423 1.362 . S
C423 H413 0.930 . S
C423 C416 1.409 1_556 S
C423 C422 1.362 . S
H424 C430 0.930 . S
H425 C433 0.930 . S
H426 C434 0.930 . S
H427 C435 0.930 . S
H428 C438 0.930 . S
H429 C439 0.930 . S
C430 H424 0.930 . S
C430 C431 1.355 . S
C430 C432 1.415 . S
C431 C430 1.355 . S
C431 C433 1.419 1_554 S
C432 C430 1.415 . S
C432 C437 1.425 . S
C432 C439 1.409 . S
C433 H425 0.930 . S
C433 C431 1.419 1_556 S
C433 C434 1.362 . S
C434 H426 0.930 . S
C434 C433 1.362 . S
C434 C437 1.409 1_556 S
C435 H427 0.930 . S
C435 C436 1.355 1_556 S
C435 C437 1.415 1_556 S
C436 C435 1.355 1_554 S
C436 C438 1.419 . S
C437 C432 1.425 . S
C437 C434 1.409 1_554 S
C437 C435 1.415 1_554 S
C438 H428 0.930 . S
C438 C436 1.419 . S
C438 C439 1.362 . S
C439 H429 0.930 . S
C439 C432 1.409 . S
C439 C438 1.362 . S
H440 C446 0.930 . S
H441 C449 0.930 . S
H442 C450 0.930 . S
H443 C451 0.930 . S
H444 C454 0.930 . S
H445 C455 0.930 . S
C446 H440 0.930 . S
C446 C447 1.355 . S
C446 C448 1.415 . S
C447 C446 1.355 . S
C447 C449 1.419 1_554 S
C448 C446 1.415 . S
C448 C453 1.445 . S
C448 C455 1.409 . S
C449 H441 0.930 . S
C449 C447 1.419 1_556 S
C449 C450 1.362 . S
C450 H442 0.930 . S
C450 C449 1.362 . S
C450 C453 1.397 1_556 S
C451 H443 0.930 . S
C451 C452 1.355 1_556 S
C451 C453 1.408 1_556 S
C452 C451 1.355 1_554 S
C452 C454 1.419 . S
C453 C448 1.445 . S
C453 C450 1.397 1_554 S
C453 C451 1.408 1_554 S
C454 H444 0.930 . S
C454 C452 1.419 . S
C454 C455 1.362 . S
C455 H445 0.930 . S
C455 C448 1.409 . S
C455 C454 1.362 . S
H456 C462 0.930 . S
H457 C465 0.930 . S
H458 C466 0.930 1_455 S
H459 C467 0.930 . S
H460 C470 0.930 . S
H461 C471 0.930 . S
C462 H456 0.930 . S
C462 C463 1.355 . S
C462 C464 1.393 1_655 S
C463 C462 1.355 . S
C463 C465 1.419 . S
C464 C462 1.393 1_455 S
C464 C469 1.429 . S
C464 C471 1.427 . S
C465 H457 0.930 . S
C465 C463 1.419 . S
C465 C466 1.362 . S
C466 H458 0.930 1_655 S
C466 C465 1.362 . S
C466 C469 1.409 1_655 S
C467 H459 0.930 . S
C467 C468 1.355 . S
C467 C469 1.415 . S
C468 C467 1.355 . S
C468 C470 1.419 . S
C469 C464 1.429 . S
C469 C466 1.409 1_455 S
C469 C467 1.415 . S
C470 H460 0.930 . S
C470 C468 1.419 . S
C470 C471 1.362 . S
C471 H461 0.930 . S
C471 C464 1.427 . S
C471 C470 1.362 . S
H472 C478 0.930 . S
H473 C481 0.930 . S
H474 C482 0.930 . S
H475 C483 0.930 . S
H476 C486 0.930 . S
H477 C487 0.930 . S
C478 H472 0.930 . S
C478 C479 1.355 . S
C478 C480 1.415 . S
C479 C478 1.355 . S
C479 C481 1.419 . S
C480 C478 1.415 . S
C480 C485 1.425 . S
C480 C487 1.409 . S
C481 H473 0.930 . S
C481 C479 1.419 . S
C481 C482 1.362 . S
C482 H474 0.930 . S
C482 C481 1.362 . S
C482 C485 1.409 . S
C483 H475 0.930 . S
C483 C484 1.355 . S
C483 C485 1.415 . S
C484 C483 1.355 . S
C484 C486 1.419 . S
C485 C480 1.425 . S
C485 C482 1.409 . S
C485 C483 1.415 . S
C486 H476 0.930 . S
C486 C484 1.419 . S
C486 C487 1.362 . S
C487 H477 0.930 . S
C487 C480 1.409 . S
C487 C486 1.362 . S
H488 C494 0.930 . S
H489 C497 0.930 . S
H490 C498 0.930 . S
H491 C499 0.930 . S
H492 C502 0.930 . S
H493 C503 0.930 . S
C494 H488 0.930 . S
C494 C495 1.355 . S
C494 C496 1.415 1_545 S
C495 C494 1.355 . S
C495 C497 1.419 . S
C496 C494 1.415 1_565 S
C496 C501 1.425 . S
C496 C503 1.409 . S
C497 H489 0.930 . S
C497 C495 1.419 . S
C497 C498 1.362 1_545 S
C498 H490 0.930 . S
C498 C497 1.362 1_565 S
C498 C501 1.409 . S
C499 H491 0.930 . S
C499 C500 1.355 . S
C499 C501 1.415 . S
C500 C499 1.355 . S
C500 C502 1.419 . S
C501 C496 1.425 . S
C501 C498 1.409 . S
C501 C499 1.415 . S
C502 H492 0.930 . S
C502 C500 1.419 . S
C502 C503 1.362 . S
C503 H493 0.930 . S
C503 C496 1.409 . S
C503 C502 1.362 . S
H504 C510 0.930 . S
H505 C513 0.930 . S
H506 C514 0.930 . S
H507 C515 0.930 . S
H508 C518 0.930 . S
H509 C519 0.930 . S
C510 H504 0.930 . S
C510 C511 1.355 . S
C510 C512 1.415 . S
C511 C510 1.355 . S
C511 C513 1.419 . S
C512 C510 1.415 . S
C512 C517 1.425 . S
C512 C519 1.409 . S
C513 H505 0.930 . S
C513 C511 1.419 . S
C513 C514 1.362 . S
C514 H506 0.930 . S
C514 C513 1.362 . S
C514 C517 1.409 . S
C515 H507 0.930 . S
C515 C516 1.355 . S
C515 C517 1.415 . S
C516 C515 1.355 . S
C516 C518 1.419 . S
C517 C512 1.425 . S
C517 C514 1.409 . S
C517 C515 1.415 . S
C518 H508 0.930 . S
C518 C516 1.419 . S
C518 C519 1.362 . S
C519 H509 0.930 . S
C519 C512 1.409 . S
C519 C518 1.362 . S
H520 C526 0.930 . S
H521 C529 0.930 . S
H522 C530 0.930 . S
H523 C531 0.930 . S
H524 C534 0.930 . S
H525 C535 0.930 . S
C526 H520 0.930 . S
C526 C527 1.355 . S
C526 C528 1.415 . S
C527 C526 1.355 . S
C527 C529 1.419 . S
C528 C526 1.415 . S
C528 C533 1.425 . S
C528 C535 1.409 . S
C529 H521 0.930 . S
C529 C527 1.419 . S
C529 C530 1.362 . S
C530 H522 0.930 . S
C530 C529 1.362 . S
C530 C533 1.409 . S
C531 H523 0.930 . S
C531 C532 1.355 . S
C531 C533 1.415 . S
C532 C531 1.355 . S
C532 C534 1.419 . S
C533 C528 1.425 . S
C533 C530 1.409 . S
C533 C531 1.415 . S
C534 H524 0.930 . S
C534 C532 1.419 . S
C534 C535 1.362 . S
C535 H525 0.930 . S
C535 C528 1.409 . S
C535 C534 1.362 . S
H536 C542 0.930 . S
H537 C545 0.930 . S
H538 C546 0.930 . S
H539 C547 0.930 . S
H540 C550 0.930 . S
H541 C551 0.930 . S
C542 H536 0.930 . S
C542 C543 1.355 . S
C542 C544 1.415 . S
C543 C542 1.355 . S
C543 C545 1.419 . S
C544 C542 1.415 . S
C544 C549 1.425 . S
C544 C551 1.409 . S
C545 H537 0.930 . S
C545 C543 1.419 . S
C545 C546 1.362 . S
C546 H538 0.930 . S
C546 C545 1.362 . S
C546 C549 1.409 . S
C547 H539 0.930 . S
C547 C548 1.355 . S
C547 C549 1.415 . S
C548 C547 1.355 . S
C548 C550 1.419 . S
C549 C544 1.425 . S
C549 C546 1.409 . S
C549 C547 1.415 . S
C550 H540 0.930 . S
C550 C548 1.419 . S
C550 C551 1.362 . S
C551 H541 0.930 . S
C551 C544 1.409 . S
C551 C550 1.362 . S
H552 C558 0.930 . S
H553 C561 0.930 . S
H554 C562 0.930 . S
H555 C563 0.930 . S
H556 C566 0.930 . S
H557 C567 0.930 . S
C558 H552 0.930 . S
C558 C559 1.355 . S
C558 C560 1.415 . S
C559 C558 1.355 . S
C559 C561 1.419 . S
C560 C558 1.415 . S
C560 C565 1.425 . S
C560 C567 1.409 . S
C561 H553 0.930 . S
C561 C559 1.419 . S
C561 C562 1.362 . S
C562 H554 0.930 . S
C562 C561 1.362 . S
C562 C565 1.409 . S
C563 H555 0.930 . S
C563 C564 1.355 . S
C563 C565 1.415 . S
C564 C563 1.355 . S
C564 C566 1.419 . S
C565 C560 1.425 . S
C565 C562 1.409 . S
C565 C563 1.415 . S
C566 H556 0.930 . S
C566 C564 1.419 . S
C566 C567 1.362 . S
C567 H557 0.930 . S
C567 C560 1.409 . S
C567 C566 1.362 . S
H568 C574 0.930 . S
H569 C577 0.930 . S
H570 C578 0.930 . S
H571 C579 0.930 . S
H572 C582 0.930 . S
H573 C583 0.930 . S
C574 H568 0.930 . S
C574 C575 1.355 . S
C574 C576 1.415 . S
C575 C574 1.355 . S
C575 C577 1.419 . S
C576 C574 1.415 . S
C576 C581 1.425 . S
C576 C583 1.409 . S
C577 H569 0.930 . S
C577 C575 1.419 . S
C577 C578 1.362 . S
C578 H570 0.930 . S
C578 C577 1.362 . S
C578 C581 1.409 . S
C579 H571 0.930 . S
C579 C580 1.355 . S
C579 C581 1.415 . S
C580 C579 1.355 . S
C580 C582 1.419 . S
C581 C576 1.425 . S
C581 C578 1.409 . S
C581 C579 1.415 . S
C582 H572 0.930 . S
C582 C580 1.419 . S
C582 C583 1.362 . S
C583 H573 0.930 . S
C583 C576 1.409 . S
C583 C582 1.362 . S
H584 C590 0.930 . S
H585 C593 0.930 . S
H586 C594 0.930 . S
H587 C595 0.930 . S
H588 C598 0.930 . S
H589 C599 0.930 . S
C590 H584 0.930 . S
C590 C591 1.355 . S
C590 C592 1.415 . S
C591 C590 1.355 . S
C591 C593 1.419 . S
C592 C590 1.415 . S
C592 C597 1.425 . S
C592 C599 1.409 . S
C593 H585 0.930 . S
C593 C591 1.419 . S
C593 C594 1.362 . S
C594 H586 0.930 . S
C594 C593 1.362 . S
C594 C597 1.409 . S
C595 H587 0.930 . S
C595 C596 1.355 . S
C595 C597 1.415 . S
C596 C595 1.355 . S
C596 C598 1.419 . S
C597 C592 1.425 . S
C597 C594 1.409 . S
C597 C595 1.415 . S
C598 H588 0.930 . S
C598 C596 1.419 . S
C598 C599 1.362 . S
C599 H589 0.930 . S
C599 C592 1.409 . S
C599 C598 1.362 . S
H600 C606 0.930 . S
H601 C609 0.930 . S
H602 C610 0.930 . S
H603 C611 0.930 . S
H604 C614 0.930 . S
H605 C615 0.930 . S
C606 H600 0.930 . S
C606 C607 1.355 . S
C606 C608 1.415 . S
C607 C606 1.355 . S
C607 C609 1.419 . S
C608 C606 1.415 . S
C608 C613 1.425 . S
C608 C615 1.409 . S
C609 H601 0.930 . S
C609 C607 1.419 . S
C609 C610 1.362 . S
C610 H602 0.930 . S
C610 C609 1.362 . S
C610 C613 1.409 . S
C611 H603 0.930 . S
C611 C612 1.355 . S
C611 C613 1.415 1_545 S
C612 C611 1.355 . S
C612 C614 1.419 . S
C613 C608 1.425 . S
C613 C610 1.409 . S
C613 C611 1.415 1_565 S
C614 H604 0.930 . S
C614 C612 1.419 . S
C614 C615 1.362 1_545 S
C615 H605 0.930 . S
C615 C608 1.409 . S
C615 C614 1.362 1_565 S
H616 C622 0.948 . S
H617 C625 0.930 . S
H618 C626 0.930 . S
H619 C627 0.930 . S
H620 C630 0.930 . S
H621 C631 0.930 . S
C622 H616 0.948 . S
C622 C623 1.346 1_545 S
C622 C624 1.406 . S
C623 C622 1.346 1_565 S
C623 C625 1.419 . S
C624 C622 1.406 . S
C624 C629 1.425 1_545 S
C624 C631 1.409 . S
C625 H617 0.930 . S
C625 C623 1.419 . S
C625 C626 1.362 . S
C626 H618 0.930 . S
C626 C625 1.362 . S
C626 C629 1.409 . S
C627 H619 0.930 . S
C627 C628 1.355 1_565 S
C627 C629 1.415 . S
C628 C627 1.355 1_545 S
C628 C630 1.419 . S
C629 C624 1.425 1_565 S
C629 C626 1.409 . S
C629 C627 1.415 . S
C630 H620 0.930 . S
C630 C628 1.419 . S
C630 C631 1.362 . S
C631 H621 0.930 . S
C631 C624 1.409 . S
C631 C630 1.362 . S
H632 C638 0.930 . S
H633 C641 0.930 . S
H634 C642 0.930 . S
H635 C643 0.930 . S
H636 C646 0.930 . S
H637 C647 0.930 . S
C638 H632 0.930 . S
C638 C639 1.355 . S
C638 C640 1.415 . S
C639 C638 1.355 . S
C639 C641 1.419 . S
C640 C638 1.415 . S
C640 C645 1.425 . S
C640 C647 1.409 . S
C641 H633 0.930 . S
C641 C639 1.419 . S
C641 C642 1.362 . S
C642 H634 0.930 . S
C642 C641 1.362 . S
C642 C645 1.409 . S
C643 H635 0.930 . S
C643 C644 1.355 . S
C643 C645 1.415 . S
C644 C643 1.355 . S
C644 C646 1.419 . S
C645 C640 1.425 . S
C645 C642 1.409 . S
C645 C643 1.415 . S
C646 H636 0.930 . S
C646 C644 1.419 . S
C646 C647 1.362 . S
C647 H637 0.930 . S
C647 C640 1.409 . S
C647 C646 1.362 . S
H648 C654 0.930 . S
H649 C657 0.930 . S
H650 C658 0.930 . S
H651 C659 0.930 . S
H652 C662 0.930 . S
H653 C663 0.930 . S
C654 H648 0.930 . S
C654 C655 1.355 . S
C654 C656 1.415 . S
C655 C654 1.355 . S
C655 C657 1.419 . S
C656 C654 1.415 . S
C656 C661 1.425 . S
C656 C663 1.409 . S
C657 H649 0.930 . S
C657 C655 1.419 . S
C657 C658 1.362 . S
C658 H650 0.930 . S
C658 C657 1.362 . S
C658 C661 1.409 . S
C659 H651 0.930 . S
C659 C660 1.355 . S
C659 C661 1.415 . S
C660 C659 1.355 . S
C660 C662 1.419 . S
C661 C656 1.425 . S
C661 C658 1.409 . S
C661 C659 1.415 . S
C662 H652 0.930 . S
C662 C660 1.419 . S
C662 C663 1.362 . S
C663 H653 0.930 . S
C663 C656 1.409 . S
C663 C662 1.362 . S
H664 C670 0.930 . S
H665 C673 0.930 . S
H666 C674 0.930 . S
H667 C675 0.930 . S
H668 C678 0.930 . S
H669 C679 0.930 . S
C670 H664 0.930 . S
C670 C671 1.355 . S
C670 C672 1.415 . S
C671 C670 1.355 . S
C671 C673 1.419 . S
C672 C670 1.415 . S
C672 C677 1.425 . S
C672 C679 1.409 . S
C673 H665 0.930 . S
C673 C671 1.419 . S
C673 C674 1.362 . S
C674 H666 0.930 . S
C674 C673 1.362 . S
C674 C677 1.409 . S
C675 H667 0.930 . S
C675 C676 1.355 . S
C675 C677 1.415 . S
C676 C675 1.355 . S
C676 C678 1.419 . S
C677 C672 1.425 . S
C677 C674 1.409 . S
C677 C675 1.415 . S
C678 H668 0.930 . S
C678 C676 1.419 . S
C678 C679 1.362 . S
C679 H669 0.930 . S
C679 C672 1.409 . S
C679 C678 1.362 . S
H680 C686 0.930 . S
H681 C689 0.930 . S
H682 C690 0.930 . S
H683 C691 0.930 . S
H684 C694 0.930 . S
H685 C695 0.930 . S
C686 H680 0.930 . S
C686 C687 1.355 . S
C686 C688 1.415 . S
C687 C686 1.355 . S
C687 C689 1.419 . S
C688 C686 1.415 . S
C688 C693 1.425 . S
C688 C695 1.409 . S
C689 H681 0.930 . S
C689 C687 1.419 . S
C689 C690 1.362 . S
C690 H682 0.930 . S
C690 C689 1.362 . S
C690 C693 1.409 . S
C691 H683 0.930 . S
C691 C692 1.355 . S
C691 C693 1.415 . S
C692 C691 1.355 . S
C692 C694 1.419 . S
C693 C688 1.425 . S
C693 C690 1.409 . S
C693 C691 1.415 . S
C694 H684 0.930 . S
C694 C692 1.419 . S
C694 C695 1.362 . S
C695 H685 0.930 . S
C695 C688 1.409 . S
C695 C694 1.362 . S
H696 C702 0.930 . S
H697 C705 0.930 . S
H698 C706 0.930 . S
H699 C707 0.930 . S
H700 C710 0.930 . S
H701 C711 0.930 . S
C702 H696 0.930 . S
C702 C703 1.355 . S
C702 C704 1.415 . S
C703 C702 1.355 . S
C703 C705 1.419 . S
C704 C702 1.415 . S
C704 C709 1.425 . S
C704 C711 1.409 . S
C705 H697 0.930 . S
C705 C703 1.419 . S
C705 C706 1.362 . S
C706 H698 0.930 . S
C706 C705 1.362 . S
C706 C709 1.409 . S
C707 H699 0.930 . S
C707 C708 1.355 . S
C707 C709 1.415 . S
C708 C707 1.355 . S
C708 C710 1.419 . S
C709 C704 1.425 . S
C709 C706 1.409 . S
C709 C707 1.415 . S
C710 H700 0.930 . S
C710 C708 1.419 . S
C710 C711 1.362 . S
C711 H701 0.930 . S
C711 C704 1.409 . S
C711 C710 1.362 . S
H712 C718 0.930 . S
H713 C721 0.930 . S
H714 C722 0.930 . S
H715 C723 0.930 . S
H716 C726 0.930 . S
H717 C727 0.930 . S
C718 H712 0.930 . S
C718 C719 1.355 . S
C718 C720 1.415 . S
C719 C718 1.355 . S
C719 C721 1.419 . S
C720 C718 1.415 . S
C720 C725 1.425 . S
C720 C727 1.409 . S
C721 H713 0.930 . S
C721 C719 1.419 . S
C721 C722 1.362 . S
C722 H714 0.930 . S
C722 C721 1.362 . S
C722 C725 1.409 . S
C723 H715 0.930 . S
C723 C724 1.355 . S
C723 C725 1.415 . S
C724 C723 1.355 . S
C724 C726 1.419 . S
C725 C720 1.425 . S
C725 C722 1.409 . S
C725 C723 1.415 . S
C726 H716 0.930 . S
C726 C724 1.419 . S
C726 C727 1.362 . S
C727 H717 0.930 . S
C727 C720 1.409 . S
C727 C726 1.362 . S
H728 C734 0.930 . S
H729 C737 0.930 . S
H730 C738 0.930 . S
H731 C739 0.930 . S
H732 C742 0.930 . S
H733 C743 0.930 . S
C734 H728 0.930 . S
C734 C735 1.355 . S
C734 C736 1.415 . S
C735 C734 1.355 . S
C735 C737 1.419 . S
C736 C734 1.415 . S
C736 C741 1.425 . S
C736 C743 1.409 . S
C737 H729 0.930 . S
C737 C735 1.419 . S
C737 C738 1.362 . S
C738 H730 0.930 . S
C738 C737 1.362 . S
C738 C741 1.409 . S
C739 H731 0.930 . S
C739 C740 1.355 . S
C739 C741 1.415 . S
C740 C739 1.355 . S
C740 C742 1.419 . S
C741 C736 1.425 . S
C741 C738 1.409 . S
C741 C739 1.415 . S
C742 H732 0.930 . S
C742 C740 1.419 . S
C742 C743 1.362 . S
C743 H733 0.930 . S
C743 C736 1.409 . S
C743 C742 1.362 . S
H744 C750 0.930 . S
H745 C753 0.930 . S
H746 C754 0.930 . S
H747 C755 0.930 . S
H748 C758 0.930 . S
H749 C759 0.930 . S
C750 H744 0.930 . S
C750 C751 1.355 . S
C750 C752 1.415 . S
C751 C750 1.355 . S
C751 C753 1.419 . S
C752 C750 1.415 . S
C752 C757 1.425 . S
C752 C759 1.409 . S
C753 H745 0.930 . S
C753 C751 1.419 . S
C753 C754 1.362 . S
C754 H746 0.930 . S
C754 C753 1.362 . S
C754 C757 1.409 . S
C755 H747 0.930 . S
C755 C756 1.355 . S
C755 C757 1.415 . S
C756 C755 1.355 . S
C756 C758 1.419 . S
C757 C752 1.425 . S
C757 C754 1.409 . S
C757 C755 1.415 . S
C758 H748 0.930 . S
C758 C756 1.419 . S
C758 C759 1.362 . S
C759 H749 0.930 . S
C759 C752 1.409 . S
C759 C758 1.362 . S
H760 C766 0.930 . S
H761 C769 0.930 . S
H762 C770 0.930 . S
H763 C771 0.930 . S
H764 C774 0.930 . S
H765 C775 0.930 . S
C766 H760 0.930 . S
C766 C767 1.355 . S
C766 C768 1.418 . S
C767 C766 1.355 . S
C767 C769 1.419 . S
C768 C766 1.418 . S
C768 C773 1.423 . S
C768 C775 1.407 1_565 S
C769 H761 0.930 . S
C769 C767 1.419 . S
C769 C770 1.362 . S
C770 H762 0.930 . S
C770 C769 1.362 . S
C770 C773 1.409 . S
C771 H763 0.930 . S
C771 C772 1.355 . S
C771 C773 1.415 1_545 S
C772 C771 1.355 . S
C772 C774 1.419 . S
C773 C768 1.423 . S
C773 C770 1.409 . S
C773 C771 1.415 1_565 S
C774 H764 0.930 . S
C774 C772 1.419 . S
C774 C775 1.362 . S
C775 H765 0.930 . S
C775 C768 1.407 1_545 S
C775 C774 1.362 . S
H776 C782 0.930 . S
H777 C785 0.930 . S
H778 C786 0.930 . S
H779 C787 0.930 . S
H780 C790 0.930 . S
H781 C791 0.930 . S
C782 H776 0.930 . S
C782 C783 1.355 . S
C782 C784 1.415 . S
C783 C782 1.355 . S
C783 C785 1.419 . S
C784 C782 1.415 . S
C784 C789 1.425 1_655 S
C784 C791 1.409 . S
C785 H777 0.930 . S
C785 C783 1.419 . S
C785 C786 1.362 1_655 S
C786 H778 0.930 . S
C786 C785 1.362 1_455 S
C786 C789 1.409 . S
C787 H779 0.930 . S
C787 C788 1.355 . S
C787 C789 1.415 . S
C788 C787 1.355 . S
C788 C790 1.419 . S
C789 C784 1.425 1_455 S
C789 C786 1.409 . S
C789 C787 1.415 . S
C790 H780 0.930 . S
C790 C788 1.419 . S
C790 C791 1.362 1_455 S
C791 H781 0.930 . S
C791 C784 1.409 . S
C791 C790 1.362 1_655 S
C367 C66 0.581 . S
C372 C17 0.585 1_556 S
C383 C104 3.419 . S
C388 C53 3.452 . S
C399 C97 0.995 1_556 S
C404 C24 0.999 . S
C415 C93 3.042 . S
C420 C64 3.018 . S
C431 C106 2.101 . S
C436 C13 2.097 . S
C447 C26 0.654 . S
C452 C57 0.820 . S
C463 C137 2.854 . S
C468 C184 2.904 . S
C479 C224 1.037 . S
C484 C177 1.042 . S
C495 C217 0.830 . S
C500 C144 0.837 . S
C511 C186 0.334 . S
C516 C213 0.307 . S
C527 C226 2.159 . S
C532 C133 2.151 . S
C543 C173 2.327 . S
C548 C146 2.338 . S
C559 C306 0.714 . S
C564 C257 0.700 . S
C575 C293 3.478 . S
C580 C344 3.447 . S
C591 C337 1.013 . S
C596 C264 1.017 . S
C607 C333 2.980 . S
C612 C304 2.959 . S
C623 C346 2.096 . S
C628 C253 2.089 . S
C639 C266 0.618 . S
C644 C297 0.792 . S
C655 C223 2.365 . S
C660 C2 2.647 . S
C671 C143 1.973 . S
C676 C63 1.979 . S
C687 C82 3.054 . S
C692 C183 2.845 . S
C703 C103 2.315 . S
C708 C242 2.629 . S
C719 C23 2.005 . S
C724 C303 1.937 . S
C735 C322 3.004 . S
C740 C42 3.035 . S
C751 C122 2.710 . S
C756 C343 2.411 . S
C767 C162 2.156 . S
C772 C263 1.990 . S
C783 C282 2.987 . S
C788 C202 2.961 . S
