# Generated by pormake.
# Topology mok, (4)-cn, num edge types: 1
# Building blocks:
#     Node 0, Type 0, BuildingBlock: ICAMEG_clean_sbu_1, # of connection points: 4
#     Node 1, Type 0, BuildingBlock: ICAMEG_clean_sbu_1, # of connection points: 4
#     Node 2, Type 0, BuildingBlock: ICAMEG_clean_sbu_1, # of connection points: 4
#     Node 3, Type 0, BuildingBlock: ICAMEG_clean_sbu_1, # of connection points: 4
#     Node 4, Type 0, BuildingBlock: ICAMEG_clean_sbu_1, # of connection points: 4
#     Node 5, Type 0, BuildingBlock: ICAMEG_clean_sbu_1, # of connection points: 4
#     Node 6, Type 0, BuildingBlock: ICAMEG_clean_sbu_1, # of connection points: 4
#     Node 7, Type 0, BuildingBlock: ICAMEG_clean_sbu_1, # of connection points: 4
#     Edge 8, Type (0, 0), BuildingBlock: TEMPAE_clean_linker_10, # of connection points: 2
#     Edge 9, Type (0, 0), BuildingBlock: TEMPAE_clean_linker_10, # of connection points: 2
#     Edge 10, Type (0, 0), BuildingBlock: TEMPAE_clean_linker_10, # of connection points: 2
#     Edge 11, Type (0, 0), BuildingBlock: TEMPAE_clean_linker_10, # of connection points: 2
#     Edge 12, Type (0, 0), BuildingBlock: TEMPAE_clean_linker_10, # of connection points: 2
#     Edge 13, Type (0, 0), BuildingBlock: TEMPAE_clean_linker_10, # of connection points: 2
#     Edge 14, Type (0, 0), BuildingBlock: TEMPAE_clean_linker_10, # of connection points: 2
#     Edge 15, Type (0, 0), BuildingBlock: TEMPAE_clean_linker_10, # of connection points: 2
#     Edge 16, Type (0, 0), BuildingBlock: TEMPAE_clean_linker_10, # of connection points: 2
#     Edge 17, Type (0, 0), BuildingBlock: TEMPAE_clean_linker_10, # of connection points: 2
#     Edge 18, Type (0, 0), BuildingBlock: TEMPAE_clean_linker_10, # of connection points: 2
#     Edge 19, Type (0, 0), BuildingBlock: TEMPAE_clean_linker_10, # of connection points: 2
#     Edge 20, Type (0, 0), BuildingBlock: TEMPAE_clean_linker_10, # of connection points: 2
#     Edge 21, Type (0, 0), BuildingBlock: TEMPAE_clean_linker_10, # of connection points: 2
#     Edge 22, Type (0, 0), BuildingBlock: TEMPAE_clean_linker_10, # of connection points: 2
#     Edge 23, Type (0, 0), BuildingBlock: TEMPAE_clean_linker_10, # of connection points: 2
# Relax obj value: 0.014
# Max RMSD: 0.052
# Mean RMSD: 0.052
data_MOF--net-mok--node1-ICAMEG_clean_sbu_1--edge1-TEMPAE_clean_linker_10
_symmetry_space_group_name_H-M    P1
_symmetry_Int_Tables_number       1
_symmetry_cell_setting            triclinic
loop_
_symmetry_equiv_pos_as_xyz
'x, y, z'
_cell_length_a     59.043282
_cell_length_b     14.72944
_cell_length_c     30.415368
_cell_angle_alpha  90.001714
_cell_angle_beta   90.002511
_cell_angle_gamma 89.995567
loop_
_atom_site_label
_atom_site_type_symbol
_atom_site_fract_x
_atom_site_fract_y
_atom_site_fract_z
_atom_type_partial_charge
Co0 Co 0.62712 0.41088 0.0575 0.0
Co1 Co 0.62233 0.19477 0.01542 0.0
O2 O 0.61372 0.28851 0.05854 0.0
C3 C 0.62208 0.3636 0.15405 0.0
O4 O 0.61391 0.28289 0.14515 0.0
C5 C 0.57183 0.1881 0.01601 0.0
O6 O 0.57132 0.27704 0.01831 0.0
O7 O 0.61452 0.27799 0.96622 0.0
O8 O 0.62796 0.4101 0.99173 0.0
H9 H 0.66082 0.07881 0.87916 0.0
H10 H 0.5837 0.38004 0.10582 0.0
O11 O 0.62739 0.41866 0.12347 0.0
H12 H 0.56702 0.6196 0.99756 0.0
H13 H 0.63622 0.73667 0.10515 0.0
H14 H 0.66457 0.49549 0.00705 0.0
H15 H 0.60522 0.55313 0.00228 0.0
H16 H 0.61914 0.58383 0.10652 0.0
O17 O 0.59066 0.14616 0.0148 0.0
H18 H 0.65019 0.19398 0.93431 0.0
H19 H 0.61162 0.99787 0.00418 0.0
H20 H 0.68199 0.64761 0.00431 0.0
H21 H 0.54543 0.44549 0.10264 0.0
H22 H 0.66776 0.76955 0.05354 0.0
H23 H 0.53681 0.56618 0.04813 0.0
O24 O 0.65791 0.35713 0.06022 0.0
H25 H 0.60744 0.03071 0.1574 0.0
H26 H 0.66216 0.07775 0.0371 0.0
H27 H 0.67168 0.97294 0.09748 0.0
H28 H 0.64417 0.94849 0.15813 0.0
H29 H 0.59867 0.13555 0.09649 0.0
H30 H 0.62172 0.88078 0.94965 0.0
H31 H 0.64656 0.92089 0.88667 0.0
O32 O 0.65452 0.23834 0.01468 0.0
C33 C 0.62045 0.36037 0.96067 0.0
C34 C 0.65004 0.06043 0.90653 0.0
C35 C 0.62807 0.94932 0.94605 0.0
N36 N 0.63045 0.10259 0.97262 0.0
C37 C 0.644 0.12531 0.93792 0.0
C38 C 0.62237 0.016 0.97678 0.0
C39 C 0.64201 0.97186 0.91074 0.0
C40 C 0.58032 0.43348 0.08258 0.0
N41 N 0.59691 0.4635 0.05486 0.0
C42 C 0.55849 0.46989 0.08066 0.0
C43 C 0.55365 0.5374 0.04999 0.0
C44 C 0.57059 0.56733 0.0216 0.0
C45 C 0.5922 0.52923 0.02441 0.0
C46 C 0.64252 0.68417 0.08345 0.0
C47 C 0.65822 0.54829 0.02842 0.0
C48 C 0.63296 0.59742 0.08415 0.0
N49 N 0.6407 0.53101 0.05654 0.0
C50 C 0.66819 0.63424 0.02682 0.0
C51 C 0.66022 0.70259 0.05448 0.0
C52 C 0.66647 0.29326 0.03739 0.0
C53 C 0.61957 0.04081 0.13118 0.0
C54 C 0.6502 0.06848 0.06362 0.0
C55 C 0.65564 0.00858 0.09762 0.0
C56 C 0.64019 0.99479 0.13159 0.0
N57 N 0.6299 0.11323 0.06338 0.0
C58 C 0.61468 0.10002 0.09658 0.0
Co59 Co 0.37325 0.56468 0.04897 0.0
Co60 Co 0.38067 0.78565 0.01561 0.0
O61 O 0.38832 0.68353 0.0547 0.0
C62 C 0.37192 0.60241 0.14502 0.0
O63 O 0.36839 0.68855 0.13647 0.0
C64 C 0.43145 0.79741 0.02932 0.0
O65 O 0.43182 0.71932 0.04999 0.0
O66 O 0.38748 0.70886 0.96352 0.0
O67 O 0.37117 0.57788 0.98354 0.0
H68 H 0.34233 0.9281 0.88521 0.0
H69 H 0.4163 0.57116 0.09902 0.0
O70 O 0.3746 0.54551 0.11402 0.0
H71 H 0.43057 0.36067 0.97603 0.0
H72 H 0.36108 0.23345 0.08311 0.0
H73 H 0.33394 0.49676 0.99789 0.0
H74 H 0.39328 0.43361 0.98471 0.0
H75 H 0.37997 0.38216 0.08977 0.0
O76 O 0.41294 0.82992 0.01465 0.0
H77 H 0.35229 0.80318 0.93566 0.0
H78 H 0.39329 0.98201 0.01099 0.0
H79 H 0.31466 0.3491 0.99 0.0
H80 H 0.4538 0.4987 0.09189 0.0
H81 H 0.32827 0.21606 0.03271 0.0
H82 H 0.46113 0.39269 0.02998 0.0
O83 O 0.34329 0.62371 0.05601 0.0
H84 H 0.3965 0.91856 0.16503 0.0
H85 H 0.34269 0.90836 0.0412 0.0
H86 H 0.3341 0.00392 0.10553 0.0
H87 H 0.36117 0.00991 0.16798 0.0
H88 H 0.40427 0.82301 0.10037 0.0
H89 H 0.38387 0.10865 0.96122 0.0
H90 H 0.35815 0.08217 0.89789 0.0
O91 O 0.34794 0.74781 0.0144 0.0
C92 C 0.37994 0.62991 0.95473 0.0
C93 C 0.35351 0.94054 0.91276 0.0
C94 C 0.37685 0.04184 0.95537 0.0
N95 N 0.37321 0.88535 0.97643 0.0
C96 C 0.35917 0.87012 0.94149 0.0
C97 C 0.38216 0.96977 0.98339 0.0
C98 C 0.3624 0.02695 0.91987 0.0
C99 C 0.41934 0.52483 0.07211 0.0
N100 N 0.40264 0.50711 0.04224 0.0
C101 C 0.44062 0.48417 0.06817 0.0
C102 C 0.44474 0.42481 0.03339 0.0
C103 C 0.42761 0.40691 0.00308 0.0
C104 C 0.40655 0.44888 0.00804 0.0
C105 C 0.35503 0.29086 0.06423 0.0
C106 C 0.34002 0.43912 0.01646 0.0
C107 C 0.36563 0.37531 0.06793 0.0
N108 N 0.3582 0.44793 0.04391 0.0
C109 C 0.329 0.35572 0.01194 0.0
C110 C 0.33663 0.28114 0.03594 0.0
C111 C 0.33543 0.6924 0.03567 0.0
C112 C 0.38464 0.91699 0.1379 0.0
C113 C 0.35453 0.9101 0.06828 0.0
C114 C 0.34959 0.96462 0.1046 0.0
C115 C 0.36479 0.96804 0.13959 0.0
N116 N 0.37414 0.86073 0.06665 0.0
C117 C 0.38904 0.8634 0.10098 0.0
Co118 Co 0.6284 0.56297 0.5598 0.0
Co119 Co 0.62134 0.78325 0.59486 0.0
O120 O 0.61355 0.68245 0.55503 0.0
C121 C 0.62986 0.6037 0.46392 0.0
O122 O 0.63327 0.68974 0.47288 0.0
C123 C 0.57054 0.79571 0.58179 0.0
O124 O 0.57007 0.71777 0.56101 0.0
O125 O 0.61467 0.70503 0.64656 0.0
O126 O 0.63033 0.57367 0.62527 0.0
H127 H 0.66008 0.92137 0.72592 0.0
H128 H 0.5855 0.57256 0.50936 0.0
O129 O 0.62719 0.54612 0.49461 0.0
H130 H 0.57053 0.35784 0.6303 0.0
H131 H 0.64006 0.2327 0.52285 0.0
H132 H 0.66752 0.49205 0.61048 0.0
H133 H 0.60796 0.43019 0.62271 0.0
H134 H 0.62141 0.38212 0.51741 0.0
O135 O 0.58911 0.82784 0.59639 0.0
H136 H 0.64995 0.79814 0.67464 0.0
H137 H 0.60882 0.97955 0.60104 0.0
H138 H 0.68655 0.34361 0.61717 0.0
H139 H 0.54788 0.50075 0.5154 0.0
H140 H 0.67278 0.21256 0.57322 0.0
H141 H 0.54019 0.39261 0.57627 0.0
O142 O 0.65851 0.62126 0.55359 0.0
H143 H 0.60515 0.92108 0.44665 0.0
H144 H 0.65931 0.90645 0.56979 0.0
H145 H 0.66773 0.00417 0.50614 0.0
H146 H 0.64048 0.01241 0.44405 0.0
H147 H 0.59754 0.82338 0.51062 0.0
H148 H 0.6184 0.10454 0.65167 0.0
H149 H 0.64427 0.07591 0.71455 0.0
O150 O 0.65402 0.74504 0.5955 0.0
C151 C 0.62196 0.62536 0.65467 0.0
C152 C 0.64883 0.93475 0.69857 0.0
C153 C 0.62541 0.03752 0.65694 0.0
N154 N 0.62896 0.8817 0.63468 0.0
C155 C 0.64308 0.86528 0.66937 0.0
C156 C 0.62001 0.96638 0.62844 0.0
C157 C 0.63994 0.02143 0.6922 0.0
C158 C 0.58231 0.52529 0.53581 0.0
N159 N 0.59889 0.50605 0.56572 0.0
C160 C 0.56096 0.48501 0.53914 0.0
C161 C 0.55665 0.42446 0.57334 0.0
C162 C 0.57365 0.40502 0.60369 0.0
C163 C 0.59478 0.44667 0.59936 0.0
C164 C 0.64617 0.28922 0.54226 0.0
C165 C 0.66136 0.43528 0.5914 0.0
C166 C 0.63571 0.37407 0.53927 0.0
N167 N 0.64322 0.44559 0.56396 0.0
C168 C 0.67225 0.35143 0.59523 0.0
C169 C 0.66453 0.27796 0.57054 0.0
C170 C 0.66647 0.68937 0.57427 0.0
C171 C 0.61709 0.91852 0.47362 0.0
C172 C 0.6474 0.90914 0.54285 0.0
C173 C 0.65224 0.96488 0.50692 0.0
C174 C 0.63694 0.96956 0.47213 0.0
N175 N 0.62778 0.85981 0.5443 0.0
C176 C 0.61278 0.86369 0.51015 0.0
Co177 Co 0.3768 0.41565 0.55147 0.0
Co178 Co 0.38044 0.19923 0.59442 0.0
O179 O 0.38935 0.29177 0.55091 0.0
C180 C 0.38022 0.36426 0.45515 0.0
O181 O 0.38784 0.28287 0.4644 0.0
C182 C 0.4309 0.19082 0.59428 0.0
O183 O 0.43159 0.2797 0.59158 0.0
O184 O 0.38826 0.28273 0.64355 0.0
O185 O 0.37676 0.41706 0.61718 0.0
H186 H 0.34122 0.08681 0.73059 0.0
H187 H 0.41933 0.37782 0.50138 0.0
O188 O 0.37577 0.42118 0.48546 0.0
H189 H 0.43922 0.61861 0.60693 0.0
H190 H 0.36962 0.74079 0.5016 0.0
H191 H 0.34067 0.50664 0.60298 0.0
H192 H 0.40047 0.55687 0.6045 0.0
H193 H 0.38546 0.5858 0.50063 0.0
O194 O 0.412 0.14948 0.59558 0.0
H195 H 0.35232 0.20075 0.67518 0.0
H196 H 0.39065 0.00213 0.60649 0.0
H197 H 0.32451 0.66102 0.60534 0.0
H198 H 0.45812 0.43842 0.50228 0.0
H199 H 0.33905 0.77943 0.55446 0.0
H200 H 0.46836 0.5597 0.55541 0.0
O201 O 0.34555 0.36582 0.55063 0.0
H202 H 0.39548 0.0313 0.45352 0.0
H203 H 0.34036 0.08383 0.57259 0.0
H204 H 0.33081 0.97802 0.51264 0.0
H205 H 0.35852 0.95076 0.45264 0.0
H206 H 0.40426 0.13728 0.51396 0.0
H207 H 0.38008 0.88623 0.66127 0.0
H208 H 0.35512 0.92823 0.72379 0.0
O209 O 0.34841 0.24419 0.5946 0.0
C210 C 0.38337 0.36635 0.64861 0.0
C211 C 0.35205 0.06762 0.70342 0.0
C212 C 0.37388 0.95507 0.66455 0.0
N213 N 0.37197 0.10804 0.63745 0.0
C214 C 0.35835 0.13179 0.6719 0.0
C215 C 0.37985 0.02107 0.63368 0.0
C216 C 0.35987 0.97867 0.69961 0.0
C217 C 0.42341 0.43155 0.52403 0.0
N218 N 0.40741 0.46456 0.55228 0.0
C219 C 0.44553 0.46519 0.52466 0.0
C220 C 0.45128 0.53303 0.55456 0.0
C221 C 0.43495 0.56605 0.58348 0.0
C222 C 0.41302 0.53063 0.58197 0.0
C223 C 0.36319 0.68985 0.52401 0.0
C224 C 0.34715 0.55788 0.58086 0.0
C225 C 0.37205 0.60189 0.52355 0.0
N226 N 0.36415 0.53742 0.55205 0.0
C227 C 0.33789 0.64513 0.58228 0.0
C228 C 0.34604 0.7115 0.55369 0.0
C229 C 0.33672 0.30179 0.57299 0.0
C230 C 0.38326 0.04261 0.47948 0.0
C231 C 0.3524 0.07339 0.54632 0.0
C232 C 0.34694 0.01291 0.51258 0.0
C233 C 0.36251 0.99753 0.47896 0.0
N234 N 0.37282 0.11719 0.54667 0.0
C235 C 0.38816 0.10245 0.51382 0.0
Co236 Co 0.12893 0.94138 0.04753 0.0
Co237 Co 0.12113 0.71948 0.01581 0.0
O238 O 0.11333 0.82412 0.05277 0.0
C239 C 0.12993 0.90332 0.14347 0.0
O240 O 0.13377 0.81746 0.13477 0.0
C241 C 0.07657 0.66144 0.98163 0.0
O242 O 0.08536 0.6701 0.94219 0.0
O243 O 0.11632 0.79449 0.96199 0.0
O244 O 0.13121 0.92808 0.98235 0.0
H245 H 0.16007 0.56252 0.89004 0.0
H246 H 0.08514 0.93148 0.09476 0.0
O247 O 0.12719 0.96034 0.11254 0.0
H248 H 0.07281 0.15045 0.97444 0.0
H249 H 0.14206 0.27175 0.08224 0.0
H250 H 0.16873 0.00729 0.99731 0.0
H251 H 0.10996 0.0766 0.98413 0.0
H252 H 0.12263 0.12404 0.08841 0.0
O253 O 0.08827 0.68278 0.0154 0.0
H254 H 0.14988 0.69281 0.93701 0.0
H255 H 0.1083 0.52275 0.01578 0.0
H256 H 0.18854 0.15394 0.9899 0.0
H257 H 0.04773 0.00432 0.08645 0.0
H258 H 0.17516 0.28755 0.03246 0.0
H259 H 0.0414 0.11473 0.02595 0.0
O260 O 0.15877 0.88081 0.055 0.0
H261 H 0.0998 0.59695 0.16438 0.0
H262 H 0.15812 0.59798 0.04835 0.0
H263 H 0.16426 0.50757 0.11546 0.0
H264 H 0.13493 0.50629 0.17399 0.0
H265 H 0.09446 0.68749 0.09697 0.0
H266 H 0.11809 0.39062 0.96974 0.0
H267 H 0.14416 0.41007 0.90635 0.0
O268 O 0.15405 0.75299 0.01596 0.0
C269 C 0.12354 0.87406 0.95322 0.0
C270 C 0.14871 0.55317 0.91758 0.0
C271 C 0.12514 0.45669 0.9623 0.0
N272 N 0.12858 0.61544 0.97918 0.0
C273 C 0.14287 0.6267 0.94429 0.0
C274 C 0.11967 0.53177 0.98826 0.0
C275 C 0.13977 0.46765 0.92675 0.0
C276 C 0.08252 0.97975 0.06848 0.0
N277 N 0.09974 1.00009 0.04015 0.0
C278 C 0.0613 0.02062 0.06387 0.0
C279 C 0.05775 0.08249 0.02988 0.0
C280 C 0.07536 0.10252 0.00095 0.0
C281 C 0.09635 0.06027 0.00655 0.0
C282 C 0.14801 0.21409 0.06343 0.0
C283 C 0.16276 0.06519 0.01581 0.0
C284 C 0.13711 0.1302 0.06686 0.0
N285 N 0.1444 0.05729 0.04289 0.0
C286 C 0.17408 0.14801 0.01156 0.0
C287 C 0.16658 0.22292 0.03549 0.0
C288 C 0.16658 0.81021 0.03604 0.0
C289 C 0.11267 0.59673 0.13905 0.0
C290 C 0.14535 0.59856 0.0738 0.0
C291 C 0.14888 0.54683 0.11167 0.0
C292 C 0.1324 0.54603 0.14446 0.0
N293 N 0.1259 0.64785 0.06863 0.0
C294 C 0.1097 0.64753 0.10071 0.0
Co295 Co 0.87571 0.07982 0.04774 0.0
Co296 Co 0.88047 0.30282 0.01585 0.0
O297 O 0.88949 0.20061 0.0534 0.0
C298 C 0.87352 0.11726 0.14363 0.0
O299 O 0.86867 0.20226 0.13483 0.0
C300 C 0.93072 0.30558 0.0078 0.0
O301 O 0.93024 0.2178 0.00028 0.0
O302 O 0.88659 0.22953 0.96202 0.0
O303 O 0.87355 0.09293 0.98251 0.0
H304 H 0.83944 0.45056 0.88997 0.0
H305 H 0.9189 0.09985 0.09622 0.0
O306 O 0.8773 0.061 0.11278 0.0
H307 H 0.93558 0.88793 0.97493 0.0
H308 H 0.86769 0.74639 0.08142 0.0
H309 H 0.83719 0.00454 0.99679 0.0
H310 H 0.89717 0.95066 0.98441 0.0
H311 H 0.88465 0.89877 0.08841 0.0
O312 O 0.9124 0.34853 0.01511 0.0
H313 H 0.85093 0.32302 0.9376 0.0
H314 H 0.89186 0.50032 0.01387 0.0
H315 H 0.81985 0.85313 0.98853 0.0
H316 H 0.95755 0.03819 0.08813 0.0
H317 H 0.83518 0.72265 0.0309 0.0
H318 H 0.96608 0.9315 0.02709 0.0
O319 O 0.84496 0.13298 0.05461 0.0
H320 H 0.89925 0.4312 0.16453 0.0
H321 H 0.8419 0.41763 0.04684 0.0
H322 H 0.83421 0.50785 0.11344 0.0
H323 H 0.86304 0.51535 0.17281 0.0
H324 H 0.90615 0.34092 0.09753 0.0
H325 H 0.88087 0.62968 0.96702 0.0
H326 H 0.85442 0.60525 0.90463 0.0
O327 O 0.84811 0.26179 0.01578 0.0
C328 C 0.88038 0.14858 0.9533 0.0
C329 C 0.85095 0.46209 0.91711 0.0
C330 C 0.87423 0.56259 0.9603 0.0
N331 N 0.87193 0.40426 0.97864 0.0
C332 C 0.85748 0.39017 0.94422 0.0
C333 C 0.88043 0.48901 0.98665 0.0
C334 C 0.85937 0.54886 0.92533 0.0
C335 C 0.92246 0.05291 0.06979 0.0
N336 N 0.90578 0.02856 0.04099 0.0
C337 C 0.94438 0.01847 0.06528 0.0
C338 C 0.94917 0.95872 0.03098 0.0
C339 C 0.93207 0.9343 0.00168 0.0
C340 C 0.91036 0.97024 0.00716 0.0
C341 C 0.86091 0.80264 0.06267 0.0
C342 C 0.84401 0.94805 0.01522 0.0
C343 C 0.87041 0.88914 0.06655 0.0
N344 N 0.86208 0.96032 0.04264 0.0
C345 C 0.83408 0.86251 0.01049 0.0
C346 C 0.84267 0.78936 0.03432 0.0
C347 C 0.83629 0.20195 0.03565 0.0
C348 C 0.88658 0.42863 0.13885 0.0
C349 C 0.85446 0.41985 0.07267 0.0
C350 C 0.85005 0.47142 0.11023 0.0
C351 C 0.86624 0.4757 0.14351 0.0
N352 N 0.87448 0.37406 0.06828 0.0
C353 C 0.89043 0.37791 0.10077 0.0
Co354 Co 0.12809 0.09184 0.5503 0.0
Co355 Co 0.1223 0.30646 0.5935 0.0
O356 O 0.11404 0.21309 0.54994 0.0
C357 C 0.12233 0.14025 0.45401 0.0
O358 O 0.11368 0.21992 0.46339 0.0
C359 C 0.07172 0.31083 0.59275 0.0
O360 O 0.07137 0.22197 0.58973 0.0
O361 O 0.1148 0.2216 0.64222 0.0
O362 O 0.12915 0.09156 0.61608 0.0
H363 H 0.16031 0.42176 0.7304 0.0
H364 H 0.08428 0.11979 0.50279 0.0
O365 O 0.12815 0.08525 0.48428 0.0
H366 H 0.06943 0.87664 0.61016 0.0
H367 H 0.13886 0.76786 0.50109 0.0
H368 H 0.16618 0.00972 0.5999 0.0
H369 H 0.10722 0.94667 0.60517 0.0
H370 H 0.12089 0.91907 0.50067 0.0
O371 O 0.09046 0.35331 0.59434 0.0
H372 H 0.15014 0.30718 0.67465 0.0
H373 H 0.11086 0.50247 0.60572 0.0
H374 H 0.18452 0.85928 0.60165 0.0
H375 H 0.04641 0.05076 0.50622 0.0
H376 H 0.17081 0.737 0.55205 0.0
H377 H 0.03872 0.92824 0.56028 0.0
O378 O 0.15856 0.14824 0.54746 0.0
H379 H 0.10684 0.47225 0.45221 0.0
H380 H 0.16165 0.4266 0.5725 0.0
H381 H 0.17078 0.53316 0.51262 0.0
H382 H 0.14323 0.5569 0.45198 0.0
H383 H 0.09846 0.36574 0.51264 0.0
H384 H 0.12049 0.61893 0.66088 0.0
H385 H 0.14545 0.57895 0.72369 0.0
O386 O 0.15467 0.26487 0.5941 0.0
C387 C 0.12129 0.13977 0.64737 0.0
C388 C 0.14947 0.44008 0.70311 0.0
C389 C 0.12709 0.55071 0.66413 0.0
N390 N 0.13007 0.3982 0.63678 0.0
C391 C 0.14369 0.37554 0.67139 0.0
C392 C 0.12167 0.48438 0.63304 0.0
C393 C 0.14111 0.52824 0.69935 0.0
C394 C 0.08131 0.06559 0.52582 0.0
N395 N 0.09819 0.03655 0.55314 0.0
C396 C 0.05971 0.02715 0.52789 0.0
C397 C 0.05538 0.9586 0.55831 0.0
C398 C 0.0726 0.92968 0.58631 0.0
C399 C 0.09397 0.96981 0.58335 0.0
C400 C 0.14494 0.82052 0.52294 0.0
C401 C 0.16006 0.95676 0.57837 0.0
C402 C 0.13487 0.90635 0.52278 0.0
N403 N 0.14232 0.97293 0.55058 0.0
C404 C 0.17054 0.87177 0.57942 0.0
C405 C 0.16287 0.80323 0.55155 0.0
C406 C 0.16686 0.2117 0.57091 0.0
C407 C 0.11899 0.46246 0.47844 0.0
C408 C 0.14968 0.43557 0.54598 0.0
C409 C 0.1549 0.49646 0.51227 0.0
C410 C 0.13942 0.50985 0.47829 0.0
N411 N 0.12957 0.38947 0.54595 0.0
C412 C 0.11433 0.40229 0.51276 0.0
Co413 Co 0.87326 0.92912 0.55046 0.0
Co414 Co 0.88062 0.71557 0.59436 0.0
O415 O 0.88811 0.80912 0.5502 0.0
C416 C 0.87922 0.88041 0.45429 0.0
O417 O 0.88828 0.80162 0.46394 0.0
C418 C 0.93131 0.70191 0.58105 0.0
O419 O 0.93175 0.77996 0.56039 0.0
O420 O 0.88808 0.80225 0.64227 0.0
O421 O 0.87224 0.92962 0.61632 0.0
H422 H 0.84363 0.60223 0.73268 0.0
H423 H 0.91693 0.91033 0.50116 0.0
O424 O 0.87311 0.93532 0.48439 0.0
H425 H 0.93029 0.15124 0.61043 0.0
H426 H 0.86026 0.25163 0.50104 0.0
H427 H 0.83468 0.00725 0.60015 0.0
H428 H 0.89325 0.0751 0.6061 0.0
H429 H 0.87922 0.10238 0.50061 0.0
O430 O 0.91277 0.67003 0.59589 0.0
H431 H 0.85312 0.7156 0.67592 0.0
H432 H 0.89288 0.52054 0.60785 0.0
H433 H 0.81535 0.15567 0.60187 0.0
H434 H 0.95404 0.98574 0.50385 0.0
H435 H 0.82818 0.27922 0.55213 0.0
H436 H 0.961 0.10718 0.55887 0.0
O437 O 0.84324 0.8693 0.54768 0.0
H438 H 0.89523 0.54866 0.45277 0.0
H439 H 0.84192 0.59082 0.57581 0.0
H440 H 0.83268 0.4819 0.51703 0.0
H441 H 0.85949 0.45981 0.45502 0.0
H442 H 0.9037 0.65743 0.51203 0.0
H443 H 0.88395 0.40535 0.66405 0.0
H444 H 0.85908 0.4458 0.72694 0.0
O445 O 0.848 0.75476 0.59516 0.0
C446 C 0.88095 0.88321 0.64741 0.0
C447 C 0.85443 0.58371 0.70537 0.0
C448 C 0.87708 0.47325 0.66688 0.0
N449 N 0.87339 0.62463 0.63841 0.0
C450 C 0.85982 0.64756 0.67306 0.0
C451 C 0.88212 0.53887 0.63521 0.0
C452 C 0.86312 0.49598 0.70215 0.0
C453 C 0.91959 0.96366 0.52479 0.0
N454 N 0.90274 0.98827 0.55315 0.0
C455 C 0.94076 0.00587 0.52637 0.0
C456 C 0.94468 0.07383 0.5573 0.0
C457 C 0.92747 0.09849 0.58626 0.0
C458 C 0.90653 0.0547 0.58374 0.0
C459 C 0.85455 0.1984 0.52294 0.0
C460 C 0.84042 0.06075 0.57853 0.0
C461 C 0.86519 0.11367 0.52279 0.0
N462 N 0.85821 0.04638 0.55066 0.0
C463 C 0.82937 0.1446 0.57957 0.0
C464 C 0.83656 0.21385 0.55163 0.0
C465 C 0.83541 0.8057 0.5716 0.0
C466 C 0.88343 0.55753 0.47966 0.0
C467 C 0.85359 0.58244 0.54875 0.0
C468 C 0.8483 0.52027 0.51564 0.0
C469 C 0.86336 0.50782 0.4809 0.0
N470 N 0.87339 0.63065 0.54748 0.0
C471 C 0.88818 0.61894 0.51342 0.0
C472 C 0.7975 0.15913 0.06274 0.0
C473 C 0.81132 0.21406 0.03624 0.0
C474 C 0.7739 0.17171 0.06393 0.0
C475 C 0.76386 0.24023 0.03769 0.0
C476 C 0.77768 0.29547 0.01071 0.0
C477 C 0.80119 0.28201 0.01045 0.0
C478 C 0.75972 0.11189 0.09336 0.0
C479 C 0.76762 0.36862 0.98189 0.0
C480 C 0.70156 0.21897 0.00814 0.0
C481 C 0.69144 0.28109 0.03716 0.0
C482 C 0.72507 0.20493 0.00806 0.0
C483 C 0.73886 0.25362 0.03793 0.0
C484 C 0.72881 0.31631 0.06736 0.0
C485 C 0.70524 0.32962 0.0665 0.0
C486 C 0.73516 0.13824 0.97581 0.0
C487 C 0.74295 0.36914 0.09986 0.0
H488 H 0.80513 0.10671 0.08291 0.0
H489 H 0.81163 0.32477 0.98971 0.0
H490 H 0.75003 0.15432 0.11693 0.0
H491 H 0.74721 0.07369 0.0734 0.0
H492 H 0.77014 0.06259 0.1122 0.0
H493 H 0.78071 0.40563 0.96272 0.0
H494 H 0.7553 0.33822 0.9586 0.0
H495 H 0.75822 0.41831 0.00234 0.0
H496 H 0.69113 0.1812 0.98523 0.0
H497 H 0.69762 0.37746 0.08918 0.0
H498 H 0.74449 0.08437 0.99374 0.0
H499 H 0.74753 0.17337 0.95427 0.0
H500 H 0.72209 0.10566 0.95479 0.0
H501 H 0.75257 0.32167 0.12117 0.0
H502 H 0.73251 0.41408 0.12107 0.0
H503 H 0.75552 0.41146 0.08211 0.0
C504 C 0.20571 0.8442 0.06414 0.0
C505 C 0.19139 0.79344 0.0367 0.0
C506 C 0.22917 0.82784 0.06515 0.0
C507 C 0.23857 0.75986 0.03772 0.0
C508 C 0.22424 0.7087 0.00986 0.0
C509 C 0.20085 0.72573 0.00986 0.0
C510 C 0.24389 0.88319 0.09563 0.0
C511 C 0.23362 0.63637 0.97972 0.0
C512 C 0.30104 0.77494 0.00848 0.0
C513 C 0.31061 0.70892 0.03615 0.0
C514 C 0.27766 0.79218 0.00871 0.0
C515 C 0.26345 0.74295 0.03762 0.0
C516 C 0.27297 0.67659 0.06581 0.0
C517 C 0.2964 0.66001 0.06458 0.0
C518 C 0.26815 0.86272 0.97775 0.0
C519 C 0.25838 0.62323 0.09736 0.0
H520 H 0.19859 0.89634 0.08514 0.0
H521 H 0.19001 0.68621 0.98839 0.0
H522 H 0.25326 0.83755 0.11825 0.0
H523 H 0.25667 0.92139 0.07634 0.0
H524 H 0.23391 0.93221 0.11552 0.0
H525 H 0.22019 0.60267 0.96001 0.0
H526 H 0.24616 0.66678 0.95689 0.0
H527 H 0.2426 0.58391 0.99922 0.0
H528 H 0.3118 0.81304 0.98628 0.0
H529 H 0.3036 0.60921 0.08625 0.0
H530 H 0.25929 0.91639 0.99667 0.0
H531 H 0.25548 0.83103 0.95561 0.0
H532 H 0.28149 0.89511 0.95732 0.0
H533 H 0.24914 0.6703 0.11949 0.0
H534 H 0.26845 0.57541 0.11777 0.0
H535 H 0.24549 0.58392 0.07888 0.0
C536 C 0.79613 0.83674 0.54359 0.0
C537 C 0.81056 0.78969 0.57235 0.0
C538 C 0.77269 0.82027 0.5433 0.0
C539 C 0.76339 0.75566 0.57268 0.0
C540 C 0.77781 0.70843 0.602 0.0
C541 C 0.80118 0.7258 0.60141 0.0
C542 C 0.75788 0.87173 0.51141 0.0
C543 C 0.76853 0.63958 0.63409 0.0
C544 C 0.70081 0.77351 0.60056 0.0
C545 C 0.69133 0.70511 0.57413 0.0
C546 C 0.7242 0.79041 0.60048 0.0
C547 C 0.73854 0.73813 0.57311 0.0
C548 C 0.72915 0.669 0.54637 0.0
C549 C 0.70568 0.65306 0.54731 0.0
C550 C 0.73356 0.86423 0.62977 0.0
C551 C 0.74389 0.61216 0.51657 0.0
H552 H 0.80316 0.88606 0.52093 0.0
H553 H 0.8121 0.68913 0.6239 0.0
H554 H 0.7487 0.82338 0.48986 0.0
H555 H 0.74494 0.91129 0.52966 0.0
H556 H 0.76775 0.91909 0.49042 0.0
H557 H 0.782 0.60882 0.6548 0.0
H558 H 0.75588 0.67223 0.65594 0.0
H559 H 0.7597 0.58454 0.61604 0.0
H560 H 0.68996 0.81406 0.62154 0.0
H561 H 0.69858 0.60024 0.52669 0.0
H562 H 0.74236 0.91611 0.6096 0.0
H563 H 0.74626 0.8352 0.65269 0.0
H564 H 0.72015 0.89835 0.64934 0.0
H565 H 0.75303 0.65661 0.49306 0.0
H566 H 0.73396 0.56139 0.49764 0.0
H567 H 0.75687 0.57585 0.53624 0.0
C568 C 0.20159 0.28906 0.60002 0.0
C569 C 0.1918 0.22498 0.57156 0.0
C570 C 0.22507 0.3037 0.60064 0.0
C571 C 0.23918 0.25342 0.57198 0.0
C572 C 0.22947 0.18874 0.54314 0.0
C573 C 0.20592 0.17506 0.54337 0.0
C574 C 0.23479 0.37277 0.63213 0.0
C575 C 0.24397 0.13403 0.51198 0.0
C576 C 0.29794 0.34538 0.5462 0.0
C577 C 0.31168 0.29198 0.5736 0.0
C578 C 0.27432 0.33367 0.54535 0.0
C579 C 0.26416 0.2674 0.57273 0.0
C580 C 0.27787 0.21421 0.60088 0.0
C581 C 0.30141 0.22697 0.60092 0.0
C582 C 0.26025 0.39154 0.51481 0.0
C583 C 0.26768 0.14337 0.63085 0.0
H584 H 0.19091 0.32796 0.62205 0.0
H585 H 0.19858 0.12558 0.52117 0.0
H586 H 0.247 0.33939 0.65466 0.0
H587 H 0.24424 0.42551 0.61366 0.0
H588 H 0.22149 0.40656 0.65213 0.0
H589 H 0.23378 0.08737 0.49119 0.0
H590 H 0.25369 0.18022 0.49021 0.0
H591 H 0.25645 0.09331 0.53083 0.0
H592 H 0.30565 0.39568 0.52493 0.0
H593 H 0.31178 0.18549 0.62239 0.0
H594 H 0.24743 0.43003 0.53388 0.0
H595 H 0.25093 0.34758 0.49134 0.0
H596 H 0.2707 0.44046 0.49582 0.0
H597 H 0.25507 0.17531 0.65303 0.0
H598 H 0.28066 0.10856 0.65123 0.0
H599 H 0.2586 0.09159 0.61109 0.0
C600 C 0.60726 0.3718 0.23089 0.0
C601 C 0.6238 0.39521 0.19993 0.0
C602 C 0.6079 0.40785 0.27366 0.0
C603 C 0.62594 0.46599 0.28602 0.0
C604 C 0.643 0.48777 0.25507 0.0
C605 C 0.64149 0.45342 0.21215 0.0
C606 C 0.58905 0.38513 0.30536 0.0
C607 C 0.66293 0.54684 0.26733 0.0
C608 C 0.61978 0.62352 0.3846 0.0
C609 C 0.62949 0.57118 0.41807 0.0
C610 C 0.61816 0.58957 0.34149 0.0
C611 C 0.62722 0.50277 0.33155 0.0
C612 C 0.63762 0.45098 0.36515 0.0
C613 C 0.63826 0.48516 0.40814 0.0
C614 C 0.60637 0.64565 0.30682 0.0
C615 C 0.64818 0.35964 0.35567 0.0
H616 H 0.59341 0.32779 0.22121 0.0
H617 H 0.65432 0.47131 0.18815 0.0
H618 H 0.59598 0.34916 0.33442 0.0
H619 H 0.58102 0.44855 0.31742 0.0
H620 H 0.5758 0.34182 0.2901 0.0
H621 H 0.67519 0.55441 0.23986 0.0
H622 H 0.65696 0.61529 0.27712 0.0
H623 H 0.6719 0.51734 0.29603 0.0
H624 H 0.6128 0.68967 0.39245 0.0
H625 H 0.64593 0.44493 0.43404 0.0
H626 H 0.5921 0.60644 0.29255 0.0
H627 H 0.61825 0.66126 0.27961 0.0
H628 H 0.59968 0.71054 0.32017 0.0
H629 H 0.63506 0.31158 0.34388 0.0
H630 H 0.65649 0.32988 0.38511 0.0
H631 H 0.66098 0.3663 0.32915 0.0
C632 C 0.36343 0.48348 0.20059 0.0
C633 C 0.37239 0.5692 0.19074 0.0
C634 C 0.36404 0.44905 0.24355 0.0
C635 C 0.37464 0.50021 0.27715 0.0
C636 C 0.38394 0.58661 0.26724 0.0
C637 C 0.38232 0.62089 0.2242 0.0
C638 C 0.35321 0.35825 0.25302 0.0
C639 C 0.39596 0.64197 0.30188 0.0
C640 C 0.36065 0.45307 0.3969 0.0
C641 C 0.37825 0.39442 0.40909 0.0
C642 C 0.35901 0.48646 0.35382 0.0
C643 C 0.37587 0.46335 0.32268 0.0
C644 C 0.3938 0.40454 0.33498 0.0
C645 C 0.39454 0.36941 0.37792 0.0
C646 C 0.33919 0.54623 0.34163 0.0
C647 C 0.41245 0.38046 0.3031 0.0
H648 H 0.3556 0.44378 0.17468 0.0
H649 H 0.38943 0.68681 0.21641 0.0
H650 H 0.36617 0.3095 0.26478 0.0
H651 H 0.34044 0.36555 0.27958 0.0
H652 H 0.34478 0.32896 0.22359 0.0
H653 H 0.40293 0.70634 0.28849 0.0
H654 H 0.38415 0.65853 0.32906 0.0
H655 H 0.41006 0.60183 0.3162 0.0
H656 H 0.34802 0.47218 0.42107 0.0
H657 H 0.40832 0.32503 0.38759 0.0
H658 H 0.33017 0.51726 0.31286 0.0
H659 H 0.34531 0.61456 0.332 0.0
H660 H 0.32694 0.55398 0.36911 0.0
H661 H 0.40529 0.34509 0.27407 0.0
H662 H 0.42554 0.33615 0.31821 0.0
H663 H 0.42074 0.44332 0.291 0.0
C664 C 0.36463 0.53479 0.89392 0.0
C665 C 0.38109 0.59584 0.9091 0.0
C666 C 0.36572 0.49864 0.85135 0.0
C667 C 0.38405 0.52225 0.82361 0.0
C668 C 0.40083 0.58339 0.83886 0.0
C669 C 0.39898 0.62052 0.8813 0.0
C670 C 0.34715 0.43563 0.83598 0.0
C671 C 0.42088 0.60854 0.81057 0.0
C672 C 0.39481 0.36066 0.72824 0.0
C673 C 0.38459 0.40715 0.69319 0.0
C674 C 0.39541 0.3986 0.77065 0.0
C675 C 0.38523 0.48429 0.77831 0.0
C676 C 0.37513 0.5319 0.74301 0.0
C677 C 0.37509 0.49315 0.70092 0.0
C678 C 0.40666 0.34649 0.80739 0.0
C679 C 0.36376 0.62271 0.74989 0.0
H680 H 0.3507 0.51593 0.91528 0.0
H681 H 0.41187 0.66688 0.89318 0.0
H682 H 0.33909 0.4634 0.80588 0.0
H683 H 0.35438 0.36849 0.82729 0.0
H684 H 0.33385 0.42552 0.86134 0.0
H685 H 0.43277 0.65508 0.8277 0.0
H686 H 0.43022 0.54633 0.80082 0.0
H687 H 0.415 0.64182 0.77991 0.0
H688 H 0.40232 0.29453 0.7226 0.0
H689 H 0.36712 0.52985 0.6742 0.0
H690 H 0.39386 0.32693 0.83235 0.0
H691 H 0.41937 0.38994 0.82412 0.0
H692 H 0.41519 0.28395 0.79544 0.0
H693 H 0.34945 0.61507 0.77324 0.0
H694 H 0.35717 0.65198 0.71874 0.0
H695 H 0.37584 0.67165 0.76465 0.0
C696 C 0.60646 0.36023 0.88263 0.0
C697 C 0.61933 0.40077 0.91607 0.0
C698 C 0.60553 0.39862 0.84034 0.0
C699 C 0.61809 0.47835 0.83112 0.0
C700 C 0.63101 0.5197 0.86478 0.0
C701 C 0.63131 0.48091 0.90685 0.0
C702 C 0.59126 0.35348 0.80543 0.0
C703 C 0.64499 0.60372 0.85612 0.0
C704 C 0.63589 0.52048 0.71306 0.0
C705 C 0.62105 0.58998 0.70018 0.0
C706 C 0.6351 0.48381 0.75553 0.0
C707 C 0.61875 0.5161 0.78575 0.0
C708 C 0.60358 0.58579 0.77293 0.0
C709 C 0.60507 0.6227 0.73038 0.0
C710 C 0.65193 0.41107 0.76817 0.0
C711 C 0.58566 0.62076 0.80403 0.0
H712 H 0.59702 0.29878 0.88955 0.0
H713 H 0.64138 0.51272 0.93235 0.0
H714 H 0.57938 0.40342 0.7908 0.0
H715 H 0.60228 0.32831 0.77852 0.0
H716 H 0.58135 0.29544 0.8186 0.0
H717 H 0.65375 0.62857 0.88613 0.0
H718 H 0.65793 0.58896 0.83062 0.0
H719 H 0.63409 0.65898 0.84325 0.0
H720 H 0.64838 0.49521 0.68998 0.0
H721 H 0.59343 0.67579 0.72046 0.0
H722 H 0.64287 0.34838 0.77811 0.0
H723 H 0.66204 0.43387 0.79687 0.0
H724 H 0.6637 0.3941 0.74089 0.0
H725 H 0.57485 0.56376 0.81538 0.0
H726 H 0.57469 0.67305 0.78856 0.0
H727 H 0.59375 0.65066 0.83358 0.0
C728 C 0.13752 0.02316 0.1991 0.0
C729 C 0.12933 0.93618 0.18927 0.0
C730 C 0.13688 0.05707 0.24215 0.0
C731 C 0.12708 0.00393 0.27592 0.0
C732 C 0.11855 0.91625 0.26606 0.0
C733 C 0.12016 0.88269 0.22288 0.0
C734 C 0.14688 0.14947 0.25153 0.0
C735 C 0.10738 0.85865 0.30092 0.0
C736 C 0.14192 0.05335 0.39507 0.0
C737 C 0.12394 0.10948 0.40797 0.0
C738 C 0.14334 0.01977 0.352 0.0
C739 C 0.12591 0.04012 0.32159 0.0
C740 C 0.10758 0.09614 0.33464 0.0
C741 C 0.10702 0.13152 0.37754 0.0
C742 C 0.16356 0.96299 0.339 0.0
C743 C 0.08834 0.11719 0.30355 0.0
H744 H 0.14479 0.0643 0.17311 0.0
H745 H 0.11365 0.81573 0.21513 0.0
H746 H 0.13355 0.19588 0.26395 0.0
H747 H 0.15997 0.14391 0.27757 0.0
H748 H 0.1547 0.18051 0.2219 0.0
H749 H 0.10095 0.79334 0.28757 0.0
H750 H 0.11959 0.84374 0.32767 0.0
H751 H 0.09302 0.89634 0.3158 0.0
H752 H 0.15504 0.03649 0.41866 0.0
H753 H 0.09295 0.17389 0.38776 0.0
H754 H 0.17209 0.99369 0.31008 0.0
H755 H 0.15797 0.894 0.32925 0.0
H756 H 0.17609 0.95653 0.36607 0.0
H757 H 0.09481 0.15411 0.27437 0.0
H758 H 0.07495 0.15899 0.31929 0.0
H759 H 0.08063 0.05307 0.29159 0.0
C760 C 0.85963 0.96519 0.39461 0.0
C761 C 0.87783 0.91093 0.4082 0.0
C762 C 0.85845 0.99868 0.35149 0.0
C763 C 0.87633 0.98023 0.32177 0.0
C764 C 0.89487 0.92612 0.33554 0.0
C765 C 0.8952 0.8907 0.37844 0.0
C766 C 0.83801 0.05333 0.33768 0.0
C767 C 0.91458 0.90721 0.30525 0.0
C768 C 0.86612 0.99636 0.19878 0.0
C769 C 0.87384 0.08423 0.18939 0.0
C770 C 0.86642 0.96243 0.24185 0.0
C771 C 0.87545 0.0165 0.2761 0.0
C772 C 0.88351 0.10508 0.26668 0.0
C773 C 0.88222 0.1386 0.22345 0.0
C774 C 0.85691 0.86901 0.25071 0.0
C775 C 0.89388 0.16371 0.30207 0.0
H776 H 0.84618 0.98068 0.4177 0.0
H777 H 0.90943 0.84983 0.3892 0.0
H778 H 0.84324 0.12298 0.32829 0.0
H779 H 0.83002 0.02194 0.30835 0.0
H780 H 0.82513 0.05822 0.36421 0.0
H781 H 0.92807 0.86676 0.32151 0.0
H782 H 0.90867 0.86974 0.27577 0.0
H783 H 0.922 0.97216 0.29366 0.0
H784 H 0.85946 0.95456 0.17242 0.0
H785 H 0.88836 0.20628 0.21604 0.0
H786 H 0.84349 0.87312 0.27619 0.0
H787 H 0.87038 0.8239 0.26365 0.0
H788 H 0.84963 0.83734 0.22072 0.0
H789 H 0.88126 0.17725 0.32827 0.0
H790 H 0.90004 0.22971 0.28906 0.0
H791 H 0.90829 0.12748 0.31758 0.0
C792 C 0.86891 0.00249 0.70103 0.0
C793 C 0.88211 0.92561 0.69158 0.0
C794 C 0.8693 0.04288 0.74277 0.0
C795 C 0.88354 0.00658 0.77579 0.0
C796 C 0.89736 0.93043 0.76622 0.0
C797 C 0.89632 0.89027 0.72434 0.0
C798 C 0.85397 0.12281 0.75186 0.0
C799 C 0.91302 0.89069 0.80042 0.0
C800 C 0.8956 0.15372 0.87618 0.0
C801 C 0.88087 0.1157 0.9073 0.0
C802 C 0.89689 0.11833 0.83327 0.0
C803 C 0.88279 0.04456 0.82113 0.0
C804 C 0.8676 0.00726 0.85223 0.0
C805 C 0.86698 0.04272 0.89493 0.0
C806 C 0.91354 0.15887 0.80115 0.0
C807 C 0.85194 0.92987 0.84042 0.0
H808 H 0.85782 0.03027 0.67602 0.0
H809 H 0.90673 0.83146 0.71721 0.0
H810 H 0.84161 0.10461 0.77791 0.0
H811 H 0.86399 0.18117 0.7642 0.0
H812 H 0.84446 0.14475 0.72218 0.0
H813 H 0.92388 0.83584 0.78683 0.0
H814 H 0.92407 0.94455 0.81423 0.0
H815 H 0.90296 0.86243 0.828 0.0
H816 H 0.9065 0.2096 0.88567 0.0
H817 H 0.85541 0.01337 0.91867 0.0
H818 H 0.90445 0.1852 0.77189 0.0
H819 H 0.9254 0.10563 0.78947 0.0
H820 H 0.92352 0.21509 0.81588 0.0
H821 H 0.84112 0.94943 0.81213 0.0
H822 H 0.84081 0.90988 0.86824 0.0
H823 H 0.86196 0.86977 0.83022 0.0
C824 C 0.13721 0.97925 0.89471 0.0
C825 C 0.12297 0.9075 0.90731 0.0
C826 C 0.13636 0.01555 0.85217 0.0
C827 C 0.12063 0.98033 0.82151 0.0
C828 C 0.1062 0.90782 0.83389 0.0
C829 C 0.10769 0.87162 0.87659 0.0
C830 C 0.15238 0.09153 0.84004 0.0
C831 C 0.08899 0.86943 0.80225 0.0
C832 C 0.10691 0.13547 0.72509 0.0
C833 C 0.12046 0.09832 0.69176 0.0
C834 C 0.10622 0.09597 0.76715 0.0
C835 C 0.11972 0.01867 0.77627 0.0
C836 C 0.13334 0.98075 0.74271 0.0
C837 C 0.13339 0.0205 0.70084 0.0
C838 C 0.0912 0.1374 0.80196 0.0
C839 C 0.14833 0.89952 0.75129 0.0
H840 H 0.14917 0.00706 0.91815 0.0
H841 H 0.0965 0.81684 0.88623 0.0
H842 H 0.16283 0.07124 0.81136 0.0
H843 H 0.14263 0.15268 0.8303 0.0
H844 H 0.16386 0.11015 0.86755 0.0
H845 H 0.07877 0.81413 0.81719 0.0
H846 H 0.07739 0.92404 0.7911 0.0
H847 H 0.09764 0.84243 0.77263 0.0
H848 H 0.09674 0.19507 0.71824 0.0
H849 H 0.14399 0.99139 0.6754 0.0
H850 H 0.10173 0.16417 0.82924 0.0
H851 H 0.07987 0.08481 0.81607 0.0
H852 H 0.08064 0.19365 0.78884 0.0
H853 H 0.16096 0.91649 0.77703 0.0
H854 H 0.1575 0.87696 0.72132 0.0
H855 H 0.13809 0.84194 0.7638 0.0
C856 C 0.46939 0.84581 0.05764 0.0
C857 C 0.45223 0.85317 0.02602 0.0
C858 C 0.48848 0.90282 0.05629 0.0
C859 C 0.49074 0.96685 0.02177 0.0
C860 C 0.47364 0.97321 0.98927 0.0
C861 C 0.45445 0.91722 0.99216 0.0
C862 C 0.50609 0.89534 0.09211 0.0
C863 C 0.4757 0.03857 0.95123 0.0
C864 C 0.53091 0.16745 0.03572 0.0
C865 C 0.55065 0.13441 0.01577 0.0
C866 C 0.51127 0.11356 0.03812 0.0
C867 C 0.51125 0.02564 0.01909 0.0
C868 C 0.53097 0.99325 0.99778 0.0
C869 C 0.55049 0.04751 0.99689 0.0
C870 C 0.49072 0.1498 0.06189 0.0
C871 C 0.53151 0.90108 0.97601 0.0
H872 H 0.46761 0.79718 0.08417 0.0
H873 H 0.44123 0.92293 0.96756 0.0
H874 H 0.52262 0.87529 0.07778 0.0
H875 H 0.50849 0.96235 0.10814 0.0
H876 H 0.50135 0.84485 0.11764 0.0
H877 H 0.46115 0.03373 0.92819 0.0
H878 H 0.47677 0.10925 0.96361 0.0
H879 H 0.49153 0.02475 0.93273 0.0
H880 H 0.53103 0.23429 0.05065 0.0
H881 H 0.56567 0.02194 0.9811 0.0
H882 H 0.4863 0.10399 0.08956 0.0
H883 H 0.47594 0.15147 0.0394 0.0
H884 H 0.4935 0.21925 0.07509 0.0
H885 H 0.52893 0.84716 0.00096 0.0
H886 H 0.54779 0.88801 0.95883 0.0
H887 H 0.5175 0.89543 0.95184 0.0
C888 C 0.53266 0.84496 0.55351 0.0
C889 C 0.54984 0.85196 0.58511 0.0
C890 C 0.51368 0.90257 0.55479 0.0
C891 C 0.51155 0.9669 0.58921 0.0
C892 C 0.52867 0.97289 0.6217 0.0
C893 C 0.54775 0.91627 0.6189 0.0
C894 C 0.49606 0.89545 0.51898 0.0
C895 C 0.52674 0.03857 0.65964 0.0
C896 C 0.47181 0.16872 0.57479 0.0
C897 C 0.45199 0.1365 0.59476 0.0
C898 C 0.49135 0.11419 0.57258 0.0
C899 C 0.49117 0.02643 0.59178 0.0
C900 C 0.47137 0.99489 0.61311 0.0
C901 C 0.45196 0.04978 0.61384 0.0
C902 C 0.51198 0.14956 0.54878 0.0
C903 C 0.47064 0.90292 0.63505 0.0
H904 H 0.53435 0.79613 0.52704 0.0
H905 H 0.56098 0.92173 0.64347 0.0
H906 H 0.47948 0.87613 0.53335 0.0
H907 H 0.49381 0.96241 0.50282 0.0
H908 H 0.50068 0.84457 0.49355 0.0
H909 H 0.54127 0.03335 0.68271 0.0
H910 H 0.52584 0.10921 0.64715 0.0
H911 H 0.51087 0.02548 0.67814 0.0
H912 H 0.47182 0.23542 0.55971 0.0
H913 H 0.43672 0.02484 0.62963 0.0
H914 H 0.5163 0.10347 0.52116 0.0
H915 H 0.52676 0.15075 0.57128 0.0
H916 H 0.50936 0.21906 0.53552 0.0
H917 H 0.47309 0.84871 0.6102 0.0
H918 H 0.45433 0.89058 0.65228 0.0
H919 H 0.48464 0.89696 0.65923 0.0
C920 C 0.04133 0.59271 0.95015 0.0
C921 C 0.05454 0.61421 0.98706 0.0
C922 C 0.02132 0.5419 0.95424 0.0
C923 C 0.01434 0.51137 0.99626 0.0
C924 C 0.02745 0.53363 0.03374 0.0
C925 C 0.04734 0.585 0.02872 0.0
C926 C 0.00772 0.52029 0.91351 0.0
C927 C 0.02059 0.50232 0.07909 0.0
C928 C 0.95218 0.45192 0.01057 0.0
C929 C 0.95236 0.35691 0.00638 0.0
C930 C 0.97223 0.50269 0.00782 0.0
C931 C 0.99309 0.45759 0.00095 0.0
C932 C 0.9935 0.36162 0.99741 0.0
C933 C 0.97311 0.3124 7e-05 0.0
C934 C 0.97102 0.60487 0.01161 0.0
C935 C 0.01545 0.31103 0.99038 0.0
H936 H 0.04674 0.6149 0.91783 0.0
H937 H 0.0575 0.60066 0.05743 0.0
H938 H 0.00636 0.44565 0.90938 0.0
H939 H 0.99025 0.54715 0.91698 0.0
H940 H 0.01538 0.54947 0.88329 0.0
H941 H 0.03263 0.52523 0.10487 0.0
H942 H 0.00348 0.52854 0.08722 0.0
H943 H 0.01963 0.42711 0.07993 0.0
H944 H 0.93628 0.4872 0.0155 0.0
H945 H 0.97344 0.2391 0.99699 0.0
H946 H 0.9773 0.63657 0.98085 0.0
H947 H 0.98209 0.62866 0.03872 0.0
H948 H 0.95351 0.62941 0.01783 0.0
H949 H 0.02352 0.33377 0.95935 0.0
H950 H 0.01293 0.23636 0.98879 0.0
H951 H 0.02743 0.32642 0.01748 0.0
C952 C 0.05018 0.45055 0.61258 0.0
C953 C 0.05043 0.36396 0.59335 0.0
C954 C 0.03061 0.5045 0.61192 0.0
C955 C 0.0109 0.47213 0.59055 0.0
C956 C 0.01099 0.38444 0.57127 0.0
C957 C 0.0307 0.33086 0.57338 0.0
C958 C 0.03108 0.59644 0.63392 0.0
C959 C 0.99045 0.34818 0.54747 0.0
C960 C 0.95416 0.58098 0.6178 0.0
C961 C 0.952 0.6455 0.58413 0.0
C962 C 0.97329 0.52452 0.62046 0.0
C963 C 0.99037 0.53091 0.58794 0.0
C964 C 0.98815 0.59531 0.55357 0.0
C965 C 0.96914 0.65274 0.55244 0.0
C966 C 0.97531 0.45873 0.65834 0.0
C967 C 0.00574 0.60288 0.51773 0.0
H968 H 0.06534 0.47617 0.6284 0.0
H969 H 0.03089 0.26425 0.55821 0.0
H970 H 0.02852 0.6506 0.60909 0.0
H971 H 0.01705 0.60178 0.65805 0.0
H972 H 0.04734 0.60941 0.65122 0.0
H973 H 0.99322 0.27866 0.53435 0.0
H974 H 0.97565 0.34671 0.56989 0.0
H975 H 0.98607 0.39389 0.51973 0.0
H976 H 0.94097 0.5753 0.64244 0.0
H977 H 0.96739 0.70171 0.52604 0.0
H978 H 0.99108 0.47256 0.67702 0.0
H979 H 0.97647 0.38821 0.64578 0.0
H980 H 0.9607 0.46312 0.68126 0.0
H981 H 0.02227 0.62295 0.53207 0.0
H982 H 1.00099 0.65343 0.49224 0.0
H983 H 0.00816 0.53592 0.50167 0.0
loop_
_geom_bond_atom_site_label_1
_geom_bond_atom_site_label_2
_geom_bond_distance
_geom_bond_site_symmetry_2
_ccdc_geom_bond_type
Co0 O2 2.143 . S
Co0 O8 2.074 1_554 S
Co0 O11 2.093 . S
Co0 O24 2.097 . S
Co0 N41 2.151 . S
Co0 N49 2.214 . S
Co1 O2 2.160 . S
Co1 O7 2.058 1_554 S
Co1 O17 2.057 . S
Co1 O32 2.037 . S
Co1 N36 2.145 1_554 S
Co1 N57 2.257 . S
O2 Co0 2.143 . S
O2 Co1 2.160 . S
C3 O4 1.278 . S
C3 O11 1.224 . S
O4 C3 1.278 . S
C5 O6 1.245 . S
C5 O17 1.232 . S
O6 C5 1.245 . S
O7 Co1 2.058 1_556 S
O7 C33 1.269 . S
O8 Co0 2.074 1_556 S
O8 C33 1.257 . S
H9 C34 0.930 . S
H10 C40 0.930 . S
O11 Co0 2.093 . S
O11 C3 1.224 . S
H12 C44 0.929 1_556 S
H13 C46 0.930 . S
H14 C47 0.937 . S
H15 C45 0.929 1_556 S
H16 C48 0.928 . S
O17 Co1 2.057 . S
O17 C5 1.232 . S
H18 C37 0.929 . S
H19 C38 0.929 . S
H20 C50 0.931 1_556 S
H21 C42 0.929 . S
H22 C51 0.930 . S
H23 C43 0.931 . S
O24 Co0 2.097 . S
O24 C52 1.214 . S
H25 C53 0.929 . S
H26 C54 0.929 . S
H27 C55 0.930 1_565 S
H28 C56 0.929 1_565 S
H29 C58 0.930 . S
H30 C35 0.930 . S
H31 C39 0.930 . S
O32 Co1 2.037 . S
O32 C52 1.234 . S
C33 O7 1.269 . S
C33 O8 1.257 . S
C34 H9 0.930 . S
C34 C37 1.388 . S
C34 C39 1.418 1_545 S
C35 H30 0.930 . S
C35 C38 1.404 1_565 S
C35 C39 1.353 . S
N36 Co1 2.145 1_556 S
N36 C37 1.397 . S
N36 C38 1.334 . S
C37 H18 0.929 . S
C37 C34 1.388 . S
C37 N36 1.397 . S
C38 H19 0.929 . S
C38 C35 1.404 1_545 S
C38 N36 1.334 . S
C39 H31 0.930 . S
C39 C34 1.418 1_565 S
C39 C35 1.353 . S
C40 H10 0.930 . S
C40 N41 1.330 . S
C40 C42 1.446 . S
N41 Co0 2.151 . S
N41 C40 1.330 . S
N41 C45 1.418 . S
C42 H21 0.929 . S
C42 C40 1.446 . S
C42 C43 1.332 . S
C43 H23 0.931 . S
C43 C42 1.332 . S
C43 C44 1.267 . S
C44 H12 0.929 1_554 S
C44 C43 1.267 . S
C44 C45 1.251 . S
C45 H15 0.929 1_554 S
C45 N41 1.418 . S
C45 C44 1.251 . S
C46 H13 0.930 . S
C46 C48 1.406 . S
C46 C51 1.261 . S
C47 H14 0.937 . S
C47 N49 1.325 . S
C47 C50 1.357 . S
C48 H16 0.928 . S
C48 C46 1.406 . S
C48 N49 1.261 . S
N49 Co0 2.214 . S
N49 C47 1.325 . S
N49 C48 1.261 . S
C50 H20 0.931 1_554 S
C50 C47 1.357 . S
C50 C51 1.312 . S
C51 H22 0.930 . S
C51 C46 1.261 . S
C51 C50 1.312 . S
C52 O24 1.214 . S
C52 O32 1.234 . S
C53 H25 0.929 . S
C53 C56 1.391 . S
C53 C58 1.391 . S
C54 H26 0.929 . S
C54 C55 1.390 . S
C54 N57 1.391 . S
C55 H27 0.930 1_545 S
C55 C54 1.390 . S
C55 C56 1.392 . S
C56 H28 0.929 1_545 S
C56 C53 1.391 . S
C56 C55 1.392 . S
N57 Co1 2.257 . S
N57 C54 1.391 . S
N57 C58 1.388 . S
C58 H29 0.930 . S
C58 C53 1.391 . S
C58 N57 1.388 . S
Co59 O61 2.143 . S
Co59 O67 2.074 1_554 S
Co59 O70 2.093 . S
Co59 O83 2.097 . S
Co59 N100 2.151 . S
Co59 N108 2.214 . S
Co60 O61 2.160 . S
Co60 O66 2.058 1_554 S
Co60 O76 2.057 . S
Co60 O91 2.037 . S
Co60 N95 2.145 1_554 S
Co60 N116 2.257 . S
O61 Co59 2.143 . S
O61 Co60 2.160 . S
C62 O63 1.278 . S
C62 O70 1.224 . S
O63 C62 1.278 . S
C64 O65 1.245 . S
C64 O76 1.232 . S
O65 C64 1.245 . S
O66 Co60 2.058 1_556 S
O66 C92 1.269 . S
O67 Co59 2.074 1_556 S
O67 C92 1.257 . S
H68 C93 0.930 . S
H69 C99 0.930 . S
O70 Co59 2.093 . S
O70 C62 1.224 . S
H71 C103 0.929 1_556 S
H72 C105 0.930 . S
H73 C106 0.937 . S
H74 C104 0.929 1_556 S
H75 C107 0.928 . S
O76 Co60 2.057 . S
O76 C64 1.232 . S
H77 C96 0.929 . S
H78 C97 0.929 . S
H79 C109 0.931 1_556 S
H80 C101 0.929 . S
H81 C110 0.930 . S
H82 C102 0.931 . S
O83 Co59 2.097 . S
O83 C111 1.214 . S
H84 C112 0.929 . S
H85 C113 0.929 . S
H86 C114 0.930 1_545 S
H87 C115 0.929 1_545 S
H88 C117 0.930 . S
H89 C94 0.930 . S
H90 C98 0.930 . S
O91 Co60 2.037 . S
O91 C111 1.234 . S
C92 O66 1.269 . S
C92 O67 1.257 . S
C93 H68 0.930 . S
C93 C96 1.388 . S
C93 C98 1.418 1_565 S
C94 H89 0.930 . S
C94 C97 1.404 1_545 S
C94 C98 1.353 . S
N95 Co60 2.145 1_556 S
N95 C96 1.397 . S
N95 C97 1.334 . S
C96 H77 0.929 . S
C96 C93 1.388 . S
C96 N95 1.397 . S
C97 H78 0.929 . S
C97 C94 1.404 1_565 S
C97 N95 1.334 . S
C98 H90 0.930 . S
C98 C93 1.418 1_545 S
C98 C94 1.353 . S
C99 H69 0.930 . S
C99 N100 1.330 . S
C99 C101 1.446 . S
N100 Co59 2.151 . S
N100 C99 1.330 . S
N100 C104 1.418 . S
C101 H80 0.929 . S
C101 C99 1.446 . S
C101 C102 1.332 . S
C102 H82 0.931 . S
C102 C101 1.332 . S
C102 C103 1.267 . S
C103 H71 0.929 1_554 S
C103 C102 1.267 . S
C103 C104 1.251 . S
C104 H74 0.929 1_554 S
C104 N100 1.418 . S
C104 C103 1.251 . S
C105 H72 0.930 . S
C105 C107 1.406 . S
C105 C110 1.261 . S
C106 H73 0.937 . S
C106 N108 1.325 . S
C106 C109 1.357 . S
C107 H75 0.928 . S
C107 C105 1.406 . S
C107 N108 1.261 . S
N108 Co59 2.214 . S
N108 C106 1.325 . S
N108 C107 1.261 . S
C109 H79 0.931 1_554 S
C109 C106 1.357 . S
C109 C110 1.312 . S
C110 H81 0.930 . S
C110 C105 1.261 . S
C110 C109 1.312 . S
C111 O83 1.214 . S
C111 O91 1.234 . S
C112 H84 0.929 . S
C112 C115 1.391 . S
C112 C117 1.391 . S
C113 H85 0.929 . S
C113 C114 1.390 . S
C113 N116 1.391 . S
C114 H86 0.930 1_565 S
C114 C113 1.390 . S
C114 C115 1.392 . S
C115 H87 0.929 1_565 S
C115 C112 1.391 . S
C115 C114 1.392 . S
N116 Co60 2.257 . S
N116 C113 1.391 . S
N116 C117 1.388 . S
C117 H88 0.930 . S
C117 C112 1.391 . S
C117 N116 1.388 . S
Co118 O120 2.143 . S
Co118 O126 2.074 . S
Co118 O129 2.093 . S
Co118 O142 2.097 . S
Co118 N159 2.151 . S
Co118 N167 2.214 . S
Co119 O120 2.160 . S
Co119 O125 2.058 . S
Co119 O135 2.057 . S
Co119 O150 2.037 . S
Co119 N154 2.145 . S
Co119 N175 2.257 . S
O120 Co118 2.143 . S
O120 Co119 2.160 . S
C121 O122 1.278 . S
C121 O129 1.224 . S
O122 C121 1.278 . S
C123 O124 1.245 . S
C123 O135 1.232 . S
O124 C123 1.245 . S
O125 Co119 2.058 . S
O125 C151 1.269 . S
O126 Co118 2.074 . S
O126 C151 1.257 . S
H127 C152 0.930 . S
H128 C158 0.930 . S
O129 Co118 2.093 . S
O129 C121 1.224 . S
H130 C162 0.929 . S
H131 C164 0.930 . S
H132 C165 0.930 . S
H133 C163 0.929 . S
H134 C166 0.928 . S
O135 Co119 2.057 . S
O135 C123 1.232 . S
H136 C155 0.929 . S
H137 C156 0.929 . S
H138 C168 0.931 . S
H139 C160 0.929 . S
H140 C169 0.930 . S
H141 C161 0.931 . S
O142 Co118 2.097 . S
O142 C170 1.214 . S
H143 C171 0.929 . S
H144 C172 0.929 . S
H145 C173 0.930 1_545 S
H146 C174 0.929 1_545 S
H147 C176 0.930 . S
H148 C153 0.930 . S
H149 C157 0.930 . S
O150 Co119 2.037 . S
O150 C170 1.234 . S
C151 O125 1.269 . S
C151 O126 1.257 . S
C152 H127 0.930 . S
C152 C155 1.388 . S
C152 C157 1.418 1_565 S
C153 H148 0.930 . S
C153 C156 1.404 1_545 S
C153 C157 1.353 . S
N154 Co119 2.145 . S
N154 C155 1.397 . S
N154 C156 1.334 . S
C155 H136 0.929 . S
C155 C152 1.388 . S
C155 N154 1.397 . S
C156 H137 0.929 . S
C156 C153 1.404 1_565 S
C156 N154 1.334 . S
C157 H149 0.930 . S
C157 C152 1.418 1_545 S
C157 C153 1.353 . S
C158 H128 0.930 . S
C158 N159 1.330 . S
C158 C160 1.446 . S
N159 Co118 2.151 . S
N159 C158 1.330 . S
N159 C163 1.418 . S
C160 H139 0.929 . S
C160 C158 1.446 . S
C160 C161 1.332 . S
C161 H141 0.931 . S
C161 C160 1.332 . S
C161 C162 1.267 . S
C162 H130 0.929 . S
C162 C161 1.267 . S
C162 C163 1.251 . S
C163 H133 0.929 . S
C163 N159 1.418 . S
C163 C162 1.251 . S
C164 H131 0.930 . S
C164 C166 1.406 . S
C164 C169 1.261 . S
C165 H132 0.930 . S
C165 N167 1.325 . S
C165 C168 1.357 . S
C166 H134 0.928 . S
C166 C164 1.406 . S
C166 N167 1.261 . S
N167 Co118 2.214 . S
N167 C165 1.325 . S
N167 C166 1.261 . S
C168 H138 0.931 . S
C168 C165 1.357 . S
C168 C169 1.312 . S
C169 H140 0.930 . S
C169 C164 1.261 . S
C169 C168 1.312 . S
C170 O142 1.214 . S
C170 O150 1.234 . S
C171 H143 0.929 . S
C171 C174 1.391 . S
C171 C176 1.391 . S
C172 H144 0.929 . S
C172 C173 1.390 . S
C172 N175 1.391 . S
C173 H145 0.930 1_565 S
C173 C172 1.390 . S
C173 C174 1.392 . S
C174 H146 0.929 1_565 S
C174 C171 1.391 . S
C174 C173 1.392 . S
N175 Co119 2.257 . S
N175 C172 1.391 . S
N175 C176 1.388 . S
C176 H147 0.930 . S
C176 C171 1.391 . S
C176 N175 1.388 . S
Co177 O179 2.143 . S
Co177 O185 2.074 . S
Co177 O188 2.093 . S
Co177 O201 2.097 . S
Co177 N218 2.151 . S
Co177 N226 2.214 . S
Co178 O179 2.160 . S
Co178 O184 2.058 . S
Co178 O194 2.057 . S
Co178 O209 2.037 . S
Co178 N213 2.145 . S
Co178 N234 2.257 . S
O179 Co177 2.143 . S
O179 Co178 2.160 . S
C180 O181 1.278 . S
C180 O188 1.224 . S
O181 C180 1.278 . S
C182 O183 1.245 . S
C182 O194 1.232 . S
O183 C182 1.245 . S
O184 Co178 2.058 . S
O184 C210 1.269 . S
O185 Co177 2.074 . S
O185 C210 1.257 . S
H186 C211 0.930 . S
H187 C217 0.930 . S
O188 Co177 2.093 . S
O188 C180 1.224 . S
H189 C221 0.929 . S
H190 C223 0.930 . S
H191 C224 0.930 . S
H192 C222 0.929 . S
H193 C225 0.928 . S
O194 Co178 2.057 . S
O194 C182 1.232 . S
H195 C214 0.929 . S
H196 C215 0.929 . S
H197 C227 0.931 . S
H198 C219 0.929 . S
H199 C228 0.930 . S
H200 C220 0.931 . S
O201 Co177 2.097 . S
O201 C229 1.214 . S
H202 C230 0.929 . S
H203 C231 0.929 . S
H204 C232 0.930 1_565 S
H205 C233 0.929 1_565 S
H206 C235 0.930 . S
H207 C212 0.930 . S
H208 C216 0.930 . S
O209 Co178 2.037 . S
O209 C229 1.234 . S
C210 O184 1.269 . S
C210 O185 1.257 . S
C211 H186 0.930 . S
C211 C214 1.388 . S
C211 C216 1.418 1_545 S
C212 H207 0.930 . S
C212 C215 1.404 1_565 S
C212 C216 1.353 . S
N213 Co178 2.145 . S
N213 C214 1.397 . S
N213 C215 1.334 . S
C214 H195 0.929 . S
C214 C211 1.388 . S
C214 N213 1.397 . S
C215 H196 0.929 . S
C215 C212 1.404 1_545 S
C215 N213 1.334 . S
C216 H208 0.930 . S
C216 C211 1.418 1_565 S
C216 C212 1.353 . S
C217 H187 0.930 . S
C217 N218 1.330 . S
C217 C219 1.446 . S
N218 Co177 2.151 . S
N218 C217 1.330 . S
N218 C222 1.418 . S
C219 H198 0.929 . S
C219 C217 1.446 . S
C219 C220 1.332 . S
C220 H200 0.931 . S
C220 C219 1.332 . S
C220 C221 1.267 . S
C221 H189 0.929 . S
C221 C220 1.267 . S
C221 C222 1.251 . S
C222 H192 0.929 . S
C222 N218 1.418 . S
C222 C221 1.251 . S
C223 H190 0.930 . S
C223 C225 1.406 . S
C223 C228 1.261 . S
C224 H191 0.930 . S
C224 N226 1.325 . S
C224 C227 1.357 . S
C225 H193 0.928 . S
C225 C223 1.406 . S
C225 N226 1.261 . S
N226 Co177 2.214 . S
N226 C224 1.325 . S
N226 C225 1.261 . S
C227 H197 0.931 . S
C227 C224 1.357 . S
C227 C228 1.312 . S
C228 H199 0.930 . S
C228 C223 1.261 . S
C228 C227 1.312 . S
C229 O201 1.214 . S
C229 O209 1.234 . S
C230 H202 0.929 . S
C230 C233 1.391 . S
C230 C235 1.391 . S
C231 H203 0.929 . S
C231 C232 1.390 . S
C231 N234 1.391 . S
C232 H204 0.930 1_545 S
C232 C231 1.390 . S
C232 C233 1.392 . S
C233 H205 0.929 1_545 S
C233 C230 1.391 . S
C233 C232 1.392 . S
N234 Co178 2.257 . S
N234 C231 1.391 . S
N234 C235 1.388 . S
C235 H206 0.930 . S
C235 C230 1.391 . S
C235 N234 1.388 . S
Co236 O238 2.143 . S
Co236 O244 2.074 1_554 S
Co236 O247 2.093 . S
Co236 O260 2.097 . S
Co236 N277 2.151 1_565 S
Co236 N285 2.214 1_565 S
Co237 O238 2.160 . S
Co237 O243 2.058 1_554 S
Co237 O253 2.057 . S
Co237 O268 2.037 . S
Co237 N272 2.145 1_554 S
Co237 N293 2.257 . S
O238 Co236 2.143 . S
O238 Co237 2.160 . S
C239 O240 1.278 . S
C239 O247 1.224 . S
O240 C239 1.278 . S
C241 O242 1.245 . S
C241 O253 1.232 . S
O242 C241 1.245 . S
O243 Co237 2.058 1_556 S
O243 C269 1.269 . S
O244 Co236 2.074 1_556 S
O244 C269 1.257 . S
H245 C270 0.930 . S
H246 C276 0.930 1_565 S
O247 Co236 2.093 . S
O247 C239 1.224 . S
H248 C280 0.929 1_556 S
H249 C282 0.930 . S
H250 C283 0.937 1_565 S
H251 C281 0.929 1_556 S
H252 C284 0.928 . S
O253 Co237 2.057 . S
O253 C241 1.232 . S
H254 C273 0.929 . S
H255 C274 0.929 . S
H256 C286 0.931 1_556 S
H257 C278 0.929 . S
H258 C287 0.930 . S
H259 C279 0.931 . S
O260 Co236 2.097 . S
O260 C288 1.214 . S
H261 C289 0.929 . S
H262 C290 0.929 . S
H263 C291 0.930 . S
H264 C292 0.929 . S
H265 C294 0.930 . S
H266 C271 0.930 . S
H267 C275 0.930 . S
O268 Co237 2.037 . S
O268 C288 1.234 . S
C269 O243 1.269 . S
C269 O244 1.257 . S
C270 H245 0.930 . S
C270 C273 1.388 . S
C270 C275 1.418 . S
C271 H266 0.930 . S
C271 C274 1.404 . S
C271 C275 1.353 . S
N272 Co237 2.145 1_556 S
N272 C273 1.397 . S
N272 C274 1.334 . S
C273 H254 0.929 . S
C273 C270 1.388 . S
C273 N272 1.397 . S
C274 H255 0.929 . S
C274 C271 1.404 . S
C274 N272 1.334 . S
C275 H267 0.930 . S
C275 C270 1.418 . S
C275 C271 1.353 . S
C276 H246 0.930 1_545 S
C276 N277 1.330 . S
C276 C278 1.446 . S
N277 Co236 2.151 1_545 S
N277 C276 1.330 . S
N277 C281 1.418 . S
C278 H257 0.929 . S
C278 C276 1.446 . S
C278 C279 1.332 . S
C279 H259 0.931 . S
C279 C278 1.332 . S
C279 C280 1.267 . S
C280 H248 0.929 1_554 S
C280 C279 1.267 . S
C280 C281 1.251 . S
C281 H251 0.929 1_554 S
C281 N277 1.418 . S
C281 C280 1.251 . S
C282 H249 0.930 . S
C282 C284 1.406 . S
C282 C287 1.261 . S
C283 H250 0.937 1_545 S
C283 N285 1.325 . S
C283 C286 1.357 . S
C284 H252 0.928 . S
C284 C282 1.406 . S
C284 N285 1.261 . S
N285 Co236 2.214 1_545 S
N285 C283 1.325 . S
N285 C284 1.261 . S
C286 H256 0.931 1_554 S
C286 C283 1.357 . S
C286 C287 1.312 . S
C287 H258 0.930 . S
C287 C282 1.261 . S
C287 C286 1.312 . S
C288 O260 1.214 . S
C288 O268 1.234 . S
C289 H261 0.929 . S
C289 C292 1.391 . S
C289 C294 1.391 . S
C290 H262 0.929 . S
C290 C291 1.390 . S
C290 N293 1.391 . S
C291 H263 0.930 . S
C291 C290 1.390 . S
C291 C292 1.392 . S
C292 H264 0.929 . S
C292 C289 1.391 . S
C292 C291 1.392 . S
N293 Co237 2.257 . S
N293 C290 1.391 . S
N293 C294 1.388 . S
C294 H265 0.930 . S
C294 C289 1.391 . S
C294 N293 1.388 . S
Co295 O297 2.143 . S
Co295 O303 2.074 1_554 S
Co295 O306 2.093 . S
Co295 O319 2.097 . S
Co295 N336 2.151 1_545 S
Co295 N344 2.214 1_545 S
Co296 O297 2.160 . S
Co296 O302 2.058 1_554 S
Co296 O312 2.057 . S
Co296 O327 2.037 . S
Co296 N331 2.145 1_554 S
Co296 N352 2.257 . S
O297 Co295 2.143 . S
O297 Co296 2.160 . S
C298 O299 1.278 . S
C298 O306 1.224 . S
O299 C298 1.278 . S
C300 O301 1.245 . S
C300 O312 1.232 . S
O301 C300 1.245 . S
O302 Co296 2.058 1_556 S
O302 C328 1.269 . S
O303 Co295 2.074 1_556 S
O303 C328 1.257 . S
H304 C329 0.930 . S
H305 C335 0.930 1_545 S
O306 Co295 2.093 . S
O306 C298 1.224 . S
H307 C339 0.929 1_556 S
H308 C341 0.930 . S
H309 C342 0.937 1_545 S
H310 C340 0.929 1_556 S
H311 C343 0.928 . S
O312 Co296 2.057 . S
O312 C300 1.232 . S
H313 C332 0.929 . S
H314 C333 0.929 . S
H315 C345 0.931 1_556 S
H316 C337 0.929 . S
H317 C346 0.930 . S
H318 C338 0.931 . S
O319 Co295 2.097 . S
O319 C347 1.214 . S
H320 C348 0.929 . S
H321 C349 0.929 . S
H322 C350 0.930 . S
H323 C351 0.929 . S
H324 C353 0.930 . S
H325 C330 0.930 . S
H326 C334 0.930 . S
O327 Co296 2.037 . S
O327 C347 1.234 . S
C328 O302 1.269 . S
C328 O303 1.257 . S
C329 H304 0.930 . S
C329 C332 1.388 . S
C329 C334 1.418 . S
C330 H325 0.930 . S
C330 C333 1.404 . S
C330 C334 1.353 . S
N331 Co296 2.145 1_556 S
N331 C332 1.397 . S
N331 C333 1.334 . S
C332 H313 0.929 . S
C332 C329 1.388 . S
C332 N331 1.397 . S
C333 H314 0.929 . S
C333 C330 1.404 . S
C333 N331 1.334 . S
C334 H326 0.930 . S
C334 C329 1.418 . S
C334 C330 1.353 . S
C335 H305 0.930 1_565 S
C335 N336 1.330 . S
C335 C337 1.446 . S
N336 Co295 2.151 1_565 S
N336 C335 1.330 . S
N336 C340 1.418 . S
C337 H316 0.929 . S
C337 C335 1.446 . S
C337 C338 1.332 . S
C338 H318 0.931 . S
C338 C337 1.332 . S
C338 C339 1.267 . S
C339 H307 0.929 1_554 S
C339 C338 1.267 . S
C339 C340 1.251 . S
C340 H310 0.929 1_554 S
C340 N336 1.418 . S
C340 C339 1.251 . S
C341 H308 0.930 . S
C341 C343 1.406 . S
C341 C346 1.261 . S
C342 H309 0.937 1_565 S
C342 N344 1.325 . S
C342 C345 1.357 . S
C343 H311 0.928 . S
C343 C341 1.406 . S
C343 N344 1.261 . S
N344 Co295 2.214 1_565 S
N344 C342 1.325 . S
N344 C343 1.261 . S
C345 H315 0.931 1_554 S
C345 C342 1.357 . S
C345 C346 1.312 . S
C346 H317 0.930 . S
C346 C341 1.261 . S
C346 C345 1.312 . S
C347 O319 1.214 . S
C347 O327 1.234 . S
C348 H320 0.929 . S
C348 C351 1.391 . S
C348 C353 1.391 . S
C349 H321 0.929 . S
C349 C350 1.390 . S
C349 N352 1.391 . S
C350 H322 0.930 . S
C350 C349 1.390 . S
C350 C351 1.392 . S
C351 H323 0.929 . S
C351 C348 1.391 . S
C351 C350 1.392 . S
N352 Co296 2.257 . S
N352 C349 1.391 . S
N352 C353 1.388 . S
C353 H324 0.930 . S
C353 C348 1.391 . S
C353 N352 1.388 . S
Co354 O356 2.143 . S
Co354 O362 2.074 . S
Co354 O365 2.093 . S
Co354 O378 2.097 . S
Co354 N395 2.151 1_545 S
Co354 N403 2.214 1_545 S
Co355 O356 2.160 . S
Co355 O361 2.058 . S
Co355 O371 2.057 . S
Co355 O386 2.037 . S
Co355 N390 2.145 . S
Co355 N411 2.257 . S
O356 Co354 2.143 . S
O356 Co355 2.160 . S
C357 O358 1.278 . S
C357 O365 1.224 . S
O358 C357 1.278 . S
C359 O360 1.245 . S
C359 O371 1.232 . S
O360 C359 1.245 . S
O361 Co355 2.058 . S
O361 C387 1.269 . S
O362 Co354 2.074 . S
O362 C387 1.257 . S
H363 C388 0.930 . S
H364 C394 0.930 1_545 S
O365 Co354 2.093 . S
O365 C357 1.224 . S
H366 C398 0.929 . S
H367 C400 0.930 . S
H368 C401 0.930 1_545 S
H369 C399 0.929 . S
H370 C402 0.928 . S
O371 Co355 2.057 . S
O371 C359 1.232 . S
H372 C391 0.929 . S
H373 C392 0.929 . S
H374 C404 0.931 . S
H375 C396 0.929 . S
H376 C405 0.930 . S
H377 C397 0.931 . S
O378 Co354 2.097 . S
O378 C406 1.214 . S
H379 C407 0.929 . S
H380 C408 0.929 . S
H381 C409 0.930 . S
H382 C410 0.929 . S
H383 C412 0.930 . S
H384 C389 0.930 . S
H385 C393 0.930 . S
O386 Co355 2.037 . S
O386 C406 1.234 . S
C387 O361 1.269 . S
C387 O362 1.257 . S
C388 H363 0.930 . S
C388 C391 1.388 . S
C388 C393 1.418 . S
C389 H384 0.930 . S
C389 C392 1.404 . S
C389 C393 1.353 . S
N390 Co355 2.145 . S
N390 C391 1.397 . S
N390 C392 1.334 . S
C391 H372 0.929 . S
C391 C388 1.388 . S
C391 N390 1.397 . S
C392 H373 0.929 . S
C392 C389 1.404 . S
C392 N390 1.334 . S
C393 H385 0.930 . S
C393 C388 1.418 . S
C393 C389 1.353 . S
C394 H364 0.930 1_565 S
C394 N395 1.330 . S
C394 C396 1.446 . S
N395 Co354 2.151 1_565 S
N395 C394 1.330 . S
N395 C399 1.418 . S
C396 H375 0.929 . S
C396 C394 1.446 . S
C396 C397 1.332 . S
C397 H377 0.931 . S
C397 C396 1.332 . S
C397 C398 1.267 . S
C398 H366 0.929 . S
C398 C397 1.267 . S
C398 C399 1.251 . S
C399 H369 0.929 . S
C399 N395 1.418 . S
C399 C398 1.251 . S
C400 H367 0.930 . S
C400 C402 1.406 . S
C400 C405 1.261 . S
C401 H368 0.930 1_565 S
C401 N403 1.325 . S
C401 C404 1.357 . S
C402 H370 0.928 . S
C402 C400 1.406 . S
C402 N403 1.261 . S
N403 Co354 2.214 1_565 S
N403 C401 1.325 . S
N403 C402 1.261 . S
C404 H374 0.931 . S
C404 C401 1.357 . S
C404 C405 1.312 . S
C405 H376 0.930 . S
C405 C400 1.261 . S
C405 C404 1.312 . S
C406 O378 1.214 . S
C406 O386 1.234 . S
C407 H379 0.929 . S
C407 C410 1.391 . S
C407 C412 1.391 . S
C408 H380 0.929 . S
C408 C409 1.390 . S
C408 N411 1.391 . S
C409 H381 0.930 . S
C409 C408 1.390 . S
C409 C410 1.392 . S
C410 H382 0.929 . S
C410 C407 1.391 . S
C410 C409 1.392 . S
N411 Co355 2.257 . S
N411 C408 1.391 . S
N411 C412 1.388 . S
C412 H383 0.930 . S
C412 C407 1.391 . S
C412 N411 1.388 . S
Co413 O415 2.143 . S
Co413 O421 2.074 . S
Co413 O424 2.093 . S
Co413 O437 2.097 . S
Co413 N454 2.151 1_565 S
Co413 N462 2.214 1_565 S
Co414 O415 2.160 . S
Co414 O420 2.058 . S
Co414 O430 2.057 . S
Co414 O445 2.037 . S
Co414 N449 2.145 . S
Co414 N470 2.257 . S
O415 Co413 2.143 . S
O415 Co414 2.160 . S
C416 O417 1.278 . S
C416 O424 1.224 . S
O417 C416 1.278 . S
C418 O419 1.245 . S
C418 O430 1.232 . S
O419 C418 1.245 . S
O420 Co414 2.058 . S
O420 C446 1.269 . S
O421 Co413 2.074 . S
O421 C446 1.257 . S
H422 C447 0.930 . S
H423 C453 0.930 1_565 S
O424 Co413 2.093 . S
O424 C416 1.224 . S
H425 C457 0.929 . S
H426 C459 0.930 . S
H427 C460 0.930 1_565 S
H428 C458 0.929 . S
H429 C461 0.928 . S
O430 Co414 2.057 . S
O430 C418 1.232 . S
H431 C450 0.929 . S
H432 C451 0.929 . S
H433 C463 0.931 . S
H434 C455 0.929 . S
H435 C464 0.930 . S
H436 C456 0.931 . S
O437 Co413 2.097 . S
O437 C465 1.214 . S
H438 C466 0.929 . S
H439 C467 0.929 . S
H440 C468 0.930 . S
H441 C469 0.929 . S
H442 C471 0.930 . S
H443 C448 0.930 . S
H444 C452 0.930 . S
O445 Co414 2.037 . S
O445 C465 1.234 . S
C446 O420 1.269 . S
C446 O421 1.257 . S
C447 H422 0.930 . S
C447 C450 1.388 . S
C447 C452 1.418 . S
C448 H443 0.930 . S
C448 C451 1.404 . S
C448 C452 1.353 . S
N449 Co414 2.145 . S
N449 C450 1.397 . S
N449 C451 1.334 . S
C450 H431 0.929 . S
C450 C447 1.388 . S
C450 N449 1.397 . S
C451 H432 0.929 . S
C451 C448 1.404 . S
C451 N449 1.334 . S
C452 H444 0.930 . S
C452 C447 1.418 . S
C452 C448 1.353 . S
C453 H423 0.930 1_545 S
C453 N454 1.330 . S
C453 C455 1.446 . S
N454 Co413 2.151 1_545 S
N454 C453 1.330 . S
N454 C458 1.418 . S
C455 H434 0.929 . S
C455 C453 1.446 . S
C455 C456 1.332 . S
C456 H436 0.931 . S
C456 C455 1.332 . S
C456 C457 1.267 . S
C457 H425 0.929 . S
C457 C456 1.267 . S
C457 C458 1.251 . S
C458 H428 0.929 . S
C458 N454 1.418 . S
C458 C457 1.251 . S
C459 H426 0.930 . S
C459 C461 1.406 . S
C459 C464 1.261 . S
C460 H427 0.930 1_545 S
C460 N462 1.325 . S
C460 C463 1.357 . S
C461 H429 0.928 . S
C461 C459 1.406 . S
C461 N462 1.261 . S
N462 Co413 2.214 1_545 S
N462 C460 1.325 . S
N462 C461 1.261 . S
C463 H433 0.931 . S
C463 C460 1.357 . S
C463 C464 1.312 . S
C464 H435 0.930 . S
C464 C459 1.261 . S
C464 C463 1.312 . S
C465 O437 1.214 . S
C465 O445 1.234 . S
C466 H438 0.929 . S
C466 C469 1.391 . S
C466 C471 1.391 . S
C467 H439 0.929 . S
C467 C468 1.390 . S
C467 N470 1.391 . S
C468 H440 0.930 . S
C468 C467 1.390 . S
C468 C469 1.392 . S
C469 H441 0.929 . S
C469 C466 1.391 . S
C469 C468 1.392 . S
N470 Co414 2.257 . S
N470 C467 1.391 . S
N470 C471 1.388 . S
C471 H442 0.930 . S
C471 C466 1.391 . S
C471 N470 1.388 . S
C472 C473 1.391 . S
C472 C474 1.394 . S
C472 H488 0.931 . S
C473 C472 1.391 . S
C473 C477 1.376 . S
C474 C472 1.394 . S
C474 C475 1.369 . S
C474 C478 1.531 . S
C475 C474 1.369 . S
C475 C476 1.410 . S
C475 C483 1.503 . S
C476 C475 1.410 . S
C476 C477 1.392 . S
C476 C479 1.508 1_554 S
C477 C473 1.376 . S
C477 C476 1.392 . S
C477 H489 0.929 . S
C478 C474 1.531 . S
C478 H490 0.960 . S
C478 H491 0.962 . S
C478 H492 0.960 . S
C479 C476 1.508 1_556 S
C479 H493 0.966 . S
C479 H494 0.964 . S
C479 H495 0.955 1_556 S
C480 C481 1.370 1_556 S
C480 C482 1.362 1_556 S
C480 H496 0.931 . S
C481 C480 1.370 1_554 S
C481 C485 1.408 . S
C482 C480 1.362 1_554 S
C482 C483 1.385 . S
C482 C486 1.510 1_554 S
C483 C475 1.503 . S
C483 C482 1.385 . S
C483 C484 1.403 . S
C484 C483 1.403 . S
C484 C485 1.404 . S
C484 C487 1.539 . S
C485 C481 1.408 . S
C485 C484 1.404 . S
C485 H497 0.930 . S
C486 C482 1.510 1_556 S
C486 H498 0.956 . S
C486 H499 0.961 . S
C486 H500 0.961 . S
C487 C484 1.539 . S
C487 H501 0.958 . S
C487 H502 0.961 . S
C487 H503 0.960 . S
H488 C472 0.931 . S
H489 C477 0.929 . S
H490 C478 0.960 . S
H491 C478 0.962 . S
H492 C478 0.960 . S
H493 C479 0.966 . S
H494 C479 0.964 . S
H495 C479 0.955 1_554 S
H496 C480 0.931 . S
H497 C485 0.930 . S
H498 C486 0.956 . S
H499 C486 0.961 . S
H500 C486 0.961 . S
H501 C487 0.958 . S
H502 C487 0.961 . S
H503 C487 0.960 . S
C504 C505 1.391 . S
C504 C506 1.394 . S
C504 H520 0.931 . S
C505 C504 1.391 . S
C505 C509 1.376 . S
C506 C504 1.394 . S
C506 C507 1.369 . S
C506 C510 1.531 . S
C507 C506 1.369 . S
C507 C508 1.410 . S
C507 C515 1.503 . S
C508 C507 1.410 . S
C508 C509 1.392 . S
C508 C511 1.511 1_554 S
C509 C505 1.376 . S
C509 C508 1.392 . S
C509 H521 0.929 1_554 S
C510 C506 1.531 . S
C510 H522 0.960 . S
C510 H523 0.962 . S
C510 H524 0.960 . S
C511 C508 1.511 1_556 S
C511 H525 0.961 . S
C511 H526 0.961 . S
C511 H527 0.961 . S
C512 C513 1.370 . S
C512 C514 1.363 . S
C512 H528 0.931 1_554 S
C513 C512 1.370 . S
C513 C517 1.408 . S
C514 C512 1.363 . S
C514 C515 1.370 . S
C514 C518 1.524 1_554 S
C515 C507 1.503 . S
C515 C514 1.370 . S
C515 C516 1.403 . S
C516 C515 1.403 . S
C516 C517 1.404 . S
C516 C519 1.539 . S
C517 C513 1.408 . S
C517 C516 1.404 . S
C517 H529 0.930 . S
C518 C514 1.524 1_556 S
C518 H530 0.956 . S
C518 H531 0.961 . S
C518 H532 0.961 . S
C519 C516 1.539 . S
C519 H533 0.958 . S
C519 H534 0.961 . S
C519 H535 0.960 . S
H520 C504 0.931 . S
H521 C509 0.929 1_556 S
H522 C510 0.960 . S
H523 C510 0.962 . S
H524 C510 0.960 . S
H525 C511 0.961 . S
H526 C511 0.961 . S
H527 C511 0.961 . S
H528 C512 0.931 1_556 S
H529 C517 0.930 . S
H530 C518 0.956 . S
H531 C518 0.961 . S
H532 C518 0.961 . S
H533 C519 0.958 . S
H534 C519 0.961 . S
H535 C519 0.960 . S
C536 C537 1.391 . S
C536 C538 1.394 . S
C536 H552 0.931 . S
C537 C536 1.391 . S
C537 C541 1.376 . S
C538 C536 1.394 . S
C538 C539 1.369 . S
C538 C542 1.531 . S
C539 C538 1.369 . S
C539 C540 1.410 . S
C539 C547 1.503 . S
C540 C539 1.410 . S
C540 C541 1.392 . S
C540 C543 1.511 . S
C541 C537 1.376 . S
C541 C540 1.392 . S
C541 H553 0.929 . S
C542 C538 1.531 . S
C542 H554 0.960 . S
C542 H555 0.962 . S
C542 H556 0.960 . S
C543 C540 1.511 . S
C543 H557 0.961 . S
C543 H558 0.961 . S
C543 H559 0.961 . S
C544 C545 1.370 . S
C544 C546 1.363 . S
C544 H560 0.931 . S
C545 C544 1.370 . S
C545 C549 1.408 . S
C546 C544 1.363 . S
C546 C547 1.370 . S
C546 C550 1.524 . S
C547 C539 1.503 . S
C547 C546 1.370 . S
C547 C548 1.403 . S
C548 C547 1.403 . S
C548 C549 1.404 . S
C548 C551 1.539 . S
C549 C545 1.408 . S
C549 C548 1.404 . S
C549 H561 0.930 . S
C550 C546 1.524 . S
C550 H562 0.956 . S
C550 H563 0.961 . S
C550 H564 0.961 . S
C551 C548 1.539 . S
C551 H565 0.958 . S
C551 H566 0.961 . S
C551 H567 0.960 . S
H552 C536 0.931 . S
H553 C541 0.929 . S
H554 C542 0.960 . S
H555 C542 0.962 . S
H556 C542 0.960 . S
H557 C543 0.961 . S
H558 C543 0.961 . S
H559 C543 0.961 . S
H560 C544 0.931 . S
H561 C549 0.930 . S
H562 C550 0.956 . S
H563 C550 0.961 . S
H564 C550 0.961 . S
H565 C551 0.958 . S
H566 C551 0.961 . S
H567 C551 0.960 . S
C568 C569 1.391 . S
C568 C570 1.394 . S
C568 H584 0.931 . S
C569 C568 1.391 . S
C569 C573 1.376 . S
C570 C568 1.394 . S
C570 C571 1.369 . S
C570 C574 1.531 . S
C571 C570 1.369 . S
C571 C572 1.410 . S
C571 C579 1.503 . S
C572 C571 1.410 . S
C572 C573 1.392 . S
C572 C575 1.511 . S
C573 C569 1.376 . S
C573 C572 1.392 . S
C573 H585 0.929 . S
C574 C570 1.531 . S
C574 H586 0.960 . S
C574 H587 0.962 . S
C574 H588 0.960 . S
C575 C572 1.511 . S
C575 H589 0.961 . S
C575 H590 0.961 . S
C575 H591 0.961 . S
C576 C577 1.370 . S
C576 C578 1.363 . S
C576 H592 0.931 . S
C577 C576 1.370 . S
C577 C581 1.408 . S
C578 C576 1.363 . S
C578 C579 1.370 . S
C578 C582 1.524 . S
C579 C571 1.503 . S
C579 C578 1.370 . S
C579 C580 1.403 . S
C580 C579 1.403 . S
C580 C581 1.404 . S
C580 C583 1.539 . S
C581 C577 1.408 . S
C581 C580 1.404 . S
C581 H593 0.930 . S
C582 C578 1.524 . S
C582 H594 0.956 . S
C582 H595 0.961 . S
C582 H596 0.961 . S
C583 C580 1.539 . S
C583 H597 0.958 . S
C583 H598 0.961 . S
C583 H599 0.960 . S
H584 C568 0.931 . S
H585 C573 0.929 . S
H586 C574 0.960 . S
H587 C574 0.962 . S
H588 C574 0.960 . S
H589 C575 0.961 . S
H590 C575 0.961 . S
H591 C575 0.961 . S
H592 C576 0.931 . S
H593 C581 0.930 . S
H594 C582 0.956 . S
H595 C582 0.961 . S
H596 C582 0.961 . S
H597 C583 0.958 . S
H598 C583 0.961 . S
H599 C583 0.960 . S
C600 C601 1.391 . S
C600 C602 1.394 . S
C600 H616 0.931 . S
C601 C600 1.391 . S
C601 C605 1.376 . S
C602 C600 1.394 . S
C602 C603 1.369 . S
C602 C606 1.531 . S
C603 C602 1.369 . S
C603 C604 1.410 . S
C603 C611 1.503 . S
C604 C603 1.410 . S
C604 C605 1.392 . S
C604 C607 1.511 . S
C605 C601 1.376 . S
C605 C604 1.392 . S
C605 H617 0.929 . S
C606 C602 1.531 . S
C606 H618 0.960 . S
C606 H619 0.962 . S
C606 H620 0.960 . S
C607 C604 1.511 . S
C607 H621 0.961 . S
C607 H622 0.961 . S
C607 H623 0.961 . S
C608 C609 1.370 . S
C608 C610 1.363 . S
C608 H624 0.931 . S
C609 C608 1.370 . S
C609 C613 1.408 . S
C610 C608 1.363 . S
C610 C611 1.370 . S
C610 C614 1.524 . S
C611 C603 1.503 . S
C611 C610 1.370 . S
C611 C612 1.403 . S
C612 C611 1.403 . S
C612 C613 1.404 . S
C612 C615 1.539 . S
C613 C609 1.408 . S
C613 C612 1.404 . S
C613 H625 0.930 . S
C614 C610 1.524 . S
C614 H626 0.956 . S
C614 H627 0.961 . S
C614 H628 0.961 . S
C615 C612 1.539 . S
C615 H629 0.958 . S
C615 H630 0.961 . S
C615 H631 0.960 . S
H616 C600 0.931 . S
H617 C605 0.929 . S
H618 C606 0.960 . S
H619 C606 0.962 . S
H620 C606 0.960 . S
H621 C607 0.961 . S
H622 C607 0.961 . S
H623 C607 0.961 . S
H624 C608 0.931 . S
H625 C613 0.930 . S
H626 C614 0.956 . S
H627 C614 0.961 . S
H628 C614 0.961 . S
H629 C615 0.958 . S
H630 C615 0.961 . S
H631 C615 0.960 . S
C632 C633 1.391 . S
C632 C634 1.394 . S
C632 H648 0.931 . S
C633 C632 1.391 . S
C633 C637 1.376 . S
C634 C632 1.394 . S
C634 C635 1.369 . S
C634 C638 1.531 . S
C635 C634 1.369 . S
C635 C636 1.410 . S
C635 C643 1.503 . S
C636 C635 1.410 . S
C636 C637 1.392 . S
C636 C639 1.511 . S
C637 C633 1.376 . S
C637 C636 1.392 . S
C637 H649 0.929 . S
C638 C634 1.531 . S
C638 H650 0.960 . S
C638 H651 0.962 . S
C638 H652 0.960 . S
C639 C636 1.511 . S
C639 H653 0.961 . S
C639 H654 0.961 . S
C639 H655 0.961 . S
C640 C641 1.370 . S
C640 C642 1.363 . S
C640 H656 0.931 . S
C641 C640 1.370 . S
C641 C645 1.408 . S
C642 C640 1.363 . S
C642 C643 1.370 . S
C642 C646 1.524 . S
C643 C635 1.503 . S
C643 C642 1.370 . S
C643 C644 1.403 . S
C644 C643 1.403 . S
C644 C645 1.404 . S
C644 C647 1.539 . S
C645 C641 1.408 . S
C645 C644 1.404 . S
C645 H657 0.930 . S
C646 C642 1.524 . S
C646 H658 0.956 . S
C646 H659 0.961 . S
C646 H660 0.961 . S
C647 C644 1.539 . S
C647 H661 0.958 . S
C647 H662 0.961 . S
C647 H663 0.960 . S
H648 C632 0.931 . S
H649 C637 0.929 . S
H650 C638 0.960 . S
H651 C638 0.962 . S
H652 C638 0.960 . S
H653 C639 0.961 . S
H654 C639 0.961 . S
H655 C639 0.961 . S
H656 C640 0.931 . S
H657 C645 0.930 . S
H658 C646 0.956 . S
H659 C646 0.961 . S
H660 C646 0.961 . S
H661 C647 0.958 . S
H662 C647 0.961 . S
H663 C647 0.960 . S
C664 C665 1.391 . S
C664 C666 1.394 . S
C664 H680 0.931 . S
C665 C664 1.391 . S
C665 C669 1.376 . S
C666 C664 1.394 . S
C666 C667 1.369 . S
C666 C670 1.531 . S
C667 C666 1.369 . S
C667 C668 1.410 . S
C667 C675 1.503 . S
C668 C667 1.410 . S
C668 C669 1.392 . S
C668 C671 1.511 . S
C669 C665 1.376 . S
C669 C668 1.392 . S
C669 H681 0.929 . S
C670 C666 1.531 . S
C670 H682 0.960 . S
C670 H683 0.962 . S
C670 H684 0.960 . S
C671 C668 1.511 . S
C671 H685 0.961 . S
C671 H686 0.961 . S
C671 H687 0.961 . S
C672 C673 1.370 . S
C672 C674 1.363 . S
C672 H688 0.931 . S
C673 C672 1.370 . S
C673 C677 1.408 . S
C674 C672 1.363 . S
C674 C675 1.370 . S
C674 C678 1.524 . S
C675 C667 1.503 . S
C675 C674 1.370 . S
C675 C676 1.403 . S
C676 C675 1.403 . S
C676 C677 1.404 . S
C676 C679 1.539 . S
C677 C673 1.408 . S
C677 C676 1.404 . S
C677 H689 0.930 . S
C678 C674 1.524 . S
C678 H690 0.956 . S
C678 H691 0.961 . S
C678 H692 0.961 . S
C679 C676 1.539 . S
C679 H693 0.958 . S
C679 H694 0.961 . S
C679 H695 0.960 . S
H680 C664 0.931 . S
H681 C669 0.929 . S
H682 C670 0.960 . S
H683 C670 0.962 . S
H684 C670 0.960 . S
H685 C671 0.961 . S
H686 C671 0.961 . S
H687 C671 0.961 . S
H688 C672 0.931 . S
H689 C677 0.930 . S
H690 C678 0.956 . S
H691 C678 0.961 . S
H692 C678 0.961 . S
H693 C679 0.958 . S
H694 C679 0.961 . S
H695 C679 0.960 . S
C696 C697 1.391 . S
C696 C698 1.394 . S
C696 H712 0.931 . S
C697 C696 1.391 . S
C697 C701 1.376 . S
C698 C696 1.394 . S
C698 C699 1.369 . S
C698 C702 1.531 . S
C699 C698 1.369 . S
C699 C700 1.410 . S
C699 C707 1.503 . S
C700 C699 1.410 . S
C700 C701 1.392 . S
C700 C703 1.511 . S
C701 C697 1.376 . S
C701 C700 1.392 . S
C701 H713 0.929 . S
C702 C698 1.531 . S
C702 H714 0.960 . S
C702 H715 0.962 . S
C702 H716 0.960 . S
C703 C700 1.511 . S
C703 H717 0.961 . S
C703 H718 0.961 . S
C703 H719 0.961 . S
C704 C705 1.370 . S
C704 C706 1.363 . S
C704 H720 0.931 . S
C705 C704 1.370 . S
C705 C709 1.408 . S
C706 C704 1.363 . S
C706 C707 1.370 . S
C706 C710 1.524 . S
C707 C699 1.503 . S
C707 C706 1.370 . S
C707 C708 1.403 . S
C708 C707 1.403 . S
C708 C709 1.404 . S
C708 C711 1.539 . S
C709 C705 1.408 . S
C709 C708 1.404 . S
C709 H721 0.930 . S
C710 C706 1.524 . S
C710 H722 0.956 . S
C710 H723 0.961 . S
C710 H724 0.961 . S
C711 C708 1.539 . S
C711 H725 0.958 . S
C711 H726 0.961 . S
C711 H727 0.960 . S
H712 C696 0.931 . S
H713 C701 0.929 . S
H714 C702 0.960 . S
H715 C702 0.962 . S
H716 C702 0.960 . S
H717 C703 0.961 . S
H718 C703 0.961 . S
H719 C703 0.961 . S
H720 C704 0.931 . S
H721 C709 0.930 . S
H722 C710 0.956 . S
H723 C710 0.961 . S
H724 C710 0.961 . S
H725 C711 0.958 . S
H726 C711 0.961 . S
H727 C711 0.960 . S
C728 C729 1.391 1_545 S
C728 C730 1.394 . S
C728 H744 0.931 . S
C729 C728 1.391 1_565 S
C729 C733 1.376 . S
C730 C728 1.394 . S
C730 C731 1.369 1_545 S
C730 C734 1.531 . S
C731 C730 1.369 1_565 S
C731 C732 1.410 . S
C731 C739 1.503 1_565 S
C732 C731 1.410 . S
C732 C733 1.392 . S
C732 C735 1.511 . S
C733 C729 1.376 . S
C733 C732 1.392 . S
C733 H745 0.929 . S
C734 C730 1.531 . S
C734 H746 0.960 . S
C734 H747 0.962 . S
C734 H748 0.960 . S
C735 C732 1.511 . S
C735 H749 0.961 . S
C735 H750 0.961 . S
C735 H751 0.961 . S
C736 C737 1.370 . S
C736 C738 1.363 . S
C736 H752 0.931 . S
C737 C736 1.370 . S
C737 C741 1.408 . S
C738 C736 1.363 . S
C738 C739 1.370 . S
C738 C742 1.524 1_545 S
C739 C731 1.503 1_545 S
C739 C738 1.370 . S
C739 C740 1.403 . S
C740 C739 1.403 . S
C740 C741 1.404 . S
C740 C743 1.539 . S
C741 C737 1.408 . S
C741 C740 1.404 . S
C741 H753 0.930 . S
C742 C738 1.524 1_565 S
C742 H754 0.956 1_565 S
C742 H755 0.961 . S
C742 H756 0.961 . S
C743 C740 1.539 . S
C743 H757 0.958 . S
C743 H758 0.961 . S
C743 H759 0.960 . S
H744 C728 0.931 . S
H745 C733 0.929 . S
H746 C734 0.960 . S
H747 C734 0.962 . S
H748 C734 0.960 . S
H749 C735 0.961 . S
H750 C735 0.961 . S
H751 C735 0.961 . S
H752 C736 0.931 . S
H753 C741 0.930 . S
H754 C742 0.956 1_545 S
H755 C742 0.961 . S
H756 C742 0.961 . S
H757 C743 0.958 . S
H758 C743 0.961 . S
H759 C743 0.960 . S
C760 C761 1.391 . S
C760 C762 1.394 1_565 S
C760 H776 0.931 . S
C761 C760 1.391 . S
C761 C765 1.376 . S
C762 C760 1.394 1_545 S
C762 C763 1.369 . S
C762 C766 1.531 . S
C763 C762 1.369 . S
C763 C764 1.410 1_545 S
C763 C771 1.503 . S
C764 C763 1.410 1_565 S
C764 C765 1.392 . S
C764 C767 1.511 . S
C765 C761 1.376 . S
C765 C764 1.392 . S
C765 H777 0.929 . S
C766 C762 1.531 . S
C766 H778 0.960 . S
C766 H779 0.962 . S
C766 H780 0.960 . S
C767 C764 1.511 . S
C767 H781 0.961 . S
C767 H782 0.961 . S
C767 H783 0.958 1_565 S
C768 C769 1.370 1_565 S
C768 C770 1.363 . S
C768 H784 0.931 . S
C769 C768 1.370 1_545 S
C769 C773 1.408 . S
C770 C768 1.363 . S
C770 C771 1.370 1_565 S
C770 C774 1.524 . S
C771 C763 1.503 . S
C771 C770 1.370 1_545 S
C771 C772 1.403 . S
C772 C771 1.403 . S
C772 C773 1.404 . S
C772 C775 1.539 . S
C773 C769 1.408 . S
C773 C772 1.404 . S
C773 H785 0.930 . S
C774 C770 1.524 . S
C774 H786 0.956 . S
C774 H787 0.961 . S
C774 H788 0.961 . S
C775 C772 1.539 . S
C775 H789 0.958 . S
C775 H790 0.961 . S
C775 H791 0.960 . S
H776 C760 0.931 . S
H777 C765 0.929 . S
H778 C766 0.960 . S
H779 C766 0.962 . S
H780 C766 0.960 . S
H781 C767 0.961 . S
H782 C767 0.961 . S
H783 C767 0.958 1_545 S
H784 C768 0.931 . S
H785 C773 0.930 . S
H786 C774 0.956 . S
H787 C774 0.961 . S
H788 C774 0.961 . S
H789 C775 0.958 . S
H790 C775 0.961 . S
H791 C775 0.960 . S
C792 C793 1.391 . S
C792 C794 1.394 . S
C792 H808 0.931 . S
C793 C792 1.391 . S
C793 C797 1.376 . S
C794 C792 1.394 . S
C794 C795 1.369 . S
C794 C798 1.531 . S
C795 C794 1.369 . S
C795 C796 1.410 . S
C795 C803 1.503 1_565 S
C796 C795 1.410 . S
C796 C797 1.392 . S
C796 C799 1.511 . S
C797 C793 1.376 . S
C797 C796 1.392 . S
C797 H809 0.929 . S
C798 C794 1.531 . S
C798 H810 0.960 . S
C798 H811 0.962 1_565 S
C798 H812 0.960 . S
C799 C796 1.511 . S
C799 H813 0.961 . S
C799 H814 0.961 . S
C799 H815 0.961 . S
C800 C801 1.370 . S
C800 C802 1.363 . S
C800 H816 0.931 . S
C801 C800 1.370 . S
C801 C805 1.408 1_545 S
C802 C800 1.363 . S
C802 C803 1.370 . S
C802 C806 1.524 . S
C803 C795 1.503 1_545 S
C803 C802 1.370 . S
C803 C804 1.403 1_545 S
C804 C803 1.403 1_565 S
C804 C805 1.404 . S
C804 C807 1.539 . S
C805 C801 1.408 1_565 S
C805 C804 1.404 . S
C805 H817 0.930 . S
C806 C802 1.524 . S
C806 H818 0.956 . S
C806 H819 0.961 . S
C806 H820 0.961 . S
C807 C804 1.539 . S
C807 H821 0.958 . S
C807 H822 0.961 . S
C807 H823 0.960 . S
H808 C792 0.931 . S
H809 C797 0.929 . S
H810 C798 0.960 . S
H811 C798 0.962 1_545 S
H812 C798 0.960 . S
H813 C799 0.961 . S
H814 C799 0.961 . S
H815 C799 0.961 . S
H816 C800 0.931 . S
H817 C805 0.930 . S
H818 C806 0.956 . S
H819 C806 0.961 . S
H820 C806 0.961 . S
H821 C807 0.958 . S
H822 C807 0.961 . S
H823 C807 0.960 . S
C824 C825 1.391 1_545 S
C824 C826 1.394 . S
C824 H840 0.931 . S
C825 C824 1.391 1_565 S
C825 C829 1.376 . S
C826 C824 1.394 . S
C826 C827 1.369 1_545 S
C826 C830 1.531 . S
C827 C826 1.369 1_565 S
C827 C828 1.410 . S
C827 C835 1.503 1_565 S
C828 C827 1.410 . S
C828 C829 1.392 . S
C828 C831 1.511 . S
C829 C825 1.376 . S
C829 C828 1.392 . S
C829 H841 0.929 . S
C830 C826 1.531 . S
C830 H842 0.960 . S
C830 H843 0.962 . S
C830 H844 0.960 . S
C831 C828 1.511 . S
C831 H845 0.961 . S
C831 H846 0.961 . S
C831 H847 0.961 . S
C832 C833 1.370 . S
C832 C834 1.363 . S
C832 H848 0.931 . S
C833 C832 1.370 . S
C833 C837 1.408 . S
C834 C832 1.363 . S
C834 C835 1.370 . S
C834 C838 1.524 1_545 S
C835 C827 1.503 1_545 S
C835 C834 1.370 . S
C835 C836 1.403 . S
C836 C835 1.403 . S
C836 C837 1.404 . S
C836 C839 1.539 . S
C837 C833 1.408 . S
C837 C836 1.404 . S
C837 H849 0.930 . S
C838 C834 1.524 1_565 S
C838 H850 0.956 1_565 S
C838 H851 0.961 . S
C838 H852 0.961 . S
C839 C836 1.539 . S
C839 H853 0.958 . S
C839 H854 0.961 . S
C839 H855 0.960 1_545 S
H840 C824 0.931 . S
H841 C829 0.929 . S
H842 C830 0.960 . S
H843 C830 0.962 . S
H844 C830 0.960 . S
H845 C831 0.961 . S
H846 C831 0.961 . S
H847 C831 0.961 . S
H848 C832 0.931 . S
H849 C837 0.930 . S
H850 C838 0.956 1_545 S
H851 C838 0.961 . S
H852 C838 0.961 . S
H853 C839 0.958 . S
H854 C839 0.961 . S
H855 C839 0.960 1_565 S
C856 C857 1.391 . S
C856 C858 1.394 . S
C856 H872 0.931 . S
C857 C856 1.391 . S
C857 C861 1.376 1_554 S
C858 C856 1.394 . S
C858 C859 1.369 . S
C858 C862 1.531 . S
C859 C858 1.369 . S
C859 C860 1.410 1_554 S
C859 C867 1.503 1_565 S
C860 C859 1.410 1_556 S
C860 C861 1.392 . S
C860 C863 1.511 . S
C861 C857 1.376 1_556 S
C861 C860 1.392 . S
C861 H873 0.929 . S
C862 C858 1.531 . S
C862 H874 0.960 . S
C862 H875 0.962 1_565 S
C862 H876 0.960 . S
C863 C860 1.511 . S
C863 H877 0.961 . S
C863 H878 0.961 . S
C863 H879 0.961 . S
C864 C865 1.370 . S
C864 C866 1.363 . S
C864 H880 0.931 . S
C865 C864 1.370 . S
C865 C869 1.408 . S
C866 C864 1.363 . S
C866 C867 1.370 . S
C866 C870 1.524 . S
C867 C859 1.503 1_545 S
C867 C866 1.370 . S
C867 C868 1.403 1_545 S
C868 C867 1.403 1_565 S
C868 C869 1.404 1_565 S
C868 C871 1.539 . S
C869 C865 1.408 . S
C869 C868 1.404 1_545 S
C869 H881 0.930 . S
C870 C866 1.524 . S
C870 H882 0.956 . S
C870 H883 0.961 1_554 S
C870 H884 0.963 . S
C871 C868 1.539 . S
C871 H885 0.958 . S
C871 H886 0.961 . S
C871 H887 0.960 . S
H872 C856 0.931 . S
H873 C861 0.929 . S
H874 C862 0.960 . S
H875 C862 0.962 1_545 S
H876 C862 0.960 . S
H877 C863 0.961 . S
H878 C863 0.961 . S
H879 C863 0.961 . S
H880 C864 0.931 . S
H881 C869 0.930 . S
H882 C870 0.956 . S
H883 C870 0.961 1_556 S
H884 C870 0.963 . S
H885 C871 0.958 . S
H886 C871 0.961 . S
H887 C871 0.960 . S
C888 C889 1.391 . S
C888 C890 1.394 . S
C888 H904 0.931 . S
C889 C888 1.391 . S
C889 C893 1.376 . S
C890 C888 1.394 . S
C890 C891 1.369 . S
C890 C894 1.531 . S
C891 C890 1.369 . S
C891 C892 1.410 . S
C891 C899 1.503 1_565 S
C892 C891 1.410 . S
C892 C893 1.392 . S
C892 C895 1.511 . S
C893 C889 1.376 . S
C893 C892 1.392 . S
C893 H905 0.929 . S
C894 C890 1.531 . S
C894 H906 0.960 . S
C894 H907 0.962 . S
C894 H908 0.960 . S
C895 C892 1.511 . S
C895 H909 0.961 . S
C895 H910 0.961 1_565 S
C895 H911 0.961 . S
C896 C897 1.370 . S
C896 C898 1.363 . S
C896 H912 0.931 . S
C897 C896 1.370 . S
C897 C901 1.408 . S
C898 C896 1.363 . S
C898 C899 1.370 . S
C898 C902 1.524 . S
C899 C891 1.503 1_545 S
C899 C898 1.370 . S
C899 C900 1.403 1_545 S
C900 C899 1.403 1_565 S
C900 C901 1.404 1_565 S
C900 C903 1.539 . S
C901 C897 1.408 . S
C901 C900 1.404 1_545 S
C901 H913 0.930 . S
C902 C898 1.524 . S
C902 H914 0.956 . S
C902 H915 0.961 . S
C902 H916 0.961 . S
C903 C900 1.539 . S
C903 H917 0.958 . S
C903 H918 0.961 . S
C903 H919 0.960 . S
H904 C888 0.931 . S
H905 C893 0.929 . S
H906 C894 0.960 . S
H907 C894 0.962 . S
H908 C894 0.960 . S
H909 C895 0.961 . S
H910 C895 0.961 1_545 S
H911 C895 0.961 . S
H912 C896 0.931 . S
H913 C901 0.930 . S
H914 C902 0.956 . S
H915 C902 0.961 . S
H916 C902 0.961 . S
H917 C903 0.958 . S
H918 C903 0.961 . S
H919 C903 0.960 . S
C920 C921 1.391 1_556 S
C920 C922 1.394 . S
C920 H936 0.931 . S
C921 C920 1.391 1_554 S
C921 C925 1.376 . S
C922 C920 1.394 . S
C922 C923 1.369 1_556 S
C922 C926 1.531 . S
C923 C922 1.369 1_554 S
C923 C924 1.410 . S
C923 C931 1.503 1_455 S
C924 C923 1.410 . S
C924 C925 1.392 . S
C924 C927 1.511 . S
C925 C921 1.376 . S
C925 C924 1.392 . S
C925 H937 0.929 . S
C926 C922 1.531 . S
C926 H938 0.960 1_455 S
C926 H939 0.962 1_455 S
C926 H940 0.960 . S
C927 C924 1.511 . S
C927 H941 0.961 . S
C927 H942 0.961 . S
C927 H943 0.961 . S
C928 C929 1.370 . S
C928 C930 1.363 . S
C928 H944 0.931 . S
C929 C928 1.370 . S
C929 C933 1.408 . S
C930 C928 1.363 . S
C930 C931 1.370 . S
C930 C934 1.524 . S
C931 C923 1.503 1_655 S
C931 C930 1.370 . S
C931 C932 1.403 . S
C932 C931 1.403 . S
C932 C933 1.404 . S
C932 C935 1.539 1_654 S
C933 C929 1.408 . S
C933 C932 1.404 . S
C933 H945 0.930 . S
C934 C930 1.524 . S
C934 H946 0.956 . S
C934 H947 0.961 . S
C934 H948 0.961 . S
C935 C932 1.539 1_456 S
C935 H949 0.958 . S
C935 H950 0.961 1_556 S
C935 H951 0.960 1_556 S
H936 C920 0.931 . S
H937 C925 0.929 . S
H938 C926 0.960 1_655 S
H939 C926 0.962 1_655 S
H940 C926 0.960 . S
H941 C927 0.961 . S
H942 C927 0.961 . S
H943 C927 0.961 . S
H944 C928 0.931 . S
H945 C933 0.930 . S
H946 C934 0.956 . S
H947 C934 0.961 . S
H948 C934 0.961 . S
H949 C935 0.958 . S
H950 C935 0.961 1_554 S
H951 C935 0.960 1_554 S
C952 C953 1.391 . S
C952 C954 1.394 . S
C952 H968 0.931 . S
C953 C952 1.391 . S
C953 C957 1.376 . S
C954 C952 1.394 . S
C954 C955 1.369 . S
C954 C958 1.531 . S
C955 C954 1.369 . S
C955 C956 1.410 . S
C955 C963 1.503 1_455 S
C956 C955 1.410 . S
C956 C957 1.392 . S
C956 C959 1.511 1_455 S
C957 C953 1.376 . S
C957 C956 1.392 . S
C957 H969 0.929 . S
C958 C954 1.531 . S
C958 H970 0.960 . S
C958 H971 0.962 . S
C958 H972 0.960 . S
C959 C956 1.511 1_655 S
C959 H973 0.961 . S
C959 H974 0.961 . S
C959 H975 0.961 . S
C960 C961 1.370 . S
C960 C962 1.363 . S
C960 H976 0.931 . S
C961 C960 1.370 . S
C961 C965 1.408 . S
C962 C960 1.363 . S
C962 C963 1.370 . S
C962 C966 1.524 . S
C963 C955 1.503 1_655 S
C963 C962 1.370 . S
C963 C964 1.403 . S
C964 C963 1.403 . S
C964 C965 1.404 . S
C964 C967 1.539 . S
C965 C961 1.408 . S
C965 C964 1.404 . S
C965 H977 0.930 . S
C966 C962 1.524 . S
C966 H978 0.956 1_655 S
C966 H979 0.961 . S
C966 H980 0.961 . S
C967 C964 1.539 . S
C967 H981 0.958 . S
C967 H982 0.961 . S
C967 H983 0.960 . S
H968 C952 0.931 . S
H969 C957 0.929 . S
H970 C958 0.960 . S
H971 C958 0.962 . S
H972 C958 0.960 . S
H973 C959 0.961 . S
H974 C959 0.961 . S
H975 C959 0.961 . S
H976 C960 0.931 . S
H977 C965 0.930 . S
H978 C966 0.956 1_455 S
H979 C966 0.961 . S
H980 C966 0.961 . S
H981 C967 0.958 . S
H982 C967 0.961 . S
H983 C967 0.960 . S
C473 C347 1.501 . S
C481 C52 1.510 . S
C505 C288 1.502 . S
C513 C111 1.511 . S
C537 C465 1.500 . S
C545 C170 1.509 . S
C569 C406 1.517 . S
C577 C229 1.516 . S
C601 C3 1.486 . S
C609 C121 1.493 . S
C633 C62 1.505 . S
C641 C180 1.502 . S
C665 C92 1.510 . S
C673 C210 1.513 . S
C697 C33 1.510 . S
C705 C151 1.514 . S
C729 C239 1.507 . S
C737 C357 1.503 . S
C761 C416 1.499 . S
C769 C298 1.499 . S
C793 C446 1.509 . S
C801 C328 1.513 . S
C825 C269 1.508 . S
C833 C387 1.512 . S
C857 C64 1.502 . S
C865 C5 1.508 . S
C889 C123 1.502 . S
C897 C182 1.508 . S
C921 C241 1.505 . S
C929 C300 1.507 . S
C953 C359 1.505 . S
C961 C418 1.508 . S
