# Generated by pormake.
# Topology rob, (6)-cn, num edge types: 1
# Building blocks:
#     Node 0, Type 0, BuildingBlock: MIFKUJ_clean_sbu_0, # of connection points: 6
#     Node 1, Type 0, BuildingBlock: MIFKUJ_clean_sbu_0, # of connection points: 6
#     Node 2, Type 0, BuildingBlock: MIFKUJ_clean_sbu_0, # of connection points: 6
#     Node 3, Type 0, BuildingBlock: MIFKUJ_clean_sbu_0, # of connection points: 6
#     Edge 4, Type (0, 0), BuildingBlock: KIFKEQ_clean_linker_1, # of connection points: 2
#     Edge 5, Type (0, 0), BuildingBlock: KIFKEQ_clean_linker_1, # of connection points: 2
#     Edge 6, Type (0, 0), BuildingBlock: KIFKEQ_clean_linker_1, # of connection points: 2
#     Edge 7, Type (0, 0), BuildingBlock: KIFKEQ_clean_linker_1, # of connection points: 2
#     Edge 8, Type (0, 0), BuildingBlock: KIFKEQ_clean_linker_1, # of connection points: 2
#     Edge 9, Type (0, 0), BuildingBlock: KIFKEQ_clean_linker_1, # of connection points: 2
#     Edge 10, Type (0, 0), BuildingBlock: KIFKEQ_clean_linker_1, # of connection points: 2
#     Edge 11, Type (0, 0), BuildingBlock: KIFKEQ_clean_linker_1, # of connection points: 2
#     Edge 12, Type (0, 0), BuildingBlock: KIFKEQ_clean_linker_1, # of connection points: 2
#     Edge 13, Type (0, 0), BuildingBlock: KIFKEQ_clean_linker_1, # of connection points: 2
#     Edge 14, Type (0, 0), BuildingBlock: KIFKEQ_clean_linker_1, # of connection points: 2
#     Edge 15, Type (0, 0), BuildingBlock: KIFKEQ_clean_linker_1, # of connection points: 2
# Relax obj value: 0.071
# Max RMSD: 0.165
# Mean RMSD: 0.165
data_MOF--net-rob--node1-MIFKUJ_clean_sbu_0--edge1-KIFKEQ_clean_linker_1
_symmetry_space_group_name_H-M    P1
_symmetry_Int_Tables_number       1
_symmetry_cell_setting            triclinic
loop_
_symmetry_equiv_pos_as_xyz
'x, y, z'
_cell_length_a     16.4481
_cell_length_b     23.922415
_cell_length_c     30.854704
_cell_angle_alpha  90.213417
_cell_angle_beta   83.824019
_cell_angle_gamma 90.667134
loop_
_atom_site_label
_atom_site_type_symbol
_atom_site_fract_x
_atom_site_fract_y
_atom_site_fract_z
_atom_type_partial_charge
Zn0 Zn 0.20923 0.24347 0.92719 0.0
Zn1 Zn 0.29271 0.20626 0.03086 0.0
C2 C 0.34957 0.25688 0.86926 0.0
O3 O 0.33152 0.3085 0.88102 0.0
C4 C 0.17012 0.26938 0.0871 0.0
O5 O 0.12166 0.26067 0.0565 0.0
O6 O 0.14122 0.27662 0.88336 0.0
O7 O 0.14679 0.17834 0.95629 0.0
O8 O 0.2042 0.15398 0.01542 0.0
C9 C 0.06568 0.26659 0.88157 0.0
O10 O 0.02511 0.23671 0.91254 0.0
O11 O 0.30761 0.21715 0.88798 0.0
C12 C 0.4319 0.19085 0.07501 0.0
O13 O 0.44264 0.24329 0.06311 0.0
O14 O 0.37491 0.16267 0.0603 0.0
O15 O 0.34467 0.25547 0.98321 0.0
O16 O 0.24133 0.3051 0.9667 0.0
O17 O 0.24382 0.25346 0.08084 0.0
C18 C 0.15104 0.14644 0.98886 0.0
C19 C 0.30892 0.3021 0.98284 0.0
Zn20 Zn 0.65537 0.75987 0.99962 0.0
Zn21 Zn 0.734 0.71723 0.0927 0.0
C22 C 0.79444 0.77087 0.94149 0.0
O23 O 0.76759 0.8222 0.94685 0.0
C24 C 0.59094 0.76618 0.14754 0.0
O25 O 0.54432 0.75221 0.11716 0.0
O26 O 0.59335 0.78779 0.951 0.0
O27 O 0.58817 0.69661 0.02674 0.0
O28 O 0.66637 0.65455 0.07058 0.0
C29 C 0.58507 0.74856 0.92378 0.0
O30 O 0.6081 0.69804 0.9333 0.0
O31 O 0.75797 0.73198 0.96422 0.0
C32 C 0.87413 0.71557 0.13807 0.0
O33 O 0.87899 0.76657 0.12237 0.0
O34 O 0.81862 0.6828 0.12689 0.0
O35 O 0.79179 0.7735 0.05143 0.0
O36 O 0.68628 0.82325 0.03777 0.0
O37 O 0.66729 0.75748 0.14128 0.0
C38 C 0.60457 0.65461 0.04912 0.0
C39 C 0.7606 0.82077 0.0452 0.0
Zn40 Zn 0.25231 0.74472 0.58586 0.0
Zn41 Zn 0.17397 0.70037 0.49982 0.0
C42 C 0.12722 0.76148 0.65143 0.0
O43 O 0.15142 0.81223 0.63959 0.0
C44 C 0.3193 0.71281 0.4429 0.0
O45 O 0.3127 0.65808 0.44439 0.0
O46 O 0.32722 0.78144 0.62529 0.0
O47 O 0.31179 0.67745 0.55822 0.0
O48 O 0.21434 0.63237 0.52798 0.0
C49 C 0.40182 0.76928 0.62673 0.0
O50 O 0.43769 0.73553 0.5971 0.0
O51 O 0.1597 0.72013 0.63036 0.0
C52 C 0.09602 0.71823 0.42645 0.0
O53 O 0.11692 0.76859 0.43864 0.0
O54 O 0.11087 0.67686 0.45004 0.0
O55 O 0.10315 0.75388 0.53617 0.0
O56 O 0.20985 0.80506 0.54853 0.0
O57 O 0.26933 0.74195 0.46752 0.0
C58 C 0.28403 0.63296 0.5422 0.0
C59 C 0.13582 0.80162 0.54034 0.0
Zn60 Zn 0.7949 0.25911 0.5127 0.0
Zn61 Zn 0.72532 0.21139 0.4303 0.0
C62 C 0.66266 0.26531 0.57469 0.0
O63 O 0.68695 0.31735 0.56782 0.0
C64 C 0.87605 0.22063 0.37716 0.0
O65 O 0.86845 0.166 0.38011 0.0
O66 O 0.86152 0.28896 0.55957 0.0
O67 O 0.86358 0.19806 0.48249 0.0
O68 O 0.75784 0.14802 0.46731 0.0
C69 C 0.87454 0.24929 0.5853 0.0
O70 O 0.85301 0.19826 0.57505 0.0
O71 O 0.69799 0.22699 0.55121 0.0
C72 C 0.60056 0.1751 0.37264 0.0
O73 O 0.54428 0.19192 0.4032 0.0
O74 O 0.67538 0.17821 0.37916 0.0
O75 O 0.64964 0.26831 0.45969 0.0
O76 O 0.75064 0.32166 0.47795 0.0
O77 O 0.8239 0.25102 0.39931 0.0
C78 C 0.82972 0.15067 0.47854 0.0
C79 C 0.6765 0.31605 0.47004 0.0
H80 H 0.47027 0.64017 1.00541 0.0
H81 H 0.62206 0.55381 0.08907 0.0
H82 H 0.39389 0.55446 0.99615 0.0
H83 H 0.54381 0.46787 0.08043 0.0
H84 H 0.46827 0.31766 0.99665 0.0
H85 H 0.53307 0.40271 0.02035 0.0
H86 H 0.29982 0.48585 0.0314 0.0
H87 H 0.23504 0.40061 1.00715 0.0
C88 C 0.48663 0.6031 0.02241 0.0
C89 C 0.55297 0.60375 0.04762 0.0
C90 C 0.44227 0.55397 0.01734 0.0
C91 C 0.46298 0.50431 0.03742 0.0
C92 C 0.52716 0.50537 0.06408 0.0
C93 C 0.57172 0.55464 0.06916 0.0
C94 C 0.43055 0.35377 1.00491 0.0
C95 C 0.34665 0.35256 1.00003 0.0
C96 C 0.46765 0.40249 0.01862 0.0
C97 C 0.4216 0.45104 0.02772 0.0
C98 C 0.3371 0.44929 0.02409 0.0
C99 C 0.30002 0.40054 0.01025 0.0
H100 H 0.26337 0.54252 0.48999 0.0
H101 H 0.42726 0.61293 0.57669 0.0
H102 H 0.35843 0.46695 0.47163 0.0
H103 H 0.52112 0.53593 0.55969 0.0
H104 H 0.71202 0.42642 0.48397 0.0
H105 H 0.61577 0.50183 0.50242 0.0
H106 H 0.41405 0.38516 0.49797 0.0
H107 H 0.50993 0.31068 0.47782 0.0
C108 C 0.31904 0.54132 0.50578 0.0
C109 C 0.33776 0.58386 0.53475 0.0
C110 C 0.37363 0.49781 0.49531 0.0
C111 C 0.44787 0.49532 0.51398 0.0
C112 C 0.46542 0.53707 0.54396 0.0
C113 C 0.4112 0.58097 0.55405 0.0
C114 C 0.64708 0.41709 0.48659 0.0
C115 C 0.61869 0.36266 0.47916 0.0
C116 C 0.59182 0.46018 0.4976 0.0
C117 C 0.50692 0.44967 0.50189 0.0
C118 C 0.4788 0.39515 0.49429 0.0
C119 C 0.53393 0.3523 0.48282 0.0
H120 H 0.14156 0.07069 0.05513 0.0
H121 H 0.0244 0.11732 0.94177 0.0
H122 H 0.04373 -0.00555 0.06937 0.0
H123 H 0.92676 0.04007 0.956 0.0
H124 H 0.92546 0.82526 0.0475 0.0
H125 H 0.0167 0.90501 0.03362 0.0
H126 H 0.81176 0.00831 0.01124 0.0
H127 H 0.71939 0.92784 0.02503 0.0
C128 C 0.09514 0.06466 0.03311 0.0
C129 C 0.09124 0.1 0.99711 0.0
C130 C 0.03919 0.02081 0.04127 0.0
C131 C 0.97793 0.01119 0.01367 0.0
C132 C 0.97302 0.04685 0.978 0.0
C133 C 0.02929 0.0908 0.96971 0.0
C134 C 0.89936 0.86496 0.04002 0.0
C135 C 0.81491 0.87025 0.03776 0.0
C136 C 0.95182 0.91072 0.0321 0.0
C137 C 0.92127 0.96291 0.02161 0.0
C138 C 0.83695 0.96839 0.01901 0.0
C139 C 0.78412 0.92247 0.02716 0.0
H140 H 0.76482 0.04743 0.49871 0.0
H141 H -0.00584 0.13815 0.47832 0.0
H142 H 0.83718 0.96363 0.51613 0.0
H143 H 0.0673 0.05379 0.49335 0.0
H144 H 0.1718 0.90917 0.56223 0.0
H145 H 0.09627 -0.00679 0.54877 0.0
H146 H 0.92187 0.89302 0.48605 0.0
H147 H -0.00534 0.80911 0.50187 0.0
C148 C 0.83089 0.04917 0.49738 0.0
C149 C 0.87387 0.09925 0.48718 0.0
C150 C 0.87256 0.00106 0.50716 0.0
C151 C 0.95836 0.00167 0.50618 0.0
C152 C 0.00121 0.05184 0.49538 0.0
C153 C 0.95938 0.10017 0.48637 0.0
C154 C 0.11707 0.90522 0.54576 0.0
C155 C 0.08937 0.85258 0.53298 0.0
C156 C 0.07401 0.95344 0.53771 0.0
C157 C 0.00298 0.9502 0.51603 0.0
C158 C 0.97534 0.8973 0.50346 0.0
C159 C 0.01753 0.84907 0.51224 0.0
H160 H 0.70512 0.15193 0.30006 0.0
H161 H 0.44793 0.1657 0.345 0.0
H162 H 0.67192 0.14141 0.22538 0.0
H163 H 0.41504 0.15509 0.27004 0.0
H164 H 0.37649 0.10811 0.13211 0.0
H165 H 0.42159 0.09085 0.2038 0.0
H166 H 0.61619 0.21255 0.17677 0.0
H167 H 0.57097 0.23011 0.10543 0.0
C168 C 0.64136 0.15179 0.29418 0.0
C169 C 0.57913 0.16038 0.32852 0.0
C170 C 0.62252 0.14586 0.25132 0.0
C171 C 0.54104 0.14781 0.24185 0.0
C172 C 0.47842 0.15298 0.27641 0.0
C173 C 0.49729 0.1594 0.31933 0.0
C174 C 0.43032 0.13 0.14098 0.0
C175 C 0.46999 0.17076 0.11325 0.0
C176 C 0.4556 0.12044 0.18216 0.0
C177 C 0.52185 0.15072 0.19601 0.0
C178 C 0.56519 0.18833 0.16693 0.0
C179 C 0.53922 0.19849 0.12609 0.0
H180 H 0.4285 0.77739 0.17736 0.0
H181 H 0.67098 0.78628 0.21919 0.0
H182 H 0.36948 0.78065 0.2535 0.0
H183 H 0.61168 0.78897 0.29493 0.0
H184 H 0.46431 0.67556 0.40422 0.0
H185 H 0.53489 0.70597 0.33454 0.0
H186 H 0.35764 0.83639 0.32725 0.0
H187 H 0.28775 0.80658 0.39774 0.0
C188 C 0.46914 0.78147 0.20261 0.0
C189 C 0.55443 0.7805 0.19217 0.0
C190 C 0.4353 0.78359 0.2462 0.0
C191 C 0.4862 0.78439 0.28001 0.0
C192 C 0.5712 0.78779 0.26945 0.0
C193 C 0.60498 0.78626 0.226 0.0
C194 C 0.44197 0.71178 0.38836 0.0
C195 C 0.3709 0.73879 0.40629 0.0
C196 C 0.48235 0.72928 0.34857 0.0
C197 C 0.45144 0.77342 0.3255 0.0
C198 C 0.38254 0.80223 0.34441 0.0
C199 C 0.34308 0.78546 0.38482 0.0
H200 H 0.58043 0.67396 0.85774 0.0
H201 H 0.53384 0.84739 0.8904 0.0
H202 H 0.54634 0.69026 0.78449 0.0
H203 H 0.49926 0.86373 0.816 0.0
H204 H 0.33843 0.82962 0.69785 0.0
H205 H 0.38885 0.83281 0.76932 0.0
H206 H 0.60319 0.7417 0.718 0.0
H207 H 0.55262 0.73776 0.64664 0.0
C208 C 0.5628 0.7157 0.84934 0.0
C209 C 0.55974 0.75939 0.88002 0.0
C210 C 0.54412 0.72514 0.80707 0.0
C211 C 0.52143 0.77846 0.79427 0.0
C212 C 0.5169 0.82223 0.825 0.0
C213 C 0.53646 0.81285 0.86751 0.0
C214 C 0.39726 0.81136 0.7015 0.0
C215 C 0.44079 0.78246 0.66671 0.0
C216 C 0.42621 0.81343 0.74247 0.0
C217 C 0.49911 0.78658 0.74941 0.0
C218 C 0.54591 0.7618 0.71375 0.0
C219 C 0.51712 0.75981 0.6728 0.0
H220 H 0.54878 0.33379 0.61457 0.0
H221 H 0.65155 0.16955 0.62414 0.0
H222 H 0.47703 0.32369 0.68724 0.0
H223 H 0.57931 0.1595 0.69779 0.0
H224 H 0.36179 0.16368 0.81647 0.0
H225 H 0.43511 0.15763 0.74299 0.0
H226 H 0.537 0.3226 0.75897 0.0
H227 H 0.46398 0.32893 0.83157 0.0
C228 C 0.55486 0.29507 0.632 0.0
C229 C 0.60626 0.25269 0.61395 0.0
C230 C 0.5143 0.28946 0.67374 0.0
C231 C 0.52441 0.24144 0.69855 0.0
C232 C 0.57094 0.19709 0.67939 0.0
C233 C 0.61178 0.2027 0.63726 0.0
C234 C 0.40141 0.19804 0.80459 0.0
C235 C 0.40621 0.24718 0.82948 0.0
C236 C 0.4431 0.19459 0.76254 0.0
C237 C 0.4899 0.24024 0.74496 0.0
C238 C 0.49951 0.28738 0.77128 0.0
C239 C 0.45809 0.29086 0.81298 0.0
H240 H 0.83856 0.6355 0.20093 0.0
H241 H 0.0132 0.76588 0.1592 0.0
H242 H 0.89688 0.62941 0.27044 0.0
H243 H 0.07232 0.75892 0.22794 0.0
H244 H 0.05622 0.79975 0.37201 0.0
H245 H 0.01194 0.78978 0.30003 0.0
H246 H 0.01834 0.61 0.31133 0.0
H247 H 0.06258 0.61997 0.38451 0.0
C248 C 0.89097 0.66159 0.20604 0.0
C249 C 0.92056 0.70182 0.17495 0.0
C250 C 0.9243 0.6581 0.24585 0.0
C251 C -0.01215 0.69462 0.255 0.0
C252 C 0.02191 0.73126 0.22226 0.0
C253 C -0.01159 0.73499 0.18277 0.0
C254 C 0.04817 0.75796 0.3594 0.0
C255 C 0.06336 0.71064 0.38396 0.0
C256 C 0.02344 0.75227 0.31787 0.0
C257 C 0.01323 0.69911 0.29962 0.0
C258 C 0.02605 0.65151 0.32453 0.0
C259 C 0.05122 0.65723 0.36636 0.0
H260 H 0.01761 0.17561 0.3401 0.0
H261 H 0.86278 0.31931 0.33404 0.0
H262 H 0.09747 0.2049 0.27277 0.0
H263 H 0.94253 0.3484 0.26604 0.0
H264 H 0.01188 0.29645 0.11576 0.0
H265 H 0.95075 0.30028 0.19136 0.0
H266 H 0.18897 0.2801 0.23545 0.0
H267 H 0.25041 0.27643 0.16006 0.0
C268 C 0.00196 0.21422 0.3249 0.0
C269 C 0.93381 0.24498 0.34215 0.0
C270 C 0.0479 0.23117 0.28644 0.0
C271 C 0.0259 0.2788 0.26404 0.0
C272 C 0.96052 0.31139 0.28257 0.0
C273 C 0.91532 0.29492 0.32158 0.0
C274 C 0.05156 0.29439 0.14152 0.0
C275 C 0.13576 0.28502 0.13182 0.0
C276 C 0.01655 0.29685 0.18487 0.0
C277 C 0.06506 0.2897 0.21924 0.0
C278 C 0.15007 0.28502 0.20956 0.0
C279 C 0.18515 0.28304 0.16631 0.0
H280 H 0.88005 0.17391 0.65011 0.0
H281 H 0.93162 0.34768 0.61895 0.0
H282 H 0.91839 0.18903 0.72281 0.0
H283 H 0.97114 0.36268 0.69285 0.0
H284 H 0.13532 0.32314 0.80957 0.0
H285 H 0.08463 0.32746 0.73811 0.0
H286 H 0.86262 0.24243 0.79 0.0
H287 H 0.91302 0.23769 0.86133 0.0
C288 C 0.89987 0.21546 0.65867 0.0
C289 C 0.90282 0.25963 0.6286 0.0
C290 C 0.92106 0.22419 0.70063 0.0
C291 C 0.94649 0.2772 0.71372 0.0
C292 C 0.95131 0.32142 0.68357 0.0
C293 C 0.9289 0.31282 0.64138 0.0
C294 C 0.07491 0.30641 0.80601 0.0
C295 C 0.02875 0.27918 0.84102 0.0
C296 C 0.04585 0.30917 0.76509 0.0
C297 C 0.97034 0.28453 0.75841 0.0
C298 C 0.9217 0.261 0.79414 0.0
C299 C 0.95048 0.25847 0.83505 0.0
H300 H 0.10439 0.66811 0.7035 0.0
H301 H 0.02648 0.83869 0.69165 0.0
H302 H 0.02981 0.66331 0.7768 0.0
H303 H 0.95175 0.83364 0.76374 0.0
H304 H 0.91515 0.83989 0.9071 0.0
H305 H -0.00366 0.83072 0.83681 0.0
H306 H 0.88979 0.66728 0.8196 0.0
H307 H 0.80932 0.67613 0.89101 0.0
C308 C 0.0701 0.70409 0.71616 0.0
C309 C 0.07203 0.75402 0.6921 0.0
C310 C 0.02769 0.70139 0.7581 0.0
C311 C -0.01325 0.74858 0.77644 0.0
C312 C -0.01515 0.79713 0.75111 0.0
C313 C 0.02714 0.79988 0.70959 0.0
C314 C 0.9104 0.80148 0.88876 0.0
C315 C 0.85563 0.75893 0.90424 0.0
C316 C 0.9563 0.79639 0.84833 0.0
C317 C 0.94772 0.74892 0.82215 0.0
C318 C 0.89743 0.70442 0.83901 0.0
C319 C 0.8517 0.70936 0.87989 0.0
loop_
_geom_bond_atom_site_label_1
_geom_bond_atom_site_label_2
_geom_bond_distance
_geom_bond_site_symmetry_2
_ccdc_geom_bond_type
Zn0 O6 1.969 . S
Zn0 O7 1.965 . S
Zn0 O11 2.024 . S
Zn0 O16 1.969 . S
Zn1 O8 1.969 . S
Zn1 O14 1.969 . S
Zn1 O15 1.965 . S
Zn1 O17 2.024 . S
C2 O3 1.229 . S
C2 O11 1.058 . S
O3 C2 1.229 . S
C4 O5 1.229 . S
C4 O17 1.058 . S
O5 C4 1.229 . S
O6 Zn0 1.969 . S
O6 C9 1.267 . S
O7 Zn0 1.965 . S
O7 C18 1.260 1_556 S
O8 Zn1 1.969 . S
O8 C18 1.258 . S
C9 O6 1.267 . S
C9 O10 1.228 . S
O10 C9 1.228 . S
O11 Zn0 2.024 . S
O11 C2 1.058 . S
C12 O13 1.228 . S
C12 O14 1.267 . S
O13 C12 1.228 . S
O14 Zn1 1.969 . S
O14 C12 1.267 . S
O15 Zn1 1.965 . S
O15 C19 1.260 1_554 S
O16 Zn0 1.969 . S
O16 C19 1.258 . S
O17 Zn1 2.024 . S
O17 C4 1.058 . S
C18 O7 1.260 1_554 S
C18 O8 1.258 . S
C19 O15 1.260 1_556 S
C19 O16 1.258 . S
Zn20 O26 1.969 . S
Zn20 O27 1.965 . S
Zn20 O31 2.024 . S
Zn20 O36 1.969 . S
Zn21 O28 1.969 . S
Zn21 O34 1.969 . S
Zn21 O35 1.965 . S
Zn21 O37 2.024 . S
C22 O23 1.229 . S
C22 O31 1.058 . S
O23 C22 1.229 . S
C24 O25 1.229 . S
C24 O37 1.058 . S
O25 C24 1.229 . S
O26 Zn20 1.969 . S
O26 C29 1.267 . S
O27 Zn20 1.965 . S
O27 C38 1.260 1_556 S
O28 Zn21 1.969 . S
O28 C38 1.258 . S
C29 O26 1.267 . S
C29 O30 1.228 . S
O30 C29 1.228 . S
O31 Zn20 2.024 . S
O31 C22 1.058 . S
C32 O33 1.228 . S
C32 O34 1.267 . S
O33 C32 1.228 . S
O34 Zn21 1.969 . S
O34 C32 1.267 . S
O35 Zn21 1.965 . S
O35 C39 1.260 1_554 S
O36 Zn20 1.969 . S
O36 C39 1.258 . S
O37 Zn21 2.024 . S
O37 C24 1.058 . S
C38 O27 1.260 1_554 S
C38 O28 1.258 . S
C39 O35 1.260 1_556 S
C39 O36 1.258 . S
Zn40 O46 1.969 . S
Zn40 O47 1.965 . S
Zn40 O51 2.024 . S
Zn40 O56 1.969 . S
Zn41 O48 1.969 . S
Zn41 O54 1.969 . S
Zn41 O55 1.965 . S
Zn41 O57 2.024 . S
C42 O43 1.229 . S
C42 O51 1.058 . S
O43 C42 1.229 . S
C44 O45 1.229 . S
C44 O57 1.058 . S
O45 C44 1.229 . S
O46 Zn40 1.969 . S
O46 C49 1.267 . S
O47 Zn40 1.965 . S
O47 C58 1.260 . S
O48 Zn41 1.969 . S
O48 C58 1.258 . S
C49 O46 1.267 . S
C49 O50 1.228 . S
O50 C49 1.228 . S
O51 Zn40 2.024 . S
O51 C42 1.058 . S
C52 O53 1.228 . S
C52 O54 1.267 . S
O53 C52 1.228 . S
O54 Zn41 1.969 . S
O54 C52 1.267 . S
O55 Zn41 1.965 . S
O55 C59 1.260 . S
O56 Zn40 1.969 . S
O56 C59 1.258 . S
O57 Zn41 2.024 . S
O57 C44 1.058 . S
C58 O47 1.260 . S
C58 O48 1.258 . S
C59 O55 1.260 . S
C59 O56 1.258 . S
Zn60 O66 1.969 . S
Zn60 O67 1.965 . S
Zn60 O71 2.024 . S
Zn60 O76 1.969 . S
Zn61 O68 1.969 . S
Zn61 O74 1.969 . S
Zn61 O75 1.965 . S
Zn61 O77 2.024 . S
C62 O63 1.229 . S
C62 O71 1.058 . S
O63 C62 1.229 . S
C64 O65 1.229 . S
C64 O77 1.058 . S
O65 C64 1.229 . S
O66 Zn60 1.969 . S
O66 C69 1.267 . S
O67 Zn60 1.965 . S
O67 C78 1.260 . S
O68 Zn61 1.969 . S
O68 C78 1.258 . S
C69 O66 1.267 . S
C69 O70 1.228 . S
O70 C69 1.228 . S
O71 Zn60 2.024 . S
O71 C62 1.058 . S
C72 O73 1.228 . S
C72 O74 1.267 . S
O73 C72 1.228 . S
O74 Zn61 1.969 . S
O74 C72 1.267 . S
O75 Zn61 1.965 . S
O75 C79 1.260 . S
O76 Zn60 1.969 . S
O76 C79 1.258 . S
O77 Zn61 2.024 . S
O77 C64 1.058 . S
C78 O67 1.260 . S
C78 O68 1.258 . S
C79 O75 1.260 . S
C79 O76 1.258 . S
H80 C88 0.950 . S
H81 C93 0.950 . S
H82 C90 0.950 . S
H83 C92 0.950 . S
H84 C94 0.950 . S
H85 C96 0.950 . S
H86 C98 0.950 . S
H87 C99 0.950 . S
C88 H80 0.950 . S
C88 C89 1.386 . S
C88 C90 1.391 . S
C89 C88 1.386 . S
C89 C93 1.393 1_556 S
C90 H82 0.950 . S
C90 C88 1.391 . S
C90 C91 1.381 1_556 S
C91 C90 1.381 1_554 S
C91 C92 1.419 . S
C91 C97 1.490 . S
C92 H83 0.950 . S
C92 C91 1.419 . S
C92 C93 1.391 . S
C93 H81 0.950 . S
C93 C89 1.393 1_554 S
C93 C92 1.391 . S
C94 H84 0.950 . S
C94 C95 1.386 . S
C94 C96 1.391 . S
C95 C94 1.386 . S
C95 C99 1.393 1_554 S
C96 H85 0.950 . S
C96 C94 1.391 . S
C96 C97 1.400 . S
C97 C91 1.490 . S
C97 C96 1.400 . S
C97 C98 1.398 1_554 S
C98 H86 0.950 . S
C98 C97 1.398 1_556 S
C98 C99 1.391 . S
C99 H87 0.950 . S
C99 C95 1.393 1_556 S
C99 C98 1.391 . S
H100 C108 0.950 . S
H101 C113 0.950 . S
H102 C110 0.950 . S
H103 C112 0.950 . S
H104 C114 0.950 . S
H105 C116 0.950 . S
H106 C118 0.950 . S
H107 C119 0.950 . S
C108 H100 0.950 . S
C108 C109 1.386 . S
C108 C110 1.391 . S
C109 C108 1.386 . S
C109 C113 1.393 . S
C110 H102 0.950 . S
C110 C108 1.391 . S
C110 C111 1.400 . S
C111 C110 1.400 . S
C111 C112 1.398 . S
C111 C117 1.491 . S
C112 H103 0.950 . S
C112 C111 1.398 . S
C112 C113 1.391 . S
C113 H101 0.950 . S
C113 C109 1.393 . S
C113 C112 1.391 . S
C114 H104 0.950 . S
C114 C115 1.386 . S
C114 C116 1.391 . S
C115 C114 1.386 . S
C115 C119 1.393 . S
C116 H105 0.950 . S
C116 C114 1.391 . S
C116 C117 1.400 . S
C117 C111 1.491 . S
C117 C116 1.400 . S
C117 C118 1.398 . S
C118 H106 0.950 . S
C118 C117 1.398 . S
C118 C119 1.391 . S
C119 H107 0.950 . S
C119 C115 1.393 . S
C119 C118 1.391 . S
H120 C128 0.950 . S
H121 C133 0.950 . S
H122 C130 0.950 . S
H123 C132 0.950 . S
H124 C134 0.950 . S
H125 C136 0.950 . S
H126 C138 0.950 . S
H127 C139 0.950 . S
C128 H120 0.950 . S
C128 C129 1.386 1_554 S
C128 C130 1.391 . S
C129 C128 1.386 1_556 S
C129 C133 1.393 . S
C130 H122 0.950 . S
C130 C128 1.391 . S
C130 C131 1.419 . S
C131 C130 1.419 . S
C131 C132 1.381 1_554 S
C131 C137 1.490 1_445 S
C132 H123 0.950 . S
C132 C131 1.381 1_556 S
C132 C133 1.391 . S
C133 H121 0.950 . S
C133 C129 1.393 . S
C133 C132 1.391 . S
C134 H124 0.950 . S
C134 C135 1.386 1_556 S
C134 C136 1.391 . S
C135 C134 1.386 1_554 S
C135 C139 1.393 . S
C136 H125 0.950 . S
C136 C134 1.391 . S
C136 C137 1.400 1_556 S
C137 C131 1.490 1_665 S
C137 C136 1.400 1_554 S
C137 C138 1.398 . S
C138 H126 0.950 . S
C138 C137 1.398 . S
C138 C139 1.391 . S
C139 H127 0.950 . S
C139 C135 1.393 . S
C139 C138 1.391 . S
H140 C148 0.950 . S
H141 C153 0.950 . S
H142 C150 0.950 1_565 S
H143 C152 0.950 1_455 S
H144 C154 0.950 . S
H145 C156 0.950 1_545 S
H146 C158 0.950 1_655 S
H147 C159 0.950 . S
C148 H140 0.950 . S
C148 C149 1.386 . S
C148 C150 1.391 . S
C149 C148 1.386 . S
C149 C153 1.393 . S
C150 H142 0.950 1_545 S
C150 C148 1.391 . S
C150 C151 1.400 . S
C151 C150 1.400 . S
C151 C152 1.398 . S
C151 C157 1.491 1_645 S
C152 H143 0.950 1_655 S
C152 C151 1.398 . S
C152 C153 1.391 . S
C153 H141 0.950 . S
C153 C149 1.393 . S
C153 C152 1.391 . S
C154 H144 0.950 . S
C154 C155 1.386 . S
C154 C156 1.391 . S
C155 C154 1.386 . S
C155 C159 1.393 . S
C156 H145 0.950 1_565 S
C156 C154 1.391 . S
C156 C157 1.400 . S
C157 C151 1.491 1_465 S
C157 C156 1.400 . S
C157 C158 1.398 . S
C158 H146 0.950 1_455 S
C158 C157 1.398 . S
C158 C159 1.391 . S
C159 H147 0.950 . S
C159 C155 1.393 . S
C159 C158 1.391 . S
H160 C168 0.950 . S
H161 C173 0.950 . S
H162 C170 0.950 . S
H163 C172 0.950 . S
H164 C174 0.950 . S
H165 C176 0.950 . S
H166 C178 0.950 . S
H167 C179 0.950 . S
C168 H160 0.950 . S
C168 C169 1.386 . S
C168 C170 1.391 . S
C169 C168 1.386 . S
C169 C173 1.393 . S
C170 H162 0.950 . S
C170 C168 1.391 . S
C170 C171 1.400 . S
C171 C170 1.400 . S
C171 C172 1.398 . S
C171 C177 1.491 . S
C172 H163 0.950 . S
C172 C171 1.398 . S
C172 C173 1.391 . S
C173 H161 0.950 . S
C173 C169 1.393 . S
C173 C172 1.391 . S
C174 H164 0.950 . S
C174 C175 1.386 . S
C174 C176 1.391 . S
C175 C174 1.386 . S
C175 C179 1.393 . S
C176 H165 0.950 . S
C176 C174 1.391 . S
C176 C177 1.400 . S
C177 C171 1.491 . S
C177 C176 1.400 . S
C177 C178 1.398 . S
C178 H166 0.950 . S
C178 C177 1.398 . S
C178 C179 1.391 . S
C179 H167 0.950 . S
C179 C175 1.393 . S
C179 C178 1.391 . S
H180 C188 0.950 . S
H181 C193 0.950 . S
H182 C190 0.950 . S
H183 C192 0.950 . S
H184 C194 0.950 . S
H185 C196 0.950 . S
H186 C198 0.950 . S
H187 C199 0.950 . S
C188 H180 0.950 . S
C188 C189 1.386 . S
C188 C190 1.391 . S
C189 C188 1.386 . S
C189 C193 1.393 . S
C190 H182 0.950 . S
C190 C188 1.391 . S
C190 C191 1.400 . S
C191 C190 1.400 . S
C191 C192 1.398 . S
C191 C197 1.491 . S
C192 H183 0.950 . S
C192 C191 1.398 . S
C192 C193 1.391 . S
C193 H181 0.950 . S
C193 C189 1.393 . S
C193 C192 1.391 . S
C194 H184 0.950 . S
C194 C195 1.386 . S
C194 C196 1.391 . S
C195 C194 1.386 . S
C195 C199 1.393 . S
C196 H185 0.950 . S
C196 C194 1.391 . S
C196 C197 1.400 . S
C197 C191 1.491 . S
C197 C196 1.400 . S
C197 C198 1.398 . S
C198 H186 0.950 . S
C198 C197 1.398 . S
C198 C199 1.391 . S
C199 H187 0.950 . S
C199 C195 1.393 . S
C199 C198 1.391 . S
H200 C208 0.950 . S
H201 C213 0.950 . S
H202 C210 0.950 . S
H203 C212 0.950 . S
H204 C214 0.950 . S
H205 C216 0.950 . S
H206 C218 0.950 . S
H207 C219 0.950 . S
C208 H200 0.950 . S
C208 C209 1.386 . S
C208 C210 1.391 . S
C209 C208 1.386 . S
C209 C213 1.393 . S
C210 H202 0.950 . S
C210 C208 1.391 . S
C210 C211 1.400 . S
C211 C210 1.400 . S
C211 C212 1.398 . S
C211 C217 1.491 . S
C212 H203 0.950 . S
C212 C211 1.398 . S
C212 C213 1.391 . S
C213 H201 0.950 . S
C213 C209 1.393 . S
C213 C212 1.391 . S
C214 H204 0.950 . S
C214 C215 1.386 . S
C214 C216 1.391 . S
C215 C214 1.386 . S
C215 C219 1.393 . S
C216 H205 0.950 . S
C216 C214 1.391 . S
C216 C217 1.400 . S
C217 C211 1.491 . S
C217 C216 1.400 . S
C217 C218 1.398 . S
C218 H206 0.950 . S
C218 C217 1.398 . S
C218 C219 1.391 . S
C219 H207 0.950 . S
C219 C215 1.393 . S
C219 C218 1.391 . S
H220 C228 0.950 . S
H221 C233 0.950 . S
H222 C230 0.950 . S
H223 C232 0.950 . S
H224 C234 0.950 . S
H225 C236 0.950 . S
H226 C238 0.950 . S
H227 C239 0.950 . S
C228 H220 0.950 . S
C228 C229 1.386 . S
C228 C230 1.391 . S
C229 C228 1.386 . S
C229 C233 1.393 . S
C230 H222 0.950 . S
C230 C228 1.391 . S
C230 C231 1.400 . S
C231 C230 1.400 . S
C231 C232 1.398 . S
C231 C237 1.491 . S
C232 H223 0.950 . S
C232 C231 1.398 . S
C232 C233 1.391 . S
C233 H221 0.950 . S
C233 C229 1.393 . S
C233 C232 1.391 . S
C234 H224 0.950 . S
C234 C235 1.386 . S
C234 C236 1.391 . S
C235 C234 1.386 . S
C235 C239 1.393 . S
C236 H225 0.950 . S
C236 C234 1.391 . S
C236 C237 1.400 . S
C237 C231 1.491 . S
C237 C236 1.400 . S
C237 C238 1.398 . S
C238 H226 0.950 . S
C238 C237 1.398 . S
C238 C239 1.391 . S
C239 H227 0.950 . S
C239 C235 1.393 . S
C239 C238 1.391 . S
H240 C248 0.950 . S
H241 C253 0.950 . S
H242 C250 0.950 . S
H243 C252 0.950 . S
H244 C254 0.950 . S
H245 C256 0.950 . S
H246 C258 0.950 . S
H247 C259 0.950 . S
C248 H240 0.950 . S
C248 C249 1.386 . S
C248 C250 1.391 . S
C249 C248 1.386 . S
C249 C253 1.393 1_655 S
C250 H242 0.950 . S
C250 C248 1.391 . S
C250 C251 1.400 . S
C251 C250 1.400 . S
C251 C252 1.398 1_655 S
C251 C257 1.491 1_655 S
C252 H243 0.950 . S
C252 C251 1.398 1_455 S
C252 C253 1.391 . S
C253 H241 0.950 . S
C253 C249 1.393 1_455 S
C253 C252 1.391 . S
C254 H244 0.950 . S
C254 C255 1.386 . S
C254 C256 1.391 . S
C255 C254 1.386 . S
C255 C259 1.393 1_455 S
C256 H245 0.950 . S
C256 C254 1.391 . S
C256 C257 1.400 . S
C257 C251 1.491 1_455 S
C257 C256 1.400 . S
C257 C258 1.398 1_455 S
C258 H246 0.950 . S
C258 C257 1.398 1_655 S
C258 C259 1.391 . S
C259 H247 0.950 . S
C259 C255 1.393 1_655 S
C259 C258 1.391 . S
H260 C268 0.950 1_455 S
H261 C273 0.950 . S
H262 C270 0.950 . S
H263 C272 0.950 . S
H264 C274 0.950 1_655 S
H265 C276 0.950 . S
H266 C278 0.950 . S
H267 C279 0.950 . S
C268 H260 0.950 1_655 S
C268 C269 1.386 . S
C268 C270 1.391 1_655 S
C269 C268 1.386 . S
C269 C273 1.393 . S
C270 H262 0.950 . S
C270 C268 1.391 1_455 S
C270 C271 1.400 1_455 S
C271 C270 1.400 1_655 S
C271 C272 1.398 . S
C271 C277 1.491 1_655 S
C272 H263 0.950 . S
C272 C271 1.398 . S
C272 C273 1.391 . S
C273 H261 0.950 . S
C273 C269 1.393 . S
C273 C272 1.391 . S
C274 H264 0.950 1_455 S
C274 C275 1.386 . S
C274 C276 1.391 1_455 S
C275 C274 1.386 . S
C275 C279 1.393 . S
C276 H265 0.950 . S
C276 C274 1.391 1_655 S
C276 C277 1.400 1_655 S
C277 C271 1.491 1_455 S
C277 C276 1.400 1_455 S
C277 C278 1.398 . S
C278 H266 0.950 . S
C278 C277 1.398 . S
C278 C279 1.391 . S
C279 H267 0.950 . S
C279 C275 1.393 . S
C279 C278 1.391 . S
H280 C288 0.950 . S
H281 C293 0.950 1_455 S
H282 C290 0.950 . S
H283 C292 0.950 . S
H284 C294 0.950 . S
H285 C296 0.950 . S
H286 C298 0.950 . S
H287 C299 0.950 1_655 S
C288 H280 0.950 . S
C288 C289 1.386 . S
C288 C290 1.391 . S
C289 C288 1.386 . S
C289 C293 1.393 . S
C290 H282 0.950 . S
C290 C288 1.391 . S
C290 C291 1.400 . S
C291 C290 1.400 . S
C291 C292 1.398 1_655 S
C291 C297 1.491 1_655 S
C292 H283 0.950 . S
C292 C291 1.398 1_455 S
C292 C293 1.391 1_455 S
C293 H281 0.950 1_655 S
C293 C289 1.393 . S
C293 C292 1.391 1_655 S
C294 H284 0.950 . S
C294 C295 1.386 . S
C294 C296 1.391 . S
C295 C294 1.386 . S
C295 C299 1.393 . S
C296 H285 0.950 . S
C296 C294 1.391 . S
C296 C297 1.400 . S
C297 C291 1.491 1_455 S
C297 C296 1.400 . S
C297 C298 1.398 1_455 S
C298 H286 0.950 . S
C298 C297 1.398 1_655 S
C298 C299 1.391 1_655 S
C299 H287 0.950 1_455 S
C299 C295 1.393 . S
C299 C298 1.391 1_455 S
H300 C308 0.950 . S
H301 C313 0.950 . S
H302 C310 0.950 1_655 S
H303 C312 0.950 . S
H304 C314 0.950 . S
H305 C316 0.950 1_455 S
H306 C318 0.950 . S
H307 C319 0.950 . S
C308 H300 0.950 . S
C308 C309 1.386 . S
C308 C310 1.391 . S
C309 C308 1.386 . S
C309 C313 1.393 . S
C310 H302 0.950 1_455 S
C310 C308 1.391 . S
C310 C311 1.400 . S
C311 C310 1.400 . S
C311 C312 1.398 . S
C311 C317 1.491 1_455 S
C312 H303 0.950 . S
C312 C311 1.398 . S
C312 C313 1.391 . S
C313 H301 0.950 . S
C313 C309 1.393 . S
C313 C312 1.391 . S
C314 H304 0.950 . S
C314 C315 1.386 . S
C314 C316 1.391 . S
C315 C314 1.386 . S
C315 C319 1.393 . S
C316 H305 0.950 1_655 S
C316 C314 1.391 . S
C316 C317 1.400 . S
C317 C311 1.491 1_655 S
C317 C316 1.400 . S
C317 C318 1.398 . S
C318 H306 0.950 . S
C318 C317 1.398 . S
C318 C319 1.391 . S
C319 H307 0.950 . S
C319 C315 1.393 . S
C319 C318 1.391 . S
C89 C38 1.503 1_556 S
C95 C19 1.503 1_554 S
C109 C58 1.489 . S
C115 C79 1.489 . S
C129 C18 1.486 1_556 S
C135 C39 1.486 1_554 S
C149 C78 1.480 . S
C155 C59 1.480 . S
C169 C72 1.258 . S
C175 C12 1.234 . S
C189 C24 0.982 . S
C195 C44 1.007 . S
C209 C29 1.247 . S
C215 C49 1.264 . S
C229 C62 1.029 . S
C235 C2 1.035 . S
C249 C32 1.262 . S
C255 C52 1.242 . S
C269 C64 0.983 . S
C275 C4 1.010 . S
C289 C69 1.252 . S
C295 C9 1.263 . S
C309 C42 0.991 . S
C315 C22 0.982 . S
