# Generated by pormake.
# Topology zfh, (5)-cn, num edge types: 1
# Building blocks:
#     Node 0, Type 0, BuildingBlock: BEQFEK_clean_sbu_0, # of connection points: 5
#     Node 1, Type 0, BuildingBlock: BEQFEK_clean_sbu_0, # of connection points: 5
#     Node 2, Type 0, BuildingBlock: BEQFEK_clean_sbu_0, # of connection points: 5
#     Node 3, Type 0, BuildingBlock: BEQFEK_clean_sbu_0, # of connection points: 5
#     Node 4, Type 0, BuildingBlock: BEQFEK_clean_sbu_0, # of connection points: 5
#     Node 5, Type 0, BuildingBlock: BEQFEK_clean_sbu_0, # of connection points: 5
#     Node 6, Type 0, BuildingBlock: BEQFEK_clean_sbu_0, # of connection points: 5
#     Node 7, Type 0, BuildingBlock: BEQFEK_clean_sbu_0, # of connection points: 5
#     Node 8, Type 0, BuildingBlock: BEQFEK_clean_sbu_0, # of connection points: 5
#     Node 9, Type 0, BuildingBlock: BEQFEK_clean_sbu_0, # of connection points: 5
#     Node 10, Type 0, BuildingBlock: BEQFEK_clean_sbu_0, # of connection points: 5
#     Node 11, Type 0, BuildingBlock: BEQFEK_clean_sbu_0, # of connection points: 5
#     Node 12, Type 0, BuildingBlock: BEQFEK_clean_sbu_0, # of connection points: 5
#     Node 13, Type 0, BuildingBlock: BEQFEK_clean_sbu_0, # of connection points: 5
#     Node 14, Type 0, BuildingBlock: BEQFEK_clean_sbu_0, # of connection points: 5
#     Node 15, Type 0, BuildingBlock: BEQFEK_clean_sbu_0, # of connection points: 5
#     Edge 16, Type (0, 0), BuildingBlock: ZUJKAS_clean_linker_0, # of connection points: 2
#     Edge 17, Type (0, 0), BuildingBlock: ZUJKAS_clean_linker_0, # of connection points: 2
#     Edge 18, Type (0, 0), BuildingBlock: ZUJKAS_clean_linker_0, # of connection points: 2
#     Edge 19, Type (0, 0), BuildingBlock: ZUJKAS_clean_linker_0, # of connection points: 2
#     Edge 20, Type (0, 0), BuildingBlock: ZUJKAS_clean_linker_0, # of connection points: 2
#     Edge 21, Type (0, 0), BuildingBlock: ZUJKAS_clean_linker_0, # of connection points: 2
#     Edge 22, Type (0, 0), BuildingBlock: ZUJKAS_clean_linker_0, # of connection points: 2
#     Edge 23, Type (0, 0), BuildingBlock: ZUJKAS_clean_linker_0, # of connection points: 2
#     Edge 24, Type (0, 0), BuildingBlock: ZUJKAS_clean_linker_0, # of connection points: 2
#     Edge 25, Type (0, 0), BuildingBlock: ZUJKAS_clean_linker_0, # of connection points: 2
#     Edge 26, Type (0, 0), BuildingBlock: ZUJKAS_clean_linker_0, # of connection points: 2
#     Edge 27, Type (0, 0), BuildingBlock: ZUJKAS_clean_linker_0, # of connection points: 2
#     Edge 28, Type (0, 0), BuildingBlock: ZUJKAS_clean_linker_0, # of connection points: 2
#     Edge 29, Type (0, 0), BuildingBlock: ZUJKAS_clean_linker_0, # of connection points: 2
#     Edge 30, Type (0, 0), BuildingBlock: ZUJKAS_clean_linker_0, # of connection points: 2
#     Edge 31, Type (0, 0), BuildingBlock: ZUJKAS_clean_linker_0, # of connection points: 2
#     Edge 32, Type (0, 0), BuildingBlock: ZUJKAS_clean_linker_0, # of connection points: 2
#     Edge 33, Type (0, 0), BuildingBlock: ZUJKAS_clean_linker_0, # of connection points: 2
#     Edge 34, Type (0, 0), BuildingBlock: ZUJKAS_clean_linker_0, # of connection points: 2
#     Edge 35, Type (0, 0), BuildingBlock: ZUJKAS_clean_linker_0, # of connection points: 2
#     Edge 36, Type (0, 0), BuildingBlock: ZUJKAS_clean_linker_0, # of connection points: 2
#     Edge 37, Type (0, 0), BuildingBlock: ZUJKAS_clean_linker_0, # of connection points: 2
#     Edge 38, Type (0, 0), BuildingBlock: ZUJKAS_clean_linker_0, # of connection points: 2
#     Edge 39, Type (0, 0), BuildingBlock: ZUJKAS_clean_linker_0, # of connection points: 2
#     Edge 40, Type (0, 0), BuildingBlock: ZUJKAS_clean_linker_0, # of connection points: 2
#     Edge 41, Type (0, 0), BuildingBlock: ZUJKAS_clean_linker_0, # of connection points: 2
#     Edge 42, Type (0, 0), BuildingBlock: ZUJKAS_clean_linker_0, # of connection points: 2
#     Edge 43, Type (0, 0), BuildingBlock: ZUJKAS_clean_linker_0, # of connection points: 2
#     Edge 44, Type (0, 0), BuildingBlock: ZUJKAS_clean_linker_0, # of connection points: 2
#     Edge 45, Type (0, 0), BuildingBlock: ZUJKAS_clean_linker_0, # of connection points: 2
#     Edge 46, Type (0, 0), BuildingBlock: ZUJKAS_clean_linker_0, # of connection points: 2
#     Edge 47, Type (0, 0), BuildingBlock: ZUJKAS_clean_linker_0, # of connection points: 2
#     Edge 48, Type (0, 0), BuildingBlock: ZUJKAS_clean_linker_0, # of connection points: 2
#     Edge 49, Type (0, 0), BuildingBlock: ZUJKAS_clean_linker_0, # of connection points: 2
#     Edge 50, Type (0, 0), BuildingBlock: ZUJKAS_clean_linker_0, # of connection points: 2
#     Edge 51, Type (0, 0), BuildingBlock: ZUJKAS_clean_linker_0, # of connection points: 2
#     Edge 52, Type (0, 0), BuildingBlock: ZUJKAS_clean_linker_0, # of connection points: 2
#     Edge 53, Type (0, 0), BuildingBlock: ZUJKAS_clean_linker_0, # of connection points: 2
#     Edge 54, Type (0, 0), BuildingBlock: ZUJKAS_clean_linker_0, # of connection points: 2
#     Edge 55, Type (0, 0), BuildingBlock: ZUJKAS_clean_linker_0, # of connection points: 2
# Relax obj value: 0.205
# Max RMSD: 0.163
# Mean RMSD: 0.163
data_MOF--net-zfh--node1-BEQFEK_clean_sbu_0--edge1-ZUJKAS_clean_linker_0
_symmetry_space_group_name_H-M    P1
_symmetry_Int_Tables_number       1
_symmetry_cell_setting            triclinic
loop_
_symmetry_equiv_pos_as_xyz
'x, y, z'
_cell_length_a     54.472297
_cell_length_b     54.479983
_cell_length_c     54.902284
_cell_angle_alpha  89.996205
_cell_angle_beta   89.993816
_cell_angle_gamma 90.00732
loop_
_atom_site_label
_atom_site_type_symbol
_atom_site_fract_x
_atom_site_fract_y
_atom_site_fract_z
_atom_type_partial_charge
Co0 Co 0.54342 0.18916 0.39188 0.0
Co1 Co 0.52003 0.22681 0.35536 0.0
C2 C 0.49275 0.18189 0.37487 0.0
O3 O 0.51021 0.17486 0.38864 0.0
O4 O 0.49485 0.201 0.36164 0.0
C5 C 0.55591 0.15707 0.43286 0.0
O6 O 0.53219 0.15432 0.43627 0.0
C7 C 0.48501 0.2665 0.35004 0.0
C8 C 0.49541 0.2839 0.31522 0.0
C9 C 0.47971 0.28628 0.33499 0.0
N10 N 0.50336 0.25349 0.33999 0.0
N11 N 0.50933 0.26378 0.31902 0.0
C12 C 0.47274 0.25967 0.37351 0.0
H13 H 0.47356 0.23959 0.37643 0.0
H14 H 0.48243 0.26856 0.38892 0.0
H15 H 0.45329 0.26576 0.37359 0.0
C16 C 0.55211 0.23468 0.41991 0.0
N17 N 0.54247 0.22263 0.40075 0.0
N18 N 0.53446 0.23864 0.38469 0.0
C19 C 0.53951 0.26148 0.39281 0.0
C20 C 0.55057 0.25974 0.41553 0.0
C21 C 0.56278 0.22229 0.44181 0.0
H22 H 0.5507 0.20693 0.44746 0.0
H23 H 0.56486 0.23523 0.45727 0.0
H24 H 0.58102 0.21458 0.43704 0.0
O25 O 0.56094 0.1857 0.36045 0.0
O26 O 0.54575 0.21251 0.33389 0.0
H27 H 0.55157 0.29788 0.38283 0.0
H28 H 0.5191 0.29284 0.38089 0.0
C29 C 0.53729 0.28429 0.37773 0.0
H30 H 0.53924 0.27989 0.35813 0.0
H31 H 0.52336 0.25752 0.30767 0.0
O32 O 0.56352 0.17067 0.41566 0.0
C33 C 0.5608 0.19541 0.33933 0.0
Co34 Co 0.31476 0.5458 0.38794 0.0
Co35 Co 0.27709 0.52046 0.35274 0.0
C36 C 0.32229 0.49444 0.37285 0.0
O37 O 0.32922 0.51256 0.38579 0.0
O38 O 0.30309 0.49575 0.35969 0.0
C39 C 0.34471 0.55872 0.43005 0.0
O40 O 0.34408 0.53528 0.43566 0.0
C41 C 0.23877 0.4837 0.34687 0.0
C42 C 0.21903 0.49608 0.31397 0.0
C43 C 0.21829 0.47888 0.33259 0.0
N44 N 0.25056 0.50326 0.33759 0.0
N45 N 0.23892 0.51033 0.31767 0.0
C46 C 0.24716 0.47001 0.36905 0.0
H47 H 0.24134 0.48003 0.38565 0.0
H48 H 0.23944 0.45117 0.3695 0.0
H49 H 0.26742 0.46879 0.36935 0.0
C50 C 0.26919 0.55549 0.41586 0.0
N51 N 0.28126 0.54507 0.39708 0.0
N52 N 0.26523 0.53579 0.3817 0.0
C53 C 0.24237 0.54065 0.38991 0.0
C54 C 0.24416 0.55302 0.41194 0.0
C55 C 0.2814 0.56965 0.43583 0.0
H56 H 0.2924 0.58476 0.42781 0.0
H57 H 0.29408 0.55735 0.44587 0.0
H58 H 0.2679 0.57756 0.44875 0.0
O59 O 0.31808 0.56228 0.35596 0.0
O60 O 0.29109 0.54568 0.33043 0.0
H61 H 0.22166 0.53806 0.35674 0.0
H62 H 0.20331 0.54514 0.38319 0.0
C63 C 0.21923 0.53449 0.37646 0.0
H64 H 0.21492 0.51482 0.3791 0.0
H65 H 0.24401 0.52545 0.30714 0.0
O66 O 0.33368 0.56622 0.41107 0.0
C67 C 0.3081 0.56113 0.33499 0.0
Co68 Co 0.96038 0.31368 0.39168 0.0
Co69 Co 0.98435 0.27643 0.35516 0.0
C70 C 0.01116 0.32134 0.37507 0.0
O71 O 0.99355 0.32815 0.38874 0.0
O72 O 0.00928 0.30234 0.36168 0.0
C73 C 0.94779 0.34394 0.43396 0.0
O74 O 0.97133 0.34427 0.43913 0.0
C75 C 0.02048 0.23774 0.34872 0.0
C76 C 0.00828 0.21898 0.3152 0.0
C77 C 0.02524 0.21758 0.334 0.0
N78 N 1.00118 0.24999 0.3395 0.0
N79 N 0.99419 0.23893 0.31923 0.0
C80 C 0.03396 0.2454 0.37128 0.0
H81 H 0.03444 0.26565 0.37274 0.0
H82 H 0.02427 0.23827 0.38757 0.0
H83 H 0.05304 0.23828 0.37122 0.0
C84 C 0.95102 0.26786 0.41909 0.0
N85 N 0.96128 0.28014 0.40037 0.0
N86 N 0.96976 0.2643 0.38435 0.0
C87 C 0.96446 0.24137 0.39207 0.0
C88 C 0.95271 0.2429 0.41445 0.0
C89 C 0.93744 0.27991 0.43955 0.0
H90 H 0.92175 0.29047 0.43206 0.0
H91 H 0.94984 0.29297 0.44896 0.0
H92 H 0.93038 0.26633 0.45288 0.0
O93 O 0.94297 0.31717 0.36027 0.0
O94 O 0.95854 0.29062 0.33368 0.0
H95 H 0.96556 0.22185 0.35811 0.0
H96 H 0.95784 0.20289 0.38396 0.0
C97 C 0.96924 0.21849 0.37767 0.0
H98 H 0.98869 0.21306 0.37987 0.0
H99 H 0.97928 0.24447 0.30864 0.0
O100 O 0.94032 0.33229 0.41534 0.0
C101 C 0.94328 0.30752 0.33913 0.0
Co102 Co 0.18923 0.95813 0.39076 0.0
Co103 Co 0.22681 0.98245 0.35468 0.0
C104 C 0.18142 0.00886 0.37414 0.0
O105 O 0.17453 0.99121 0.38773 0.0
O106 O 0.2006 0.00709 0.36098 0.0
C107 C 0.15857 0.94484 0.43267 0.0
O108 O 0.15776 0.96834 0.43799 0.0
C109 C 0.26511 0.01915 0.34833 0.0
C110 C 0.2846 0.00665 0.31533 0.0
C111 C 0.28544 0.02397 0.33384 0.0
N112 N 0.25329 0.9995 0.33926 0.0
N113 N 0.2648 0.99233 0.3193 0.0
C114 C 0.25685 0.03293 0.3705 0.0
H115 H 0.26382 0.02363 0.38708 0.0
H116 H 0.26371 0.05211 0.37022 0.0
H117 H 0.23658 0.03318 0.3716 0.0
C118 C 0.23479 0.94928 0.41876 0.0
N119 N 0.22269 0.95931 0.39981 0.0
N120 N 0.23868 0.96799 0.38404 0.0
C121 C 0.26156 0.96311 0.39218 0.0
C122 C 0.25981 0.95137 0.41456 0.0
C123 C 0.22258 0.93561 0.43907 0.0
H124 H 0.21224 0.91984 0.43145 0.0
H125 H 0.2093 0.94791 0.44831 0.0
H126 H 0.23602 0.92866 0.45258 0.0
O127 O 0.18622 0.94081 0.35926 0.0
O128 O 0.21301 0.95657 0.333 0.0
H129 H 0.28184 0.96445 0.35868 0.0
H130 H 0.30041 0.95762 0.38506 0.0
C131 C 0.28462 0.96844 0.37828 0.0
H132 H 0.28938 0.98808 0.38037 0.0
H133 H 0.25967 0.97715 0.30889 0.0
O134 O 0.17056 0.93772 0.41413 0.0
C135 C 0.19611 0.94122 0.33823 0.0
Co136 Co 0.04241 0.81542 0.10639 0.0
Co137 Co 0.01862 0.7778 0.14267 0.0
C138 C 0.99164 0.82279 0.12318 0.0
O139 O 0.0091 0.82976 0.10938 0.0
O140 O 0.99375 0.80374 0.13646 0.0
C141 C 0.05479 0.84603 0.0643 0.0
O142 O 0.03115 0.847 0.05969 0.0
C143 C 0.98212 0.73953 0.14977 0.0
C144 C 0.99553 0.71979 0.18227 0.0
C145 C 0.97778 0.71904 0.16418 0.0
N146 N 0.00193 0.75134 0.15846 0.0
N147 N 0.00963 0.73972 0.17817 0.0
C148 C 0.96781 0.74787 0.12796 0.0
H149 H 0.96622 0.76811 0.1279 0.0
H150 H 0.97761 0.74242 0.11111 0.0
H151 H 0.94911 0.73982 0.12782 0.0
C152 C 0.0517 0.76973 0.0786 0.0
N153 N 0.04162 0.78186 0.09752 0.0
N154 N 0.03296 0.76588 0.1133 0.0
C155 C 0.03785 0.743 0.10519 0.0
C156 C 0.04965 0.74471 0.08284 0.0
C157 C 0.06533 0.78192 0.05826 0.0
H158 H 0.08095 0.79251 0.06586 0.0
H159 H 0.05293 0.795 0.04886 0.0
H160 H 0.07251 0.76846 0.04489 0.0
O161 O 0.05982 0.81902 0.13786 0.0
O162 O 0.04455 0.79186 0.16401 0.0
H163 H 0.03667 0.72253 0.13858 0.0
H164 H 0.04261 0.70396 0.11199 0.0
C165 C 0.03228 0.71995 0.11904 0.0
H166 H 0.01251 0.71564 0.11727 0.0
H167 H 0.02506 0.74481 0.18823 0.0
O168 O 0.0624 0.83402 0.08263 0.0
C169 C 0.0596 0.80905 0.15886 0.0
Co170 Co 0.68862 0.04379 0.10641 0.0
Co171 Co 0.72642 0.02025 0.14258 0.0
C172 C 0.68314 0.99199 0.12233 0.0
O173 O 0.67578 0.00983 0.10925 0.0
O174 O 0.70212 0.99399 0.1357 0.0
C175 C 0.66333 0.05534 0.06098 0.0
O176 O 0.67188 0.03438 0.05274 0.0
C177 C 0.76467 0.98444 0.15201 0.0
C178 C 0.78441 1.00005 0.18353 0.0
C179 C 0.78498 0.98087 0.1669 0.0
N180 N 0.75293 0.00483 0.15936 0.0
N181 N 0.76451 0.01384 0.17851 0.0
C182 C 0.75812 0.97079 0.12924 0.0
H183 H 0.74641 0.98227 0.11725 0.0
H184 H 0.7749 0.96524 0.11918 0.0
H185 H 0.74771 0.95401 0.13416 0.0
C186 C 0.73481 0.05597 0.07981 0.0
N187 N 0.72248 0.04478 0.09802 0.0
N188 N 0.7384 0.03532 0.11346 0.0
C189 C 0.76135 0.04033 0.10557 0.0
C190 C 0.75979 0.05339 0.08393 0.0
C191 C 0.72307 0.07124 0.06037 0.0
H192 H 0.70848 0.08287 0.06841 0.0
H193 H 0.71467 0.05896 0.04659 0.0
H194 H 0.73663 0.08324 0.05112 0.0
O195 O 0.68385 0.06103 0.13771 0.0
O196 O 0.71077 0.04542 0.16387 0.0
H197 H 0.78288 0.03832 0.13819 0.0
H198 H 0.80091 0.04184 0.11081 0.0
C199 C 0.78435 0.03317 0.11872 0.0
H200 H 0.7868 0.01305 0.11741 0.0
H201 H 0.75949 0.02999 0.18743 0.0
O202 O 0.66841 0.06207 0.08255 0.0
C203 C 0.6935 0.06041 0.15883 0.0
Co204 Co 0.4614 0.68955 0.10285 0.0
Co205 Co 0.48409 0.72633 0.1407 0.0
C206 C 0.51147 0.68159 0.12103 0.0
O207 O 0.49453 0.67514 0.10639 0.0
O208 O 0.50896 0.70025 0.13477 0.0
C209 C 0.44319 0.64891 0.07395 0.0
O210 O 0.45823 0.63536 0.08695 0.0
C211 C 0.52033 0.76464 0.14803 0.0
C212 C 0.50761 0.78366 0.1812 0.0
C213 C 0.52495 0.78485 0.16272 0.0
N214 N 0.50077 0.75256 0.15693 0.0
N215 N 0.49347 0.76377 0.17702 0.0
C216 C 0.53412 0.75682 0.1257 0.0
H217 H 0.52452 0.76367 0.10924 0.0
H218 H 0.55315 0.76408 0.12586 0.0
H219 H 0.53479 0.73657 0.1245 0.0
C220 C 0.45309 0.73559 0.07582 0.0
N221 N 0.46268 0.72317 0.09477 0.0
N222 N 0.47057 0.73884 0.11122 0.0
C223 C 0.4655 0.76184 0.10355 0.0
C224 C 0.45454 0.76051 0.08076 0.0
C225 C 0.44013 0.72367 0.0549 0.0
H226 H 0.42293 0.71512 0.06162 0.0
H227 H 0.45185 0.70892 0.04722 0.0
H228 H 0.43547 0.73705 0.0404 0.0
O229 O 0.44299 0.68539 0.13377 0.0
O230 O 0.45752 0.71189 0.16105 0.0
H231 H 0.46544 0.78099 0.13774 0.0
H232 H 0.4585 0.8002 0.11182 0.0
C233 C 0.46973 0.78458 0.11833 0.0
H234 H 0.48923 0.79008 0.1168 0.0
H235 H 0.47828 0.75841 0.18732 0.0
O236 O 0.44239 0.67192 0.0776 0.0
C237 C 0.44259 0.69487 0.15501 0.0
Co238 Co 0.81524 0.45938 0.10743 0.0
Co239 Co 0.77735 0.48288 0.14348 0.0
C240 C 0.82196 0.51033 0.12355 0.0
O241 O 0.8292 0.49271 0.11011 0.0
O242 O 0.80286 0.50825 0.1368 0.0
C243 C 0.84742 0.44674 0.06663 0.0
O244 O 0.84977 0.47043 0.06283 0.0
C245 C 0.73725 0.51742 0.1481 0.0
C246 C 0.72133 0.50911 0.18415 0.0
C247 C 0.71821 0.52365 0.16365 0.0
N248 N 0.75068 0.49967 0.15862 0.0
N249 N 0.74125 0.49491 0.1803 0.0
C250 C 0.74314 0.52859 0.12384 0.0
H251 H 0.76292 0.52655 0.11963 0.0
H252 H 0.73265 0.51908 0.10935 0.0
H253 H 0.738 0.54831 0.12358 0.0
C254 C 0.76984 0.45011 0.07932 0.0
N255 N 0.78177 0.45992 0.09847 0.0
N256 N 0.76565 0.46791 0.11443 0.0
C257 C 0.74287 0.46258 0.10633 0.0
C258 C 0.74476 0.45147 0.08366 0.0
C259 C 0.78237 0.43958 0.05743 0.0
H260 H 0.79767 0.45176 0.05186 0.0
H261 H 0.76949 0.43747 0.04192 0.0
H262 H 0.79016 0.42137 0.06217 0.0
O263 O 0.81888 0.44234 0.13914 0.0
O264 O 0.7917 0.45757 0.16528 0.0
H265 H 0.70704 0.44946 0.11684 0.0
H266 H 0.71071 0.48212 0.11767 0.0
C267 C 0.72004 0.46446 0.12144 0.0
H268 H 0.72454 0.46338 0.14109 0.0
H269 H 0.74808 0.48164 0.19222 0.0
O270 O 0.83395 0.43918 0.08397 0.0
C271 C 0.80901 0.44266 0.16019 0.0
Co272 Co 0.45956 0.81403 0.60701 0.0
Co273 Co 0.48286 0.77611 0.64331 0.0
C274 C 0.51006 0.82128 0.62432 0.0
O275 O 0.49271 0.82835 0.61045 0.0
O276 O 0.50787 0.80213 0.63745 0.0
C277 C 0.44724 0.84482 0.56499 0.0
O278 O 0.4708 0.84516 0.55986 0.0
C279 C 0.51906 0.73741 0.64932 0.0
C280 C 0.50682 0.71808 0.6825 0.0
C281 C 0.5239 0.71707 0.66378 0.0
N282 N 0.49964 0.74941 0.65862 0.0
N283 N 0.49261 0.73799 0.67868 0.0
C284 C 0.53265 0.74551 0.62697 0.0
H285 H 0.52319 0.73845 0.61052 0.0
H286 H 0.55182 0.73862 0.62711 0.0
H287 H 0.53291 0.76577 0.62573 0.0
C288 C 0.45065 0.76872 0.57867 0.0
N289 N 0.46048 0.78063 0.59784 0.0
N290 N 0.46862 0.76449 0.61373 0.0
C291 C 0.46351 0.7417 0.60547 0.0
C292 C 0.45226 0.74367 0.58286 0.0
C293 C 0.43758 0.78116 0.55812 0.0
H294 H 0.42179 0.7917 0.56543 0.0
H295 H 0.45026 0.79429 0.54917 0.0
H296 H 0.43073 0.76785 0.54443 0.0
O297 O 0.44189 0.81712 0.63831 0.0
O298 O 0.45686 0.79009 0.66478 0.0
H299 H 0.46431 0.72155 0.63908 0.0
H300 H 0.45666 0.70314 0.61281 0.0
C301 C 0.46809 0.71854 0.61947 0.0
H302 H 0.48754 0.71307 0.61729 0.0
H303 H 0.47762 0.74328 0.68929 0.0
O304 O 0.43971 0.83301 0.58349 0.0
C305 C 0.44182 0.8072 0.65933 0.0
Co306 Co 0.68925 0.45952 0.60601 0.0
Co307 Co 0.72649 0.48282 0.64296 0.0
C308 C 0.68279 0.51077 0.62245 0.0
O309 O 0.67565 0.49308 0.60904 0.0
O310 O 0.70172 0.50874 0.63594 0.0
C311 C 0.65927 0.44794 0.56313 0.0
O312 O 0.65957 0.4715 0.55804 0.0
C313 C 0.76476 0.51872 0.65186 0.0
C314 C 0.78413 0.50395 0.68399 0.0
C315 C 0.78496 0.52265 0.66682 0.0
N316 N 0.75283 0.49863 0.65969 0.0
N317 N 0.76421 0.49011 0.67919 0.0
C318 C 0.75847 0.53175 0.62866 0.0
H319 H 0.74657 0.52011 0.61701 0.0
H320 H 0.77536 0.53671 0.61848 0.0
H321 H 0.74833 0.54885 0.63304 0.0
C322 C 0.73522 0.44952 0.57904 0.0
N323 N 0.72295 0.45967 0.59782 0.0
N324 N 0.7388 0.46821 0.61381 0.0
C325 C 0.76174 0.46328 0.60588 0.0
C326 C 0.76019 0.45149 0.58352 0.0
C327 C 0.72315 0.43603 0.55853 0.0
H328 H 0.71186 0.42085 0.56601 0.0
H329 H 0.71074 0.44873 0.54865 0.0
H330 H 0.73673 0.42829 0.5456 0.0
O331 O 0.68474 0.44195 0.63715 0.0
O332 O 0.71109 0.45727 0.66403 0.0
H333 H 0.7823 0.46441 0.63918 0.0
H334 H 0.80089 0.45935 0.61239 0.0
C335 C 0.7847 0.46918 0.6197 0.0
H336 H 0.78845 0.4891 0.61824 0.0
H337 H 0.75904 0.47423 0.68851 0.0
O338 O 0.67046 0.44014 0.5819 0.0
C339 C 0.69405 0.44222 0.65842 0.0
Co340 Co 0.04382 0.6862 0.60685 0.0
Co341 Co 0.01993 0.72458 0.64231 0.0
C342 C 0.99278 0.67949 0.62316 0.0
O343 O 0.01037 0.67217 0.6097 0.0
O344 O 0.99485 0.69874 0.63616 0.0
C345 C 0.05645 0.65522 0.56508 0.0
O346 O 0.03285 0.65448 0.56018 0.0
C347 C 0.98388 0.76354 0.64826 0.0
C348 C 0.99675 0.7832 0.68102 0.0
C349 C 0.97946 0.78414 0.6625 0.0
N350 N 0.00331 0.75148 0.65747 0.0
N351 N 0.01068 0.76308 0.67731 0.0
C352 C 0.96994 0.75528 0.62619 0.0
H353 H 0.97967 0.7614 0.60951 0.0
H354 H 0.95105 0.76289 0.62611 0.0
H355 H 0.96889 0.73502 0.62564 0.0
C356 C 0.05375 0.7314 0.57848 0.0
N357 N 0.04338 0.71964 0.59748 0.0
N358 N 0.03479 0.73594 0.61297 0.0
C359 C 0.04007 0.75865 0.60461 0.0
C360 C 0.05198 0.75649 0.58237 0.0
C361 C 0.06736 0.71879 0.55837 0.0
H362 H 0.08284 0.70817 0.56619 0.0
H363 H 0.05487 0.70572 0.54909 0.0
H364 H 0.07472 0.732 0.54485 0.0
O365 O 0.06086 0.68294 0.63858 0.0
O366 O 0.04546 0.71055 0.66419 0.0
H367 H 0.03873 0.77939 0.63783 0.0
H368 H 0.0459 0.79754 0.61126 0.0
C369 C 0.03488 0.78195 0.61818 0.0
H370 H 0.0153 0.78687 0.6159 0.0
H371 H 0.02578 0.7578 0.68777 0.0
O372 O 0.06394 0.66718 0.5835 0.0
C373 C 0.06045 0.69319 0.65945 0.0
Co374 Co 0.81415 0.04274 0.60551 0.0
Co375 Co 0.77727 0.01835 0.64216 0.0
C376 C 0.82217 0.99189 0.62188 0.0
O377 O 0.8288 0.0096 0.60825 0.0
O378 O 0.80324 0.99358 0.63539 0.0
C379 C 0.84372 0.05538 0.56285 0.0
O380 O 0.84383 0.03184 0.55764 0.0
C381 C 0.73924 0.98164 0.64963 0.0
C382 C 0.71995 0.99483 0.68249 0.0
C383 C 0.719 0.97715 0.66434 0.0
N384 N 0.7511 0.00148 0.65822 0.0
N385 N 0.73974 0.00904 0.67812 0.0
C386 C 0.7473 0.96745 0.62765 0.0
H387 H 0.74125 0.9771 0.61091 0.0
H388 H 0.73957 0.94861 0.62773 0.0
H389 H 0.76756 0.9662 0.62708 0.0
C390 C 0.76807 0.05195 0.57843 0.0
N391 N 0.78051 0.04174 0.59707 0.0
N392 N 0.76481 0.03284 0.61301 0.0
C393 C 0.74179 0.03767 0.60524 0.0
C394 C 0.74312 0.0497 0.58298 0.0
C395 C 0.77991 0.06596 0.55814 0.0
H396 H 0.79082 0.0813 0.56585 0.0
H397 H 0.79264 0.05367 0.54814 0.0
H398 H 0.76622 0.07358 0.54525 0.0
O399 O 0.81787 0.06009 0.63691 0.0
O400 O 0.79156 0.04421 0.66355 0.0
H401 H 0.72175 0.03619 0.63887 0.0
H402 H 0.70279 0.04205 0.61253 0.0
C403 C 0.71896 0.03184 0.61935 0.0
H404 H 0.71481 0.01204 0.61756 0.0
H405 H 0.74492 0.02446 0.68817 0.0
O406 O 0.83248 0.06287 0.58171 0.0
C407 C 0.80834 0.0596 0.65809 0.0
Co408 Co 0.95863 0.18946 0.88996 0.0
Co409 Co 0.98239 0.22696 0.85355 0.0
C410 C 0.00992 0.18281 0.87357 0.0
O411 O 0.99212 0.17557 0.88682 0.0
O412 O 0.00806 0.20194 0.86035 0.0
C413 C 0.94683 0.15855 0.93214 0.0
O414 O 0.97055 0.15693 0.93612 0.0
C415 C 0.01867 0.26484 0.84439 0.0
C416 C 0.00356 0.28464 0.81267 0.0
C417 C 0.02258 0.28509 0.82949 0.0
N418 N 0.99827 0.25324 0.83685 0.0
N419 N 0.98954 0.26487 0.8176 0.0
C420 C 0.03207 0.25819 0.86728 0.0
H421 H 0.02047 0.24642 0.87909 0.0
H422 H 0.03752 0.27493 0.87745 0.0
H423 H 0.04891 0.2478 0.86249 0.0
C424 C 0.94914 0.23519 0.91747 0.0
N425 N 0.95911 0.22309 0.89849 0.0
N426 N 0.96797 0.23907 0.88281 0.0
C427 C 0.96349 0.26194 0.89116 0.0
C428 C 0.9516 0.2602 0.91346 0.0
C429 C 0.9354 0.22297 0.93774 0.0
H430 H 0.91999 0.21217 0.93003 0.0
H431 H 0.94783 0.2101 0.94736 0.0
H432 H 0.9279 0.23642 0.95095 0.0
O433 O 0.94102 0.18529 0.85878 0.0
O434 O 0.95674 0.21195 0.83242 0.0
H435 H 0.96507 0.28329 0.85837 0.0
H436 H 0.96091 0.30138 0.88565 0.0
C437 C 0.97008 0.28503 0.87786 0.0
H438 H 0.99013 0.28803 0.87921 0.0
H439 H 0.97343 0.25998 0.80854 0.0
O440 O 0.93905 0.17095 0.91413 0.0
C441 C 0.94153 0.19494 0.83765 0.0
Co442 Co 0.31294 0.95899 0.89006 0.0
Co443 Co 0.27569 0.98356 0.85396 0.0
C444 C 0.32074 0.00994 0.87398 0.0
O445 O 0.32744 0.99216 0.88746 0.0
O446 O 0.30174 0.00831 0.86057 0.0
C447 C 0.34274 0.94653 0.9325 0.0
O448 O 0.34212 0.96999 0.93801 0.0
C449 C 0.23761 0.02037 0.84727 0.0
C450 C 0.21803 0.00766 0.81439 0.0
C451 C 0.21728 0.02512 0.83276 0.0
N452 N 0.24933 1.0006 0.83835 0.0
N453 N 0.2378 0.99332 0.81844 0.0
C454 C 0.24589 0.03429 0.86934 0.0
H455 H 0.26616 0.0354 0.86981 0.0
H456 H 0.23986 0.02451 0.88601 0.0
H457 H 0.23829 0.05318 0.86949 0.0
C458 C 0.26714 0.94962 0.9176 0.0
N459 N 0.2794 0.95989 0.89887 0.0
N460 N 0.26355 0.96888 0.88314 0.0
C461 C 0.2406 0.96403 0.89112 0.0
C462 C 0.24215 0.95192 0.91332 0.0
C463 C 0.27916 0.9356 0.93778 0.0
H464 H 0.29016 0.9204 0.92996 0.0
H465 H 0.29181 0.94795 0.94779 0.0
H466 H 0.26555 0.92784 0.95068 0.0
O467 O 0.31643 0.94183 0.8585 0.0
O468 O 0.28972 0.95778 0.8323 0.0
H469 H 0.2203 0.96576 0.85766 0.0
H470 H 0.20159 0.95944 0.88407 0.0
C471 C 0.21763 0.96986 0.87725 0.0
H472 H 0.21335 0.98961 0.8793 0.0
H473 H 0.24286 0.97803 0.80815 0.0
O474 O 0.33171 0.93893 0.91357 0.0
C475 C 0.30664 0.94241 0.83743 0.0
Co476 Co 0.54445 0.31506 0.89183 0.0
Co477 Co 0.51967 0.27707 0.85662 0.0
C478 C 0.49301 0.32194 0.8766 0.0
O479 O 0.51101 0.32904 0.88962 0.0
O480 O 0.49457 0.30277 0.8634 0.0
C481 C 0.55697 0.34616 0.93325 0.0
O482 O 0.53335 0.34661 0.93806 0.0
C483 C 0.48427 0.2375 0.85162 0.0
C484 C 0.49494 0.21962 0.81712 0.0
C485 C 0.479 0.21757 0.83673 0.0
N486 N 0.50283 0.25027 0.84162 0.0
N487 N 0.50895 0.23969 0.82083 0.0
C488 C 0.47176 0.2447 0.87486 0.0
H489 H 0.48133 0.23609 0.89051 0.0
H490 H 0.45232 0.23861 0.87486 0.0
H491 H 0.47251 0.26482 0.87746 0.0
C492 C 0.55522 0.26969 0.91942 0.0
N493 N 0.54421 0.28161 0.9009 0.0
N494 N 0.53497 0.26546 0.88562 0.0
C495 C 0.54026 0.24267 0.89377 0.0
C496 C 0.55299 0.24464 0.91554 0.0
C497 C 0.56833 0.28214 0.93993 0.0
H498 H 0.5562 0.29632 0.94797 0.0
H499 H 0.57373 0.26894 0.95435 0.0
H500 H 0.58498 0.29142 0.93279 0.0
O501 O 0.56092 0.31857 0.85991 0.0
O502 O 0.54483 0.29129 0.83437 0.0
H503 H 0.53849 0.22336 0.85965 0.0
H504 H 0.55019 0.20536 0.88465 0.0
C505 C 0.53661 0.21958 0.87939 0.0
H506 H 0.51803 0.21215 0.88302 0.0
H507 H 0.52314 0.24573 0.80955 0.0
O508 O 0.56471 0.33409 0.915 0.0
C509 C 0.56002 0.30853 0.83897 0.0
Co510 Co 0.18644 0.5425 0.89257 0.0
Co511 Co 0.22536 0.51976 0.85702 0.0
C512 C 0.17988 0.49207 0.87477 0.0
O513 O 0.17234 0.50927 0.8886 0.0
O514 O 0.19934 0.4945 0.86211 0.0
C515 C 0.15338 0.5552 0.93296 0.0
O516 O 0.15066 0.53156 0.93682 0.0
C517 C 0.26509 0.48462 0.8521 0.0
C518 C 0.28376 0.49604 0.81825 0.0
C519 C 0.28536 0.47968 0.83756 0.0
N520 N 0.25253 0.50336 0.8422 0.0
N521 N 0.26359 0.50994 0.82179 0.0
C522 C 0.25737 0.4716 0.87489 0.0
H523 H 0.23719 0.47235 0.87708 0.0
H524 H 0.26566 0.48077 0.89093 0.0
H525 H 0.26344 0.45216 0.87458 0.0
C526 C 0.23089 0.55052 0.92243 0.0
N527 N 0.21958 0.54145 0.90257 0.0
N528 N 0.23618 0.53363 0.88701 0.0
C529 C 0.25871 0.53819 0.89623 0.0
C530 C 0.25609 0.54876 0.91908 0.0
C531 C 0.21769 0.56073 0.94408 0.0
H532 H 0.20228 0.54842 0.94902 0.0
H533 H 0.23008 0.56265 0.96 0.0
H534 H 0.20998 0.57897 0.93936 0.0
O535 O 0.18399 0.5604 0.86128 0.0
O536 O 0.21182 0.54584 0.83544 0.0
H537 H 0.29578 0.54972 0.88827 0.0
H538 H 0.29022 0.51742 0.88537 0.0
C539 C 0.28219 0.53583 0.8822 0.0
H540 H 0.27878 0.53828 0.86246 0.0
H541 H 0.25779 0.52436 0.81068 0.0
O542 O 0.16724 0.56251 0.91583 0.0
C543 C 0.19446 0.5607 0.84052 0.0
H544 H 0.30644 0.0365 0.37747 0.0
H545 H 0.34016 0.06506 0.38454 0.0
H546 H 0.34602 0.07789 0.30728 0.0
H547 H 0.31161 0.04965 0.30006 0.0
H548 H 0.39147 0.06682 0.33223 0.0
H549 H 0.33871 0.14131 0.3774 0.0
H550 H 0.33362 0.11102 0.38939 0.0
H551 H 0.3243 0.11806 0.3588 0.0
C552 C 0.31428 0.04597 0.36201 0.0
C553 C 0.30571 0.04155 0.33825 0.0
C554 C 0.33375 0.06212 0.36609 0.0
C555 C 0.34522 0.07396 0.34648 0.0
C556 C 0.33718 0.06913 0.32267 0.0
H557 H 0.45054 0.19314 0.35032 0.0
H558 H 0.4147 0.16694 0.34396 0.0
C559 C 0.31757 0.05303 0.31858 0.0
C560 C 0.3662 0.09066 0.35089 0.0
H561 H 0.38216 0.1445 0.37856 0.0
C562 C 0.38946 0.08385 0.34228 0.0
C563 C 0.36342 0.11291 0.36388 0.0
C564 C 0.33865 0.12146 0.37277 0.0
C565 C 0.41017 0.09855 0.34667 0.0
C566 C 0.40751 0.12048 0.3602 0.0
C567 C 0.38416 0.12752 0.36843 0.0
C568 C 0.4287 0.13671 0.36537 0.0
C569 C 0.43469 0.09067 0.33653 0.0
C570 C 0.44816 0.1286 0.38006 0.0
C571 C 0.4687 0.14356 0.38381 0.0
C572 C 0.47012 0.16689 0.37291 0.0
C573 C 0.45016 0.17522 0.35887 0.0
C574 C 0.42962 0.1603 0.35522 0.0
H575 H 0.43269 0.07636 0.32225 0.0
H576 H 0.44468 0.10658 0.32868 0.0
H577 H 0.44605 0.08297 0.35146 0.0
H578 H 0.44758 0.11058 0.38838 0.0
H579 H 0.48368 0.13659 0.39479 0.0
H580 H 0.31096 0.45077 0.35098 0.0
H581 H 0.33726 0.41477 0.34638 0.0
H582 H 0.39436 0.45083 0.38731 0.0
H583 H 0.3682 0.48707 0.39203 0.0
H584 H 0.40927 0.43033 0.34114 0.0
H585 H 0.35828 0.36345 0.39846 0.0
H586 H 0.34003 0.37982 0.37653 0.0
H587 H 0.35415 0.39624 0.40118 0.0
C588 C 0.329 0.45101 0.35925 0.0
C589 C 0.33747 0.47186 0.37187 0.0
C590 C 0.34397 0.43035 0.35668 0.0
C591 C 0.36765 0.4301 0.36666 0.0
C592 C 0.37607 0.45067 0.37955 0.0
H593 H 0.47024 0.30951 0.37832 0.0
H594 H 0.44263 0.34398 0.38554 0.0
C595 C 0.36106 0.47133 0.38228 0.0
C596 C 0.38407 0.40883 0.36253 0.0
H597 H 0.39059 0.34759 0.37409 0.0
C598 C 0.40526 0.41224 0.34839 0.0
C599 C 0.37879 0.38534 0.37213 0.0
C600 C 0.35669 0.3809 0.3881 0.0
C601 C 0.42118 0.39264 0.34329 0.0
C602 C 0.41562 0.36903 0.35244 0.0
C603 C 0.39463 0.3657 0.3669 0.0
C604 C 0.43181 0.3477 0.34784 0.0
C605 C 0.444 0.39737 0.32843 0.0
C606 C 0.43473 0.33826 0.32422 0.0
C607 C 0.45023 0.3182 0.32008 0.0
C608 C 0.46283 0.30711 0.33953 0.0
C609 C 0.46 0.31683 0.36309 0.0
C610 C 0.44446 0.33678 0.36723 0.0
H611 H 0.44815 0.41728 0.32693 0.0
H612 H 0.46008 0.38792 0.33659 0.0
H613 H 0.44134 0.38998 0.30978 0.0
H614 H 0.42498 0.34637 0.30903 0.0
H615 H 0.45223 0.31123 0.30171 0.0
H616 H 0.05392 0.31012 0.35146 0.0
H617 H 0.08988 0.3363 0.34594 0.0
H618 H 0.05574 0.3929 0.38911 0.0
H619 H 0.01951 0.36688 0.3947 0.0
H620 H 0.07453 0.40866 0.34282 0.0
H621 H 0.14335 0.35591 0.39609 0.0
H622 H 0.12616 0.33824 0.37432 0.0
H623 H 0.11067 0.35176 0.3999 0.0
C624 C 0.05409 0.32803 0.36002 0.0
C625 C 0.03377 0.33641 0.37352 0.0
C626 C 0.07474 0.34292 0.35692 0.0
C627 C 0.07552 0.36643 0.36727 0.0
C628 C 0.05548 0.37475 0.38105 0.0
H629 H 0.19737 0.46771 0.37657 0.0
H630 H 0.16311 0.43996 0.38444 0.0
C631 C 0.03484 0.35982 0.38428 0.0
C632 C 0.09673 0.38279 0.36264 0.0
H633 H 0.15847 0.38859 0.37171 0.0
C634 C 0.09288 0.40434 0.34918 0.0
C635 C 0.12058 0.37711 0.37109 0.0
C636 C 0.12553 0.35461 0.38634 0.0
C637 C 0.11237 0.42026 0.34365 0.0
C638 C 0.13631 0.41431 0.35164 0.0
C639 C 0.1401 0.39294 0.36541 0.0
C640 C 0.15754 0.4305 0.3466 0.0
C641 C 0.10717 0.44351 0.32963 0.0
C642 C 0.16589 0.43422 0.32268 0.0
C643 C 0.1858 0.44981 0.31815 0.0
C644 C 0.19782 0.46168 0.33748 0.0
C645 C 0.18924 0.45803 0.36137 0.0
C646 C 0.16945 0.44241 0.36589 0.0
H647 H 0.08725 0.44786 0.32918 0.0
H648 H 0.11716 0.45929 0.33773 0.0
H649 H 0.11362 0.44127 0.31058 0.0
H650 H 0.15702 0.42504 0.30756 0.0
H651 H 0.19188 0.4525 0.29955 0.0
H652 H 0.13553 0.01708 0.39312 0.0
H653 H 0.10951 0.05324 0.38708 0.0
H654 H 0.16681 0.08763 0.34502 0.0
H655 H 0.193 0.05173 0.35096 0.0
H656 H 0.14332 0.1189 0.3804 0.0
H657 H 0.07714 0.07024 0.32025 0.0
H658 H 0.08315 0.05586 0.34913 0.0
H659 H 0.10729 0.05823 0.32699 0.0
C660 C 0.14269 0.0324 0.38274 0.0
C661 C 0.16629 0.03141 0.37237 0.0
C662 C 0.12774 0.05297 0.3792 0.0
C663 C 0.13614 0.07289 0.36529 0.0
C664 C 0.15996 0.07235 0.35567 0.0
H665 H 0.05155 0.1918 0.30041 0.0
H666 H 0.07922 0.15696 0.30774 0.0
C667 C 0.17487 0.05178 0.35909 0.0
C668 C 0.12001 0.0942 0.36038 0.0
H669 H 0.06743 0.11118 0.33098 0.0
C670 C 0.12672 0.11725 0.36962 0.0
C671 C 0.09859 0.09199 0.34598 0.0
C672 C 0.09111 0.06782 0.3348 0.0
C673 C 0.1123 0.13814 0.36518 0.0
C674 C 0.09056 0.13581 0.35129 0.0
C675 C 0.08407 0.11284 0.34171 0.0
C676 C 0.07411 0.15697 0.34682 0.0
C677 C 0.12056 0.16259 0.37514 0.0
C678 C 0.06178 0.16812 0.3663 0.0
C679 C 0.04599 0.18786 0.36216 0.0
C680 C 0.04238 0.19698 0.33846 0.0
C681 C 0.0543 0.1854 0.31889 0.0
C682 C 0.07008 0.16555 0.32305 0.0
H683 H 0.14027 0.16237 0.38036 0.0
H684 H 0.11758 0.17742 0.36158 0.0
H685 H 0.10964 0.16704 0.39162 0.0
H686 H 0.06409 0.1613 0.38469 0.0
H687 H 0.03616 0.19552 0.3775 0.0
H688 H 0.83361 0.98947 0.17404 0.0
H689 H 0.86802 0.96184 0.16569 0.0
H690 H 0.81731 0.90508 0.14413 0.0
H691 H 0.78279 0.93251 0.15274 0.0
H692 H 0.87903 0.91564 0.18503 0.0
H693 H 0.86379 0.91097 0.08509 0.0
H694 H 0.8495 0.93391 0.10413 0.0
H695 H 0.8375 0.90321 0.10331 0.0
C696 C 0.82977 0.97104 0.16766 0.0
C697 C 0.80551 0.96336 0.16347 0.0
C698 C 0.84945 0.95533 0.16281 0.0
C699 C 0.84522 0.93164 0.15373 0.0
C700 C 0.82098 0.92355 0.15045 0.0
H701 H 0.95031 0.81232 0.14942 0.0
H702 H 0.91457 0.8385 0.15591 0.0
C703 C 0.80128 0.93927 0.15531 0.0
C704 C 0.86624 0.91537 0.14794 0.0
H705 H 0.89431 0.88459 0.10141 0.0
C706 C 0.88239 0.90885 0.16676 0.0
C707 C 0.87074 0.90684 0.124 0.0
C708 C 0.85463 0.91422 0.10288 0.0
C709 C 0.90275 0.89371 0.16236 0.0
C710 C 0.90686 0.8846 0.13857 0.0
C711 C 0.89095 0.89143 0.11966 0.0
C712 C 0.92771 0.86805 0.13306 0.0
C713 C 0.91993 0.8879 0.18315 0.0
C714 C 0.94652 0.8756 0.11727 0.0
C715 C 0.96702 0.86061 0.11339 0.0
C716 C 0.96899 0.83776 0.12519 0.0
C717 C 0.94956 0.82989 0.14021 0.0
C718 C 0.92913 0.84487 0.14405 0.0
H719 H 0.91767 0.90096 0.19853 0.0
H720 H 0.91593 0.86916 0.19003 0.0
H721 H 0.93935 0.88836 0.17703 0.0
H722 H 0.94565 0.89339 0.10849 0.0
H723 H 0.98158 0.86721 0.10166 0.0
H724 H 0.55104 0.81077 0.19644 0.0
H725 H 0.57893 0.84548 0.18916 0.0
H726 H 0.56477 0.84054 0.11207 0.0
H727 H 0.53657 0.80653 0.1192 0.0
H728 H 0.61644 0.84413 0.12596 0.0
H729 H 0.55696 0.9159 0.16738 0.0
H730 H 0.56271 0.88913 0.18571 0.0
H731 H 0.54529 0.8863 0.15812 0.0
C732 C 0.55397 0.81709 0.17795 0.0
C733 C 0.54221 0.80542 0.15834 0.0
C734 C 0.56983 0.8369 0.17383 0.0
C735 C 0.57393 0.84548 0.15006 0.0
C736 C 0.56206 0.83399 0.13051 0.0
H737 H 0.63796 0.98302 0.10218 0.0
H738 H 0.61221 0.94663 0.10776 0.0
C739 C 0.54616 0.81432 0.13461 0.0
C740 C 0.59046 0.86654 0.14541 0.0
H741 H 0.59619 0.92836 0.15382 0.0
C742 C 0.61209 0.86255 0.13208 0.0
C743 C 0.58449 0.89056 0.15314 0.0
C744 C 0.56103 0.89592 0.16673 0.0
C745 C 0.62809 0.88198 0.1265 0.0
C746 C 0.62233 0.90593 0.1346 0.0
C747 C 0.60057 0.90994 0.14771 0.0
C748 C 0.63869 0.92712 0.12981 0.0
C749 C 0.65082 0.87681 0.11166 0.0
C750 C 0.66218 0.92809 0.14021 0.0
C751 C 0.67695 0.94884 0.13709 0.0
C752 C 0.66846 0.96908 0.12354 0.0
C753 C 0.64512 0.96777 0.11265 0.0
C754 C 0.63033 0.94703 0.11588 0.0
H755 H 0.64964 0.85888 0.10208 0.0
H756 H 0.65393 0.8915 0.09798 0.0
H757 H 0.66699 0.87626 0.12394 0.0
H758 H 0.66885 0.91307 0.15131 0.0
H759 H 0.69481 0.9492 0.14576 0.0
H760 H 0.54931 0.68777 0.15314 0.0
H761 H 0.58502 0.6613 0.15898 0.0
H762 H 0.56075 0.61483 0.10022 0.0
H763 H 0.52466 0.64108 0.09425 0.0
H764 H 0.57835 0.60296 0.16533 0.0
H765 H 0.63839 0.63709 0.0904 0.0
H766 H 0.61611 0.65674 0.10508 0.0
H767 H 0.606 0.63297 0.08489 0.0
C768 C 0.55157 0.67205 0.14128 0.0
C769 C 0.53403 0.66652 0.12325 0.0
C770 C 0.57199 0.65696 0.14469 0.0
C771 C 0.57542 0.63623 0.13001 0.0
C772 C 0.55836 0.63087 0.11165 0.0
H773 H 0.69132 0.52794 0.12192 0.0
H774 H 0.65667 0.55529 0.11426 0.0
C775 C 0.53778 0.64587 0.10829 0.0
C776 C 0.59635 0.61967 0.13466 0.0
H777 H 0.65369 0.60483 0.11457 0.0
C778 C 0.59487 0.60329 0.15429 0.0
C779 C 0.61766 0.6202 0.12008 0.0
C780 C 0.6199 0.63769 0.09891 0.0
C781 C 0.6142 0.58714 0.15965 0.0
C782 C 0.63583 0.58794 0.14534 0.0
C783 C 0.63718 0.60432 0.1256 0.0
C784 C 0.65707 0.5716 0.1502 0.0
C785 C 0.61099 0.56898 0.18016 0.0
C786 C 0.66899 0.57181 0.1729 0.0
C787 C 0.68884 0.55613 0.17732 0.0
C788 C 0.69746 0.54046 0.15892 0.0
C789 C 0.6856 0.54038 0.1362 0.0
C790 C 0.66565 0.55585 0.13186 0.0
H791 H 0.5913 0.56598 0.18452 0.0
H792 H 0.61944 0.55101 0.17559 0.0
H793 H 0.62006 0.57621 0.19677 0.0
H794 H 0.66302 0.58417 0.18716 0.0
H795 H 0.69767 0.55649 0.19499 0.0
H796 H 0.95217 0.69252 0.19775 0.0
H797 H 0.92479 0.65748 0.19028 0.0
H798 H 0.93834 0.66353 0.11314 0.0
H799 H 0.96597 0.69799 0.12046 0.0
H800 H 0.88731 0.65851 0.12662 0.0
H801 H 0.94775 0.58788 0.1685 0.0
H802 H 0.94116 0.61421 0.18714 0.0
H803 H 0.95881 0.61787 0.15976 0.0
C804 C 0.94919 0.6864 0.17921 0.0
C805 C 0.96063 0.69846 0.15965 0.0
C806 C 0.93365 0.66638 0.17498 0.0
C807 C 0.92957 0.65797 0.15115 0.0
C808 C 0.94106 0.66992 0.13163 0.0
H809 H 0.86726 0.51936 0.10371 0.0
H810 H 0.89278 0.55593 0.1092 0.0
C811 C 0.95662 0.68982 0.13585 0.0
C812 C 0.91347 0.63661 0.14641 0.0
H813 H 0.90854 0.57479 0.15529 0.0
C814 C 0.8919 0.6402 0.13289 0.0
C815 C 0.91974 0.61274 0.15434 0.0
C816 C 0.94321 0.60776 0.16808 0.0
C817 C 0.87621 0.62052 0.12737 0.0
C818 C 0.88223 0.59673 0.13574 0.0
C819 C 0.90396 0.5931 0.14899 0.0
C820 C 0.86612 0.57533 0.13116 0.0
C821 C 0.85351 0.62524 0.11233 0.0
C822 C 0.84266 0.57422 0.1416 0.0
C823 C 0.82804 0.55337 0.13854 0.0
C824 C 0.83666 0.53318 0.12502 0.0
C825 C 0.86002 0.53458 0.11416 0.0
C826 C 0.87466 0.55542 0.11734 0.0
H827 H 0.85453 0.64309 0.10259 0.0
H828 H 0.8507 0.61037 0.09877 0.0
H829 H 0.83725 0.62567 0.1245 0.0
H830 H 0.83587 0.58926 0.15261 0.0
H831 H 0.81016 0.55293 0.14717 0.0
H832 H 0.55236 0.80946 0.64842 0.0
H833 H 0.58844 0.83533 0.65479 0.0
H834 H 0.55545 0.89259 0.6116 0.0
H835 H 0.51912 0.8669 0.60515 0.0
H836 H 0.62058 0.85808 0.61975 0.0
H837 H 0.57167 0.9255 0.67828 0.0
H838 H 0.55942 0.89543 0.67165 0.0
H839 H 0.55766 0.91939 0.64925 0.0
C840 C 0.55276 0.82751 0.64015 0.0
C841 C 0.53273 0.83619 0.62642 0.0
C842 C 0.57343 0.84224 0.6438 0.0
C843 C 0.5744 0.86596 0.63398 0.0
C844 C 0.55483 0.87444 0.61965 0.0
H845 H 0.69734 0.96506 0.621 0.0
H846 H 0.66321 0.93689 0.61424 0.0
C847 C 0.53417 0.85968 0.61587 0.0
C848 C 0.5958 0.88191 0.63906 0.0
H849 H 0.61277 0.93491 0.6677 0.0
C850 C 0.61892 0.87487 0.63024 0.0
C851 C 0.59356 0.90359 0.65307 0.0
C852 C 0.56931 0.91142 0.66383 0.0
C853 C 0.63985 0.88924 0.63466 0.0
C854 C 0.63749 0.91126 0.64809 0.0
C855 C 0.61446 0.91806 0.65732 0.0
C856 C 0.65865 0.92777 0.65231 0.0
C857 C 0.66436 0.88066 0.62512 0.0
C858 C 0.66707 0.93238 0.67604 0.0
C859 C 0.68687 0.94829 0.67995 0.0
C860 C 0.69854 0.95977 0.66017 0.0
C861 C 0.68959 0.95558 0.63651 0.0
C862 C 0.66992 0.93964 0.63262 0.0
H863 H 0.66411 0.86083 0.62037 0.0
H864 H 0.66901 0.89116 0.60842 0.0
H865 H 0.67909 0.88392 0.63873 0.0
H866 H 0.65838 0.9236 0.69151 0.0
H867 H 0.69313 0.95153 0.69839 0.0
H868 H 0.63753 0.51951 0.60242 0.0
H869 H 0.61163 0.55578 0.60805 0.0
H870 H 0.66816 0.58958 0.65157 0.0
H871 H 0.69426 0.55354 0.646 0.0
H872 H 0.59576 0.57404 0.65441 0.0
H873 H 0.64852 0.64356 0.60197 0.0
H874 H 0.65277 0.61094 0.59784 0.0
H875 H 0.66608 0.62617 0.62367 0.0
C876 C 0.64462 0.53479 0.61291 0.0
C877 C 0.66798 0.53357 0.62379 0.0
C878 C 0.62975 0.55546 0.61616 0.0
C879 C 0.63805 0.57539 0.63009 0.0
C880 C 0.66155 0.57452 0.64048 0.0
H881 H 0.55029 0.69112 0.69719 0.0
H882 H 0.57829 0.65661 0.68961 0.0
C883 C 0.67639 0.55383 0.63736 0.0
C884 C 0.62163 0.59651 0.63487 0.0
H885 H 0.61538 0.65823 0.62596 0.0
C886 C 0.6 0.59245 0.64817 0.0
C887 C 0.6272 0.62045 0.62658 0.0
C888 C 0.64979 0.62563 0.61154 0.0
C889 C 0.58387 0.61178 0.65362 0.0
C890 C 0.58967 0.63579 0.64573 0.0
C891 C 0.61115 0.63982 0.63219 0.0
C892 C 0.57314 0.65682 0.65053 0.0
C893 C 0.56054 0.60634 0.66743 0.0
C894 C 0.56118 0.6684 0.63108 0.0
C895 C 0.54523 0.68799 0.63536 0.0
C896 C 0.54128 0.69668 0.65916 0.0
C897 C 0.55318 0.68495 0.67866 0.0
C898 C 0.5691 0.66524 0.67436 0.0
H899 H 0.55646 0.58637 0.66798 0.0
H900 H 0.56246 0.61297 0.68645 0.0
H901 H 0.54471 0.61604 0.65907 0.0
H902 H 0.56385 0.66198 0.61259 0.0
H903 H 0.53555 0.69585 0.62003 0.0
H904 H 0.78306 0.57059 0.6512 0.0
H905 H 0.81771 0.59781 0.64252 0.0
H906 H 0.86803 0.5417 0.66652 0.0
H907 H 0.83347 0.51427 0.67495 0.0
H908 H 0.87865 0.58827 0.68493 0.0
H909 H 0.8654 0.5908 0.58465 0.0
H910 H 0.83875 0.59898 0.60215 0.0
H911 H 0.85069 0.56829 0.60389 0.0
C912 C 0.80149 0.5639 0.65427 0.0
C913 C 0.80556 0.54004 0.66316 0.0
C914 C 0.82128 0.57951 0.64937 0.0
C915 C 0.84546 0.57156 0.65334 0.0
C916 C 0.84951 0.54811 0.6631 0.0
H917 H 0.98275 0.63476 0.60227 0.0
H918 H 0.94659 0.60889 0.60903 0.0
C919 C 0.82975 0.5325 0.66799 0.0
C920 C 0.86658 0.58774 0.64761 0.0
H921 H 0.89556 0.61757 0.601 0.0
C922 C 0.88236 0.59468 0.66659 0.0
C923 C 0.87155 0.59578 0.6236 0.0
C924 C 0.85587 0.58794 0.60232 0.0
C925 C 0.90282 0.60973 0.66228 0.0
C926 C 0.9074 0.61835 0.63839 0.0
C927 C 0.89184 0.61112 0.61932 0.0
C928 C 0.92842 0.63473 0.63291 0.0
C929 C 0.91959 0.61596 0.68327 0.0
C930 C 0.92982 0.65809 0.64352 0.0
C931 C 0.95039 0.6729 0.63972 0.0
C932 C 0.96999 0.66468 0.62512 0.0
C933 C 0.96806 0.64164 0.61368 0.0
C934 C 0.94742 0.62682 0.61752 0.0
H935 H 0.91704 0.6032 0.69885 0.0
H936 H 0.93913 0.61539 0.67753 0.0
H937 H 0.91547 0.63482 0.68971 0.0
H938 H 0.91512 0.66474 0.65505 0.0
H939 H 0.95111 0.69062 0.64863 0.0
H940 H 0.86755 0.98374 0.60174 0.0
H941 H 0.89371 0.94754 0.60689 0.0
H942 H 0.83767 0.91312 0.65058 0.0
H943 H 0.81137 0.94904 0.64552 0.0
H944 H 0.91012 0.92846 0.65281 0.0
H945 H 0.85659 0.85993 0.59996 0.0
H946 H 0.85237 0.89263 0.5964 0.0
H947 H 0.83919 0.87697 0.62205 0.0
C948 C 0.86065 0.96836 0.61219 0.0
C949 C 0.83735 0.96933 0.62322 0.0
C950 C 0.87565 0.94773 0.61517 0.0
C951 C 0.86753 0.92761 0.62895 0.0
C952 C 0.84414 0.92832 0.63959 0.0
H953 H 0.95381 0.81102 0.69574 0.0
H954 H 0.9266 0.8461 0.68791 0.0
C955 C 0.82918 0.94894 0.63675 0.0
C956 C 0.88394 0.90638 0.63326 0.0
H957 H 0.88942 0.84463 0.62406 0.0
C958 C 0.90567 0.91014 0.64647 0.0
C959 C 0.87809 0.88256 0.62483 0.0
C960 C 0.8554 0.8777 0.60984 0.0
C961 C 0.92159 0.89059 0.65179 0.0
C962 C 0.91545 0.86667 0.64387 0.0
C963 C 0.89391 0.86297 0.63032 0.0
C964 C 0.93155 0.84534 0.64881 0.0
C965 C 0.94501 0.8957 0.66555 0.0
C966 C 0.94309 0.83322 0.62942 0.0
C967 C 0.95856 0.81329 0.63384 0.0
C968 C 0.96244 0.80478 0.65772 0.0
C969 C 0.95095 0.81704 0.67714 0.0
C970 C 0.9355 0.83708 0.67271 0.0
H971 H 0.94951 0.91559 0.66584 0.0
H972 H 0.94291 0.88939 0.68466 0.0
H973 H 0.96065 0.88556 0.65736 0.0
H974 H 0.94046 0.83949 0.61087 0.0
H975 H 0.96795 0.80499 0.61855 0.0
H976 H 0.19149 0.05137 0.79913 0.0
H977 H 0.15713 0.07963 0.8065 0.0
H978 H 0.16217 0.06542 0.88359 0.0
H979 H 0.19594 0.03693 0.87635 0.0
H980 H 0.11156 0.06879 0.83017 0.0
H981 H 0.16392 0.14143 0.87857 0.0
H982 H 0.17858 0.11835 0.85995 0.0
H983 H 0.16834 0.11089 0.89017 0.0
C984 C 0.18535 0.05447 0.81765 0.0
C985 C 0.19699 0.04264 0.83723 0.0
C986 C 0.16578 0.07057 0.82183 0.0
C987 C 0.15753 0.07503 0.84565 0.0
C988 C 0.16875 0.0628 0.86515 0.0
H989 H 0.01842 0.13709 0.89275 0.0
H990 H 0.0546 0.11115 0.88659 0.0
C991 C 0.18821 0.04667 0.86098 0.0
C992 C 0.1366 0.09177 0.85015 0.0
H993 H 0.12043 0.14478 0.87923 0.0
C994 C 0.11348 0.08545 0.84081 0.0
C995 C 0.13926 0.11356 0.86391 0.0
C996 C 0.16388 0.12166 0.87359 0.0
C997 C 0.0928 0.10017 0.84523 0.0
C998 C 0.09533 0.1216 0.85955 0.0
C999 C 0.11853 0.12817 0.86851 0.0
C1000 C 0.07415 0.13782 0.86477 0.0
C1001 C 0.06847 0.09286 0.83428 0.0
C1002 C 0.07359 0.16169 0.85526 0.0
C1003 C 0.05301 0.17657 0.85877 0.0
C1004 C 0.03264 0.16791 0.87202 0.0
C1005 C 0.03372 0.14431 0.88239 0.0
C1006 C 0.0543 0.1294 0.87876 0.0
H1007 H 0.07067 0.07899 0.8196 0.0
H1008 H 0.05667 0.0848 0.84869 0.0
H1009 H 0.05882 0.10911 0.8267 0.0
H1010 H 0.08881 0.16856 0.84454 0.0
H1011 H 0.05289 0.1947 0.85066 0.0
H1012 H 0.36539 0.01857 0.89546 0.0
H1013 H 0.39149 0.05485 0.89081 0.0
H1014 H 0.33688 0.08841 0.84477 0.0
H1015 H 0.31059 0.05241 0.84937 0.0
H1016 H 0.40963 0.07339 0.84567 0.0
H1017 H 0.35341 0.14245 0.89498 0.0
H1018 H 0.34903 0.1098 0.89872 0.0
H1019 H 0.33713 0.12515 0.87228 0.0
C1020 C 0.35878 0.03377 0.88458 0.0
C1021 C 0.33587 0.03254 0.87278 0.0
C1022 C 0.37375 0.05446 0.8819 0.0
C1023 C 0.36601 0.07437 0.86762 0.0
C1024 C 0.34302 0.07339 0.85617 0.0
H1025 H 0.45244 0.19199 0.80321 0.0
H1026 H 0.42499 0.15697 0.81043 0.0
C1027 C 0.32808 0.05272 0.85875 0.0
C1028 C 0.38246 0.09564 0.86367 0.0
H1029 H 0.38731 0.15755 0.8722 0.0
C1030 C 0.40481 0.09178 0.85153 0.0
C1031 C 0.37612 0.11957 0.87144 0.0
C1032 C 0.35272 0.12457 0.88527 0.0
C1033 C 0.42086 0.11133 0.84662 0.0
C1034 C 0.41428 0.1353 0.85395 0.0
C1035 C 0.39213 0.13914 0.86641 0.0
C1036 C 0.43056 0.15655 0.84944 0.0
C1037 C 0.44487 0.10625 0.83391 0.0
C1038 C 0.44263 0.16783 0.86898 0.0
C1039 C 0.45836 0.18765 0.86491 0.0
C1040 C 0.4619 0.1969 0.84124 0.0
C1041 C 0.44987 0.18543 0.82166 0.0
C1042 C 0.43424 0.16546 0.82574 0.0
H1043 H 0.44902 0.0863 0.83304 0.0
H1044 H 0.444 0.11346 0.81502 0.0
H1045 H 0.46019 0.11574 0.84338 0.0
H1046 H 0.44023 0.16099 0.88736 0.0
H1047 H 0.46819 0.19521 0.88027 0.0
H1048 H 0.48493 0.36739 0.89651 0.0
H1049 H 0.44858 0.39336 0.89165 0.0
H1050 H 0.41368 0.33679 0.84905 0.0
H1051 H 0.44977 0.31063 0.85386 0.0
H1052 H 0.42915 0.40929 0.84595 0.0
H1053 H 0.36092 0.35633 0.89977 0.0
H1054 H 0.39363 0.352 0.90306 0.0
H1055 H 0.37768 0.33875 0.87762 0.0
C1056 C 0.46941 0.36032 0.88637 0.0
C1057 C 0.47031 0.33692 0.87555 0.0
C1058 C 0.44869 0.37522 0.88356 0.0
C1059 C 0.42841 0.3669 0.87015 0.0
C1060 C 0.42901 0.3434 0.85976 0.0
H1061 H 0.31136 0.45325 0.80425 0.0
H1062 H 0.34623 0.42574 0.81181 0.0
C1063 C 0.44973 0.32853 0.86245 0.0
C1064 C 0.40715 0.3833 0.86587 0.0
H1065 H 0.34554 0.38917 0.87576 0.0
C1066 C 0.41088 0.40495 0.85252 0.0
C1067 C 0.3834 0.37762 0.87459 0.0
C1068 C 0.37858 0.35503 0.88974 0.0
C1069 C 0.39136 0.42095 0.84735 0.0
C1070 C 0.3675 0.41499 0.85559 0.0
C1071 C 0.36383 0.39353 0.86926 0.0
C1072 C 0.34625 0.43123 0.85085 0.0
C1073 C 0.39643 0.44428 0.83341 0.0
C1074 C 0.33464 0.44319 0.87029 0.0
C1075 C 0.31484 0.45888 0.86602 0.0
C1076 C 0.30595 0.46255 0.84225 0.0
C1077 C 0.31768 0.45061 0.82277 0.0
C1078 C 0.3376 0.43496 0.82705 0.0
H1079 H 0.41635 0.44858 0.83271 0.0
H1080 H 0.3897 0.4422 0.81445 0.0
H1081 H 0.38661 0.46003 0.84178 0.0
H1082 H 0.34123 0.44074 0.88875 0.0
H1083 H 0.307 0.4686 0.88133 0.0
H1084 H 0.19119 0.45118 0.84813 0.0
H1085 H 0.16559 0.4151 0.84106 0.0
H1086 H 0.10967 0.44506 0.88799 0.0
H1087 H 0.13524 0.48128 0.89541 0.0
H1088 H 0.11896 0.39418 0.89517 0.0
H1089 H 0.10379 0.4169 0.7977 0.0
H1090 H 0.13547 0.41544 0.80668 0.0
H1091 H 0.11592 0.4388 0.81924 0.0
C1092 C 0.1735 0.45012 0.85708 0.0
C1093 C 0.16518 0.4693 0.87216 0.0
C1094 C 0.15886 0.4295 0.85292 0.0
C1095 C 0.13557 0.42765 0.86363 0.0
C1096 C 0.12754 0.44625 0.87942 0.0
H1097 H 0.01457 0.33374 0.82193 0.0
H1098 H 0.04248 0.36792 0.83024 0.0
C1099 C 0.14219 0.46693 0.88363 0.0
C1100 C 0.11938 0.40654 0.85794 0.0
H1101 H 0.08894 0.37839 0.81129 0.0
C1102 C 0.11238 0.3907 0.87685 0.0
C1103 C 0.1106 0.40226 0.83406 0.0
C1104 C 0.11661 0.41934 0.81325 0.0
C1105 C 0.09703 0.37045 0.87245 0.0
C1106 C 0.08875 0.36583 0.84845 0.0
C1107 C 0.09553 0.38185 0.82961 0.0
C1108 C 0.07234 0.34492 0.84265 0.0
C1109 C 0.08938 0.35448 0.89359 0.0
C1110 C 0.08014 0.32063 0.84621 0.0
C1111 C 0.06425 0.30105 0.84139 0.0
C1112 C 0.04027 0.30545 0.83298 0.0
C1113 C 0.03289 0.32976 0.82851 0.0
C1114 C 0.04877 0.34931 0.83333 0.0
H1115 H 0.09253 0.3637 0.91137 0.0
H1116 H 0.06967 0.34946 0.8922 0.0
H1117 H 0.1003 0.3373 0.89334 0.0
H1118 H 0.09851 0.31682 0.85273 0.0
H1119 H 0.07079 0.28252 0.84417 0.0
H1120 H 0.55982 0.20215 0.28968 0.0
H1121 H 0.58573 0.18165 0.25926 0.0
H1122 H 0.62641 0.14622 0.31672 0.0
H1123 H 0.60058 0.16616 0.34707 0.0
H1124 H 0.63744 0.18041 0.25161 0.0
H1125 H 0.60062 0.08863 0.27616 0.0
H1126 H 0.58634 0.11681 0.28602 0.0
H1127 H 0.61315 0.10541 0.30141 0.0
C1128 C 0.57443 0.19018 0.29582 0.0
C1129 C 0.57789 0.18551 0.32078 0.0
C1130 C 0.5892 0.17848 0.27844 0.0
C1131 C 0.60761 0.16202 0.28578 0.0
C1132 C 0.61192 0.15839 0.31067 0.0
H1133 H 0.70371 0.06076 0.20788 0.0
H1134 H 0.68509 0.08701 0.23913 0.0
C1135 C 0.59714 0.16989 0.32799 0.0
C1136 C 0.62179 0.14787 0.26753 0.0
H1137 H 0.63403 0.08942 0.24862 0.0
C1138 C 0.63669 0.16053 0.25089 0.0
C1139 C 0.62075 0.12191 0.26669 0.0
C1140 C 0.6042 0.10736 0.28336 0.0
C1141 C 0.65083 0.14786 0.23357 0.0
C1142 C 0.64976 0.12193 0.23274 0.0
C1143 C 0.63497 0.1093 0.24947 0.0
C1144 C 0.66263 0.10751 0.21377 0.0
C1145 C 0.667 0.1623 0.21646 0.0
C1146 C 0.65611 0.11035 0.18925 0.0
C1147 C 0.66658 0.09539 0.17144 0.0
C1148 C 0.68376 0.07716 0.17779 0.0
C1149 C 0.69061 0.07464 0.20236 0.0
C1150 C 0.67999 0.0896 0.22023 0.0
H1151 H 0.67098 0.18094 0.22365 0.0
H1152 H 0.68464 0.15263 0.21318 0.0
H1153 H 0.65749 0.16441 0.19871 0.0
H1154 H 0.64239 0.12371 0.18394 0.0
H1155 H 0.66086 0.09789 0.15271 0.0
H1156 H 0.29674 0.56088 0.28614 0.0
H1157 H 0.31514 0.5863 0.25407 0.0
H1158 H 0.35907 0.62369 0.30782 0.0
H1159 H 0.34077 0.59877 0.33987 0.0
H1160 H 0.33792 0.65527 0.27228 0.0
H1161 H 0.38668 0.57564 0.2312 0.0
H1162 H 0.35401 0.57237 0.23441 0.0
H1163 H 0.37296 0.57435 0.2611 0.0
C1164 C 0.31015 0.57466 0.29115 0.0
C1165 C 0.31744 0.57758 0.31556 0.0
C1166 C 0.32071 0.58908 0.2728 0.0
C1167 C 0.33871 0.60661 0.27858 0.0
C1168 C 0.34528 0.61021 0.30298 0.0
H1169 H 0.44097 0.70295 0.20444 0.0
H1170 H 0.41388 0.68307 0.23412 0.0
C1171 C 0.33483 0.59584 0.32127 0.0
C1172 C 0.3516 0.62058 0.25928 0.0
H1173 H 0.39202 0.61398 0.21226 0.0
C1174 C 0.34966 0.64628 0.25904 0.0
C1175 C 0.367 0.60877 0.24218 0.0
C1176 C 0.37054 0.58129 0.24223 0.0
C1177 C 0.36264 0.66051 0.24201 0.0
C1178 C 0.37829 0.64871 0.22512 0.0
C1179 C 0.37998 0.62299 0.22522 0.0
C1180 C 0.39333 0.6625 0.20722 0.0
C1181 C 0.35926 0.68799 0.24207 0.0
C1182 C 0.39089 0.65744 0.18231 0.0
C1183 C 0.40646 0.66853 0.1654 0.0
C1184 C 0.42489 0.68494 0.17302 0.0
C1185 C 0.42689 0.69052 0.19795 0.0
C1186 C 0.41133 0.67927 0.21492 0.0
H1187 H 0.34189 0.69341 0.25124 0.0
H1188 H 0.37468 0.6966 0.25213 0.0
H1189 H 0.35918 0.69542 0.22324 0.0
H1190 H 0.37717 0.64453 0.17597 0.0
H1191 H 0.40427 0.66386 0.14634 0.0
H1192 H 0.79725 0.44067 0.20888 0.0
H1193 H 0.81608 0.41457 0.24011 0.0
H1194 H 0.86172 0.38073 0.18543 0.0
H1195 H 0.84297 0.40635 0.15418 0.0
H1196 H 0.84124 0.34713 0.21949 0.0
H1197 H 0.887 0.4266 0.26407 0.0
H1198 H 0.85428 0.42907 0.26068 0.0
H1199 H 0.87352 0.42859 0.23411 0.0
C1200 C 0.81114 0.42754 0.20347 0.0
C1201 C 0.81876 0.42581 0.17905 0.0
C1202 C 0.82194 0.41272 0.22134 0.0
C1203 C 0.84053 0.396 0.21508 0.0
C1204 C 0.84747 0.39358 0.19064 0.0
H1205 H 0.9439 0.30047 0.28951 0.0
H1206 H 0.9173 0.32018 0.25924 0.0
C1207 C 0.83676 0.40835 0.17282 0.0
C1208 C 0.85362 0.38171 0.23397 0.0
H1209 H 0.89278 0.38782 0.28206 0.0
C1210 C 0.85245 0.35597 0.23326 0.0
C1211 C 0.86835 0.39335 0.25174 0.0
C1212 C 0.87112 0.42091 0.25269 0.0
C1213 C 0.86545 0.34153 0.2501 0.0
C1214 C 0.8803 0.35319 0.26776 0.0
C1215 C 0.88133 0.37893 0.26851 0.0
C1216 C 0.89497 0.33926 0.28582 0.0
C1217 C 0.86289 0.31398 0.24905 0.0
C1218 C 0.8913 0.34351 0.31072 0.0
C1219 C 0.90656 0.33254 0.32795 0.0
C1220 C 0.92591 0.31708 0.32066 0.0
C1221 C 0.92911 0.31218 0.29571 0.0
C1222 C 0.91384 0.32333 0.27841 0.0
H1223 H 0.84614 0.30834 0.23896 0.0
H1224 H 0.87903 0.30614 0.23948 0.0
H1225 H 0.86219 0.30598 0.26764 0.0
H1226 H 0.87687 0.35574 0.31683 0.0
H1227 H 0.90343 0.3366 0.34701 0.0
H1228 H 0.16753 0.90095 0.34575 0.0
H1229 H 0.14832 0.87473 0.31533 0.0
H1230 H 0.18324 0.91619 0.25808 0.0
H1231 H 0.20302 0.94247 0.28859 0.0
H1232 H 0.11586 0.89126 0.28114 0.0
H1233 H 0.19491 0.84537 0.23646 0.0
H1234 H 0.19755 0.8609 0.26541 0.0
H1235 H 0.19709 0.87825 0.23757 0.0
C1236 C 0.17145 0.90437 0.32671 0.0
C1237 C 0.18673 0.92393 0.31959 0.0
C1238 C 0.16044 0.8893 0.30934 0.0
C1239 C 0.16445 0.89338 0.28446 0.0
C1240 C 0.18026 0.91242 0.27721 0.0
H1241 H 0.09598 0.84295 0.1528 0.0
H1242 H 0.12198 0.86133 0.18396 0.0
C1243 C 0.19145 0.9275 0.29466 0.0
C1244 C 0.15034 0.879 0.26631 0.0
H1245 H 0.1559 0.84065 0.21742 0.0
C1246 C 0.12461 0.88002 0.26734 0.0
C1247 C 0.16182 0.86443 0.2483 0.0
C1248 C 0.18936 0.86193 0.24692 0.0
C1249 C 0.11001 0.86728 0.25054 0.0
C1250 C 0.12146 0.8528 0.23244 0.0
C1251 C 0.1472 0.85166 0.23144 0.0
C1252 C 0.10695 0.8399 0.21356 0.0
C1253 C 0.08246 0.87005 0.25182 0.0
C1254 C 0.09025 0.8213 0.21982 0.0
C1255 C 0.07521 0.81071 0.202 0.0
C1256 C 0.07669 0.81856 0.17764 0.0
C1257 C 0.09416 0.83656 0.17139 0.0
C1258 C 0.10914 0.84706 0.18916 0.0
H1259 H 0.07691 0.88583 0.26339 0.0
H1260 H 0.07456 0.8726 0.23334 0.0
H1261 H 0.07438 0.85315 0.25976 0.0
H1262 H 0.08857 0.81526 0.23854 0.0
H1263 H 0.06208 0.7968 0.20742 0.0
H1264 H 0.29715 0.94228 0.7882 0.0
H1265 H 0.31584 0.91569 0.75724 0.0
H1266 H 0.35635 0.87774 0.81321 0.0
H1267 H 0.33779 0.90384 0.84411 0.0
H1268 H 0.3667 0.9126 0.74886 0.0
H1269 H 0.32861 0.82123 0.77244 0.0
H1270 H 0.31505 0.84956 0.78301 0.0
H1271 H 0.34178 0.83726 0.79785 0.0
C1272 C 0.30973 0.92802 0.79394 0.0
C1273 C 0.31601 0.92526 0.81864 0.0
C1274 C 0.32039 0.91286 0.77625 0.0
C1275 C 0.33722 0.89454 0.78299 0.0
C1276 C 0.34304 0.8914 0.80765 0.0
H1277 H 0.44219 0.80044 0.70904 0.0
H1278 H 0.41559 0.82069 0.73909 0.0
C1279 C 0.33253 0.90654 0.82528 0.0
C1280 C 0.35043 0.88011 0.76425 0.0
H1281 H 0.36317 0.82162 0.74564 0.0
C1282 C 0.36571 0.89273 0.74795 0.0
C1283 C 0.34933 0.85417 0.76336 0.0
C1284 C 0.33265 0.83973 0.77996 0.0
C1285 C 0.38037 0.88011 0.73111 0.0
C1286 C 0.37932 0.85416 0.73021 0.0
C1287 C 0.36395 0.8415 0.74642 0.0
C1288 C 0.39388 0.84005 0.71224 0.0
C1289 C 0.39736 0.89465 0.71486 0.0
C1290 C 0.38989 0.8436 0.68729 0.0
C1291 C 0.40503 0.83224 0.6702 0.0
C1292 C 0.42437 0.81685 0.67769 0.0
C1293 C 0.42752 0.81224 0.7027 0.0
C1294 C 0.41236 0.82379 0.71986 0.0
H1295 H 0.40071 0.9134 0.72209 0.0
H1296 H 0.4153 0.8852 0.71272 0.0
H1297 H 0.38893 0.89652 0.69656 0.0
H1298 H 0.37537 0.85563 0.68102 0.0
H1299 H 0.40181 0.83593 0.65108 0.0
H1300 H 0.59714 0.34172 0.84408 0.0
H1301 H 0.62214 0.36023 0.81222 0.0
H1302 H 0.58589 0.31559 0.75827 0.0
H1303 H 0.56037 0.29699 0.79014 0.0
H1304 H 0.65438 0.33947 0.77725 0.0
H1305 H 0.57457 0.3868 0.73489 0.0
H1306 H 0.57309 0.37315 0.76481 0.0
H1307 H 0.57172 0.35409 0.73815 0.0
C1308 C 0.59447 0.33567 0.82547 0.0
C1309 C 0.5765 0.31803 0.81965 0.0
C1310 C 0.60889 0.34625 0.8073 0.0
C1311 C 0.60563 0.33953 0.78289 0.0
C1312 C 0.5884 0.32129 0.777 0.0
H1313 H 0.66356 0.4034 0.65047 0.0
H1314 H 0.64421 0.37688 0.68056 0.0
C1315 C 0.57392 0.31061 0.79524 0.0
C1316 C 0.61966 0.35251 0.7637 0.0
H1317 H 0.61305 0.39239 0.71625 0.0
C1318 C 0.64539 0.35096 0.76381 0.0
C1319 C 0.60784 0.36761 0.74635 0.0
C1320 C 0.58031 0.37077 0.74604 0.0
C1321 C 0.65965 0.36399 0.74684 0.0
C1322 C 0.64782 0.37928 0.72965 0.0
C1323 C 0.62208 0.38064 0.72944 0.0
C1324 C 0.66159 0.3941 0.71158 0.0
C1325 C 0.68718 0.36103 0.74725 0.0
C1326 C 0.67804 0.41252 0.71901 0.0
C1327 C 0.6893 0.42777 0.70176 0.0
C1328 C 0.68404 0.42502 0.67683 0.0
C1329 C 0.66795 0.40618 0.66951 0.0
C1330 C 0.65686 0.39094 0.68669 0.0
H1331 H 0.69277 0.34399 0.75689 0.0
H1332 H 0.69478 0.3606 0.72849 0.0
H1333 H 0.69546 0.37684 0.75699 0.0
H1334 H 0.68158 0.4156 0.73817 0.0
H1335 H 0.7015 0.44216 0.708 0.0
H1336 H 0.09718 0.65956 0.6541 0.0
H1337 H 0.12266 0.64131 0.68577 0.0
H1338 H 0.08783 0.68707 0.73971 0.0
H1339 H 0.06189 0.70542 0.70806 0.0
H1340 H 0.15574 0.66239 0.72014 0.0
H1341 H 0.07614 0.61616 0.76404 0.0
H1342 H 0.07441 0.62937 0.73394 0.0
H1343 H 0.0734 0.64882 0.76033 0.0
C1344 C 0.09494 0.66591 0.67266 0.0
C1345 C 0.07724 0.6838 0.67857 0.0
C1346 C 0.10963 0.65549 0.69073 0.0
C1347 C 0.1069 0.6626 0.71509 0.0
C1348 C 0.08994 0.68108 0.72102 0.0
H1349 H 0.16488 0.60026 0.84805 0.0
H1350 H 0.146 0.62674 0.81763 0.0
C1351 C 0.07521 0.69161 0.70291 0.0
C1352 C 0.12109 0.64976 0.73425 0.0
H1353 H 0.11475 0.61079 0.78248 0.0
C1354 C 0.14683 0.65118 0.73386 0.0
C1355 C 0.10937 0.63502 0.75197 0.0
C1356 C 0.08183 0.63199 0.7526 0.0
C1357 C 0.16119 0.63842 0.75096 0.0
C1358 C 0.14945 0.62353 0.76856 0.0
C1359 C 0.12371 0.62226 0.76899 0.0
C1360 C 0.1633 0.60901 0.78684 0.0
C1361 C 0.18872 0.64127 0.75024 0.0
C1362 C 0.17964 0.5904 0.77967 0.0
C1363 C 0.19065 0.57519 0.79712 0.0
C1364 C 0.18521 0.57818 0.82198 0.0
C1365 C 0.16937 0.5973 0.82905 0.0
C1366 C 0.15855 0.61251 0.81168 0.0
H1367 H 0.19429 0.65813 0.74028 0.0
H1368 H 0.19651 0.64198 0.76892 0.0
H1369 H 0.19685 0.62527 0.74068 0.0
H1370 H 0.18319 0.58705 0.76055 0.0
H1371 H 0.20266 0.56056 0.79107 0.0
H1372 H 0.94121 0.20467 0.78852 0.0
H1373 H 0.91498 0.18571 0.75747 0.0
H1374 H 0.87776 0.14414 0.81318 0.0
H1375 H 0.90355 0.16298 0.84421 0.0
H1376 H 0.91284 0.13473 0.74892 0.0
H1377 H 0.82082 0.17138 0.77241 0.0
H1378 H 0.84893 0.18536 0.78302 0.0
H1379 H 0.8371 0.15837 0.79775 0.0
C1380 C 0.92719 0.19179 0.79419 0.0
C1381 C 0.92455 0.1853 0.81885 0.0
C1382 C 0.91224 0.18097 0.77644 0.0
C1383 C 0.89423 0.16378 0.78309 0.0
C1384 C 0.89119 0.15773 0.80771 0.0
H1385 H 0.80153 0.05862 0.70776 0.0
H1386 H 0.82148 0.08503 0.73814 0.0
C1387 C 0.90614 0.16841 0.82541 0.0
C1388 C 0.88006 0.15046 0.76425 0.0
H1389 H 0.82184 0.13725 0.74515 0.0
C1390 C 0.89296 0.13549 0.7479 0.0
C1391 C 0.85412 0.15127 0.76321 0.0
C1392 C 0.8394 0.16762 0.77989 0.0
C1393 C 0.88061 0.12086 0.73083 0.0
C1394 C 0.85467 0.12164 0.72978 0.0
C1395 C 0.84172 0.13669 0.74605 0.0
C1396 C 0.84083 0.10711 0.71158 0.0
C1397 C 0.89545 0.10419 0.71453 0.0
C1398 C 0.84451 0.11135 0.68669 0.0
C1399 C 0.83333 0.09631 0.6694 0.0
C1400 C 0.818 0.07683 0.67664 0.0
C1401 C 0.8133 0.07339 0.7016 0.0
C1402 C 0.82467 0.08845 0.71896 0.0
H1403 H 0.91418 0.10096 0.72187 0.0
H1404 H 0.8862 0.08618 0.71214 0.0
H1405 H 0.89738 0.11283 0.69633 0.0
H1406 H 0.85648 0.12601 0.68062 0.0
H1407 H 0.83708 0.09974 0.65033 0.0
H1408 H 0.54687 0.12983 0.47398 0.0
H1409 H 0.57718 0.11149 0.50153 0.0
H1410 H 0.63574 0.13883 0.45616 0.0
H1411 H 0.6058 0.15752 0.4289 0.0
H1412 H 0.61314 0.07676 0.49267 0.0
H1413 H 0.655 0.16419 0.52312 0.0
H1414 H 0.62616 0.163 0.50699 0.0
H1415 H 0.6547 0.16103 0.49059 0.0
C1416 C 0.5662 0.13198 0.46992 0.0
C1417 C 0.57391 0.14529 0.44934 0.0
C1418 C 0.58348 0.12148 0.48566 0.0
C1419 C 0.60871 0.1242 0.48112 0.0
C1420 C 0.61639 0.13702 0.46033 0.0
H1421 H 0.73105 0.03927 0.53612 0.0
H1422 H 0.69745 0.05696 0.51203 0.0
C1423 C 0.5992 0.14757 0.44468 0.0
C1424 C 0.62712 0.11336 0.49782 0.0
H1425 H 0.67737 0.12761 0.53215 0.0
C1426 C 0.62707 0.08787 0.50148 0.0
C1427 C 0.64505 0.12795 0.50959 0.0
C1428 C 0.64513 0.15558 0.5076 0.0
C1429 C 0.64496 0.07647 0.51601 0.0
C1430 C 0.66365 0.09093 0.52673 0.0
C1431 C 0.66323 0.1165 0.52366 0.0
C1432 C 0.68383 0.07998 0.54123 0.0
C1433 C 0.64352 0.04909 0.51992 0.0
C1434 C 0.68783 0.08765 0.56532 0.0
C1435 C 0.70717 0.07784 0.57888 0.0
C1436 C 0.72275 0.06013 0.56861 0.0
C1437 C 0.71903 0.05272 0.54443 0.0
C1438 C 0.69976 0.06264 0.53079 0.0
H1439 H 0.62467 0.04202 0.51666 0.0
H1440 H 0.65604 0.03978 0.50692 0.0
H1441 H 0.64917 0.04406 0.5387 0.0
H1442 H 0.67595 0.10122 0.57363 0.0
H1443 H 0.71006 0.08416 0.59737 0.0
H1444 H 0.35024 0.60787 0.42244 0.0
H1445 H 0.36976 0.63786 0.44911 0.0
H1446 H 0.38628 0.58069 0.50092 0.0
H1447 H 0.36705 0.55033 0.47408 0.0
H1448 H 0.35669 0.65 0.496 0.0
H1449 H 0.4525 0.61522 0.49253 0.0
H1450 H 0.42921 0.60553 0.4712 0.0
H1451 H 0.42999 0.59282 0.5014 0.0
C1452 C 0.35816 0.60157 0.43942 0.0
C1453 C 0.35716 0.57666 0.44609 0.0
C1454 C 0.36929 0.61878 0.45466 0.0
C1455 C 0.37971 0.61147 0.47685 0.0
C1456 C 0.37876 0.58664 0.48364 0.0
H1457 H 0.4156 0.7121 0.59501 0.0
H1458 H 0.39812 0.67926 0.5698 0.0
C1459 C 0.36766 0.56934 0.46834 0.0
C1460 C 0.39075 0.63014 0.49312 0.0
H1461 H 0.44442 0.64768 0.52015 0.0
C1462 C 0.37587 0.64949 0.5013 0.0
C1463 C 0.41583 0.62956 0.49977 0.0
C1464 C 0.43292 0.60981 0.49063 0.0
C1465 C 0.38536 0.66827 0.51602 0.0
C1466 C 0.41031 0.66742 0.52309 0.0
C1467 C 0.42525 0.64814 0.51483 0.0
C1468 C 0.42134 0.68667 0.53865 0.0
C1469 C 0.36875 0.68916 0.5234 0.0
C1470 C 0.44054 0.7013 0.52968 0.0
C1471 C 0.45067 0.71984 0.54413 0.0
C1472 C 0.44187 0.72382 0.56781 0.0
C1473 C 0.42279 0.70911 0.57685 0.0
C1474 C 0.4127 0.69055 0.56243 0.0
H1475 H 0.35218 0.69026 0.51163 0.0
H1476 H 0.36255 0.68629 0.54244 0.0
H1477 H 0.3786 0.70699 0.52252 0.0
H1478 H 0.44747 0.69856 0.51138 0.0
H1479 H 0.46534 0.73108 0.53686 0.0
H1480 H 0.89841 0.34776 0.42688 0.0
H1481 H 0.8682 0.36725 0.45328 0.0
H1482 H 0.92544 0.38691 0.50392 0.0
H1483 H 0.95605 0.36771 0.4773 0.0
H1484 H 0.8569 0.35538 0.5007 0.0
H1485 H 0.88907 0.45192 0.49367 0.0
H1486 H 0.89916 0.4282 0.473 0.0
H1487 H 0.91207 0.43026 0.50305 0.0
C1488 C 0.90469 0.35634 0.44355 0.0
C1489 C 0.9297 0.35624 0.44995 0.0
C1490 C 0.88735 0.36746 0.45863 0.0
C1491 C 0.8946 0.37876 0.48041 0.0
C1492 C 0.91952 0.37869 0.48695 0.0
H1493 H 0.79299 0.41655 0.59729 0.0
H1494 H 0.82646 0.39907 0.57291 0.0
C1495 C 0.93697 0.3676 0.47179 0.0
C1496 C 0.87578 0.38985 0.49648 0.0
H1497 H 0.85673 0.44401 0.52143 0.0
C1498 C 0.85687 0.37475 0.50528 0.0
C1499 C 0.87567 0.41517 0.50217 0.0
C1500 C 0.89493 0.43244 0.49234 0.0
C1501 C 0.83783 0.38427 0.51964 0.0
C1502 C 0.83796 0.4095 0.5257 0.0
C1503 C 0.85682 0.42464 0.51688 0.0
C1504 C 0.81833 0.42059 0.54075 0.0
C1505 C 0.81741 0.36738 0.52769 0.0
C1506 C 0.80307 0.43884 0.53091 0.0
C1507 C 0.78416 0.44895 0.54488 0.0
C1508 C 0.7804 0.4411 0.56891 0.0
C1509 C 0.79576 0.423 0.57882 0.0
C1510 C 0.81469 0.4129 0.56488 0.0
H1511 H 0.81687 0.35027 0.51669 0.0
H1512 H 0.82036 0.36217 0.547 0.0
H1513 H 0.79931 0.37664 0.5263 0.0
H1514 H 0.80563 0.44502 0.51232 0.0
H1515 H 0.77244 0.4629 0.53695 0.0
H1516 H 0.15591 0.89542 0.42536 0.0
H1517 H 0.13673 0.86468 0.45141 0.0
H1518 H 0.11518 0.92127 0.502 0.0
H1519 H 0.13405 0.95239 0.47574 0.0
H1520 H 0.14809 0.85322 0.49874 0.0
H1521 H 0.0511 0.88372 0.49097 0.0
H1522 H 0.07488 0.89445 0.47069 0.0
H1523 H 0.07214 0.90711 0.50079 0.0
C1524 C 0.14697 0.90143 0.44194 0.0
C1525 C 0.14644 0.92641 0.44843 0.0
C1526 C 0.13603 0.88379 0.45682 0.0
C1527 C 0.12429 0.8907 0.47848 0.0
C1528 C 0.12374 0.9156 0.48511 0.0
H1529 H 0.08773 0.78877 0.59536 0.0
H1530 H 0.1052 0.82193 0.57058 0.0
C1531 C 0.13464 0.93334 0.47015 0.0
C1532 C 0.11337 0.87159 0.49435 0.0
H1533 H 0.05937 0.85172 0.51906 0.0
C1534 C 0.1287 0.85289 0.50321 0.0
C1535 C 0.08801 0.87106 0.49988 0.0
C1536 C 0.07048 0.89001 0.48994 0.0
C1537 C 0.11938 0.8337 0.51752 0.0
C1538 C 0.09413 0.83346 0.52351 0.0
C1539 C 0.07876 0.85208 0.51457 0.0
C1540 C 0.08326 0.8138 0.53871 0.0
C1541 C 0.13656 0.81354 0.5256 0.0
C1542 C 0.06477 0.79861 0.52918 0.0
C1543 C 0.05462 0.7799 0.5434 0.0
C1544 C 0.06268 0.77627 0.56739 0.0
C1545 C 0.08111 0.79146 0.57694 0.0
C1546 C 0.09122 0.8102 0.56276 0.0
H1547 H 0.15353 0.81303 0.51437 0.0
H1548 H 0.14203 0.81681 0.54479 0.0
H1549 H 0.12748 0.79532 0.52456 0.0
H1550 H 0.05837 0.80111 0.51066 0.0
H1551 H 0.04043 0.7683 0.53573 0.0
H1552 H 0.20919 0.91719 0.89939 0.0
H1553 H 0.17517 0.90029 0.92341 0.0
H1554 H 0.19662 0.94536 0.98444 0.0
H1555 H 0.23023 0.96278 0.96011 0.0
H1556 H 0.17701 0.87453 0.96586 0.0
H1557 H 0.12353 0.96011 0.97887 0.0
H1558 H 0.14797 0.95758 0.9568 0.0
H1559 H 0.15494 0.96271 0.98842 0.0
C1560 C 0.20634 0.92368 0.91783 0.0
C1561 C 0.22189 0.94153 0.92788 0.0
C1562 C 0.18704 0.91398 0.93154 0.0
C1563 C 0.18306 0.92194 0.95554 0.0
C1564 C 0.19896 0.93944 0.96575 0.0
H1565 H 0.10456 0.84739 0.06946 0.0
H1566 H 0.1346 0.86581 0.0421 0.0
C1567 C 0.21822 0.94921 0.95198 0.0
C1568 C 0.16287 0.91119 0.97016 0.0
H1569 H 0.11183 0.92577 0.00327 0.0
C1570 C 0.16267 0.88571 0.97391 0.0
C1571 C 0.14395 0.92577 0.98031 0.0
C1572 C 0.14239 0.95303 0.97572 0.0
C1573 C 0.14446 0.87448 0.98813 0.0
C1574 C 0.12624 0.8892 -0.00075 0.0
C1575 C 0.12598 0.91458 0.99492 0.0
C1576 C 0.10774 0.87861 0.016 0.0
C1577 C 0.14483 0.84693 0.99099 0.0
C1578 C 0.08257 0.88039 0.01079 0.0
C1579 C 0.06523 0.87 0.02655 0.0
C1580 C 0.07282 0.85779 0.04782 0.0
C1581 C 0.09805 0.85651 0.05316 0.0
C1582 C 0.1153 0.8669 0.03746 0.0
H1583 H 0.15524 0.83795 0.97604 0.0
H1584 H 0.15394 0.84217 0.00844 0.0
H1585 H 0.12592 0.83931 0.99132 0.0
H1586 H 0.07638 0.88953 0.99438 0.0
H1587 H 0.04594 0.87136 0.02195 0.0
H1588 H 0.66483 0.05747 0.01119 0.0
H1589 H 0.6463 0.08884 0.98497 0.0
H1590 H 0.61289 0.12252 0.0479 0.0
H1591 H 0.63215 0.09194 0.0742 0.0
H1592 H 0.60072 0.10278 0.97489 0.0
H1593 H 0.64874 0.17991 0.01983 0.0
H1594 H 0.65629 0.1483 0.02599 0.0
H1595 H 0.63068 0.16268 0.04109 0.0
C1596 C 0.65341 0.0715 0.01937 0.0
C1597 C 0.65015 0.07246 0.04474 0.0
C1598 C 0.64287 0.08943 0.0044 0.0
C1599 C 0.62875 0.10844 0.01454 0.0
C1600 C 0.6244 0.10856 0.03974 0.0
H1601 H 0.52995 0.20563 0.93604 0.0
H1602 H 0.5486 0.17204 0.95933 0.0
C1603 C 0.63526 0.09096 0.05473 0.0
C1604 C 0.61875 0.12831 -0.00109 0.0
H1605 H 0.61561 0.19063 0.99346 0.0
C1606 C 0.60411 0.122 0.97882 0.0
C1607 C 0.62363 0.15338 0.00371 0.0
C1608 C 0.64092 0.16147 0.02366 0.0
C1609 C 0.59369 0.14008 0.96379 0.0
C1610 C 0.59736 0.16517 0.9695 0.0
C1611 C 0.61248 0.17143 0.98925 0.0
C1612 C 0.58589 0.18533 0.95526 0.0
C1613 C 0.57932 0.13202 0.94169 0.0
C1614 C 0.60046 0.20447 0.946 0.0
C1615 C 0.58972 0.22394 0.93332 0.0
C1616 C 0.56427 0.2245 0.92957 0.0
C1617 C 0.54966 0.20542 0.93872 0.0
C1618 C 0.56034 0.18615 0.95176 0.0
H1619 H 0.58503 0.11346 0.93552 0.0
H1620 H 0.55954 0.13111 0.94641 0.0
H1621 H 0.58167 0.14506 0.92632 0.0
H1622 H 0.62018 0.20431 0.94851 0.0
H1623 H 0.60132 0.2384 0.92616 0.0
H1624 H 0.29671 0.52414 0.93432 0.0
H1625 H 0.32959 0.53938 0.96091 0.0
H1626 H 0.29309 0.60951 0.96562 0.0
H1627 H 0.26014 0.59421 0.93933 0.0
H1628 H 0.36129 0.57779 0.95472 0.0
H1629 H 0.304 0.59317 0.03672 0.0
H1630 H 0.2933 0.57572 0.01088 0.0
H1631 H 0.29243 0.60874 0.01033 0.0
C1632 C 0.29575 0.54277 0.94116 0.0
C1633 C 0.27581 0.55793 0.93517 0.0
C1634 C 0.31448 0.55144 0.9563 0.0
C1635 C 0.31353 0.57541 0.96565 0.0
C1636 C 0.29384 0.59073 0.9592 0.0
H1637 H 0.40665 0.67138 0.04824 0.0
H1638 H 0.37645 0.65228 0.0214 0.0
C1639 C 0.27507 0.58201 0.94418 0.0
C1640 C 0.33338 0.58464 0.98169 0.0
H1641 H 0.34407 0.61095 0.03713 0.0
C1642 C 0.35759 0.58482 0.97284 0.0
C1643 C 0.32851 0.59368 0.00537 0.0
C1644 C 0.3032 0.59261 0.01651 0.0
C1645 C 0.37691 0.59455 0.98675 0.0
C1646 C 0.37185 0.6042 0.01009 0.0
C1647 C 0.34778 0.60365 0.01913 0.0
C1648 C 0.39115 0.61563 0.02526 0.0
C1649 C 0.40248 0.59512 0.97623 0.0
C1650 C 0.40945 0.60127 0.03622 0.0
C1651 C 0.42673 0.61211 0.05172 0.0
C1652 C 0.42596 0.63748 0.05644 0.0
C1653 C 0.40782 0.65181 0.045 0.0
C1654 C 0.39051 0.64094 0.02967 0.0
H1655 H 0.40271 0.59018 0.9566 0.0
H1656 H 0.41068 0.61365 0.97848 0.0
H1657 H 0.41424 0.58188 0.98623 0.0
H1658 H 0.41004 0.58164 0.03317 0.0
H1659 H 0.44044 0.60057 0.06026 0.0
H1660 H 0.84788 0.39696 0.07155 0.0
H1661 H 0.86701 0.36684 0.04479 0.0
H1662 H 0.89284 0.42499 0.99804 0.0
H1663 H 0.87408 0.45548 0.02508 0.0
H1664 H 0.85719 0.35816 0.99678 0.0
H1665 H 0.95488 0.38451 0.00938 0.0
H1666 H 0.93076 0.39527 0.02924 0.0
H1667 H 0.93516 0.40912 -0.00015 0.0
C1668 C 0.85776 0.40344 0.05567 0.0
C1669 C 0.85953 0.42866 0.05049 0.0
C1670 C 0.86866 0.38616 0.04038 0.0
C1671 C 0.88158 0.39367 0.0196 0.0
C1672 C 0.88337 0.41882 0.01427 0.0
H1673 H 0.91811 0.29469 0.90017 0.0
H1674 H 0.90146 0.328 0.92528 0.0
C1675 C 0.87252 0.43621 0.02966 0.0
C1676 C 0.89238 0.37496 0.00322 0.0
H1677 H 0.94649 0.35418 0.97955 0.0
C1678 C 0.87671 0.35729 0.99298 0.0
C1679 C 0.91789 0.37372 0.99855 0.0
C1680 C 0.93573 0.39151 0.00998 0.0
C1681 C 0.88584 0.3384 0.97819 0.0
C1682 C 0.91127 0.33748 0.97308 0.0
C1683 C 0.92698 0.35509 0.98335 0.0
C1684 C 0.92198 0.318 0.95756 0.0
C1685 C 0.86824 0.31925 0.96869 0.0
C1686 C 0.93951 0.30179 0.96721 0.0
C1687 C 0.94925 0.28303 0.95279 0.0
C1688 C 0.9417 0.28033 0.92851 0.0
C1689 C 0.92433 0.29664 0.91881 0.0
C1690 C 0.91467 0.31546 0.93318 0.0
H1691 H 0.85087 0.31891 0.97931 0.0
H1692 H 0.86359 0.32351 0.94948 0.0
H1693 H 0.87661 0.30067 0.96928 0.0
H1694 H 0.94541 0.30348 0.98597 0.0
H1695 H 0.96264 0.27059 0.96057 0.0
H1696 H 0.29214 0.91578 0.40134 0.0
H1697 H 0.32556 0.89848 0.42589 0.0
H1698 H 0.30524 0.94558 0.48578 0.0
H1699 H 0.27217 0.96334 0.46093 0.0
H1700 H 0.356 0.94426 0.47688 0.0
H1701 H 0.31635 0.85052 0.48253 0.0
H1702 H 0.32001 0.8619 0.45205 0.0
H1703 H 0.2988 0.87669 0.47239 0.0
C1704 C 0.29502 0.92251 0.41969 0.0
C1705 C 0.27987 0.94094 0.42931 0.0
C1706 C 0.31391 0.91251 0.43373 0.0
C1707 C 0.31769 0.92058 0.45772 0.0
C1708 C 0.30259 0.93911 0.4673 0.0
H1709 H 0.39788 0.84869 0.57207 0.0
H1710 H 0.36766 0.86801 0.54557 0.0
C1711 C 0.28373 0.94915 0.45321 0.0
C1712 C 0.33734 0.90966 0.47287 0.0
H1713 H 0.35647 0.8558 0.49827 0.0
C1714 C 0.35615 0.92492 0.48158 0.0
C1715 C 0.33729 0.88448 0.47913 0.0
C1716 C 0.31693 0.86744 0.47125 0.0
C1717 C 0.37503 0.91564 0.49637 0.0
C1718 C 0.37522 0.89036 0.50225 0.0
C1719 C 0.35637 0.87513 0.49355 0.0
C1720 C 0.39407 0.87946 0.51841 0.0
C1721 C 0.39421 0.93305 0.50609 0.0
C1722 C 0.419 0.87944 0.5119 0.0
C1723 C 0.43645 0.86846 0.52713 0.0
C1724 C 0.42917 0.85715 0.549 0.0
C1725 C 0.40416 0.85724 0.55538 0.0
C1726 C 0.38682 0.86825 0.54024 0.0
H1727 H 0.38827 0.9525 0.50463 0.0
H1728 H 0.39844 0.92897 0.52545 0.0
H1729 H 0.41136 0.93087 0.4954 0.0
H1730 H 0.42491 0.88759 0.49489 0.0
H1731 H 0.45554 0.86857 0.52163 0.0
H1732 H 0.5964 0.26361 0.4351 0.0
H1733 H 0.61293 0.29759 0.45937 0.0
H1734 H 0.54408 0.33609 0.45259 0.0
H1735 H 0.52733 0.30187 0.42871 0.0
H1736 H 0.61709 0.34815 0.44563 0.0
H1737 H 0.55765 0.33455 0.52692 0.0
H1738 H 0.5617 0.31118 0.50395 0.0
H1739 H 0.54195 0.33692 0.49821 0.0
C1740 C 0.58473 0.27918 0.4391 0.0
C1741 C 0.56052 0.28006 0.43038 0.0
C1742 C 0.59422 0.29863 0.45276 0.0
C1743 C 0.57963 0.31919 0.45797 0.0
C1744 C 0.55551 0.32022 0.44904 0.0
H1745 H 0.63551 0.457 0.51991 0.0
H1746 H 0.61517 0.42702 0.49336 0.0
C1747 C 0.54603 0.30078 0.43534 0.0
C1748 C 0.58979 0.33957 0.47267 0.0
H1749 H 0.58432 0.36869 0.52745 0.0
C1750 C 0.60989 0.35277 0.46347 0.0
C1751 C 0.58039 0.34536 0.49598 0.0
C1752 C 0.55936 0.33119 0.50703 0.0
C1753 C 0.62098 0.37155 0.47708 0.0
C1754 C 0.61155 0.37737 0.50036 0.0
C1755 C 0.59134 0.36429 0.50948 0.0
C1756 C 0.62344 0.39579 0.51629 0.0
C1757 C 0.64318 0.38451 0.46682 0.0
C1758 C 0.63442 0.38818 0.53809 0.0
C1759 C 0.64597 0.40516 0.55325 0.0
C1760 C 0.64665 0.4302 0.54698 0.0
C1761 C 0.63537 0.43786 0.52522 0.0
C1762 C 0.62384 0.42076 0.50999 0.0
H1763 H 0.6508 0.37485 0.45068 0.0
H1764 H 0.63792 0.40335 0.46118 0.0
H1765 H 0.65779 0.38609 0.48084 0.0
H1766 H 0.63426 0.36898 0.54327 0.0
H1767 H 0.65442 0.3986 0.56987 0.0
H1768 H 0.23312 0.5418 0.45885 0.0
H1769 H 0.19958 0.55853 0.48373 0.0
H1770 H 0.17662 0.60367 0.42329 0.0
H1771 H 0.21054 0.58741 0.39869 0.0
H1772 H 0.1787 0.62911 0.46623 0.0
H1773 H 0.12653 0.54257 0.47854 0.0
H1774 H 0.15812 0.54035 0.48762 0.0
H1775 H 0.15063 0.54583 0.45618 0.0
C1776 C 0.22081 0.55525 0.45098 0.0
C1777 C 0.22402 0.56312 0.42686 0.0
C1778 C 0.20159 0.56463 0.46506 0.0
C1779 C 0.18528 0.58194 0.45517 0.0
C1780 C 0.18882 0.59012 0.43117 0.0
H1781 H 0.04787 0.6302 0.5225 0.0
H1782 H 0.07849 0.61258 0.49479 0.0
C1783 C 0.20807 0.58079 0.41713 0.0
C1784 C 0.16507 0.59221 0.4701 0.0
H1785 H 0.11443 0.57645 0.50331 0.0
C1786 C 0.16456 0.61762 0.47422 0.0
C1787 C 0.14643 0.57723 0.48018 0.0
C1788 C 0.14523 0.55001 0.47524 0.0
C1789 C 0.1463 0.62839 0.48872 0.0
C1790 C 0.12833 0.61327 0.49973 0.0
C1791 C 0.12839 0.58795 0.49504 0.0
C1792 C 0.10972 0.62339 0.51665 0.0
C1793 C 0.14633 0.6559 0.49199 0.0
C1794 C 0.11715 0.63483 0.53829 0.0
C1795 C 0.0998 0.6449 0.55408 0.0
C1796 C 0.07459 0.64358 0.54864 0.0
C1797 C 0.06713 0.63159 0.52719 0.0
C1798 C 0.08458 0.62151 0.51136 0.0
H1799 H 0.15666 0.66525 0.47721 0.0
H1800 H 0.12733 0.66327 0.49239 0.0
H1801 H 0.15532 0.66051 0.50954 0.0
H1802 H 0.13643 0.63601 0.54297 0.0
H1803 H 0.10621 0.65386 0.5705 0.0
H1804 H 0.96436 0.22905 0.4605 0.0
H1805 H 0.94617 0.19544 0.48428 0.0
H1806 H 0.8983 0.17811 0.42406 0.0
H1807 H 0.91608 0.21207 0.40058 0.0
H1808 H 0.87406 0.17987 0.46777 0.0
H1809 H 0.95735 0.12183 0.4753 0.0
H1810 H 0.96184 0.15277 0.48565 0.0
H1811 H 0.95505 0.14706 0.4541 0.0
C1812 C 0.95 0.21794 0.45243 0.0
C1813 C 0.94179 0.22273 0.4287 0.0
C1814 C 0.93978 0.19869 0.46588 0.0
C1815 C 0.92127 0.18396 0.45572 0.0
C1816 C 0.91276 0.18908 0.43213 0.0
H1817 H 0.86681 0.04697 0.51918 0.0
H1818 H 0.88522 0.07755 0.49194 0.0
C1819 C 0.92295 0.20835 0.41872 0.0
C1820 C 0.9101 0.16377 0.47 0.0
H1821 H 0.92341 0.1108 0.50052 0.0
C1822 C 0.88482 0.16468 0.4748 0.0
C1823 C 0.9241 0.14377 0.4788 0.0
C1824 C 0.95104 0.14109 0.47302 0.0
C1825 C 0.87326 0.1465 0.48879 0.0
C1826 C 0.88748 0.12714 0.49859 0.0
C1827 C 0.91262 0.1258 0.49318 0.0
C1828 C 0.87668 0.10854 0.51509 0.0
C1829 C 0.8459 0.14813 0.49284 0.0
C1830 C 0.86622 0.11582 0.53727 0.0
C1831 C 0.85568 0.0985 0.55277 0.0
C1832 C 0.85558 0.07345 0.54651 0.0
C1833 C 0.86654 0.06611 0.52449 0.0
C1834 C 0.87706 0.08354 0.50893 0.0
H1835 H 0.83685 0.15952 0.47866 0.0
H1836 H 0.83734 0.12963 0.49284 0.0
H1837 H 0.84234 0.15681 0.51078 0.0
H1838 H 0.86624 0.13496 0.54262 0.0
H1839 H 0.84757 0.1048 0.56966 0.0
H1840 H 0.7696 0.04543 0.03609 0.0
H1841 H 0.80331 0.06278 0.01188 0.0
H1842 H 0.82901 0.10233 0.07502 0.0
H1843 H 0.79494 0.08547 0.09902 0.0
H1844 H 0.82704 0.131 0.03395 0.0
H1845 H 0.87587 0.04385 0.0146 0.0
H1846 H 0.84405 0.04331 0.00611 0.0
H1847 H 0.85237 0.04633 0.03767 0.0
C1848 C 0.78255 0.05778 0.04471 0.0
C1849 C 0.78008 0.06385 0.06942 0.0
C1850 C 0.80186 0.0675 0.03099 0.0
C1851 C 0.81898 0.08339 0.04181 0.0
C1852 C 0.81618 0.08985 0.06641 0.0
H1853 H 0.95613 0.13137 0.97326 0.0
H1854 H 0.92596 0.11339 0.00125 0.0
C1855 C 0.79685 0.08016 0.0801 0.0
C1856 C 0.83928 0.09402 0.02726 0.0
H1857 H 0.88854 0.07894 0.99179 0.0
C1858 C 0.84059 0.11963 0.02487 0.0
C1859 C 0.85717 0.07917 0.01576 0.0
C1860 C 0.85751 0.05165 0.01882 0.0
C1861 C 0.85885 0.13077 0.01065 0.0
C1862 C 0.876 0.11586 0.99818 0.0
C1863 C 0.87521 0.0903 0.00119 0.0
C1864 C 0.89433 0.12646 0.98125 0.0
C1865 C 0.85967 0.15842 0.00916 0.0
C1866 C 0.8865 0.13935 0.96057 0.0
C1867 C 0.9036 0.14961 0.94463 0.0
C1868 C 0.92893 0.14704 0.94893 0.0
C1869 C 0.93676 0.13373 0.96946 0.0
C1870 C 0.91957 0.12345 0.98545 0.0
H1871 H 0.85013 0.16708 0.02485 0.0
H1872 H 0.87889 0.16519 0.0086 0.0
H1873 H 0.85028 0.16448 0.99226 0.0
H1874 H 0.86711 0.14144 0.95672 0.0
H1875 H 0.89689 0.15962 0.92894 0.0
H1876 H 0.36495 0.95494 0.97661 0.0
H1877 H 0.38479 0.92468 0.00315 0.0
H1878 H 0.36912 0.8677 0.95087 0.0
H1879 H 0.34898 0.89755 0.92455 0.0
H1880 H 0.35656 0.85476 0.9975 0.0
H1881 H 0.45161 0.89163 0.99417 0.0
H1882 H 0.42865 0.91336 0.0035 0.0
H1883 H 0.42803 0.90117 0.97309 0.0
C1884 C 0.36586 0.93599 0.97072 0.0
C1885 C 0.35542 0.92868 0.94845 0.0
C1886 C 0.37731 0.91876 0.98584 0.0
C1887 C 0.37869 0.89401 0.97881 0.0
C1888 C 0.36831 0.88672 0.9566 0.0
H1889 H 0.46734 0.77513 0.03526 0.0
H1890 H 0.44866 0.8081 0.01096 0.0
C1891 C 0.35682 0.90385 0.94157 0.0
C1892 C 0.39018 0.87537 0.99481 0.0
H1893 H 0.44441 0.85838 0.02106 0.0
C1894 C 0.37576 0.85556 0.0027 0.0
C1895 C 0.41529 0.87635 0.00129 0.0
C1896 C 0.43191 0.89663 0.99243 0.0
C1897 C 0.38575 0.83665 0.0169 0.0
C1898 C 0.41074 0.83785 0.02378 0.0
C1899 C 0.4252 0.85764 0.01588 0.0
C1900 C 0.42233 0.8184 0.03869 0.0
C1901 C 0.36963 0.81522 0.02386 0.0
C1902 C 0.41385 0.81349 0.06233 0.0
C1903 C 0.42438 0.79465 0.07606 0.0
C1904 C 0.44374 0.7807 0.06646 0.0
C1905 C 0.45243 0.78576 0.04295 0.0
C1906 C 0.44185 0.80456 0.02917 0.0
H1907 H 0.35304 0.81404 0.01214 0.0
H1908 H 0.37985 0.79764 0.02253 0.0
H1909 H 0.36345 0.81751 0.04298 0.0
H1910 H 0.39905 0.82418 0.07013 0.0
H1911 H 0.41729 0.79083 0.0941 0.0
H1912 H 0.74095 0.40584 0.0636 0.0
H1913 H 0.7072 0.38975 0.0387 0.0
H1914 H 0.66883 0.45862 0.04594 0.0
H1915 H 0.70279 0.47493 0.07046 0.0
H1916 H 0.65611 0.38589 0.0518 0.0
H1917 H 0.67188 0.44588 0.97129 0.0
H1918 H 0.69485 0.44121 0.99454 0.0
H1919 H 0.66934 0.46129 0.00014 0.0
C1920 C 0.72543 0.4176 0.05959 0.0
C1921 C 0.72452 0.44169 0.06861 0.0
C1922 C 0.70613 0.40836 0.04557 0.0
C1923 C 0.6857 0.42311 0.04029 0.0
C1924 C 0.68461 0.44709 0.04955 0.0
H1925 H 0.54795 0.3705 0.97611 0.0
H1926 H 0.57809 0.39015 0.00297 0.0
C1927 C 0.70389 0.45631 0.06363 0.0
C1928 C 0.66552 0.41329 0.02514 0.0
H1929 H 0.63739 0.41966 0.96994 0.0
C1930 C 0.6519 0.39331 0.03395 0.0
C1931 C 0.66028 0.42296 0.00181 0.0
C1932 C 0.67493 0.4439 0.9912 0.0
C1933 C 0.63316 0.38263 0.01995 0.0
C1934 C 0.62786 0.39237 0.99667 0.0
C1935 C 0.64141 0.41242 0.98791 0.0
C1936 C 0.60938 0.38102 0.98046 0.0
C1937 C 0.61966 0.36058 0.02982 0.0
C1938 C 0.61701 0.36982 0.95877 0.0
C1939 C 0.59993 0.35864 0.94343 0.0
C1940 C 0.57481 0.3586 0.94941 0.0
C1941 C 0.56715 0.37018 0.97101 0.0
C1942 C 0.58433 0.38131 0.98643 0.0
H1943 H 0.62892 0.35268 0.04605 0.0
H1944 H 0.60082 0.36612 0.03518 0.0
H1945 H 0.61808 0.34612 0.01565 0.0
H1946 H 0.63627 0.36947 0.95385 0.0
H1947 H 0.60648 0.34995 0.92692 0.0
H1948 H 0.03838 0.73284 0.03611 0.0
H1949 H 0.0554 0.69911 0.0117 0.0
H1950 H 0.10105 0.67766 0.07232 0.0
H1951 H 0.08462 0.71185 0.09637 0.0
H1952 H 0.12635 0.6786 0.03005 0.0
H1953 H 0.03991 0.62643 0.01753 0.0
H1954 H 0.03773 0.65775 0.0076 0.0
H1955 H 0.0428 0.65109 0.0393 0.0
C1956 C 0.05203 0.72083 0.04411 0.0
C1957 C 0.05998 0.72455 0.06812 0.0
C1958 C 0.06156 0.70149 0.03031 0.0
C1959 C 0.07906 0.68551 0.0404 0.0
C1960 C 0.08735 0.68958 0.06428 0.0
H1961 H 0.1267 0.54707 0.97465 0.0
H1962 H 0.10885 0.57804 0.00183 0.0
C1963 C 0.07791 0.70898 0.07801 0.0
C1964 C 0.08944 0.66509 0.02582 0.0
H1965 H 0.07396 0.61412 0.99302 0.0
C1966 C 0.11491 0.66442 0.02208 0.0
C1967 C 0.07454 0.64636 0.01579 0.0
C1968 C 0.04726 0.64523 0.02044 0.0
C1969 C 0.12583 0.6459 0.00803 0.0
C1970 C 0.1108 0.62788 0.99699 0.0
C1971 C 0.08541 0.62812 0.00129 0.0
C1972 C 0.12108 0.60906 0.9804 0.0
C1973 C 0.15341 0.64572 0.00533 0.0
C1974 C 0.13338 0.61625 0.95914 0.0
C1975 C 0.14365 0.5987 0.9437 0.0
C1976 C 0.14158 0.57353 0.94906 0.0
C1977 C 0.12867 0.5663 0.97005 0.0
C1978 C 0.11846 0.58395 0.98558 0.0
H1979 H 0.16251 0.65585 0.02039 0.0
H1980 H 0.16066 0.62667 0.00495 0.0
H1981 H 0.15848 0.65484 0.98797 0.0
H1982 H 0.13509 0.63549 0.95448 0.0
H1983 H 0.15327 0.60493 0.92758 0.0
loop_
_geom_bond_atom_site_label_1
_geom_bond_atom_site_label_2
_geom_bond_distance
_geom_bond_site_symmetry_2
_ccdc_geom_bond_type
Co0 O3 1.970 . S
Co0 N17 1.989 . S
Co0 O25 1.967 . S
Co0 O32 1.920 . S
Co1 O4 1.966 . S
Co1 N10 2.022 . S
Co1 N18 1.993 . S
Co1 O26 1.941 . S
C2 O3 1.258 . S
C2 O4 1.263 . S
O3 Co0 1.970 . S
O3 C2 1.258 . S
O4 Co1 1.966 . S
O4 C2 1.263 . S
C5 O6 1.235 . S
C5 O32 1.289 . S
O6 C5 1.235 . S
C7 C9 1.400 . S
C7 N10 1.351 . S
C7 C12 1.501 . S
C8 C9 1.387 . S
C8 N11 1.341 . S
C9 C7 1.400 . S
C9 C8 1.387 . S
N10 Co1 2.022 . S
N10 C7 1.351 . S
N10 N11 1.365 . S
N11 C8 1.341 . S
N11 N10 1.365 . S
N11 H31 0.862 . S
C12 C7 1.501 . S
C12 H13 0.961 . S
C12 H14 0.961 . S
C12 H15 0.960 . S
H13 C12 0.961 . S
H14 C12 0.961 . S
H15 C12 0.960 . S
C16 N17 1.342 . S
C16 C20 1.401 . S
C16 C21 1.499 . S
N17 Co0 1.989 . S
N17 C16 1.342 . S
N17 N18 1.388 . S
N18 Co1 1.993 . S
N18 N17 1.388 . S
N18 C19 1.346 . S
C19 N18 1.346 . S
C19 C20 1.396 . S
C19 C29 1.510 . S
C20 C16 1.401 . S
C20 C19 1.396 . S
C21 C16 1.499 . S
C21 H22 0.959 . S
C21 H23 0.960 . S
C21 H24 0.961 . S
H22 C21 0.959 . S
H23 C21 0.960 . S
H24 C21 0.961 . S
O25 Co0 1.967 . S
O25 C33 1.258 . S
O26 Co1 1.941 . S
O26 C33 1.266 . S
H27 C29 0.959 . S
H28 C29 0.961 . S
C29 C19 1.510 . S
C29 H27 0.959 . S
C29 H28 0.961 . S
C29 H30 0.960 . S
H30 C29 0.960 . S
H31 N11 0.862 . S
O32 Co0 1.920 . S
O32 C5 1.289 . S
C33 O25 1.258 . S
C33 O26 1.266 . S
Co34 O37 1.970 . S
Co34 N51 1.989 . S
Co34 O59 1.967 . S
Co34 O66 1.920 . S
Co35 O38 1.966 . S
Co35 N44 2.022 . S
Co35 N52 1.993 . S
Co35 O60 1.941 . S
C36 O37 1.258 . S
C36 O38 1.263 . S
O37 Co34 1.970 . S
O37 C36 1.258 . S
O38 Co35 1.966 . S
O38 C36 1.263 . S
C39 O40 1.235 . S
C39 O66 1.289 . S
O40 C39 1.235 . S
C41 C43 1.400 . S
C41 N44 1.351 . S
C41 C46 1.501 . S
C42 C43 1.387 . S
C42 N45 1.341 . S
C43 C41 1.400 . S
C43 C42 1.387 . S
N44 Co35 2.022 . S
N44 C41 1.351 . S
N44 N45 1.365 . S
N45 C42 1.341 . S
N45 N44 1.365 . S
N45 H65 0.862 . S
C46 C41 1.501 . S
C46 H47 0.961 . S
C46 H48 0.961 . S
C46 H49 0.960 . S
H47 C46 0.961 . S
H48 C46 0.961 . S
H49 C46 0.960 . S
C50 N51 1.342 . S
C50 C54 1.401 . S
C50 C55 1.499 . S
N51 Co34 1.989 . S
N51 C50 1.342 . S
N51 N52 1.388 . S
N52 Co35 1.993 . S
N52 N51 1.388 . S
N52 C53 1.346 . S
C53 N52 1.346 . S
C53 C54 1.396 . S
C53 C63 1.510 . S
C54 C50 1.401 . S
C54 C53 1.396 . S
C55 C50 1.499 . S
C55 H56 0.959 . S
C55 H57 0.960 . S
C55 H58 0.961 . S
H56 C55 0.959 . S
H57 C55 0.960 . S
H58 C55 0.961 . S
O59 Co34 1.967 . S
O59 C67 1.258 . S
O60 Co35 1.941 . S
O60 C67 1.266 . S
H61 C63 0.959 . S
H62 C63 0.961 . S
C63 C53 1.510 . S
C63 H61 0.959 . S
C63 H62 0.961 . S
C63 H64 0.960 . S
H64 C63 0.960 . S
H65 N45 0.862 . S
O66 Co34 1.920 . S
O66 C39 1.289 . S
C67 O59 1.258 . S
C67 O60 1.266 . S
Co68 O71 1.970 . S
Co68 N85 1.989 . S
Co68 O93 1.967 . S
Co68 O100 1.920 . S
Co69 O72 1.978 . S
Co69 N78 2.022 . S
Co69 N86 1.993 . S
Co69 O94 1.941 . S
C70 O71 1.258 . S
C70 O72 1.265 . S
O71 Co68 1.970 . S
O71 C70 1.258 . S
O72 Co69 1.978 . S
O72 C70 1.265 . S
C73 O74 1.235 . S
C73 O100 1.289 . S
O74 C73 1.235 . S
C75 C77 1.400 . S
C75 N78 1.351 1_455 S
C75 C80 1.501 . S
C76 C77 1.387 . S
C76 N79 1.341 1_455 S
C77 C75 1.400 . S
C77 C76 1.387 . S
N78 Co69 2.022 . S
N78 C75 1.351 1_655 S
N78 N79 1.365 . S
N79 C76 1.341 1_655 S
N79 N78 1.365 . S
N79 H99 0.862 . S
C80 C75 1.501 . S
C80 H81 0.961 . S
C80 H82 0.961 . S
C80 H83 0.960 . S
H81 C80 0.961 . S
H82 C80 0.961 . S
H83 C80 0.960 . S
C84 N85 1.342 . S
C84 C88 1.401 . S
C84 C89 1.499 . S
N85 Co68 1.989 . S
N85 C84 1.342 . S
N85 N86 1.388 . S
N86 Co69 1.993 . S
N86 N85 1.388 . S
N86 C87 1.346 . S
C87 N86 1.346 . S
C87 C88 1.396 . S
C87 C97 1.510 . S
C88 C84 1.401 . S
C88 C87 1.396 . S
C89 C84 1.499 . S
C89 H90 0.959 . S
C89 H91 0.960 . S
C89 H92 0.961 . S
H90 C89 0.959 . S
H91 C89 0.960 . S
H92 C89 0.961 . S
O93 Co68 1.967 . S
O93 C101 1.258 . S
O94 Co69 1.941 . S
O94 C101 1.266 . S
H95 C97 0.959 . S
H96 C97 0.961 . S
C97 C87 1.510 . S
C97 H95 0.959 . S
C97 H96 0.961 . S
C97 H98 0.960 . S
H98 C97 0.960 . S
H99 N79 0.862 . S
O100 Co68 1.920 . S
O100 C73 1.289 . S
C101 O93 1.258 . S
C101 O94 1.266 . S
Co102 O105 1.970 . S
Co102 N119 1.989 . S
Co102 O127 1.967 . S
Co102 O134 1.920 . S
Co103 O106 1.978 . S
Co103 N112 2.022 . S
Co103 N120 1.993 . S
Co103 O128 1.941 . S
C104 O105 1.258 . S
C104 O106 1.265 . S
O105 Co102 1.970 . S
O105 C104 1.258 . S
O106 Co103 1.978 . S
O106 C104 1.265 . S
C107 O108 1.235 . S
C107 O134 1.289 . S
O108 C107 1.235 . S
C109 C111 1.400 . S
C109 N112 1.351 1_545 S
C109 C114 1.501 . S
C110 C111 1.387 . S
C110 N113 1.341 1_545 S
C111 C109 1.400 . S
C111 C110 1.387 . S
N112 Co103 2.022 . S
N112 C109 1.351 1_565 S
N112 N113 1.365 . S
N113 C110 1.341 1_565 S
N113 N112 1.365 . S
N113 H133 0.862 . S
C114 C109 1.501 . S
C114 H115 0.961 . S
C114 H116 0.961 . S
C114 H117 0.960 . S
H115 C114 0.961 . S
H116 C114 0.961 . S
H117 C114 0.960 . S
C118 N119 1.342 . S
C118 C122 1.401 . S
C118 C123 1.499 . S
N119 Co102 1.989 . S
N119 C118 1.342 . S
N119 N120 1.388 . S
N120 Co103 1.993 . S
N120 N119 1.388 . S
N120 C121 1.346 . S
C121 N120 1.346 . S
C121 C122 1.396 . S
C121 C131 1.510 . S
C122 C118 1.401 . S
C122 C121 1.396 . S
C123 C118 1.499 . S
C123 H124 0.959 . S
C123 H125 0.960 . S
C123 H126 0.961 . S
H124 C123 0.959 . S
H125 C123 0.960 . S
H126 C123 0.961 . S
O127 Co102 1.967 . S
O127 C135 1.258 . S
O128 Co103 1.941 . S
O128 C135 1.266 . S
H129 C131 0.959 . S
H130 C131 0.961 . S
C131 C121 1.510 . S
C131 H129 0.959 . S
C131 H130 0.961 . S
C131 H132 0.960 . S
H132 C131 0.960 . S
H133 N113 0.862 . S
O134 Co102 1.920 . S
O134 C107 1.289 . S
C135 O127 1.258 . S
C135 O128 1.266 . S
Co136 O139 1.970 . S
Co136 N153 1.989 . S
Co136 O161 1.967 . S
Co136 O168 1.920 . S
Co137 O140 1.978 . S
Co137 N146 2.022 . S
Co137 N154 1.993 . S
Co137 O162 1.941 . S
C138 O139 1.258 . S
C138 O140 1.265 . S
O139 Co136 1.970 . S
O139 C138 1.258 . S
O140 Co137 1.978 . S
O140 C138 1.265 . S
C141 O142 1.235 . S
C141 O168 1.289 . S
O142 C141 1.235 . S
C143 C145 1.400 . S
C143 N146 1.351 1_655 S
C143 C148 1.501 . S
C144 C145 1.387 . S
C144 N147 1.341 1_655 S
C145 C143 1.400 . S
C145 C144 1.387 . S
N146 Co137 2.022 . S
N146 C143 1.351 1_455 S
N146 N147 1.365 . S
N147 C144 1.341 1_455 S
N147 N146 1.365 . S
N147 H167 0.862 . S
C148 C143 1.501 . S
C148 H149 0.961 . S
C148 H150 0.961 . S
C148 H151 0.960 . S
H149 C148 0.961 . S
H150 C148 0.961 . S
H151 C148 0.960 . S
C152 N153 1.342 . S
C152 C156 1.401 . S
C152 C157 1.499 . S
N153 Co136 1.989 . S
N153 C152 1.342 . S
N153 N154 1.388 . S
N154 Co137 1.993 . S
N154 N153 1.388 . S
N154 C155 1.346 . S
C155 N154 1.346 . S
C155 C156 1.396 . S
C155 C165 1.510 . S
C156 C152 1.401 . S
C156 C155 1.396 . S
C157 C152 1.499 . S
C157 H158 0.959 . S
C157 H159 0.960 . S
C157 H160 0.961 . S
H158 C157 0.959 . S
H159 C157 0.960 . S
H160 C157 0.961 . S
O161 Co136 1.967 . S
O161 C169 1.258 . S
O162 Co137 1.941 . S
O162 C169 1.266 . S
H163 C165 0.959 . S
H164 C165 0.961 . S
C165 C155 1.510 . S
C165 H163 0.959 . S
C165 H164 0.961 . S
C165 H166 0.960 . S
H166 C165 0.960 . S
H167 N147 0.862 . S
O168 Co136 1.920 . S
O168 C141 1.289 . S
C169 O161 1.258 . S
C169 O162 1.266 . S
Co170 O173 1.970 . S
Co170 N187 1.989 . S
Co170 O195 1.967 . S
Co170 O202 1.920 . S
Co171 O174 1.978 . S
Co171 N180 2.022 . S
Co171 N188 1.993 . S
Co171 O196 1.941 . S
C172 O173 1.258 . S
C172 O174 1.265 . S
O173 Co170 1.970 . S
O173 C172 1.258 . S
O174 Co171 1.978 . S
O174 C172 1.265 . S
C175 O176 1.235 . S
C175 O202 1.289 . S
O176 C175 1.235 . S
C177 C179 1.400 . S
C177 N180 1.351 1_565 S
C177 C182 1.501 . S
C178 C179 1.387 . S
C178 N181 1.341 1_565 S
C179 C177 1.400 . S
C179 C178 1.387 . S
N180 Co171 2.022 . S
N180 C177 1.351 1_545 S
N180 N181 1.365 . S
N181 C178 1.341 1_545 S
N181 N180 1.365 . S
N181 H201 0.862 . S
C182 C177 1.501 . S
C182 H183 0.961 . S
C182 H184 0.961 . S
C182 H185 0.960 . S
H183 C182 0.961 . S
H184 C182 0.961 . S
H185 C182 0.960 . S
C186 N187 1.342 . S
C186 C190 1.401 . S
C186 C191 1.499 . S
N187 Co170 1.989 . S
N187 C186 1.342 . S
N187 N188 1.388 . S
N188 Co171 1.993 . S
N188 N187 1.388 . S
N188 C189 1.346 . S
C189 N188 1.346 . S
C189 C190 1.396 . S
C189 C199 1.510 . S
C190 C186 1.401 . S
C190 C189 1.396 . S
C191 C186 1.499 . S
C191 H192 0.959 . S
C191 H193 0.960 . S
C191 H194 0.961 . S
H192 C191 0.959 . S
H193 C191 0.960 . S
H194 C191 0.961 . S
O195 Co170 1.967 . S
O195 C203 1.258 . S
O196 Co171 1.941 . S
O196 C203 1.266 . S
H197 C199 0.959 . S
H198 C199 0.961 . S
C199 C189 1.510 . S
C199 H197 0.959 . S
C199 H198 0.961 . S
C199 H200 0.960 . S
H200 C199 0.960 . S
H201 N181 0.862 . S
O202 Co170 1.920 . S
O202 C175 1.289 . S
C203 O195 1.258 . S
C203 O196 1.266 . S
Co204 O207 1.970 . S
Co204 N221 1.989 . S
Co204 O229 1.967 . S
Co204 O236 1.920 . S
Co205 O208 1.966 . S
Co205 N214 2.022 . S
Co205 N222 1.993 . S
Co205 O230 1.941 . S
C206 O207 1.258 . S
C206 O208 1.263 . S
O207 Co204 1.970 . S
O207 C206 1.258 . S
O208 Co205 1.966 . S
O208 C206 1.263 . S
C209 O210 1.235 . S
C209 O236 1.289 . S
O210 C209 1.235 . S
C211 C213 1.400 . S
C211 N214 1.351 . S
C211 C216 1.501 . S
C212 C213 1.387 . S
C212 N215 1.341 . S
C213 C211 1.400 . S
C213 C212 1.387 . S
N214 Co205 2.022 . S
N214 C211 1.351 . S
N214 N215 1.365 . S
N215 C212 1.341 . S
N215 N214 1.365 . S
N215 H235 0.862 . S
C216 C211 1.501 . S
C216 H217 0.961 . S
C216 H218 0.961 . S
C216 H219 0.960 . S
H217 C216 0.961 . S
H218 C216 0.961 . S
H219 C216 0.960 . S
C220 N221 1.342 . S
C220 C224 1.401 . S
C220 C225 1.499 . S
N221 Co204 1.989 . S
N221 C220 1.342 . S
N221 N222 1.388 . S
N222 Co205 1.993 . S
N222 N221 1.388 . S
N222 C223 1.346 . S
C223 N222 1.346 . S
C223 C224 1.396 . S
C223 C233 1.510 . S
C224 C220 1.401 . S
C224 C223 1.396 . S
C225 C220 1.499 . S
C225 H226 0.959 . S
C225 H227 0.960 . S
C225 H228 0.961 . S
H226 C225 0.959 . S
H227 C225 0.960 . S
H228 C225 0.961 . S
O229 Co204 1.967 . S
O229 C237 1.258 . S
O230 Co205 1.941 . S
O230 C237 1.266 . S
H231 C233 0.959 . S
H232 C233 0.961 . S
C233 C223 1.510 . S
C233 H231 0.959 . S
C233 H232 0.961 . S
C233 H234 0.960 . S
H234 C233 0.960 . S
H235 N215 0.862 . S
O236 Co204 1.920 . S
O236 C209 1.289 . S
C237 O229 1.258 . S
C237 O230 1.266 . S
Co238 O241 1.970 . S
Co238 N255 1.989 . S
Co238 O263 1.967 . S
Co238 O270 1.920 . S
Co239 O242 1.966 . S
Co239 N248 2.022 . S
Co239 N256 1.993 . S
Co239 O264 1.941 . S
C240 O241 1.258 . S
C240 O242 1.263 . S
O241 Co238 1.970 . S
O241 C240 1.258 . S
O242 Co239 1.966 . S
O242 C240 1.263 . S
C243 O244 1.235 . S
C243 O270 1.289 . S
O244 C243 1.235 . S
C245 C247 1.400 . S
C245 N248 1.351 . S
C245 C250 1.501 . S
C246 C247 1.387 . S
C246 N249 1.341 . S
C247 C245 1.400 . S
C247 C246 1.387 . S
N248 Co239 2.022 . S
N248 C245 1.351 . S
N248 N249 1.365 . S
N249 C246 1.341 . S
N249 N248 1.365 . S
N249 H269 0.862 . S
C250 C245 1.501 . S
C250 H251 0.961 . S
C250 H252 0.961 . S
C250 H253 0.960 . S
H251 C250 0.961 . S
H252 C250 0.961 . S
H253 C250 0.960 . S
C254 N255 1.342 . S
C254 C258 1.401 . S
C254 C259 1.499 . S
N255 Co238 1.989 . S
N255 C254 1.342 . S
N255 N256 1.388 . S
N256 Co239 1.993 . S
N256 N255 1.388 . S
N256 C257 1.346 . S
C257 N256 1.346 . S
C257 C258 1.396 . S
C257 C267 1.510 . S
C258 C254 1.401 . S
C258 C257 1.396 . S
C259 C254 1.499 . S
C259 H260 0.959 . S
C259 H261 0.960 . S
C259 H262 0.961 . S
H260 C259 0.959 . S
H261 C259 0.960 . S
H262 C259 0.961 . S
O263 Co238 1.967 . S
O263 C271 1.258 . S
O264 Co239 1.941 . S
O264 C271 1.266 . S
H265 C267 0.959 . S
H266 C267 0.961 . S
C267 C257 1.510 . S
C267 H265 0.959 . S
C267 H266 0.961 . S
C267 H268 0.960 . S
H268 C267 0.960 . S
H269 N249 0.862 . S
O270 Co238 1.920 . S
O270 C243 1.289 . S
C271 O263 1.258 . S
C271 O264 1.266 . S
Co272 O275 1.970 . S
Co272 N289 1.989 . S
Co272 O297 1.967 . S
Co272 O304 1.920 . S
Co273 O276 1.966 . S
Co273 N282 2.022 . S
Co273 N290 1.993 . S
Co273 O298 1.941 . S
C274 O275 1.258 . S
C274 O276 1.263 . S
O275 Co272 1.970 . S
O275 C274 1.258 . S
O276 Co273 1.966 . S
O276 C274 1.263 . S
C277 O278 1.235 . S
C277 O304 1.289 . S
O278 C277 1.235 . S
C279 C281 1.400 . S
C279 N282 1.351 . S
C279 C284 1.501 . S
C280 C281 1.387 . S
C280 N283 1.341 . S
C281 C279 1.400 . S
C281 C280 1.387 . S
N282 Co273 2.022 . S
N282 C279 1.351 . S
N282 N283 1.365 . S
N283 C280 1.341 . S
N283 N282 1.365 . S
N283 H303 0.862 . S
C284 C279 1.501 . S
C284 H285 0.961 . S
C284 H286 0.961 . S
C284 H287 0.960 . S
H285 C284 0.961 . S
H286 C284 0.961 . S
H287 C284 0.960 . S
C288 N289 1.342 . S
C288 C292 1.401 . S
C288 C293 1.499 . S
N289 Co272 1.989 . S
N289 C288 1.342 . S
N289 N290 1.388 . S
N290 Co273 1.993 . S
N290 N289 1.388 . S
N290 C291 1.346 . S
C291 N290 1.346 . S
C291 C292 1.396 . S
C291 C301 1.510 . S
C292 C288 1.401 . S
C292 C291 1.396 . S
C293 C288 1.499 . S
C293 H294 0.959 . S
C293 H295 0.960 . S
C293 H296 0.961 . S
H294 C293 0.959 . S
H295 C293 0.960 . S
H296 C293 0.961 . S
O297 Co272 1.967 . S
O297 C305 1.258 . S
O298 Co273 1.941 . S
O298 C305 1.266 . S
H299 C301 0.959 . S
H300 C301 0.961 . S
C301 C291 1.510 . S
C301 H299 0.959 . S
C301 H300 0.961 . S
C301 H302 0.960 . S
H302 C301 0.960 . S
H303 N283 0.862 . S
O304 Co272 1.920 . S
O304 C277 1.289 . S
C305 O297 1.258 . S
C305 O298 1.266 . S
Co306 O309 1.970 . S
Co306 N323 1.989 . S
Co306 O331 1.967 . S
Co306 O338 1.920 . S
Co307 O310 1.966 . S
Co307 N316 2.022 . S
Co307 N324 1.993 . S
Co307 O332 1.941 . S
C308 O309 1.258 . S
C308 O310 1.263 . S
O309 Co306 1.970 . S
O309 C308 1.258 . S
O310 Co307 1.966 . S
O310 C308 1.263 . S
C311 O312 1.235 . S
C311 O338 1.289 . S
O312 C311 1.235 . S
C313 C315 1.400 . S
C313 N316 1.351 . S
C313 C318 1.501 . S
C314 C315 1.387 . S
C314 N317 1.341 . S
C315 C313 1.400 . S
C315 C314 1.387 . S
N316 Co307 2.022 . S
N316 C313 1.351 . S
N316 N317 1.365 . S
N317 C314 1.341 . S
N317 N316 1.365 . S
N317 H337 0.862 . S
C318 C313 1.501 . S
C318 H319 0.961 . S
C318 H320 0.961 . S
C318 H321 0.960 . S
H319 C318 0.961 . S
H320 C318 0.961 . S
H321 C318 0.960 . S
C322 N323 1.342 . S
C322 C326 1.401 . S
C322 C327 1.499 . S
N323 Co306 1.989 . S
N323 C322 1.342 . S
N323 N324 1.388 . S
N324 Co307 1.993 . S
N324 N323 1.388 . S
N324 C325 1.346 . S
C325 N324 1.346 . S
C325 C326 1.396 . S
C325 C335 1.510 . S
C326 C322 1.401 . S
C326 C325 1.396 . S
C327 C322 1.499 . S
C327 H328 0.959 . S
C327 H329 0.960 . S
C327 H330 0.961 . S
H328 C327 0.959 . S
H329 C327 0.960 . S
H330 C327 0.961 . S
O331 Co306 1.967 . S
O331 C339 1.258 . S
O332 Co307 1.941 . S
O332 C339 1.266 . S
H333 C335 0.959 . S
H334 C335 0.961 . S
C335 C325 1.510 . S
C335 H333 0.959 . S
C335 H334 0.961 . S
C335 H336 0.960 . S
H336 C335 0.960 . S
H337 N317 0.862 . S
O338 Co306 1.920 . S
O338 C311 1.289 . S
C339 O331 1.258 . S
C339 O332 1.266 . S
Co340 O343 1.970 . S
Co340 N357 1.989 . S
Co340 O365 1.967 . S
Co340 O372 1.920 . S
Co341 O344 1.978 . S
Co341 N350 2.022 . S
Co341 N358 1.993 . S
Co341 O366 1.941 . S
C342 O343 1.258 . S
C342 O344 1.265 . S
O343 Co340 1.970 . S
O343 C342 1.258 . S
O344 Co341 1.978 . S
O344 C342 1.265 . S
C345 O346 1.235 . S
C345 O372 1.289 . S
O346 C345 1.235 . S
C347 C349 1.400 . S
C347 N350 1.351 1_655 S
C347 C352 1.501 . S
C348 C349 1.387 . S
C348 N351 1.341 1_655 S
C349 C347 1.400 . S
C349 C348 1.387 . S
N350 Co341 2.022 . S
N350 C347 1.351 1_455 S
N350 N351 1.365 . S
N351 C348 1.341 1_455 S
N351 N350 1.365 . S
N351 H371 0.862 . S
C352 C347 1.501 . S
C352 H353 0.961 . S
C352 H354 0.961 . S
C352 H355 0.960 . S
H353 C352 0.961 . S
H354 C352 0.961 . S
H355 C352 0.960 . S
C356 N357 1.342 . S
C356 C360 1.401 . S
C356 C361 1.499 . S
N357 Co340 1.989 . S
N357 C356 1.342 . S
N357 N358 1.388 . S
N358 Co341 1.993 . S
N358 N357 1.388 . S
N358 C359 1.346 . S
C359 N358 1.346 . S
C359 C360 1.396 . S
C359 C369 1.510 . S
C360 C356 1.401 . S
C360 C359 1.396 . S
C361 C356 1.499 . S
C361 H362 0.959 . S
C361 H363 0.960 . S
C361 H364 0.961 . S
H362 C361 0.959 . S
H363 C361 0.960 . S
H364 C361 0.961 . S
O365 Co340 1.967 . S
O365 C373 1.258 . S
O366 Co341 1.941 . S
O366 C373 1.266 . S
H367 C369 0.959 . S
H368 C369 0.961 . S
C369 C359 1.510 . S
C369 H367 0.959 . S
C369 H368 0.961 . S
C369 H370 0.960 . S
H370 C369 0.960 . S
H371 N351 0.862 . S
O372 Co340 1.920 . S
O372 C345 1.289 . S
C373 O365 1.258 . S
C373 O366 1.266 . S
Co374 O377 1.970 . S
Co374 N391 1.989 . S
Co374 O399 1.967 . S
Co374 O406 1.920 . S
Co375 O378 1.978 . S
Co375 N384 2.022 . S
Co375 N392 1.993 . S
Co375 O400 1.941 . S
C376 O377 1.258 . S
C376 O378 1.265 . S
O377 Co374 1.970 . S
O377 C376 1.258 . S
O378 Co375 1.978 . S
O378 C376 1.265 . S
C379 O380 1.235 . S
C379 O406 1.289 . S
O380 C379 1.235 . S
C381 C383 1.400 . S
C381 N384 1.351 1_565 S
C381 C386 1.501 . S
C382 C383 1.387 . S
C382 N385 1.341 1_565 S
C383 C381 1.400 . S
C383 C382 1.387 . S
N384 Co375 2.022 . S
N384 C381 1.351 1_545 S
N384 N385 1.365 . S
N385 C382 1.341 1_545 S
N385 N384 1.365 . S
N385 H405 0.862 . S
C386 C381 1.501 . S
C386 H387 0.961 . S
C386 H388 0.961 . S
C386 H389 0.960 . S
H387 C386 0.961 . S
H388 C386 0.961 . S
H389 C386 0.960 . S
C390 N391 1.342 . S
C390 C394 1.401 . S
C390 C395 1.499 . S
N391 Co374 1.989 . S
N391 C390 1.342 . S
N391 N392 1.388 . S
N392 Co375 1.993 . S
N392 N391 1.388 . S
N392 C393 1.346 . S
C393 N392 1.346 . S
C393 C394 1.396 . S
C393 C403 1.510 . S
C394 C390 1.401 . S
C394 C393 1.396 . S
C395 C390 1.499 . S
C395 H396 0.959 . S
C395 H397 0.960 . S
C395 H398 0.961 . S
H396 C395 0.959 . S
H397 C395 0.960 . S
H398 C395 0.961 . S
O399 Co374 1.967 . S
O399 C407 1.258 . S
O400 Co375 1.941 . S
O400 C407 1.266 . S
H401 C403 0.959 . S
H402 C403 0.961 . S
C403 C393 1.510 . S
C403 H401 0.959 . S
C403 H402 0.961 . S
C403 H404 0.960 . S
H404 C403 0.960 . S
H405 N385 0.862 . S
O406 Co374 1.920 . S
O406 C379 1.289 . S
C407 O399 1.258 . S
C407 O400 1.266 . S
Co408 O411 1.970 . S
Co408 N425 1.989 . S
Co408 O433 1.967 . S
Co408 O440 1.920 . S
Co409 O412 1.978 . S
Co409 N418 2.022 . S
Co409 N426 1.993 . S
Co409 O434 1.941 . S
C410 O411 1.258 . S
C410 O412 1.265 . S
O411 Co408 1.970 . S
O411 C410 1.258 . S
O412 Co409 1.978 . S
O412 C410 1.265 . S
C413 O414 1.235 . S
C413 O440 1.289 . S
O414 C413 1.235 . S
C415 C417 1.400 . S
C415 N418 1.351 1_455 S
C415 C420 1.501 . S
C416 C417 1.387 . S
C416 N419 1.341 1_455 S
C417 C415 1.400 . S
C417 C416 1.387 . S
N418 Co409 2.022 . S
N418 C415 1.351 1_655 S
N418 N419 1.365 . S
N419 C416 1.341 1_655 S
N419 N418 1.365 . S
N419 H439 0.862 . S
C420 C415 1.501 . S
C420 H421 0.961 . S
C420 H422 0.961 . S
C420 H423 0.960 . S
H421 C420 0.961 . S
H422 C420 0.961 . S
H423 C420 0.960 . S
C424 N425 1.342 . S
C424 C428 1.401 . S
C424 C429 1.499 . S
N425 Co408 1.989 . S
N425 C424 1.342 . S
N425 N426 1.388 . S
N426 Co409 1.993 . S
N426 N425 1.388 . S
N426 C427 1.346 . S
C427 N426 1.346 . S
C427 C428 1.396 . S
C427 C437 1.510 . S
C428 C424 1.401 . S
C428 C427 1.396 . S
C429 C424 1.499 . S
C429 H430 0.959 . S
C429 H431 0.960 . S
C429 H432 0.961 . S
H430 C429 0.959 . S
H431 C429 0.960 . S
H432 C429 0.961 . S
O433 Co408 1.967 . S
O433 C441 1.258 . S
O434 Co409 1.941 . S
O434 C441 1.266 . S
H435 C437 0.959 . S
H436 C437 0.961 . S
C437 C427 1.510 . S
C437 H435 0.959 . S
C437 H436 0.961 . S
C437 H438 0.960 . S
H438 C437 0.960 . S
H439 N419 0.862 . S
O440 Co408 1.920 . S
O440 C413 1.289 . S
C441 O433 1.258 . S
C441 O434 1.266 . S
Co442 O445 1.970 . S
Co442 N459 1.989 . S
Co442 O467 1.967 . S
Co442 O474 1.920 . S
Co443 O446 1.978 . S
Co443 N452 2.022 . S
Co443 N460 1.993 . S
Co443 O468 1.941 . S
C444 O445 1.258 . S
C444 O446 1.265 . S
O445 Co442 1.970 . S
O445 C444 1.258 . S
O446 Co443 1.978 . S
O446 C444 1.265 . S
C447 O448 1.235 . S
C447 O474 1.289 . S
O448 C447 1.235 . S
C449 C451 1.400 . S
C449 N452 1.351 1_545 S
C449 C454 1.501 . S
C450 C451 1.387 . S
C450 N453 1.341 1_545 S
C451 C449 1.400 . S
C451 C450 1.387 . S
N452 Co443 2.022 . S
N452 C449 1.351 1_565 S
N452 N453 1.365 . S
N453 C450 1.341 1_565 S
N453 N452 1.365 . S
N453 H473 0.862 . S
C454 C449 1.501 . S
C454 H455 0.961 . S
C454 H456 0.961 . S
C454 H457 0.960 . S
H455 C454 0.961 . S
H456 C454 0.961 . S
H457 C454 0.960 . S
C458 N459 1.342 . S
C458 C462 1.401 . S
C458 C463 1.499 . S
N459 Co442 1.989 . S
N459 C458 1.342 . S
N459 N460 1.388 . S
N460 Co443 1.993 . S
N460 N459 1.388 . S
N460 C461 1.346 . S
C461 N460 1.346 . S
C461 C462 1.396 . S
C461 C471 1.510 . S
C462 C458 1.401 . S
C462 C461 1.396 . S
C463 C458 1.499 . S
C463 H464 0.959 . S
C463 H465 0.960 . S
C463 H466 0.961 . S
H464 C463 0.959 . S
H465 C463 0.960 . S
H466 C463 0.961 . S
O467 Co442 1.967 . S
O467 C475 1.258 . S
O468 Co443 1.941 . S
O468 C475 1.266 . S
H469 C471 0.959 . S
H470 C471 0.961 . S
C471 C461 1.510 . S
C471 H469 0.959 . S
C471 H470 0.961 . S
C471 H472 0.960 . S
H472 C471 0.960 . S
H473 N453 0.862 . S
O474 Co442 1.920 . S
O474 C447 1.289 . S
C475 O467 1.258 . S
C475 O468 1.266 . S
Co476 O479 1.970 . S
Co476 N493 1.989 . S
Co476 O501 1.967 . S
Co476 O508 1.920 . S
Co477 O480 1.966 . S
Co477 N486 2.022 . S
Co477 N494 1.993 . S
Co477 O502 1.941 . S
C478 O479 1.258 . S
C478 O480 1.263 . S
O479 Co476 1.970 . S
O479 C478 1.258 . S
O480 Co477 1.966 . S
O480 C478 1.263 . S
C481 O482 1.235 . S
C481 O508 1.289 . S
O482 C481 1.235 . S
C483 C485 1.400 . S
C483 N486 1.351 . S
C483 C488 1.501 . S
C484 C485 1.387 . S
C484 N487 1.341 . S
C485 C483 1.400 . S
C485 C484 1.387 . S
N486 Co477 2.022 . S
N486 C483 1.351 . S
N486 N487 1.365 . S
N487 C484 1.341 . S
N487 N486 1.365 . S
N487 H507 0.862 . S
C488 C483 1.501 . S
C488 H489 0.961 . S
C488 H490 0.961 . S
C488 H491 0.960 . S
H489 C488 0.961 . S
H490 C488 0.961 . S
H491 C488 0.960 . S
C492 N493 1.342 . S
C492 C496 1.401 . S
C492 C497 1.499 . S
N493 Co476 1.989 . S
N493 C492 1.342 . S
N493 N494 1.388 . S
N494 Co477 1.993 . S
N494 N493 1.388 . S
N494 C495 1.346 . S
C495 N494 1.346 . S
C495 C496 1.396 . S
C495 C505 1.510 . S
C496 C492 1.401 . S
C496 C495 1.396 . S
C497 C492 1.499 . S
C497 H498 0.959 . S
C497 H499 0.960 . S
C497 H500 0.961 . S
H498 C497 0.959 . S
H499 C497 0.960 . S
H500 C497 0.961 . S
O501 Co476 1.967 . S
O501 C509 1.258 . S
O502 Co477 1.941 . S
O502 C509 1.266 . S
H503 C505 0.959 . S
H504 C505 0.961 . S
C505 C495 1.510 . S
C505 H503 0.959 . S
C505 H504 0.961 . S
C505 H506 0.960 . S
H506 C505 0.960 . S
H507 N487 0.862 . S
O508 Co476 1.920 . S
O508 C481 1.289 . S
C509 O501 1.258 . S
C509 O502 1.266 . S
Co510 O513 1.970 . S
Co510 N527 1.989 . S
Co510 O535 1.967 . S
Co510 O542 1.920 . S
Co511 O514 1.966 . S
Co511 N520 2.022 . S
Co511 N528 1.993 . S
Co511 O536 1.941 . S
C512 O513 1.258 . S
C512 O514 1.263 . S
O513 Co510 1.970 . S
O513 C512 1.258 . S
O514 Co511 1.966 . S
O514 C512 1.263 . S
C515 O516 1.235 . S
C515 O542 1.289 . S
O516 C515 1.235 . S
C517 C519 1.400 . S
C517 N520 1.351 . S
C517 C522 1.501 . S
C518 C519 1.387 . S
C518 N521 1.341 . S
C519 C517 1.400 . S
C519 C518 1.387 . S
N520 Co511 2.022 . S
N520 C517 1.351 . S
N520 N521 1.365 . S
N521 C518 1.341 . S
N521 N520 1.365 . S
N521 H541 0.862 . S
C522 C517 1.501 . S
C522 H523 0.961 . S
C522 H524 0.961 . S
C522 H525 0.960 . S
H523 C522 0.961 . S
H524 C522 0.961 . S
H525 C522 0.960 . S
C526 N527 1.342 . S
C526 C530 1.401 . S
C526 C531 1.499 . S
N527 Co510 1.989 . S
N527 C526 1.342 . S
N527 N528 1.388 . S
N528 Co511 1.993 . S
N528 N527 1.388 . S
N528 C529 1.346 . S
C529 N528 1.346 . S
C529 C530 1.396 . S
C529 C539 1.510 . S
C530 C526 1.401 . S
C530 C529 1.396 . S
C531 C526 1.499 . S
C531 H532 0.959 . S
C531 H533 0.960 . S
C531 H534 0.961 . S
H532 C531 0.959 . S
H533 C531 0.960 . S
H534 C531 0.961 . S
O535 Co510 1.967 . S
O535 C543 1.258 . S
O536 Co511 1.941 . S
O536 C543 1.266 . S
H537 C539 0.959 . S
H538 C539 0.961 . S
C539 C529 1.510 . S
C539 H537 0.959 . S
C539 H538 0.961 . S
C539 H540 0.960 . S
H540 C539 0.960 . S
H541 N521 0.862 . S
O542 Co510 1.920 . S
O542 C515 1.289 . S
C543 O535 1.258 . S
C543 O536 1.266 . S
H544 C552 0.929 . S
H545 C554 0.930 . S
H546 C556 0.930 . S
H547 C559 0.929 . S
H548 C562 0.930 . S
H549 C564 0.960 . S
H550 C564 0.960 . S
H551 C564 0.960 . S
C552 H544 0.929 . S
C552 C553 1.377 . S
C552 C554 1.384 . S
C553 C552 1.377 . S
C553 C559 1.390 . S
C554 H545 0.930 . S
C554 C552 1.384 . S
C554 C555 1.372 . S
C555 C554 1.372 . S
C555 C556 1.400 . S
C555 C560 1.490 . S
C556 H546 0.930 . S
C556 C555 1.400 . S
C556 C559 1.386 . S
H557 C573 0.930 . S
H558 C574 0.931 . S
C559 H547 0.929 . S
C559 C553 1.390 . S
C559 C556 1.386 . S
C560 C555 1.490 . S
C560 C562 1.395 . S
C560 C563 1.403 . S
H561 C567 0.930 . S
C562 H548 0.930 . S
C562 C560 1.395 . S
C562 C565 1.403 . S
C563 C560 1.403 . S
C563 C564 1.524 . S
C563 C567 1.400 . S
C564 H549 0.960 . S
C564 H550 0.960 . S
C564 H551 0.960 . S
C564 C563 1.524 . S
C565 C562 1.403 . S
C565 C566 1.392 . S
C565 C569 1.495 . S
C566 C565 1.392 . S
C566 C567 1.385 . S
C566 C568 1.478 . S
C567 H561 0.930 . S
C567 C563 1.400 . S
C567 C566 1.385 . S
C568 C566 1.478 . S
C568 C570 1.381 . S
C568 C574 1.383 . S
C569 C565 1.495 . S
C569 H575 0.959 . S
C569 H576 0.961 . S
C569 H577 0.960 . S
C570 C568 1.381 . S
C570 C571 1.394 . S
C570 H578 0.930 . S
C571 C570 1.394 . S
C571 C572 1.383 . S
C571 H579 0.929 . S
C572 C571 1.383 . S
C572 C573 1.377 . S
C573 H557 0.930 . S
C573 C572 1.377 . S
C573 C574 1.379 . S
C574 H558 0.931 . S
C574 C568 1.383 . S
C574 C573 1.379 . S
H575 C569 0.959 . S
H576 C569 0.961 . S
H577 C569 0.960 . S
H578 C570 0.930 . S
H579 C571 0.929 . S
H580 C588 0.929 . S
H581 C590 0.930 . S
H582 C592 0.930 . S
H583 C595 0.929 . S
H584 C598 0.930 . S
H585 C600 0.960 . S
H586 C600 0.960 . S
H587 C600 0.960 . S
C588 H580 0.929 . S
C588 C589 1.377 . S
C588 C590 1.384 . S
C589 C588 1.377 . S
C589 C595 1.390 . S
C590 H581 0.930 . S
C590 C588 1.384 . S
C590 C591 1.372 . S
C591 C590 1.372 . S
C591 C592 1.400 . S
C591 C596 1.490 . S
C592 H582 0.930 . S
C592 C591 1.400 . S
C592 C595 1.386 . S
H593 C609 0.930 . S
H594 C610 0.931 . S
C595 H583 0.929 . S
C595 C589 1.390 . S
C595 C592 1.386 . S
C596 C591 1.490 . S
C596 C598 1.395 . S
C596 C599 1.403 . S
H597 C603 0.930 . S
C598 H584 0.930 . S
C598 C596 1.395 . S
C598 C601 1.403 . S
C599 C596 1.403 . S
C599 C600 1.524 . S
C599 C603 1.400 . S
C600 H585 0.960 . S
C600 H586 0.960 . S
C600 H587 0.960 . S
C600 C599 1.524 . S
C601 C598 1.403 . S
C601 C602 1.392 . S
C601 C605 1.495 . S
C602 C601 1.392 . S
C602 C603 1.385 . S
C602 C604 1.478 . S
C603 H597 0.930 . S
C603 C599 1.400 . S
C603 C602 1.385 . S
C604 C602 1.478 . S
C604 C606 1.381 . S
C604 C610 1.383 . S
C605 C601 1.495 . S
C605 H611 0.959 . S
C605 H612 0.961 . S
C605 H613 0.960 . S
C606 C604 1.381 . S
C606 C607 1.394 . S
C606 H614 0.930 . S
C607 C606 1.394 . S
C607 C608 1.383 . S
C607 H615 0.929 . S
C608 C607 1.383 . S
C608 C609 1.377 . S
C609 H593 0.930 . S
C609 C608 1.377 . S
C609 C610 1.379 . S
C610 H594 0.931 . S
C610 C604 1.383 . S
C610 C609 1.379 . S
H611 C605 0.959 . S
H612 C605 0.961 . S
H613 C605 0.960 . S
H614 C606 0.930 . S
H615 C607 0.929 . S
H616 C624 0.929 . S
H617 C626 0.930 . S
H618 C628 0.930 . S
H619 C631 0.929 . S
H620 C634 0.930 . S
H621 C636 0.960 . S
H622 C636 0.960 . S
H623 C636 0.960 . S
C624 H616 0.929 . S
C624 C625 1.377 . S
C624 C626 1.384 . S
C625 C624 1.377 . S
C625 C631 1.390 . S
C626 H617 0.930 . S
C626 C624 1.384 . S
C626 C627 1.372 . S
C627 C626 1.372 . S
C627 C628 1.400 . S
C627 C632 1.490 . S
C628 H618 0.930 . S
C628 C627 1.400 . S
C628 C631 1.386 . S
H629 C645 0.930 . S
H630 C646 0.931 . S
C631 H619 0.929 . S
C631 C625 1.390 . S
C631 C628 1.386 . S
C632 C627 1.490 . S
C632 C634 1.395 . S
C632 C635 1.403 . S
H633 C639 0.930 . S
C634 H620 0.930 . S
C634 C632 1.395 . S
C634 C637 1.403 . S
C635 C632 1.403 . S
C635 C636 1.524 . S
C635 C639 1.400 . S
C636 H621 0.960 . S
C636 H622 0.960 . S
C636 H623 0.960 . S
C636 C635 1.524 . S
C637 C634 1.403 . S
C637 C638 1.392 . S
C637 C641 1.495 . S
C638 C637 1.392 . S
C638 C639 1.385 . S
C638 C640 1.478 . S
C639 H633 0.930 . S
C639 C635 1.400 . S
C639 C638 1.385 . S
C640 C638 1.478 . S
C640 C642 1.381 . S
C640 C646 1.383 . S
C641 C637 1.495 . S
C641 H647 0.959 . S
C641 H648 0.961 . S
C641 H649 0.960 . S
C642 C640 1.381 . S
C642 C643 1.394 . S
C642 H650 0.930 . S
C643 C642 1.394 . S
C643 C644 1.383 . S
C643 H651 0.929 . S
C644 C643 1.383 . S
C644 C645 1.377 . S
C645 H629 0.930 . S
C645 C644 1.377 . S
C645 C646 1.379 . S
C646 H630 0.931 . S
C646 C640 1.383 . S
C646 C645 1.379 . S
H647 C641 0.959 . S
H648 C641 0.961 . S
H649 C641 0.960 . S
H650 C642 0.930 . S
H651 C643 0.929 . S
H652 C660 0.929 . S
H653 C662 0.930 . S
H654 C664 0.930 . S
H655 C667 0.929 . S
H656 C670 0.930 . S
H657 C672 0.960 . S
H658 C672 0.960 . S
H659 C672 0.960 . S
C660 H652 0.929 . S
C660 C661 1.377 . S
C660 C662 1.384 . S
C661 C660 1.377 . S
C661 C667 1.390 . S
C662 H653 0.930 . S
C662 C660 1.384 . S
C662 C663 1.372 . S
C663 C662 1.372 . S
C663 C664 1.400 . S
C663 C668 1.490 . S
C664 H654 0.930 . S
C664 C663 1.400 . S
C664 C667 1.386 . S
H665 C681 0.930 . S
H666 C682 0.931 . S
C667 H655 0.929 . S
C667 C661 1.390 . S
C667 C664 1.386 . S
C668 C663 1.490 . S
C668 C670 1.395 . S
C668 C671 1.403 . S
H669 C675 0.930 . S
C670 H656 0.930 . S
C670 C668 1.395 . S
C670 C673 1.403 . S
C671 C668 1.403 . S
C671 C672 1.524 . S
C671 C675 1.400 . S
C672 H657 0.960 . S
C672 H658 0.960 . S
C672 H659 0.960 . S
C672 C671 1.524 . S
C673 C670 1.403 . S
C673 C674 1.392 . S
C673 C677 1.495 . S
C674 C673 1.392 . S
C674 C675 1.385 . S
C674 C676 1.478 . S
C675 H669 0.930 . S
C675 C671 1.400 . S
C675 C674 1.385 . S
C676 C674 1.478 . S
C676 C678 1.381 . S
C676 C682 1.383 . S
C677 C673 1.495 . S
C677 H683 0.959 . S
C677 H684 0.961 . S
C677 H685 0.960 . S
C678 C676 1.381 . S
C678 C679 1.394 . S
C678 H686 0.930 . S
C679 C678 1.394 . S
C679 C680 1.383 . S
C679 H687 0.929 . S
C680 C679 1.383 . S
C680 C681 1.377 . S
C681 H665 0.930 . S
C681 C680 1.377 . S
C681 C682 1.379 . S
C682 H666 0.931 . S
C682 C676 1.383 . S
C682 C681 1.379 . S
H683 C677 0.959 . S
H684 C677 0.961 . S
H685 C677 0.960 . S
H686 C678 0.930 . S
H687 C679 0.929 . S
H688 C696 0.929 . S
H689 C698 0.930 . S
H690 C700 0.930 . S
H691 C703 0.929 . S
H692 C706 0.930 . S
H693 C708 0.960 . S
H694 C708 0.960 . S
H695 C708 0.960 . S
C696 H688 0.929 . S
C696 C697 1.377 . S
C696 C698 1.384 . S
C697 C696 1.377 . S
C697 C703 1.390 . S
C698 H689 0.930 . S
C698 C696 1.384 . S
C698 C699 1.372 . S
C699 C698 1.372 . S
C699 C700 1.400 . S
C699 C704 1.490 . S
C700 H690 0.930 . S
C700 C699 1.400 . S
C700 C703 1.386 . S
H701 C717 0.930 . S
H702 C718 0.931 . S
C703 H691 0.929 . S
C703 C697 1.390 . S
C703 C700 1.386 . S
C704 C699 1.490 . S
C704 C706 1.395 . S
C704 C707 1.403 . S
H705 C711 0.930 . S
C706 H692 0.930 . S
C706 C704 1.395 . S
C706 C709 1.403 . S
C707 C704 1.403 . S
C707 C708 1.524 . S
C707 C711 1.400 . S
C708 H693 0.960 . S
C708 H694 0.960 . S
C708 H695 0.960 . S
C708 C707 1.524 . S
C709 C706 1.403 . S
C709 C710 1.392 . S
C709 C713 1.495 . S
C710 C709 1.392 . S
C710 C711 1.385 . S
C710 C712 1.478 . S
C711 H705 0.930 . S
C711 C707 1.400 . S
C711 C710 1.385 . S
C712 C710 1.478 . S
C712 C714 1.381 . S
C712 C718 1.383 . S
C713 C709 1.495 . S
C713 H719 0.959 . S
C713 H720 0.961 . S
C713 H721 0.960 . S
C714 C712 1.381 . S
C714 C715 1.394 . S
C714 H722 0.930 . S
C715 C714 1.394 . S
C715 C716 1.383 . S
C715 H723 0.929 . S
C716 C715 1.383 . S
C716 C717 1.377 . S
C717 H701 0.930 . S
C717 C716 1.377 . S
C717 C718 1.379 . S
C718 H702 0.931 . S
C718 C712 1.383 . S
C718 C717 1.379 . S
H719 C713 0.959 . S
H720 C713 0.961 . S
H721 C713 0.960 . S
H722 C714 0.930 . S
H723 C715 0.929 . S
H724 C732 0.929 . S
H725 C734 0.930 . S
H726 C736 0.930 . S
H727 C739 0.929 . S
H728 C742 0.930 . S
H729 C744 0.960 . S
H730 C744 0.960 . S
H731 C744 0.960 . S
C732 H724 0.929 . S
C732 C733 1.377 . S
C732 C734 1.384 . S
C733 C732 1.377 . S
C733 C739 1.390 . S
C734 H725 0.930 . S
C734 C732 1.384 . S
C734 C735 1.372 . S
C735 C734 1.372 . S
C735 C736 1.400 . S
C735 C740 1.490 . S
C736 H726 0.930 . S
C736 C735 1.400 . S
C736 C739 1.386 . S
H737 C753 0.930 . S
H738 C754 0.931 . S
C739 H727 0.929 . S
C739 C733 1.390 . S
C739 C736 1.386 . S
C740 C735 1.490 . S
C740 C742 1.395 . S
C740 C743 1.403 . S
H741 C747 0.930 . S
C742 H728 0.930 . S
C742 C740 1.395 . S
C742 C745 1.403 . S
C743 C740 1.403 . S
C743 C744 1.524 . S
C743 C747 1.400 . S
C744 H729 0.960 . S
C744 H730 0.960 . S
C744 H731 0.960 . S
C744 C743 1.524 . S
C745 C742 1.403 . S
C745 C746 1.392 . S
C745 C749 1.495 . S
C746 C745 1.392 . S
C746 C747 1.385 . S
C746 C748 1.478 . S
C747 H741 0.930 . S
C747 C743 1.400 . S
C747 C746 1.385 . S
C748 C746 1.478 . S
C748 C750 1.381 . S
C748 C754 1.383 . S
C749 C745 1.495 . S
C749 H755 0.959 . S
C749 H756 0.961 . S
C749 H757 0.960 . S
C750 C748 1.381 . S
C750 C751 1.394 . S
C750 H758 0.930 . S
C751 C750 1.394 . S
C751 C752 1.383 . S
C751 H759 0.929 . S
C752 C751 1.383 . S
C752 C753 1.377 . S
C753 H737 0.930 . S
C753 C752 1.377 . S
C753 C754 1.379 . S
C754 H738 0.931 . S
C754 C748 1.383 . S
C754 C753 1.379 . S
H755 C749 0.959 . S
H756 C749 0.961 . S
H757 C749 0.960 . S
H758 C750 0.930 . S
H759 C751 0.929 . S
H760 C768 0.929 . S
H761 C770 0.930 . S
H762 C772 0.930 . S
H763 C775 0.929 . S
H764 C778 0.930 . S
H765 C780 0.960 . S
H766 C780 0.960 . S
H767 C780 0.960 . S
C768 H760 0.929 . S
C768 C769 1.377 . S
C768 C770 1.384 . S
C769 C768 1.377 . S
C769 C775 1.390 . S
C770 H761 0.930 . S
C770 C768 1.384 . S
C770 C771 1.372 . S
C771 C770 1.372 . S
C771 C772 1.400 . S
C771 C776 1.490 . S
C772 H762 0.930 . S
C772 C771 1.400 . S
C772 C775 1.386 . S
H773 C789 0.930 . S
H774 C790 0.931 . S
C775 H763 0.929 . S
C775 C769 1.390 . S
C775 C772 1.386 . S
C776 C771 1.490 . S
C776 C778 1.395 . S
C776 C779 1.403 . S
H777 C783 0.930 . S
C778 H764 0.930 . S
C778 C776 1.395 . S
C778 C781 1.403 . S
C779 C776 1.403 . S
C779 C780 1.524 . S
C779 C783 1.400 . S
C780 H765 0.960 . S
C780 H766 0.960 . S
C780 H767 0.960 . S
C780 C779 1.524 . S
C781 C778 1.403 . S
C781 C782 1.392 . S
C781 C785 1.495 . S
C782 C781 1.392 . S
C782 C783 1.385 . S
C782 C784 1.478 . S
C783 H777 0.930 . S
C783 C779 1.400 . S
C783 C782 1.385 . S
C784 C782 1.478 . S
C784 C786 1.381 . S
C784 C790 1.383 . S
C785 C781 1.495 . S
C785 H791 0.959 . S
C785 H792 0.961 . S
C785 H793 0.960 . S
C786 C784 1.381 . S
C786 C787 1.394 . S
C786 H794 0.930 . S
C787 C786 1.394 . S
C787 C788 1.383 . S
C787 H795 0.929 . S
C788 C787 1.383 . S
C788 C789 1.377 . S
C789 H773 0.930 . S
C789 C788 1.377 . S
C789 C790 1.379 . S
C790 H774 0.931 . S
C790 C784 1.383 . S
C790 C789 1.379 . S
H791 C785 0.959 . S
H792 C785 0.961 . S
H793 C785 0.960 . S
H794 C786 0.930 . S
H795 C787 0.929 . S
H796 C804 0.929 . S
H797 C806 0.930 . S
H798 C808 0.930 . S
H799 C811 0.929 . S
H800 C814 0.930 . S
H801 C816 0.960 . S
H802 C816 0.960 . S
H803 C816 0.960 . S
C804 H796 0.929 . S
C804 C805 1.377 . S
C804 C806 1.384 . S
C805 C804 1.377 . S
C805 C811 1.390 . S
C806 H797 0.930 . S
C806 C804 1.384 . S
C806 C807 1.372 . S
C807 C806 1.372 . S
C807 C808 1.400 . S
C807 C812 1.490 . S
C808 H798 0.930 . S
C808 C807 1.400 . S
C808 C811 1.386 . S
H809 C825 0.930 . S
H810 C826 0.931 . S
C811 H799 0.929 . S
C811 C805 1.390 . S
C811 C808 1.386 . S
C812 C807 1.490 . S
C812 C814 1.395 . S
C812 C815 1.403 . S
H813 C819 0.930 . S
C814 H800 0.930 . S
C814 C812 1.395 . S
C814 C817 1.403 . S
C815 C812 1.403 . S
C815 C816 1.524 . S
C815 C819 1.400 . S
C816 H801 0.960 . S
C816 H802 0.960 . S
C816 H803 0.960 . S
C816 C815 1.524 . S
C817 C814 1.403 . S
C817 C818 1.392 . S
C817 C821 1.495 . S
C818 C817 1.392 . S
C818 C819 1.385 . S
C818 C820 1.478 . S
C819 H813 0.930 . S
C819 C815 1.400 . S
C819 C818 1.385 . S
C820 C818 1.478 . S
C820 C822 1.381 . S
C820 C826 1.383 . S
C821 C817 1.495 . S
C821 H827 0.959 . S
C821 H828 0.961 . S
C821 H829 0.960 . S
C822 C820 1.381 . S
C822 C823 1.394 . S
C822 H830 0.930 . S
C823 C822 1.394 . S
C823 C824 1.383 . S
C823 H831 0.929 . S
C824 C823 1.383 . S
C824 C825 1.377 . S
C825 H809 0.930 . S
C825 C824 1.377 . S
C825 C826 1.379 . S
C826 H810 0.931 . S
C826 C820 1.383 . S
C826 C825 1.379 . S
H827 C821 0.959 . S
H828 C821 0.961 . S
H829 C821 0.960 . S
H830 C822 0.930 . S
H831 C823 0.929 . S
H832 C840 0.929 . S
H833 C842 0.930 . S
H834 C844 0.930 . S
H835 C847 0.929 . S
H836 C850 0.930 . S
H837 C852 0.960 . S
H838 C852 0.960 . S
H839 C852 0.960 . S
C840 H832 0.929 . S
C840 C841 1.377 . S
C840 C842 1.384 . S
C841 C840 1.377 . S
C841 C847 1.390 . S
C842 H833 0.930 . S
C842 C840 1.384 . S
C842 C843 1.372 . S
C843 C842 1.372 . S
C843 C844 1.400 . S
C843 C848 1.490 . S
C844 H834 0.930 . S
C844 C843 1.400 . S
C844 C847 1.386 . S
H845 C861 0.930 . S
H846 C862 0.931 . S
C847 H835 0.929 . S
C847 C841 1.390 . S
C847 C844 1.386 . S
C848 C843 1.490 . S
C848 C850 1.395 . S
C848 C851 1.403 . S
H849 C855 0.930 . S
C850 H836 0.930 . S
C850 C848 1.395 . S
C850 C853 1.403 . S
C851 C848 1.403 . S
C851 C852 1.524 . S
C851 C855 1.400 . S
C852 H837 0.960 . S
C852 H838 0.960 . S
C852 H839 0.960 . S
C852 C851 1.524 . S
C853 C850 1.403 . S
C853 C854 1.392 . S
C853 C857 1.495 . S
C854 C853 1.392 . S
C854 C855 1.385 . S
C854 C856 1.478 . S
C855 H849 0.930 . S
C855 C851 1.400 . S
C855 C854 1.385 . S
C856 C854 1.478 . S
C856 C858 1.381 . S
C856 C862 1.383 . S
C857 C853 1.495 . S
C857 H863 0.959 . S
C857 H864 0.961 . S
C857 H865 0.960 . S
C858 C856 1.381 . S
C858 C859 1.394 . S
C858 H866 0.930 . S
C859 C858 1.394 . S
C859 C860 1.383 . S
C859 H867 0.929 . S
C860 C859 1.383 . S
C860 C861 1.377 . S
C861 H845 0.930 . S
C861 C860 1.377 . S
C861 C862 1.379 . S
C862 H846 0.931 . S
C862 C856 1.383 . S
C862 C861 1.379 . S
H863 C857 0.959 . S
H864 C857 0.961 . S
H865 C857 0.960 . S
H866 C858 0.930 . S
H867 C859 0.929 . S
H868 C876 0.929 . S
H869 C878 0.930 . S
H870 C880 0.930 . S
H871 C883 0.929 . S
H872 C886 0.930 . S
H873 C888 0.960 . S
H874 C888 0.960 . S
H875 C888 0.960 . S
C876 H868 0.929 . S
C876 C877 1.377 . S
C876 C878 1.384 . S
C877 C876 1.377 . S
C877 C883 1.390 . S
C878 H869 0.930 . S
C878 C876 1.384 . S
C878 C879 1.372 . S
C879 C878 1.372 . S
C879 C880 1.400 . S
C879 C884 1.490 . S
C880 H870 0.930 . S
C880 C879 1.400 . S
C880 C883 1.386 . S
H881 C897 0.930 . S
H882 C898 0.931 . S
C883 H871 0.929 . S
C883 C877 1.390 . S
C883 C880 1.386 . S
C884 C879 1.490 . S
C884 C886 1.395 . S
C884 C887 1.403 . S
H885 C891 0.930 . S
C886 H872 0.930 . S
C886 C884 1.395 . S
C886 C889 1.403 . S
C887 C884 1.403 . S
C887 C888 1.524 . S
C887 C891 1.400 . S
C888 H873 0.960 . S
C888 H874 0.960 . S
C888 H875 0.960 . S
C888 C887 1.524 . S
C889 C886 1.403 . S
C889 C890 1.392 . S
C889 C893 1.495 . S
C890 C889 1.392 . S
C890 C891 1.385 . S
C890 C892 1.478 . S
C891 H885 0.930 . S
C891 C887 1.400 . S
C891 C890 1.385 . S
C892 C890 1.478 . S
C892 C894 1.381 . S
C892 C898 1.383 . S
C893 C889 1.495 . S
C893 H899 0.959 . S
C893 H900 0.961 . S
C893 H901 0.960 . S
C894 C892 1.381 . S
C894 C895 1.394 . S
C894 H902 0.930 . S
C895 C894 1.394 . S
C895 C896 1.383 . S
C895 H903 0.929 . S
C896 C895 1.383 . S
C896 C897 1.377 . S
C897 H881 0.930 . S
C897 C896 1.377 . S
C897 C898 1.379 . S
C898 H882 0.931 . S
C898 C892 1.383 . S
C898 C897 1.379 . S
H899 C893 0.959 . S
H900 C893 0.961 . S
H901 C893 0.960 . S
H902 C894 0.930 . S
H903 C895 0.929 . S
H904 C912 0.929 . S
H905 C914 0.930 . S
H906 C916 0.930 . S
H907 C919 0.929 . S
H908 C922 0.930 . S
H909 C924 0.960 . S
H910 C924 0.960 . S
H911 C924 0.960 . S
C912 H904 0.929 . S
C912 C913 1.377 . S
C912 C914 1.384 . S
C913 C912 1.377 . S
C913 C919 1.390 . S
C914 H905 0.930 . S
C914 C912 1.384 . S
C914 C915 1.372 . S
C915 C914 1.372 . S
C915 C916 1.400 . S
C915 C920 1.490 . S
C916 H906 0.930 . S
C916 C915 1.400 . S
C916 C919 1.386 . S
H917 C933 0.930 . S
H918 C934 0.931 . S
C919 H907 0.929 . S
C919 C913 1.390 . S
C919 C916 1.386 . S
C920 C915 1.490 . S
C920 C922 1.395 . S
C920 C923 1.403 . S
H921 C927 0.930 . S
C922 H908 0.930 . S
C922 C920 1.395 . S
C922 C925 1.403 . S
C923 C920 1.403 . S
C923 C924 1.524 . S
C923 C927 1.400 . S
C924 H909 0.960 . S
C924 H910 0.960 . S
C924 H911 0.960 . S
C924 C923 1.524 . S
C925 C922 1.403 . S
C925 C926 1.392 . S
C925 C929 1.495 . S
C926 C925 1.392 . S
C926 C927 1.385 . S
C926 C928 1.478 . S
C927 H921 0.930 . S
C927 C923 1.400 . S
C927 C926 1.385 . S
C928 C926 1.478 . S
C928 C930 1.381 . S
C928 C934 1.383 . S
C929 C925 1.495 . S
C929 H935 0.959 . S
C929 H936 0.961 . S
C929 H937 0.960 . S
C930 C928 1.381 . S
C930 C931 1.394 . S
C930 H938 0.930 . S
C931 C930 1.394 . S
C931 C932 1.383 . S
C931 H939 0.929 . S
C932 C931 1.383 . S
C932 C933 1.377 . S
C933 H917 0.930 . S
C933 C932 1.377 . S
C933 C934 1.379 . S
C934 H918 0.931 . S
C934 C928 1.383 . S
C934 C933 1.379 . S
H935 C929 0.959 . S
H936 C929 0.961 . S
H937 C929 0.960 . S
H938 C930 0.930 . S
H939 C931 0.929 . S
H940 C948 0.929 . S
H941 C950 0.930 . S
H942 C952 0.930 . S
H943 C955 0.929 . S
H944 C958 0.930 . S
H945 C960 0.960 . S
H946 C960 0.960 . S
H947 C960 0.960 . S
C948 H940 0.929 . S
C948 C949 1.377 . S
C948 C950 1.384 . S
C949 C948 1.377 . S
C949 C955 1.390 . S
C950 H941 0.930 . S
C950 C948 1.384 . S
C950 C951 1.372 . S
C951 C950 1.372 . S
C951 C952 1.400 . S
C951 C956 1.490 . S
C952 H942 0.930 . S
C952 C951 1.400 . S
C952 C955 1.386 . S
H953 C969 0.930 . S
H954 C970 0.931 . S
C955 H943 0.929 . S
C955 C949 1.390 . S
C955 C952 1.386 . S
C956 C951 1.490 . S
C956 C958 1.395 . S
C956 C959 1.403 . S
H957 C963 0.930 . S
C958 H944 0.930 . S
C958 C956 1.395 . S
C958 C961 1.403 . S
C959 C956 1.403 . S
C959 C960 1.524 . S
C959 C963 1.400 . S
C960 H945 0.960 . S
C960 H946 0.960 . S
C960 H947 0.960 . S
C960 C959 1.524 . S
C961 C958 1.403 . S
C961 C962 1.392 . S
C961 C965 1.495 . S
C962 C961 1.392 . S
C962 C963 1.385 . S
C962 C964 1.478 . S
C963 H957 0.930 . S
C963 C959 1.400 . S
C963 C962 1.385 . S
C964 C962 1.478 . S
C964 C966 1.381 . S
C964 C970 1.383 . S
C965 C961 1.495 . S
C965 H971 0.959 . S
C965 H972 0.961 . S
C965 H973 0.960 . S
C966 C964 1.381 . S
C966 C967 1.394 . S
C966 H974 0.930 . S
C967 C966 1.394 . S
C967 C968 1.383 . S
C967 H975 0.929 . S
C968 C967 1.383 . S
C968 C969 1.377 . S
C969 H953 0.930 . S
C969 C968 1.377 . S
C969 C970 1.379 . S
C970 H954 0.931 . S
C970 C964 1.383 . S
C970 C969 1.379 . S
H971 C965 0.959 . S
H972 C965 0.961 . S
H973 C965 0.960 . S
H974 C966 0.930 . S
H975 C967 0.929 . S
H976 C984 0.929 . S
H977 C986 0.930 . S
H978 C988 0.930 . S
H979 C991 0.929 . S
H980 C994 0.930 . S
H981 C996 0.960 . S
H982 C996 0.960 . S
H983 C996 0.960 . S
C984 H976 0.929 . S
C984 C985 1.377 . S
C984 C986 1.384 . S
C985 C984 1.377 . S
C985 C991 1.390 . S
C986 H977 0.930 . S
C986 C984 1.384 . S
C986 C987 1.372 . S
C987 C986 1.372 . S
C987 C988 1.400 . S
C987 C992 1.490 . S
C988 H978 0.930 . S
C988 C987 1.400 . S
C988 C991 1.386 . S
H989 C1005 0.930 . S
H990 C1006 0.931 . S
C991 H979 0.929 . S
C991 C985 1.390 . S
C991 C988 1.386 . S
C992 C987 1.490 . S
C992 C994 1.395 . S
C992 C995 1.403 . S
H993 C999 0.930 . S
C994 H980 0.930 . S
C994 C992 1.395 . S
C994 C997 1.403 . S
C995 C992 1.403 . S
C995 C996 1.524 . S
C995 C999 1.400 . S
C996 H981 0.960 . S
C996 H982 0.960 . S
C996 H983 0.960 . S
C996 C995 1.524 . S
C997 C994 1.403 . S
C997 C998 1.392 . S
C997 C1001 1.495 . S
C998 C997 1.392 . S
C998 C999 1.385 . S
C998 C1000 1.478 . S
C999 H993 0.930 . S
C999 C995 1.400 . S
C999 C998 1.385 . S
C1000 C998 1.478 . S
C1000 C1002 1.381 . S
C1000 C1006 1.383 . S
C1001 C997 1.495 . S
C1001 H1007 0.959 . S
C1001 H1008 0.961 . S
C1001 H1009 0.960 . S
C1002 C1000 1.381 . S
C1002 C1003 1.394 . S
C1002 H1010 0.930 . S
C1003 C1002 1.394 . S
C1003 C1004 1.383 . S
C1003 H1011 0.929 . S
C1004 C1003 1.383 . S
C1004 C1005 1.377 . S
C1005 H989 0.930 . S
C1005 C1004 1.377 . S
C1005 C1006 1.379 . S
C1006 H990 0.931 . S
C1006 C1000 1.383 . S
C1006 C1005 1.379 . S
H1007 C1001 0.959 . S
H1008 C1001 0.961 . S
H1009 C1001 0.960 . S
H1010 C1002 0.930 . S
H1011 C1003 0.929 . S
H1012 C1020 0.929 . S
H1013 C1022 0.930 . S
H1014 C1024 0.930 . S
H1015 C1027 0.929 . S
H1016 C1030 0.930 . S
H1017 C1032 0.960 . S
H1018 C1032 0.960 . S
H1019 C1032 0.960 . S
C1020 H1012 0.929 . S
C1020 C1021 1.377 . S
C1020 C1022 1.384 . S
C1021 C1020 1.377 . S
C1021 C1027 1.390 . S
C1022 H1013 0.930 . S
C1022 C1020 1.384 . S
C1022 C1023 1.372 . S
C1023 C1022 1.372 . S
C1023 C1024 1.400 . S
C1023 C1028 1.490 . S
C1024 H1014 0.930 . S
C1024 C1023 1.400 . S
C1024 C1027 1.386 . S
H1025 C1041 0.930 . S
H1026 C1042 0.931 . S
C1027 H1015 0.929 . S
C1027 C1021 1.390 . S
C1027 C1024 1.386 . S
C1028 C1023 1.490 . S
C1028 C1030 1.395 . S
C1028 C1031 1.403 . S
H1029 C1035 0.930 . S
C1030 H1016 0.930 . S
C1030 C1028 1.395 . S
C1030 C1033 1.403 . S
C1031 C1028 1.403 . S
C1031 C1032 1.524 . S
C1031 C1035 1.400 . S
C1032 H1017 0.960 . S
C1032 H1018 0.960 . S
C1032 H1019 0.960 . S
C1032 C1031 1.524 . S
C1033 C1030 1.403 . S
C1033 C1034 1.392 . S
C1033 C1037 1.495 . S
C1034 C1033 1.392 . S
C1034 C1035 1.385 . S
C1034 C1036 1.478 . S
C1035 H1029 0.930 . S
C1035 C1031 1.400 . S
C1035 C1034 1.385 . S
C1036 C1034 1.478 . S
C1036 C1038 1.381 . S
C1036 C1042 1.383 . S
C1037 C1033 1.495 . S
C1037 H1043 0.959 . S
C1037 H1044 0.961 . S
C1037 H1045 0.960 . S
C1038 C1036 1.381 . S
C1038 C1039 1.394 . S
C1038 H1046 0.930 . S
C1039 C1038 1.394 . S
C1039 C1040 1.383 . S
C1039 H1047 0.929 . S
C1040 C1039 1.383 . S
C1040 C1041 1.377 . S
C1041 H1025 0.930 . S
C1041 C1040 1.377 . S
C1041 C1042 1.379 . S
C1042 H1026 0.931 . S
C1042 C1036 1.383 . S
C1042 C1041 1.379 . S
H1043 C1037 0.959 . S
H1044 C1037 0.961 . S
H1045 C1037 0.960 . S
H1046 C1038 0.930 . S
H1047 C1039 0.929 . S
H1048 C1056 0.929 . S
H1049 C1058 0.930 . S
H1050 C1060 0.930 . S
H1051 C1063 0.929 . S
H1052 C1066 0.930 . S
H1053 C1068 0.960 . S
H1054 C1068 0.960 . S
H1055 C1068 0.960 . S
C1056 H1048 0.929 . S
C1056 C1057 1.377 . S
C1056 C1058 1.384 . S
C1057 C1056 1.377 . S
C1057 C1063 1.390 . S
C1058 H1049 0.930 . S
C1058 C1056 1.384 . S
C1058 C1059 1.372 . S
C1059 C1058 1.372 . S
C1059 C1060 1.400 . S
C1059 C1064 1.490 . S
C1060 H1050 0.930 . S
C1060 C1059 1.400 . S
C1060 C1063 1.386 . S
H1061 C1077 0.930 . S
H1062 C1078 0.931 . S
C1063 H1051 0.929 . S
C1063 C1057 1.390 . S
C1063 C1060 1.386 . S
C1064 C1059 1.490 . S
C1064 C1066 1.395 . S
C1064 C1067 1.403 . S
H1065 C1071 0.930 . S
C1066 H1052 0.930 . S
C1066 C1064 1.395 . S
C1066 C1069 1.403 . S
C1067 C1064 1.403 . S
C1067 C1068 1.524 . S
C1067 C1071 1.400 . S
C1068 H1053 0.960 . S
C1068 H1054 0.960 . S
C1068 H1055 0.960 . S
C1068 C1067 1.524 . S
C1069 C1066 1.403 . S
C1069 C1070 1.392 . S
C1069 C1073 1.495 . S
C1070 C1069 1.392 . S
C1070 C1071 1.385 . S
C1070 C1072 1.478 . S
C1071 H1065 0.930 . S
C1071 C1067 1.400 . S
C1071 C1070 1.385 . S
C1072 C1070 1.478 . S
C1072 C1074 1.381 . S
C1072 C1078 1.383 . S
C1073 C1069 1.495 . S
C1073 H1079 0.959 . S
C1073 H1080 0.961 . S
C1073 H1081 0.960 . S
C1074 C1072 1.381 . S
C1074 C1075 1.394 . S
C1074 H1082 0.930 . S
C1075 C1074 1.394 . S
C1075 C1076 1.383 . S
C1075 H1083 0.929 . S
C1076 C1075 1.383 . S
C1076 C1077 1.377 . S
C1077 H1061 0.930 . S
C1077 C1076 1.377 . S
C1077 C1078 1.379 . S
C1078 H1062 0.931 . S
C1078 C1072 1.383 . S
C1078 C1077 1.379 . S
H1079 C1073 0.959 . S
H1080 C1073 0.961 . S
H1081 C1073 0.960 . S
H1082 C1074 0.930 . S
H1083 C1075 0.929 . S
H1084 C1092 0.929 . S
H1085 C1094 0.930 . S
H1086 C1096 0.930 . S
H1087 C1099 0.929 . S
H1088 C1102 0.930 . S
H1089 C1104 0.960 . S
H1090 C1104 0.960 . S
H1091 C1104 0.960 . S
C1092 H1084 0.929 . S
C1092 C1093 1.377 . S
C1092 C1094 1.384 . S
C1093 C1092 1.377 . S
C1093 C1099 1.390 . S
C1094 H1085 0.930 . S
C1094 C1092 1.384 . S
C1094 C1095 1.372 . S
C1095 C1094 1.372 . S
C1095 C1096 1.400 . S
C1095 C1100 1.490 . S
C1096 H1086 0.930 . S
C1096 C1095 1.400 . S
C1096 C1099 1.386 . S
H1097 C1113 0.930 . S
H1098 C1114 0.931 . S
C1099 H1087 0.929 . S
C1099 C1093 1.390 . S
C1099 C1096 1.386 . S
C1100 C1095 1.490 . S
C1100 C1102 1.395 . S
C1100 C1103 1.403 . S
H1101 C1107 0.930 . S
C1102 H1088 0.930 . S
C1102 C1100 1.395 . S
C1102 C1105 1.403 . S
C1103 C1100 1.403 . S
C1103 C1104 1.524 . S
C1103 C1107 1.400 . S
C1104 H1089 0.960 . S
C1104 H1090 0.960 . S
C1104 H1091 0.960 . S
C1104 C1103 1.524 . S
C1105 C1102 1.403 . S
C1105 C1106 1.392 . S
C1105 C1109 1.495 . S
C1106 C1105 1.392 . S
C1106 C1107 1.385 . S
C1106 C1108 1.478 . S
C1107 H1101 0.930 . S
C1107 C1103 1.400 . S
C1107 C1106 1.385 . S
C1108 C1106 1.478 . S
C1108 C1110 1.381 . S
C1108 C1114 1.383 . S
C1109 C1105 1.495 . S
C1109 H1115 0.959 . S
C1109 H1116 0.961 . S
C1109 H1117 0.960 . S
C1110 C1108 1.381 . S
C1110 C1111 1.394 . S
C1110 H1118 0.930 . S
C1111 C1110 1.394 . S
C1111 C1112 1.383 . S
C1111 H1119 0.929 . S
C1112 C1111 1.383 . S
C1112 C1113 1.377 . S
C1113 H1097 0.930 . S
C1113 C1112 1.377 . S
C1113 C1114 1.379 . S
C1114 H1098 0.931 . S
C1114 C1108 1.383 . S
C1114 C1113 1.379 . S
H1115 C1109 0.959 . S
H1116 C1109 0.961 . S
H1117 C1109 0.960 . S
H1118 C1110 0.930 . S
H1119 C1111 0.929 . S
H1120 C1128 0.929 . S
H1121 C1130 0.930 . S
H1122 C1132 0.930 . S
H1123 C1135 0.929 . S
H1124 C1138 0.930 . S
H1125 C1140 0.960 . S
H1126 C1140 0.960 . S
H1127 C1140 0.960 . S
C1128 H1120 0.929 . S
C1128 C1129 1.377 . S
C1128 C1130 1.384 . S
C1129 C1128 1.377 . S
C1129 C1135 1.390 . S
C1130 H1121 0.930 . S
C1130 C1128 1.384 . S
C1130 C1131 1.372 . S
C1131 C1130 1.372 . S
C1131 C1132 1.400 . S
C1131 C1136 1.490 . S
C1132 H1122 0.930 . S
C1132 C1131 1.400 . S
C1132 C1135 1.386 . S
H1133 C1149 0.930 . S
H1134 C1150 0.931 . S
C1135 H1123 0.929 . S
C1135 C1129 1.390 . S
C1135 C1132 1.386 . S
C1136 C1131 1.490 . S
C1136 C1138 1.395 . S
C1136 C1139 1.403 . S
H1137 C1143 0.930 . S
C1138 H1124 0.930 . S
C1138 C1136 1.395 . S
C1138 C1141 1.403 . S
C1139 C1136 1.403 . S
C1139 C1140 1.524 . S
C1139 C1143 1.400 . S
C1140 H1125 0.960 . S
C1140 H1126 0.960 . S
C1140 H1127 0.960 . S
C1140 C1139 1.524 . S
C1141 C1138 1.403 . S
C1141 C1142 1.392 . S
C1141 C1145 1.495 . S
C1142 C1141 1.392 . S
C1142 C1143 1.385 . S
C1142 C1144 1.478 . S
C1143 H1137 0.930 . S
C1143 C1139 1.400 . S
C1143 C1142 1.385 . S
C1144 C1142 1.478 . S
C1144 C1146 1.381 . S
C1144 C1150 1.383 . S
C1145 C1141 1.495 . S
C1145 H1151 0.959 . S
C1145 H1152 0.961 . S
C1145 H1153 0.960 . S
C1146 C1144 1.381 . S
C1146 C1147 1.394 . S
C1146 H1154 0.930 . S
C1147 C1146 1.394 . S
C1147 C1148 1.383 . S
C1147 H1155 0.929 . S
C1148 C1147 1.383 . S
C1148 C1149 1.377 . S
C1149 H1133 0.930 . S
C1149 C1148 1.377 . S
C1149 C1150 1.379 . S
C1150 H1134 0.931 . S
C1150 C1144 1.383 . S
C1150 C1149 1.379 . S
H1151 C1145 0.959 . S
H1152 C1145 0.961 . S
H1153 C1145 0.960 . S
H1154 C1146 0.930 . S
H1155 C1147 0.929 . S
H1156 C1164 0.929 . S
H1157 C1166 0.930 . S
H1158 C1168 0.930 . S
H1159 C1171 0.929 . S
H1160 C1174 0.930 . S
H1161 C1176 0.960 . S
H1162 C1176 0.960 . S
H1163 C1176 0.960 . S
C1164 H1156 0.929 . S
C1164 C1165 1.377 . S
C1164 C1166 1.384 . S
C1165 C1164 1.377 . S
C1165 C1171 1.390 . S
C1166 H1157 0.930 . S
C1166 C1164 1.384 . S
C1166 C1167 1.372 . S
C1167 C1166 1.372 . S
C1167 C1168 1.400 . S
C1167 C1172 1.490 . S
C1168 H1158 0.930 . S
C1168 C1167 1.400 . S
C1168 C1171 1.386 . S
H1169 C1185 0.930 . S
H1170 C1186 0.931 . S
C1171 H1159 0.929 . S
C1171 C1165 1.390 . S
C1171 C1168 1.386 . S
C1172 C1167 1.490 . S
C1172 C1174 1.395 . S
C1172 C1175 1.403 . S
H1173 C1179 0.930 . S
C1174 H1160 0.930 . S
C1174 C1172 1.395 . S
C1174 C1177 1.403 . S
C1175 C1172 1.403 . S
C1175 C1176 1.524 . S
C1175 C1179 1.400 . S
C1176 H1161 0.960 . S
C1176 H1162 0.960 . S
C1176 H1163 0.960 . S
C1176 C1175 1.524 . S
C1177 C1174 1.403 . S
C1177 C1178 1.392 . S
C1177 C1181 1.495 . S
C1178 C1177 1.392 . S
C1178 C1179 1.385 . S
C1178 C1180 1.478 . S
C1179 H1173 0.930 . S
C1179 C1175 1.400 . S
C1179 C1178 1.385 . S
C1180 C1178 1.478 . S
C1180 C1182 1.381 . S
C1180 C1186 1.383 . S
C1181 C1177 1.495 . S
C1181 H1187 0.959 . S
C1181 H1188 0.961 . S
C1181 H1189 0.960 . S
C1182 C1180 1.381 . S
C1182 C1183 1.394 . S
C1182 H1190 0.930 . S
C1183 C1182 1.394 . S
C1183 C1184 1.383 . S
C1183 H1191 0.929 . S
C1184 C1183 1.383 . S
C1184 C1185 1.377 . S
C1185 H1169 0.930 . S
C1185 C1184 1.377 . S
C1185 C1186 1.379 . S
C1186 H1170 0.931 . S
C1186 C1180 1.383 . S
C1186 C1185 1.379 . S
H1187 C1181 0.959 . S
H1188 C1181 0.961 . S
H1189 C1181 0.960 . S
H1190 C1182 0.930 . S
H1191 C1183 0.929 . S
H1192 C1200 0.929 . S
H1193 C1202 0.930 . S
H1194 C1204 0.930 . S
H1195 C1207 0.929 . S
H1196 C1210 0.930 . S
H1197 C1212 0.960 . S
H1198 C1212 0.960 . S
H1199 C1212 0.960 . S
C1200 H1192 0.929 . S
C1200 C1201 1.377 . S
C1200 C1202 1.384 . S
C1201 C1200 1.377 . S
C1201 C1207 1.390 . S
C1202 H1193 0.930 . S
C1202 C1200 1.384 . S
C1202 C1203 1.372 . S
C1203 C1202 1.372 . S
C1203 C1204 1.400 . S
C1203 C1208 1.490 . S
C1204 H1194 0.930 . S
C1204 C1203 1.400 . S
C1204 C1207 1.386 . S
H1205 C1221 0.930 . S
H1206 C1222 0.931 . S
C1207 H1195 0.929 . S
C1207 C1201 1.390 . S
C1207 C1204 1.386 . S
C1208 C1203 1.490 . S
C1208 C1210 1.395 . S
C1208 C1211 1.403 . S
H1209 C1215 0.930 . S
C1210 H1196 0.930 . S
C1210 C1208 1.395 . S
C1210 C1213 1.403 . S
C1211 C1208 1.403 . S
C1211 C1212 1.524 . S
C1211 C1215 1.400 . S
C1212 H1197 0.960 . S
C1212 H1198 0.960 . S
C1212 H1199 0.960 . S
C1212 C1211 1.524 . S
C1213 C1210 1.403 . S
C1213 C1214 1.392 . S
C1213 C1217 1.495 . S
C1214 C1213 1.392 . S
C1214 C1215 1.385 . S
C1214 C1216 1.478 . S
C1215 H1209 0.930 . S
C1215 C1211 1.400 . S
C1215 C1214 1.385 . S
C1216 C1214 1.478 . S
C1216 C1218 1.381 . S
C1216 C1222 1.383 . S
C1217 C1213 1.495 . S
C1217 H1223 0.959 . S
C1217 H1224 0.961 . S
C1217 H1225 0.960 . S
C1218 C1216 1.381 . S
C1218 C1219 1.394 . S
C1218 H1226 0.930 . S
C1219 C1218 1.394 . S
C1219 C1220 1.383 . S
C1219 H1227 0.929 . S
C1220 C1219 1.383 . S
C1220 C1221 1.377 . S
C1221 H1205 0.930 . S
C1221 C1220 1.377 . S
C1221 C1222 1.379 . S
C1222 H1206 0.931 . S
C1222 C1216 1.383 . S
C1222 C1221 1.379 . S
H1223 C1217 0.959 . S
H1224 C1217 0.961 . S
H1225 C1217 0.960 . S
H1226 C1218 0.930 . S
H1227 C1219 0.929 . S
H1228 C1236 0.929 . S
H1229 C1238 0.930 . S
H1230 C1240 0.930 . S
H1231 C1243 0.929 . S
H1232 C1246 0.930 . S
H1233 C1248 0.960 . S
H1234 C1248 0.960 . S
H1235 C1248 0.960 . S
C1236 H1228 0.929 . S
C1236 C1237 1.377 . S
C1236 C1238 1.384 . S
C1237 C1236 1.377 . S
C1237 C1243 1.390 . S
C1238 H1229 0.930 . S
C1238 C1236 1.384 . S
C1238 C1239 1.372 . S
C1239 C1238 1.372 . S
C1239 C1240 1.400 . S
C1239 C1244 1.490 . S
C1240 H1230 0.930 . S
C1240 C1239 1.400 . S
C1240 C1243 1.386 . S
H1241 C1257 0.930 . S
H1242 C1258 0.931 . S
C1243 H1231 0.929 . S
C1243 C1237 1.390 . S
C1243 C1240 1.386 . S
C1244 C1239 1.490 . S
C1244 C1246 1.395 . S
C1244 C1247 1.403 . S
H1245 C1251 0.930 . S
C1246 H1232 0.930 . S
C1246 C1244 1.395 . S
C1246 C1249 1.403 . S
C1247 C1244 1.403 . S
C1247 C1248 1.524 . S
C1247 C1251 1.400 . S
C1248 H1233 0.960 . S
C1248 H1234 0.960 . S
C1248 H1235 0.960 . S
C1248 C1247 1.524 . S
C1249 C1246 1.403 . S
C1249 C1250 1.392 . S
C1249 C1253 1.495 . S
C1250 C1249 1.392 . S
C1250 C1251 1.385 . S
C1250 C1252 1.478 . S
C1251 H1245 0.930 . S
C1251 C1247 1.400 . S
C1251 C1250 1.385 . S
C1252 C1250 1.478 . S
C1252 C1254 1.381 . S
C1252 C1258 1.383 . S
C1253 C1249 1.495 . S
C1253 H1259 0.959 . S
C1253 H1260 0.961 . S
C1253 H1261 0.960 . S
C1254 C1252 1.381 . S
C1254 C1255 1.394 . S
C1254 H1262 0.930 . S
C1255 C1254 1.394 . S
C1255 C1256 1.383 . S
C1255 H1263 0.929 . S
C1256 C1255 1.383 . S
C1256 C1257 1.377 . S
C1257 H1241 0.930 . S
C1257 C1256 1.377 . S
C1257 C1258 1.379 . S
C1258 H1242 0.931 . S
C1258 C1252 1.383 . S
C1258 C1257 1.379 . S
H1259 C1253 0.959 . S
H1260 C1253 0.961 . S
H1261 C1253 0.960 . S
H1262 C1254 0.930 . S
H1263 C1255 0.929 . S
H1264 C1272 0.929 . S
H1265 C1274 0.930 . S
H1266 C1276 0.930 . S
H1267 C1279 0.929 . S
H1268 C1282 0.930 . S
H1269 C1284 0.960 . S
H1270 C1284 0.960 . S
H1271 C1284 0.960 . S
C1272 H1264 0.929 . S
C1272 C1273 1.377 . S
C1272 C1274 1.384 . S
C1273 C1272 1.377 . S
C1273 C1279 1.390 . S
C1274 H1265 0.930 . S
C1274 C1272 1.384 . S
C1274 C1275 1.372 . S
C1275 C1274 1.372 . S
C1275 C1276 1.400 . S
C1275 C1280 1.490 . S
C1276 H1266 0.930 . S
C1276 C1275 1.400 . S
C1276 C1279 1.386 . S
H1277 C1293 0.930 . S
H1278 C1294 0.931 . S
C1279 H1267 0.929 . S
C1279 C1273 1.390 . S
C1279 C1276 1.386 . S
C1280 C1275 1.490 . S
C1280 C1282 1.395 . S
C1280 C1283 1.403 . S
H1281 C1287 0.930 . S
C1282 H1268 0.930 . S
C1282 C1280 1.395 . S
C1282 C1285 1.403 . S
C1283 C1280 1.403 . S
C1283 C1284 1.524 . S
C1283 C1287 1.400 . S
C1284 H1269 0.960 . S
C1284 H1270 0.960 . S
C1284 H1271 0.960 . S
C1284 C1283 1.524 . S
C1285 C1282 1.403 . S
C1285 C1286 1.392 . S
C1285 C1289 1.495 . S
C1286 C1285 1.392 . S
C1286 C1287 1.385 . S
C1286 C1288 1.478 . S
C1287 H1281 0.930 . S
C1287 C1283 1.400 . S
C1287 C1286 1.385 . S
C1288 C1286 1.478 . S
C1288 C1290 1.381 . S
C1288 C1294 1.383 . S
C1289 C1285 1.495 . S
C1289 H1295 0.959 . S
C1289 H1296 0.961 . S
C1289 H1297 0.960 . S
C1290 C1288 1.381 . S
C1290 C1291 1.394 . S
C1290 H1298 0.930 . S
C1291 C1290 1.394 . S
C1291 C1292 1.383 . S
C1291 H1299 0.929 . S
C1292 C1291 1.383 . S
C1292 C1293 1.377 . S
C1293 H1277 0.930 . S
C1293 C1292 1.377 . S
C1293 C1294 1.379 . S
C1294 H1278 0.931 . S
C1294 C1288 1.383 . S
C1294 C1293 1.379 . S
H1295 C1289 0.959 . S
H1296 C1289 0.961 . S
H1297 C1289 0.960 . S
H1298 C1290 0.930 . S
H1299 C1291 0.929 . S
H1300 C1308 0.929 . S
H1301 C1310 0.930 . S
H1302 C1312 0.930 . S
H1303 C1315 0.929 . S
H1304 C1318 0.930 . S
H1305 C1320 0.960 . S
H1306 C1320 0.960 . S
H1307 C1320 0.960 . S
C1308 H1300 0.929 . S
C1308 C1309 1.377 . S
C1308 C1310 1.384 . S
C1309 C1308 1.377 . S
C1309 C1315 1.390 . S
C1310 H1301 0.930 . S
C1310 C1308 1.384 . S
C1310 C1311 1.372 . S
C1311 C1310 1.372 . S
C1311 C1312 1.400 . S
C1311 C1316 1.490 . S
C1312 H1302 0.930 . S
C1312 C1311 1.400 . S
C1312 C1315 1.386 . S
H1313 C1329 0.930 . S
H1314 C1330 0.931 . S
C1315 H1303 0.929 . S
C1315 C1309 1.390 . S
C1315 C1312 1.386 . S
C1316 C1311 1.490 . S
C1316 C1318 1.395 . S
C1316 C1319 1.403 . S
H1317 C1323 0.930 . S
C1318 H1304 0.930 . S
C1318 C1316 1.395 . S
C1318 C1321 1.403 . S
C1319 C1316 1.403 . S
C1319 C1320 1.524 . S
C1319 C1323 1.400 . S
C1320 H1305 0.960 . S
C1320 H1306 0.960 . S
C1320 H1307 0.960 . S
C1320 C1319 1.524 . S
C1321 C1318 1.403 . S
C1321 C1322 1.392 . S
C1321 C1325 1.495 . S
C1322 C1321 1.392 . S
C1322 C1323 1.385 . S
C1322 C1324 1.478 . S
C1323 H1317 0.930 . S
C1323 C1319 1.400 . S
C1323 C1322 1.385 . S
C1324 C1322 1.478 . S
C1324 C1326 1.381 . S
C1324 C1330 1.383 . S
C1325 C1321 1.495 . S
C1325 H1331 0.959 . S
C1325 H1332 0.961 . S
C1325 H1333 0.960 . S
C1326 C1324 1.381 . S
C1326 C1327 1.394 . S
C1326 H1334 0.930 . S
C1327 C1326 1.394 . S
C1327 C1328 1.383 . S
C1327 H1335 0.929 . S
C1328 C1327 1.383 . S
C1328 C1329 1.377 . S
C1329 H1313 0.930 . S
C1329 C1328 1.377 . S
C1329 C1330 1.379 . S
C1330 H1314 0.931 . S
C1330 C1324 1.383 . S
C1330 C1329 1.379 . S
H1331 C1325 0.959 . S
H1332 C1325 0.961 . S
H1333 C1325 0.960 . S
H1334 C1326 0.930 . S
H1335 C1327 0.929 . S
H1336 C1344 0.929 . S
H1337 C1346 0.930 . S
H1338 C1348 0.930 . S
H1339 C1351 0.929 . S
H1340 C1354 0.930 . S
H1341 C1356 0.960 . S
H1342 C1356 0.960 . S
H1343 C1356 0.960 . S
C1344 H1336 0.929 . S
C1344 C1345 1.377 . S
C1344 C1346 1.384 . S
C1345 C1344 1.377 . S
C1345 C1351 1.390 . S
C1346 H1337 0.930 . S
C1346 C1344 1.384 . S
C1346 C1347 1.372 . S
C1347 C1346 1.372 . S
C1347 C1348 1.400 . S
C1347 C1352 1.490 . S
C1348 H1338 0.930 . S
C1348 C1347 1.400 . S
C1348 C1351 1.386 . S
H1349 C1365 0.930 . S
H1350 C1366 0.931 . S
C1351 H1339 0.929 . S
C1351 C1345 1.390 . S
C1351 C1348 1.386 . S
C1352 C1347 1.490 . S
C1352 C1354 1.395 . S
C1352 C1355 1.403 . S
H1353 C1359 0.930 . S
C1354 H1340 0.930 . S
C1354 C1352 1.395 . S
C1354 C1357 1.403 . S
C1355 C1352 1.403 . S
C1355 C1356 1.524 . S
C1355 C1359 1.400 . S
C1356 H1341 0.960 . S
C1356 H1342 0.960 . S
C1356 H1343 0.960 . S
C1356 C1355 1.524 . S
C1357 C1354 1.403 . S
C1357 C1358 1.392 . S
C1357 C1361 1.495 . S
C1358 C1357 1.392 . S
C1358 C1359 1.385 . S
C1358 C1360 1.478 . S
C1359 H1353 0.930 . S
C1359 C1355 1.400 . S
C1359 C1358 1.385 . S
C1360 C1358 1.478 . S
C1360 C1362 1.381 . S
C1360 C1366 1.383 . S
C1361 C1357 1.495 . S
C1361 H1367 0.959 . S
C1361 H1368 0.961 . S
C1361 H1369 0.960 . S
C1362 C1360 1.381 . S
C1362 C1363 1.394 . S
C1362 H1370 0.930 . S
C1363 C1362 1.394 . S
C1363 C1364 1.383 . S
C1363 H1371 0.929 . S
C1364 C1363 1.383 . S
C1364 C1365 1.377 . S
C1365 H1349 0.930 . S
C1365 C1364 1.377 . S
C1365 C1366 1.379 . S
C1366 H1350 0.931 . S
C1366 C1360 1.383 . S
C1366 C1365 1.379 . S
H1367 C1361 0.959 . S
H1368 C1361 0.961 . S
H1369 C1361 0.960 . S
H1370 C1362 0.930 . S
H1371 C1363 0.929 . S
H1372 C1380 0.929 . S
H1373 C1382 0.930 . S
H1374 C1384 0.930 . S
H1375 C1387 0.929 . S
H1376 C1390 0.930 . S
H1377 C1392 0.960 . S
H1378 C1392 0.960 . S
H1379 C1392 0.960 . S
C1380 H1372 0.929 . S
C1380 C1381 1.377 . S
C1380 C1382 1.384 . S
C1381 C1380 1.377 . S
C1381 C1387 1.390 . S
C1382 H1373 0.930 . S
C1382 C1380 1.384 . S
C1382 C1383 1.372 . S
C1383 C1382 1.372 . S
C1383 C1384 1.400 . S
C1383 C1388 1.490 . S
C1384 H1374 0.930 . S
C1384 C1383 1.400 . S
C1384 C1387 1.386 . S
H1385 C1401 0.930 . S
H1386 C1402 0.931 . S
C1387 H1375 0.929 . S
C1387 C1381 1.390 . S
C1387 C1384 1.386 . S
C1388 C1383 1.490 . S
C1388 C1390 1.395 . S
C1388 C1391 1.403 . S
H1389 C1395 0.930 . S
C1390 H1376 0.930 . S
C1390 C1388 1.395 . S
C1390 C1393 1.403 . S
C1391 C1388 1.403 . S
C1391 C1392 1.524 . S
C1391 C1395 1.400 . S
C1392 H1377 0.960 . S
C1392 H1378 0.960 . S
C1392 H1379 0.960 . S
C1392 C1391 1.524 . S
C1393 C1390 1.403 . S
C1393 C1394 1.392 . S
C1393 C1397 1.495 . S
C1394 C1393 1.392 . S
C1394 C1395 1.385 . S
C1394 C1396 1.478 . S
C1395 H1389 0.930 . S
C1395 C1391 1.400 . S
C1395 C1394 1.385 . S
C1396 C1394 1.478 . S
C1396 C1398 1.381 . S
C1396 C1402 1.383 . S
C1397 C1393 1.495 . S
C1397 H1403 0.959 . S
C1397 H1404 0.961 . S
C1397 H1405 0.960 . S
C1398 C1396 1.381 . S
C1398 C1399 1.394 . S
C1398 H1406 0.930 . S
C1399 C1398 1.394 . S
C1399 C1400 1.383 . S
C1399 H1407 0.929 . S
C1400 C1399 1.383 . S
C1400 C1401 1.377 . S
C1401 H1385 0.930 . S
C1401 C1400 1.377 . S
C1401 C1402 1.379 . S
C1402 H1386 0.931 . S
C1402 C1396 1.383 . S
C1402 C1401 1.379 . S
H1403 C1397 0.959 . S
H1404 C1397 0.961 . S
H1405 C1397 0.960 . S
H1406 C1398 0.930 . S
H1407 C1399 0.929 . S
H1408 C1416 0.929 . S
H1409 C1418 0.930 . S
H1410 C1420 0.930 . S
H1411 C1423 0.929 . S
H1412 C1426 0.930 . S
H1413 C1428 0.960 . S
H1414 C1428 0.960 . S
H1415 C1428 0.960 . S
C1416 H1408 0.929 . S
C1416 C1417 1.377 . S
C1416 C1418 1.384 . S
C1417 C1416 1.377 . S
C1417 C1423 1.390 . S
C1418 H1409 0.930 . S
C1418 C1416 1.384 . S
C1418 C1419 1.372 . S
C1419 C1418 1.372 . S
C1419 C1420 1.400 . S
C1419 C1424 1.490 . S
C1420 H1410 0.930 . S
C1420 C1419 1.400 . S
C1420 C1423 1.386 . S
H1421 C1437 0.930 . S
H1422 C1438 0.931 . S
C1423 H1411 0.929 . S
C1423 C1417 1.390 . S
C1423 C1420 1.386 . S
C1424 C1419 1.490 . S
C1424 C1426 1.395 . S
C1424 C1427 1.403 . S
H1425 C1431 0.930 . S
C1426 H1412 0.930 . S
C1426 C1424 1.395 . S
C1426 C1429 1.403 . S
C1427 C1424 1.403 . S
C1427 C1428 1.524 . S
C1427 C1431 1.400 . S
C1428 H1413 0.960 . S
C1428 H1414 0.960 . S
C1428 H1415 0.960 . S
C1428 C1427 1.524 . S
C1429 C1426 1.403 . S
C1429 C1430 1.392 . S
C1429 C1433 1.495 . S
C1430 C1429 1.392 . S
C1430 C1431 1.385 . S
C1430 C1432 1.478 . S
C1431 H1425 0.930 . S
C1431 C1427 1.400 . S
C1431 C1430 1.385 . S
C1432 C1430 1.478 . S
C1432 C1434 1.381 . S
C1432 C1438 1.383 . S
C1433 C1429 1.495 . S
C1433 H1439 0.959 . S
C1433 H1440 0.961 . S
C1433 H1441 0.960 . S
C1434 C1432 1.381 . S
C1434 C1435 1.394 . S
C1434 H1442 0.930 . S
C1435 C1434 1.394 . S
C1435 C1436 1.383 . S
C1435 H1443 0.929 . S
C1436 C1435 1.383 . S
C1436 C1437 1.377 . S
C1437 H1421 0.930 . S
C1437 C1436 1.377 . S
C1437 C1438 1.379 . S
C1438 H1422 0.931 . S
C1438 C1432 1.383 . S
C1438 C1437 1.379 . S
H1439 C1433 0.959 . S
H1440 C1433 0.961 . S
H1441 C1433 0.960 . S
H1442 C1434 0.930 . S
H1443 C1435 0.929 . S
H1444 C1452 0.929 . S
H1445 C1454 0.930 . S
H1446 C1456 0.930 . S
H1447 C1459 0.929 . S
H1448 C1462 0.930 . S
H1449 C1464 0.960 . S
H1450 C1464 0.960 . S
H1451 C1464 0.960 . S
C1452 H1444 0.929 . S
C1452 C1453 1.377 . S
C1452 C1454 1.384 . S
C1453 C1452 1.377 . S
C1453 C1459 1.390 . S
C1454 H1445 0.930 . S
C1454 C1452 1.384 . S
C1454 C1455 1.372 . S
C1455 C1454 1.372 . S
C1455 C1456 1.400 . S
C1455 C1460 1.490 . S
C1456 H1446 0.930 . S
C1456 C1455 1.400 . S
C1456 C1459 1.386 . S
H1457 C1473 0.930 . S
H1458 C1474 0.931 . S
C1459 H1447 0.929 . S
C1459 C1453 1.390 . S
C1459 C1456 1.386 . S
C1460 C1455 1.490 . S
C1460 C1462 1.395 . S
C1460 C1463 1.403 . S
H1461 C1467 0.930 . S
C1462 H1448 0.930 . S
C1462 C1460 1.395 . S
C1462 C1465 1.403 . S
C1463 C1460 1.403 . S
C1463 C1464 1.524 . S
C1463 C1467 1.400 . S
C1464 H1449 0.960 . S
C1464 H1450 0.960 . S
C1464 H1451 0.960 . S
C1464 C1463 1.524 . S
C1465 C1462 1.403 . S
C1465 C1466 1.392 . S
C1465 C1469 1.495 . S
C1466 C1465 1.392 . S
C1466 C1467 1.385 . S
C1466 C1468 1.478 . S
C1467 H1461 0.930 . S
C1467 C1463 1.400 . S
C1467 C1466 1.385 . S
C1468 C1466 1.478 . S
C1468 C1470 1.381 . S
C1468 C1474 1.383 . S
C1469 C1465 1.495 . S
C1469 H1475 0.959 . S
C1469 H1476 0.961 . S
C1469 H1477 0.960 . S
C1470 C1468 1.381 . S
C1470 C1471 1.394 . S
C1470 H1478 0.930 . S
C1471 C1470 1.394 . S
C1471 C1472 1.383 . S
C1471 H1479 0.929 . S
C1472 C1471 1.383 . S
C1472 C1473 1.377 . S
C1473 H1457 0.930 . S
C1473 C1472 1.377 . S
C1473 C1474 1.379 . S
C1474 H1458 0.931 . S
C1474 C1468 1.383 . S
C1474 C1473 1.379 . S
H1475 C1469 0.959 . S
H1476 C1469 0.961 . S
H1477 C1469 0.960 . S
H1478 C1470 0.930 . S
H1479 C1471 0.929 . S
H1480 C1488 0.929 . S
H1481 C1490 0.930 . S
H1482 C1492 0.930 . S
H1483 C1495 0.929 . S
H1484 C1498 0.930 . S
H1485 C1500 0.960 . S
H1486 C1500 0.960 . S
H1487 C1500 0.960 . S
C1488 H1480 0.929 . S
C1488 C1489 1.377 . S
C1488 C1490 1.384 . S
C1489 C1488 1.377 . S
C1489 C1495 1.390 . S
C1490 H1481 0.930 . S
C1490 C1488 1.384 . S
C1490 C1491 1.372 . S
C1491 C1490 1.372 . S
C1491 C1492 1.400 . S
C1491 C1496 1.490 . S
C1492 H1482 0.930 . S
C1492 C1491 1.400 . S
C1492 C1495 1.386 . S
H1493 C1509 0.930 . S
H1494 C1510 0.931 . S
C1495 H1483 0.929 . S
C1495 C1489 1.390 . S
C1495 C1492 1.386 . S
C1496 C1491 1.490 . S
C1496 C1498 1.395 . S
C1496 C1499 1.403 . S
H1497 C1503 0.930 . S
C1498 H1484 0.930 . S
C1498 C1496 1.395 . S
C1498 C1501 1.403 . S
C1499 C1496 1.403 . S
C1499 C1500 1.524 . S
C1499 C1503 1.400 . S
C1500 H1485 0.960 . S
C1500 H1486 0.960 . S
C1500 H1487 0.960 . S
C1500 C1499 1.524 . S
C1501 C1498 1.403 . S
C1501 C1502 1.392 . S
C1501 C1505 1.495 . S
C1502 C1501 1.392 . S
C1502 C1503 1.385 . S
C1502 C1504 1.478 . S
C1503 H1497 0.930 . S
C1503 C1499 1.400 . S
C1503 C1502 1.385 . S
C1504 C1502 1.478 . S
C1504 C1506 1.381 . S
C1504 C1510 1.383 . S
C1505 C1501 1.495 . S
C1505 H1511 0.959 . S
C1505 H1512 0.961 . S
C1505 H1513 0.960 . S
C1506 C1504 1.381 . S
C1506 C1507 1.394 . S
C1506 H1514 0.930 . S
C1507 C1506 1.394 . S
C1507 C1508 1.383 . S
C1507 H1515 0.929 . S
C1508 C1507 1.383 . S
C1508 C1509 1.377 . S
C1509 H1493 0.930 . S
C1509 C1508 1.377 . S
C1509 C1510 1.379 . S
C1510 H1494 0.931 . S
C1510 C1504 1.383 . S
C1510 C1509 1.379 . S
H1511 C1505 0.959 . S
H1512 C1505 0.961 . S
H1513 C1505 0.960 . S
H1514 C1506 0.930 . S
H1515 C1507 0.929 . S
H1516 C1524 0.929 . S
H1517 C1526 0.930 . S
H1518 C1528 0.930 . S
H1519 C1531 0.929 . S
H1520 C1534 0.930 . S
H1521 C1536 0.960 . S
H1522 C1536 0.960 . S
H1523 C1536 0.960 . S
C1524 H1516 0.929 . S
C1524 C1525 1.377 . S
C1524 C1526 1.384 . S
C1525 C1524 1.377 . S
C1525 C1531 1.390 . S
C1526 H1517 0.930 . S
C1526 C1524 1.384 . S
C1526 C1527 1.372 . S
C1527 C1526 1.372 . S
C1527 C1528 1.400 . S
C1527 C1532 1.490 . S
C1528 H1518 0.930 . S
C1528 C1527 1.400 . S
C1528 C1531 1.386 . S
H1529 C1545 0.930 . S
H1530 C1546 0.931 . S
C1531 H1519 0.929 . S
C1531 C1525 1.390 . S
C1531 C1528 1.386 . S
C1532 C1527 1.490 . S
C1532 C1534 1.395 . S
C1532 C1535 1.403 . S
H1533 C1539 0.930 . S
C1534 H1520 0.930 . S
C1534 C1532 1.395 . S
C1534 C1537 1.403 . S
C1535 C1532 1.403 . S
C1535 C1536 1.524 . S
C1535 C1539 1.400 . S
C1536 H1521 0.960 . S
C1536 H1522 0.960 . S
C1536 H1523 0.960 . S
C1536 C1535 1.524 . S
C1537 C1534 1.403 . S
C1537 C1538 1.392 . S
C1537 C1541 1.495 . S
C1538 C1537 1.392 . S
C1538 C1539 1.385 . S
C1538 C1540 1.478 . S
C1539 H1533 0.930 . S
C1539 C1535 1.400 . S
C1539 C1538 1.385 . S
C1540 C1538 1.478 . S
C1540 C1542 1.381 . S
C1540 C1546 1.383 . S
C1541 C1537 1.495 . S
C1541 H1547 0.959 . S
C1541 H1548 0.961 . S
C1541 H1549 0.960 . S
C1542 C1540 1.381 . S
C1542 C1543 1.394 . S
C1542 H1550 0.930 . S
C1543 C1542 1.394 . S
C1543 C1544 1.383 . S
C1543 H1551 0.929 . S
C1544 C1543 1.383 . S
C1544 C1545 1.377 . S
C1545 H1529 0.930 . S
C1545 C1544 1.377 . S
C1545 C1546 1.379 . S
C1546 H1530 0.931 . S
C1546 C1540 1.383 . S
C1546 C1545 1.379 . S
H1547 C1541 0.959 . S
H1548 C1541 0.961 . S
H1549 C1541 0.960 . S
H1550 C1542 0.930 . S
H1551 C1543 0.929 . S
H1552 C1560 0.929 . S
H1553 C1562 0.930 . S
H1554 C1564 0.930 . S
H1555 C1567 0.929 . S
H1556 C1570 0.930 . S
H1557 C1572 0.960 . S
H1558 C1572 0.960 1_556 S
H1559 C1572 0.960 . S
C1560 H1552 0.929 . S
C1560 C1561 1.377 . S
C1560 C1562 1.384 . S
C1561 C1560 1.377 . S
C1561 C1567 1.390 . S
C1562 H1553 0.930 . S
C1562 C1560 1.384 . S
C1562 C1563 1.372 . S
C1563 C1562 1.372 . S
C1563 C1564 1.400 . S
C1563 C1568 1.490 . S
C1564 H1554 0.930 . S
C1564 C1563 1.400 . S
C1564 C1567 1.386 . S
H1565 C1581 0.930 . S
H1566 C1582 0.931 . S
C1567 H1555 0.929 . S
C1567 C1561 1.390 . S
C1567 C1564 1.386 . S
C1568 C1563 1.490 . S
C1568 C1570 1.395 . S
C1568 C1571 1.404 . S
H1569 C1575 0.930 . S
C1570 H1556 0.930 . S
C1570 C1568 1.395 . S
C1570 C1573 1.403 . S
C1571 C1568 1.404 . S
C1571 C1572 1.523 1_556 S
C1571 C1575 1.399 1_556 S
C1572 H1557 0.960 . S
C1572 H1558 0.960 1_554 S
C1572 H1559 0.960 . S
C1572 C1571 1.523 1_554 S
C1573 C1570 1.403 . S
C1573 C1574 1.392 1_556 S
C1573 C1577 1.495 . S
C1574 C1573 1.392 1_554 S
C1574 C1575 1.385 . S
C1574 C1576 1.478 . S
C1575 H1569 0.930 . S
C1575 C1571 1.399 1_554 S
C1575 C1574 1.385 . S
C1576 C1574 1.478 . S
C1576 C1578 1.381 . S
C1576 C1582 1.383 . S
C1577 C1573 1.495 . S
C1577 H1583 0.959 . S
C1577 H1584 0.961 . S
C1577 H1585 0.960 . S
C1578 C1576 1.381 . S
C1578 C1579 1.394 . S
C1578 H1586 0.930 . S
C1579 C1578 1.394 . S
C1579 C1580 1.383 . S
C1579 H1587 0.929 . S
C1580 C1579 1.383 . S
C1580 C1581 1.377 . S
C1581 H1565 0.930 . S
C1581 C1580 1.377 . S
C1581 C1582 1.379 . S
C1582 H1566 0.931 . S
C1582 C1576 1.383 . S
C1582 C1581 1.379 . S
H1583 C1577 0.959 . S
H1584 C1577 0.961 . S
H1585 C1577 0.960 . S
H1586 C1578 0.930 . S
H1587 C1579 0.929 . S
H1588 C1596 0.929 . S
H1589 C1598 0.930 . S
H1590 C1600 0.930 . S
H1591 C1603 0.929 . S
H1592 C1606 0.930 . S
H1593 C1608 0.960 . S
H1594 C1608 0.960 . S
H1595 C1608 0.960 . S
C1596 H1588 0.929 . S
C1596 C1597 1.377 . S
C1596 C1598 1.384 . S
C1597 C1596 1.377 . S
C1597 C1603 1.390 . S
C1598 H1589 0.930 . S
C1598 C1596 1.384 . S
C1598 C1599 1.372 . S
C1599 C1598 1.372 . S
C1599 C1600 1.400 . S
C1599 C1604 1.490 . S
C1600 H1590 0.930 . S
C1600 C1599 1.400 . S
C1600 C1603 1.386 . S
H1601 C1617 0.930 . S
H1602 C1618 0.931 . S
C1603 H1591 0.929 . S
C1603 C1597 1.390 . S
C1603 C1600 1.386 . S
C1604 C1599 1.490 . S
C1604 C1606 1.395 1_554 S
C1604 C1607 1.403 . S
H1605 C1611 0.930 1_554 S
C1606 H1592 0.930 . S
C1606 C1604 1.395 1_556 S
C1606 C1609 1.403 . S
C1607 C1604 1.403 . S
C1607 C1608 1.524 . S
C1607 C1611 1.400 1_554 S
C1608 H1593 0.960 . S
C1608 H1594 0.960 . S
C1608 H1595 0.960 . S
C1608 C1607 1.524 . S
C1609 C1606 1.403 . S
C1609 C1610 1.392 . S
C1609 C1613 1.495 . S
C1610 C1609 1.392 . S
C1610 C1611 1.385 . S
C1610 C1612 1.478 . S
C1611 H1605 0.930 1_556 S
C1611 C1607 1.400 1_556 S
C1611 C1610 1.385 . S
C1612 C1610 1.478 . S
C1612 C1614 1.381 . S
C1612 C1618 1.383 . S
C1613 C1609 1.495 . S
C1613 H1619 0.959 . S
C1613 H1620 0.961 . S
C1613 H1621 0.960 . S
C1614 C1612 1.381 . S
C1614 C1615 1.394 . S
C1614 H1622 0.930 . S
C1615 C1614 1.394 . S
C1615 C1616 1.383 . S
C1615 H1623 0.929 . S
C1616 C1615 1.383 . S
C1616 C1617 1.377 . S
C1617 H1601 0.930 . S
C1617 C1616 1.377 . S
C1617 C1618 1.379 . S
C1618 H1602 0.931 . S
C1618 C1612 1.383 . S
C1618 C1617 1.379 . S
H1619 C1613 0.959 . S
H1620 C1613 0.961 . S
H1621 C1613 0.960 . S
H1622 C1614 0.930 . S
H1623 C1615 0.929 . S
H1624 C1632 0.929 . S
H1625 C1634 0.930 . S
H1626 C1636 0.930 . S
H1627 C1639 0.929 . S
H1628 C1642 0.930 . S
H1629 C1644 0.960 . S
H1630 C1644 0.960 . S
H1631 C1644 0.960 1_556 S
C1632 H1624 0.929 . S
C1632 C1633 1.377 . S
C1632 C1634 1.384 . S
C1633 C1632 1.377 . S
C1633 C1639 1.390 . S
C1634 H1625 0.930 . S
C1634 C1632 1.384 . S
C1634 C1635 1.372 . S
C1635 C1634 1.372 . S
C1635 C1636 1.400 . S
C1635 C1640 1.490 . S
C1636 H1626 0.930 . S
C1636 C1635 1.400 . S
C1636 C1639 1.386 . S
H1637 C1653 0.930 . S
H1638 C1654 0.931 . S
C1639 H1627 0.929 . S
C1639 C1633 1.390 . S
C1639 C1636 1.386 . S
C1640 C1635 1.490 . S
C1640 C1642 1.395 . S
C1640 C1643 1.363 1_556 S
H1641 C1647 0.930 . S
C1642 H1628 0.930 . S
C1642 C1640 1.395 . S
C1642 C1645 1.403 . S
C1643 C1640 1.363 1_554 S
C1643 C1644 1.538 . S
C1643 C1647 1.427 . S
C1644 H1629 0.960 . S
C1644 H1630 0.960 . S
C1644 H1631 0.960 1_554 S
C1644 C1643 1.538 . S
C1645 C1642 1.403 . S
C1645 C1646 1.392 1_556 S
C1645 C1649 1.495 . S
C1646 C1645 1.392 1_554 S
C1646 C1647 1.385 . S
C1646 C1648 1.478 . S
C1647 H1641 0.930 . S
C1647 C1643 1.427 . S
C1647 C1646 1.385 . S
C1648 C1646 1.478 . S
C1648 C1650 1.381 . S
C1648 C1654 1.383 . S
C1649 C1645 1.495 . S
C1649 H1655 0.959 . S
C1649 H1656 0.961 . S
C1649 H1657 0.960 . S
C1650 C1648 1.381 . S
C1650 C1651 1.394 . S
C1650 H1658 0.930 . S
C1651 C1650 1.394 . S
C1651 C1652 1.383 . S
C1651 H1659 0.929 . S
C1652 C1651 1.383 . S
C1652 C1653 1.377 . S
C1653 H1637 0.930 . S
C1653 C1652 1.377 . S
C1653 C1654 1.379 . S
C1654 H1638 0.931 . S
C1654 C1648 1.383 . S
C1654 C1653 1.379 . S
H1655 C1649 0.959 . S
H1656 C1649 0.961 . S
H1657 C1649 0.960 . S
H1658 C1650 0.930 . S
H1659 C1651 0.929 . S
H1660 C1668 0.929 . S
H1661 C1670 0.930 . S
H1662 C1672 0.930 . S
H1663 C1675 0.929 . S
H1664 C1678 0.930 . S
H1665 C1680 0.960 . S
H1666 C1680 0.960 . S
H1667 C1680 0.960 . S
C1668 H1660 0.929 . S
C1668 C1669 1.377 . S
C1668 C1670 1.384 . S
C1669 C1668 1.377 . S
C1669 C1675 1.390 . S
C1670 H1661 0.930 . S
C1670 C1668 1.384 . S
C1670 C1671 1.372 . S
C1671 C1670 1.372 . S
C1671 C1672 1.400 . S
C1671 C1676 1.490 . S
C1672 H1662 0.930 . S
C1672 C1671 1.400 . S
C1672 C1675 1.386 . S
H1673 C1689 0.930 . S
H1674 C1690 0.931 . S
C1675 H1663 0.929 . S
C1675 C1669 1.390 . S
C1675 C1672 1.386 . S
C1676 C1671 1.490 . S
C1676 C1678 1.395 1_554 S
C1676 C1679 1.403 . S
H1677 C1683 0.930 . S
C1678 H1664 0.930 . S
C1678 C1676 1.395 1_556 S
C1678 C1681 1.403 . S
C1679 C1676 1.403 . S
C1679 C1680 1.524 . S
C1679 C1683 1.400 1_554 S
C1680 H1665 0.960 . S
C1680 H1666 0.960 . S
C1680 H1667 0.960 . S
C1680 C1679 1.524 . S
C1681 C1678 1.403 . S
C1681 C1682 1.392 . S
C1681 C1685 1.495 . S
C1682 C1681 1.392 . S
C1682 C1683 1.385 . S
C1682 C1684 1.478 . S
C1683 H1677 0.930 . S
C1683 C1679 1.400 1_556 S
C1683 C1682 1.385 . S
C1684 C1682 1.478 . S
C1684 C1686 1.381 . S
C1684 C1690 1.383 . S
C1685 C1681 1.495 . S
C1685 H1691 0.959 . S
C1685 H1692 0.961 . S
C1685 H1693 0.960 . S
C1686 C1684 1.381 . S
C1686 C1687 1.394 . S
C1686 H1694 0.930 . S
C1687 C1686 1.394 . S
C1687 C1688 1.383 . S
C1687 H1695 0.929 . S
C1688 C1687 1.383 . S
C1688 C1689 1.377 . S
C1689 H1673 0.930 . S
C1689 C1688 1.377 . S
C1689 C1690 1.379 . S
C1690 H1674 0.931 . S
C1690 C1684 1.383 . S
C1690 C1689 1.379 . S
H1691 C1685 0.959 . S
H1692 C1685 0.961 . S
H1693 C1685 0.960 . S
H1694 C1686 0.930 . S
H1695 C1687 0.929 . S
H1696 C1704 0.929 . S
H1697 C1706 0.930 . S
H1698 C1708 0.930 . S
H1699 C1711 0.929 . S
H1700 C1714 0.930 . S
H1701 C1716 0.960 . S
H1702 C1716 0.960 . S
H1703 C1716 0.960 . S
C1704 H1696 0.929 . S
C1704 C1705 1.377 . S
C1704 C1706 1.384 . S
C1705 C1704 1.377 . S
C1705 C1711 1.390 . S
C1706 H1697 0.930 . S
C1706 C1704 1.384 . S
C1706 C1707 1.372 . S
C1707 C1706 1.372 . S
C1707 C1708 1.400 . S
C1707 C1712 1.490 . S
C1708 H1698 0.930 . S
C1708 C1707 1.400 . S
C1708 C1711 1.386 . S
H1709 C1725 0.930 . S
H1710 C1726 0.931 . S
C1711 H1699 0.929 . S
C1711 C1705 1.390 . S
C1711 C1708 1.386 . S
C1712 C1707 1.490 . S
C1712 C1714 1.395 . S
C1712 C1715 1.403 . S
H1713 C1719 0.930 . S
C1714 H1700 0.930 . S
C1714 C1712 1.395 . S
C1714 C1717 1.403 . S
C1715 C1712 1.403 . S
C1715 C1716 1.524 . S
C1715 C1719 1.400 . S
C1716 H1701 0.960 . S
C1716 H1702 0.960 . S
C1716 H1703 0.960 . S
C1716 C1715 1.524 . S
C1717 C1714 1.403 . S
C1717 C1718 1.392 . S
C1717 C1721 1.495 . S
C1718 C1717 1.392 . S
C1718 C1719 1.385 . S
C1718 C1720 1.478 . S
C1719 H1713 0.930 . S
C1719 C1715 1.400 . S
C1719 C1718 1.385 . S
C1720 C1718 1.478 . S
C1720 C1722 1.381 . S
C1720 C1726 1.383 . S
C1721 C1717 1.495 . S
C1721 H1727 0.959 . S
C1721 H1728 0.961 . S
C1721 H1729 0.960 . S
C1722 C1720 1.381 . S
C1722 C1723 1.394 . S
C1722 H1730 0.930 . S
C1723 C1722 1.394 . S
C1723 C1724 1.383 . S
C1723 H1731 0.929 . S
C1724 C1723 1.383 . S
C1724 C1725 1.377 . S
C1725 H1709 0.930 . S
C1725 C1724 1.377 . S
C1725 C1726 1.379 . S
C1726 H1710 0.931 . S
C1726 C1720 1.383 . S
C1726 C1725 1.379 . S
H1727 C1721 0.959 . S
H1728 C1721 0.961 . S
H1729 C1721 0.960 . S
H1730 C1722 0.930 . S
H1731 C1723 0.929 . S
H1732 C1740 0.929 . S
H1733 C1742 0.930 . S
H1734 C1744 0.930 . S
H1735 C1747 0.929 . S
H1736 C1750 0.930 . S
H1737 C1752 0.960 . S
H1738 C1752 0.960 . S
H1739 C1752 0.960 . S
C1740 H1732 0.929 . S
C1740 C1741 1.377 . S
C1740 C1742 1.384 . S
C1741 C1740 1.377 . S
C1741 C1747 1.390 . S
C1742 H1733 0.930 . S
C1742 C1740 1.384 . S
C1742 C1743 1.372 . S
C1743 C1742 1.372 . S
C1743 C1744 1.400 . S
C1743 C1748 1.490 . S
C1744 H1734 0.930 . S
C1744 C1743 1.400 . S
C1744 C1747 1.386 . S
H1745 C1761 0.930 . S
H1746 C1762 0.931 . S
C1747 H1735 0.929 . S
C1747 C1741 1.390 . S
C1747 C1744 1.386 . S
C1748 C1743 1.490 . S
C1748 C1750 1.395 . S
C1748 C1751 1.403 . S
H1749 C1755 0.930 . S
C1750 H1736 0.930 . S
C1750 C1748 1.395 . S
C1750 C1753 1.403 . S
C1751 C1748 1.403 . S
C1751 C1752 1.524 . S
C1751 C1755 1.400 . S
C1752 H1737 0.960 . S
C1752 H1738 0.960 . S
C1752 H1739 0.960 . S
C1752 C1751 1.524 . S
C1753 C1750 1.403 . S
C1753 C1754 1.392 . S
C1753 C1757 1.495 . S
C1754 C1753 1.392 . S
C1754 C1755 1.385 . S
C1754 C1756 1.478 . S
C1755 H1749 0.930 . S
C1755 C1751 1.400 . S
C1755 C1754 1.385 . S
C1756 C1754 1.478 . S
C1756 C1758 1.381 . S
C1756 C1762 1.383 . S
C1757 C1753 1.495 . S
C1757 H1763 0.959 . S
C1757 H1764 0.961 . S
C1757 H1765 0.960 . S
C1758 C1756 1.381 . S
C1758 C1759 1.394 . S
C1758 H1766 0.930 . S
C1759 C1758 1.394 . S
C1759 C1760 1.383 . S
C1759 H1767 0.929 . S
C1760 C1759 1.383 . S
C1760 C1761 1.377 . S
C1761 H1745 0.930 . S
C1761 C1760 1.377 . S
C1761 C1762 1.379 . S
C1762 H1746 0.931 . S
C1762 C1756 1.383 . S
C1762 C1761 1.379 . S
H1763 C1757 0.959 . S
H1764 C1757 0.961 . S
H1765 C1757 0.960 . S
H1766 C1758 0.930 . S
H1767 C1759 0.929 . S
H1768 C1776 0.929 . S
H1769 C1778 0.930 . S
H1770 C1780 0.930 . S
H1771 C1783 0.929 . S
H1772 C1786 0.930 . S
H1773 C1788 0.960 . S
H1774 C1788 0.960 . S
H1775 C1788 0.960 . S
C1776 H1768 0.929 . S
C1776 C1777 1.377 . S
C1776 C1778 1.384 . S
C1777 C1776 1.377 . S
C1777 C1783 1.390 . S
C1778 H1769 0.930 . S
C1778 C1776 1.384 . S
C1778 C1779 1.372 . S
C1779 C1778 1.372 . S
C1779 C1780 1.400 . S
C1779 C1784 1.490 . S
C1780 H1770 0.930 . S
C1780 C1779 1.400 . S
C1780 C1783 1.386 . S
H1781 C1797 0.930 . S
H1782 C1798 0.931 . S
C1783 H1771 0.929 . S
C1783 C1777 1.390 . S
C1783 C1780 1.386 . S
C1784 C1779 1.490 . S
C1784 C1786 1.395 . S
C1784 C1787 1.403 . S
H1785 C1791 0.930 . S
C1786 H1772 0.930 . S
C1786 C1784 1.395 . S
C1786 C1789 1.403 . S
C1787 C1784 1.403 . S
C1787 C1788 1.524 . S
C1787 C1791 1.400 . S
C1788 H1773 0.960 . S
C1788 H1774 0.960 . S
C1788 H1775 0.960 . S
C1788 C1787 1.524 . S
C1789 C1786 1.403 . S
C1789 C1790 1.392 . S
C1789 C1793 1.495 . S
C1790 C1789 1.392 . S
C1790 C1791 1.385 . S
C1790 C1792 1.478 . S
C1791 H1785 0.930 . S
C1791 C1787 1.400 . S
C1791 C1790 1.385 . S
C1792 C1790 1.478 . S
C1792 C1794 1.381 . S
C1792 C1798 1.383 . S
C1793 C1789 1.495 . S
C1793 H1799 0.959 . S
C1793 H1800 0.961 . S
C1793 H1801 0.960 . S
C1794 C1792 1.381 . S
C1794 C1795 1.394 . S
C1794 H1802 0.930 . S
C1795 C1794 1.394 . S
C1795 C1796 1.383 . S
C1795 H1803 0.929 . S
C1796 C1795 1.383 . S
C1796 C1797 1.377 . S
C1797 H1781 0.930 . S
C1797 C1796 1.377 . S
C1797 C1798 1.379 . S
C1798 H1782 0.931 . S
C1798 C1792 1.383 . S
C1798 C1797 1.379 . S
H1799 C1793 0.959 . S
H1800 C1793 0.961 . S
H1801 C1793 0.960 . S
H1802 C1794 0.930 . S
H1803 C1795 0.929 . S
H1804 C1812 0.929 . S
H1805 C1814 0.930 . S
H1806 C1816 0.930 . S
H1807 C1819 0.929 . S
H1808 C1822 0.930 . S
H1809 C1824 0.960 . S
H1810 C1824 0.960 . S
H1811 C1824 0.960 . S
C1812 H1804 0.929 . S
C1812 C1813 1.377 . S
C1812 C1814 1.384 . S
C1813 C1812 1.377 . S
C1813 C1819 1.390 . S
C1814 H1805 0.930 . S
C1814 C1812 1.384 . S
C1814 C1815 1.372 . S
C1815 C1814 1.372 . S
C1815 C1816 1.400 . S
C1815 C1820 1.490 . S
C1816 H1806 0.930 . S
C1816 C1815 1.400 . S
C1816 C1819 1.386 . S
H1817 C1833 0.930 . S
H1818 C1834 0.931 . S
C1819 H1807 0.929 . S
C1819 C1813 1.390 . S
C1819 C1816 1.386 . S
C1820 C1815 1.490 . S
C1820 C1822 1.395 . S
C1820 C1823 1.403 . S
H1821 C1827 0.930 . S
C1822 H1808 0.930 . S
C1822 C1820 1.395 . S
C1822 C1825 1.403 . S
C1823 C1820 1.403 . S
C1823 C1824 1.524 . S
C1823 C1827 1.400 . S
C1824 H1809 0.960 . S
C1824 H1810 0.960 . S
C1824 H1811 0.960 . S
C1824 C1823 1.524 . S
C1825 C1822 1.403 . S
C1825 C1826 1.392 . S
C1825 C1829 1.495 . S
C1826 C1825 1.392 . S
C1826 C1827 1.385 . S
C1826 C1828 1.478 . S
C1827 H1821 0.930 . S
C1827 C1823 1.400 . S
C1827 C1826 1.385 . S
C1828 C1826 1.478 . S
C1828 C1830 1.381 . S
C1828 C1834 1.383 . S
C1829 C1825 1.495 . S
C1829 H1835 0.959 . S
C1829 H1836 0.961 . S
C1829 H1837 0.960 . S
C1830 C1828 1.381 . S
C1830 C1831 1.394 . S
C1830 H1838 0.930 . S
C1831 C1830 1.394 . S
C1831 C1832 1.383 . S
C1831 H1839 0.929 . S
C1832 C1831 1.383 . S
C1832 C1833 1.377 . S
C1833 H1817 0.930 . S
C1833 C1832 1.377 . S
C1833 C1834 1.379 . S
C1834 H1818 0.931 . S
C1834 C1828 1.383 . S
C1834 C1833 1.379 . S
H1835 C1829 0.959 . S
H1836 C1829 0.961 . S
H1837 C1829 0.960 . S
H1838 C1830 0.930 . S
H1839 C1831 0.929 . S
H1840 C1848 0.929 . S
H1841 C1850 0.930 . S
H1842 C1852 0.930 . S
H1843 C1855 0.929 . S
H1844 C1858 0.930 . S
H1845 C1860 0.979 . S
H1846 C1860 0.960 . S
H1847 C1860 0.960 . S
C1848 H1840 0.929 . S
C1848 C1849 1.377 . S
C1848 C1850 1.384 . S
C1849 C1848 1.377 . S
C1849 C1855 1.390 . S
C1850 H1841 0.930 . S
C1850 C1848 1.384 . S
C1850 C1851 1.372 . S
C1851 C1850 1.372 . S
C1851 C1852 1.400 . S
C1851 C1856 1.490 . S
C1852 H1842 0.930 . S
C1852 C1851 1.400 . S
C1852 C1855 1.386 . S
H1853 C1869 0.930 . S
H1854 C1870 0.931 . S
C1855 H1843 0.929 . S
C1855 C1849 1.390 . S
C1855 C1852 1.386 . S
C1856 C1851 1.490 . S
C1856 C1858 1.395 . S
C1856 C1859 1.403 . S
H1857 C1863 0.930 . S
C1858 H1844 0.930 . S
C1858 C1856 1.395 . S
C1858 C1861 1.389 1_554 S
C1859 C1856 1.403 . S
C1859 C1860 1.524 . S
C1859 C1863 1.400 1_554 S
C1860 H1845 0.979 . S
C1860 H1846 0.960 . S
C1860 H1847 0.960 . S
C1860 C1859 1.524 . S
C1861 C1858 1.389 1_556 S
C1861 C1862 1.403 . S
C1861 C1865 1.499 . S
C1862 C1861 1.403 . S
C1862 C1863 1.385 . S
C1862 C1864 1.478 . S
C1863 H1857 0.930 . S
C1863 C1859 1.400 1_556 S
C1863 C1862 1.385 . S
C1864 C1862 1.478 . S
C1864 C1866 1.381 . S
C1864 C1870 1.383 . S
C1865 C1861 1.499 . S
C1865 H1871 0.959 1_556 S
C1865 H1872 0.962 1_556 S
C1865 H1873 0.960 . S
C1866 C1864 1.381 . S
C1866 C1867 1.394 . S
C1866 H1874 0.930 . S
C1867 C1866 1.394 . S
C1867 C1868 1.383 . S
C1867 H1875 0.929 . S
C1868 C1867 1.383 . S
C1868 C1869 1.377 . S
C1869 H1853 0.930 . S
C1869 C1868 1.377 . S
C1869 C1870 1.379 . S
C1870 H1854 0.931 . S
C1870 C1864 1.383 . S
C1870 C1869 1.379 . S
H1871 C1865 0.959 1_554 S
H1872 C1865 0.962 1_554 S
H1873 C1865 0.960 . S
H1874 C1866 0.930 . S
H1875 C1867 0.929 . S
H1876 C1884 0.929 . S
H1877 C1886 0.930 . S
H1878 C1888 0.930 . S
H1879 C1891 0.929 . S
H1880 C1894 0.930 . S
H1881 C1896 0.960 . S
H1882 C1896 0.960 . S
H1883 C1896 0.960 . S
C1884 H1876 0.929 . S
C1884 C1885 1.377 . S
C1884 C1886 1.384 . S
C1885 C1884 1.377 . S
C1885 C1891 1.390 . S
C1886 H1877 0.930 . S
C1886 C1884 1.384 . S
C1886 C1887 1.372 . S
C1887 C1886 1.372 . S
C1887 C1888 1.400 . S
C1887 C1892 1.490 . S
C1888 H1878 0.930 . S
C1888 C1887 1.400 . S
C1888 C1891 1.386 . S
H1889 C1905 0.930 . S
H1890 C1906 0.931 . S
C1891 H1879 0.929 . S
C1891 C1885 1.390 . S
C1891 C1888 1.386 . S
C1892 C1887 1.490 . S
C1892 C1894 1.395 . S
C1892 C1895 1.403 . S
H1893 C1899 0.930 . S
C1894 H1880 0.930 . S
C1894 C1892 1.395 . S
C1894 C1897 1.403 1_556 S
C1895 C1892 1.403 . S
C1895 C1896 1.524 . S
C1895 C1899 1.400 1_556 S
C1896 H1881 0.960 . S
C1896 H1882 0.960 . S
C1896 H1883 0.960 . S
C1896 C1895 1.524 . S
C1897 C1894 1.403 1_554 S
C1897 C1898 1.392 . S
C1897 C1901 1.495 . S
C1898 C1897 1.392 . S
C1898 C1899 1.385 . S
C1898 C1900 1.478 . S
C1899 H1893 0.930 . S
C1899 C1895 1.400 1_554 S
C1899 C1898 1.385 . S
C1900 C1898 1.478 . S
C1900 C1902 1.381 . S
C1900 C1906 1.383 . S
C1901 C1897 1.495 . S
C1901 H1907 0.959 . S
C1901 H1908 0.961 . S
C1901 H1909 0.960 . S
C1902 C1900 1.381 . S
C1902 C1903 1.394 . S
C1902 H1910 0.930 . S
C1903 C1902 1.394 . S
C1903 C1904 1.383 . S
C1903 H1911 0.929 . S
C1904 C1903 1.383 . S
C1904 C1905 1.377 . S
C1905 H1889 0.930 . S
C1905 C1904 1.377 . S
C1905 C1906 1.379 . S
C1906 H1890 0.931 . S
C1906 C1900 1.383 . S
C1906 C1905 1.379 . S
H1907 C1901 0.959 . S
H1908 C1901 0.961 . S
H1909 C1901 0.960 . S
H1910 C1902 0.930 . S
H1911 C1903 0.929 . S
H1912 C1920 0.929 . S
H1913 C1922 0.930 . S
H1914 C1924 0.930 . S
H1915 C1927 0.929 . S
H1916 C1930 0.930 . S
H1917 C1932 0.960 . S
H1918 C1932 0.960 . S
H1919 C1932 0.964 . S
C1920 H1912 0.929 . S
C1920 C1921 1.377 . S
C1920 C1922 1.384 . S
C1921 C1920 1.377 . S
C1921 C1927 1.390 . S
C1922 H1913 0.930 . S
C1922 C1920 1.384 . S
C1922 C1923 1.372 . S
C1923 C1922 1.372 . S
C1923 C1924 1.400 . S
C1923 C1928 1.490 . S
C1924 H1914 0.930 . S
C1924 C1923 1.400 . S
C1924 C1927 1.386 . S
H1925 C1941 0.930 . S
H1926 C1942 0.931 . S
C1927 H1915 0.929 . S
C1927 C1921 1.390 . S
C1927 C1924 1.386 . S
C1928 C1923 1.490 . S
C1928 C1930 1.395 . S
C1928 C1931 1.403 1_554 S
H1929 C1935 0.930 . S
C1930 H1916 0.930 . S
C1930 C1928 1.395 . S
C1930 C1933 1.403 . S
C1931 C1928 1.403 1_556 S
C1931 C1932 1.524 . S
C1931 C1935 1.400 . S
C1932 H1917 0.960 . S
C1932 H1918 0.960 . S
C1932 H1919 0.964 . S
C1932 C1931 1.524 . S
C1933 C1930 1.403 . S
C1933 C1934 1.392 1_554 S
C1933 C1937 1.495 . S
C1934 C1933 1.392 1_556 S
C1934 C1935 1.385 . S
C1934 C1936 1.478 . S
C1935 H1929 0.930 . S
C1935 C1931 1.400 . S
C1935 C1934 1.385 . S
C1936 C1934 1.478 . S
C1936 C1938 1.381 . S
C1936 C1942 1.383 . S
C1937 C1933 1.495 . S
C1937 H1943 0.959 . S
C1937 H1944 0.961 . S
C1937 H1945 0.960 . S
C1938 C1936 1.381 . S
C1938 C1939 1.394 . S
C1938 H1946 0.930 . S
C1939 C1938 1.394 . S
C1939 C1940 1.383 . S
C1939 H1947 0.929 . S
C1940 C1939 1.383 . S
C1940 C1941 1.377 . S
C1941 H1925 0.930 . S
C1941 C1940 1.377 . S
C1941 C1942 1.379 . S
C1942 H1926 0.931 . S
C1942 C1936 1.383 . S
C1942 C1941 1.379 . S
H1943 C1937 0.959 . S
H1944 C1937 0.961 . S
H1945 C1937 0.960 . S
H1946 C1938 0.930 . S
H1947 C1939 0.929 . S
H1948 C1956 0.929 . S
H1949 C1958 0.930 . S
H1950 C1960 0.930 . S
H1951 C1963 0.929 . S
H1952 C1966 0.928 1_556 S
H1953 C1968 0.960 . S
H1954 C1968 0.960 . S
H1955 C1968 0.960 . S
C1956 H1948 0.929 . S
C1956 C1957 1.377 . S
C1956 C1958 1.384 . S
C1957 C1956 1.377 . S
C1957 C1963 1.390 . S
C1958 H1949 0.930 . S
C1958 C1956 1.384 . S
C1958 C1959 1.372 . S
C1959 C1958 1.372 . S
C1959 C1960 1.400 . S
C1959 C1964 1.490 . S
C1960 H1950 0.930 . S
C1960 C1959 1.400 . S
C1960 C1963 1.386 . S
H1961 C1977 0.930 . S
H1962 C1978 0.931 . S
C1963 H1951 0.929 . S
C1963 C1957 1.390 . S
C1963 C1960 1.386 . S
C1964 C1959 1.490 . S
C1964 C1966 1.410 . S
C1964 C1967 1.403 . S
H1965 C1971 0.930 . S
C1966 H1952 0.928 1_554 S
C1966 C1964 1.410 . S
C1966 C1969 1.389 1_554 S
C1967 C1964 1.403 . S
C1967 C1968 1.524 . S
C1967 C1971 1.400 . S
C1968 H1953 0.960 . S
C1968 H1954 0.960 . S
C1968 H1955 0.960 . S
C1968 C1967 1.524 . S
C1969 C1966 1.389 1_556 S
C1969 C1970 1.392 . S
C1969 C1973 1.495 . S
C1970 C1969 1.392 . S
C1970 C1971 1.385 1_556 S
C1970 C1972 1.478 . S
C1971 H1965 0.930 . S
C1971 C1967 1.400 . S
C1971 C1970 1.385 1_554 S
C1972 C1970 1.478 . S
C1972 C1974 1.381 . S
C1972 C1978 1.383 . S
C1973 C1969 1.495 . S
C1973 H1979 0.959 . S
C1973 H1980 0.961 . S
C1973 H1981 0.960 . S
C1974 C1972 1.381 . S
C1974 C1975 1.394 . S
C1974 H1982 0.930 . S
C1975 C1974 1.394 . S
C1975 C1976 1.383 . S
C1975 H1983 0.929 . S
C1976 C1975 1.383 . S
C1976 C1977 1.377 . S
C1977 H1961 0.930 . S
C1977 C1976 1.377 . S
C1977 C1978 1.379 . S
C1978 H1962 0.931 . S
C1978 C1972 1.383 . S
C1978 C1977 1.379 . S
H1979 C1973 0.959 . S
H1980 C1973 0.961 . S
H1981 C1973 0.960 . S
H1982 C1974 0.930 . S
H1983 C1975 0.929 . S
C553 C111 1.593 . S
C572 C2 1.609 . S
C589 C36 1.613 . S
C608 C9 1.571 . S
C625 C70 1.613 1_455 S
C644 C43 1.572 . S
C661 C104 1.614 1_545 S
C680 C77 1.603 . S
C697 C179 1.590 . S
C716 C138 1.604 1_655 S
C733 C213 1.587 . S
C752 C172 1.610 1_565 S
C769 C206 1.613 . S
C788 C247 1.577 . S
C805 C145 1.589 . S
C824 C240 1.614 . S
C841 C274 1.612 . S
C860 C383 1.604 . S
C877 C308 1.614 . S
C896 C281 1.571 . S
C913 C315 1.592 . S
C932 C342 1.606 1_655 S
C949 C376 1.614 1_565 S
C968 C349 1.570 . S
C985 C451 1.591 . S
C1004 C410 1.608 1_455 S
C1021 C444 1.614 1_545 S
C1040 C485 1.570 . S
C1057 C478 1.614 . S
C1076 C519 1.570 . S
C1093 C512 1.612 . S
C1112 C417 1.603 . S
C1129 C33 1.967 . S
C1148 C203 1.952 . S
C1165 C67 1.972 . S
C1184 C237 1.975 . S
C1201 C271 1.972 . S
C1220 C101 1.977 . S
C1237 C135 1.971 . S
C1256 C169 1.978 . S
C1273 C475 1.971 . S
C1292 C305 1.955 . S
C1309 C509 1.968 . S
C1328 C339 1.978 . S
C1345 C373 1.968 . S
C1364 C543 1.978 . S
C1381 C441 1.971 . S
C1400 C407 1.953 . S
C1417 C5 0.962 . S
C1436 C394 0.988 . S
C1453 C39 0.971 . S
C1472 C292 0.959 . S
C1489 C73 0.972 . S
C1508 C326 0.960 . S
C1525 C107 0.975 . S
C1544 C360 0.989 . S
C1561 C462 0.982 . S
C1580 C141 0.933 . S
C1597 C175 0.967 . S
C1616 C496 1.000 . S
C1633 C530 0.977 . S
C1652 C209 0.943 . S
C1669 C243 0.974 . S
C1688 C428 0.994 . S
C1705 C122 0.984 . S
C1724 C277 0.980 . S
C1741 C20 0.976 . S
C1760 C311 0.932 . S
C1777 C54 0.976 . S
C1796 C345 0.947 . S
C1813 C88 0.981 . S
C1832 C379 0.988 . S
C1849 C190 0.976 . S
C1868 C413 0.945 . S
C1885 C447 0.963 . S
C1904 C224 0.977 . S
C1921 C258 0.977 . S
C1940 C481 0.931 . S
C1957 C156 0.979 . S
C1976 C515 0.979 . S
