# Generated by pormake.
# Topology umn, (4)-cn, num edge types: 1
# Building blocks:
#     Node 0, Type 0, BuildingBlock: QUQFOY_clean_sbu_1, # of connection points: 4
#     Node 1, Type 0, BuildingBlock: QUQFOY_clean_sbu_1, # of connection points: 4
#     Node 2, Type 0, BuildingBlock: QUQFOY_clean_sbu_1, # of connection points: 4
#     Node 3, Type 0, BuildingBlock: QUQFOY_clean_sbu_1, # of connection points: 4
#     Node 4, Type 0, BuildingBlock: QUQFOY_clean_sbu_1, # of connection points: 4
#     Node 5, Type 0, BuildingBlock: QUQFOY_clean_sbu_1, # of connection points: 4
#     Node 6, Type 0, BuildingBlock: QUQFOY_clean_sbu_1, # of connection points: 4
#     Node 7, Type 0, BuildingBlock: QUQFOY_clean_sbu_1, # of connection points: 4
#     Node 8, Type 0, BuildingBlock: QUQFOY_clean_sbu_1, # of connection points: 4
#     Node 9, Type 0, BuildingBlock: QUQFOY_clean_sbu_1, # of connection points: 4
#     Node 10, Type 0, BuildingBlock: QUQFOY_clean_sbu_1, # of connection points: 4
#     Node 11, Type 0, BuildingBlock: QUQFOY_clean_sbu_1, # of connection points: 4
#     Node 12, Type 0, BuildingBlock: QUQFOY_clean_sbu_1, # of connection points: 4
#     Node 13, Type 0, BuildingBlock: QUQFOY_clean_sbu_1, # of connection points: 4
#     Node 14, Type 0, BuildingBlock: QUQFOY_clean_sbu_1, # of connection points: 4
#     Node 15, Type 0, BuildingBlock: QUQFOY_clean_sbu_1, # of connection points: 4
#     Node 16, Type 0, BuildingBlock: QUQFOY_clean_sbu_1, # of connection points: 4
#     Node 17, Type 0, BuildingBlock: QUQFOY_clean_sbu_1, # of connection points: 4
#     Node 18, Type 0, BuildingBlock: QUQFOY_clean_sbu_1, # of connection points: 4
#     Node 19, Type 0, BuildingBlock: QUQFOY_clean_sbu_1, # of connection points: 4
#     Node 20, Type 0, BuildingBlock: QUQFOY_clean_sbu_1, # of connection points: 4
#     Node 21, Type 0, BuildingBlock: QUQFOY_clean_sbu_1, # of connection points: 4
#     Node 22, Type 0, BuildingBlock: QUQFOY_clean_sbu_1, # of connection points: 4
#     Node 23, Type 0, BuildingBlock: QUQFOY_clean_sbu_1, # of connection points: 4
#     Node 24, Type 0, BuildingBlock: QUQFOY_clean_sbu_1, # of connection points: 4
#     Node 25, Type 0, BuildingBlock: QUQFOY_clean_sbu_1, # of connection points: 4
#     Node 26, Type 0, BuildingBlock: QUQFOY_clean_sbu_1, # of connection points: 4
#     Node 27, Type 0, BuildingBlock: QUQFOY_clean_sbu_1, # of connection points: 4
#     Node 28, Type 0, BuildingBlock: QUQFOY_clean_sbu_1, # of connection points: 4
#     Node 29, Type 0, BuildingBlock: QUQFOY_clean_sbu_1, # of connection points: 4
#     Node 30, Type 0, BuildingBlock: QUQFOY_clean_sbu_1, # of connection points: 4
#     Node 31, Type 0, BuildingBlock: QUQFOY_clean_sbu_1, # of connection points: 4
#     Node 32, Type 0, BuildingBlock: QUQFOY_clean_sbu_1, # of connection points: 4
#     Node 33, Type 0, BuildingBlock: QUQFOY_clean_sbu_1, # of connection points: 4
#     Node 34, Type 0, BuildingBlock: QUQFOY_clean_sbu_1, # of connection points: 4
#     Node 35, Type 0, BuildingBlock: QUQFOY_clean_sbu_1, # of connection points: 4
#     Edge 36, Type (0, 0), BuildingBlock: XUDNAN_clean_linker_2, # of connection points: 2
#     Edge 37, Type (0, 0), BuildingBlock: XUDNAN_clean_linker_2, # of connection points: 2
#     Edge 38, Type (0, 0), BuildingBlock: XUDNAN_clean_linker_2, # of connection points: 2
#     Edge 39, Type (0, 0), BuildingBlock: XUDNAN_clean_linker_2, # of connection points: 2
#     Edge 40, Type (0, 0), BuildingBlock: XUDNAN_clean_linker_2, # of connection points: 2
#     Edge 41, Type (0, 0), BuildingBlock: XUDNAN_clean_linker_2, # of connection points: 2
#     Edge 42, Type (0, 0), BuildingBlock: XUDNAN_clean_linker_2, # of connection points: 2
#     Edge 43, Type (0, 0), BuildingBlock: XUDNAN_clean_linker_2, # of connection points: 2
#     Edge 44, Type (0, 0), BuildingBlock: XUDNAN_clean_linker_2, # of connection points: 2
#     Edge 45, Type (0, 0), BuildingBlock: XUDNAN_clean_linker_2, # of connection points: 2
#     Edge 46, Type (0, 0), BuildingBlock: XUDNAN_clean_linker_2, # of connection points: 2
#     Edge 47, Type (0, 0), BuildingBlock: XUDNAN_clean_linker_2, # of connection points: 2
#     Edge 48, Type (0, 0), BuildingBlock: XUDNAN_clean_linker_2, # of connection points: 2
#     Edge 49, Type (0, 0), BuildingBlock: XUDNAN_clean_linker_2, # of connection points: 2
#     Edge 50, Type (0, 0), BuildingBlock: XUDNAN_clean_linker_2, # of connection points: 2
#     Edge 51, Type (0, 0), BuildingBlock: XUDNAN_clean_linker_2, # of connection points: 2
#     Edge 52, Type (0, 0), BuildingBlock: XUDNAN_clean_linker_2, # of connection points: 2
#     Edge 53, Type (0, 0), BuildingBlock: XUDNAN_clean_linker_2, # of connection points: 2
#     Edge 54, Type (0, 0), BuildingBlock: XUDNAN_clean_linker_2, # of connection points: 2
#     Edge 55, Type (0, 0), BuildingBlock: XUDNAN_clean_linker_2, # of connection points: 2
#     Edge 56, Type (0, 0), BuildingBlock: XUDNAN_clean_linker_2, # of connection points: 2
#     Edge 57, Type (0, 0), BuildingBlock: XUDNAN_clean_linker_2, # of connection points: 2
#     Edge 58, Type (0, 0), BuildingBlock: XUDNAN_clean_linker_2, # of connection points: 2
#     Edge 59, Type (0, 0), BuildingBlock: XUDNAN_clean_linker_2, # of connection points: 2
#     Edge 60, Type (0, 0), BuildingBlock: XUDNAN_clean_linker_2, # of connection points: 2
#     Edge 61, Type (0, 0), BuildingBlock: XUDNAN_clean_linker_2, # of connection points: 2
#     Edge 62, Type (0, 0), BuildingBlock: XUDNAN_clean_linker_2, # of connection points: 2
#     Edge 63, Type (0, 0), BuildingBlock: XUDNAN_clean_linker_2, # of connection points: 2
#     Edge 64, Type (0, 0), BuildingBlock: XUDNAN_clean_linker_2, # of connection points: 2
#     Edge 65, Type (0, 0), BuildingBlock: XUDNAN_clean_linker_2, # of connection points: 2
#     Edge 66, Type (0, 0), BuildingBlock: XUDNAN_clean_linker_2, # of connection points: 2
#     Edge 67, Type (0, 0), BuildingBlock: XUDNAN_clean_linker_2, # of connection points: 2
#     Edge 68, Type (0, 0), BuildingBlock: XUDNAN_clean_linker_2, # of connection points: 2
#     Edge 69, Type (0, 0), BuildingBlock: XUDNAN_clean_linker_2, # of connection points: 2
#     Edge 70, Type (0, 0), BuildingBlock: XUDNAN_clean_linker_2, # of connection points: 2
#     Edge 71, Type (0, 0), BuildingBlock: XUDNAN_clean_linker_2, # of connection points: 2
#     Edge 72, Type (0, 0), BuildingBlock: XUDNAN_clean_linker_2, # of connection points: 2
#     Edge 73, Type (0, 0), BuildingBlock: XUDNAN_clean_linker_2, # of connection points: 2
#     Edge 74, Type (0, 0), BuildingBlock: XUDNAN_clean_linker_2, # of connection points: 2
#     Edge 75, Type (0, 0), BuildingBlock: XUDNAN_clean_linker_2, # of connection points: 2
#     Edge 76, Type (0, 0), BuildingBlock: XUDNAN_clean_linker_2, # of connection points: 2
#     Edge 77, Type (0, 0), BuildingBlock: XUDNAN_clean_linker_2, # of connection points: 2
#     Edge 78, Type (0, 0), BuildingBlock: XUDNAN_clean_linker_2, # of connection points: 2
#     Edge 79, Type (0, 0), BuildingBlock: XUDNAN_clean_linker_2, # of connection points: 2
#     Edge 80, Type (0, 0), BuildingBlock: XUDNAN_clean_linker_2, # of connection points: 2
#     Edge 81, Type (0, 0), BuildingBlock: XUDNAN_clean_linker_2, # of connection points: 2
#     Edge 82, Type (0, 0), BuildingBlock: XUDNAN_clean_linker_2, # of connection points: 2
#     Edge 83, Type (0, 0), BuildingBlock: XUDNAN_clean_linker_2, # of connection points: 2
#     Edge 84, Type (0, 0), BuildingBlock: XUDNAN_clean_linker_2, # of connection points: 2
#     Edge 85, Type (0, 0), BuildingBlock: XUDNAN_clean_linker_2, # of connection points: 2
#     Edge 86, Type (0, 0), BuildingBlock: XUDNAN_clean_linker_2, # of connection points: 2
#     Edge 87, Type (0, 0), BuildingBlock: XUDNAN_clean_linker_2, # of connection points: 2
#     Edge 88, Type (0, 0), BuildingBlock: XUDNAN_clean_linker_2, # of connection points: 2
#     Edge 89, Type (0, 0), BuildingBlock: XUDNAN_clean_linker_2, # of connection points: 2
#     Edge 90, Type (0, 0), BuildingBlock: XUDNAN_clean_linker_2, # of connection points: 2
#     Edge 91, Type (0, 0), BuildingBlock: XUDNAN_clean_linker_2, # of connection points: 2
#     Edge 92, Type (0, 0), BuildingBlock: XUDNAN_clean_linker_2, # of connection points: 2
#     Edge 93, Type (0, 0), BuildingBlock: XUDNAN_clean_linker_2, # of connection points: 2
#     Edge 94, Type (0, 0), BuildingBlock: XUDNAN_clean_linker_2, # of connection points: 2
#     Edge 95, Type (0, 0), BuildingBlock: XUDNAN_clean_linker_2, # of connection points: 2
#     Edge 96, Type (0, 0), BuildingBlock: XUDNAN_clean_linker_2, # of connection points: 2
#     Edge 97, Type (0, 0), BuildingBlock: XUDNAN_clean_linker_2, # of connection points: 2
#     Edge 98, Type (0, 0), BuildingBlock: XUDNAN_clean_linker_2, # of connection points: 2
#     Edge 99, Type (0, 0), BuildingBlock: XUDNAN_clean_linker_2, # of connection points: 2
#     Edge 100, Type (0, 0), BuildingBlock: XUDNAN_clean_linker_2, # of connection points: 2
#     Edge 101, Type (0, 0), BuildingBlock: XUDNAN_clean_linker_2, # of connection points: 2
#     Edge 102, Type (0, 0), BuildingBlock: XUDNAN_clean_linker_2, # of connection points: 2
#     Edge 103, Type (0, 0), BuildingBlock: XUDNAN_clean_linker_2, # of connection points: 2
#     Edge 104, Type (0, 0), BuildingBlock: XUDNAN_clean_linker_2, # of connection points: 2
#     Edge 105, Type (0, 0), BuildingBlock: XUDNAN_clean_linker_2, # of connection points: 2
#     Edge 106, Type (0, 0), BuildingBlock: XUDNAN_clean_linker_2, # of connection points: 2
#     Edge 107, Type (0, 0), BuildingBlock: XUDNAN_clean_linker_2, # of connection points: 2
# Relax obj value: 0.079
# Max RMSD: 0.125
# Mean RMSD: 0.125
data_MOF--net-umn--node1-QUQFOY_clean_sbu_1--edge1-XUDNAN_clean_linker_2
_symmetry_space_group_name_H-M    P1
_symmetry_Int_Tables_number       1
_symmetry_cell_setting            triclinic
loop_
_symmetry_equiv_pos_as_xyz
'x, y, z'
_cell_length_a     90.897055
_cell_length_b     90.934377
_cell_length_c     38.460575
_cell_angle_alpha  89.987735
_cell_angle_beta   89.978239
_cell_angle_gamma 119.99444
loop_
_atom_site_label
_atom_site_type_symbol
_atom_site_fract_x
_atom_site_fract_y
_atom_site_fract_z
_atom_type_partial_charge
O0 O 0.33397 0.08938 0.30017 0.0
Cd1 Cd 0.32449 0.09087 0.25276 0.0
Cd2 Cd 0.34079 0.0721 0.23328 0.0
O3 O 0.34567 0.07385 0.28665 0.0
O4 O 0.31518 0.10605 0.26351 0.0
O5 O 0.33448 0.11194 0.22284 0.0
C6 C 0.32473 0.11608 0.23939 0.0
C7 C 0.35995 0.07319 0.19041 0.0
C8 C 0.34135 0.08124 0.30927 0.0
C9 C 0.30239 0.05587 0.22579 0.0
O10 O 0.31592 0.05527 0.22101 0.0
O11 O 0.30294 0.06901 0.23841 0.0
O12 O 0.35308 0.06092 0.2125 0.0
O13 O 0.35681 0.08548 0.19394 0.0
O14 O 0.90818 0.25262 0.28551 0.0
Cd15 Cd 0.90954 0.24336 0.23772 0.0
Cd16 Cd 0.93325 0.27586 0.2239 0.0
O17 O 0.92985 0.27843 0.2769 0.0
O18 O 0.88995 0.21973 0.23728 0.0
O19 O 0.89374 0.23875 0.19727 0.0
C20 C 0.88496 0.22343 0.20897 0.0
C21 C 0.93321 0.2937 0.17921 0.0
C22 C 0.91909 0.26708 0.29733 0.0
C23 C 0.94487 0.25044 0.2253 0.0
O24 O 0.94859 0.26541 0.21678 0.0
O25 O 0.92995 0.23969 0.23487 0.0
O26 O 0.9454 0.29906 0.20155 0.0
O27 O 0.92064 0.27842 0.18314 0.0
O28 O 0.74778 0.6625 0.27818 0.0
Cd29 Cd 0.75794 0.67073 0.22962 0.0
Cd30 Cd 0.72224 0.65864 0.21452 0.0
O31 O 0.72086 0.65454 0.26815 0.0
O32 O 0.78234 0.67969 0.2412 0.0
O33 O 0.76913 0.66008 0.20134 0.0
C34 C 0.7829 0.66977 0.21821 0.0
C35 C 0.70027 0.63932 0.17749 0.0
C36 C 0.73281 0.65733 0.28923 0.0
C37 C 0.74764 0.69601 0.2058 0.0
O38 O 0.73243 0.68394 0.20208 0.0
O39 O 0.75928 0.69315 0.21574 0.0
O40 O 0.69765 0.6479 0.20076 0.0
O41 O 0.71532 0.64129 0.17539 0.0
O42 O 0.08374 0.33678 0.23148 0.0
Cd43 Cd 0.08621 0.32816 0.27924 0.0
Cd44 Cd 0.06273 0.33944 0.29651 0.0
O45 O 0.06418 0.34381 0.24283 0.0
O46 O 0.1022 0.32006 0.26619 0.0
O47 O 0.10793 0.33871 0.30787 0.0
C48 C 0.11239 0.32958 0.29 0.0
C49 C 0.06354 0.35853 0.33926 0.0
C50 C 0.07344 0.34147 0.22112 0.0
C51 C 0.05115 0.30215 0.30355 0.0
O52 O 0.04795 0.31408 0.30869 0.0
O53 O 0.06555 0.30527 0.29235 0.0
O54 O 0.05078 0.35076 0.31852 0.0
O55 O 0.07628 0.35613 0.33462 0.0
O56 O 0.65558 0.7443 0.22921 0.0
Cd57 Cd 0.66591 0.75436 0.27668 0.0
Cd58 Cd 0.65849 0.7228 0.2928 0.0
O59 O 0.65272 0.71916 0.2399 0.0
O60 O 0.66909 0.77763 0.27563 0.0
O61 O 0.65382 0.75869 0.31577 0.0
C62 C 0.65995 0.77383 0.30333 0.0
C63 C 0.64062 0.70509 0.33742 0.0
C64 C 0.65277 0.7299 0.21851 0.0
C65 C 0.69512 0.74887 0.29036 0.0
O66 O 0.6843 0.73399 0.30036 0.0
O67 O 0.69035 0.75903 0.27986 0.0
O68 O 0.64795 0.69989 0.31595 0.0
O69 O 0.64291 0.72018 0.33276 0.0
O70 O 0.24033 0.90137 0.23684 0.0
Cd71 Cd 0.23865 0.9069 0.28796 0.0
Cd72 Cd 0.27255 0.92279 0.28002 0.0
O73 O 0.26785 0.91098 0.23192 0.0
O74 O 0.21417 0.89122 0.29774 0.0
O75 O 0.23473 0.89014 0.32614 0.0
C76 C 0.21868 0.88393 0.32065 0.0
C77 C 0.29268 0.92497 0.32114 0.0
C78 C 0.25304 0.9039 0.21863 0.0
C79 C 0.25529 0.94379 0.28463 0.0
O80 O 0.26848 0.94294 0.27729 0.0
O81 O 0.24176 0.93073 0.29465 0.0
O82 O 0.29723 0.93222 0.29115 0.0
O83 O 0.27661 0.91575 0.32741 0.0
O84 O 0.66389 0.90853 0.74128 0.0
Cd85 Cd 0.67308 0.9125 0.79098 0.0
Cd86 Cd 0.66025 0.93429 0.79009 0.0
O87 O 0.65439 0.92661 0.7379 0.0
O88 O 0.67945 0.89461 0.79578 0.0
O89 O 0.66081 0.8961 0.8302 0.0
C90 C 0.66902 0.88848 0.82142 0.0
C91 C 0.64215 0.93413 0.83413 0.0
C92 C 0.65757 0.91583 0.72361 0.0
C93 C 0.69811 0.94911 0.79895 0.0
O94 O 0.68552 0.95156 0.79781 0.0
O95 O 0.69606 0.9343 0.79666 0.0
O96 O 0.64707 0.94498 0.80896 0.0
O97 O 0.64649 0.92258 0.83283 0.0
O98 O 0.08943 0.7541 0.71887 0.0
Cd99 Cd 0.09206 0.76488 0.76687 0.0
Cd100 Cd 0.07371 0.72981 0.78514 0.0
O101 O 0.0748 0.72674 0.73173 0.0
O102 O 0.10714 0.78933 0.75571 0.0
O103 O 0.11407 0.77565 0.79376 0.0
C104 C 0.11795 0.78957 0.77759 0.0
C105 C 0.0756 0.71187 0.82694 0.0
C106 C 0.08156 0.73866 0.70937 0.0
C107 C 0.05746 0.75177 0.7962 0.0
O108 O 0.05684 0.73754 0.79891 0.0
O109 O 0.07062 0.76466 0.78443 0.0
O110 O 0.06304 0.70635 0.80558 0.0
O111 O 0.08773 0.72738 0.82321 0.0
O112 O 0.24151 0.33115 0.72869 0.0
Cd113 Cd 0.23257 0.32012 0.77624 0.0
Cd114 Cd 0.26577 0.33116 0.79186 0.0
O115 O 0.2679 0.33754 0.73935 0.0
O116 O 0.20894 0.31579 0.77954 0.0
O117 O 0.22913 0.33181 0.81706 0.0
C118 C 0.21347 0.325 0.80724 0.0
C119 C 0.287 0.34969 0.83074 0.0
C120 C 0.25659 0.33642 0.71823 0.0
C121 C 0.24158 0.29351 0.79177 0.0
O122 O 0.25618 0.30556 0.80039 0.0
O123 O 0.23028 0.29661 0.78057 0.0
O124 O 0.29019 0.34196 0.80647 0.0
O125 O 0.27176 0.3472 0.83302 0.0
O126 O 0.90487 0.66012 0.78613 0.0
Cd127 Cd 0.90764 0.67163 0.73845 0.0
Cd128 Cd 0.92353 0.65278 0.72608 0.0
O129 O 0.91444 0.64258 0.77459 0.0
O130 O 0.8945 0.68347 0.7462 0.0
O131 O 0.88843 0.66485 0.70412 0.0
C132 C 0.88515 0.67537 0.72007 0.0
C133 C 0.92348 0.63693 0.6776 0.0
C134 C 0.90846 0.64894 0.79601 0.0
C135 C 0.94486 0.69105 0.73177 0.0
O136 O 0.94412 0.67673 0.73078 0.0
O137 O 0.93149 0.69211 0.73088 0.0
O138 O 0.9328 0.63896 0.70444 0.0
O139 O 0.91356 0.64329 0.67883 0.0
O140 O 0.3383 0.24721 0.79371 0.0
Cd141 Cd 0.32917 0.23761 0.74528 0.0
Cd142 Cd 0.33806 0.27035 0.72906 0.0
O143 O 0.34348 0.27312 0.78201 0.0
O144 O 0.32639 0.21449 0.74521 0.0
O145 O 0.34265 0.23445 0.70754 0.0
C146 C 0.33642 0.21907 0.71875 0.0
C147 C 0.35627 0.29187 0.69028 0.0
C148 C 0.34239 0.26208 0.8038 0.0
C149 C 0.30104 0.24397 0.72639 0.0
O150 O 0.31238 0.25913 0.71925 0.0
O151 O 0.30506 0.23335 0.73764 0.0
O152 O 0.34767 0.29452 0.71349 0.0
O153 O 0.35483 0.27702 0.68901 0.0
O154 O 0.74141 0.09066 0.79432 0.0
Cd155 Cd 0.74932 0.09072 0.74422 0.0
Cd156 Cd 0.71596 0.06688 0.73291 0.0
O157 O 0.71482 0.0704 0.78651 0.0
O158 O 0.77304 0.11009 0.74294 0.0
O159 O 0.75319 0.10766 0.70643 0.0
C160 C 0.76885 0.11584 0.71645 0.0
C161 C 0.69455 0.06395 0.6936 0.0
C162 C 0.72688 0.08025 0.80674 0.0
C163 C 0.74185 0.0557 0.72719 0.0
O164 O 0.72642 0.05173 0.72319 0.0
O165 O 0.75301 0.07066 0.7355 0.0
O166 O 0.6915 0.05306 0.71794 0.0
O167 O 0.70968 0.07695 0.69193 0.0
O168 O 0.99796 0.42728 0.61735 0.0
Cd169 Cd 0.9885 0.41992 0.56796 0.0
Cd170 Cd 0.01086 0.40711 0.57429 0.0
O171 O 0.01813 0.42049 0.62082 0.0
O172 O 0.97341 0.42993 0.56639 0.0
O173 O 0.9947 0.43757 0.52998 0.0
C174 C 0.98236 0.43945 0.54118 0.0
C175 C 0.02879 0.40506 0.53251 0.0
C176 C 0.00962 0.42669 0.63437 0.0
C177 C 0.97296 0.38285 0.57494 0.0
O178 O 0.98788 0.38559 0.58081 0.0
O179 O 0.97046 0.39463 0.56434 0.0
O180 O 0.02751 0.39927 0.56363 0.0
O181 O 0.02058 0.4129 0.52539 0.0
O182 O 0.57078 0.56979 0.61135 0.0
Cd183 Cd 0.57742 0.56879 0.56069 0.0
Cd184 Cd 0.59254 0.60264 0.56993 0.0
O185 O 0.57986 0.59716 0.61717 0.0
O186 O 0.56202 0.54448 0.54904 0.0
O187 O 0.56161 0.56548 0.52098 0.0
C188 C 0.55531 0.54936 0.52555 0.0
C189 C 0.59516 0.62333 0.5297 0.0
C190 C 0.57275 0.58222 0.62982 0.0
C191 C 0.61426 0.58606 0.56643 0.0
O192 O 0.61293 0.59898 0.57372 0.0
O193 O 0.60155 0.57242 0.55574 0.0
O194 O 0.60188 0.62744 0.56022 0.0
O195 O 0.58622 0.60736 0.52234 0.0
O196 O 0.41309 0.99143 0.62421 0.0
Cd197 Cd 0.42271 0.99861 0.57498 0.0
Cd198 Cd 0.39012 0.98939 0.55933 0.0
O199 O 0.38668 0.98483 0.61279 0.0
O200 O 0.44593 0.00164 0.57766 0.0
O201 O 0.42629 0.98371 0.54137 0.0
C202 C 0.44162 0.99057 0.5532 0.0
C203 C 0.37244 0.97044 0.51611 0.0
C204 C 0.3982 0.98714 0.63463 0.0
C205 C 0.41656 0.02632 0.55202 0.0
O206 O 0.40118 0.01483 0.54737 0.0
O207 O 0.42745 0.02249 0.56253 0.0
O208 O 0.36716 0.97815 0.53634 0.0
O209 O 0.38753 0.97285 0.5215 0.0
O210 O 0.75746 0.67562 0.54902 0.0
Cd211 Cd 0.75934 0.66774 0.59789 0.0
Cd212 Cd 0.73799 0.67934 0.61548 0.0
O213 O 0.73892 0.68375 0.56192 0.0
O214 O 0.77949 0.66471 0.59745 0.0
O215 O 0.77681 0.68234 0.63317 0.0
C216 C 0.78553 0.6755 0.6226 0.0
C217 C 0.73889 0.69821 0.65859 0.0
C218 C 0.74749 0.68085 0.53945 0.0
C219 C 0.72563 0.6418 0.62353 0.0
O220 O 0.72309 0.65417 0.62867 0.0
O221 O 0.73954 0.64429 0.61071 0.0
O222 O 0.72615 0.69064 0.63776 0.0
O223 O 0.75166 0.6959 0.65361 0.0
O224 O 0.33038 0.08436 0.57099 0.0
Cd225 Cd 0.34199 0.09531 0.61721 0.0
Cd226 Cd 0.32931 0.06068 0.63412 0.0
O227 O 0.32147 0.05737 0.58248 0.0
O228 O 0.35082 0.11964 0.6052 0.0
O229 O 0.334 0.10744 0.65 0.0
C230 C 0.3428 0.12088 0.63147 0.0
C231 C 0.31227 0.04335 0.6802 0.0
C232 C 0.32381 0.06903 0.56102 0.0
C233 C 0.36723 0.08383 0.63071 0.0
O234 O 0.35489 0.06913 0.63752 0.0
O235 O 0.36472 0.09594 0.62287 0.0
O236 O 0.31782 0.03747 0.6562 0.0
O237 O 0.31581 0.05894 0.67736 0.0
O238 O 0.90869 0.23769 0.55584 0.0
Cd239 Cd 0.89826 0.23507 0.6045 0.0
Cd240 Cd 0.93469 0.25342 0.62234 0.0
O241 O 0.93616 0.25213 0.56817 0.0
O242 O 0.87355 0.22186 0.59345 0.0
O243 O 0.88558 0.21309 0.63158 0.0
C244 C 0.872 0.21074 0.61597 0.0
C245 C 0.95529 0.2536 0.66029 0.0
C246 C 0.9241 0.24566 0.54598 0.0
C247 C 0.91291 0.26973 0.63586 0.0
O248 O 0.92705 0.27011 0.63809 0.0
O249 O 0.89993 0.25691 0.62338 0.0
O250 O 0.95921 0.26533 0.63751 0.0
O251 O 0.93984 0.24114 0.66065 0.0
O252 O 0.3279 0.24382 0.06615 0.0
Cd253 Cd 0.33815 0.24405 0.1137 0.0
Cd254 Cd 0.33062 0.26827 0.1297 0.0
O255 O 0.32436 0.26566 0.07709 0.0
O256 O 0.34005 0.22325 0.11509 0.0
O257 O 0.32533 0.22872 0.15363 0.0
C258 C 0.33083 0.21889 0.14277 0.0
C259 C 0.31281 0.26974 0.17234 0.0
C260 C 0.32434 0.25494 0.05575 0.0
C261 C 0.3674 0.27817 0.12988 0.0
O262 O 0.35645 0.28231 0.13859 0.0
O263 O 0.36273 0.26338 0.11858 0.0
O264 O 0.32096 0.2819 0.15044 0.0
O265 O 0.31437 0.25643 0.16948 0.0
O266 O 0.75786 0.08274 0.06251 0.0
Cd267 Cd 0.76011 0.09531 0.10824 0.0
Cd268 Cd 0.73589 0.06211 0.13118 0.0
O269 O 0.73592 0.05798 0.0775 0.0
O270 O 0.77623 0.11896 0.09259 0.0
O271 O 0.78126 0.10767 0.13835 0.0
C272 C 0.7859 0.12064 0.11837 0.0
C273 C 0.73632 0.04409 0.17523 0.0
C274 C 0.74574 0.06815 0.05416 0.0
C275 C 0.72532 0.08823 0.13114 0.0
O276 O 0.72201 0.07377 0.14246 0.0
O277 O 0.73936 0.09801 0.11644 0.0
O278 O 0.72346 0.03919 0.15482 0.0
O279 O 0.74934 0.05893 0.16961 0.0
O280 O 0.90563 0.66126 0.05879 0.0
Cd281 Cd 0.89848 0.65289 0.10869 0.0
Cd282 Cd 0.93312 0.66816 0.12076 0.0
O283 O 0.93316 0.67195 0.06726 0.0
O284 O 0.87454 0.64759 0.11297 0.0
O285 O 0.89546 0.6668 0.14542 0.0
C286 C 0.87954 0.65887 0.1372 0.0
C287 C 0.95557 0.68819 0.15596 0.0
C288 C 0.92064 0.6679 0.04691 0.0
C289 C 0.91136 0.62996 0.12919 0.0
O290 O 0.92563 0.64342 0.13317 0.0
O291 O 0.89844 0.63071 0.11922 0.0
O292 O 0.95815 0.68026 0.13119 0.0
O293 O 0.94029 0.68532 0.16038 0.0
O294 O 0.57466 0.00178 0.10808 0.0
Cd295 Cd 0.58034 0.01081 0.05837 0.0
Cd296 Cd 0.60204 0.99782 0.06345 0.0
O297 O 0.59312 0.99297 0.11507 0.0
O298 O 0.5634 0.01832 0.05172 0.0
O299 O 0.56446 -0.00071 0.0179 0.0
C300 C 0.5573 0.00803 0.02591 0.0
C301 C 0.60406 0.97829 0.02608 0.0
C302 C 0.58187 0.99598 0.12748 0.0
C303 C 0.61753 0.03552 0.05385 0.0
O304 O 0.61995 0.02292 0.05548 0.0
O305 O 0.60267 0.03345 0.05465 0.0
O306 O 0.61339 0.98411 0.0535 0.0
O307 O 0.59293 0.9829 0.02051 0.0
O308 O 0.01017 0.58463 0.12011 0.0
Cd309 Cd 0.00366 0.57748 0.06922 0.0
Cd310 Cd 0.01786 0.61145 0.06114 0.0
O311 O 0.02503 0.61237 0.11251 0.0
O312 O 0.99829 0.55344 0.06848 0.0
O313 O 0.01872 0.57357 0.03673 0.0
C314 C 0.01045 0.55786 0.04642 0.0
C315 C 0.03604 0.63164 0.02011 0.0
C316 C 0.01882 0.5995 0.13255 0.0
C317 C 0.97958 0.58929 0.05629 0.0
O318 O 0.99252 0.60407 0.05852 0.0
O319 O 0.98121 0.57623 0.05574 0.0
O320 O 0.03034 0.63592 0.04655 0.0
O321 O 0.03174 0.61586 0.01693 0.0
O322 O 0.41166 0.41673 0.123 0.0
Cd323 Cd 0.42442 0.41856 0.07793 0.0
Cd324 Cd 0.39148 0.39324 0.05753 0.0
O325 O 0.38688 0.39436 0.11023 0.0
O326 O 0.44771 0.43582 0.09315 0.0
O327 O 0.43541 0.43963 0.04749 0.0
C328 C 0.44849 0.44524 0.06756 0.0
C329 C 0.37264 0.39219 0.01436 0.0
C330 C 0.39703 0.40505 0.13231 0.0
C331 C 0.41881 0.38409 0.05756 0.0
O332 O 0.40388 0.37991 0.04776 0.0
O333 O 0.42849 0.39854 0.07085 0.0
O334 O 0.36855 0.37966 0.0353 0.0
O335 O 0.38732 0.40564 0.01853 0.0
O336 O 0.67236 0.7558 0.95977 0.0
Cd337 Cd 0.66498 0.75838 0.91059 0.0
Cd338 Cd 0.68101 0.73854 0.89724 0.0
O339 O 0.68721 0.74305 0.94962 0.0
O340 O 0.65442 0.77242 0.92227 0.0
O341 O 0.67525 0.78076 0.88442 0.0
C342 C 0.66459 0.78372 0.90073 0.0
C343 C 0.69951 0.73716 0.85587 0.0
C344 C 0.68093 0.74921 0.97083 0.0
C345 C 0.64269 0.72243 0.89002 0.0
O346 O 0.65578 0.72081 0.89145 0.0
O347 O 0.64381 0.73681 0.89352 0.0
O348 O 0.69343 0.72662 0.88135 0.0
O349 O 0.69558 0.74896 0.85409 0.0
O350 O 0.23962 0.90645 0.94993 0.0
Cd351 Cd 0.24634 0.90358 0.90084 0.0
Cd352 Cd 0.26728 0.93791 0.9059 0.0
O353 O 0.25766 0.93382 0.95666 0.0
O354 O 0.22913 0.87961 0.89086 0.0
O355 O 0.23181 0.90107 0.85913 0.0
C356 C 0.22396 0.88494 0.86524 0.0
C357 C 0.26998 0.95991 0.86933 0.0
C358 C 0.24641 0.91958 0.96901 0.0
C359 C 0.28344 0.91618 0.89846 0.0
O360 O 0.28552 0.93108 0.89945 0.0
O361 O 0.2687 0.90321 0.89898 0.0
O362 O 0.27887 0.96304 0.89731 0.0
O363 O 0.25894 0.94427 0.86264 0.0
O364 O 0.07863 0.32073 0.96242 0.0
Cd365 Cd 0.0897 0.32799 0.91423 0.0
Cd366 Cd 0.0543 0.31354 0.89588 0.0
O367 O 0.05144 0.31036 0.94989 0.0
O368 O 0.11398 0.33685 0.92654 0.0
O369 O 0.1006 0.31668 0.88763 0.0
C370 C 0.11443 0.32662 0.90412 0.0
C371 C 0.03558 0.29397 0.85428 0.0
C372 C 0.06331 0.31472 0.97219 0.0
C373 C 0.07886 0.35115 0.88316 0.0
O374 O 0.06403 0.33832 0.88047 0.0
O375 O 0.09096 0.34972 0.89581 0.0
O376 O 0.0308 0.30193 0.87499 0.0
O377 O 0.05066 0.29622 0.85869 0.0
O378 O 0.42403 0.01258 0.892 0.0
Cd379 Cd 0.42696 0.00369 0.93889 0.0
Cd380 Cd 0.40226 0.01353 0.95871 0.0
O381 O 0.40289 0.01706 0.9049 0.0
O382 O 0.44249 0.99543 0.92322 0.0
O383 O 0.44917 0.0138 0.96582 0.0
C384 C 0.45316 0.0047 0.94659 0.0
C385 C 0.40019 0.03245 0.99777 0.0
C386 C 0.41258 0.01584 0.88252 0.0
C387 C 0.39233 0.97683 0.96485 0.0
O388 O 0.38867 0.98826 0.97217 0.0
O389 O 0.4065 0.98059 0.95132 0.0
O390 O 0.38812 0.02332 0.97645 0.0
O391 O 0.41378 0.03132 0.99657 0.0
O392 O -1e-05 0.42847 0.90013 0.0
Cd393 Cd 0.00986 0.43138 0.94934 0.0
Cd394 Cd 0.98717 0.39575 0.94447 0.0
O395 O 0.97968 0.40153 0.8978 0.0
O396 O 0.02505 0.45649 0.94869 0.0
O397 O 0.00404 0.44372 0.98605 0.0
C398 C 0.01628 0.45765 0.97358 0.0
C399 C 0.96928 0.3753 0.98575 0.0
C400 C 0.98817 0.4161 0.88368 0.0
C401 C 0.02527 0.40971 0.94342 0.0
O402 O 0.01031 0.39754 0.93792 0.0
O403 O 0.02789 0.4241 0.95359 0.0
O404 O 0.97088 0.37108 0.95458 0.0
O405 O 0.97715 0.39129 0.99325 0.0
O406 O 0.56816 0.56798 0.89792 0.0
Cd407 Cd 0.56358 0.5739 0.94643 0.0
Cd408 Cd 0.59818 0.5931 0.94697 0.0
O409 O 0.59606 0.58444 0.89575 0.0
O410 O 0.53942 0.55658 0.9544 0.0
O411 O 0.56034 0.55914 0.98794 0.0
C412 C 0.54433 0.55131 0.9806 0.0
C413 C 0.61606 0.59278 0.99073 0.0
C414 C 0.58202 0.57411 0.88119 0.0
C415 C 0.57764 0.61088 0.9523 0.0
O416 O 0.59208 0.61187 0.95284 0.0
O417 O 0.56409 0.59667 0.94948 0.0
O418 O 0.62212 0.60304 0.96463 0.0
O419 O 0.59996 0.58187 0.99066 0.0
O420 O 0.99281 0.57466 0.39001 0.0
Cd421 Cd -0.00138 0.57236 0.44035 0.0
Cd422 Cd 0.98697 0.59481 0.45367 0.0
O423 O 0.98429 0.59317 0.39977 0.0
O424 O 0.00245 0.55268 0.43935 0.0
O425 O 0.98256 0.55326 0.47147 0.0
C426 C 0.99014 0.54522 0.4612 0.0
C427 C 0.96732 0.59793 0.48861 0.0
C428 C 0.98787 0.5846 0.37872 0.0
C429 C 0.02411 0.60652 0.46657 0.0
O430 O 0.01187 0.60948 0.46893 0.0
O431 O 0.02157 0.5922 0.45611 0.0
O432 O 0.97664 0.60917 0.46599 0.0
O433 O 0.96866 0.5845 0.49106 0.0
O434 O 0.4191 0.41522 0.39209 0.0
Cd435 Cd 0.42146 0.42772 0.43793 0.0
Cd436 Cd 0.39809 0.3937 0.45839 0.0
O437 O 0.4003 0.38884 0.40647 0.0
O438 O 0.43775 0.45138 0.42267 0.0
O439 O 0.44321 0.43924 0.46638 0.0
C440 C 0.44794 0.45239 0.44685 0.0
C441 C 0.39762 0.37587 0.50335 0.0
C442 C 0.40933 0.39981 0.38362 0.0
C443 C 0.38616 0.41928 0.45834 0.0
O444 O 0.38282 0.40423 0.46504 0.0
O445 O 0.40078 0.43044 0.44791 0.0
O446 O 0.3854 0.3708 0.48121 0.0
O447 O 0.41047 0.39098 0.49942 0.0
O448 O 0.57352 0.00586 0.39371 0.0
Cd449 Cd 0.56883 0.99553 0.4429 0.0
Cd450 Cd 0.60403 0.01668 0.4418 0.0
O451 O 0.60092 0.02496 0.3934 0.0
O452 O 0.54363 0.98121 0.43984 0.0
O453 O 0.55619 0.00129 0.47913 0.0
C454 C 0.54232 0.98951 0.46548 0.0
C455 C 0.61838 0.03193 0.49184 0.0
C456 C 0.58663 0.01709 0.37789 0.0
C457 C 0.58924 0.97867 0.44063 0.0
O458 O 0.60198 0.99343 0.43657 0.0
O459 O 0.57475 0.9766 0.4483 0.0
O460 O 0.62663 0.032 0.46441 0.0
O461 O 0.60197 0.02425 0.48982 0.0
O462 O 0.24068 0.33125 0.45421 0.0
Cd463 Cd 0.2418 0.34176 0.40646 0.0
Cd464 Cd 0.26446 0.33105 0.39009 0.0
O465 O 0.26067 0.32495 0.44273 0.0
O466 O 0.22213 0.34563 0.4047 0.0
O467 O 0.22591 0.32943 0.36698 0.0
C468 C 0.217 0.33604 0.37756 0.0
C469 C 0.26778 0.31269 0.35172 0.0
C470 C 0.25067 0.32614 0.46426 0.0
C471 C 0.27718 0.36864 0.38929 0.0
O472 O 0.27994 0.35669 0.38101 0.0
O473 O 0.26275 0.3654 0.40062 0.0
O474 O 0.27873 0.32092 0.37563 0.0
O475 O 0.25466 0.31458 0.34948 0.0
O476 O 0.66988 0.90861 0.4541 0.0
Cd477 Cd 0.66243 0.90179 0.4036 0.0
Cd478 Cd 0.6807 0.94014 0.40361 0.0
O479 O 0.68383 0.9367 0.45667 0.0
O480 O 0.64958 0.87672 0.4106 0.0
O481 O 0.67119 0.88911 0.37449 0.0
C482 C 0.65945 0.87535 0.38861 0.0
C483 C 0.70055 0.96212 0.36742 0.0
C484 C 0.67765 0.92226 0.47155 0.0
C485 C 0.64299 0.91904 0.38404 0.0
O486 O 0.65629 0.9332 0.39004 0.0
O487 O 0.64287 0.90511 0.38708 0.0
O488 O 0.69393 0.9653 0.39394 0.0
O489 O 0.69694 0.94661 0.36268 0.0
O490 O 0.08234 0.75202 0.44964 0.0
Cd491 Cd 0.09279 0.75188 0.40234 0.0
Cd492 Cd 0.05733 0.73234 0.38862 0.0
O493 O 0.05477 0.73887 0.43885 0.0
O494 O 0.11727 0.766 0.41495 0.0
O495 O 0.10566 0.77322 0.37302 0.0
C496 C 0.11891 0.77663 0.39122 0.0
C497 C 0.04023 0.73168 0.34185 0.0
C498 C 0.06714 0.7461 0.46002 0.0
C499 C 0.0785 0.71497 0.39106 0.0
O500 O 0.06403 0.71389 0.38947 0.0
O501 O 0.09202 0.72928 0.39261 0.0
O502 O 0.03398 0.72113 0.36738 0.0
O503 O 0.05614 0.74307 0.34338 0.0
H504 H 0.26951 0.96205 0.22737 0.0
H505 H 0.24016 0.95973 0.318 0.0
H506 H 0.24233 0.98708 0.30054 0.0
H507 H 0.29888 0.00222 0.23232 0.0
H508 H 0.30126 0.00661 0.18629 0.0
H509 H 0.29341 0.98537 0.20134 0.0
H510 H 0.26656 0.97527 0.16307 0.0
H511 H 0.27429 0.99674 0.14836 0.0
H512 H 0.25357 0.98498 0.16804 0.0
H513 H 0.25341 0.01698 0.28079 0.0
H514 H 0.27404 0.04654 0.26517 0.0
H515 H 0.29503 0.02874 0.18552 0.0
C516 C 0.26326 0.96717 0.24318 0.0
C517 C 0.25495 0.95913 0.27425 0.0
C518 C 0.24667 0.96589 0.29416 0.0
C519 C 0.24769 0.98126 0.28417 0.0
C520 C 0.2565 0.98921 0.25369 0.0
C521 C 0.26395 0.9822 0.23328 0.0
C522 C 0.27482 0.99411 0.20482 0.0
C523 C 0.29316 0.99727 0.20636 0.0
C524 C 0.26682 0.98737 0.16895 0.0
C525 C 0.27387 0.0097 0.21453 0.0
C526 C 0.26266 0.00646 0.2418 0.0
C527 C 0.26181 0.01956 0.25882 0.0
C528 C 0.27354 0.03636 0.24963 0.0
C529 C 0.28613 0.03979 0.22423 0.0
C530 C 0.28537 0.02634 0.20473 0.0
H531 H 0.02176 0.28814 0.34065 0.0
H532 H 0.04775 0.27766 0.2585 0.0
H533 H 0.02044 0.25516 0.23616 0.0
H534 H 0.9821 0.24042 0.34447 0.0
H535 H 0.96855 0.24915 0.35378 0.0
H536 H 0.98977 0.25905 0.37141 0.0
H537 H 0.99592 0.28759 0.34419 0.0
H538 H 0.97508 0.27782 0.32595 0.0
H539 H 0.99333 0.28877 0.29793 0.0
H540 H 0.99247 0.24467 0.20907 0.0
H541 H 0.96547 0.242 0.18778 0.0
H542 H 0.95609 0.25551 0.28974 0.0
C543 C 0.02165 0.28025 0.31947 0.0
C544 C 0.03672 0.28467 0.30115 0.0
C545 C 0.03633 0.2744 0.27313 0.0
C546 C 0.0208 0.26157 0.26012 0.0
C547 C 0.0059 0.25872 0.27637 0.0
C548 C 0.00621 0.26716 0.30667 0.0
C549 C 0.98863 0.26383 0.316 0.0
C550 C 0.98186 0.25243 0.34832 0.0
C551 C 0.98825 0.28049 0.32124 0.0
C552 C 0.979 0.25438 0.28382 0.0
C553 C 0.989 0.25115 0.2615 0.0
C554 C 0.98412 0.24615 0.22699 0.0
C555 C 0.96887 0.24475 0.21494 0.0
C556 C 0.95872 0.24807 0.23765 0.0
C557 C 0.9635 0.25225 0.2726 0.0
H558 H 0.73111 0.70953 0.17096 0.0
H559 H 0.76973 0.72097 0.2488 0.0
H560 H 0.76548 0.74369 0.27197 0.0
H561 H 0.73925 0.75719 0.16628 0.0
H562 H 0.71678 0.74846 0.15948 0.0
H563 H 0.7275 0.73819 0.14071 0.0
H564 H 0.70575 0.71013 0.17052 0.0
H565 H 0.6953 0.72029 0.18988 0.0
H566 H 0.70321 0.70964 0.21713 0.0
H567 H 0.74868 0.75445 0.30117 0.0
H568 H 0.72499 0.75755 0.32502 0.0
H569 H 0.6998 0.74328 0.22534 0.0
C570 C 0.73944 0.71764 0.19131 0.0
C571 C 0.75059 0.71346 0.20824 0.0
C572 C 0.76117 0.72404 0.23522 0.0
C573 C 0.7588 0.737 0.2487 0.0
C574 C 0.74635 0.73967 0.23389 0.0
C575 C 0.73745 0.7309 0.20448 0.0
C576 C 0.72306 0.73424 0.19671 0.0
C577 C 0.72689 0.74518 0.16385 0.0
C578 C 0.70584 0.71759 0.19345 0.0
C579 C 0.72381 0.7442 0.22883 0.0
C580 C 0.73752 0.74754 0.24977 0.0
C581 C 0.73849 0.75291 0.28427 0.0
C582 C 0.72501 0.75456 0.29777 0.0
C583 C 0.71109 0.75119 0.27642 0.0
C584 C 0.71084 0.74665 0.24139 0.0
H585 H 0.71247 0.97779 0.83726 0.0
H586 H 0.72034 0.95382 0.74785 0.0
H587 H 0.74097 0.98183 0.72421 0.0
H588 H 0.70839 0.0056 0.80086 0.0
H589 H 0.71997 0.02372 0.82889 0.0
H590 H 0.71201 0.00283 0.84592 0.0
H591 H 0.74212 0.01018 0.86566 0.0
H592 H 0.75026 0.03148 0.84938 0.0
H593 H 0.75942 0.01894 0.83495 0.0
H594 H 0.74916 0.00989 0.69989 0.0
H595 H 0.74954 0.03647 0.68334 0.0
H596 H 0.74001 0.04371 0.79024 0.0
C597 C 0.71958 0.97856 0.81408 0.0
C598 C 0.71505 0.9639 0.79439 0.0
C599 C 0.72399 0.96502 0.76355 0.0
C600 C 0.73569 0.98091 0.74986 0.0
C601 C 0.7387 0.9954 0.76813 0.0
C602 C 0.73157 0.99436 0.80062 0.0
C603 C 0.73449 0.01149 0.81233 0.0
C604 C 0.71772 0.01084 0.8225 0.0
C605 C 0.74734 0.01843 0.84235 0.0
C606 C 0.74206 0.02164 0.77951 0.0
C607 C 0.74482 0.01235 0.75446 0.0
C608 C 0.74803 0.0177 0.71974 0.0
C609 C 0.74811 0.03269 0.71039 0.0
C610 C 0.74523 0.04207 0.7359 0.0
C611 C 0.74286 0.03686 0.77082 0.0
H612 H 0.02973 0.7299 0.83283 0.0
H613 H 0.04864 0.77285 0.76285 0.0
H614 H 0.01929 0.76476 0.74716 0.0
H615 H 0.00444 0.70264 0.77961 0.0
H616 H 0.98696 0.68925 0.80783 0.0
H617 H 0.00781 0.70172 0.8256 0.0
H618 H 0.99731 0.71633 0.86872 0.0
H619 H 0.97607 0.70337 0.85208 0.0
H620 H 0.98562 0.72615 0.85281 0.0
H621 H 0.98926 0.74739 0.72579 0.0
H622 H 0.96156 0.72363 0.70518 0.0
H623 H 0.96335 0.69129 0.78567 0.0
C624 C 0.02761 0.73816 0.81585 0.0
C625 C 0.04134 0.75187 0.79892 0.0
C626 C 0.03825 0.76235 0.77641 0.0
C627 C 0.02157 0.75778 0.76719 0.0
C628 C 0.00824 0.74294 0.78127 0.0
C629 C 0.01109 0.73354 0.806 0.0
C630 C 0.99542 0.71646 0.81202 0.0
C631 C -0.00111 0.70168 0.80585 0.0
C632 C 0.98817 0.71553 0.84857 0.0
C633 C 0.98393 0.71703 0.78448 0.0
C634 C 0.99115 0.73258 0.76786 0.0
C635 C 0.98332 0.73531 0.73924 0.0
C636 C 0.96776 0.72179 0.72743 0.0
C637 C 0.96072 0.70573 0.74355 0.0
C638 C 0.96873 0.70349 0.7727 0.0
H639 H 0.29014 0.24596 0.78872 0.0
H640 H 0.2752 0.23754 0.68073 0.0
H641 H 0.24998 0.24017 0.69467 0.0
H642 H 0.24565 0.23036 0.83078 0.0
H643 H 0.25517 0.24794 0.86073 0.0
H644 H 0.26692 0.23788 0.84645 0.0
H645 H 0.29146 0.26703 0.82594 0.0
H646 H 0.27989 0.27706 0.84002 0.0
H647 H 0.28699 0.27939 0.79552 0.0
H648 H 0.23118 0.2503 0.71658 0.0
H649 H 0.2249 0.27191 0.73875 0.0
H650 H 0.25483 0.27799 0.83072 0.0
C651 C 0.28089 0.24367 0.76857 0.0
C652 C 0.28402 0.24095 0.73405 0.0
C653 C 0.27253 0.23907 0.70752 0.0
C654 C 0.25818 0.24046 0.71537 0.0
C655 C 0.25586 0.24411 0.74964 0.0
C656 C 0.26707 0.24583 0.77583 0.0
C657 C 0.26496 0.25441 0.80763 0.0
C658 C 0.25774 0.24189 0.8382 0.0
C659 C 0.28181 0.27041 0.81778 0.0
C660 C 0.25199 0.25877 0.79414 0.0
C661 C 0.24604 0.2517 0.76164 0.0
C662 C 0.23546 0.25557 0.74226 0.0
C663 C 0.2319 0.26785 0.75516 0.0
C664 C 0.23946 0.27655 0.78643 0.0
C665 C 0.24876 0.27126 0.80703 0.0
H666 H 0.97328 0.36389 0.62815 0.0
H667 H 0.94024 0.36587 0.54939 0.0
H668 H 0.91673 0.33819 0.57028 0.0
H669 H 0.96227 0.32339 0.61969 0.0
H670 H 0.96346 0.31929 0.66519 0.0
H671 H 0.97569 0.34045 0.64875 0.0
H672 H 0.96176 0.35065 0.69457 0.0
H673 H 0.94913 0.32924 0.71059 0.0
H674 H 0.93896 0.34087 0.69641 0.0
H675 H 0.89943 0.30837 0.59151 0.0
H676 H 0.89149 0.27891 0.60542 0.0
H677 H 0.93529 0.2971 0.67295 0.0
C678 C 0.96102 0.35859 0.61553 0.0
C679 C 0.95855 0.36671 0.58681 0.0
C680 C 0.94233 0.35965 0.57131 0.0
C681 C 0.9289 0.34411 0.58333 0.0
C682 C 0.93187 0.33623 0.61152 0.0
C683 C 0.94756 0.34338 0.62757 0.0
C684 C 0.94842 0.33162 0.6541 0.0
C685 C 0.96331 0.32849 0.64641 0.0
C686 C 0.94963 0.33851 0.69111 0.0
C687 C 0.93135 0.31597 0.64799 0.0
C688 C 0.92166 0.31905 0.62445 0.0
C689 C 0.90665 0.30589 0.61064 0.0
C690 C 0.90218 0.28914 0.61885 0.0
C691 C 0.91294 0.28584 0.64002 0.0
C692 C 0.92683 0.29938 0.65692 0.0
H693 H 0.63098 0.59894 0.62568 0.0
H694 H 0.63233 0.57367 0.53145 0.0
H695 H 0.66063 0.57809 0.54841 0.0
H696 H 0.66915 0.63102 0.6224 0.0
H697 H 0.67386 0.63296 0.66829 0.0
H698 H 0.65228 0.62303 0.65417 0.0
H699 H 0.64555 0.59613 0.6896 0.0
H700 H 0.6674 0.60602 0.70351 0.0
H701 H 0.65767 0.58565 0.6822 0.0
H702 H 0.69075 0.59171 0.56752 0.0
H703 H 0.71938 0.61482 0.58248 0.0
H704 H 0.69831 0.6307 0.6655 0.0
C705 C 0.63709 0.59393 0.60913 0.0
C706 C 0.62981 0.58622 0.57717 0.0
C707 C 0.63787 0.57965 0.55607 0.0
C708 C 0.65381 0.58196 0.56575 0.0
C709 C 0.66108 0.59035 0.597 0.0
C710 C 0.65277 0.596 0.61862 0.0
C711 C 0.66412 0.60719 0.64743 0.0
C712 C 0.66491 0.62456 0.64801 0.0
C713 C 0.65834 0.5982 0.68278 0.0
C714 C 0.68075 0.60868 0.63636 0.0
C715 C 0.67863 0.59821 0.6083 0.0
C716 C 0.69252 0.59954 0.59006 0.0
C717 C 0.7088 0.6127 0.59886 0.0
C718 C 0.71089 0.62451 0.62506 0.0
C719 C 0.69692 0.62164 0.64567 0.0
H720 H 0.37211 0.07702 0.56668 0.0
H721 H 0.39616 0.09107 0.66749 0.0
H722 H 0.41919 0.08625 0.64616 0.0
H723 H 0.37378 0.04263 0.56017 0.0
H724 H 0.3771 0.04283 0.51389 0.0
H725 H 0.36723 0.05395 0.53138 0.0
H726 H 0.39013 0.0817 0.5022 0.0
H727 H 0.40023 0.07056 0.48465 0.0
H728 H 0.41232 0.08937 0.51056 0.0
H729 H 0.4351 0.07377 0.61934 0.0
H730 H 0.43846 0.05034 0.59693 0.0
H731 H 0.4021 0.04136 0.51545 0.0
C732 C 0.38278 0.07989 0.58352 0.0
C733 C 0.38284 0.08479 0.61819 0.0
C734 C 0.3963 0.08771 0.64053 0.0
C735 C 0.40943 0.08512 0.62844 0.0
C736 C 0.40866 0.07947 0.59423 0.0
C737 C 0.39553 0.07682 0.57213 0.0
C738 C 0.39484 0.06668 0.54037 0.0
C739 C 0.37722 0.05058 0.53631 0.0
C740 C 0.39968 0.07774 0.5075 0.0
C741 C 0.40848 0.06249 0.54964 0.0
C742 C 0.41708 0.07092 0.57955 0.0
C743 C 0.42874 0.06741 0.59557 0.0
C744 C 0.43063 0.05408 0.58249 0.0
C745 C 0.42041 0.04405 0.55456 0.0
C746 C 0.41016 0.04905 0.53654 0.0
H747 H 0.41973 0.37322 0.12062 0.0
H748 H 0.42312 0.36321 0.01208 0.0
H749 H 0.42046 0.33557 0.02762 0.0
H750 H 0.43479 0.3434 0.16193 0.0
H751 H 0.41829 0.33688 0.19418 0.0
H752 H 0.42899 0.35841 0.17812 0.0
H753 H 0.39996 0.35528 0.16148 0.0
H754 H 0.38931 0.33397 0.17729 0.0
H755 H 0.38593 0.3382 0.13305 0.0
H756 H 0.4102 0.30721 0.05173 0.0
H757 H 0.38769 0.28043 0.07617 0.0
H758 H 0.38568 0.30702 0.1677 0.0
C759 C 0.42101 0.36557 0.10055 0.0
C760 C 0.42228 0.37039 0.06545 0.0
C761 C 0.42274 0.35984 0.0392 0.0
C762 C 0.42132 0.34419 0.04797 0.0
C763 C 0.41891 0.33916 0.08291 0.0
C764 C 0.41856 0.34958 0.10883 0.0
C765 C 0.41058 0.33974 0.14191 0.0
C766 C 0.42397 0.34491 0.17073 0.0
C767 C 0.39556 0.34191 0.15404 0.0
C768 C 0.40478 0.32189 0.12946 0.0
C769 C 0.4109 0.32198 0.09638 0.0
C770 C 0.40564 0.307 0.07782 0.0
C771 C 0.39284 0.29178 0.09203 0.0
C772 C 0.38497 0.29181 0.12375 0.0
C773 C 0.39175 0.30679 0.14364 0.0
H774 H 0.64743 0.05111 0.01872 0.0
H775 H 0.62043 0.05664 0.10567 0.0
H776 H 0.64746 0.07864 0.13078 0.0
H777 H 0.67762 0.05099 0.05796 0.0
H778 H 0.69528 0.06382 0.02962 0.0
H779 H 0.67417 0.05336 0.01259 0.0
H780 H 0.67808 0.08203 0.99079 0.0
H781 H 0.6995 0.09266 1.00742 0.0
H782 H 0.68486 0.09954 0.02059 0.0
H783 H 0.6758 0.08921 0.15652 0.0
H784 H 0.70375 0.09302 0.17412 0.0
H785 H 0.71373 0.08578 0.06748 0.0
C786 C 0.64727 0.05786 0.04177 0.0
C787 C 0.63207 0.05243 0.06023 0.0
C788 C 0.63204 0.06096 0.09091 0.0
C789 C 0.64735 0.07345 0.1054 0.0
C790 C 0.66241 0.07769 0.08802 0.0
C791 C 0.66244 0.07079 0.05586 0.0
C792 C 0.68029 0.07575 0.04473 0.0
C793 C 0.68191 0.06005 0.03578 0.0
C794 C 0.68602 0.08825 0.01407 0.0
C795 C 0.6899 0.08449 0.07747 0.0
C796 C 0.67947 0.08573 0.10212 0.0
C797 C 0.68445 0.08938 0.13697 0.0
C798 C 0.70025 0.09145 0.14689 0.0
C799 C 0.71092 0.09034 0.12175 0.0
C800 C 0.70599 0.08755 0.08662 0.0
H801 H 0.93083 0.62118 0.16678 0.0
H802 H 0.89318 0.60351 0.08502 0.0
H803 H 0.90311 0.58444 0.06376 0.0
H804 H 0.96194 0.6282 0.12044 0.0
H805 H 0.97327 0.62144 0.14866 0.0
H806 H 0.95918 0.62773 0.16698 0.0
H807 H 0.94198 0.59878 0.19816 0.0
H808 H 0.95646 0.59249 0.1809 0.0
H809 H 0.93394 0.57936 0.17369 0.0
H810 H 0.92308 0.57552 0.03976 0.0
H811 H 0.94909 0.57523 0.02042 0.0
H812 H 0.97386 0.59926 0.11692 0.0
C813 C 0.92398 0.61241 0.1459 0.0
C814 C 0.91134 0.61378 0.12752 0.0
C815 C 0.90276 0.60247 0.09979 0.0
C816 C 0.90842 0.59164 0.08738 0.0
C817 C 0.92231 0.592 0.10363 0.0
C818 C 0.9296 0.60168 0.13322 0.0
C819 C 0.94621 0.60256 0.14207 0.0
C820 C 0.96099 0.62106 0.14462 0.0
C821 C 0.94454 0.5927 0.1757 0.0
C822 C 0.94807 0.59356 0.11088 0.0
C823 C 0.93397 0.58698 0.0895 0.0
C824 C 0.93394 0.5801 0.05688 0.0
C825 C 0.94873 0.58011 0.04589 0.0
C826 C 0.96329 0.58737 0.06724 0.0
C827 C 0.96274 0.59367 0.1003 0.0
H828 H 0.59487 0.63905 0.99097 0.0
H829 H 0.56104 0.61834 0.90301 0.0
H830 H 0.56983 0.64733 0.88264 0.0
H831 H 0.59255 0.68125 0.99806 0.0
H832 H 0.61469 0.69246 0.01003 0.0
H833 H 0.60114 0.67086 0.0242 0.0
H834 H 0.62213 0.66273 0.99688 0.0
H835 H 0.63542 0.68398 0.98183 0.0
H836 H 0.62718 0.66665 0.95123 0.0
H837 H 0.5891 0.67701 0.86203 0.0
H838 H 0.61453 0.70484 0.84776 0.0
H839 H 0.63499 0.70618 0.94995 0.0
C840 C 0.58855 0.64075 0.96876 0.0
C841 C 0.57726 0.62671 0.94868 0.0
C842 C 0.56947 0.62907 0.91907 0.0
C843 C 0.57446 0.6455 0.90726 0.0
C844 C 0.58683 0.65928 0.92602 0.0
C845 C 0.5933 0.65704 0.95701 0.0
C846 C 0.60837 0.67342 0.96932 0.0
C847 C 0.60391 0.67988 1.00235 0.0
C848 C 0.62418 0.67156 0.97508 0.0
C849 C 0.61057 0.68467 0.93864 0.0
C850 C 0.59781 0.67658 0.91427 0.0
C851 C 0.59879 0.68373 0.88147 0.0
C852 C 0.61325 0.6994 0.8734 0.0
C853 C 0.62643 0.70737 0.89796 0.0
C854 C 0.62481 0.70021 0.93108 0.0
H855 H 0.3797 0.96405 0.90343 0.0
H856 H 0.37231 0.95268 0.01321 0.0
H857 H 0.34435 0.92732 1.00082 0.0
H858 H 0.34346 0.96153 0.89361 0.0
H859 H 0.33876 0.95322 0.84994 0.0
H860 H 0.36033 0.96487 0.86422 0.0
H861 H 0.36448 0.93949 0.84839 0.0
H862 H 0.34273 0.92768 0.83387 0.0
H863 H 0.35037 0.91876 0.86618 0.0
H864 H 0.31554 0.90795 0.97896 0.0
H865 H 0.28779 0.90113 0.95448 0.0
H866 H 0.31243 0.92868 0.86071 0.0
C867 C 0.37253 0.95553 0.92448 0.0
C868 C 0.37818 0.9597 0.959 0.0
C869 C 0.36827 0.9492 0.98652 0.0
C870 C 0.35246 0.93477 0.97956 0.0
C871 C 0.34671 0.93143 0.94512 0.0
C872 C 0.35646 0.94174 0.91802 0.0
C873 C 0.34598 0.93894 0.88553 0.0
C874 C 0.34719 0.95561 0.87266 0.0
C875 C 0.3512 0.93072 0.8568 0.0
C876 C 0.32851 0.92659 0.89938 0.0
C877 C 0.32935 0.92149 0.93296 0.0
C878 C 0.31475 0.91153 0.95248 0.0
C879 C 0.29903 0.90765 0.93834 0.0
C880 C 0.2982 0.91429 0.90566 0.0
C881 C 0.31292 0.92317 0.88534 0.0
H882 H 0.05942 0.35944 0.844 0.0
H883 H 0.10151 0.38041 0.9163 0.0
H884 H 0.09596 0.4036 0.93013 0.0
H885 H 0.0608 0.40279 0.82234 0.0
H886 H 0.03791 0.39132 0.82123 0.0
H887 H 0.0496 0.38144 0.80555 0.0
H888 H 0.03234 0.35624 0.84729 0.0
H889 H 0.02109 0.36615 0.86405 0.0
H890 H 0.03271 0.36019 0.89336 0.0
H891 H 0.0802 0.41779 0.95093 0.0
H892 H 0.05745 0.4233 0.97129 0.0
H893 H 0.02507 0.39208 0.88753 0.0
C894 C 0.06809 0.36955 0.86104 0.0
C895 C 0.08072 0.36811 0.87929 0.0
C896 C 0.0918 0.38135 0.90181 0.0
C897 C 0.08869 0.39458 0.90993 0.0
C898 C 0.07476 0.39453 0.89464 0.0
C899 C 0.06496 0.38265 0.86961 0.0
C900 C 0.04881 0.38299 0.86223 0.0
C901 C 0.04932 0.39007 0.82567 0.0
C902 C 0.03283 0.36536 0.86709 0.0
C903 C 0.05007 0.39534 0.88984 0.0
C904 C 0.06537 0.40246 0.90736 0.0
C905 C 0.0684 0.4127 0.93667 0.0
C906 C 0.0554 0.41561 0.94834 0.0
C907 C 0.03952 0.40781 0.93127 0.0
C908 C 0.03707 0.39798 0.90128 0.0
H909 H 0.0672 0.70112 0.45271 0.0
H910 H 0.09006 0.69542 0.35887 0.0
H911 H 0.08602 0.66793 0.38104 0.0
H912 H 0.08099 0.67659 0.51437 0.0
H913 H 0.06091 0.66781 0.53671 0.0
H914 H 0.07067 0.68902 0.51905 0.0
H915 H 0.04331 0.68097 0.48404 0.0
H916 H 0.03352 0.66003 0.50184 0.0
H917 H 0.03485 0.66288 0.4553 0.0
H918 H 0.07344 0.63895 0.40653 0.0
H919 H 0.05081 0.61105 0.42659 0.0
H920 H 0.03565 0.63544 0.50389 0.0
C921 C 0.07188 0.69428 0.4375 0.0
C922 C 0.0789 0.70011 0.40434 0.0
C923 C 0.08475 0.69103 0.38453 0.0
C924 C 0.08264 0.67555 0.39714 0.0
C925 C 0.07498 0.66971 0.4297 0.0
C926 C 0.06981 0.67896 0.44969 0.0
C927 C 0.059 0.66882 0.48017 0.0
C928 C 0.06846 0.67599 0.51461 0.0
C929 C 0.04166 0.66812 0.48026 0.0
C930 C 0.05728 0.65176 0.47226 0.0
C931 C 0.06732 0.65271 0.44421 0.0
C932 C 0.0659 0.63813 0.42901 0.0
C933 C 0.05303 0.62227 0.44077 0.0
C934 C 0.04149 0.62121 0.46671 0.0
C935 C 0.04451 0.63602 0.48437 0.0
H936 H 0.3062 0.38396 0.3511 0.0
H937 H 0.28165 0.3907 0.44116 0.0
H938 H 0.3094 0.41229 0.46396 0.0
H939 H 0.33591 0.38219 0.38826 0.0
H940 H 0.35338 0.39424 0.35895 0.0
H941 H 0.33208 0.38464 0.34317 0.0
H942 H 0.33711 0.41375 0.32151 0.0
H943 H 0.35876 0.42352 0.33668 0.0
H944 H 0.34517 0.43149 0.35103 0.0
H945 H 0.33823 0.42263 0.48715 0.0
H946 H 0.36615 0.4257 0.5025 0.0
H947 H 0.37324 0.41602 0.39559 0.0
C948 C 0.30669 0.39085 0.37442 0.0
C949 C 0.29193 0.38571 0.39439 0.0
C950 C 0.29284 0.39462 0.42522 0.0
C951 C 0.3086 0.4069 0.43847 0.0
C952 C 0.3232 0.41058 0.41985 0.0
C953 C 0.32234 0.40341 0.38754 0.0
C954 C 0.33976 0.40743 0.37517 0.0
C955 C 0.34029 0.39116 0.36592 0.0
C956 C 0.34554 0.41979 0.34427 0.0
C957 C 0.35012 0.41601 0.40728 0.0
C958 C 0.34048 0.41804 0.43265 0.0
C959 C 0.34625 0.42208 0.46699 0.0
C960 C 0.36203 0.42374 0.47563 0.0
C961 C 0.37184 0.42166 0.44981 0.0
C962 C 0.36612 0.41842 0.41521 0.0
H963 H 0.63849 0.94151 0.34705 0.0
H964 H 0.61247 0.89765 0.41397 0.0
H965 H 0.5905 0.90529 0.42643 0.0
H966 H 0.63835 0.96818 0.39783 0.0
H967 H 0.63464 0.98145 0.36847 0.0
H968 H 0.64376 0.96934 0.35237 0.0
H969 H 0.61975 0.95454 0.30694 0.0
H970 H 0.61075 0.96715 0.32193 0.0
H971 H 0.59787 0.94433 0.32063 0.0
H972 H 0.57748 0.92241 0.44628 0.0
H973 H 0.57308 0.94592 0.4663 0.0
H974 H 0.60853 0.97883 0.38797 0.0
C975 C 0.62752 0.93298 0.36246 0.0
C976 C 0.62701 0.91908 0.37951 0.0
C977 C 0.61284 0.90824 0.40025 0.0
C978 C 0.60034 0.91254 0.40756 0.0
C979 C 0.60212 0.92743 0.39319 0.0
C980 C 0.61509 0.93719 0.36999 0.0
C981 C 0.61636 0.95415 0.36333 0.0
C982 C 0.63432 0.96913 0.37101 0.0
C983 C 0.61084 0.95509 0.326 0.0
C984 C 0.60352 0.95321 0.38933 0.0
C985 C 0.5949 0.93754 0.40539 0.0
C986 C 0.58379 0.93455 0.43314 0.0
C987 C 0.58151 0.94796 0.44465 0.0
C988 C 0.59077 0.96415 0.42906 0.0
C989 C 0.60152 0.96659 0.40067 0.0
H990 H 0.32363 0.08941 0.50879 0.0
H991 H 0.32308 0.04206 0.5273 0.0
H992 H 0.32905 0.04068 0.46505 0.0
H993 H 0.30416 0.07847 0.42168 0.0
H994 H 0.31718 0.09992 0.40625 0.0
H995 H 0.31135 0.09604 0.45147 0.0
H996 H 0.34323 0.11321 0.46804 0.0
H997 H 0.34919 0.11667 0.42285 0.0
H998 H 0.35768 0.10685 0.45094 0.0
H999 H 0.33799 0.04616 0.40127 0.0
H1000 H 0.34397 0.0553 0.33979 0.0
H1001 H 0.33853 0.09896 0.36389 0.0
C1002 C 0.32427 0.07847 0.49964 0.0
C1003 C 0.32277 0.06578 0.52302 0.0
C1004 C 0.3239 0.05181 0.50991 0.0
C1005 C 0.32752 0.05103 0.47462 0.0
C1006 C 0.3298 0.06423 0.45269 0.0
C1007 C 0.32779 0.07747 0.46458 0.0
C1008 C 0.33107 0.0902 0.43598 0.0
C1009 C 0.31498 0.09121 0.42839 0.0
C1010 C 0.34619 0.10776 0.44501 0.0
C1011 C 0.33536 0.08215 0.40614 0.0
C1012 C 0.33474 0.06727 0.41627 0.0
C1013 C 0.33838 0.05773 0.39304 0.0
C1014 C 0.34198 0.06314 0.35822 0.0
C1015 C 0.34177 0.07788 0.34694 0.0
C1016 C 0.33885 0.08767 0.37162 0.0
H1017 H 0.9021 0.23149 0.49112 0.0
H1018 H 0.9537 0.27038 0.51598 0.0
H1019 H 0.9574 0.28141 0.45592 0.0
H1020 H 0.91093 0.22411 0.40176 0.0
H1021 H 0.89072 0.22059 0.38619 0.0
H1022 H 0.89281 0.21543 0.43044 0.0
H1023 H 0.88112 0.23467 0.45172 0.0
H1024 H 0.87947 0.24028 0.40756 0.0
H1025 H 0.89169 0.25668 0.43881 0.0
H1026 H 0.95461 0.28946 0.39377 0.0
H1027 H 0.9473 0.29089 0.3325 0.0
H1028 H 0.89758 0.24656 0.34868 0.0
C1029 C 0.91432 0.24212 0.48383 0.0
C1030 C 0.92762 0.25002 0.50843 0.0
C1031 C 0.94336 0.26396 0.49766 0.0
C1032 C 0.94552 0.27045 0.46365 0.0
C1033 C 0.93188 0.26279 0.44057 0.0
C1034 C 0.91672 0.24869 0.45003 0.0
C1035 C 0.90405 0.24268 0.42038 0.0
C1036 C 0.89936 0.22464 0.40902 0.0
C1037 C 0.88814 0.24364 0.43022 0.0
C1038 C 0.91438 0.25568 0.39277 0.0
C1039 C 0.93035 0.26728 0.40497 0.0
C1040 C 0.94215 0.2804 0.38397 0.0
C1041 C 0.93778 0.28124 0.34923 0.0
C1042 C 0.92179 0.26892 0.33563 0.0
C1043 C 0.90984 0.25629 0.3582 0.0
H1044 H 0.76524 0.67798 0.48479 0.0
H1045 H 0.7204 0.6814 0.50895 0.0
H1046 H 0.71081 0.67417 0.44799 0.0
H1047 H 0.77156 0.6956 0.39666 0.0
H1048 H 0.77867 0.6816 0.38043 0.0
H1049 H 0.78227 0.68824 0.42521 0.0
H1050 H 0.76692 0.65666 0.44421 0.0
H1051 H 0.76284 0.64992 0.39952 0.0
H1052 H 0.74546 0.64261 0.42987 0.0
H1053 H 0.70506 0.66416 0.3849 0.0
H1054 H 0.70595 0.65689 0.32327 0.0
H1055 H 0.75461 0.66009 0.34135 0.0
C1056 C 0.75358 0.6776 0.47718 0.0
C1057 C 0.74361 0.68032 0.50178 0.0
C1058 C 0.72838 0.67956 0.49061 0.0
C1059 C 0.72273 0.67527 0.45608 0.0
C1060 C 0.73251 0.67191 0.43296 0.0
C1061 C 0.74781 0.67339 0.44292 0.0
C1062 C 0.75595 0.66908 0.41328 0.0
C1063 C 0.77313 0.68455 0.4033 0.0
C1064 C 0.7579 0.65365 0.42228 0.0
C1065 C 0.74281 0.66479 0.38507 0.0
C1066 C 0.7293 0.66634 0.39692 0.0
C1067 C 0.71564 0.66301 0.37534 0.0
C1068 C 0.71617 0.65869 0.34041 0.0
C1069 C 0.73032 0.65786 0.32732 0.0
C1070 C 0.74355 0.66053 0.35042 0.0
H1071 H 0.09282 0.33998 0.16829 0.0
H1072 H 0.0458 0.33994 0.18802 0.0
H1073 H 0.03726 0.33183 0.12674 0.0
H1074 H 0.09921 0.35632 0.0789 0.0
H1075 H 0.10776 0.34316 0.06507 0.0
H1076 H 0.11045 0.35045 0.10938 0.0
H1077 H 0.09665 0.31925 0.13046 0.0
H1078 H 0.09345 0.31183 0.08622 0.0
H1079 H 0.07564 0.30397 0.11561 0.0
H1080 H 0.03293 0.32114 0.0636 0.0
H1081 H 0.03517 0.31318 1.00305 0.0
H1082 H 0.08489 0.31994 0.02639 0.0
C1083 C 0.0809 0.33869 0.15963 0.0
C1084 C 0.07003 0.3407 0.18311 0.0
C1085 C 0.05447 0.33872 0.17055 0.0
C1086 C 0.04942 0.33391 0.13583 0.0
C1087 C 0.06011 0.33123 0.1139 0.0
C1088 C 0.07569 0.33391 0.12523 0.0
C1089 C 0.08478 0.32993 0.09699 0.0
C1090 C 0.10154 0.34592 0.08699 0.0
C1091 C 0.0878 0.31538 0.10799 0.0
C1092 C 0.07186 0.32444 0.06797 0.0
C1093 C 0.05765 0.32516 0.07813 0.0
C1094 C 0.04406 0.32063 0.05541 0.0
C1095 C 0.04535 0.31592 0.02113 0.0
C1096 C 0.06017 0.31585 0.00982 0.0
C1097 C 0.07334 0.31978 0.03406 0.0
H1098 H 0.65078 0.74892 0.16524 0.0
H1099 H 0.65911 0.70674 0.18618 0.0
H1100 H 0.66881 0.70806 0.12571 0.0
H1101 H 0.63607 0.73699 0.07473 0.0
H1102 H 0.64642 0.75885 0.06093 0.0
H1103 H 0.63877 0.75333 0.10489 0.0
H1104 H 0.66894 0.77471 0.12741 0.0
H1105 H 0.67681 0.77988 0.08354 0.0
H1106 H 0.68672 0.77245 0.11401 0.0
H1107 H 0.68021 0.71588 0.06394 0.0
H1108 H 0.68765 0.72629 1.00351 0.0
H1109 H 0.67178 0.76328 0.02357 0.0
C1110 C 0.65414 0.73961 0.15689 0.0
C1111 C 0.65404 0.72765 0.18057 0.0
C1112 C 0.65879 0.71585 0.16853 0.0
C1113 C 0.66454 0.71664 0.13427 0.0
C1114 C 0.66529 0.72916 0.11219 0.0
C1115 C 0.65982 0.74016 0.1228 0.0
C1116 C 0.66208 0.75259 0.09424 0.0
C1117 C 0.64481 0.7503 0.08303 0.0
C1118 C 0.67437 0.771 0.10549 0.0
C1119 C 0.66981 0.74699 0.06597 0.0
C1120 C 0.67171 0.73356 0.07685 0.0
C1121 C 0.67866 0.72632 0.05511 0.0
C1122 C 0.68306 0.73248 0.0209 0.0
C1123 C 0.68038 0.74567 0.00868 0.0
C1124 C 0.67408 0.75325 0.03202 0.0
H1125 H 0.2745 0.92418 0.16714 0.0
H1126 H 0.22525 0.87955 0.18491 0.0
H1127 H 0.21766 0.87999 0.12345 0.0
H1128 H 0.25982 0.94527 0.11301 0.0
H1129 H 0.27776 0.95423 0.08386 0.0
H1130 H 0.28037 0.94962 0.12825 0.0
H1131 H 0.29243 0.9306 0.10768 0.0
H1132 H 0.29038 0.9356 0.06326 0.0
H1133 H 0.2805 0.91375 0.07705 0.0
H1134 H 0.21455 0.88629 0.06179 0.0
H1135 H 0.21758 0.89564 1.00073 0.0
H1136 H 0.26853 0.93682 0.02246 0.0
C1137 C 0.26239 0.91413 0.15771 0.0
C1138 C 0.25056 0.90162 0.18061 0.0
C1139 C 0.23457 0.88907 0.16765 0.0
C1140 C 0.23009 0.88933 0.13289 0.0
C1141 C 0.24169 0.9023 0.11143 0.0
C1142 C 0.25763 0.91431 0.12306 0.0
C1143 C 0.26744 0.92719 0.09473 0.0
C1144 C 0.27159 0.94514 0.10563 0.0
C1145 C 0.28365 0.92675 0.0851 0.0
C1146 C 0.25455 0.92046 0.06538 0.0
C1147 C 0.23975 0.90617 0.07579 0.0
C1148 C 0.22608 0.89744 0.05329 0.0
C1149 C 0.22787 0.90294 0.01872 0.0
C1150 C 0.2432 0.91706 1.00689 0.0
C1151 C 0.25651 0.92623 0.03089 0.0
H1152 H 0.66171 0.93846 0.67068 0.0
H1153 H 0.6524 0.88747 0.69025 0.0
H1154 H 0.65821 0.88482 0.62888 0.0
H1155 H 0.64276 0.92907 0.58115 0.0
H1156 H 0.65827 0.94967 0.56481 0.0
H1157 H 0.652 0.94716 0.60986 0.0
H1158 H 0.68356 0.96045 0.62778 0.0
H1159 H 0.68988 0.96254 0.58281 0.0
H1160 H 0.69572 0.951 0.61256 0.0
H1161 H 0.66812 0.88846 0.56852 0.0
H1162 H 0.67574 0.89576 0.50721 0.0
H1163 H 0.67769 0.944 0.52288 0.0
C1164 C 0.66029 0.92653 0.6617 0.0
C1165 C 0.65653 0.91313 0.68538 0.0
C1166 C 0.65522 0.89788 0.67271 0.0
C1167 C 0.65863 0.89629 0.63789 0.0
C1168 C 0.6632 0.90999 0.61571 0.0
C1169 C 0.66358 0.92465 0.62661 0.0
C1170 C 0.66896 0.93737 0.59679 0.0
C1171 C 0.65464 0.94103 0.5876 0.0
C1172 C 0.68551 0.95381 0.60552 0.0
C1173 C 0.67175 0.92759 0.56781 0.0
C1174 C 0.66852 0.91192 0.57976 0.0
C1175 C 0.67043 0.90058 0.55865 0.0
C1176 C 0.6749 0.90493 0.52384 0.0
C1177 C 0.6773 0.92043 0.51003 0.0
C1178 C 0.67616 0.93215 0.53267 0.0
H1179 H 0.08879 0.76585 0.51119 0.0
H1180 H 0.03944 0.72123 0.49434 0.0
H1181 H 0.03834 0.71344 0.55629 0.0
H1182 H 0.105 0.74722 0.56609 0.0
H1183 H 0.1162 0.76522 0.59454 0.0
H1184 H 0.11244 0.76841 0.54996 0.0
H1185 H 0.09725 0.78475 0.5693 0.0
H1186 H 0.10152 0.78217 0.61393 0.0
H1187 H 0.08005 0.77512 0.60017 0.0
H1188 H 0.04438 0.7089 0.6189 0.0
H1189 H 0.05431 0.71108 0.6796 0.0
H1190 H 0.09948 0.7589 0.65475 0.0
C1191 C 0.07749 0.75474 0.52078 0.0
C1192 C 0.06414 0.74423 0.49799 0.0
C1193 C 0.04968 0.72966 0.51143 0.0
C1194 C 0.04906 0.725 0.54649 0.0
C1195 C 0.0629 0.73517 0.56778 0.0
C1196 C 0.07662 0.75 0.55562 0.0
C1197 C 0.08997 0.75865 0.58352 0.0
C1198 C 0.10689 0.75994 0.57287 0.0
C1199 C 0.09232 0.77621 0.59226 0.0
C1200 C 0.08174 0.74628 0.61323 0.0
C1201 C 0.06622 0.7327 0.60362 0.0
C1202 C 0.05644 0.71957 0.62677 0.0
C1203 C 0.0623 0.72079 0.66107 0.0
C1204 C 0.07769 0.73513 0.6719 0.0
C1205 C 0.08769 0.74775 0.64726 0.0
H1206 H 0.23074 0.32636 0.51789 0.0
H1207 H 0.27644 0.32402 0.49639 0.0
H1208 H 0.28372 0.32814 0.55872 0.0
H1209 H 0.24811 0.35847 0.58111 0.0
H1210 H 0.22967 0.34945 0.60892 0.0
H1211 H 0.22726 0.34523 0.56291 0.0
H1212 H 0.21153 0.31281 0.57448 0.0
H1213 H 0.21346 0.31693 0.62053 0.0
H1214 H 0.22131 0.304 0.60181 0.0
H1215 H 0.2874 0.33516 0.62255 0.0
H1216 H 0.28452 0.33911 0.68509 0.0
H1217 H 0.23603 0.33608 0.66537 0.0
C1218 C 0.24209 0.32634 0.52633 0.0
C1219 C 0.25301 0.32487 0.5021 0.0
C1220 C 0.26778 0.32499 0.51435 0.0
C1221 C 0.27213 0.3275 0.54971 0.0
C1222 C 0.26149 0.32968 0.5726 0.0
C1223 C 0.24656 0.32869 0.56158 0.0
C1224 C 0.23727 0.33128 0.59158 0.0
C1225 C 0.23548 0.34704 0.58576 0.0
C1226 C 0.21987 0.3153 0.59745 0.0
C1227 C 0.2494 0.33404 0.62113 0.0
C1228 C 0.2634 0.33328 0.60955 0.0
C1229 C 0.27642 0.33562 0.63199 0.0
C1230 C 0.27474 0.33804 0.66748 0.0
C1231 C 0.26004 0.3379 0.6803 0.0
C1232 C 0.24745 0.33631 0.6565 0.0
H1233 H 0.9003 0.66845 0.99463 0.0
H1234 H 0.94542 0.66478 0.01359 0.0
H1235 H 0.9454 0.6568 0.95227 0.0
H1236 H 0.87967 0.634 0.93704 0.0
H1237 H 0.87183 0.64411 0.90807 0.0
H1238 H 0.87554 0.65021 0.95317 0.0
H1239 H 0.89572 0.68162 0.93601 0.0
H1240 H 0.89161 0.6757 0.89088 0.0
H1241 H 0.91315 0.68677 0.90676 0.0
H1242 H 0.93873 0.64635 0.89052 0.0
H1243 H 0.93038 0.64125 0.82876 0.0
H1244 H 0.89077 0.65358 0.84864 0.0
C1245 C 0.9104 0.66635 0.98565 0.0
C1246 C 0.92288 0.66726 0.00891 0.0
C1247 C 0.93585 0.66437 0.9962 0.0
C1248 C 0.93581 0.65959 0.96151 0.0
C1249 C 0.92288 0.65805 0.93968 0.0
C1250 C 0.91076 0.66191 0.95091 0.0
C1251 C 0.89868 0.65991 0.92174 0.0
C1252 C 0.88035 0.64624 0.93055 0.0
C1253 C 0.89987 0.67702 0.91335 0.0
C1254 C 0.9058 0.65416 0.89249 0.0
C1255 C 0.91954 0.65282 0.90361 0.0
C1256 C 0.92809 0.64751 0.88141 0.0
C1257 C 0.92308 0.6444 0.84644 0.0
C1258 C 0.90987 0.64694 0.83385 0.0
C1259 C 0.90082 0.6514 0.85753 0.0
H1260 H 0.32463 0.23482 1.0029 0.0
H1261 H 0.3238 0.28142 0.02256 0.0
H1262 H 0.32955 0.28895 0.96041 0.0
H1263 H 0.35856 0.25177 0.94469 0.0
H1264 H 0.35007 0.23359 0.91626 0.0
H1265 H 0.34421 0.23087 0.96151 0.0
H1266 H 0.3123 0.21612 0.94521 0.0
H1267 H 0.31803 0.21832 0.8999 0.0
H1268 H 0.30497 0.22659 0.91595 0.0
H1269 H 0.3381 0.29263 0.89694 0.0
H1270 H 0.34422 0.29001 0.83544 0.0
H1271 H 0.33954 0.24103 0.85781 0.0
C1272 C 0.32522 0.24642 0.99408 0.0
C1273 C 0.32373 0.25751 0.01776 0.0
C1274 C 0.32474 0.27263 1.00501 0.0
C1275 C 0.32817 0.2771 0.96975 0.0
C1276 C 0.33043 0.26627 0.94753 0.0
C1277 C 0.32861 0.25106 0.95906 0.0
C1278 C 0.3319 0.24178 0.93008 0.0
C1279 C 0.34709 0.23937 0.93867 0.0
C1280 C 0.31584 0.2247 0.92232 0.0
C1281 C 0.33606 0.25425 0.90052 0.0
C1282 C 0.33524 0.26834 0.91111 0.0
C1283 C 0.33865 0.28159 0.88831 0.0
C1284 C 0.3423 0.28006 0.85344 0.0
C1285 C 0.34242 0.26534 0.84164 0.0
C1286 C 0.33966 0.25251 0.86589 0.0
H1287 H 0.75116 0.09703 0.85689 0.0
H1288 H 0.69939 0.05578 0.8432 0.0
H1289 H 0.69903 0.04703 0.90421 0.0
H1290 H 0.76533 0.07441 0.90754 0.0
H1291 H 0.77872 0.09196 0.93557 0.0
H1292 H 0.77453 0.09591 0.89182 0.0
H1293 H 0.76306 0.11509 0.91468 0.0
H1294 H 0.76768 0.1116 0.95843 0.0
H1295 H 0.74653 0.10693 0.94715 0.0
H1296 H 0.70516 0.0418 0.96657 0.0
H1297 H 0.71589 0.04281 0.02608 0.0
H1298 H 0.76382 0.08711 0.99772 0.0
C1299 C 0.73956 0.08638 0.86682 0.0
C1300 C 0.72525 0.07718 0.84503 0.0
C1301 C 0.71046 0.06318 0.85926 0.0
C1302 C 0.7102 0.05801 0.89388 0.0
C1303 C 0.7248 0.06695 0.91408 0.0
C1304 C 0.7391 0.08102 0.90118 0.0
C1305 C 0.75325 0.08833 0.92789 0.0
C1306 C 0.76888 0.0876 0.91491 0.0
C1307 C 0.7579 0.10656 0.93762 0.0
C1308 C 0.74473 0.07618 0.95789 0.0
C1309 C 0.72835 0.06386 0.94946 0.0
C1310 C 0.71798 0.05141 0.97336 0.0
C1311 C 0.72427 0.05196 1.00709 0.0
C1312 C 0.74079 0.06494 0.01677 0.0
C1313 C 0.75121 0.07688 0.99129 0.0
H1314 H 0.00886 0.40624 0.68708 0.0
H1315 H 0.00964 0.45342 0.66589 0.0
H1316 H 0.00253 0.45496 0.72736 0.0
H1317 H 0.97299 0.3891 0.74064 0.0
H1318 H 0.98007 0.37876 0.7708 0.0
H1319 H 0.98758 0.38232 0.72656 0.0
H1320 H 0.01883 0.39872 0.74763 0.0
H1321 H 0.01142 0.39469 0.79193 0.0
H1322 H 0.02538 0.41615 0.77757 0.0
H1323 H 0.99394 0.45065 0.79011 0.0
H1324 H 0.98706 0.44214 0.8517 0.0
H1325 H 0.9895 0.39654 0.8314 0.0
C1326 C 0.00828 0.41726 0.69583 0.0
C1327 C 0.01032 0.43002 0.67207 0.0
C1328 C 0.00857 0.44379 0.68397 0.0
C1329 C 0.00434 0.44465 0.7187 0.0
C1330 C 0.00162 0.43147 0.74111 0.0
C1331 C 0.00372 0.41812 0.73034 0.0
C1332 C -0.00089 0.40514 0.75922 0.0
C1333 C 0.98404 0.38781 0.74866 0.0
C1334 C 0.01461 0.40359 0.76972 0.0
C1335 C 0.9941 0.41329 0.78785 0.0
C1336 C 0.99567 0.42847 0.7768 0.0
C1337 C 0.99253 0.43872 0.79898 0.0
C1338 C 0.98842 0.4337 0.83378 0.0
C1339 C 0.98721 0.41845 0.84596 0.0
C1340 C 0.98965 0.40791 0.82242 0.0
H1341 H 0.60051 0.59677 0.82948 0.0
H1342 H 0.5597 0.54526 0.8476 0.0
H1343 H 0.55215 0.54238 0.78542 0.0
H1344 H 0.57842 0.60821 0.77177 0.0
H1345 H 0.59595 0.62077 0.74297 0.0
H1346 H 0.5999 0.61844 0.78795 0.0
H1347 H 0.61965 0.60678 0.77022 0.0
H1348 H 0.61621 0.60962 0.72518 0.0
H1349 H 0.61195 0.58913 0.74052 0.0
H1350 H 0.5474 0.5457 0.72295 0.0
H1351 H 0.54822 0.55373 0.66138 0.0
H1352 H 0.59141 0.60346 0.68313 0.0
C1353 C 0.59044 0.58468 0.82002 0.0
C1354 C 0.58084 0.57112 0.84324 0.0
C1355 C 0.56734 0.5557 0.83016 0.0
C1356 C 0.56287 0.554 0.79495 0.0
C1357 C 0.57198 0.56786 0.77308 0.0
C1358 C 0.5857 0.58281 0.78483 0.0
C1359 C 0.59288 0.59594 0.75592 0.0
C1360 C 0.59171 0.61178 0.76523 0.0
C1361 C 0.61126 0.60064 0.74745 0.0
C1362 C 0.5809 0.5861 0.72636 0.0
C1363 C 0.56895 0.56994 0.73695 0.0
C1364 C 0.55671 0.55831 0.7143 0.0
C1365 C 0.55716 0.56304 0.67947 0.0
C1366 C 0.56967 0.57929 0.6676 0.0
C1367 C 0.5814 0.59112 0.69164 0.0
H1368 H 0.43085 0.01347 0.82842 0.0
H1369 H 0.38432 0.01392 0.85146 0.0
H1370 H 0.37466 0.00515 0.79096 0.0
H1371 H 0.43585 0.02865 0.7388 0.0
H1372 H 0.44388 0.0151 0.72463 0.0
H1373 H 0.44739 0.02285 0.76865 0.0
H1374 H 0.43351 0.99183 0.79095 0.0
H1375 H 0.4295 0.98396 0.74701 0.0
H1376 H 0.4122 0.97664 0.77758 0.0
H1377 H 0.36938 0.99429 0.72808 0.0
H1378 H 0.37066 0.98608 0.66729 0.0
H1379 H 0.4203 0.99195 0.68755 0.0
C1380 C 0.41879 0.01215 0.82067 0.0
C1381 C 0.40841 0.01452 0.84483 0.0
C1382 C 0.39263 0.01243 0.83345 0.0
C1383 C 0.38695 0.00725 0.79918 0.0
C1384 C 0.39719 0.00425 0.77659 0.0
C1385 C 0.41291 0.00691 0.78681 0.0
C1386 C 0.4214 0.00247 0.7581 0.0
C1387 C 0.43811 0.0182 0.74687 0.0
C1388 C 0.42431 0.98786 0.76908 0.0
C1389 C 0.40802 0.99687 0.72999 0.0
C1390 C 0.39409 0.99787 0.74107 0.0
C1391 C 0.38026 0.99351 0.71919 0.0
C1392 C 0.38102 0.98868 0.68474 0.0
C1393 C 0.39554 0.98828 0.67249 0.0
C1394 C 0.40894 0.99199 0.69596 0.0
H1395 H 0.60388 0.00066 0.18173 0.0
H1396 H 0.55339 0.99202 0.15894 0.0
H1397 H 0.55043 0.99884 0.21953 0.0
H1398 H 0.59382 0.98318 0.27195 0.0
H1399 H 0.61445 0.99869 0.28807 0.0
H1400 H 0.61202 0.99177 0.24351 0.0
H1401 H 0.62584 0.02312 0.22356 0.0
H1402 H 0.6278 0.03008 0.26803 0.0
H1403 H 0.6166 0.03573 0.23698 0.0
H1404 H 0.55345 0.00858 0.28059 0.0
H1405 H 0.5603 0.01583 0.34249 0.0
H1406 H 0.60883 0.01842 0.32758 0.0
C1407 C 0.59199 -0.00036 0.18983 0.0
C1408 C 0.57882 0.99571 0.1655 0.0
C1409 C 0.56363 0.99493 0.17703 0.0
C1410 C 0.56187 -0.00108 0.21137 0.0
C1411 C 0.57538 0.00362 0.23417 0.0
C1412 C 0.58999 0.0036 0.2243 0.0
C1413 C 0.60255 0.00922 0.25435 0.0
C1414 C 0.6059 0.99486 0.26511 0.0
C1415 C 0.61918 0.0255 0.24516 0.0
C1416 C 0.59275 0.01258 0.28232 0.0
C1417 C 0.57716 0.00935 0.26986 0.0
C1418 C 0.56561 0.01113 0.2907 0.0
C1419 C 0.56969 0.01546 0.32573 0.0
C1420 C 0.58521 0.01804 0.3397 0.0
C1421 C 0.59711 0.01707 0.31739 0.0
H1422 H 0.98979 0.56566 0.3253 0.0
H1423 H 0.99144 0.61326 0.34746 0.0
H1424 H 0.00149 0.62304 0.28767 0.0
H1425 H 0.02668 0.58215 0.27493 0.0
H1426 H 0.01852 0.5651 0.24369 0.0
H1427 H 0.01027 0.56115 0.28736 0.0
H1428 H 0.97965 0.54955 0.26416 0.0
H1429 H 0.98775 0.55294 0.22039 0.0
H1430 H 0.97533 0.56228 0.2345 0.0
H1431 H 0.01418 0.62873 0.22726 0.0
H1432 H 0.02277 0.62761 0.16684 0.0
H1433 H 0.01193 0.57594 0.18374 0.0
C1434 C 0.99186 0.57798 0.31734 0.0
C1435 C 0.9898 0.58868 0.34111 0.0
C1436 C 0.99273 0.60475 0.32967 0.0
C1437 C -0.00135 0.61051 0.29586 0.0
C1438 C 0.00135 0.59996 0.27368 0.0
C1439 C 0.99758 0.58384 0.28363 0.0
C1440 C 0.00139 0.57492 0.25472 0.0
C1441 C 0.01503 0.57058 0.26586 0.0
C1442 C 0.98506 0.55898 0.24272 0.0
C1443 C 0.0081 0.58862 0.22709 0.0
C1444 C 0.0082 0.60305 0.23867 0.0
C1445 C 0.01403 0.61744 0.21781 0.0
C1446 C 0.01911 0.61677 0.18364 0.0
C1447 C 0.01809 0.60171 0.17054 0.0
C1448 C 0.01295 0.58767 0.19301 0.0
H1449 H 0.4159 0.42583 0.18542 0.0
H1450 H 0.37122 0.37692 0.16482 0.0
H1451 H 0.37 0.3694 0.22702 0.0
H1452 H 0.43539 0.41096 0.24198 0.0
H1453 H 0.44401 0.42909 0.27053 0.0
H1454 H 0.44024 0.43146 0.22548 0.0
H1455 H 0.42108 0.44391 0.24271 0.0
H1456 H 0.42525 0.44212 0.28781 0.0
H1457 H 0.40366 0.43231 0.27238 0.0
H1458 H 0.37523 0.36665 0.29166 0.0
H1459 H 0.38428 0.3704 0.35327 0.0
H1460 H 0.42631 0.42055 0.3289 0.0
C1461 C 0.40556 0.41368 0.19399 0.0
C1462 C 0.3936 0.40201 0.17013 0.0
C1463 C 0.38041 0.38619 0.1826 0.0
C1464 C 0.37973 0.38172 0.21785 0.0
C1465 C 0.39231 0.39323 0.24024 0.0
C1466 C 0.40479 0.409 0.22879 0.0
C1467 C 0.41719 0.41893 0.25744 0.0
C1468 C 0.43527 0.42283 0.24829 0.0
C1469 C 0.41676 0.43528 0.26557 0.0
C1470 C 0.40983 0.40629 0.2869 0.0
C1471 C 0.39549 0.39152 0.27665 0.0
C1472 C 0.38644 0.37819 0.29991 0.0
C1473 C 0.39178 0.38036 0.33482 0.0
C1474 C 0.40606 0.39573 0.34605 0.0
C1475 C 0.41541 0.40857 0.32131 0.0
H1476 H 0.34289 0.19743 0.12806 0.0
H1477 H 0.31102 0.20541 0.20091 0.0
H1478 H 0.30618 0.18 0.23385 0.0
H1479 H 0.31848 0.15173 0.12703 0.0
H1480 H 0.33695 0.1493 0.1244 0.0
H1481 H 0.33758 0.16789 0.10638 0.0
H1482 H 0.36396 0.18705 0.14412 0.0
H1483 H 0.36336 0.16852 0.16241 0.0
H1484 H 0.36284 0.1841 0.1906 0.0
H1485 H 0.30505 0.15393 0.25888 0.0
H1486 H 0.30732 0.1288 0.27406 0.0
H1487 H 0.34032 0.1382 0.18511 0.0
C1488 C 0.3348 0.19381 0.15083 0.0
C1489 C 0.32728 0.20337 0.1619 0.0
C1490 C 0.31688 0.19824 0.19193 0.0
C1491 C 0.31407 0.18386 0.21081 0.0
C1492 C 0.32181 0.17482 0.1993 0.0
C1493 C 0.33193 0.17957 0.16998 0.0
C1494 C 0.33891 0.1678 0.16327 0.0
C1495 C 0.3326 0.15864 0.1282 0.0
C1496 C 0.35842 0.17745 0.16523 0.0
C1497 C 0.33111 0.15563 0.19344 0.0
C1498 C 0.32129 0.1599 0.21388 0.0
C1499 C 0.31271 0.15047 0.24308 0.0
C1500 C 0.31409 0.13622 0.25147 0.0
C1501 C 0.32402 0.13155 0.23078 0.0
C1502 C 0.33271 0.14148 0.20151 0.0
H1503 H 0.80744 0.12997 0.17471 0.0
H1504 H 0.79883 0.14899 0.07777 0.0
H1505 H 0.82309 0.17735 0.09043 0.0
H1506 H 0.81856 0.16697 0.22512 0.0
H1507 H 0.83475 0.16579 0.24996 0.0
H1508 H 0.81706 0.1467 0.23283 0.0
H1509 H 0.83779 0.13941 0.20119 0.0
H1510 H 0.85555 0.1584 0.21847 0.0
H1511 H 0.8536 0.15477 0.1722 0.0
H1512 H 0.84774 0.20393 0.1143 0.0
H1513 H 0.87189 0.22657 0.14692 0.0
H1514 H 0.8644 0.19029 0.22817 0.0
C1515 C 0.81077 0.14005 0.15599 0.0
C1516 C 0.80124 0.13723 0.12524 0.0
C1517 C 0.80594 0.15082 0.10152 0.0
C1518 C 0.81969 0.167 0.10847 0.0
C1519 C 0.82866 0.16943 0.13924 0.0
C1520 C 0.82448 0.15633 0.16254 0.0
C1521 C 0.8361 0.16242 0.19389 0.0
C1522 C 0.82601 0.16035 0.22743 0.0
C1523 C 0.84637 0.1532 0.19657 0.0
C1524 C 0.84738 0.18097 0.18459 0.0
C1525 C 0.84288 0.18477 0.15299 0.0
C1526 C 0.85143 0.20111 0.13905 0.0
C1527 C 0.86509 0.21389 0.15779 0.0
C1528 C 0.87003 0.21021 0.19006 0.0
C1529 C 0.86094 0.19353 0.20358 0.0
H1530 H 0.78917 0.6512 0.16981 0.0
H1531 H 0.81311 0.68876 0.25156 0.0
H1532 H 0.84027 0.68979 0.24029 0.0
H1533 H 0.81192 0.62866 0.18656 0.0
H1534 H 0.81376 0.62484 0.14121 0.0
H1535 H 0.79601 0.62679 0.15607 0.0
H1536 H 0.80354 0.65086 0.11132 0.0
H1537 H 0.82132 0.649 0.09638 0.0
H1538 H 0.82458 0.6692 0.11131 0.0
H1539 H 0.86505 0.68729 0.21957 0.0
H1540 H 0.88565 0.68105 0.19086 0.0
H1541 H 0.84567 0.6451 0.12289 0.0
C1542 C 0.8001 0.65958 0.18542 0.0
C1543 C 0.79899 0.66988 0.21156 0.0
C1544 C 0.81362 0.68073 0.23137 0.0
C1545 C 0.82914 0.68142 0.2252 0.0
C1546 C 0.82984 0.67118 0.19916 0.0
C1547 C 0.81573 0.66044 0.17962 0.0
C1548 C 0.82002 0.6509 0.15295 0.0
C1549 C 0.80982 0.63166 0.15961 0.0
C1550 C 0.8172 0.65526 0.1158 0.0
C1551 C 0.83873 0.65804 0.16052 0.0
C1552 C 0.84415 0.66971 0.18727 0.0
C1553 C 0.86096 0.67813 0.19863 0.0
C1554 C 0.87257 0.67452 0.18217 0.0
C1555 C 0.86728 0.66259 0.1547 0.0
C1556 C 0.85011 0.65426 0.14389 0.0
H1557 H 0.13552 0.34557 0.34276 0.0
H1558 H 0.12519 0.31301 0.25274 0.0
H1559 H 0.15089 0.31131 0.26497 0.0
H1560 H 0.1815 0.3688 0.33362 0.0
H1561 H 0.18523 0.36988 0.37982 0.0
H1562 H 0.16626 0.369 0.36333 0.0
H1563 H 0.14788 0.34253 0.40153 0.0
H1564 H 0.16678 0.34328 0.41799 0.0
H1565 H 0.15046 0.32419 0.3977 0.0
H1566 H 0.17726 0.31243 0.28768 0.0
H1567 H 0.20292 0.31688 0.31899 0.0
H1568 H 0.19606 0.34857 0.39419 0.0
C1569 C 0.13875 0.33821 0.32547 0.0
C1570 C 0.12834 0.32944 0.29679 0.0
C1571 C 0.13295 0.31985 0.2749 0.0
C1572 C 0.14754 0.31879 0.2816 0.0
C1573 C 0.15742 0.32741 0.31028 0.0
C1574 C 0.15328 0.33698 0.33181 0.0
C1575 C 0.16594 0.34477 0.36124 0.0
C1576 C 0.17529 0.36427 0.35937 0.0
C1577 C 0.15724 0.3383 0.39671 0.0
C1578 C 0.17775 0.33798 0.35293 0.0
C1579 C 0.17262 0.32802 0.32342 0.0
C1580 C 0.18145 0.32025 0.31079 0.0
C1581 C 0.19598 0.32283 0.32876 0.0
C1582 C 0.2015 0.33306 0.35901 0.0
C1583 C 0.19219 0.34068 0.37115 0.0
H1584 H 0.67536 0.86704 0.33771 0.0
H1585 H 0.63837 0.84545 0.42121 0.0
H1586 H 0.63428 0.81711 0.4083 0.0
H1587 H 0.65357 0.83185 0.27857 0.0
H1588 H 0.67281 0.83333 0.26195 0.0
H1589 H 0.673 0.85205 0.2779 0.0
H1590 H 0.69722 0.85748 0.32073 0.0
H1591 H 0.69712 0.8388 0.30487 0.0
H1592 H 0.69435 0.84098 0.35062 0.0
H1593 H 0.63446 0.79113 0.38711 0.0
H1594 H 0.63867 0.76924 0.35802 0.0
H1595 H 0.67493 0.8076 0.28761 0.0
C1596 C 0.66642 0.85635 0.35329 0.0
C1597 C 0.65721 0.85847 0.38047 0.0
C1598 C 0.64557 0.84415 0.40018 0.0
C1599 C 0.64315 0.82798 0.3931 0.0
C1600 C 0.65239 0.8263 0.36611 0.0
C1601 C 0.66375 0.84007 0.34642 0.0
C1602 C 0.67197 0.83474 0.31871 0.0
C1603 C 0.66756 0.8382 0.28212 0.0
C1604 C 0.69131 0.84352 0.32407 0.0
C1605 C 0.6635 0.81588 0.32604 0.0
C1606 C 0.65228 0.81126 0.35353 0.0
C1607 C 0.64317 0.79456 0.36544 0.0
C1608 C 0.64564 0.78223 0.34879 0.0
C1609 C 0.65705 0.7867 0.32049 0.0
C1610 C 0.66602 0.80375 0.30902 0.0
H1611 H 0.12655 0.80317 0.34648 0.0
H1612 H 0.14878 0.7854 0.42404 0.0
H1613 H 0.17647 0.8114 0.4162 0.0
H1614 H 0.16252 0.822 0.28946 0.0
H1615 H 0.1599 0.83979 0.27809 0.0
H1616 H 0.1417 0.81986 0.29027 0.0
H1617 H 0.13437 0.83509 0.33846 0.0
H1618 H 0.1526 0.85506 0.32652 0.0
H1619 H 0.15012 0.84754 0.37069 0.0
H1620 H 0.20201 0.83901 0.39898 0.0
H1621 H 0.22357 0.86621 0.37284 0.0
H1622 H 0.18459 0.86617 0.30753 0.0
C1623 C 0.13724 0.80475 0.3618 0.0
C1624 C 0.13548 0.79224 0.38583 0.0
C1625 C 0.14979 0.79481 0.40545 0.0
C1626 C 0.16559 0.80955 0.40125 0.0
C1627 C 0.1669 0.82167 0.37744 0.0
C1628 C 0.15312 0.81945 0.35804 0.0
C1629 C 0.15802 0.83435 0.33394 0.0
C1630 C 0.15538 0.82866 0.29568 0.0
C1631 C 0.14819 0.84355 0.34296 0.0
C1632 C 0.1767 0.84518 0.34263 0.0
C1633 C 0.18158 0.83767 0.36783 0.0
C1634 C 0.19834 0.84508 0.37936 0.0
C1635 C 0.21048 0.86053 0.36441 0.0
C1636 C 0.20576 0.86835 0.33832 0.0
C1637 C 0.1886 0.8606 0.32766 0.0
H1638 H 0.68454 0.87005 0.80713 0.0
H1639 H 0.64778 0.87195 0.87634 0.0
H1640 H 0.64329 0.84571 0.90525 0.0
H1641 H 0.66257 0.82524 0.79577 0.0
H1642 H 0.68157 0.82368 0.79495 0.0
H1643 H 0.6823 0.84288 0.78063 0.0
H1644 H 0.70632 0.86029 0.82488 0.0
H1645 H 0.70568 0.84113 0.83934 0.0
H1646 H 0.70304 0.85453 0.87024 0.0
H1647 H 0.64228 0.81894 0.92531 0.0
H1648 H 0.64471 0.79348 0.93542 0.0
H1649 H 0.68227 0.80916 0.85299 0.0
C1650 C 0.6756 0.86503 0.8285 0.0
C1651 C 0.66651 0.87306 0.83955 0.0
C1652 C 0.65489 0.86603 0.8675 0.0
C1653 C 0.65227 0.85115 0.88406 0.0
C1654 C 0.6614 0.84353 0.87236 0.0
C1655 C 0.67285 0.85024 0.84526 0.0
C1656 C 0.6808 0.83944 0.8372 0.0
C1657 C 0.67655 0.83239 0.79993 0.0
C1658 C 0.7001 0.84945 0.84329 0.0
C1659 C 0.67195 0.82548 0.86388 0.0
C1660 C 0.66084 0.82811 0.88394 0.0
C1661 C 0.65098 0.81678 0.90986 0.0
C1662 C 0.65245 0.80235 0.91536 0.0
C1663 C 0.6637 0.79934 0.89501 0.0
C1664 C 0.67363 0.81115 0.86907 0.0
H1665 H 0.1427 0.79517 0.82528 0.0
H1666 H 0.12962 0.81994 0.74433 0.0
H1667 H 0.15609 0.84681 0.7558 0.0
H1668 H 0.15985 0.82976 0.8842 0.0
H1669 H 0.17658 0.82622 0.89944 0.0
H1670 H 0.15706 0.80869 0.88352 0.0
H1671 H 0.17396 0.80151 0.83895 0.0
H1672 H 0.19355 0.81905 0.85476 0.0
H1673 H 0.18831 0.81768 0.80924 0.0
H1674 H 0.1834 0.87138 0.77784 0.0
H1675 H 0.20946 0.89174 0.80938 0.0
H1676 H 0.20455 0.85077 0.8754 0.0
C1677 C 0.14547 0.8062 0.80976 0.0
C1678 C 0.13411 0.80545 0.7839 0.0
C1679 C 0.13814 0.82021 0.76431 0.0
C1680 C 0.15317 0.83554 0.77055 0.0
C1681 C 0.16404 0.83589 0.7964 0.0
C1682 C 0.16041 0.82162 0.81566 0.0
C1683 C 0.17393 0.82554 0.84274 0.0
C1684 C 0.1664 0.82237 0.87965 0.0
C1685 C 0.18297 0.81534 0.836 0.0
C1686 C 0.18562 0.84428 0.83595 0.0
C1687 C 0.17976 0.85002 0.80902 0.0
C1688 C 0.1882 0.86701 0.79882 0.0
C1689 C 0.20296 0.87848 0.81685 0.0
C1690 C 0.20906 0.87284 0.84473 0.0
C1691 C 0.2003 0.85548 0.85405 0.0
H1692 H 0.12154 0.31112 0.85056 0.0
H1693 H 0.14401 0.34351 0.94067 0.0
H1694 H 0.17172 0.34627 0.92634 0.0
H1695 H 0.14602 0.28931 0.8557 0.0
H1696 H 0.14805 0.28875 0.80917 0.0
H1697 H 0.12975 0.28855 0.82769 0.0
H1698 H 0.13612 0.315 0.79095 0.0
H1699 H 0.15451 0.31535 0.77254 0.0
H1700 H 0.15667 0.33391 0.79421 0.0
H1701 H 0.19729 0.34651 0.90099 0.0
H1702 H 0.21873 0.34353 0.8669 0.0
H1703 H 0.17963 0.3113 0.79317 0.0
C1704 C 0.13223 0.31859 0.86754 0.0
C1705 C 0.1306 0.32705 0.89678 0.0
C1706 C 0.14495 0.33689 0.91812 0.0
C1707 C 0.16075 0.33855 0.91022 0.0
C1708 C 0.16202 0.3303 0.88089 0.0
C1709 C 0.14814 0.32045 0.85995 0.0
C1710 C 0.15306 0.31335 0.82935 0.0
C1711 C 0.14366 0.29383 0.83057 0.0
C1712 C 0.14991 0.31979 0.79472 0.0
C1713 C 0.17186 0.32084 0.83626 0.0
C1714 C 0.17678 0.33054 0.86615 0.0
C1715 C 0.19359 0.33888 0.8776 0.0
C1716 C 0.20567 0.33716 0.85804 0.0
C1717 C 0.20087 0.3272 0.8274 0.0
C1718 C 0.18373 0.31901 0.81647 0.0
H1719 H 0.86247 0.66009 0.66643 0.0
H1720 H 0.87636 0.69728 0.74902 0.0
H1721 H 0.85317 0.7023 0.7315 0.0
H1722 H 0.85105 0.68214 0.60281 0.0
H1723 H 0.83344 0.66291 0.58584 0.0
H1724 H 0.85149 0.66254 0.60419 0.0
H1725 H 0.83165 0.6388 0.64695 0.0
H1726 H 0.81355 0.63906 0.62867 0.0
H1727 H 0.81761 0.64216 0.67471 0.0
H1728 H 0.82798 0.70273 0.70628 0.0
H1729 H 0.80217 0.69811 0.67534 0.0
H1730 H 0.80488 0.66088 0.60905 0.0
C1731 C 0.86068 0.66934 0.68072 0.0
C1732 C 0.87124 0.6783 0.70906 0.0
C1733 C 0.86844 0.69025 0.72719 0.0
C1734 C 0.85532 0.69323 0.71741 0.0
C1735 C 0.84512 0.68419 0.6894 0.0
C1736 C 0.84763 0.67248 0.6713 0.0
C1737 C 0.8346 0.66418 0.6427 0.0
C1738 C 0.84316 0.66819 0.60676 0.0
C1739 C 0.82371 0.64491 0.64863 0.0
C1740 C 0.82432 0.67295 0.6478 0.0
C1741 C 0.83063 0.68449 0.67478 0.0
C1742 C 0.82296 0.6938 0.68495 0.0
C1743 C 0.80833 0.6911 0.66723 0.0
C1744 C 0.80156 0.6792 0.63973 0.0
C1745 C 0.80981 0.67017 0.6298 0.0
H1746 H 0.32405 0.1857 0.73578 0.0
H1747 H 0.35709 0.22461 0.66244 0.0
H1748 H 0.36244 0.20367 0.63256 0.0
H1749 H 0.3485 0.1644 0.74216 0.0
H1750 H 0.33 0.14353 0.74486 0.0
H1751 H 0.3291 0.16168 0.76087 0.0
H1752 H 0.30332 0.15405 0.72088 0.0
H1753 H 0.30416 0.13591 0.70466 0.0
H1754 H 0.30512 0.15165 0.67481 0.0
H1755 H 0.36367 0.17845 0.61009 0.0
H1756 H 0.36117 0.15081 0.59675 0.0
H1757 H 0.32723 0.12822 0.68483 0.0
C1758 C 0.3325 0.18988 0.71356 0.0
C1759 C 0.34019 0.20681 0.70145 0.0
C1760 C 0.35109 0.21172 0.67219 0.0
C1761 C 0.35419 0.19992 0.65506 0.0
C1762 C 0.3463 0.1833 0.66755 0.0
C1763 C 0.33571 0.17828 0.69617 0.0
C1764 C 0.32863 0.15961 0.70407 0.0
C1765 C 0.33441 0.15717 0.74013 0.0
C1766 C 0.30915 0.14973 0.7009 0.0
C1767 C 0.33686 0.15487 0.67532 0.0
C1768 C 0.347 0.16873 0.65458 0.0
C1769 C 0.35581 0.16752 0.62619 0.0
C1770 C 0.35428 0.15173 0.61883 0.0
C1771 C 0.344 0.13733 0.63977 0.0
C1772 C 0.33519 0.13898 0.66838 0.0
H1773 H 0.86332 0.18775 0.66942 0.0
H1774 H 0.84219 0.20143 0.58229 0.0
H1775 H 0.81343 0.17885 0.5987 0.0
H1776 H 0.83443 0.14221 0.66462 0.0
H1777 H 0.83308 0.13955 0.71117 0.0
H1778 H 0.85206 0.1564 0.69166 0.0
H1779 H 0.84944 0.17832 0.73033 0.0
H1780 H 0.83036 0.16156 0.7497 0.0
H1781 H 0.83011 0.17929 0.72931 0.0
H1782 H 0.78681 0.15518 0.62537 0.0
H1783 H 0.76443 0.13145 0.65948 0.0
H1784 H 0.80296 0.13366 0.72949 0.0
C1785 C 0.85267 0.18587 0.65357 0.0
C1786 C 0.85501 0.19633 0.62454 0.0
C1787 C 0.84072 0.19356 0.60465 0.0
C1788 C 0.82431 0.18078 0.61377 0.0
C1789 C 0.8224 0.17089 0.64288 0.0
C1790 C 0.83618 0.17321 0.66239 0.0
C1791 C 0.8306 0.16101 0.69277 0.0
C1792 C 0.83798 0.14908 0.68986 0.0
C1793 C 0.83541 0.17063 0.72758 0.0
C1794 C 0.81155 0.15152 0.68732 0.0
C1795 C 0.80706 0.15738 0.6584 0.0
C1796 C 0.79017 0.15047 0.64809 0.0
C1797 C 0.77755 0.13704 0.66766 0.0
C1798 C 0.78192 0.13074 0.69719 0.0
C1799 C 0.79916 0.13823 0.70716 0.0
H1800 H 0.00195 0.46534 0.49578 0.0
H1801 H 0.95568 0.44398 0.55713 0.0
H1802 H 0.95176 0.46798 0.54075 0.0
H1803 H 0.01696 0.50768 0.51855 0.0
H1804 H 0.02559 0.51643 0.4764 0.0
H1805 H 0.02394 0.4967 0.48983 0.0
H1806 H 0.00625 0.48183 0.43484 0.0
H1807 H 0.00798 0.50158 0.42105 0.0
H1808 H 0.98735 0.48289 0.42563 0.0
H1809 H 0.95424 0.49555 0.52247 0.0
H1810 H 0.96231 0.52422 0.50074 0.0
H1811 H 0.00668 0.52743 0.45079 0.0
C1812 C 0.9908 0.46553 0.50512 0.0
C1813 C 0.97911 0.45277 0.52765 0.0
C1814 C 0.96481 0.4536 0.53978 0.0
C1815 C 0.96245 0.46718 0.53062 0.0
C1816 C 0.97444 0.47979 0.50913 0.0
C1817 C 0.98824 0.47902 0.49622 0.0
C1818 C -0.00031 0.49466 0.475 0.0
C1819 C 0.0176 0.50444 0.49091 0.0
C1820 C 0.00035 0.48995 0.43687 0.0
C1821 C 0.99035 0.50447 0.47867 0.0
C1822 C 0.97578 0.49565 0.49834 0.0
C1823 C 0.9655 0.5025 0.50663 0.0
C1824 C 0.97022 0.5188 0.49432 0.0
C1825 C 0.98506 0.52801 0.47396 0.0
C1826 C 0.99516 0.52065 0.46601 0.0
H1827 H 0.53609 0.51538 0.53876 0.0
H1828 H 0.54013 0.55487 0.46928 0.0
H1829 H 0.51372 0.53386 0.43973 0.0
H1830 H 0.51864 0.48063 0.47595 0.0
H1831 H 0.50469 0.46531 0.50746 0.0
H1832 H 0.52457 0.48315 0.52121 0.0
H1833 H 0.50852 0.49164 0.56526 0.0
H1834 H 0.48861 0.47389 0.55155 0.0
H1835 H 0.49172 0.49507 0.55004 0.0
H1836 H 0.48634 0.50892 0.41966 0.0
H1837 H 0.45965 0.48197 0.41071 0.0
H1838 H 0.47312 0.45887 0.49448 0.0
C1839 C 0.53159 0.51959 0.51696 0.0
C1840 C 0.54023 0.53674 0.5061 0.0
C1841 C 0.53375 0.54178 0.47789 0.0
C1842 C 0.51879 0.52994 0.46096 0.0
C1843 C 0.51047 0.51317 0.47267 0.0
C1844 C 0.51664 0.508 0.50002 0.0
C1845 C 0.50485 0.48946 0.50875 0.0
C1846 C 0.51372 0.47902 0.50298 0.0
C1847 C 0.49802 0.48741 0.54611 0.0
C1848 C 0.49095 0.48502 0.48224 0.0
C1849 C 0.49453 0.49885 0.46153 0.0
C1850 C 0.48345 0.49799 0.4356 0.0
C1851 C 0.4683 0.48261 0.43077 0.0
C1852 C 0.46428 0.46829 0.45191 0.0
C1853 C 0.47584 0.46956 0.47787 0.0
H1854 H 0.53464 0.0062 0.51577 0.0
H1855 H 0.5116 0.96461 0.44186 0.0
H1856 H 0.48321 0.95935 0.45849 0.0
H1857 H 0.50139 0.98658 0.58243 0.0
H1858 H 0.50268 0.00641 0.59387 0.0
H1859 H 0.52122 0.00622 0.57783 0.0
H1860 H 0.52446 0.02735 0.52913 0.0
H1861 H 0.50593 0.02756 0.54494 0.0
H1862 H 0.50688 0.02209 0.50028 0.0
H1863 H 0.45742 0.95979 0.47997 0.0
H1864 H 0.43601 0.96562 0.50619 0.0
H1865 H 0.47569 0.00652 0.56668 0.0
C1866 C 0.52361 0.99585 0.50345 0.0
C1867 C 0.52536 0.98582 0.47756 0.0
C1868 C 0.5106 0.97248 0.46181 0.0
C1869 C 0.49439 0.96935 0.47109 0.0
C1870 C 0.49311 0.97961 0.49631 0.0
C1871 C 0.50729 0.99253 0.51245 0.0
C1872 C 0.50238 0.00208 0.53781 0.0
C1873 C 0.5072 0.0002 0.5752 0.0
C1874 C 0.51039 0.02088 0.5274 0.0
C1875 C 0.48329 0.9927 0.53292 0.0
C1876 C 0.47818 0.97975 0.50896 0.0
C1877 C 0.46123 0.96978 0.49907 0.0
C1878 C 0.44917 0.9732 0.51403 0.0
C1879 C 0.45415 0.98644 0.53859 0.0
C1880 C 0.47143 0.99618 0.54825 0.0
H1881 H 0.47794 0.02128 0.9961 0.0
H1882 H 0.46426 0.98696 0.90813 0.0
H1883 H 0.48995 0.98483 0.91738 0.0
H1884 H 0.52373 0.04342 0.98127 0.0
H1885 H 0.52867 0.04521 0.027 0.0
H1886 H 0.50958 0.04468 0.01244 0.0
H1887 H 0.49167 0.01909 0.05311 0.0
H1888 H 0.51069 0.01952 0.06771 0.0
H1889 H 0.49352 0.00031 0.04959 0.0
H1890 H 0.51639 0.98525 0.93788 0.0
H1891 H 0.54205 0.98876 0.96786 0.0
H1892 H 0.53852 0.02297 0.04176 0.0
C1893 C 0.48044 0.01346 0.97858 0.0
C1894 C 0.4691 0.00431 0.95139 0.0
C1895 C 0.47277 0.99412 0.92915 0.0
C1896 C 0.48734 0.99282 0.93415 0.0
C1897 C 0.49817 0.00184 0.9614 0.0
C1898 C 0.49496 0.01203 0.98316 0.0
C1899 C 0.50841 0.02003 0.01106 0.0
C1900 C 0.51818 0.03949 1.00772 0.0
C1901 C 0.5006 0.01439 0.04751 0.0
C1902 C 0.51954 0.01259 1.0018 0.0
C1903 C 0.51346 0.00216 0.97304 0.0
C1904 C 0.52137 0.99349 0.96028 0.0
C1905 C 0.53591 0.99554 0.97747 0.0
C1906 C 0.54232 0.00618 1.00701 0.0
C1907 C 0.53402 0.01484 0.01908 0.0
H1908 H 0.99321 0.5236 0.05789 0.0
H1909 H 0.03748 0.56356 1.00534 0.0
H1910 H 0.0448 0.54231 0.98435 0.0
H1911 H 0.01213 0.49853 0.08455 0.0
H1912 H 0.99302 0.47854 0.07694 0.0
H1913 H 0.99164 0.49696 0.089 0.0
H1914 H 0.97372 0.49339 0.03393 0.0
H1915 H 0.97495 0.47492 0.02184 0.0
H1916 H 0.98191 0.49239 0.99184 0.0
H1917 H 0.04687 0.51673 0.9681 0.0
H1918 H 0.04282 0.48845 0.95473 0.0
H1919 H 0.99699 0.46506 0.01762 0.0
C1920 C 0.0045 0.52792 0.0421 0.0
C1921 C 0.01482 0.54525 0.03331 0.0
C1922 C 0.0294 0.55036 0.01237 0.0
C1923 C 0.03369 0.5384 1.00047 0.0
C1924 C 0.02327 0.52142 0.00976 0.0
C1925 C 0.00893 0.51617 0.02994 0.0
C1926 C -0.00052 0.4971 0.03507 0.0
C1927 C -0.00095 0.49252 0.07369 0.0
C1928 C 0.98145 0.48898 0.01974 0.0
C1929 C 0.01066 0.49238 0.01429 0.0
C1930 C 0.02438 0.50663 1.00017 0.0
C1931 C 0.03622 0.50549 0.97913 0.0
C1932 C 0.0338 0.48935 0.97173 0.0
C1933 C 0.0196 0.47453 0.98521 0.0
C1934 C 0.00805 0.47614 1.00723 0.0
H1935 H 0.45488 0.46831 0.01517 0.0
H1936 H 0.47755 0.45919 0.10604 0.0
H1937 H 0.50422 0.48589 0.09509 0.0
H1938 H 0.49164 0.48533 0.96185 0.0
H1939 H 0.48794 0.50105 0.94152 0.0
H1940 H 0.47029 0.48158 0.95739 0.0
H1941 H 0.46058 0.49874 0.99534 0.0
H1942 H 0.4782 0.51828 0.97952 0.0
H1943 H 0.4753 0.51425 0.02561 0.0
H1944 H 0.52894 0.51283 0.07272 0.0
H1945 H 0.54976 0.5385 0.04076 0.0
H1946 H 0.51083 0.53025 0.96531 0.0
C1947 C 0.4654 0.472 0.03292 0.0
C1948 C 0.46412 0.46166 0.06144 0.0
C1949 C 0.47822 0.46691 0.084 0.0
C1950 C 0.49343 0.48207 0.07805 0.0
C1951 C 0.49435 0.49191 0.04954 0.0
C1952 C 0.4807 0.48715 0.02743 0.0
C1953 C 0.48518 0.49983 0.99821 0.0
C1954 C 0.48368 0.49145 0.96265 0.0
C1955 C 0.47416 0.50828 0.99978 0.0
C1956 C 0.5035 0.51231 1.00715 0.0
C1957 C 0.50856 0.50754 0.03688 0.0
C1958 C 0.52511 0.5168 0.04955 0.0
C1959 C 0.53684 0.53132 0.03124 0.0
C1960 C 0.5319 0.53641 1.0007 0.0
C1961 C 0.51497 0.52679 0.98876 0.0
H1962 H 0.39645 0.02783 0.068 0.0
H1963 H 0.39757 0.06045 0.98484 0.0
H1964 H 0.39062 0.07674 0.02694 0.0
H1965 H 0.3603 0.02424 0.10849 0.0
H1966 H 0.36699 0.02367 0.15233 0.0
H1967 H 0.37466 0.0164 0.11695 0.0
H1968 H 0.4057 0.03753 0.13494 0.0
H1969 H 0.3981 0.04487 0.17047 0.0
H1970 H 0.41254 0.05979 0.13897 0.0
H1971 H 0.38176 0.0883 0.07769 0.0
H1972 H 0.36931 0.0926 0.1312 0.0
H1973 H 0.372 0.05111 0.18062 0.0
C1974 C 0.39572 0.03873 0.059 0.0
C1975 C 0.398 0.04327 0.02348 0.0
C1976 C 0.39621 0.05708 0.01214 0.0
C1977 C 0.39228 0.06638 0.03587 0.0
C1978 C 0.3899 0.0615 0.07078 0.0
C1979 C 0.39143 0.0479 0.08227 0.0
C1980 C 0.38641 0.0441 0.12026 0.0
C1981 C 0.37119 0.02604 0.12475 0.0
C1982 C 0.4016 0.04673 0.14247 0.0
C1983 C 0.38154 0.05746 0.1282 0.0
C1984 C 0.38397 0.06759 0.09953 0.0
C1985 C 0.37992 0.0805 0.10034 0.0
C1986 C 0.37289 0.08289 0.13093 0.0
C1987 C 0.36969 0.07224 0.16021 0.0
C1988 C 0.37436 0.05954 0.15881 0.0
H1989 H 0.95595 0.32769 0.16787 0.0
H1990 H 0.91307 0.28374 0.12114 0.0
H1991 H 0.91639 0.30046 0.06811 0.0
H1992 H 0.94657 0.35954 0.13013 0.0
H1993 H 0.96871 0.37497 0.12404 0.0
H1994 H 0.96229 0.35987 0.15917 0.0
H1995 H 0.98285 0.35001 0.13685 0.0
H1996 H 0.98929 0.36503 0.10166 0.0
H1997 H 0.98112 0.34283 0.09256 0.0
H1998 H 0.92641 0.32099 0.01766 0.0
H1999 H 0.94106 0.34439 0.9753 0.0
H2000 H 0.97622 0.37581 0.05555 0.0
C2001 C 0.94708 0.32165 0.1467 0.0
C2002 C 0.93421 0.30435 0.1488 0.0
C2003 C 0.92295 0.29696 0.12036 0.0
C2004 C 0.92476 0.30637 0.09004 0.0
C2005 C 0.93774 0.32328 0.08861 0.0
C2006 C 0.94856 0.33095 0.11637 0.0
C2007 C 0.96171 0.34921 0.10779 0.0
C2008 C 0.95969 0.36163 0.13171 0.0
C2009 C 0.97981 0.35192 0.10983 0.0
C2010 C 0.95687 0.3505 0.07058 0.0
C2011 C 0.94302 0.33537 0.06 0.0
C2012 C 0.93703 0.333 0.02591 0.0
C2013 C 0.94544 0.34635 1.00199 0.0
C2014 C 0.95955 0.36202 0.01226 0.0
C2015 C 0.96516 0.36415 0.04719 0.0
H2016 H 0.65089 0.61254 0.99663 0.0
H2017 H 0.60569 0.57799 0.05476 0.0
H2018 H 0.62291 0.58435 0.10811 0.0
H2019 H 0.68051 0.60269 0.04498 0.0
H2020 H 0.69763 0.62438 0.04289 0.0
H2021 H 0.68205 0.61589 0.00859 0.0
H2022 H 0.67567 0.64038 0.01757 0.0
H2023 H 0.69112 0.64888 0.05197 0.0
H2024 H 0.66955 0.6438 0.06007 0.0
H2025 H 0.64412 0.59767 0.15657 0.0
H2026 H 0.66844 0.61487 0.19558 0.0
H2027 H 0.70054 0.6391 0.10615 0.0
C2028 C 0.64467 0.606 0.0204 0.0
C2029 C 0.62689 0.59471 0.02139 0.0
C2030 C 0.61926 0.58658 0.05317 0.0
C2031 C 0.62895 0.59015 0.0837 0.0
C2032 C 0.64635 0.60166 0.08202 0.0
C2033 C 0.65422 0.60924 0.05107 0.0
C2034 C 0.67301 0.62163 0.05666 0.0
C2035 C 0.68394 0.61579 0.03712 0.0
C2036 C 0.6776 0.63974 0.04594 0.0
C2037 C 0.67437 0.62024 0.09574 0.0
C2038 C 0.65881 0.60868 0.10986 0.0
C2039 C 0.65645 0.6064 0.14572 0.0
C2040 C 0.67031 0.61623 0.16768 0.0
C2041 C 0.6864 0.62793 0.15379 0.0
C2042 C 0.68849 0.6298 0.11733 0.0
H2043 H 0.0404 0.36918 0.35121 0.0
H2044 H 0.08503 0.37057 0.39522 0.0
H2045 H 0.08226 0.38466 0.44772 0.0
H2046 H 0.04914 0.41072 0.38652 0.0
H2047 H 0.02697 0.40338 0.39424 0.0
H2048 H 0.03319 0.39454 0.35908 0.0
H2049 H 0.01389 0.36433 0.38384 0.0
H2050 H 0.00766 0.37306 0.41908 0.0
H2051 H 0.01674 0.35982 0.42818 0.0
H2052 H 0.07253 0.39532 0.49842 0.0
H2053 H 0.05792 0.40384 0.54141 0.0
H2054 H 0.02083 0.39759 0.46343 0.0
C2055 C 0.04978 0.37272 0.37162 0.0
C2056 C 0.06297 0.36876 0.36897 0.0
C2057 C 0.07489 0.37354 0.39643 0.0
C2058 C 0.07339 0.38153 0.42644 0.0
C2059 C 0.06007 0.38495 0.4285 0.0
C2060 C 0.04861 0.38093 0.40159 0.0
C2061 C 0.03517 0.38557 0.41077 0.0
C2062 C 0.03618 0.39937 0.38619 0.0
C2063 C 0.01732 0.36975 0.41045 0.0
C2064 C 0.04057 0.39239 0.4474 0.0
C2065 C 0.05495 0.39187 0.45716 0.0
C2066 C 0.06151 0.39614 0.49077 0.0
C2067 C 0.05312 0.40095 0.51505 0.0
C2068 C 0.03848 0.40173 0.50557 0.0
C2069 C 0.0323 0.39761 0.47111 0.0
H2070 H 0.60085 0.62277 0.45977 0.0
H2071 H 0.59836 0.65438 0.54121 0.0
H2072 H 0.60701 0.67788 0.49911 0.0
H2073 H 0.63854 0.65516 0.42273 0.0
H2074 H 0.6329 0.64819 0.37839 0.0
H2075 H 0.6241 0.63307 0.41337 0.0
H2076 H 0.59369 0.62382 0.39184 0.0
H2077 H 0.60241 0.63889 0.35668 0.0
H2078 H 0.58736 0.63956 0.38622 0.0
H2079 H 0.61733 0.69846 0.44873 0.0
H2080 H 0.6308 0.71523 0.39575 0.0
H2081 H 0.62879 0.67102 0.34808 0.0
C2082 C 0.60168 0.63449 0.46843 0.0
C2083 C 0.59859 0.63667 0.50357 0.0
C2084 C 0.60046 0.6524 0.51431 0.0
C2085 C 0.60533 0.6658 0.49055 0.0
C2086 C 0.60858 0.66338 0.45619 0.0
C2087 C 0.60696 0.64816 0.44519 0.0
C2088 C 0.61292 0.64945 0.40784 0.0
C2089 C 0.62801 0.64629 0.40546 0.0
C2090 C 0.59822 0.6372 0.38425 0.0
C2091 C 0.61833 0.66781 0.39971 0.0
C2092 C 0.61541 0.67552 0.42773 0.0
C2093 C 0.61961 0.69252 0.42661 0.0
C2094 C 0.62723 0.70195 0.39633 0.0
C2095 C 0.63087 0.69448 0.3677 0.0
C2096 C 0.62616 0.67711 0.36945 0.0
H2097 H 0.33846 0.95858 0.50416 0.0
H2098 H 0.3829 0.9598 0.45948 0.0
H2099 H 0.36656 0.94608 0.40624 0.0
H2100 H 0.30694 0.91702 0.46618 0.0
H2101 H 0.29152 0.92368 0.45937 0.0
H2102 H 0.30633 0.93234 0.49498 0.0
H2103 H 0.31627 0.96276 0.47262 0.0
H2104 H 0.30157 0.95422 0.43692 0.0
H2105 H 0.32385 0.9683 0.42857 0.0
H2106 H 0.34656 0.93591 0.35493 0.0
H2107 H 0.32362 0.92761 0.31155 0.0
H2108 H 0.29136 0.9307 0.39074 0.0
C2109 C 0.34467 0.95567 0.48345 0.0
C2110 C 0.362 0.96028 0.48607 0.0
C2111 C 0.36964 0.95631 0.45825 0.0
C2112 C 0.36045 0.94855 0.42783 0.0
C2113 C 0.34351 0.9445 0.42579 0.0
C2114 C 0.3356 0.94766 0.45311 0.0
C2115 C 0.3174 0.94251 0.4439 0.0
C2116 C 0.30481 0.92802 0.46752 0.0
C2117 C 0.31462 0.95786 0.4456 0.0
C2118 C 0.31647 0.93645 0.40678 0.0
C2119 C 0.3317 0.93776 0.39679 0.0
C2120 C 0.33445 0.93443 0.36273 0.0
C2121 C 0.32138 0.92975 0.33825 0.0
C2122 C 0.30562 0.92813 0.34801 0.0
C2123 C 0.3031 0.93131 0.38286 0.0
H2124 H 0.62845 0.95507 0.84243 0.0
H2125 H 0.63653 0.91787 0.89678 0.0
H2126 H 0.62563 0.92361 0.95084 0.0
H2127 H 0.64125 0.98491 0.90951 0.0
H2128 H 0.62541 0.99094 0.90185 0.0
H2129 H 0.63244 0.98293 0.86663 0.0
H2130 H 0.60139 0.95946 0.85479 0.0
H2131 H 0.59424 0.96747 0.88991 0.0
H2132 H 0.58889 0.94552 0.88962 0.0
H2133 H 0.61762 0.93622 1.00078 0.0
H2134 H 0.61036 0.95272 0.0415 0.0
H2135 H 0.60513 0.98013 0.95469 0.0
C2136 C 0.62759 0.94786 0.86552 0.0
C2137 C 0.63334 0.93595 0.86519 0.0
C2138 C 0.63211 0.92694 0.89614 0.0
C2139 C 0.62598 0.93016 0.92709 0.0
C2140 C 0.6208 0.94224 0.92672 0.0
C2141 C 0.62124 0.95074 0.89659 0.0
C2142 C 0.61535 0.96345 0.90352 0.0
C2143 C 0.62946 0.98163 0.89487 0.0
C2144 C 0.59899 0.95869 0.88326 0.0
C2145 C 0.61198 0.96111 0.94241 0.0
C2146 C 0.61529 0.94886 0.95528 0.0
C2147 C 0.6146 0.94553 0.99085 0.0
C2148 C 0.61049 0.95497 0.01381 0.0
C2149 C 0.6068 0.96739 1.0012 0.0
C2150 C 0.60736 0.97033 0.96495 0.0
H2151 H 0.03174 0.63014 0.94949 0.0
H2152 H 0.06357 0.66259 0.03252 0.0
H2153 H 0.07979 0.68559 0.99004 0.0
H2154 H 0.06398 0.64633 0.87865 0.0
H2155 H 0.04898 0.64541 0.84687 0.0
H2156 H 0.04181 0.63058 0.88258 0.0
H2157 H 0.02013 0.63988 0.89995 0.0
H2158 H 0.02722 0.6547 0.86438 0.0
H2159 H 0.02751 0.66202 0.90806 0.0
H2160 H 0.09128 0.70568 0.93925 0.0
H2161 H 0.09518 0.72229 0.88575 0.0
H2162 H 0.05434 0.67759 0.83639 0.0
C2163 C 0.04247 0.64192 0.9584 0.0
C2164 C 0.04674 0.64453 0.99405 0.0
C2165 C 0.06034 0.66033 1.00518 0.0
C2166 C 0.06963 0.67341 0.98124 0.0
C2167 C 0.06496 0.6706 0.94627 0.0
C2168 C 0.05158 0.6553 0.9349 0.0
C2169 C 0.04779 0.65629 0.89682 0.0
C2170 C 0.05083 0.64391 0.87494 0.0
C2171 C 0.02959 0.65304 0.89204 0.0
C2172 C 0.0609 0.6746 0.88874 0.0
C2173 C 0.07093 0.68251 0.91739 0.0
C2174 C 0.08357 0.69958 0.91658 0.0
C2175 C 0.08574 0.70891 0.886 0.0
C2176 C 0.07511 0.70127 0.85681 0.0
C2177 C 0.06275 0.68379 0.85816 0.0
H2178 H 0.28789 0.34517 0.90072 0.0
H2179 H 0.31691 0.37798 0.81543 0.0
H2180 H 0.3411 0.39463 0.85521 0.0
H2181 H 0.3053 0.37718 0.97167 0.0
H2182 H 0.30592 0.36237 1.00197 0.0
H2183 H 0.29002 0.35485 0.96827 0.0
H2184 H 0.2998 0.33405 0.9471 0.0
H2185 H 0.31573 0.34152 0.98059 0.0
H2186 H 0.32178 0.3422 0.93573 0.0
H2187 H 0.36272 0.4066 0.90359 0.0
H2188 H 0.38092 0.41133 0.95496 0.0
H2189 H 0.33862 0.36919 1.00755 0.0
C2190 C 0.29918 0.3562 0.89083 0.0
C2191 C 0.30048 0.36068 0.85537 0.0
C2192 C 0.31565 0.37465 0.84275 0.0
C2193 C 0.3294 0.38415 0.86514 0.0
C2194 C 0.32788 0.3793 0.89997 0.0
C2195 C 0.31319 0.36555 0.9127 0.0
C2196 C 0.31551 0.36178 0.95008 0.0
C2197 C 0.30347 0.36419 0.97444 0.0
C2198 C 0.31307 0.34383 0.95355 0.0
C2199 C 0.33386 0.37533 0.95618 0.0
C2200 C 0.34065 0.38554 0.92723 0.0
C2201 C 0.3575 0.39873 0.92646 0.0
C2202 C 0.36774 0.40135 0.9558 0.0
C2203 C 0.36122 0.39064 0.98526 0.0
C2204 C 0.34398 0.37761 0.98545 0.0
H2205 H 0.93957 0.6183 0.67025 0.0
H2206 H 0.91176 0.63751 0.61231 0.0
H2207 H 0.91771 0.62707 0.55778 0.0
H2208 H 0.97222 0.62936 0.61062 0.0
H2209 H 0.974 0.61065 0.6166 0.0
H2210 H 0.96614 0.61806 0.65139 0.0
H2211 H 0.93873 0.58867 0.65449 0.0
H2212 H 0.94654 0.58112 0.61972 0.0
H2213 H 0.92614 0.57977 0.61584 0.0
H2214 H 0.93025 0.61841 0.50904 0.0
H2215 H 0.94637 0.60988 0.47012 0.0
H2216 H 0.96418 0.59415 0.55937 0.0
C2217 C 0.93443 0.62 0.64618 0.0
C2218 C 0.92517 0.62873 0.6456 0.0
C2219 C 0.91877 0.63078 0.6135 0.0
C2220 C 0.92212 0.62491 0.58235 0.0
C2221 C 0.93161 0.61672 0.58374 0.0
C2222 C 0.93743 0.61399 0.6149 0.0
C2223 C 0.94791 0.60542 0.60909 0.0
C2224 C 0.96615 0.61654 0.62272 0.0
C2225 C 0.93931 0.58769 0.62577 0.0
C2226 C 0.94756 0.60427 0.56971 0.0
C2227 C 0.9381 0.61089 0.55561 0.0
C2228 C 0.9373 0.61278 0.51979 0.0
C2229 C 0.9465 0.60794 0.49789 0.0
C2230 C 0.95612 0.60098 0.51175 0.0
C2231 C 0.95643 0.59889 0.54809 0.0
H2232 H 0.35312 0.29182 0.61965 0.0
H2233 H 0.38278 0.32294 0.7062 0.0
H2234 H 0.39899 0.34714 0.66614 0.0
H2235 H 0.38655 0.3106 0.55153 0.0
H2236 H 0.37184 0.30972 0.51904 0.0
H2237 H 0.36455 0.29416 0.55341 0.0
H2238 H 0.34168 0.30194 0.57034 0.0
H2239 H 0.34892 0.31752 0.53615 0.0
H2240 H 0.34808 0.3237 0.58031 0.0
H2241 H 0.41081 0.36841 0.61711 0.0
H2242 H 0.41544 0.38581 0.56444 0.0
H2243 H 0.37638 0.3415 0.51067 0.0
C2244 C 0.3634 0.3036 0.62982 0.0
C2245 C 0.3671 0.3055 0.66572 0.0
C2246 C 0.38005 0.32125 0.6786 0.0
C2247 C 0.38931 0.33501 0.65605 0.0
C2248 C 0.38522 0.33289 0.62076 0.0
C2249 C 0.37246 0.31761 0.60774 0.0
C2250 C 0.36924 0.31923 0.56961 0.0
C2251 C 0.37329 0.30775 0.54707 0.0
C2252 C 0.35089 0.31537 0.56378 0.0
C2253 C 0.38195 0.33785 0.56338 0.0
C2254 C 0.39131 0.3454 0.59299 0.0
C2255 C 0.4036 0.36259 0.59373 0.0
C2256 C 0.40618 0.37238 0.56366 0.0
C2257 C 0.39628 0.36504 0.53345 0.0
C2258 C 0.38417 0.34749 0.53334 0.0
H2259 H 0.65297 0.04988 0.50444 0.0
H2260 H 0.60408 0.0292 0.5559 0.0
H2261 H 0.61849 0.03716 0.6128 0.0
H2262 H 0.67204 0.03592 0.56493 0.0
H2263 H 0.69283 0.05458 0.56308 0.0
H2264 H 0.6789 0.04873 0.52608 0.0
H2265 H 0.68143 0.07838 0.52641 0.0
H2266 H 0.69546 0.08437 0.56336 0.0
H2267 H 0.67649 0.08596 0.56555 0.0
H2268 H 0.63782 0.04384 0.66436 0.0
H2269 H 0.66092 0.0511 0.70671 0.0
H2270 H 0.69769 0.06941 0.62281 0.0
C2271 C 0.6453 0.04736 0.52761 0.0
C2272 C 0.62732 0.03893 0.52552 0.0
C2273 C 0.61782 0.03572 0.55662 0.0
C2274 C 0.62591 0.04018 0.58917 0.0
C2275 C 0.64359 0.04808 0.59036 0.0
C2276 C 0.65321 0.05192 0.56039 0.0
C2277 C 0.672 0.05996 0.56907 0.0
C2278 C 0.67937 0.04915 0.55495 0.0
C2279 C 0.68193 0.07826 0.55528 0.0
C2280 C 0.67139 0.05963 0.60857 0.0
C2281 C 0.65484 0.05267 0.62027 0.0
C2282 C 0.65085 0.04966 0.65552 0.0
C2283 C 0.66404 0.05379 0.6794 0.0
C2284 C 0.68111 0.06113 0.66814 0.0
C2285 C 0.68482 0.06428 0.63224 0.0
H2286 H 0.7164 0.70963 0.67036 0.0
H2287 H 0.75906 0.70791 0.71656 0.0
H2288 H 0.75514 0.7201 0.77081 0.0
H2289 H 0.72502 0.75002 0.71277 0.0
H2290 H 0.70272 0.74281 0.71801 0.0
H2291 H 0.70987 0.73541 0.68182 0.0
H2292 H 0.68933 0.7043 0.7002 0.0
H2293 H 0.68219 0.71157 0.7365 0.0
H2294 H 0.69056 0.69756 0.74367 0.0
H2295 H 0.74383 0.72831 0.82272 0.0
H2296 H 0.72782 0.73479 0.86637 0.0
H2297 H 0.69408 0.73365 0.78562 0.0
C2298 C 0.72516 0.71217 0.69162 0.0
C2299 C 0.73808 0.70783 0.68912 0.0
C2300 C 0.74918 0.71124 0.71768 0.0
C2301 C 0.74701 0.71813 0.74868 0.0
C2302 C 0.7339 0.72186 0.75059 0.0
C2303 C 0.72336 0.71931 0.72258 0.0
C2304 C 0.70988 0.72387 0.73179 0.0
C2305 C 0.71201 0.73893 0.70979 0.0
C2306 C 0.69193 0.7084 0.72781 0.0
C2307 C 0.71413 0.72887 0.76967 0.0
C2308 C 0.728 0.72756 0.78004 0.0
C2309 C 0.73327 0.72985 0.81466 0.0
C2310 C 0.72412 0.7335 0.83928 0.0
C2311 C 0.71007 0.73517 0.82911 0.0
C2312 C 0.70516 0.73303 0.79378 0.0
H2313 H 0.29753 0.00871 0.68783 0.0
H2314 H 0.307 0.05426 0.74288 0.0
H2315 H 0.29502 0.03738 0.79642 0.0
H2316 H 0.25703 0.97971 0.73291 0.0
H2317 H 0.26137 0.96242 0.73312 0.0
H2318 H 0.2695 0.97787 0.69853 0.0
H2319 H 0.29998 0.98393 0.71163 0.0
H2320 H 0.29198 0.96858 0.74627 0.0
H2321 H 0.30843 0.99008 0.75496 0.0
H2322 H 0.28564 0.01624 0.84574 0.0
H2323 H 0.27713 0.99196 0.88574 0.0
H2324 H 0.27142 0.95958 0.79813 0.0
C2325 C 0.29681 0.01509 0.71099 0.0
C2326 C 0.30322 0.03285 0.71111 0.0
C2327 C 0.30208 0.04069 0.74203 0.0
C2328 C 0.29532 0.03119 0.77262 0.0
C2329 C 0.28943 0.01378 0.7718 0.0
C2330 C 0.28981 0.00574 0.74162 0.0
C2331 C 0.28306 0.98695 0.74793 0.0
C2332 C 0.26677 0.9761 0.72687 0.0
C2333 C 0.29668 0.98211 0.73972 0.0
C2334 C 0.27931 0.98576 0.78661 0.0
C2335 C 0.28313 0.00141 0.7999 0.0
C2336 C 0.28222 0.00385 0.83548 0.0
C2337 C 0.2774 0.99001 0.85802 0.0
C2338 C 0.27325 0.97384 0.84494 0.0
C2339 C 0.274 0.97168 0.8087 0.0
H2340 H 0.95447 0.25889 0.7298 0.0
H2341 H 0.98506 0.25386 0.64958 0.0
H2342 H 0.00785 0.26048 0.69267 0.0
H2343 H 0.98824 0.29502 0.76767 0.0
H2344 H 0.98069 0.28974 0.81178 0.0
H2345 H 0.96583 0.28193 0.77627 0.0
H2346 H 0.95415 0.25108 0.79797 0.0
H2347 H 0.96898 0.25882 0.83365 0.0
H2348 H 0.96856 0.24312 0.80443 0.0
H2349 H 0.02801 0.26941 0.74405 0.0
H2350 H 0.04481 0.28233 0.79726 0.0
H2351 H 0.00187 0.2837 0.84298 0.0
C2352 C 0.96576 0.25865 0.72171 0.0
C2353 C 0.96787 0.25534 0.68673 0.0
C2354 C 0.98311 0.25596 0.6765 0.0
C2355 C 0.99609 0.25972 0.7008 0.0
C2356 C 0.99375 0.26315 0.73512 0.0
C2357 C 0.979 0.2628 0.7455 0.0
C2358 C 0.98042 0.26885 0.78278 0.0
C2359 C 0.97869 0.28483 0.78472 0.0
C2360 C 0.96724 0.25462 0.80608 0.0
C2361 C 0.99832 0.27287 0.79167 0.0
C2362 C 0.00568 0.26919 0.76407 0.0
C2363 C 0.02231 0.27224 0.76586 0.0
C2364 C 0.03176 0.27955 0.79629 0.0
C2365 C 0.0247 0.28401 0.82444 0.0
C2366 C 0.00764 0.28036 0.82208 0.0
H2367 H 0.30244 0.2933 0.17807 0.0
H2368 H 0.30097 0.25058 0.23162 0.0
H2369 H 0.28698 0.25548 0.28186 0.0
H2370 H 0.31211 0.31999 0.25 0.0
H2371 H 0.29891 0.32871 0.23751 0.0
H2372 H 0.30749 0.32099 0.20476 0.0
H2373 H 0.27717 0.30079 0.18148 0.0
H2374 H 0.26848 0.3085 0.21417 0.0
H2375 H 0.26102 0.28609 0.21079 0.0
H2376 H 0.27656 0.26736 0.32904 0.0
H2377 H 0.26851 0.28401 0.36771 0.0
H2378 H 0.27474 0.31765 0.28227 0.0
C2379 C 0.29893 0.28479 0.20013 0.0
C2380 C 0.30282 0.27154 0.2009 0.0
C2381 C 0.29805 0.26074 0.23033 0.0
C2382 C 0.29011 0.26345 0.25902 0.0
C2383 C 0.28674 0.27682 0.25767 0.0
C2384 C 0.29077 0.28716 0.22875 0.0
C2385 C 0.28626 0.30096 0.23428 0.0
C2386 C 0.30214 0.31871 0.23148 0.0
C2387 C 0.27241 0.29896 0.20865 0.0
C2388 C 0.27954 0.29711 0.27121 0.0
C2389 C 0.27994 0.28314 0.28427 0.0
C2390 C 0.27579 0.27804 0.31881 0.0
C2391 C 0.27123 0.28754 0.34058 0.0
C2392 C 0.27058 0.30174 0.32758 0.0
C2393 C 0.27461 0.30647 0.2924 0.0
H2394 H 0.71466 0.00984 0.18581 0.0
H2395 H 0.7559 0.0546 0.23403 0.0
H2396 H 0.75261 0.03803 0.28736 0.0
H2397 H 0.68871 0.99342 0.25969 0.0
H2398 H 0.68168 0.97146 0.25044 0.0
H2399 H 0.68793 0.98654 0.21542 0.0
H2400 H 0.70988 0.97821 0.19462 0.0
H2401 H 0.70366 0.96304 0.22959 0.0
H2402 H 0.72561 0.97928 0.22467 0.0
H2403 H 0.74222 0.01743 0.33818 0.0
H2404 H 0.72757 0.99367 0.38004 0.0
H2405 H 0.69505 0.96151 0.29744 0.0
C2406 C 0.72318 0.01609 0.20739 0.0
C2407 C 0.73557 0.03356 0.20565 0.0
C2408 C 0.74642 0.04123 0.23456 0.0
C2409 C 0.7446 0.03192 0.26505 0.0
C2410 C 0.73209 0.0148 0.26613 0.0
C2411 C 0.72177 0.00687 0.2378 0.0
C2412 C 0.70918 0.98837 0.24583 0.0
C2413 C 0.69079 0.98475 0.24266 0.0
C2414 C 0.71228 0.97653 0.22227 0.0
C2415 C 0.71372 0.98723 0.28336 0.0
C2416 C 0.72689 0.00267 0.29468 0.0
C2417 C 0.73222 0.00518 0.32931 0.0
C2418 C 0.72386 0.99164 0.35292 0.0
C2419 C 0.71058 0.97566 0.34172 0.0
C2420 C 0.70561 0.97342 0.30638 0.0
H2421 H 0.00544 0.71301 0.33582 0.0
H2422 H 0.05118 0.74595 0.27751 0.0
H2423 H 0.034 0.74043 0.22423 0.0
H2424 H 0.98526 0.68197 0.27217 0.0
H2425 H 0.96412 0.6781 0.28085 0.0
H2426 H 0.97976 0.68582 0.31494 0.0
H2427 H 0.97515 0.71142 0.32459 0.0
H2428 H 0.95943 0.70375 0.29053 0.0
H2429 H 0.97736 0.72501 0.28845 0.0
H2430 H 0.01242 0.72812 0.17598 0.0
H2431 H 0.9877 0.71185 0.13731 0.0
H2432 H 0.95552 0.68873 0.22717 0.0
C2433 C 0.01181 0.71931 0.31198 0.0
C2434 C 0.02969 0.72994 0.31088 0.0
C2435 C 0.03752 0.73787 0.27909 0.0
C2436 C 0.02785 0.73478 0.24866 0.0
C2437 C 0.01031 0.72397 0.25049 0.0
C2438 C 0.00231 0.71659 0.28147 0.0
C2439 C 0.98335 0.70503 0.27616 0.0
C2440 C 0.97781 0.68665 0.28665 0.0
C2441 C 0.97323 0.71171 0.29612 0.0
C2442 C 0.98199 0.70664 0.23718 0.0
C2443 C 0.99771 0.71761 0.22287 0.0
C2444 C -1e-05 0.71987 0.18699 0.0
C2445 C 0.9859 0.71058 0.16523 0.0
C2446 C 0.96968 0.69942 0.17934 0.0
C2447 C 0.96768 0.69765 0.21581 0.0
loop_
_geom_bond_atom_site_label_1
_geom_bond_atom_site_label_2
_geom_bond_distance
_geom_bond_site_symmetry_2
_ccdc_geom_bond_type
O0 Cd1 2.223 . S
O0 C8 1.315 . S
Cd1 O0 2.223 . S
Cd1 O4 2.297 . S
Cd1 O5 2.439 . S
Cd1 O11 2.240 . S
Cd2 O3 2.240 . S
Cd2 O10 2.223 . S
Cd2 O12 2.297 . S
Cd2 O13 2.439 . S
O3 Cd2 2.240 . S
O3 C8 1.279 . S
O4 Cd1 2.297 . S
O4 C6 1.247 . S
O5 Cd1 2.439 . S
O5 C6 1.208 . S
C6 O4 1.247 . S
C6 O5 1.208 . S
C7 O12 1.247 . S
C7 O13 1.208 . S
C8 O0 1.315 . S
C8 O3 1.279 . S
C9 O10 1.315 . S
C9 O11 1.279 . S
O10 Cd2 2.223 . S
O10 C9 1.315 . S
O11 Cd1 2.240 . S
O11 C9 1.279 . S
O12 Cd2 2.297 . S
O12 C7 1.247 . S
O13 Cd2 2.439 . S
O13 C7 1.208 . S
O14 Cd15 2.223 . S
O14 C22 1.315 . S
Cd15 O14 2.223 . S
Cd15 O18 2.297 . S
Cd15 O19 2.439 . S
Cd15 O25 2.240 . S
Cd16 O17 2.240 . S
Cd16 O24 2.223 . S
Cd16 O26 2.297 . S
Cd16 O27 2.439 . S
O17 Cd16 2.240 . S
O17 C22 1.279 . S
O18 Cd15 2.297 . S
O18 C20 1.247 . S
O19 Cd15 2.439 . S
O19 C20 1.208 . S
C20 O18 1.247 . S
C20 O19 1.208 . S
C21 O26 1.247 . S
C21 O27 1.208 . S
C22 O14 1.315 . S
C22 O17 1.279 . S
C23 O24 1.315 . S
C23 O25 1.279 . S
O24 Cd16 2.223 . S
O24 C23 1.315 . S
O25 Cd15 2.240 . S
O25 C23 1.279 . S
O26 Cd16 2.297 . S
O26 C21 1.247 . S
O27 Cd16 2.439 . S
O27 C21 1.208 . S
O28 Cd29 2.223 . S
O28 C36 1.315 . S
Cd29 O28 2.223 . S
Cd29 O32 2.297 . S
Cd29 O33 2.439 . S
Cd29 O39 2.240 . S
Cd30 O31 2.240 . S
Cd30 O38 2.223 . S
Cd30 O40 2.297 . S
Cd30 O41 2.439 . S
O31 Cd30 2.240 . S
O31 C36 1.279 . S
O32 Cd29 2.297 . S
O32 C34 1.247 . S
O33 Cd29 2.439 . S
O33 C34 1.208 . S
C34 O32 1.247 . S
C34 O33 1.208 . S
C35 O40 1.247 . S
C35 O41 1.208 . S
C36 O28 1.315 . S
C36 O31 1.279 . S
C37 O38 1.315 . S
C37 O39 1.279 . S
O38 Cd30 2.223 . S
O38 C37 1.315 . S
O39 Cd29 2.240 . S
O39 C37 1.279 . S
O40 Cd30 2.297 . S
O40 C35 1.247 . S
O41 Cd30 2.439 . S
O41 C35 1.208 . S
O42 Cd43 2.223 . S
O42 C50 1.315 . S
Cd43 O42 2.223 . S
Cd43 O46 2.297 . S
Cd43 O47 2.439 . S
Cd43 O53 2.240 . S
Cd44 O45 2.240 . S
Cd44 O52 2.223 . S
Cd44 O54 2.297 . S
Cd44 O55 2.439 . S
O45 Cd44 2.240 . S
O45 C50 1.279 . S
O46 Cd43 2.297 . S
O46 C48 1.247 . S
O47 Cd43 2.439 . S
O47 C48 1.208 . S
C48 O46 1.247 . S
C48 O47 1.208 . S
C49 O54 1.247 . S
C49 O55 1.208 . S
C50 O42 1.315 . S
C50 O45 1.279 . S
C51 O52 1.315 . S
C51 O53 1.279 . S
O52 Cd44 2.223 . S
O52 C51 1.315 . S
O53 Cd43 2.240 . S
O53 C51 1.279 . S
O54 Cd44 2.297 . S
O54 C49 1.247 . S
O55 Cd44 2.439 . S
O55 C49 1.208 . S
O56 Cd57 2.223 . S
O56 C64 1.315 . S
Cd57 O56 2.223 . S
Cd57 O60 2.297 . S
Cd57 O61 2.439 . S
Cd57 O67 2.240 . S
Cd58 O59 2.240 . S
Cd58 O66 2.223 . S
Cd58 O68 2.297 . S
Cd58 O69 2.439 . S
O59 Cd58 2.240 . S
O59 C64 1.279 . S
O60 Cd57 2.297 . S
O60 C62 1.247 . S
O61 Cd57 2.439 . S
O61 C62 1.208 . S
C62 O60 1.247 . S
C62 O61 1.208 . S
C63 O68 1.247 . S
C63 O69 1.208 . S
C64 O56 1.315 . S
C64 O59 1.279 . S
C65 O66 1.315 . S
C65 O67 1.279 . S
O66 Cd58 2.223 . S
O66 C65 1.315 . S
O67 Cd57 2.240 . S
O67 C65 1.279 . S
O68 Cd58 2.297 . S
O68 C63 1.247 . S
O69 Cd58 2.439 . S
O69 C63 1.208 . S
O70 Cd71 2.223 . S
O70 C78 1.315 . S
Cd71 O70 2.223 . S
Cd71 O74 2.297 . S
Cd71 O75 2.439 . S
Cd71 O81 2.240 . S
Cd72 O73 2.240 . S
Cd72 O80 2.223 . S
Cd72 O82 2.297 . S
Cd72 O83 2.439 . S
O73 Cd72 2.240 . S
O73 C78 1.279 . S
O74 Cd71 2.297 . S
O74 C76 1.247 . S
O75 Cd71 2.439 . S
O75 C76 1.208 . S
C76 O74 1.247 . S
C76 O75 1.208 . S
C77 O82 1.247 . S
C77 O83 1.208 . S
C78 O70 1.315 . S
C78 O73 1.279 . S
C79 O80 1.315 . S
C79 O81 1.279 . S
O80 Cd72 2.223 . S
O80 C79 1.315 . S
O81 Cd71 2.240 . S
O81 C79 1.279 . S
O82 Cd72 2.297 . S
O82 C77 1.247 . S
O83 Cd72 2.439 . S
O83 C77 1.208 . S
O84 Cd85 2.223 . S
O84 C92 1.315 . S
Cd85 O84 2.223 . S
Cd85 O88 2.297 . S
Cd85 O89 2.439 . S
Cd85 O95 2.240 . S
Cd86 O87 2.240 . S
Cd86 O94 2.223 . S
Cd86 O96 2.297 . S
Cd86 O97 2.439 . S
O87 Cd86 2.240 . S
O87 C92 1.279 . S
O88 Cd85 2.297 . S
O88 C90 1.247 . S
O89 Cd85 2.439 . S
O89 C90 1.208 . S
C90 O88 1.247 . S
C90 O89 1.208 . S
C91 O96 1.247 . S
C91 O97 1.208 . S
C92 O84 1.315 . S
C92 O87 1.279 . S
C93 O94 1.315 . S
C93 O95 1.279 . S
O94 Cd86 2.223 . S
O94 C93 1.315 . S
O95 Cd85 2.240 . S
O95 C93 1.279 . S
O96 Cd86 2.297 . S
O96 C91 1.247 . S
O97 Cd86 2.439 . S
O97 C91 1.208 . S
O98 Cd99 2.223 . S
O98 C106 1.315 . S
Cd99 O98 2.223 . S
Cd99 O102 2.297 . S
Cd99 O103 2.439 . S
Cd99 O109 2.240 . S
Cd100 O101 2.240 . S
Cd100 O108 2.223 . S
Cd100 O110 2.297 . S
Cd100 O111 2.439 . S
O101 Cd100 2.240 . S
O101 C106 1.279 . S
O102 Cd99 2.297 . S
O102 C104 1.247 . S
O103 Cd99 2.439 . S
O103 C104 1.208 . S
C104 O102 1.247 . S
C104 O103 1.208 . S
C105 O110 1.247 . S
C105 O111 1.208 . S
C106 O98 1.315 . S
C106 O101 1.279 . S
C107 O108 1.315 . S
C107 O109 1.279 . S
O108 Cd100 2.223 . S
O108 C107 1.315 . S
O109 Cd99 2.240 . S
O109 C107 1.279 . S
O110 Cd100 2.297 . S
O110 C105 1.247 . S
O111 Cd100 2.439 . S
O111 C105 1.208 . S
O112 Cd113 2.223 . S
O112 C120 1.315 . S
Cd113 O112 2.223 . S
Cd113 O116 2.297 . S
Cd113 O117 2.439 . S
Cd113 O123 2.240 . S
Cd114 O115 2.240 . S
Cd114 O122 2.223 . S
Cd114 O124 2.297 . S
Cd114 O125 2.439 . S
O115 Cd114 2.240 . S
O115 C120 1.279 . S
O116 Cd113 2.297 . S
O116 C118 1.247 . S
O117 Cd113 2.439 . S
O117 C118 1.208 . S
C118 O116 1.247 . S
C118 O117 1.208 . S
C119 O124 1.247 . S
C119 O125 1.208 . S
C120 O112 1.315 . S
C120 O115 1.279 . S
C121 O122 1.315 . S
C121 O123 1.279 . S
O122 Cd114 2.223 . S
O122 C121 1.315 . S
O123 Cd113 2.240 . S
O123 C121 1.279 . S
O124 Cd114 2.297 . S
O124 C119 1.247 . S
O125 Cd114 2.439 . S
O125 C119 1.208 . S
O126 Cd127 2.223 . S
O126 C134 1.315 . S
Cd127 O126 2.223 . S
Cd127 O130 2.297 . S
Cd127 O131 2.439 . S
Cd127 O137 2.240 . S
Cd128 O129 2.240 . S
Cd128 O136 2.223 . S
Cd128 O138 2.297 . S
Cd128 O139 2.439 . S
O129 Cd128 2.240 . S
O129 C134 1.279 . S
O130 Cd127 2.297 . S
O130 C132 1.247 . S
O131 Cd127 2.439 . S
O131 C132 1.208 . S
C132 O130 1.247 . S
C132 O131 1.208 . S
C133 O138 1.247 . S
C133 O139 1.208 . S
C134 O126 1.315 . S
C134 O129 1.279 . S
C135 O136 1.315 . S
C135 O137 1.279 . S
O136 Cd128 2.223 . S
O136 C135 1.315 . S
O137 Cd127 2.240 . S
O137 C135 1.279 . S
O138 Cd128 2.297 . S
O138 C133 1.247 . S
O139 Cd128 2.439 . S
O139 C133 1.208 . S
O140 Cd141 2.223 . S
O140 C148 1.315 . S
Cd141 O140 2.223 . S
Cd141 O144 2.297 . S
Cd141 O145 2.439 . S
Cd141 O151 2.240 . S
Cd142 O143 2.240 . S
Cd142 O150 2.223 . S
Cd142 O152 2.297 . S
Cd142 O153 2.439 . S
O143 Cd142 2.240 . S
O143 C148 1.279 . S
O144 Cd141 2.297 . S
O144 C146 1.247 . S
O145 Cd141 2.439 . S
O145 C146 1.208 . S
C146 O144 1.247 . S
C146 O145 1.208 . S
C147 O152 1.247 . S
C147 O153 1.208 . S
C148 O140 1.315 . S
C148 O143 1.279 . S
C149 O150 1.315 . S
C149 O151 1.279 . S
O150 Cd142 2.223 . S
O150 C149 1.315 . S
O151 Cd141 2.240 . S
O151 C149 1.279 . S
O152 Cd142 2.297 . S
O152 C147 1.247 . S
O153 Cd142 2.439 . S
O153 C147 1.208 . S
O154 Cd155 2.223 . S
O154 C162 1.315 . S
Cd155 O154 2.223 . S
Cd155 O158 2.297 . S
Cd155 O159 2.439 . S
Cd155 O165 2.240 . S
Cd156 O157 2.240 . S
Cd156 O164 2.223 . S
Cd156 O166 2.297 . S
Cd156 O167 2.439 . S
O157 Cd156 2.240 . S
O157 C162 1.279 . S
O158 Cd155 2.297 . S
O158 C160 1.247 . S
O159 Cd155 2.439 . S
O159 C160 1.208 . S
C160 O158 1.247 . S
C160 O159 1.208 . S
C161 O166 1.247 . S
C161 O167 1.208 . S
C162 O154 1.315 . S
C162 O157 1.279 . S
C163 O164 1.315 . S
C163 O165 1.279 . S
O164 Cd156 2.223 . S
O164 C163 1.315 . S
O165 Cd155 2.240 . S
O165 C163 1.279 . S
O166 Cd156 2.297 . S
O166 C161 1.247 . S
O167 Cd156 2.439 . S
O167 C161 1.208 . S
O168 Cd169 2.224 1_455 S
O168 C176 1.312 . S
Cd169 O168 2.224 1_655 S
Cd169 O172 2.297 . S
Cd169 O173 2.439 1_655 S
Cd169 O179 2.240 1_655 S
Cd170 O171 2.240 . S
Cd170 O178 2.223 . S
Cd170 O180 2.297 . S
Cd170 O181 2.439 . S
O171 Cd170 2.240 . S
O171 C176 1.279 . S
O172 Cd169 2.297 . S
O172 C174 1.247 1_655 S
O173 Cd169 2.439 1_455 S
O173 C174 1.208 . S
C174 O172 1.247 1_455 S
C174 O173 1.208 . S
C175 O180 1.247 . S
C175 O181 1.208 . S
C176 O168 1.312 . S
C176 O171 1.279 . S
C177 O178 1.315 . S
C177 O179 1.279 . S
O178 Cd170 2.223 . S
O178 C177 1.315 . S
O179 Cd169 2.240 1_455 S
O179 C177 1.279 . S
O180 Cd170 2.297 . S
O180 C175 1.247 . S
O181 Cd170 2.439 . S
O181 C175 1.208 . S
O182 Cd183 2.223 . S
O182 C190 1.315 . S
Cd183 O182 2.223 . S
Cd183 O186 2.297 . S
Cd183 O187 2.439 . S
Cd183 O193 2.240 . S
Cd184 O185 2.240 . S
Cd184 O192 2.223 . S
Cd184 O194 2.297 . S
Cd184 O195 2.439 . S
O185 Cd184 2.240 . S
O185 C190 1.279 . S
O186 Cd183 2.297 . S
O186 C188 1.247 . S
O187 Cd183 2.439 . S
O187 C188 1.208 . S
C188 O186 1.247 . S
C188 O187 1.208 . S
C189 O194 1.247 . S
C189 O195 1.208 . S
C190 O182 1.315 . S
C190 O185 1.279 . S
C191 O192 1.315 . S
C191 O193 1.279 . S
O192 Cd184 2.223 . S
O192 C191 1.315 . S
O193 Cd183 2.240 . S
O193 C191 1.279 . S
O194 Cd184 2.297 . S
O194 C189 1.247 . S
O195 Cd184 2.439 . S
O195 C189 1.208 . S
O196 Cd197 2.223 1_565 S
O196 C204 1.312 . S
Cd197 O196 2.223 1_545 S
Cd197 O200 2.297 . S
Cd197 O201 2.439 1_545 S
Cd197 O207 2.240 1_545 S
Cd198 O199 2.240 . S
Cd198 O206 2.223 . S
Cd198 O208 2.297 . S
Cd198 O209 2.439 . S
O199 Cd198 2.240 . S
O199 C204 1.279 . S
O200 Cd197 2.297 . S
O200 C202 1.247 1_545 S
O201 Cd197 2.439 1_565 S
O201 C202 1.208 . S
C202 O200 1.247 1_565 S
C202 O201 1.208 . S
C203 O208 1.247 . S
C203 O209 1.208 . S
C204 O196 1.312 . S
C204 O199 1.279 . S
C205 O206 1.315 . S
C205 O207 1.279 . S
O206 Cd198 2.223 . S
O206 C205 1.315 . S
O207 Cd197 2.240 1_565 S
O207 C205 1.279 . S
O208 Cd198 2.297 . S
O208 C203 1.247 . S
O209 Cd198 2.439 . S
O209 C203 1.208 . S
O210 Cd211 2.223 . S
O210 C218 1.315 . S
Cd211 O210 2.223 . S
Cd211 O214 2.297 . S
Cd211 O215 2.439 . S
Cd211 O221 2.240 . S
Cd212 O213 2.240 . S
Cd212 O220 2.223 . S
Cd212 O222 2.297 . S
Cd212 O223 2.439 . S
O213 Cd212 2.240 . S
O213 C218 1.279 . S
O214 Cd211 2.297 . S
O214 C216 1.247 . S
O215 Cd211 2.439 . S
O215 C216 1.208 . S
C216 O214 1.247 . S
C216 O215 1.208 . S
C217 O222 1.247 . S
C217 O223 1.208 . S
C218 O210 1.315 . S
C218 O213 1.279 . S
C219 O220 1.315 . S
C219 O221 1.279 . S
O220 Cd212 2.223 . S
O220 C219 1.315 . S
O221 Cd211 2.240 . S
O221 C219 1.279 . S
O222 Cd212 2.297 . S
O222 C217 1.247 . S
O223 Cd212 2.439 . S
O223 C217 1.208 . S
O224 Cd225 2.223 . S
O224 C232 1.315 . S
Cd225 O224 2.223 . S
Cd225 O228 2.297 . S
Cd225 O229 2.439 . S
Cd225 O235 2.240 . S
Cd226 O227 2.240 . S
Cd226 O234 2.223 . S
Cd226 O236 2.297 . S
Cd226 O237 2.439 . S
O227 Cd226 2.240 . S
O227 C232 1.279 . S
O228 Cd225 2.297 . S
O228 C230 1.247 . S
O229 Cd225 2.439 . S
O229 C230 1.208 . S
C230 O228 1.247 . S
C230 O229 1.208 . S
C231 O236 1.247 . S
C231 O237 1.208 . S
C232 O224 1.315 . S
C232 O227 1.279 . S
C233 O234 1.315 . S
C233 O235 1.279 . S
O234 Cd226 2.223 . S
O234 C233 1.315 . S
O235 Cd225 2.240 . S
O235 C233 1.279 . S
O236 Cd226 2.297 . S
O236 C231 1.247 . S
O237 Cd226 2.439 . S
O237 C231 1.208 . S
O238 Cd239 2.223 . S
O238 C246 1.315 . S
Cd239 O238 2.223 . S
Cd239 O242 2.297 . S
Cd239 O243 2.439 . S
Cd239 O249 2.240 . S
Cd240 O241 2.240 . S
Cd240 O248 2.223 . S
Cd240 O250 2.297 . S
Cd240 O251 2.439 . S
O241 Cd240 2.240 . S
O241 C246 1.279 . S
O242 Cd239 2.297 . S
O242 C244 1.247 . S
O243 Cd239 2.439 . S
O243 C244 1.208 . S
C244 O242 1.247 . S
C244 O243 1.208 . S
C245 O250 1.247 . S
C245 O251 1.208 . S
C246 O238 1.315 . S
C246 O241 1.279 . S
C247 O248 1.315 . S
C247 O249 1.279 . S
O248 Cd240 2.223 . S
O248 C247 1.315 . S
O249 Cd239 2.240 . S
O249 C247 1.279 . S
O250 Cd240 2.297 . S
O250 C245 1.247 . S
O251 Cd240 2.439 . S
O251 C245 1.208 . S
O252 Cd253 2.223 . S
O252 C260 1.315 . S
Cd253 O252 2.223 . S
Cd253 O256 2.297 . S
Cd253 O257 2.439 . S
Cd253 O263 2.240 . S
Cd254 O255 2.240 . S
Cd254 O262 2.223 . S
Cd254 O264 2.297 . S
Cd254 O265 2.439 . S
O255 Cd254 2.240 . S
O255 C260 1.279 . S
O256 Cd253 2.297 . S
O256 C258 1.247 . S
O257 Cd253 2.439 . S
O257 C258 1.208 . S
C258 O256 1.247 . S
C258 O257 1.208 . S
C259 O264 1.247 . S
C259 O265 1.208 . S
C260 O252 1.315 . S
C260 O255 1.279 . S
C261 O262 1.315 . S
C261 O263 1.279 . S
O262 Cd254 2.223 . S
O262 C261 1.315 . S
O263 Cd253 2.240 . S
O263 C261 1.279 . S
O264 Cd254 2.297 . S
O264 C259 1.247 . S
O265 Cd254 2.439 . S
O265 C259 1.208 . S
O266 Cd267 2.223 . S
O266 C274 1.315 . S
Cd267 O266 2.223 . S
Cd267 O270 2.297 . S
Cd267 O271 2.439 . S
Cd267 O277 2.240 . S
Cd268 O269 2.240 . S
Cd268 O276 2.223 . S
Cd268 O278 2.297 . S
Cd268 O279 2.439 . S
O269 Cd268 2.240 . S
O269 C274 1.279 . S
O270 Cd267 2.297 . S
O270 C272 1.247 . S
O271 Cd267 2.439 . S
O271 C272 1.208 . S
C272 O270 1.247 . S
C272 O271 1.208 . S
C273 O278 1.247 . S
C273 O279 1.208 . S
C274 O266 1.315 . S
C274 O269 1.279 . S
C275 O276 1.315 . S
C275 O277 1.279 . S
O276 Cd268 2.223 . S
O276 C275 1.315 . S
O277 Cd267 2.240 . S
O277 C275 1.279 . S
O278 Cd268 2.297 . S
O278 C273 1.247 . S
O279 Cd268 2.439 . S
O279 C273 1.208 . S
O280 Cd281 2.223 . S
O280 C288 1.315 . S
Cd281 O280 2.223 . S
Cd281 O284 2.297 . S
Cd281 O285 2.439 . S
Cd281 O291 2.240 . S
Cd282 O283 2.240 . S
Cd282 O290 2.223 . S
Cd282 O292 2.297 . S
Cd282 O293 2.439 . S
O283 Cd282 2.240 . S
O283 C288 1.279 . S
O284 Cd281 2.297 . S
O284 C286 1.247 . S
O285 Cd281 2.439 . S
O285 C286 1.208 . S
C286 O284 1.247 . S
C286 O285 1.208 . S
C287 O292 1.247 . S
C287 O293 1.208 . S
C288 O280 1.315 . S
C288 O283 1.279 . S
C289 O290 1.315 . S
C289 O291 1.279 . S
O290 Cd282 2.223 . S
O290 C289 1.315 . S
O291 Cd281 2.240 . S
O291 C289 1.279 . S
O292 Cd282 2.297 . S
O292 C287 1.247 . S
O293 Cd282 2.439 . S
O293 C287 1.208 . S
O294 Cd295 2.224 1_565 S
O294 C302 1.312 . S
Cd295 O294 2.224 1_545 S
Cd295 O298 2.297 . S
Cd295 O299 2.439 1_545 S
Cd295 O305 2.240 1_545 S
Cd296 O297 2.240 . S
Cd296 O304 2.223 . S
Cd296 O306 2.297 . S
Cd296 O307 2.439 . S
O297 Cd296 2.240 . S
O297 C302 1.279 . S
O298 Cd295 2.297 . S
O298 C300 1.247 1_545 S
O299 Cd295 2.439 1_565 S
O299 C300 1.208 . S
C300 O298 1.247 1_565 S
C300 O299 1.208 . S
C301 O306 1.247 . S
C301 O307 1.208 . S
C302 O294 1.312 . S
C302 O297 1.279 . S
C303 O304 1.315 . S
C303 O305 1.279 . S
O304 Cd296 2.223 . S
O304 C303 1.315 . S
O305 Cd295 2.240 1_565 S
O305 C303 1.279 . S
O306 Cd296 2.297 . S
O306 C301 1.247 . S
O307 Cd296 2.439 . S
O307 C301 1.208 . S
O308 Cd309 2.223 1_455 S
O308 C316 1.312 . S
Cd309 O308 2.223 1_655 S
Cd309 O312 2.297 . S
Cd309 O313 2.439 1_655 S
Cd309 O319 2.240 1_655 S
Cd310 O311 2.240 . S
Cd310 O318 2.223 . S
Cd310 O320 2.297 . S
Cd310 O321 2.439 . S
O311 Cd310 2.240 . S
O311 C316 1.279 . S
O312 Cd309 2.297 . S
O312 C314 1.247 1_655 S
O313 Cd309 2.439 1_455 S
O313 C314 1.208 . S
C314 O312 1.247 1_455 S
C314 O313 1.208 . S
C315 O320 1.247 . S
C315 O321 1.208 . S
C316 O308 1.312 . S
C316 O311 1.279 . S
C317 O318 1.315 . S
C317 O319 1.279 . S
O318 Cd310 2.223 . S
O318 C317 1.315 . S
O319 Cd309 2.240 1_455 S
O319 C317 1.279 . S
O320 Cd310 2.297 . S
O320 C315 1.247 . S
O321 Cd310 2.439 . S
O321 C315 1.208 . S
O322 Cd323 2.223 . S
O322 C330 1.315 . S
Cd323 O322 2.223 . S
Cd323 O326 2.297 . S
Cd323 O327 2.439 . S
Cd323 O333 2.240 . S
Cd324 O325 2.240 . S
Cd324 O332 2.223 . S
Cd324 O334 2.297 . S
Cd324 O335 2.439 . S
O325 Cd324 2.240 . S
O325 C330 1.279 . S
O326 Cd323 2.297 . S
O326 C328 1.247 . S
O327 Cd323 2.439 . S
O327 C328 1.208 . S
C328 O326 1.247 . S
C328 O327 1.208 . S
C329 O334 1.247 . S
C329 O335 1.208 . S
C330 O322 1.315 . S
C330 O325 1.279 . S
C331 O332 1.315 . S
C331 O333 1.279 . S
O332 Cd324 2.223 . S
O332 C331 1.315 . S
O333 Cd323 2.240 . S
O333 C331 1.279 . S
O334 Cd324 2.297 . S
O334 C329 1.247 . S
O335 Cd324 2.439 . S
O335 C329 1.208 . S
O336 Cd337 2.223 . S
O336 C344 1.315 . S
Cd337 O336 2.223 . S
Cd337 O340 2.297 . S
Cd337 O341 2.439 . S
Cd337 O347 2.240 . S
Cd338 O339 2.240 . S
Cd338 O346 2.223 . S
Cd338 O348 2.297 . S
Cd338 O349 2.439 . S
O339 Cd338 2.240 . S
O339 C344 1.279 . S
O340 Cd337 2.297 . S
O340 C342 1.247 . S
O341 Cd337 2.439 . S
O341 C342 1.208 . S
C342 O340 1.247 . S
C342 O341 1.208 . S
C343 O348 1.247 . S
C343 O349 1.208 . S
C344 O336 1.315 . S
C344 O339 1.279 . S
C345 O346 1.315 . S
C345 O347 1.279 . S
O346 Cd338 2.223 . S
O346 C345 1.315 . S
O347 Cd337 2.240 . S
O347 C345 1.279 . S
O348 Cd338 2.297 . S
O348 C343 1.247 . S
O349 Cd338 2.439 . S
O349 C343 1.208 . S
O350 Cd351 2.223 . S
O350 C358 1.315 . S
Cd351 O350 2.223 . S
Cd351 O354 2.297 . S
Cd351 O355 2.439 . S
Cd351 O361 2.240 . S
Cd352 O353 2.240 . S
Cd352 O360 2.223 . S
Cd352 O362 2.297 . S
Cd352 O363 2.439 . S
O353 Cd352 2.240 . S
O353 C358 1.279 . S
O354 Cd351 2.297 . S
O354 C356 1.247 . S
O355 Cd351 2.439 . S
O355 C356 1.208 . S
C356 O354 1.247 . S
C356 O355 1.208 . S
C357 O362 1.247 . S
C357 O363 1.208 . S
C358 O350 1.315 . S
C358 O353 1.279 . S
C359 O360 1.315 . S
C359 O361 1.279 . S
O360 Cd352 2.223 . S
O360 C359 1.315 . S
O361 Cd351 2.240 . S
O361 C359 1.279 . S
O362 Cd352 2.297 . S
O362 C357 1.247 . S
O363 Cd352 2.439 . S
O363 C357 1.208 . S
O364 Cd365 2.223 . S
O364 C372 1.315 . S
Cd365 O364 2.223 . S
Cd365 O368 2.297 . S
Cd365 O369 2.439 . S
Cd365 O375 2.240 . S
Cd366 O367 2.240 . S
Cd366 O374 2.223 . S
Cd366 O376 2.297 . S
Cd366 O377 2.439 . S
O367 Cd366 2.240 . S
O367 C372 1.279 . S
O368 Cd365 2.297 . S
O368 C370 1.247 . S
O369 Cd365 2.439 . S
O369 C370 1.208 . S
C370 O368 1.247 . S
C370 O369 1.208 . S
C371 O376 1.247 . S
C371 O377 1.208 . S
C372 O364 1.315 . S
C372 O367 1.279 . S
C373 O374 1.315 . S
C373 O375 1.279 . S
O374 Cd366 2.223 . S
O374 C373 1.315 . S
O375 Cd365 2.240 . S
O375 C373 1.279 . S
O376 Cd366 2.297 . S
O376 C371 1.247 . S
O377 Cd366 2.439 . S
O377 C371 1.208 . S
O378 Cd379 2.224 1_545 S
O378 C386 1.312 . S
Cd379 O378 2.224 1_565 S
Cd379 O382 2.297 . S
Cd379 O383 2.439 1_565 S
Cd379 O389 2.240 1_565 S
Cd380 O381 2.240 . S
Cd380 O388 2.223 . S
Cd380 O390 2.297 . S
Cd380 O391 2.439 . S
O381 Cd380 2.240 . S
O381 C386 1.279 . S
O382 Cd379 2.297 . S
O382 C384 1.247 1_565 S
O383 Cd379 2.439 1_545 S
O383 C384 1.208 . S
C384 O382 1.247 1_545 S
C384 O383 1.208 . S
C385 O390 1.247 . S
C385 O391 1.208 . S
C386 O378 1.312 . S
C386 O381 1.279 . S
C387 O388 1.315 . S
C387 O389 1.279 . S
O388 Cd380 2.223 . S
O388 C387 1.315 . S
O389 Cd379 2.240 1_545 S
O389 C387 1.279 . S
O390 Cd380 2.297 . S
O390 C385 1.247 . S
O391 Cd380 2.439 . S
O391 C385 1.208 . S
O392 Cd393 2.223 1_655 S
O392 C400 1.312 . S
Cd393 O392 2.223 1_455 S
Cd393 O396 2.297 . S
Cd393 O397 2.439 1_455 S
Cd393 O403 2.240 1_455 S
Cd394 O395 2.240 . S
Cd394 O402 2.223 . S
Cd394 O404 2.297 . S
Cd394 O405 2.439 . S
O395 Cd394 2.240 . S
O395 C400 1.279 . S
O396 Cd393 2.297 . S
O396 C398 1.247 1_455 S
O397 Cd393 2.439 1_655 S
O397 C398 1.208 . S
C398 O396 1.247 1_655 S
C398 O397 1.208 . S
C399 O404 1.247 . S
C399 O405 1.208 . S
C400 O392 1.312 . S
C400 O395 1.279 . S
C401 O402 1.315 . S
C401 O403 1.279 . S
O402 Cd394 2.223 . S
O402 C401 1.315 . S
O403 Cd393 2.240 1_655 S
O403 C401 1.279 . S
O404 Cd394 2.297 . S
O404 C399 1.247 . S
O405 Cd394 2.439 . S
O405 C399 1.208 . S
O406 Cd407 2.223 . S
O406 C414 1.315 . S
Cd407 O406 2.223 . S
Cd407 O410 2.297 . S
Cd407 O411 2.439 . S
Cd407 O417 2.240 . S
Cd408 O409 2.240 . S
Cd408 O416 2.223 . S
Cd408 O418 2.297 . S
Cd408 O419 2.439 . S
O409 Cd408 2.240 . S
O409 C414 1.279 . S
O410 Cd407 2.297 . S
O410 C412 1.247 . S
O411 Cd407 2.439 . S
O411 C412 1.208 . S
C412 O410 1.247 . S
C412 O411 1.208 . S
C413 O418 1.247 . S
C413 O419 1.208 . S
C414 O406 1.315 . S
C414 O409 1.279 . S
C415 O416 1.315 . S
C415 O417 1.279 . S
O416 Cd408 2.223 . S
O416 C415 1.315 . S
O417 Cd407 2.240 . S
O417 C415 1.279 . S
O418 Cd408 2.297 . S
O418 C413 1.247 . S
O419 Cd408 2.439 . S
O419 C413 1.208 . S
O420 Cd421 2.224 1_655 S
O420 C428 1.312 . S
Cd421 O420 2.224 1_455 S
Cd421 O424 2.297 . S
Cd421 O425 2.439 1_455 S
Cd421 O431 2.240 1_455 S
Cd422 O423 2.240 . S
Cd422 O430 2.223 . S
Cd422 O432 2.297 . S
Cd422 O433 2.439 . S
O423 Cd422 2.240 . S
O423 C428 1.279 . S
O424 Cd421 2.297 . S
O424 C426 1.247 1_455 S
O425 Cd421 2.439 1_655 S
O425 C426 1.208 . S
C426 O424 1.247 1_655 S
C426 O425 1.208 . S
C427 O432 1.247 . S
C427 O433 1.208 . S
C428 O420 1.312 . S
C428 O423 1.279 . S
C429 O430 1.315 . S
C429 O431 1.279 . S
O430 Cd422 2.223 . S
O430 C429 1.315 . S
O431 Cd421 2.240 1_655 S
O431 C429 1.279 . S
O432 Cd422 2.297 . S
O432 C427 1.247 . S
O433 Cd422 2.439 . S
O433 C427 1.208 . S
O434 Cd435 2.223 . S
O434 C442 1.315 . S
Cd435 O434 2.223 . S
Cd435 O438 2.297 . S
Cd435 O439 2.439 . S
Cd435 O445 2.240 . S
Cd436 O437 2.240 . S
Cd436 O444 2.223 . S
Cd436 O446 2.297 . S
Cd436 O447 2.439 . S
O437 Cd436 2.240 . S
O437 C442 1.279 . S
O438 Cd435 2.297 . S
O438 C440 1.247 . S
O439 Cd435 2.439 . S
O439 C440 1.208 . S
C440 O438 1.247 . S
C440 O439 1.208 . S
C441 O446 1.247 . S
C441 O447 1.208 . S
C442 O434 1.315 . S
C442 O437 1.279 . S
C443 O444 1.315 . S
C443 O445 1.279 . S
O444 Cd436 2.223 . S
O444 C443 1.315 . S
O445 Cd435 2.240 . S
O445 C443 1.279 . S
O446 Cd436 2.297 . S
O446 C441 1.247 . S
O447 Cd436 2.439 . S
O447 C441 1.208 . S
O448 Cd449 2.223 1_545 S
O448 C456 1.312 . S
Cd449 O448 2.223 1_565 S
Cd449 O452 2.297 . S
Cd449 O453 2.439 1_565 S
Cd449 O459 2.240 1_565 S
Cd450 O451 2.240 . S
Cd450 O458 2.223 . S
Cd450 O460 2.297 . S
Cd450 O461 2.439 . S
O451 Cd450 2.240 . S
O451 C456 1.279 . S
O452 Cd449 2.297 . S
O452 C454 1.247 1_565 S
O453 Cd449 2.439 1_545 S
O453 C454 1.208 . S
C454 O452 1.247 1_545 S
C454 O453 1.208 . S
C455 O460 1.247 . S
C455 O461 1.208 . S
C456 O448 1.312 . S
C456 O451 1.279 . S
C457 O458 1.315 . S
C457 O459 1.279 . S
O458 Cd450 2.223 . S
O458 C457 1.315 . S
O459 Cd449 2.240 1_545 S
O459 C457 1.279 . S
O460 Cd450 2.297 . S
O460 C455 1.247 . S
O461 Cd450 2.439 . S
O461 C455 1.208 . S
O462 Cd463 2.223 . S
O462 C470 1.315 . S
Cd463 O462 2.223 . S
Cd463 O466 2.297 . S
Cd463 O467 2.439 . S
Cd463 O473 2.240 . S
Cd464 O465 2.240 . S
Cd464 O472 2.223 . S
Cd464 O474 2.297 . S
Cd464 O475 2.439 . S
O465 Cd464 2.240 . S
O465 C470 1.279 . S
O466 Cd463 2.297 . S
O466 C468 1.247 . S
O467 Cd463 2.439 . S
O467 C468 1.208 . S
C468 O466 1.247 . S
C468 O467 1.208 . S
C469 O474 1.247 . S
C469 O475 1.208 . S
C470 O462 1.315 . S
C470 O465 1.279 . S
C471 O472 1.315 . S
C471 O473 1.279 . S
O472 Cd464 2.223 . S
O472 C471 1.315 . S
O473 Cd463 2.240 . S
O473 C471 1.279 . S
O474 Cd464 2.297 . S
O474 C469 1.247 . S
O475 Cd464 2.439 . S
O475 C469 1.208 . S
O476 Cd477 2.223 . S
O476 C484 1.315 . S
Cd477 O476 2.223 . S
Cd477 O480 2.297 . S
Cd477 O481 2.439 . S
Cd477 O487 2.240 . S
Cd478 O479 2.240 . S
Cd478 O486 2.223 . S
Cd478 O488 2.297 . S
Cd478 O489 2.439 . S
O479 Cd478 2.240 . S
O479 C484 1.279 . S
O480 Cd477 2.297 . S
O480 C482 1.247 . S
O481 Cd477 2.439 . S
O481 C482 1.208 . S
C482 O480 1.247 . S
C482 O481 1.208 . S
C483 O488 1.247 . S
C483 O489 1.208 . S
C484 O476 1.315 . S
C484 O479 1.279 . S
C485 O486 1.315 . S
C485 O487 1.279 . S
O486 Cd478 2.223 . S
O486 C485 1.315 . S
O487 Cd477 2.240 . S
O487 C485 1.279 . S
O488 Cd478 2.297 . S
O488 C483 1.247 . S
O489 Cd478 2.439 . S
O489 C483 1.208 . S
O490 Cd491 2.223 . S
O490 C498 1.315 . S
Cd491 O490 2.223 . S
Cd491 O494 2.297 . S
Cd491 O495 2.439 . S
Cd491 O501 2.240 . S
Cd492 O493 2.240 . S
Cd492 O500 2.223 . S
Cd492 O502 2.297 . S
Cd492 O503 2.439 . S
O493 Cd492 2.240 . S
O493 C498 1.279 . S
O494 Cd491 2.297 . S
O494 C496 1.247 . S
O495 Cd491 2.439 . S
O495 C496 1.208 . S
C496 O494 1.247 . S
C496 O495 1.208 . S
C497 O502 1.247 . S
C497 O503 1.208 . S
C498 O490 1.315 . S
C498 O493 1.279 . S
C499 O500 1.315 . S
C499 O501 1.279 . S
O500 Cd492 2.223 . S
O500 C499 1.315 . S
O501 Cd491 2.240 . S
O501 C499 1.279 . S
O502 Cd492 2.297 . S
O502 C497 1.247 . S
O503 Cd492 2.439 . S
O503 C497 1.208 . S
H504 C516 0.930 . S
H505 C518 0.930 . S
H506 C519 0.930 . S
H507 C523 0.965 1_545 S
H508 C523 0.959 1_545 S
H509 C523 0.961 . S
H510 C524 0.960 . S
H511 C524 0.961 1_545 S
H512 C524 0.990 . S
H513 C527 0.929 . S
H514 C528 0.931 . S
H515 C530 0.930 . S
C516 H504 0.930 . S
C516 C517 1.399 . S
C516 C521 1.399 . S
C517 C516 1.399 . S
C517 C518 1.376 . S
C518 H505 0.930 . S
C518 C517 1.376 . S
C518 C519 1.388 . S
C519 H506 0.930 . S
C519 C518 1.388 . S
C519 C520 1.390 . S
C520 C519 1.390 . S
C520 C521 1.394 . S
C520 C526 1.465 1_565 S
C521 C516 1.399 . S
C521 C520 1.394 . S
C521 C522 1.516 . S
C522 C521 1.516 . S
C522 C523 1.502 . S
C522 C524 1.561 . S
C522 C525 1.526 1_565 S
C523 H507 0.965 1_565 S
C523 H508 0.959 1_565 S
C523 H509 0.961 . S
C523 C522 1.502 . S
C524 H510 0.960 . S
C524 H511 0.961 1_565 S
C524 H512 0.990 . S
C524 C522 1.561 . S
C525 C522 1.526 1_545 S
C525 C526 1.396 . S
C525 C530 1.390 . S
C526 C520 1.465 1_545 S
C526 C525 1.396 . S
C526 C527 1.399 . S
C527 H513 0.929 . S
C527 C526 1.399 . S
C527 C528 1.385 . S
C528 H514 0.931 . S
C528 C527 1.385 . S
C528 C529 1.389 . S
C529 C528 1.389 . S
C529 C530 1.387 . S
C530 H515 0.930 . S
C530 C525 1.390 . S
C530 C529 1.387 . S
H531 C543 0.930 . S
H532 C545 0.930 . S
H533 C546 0.930 . S
H534 C550 0.959 . S
H535 C550 0.959 . S
H536 C550 0.961 1_455 S
H537 C551 0.960 1_455 S
H538 C551 0.961 . S
H539 C551 0.959 . S
H540 C554 0.929 . S
H541 C555 0.931 . S
H542 C557 0.930 . S
C543 H531 0.930 . S
C543 C544 1.399 . S
C543 C548 1.399 . S
C544 C543 1.399 . S
C544 C545 1.376 . S
C545 H532 0.930 . S
C545 C544 1.376 . S
C545 C546 1.388 . S
C546 H533 0.930 . S
C546 C545 1.388 . S
C546 C547 1.390 . S
C547 C546 1.390 . S
C547 C548 1.394 . S
C547 C553 1.465 1_455 S
C548 C543 1.399 . S
C548 C547 1.394 . S
C548 C549 1.516 1_455 S
C549 C548 1.516 1_655 S
C549 C550 1.502 . S
C549 C551 1.561 . S
C549 C552 1.526 . S
C550 H534 0.959 . S
C550 H535 0.959 . S
C550 H536 0.961 1_655 S
C550 C549 1.502 . S
C551 H537 0.960 1_655 S
C551 H538 0.961 . S
C551 H539 0.959 . S
C551 C549 1.561 . S
C552 C549 1.526 . S
C552 C553 1.396 . S
C552 C557 1.390 . S
C553 C547 1.465 1_655 S
C553 C552 1.396 . S
C553 C554 1.399 . S
C554 H540 0.929 . S
C554 C553 1.399 . S
C554 C555 1.385 . S
C555 H541 0.931 . S
C555 C554 1.385 . S
C555 C556 1.389 . S
C556 C555 1.389 . S
C556 C557 1.387 . S
C557 H542 0.930 . S
C557 C552 1.390 . S
C557 C556 1.387 . S
H558 C570 0.930 . S
H559 C572 0.930 . S
H560 C573 0.930 . S
H561 C577 0.959 . S
H562 C577 0.959 . S
H563 C577 0.961 . S
H564 C578 0.960 . S
H565 C578 0.961 . S
H566 C578 0.959 . S
H567 C581 0.929 . S
H568 C582 0.931 . S
H569 C584 0.930 . S
C570 H558 0.930 . S
C570 C571 1.399 . S
C570 C575 1.399 . S
C571 C570 1.399 . S
C571 C572 1.376 . S
C572 H559 0.930 . S
C572 C571 1.376 . S
C572 C573 1.388 . S
C573 H560 0.930 . S
C573 C572 1.388 . S
C573 C574 1.390 . S
C574 C573 1.390 . S
C574 C575 1.394 . S
C574 C580 1.465 . S
C575 C570 1.399 . S
C575 C574 1.394 . S
C575 C576 1.516 . S
C576 C575 1.516 . S
C576 C577 1.502 . S
C576 C578 1.561 . S
C576 C579 1.526 . S
C577 H561 0.959 . S
C577 H562 0.959 . S
C577 H563 0.961 . S
C577 C576 1.502 . S
C578 H564 0.960 . S
C578 H565 0.961 . S
C578 H566 0.959 . S
C578 C576 1.561 . S
C579 C576 1.526 . S
C579 C580 1.396 . S
C579 C584 1.390 . S
C580 C574 1.465 . S
C580 C579 1.396 . S
C580 C581 1.399 . S
C581 H567 0.929 . S
C581 C580 1.399 . S
C581 C582 1.385 . S
C582 H568 0.931 . S
C582 C581 1.385 . S
C582 C583 1.389 . S
C583 C582 1.389 . S
C583 C584 1.387 . S
C584 H569 0.930 . S
C584 C579 1.390 . S
C584 C583 1.387 . S
H585 C597 0.930 . S
H586 C599 0.930 . S
H587 C600 0.930 . S
H588 C604 0.959 . S
H589 C604 0.959 . S
H590 C604 0.961 1_565 S
H591 C605 0.960 1_565 S
H592 C605 0.961 . S
H593 C605 0.959 . S
H594 C608 0.929 . S
H595 C609 0.931 . S
H596 C611 0.930 . S
C597 H585 0.930 . S
C597 C598 1.399 . S
C597 C602 1.399 . S
C598 C597 1.399 . S
C598 C599 1.376 . S
C599 H586 0.930 . S
C599 C598 1.376 . S
C599 C600 1.388 . S
C600 H587 0.930 . S
C600 C599 1.388 . S
C600 C601 1.390 . S
C601 C600 1.390 . S
C601 C602 1.394 . S
C601 C607 1.465 1_565 S
C602 C597 1.399 . S
C602 C601 1.394 . S
C602 C603 1.516 1_565 S
C603 C602 1.516 1_545 S
C603 C604 1.502 . S
C603 C605 1.561 . S
C603 C606 1.526 . S
C604 H588 0.959 . S
C604 H589 0.959 . S
C604 H590 0.961 1_545 S
C604 C603 1.502 . S
C605 H591 0.960 1_545 S
C605 H592 0.961 . S
C605 H593 0.959 . S
C605 C603 1.561 . S
C606 C603 1.526 . S
C606 C607 1.396 . S
C606 C611 1.390 . S
C607 C601 1.465 1_545 S
C607 C606 1.396 . S
C607 C608 1.399 . S
C608 H594 0.929 . S
C608 C607 1.399 . S
C608 C609 1.385 . S
C609 H595 0.931 . S
C609 C608 1.385 . S
C609 C610 1.389 . S
C610 C609 1.389 . S
C610 C611 1.387 . S
C611 H596 0.930 . S
C611 C606 1.390 . S
C611 C610 1.387 . S
H612 C624 0.930 . S
H613 C626 0.930 . S
H614 C627 0.930 . S
H615 C631 0.956 . S
H616 C631 0.966 . S
H617 C631 0.945 1_455 S
H618 C632 0.960 1_455 S
H619 C632 0.961 . S
H620 C632 0.959 . S
H621 C635 0.929 . S
H622 C636 0.931 . S
H623 C638 0.930 . S
C624 H612 0.930 . S
C624 C625 1.399 . S
C624 C629 1.399 . S
C625 C624 1.399 . S
C625 C626 1.376 . S
C626 H613 0.930 . S
C626 C625 1.376 . S
C626 C627 1.388 . S
C627 H614 0.930 . S
C627 C626 1.388 . S
C627 C628 1.390 . S
C628 C627 1.390 . S
C628 C629 1.394 . S
C628 C634 1.465 1_455 S
C629 C624 1.399 . S
C629 C628 1.394 . S
C629 C630 1.502 1_455 S
C630 C629 1.502 1_655 S
C630 C631 1.492 . S
C630 C632 1.560 . S
C630 C633 1.562 . S
C631 H615 0.956 . S
C631 H616 0.966 . S
C631 H617 0.945 1_655 S
C631 C630 1.492 . S
C632 H618 0.960 1_655 S
C632 H619 0.961 . S
C632 H620 0.959 . S
C632 C630 1.560 . S
C633 C630 1.562 . S
C633 C634 1.396 . S
C633 C638 1.390 . S
C634 C628 1.465 1_655 S
C634 C633 1.396 . S
C634 C635 1.399 . S
C635 H621 0.929 . S
C635 C634 1.399 . S
C635 C636 1.385 . S
C636 H622 0.931 . S
C636 C635 1.385 . S
C636 C637 1.389 . S
C637 C636 1.389 . S
C637 C638 1.387 . S
C638 H623 0.930 . S
C638 C633 1.390 . S
C638 C637 1.387 . S
H639 C651 0.930 . S
H640 C653 0.930 . S
H641 C654 0.930 . S
H642 C658 0.959 . S
H643 C658 0.959 . S
H644 C658 0.961 . S
H645 C659 0.960 . S
H646 C659 0.961 . S
H647 C659 0.959 . S
H648 C662 0.929 . S
H649 C663 0.931 . S
H650 C665 0.930 . S
C651 H639 0.930 . S
C651 C652 1.399 . S
C651 C656 1.399 . S
C652 C651 1.399 . S
C652 C653 1.376 . S
C653 H640 0.930 . S
C653 C652 1.376 . S
C653 C654 1.388 . S
C654 H641 0.930 . S
C654 C653 1.388 . S
C654 C655 1.390 . S
C655 C654 1.390 . S
C655 C656 1.394 . S
C655 C661 1.465 . S
C656 C651 1.399 . S
C656 C655 1.394 . S
C656 C657 1.516 . S
C657 C656 1.516 . S
C657 C658 1.502 . S
C657 C659 1.561 . S
C657 C660 1.526 . S
C658 H642 0.959 . S
C658 H643 0.959 . S
C658 H644 0.961 . S
C658 C657 1.502 . S
C659 H645 0.960 . S
C659 H646 0.961 . S
C659 H647 0.959 . S
C659 C657 1.561 . S
C660 C657 1.526 . S
C660 C661 1.396 . S
C660 C665 1.390 . S
C661 C655 1.465 . S
C661 C660 1.396 . S
C661 C662 1.399 . S
C662 H648 0.929 . S
C662 C661 1.399 . S
C662 C663 1.385 . S
C663 H649 0.931 . S
C663 C662 1.385 . S
C663 C664 1.389 . S
C664 C663 1.389 . S
C664 C665 1.387 . S
C665 H650 0.930 . S
C665 C660 1.390 . S
C665 C664 1.387 . S
H666 C678 0.930 1_455 S
H667 C680 0.930 . S
H668 C681 0.930 . S
H669 C685 0.952 1_455 S
H670 C685 0.959 . S
H671 C685 0.961 1_455 S
H672 C686 0.960 . S
H673 C686 0.961 . S
H674 C686 0.959 . S
H675 C689 0.929 . S
H676 C690 0.931 . S
H677 C692 0.930 . S
C678 H666 0.930 1_655 S
C678 C679 1.399 . S
C678 C683 1.399 . S
C679 C678 1.399 . S
C679 C680 1.376 . S
C680 H667 0.930 . S
C680 C679 1.376 . S
C680 C681 1.388 . S
C681 H668 0.930 . S
C681 C680 1.388 . S
C681 C682 1.390 . S
C682 C681 1.390 . S
C682 C683 1.394 . S
C682 C688 1.465 . S
C683 C678 1.399 . S
C683 C682 1.394 . S
C683 C684 1.516 . S
C684 C683 1.516 . S
C684 C685 1.502 . S
C684 C686 1.561 . S
C684 C687 1.526 . S
C685 H669 0.952 1_655 S
C685 H670 0.959 . S
C685 H671 0.961 1_655 S
C685 C684 1.502 . S
C686 H672 0.960 . S
C686 H673 0.961 . S
C686 H674 0.959 . S
C686 C684 1.561 . S
C687 C684 1.526 . S
C687 C688 1.396 . S
C687 C692 1.390 . S
C688 C682 1.465 . S
C688 C687 1.396 . S
C688 C689 1.399 . S
C689 H675 0.929 . S
C689 C688 1.399 . S
C689 C690 1.385 . S
C690 H676 0.931 . S
C690 C689 1.385 . S
C690 C691 1.389 . S
C691 C690 1.389 . S
C691 C692 1.387 . S
C692 H677 0.930 . S
C692 C687 1.390 . S
C692 C691 1.387 . S
H693 C705 0.930 . S
H694 C707 0.930 . S
H695 C708 0.930 . S
H696 C712 0.959 . S
H697 C712 0.959 . S
H698 C712 0.961 . S
H699 C713 0.960 . S
H700 C713 0.961 . S
H701 C713 0.959 . S
H702 C716 0.929 . S
H703 C717 0.931 . S
H704 C719 0.930 . S
C705 H693 0.930 . S
C705 C706 1.399 . S
C705 C710 1.399 . S
C706 C705 1.399 . S
C706 C707 1.376 . S
C707 H694 0.930 . S
C707 C706 1.376 . S
C707 C708 1.388 . S
C708 H695 0.930 . S
C708 C707 1.388 . S
C708 C709 1.390 . S
C709 C708 1.390 . S
C709 C710 1.394 . S
C709 C715 1.465 . S
C710 C705 1.399 . S
C710 C709 1.394 . S
C710 C711 1.516 . S
C711 C710 1.516 . S
C711 C712 1.502 . S
C711 C713 1.561 . S
C711 C714 1.526 . S
C712 H696 0.959 . S
C712 H697 0.959 . S
C712 H698 0.961 . S
C712 C711 1.502 . S
C713 H699 0.960 . S
C713 H700 0.961 . S
C713 H701 0.959 . S
C713 C711 1.561 . S
C714 C711 1.526 . S
C714 C715 1.396 . S
C714 C719 1.390 . S
C715 C709 1.465 . S
C715 C714 1.396 . S
C715 C716 1.399 . S
C716 H702 0.929 . S
C716 C715 1.399 . S
C716 C717 1.385 . S
C717 H703 0.931 . S
C717 C716 1.385 . S
C717 C718 1.389 . S
C718 C717 1.389 . S
C718 C719 1.387 . S
C719 H704 0.930 . S
C719 C714 1.390 . S
C719 C718 1.387 . S
H720 C732 0.930 . S
H721 C734 0.930 . S
H722 C735 0.930 . S
H723 C739 0.959 . S
H724 C739 0.959 . S
H725 C739 0.961 . S
H726 C740 0.960 . S
H727 C740 0.961 . S
H728 C740 0.959 . S
H729 C743 0.929 . S
H730 C744 0.931 . S
H731 C746 0.930 . S
C732 H720 0.930 . S
C732 C733 1.399 . S
C732 C737 1.399 . S
C733 C732 1.399 . S
C733 C734 1.376 . S
C734 H721 0.930 . S
C734 C733 1.376 . S
C734 C735 1.388 . S
C735 H722 0.930 . S
C735 C734 1.388 . S
C735 C736 1.390 . S
C736 C735 1.390 . S
C736 C737 1.394 . S
C736 C742 1.465 . S
C737 C732 1.399 . S
C737 C736 1.394 . S
C737 C738 1.516 . S
C738 C737 1.516 . S
C738 C739 1.502 . S
C738 C740 1.561 . S
C738 C741 1.526 . S
C739 H723 0.959 . S
C739 H724 0.959 . S
C739 H725 0.961 . S
C739 C738 1.502 . S
C740 H726 0.960 . S
C740 H727 0.961 . S
C740 H728 0.959 . S
C740 C738 1.561 . S
C741 C738 1.526 . S
C741 C742 1.396 . S
C741 C746 1.390 . S
C742 C736 1.465 . S
C742 C741 1.396 . S
C742 C743 1.399 . S
C743 H729 0.929 . S
C743 C742 1.399 . S
C743 C744 1.385 . S
C744 H730 0.931 . S
C744 C743 1.385 . S
C744 C745 1.389 . S
C745 C744 1.389 . S
C745 C746 1.387 . S
C746 H731 0.930 . S
C746 C741 1.390 . S
C746 C745 1.387 . S
H747 C759 0.930 . S
H748 C761 0.930 . S
H749 C762 0.930 . S
H750 C766 0.959 . S
H751 C766 0.959 . S
H752 C766 0.961 . S
H753 C767 0.960 . S
H754 C767 0.961 . S
H755 C767 0.959 . S
H756 C770 0.929 . S
H757 C771 0.931 . S
H758 C773 0.930 . S
C759 H747 0.930 . S
C759 C760 1.399 . S
C759 C764 1.399 . S
C760 C759 1.399 . S
C760 C761 1.376 . S
C761 H748 0.930 . S
C761 C760 1.376 . S
C761 C762 1.388 . S
C762 H749 0.930 . S
C762 C761 1.388 . S
C762 C763 1.390 . S
C763 C762 1.390 . S
C763 C764 1.394 . S
C763 C769 1.465 . S
C764 C759 1.399 . S
C764 C763 1.394 . S
C764 C765 1.516 . S
C765 C764 1.516 . S
C765 C766 1.502 . S
C765 C767 1.561 . S
C765 C768 1.526 . S
C766 H750 0.959 . S
C766 H751 0.959 . S
C766 H752 0.961 . S
C766 C765 1.502 . S
C767 H753 0.960 . S
C767 H754 0.961 . S
C767 H755 0.959 . S
C767 C765 1.561 . S
C768 C765 1.526 . S
C768 C769 1.396 . S
C768 C773 1.390 . S
C769 C763 1.465 . S
C769 C768 1.396 . S
C769 C770 1.399 . S
C770 H756 0.929 . S
C770 C769 1.399 . S
C770 C771 1.385 . S
C771 H757 0.931 . S
C771 C770 1.385 . S
C771 C772 1.389 . S
C772 C771 1.389 . S
C772 C773 1.387 . S
C773 H758 0.930 . S
C773 C768 1.390 . S
C773 C772 1.387 . S
H774 C786 0.930 . S
H775 C788 0.930 . S
H776 C789 0.930 . S
H777 C793 0.959 . S
H778 C793 0.959 . S
H779 C793 0.961 . S
H780 C794 0.960 . S
H781 C794 0.961 . S
H782 C794 0.959 . S
H783 C797 0.929 . S
H784 C798 0.931 . S
H785 C800 0.930 . S
C786 H774 0.930 . S
C786 C787 1.399 . S
C786 C791 1.399 . S
C787 C786 1.399 . S
C787 C788 1.376 . S
C788 H775 0.930 . S
C788 C787 1.376 . S
C788 C789 1.388 . S
C789 H776 0.930 . S
C789 C788 1.388 . S
C789 C790 1.390 . S
C790 C789 1.390 . S
C790 C791 1.394 . S
C790 C796 1.465 . S
C791 C786 1.399 . S
C791 C790 1.394 . S
C791 C792 1.516 . S
C792 C791 1.516 . S
C792 C793 1.502 . S
C792 C794 1.561 . S
C792 C795 1.526 . S
C793 H777 0.959 . S
C793 H778 0.959 . S
C793 H779 0.961 . S
C793 C792 1.502 . S
C794 H780 0.960 . S
C794 H781 0.961 . S
C794 H782 0.959 . S
C794 C792 1.561 . S
C795 C792 1.526 . S
C795 C796 1.396 . S
C795 C800 1.390 . S
C796 C790 1.465 . S
C796 C795 1.396 . S
C796 C797 1.399 . S
C797 H783 0.929 . S
C797 C796 1.399 . S
C797 C798 1.385 . S
C798 H784 0.931 . S
C798 C797 1.385 . S
C798 C799 1.389 . S
C799 C798 1.389 . S
C799 C800 1.387 . S
C800 H785 0.930 . S
C800 C795 1.390 . S
C800 C799 1.387 . S
H801 C813 0.930 . S
H802 C815 0.930 . S
H803 C816 0.930 . S
H804 C820 0.959 . S
H805 C820 0.959 . S
H806 C820 0.961 . S
H807 C821 0.960 . S
H808 C821 0.961 . S
H809 C821 0.959 . S
H810 C824 0.929 . S
H811 C825 0.931 . S
H812 C827 0.930 . S
C813 H801 0.930 . S
C813 C814 1.399 . S
C813 C818 1.399 . S
C814 C813 1.399 . S
C814 C815 1.376 . S
C815 H802 0.930 . S
C815 C814 1.376 . S
C815 C816 1.388 . S
C816 H803 0.930 . S
C816 C815 1.388 . S
C816 C817 1.390 . S
C817 C816 1.390 . S
C817 C818 1.394 . S
C817 C823 1.465 . S
C818 C813 1.399 . S
C818 C817 1.394 . S
C818 C819 1.516 . S
C819 C818 1.516 . S
C819 C820 1.502 . S
C819 C821 1.561 . S
C819 C822 1.526 . S
C820 H804 0.959 . S
C820 H805 0.959 . S
C820 H806 0.961 . S
C820 C819 1.502 . S
C821 H807 0.960 . S
C821 H808 0.961 . S
C821 H809 0.959 . S
C821 C819 1.561 . S
C822 C819 1.526 . S
C822 C823 1.396 . S
C822 C827 1.390 . S
C823 C817 1.465 . S
C823 C822 1.396 . S
C823 C824 1.399 . S
C824 H810 0.929 . S
C824 C823 1.399 . S
C824 C825 1.385 . S
C825 H811 0.931 . S
C825 C824 1.385 . S
C825 C826 1.389 . S
C826 C825 1.389 . S
C826 C827 1.387 . S
C827 H812 0.930 . S
C827 C822 1.390 . S
C827 C826 1.387 . S
H828 C840 0.930 . S
H829 C842 0.930 . S
H830 C843 0.930 . S
H831 C847 0.959 . S
H832 C847 0.959 . S
H833 C847 0.961 . S
H834 C848 0.960 1_554 S
H835 C848 0.948 1_554 S
H836 C848 0.959 . S
H837 C851 0.929 . S
H838 C852 0.931 . S
H839 C854 0.930 . S
C840 H828 0.930 . S
C840 C841 1.399 . S
C840 C845 1.399 . S
C841 C840 1.399 . S
C841 C842 1.376 . S
C842 H829 0.930 . S
C842 C841 1.376 . S
C842 C843 1.388 . S
C843 H830 0.930 . S
C843 C842 1.388 . S
C843 C844 1.390 . S
C844 C843 1.390 . S
C844 C845 1.394 . S
C844 C850 1.465 . S
C845 C840 1.399 . S
C845 C844 1.394 . S
C845 C846 1.516 . S
C846 C845 1.516 . S
C846 C847 1.502 . S
C846 C848 1.561 . S
C846 C849 1.526 . S
C847 H831 0.959 . S
C847 H832 0.959 . S
C847 H833 0.961 . S
C847 C846 1.502 . S
C848 H834 0.960 1_556 S
C848 H835 0.948 1_556 S
C848 H836 0.959 . S
C848 C846 1.561 . S
C849 C846 1.526 . S
C849 C850 1.396 . S
C849 C854 1.390 . S
C850 C844 1.465 . S
C850 C849 1.396 . S
C850 C851 1.399 . S
C851 H837 0.929 . S
C851 C850 1.399 . S
C851 C852 1.385 . S
C852 H838 0.931 . S
C852 C851 1.385 . S
C852 C853 1.389 . S
C853 C852 1.389 . S
C853 C854 1.387 . S
C854 H839 0.930 . S
C854 C849 1.390 . S
C854 C853 1.387 . S
H855 C867 0.930 . S
H856 C869 0.930 1_545 S
H857 C870 0.930 . S
H858 C874 0.959 . S
H859 C874 0.959 . S
H860 C874 0.961 . S
H861 C875 0.960 . S
H862 C875 0.961 . S
H863 C875 0.959 . S
H864 C878 0.929 . S
H865 C879 0.931 . S
H866 C881 0.930 . S
C867 H855 0.930 . S
C867 C868 1.399 . S
C867 C872 1.399 . S
C868 C867 1.399 . S
C868 C869 1.376 . S
C869 H856 0.930 1_565 S
C869 C868 1.376 . S
C869 C870 1.388 . S
C870 H857 0.930 . S
C870 C869 1.388 . S
C870 C871 1.390 . S
C871 C870 1.390 . S
C871 C872 1.394 . S
C871 C877 1.465 . S
C872 C867 1.399 . S
C872 C871 1.394 . S
C872 C873 1.516 . S
C873 C872 1.516 . S
C873 C874 1.502 . S
C873 C875 1.561 . S
C873 C876 1.526 . S
C874 H858 0.959 . S
C874 H859 0.959 . S
C874 H860 0.961 . S
C874 C873 1.502 . S
C875 H861 0.960 . S
C875 H862 0.961 . S
C875 H863 0.959 . S
C875 C873 1.561 . S
C876 C873 1.526 . S
C876 C877 1.396 . S
C876 C881 1.390 . S
C877 C871 1.465 . S
C877 C876 1.396 . S
C877 C878 1.399 . S
C878 H864 0.929 . S
C878 C877 1.399 . S
C878 C879 1.385 . S
C879 H865 0.931 . S
C879 C878 1.385 . S
C879 C880 1.389 . S
C880 C879 1.389 . S
C880 C881 1.387 . S
C881 H866 0.930 . S
C881 C876 1.390 . S
C881 C880 1.387 . S
H882 C894 0.930 . S
H883 C896 0.930 . S
H884 C897 0.930 . S
H885 C901 0.959 . S
H886 C901 0.959 . S
H887 C901 0.961 . S
H888 C902 0.960 . S
H889 C902 0.961 . S
H890 C902 0.959 . S
H891 C905 0.929 . S
H892 C906 0.931 1_655 S
H893 C908 0.930 . S
C894 H882 0.930 . S
C894 C895 1.399 . S
C894 C899 1.399 . S
C895 C894 1.399 . S
C895 C896 1.376 . S
C896 H883 0.930 . S
C896 C895 1.376 . S
C896 C897 1.388 . S
C897 H884 0.930 . S
C897 C896 1.388 . S
C897 C898 1.390 . S
C898 C897 1.390 . S
C898 C899 1.394 . S
C898 C904 1.465 . S
C899 C894 1.399 . S
C899 C898 1.394 . S
C899 C900 1.516 . S
C900 C899 1.516 . S
C900 C901 1.502 . S
C900 C902 1.561 . S
C900 C903 1.526 . S
C901 H885 0.959 . S
C901 H886 0.959 . S
C901 H887 0.961 . S
C901 C900 1.502 . S
C902 H888 0.960 . S
C902 H889 0.961 . S
C902 H890 0.959 . S
C902 C900 1.561 . S
C903 C900 1.526 . S
C903 C904 1.396 . S
C903 C908 1.390 . S
C904 C898 1.465 . S
C904 C903 1.396 . S
C904 C905 1.399 . S
C905 H891 0.929 . S
C905 C904 1.399 . S
C905 C906 1.385 . S
C906 H892 0.931 1_455 S
C906 C905 1.385 . S
C906 C907 1.389 . S
C907 C906 1.389 . S
C907 C908 1.387 . S
C908 H893 0.930 . S
C908 C903 1.390 . S
C908 C907 1.387 . S
H909 C921 0.930 . S
H910 C923 0.930 . S
H911 C924 0.930 . S
H912 C928 0.959 . S
H913 C928 0.959 . S
H914 C928 0.961 . S
H915 C929 0.960 . S
H916 C929 0.961 . S
H917 C929 0.959 . S
H918 C932 0.929 . S
H919 C933 0.931 . S
H920 C935 0.930 . S
C921 H909 0.930 . S
C921 C922 1.399 . S
C921 C926 1.399 . S
C922 C921 1.399 . S
C922 C923 1.376 . S
C923 H910 0.930 . S
C923 C922 1.376 . S
C923 C924 1.388 . S
C924 H911 0.930 . S
C924 C923 1.388 . S
C924 C925 1.390 . S
C925 C924 1.390 . S
C925 C926 1.394 . S
C925 C931 1.465 . S
C926 C921 1.399 . S
C926 C925 1.394 . S
C926 C927 1.516 . S
C927 C926 1.516 . S
C927 C928 1.502 . S
C927 C929 1.561 . S
C927 C930 1.526 . S
C928 H912 0.959 . S
C928 H913 0.959 . S
C928 H914 0.961 . S
C928 C927 1.502 . S
C929 H915 0.960 . S
C929 H916 0.961 . S
C929 H917 0.959 . S
C929 C927 1.561 . S
C930 C927 1.526 . S
C930 C931 1.396 . S
C930 C935 1.390 . S
C931 C925 1.465 . S
C931 C930 1.396 . S
C931 C932 1.399 . S
C932 H918 0.929 . S
C932 C931 1.399 . S
C932 C933 1.385 1_455 S
C933 H919 0.931 . S
C933 C932 1.385 1_655 S
C933 C934 1.389 1_655 S
C934 C933 1.389 1_455 S
C934 C935 1.387 . S
C935 H920 0.930 . S
C935 C930 1.390 . S
C935 C934 1.387 . S
H936 C948 0.930 . S
H937 C950 0.930 . S
H938 C951 0.930 . S
H939 C955 0.959 . S
H940 C955 0.959 . S
H941 C955 0.961 . S
H942 C956 0.960 . S
H943 C956 0.961 . S
H944 C956 0.959 . S
H945 C959 0.929 . S
H946 C960 0.931 . S
H947 C962 0.930 . S
C948 H936 0.930 . S
C948 C949 1.399 . S
C948 C953 1.399 . S
C949 C948 1.399 . S
C949 C950 1.376 . S
C950 H937 0.930 . S
C950 C949 1.376 . S
C950 C951 1.388 . S
C951 H938 0.930 . S
C951 C950 1.388 . S
C951 C952 1.390 . S
C952 C951 1.390 . S
C952 C953 1.394 . S
C952 C958 1.465 . S
C953 C948 1.399 . S
C953 C952 1.394 . S
C953 C954 1.516 . S
C954 C953 1.516 . S
C954 C955 1.502 . S
C954 C956 1.561 . S
C954 C957 1.526 . S
C955 H939 0.959 . S
C955 H940 0.959 . S
C955 H941 0.961 . S
C955 C954 1.502 . S
C956 H942 0.960 . S
C956 H943 0.961 . S
C956 H944 0.959 . S
C956 C954 1.561 . S
C957 C954 1.526 . S
C957 C958 1.396 . S
C957 C962 1.390 . S
C958 C952 1.465 . S
C958 C957 1.396 . S
C958 C959 1.399 . S
C959 H945 0.929 . S
C959 C958 1.399 . S
C959 C960 1.385 . S
C960 H946 0.931 . S
C960 C959 1.385 . S
C960 C961 1.389 . S
C961 C960 1.389 . S
C961 C962 1.387 . S
C962 H947 0.930 . S
C962 C957 1.390 . S
C962 C961 1.387 . S
H963 C975 0.930 . S
H964 C977 0.930 . S
H965 C978 0.930 . S
H966 C982 0.959 1_545 S
H967 C982 0.959 1_545 S
H968 C982 0.961 . S
H969 C983 0.960 . S
H970 C983 0.961 . S
H971 C983 0.959 . S
H972 C986 0.929 . S
H973 C987 0.931 . S
H974 C989 0.930 1_545 S
C975 H963 0.930 . S
C975 C976 1.399 . S
C975 C980 1.399 . S
C976 C975 1.399 . S
C976 C977 1.376 . S
C977 H964 0.930 . S
C977 C976 1.376 . S
C977 C978 1.388 . S
C978 H965 0.930 . S
C978 C977 1.388 . S
C978 C979 1.390 . S
C979 C978 1.390 . S
C979 C980 1.394 . S
C979 C985 1.465 . S
C980 C975 1.399 . S
C980 C979 1.394 . S
C980 C981 1.516 . S
C981 C980 1.516 . S
C981 C982 1.502 . S
C981 C983 1.561 . S
C981 C984 1.526 . S
C982 H966 0.959 1_565 S
C982 H967 0.959 1_565 S
C982 H968 0.961 . S
C982 C981 1.502 . S
C983 H969 0.960 . S
C983 H970 0.961 . S
C983 H971 0.959 . S
C983 C981 1.561 . S
C984 C981 1.526 . S
C984 C985 1.396 . S
C984 C989 1.390 . S
C985 C979 1.465 . S
C985 C984 1.396 . S
C985 C986 1.399 . S
C986 H972 0.929 . S
C986 C985 1.399 . S
C986 C987 1.385 . S
C987 H973 0.931 . S
C987 C986 1.385 . S
C987 C988 1.389 . S
C988 C987 1.389 . S
C988 C989 1.387 . S
C989 H974 0.930 1_565 S
C989 C984 1.390 . S
C989 C988 1.387 . S
H990 C1002 0.930 . S
H991 C1004 0.930 . S
H992 C1005 0.930 . S
H993 C1009 0.959 . S
H994 C1009 0.959 . S
H995 C1009 0.961 . S
H996 C1010 0.960 . S
H997 C1010 0.961 . S
H998 C1010 0.959 . S
H999 C1013 0.929 . S
H1000 C1014 0.931 . S
H1001 C1016 0.930 . S
C1002 H990 0.930 . S
C1002 C1003 1.399 . S
C1002 C1007 1.399 . S
C1003 C1002 1.399 . S
C1003 C1004 1.376 . S
C1004 H991 0.930 . S
C1004 C1003 1.376 . S
C1004 C1005 1.388 . S
C1005 H992 0.930 . S
C1005 C1004 1.388 . S
C1005 C1006 1.390 . S
C1006 C1005 1.390 . S
C1006 C1007 1.394 . S
C1006 C1012 1.465 . S
C1007 C1002 1.399 . S
C1007 C1006 1.394 . S
C1007 C1008 1.516 . S
C1008 C1007 1.516 . S
C1008 C1009 1.502 . S
C1008 C1010 1.561 . S
C1008 C1011 1.526 . S
C1009 H993 0.959 . S
C1009 H994 0.959 . S
C1009 H995 0.961 . S
C1009 C1008 1.502 . S
C1010 H996 0.960 . S
C1010 H997 0.961 . S
C1010 H998 0.959 . S
C1010 C1008 1.561 . S
C1011 C1008 1.526 . S
C1011 C1012 1.396 . S
C1011 C1016 1.390 . S
C1012 C1006 1.465 . S
C1012 C1011 1.396 . S
C1012 C1013 1.399 . S
C1013 H999 0.929 . S
C1013 C1012 1.399 . S
C1013 C1014 1.385 . S
C1014 H1000 0.931 . S
C1014 C1013 1.385 . S
C1014 C1015 1.389 . S
C1015 C1014 1.389 . S
C1015 C1016 1.387 . S
C1016 H1001 0.930 . S
C1016 C1011 1.390 . S
C1016 C1015 1.387 . S
H1017 C1029 0.930 . S
H1018 C1031 0.930 . S
H1019 C1032 0.930 . S
H1020 C1036 0.959 . S
H1021 C1036 0.959 . S
H1022 C1036 0.961 . S
H1023 C1037 0.960 . S
H1024 C1037 0.961 . S
H1025 C1037 0.959 . S
H1026 C1040 0.929 . S
H1027 C1041 0.931 . S
H1028 C1043 0.930 . S
C1029 H1017 0.930 . S
C1029 C1030 1.399 . S
C1029 C1034 1.399 . S
C1030 C1029 1.399 . S
C1030 C1031 1.376 . S
C1031 H1018 0.930 . S
C1031 C1030 1.376 . S
C1031 C1032 1.388 . S
C1032 H1019 0.930 . S
C1032 C1031 1.388 . S
C1032 C1033 1.390 . S
C1033 C1032 1.390 . S
C1033 C1034 1.394 . S
C1033 C1039 1.465 . S
C1034 C1029 1.399 . S
C1034 C1033 1.394 . S
C1034 C1035 1.516 . S
C1035 C1034 1.516 . S
C1035 C1036 1.502 . S
C1035 C1037 1.561 . S
C1035 C1038 1.526 . S
C1036 H1020 0.959 . S
C1036 H1021 0.959 . S
C1036 H1022 0.961 . S
C1036 C1035 1.502 . S
C1037 H1023 0.960 . S
C1037 H1024 0.961 . S
C1037 H1025 0.959 . S
C1037 C1035 1.561 . S
C1038 C1035 1.526 . S
C1038 C1039 1.396 . S
C1038 C1043 1.390 . S
C1039 C1033 1.465 . S
C1039 C1038 1.396 . S
C1039 C1040 1.399 . S
C1040 H1026 0.929 . S
C1040 C1039 1.399 . S
C1040 C1041 1.385 . S
C1041 H1027 0.931 . S
C1041 C1040 1.385 . S
C1041 C1042 1.389 . S
C1042 C1041 1.389 . S
C1042 C1043 1.387 . S
C1043 H1028 0.930 . S
C1043 C1038 1.390 . S
C1043 C1042 1.387 . S
H1044 C1056 0.930 . S
H1045 C1058 0.930 . S
H1046 C1059 0.930 . S
H1047 C1063 0.959 . S
H1048 C1063 0.959 . S
H1049 C1063 0.961 . S
H1050 C1064 0.960 . S
H1051 C1064 0.961 . S
H1052 C1064 0.959 . S
H1053 C1067 0.929 . S
H1054 C1068 0.931 . S
H1055 C1070 0.930 . S
C1056 H1044 0.930 . S
C1056 C1057 1.399 . S
C1056 C1061 1.399 . S
C1057 C1056 1.399 . S
C1057 C1058 1.376 . S
C1058 H1045 0.930 . S
C1058 C1057 1.376 . S
C1058 C1059 1.388 . S
C1059 H1046 0.930 . S
C1059 C1058 1.388 . S
C1059 C1060 1.390 . S
C1060 C1059 1.390 . S
C1060 C1061 1.394 . S
C1060 C1066 1.465 . S
C1061 C1056 1.399 . S
C1061 C1060 1.394 . S
C1061 C1062 1.516 . S
C1062 C1061 1.516 . S
C1062 C1063 1.502 . S
C1062 C1064 1.561 . S
C1062 C1065 1.526 . S
C1063 H1047 0.959 . S
C1063 H1048 0.959 . S
C1063 H1049 0.961 . S
C1063 C1062 1.502 . S
C1064 H1050 0.960 . S
C1064 H1051 0.961 . S
C1064 H1052 0.959 . S
C1064 C1062 1.561 . S
C1065 C1062 1.526 . S
C1065 C1066 1.396 . S
C1065 C1070 1.390 . S
C1066 C1060 1.465 . S
C1066 C1065 1.396 . S
C1066 C1067 1.399 . S
C1067 H1053 0.929 . S
C1067 C1066 1.399 . S
C1067 C1068 1.385 . S
C1068 H1054 0.931 . S
C1068 C1067 1.385 . S
C1068 C1069 1.389 . S
C1069 C1068 1.389 . S
C1069 C1070 1.387 . S
C1070 H1055 0.930 . S
C1070 C1065 1.390 . S
C1070 C1069 1.387 . S
H1071 C1083 0.930 . S
H1072 C1085 0.930 . S
H1073 C1086 0.930 . S
H1074 C1090 0.959 . S
H1075 C1090 0.959 . S
H1076 C1090 0.961 . S
H1077 C1091 0.960 . S
H1078 C1091 0.961 . S
H1079 C1091 0.959 . S
H1080 C1094 0.929 . S
H1081 C1095 0.931 . S
H1082 C1097 0.920 1_556 S
C1083 H1071 0.930 . S
C1083 C1084 1.399 . S
C1083 C1088 1.399 . S
C1084 C1083 1.399 . S
C1084 C1085 1.376 . S
C1085 H1072 0.930 . S
C1085 C1084 1.376 . S
C1085 C1086 1.388 . S
C1086 H1073 0.930 . S
C1086 C1085 1.388 . S
C1086 C1087 1.390 . S
C1087 C1086 1.390 . S
C1087 C1088 1.394 . S
C1087 C1093 1.465 . S
C1088 C1083 1.399 . S
C1088 C1087 1.394 . S
C1088 C1089 1.516 . S
C1089 C1088 1.516 . S
C1089 C1090 1.502 . S
C1089 C1091 1.561 . S
C1089 C1092 1.526 . S
C1090 H1074 0.959 . S
C1090 H1075 0.959 . S
C1090 H1076 0.961 . S
C1090 C1089 1.502 . S
C1091 H1077 0.960 . S
C1091 H1078 0.961 . S
C1091 H1079 0.959 . S
C1091 C1089 1.561 . S
C1092 C1089 1.526 . S
C1092 C1093 1.396 . S
C1092 C1097 1.390 . S
C1093 C1087 1.465 . S
C1093 C1092 1.396 . S
C1093 C1094 1.399 . S
C1094 H1080 0.929 . S
C1094 C1093 1.399 . S
C1094 C1095 1.385 . S
C1095 H1081 0.931 . S
C1095 C1094 1.385 . S
C1095 C1096 1.389 . S
C1096 C1095 1.389 . S
C1096 C1097 1.387 . S
C1097 H1082 0.920 1_554 S
C1097 C1092 1.390 . S
C1097 C1096 1.387 . S
H1098 C1110 0.930 . S
H1099 C1112 0.930 . S
H1100 C1113 0.930 . S
H1101 C1117 0.959 . S
H1102 C1117 0.959 . S
H1103 C1117 0.961 . S
H1104 C1118 0.960 . S
H1105 C1118 0.961 . S
H1106 C1118 0.959 . S
H1107 C1121 0.929 . S
H1108 C1122 0.920 1_556 S
H1109 C1124 0.930 . S
C1110 H1098 0.930 . S
C1110 C1111 1.399 . S
C1110 C1115 1.399 . S
C1111 C1110 1.399 . S
C1111 C1112 1.376 . S
C1112 H1099 0.930 . S
C1112 C1111 1.376 . S
C1112 C1113 1.388 . S
C1113 H1100 0.930 . S
C1113 C1112 1.388 . S
C1113 C1114 1.390 . S
C1114 C1113 1.390 . S
C1114 C1115 1.394 . S
C1114 C1120 1.465 . S
C1115 C1110 1.399 . S
C1115 C1114 1.394 . S
C1115 C1116 1.516 . S
C1116 C1115 1.516 . S
C1116 C1117 1.502 . S
C1116 C1118 1.561 . S
C1116 C1119 1.526 . S
C1117 H1101 0.959 . S
C1117 H1102 0.959 . S
C1117 H1103 0.961 . S
C1117 C1116 1.502 . S
C1118 H1104 0.960 . S
C1118 H1105 0.961 . S
C1118 H1106 0.959 . S
C1118 C1116 1.561 . S
C1119 C1116 1.526 . S
C1119 C1120 1.396 . S
C1119 C1124 1.390 . S
C1120 C1114 1.465 . S
C1120 C1119 1.396 . S
C1120 C1121 1.399 . S
C1121 H1107 0.929 . S
C1121 C1120 1.399 . S
C1121 C1122 1.396 . S
C1122 H1108 0.920 1_554 S
C1122 C1121 1.396 . S
C1122 C1123 1.389 1_554 S
C1123 C1122 1.389 1_556 S
C1123 C1124 1.370 1_556 S
C1124 H1109 0.930 . S
C1124 C1119 1.390 . S
C1124 C1123 1.370 1_554 S
H1125 C1137 0.930 . S
H1126 C1139 0.930 . S
H1127 C1140 0.930 . S
H1128 C1144 0.959 . S
H1129 C1144 0.959 . S
H1130 C1144 0.961 . S
H1131 C1145 0.960 . S
H1132 C1145 0.961 . S
H1133 C1145 0.959 . S
H1134 C1148 0.929 . S
H1135 C1149 0.949 . S
H1136 C1151 0.930 . S
C1137 H1125 0.930 . S
C1137 C1138 1.399 . S
C1137 C1142 1.399 . S
C1138 C1137 1.399 . S
C1138 C1139 1.376 . S
C1139 H1126 0.930 . S
C1139 C1138 1.376 . S
C1139 C1140 1.388 . S
C1140 H1127 0.930 . S
C1140 C1139 1.388 . S
C1140 C1141 1.390 . S
C1141 C1140 1.390 . S
C1141 C1142 1.394 . S
C1141 C1147 1.465 . S
C1142 C1137 1.399 . S
C1142 C1141 1.394 . S
C1142 C1143 1.516 . S
C1143 C1142 1.516 . S
C1143 C1144 1.502 . S
C1143 C1145 1.561 . S
C1143 C1146 1.526 . S
C1144 H1128 0.959 . S
C1144 H1129 0.959 . S
C1144 H1130 0.961 . S
C1144 C1143 1.502 . S
C1145 H1131 0.960 . S
C1145 H1132 0.961 . S
C1145 H1133 0.959 . S
C1145 C1143 1.561 . S
C1146 C1143 1.526 . S
C1146 C1147 1.396 . S
C1146 C1151 1.390 . S
C1147 C1141 1.465 . S
C1147 C1146 1.396 . S
C1147 C1148 1.399 . S
C1148 H1134 0.929 . S
C1148 C1147 1.399 . S
C1148 C1149 1.367 1_554 S
C1149 H1135 0.949 . S
C1149 C1148 1.367 1_556 S
C1149 C1150 1.389 . S
C1150 C1149 1.389 . S
C1150 C1151 1.364 1_556 S
C1151 H1136 0.930 . S
C1151 C1146 1.390 . S
C1151 C1150 1.364 1_554 S
H1152 C1164 0.930 . S
H1153 C1166 0.930 . S
H1154 C1167 0.930 . S
H1155 C1171 0.959 . S
H1156 C1171 0.959 . S
H1157 C1171 0.961 . S
H1158 C1172 0.960 . S
H1159 C1172 0.961 . S
H1160 C1172 0.959 . S
H1161 C1175 0.929 . S
H1162 C1176 0.931 . S
H1163 C1178 0.930 . S
C1164 H1152 0.930 . S
C1164 C1165 1.399 . S
C1164 C1169 1.399 . S
C1165 C1164 1.399 . S
C1165 C1166 1.376 . S
C1166 H1153 0.930 . S
C1166 C1165 1.376 . S
C1166 C1167 1.388 . S
C1167 H1154 0.930 . S
C1167 C1166 1.388 . S
C1167 C1168 1.390 . S
C1168 C1167 1.390 . S
C1168 C1169 1.394 . S
C1168 C1174 1.465 . S
C1169 C1164 1.399 . S
C1169 C1168 1.394 . S
C1169 C1170 1.516 . S
C1170 C1169 1.516 . S
C1170 C1171 1.502 . S
C1170 C1172 1.561 . S
C1170 C1173 1.526 . S
C1171 H1155 0.959 . S
C1171 H1156 0.959 . S
C1171 H1157 0.961 . S
C1171 C1170 1.502 . S
C1172 H1158 0.960 . S
C1172 H1159 0.961 . S
C1172 H1160 0.959 . S
C1172 C1170 1.561 . S
C1173 C1170 1.526 . S
C1173 C1174 1.396 . S
C1173 C1178 1.390 . S
C1174 C1168 1.465 . S
C1174 C1173 1.396 . S
C1174 C1175 1.399 . S
C1175 H1161 0.929 . S
C1175 C1174 1.399 . S
C1175 C1176 1.385 . S
C1176 H1162 0.931 . S
C1176 C1175 1.385 . S
C1176 C1177 1.389 . S
C1177 C1176 1.389 . S
C1177 C1178 1.387 . S
C1178 H1163 0.930 . S
C1178 C1173 1.390 . S
C1178 C1177 1.387 . S
H1179 C1191 0.930 . S
H1180 C1193 0.930 . S
H1181 C1194 0.930 . S
H1182 C1198 0.959 . S
H1183 C1198 0.959 . S
H1184 C1198 0.961 . S
H1185 C1199 0.960 . S
H1186 C1199 0.961 . S
H1187 C1199 0.959 . S
H1188 C1202 0.929 . S
H1189 C1203 0.931 . S
H1190 C1205 0.930 . S
C1191 H1179 0.930 . S
C1191 C1192 1.399 . S
C1191 C1196 1.399 . S
C1192 C1191 1.399 . S
C1192 C1193 1.376 . S
C1193 H1180 0.930 . S
C1193 C1192 1.376 . S
C1193 C1194 1.388 . S
C1194 H1181 0.930 . S
C1194 C1193 1.388 . S
C1194 C1195 1.390 . S
C1195 C1194 1.390 . S
C1195 C1196 1.394 . S
C1195 C1201 1.465 . S
C1196 C1191 1.399 . S
C1196 C1195 1.394 . S
C1196 C1197 1.516 . S
C1197 C1196 1.516 . S
C1197 C1198 1.502 . S
C1197 C1199 1.561 . S
C1197 C1200 1.526 . S
C1198 H1182 0.959 . S
C1198 H1183 0.959 . S
C1198 H1184 0.961 . S
C1198 C1197 1.502 . S
C1199 H1185 0.960 . S
C1199 H1186 0.961 . S
C1199 H1187 0.959 . S
C1199 C1197 1.561 . S
C1200 C1197 1.526 . S
C1200 C1201 1.396 . S
C1200 C1205 1.390 . S
C1201 C1195 1.465 . S
C1201 C1200 1.396 . S
C1201 C1202 1.399 . S
C1202 H1188 0.929 . S
C1202 C1201 1.399 . S
C1202 C1203 1.385 . S
C1203 H1189 0.931 . S
C1203 C1202 1.385 . S
C1203 C1204 1.389 . S
C1204 C1203 1.389 . S
C1204 C1205 1.387 . S
C1205 H1190 0.930 . S
C1205 C1200 1.390 . S
C1205 C1204 1.387 . S
H1206 C1218 0.930 . S
H1207 C1220 0.930 . S
H1208 C1221 0.930 . S
H1209 C1225 0.959 . S
H1210 C1225 0.959 . S
H1211 C1225 0.961 . S
H1212 C1226 0.960 . S
H1213 C1226 0.961 . S
H1214 C1226 0.959 . S
H1215 C1229 0.929 . S
H1216 C1230 0.931 . S
H1217 C1232 0.930 . S
C1218 H1206 0.930 . S
C1218 C1219 1.399 . S
C1218 C1223 1.399 . S
C1219 C1218 1.399 . S
C1219 C1220 1.376 . S
C1220 H1207 0.930 . S
C1220 C1219 1.376 . S
C1220 C1221 1.388 . S
C1221 H1208 0.930 . S
C1221 C1220 1.388 . S
C1221 C1222 1.390 . S
C1222 C1221 1.390 . S
C1222 C1223 1.394 . S
C1222 C1228 1.465 . S
C1223 C1218 1.399 . S
C1223 C1222 1.394 . S
C1223 C1224 1.516 . S
C1224 C1223 1.516 . S
C1224 C1225 1.502 . S
C1224 C1226 1.561 . S
C1224 C1227 1.526 . S
C1225 H1209 0.959 . S
C1225 H1210 0.959 . S
C1225 H1211 0.961 . S
C1225 C1224 1.502 . S
C1226 H1212 0.960 . S
C1226 H1213 0.961 . S
C1226 H1214 0.959 . S
C1226 C1224 1.561 . S
C1227 C1224 1.526 . S
C1227 C1228 1.396 . S
C1227 C1232 1.390 . S
C1228 C1222 1.465 . S
C1228 C1227 1.396 . S
C1228 C1229 1.399 . S
C1229 H1215 0.929 . S
C1229 C1228 1.399 . S
C1229 C1230 1.385 . S
C1230 H1216 0.931 . S
C1230 C1229 1.385 . S
C1230 C1231 1.389 . S
C1231 C1230 1.389 . S
C1231 C1232 1.387 . S
C1232 H1217 0.930 . S
C1232 C1227 1.390 . S
C1232 C1231 1.387 . S
H1233 C1245 0.930 . S
H1234 C1247 0.930 1_554 S
H1235 C1248 0.930 . S
H1236 C1252 0.959 . S
H1237 C1252 0.959 . S
H1238 C1252 0.961 . S
H1239 C1253 0.960 . S
H1240 C1253 0.961 . S
H1241 C1253 0.959 . S
H1242 C1256 0.929 . S
H1243 C1257 0.931 . S
H1244 C1259 0.930 . S
C1245 H1233 0.930 . S
C1245 C1246 1.399 1_556 S
C1245 C1250 1.399 . S
C1246 C1245 1.399 1_554 S
C1246 C1247 1.376 1_554 S
C1247 H1234 0.930 1_556 S
C1247 C1246 1.376 1_556 S
C1247 C1248 1.388 . S
C1248 H1235 0.930 . S
C1248 C1247 1.388 . S
C1248 C1249 1.390 . S
C1249 C1248 1.390 . S
C1249 C1250 1.394 . S
C1249 C1255 1.465 . S
C1250 C1245 1.399 . S
C1250 C1249 1.394 . S
C1250 C1251 1.516 . S
C1251 C1250 1.516 . S
C1251 C1252 1.502 . S
C1251 C1253 1.561 . S
C1251 C1254 1.526 . S
C1252 H1236 0.959 . S
C1252 H1237 0.959 . S
C1252 H1238 0.961 . S
C1252 C1251 1.502 . S
C1253 H1239 0.960 . S
C1253 H1240 0.961 . S
C1253 H1241 0.959 . S
C1253 C1251 1.561 . S
C1254 C1251 1.526 . S
C1254 C1255 1.396 . S
C1254 C1259 1.390 . S
C1255 C1249 1.465 . S
C1255 C1254 1.396 . S
C1255 C1256 1.399 . S
C1256 H1242 0.929 . S
C1256 C1255 1.399 . S
C1256 C1257 1.385 . S
C1257 H1243 0.931 . S
C1257 C1256 1.385 . S
C1257 C1258 1.389 . S
C1258 C1257 1.389 . S
C1258 C1259 1.387 . S
C1259 H1244 0.930 . S
C1259 C1254 1.390 . S
C1259 C1258 1.387 . S
H1260 C1272 0.930 . S
H1261 C1274 0.930 1_554 S
H1262 C1275 0.930 . S
H1263 C1279 0.959 . S
H1264 C1279 0.959 . S
H1265 C1279 0.961 . S
H1266 C1280 0.960 . S
H1267 C1280 0.961 . S
H1268 C1280 0.959 . S
H1269 C1283 0.929 . S
H1270 C1284 0.931 . S
H1271 C1286 0.930 . S
C1272 H1260 0.930 . S
C1272 C1273 1.414 . S
C1272 C1277 1.399 . S
C1273 C1272 1.414 . S
C1273 C1274 1.382 . S
C1274 H1261 0.930 1_556 S
C1274 C1273 1.382 . S
C1274 C1275 1.388 . S
C1275 H1262 0.930 . S
C1275 C1274 1.388 . S
C1275 C1276 1.390 . S
C1276 C1275 1.390 . S
C1276 C1277 1.394 . S
C1276 C1282 1.465 . S
C1277 C1272 1.399 . S
C1277 C1276 1.394 . S
C1277 C1278 1.516 . S
C1278 C1277 1.516 . S
C1278 C1279 1.502 . S
C1278 C1280 1.561 . S
C1278 C1281 1.526 . S
C1279 H1263 0.959 . S
C1279 H1264 0.959 . S
C1279 H1265 0.961 . S
C1279 C1278 1.502 . S
C1280 H1266 0.960 . S
C1280 H1267 0.961 . S
C1280 H1268 0.959 . S
C1280 C1278 1.561 . S
C1281 C1278 1.526 . S
C1281 C1282 1.396 . S
C1281 C1286 1.390 . S
C1282 C1276 1.465 . S
C1282 C1281 1.396 . S
C1282 C1283 1.399 . S
C1283 H1269 0.929 . S
C1283 C1282 1.399 . S
C1283 C1284 1.385 . S
C1284 H1270 0.931 . S
C1284 C1283 1.385 . S
C1284 C1285 1.389 . S
C1285 C1284 1.389 . S
C1285 C1286 1.387 . S
C1286 H1271 0.930 . S
C1286 C1281 1.390 . S
C1286 C1285 1.387 . S
H1287 C1299 0.930 . S
H1288 C1301 0.930 . S
H1289 C1302 0.930 . S
H1290 C1306 0.959 . S
H1291 C1306 0.959 . S
H1292 C1306 0.961 . S
H1293 C1307 0.960 . S
H1294 C1307 0.961 . S
H1295 C1307 0.959 . S
H1296 C1310 0.929 . S
H1297 C1311 0.931 1_554 S
H1298 C1313 0.930 . S
C1299 H1287 0.930 . S
C1299 C1300 1.399 . S
C1299 C1304 1.399 . S
C1300 C1299 1.399 . S
C1300 C1301 1.376 . S
C1301 H1288 0.930 . S
C1301 C1300 1.376 . S
C1301 C1302 1.388 . S
C1302 H1289 0.930 . S
C1302 C1301 1.388 . S
C1302 C1303 1.390 . S
C1303 C1302 1.390 . S
C1303 C1304 1.394 . S
C1303 C1309 1.465 . S
C1304 C1299 1.399 . S
C1304 C1303 1.394 . S
C1304 C1305 1.516 . S
C1305 C1304 1.516 . S
C1305 C1306 1.502 . S
C1305 C1307 1.561 . S
C1305 C1308 1.526 . S
C1306 H1290 0.959 . S
C1306 H1291 0.959 . S
C1306 H1292 0.961 . S
C1306 C1305 1.502 . S
C1307 H1293 0.960 . S
C1307 H1294 0.961 . S
C1307 H1295 0.959 . S
C1307 C1305 1.561 . S
C1308 C1305 1.526 . S
C1308 C1309 1.396 . S
C1308 C1313 1.390 . S
C1309 C1303 1.465 . S
C1309 C1308 1.396 . S
C1309 C1310 1.399 . S
C1310 H1296 0.929 . S
C1310 C1309 1.399 . S
C1310 C1311 1.385 . S
C1311 H1297 0.931 1_556 S
C1311 C1310 1.385 . S
C1311 C1312 1.388 1_556 S
C1312 C1311 1.388 1_554 S
C1312 C1313 1.378 1_554 S
C1313 H1298 0.930 . S
C1313 C1308 1.390 . S
C1313 C1312 1.378 1_556 S
H1314 C1326 0.930 . S
H1315 C1328 0.930 . S
H1316 C1329 0.930 . S
H1317 C1333 0.959 . S
H1318 C1333 0.959 . S
H1319 C1333 0.961 . S
H1320 C1334 0.960 . S
H1321 C1334 0.961 . S
H1322 C1334 0.959 . S
H1323 C1337 0.929 1_455 S
H1324 C1338 0.931 . S
H1325 C1340 0.930 . S
C1326 H1314 0.930 . S
C1326 C1327 1.399 . S
C1326 C1331 1.399 . S
C1327 C1326 1.399 . S
C1327 C1328 1.376 . S
C1328 H1315 0.930 . S
C1328 C1327 1.376 . S
C1328 C1329 1.388 . S
C1329 H1316 0.930 . S
C1329 C1328 1.388 . S
C1329 C1330 1.390 . S
C1330 C1329 1.390 . S
C1330 C1331 1.394 . S
C1330 C1336 1.466 1_455 S
C1331 C1326 1.399 . S
C1331 C1330 1.394 . S
C1331 C1332 1.516 1_455 S
C1332 C1331 1.516 1_655 S
C1332 C1333 1.502 . S
C1332 C1334 1.561 1_655 S
C1332 C1335 1.526 . S
C1333 H1317 0.959 . S
C1333 H1318 0.959 . S
C1333 H1319 0.961 . S
C1333 C1332 1.502 . S
C1334 H1320 0.960 . S
C1334 H1321 0.961 . S
C1334 H1322 0.959 . S
C1334 C1332 1.561 1_455 S
C1335 C1332 1.526 . S
C1335 C1336 1.397 . S
C1335 C1340 1.390 . S
C1336 C1330 1.466 1_655 S
C1336 C1335 1.397 . S
C1336 C1337 1.398 . S
C1337 H1323 0.929 1_655 S
C1337 C1336 1.398 . S
C1337 C1338 1.385 . S
C1338 H1324 0.931 . S
C1338 C1337 1.385 . S
C1338 C1339 1.389 . S
C1339 C1338 1.389 . S
C1339 C1340 1.387 . S
C1340 H1325 0.930 . S
C1340 C1335 1.390 . S
C1340 C1339 1.387 . S
H1341 C1353 0.930 . S
H1342 C1355 0.930 . S
H1343 C1356 0.930 . S
H1344 C1360 0.959 . S
H1345 C1360 0.959 . S
H1346 C1360 0.961 . S
H1347 C1361 0.960 . S
H1348 C1361 0.961 . S
H1349 C1361 0.959 . S
H1350 C1364 0.929 . S
H1351 C1365 0.931 . S
H1352 C1367 0.930 . S
C1353 H1341 0.930 . S
C1353 C1354 1.399 . S
C1353 C1358 1.399 . S
C1354 C1353 1.399 . S
C1354 C1355 1.376 . S
C1355 H1342 0.930 . S
C1355 C1354 1.376 . S
C1355 C1356 1.388 . S
C1356 H1343 0.930 . S
C1356 C1355 1.388 . S
C1356 C1357 1.390 . S
C1357 C1356 1.390 . S
C1357 C1358 1.394 . S
C1357 C1363 1.465 . S
C1358 C1353 1.399 . S
C1358 C1357 1.394 . S
C1358 C1359 1.516 . S
C1359 C1358 1.516 . S
C1359 C1360 1.502 . S
C1359 C1361 1.561 . S
C1359 C1362 1.526 . S
C1360 H1344 0.959 . S
C1360 H1345 0.959 . S
C1360 H1346 0.961 . S
C1360 C1359 1.502 . S
C1361 H1347 0.960 . S
C1361 H1348 0.961 . S
C1361 H1349 0.959 . S
C1361 C1359 1.561 . S
C1362 C1359 1.526 . S
C1362 C1363 1.396 . S
C1362 C1367 1.390 . S
C1363 C1357 1.465 . S
C1363 C1362 1.396 . S
C1363 C1364 1.399 . S
C1364 H1350 0.929 . S
C1364 C1363 1.399 . S
C1364 C1365 1.385 . S
C1365 H1351 0.931 . S
C1365 C1364 1.385 . S
C1365 C1366 1.389 . S
C1366 C1365 1.389 . S
C1366 C1367 1.387 . S
C1367 H1352 0.930 . S
C1367 C1362 1.390 . S
C1367 C1366 1.387 . S
H1368 C1380 0.918 1_565 S
H1369 C1382 0.930 . S
H1370 C1383 0.930 . S
H1371 C1387 0.959 . S
H1372 C1387 0.959 . S
H1373 C1387 0.961 . S
H1374 C1388 0.960 . S
H1375 C1388 0.961 . S
H1376 C1388 0.959 . S
H1377 C1391 0.929 . S
H1378 C1392 0.931 . S
H1379 C1394 0.930 . S
C1380 H1368 0.918 1_545 S
C1380 C1381 1.413 . S
C1380 C1385 1.398 1_545 S
C1381 C1380 1.413 . S
C1381 C1382 1.376 . S
C1382 H1369 0.930 . S
C1382 C1381 1.376 . S
C1382 C1383 1.388 . S
C1383 H1370 0.930 . S
C1383 C1382 1.388 . S
C1383 C1384 1.390 . S
C1384 C1383 1.390 . S
C1384 C1385 1.394 1_545 S
C1384 C1390 1.465 . S
C1385 C1380 1.398 1_565 S
C1385 C1384 1.394 1_565 S
C1385 C1386 1.516 . S
C1386 C1385 1.516 . S
C1386 C1387 1.502 . S
C1386 C1388 1.561 . S
C1386 C1389 1.526 . S
C1387 H1371 0.959 . S
C1387 H1372 0.959 . S
C1387 H1373 0.961 . S
C1387 C1386 1.502 . S
C1388 H1374 0.960 . S
C1388 H1375 0.961 . S
C1388 H1376 0.959 . S
C1388 C1386 1.561 . S
C1389 C1386 1.526 . S
C1389 C1390 1.396 1_565 S
C1389 C1394 1.390 . S
C1390 C1384 1.465 . S
C1390 C1389 1.396 1_545 S
C1390 C1391 1.399 . S
C1391 H1377 0.929 . S
C1391 C1390 1.399 . S
C1391 C1392 1.385 . S
C1392 H1378 0.931 . S
C1392 C1391 1.385 . S
C1392 C1393 1.389 1_545 S
C1393 C1392 1.389 1_565 S
C1393 C1394 1.387 . S
C1394 H1379 0.930 . S
C1394 C1389 1.390 . S
C1394 C1393 1.387 . S
H1395 C1407 0.930 1_545 S
H1396 C1409 0.930 . S
H1397 C1410 0.930 . S
H1398 C1414 0.959 . S
H1399 C1414 0.959 . S
H1400 C1414 0.961 . S
H1401 C1415 0.960 . S
H1402 C1415 0.961 . S
H1403 C1415 0.959 . S
H1404 C1418 0.929 . S
H1405 C1419 0.932 . S
H1406 C1421 0.930 . S
C1407 H1395 0.930 1_565 S
C1407 C1408 1.399 . S
C1407 C1412 1.399 1_565 S
C1408 C1407 1.399 . S
C1408 C1409 1.376 . S
C1409 H1396 0.930 . S
C1409 C1408 1.376 . S
C1409 C1410 1.388 . S
C1410 H1397 0.930 . S
C1410 C1409 1.388 . S
C1410 C1411 1.390 . S
C1411 C1410 1.390 . S
C1411 C1412 1.394 1_565 S
C1411 C1417 1.465 . S
C1412 C1407 1.399 1_545 S
C1412 C1411 1.394 1_545 S
C1412 C1413 1.516 . S
C1413 C1412 1.516 . S
C1413 C1414 1.502 . S
C1413 C1415 1.561 . S
C1413 C1416 1.526 . S
C1414 H1398 0.959 . S
C1414 H1399 0.959 . S
C1414 H1400 0.961 . S
C1414 C1413 1.502 . S
C1415 H1401 0.960 . S
C1415 H1402 0.961 . S
C1415 H1403 0.959 . S
C1415 C1413 1.561 . S
C1416 C1413 1.526 . S
C1416 C1417 1.396 1_545 S
C1416 C1421 1.390 . S
C1417 C1411 1.465 . S
C1417 C1416 1.396 1_565 S
C1417 C1418 1.399 . S
C1418 H1404 0.929 . S
C1418 C1417 1.399 . S
C1418 C1419 1.389 . S
C1419 H1405 0.932 . S
C1419 C1418 1.389 . S
C1419 C1420 1.384 1_565 S
C1420 C1419 1.384 1_545 S
C1420 C1421 1.387 . S
C1421 H1406 0.930 . S
C1421 C1416 1.390 . S
C1421 C1420 1.387 . S
H1422 C1434 0.930 . S
H1423 C1436 0.930 . S
H1424 C1437 0.930 . S
H1425 C1441 0.959 . S
H1426 C1441 0.959 . S
H1427 C1441 0.961 . S
H1428 C1442 0.960 . S
H1429 C1442 0.961 . S
H1430 C1442 0.959 . S
H1431 C1445 0.929 . S
H1432 C1446 0.931 . S
H1433 C1448 0.930 . S
C1434 H1422 0.930 . S
C1434 C1435 1.399 . S
C1434 C1439 1.399 . S
C1435 C1434 1.399 . S
C1435 C1436 1.376 . S
C1436 H1423 0.930 . S
C1436 C1435 1.376 . S
C1436 C1437 1.388 . S
C1437 H1424 0.930 . S
C1437 C1436 1.388 . S
C1437 C1438 1.390 . S
C1438 C1437 1.390 . S
C1438 C1439 1.394 . S
C1438 C1444 1.465 1_655 S
C1439 C1434 1.399 . S
C1439 C1438 1.394 . S
C1439 C1440 1.516 . S
C1440 C1439 1.516 . S
C1440 C1441 1.502 1_655 S
C1440 C1442 1.561 . S
C1440 C1443 1.526 1_655 S
C1441 H1425 0.959 . S
C1441 H1426 0.959 . S
C1441 H1427 0.961 . S
C1441 C1440 1.502 1_455 S
C1442 H1428 0.960 . S
C1442 H1429 0.961 . S
C1442 H1430 0.959 . S
C1442 C1440 1.561 . S
C1443 C1440 1.526 1_455 S
C1443 C1444 1.396 . S
C1443 C1448 1.390 . S
C1444 C1438 1.465 1_455 S
C1444 C1443 1.396 . S
C1444 C1445 1.399 . S
C1445 H1431 0.929 . S
C1445 C1444 1.399 . S
C1445 C1446 1.385 . S
C1446 H1432 0.931 . S
C1446 C1445 1.385 . S
C1446 C1447 1.389 . S
C1447 C1446 1.389 . S
C1447 C1448 1.387 . S
C1448 H1433 0.930 . S
C1448 C1443 1.390 . S
C1448 C1447 1.387 . S
H1449 C1461 0.930 . S
H1450 C1463 0.930 . S
H1451 C1464 0.930 . S
H1452 C1468 0.959 . S
H1453 C1468 0.959 . S
H1454 C1468 0.961 . S
H1455 C1469 0.960 . S
H1456 C1469 0.961 . S
H1457 C1469 0.959 . S
H1458 C1472 0.929 . S
H1459 C1473 0.931 . S
H1460 C1475 0.930 . S
C1461 H1449 0.930 . S
C1461 C1462 1.399 . S
C1461 C1466 1.399 . S
C1462 C1461 1.399 . S
C1462 C1463 1.376 . S
C1463 H1450 0.930 . S
C1463 C1462 1.376 . S
C1463 C1464 1.388 . S
C1464 H1451 0.930 . S
C1464 C1463 1.388 . S
C1464 C1465 1.390 . S
C1465 C1464 1.390 . S
C1465 C1466 1.394 . S
C1465 C1471 1.465 . S
C1466 C1461 1.399 . S
C1466 C1465 1.394 . S
C1466 C1467 1.516 . S
C1467 C1466 1.516 . S
C1467 C1468 1.502 . S
C1467 C1469 1.561 . S
C1467 C1470 1.526 . S
C1468 H1452 0.959 . S
C1468 H1453 0.959 . S
C1468 H1454 0.961 . S
C1468 C1467 1.502 . S
C1469 H1455 0.960 . S
C1469 H1456 0.961 . S
C1469 H1457 0.959 . S
C1469 C1467 1.561 . S
C1470 C1467 1.526 . S
C1470 C1471 1.396 . S
C1470 C1475 1.390 . S
C1471 C1465 1.465 . S
C1471 C1470 1.396 . S
C1471 C1472 1.399 . S
C1472 H1458 0.929 . S
C1472 C1471 1.399 . S
C1472 C1473 1.385 . S
C1473 H1459 0.931 . S
C1473 C1472 1.385 . S
C1473 C1474 1.389 . S
C1474 C1473 1.389 . S
C1474 C1475 1.387 . S
C1475 H1460 0.930 . S
C1475 C1470 1.390 . S
C1475 C1474 1.387 . S
H1476 C1488 0.930 . S
H1477 C1490 0.930 . S
H1478 C1491 0.930 . S
H1479 C1495 0.959 . S
H1480 C1495 0.959 . S
H1481 C1495 0.961 . S
H1482 C1496 0.960 . S
H1483 C1496 0.961 . S
H1484 C1496 0.959 . S
H1485 C1499 0.929 . S
H1486 C1500 0.931 . S
H1487 C1502 0.930 . S
C1488 H1476 0.930 . S
C1488 C1489 1.399 . S
C1488 C1493 1.399 . S
C1489 C1488 1.399 . S
C1489 C1490 1.376 . S
C1490 H1477 0.930 . S
C1490 C1489 1.376 . S
C1490 C1491 1.388 . S
C1491 H1478 0.930 . S
C1491 C1490 1.388 . S
C1491 C1492 1.390 . S
C1492 C1491 1.390 . S
C1492 C1493 1.394 . S
C1492 C1498 1.465 . S
C1493 C1488 1.399 . S
C1493 C1492 1.394 . S
C1493 C1494 1.516 . S
C1494 C1493 1.516 . S
C1494 C1495 1.502 . S
C1494 C1496 1.561 . S
C1494 C1497 1.526 . S
C1495 H1479 0.959 . S
C1495 H1480 0.959 . S
C1495 H1481 0.961 . S
C1495 C1494 1.502 . S
C1496 H1482 0.960 . S
C1496 H1483 0.961 . S
C1496 H1484 0.959 . S
C1496 C1494 1.561 . S
C1497 C1494 1.526 . S
C1497 C1498 1.396 . S
C1497 C1502 1.390 . S
C1498 C1492 1.465 . S
C1498 C1497 1.396 . S
C1498 C1499 1.399 . S
C1499 H1485 0.929 . S
C1499 C1498 1.399 . S
C1499 C1500 1.385 . S
C1500 H1486 0.931 . S
C1500 C1499 1.385 . S
C1500 C1501 1.389 . S
C1501 C1500 1.389 . S
C1501 C1502 1.387 . S
C1502 H1487 0.930 . S
C1502 C1497 1.390 . S
C1502 C1501 1.387 . S
H1503 C1515 0.930 . S
H1504 C1517 0.930 . S
H1505 C1518 0.930 . S
H1506 C1522 0.959 . S
H1507 C1522 0.959 . S
H1508 C1522 0.961 . S
H1509 C1523 0.960 . S
H1510 C1523 0.961 . S
H1511 C1523 0.959 . S
H1512 C1526 0.929 . S
H1513 C1527 0.931 . S
H1514 C1529 0.930 . S
C1515 H1503 0.930 . S
C1515 C1516 1.399 . S
C1515 C1520 1.399 . S
C1516 C1515 1.399 . S
C1516 C1517 1.376 . S
C1517 H1504 0.930 . S
C1517 C1516 1.376 . S
C1517 C1518 1.388 . S
C1518 H1505 0.930 . S
C1518 C1517 1.388 . S
C1518 C1519 1.390 . S
C1519 C1518 1.390 . S
C1519 C1520 1.394 . S
C1519 C1525 1.465 . S
C1520 C1515 1.399 . S
C1520 C1519 1.394 . S
C1520 C1521 1.516 . S
C1521 C1520 1.516 . S
C1521 C1522 1.502 . S
C1521 C1523 1.561 . S
C1521 C1524 1.526 . S
C1522 H1506 0.959 . S
C1522 H1507 0.959 . S
C1522 H1508 0.961 . S
C1522 C1521 1.502 . S
C1523 H1509 0.960 . S
C1523 H1510 0.961 . S
C1523 H1511 0.959 . S
C1523 C1521 1.561 . S
C1524 C1521 1.526 . S
C1524 C1525 1.396 . S
C1524 C1529 1.390 . S
C1525 C1519 1.465 . S
C1525 C1524 1.396 . S
C1525 C1526 1.399 . S
C1526 H1512 0.929 . S
C1526 C1525 1.399 . S
C1526 C1527 1.385 . S
C1527 H1513 0.931 . S
C1527 C1526 1.385 . S
C1527 C1528 1.389 . S
C1528 C1527 1.389 . S
C1528 C1529 1.387 . S
C1529 H1514 0.930 . S
C1529 C1524 1.390 . S
C1529 C1528 1.387 . S
H1530 C1542 0.930 . S
H1531 C1544 0.930 . S
H1532 C1545 0.930 . S
H1533 C1549 0.959 . S
H1534 C1549 0.959 . S
H1535 C1549 0.961 . S
H1536 C1550 0.960 . S
H1537 C1550 0.961 . S
H1538 C1550 0.959 . S
H1539 C1553 0.929 . S
H1540 C1554 0.931 . S
H1541 C1556 0.930 . S
C1542 H1530 0.930 . S
C1542 C1543 1.399 . S
C1542 C1547 1.399 . S
C1543 C1542 1.399 . S
C1543 C1544 1.376 . S
C1544 H1531 0.930 . S
C1544 C1543 1.376 . S
C1544 C1545 1.388 . S
C1545 H1532 0.930 . S
C1545 C1544 1.388 . S
C1545 C1546 1.390 . S
C1546 C1545 1.390 . S
C1546 C1547 1.394 . S
C1546 C1552 1.465 . S
C1547 C1542 1.399 . S
C1547 C1546 1.394 . S
C1547 C1548 1.516 . S
C1548 C1547 1.516 . S
C1548 C1549 1.502 . S
C1548 C1550 1.561 . S
C1548 C1551 1.526 . S
C1549 H1533 0.959 . S
C1549 H1534 0.959 . S
C1549 H1535 0.961 . S
C1549 C1548 1.502 . S
C1550 H1536 0.960 . S
C1550 H1537 0.961 . S
C1550 H1538 0.959 . S
C1550 C1548 1.561 . S
C1551 C1548 1.526 . S
C1551 C1552 1.396 . S
C1551 C1556 1.390 . S
C1552 C1546 1.465 . S
C1552 C1551 1.396 . S
C1552 C1553 1.399 . S
C1553 H1539 0.929 . S
C1553 C1552 1.399 . S
C1553 C1554 1.385 . S
C1554 H1540 0.931 . S
C1554 C1553 1.385 . S
C1554 C1555 1.389 . S
C1555 C1554 1.389 . S
C1555 C1556 1.387 . S
C1556 H1541 0.930 . S
C1556 C1551 1.390 . S
C1556 C1555 1.387 . S
H1557 C1569 0.930 . S
H1558 C1571 0.930 . S
H1559 C1572 0.930 . S
H1560 C1576 0.959 . S
H1561 C1576 0.959 . S
H1562 C1576 0.961 . S
H1563 C1577 0.960 . S
H1564 C1577 0.961 . S
H1565 C1577 0.959 . S
H1566 C1580 0.929 . S
H1567 C1581 0.931 . S
H1568 C1583 0.930 . S
C1569 H1557 0.930 . S
C1569 C1570 1.399 . S
C1569 C1574 1.399 . S
C1570 C1569 1.399 . S
C1570 C1571 1.376 . S
C1571 H1558 0.930 . S
C1571 C1570 1.376 . S
C1571 C1572 1.388 . S
C1572 H1559 0.930 . S
C1572 C1571 1.388 . S
C1572 C1573 1.390 . S
C1573 C1572 1.390 . S
C1573 C1574 1.394 . S
C1573 C1579 1.465 . S
C1574 C1569 1.399 . S
C1574 C1573 1.394 . S
C1574 C1575 1.516 . S
C1575 C1574 1.516 . S
C1575 C1576 1.502 . S
C1575 C1577 1.561 . S
C1575 C1578 1.526 . S
C1576 H1560 0.959 . S
C1576 H1561 0.959 . S
C1576 H1562 0.961 . S
C1576 C1575 1.502 . S
C1577 H1563 0.960 . S
C1577 H1564 0.961 . S
C1577 H1565 0.959 . S
C1577 C1575 1.561 . S
C1578 C1575 1.526 . S
C1578 C1579 1.396 . S
C1578 C1583 1.390 . S
C1579 C1573 1.465 . S
C1579 C1578 1.396 . S
C1579 C1580 1.399 . S
C1580 H1566 0.929 . S
C1580 C1579 1.399 . S
C1580 C1581 1.385 . S
C1581 H1567 0.931 . S
C1581 C1580 1.385 . S
C1581 C1582 1.389 . S
C1582 C1581 1.389 . S
C1582 C1583 1.387 . S
C1583 H1568 0.930 . S
C1583 C1578 1.390 . S
C1583 C1582 1.387 . S
H1584 C1596 0.930 . S
H1585 C1598 0.930 . S
H1586 C1599 0.930 . S
H1587 C1603 0.959 . S
H1588 C1603 0.959 . S
H1589 C1603 0.961 . S
H1590 C1604 0.960 . S
H1591 C1604 0.961 . S
H1592 C1604 0.959 . S
H1593 C1607 0.929 . S
H1594 C1608 0.931 . S
H1595 C1610 0.930 . S
C1596 H1584 0.930 . S
C1596 C1597 1.399 . S
C1596 C1601 1.399 . S
C1597 C1596 1.399 . S
C1597 C1598 1.376 . S
C1598 H1585 0.930 . S
C1598 C1597 1.376 . S
C1598 C1599 1.388 . S
C1599 H1586 0.930 . S
C1599 C1598 1.388 . S
C1599 C1600 1.390 . S
C1600 C1599 1.390 . S
C1600 C1601 1.394 . S
C1600 C1606 1.465 . S
C1601 C1596 1.399 . S
C1601 C1600 1.394 . S
C1601 C1602 1.516 . S
C1602 C1601 1.516 . S
C1602 C1603 1.502 . S
C1602 C1604 1.561 . S
C1602 C1605 1.526 . S
C1603 H1587 0.959 . S
C1603 H1588 0.959 . S
C1603 H1589 0.961 . S
C1603 C1602 1.502 . S
C1604 H1590 0.960 . S
C1604 H1591 0.961 . S
C1604 H1592 0.959 . S
C1604 C1602 1.561 . S
C1605 C1602 1.526 . S
C1605 C1606 1.396 . S
C1605 C1610 1.390 . S
C1606 C1600 1.465 . S
C1606 C1605 1.396 . S
C1606 C1607 1.399 . S
C1607 H1593 0.929 . S
C1607 C1606 1.399 . S
C1607 C1608 1.385 . S
C1608 H1594 0.931 . S
C1608 C1607 1.385 . S
C1608 C1609 1.389 . S
C1609 C1608 1.389 . S
C1609 C1610 1.387 . S
C1610 H1595 0.930 . S
C1610 C1605 1.390 . S
C1610 C1609 1.387 . S
H1611 C1623 0.930 . S
H1612 C1625 0.930 . S
H1613 C1626 0.930 . S
H1614 C1630 0.959 . S
H1615 C1630 0.959 . S
H1616 C1630 0.961 . S
H1617 C1631 0.960 . S
H1618 C1631 0.961 . S
H1619 C1631 0.959 . S
H1620 C1634 0.929 . S
H1621 C1635 0.931 . S
H1622 C1637 0.930 . S
C1623 H1611 0.930 . S
C1623 C1624 1.399 . S
C1623 C1628 1.399 . S
C1624 C1623 1.399 . S
C1624 C1625 1.376 . S
C1625 H1612 0.930 . S
C1625 C1624 1.376 . S
C1625 C1626 1.388 . S
C1626 H1613 0.930 . S
C1626 C1625 1.388 . S
C1626 C1627 1.390 . S
C1627 C1626 1.390 . S
C1627 C1628 1.394 . S
C1627 C1633 1.465 . S
C1628 C1623 1.399 . S
C1628 C1627 1.394 . S
C1628 C1629 1.516 . S
C1629 C1628 1.516 . S
C1629 C1630 1.502 . S
C1629 C1631 1.561 . S
C1629 C1632 1.526 . S
C1630 H1614 0.959 . S
C1630 H1615 0.959 . S
C1630 H1616 0.961 . S
C1630 C1629 1.502 . S
C1631 H1617 0.960 . S
C1631 H1618 0.961 . S
C1631 H1619 0.959 . S
C1631 C1629 1.561 . S
C1632 C1629 1.526 . S
C1632 C1633 1.396 . S
C1632 C1637 1.390 . S
C1633 C1627 1.465 . S
C1633 C1632 1.396 . S
C1633 C1634 1.399 . S
C1634 H1620 0.929 . S
C1634 C1633 1.399 . S
C1634 C1635 1.385 . S
C1635 H1621 0.931 . S
C1635 C1634 1.385 . S
C1635 C1636 1.389 . S
C1636 C1635 1.389 . S
C1636 C1637 1.387 . S
C1637 H1622 0.930 . S
C1637 C1632 1.390 . S
C1637 C1636 1.387 . S
H1638 C1650 0.930 . S
H1639 C1652 0.930 . S
H1640 C1653 0.930 . S
H1641 C1657 0.959 . S
H1642 C1657 0.959 . S
H1643 C1657 0.961 . S
H1644 C1658 0.960 . S
H1645 C1658 0.961 . S
H1646 C1658 0.959 . S
H1647 C1661 0.929 . S
H1648 C1662 0.931 . S
H1649 C1664 0.930 . S
C1650 H1638 0.930 . S
C1650 C1651 1.399 . S
C1650 C1655 1.399 . S
C1651 C1650 1.399 . S
C1651 C1652 1.376 . S
C1652 H1639 0.930 . S
C1652 C1651 1.376 . S
C1652 C1653 1.388 . S
C1653 H1640 0.930 . S
C1653 C1652 1.388 . S
C1653 C1654 1.390 . S
C1654 C1653 1.390 . S
C1654 C1655 1.394 . S
C1654 C1660 1.465 . S
C1655 C1650 1.399 . S
C1655 C1654 1.394 . S
C1655 C1656 1.516 . S
C1656 C1655 1.516 . S
C1656 C1657 1.502 . S
C1656 C1658 1.561 . S
C1656 C1659 1.526 . S
C1657 H1641 0.959 . S
C1657 H1642 0.959 . S
C1657 H1643 0.961 . S
C1657 C1656 1.502 . S
C1658 H1644 0.960 . S
C1658 H1645 0.961 . S
C1658 H1646 0.959 . S
C1658 C1656 1.561 . S
C1659 C1656 1.526 . S
C1659 C1660 1.396 . S
C1659 C1664 1.390 . S
C1660 C1654 1.465 . S
C1660 C1659 1.396 . S
C1660 C1661 1.399 . S
C1661 H1647 0.929 . S
C1661 C1660 1.399 . S
C1661 C1662 1.385 . S
C1662 H1648 0.931 . S
C1662 C1661 1.385 . S
C1662 C1663 1.389 . S
C1663 C1662 1.389 . S
C1663 C1664 1.387 . S
C1664 H1649 0.930 . S
C1664 C1659 1.390 . S
C1664 C1663 1.387 . S
H1665 C1677 0.930 . S
H1666 C1679 0.930 . S
H1667 C1680 0.930 . S
H1668 C1684 0.959 . S
H1669 C1684 0.959 . S
H1670 C1684 0.961 . S
H1671 C1685 0.960 . S
H1672 C1685 0.961 . S
H1673 C1685 0.959 . S
H1674 C1688 0.929 . S
H1675 C1689 0.931 . S
H1676 C1691 0.930 . S
C1677 H1665 0.930 . S
C1677 C1678 1.399 . S
C1677 C1682 1.399 . S
C1678 C1677 1.399 . S
C1678 C1679 1.376 . S
C1679 H1666 0.930 . S
C1679 C1678 1.376 . S
C1679 C1680 1.388 . S
C1680 H1667 0.930 . S
C1680 C1679 1.388 . S
C1680 C1681 1.390 . S
C1681 C1680 1.390 . S
C1681 C1682 1.394 . S
C1681 C1687 1.465 . S
C1682 C1677 1.399 . S
C1682 C1681 1.394 . S
C1682 C1683 1.516 . S
C1683 C1682 1.516 . S
C1683 C1684 1.502 . S
C1683 C1685 1.561 . S
C1683 C1686 1.526 . S
C1684 H1668 0.959 . S
C1684 H1669 0.959 . S
C1684 H1670 0.961 . S
C1684 C1683 1.502 . S
C1685 H1671 0.960 . S
C1685 H1672 0.961 . S
C1685 H1673 0.959 . S
C1685 C1683 1.561 . S
C1686 C1683 1.526 . S
C1686 C1687 1.396 . S
C1686 C1691 1.390 . S
C1687 C1681 1.465 . S
C1687 C1686 1.396 . S
C1687 C1688 1.399 . S
C1688 H1674 0.929 . S
C1688 C1687 1.399 . S
C1688 C1689 1.385 . S
C1689 H1675 0.931 . S
C1689 C1688 1.385 . S
C1689 C1690 1.389 . S
C1690 C1689 1.389 . S
C1690 C1691 1.387 . S
C1691 H1676 0.930 . S
C1691 C1686 1.390 . S
C1691 C1690 1.387 . S
H1692 C1704 0.930 . S
H1693 C1706 0.930 . S
H1694 C1707 0.930 . S
H1695 C1711 0.959 . S
H1696 C1711 0.959 . S
H1697 C1711 0.961 . S
H1698 C1712 0.960 . S
H1699 C1712 0.961 . S
H1700 C1712 0.959 . S
H1701 C1715 0.929 . S
H1702 C1716 0.931 . S
H1703 C1718 0.930 . S
C1704 H1692 0.930 . S
C1704 C1705 1.399 . S
C1704 C1709 1.399 . S
C1705 C1704 1.399 . S
C1705 C1706 1.376 . S
C1706 H1693 0.930 . S
C1706 C1705 1.376 . S
C1706 C1707 1.388 . S
C1707 H1694 0.930 . S
C1707 C1706 1.388 . S
C1707 C1708 1.390 . S
C1708 C1707 1.390 . S
C1708 C1709 1.394 . S
C1708 C1714 1.465 . S
C1709 C1704 1.399 . S
C1709 C1708 1.394 . S
C1709 C1710 1.516 . S
C1710 C1709 1.516 . S
C1710 C1711 1.502 . S
C1710 C1712 1.561 . S
C1710 C1713 1.526 . S
C1711 H1695 0.959 . S
C1711 H1696 0.959 . S
C1711 H1697 0.961 . S
C1711 C1710 1.502 . S
C1712 H1698 0.960 . S
C1712 H1699 0.961 . S
C1712 H1700 0.959 . S
C1712 C1710 1.561 . S
C1713 C1710 1.526 . S
C1713 C1714 1.396 . S
C1713 C1718 1.390 . S
C1714 C1708 1.465 . S
C1714 C1713 1.396 . S
C1714 C1715 1.399 . S
C1715 H1701 0.929 . S
C1715 C1714 1.399 . S
C1715 C1716 1.385 . S
C1716 H1702 0.931 . S
C1716 C1715 1.385 . S
C1716 C1717 1.389 . S
C1717 C1716 1.389 . S
C1717 C1718 1.387 . S
C1718 H1703 0.930 . S
C1718 C1713 1.390 . S
C1718 C1717 1.387 . S
H1719 C1731 0.930 . S
H1720 C1733 0.930 . S
H1721 C1734 0.930 . S
H1722 C1738 0.959 . S
H1723 C1738 0.959 . S
H1724 C1738 0.961 . S
H1725 C1739 0.960 . S
H1726 C1739 0.961 . S
H1727 C1739 0.959 . S
H1728 C1742 0.929 . S
H1729 C1743 0.931 . S
H1730 C1745 0.930 . S
C1731 H1719 0.930 . S
C1731 C1732 1.399 . S
C1731 C1736 1.399 . S
C1732 C1731 1.399 . S
C1732 C1733 1.376 . S
C1733 H1720 0.930 . S
C1733 C1732 1.376 . S
C1733 C1734 1.388 . S
C1734 H1721 0.930 . S
C1734 C1733 1.388 . S
C1734 C1735 1.390 . S
C1735 C1734 1.390 . S
C1735 C1736 1.394 . S
C1735 C1741 1.465 . S
C1736 C1731 1.399 . S
C1736 C1735 1.394 . S
C1736 C1737 1.516 . S
C1737 C1736 1.516 . S
C1737 C1738 1.502 . S
C1737 C1739 1.561 . S
C1737 C1740 1.526 . S
C1738 H1722 0.959 . S
C1738 H1723 0.959 . S
C1738 H1724 0.961 . S
C1738 C1737 1.502 . S
C1739 H1725 0.960 . S
C1739 H1726 0.961 . S
C1739 H1727 0.959 . S
C1739 C1737 1.561 . S
C1740 C1737 1.526 . S
C1740 C1741 1.396 . S
C1740 C1745 1.390 . S
C1741 C1735 1.465 . S
C1741 C1740 1.396 . S
C1741 C1742 1.399 . S
C1742 H1728 0.929 . S
C1742 C1741 1.399 . S
C1742 C1743 1.385 . S
C1743 H1729 0.931 . S
C1743 C1742 1.385 . S
C1743 C1744 1.389 . S
C1744 C1743 1.389 . S
C1744 C1745 1.387 . S
C1745 H1730 0.930 . S
C1745 C1740 1.390 . S
C1745 C1744 1.387 . S
H1746 C1758 0.930 . S
H1747 C1760 0.930 . S
H1748 C1761 0.930 . S
H1749 C1765 0.959 . S
H1750 C1765 0.959 . S
H1751 C1765 0.961 . S
H1752 C1766 0.960 . S
H1753 C1766 0.961 . S
H1754 C1766 0.959 . S
H1755 C1769 0.929 . S
H1756 C1770 0.931 . S
H1757 C1772 0.930 . S
C1758 H1746 0.930 . S
C1758 C1759 1.399 . S
C1758 C1763 1.399 . S
C1759 C1758 1.399 . S
C1759 C1760 1.376 . S
C1760 H1747 0.930 . S
C1760 C1759 1.376 . S
C1760 C1761 1.388 . S
C1761 H1748 0.930 . S
C1761 C1760 1.388 . S
C1761 C1762 1.390 . S
C1762 C1761 1.390 . S
C1762 C1763 1.394 . S
C1762 C1768 1.465 . S
C1763 C1758 1.399 . S
C1763 C1762 1.394 . S
C1763 C1764 1.516 . S
C1764 C1763 1.516 . S
C1764 C1765 1.502 . S
C1764 C1766 1.561 . S
C1764 C1767 1.526 . S
C1765 H1749 0.959 . S
C1765 H1750 0.959 . S
C1765 H1751 0.961 . S
C1765 C1764 1.502 . S
C1766 H1752 0.960 . S
C1766 H1753 0.961 . S
C1766 H1754 0.959 . S
C1766 C1764 1.561 . S
C1767 C1764 1.526 . S
C1767 C1768 1.396 . S
C1767 C1772 1.390 . S
C1768 C1762 1.465 . S
C1768 C1767 1.396 . S
C1768 C1769 1.399 . S
C1769 H1755 0.929 . S
C1769 C1768 1.399 . S
C1769 C1770 1.385 . S
C1770 H1756 0.931 . S
C1770 C1769 1.385 . S
C1770 C1771 1.389 . S
C1771 C1770 1.389 . S
C1771 C1772 1.387 . S
C1772 H1757 0.930 . S
C1772 C1767 1.390 . S
C1772 C1771 1.387 . S
H1773 C1785 0.930 . S
H1774 C1787 0.930 . S
H1775 C1788 0.930 . S
H1776 C1792 0.959 . S
H1777 C1792 0.959 . S
H1778 C1792 0.961 . S
H1779 C1793 0.960 . S
H1780 C1793 0.961 . S
H1781 C1793 0.959 . S
H1782 C1796 0.929 . S
H1783 C1797 0.931 . S
H1784 C1799 0.930 . S
C1785 H1773 0.930 . S
C1785 C1786 1.399 . S
C1785 C1790 1.399 . S
C1786 C1785 1.399 . S
C1786 C1787 1.376 . S
C1787 H1774 0.930 . S
C1787 C1786 1.376 . S
C1787 C1788 1.388 . S
C1788 H1775 0.930 . S
C1788 C1787 1.388 . S
C1788 C1789 1.390 . S
C1789 C1788 1.390 . S
C1789 C1790 1.394 . S
C1789 C1795 1.465 . S
C1790 C1785 1.399 . S
C1790 C1789 1.394 . S
C1790 C1791 1.516 . S
C1791 C1790 1.516 . S
C1791 C1792 1.502 . S
C1791 C1793 1.561 . S
C1791 C1794 1.526 . S
C1792 H1776 0.959 . S
C1792 H1777 0.959 . S
C1792 H1778 0.961 . S
C1792 C1791 1.502 . S
C1793 H1779 0.960 . S
C1793 H1780 0.961 . S
C1793 H1781 0.959 . S
C1793 C1791 1.561 . S
C1794 C1791 1.526 . S
C1794 C1795 1.396 . S
C1794 C1799 1.390 . S
C1795 C1789 1.465 . S
C1795 C1794 1.396 . S
C1795 C1796 1.399 . S
C1796 H1782 0.929 . S
C1796 C1795 1.399 . S
C1796 C1797 1.385 . S
C1797 H1783 0.931 . S
C1797 C1796 1.385 . S
C1797 C1798 1.389 . S
C1798 C1797 1.389 . S
C1798 C1799 1.387 . S
C1799 H1784 0.930 . S
C1799 C1794 1.390 . S
C1799 C1798 1.387 . S
H1800 C1812 0.930 . S
H1801 C1814 0.930 . S
H1802 C1815 0.946 . S
H1803 C1819 0.959 . S
H1804 C1819 0.959 . S
H1805 C1819 0.961 . S
H1806 C1820 0.960 . S
H1807 C1820 0.961 . S
H1808 C1820 0.959 . S
H1809 C1823 0.929 . S
H1810 C1824 0.931 . S
H1811 C1826 0.930 . S
C1812 H1800 0.930 . S
C1812 C1813 1.399 . S
C1812 C1817 1.399 . S
C1813 C1812 1.399 . S
C1813 C1814 1.376 . S
C1814 H1801 0.930 . S
C1814 C1813 1.376 . S
C1814 C1815 1.366 1_455 S
C1815 H1802 0.946 . S
C1815 C1814 1.366 1_655 S
C1815 C1816 1.396 . S
C1816 C1815 1.396 . S
C1816 C1817 1.394 1_655 S
C1816 C1822 1.465 . S
C1817 C1812 1.399 . S
C1817 C1816 1.394 1_455 S
C1817 C1818 1.524 . S
C1818 C1817 1.524 . S
C1818 C1819 1.518 . S
C1818 C1820 1.550 1_455 S
C1818 C1821 1.511 1_455 S
C1819 H1803 0.959 . S
C1819 H1804 0.959 . S
C1819 H1805 0.961 . S
C1819 C1818 1.518 . S
C1820 H1806 0.960 . S
C1820 H1807 0.961 . S
C1820 H1808 0.959 . S
C1820 C1818 1.550 1_655 S
C1821 C1818 1.511 1_655 S
C1821 C1822 1.396 . S
C1821 C1826 1.390 . S
C1822 C1816 1.465 . S
C1822 C1821 1.396 . S
C1822 C1823 1.399 . S
C1823 H1809 0.929 . S
C1823 C1822 1.399 . S
C1823 C1824 1.385 . S
C1824 H1810 0.931 . S
C1824 C1823 1.385 . S
C1824 C1825 1.389 . S
C1825 C1824 1.389 . S
C1825 C1826 1.387 . S
C1826 H1811 0.930 . S
C1826 C1821 1.390 . S
C1826 C1825 1.387 . S
H1827 C1839 0.930 . S
H1828 C1841 0.930 . S
H1829 C1842 0.930 . S
H1830 C1846 0.959 . S
H1831 C1846 0.959 . S
H1832 C1846 0.961 . S
H1833 C1847 0.960 . S
H1834 C1847 0.961 . S
H1835 C1847 0.959 . S
H1836 C1850 0.929 . S
H1837 C1851 0.931 . S
H1838 C1853 0.930 . S
C1839 H1827 0.930 . S
C1839 C1840 1.399 . S
C1839 C1844 1.399 . S
C1840 C1839 1.399 . S
C1840 C1841 1.376 . S
C1841 H1828 0.930 . S
C1841 C1840 1.376 . S
C1841 C1842 1.388 . S
C1842 H1829 0.930 . S
C1842 C1841 1.388 . S
C1842 C1843 1.390 . S
C1843 C1842 1.390 . S
C1843 C1844 1.394 . S
C1843 C1849 1.465 . S
C1844 C1839 1.399 . S
C1844 C1843 1.394 . S
C1844 C1845 1.516 . S
C1845 C1844 1.516 . S
C1845 C1846 1.502 . S
C1845 C1847 1.561 . S
C1845 C1848 1.526 . S
C1846 H1830 0.959 . S
C1846 H1831 0.959 . S
C1846 H1832 0.961 . S
C1846 C1845 1.502 . S
C1847 H1833 0.960 . S
C1847 H1834 0.961 . S
C1847 H1835 0.959 . S
C1847 C1845 1.561 . S
C1848 C1845 1.526 . S
C1848 C1849 1.396 . S
C1848 C1853 1.390 . S
C1849 C1843 1.465 . S
C1849 C1848 1.396 . S
C1849 C1850 1.399 . S
C1850 H1836 0.929 . S
C1850 C1849 1.399 . S
C1850 C1851 1.385 . S
C1851 H1837 0.931 . S
C1851 C1850 1.385 . S
C1851 C1852 1.389 . S
C1852 C1851 1.389 . S
C1852 C1853 1.387 . S
C1853 H1838 0.930 . S
C1853 C1848 1.390 . S
C1853 C1852 1.387 . S
H1854 C1866 0.930 . S
H1855 C1868 0.930 . S
H1856 C1869 0.930 . S
H1857 C1873 0.959 . S
H1858 C1873 0.959 . S
H1859 C1873 0.961 . S
H1860 C1874 0.960 . S
H1861 C1874 0.961 . S
H1862 C1874 0.959 . S
H1863 C1877 0.929 . S
H1864 C1878 0.931 . S
H1865 C1880 0.930 . S
C1866 H1854 0.930 . S
C1866 C1867 1.399 . S
C1866 C1871 1.399 . S
C1867 C1866 1.399 . S
C1867 C1868 1.376 1_545 S
C1868 H1855 0.930 . S
C1868 C1867 1.376 1_565 S
C1868 C1869 1.388 . S
C1869 H1856 0.930 . S
C1869 C1868 1.388 . S
C1869 C1870 1.390 . S
C1870 C1869 1.390 . S
C1870 C1871 1.394 1_565 S
C1870 C1876 1.465 . S
C1871 C1866 1.399 . S
C1871 C1870 1.394 1_545 S
C1871 C1872 1.516 . S
C1872 C1871 1.516 . S
C1872 C1873 1.502 . S
C1872 C1874 1.561 . S
C1872 C1875 1.526 . S
C1873 H1857 0.959 . S
C1873 H1858 0.959 . S
C1873 H1859 0.961 . S
C1873 C1872 1.502 . S
C1874 H1860 0.960 . S
C1874 H1861 0.961 . S
C1874 H1862 0.959 . S
C1874 C1872 1.561 . S
C1875 C1872 1.526 . S
C1875 C1876 1.396 1_545 S
C1875 C1880 1.390 . S
C1876 C1870 1.465 . S
C1876 C1875 1.396 1_565 S
C1876 C1877 1.399 . S
C1877 H1863 0.929 . S
C1877 C1876 1.399 . S
C1877 C1878 1.385 . S
C1878 H1864 0.931 . S
C1878 C1877 1.385 . S
C1878 C1879 1.389 . S
C1879 C1878 1.389 . S
C1879 C1880 1.387 1_565 S
C1880 H1865 0.930 . S
C1880 C1875 1.390 . S
C1880 C1879 1.387 1_545 S
H1881 C1893 0.930 . S
H1882 C1895 0.930 . S
H1883 C1896 0.930 . S
H1884 C1900 0.959 . S
H1885 C1900 0.959 . S
H1886 C1900 0.961 . S
H1887 C1901 0.960 . S
H1888 C1901 0.961 . S
H1889 C1901 0.959 . S
H1890 C1904 0.929 . S
H1891 C1905 0.931 . S
H1892 C1907 0.930 . S
C1893 H1881 0.930 . S
C1893 C1894 1.399 . S
C1893 C1898 1.399 . S
C1894 C1893 1.399 . S
C1894 C1895 1.376 1_545 S
C1895 H1882 0.930 . S
C1895 C1894 1.376 1_565 S
C1895 C1896 1.388 . S
C1896 H1883 0.930 . S
C1896 C1895 1.388 . S
C1896 C1897 1.390 . S
C1897 C1896 1.390 . S
C1897 C1898 1.394 1_565 S
C1897 C1903 1.465 1_556 S
C1898 C1893 1.399 . S
C1898 C1897 1.394 1_545 S
C1898 C1899 1.516 1_556 S
C1899 C1898 1.516 1_554 S
C1899 C1900 1.502 1_554 S
C1899 C1901 1.561 . S
C1899 C1902 1.526 . S
C1900 H1884 0.959 . S
C1900 H1885 0.959 . S
C1900 H1886 0.961 . S
C1900 C1899 1.502 1_556 S
C1901 H1887 0.960 . S
C1901 H1888 0.961 . S
C1901 H1889 0.959 . S
C1901 C1899 1.561 . S
C1902 C1899 1.526 . S
C1902 C1903 1.396 1_545 S
C1902 C1907 1.390 . S
C1903 C1897 1.465 1_554 S
C1903 C1902 1.396 1_565 S
C1903 C1904 1.399 . S
C1904 H1890 0.929 . S
C1904 C1903 1.399 . S
C1904 C1905 1.385 . S
C1905 H1891 0.931 . S
C1905 C1904 1.385 . S
C1905 C1906 1.389 . S
C1906 C1905 1.389 . S
C1906 C1907 1.387 1_565 S
C1907 H1892 0.930 . S
C1907 C1902 1.390 . S
C1907 C1906 1.387 1_545 S
H1908 C1920 0.930 . S
H1909 C1922 0.919 1_556 S
H1910 C1923 0.930 . S
H1911 C1927 0.959 . S
H1912 C1927 0.959 . S
H1913 C1927 0.961 . S
H1914 C1928 0.960 . S
H1915 C1928 0.961 . S
H1916 C1928 0.959 . S
H1917 C1931 0.929 . S
H1918 C1932 0.931 . S
H1919 C1934 0.930 1_454 S
C1920 H1908 0.930 . S
C1920 C1921 1.399 . S
C1920 C1925 1.399 . S
C1921 C1920 1.399 . S
C1921 C1922 1.406 1_455 S
C1922 H1909 0.919 1_554 S
C1922 C1921 1.406 1_655 S
C1922 C1923 1.370 1_554 S
C1923 H1910 0.930 . S
C1923 C1922 1.370 1_556 S
C1923 C1924 1.390 . S
C1924 C1923 1.390 . S
C1924 C1925 1.394 1_656 S
C1924 C1930 1.465 . S
C1925 C1920 1.399 . S
C1925 C1924 1.394 1_454 S
C1925 C1926 1.516 . S
C1926 C1925 1.516 . S
C1926 C1927 1.502 . S
C1926 C1928 1.561 1_455 S
C1926 C1929 1.526 1_455 S
C1927 H1911 0.959 . S
C1927 H1912 0.959 . S
C1927 H1913 0.961 . S
C1927 C1926 1.502 . S
C1928 H1914 0.960 . S
C1928 H1915 0.961 . S
C1928 H1916 0.959 . S
C1928 C1926 1.561 1_655 S
C1929 C1926 1.526 1_655 S
C1929 C1930 1.396 1_554 S
C1929 C1934 1.390 1_554 S
C1930 C1924 1.465 . S
C1930 C1929 1.396 1_556 S
C1930 C1931 1.399 . S
C1931 H1917 0.929 . S
C1931 C1930 1.399 . S
C1931 C1932 1.385 . S
C1932 H1918 0.931 . S
C1932 C1931 1.385 . S
C1932 C1933 1.389 . S
C1933 C1932 1.389 . S
C1933 C1934 1.387 . S
C1934 H1919 0.930 1_656 S
C1934 C1929 1.390 1_556 S
C1934 C1933 1.387 . S
H1935 C1947 0.930 1_556 S
H1936 C1949 0.930 . S
H1937 C1950 0.930 . S
H1938 C1954 0.959 . S
H1939 C1954 0.959 . S
H1940 C1954 0.961 . S
H1941 C1955 0.960 . S
H1942 C1955 0.961 . S
H1943 C1955 0.959 . S
H1944 C1958 0.929 . S
H1945 C1959 0.931 . S
H1946 C1961 0.930 . S
C1947 H1935 0.930 1_554 S
C1947 C1948 1.399 . S
C1947 C1952 1.399 1_554 S
C1948 C1947 1.399 . S
C1948 C1949 1.376 . S
C1949 H1936 0.930 . S
C1949 C1948 1.376 . S
C1949 C1950 1.388 . S
C1950 H1937 0.930 . S
C1950 C1949 1.388 . S
C1950 C1951 1.390 . S
C1951 C1950 1.390 . S
C1951 C1952 1.394 1_554 S
C1951 C1957 1.465 . S
C1952 C1947 1.399 1_556 S
C1952 C1951 1.394 1_556 S
C1952 C1953 1.516 . S
C1953 C1952 1.516 . S
C1953 C1954 1.502 . S
C1953 C1955 1.561 . S
C1953 C1956 1.526 . S
C1954 H1938 0.959 . S
C1954 H1939 0.959 . S
C1954 H1940 0.961 . S
C1954 C1953 1.502 . S
C1955 H1941 0.960 . S
C1955 H1942 0.961 . S
C1955 H1943 0.959 . S
C1955 C1953 1.561 . S
C1956 C1953 1.526 . S
C1956 C1957 1.396 1_556 S
C1956 C1961 1.390 . S
C1957 C1951 1.465 . S
C1957 C1956 1.396 1_554 S
C1957 C1958 1.399 . S
C1958 H1944 0.929 . S
C1958 C1957 1.399 . S
C1958 C1959 1.385 . S
C1959 H1945 0.931 . S
C1959 C1958 1.385 . S
C1959 C1960 1.389 1_554 S
C1960 C1959 1.389 1_556 S
C1960 C1961 1.387 . S
C1961 H1946 0.930 . S
C1961 C1956 1.390 . S
C1961 C1960 1.387 . S
H1962 C1974 0.930 . S
H1963 C1976 0.930 . S
H1964 C1977 0.930 . S
H1965 C1981 0.959 . S
H1966 C1981 0.959 . S
H1967 C1981 0.961 . S
H1968 C1982 0.960 . S
H1969 C1982 0.961 . S
H1970 C1982 0.959 . S
H1971 C1985 0.929 . S
H1972 C1986 0.931 . S
H1973 C1988 0.930 . S
C1974 H1962 0.930 . S
C1974 C1975 1.399 . S
C1974 C1979 1.399 . S
C1975 C1974 1.399 . S
C1975 C1976 1.376 . S
C1976 H1963 0.930 . S
C1976 C1975 1.376 . S
C1976 C1977 1.388 . S
C1977 H1964 0.930 . S
C1977 C1976 1.388 . S
C1977 C1978 1.390 . S
C1978 C1977 1.390 . S
C1978 C1979 1.394 . S
C1978 C1984 1.465 . S
C1979 C1974 1.399 . S
C1979 C1978 1.394 . S
C1979 C1980 1.516 . S
C1980 C1979 1.516 . S
C1980 C1981 1.502 . S
C1980 C1982 1.561 . S
C1980 C1983 1.526 . S
C1981 H1965 0.959 . S
C1981 H1966 0.959 . S
C1981 H1967 0.961 . S
C1981 C1980 1.502 . S
C1982 H1968 0.960 . S
C1982 H1969 0.961 . S
C1982 H1970 0.959 . S
C1982 C1980 1.561 . S
C1983 C1980 1.526 . S
C1983 C1984 1.396 . S
C1983 C1988 1.390 . S
C1984 C1978 1.465 . S
C1984 C1983 1.396 . S
C1984 C1985 1.399 . S
C1985 H1971 0.929 . S
C1985 C1984 1.399 . S
C1985 C1986 1.385 . S
C1986 H1972 0.931 . S
C1986 C1985 1.385 . S
C1986 C1987 1.389 . S
C1987 C1986 1.389 . S
C1987 C1988 1.387 . S
C1988 H1973 0.930 . S
C1988 C1983 1.390 . S
C1988 C1987 1.387 . S
H1989 C2001 0.930 . S
H1990 C2003 0.930 . S
H1991 C2004 0.930 . S
H1992 C2008 0.959 . S
H1993 C2008 0.959 . S
H1994 C2008 0.961 . S
H1995 C2009 0.960 . S
H1996 C2009 0.961 . S
H1997 C2009 0.959 . S
H1998 C2012 0.929 . S
H1999 C2013 0.931 1_556 S
H2000 C2015 0.930 . S
C2001 H1989 0.930 . S
C2001 C2002 1.399 . S
C2001 C2006 1.399 . S
C2002 C2001 1.399 . S
C2002 C2003 1.376 . S
C2003 H1990 0.930 . S
C2003 C2002 1.376 . S
C2003 C2004 1.388 . S
C2004 H1991 0.930 . S
C2004 C2003 1.388 . S
C2004 C2005 1.390 . S
C2005 C2004 1.390 . S
C2005 C2006 1.394 . S
C2005 C2011 1.465 . S
C2006 C2001 1.399 . S
C2006 C2005 1.394 . S
C2006 C2007 1.516 . S
C2007 C2006 1.516 . S
C2007 C2008 1.502 . S
C2007 C2009 1.561 . S
C2007 C2010 1.526 . S
C2008 H1992 0.959 . S
C2008 H1993 0.959 . S
C2008 H1994 0.961 . S
C2008 C2007 1.502 . S
C2009 H1995 0.960 . S
C2009 H1996 0.961 . S
C2009 H1997 0.959 . S
C2009 C2007 1.561 . S
C2010 C2007 1.526 . S
C2010 C2011 1.396 . S
C2010 C2015 1.390 . S
C2011 C2005 1.465 . S
C2011 C2010 1.396 . S
C2011 C2012 1.399 . S
C2012 H1998 0.929 . S
C2012 C2011 1.399 . S
C2012 C2013 1.385 . S
C2013 H1999 0.931 1_554 S
C2013 C2012 1.385 . S
C2013 C2014 1.389 . S
C2014 C2013 1.389 . S
C2014 C2015 1.387 . S
C2015 H2000 0.930 . S
C2015 C2010 1.390 . S
C2015 C2014 1.387 . S
H2016 C2028 0.930 . S
H2017 C2030 0.930 . S
H2018 C2031 0.930 . S
H2019 C2035 0.959 . S
H2020 C2035 0.959 . S
H2021 C2035 0.961 . S
H2022 C2036 0.960 . S
H2023 C2036 0.961 . S
H2024 C2036 0.959 . S
H2025 C2039 0.929 . S
H2026 C2040 0.931 . S
H2027 C2042 0.930 . S
C2028 H2016 0.930 . S
C2028 C2029 1.399 . S
C2028 C2033 1.399 . S
C2029 C2028 1.399 . S
C2029 C2030 1.376 . S
C2030 H2017 0.930 . S
C2030 C2029 1.376 . S
C2030 C2031 1.388 . S
C2031 H2018 0.930 . S
C2031 C2030 1.388 . S
C2031 C2032 1.390 . S
C2032 C2031 1.390 . S
C2032 C2033 1.394 . S
C2032 C2038 1.465 . S
C2033 C2028 1.399 . S
C2033 C2032 1.394 . S
C2033 C2034 1.516 . S
C2034 C2033 1.516 . S
C2034 C2035 1.502 . S
C2034 C2036 1.561 . S
C2034 C2037 1.526 . S
C2035 H2019 0.959 . S
C2035 H2020 0.959 . S
C2035 H2021 0.961 . S
C2035 C2034 1.502 . S
C2036 H2022 0.960 . S
C2036 H2023 0.961 . S
C2036 H2024 0.959 . S
C2036 C2034 1.561 . S
C2037 C2034 1.526 . S
C2037 C2038 1.396 . S
C2037 C2042 1.390 . S
C2038 C2032 1.465 . S
C2038 C2037 1.396 . S
C2038 C2039 1.399 . S
C2039 H2025 0.929 . S
C2039 C2038 1.399 . S
C2039 C2040 1.385 . S
C2040 H2026 0.931 . S
C2040 C2039 1.385 . S
C2040 C2041 1.389 . S
C2041 C2040 1.389 . S
C2041 C2042 1.387 . S
C2042 H2027 0.930 . S
C2042 C2037 1.390 . S
C2042 C2041 1.387 . S
H2043 C2055 0.930 . S
H2044 C2057 0.930 . S
H2045 C2058 0.930 . S
H2046 C2062 0.959 . S
H2047 C2062 0.959 . S
H2048 C2062 0.961 . S
H2049 C2063 0.960 . S
H2050 C2063 0.961 . S
H2051 C2063 0.959 . S
H2052 C2066 0.929 . S
H2053 C2067 0.931 . S
H2054 C2069 0.930 . S
C2055 H2043 0.930 . S
C2055 C2056 1.399 . S
C2055 C2060 1.399 . S
C2056 C2055 1.399 . S
C2056 C2057 1.376 . S
C2057 H2044 0.930 . S
C2057 C2056 1.376 . S
C2057 C2058 1.388 . S
C2058 H2045 0.930 . S
C2058 C2057 1.388 . S
C2058 C2059 1.390 . S
C2059 C2058 1.390 . S
C2059 C2060 1.394 . S
C2059 C2065 1.465 . S
C2060 C2055 1.399 . S
C2060 C2059 1.394 . S
C2060 C2061 1.516 . S
C2061 C2060 1.516 . S
C2061 C2062 1.502 . S
C2061 C2063 1.561 . S
C2061 C2064 1.526 . S
C2062 H2046 0.959 . S
C2062 H2047 0.959 . S
C2062 H2048 0.961 . S
C2062 C2061 1.502 . S
C2063 H2049 0.960 . S
C2063 H2050 0.961 . S
C2063 H2051 0.959 . S
C2063 C2061 1.561 . S
C2064 C2061 1.526 . S
C2064 C2065 1.396 . S
C2064 C2069 1.390 . S
C2065 C2059 1.465 . S
C2065 C2064 1.396 . S
C2065 C2066 1.399 . S
C2066 H2052 0.929 . S
C2066 C2065 1.399 . S
C2066 C2067 1.385 . S
C2067 H2053 0.931 . S
C2067 C2066 1.385 . S
C2067 C2068 1.389 . S
C2068 C2067 1.389 . S
C2068 C2069 1.387 . S
C2069 H2054 0.930 . S
C2069 C2064 1.390 . S
C2069 C2068 1.387 . S
H2070 C2082 0.930 . S
H2071 C2084 0.930 . S
H2072 C2085 0.930 . S
H2073 C2089 0.959 . S
H2074 C2089 0.959 . S
H2075 C2089 0.961 . S
H2076 C2090 0.960 . S
H2077 C2090 0.961 . S
H2078 C2090 0.959 . S
H2079 C2093 0.929 . S
H2080 C2094 0.931 . S
H2081 C2096 0.930 . S
C2082 H2070 0.930 . S
C2082 C2083 1.399 . S
C2082 C2087 1.399 . S
C2083 C2082 1.399 . S
C2083 C2084 1.376 . S
C2084 H2071 0.930 . S
C2084 C2083 1.376 . S
C2084 C2085 1.388 . S
C2085 H2072 0.930 . S
C2085 C2084 1.388 . S
C2085 C2086 1.390 . S
C2086 C2085 1.390 . S
C2086 C2087 1.394 . S
C2086 C2092 1.465 . S
C2087 C2082 1.399 . S
C2087 C2086 1.394 . S
C2087 C2088 1.516 . S
C2088 C2087 1.516 . S
C2088 C2089 1.502 . S
C2088 C2090 1.561 . S
C2088 C2091 1.526 . S
C2089 H2073 0.959 . S
C2089 H2074 0.959 . S
C2089 H2075 0.961 . S
C2089 C2088 1.502 . S
C2090 H2076 0.960 . S
C2090 H2077 0.961 . S
C2090 H2078 0.959 . S
C2090 C2088 1.561 . S
C2091 C2088 1.526 . S
C2091 C2092 1.396 . S
C2091 C2096 1.390 . S
C2092 C2086 1.465 . S
C2092 C2091 1.396 . S
C2092 C2093 1.399 . S
C2093 H2079 0.929 . S
C2093 C2092 1.399 . S
C2093 C2094 1.385 . S
C2094 H2080 0.931 . S
C2094 C2093 1.385 . S
C2094 C2095 1.389 . S
C2095 C2094 1.389 . S
C2095 C2096 1.387 . S
C2096 H2081 0.930 . S
C2096 C2091 1.390 . S
C2096 C2095 1.387 . S
H2097 C2109 0.930 . S
H2098 C2111 0.930 . S
H2099 C2112 0.930 . S
H2100 C2116 0.959 . S
H2101 C2116 0.959 . S
H2102 C2116 0.961 . S
H2103 C2117 0.960 . S
H2104 C2117 0.961 . S
H2105 C2117 0.959 . S
H2106 C2120 0.929 . S
H2107 C2121 0.931 . S
H2108 C2123 0.930 . S
C2109 H2097 0.930 . S
C2109 C2110 1.399 . S
C2109 C2114 1.399 . S
C2110 C2109 1.399 . S
C2110 C2111 1.376 . S
C2111 H2098 0.930 . S
C2111 C2110 1.376 . S
C2111 C2112 1.388 . S
C2112 H2099 0.930 . S
C2112 C2111 1.388 . S
C2112 C2113 1.390 . S
C2113 C2112 1.390 . S
C2113 C2114 1.394 . S
C2113 C2119 1.465 . S
C2114 C2109 1.399 . S
C2114 C2113 1.394 . S
C2114 C2115 1.516 . S
C2115 C2114 1.516 . S
C2115 C2116 1.502 . S
C2115 C2117 1.561 . S
C2115 C2118 1.526 . S
C2116 H2100 0.959 . S
C2116 H2101 0.959 . S
C2116 H2102 0.961 . S
C2116 C2115 1.502 . S
C2117 H2103 0.960 . S
C2117 H2104 0.961 . S
C2117 H2105 0.959 . S
C2117 C2115 1.561 . S
C2118 C2115 1.526 . S
C2118 C2119 1.396 . S
C2118 C2123 1.390 . S
C2119 C2113 1.465 . S
C2119 C2118 1.396 . S
C2119 C2120 1.399 . S
C2120 H2106 0.929 . S
C2120 C2119 1.399 . S
C2120 C2121 1.385 . S
C2121 H2107 0.931 . S
C2121 C2120 1.385 . S
C2121 C2122 1.389 . S
C2122 C2121 1.389 . S
C2122 C2123 1.387 . S
C2123 H2108 0.930 . S
C2123 C2118 1.390 . S
C2123 C2122 1.387 . S
H2124 C2136 0.930 . S
H2125 C2138 0.930 . S
H2126 C2139 0.930 . S
H2127 C2143 0.959 . S
H2128 C2143 0.959 . S
H2129 C2143 0.961 . S
H2130 C2144 0.960 . S
H2131 C2144 0.961 . S
H2132 C2144 0.959 . S
H2133 C2147 0.929 . S
H2134 C2148 0.931 . S
H2135 C2150 0.930 . S
C2136 H2124 0.930 . S
C2136 C2137 1.399 . S
C2136 C2141 1.399 . S
C2137 C2136 1.399 . S
C2137 C2138 1.376 . S
C2138 H2125 0.930 . S
C2138 C2137 1.376 . S
C2138 C2139 1.388 . S
C2139 H2126 0.930 . S
C2139 C2138 1.388 . S
C2139 C2140 1.390 . S
C2140 C2139 1.390 . S
C2140 C2141 1.394 . S
C2140 C2146 1.465 . S
C2141 C2136 1.399 . S
C2141 C2140 1.394 . S
C2141 C2142 1.516 . S
C2142 C2141 1.516 . S
C2142 C2143 1.502 . S
C2142 C2144 1.561 . S
C2142 C2145 1.526 . S
C2143 H2127 0.959 . S
C2143 H2128 0.959 . S
C2143 H2129 0.961 . S
C2143 C2142 1.502 . S
C2144 H2130 0.960 . S
C2144 H2131 0.961 . S
C2144 H2132 0.959 . S
C2144 C2142 1.561 . S
C2145 C2142 1.526 . S
C2145 C2146 1.396 . S
C2145 C2150 1.390 . S
C2146 C2140 1.465 . S
C2146 C2145 1.396 . S
C2146 C2147 1.399 . S
C2147 H2133 0.929 . S
C2147 C2146 1.399 . S
C2147 C2148 1.385 . S
C2148 H2134 0.931 . S
C2148 C2147 1.385 . S
C2148 C2149 1.389 . S
C2149 C2148 1.389 . S
C2149 C2150 1.387 . S
C2150 H2135 0.930 . S
C2150 C2145 1.390 . S
C2150 C2149 1.387 . S
H2151 C2163 0.930 . S
H2152 C2165 0.930 . S
H2153 C2166 0.930 . S
H2154 C2170 0.959 . S
H2155 C2170 0.959 . S
H2156 C2170 0.961 . S
H2157 C2171 0.960 . S
H2158 C2171 0.961 . S
H2159 C2171 0.959 . S
H2160 C2174 0.929 . S
H2161 C2175 0.931 . S
H2162 C2177 0.930 . S
C2163 H2151 0.930 . S
C2163 C2164 1.399 . S
C2163 C2168 1.399 . S
C2164 C2163 1.399 . S
C2164 C2165 1.376 . S
C2165 H2152 0.930 . S
C2165 C2164 1.376 . S
C2165 C2166 1.388 . S
C2166 H2153 0.930 . S
C2166 C2165 1.388 . S
C2166 C2167 1.390 . S
C2167 C2166 1.390 . S
C2167 C2168 1.394 . S
C2167 C2173 1.465 . S
C2168 C2163 1.399 . S
C2168 C2167 1.394 . S
C2168 C2169 1.516 . S
C2169 C2168 1.516 . S
C2169 C2170 1.502 . S
C2169 C2171 1.561 . S
C2169 C2172 1.526 . S
C2170 H2154 0.959 . S
C2170 H2155 0.959 . S
C2170 H2156 0.961 . S
C2170 C2169 1.502 . S
C2171 H2157 0.960 . S
C2171 H2158 0.961 . S
C2171 H2159 0.959 . S
C2171 C2169 1.561 . S
C2172 C2169 1.526 . S
C2172 C2173 1.396 . S
C2172 C2177 1.390 . S
C2173 C2167 1.465 . S
C2173 C2172 1.396 . S
C2173 C2174 1.399 . S
C2174 H2160 0.929 . S
C2174 C2173 1.399 . S
C2174 C2175 1.385 . S
C2175 H2161 0.931 . S
C2175 C2174 1.385 . S
C2175 C2176 1.389 . S
C2176 C2175 1.389 . S
C2176 C2177 1.387 . S
C2177 H2162 0.930 . S
C2177 C2172 1.390 . S
C2177 C2176 1.387 . S
H2178 C2190 0.930 . S
H2179 C2192 0.930 . S
H2180 C2193 0.930 . S
H2181 C2197 0.959 . S
H2182 C2197 0.959 . S
H2183 C2197 0.961 . S
H2184 C2198 0.960 . S
H2185 C2198 0.961 . S
H2186 C2198 0.959 . S
H2187 C2201 0.929 . S
H2188 C2202 0.931 . S
H2189 C2204 0.930 . S
C2190 H2178 0.930 . S
C2190 C2191 1.399 . S
C2190 C2195 1.399 . S
C2191 C2190 1.399 . S
C2191 C2192 1.376 . S
C2192 H2179 0.930 . S
C2192 C2191 1.376 . S
C2192 C2193 1.388 . S
C2193 H2180 0.930 . S
C2193 C2192 1.388 . S
C2193 C2194 1.390 . S
C2194 C2193 1.390 . S
C2194 C2195 1.394 . S
C2194 C2200 1.465 . S
C2195 C2190 1.399 . S
C2195 C2194 1.394 . S
C2195 C2196 1.516 . S
C2196 C2195 1.516 . S
C2196 C2197 1.502 . S
C2196 C2198 1.561 . S
C2196 C2199 1.526 . S
C2197 H2181 0.959 . S
C2197 H2182 0.959 . S
C2197 H2183 0.961 . S
C2197 C2196 1.502 . S
C2198 H2184 0.960 . S
C2198 H2185 0.961 . S
C2198 H2186 0.959 . S
C2198 C2196 1.561 . S
C2199 C2196 1.526 . S
C2199 C2200 1.396 . S
C2199 C2204 1.390 . S
C2200 C2194 1.465 . S
C2200 C2199 1.396 . S
C2200 C2201 1.399 . S
C2201 H2187 0.929 . S
C2201 C2200 1.399 . S
C2201 C2202 1.385 . S
C2202 H2188 0.931 . S
C2202 C2201 1.385 . S
C2202 C2203 1.389 . S
C2203 C2202 1.389 . S
C2203 C2204 1.387 . S
C2204 H2189 0.930 . S
C2204 C2199 1.390 . S
C2204 C2203 1.387 . S
H2205 C2217 0.930 . S
H2206 C2219 0.930 . S
H2207 C2220 0.930 . S
H2208 C2224 0.959 . S
H2209 C2224 0.959 . S
H2210 C2224 0.961 . S
H2211 C2225 0.960 . S
H2212 C2225 0.961 . S
H2213 C2225 0.959 . S
H2214 C2228 0.929 . S
H2215 C2229 0.931 . S
H2216 C2231 0.930 . S
C2217 H2205 0.930 . S
C2217 C2218 1.399 . S
C2217 C2222 1.399 . S
C2218 C2217 1.399 . S
C2218 C2219 1.376 . S
C2219 H2206 0.930 . S
C2219 C2218 1.376 . S
C2219 C2220 1.388 . S
C2220 H2207 0.930 . S
C2220 C2219 1.388 . S
C2220 C2221 1.390 . S
C2221 C2220 1.390 . S
C2221 C2222 1.394 . S
C2221 C2227 1.465 . S
C2222 C2217 1.399 . S
C2222 C2221 1.394 . S
C2222 C2223 1.516 . S
C2223 C2222 1.516 . S
C2223 C2224 1.502 . S
C2223 C2225 1.561 . S
C2223 C2226 1.526 . S
C2224 H2208 0.959 . S
C2224 H2209 0.959 . S
C2224 H2210 0.961 . S
C2224 C2223 1.502 . S
C2225 H2211 0.960 . S
C2225 H2212 0.961 . S
C2225 H2213 0.959 . S
C2225 C2223 1.561 . S
C2226 C2223 1.526 . S
C2226 C2227 1.396 . S
C2226 C2231 1.390 . S
C2227 C2221 1.465 . S
C2227 C2226 1.396 . S
C2227 C2228 1.399 . S
C2228 H2214 0.929 . S
C2228 C2227 1.399 . S
C2228 C2229 1.385 . S
C2229 H2215 0.931 . S
C2229 C2228 1.385 . S
C2229 C2230 1.389 . S
C2230 C2229 1.389 . S
C2230 C2231 1.387 . S
C2231 H2216 0.930 . S
C2231 C2226 1.390 . S
C2231 C2230 1.387 . S
H2232 C2244 0.930 . S
H2233 C2246 0.930 . S
H2234 C2247 0.930 . S
H2235 C2251 0.959 . S
H2236 C2251 0.959 . S
H2237 C2251 0.961 . S
H2238 C2252 0.960 . S
H2239 C2252 0.961 . S
H2240 C2252 0.959 . S
H2241 C2255 0.929 . S
H2242 C2256 0.931 . S
H2243 C2258 0.930 . S
C2244 H2232 0.930 . S
C2244 C2245 1.399 . S
C2244 C2249 1.399 . S
C2245 C2244 1.399 . S
C2245 C2246 1.376 . S
C2246 H2233 0.930 . S
C2246 C2245 1.376 . S
C2246 C2247 1.388 . S
C2247 H2234 0.930 . S
C2247 C2246 1.388 . S
C2247 C2248 1.390 . S
C2248 C2247 1.390 . S
C2248 C2249 1.394 . S
C2248 C2254 1.465 . S
C2249 C2244 1.399 . S
C2249 C2248 1.394 . S
C2249 C2250 1.516 . S
C2250 C2249 1.516 . S
C2250 C2251 1.502 . S
C2250 C2252 1.561 . S
C2250 C2253 1.526 . S
C2251 H2235 0.959 . S
C2251 H2236 0.959 . S
C2251 H2237 0.961 . S
C2251 C2250 1.502 . S
C2252 H2238 0.960 . S
C2252 H2239 0.961 . S
C2252 H2240 0.959 . S
C2252 C2250 1.561 . S
C2253 C2250 1.526 . S
C2253 C2254 1.396 . S
C2253 C2258 1.390 . S
C2254 C2248 1.465 . S
C2254 C2253 1.396 . S
C2254 C2255 1.399 . S
C2255 H2241 0.929 . S
C2255 C2254 1.399 . S
C2255 C2256 1.385 . S
C2256 H2242 0.931 . S
C2256 C2255 1.385 . S
C2256 C2257 1.389 . S
C2257 C2256 1.389 . S
C2257 C2258 1.387 . S
C2258 H2243 0.930 . S
C2258 C2253 1.390 . S
C2258 C2257 1.387 . S
H2259 C2271 0.930 . S
H2260 C2273 0.930 . S
H2261 C2274 0.930 . S
H2262 C2278 0.959 . S
H2263 C2278 0.959 . S
H2264 C2278 0.961 . S
H2265 C2279 0.960 . S
H2266 C2279 0.961 . S
H2267 C2279 0.959 . S
H2268 C2282 0.929 . S
H2269 C2283 0.931 . S
H2270 C2285 0.930 . S
C2271 H2259 0.930 . S
C2271 C2272 1.399 . S
C2271 C2276 1.399 . S
C2272 C2271 1.399 . S
C2272 C2273 1.376 . S
C2273 H2260 0.930 . S
C2273 C2272 1.376 . S
C2273 C2274 1.388 . S
C2274 H2261 0.930 . S
C2274 C2273 1.388 . S
C2274 C2275 1.390 . S
C2275 C2274 1.390 . S
C2275 C2276 1.394 . S
C2275 C2281 1.465 . S
C2276 C2271 1.399 . S
C2276 C2275 1.394 . S
C2276 C2277 1.516 . S
C2277 C2276 1.516 . S
C2277 C2278 1.502 . S
C2277 C2279 1.561 . S
C2277 C2280 1.526 . S
C2278 H2262 0.959 . S
C2278 H2263 0.959 . S
C2278 H2264 0.961 . S
C2278 C2277 1.502 . S
C2279 H2265 0.960 . S
C2279 H2266 0.961 . S
C2279 H2267 0.959 . S
C2279 C2277 1.561 . S
C2280 C2277 1.526 . S
C2280 C2281 1.396 . S
C2280 C2285 1.390 . S
C2281 C2275 1.465 . S
C2281 C2280 1.396 . S
C2281 C2282 1.399 . S
C2282 H2268 0.929 . S
C2282 C2281 1.399 . S
C2282 C2283 1.385 . S
C2283 H2269 0.931 . S
C2283 C2282 1.385 . S
C2283 C2284 1.389 . S
C2284 C2283 1.389 . S
C2284 C2285 1.387 . S
C2285 H2270 0.930 . S
C2285 C2280 1.390 . S
C2285 C2284 1.387 . S
H2286 C2298 0.930 . S
H2287 C2300 0.930 . S
H2288 C2301 0.930 . S
H2289 C2305 0.959 . S
H2290 C2305 0.959 . S
H2291 C2305 0.961 . S
H2292 C2306 0.960 . S
H2293 C2306 0.961 . S
H2294 C2306 0.959 . S
H2295 C2309 0.929 . S
H2296 C2310 0.931 . S
H2297 C2312 0.930 . S
C2298 H2286 0.930 . S
C2298 C2299 1.399 . S
C2298 C2303 1.399 . S
C2299 C2298 1.399 . S
C2299 C2300 1.376 . S
C2300 H2287 0.930 . S
C2300 C2299 1.376 . S
C2300 C2301 1.388 . S
C2301 H2288 0.930 . S
C2301 C2300 1.388 . S
C2301 C2302 1.390 . S
C2302 C2301 1.390 . S
C2302 C2303 1.394 . S
C2302 C2308 1.465 . S
C2303 C2298 1.399 . S
C2303 C2302 1.394 . S
C2303 C2304 1.516 . S
C2304 C2303 1.516 . S
C2304 C2305 1.502 . S
C2304 C2306 1.561 . S
C2304 C2307 1.526 . S
C2305 H2289 0.959 . S
C2305 H2290 0.959 . S
C2305 H2291 0.961 . S
C2305 C2304 1.502 . S
C2306 H2292 0.960 . S
C2306 H2293 0.961 . S
C2306 H2294 0.959 . S
C2306 C2304 1.561 . S
C2307 C2304 1.526 . S
C2307 C2308 1.396 . S
C2307 C2312 1.390 . S
C2308 C2302 1.465 . S
C2308 C2307 1.396 . S
C2308 C2309 1.399 . S
C2309 H2295 0.929 . S
C2309 C2308 1.399 . S
C2309 C2310 1.385 . S
C2310 H2296 0.931 . S
C2310 C2309 1.385 . S
C2310 C2311 1.389 . S
C2311 C2310 1.389 . S
C2311 C2312 1.387 . S
C2312 H2297 0.930 . S
C2312 C2307 1.390 . S
C2312 C2311 1.387 . S
H2313 C2325 0.930 . S
H2314 C2327 0.930 . S
H2315 C2328 0.930 . S
H2316 C2332 0.959 . S
H2317 C2332 0.959 . S
H2318 C2332 0.961 . S
H2319 C2333 0.960 . S
H2320 C2333 0.961 . S
H2321 C2333 0.959 . S
H2322 C2336 0.929 . S
H2323 C2337 0.931 . S
H2324 C2339 0.930 . S
C2325 H2313 0.930 . S
C2325 C2326 1.399 . S
C2325 C2330 1.399 . S
C2326 C2325 1.399 . S
C2326 C2327 1.376 . S
C2327 H2314 0.930 . S
C2327 C2326 1.376 . S
C2327 C2328 1.388 . S
C2328 H2315 0.930 . S
C2328 C2327 1.388 . S
C2328 C2329 1.390 . S
C2329 C2328 1.390 . S
C2329 C2330 1.394 . S
C2329 C2335 1.466 . S
C2330 C2325 1.399 . S
C2330 C2329 1.394 . S
C2330 C2331 1.516 1_545 S
C2331 C2330 1.516 1_565 S
C2331 C2332 1.502 . S
C2331 C2333 1.561 . S
C2331 C2334 1.526 . S
C2332 H2316 0.959 . S
C2332 H2317 0.959 . S
C2332 H2318 0.961 . S
C2332 C2331 1.502 . S
C2333 H2319 0.960 . S
C2333 H2320 0.961 . S
C2333 H2321 0.959 . S
C2333 C2331 1.561 . S
C2334 C2331 1.526 . S
C2334 C2335 1.395 1_565 S
C2334 C2339 1.390 . S
C2335 C2329 1.466 . S
C2335 C2334 1.395 1_545 S
C2335 C2336 1.399 . S
C2336 H2322 0.929 . S
C2336 C2335 1.399 . S
C2336 C2337 1.385 1_545 S
C2337 H2323 0.931 . S
C2337 C2336 1.385 1_565 S
C2337 C2338 1.389 . S
C2338 C2337 1.389 . S
C2338 C2339 1.387 . S
C2339 H2324 0.930 . S
C2339 C2334 1.390 . S
C2339 C2338 1.387 . S
H2340 C2352 0.930 . S
H2341 C2354 0.930 . S
H2342 C2355 0.930 . S
H2343 C2359 0.959 . S
H2344 C2359 0.959 . S
H2345 C2359 0.961 . S
H2346 C2360 0.960 . S
H2347 C2360 0.961 . S
H2348 C2360 0.959 . S
H2349 C2363 0.929 . S
H2350 C2364 0.931 . S
H2351 C2366 0.930 . S
C2352 H2340 0.930 . S
C2352 C2353 1.399 . S
C2352 C2357 1.399 . S
C2353 C2352 1.399 . S
C2353 C2354 1.376 . S
C2354 H2341 0.930 . S
C2354 C2353 1.376 . S
C2354 C2355 1.388 1_655 S
C2355 H2342 0.930 . S
C2355 C2354 1.388 1_455 S
C2355 C2356 1.390 . S
C2356 C2355 1.390 . S
C2356 C2357 1.390 1_455 S
C2356 C2362 1.469 . S
C2357 C2352 1.399 . S
C2357 C2356 1.390 1_655 S
C2357 C2358 1.516 . S
C2358 C2357 1.516 . S
C2358 C2359 1.502 . S
C2358 C2360 1.561 . S
C2358 C2361 1.526 1_655 S
C2359 H2343 0.959 . S
C2359 H2344 0.959 . S
C2359 H2345 0.961 . S
C2359 C2358 1.502 . S
C2360 H2346 0.960 . S
C2360 H2347 0.961 . S
C2360 H2348 0.959 . S
C2360 C2358 1.561 . S
C2361 C2358 1.526 1_455 S
C2361 C2362 1.396 . S
C2361 C2366 1.390 . S
C2362 C2356 1.469 . S
C2362 C2361 1.396 . S
C2362 C2363 1.399 . S
C2363 H2349 0.929 . S
C2363 C2362 1.399 . S
C2363 C2364 1.385 . S
C2364 H2350 0.931 . S
C2364 C2363 1.385 . S
C2364 C2365 1.389 . S
C2365 C2364 1.389 . S
C2365 C2366 1.387 . S
C2366 H2351 0.930 . S
C2366 C2361 1.390 . S
C2366 C2365 1.387 . S
H2367 C2379 0.930 . S
H2368 C2381 0.930 . S
H2369 C2382 0.930 . S
H2370 C2386 0.959 . S
H2371 C2386 0.959 . S
H2372 C2386 0.961 . S
H2373 C2387 0.960 . S
H2374 C2387 0.961 . S
H2375 C2387 0.959 . S
H2376 C2390 0.929 . S
H2377 C2391 0.931 . S
H2378 C2393 0.930 . S
C2379 H2367 0.930 . S
C2379 C2380 1.399 . S
C2379 C2384 1.399 . S
C2380 C2379 1.399 . S
C2380 C2381 1.376 . S
C2381 H2368 0.930 . S
C2381 C2380 1.376 . S
C2381 C2382 1.388 . S
C2382 H2369 0.930 . S
C2382 C2381 1.388 . S
C2382 C2383 1.390 . S
C2383 C2382 1.390 . S
C2383 C2384 1.394 . S
C2383 C2389 1.465 . S
C2384 C2379 1.399 . S
C2384 C2383 1.394 . S
C2384 C2385 1.516 . S
C2385 C2384 1.516 . S
C2385 C2386 1.502 . S
C2385 C2387 1.561 . S
C2385 C2388 1.526 . S
C2386 H2370 0.959 . S
C2386 H2371 0.959 . S
C2386 H2372 0.961 . S
C2386 C2385 1.502 . S
C2387 H2373 0.960 . S
C2387 H2374 0.961 . S
C2387 H2375 0.959 . S
C2387 C2385 1.561 . S
C2388 C2385 1.526 . S
C2388 C2389 1.396 . S
C2388 C2393 1.390 . S
C2389 C2383 1.465 . S
C2389 C2388 1.396 . S
C2389 C2390 1.399 . S
C2390 H2376 0.929 . S
C2390 C2389 1.399 . S
C2390 C2391 1.385 . S
C2391 H2377 0.931 . S
C2391 C2390 1.385 . S
C2391 C2392 1.389 . S
C2392 C2391 1.389 . S
C2392 C2393 1.387 . S
C2393 H2378 0.930 . S
C2393 C2388 1.390 . S
C2393 C2392 1.387 . S
H2394 C2406 0.930 . S
H2395 C2408 0.930 . S
H2396 C2409 0.930 . S
H2397 C2413 0.959 . S
H2398 C2413 0.959 . S
H2399 C2413 0.961 . S
H2400 C2414 0.960 . S
H2401 C2414 0.961 . S
H2402 C2414 0.959 . S
H2403 C2417 0.929 . S
H2404 C2418 0.931 . S
H2405 C2420 0.930 . S
C2406 H2394 0.930 . S
C2406 C2407 1.399 . S
C2406 C2411 1.399 . S
C2407 C2406 1.399 . S
C2407 C2408 1.376 . S
C2408 H2395 0.930 . S
C2408 C2407 1.376 . S
C2408 C2409 1.388 . S
C2409 H2396 0.930 . S
C2409 C2408 1.388 . S
C2409 C2410 1.390 . S
C2410 C2409 1.390 . S
C2410 C2411 1.394 . S
C2410 C2416 1.465 1_545 S
C2411 C2406 1.399 . S
C2411 C2410 1.394 . S
C2411 C2412 1.516 . S
C2412 C2411 1.516 . S
C2412 C2413 1.502 1_545 S
C2412 C2414 1.561 . S
C2412 C2415 1.526 1_545 S
C2413 H2397 0.959 . S
C2413 H2398 0.959 . S
C2413 H2399 0.961 . S
C2413 C2412 1.502 1_565 S
C2414 H2400 0.960 . S
C2414 H2401 0.961 . S
C2414 H2402 0.959 . S
C2414 C2412 1.561 . S
C2415 C2412 1.526 1_565 S
C2415 C2416 1.396 . S
C2415 C2420 1.390 . S
C2416 C2410 1.465 1_565 S
C2416 C2415 1.396 . S
C2416 C2417 1.399 . S
C2417 H2403 0.929 . S
C2417 C2416 1.399 . S
C2417 C2418 1.385 . S
C2418 H2404 0.931 . S
C2418 C2417 1.385 . S
C2418 C2419 1.389 . S
C2419 C2418 1.389 . S
C2419 C2420 1.387 . S
C2420 H2405 0.930 . S
C2420 C2415 1.390 . S
C2420 C2419 1.387 . S
H2421 C2433 0.930 . S
H2422 C2435 0.930 . S
H2423 C2436 0.930 . S
H2424 C2440 0.959 . S
H2425 C2440 0.959 . S
H2426 C2440 0.961 . S
H2427 C2441 0.960 . S
H2428 C2441 0.961 . S
H2429 C2441 0.959 . S
H2430 C2444 0.985 . S
H2431 C2445 0.931 . S
H2432 C2447 0.930 . S
C2433 H2421 0.930 . S
C2433 C2434 1.399 . S
C2433 C2438 1.399 . S
C2434 C2433 1.399 . S
C2434 C2435 1.376 . S
C2435 H2422 0.930 . S
C2435 C2434 1.376 . S
C2435 C2436 1.388 . S
C2436 H2423 0.930 . S
C2436 C2435 1.388 . S
C2436 C2437 1.390 . S
C2437 C2436 1.390 . S
C2437 C2438 1.394 . S
C2437 C2443 1.467 1_455 S
C2438 C2433 1.399 . S
C2438 C2437 1.394 . S
C2438 C2439 1.516 1_455 S
C2439 C2438 1.516 1_655 S
C2439 C2440 1.502 . S
C2439 C2441 1.561 . S
C2439 C2442 1.526 . S
C2440 H2424 0.959 . S
C2440 H2425 0.959 . S
C2440 H2426 0.961 . S
C2440 C2439 1.502 . S
C2441 H2427 0.960 . S
C2441 H2428 0.961 . S
C2441 H2429 0.959 . S
C2441 C2439 1.561 . S
C2442 C2439 1.526 . S
C2442 C2443 1.394 . S
C2442 C2447 1.390 . S
C2443 C2437 1.467 1_655 S
C2443 C2442 1.394 . S
C2443 C2444 1.387 1_655 S
C2444 H2430 0.985 . S
C2444 C2443 1.387 1_455 S
C2444 C2445 1.342 1_455 S
C2445 H2431 0.931 . S
C2445 C2444 1.342 1_655 S
C2445 C2446 1.389 . S
C2446 C2445 1.389 . S
C2446 C2447 1.387 . S
C2447 H2432 0.930 . S
C2447 C2442 1.390 . S
C2447 C2446 1.387 . S
C517 C79 1.212 . S
C529 C9 1.215 . S
C544 C51 1.161 . S
C556 C23 1.159 . S
C571 C37 1.170 . S
C583 C65 1.166 . S
C598 C93 1.226 . S
C610 C163 1.207 . S
C625 C107 1.226 . S
C637 C135 1.226 . S
C652 C149 1.147 . S
C664 C121 1.164 . S
C679 C177 1.218 1_655 S
C691 C247 1.221 . S
C706 C191 1.195 . S
C718 C219 1.200 . S
C733 C233 1.209 . S
C745 C205 1.213 1_545 S
C760 C331 1.152 . S
C772 C261 1.175 . S
C787 C303 1.216 1_545 S
C799 C275 1.189 . S
C814 C289 1.220 . S
C826 C317 1.195 1_655 S
C841 C415 1.162 . S
C853 C345 1.160 . S
C868 C387 1.173 1_565 S
C880 C359 1.177 . S
C895 C373 1.162 . S
C907 C401 1.160 1_455 S
C922 C499 1.147 . S
C934 C429 1.165 1_455 S
C949 C471 1.197 . S
C961 C443 1.168 . S
C976 C485 1.227 . S
C988 C457 1.210 1_565 S
C1003 C232 1.605 . S
C1015 C8 1.620 . S
C1030 C246 1.579 . S
C1042 C22 1.646 . S
C1057 C218 1.577 . S
C1069 C36 1.648 . S
C1084 C50 1.576 . S
C1096 C372 1.650 1_554 S
C1111 C64 1.642 . S
C1123 C344 1.604 . S
C1138 C78 1.654 . S
C1150 C358 1.600 . S
C1165 C92 1.581 . S
C1177 C484 1.625 . S
C1192 C498 1.617 . S
C1204 C106 1.632 . S
C1219 C470 1.590 . S
C1231 C120 1.650 . S
C1246 C288 1.603 . S
C1258 C134 1.643 . S
C1273 C260 1.605 1_556 S
C1285 C148 1.622 . S
C1300 C162 1.651 . S
C1312 C274 1.603 . S
C1327 C176 1.633 . S
C1339 C400 1.595 . S
C1354 C414 1.647 . S
C1366 C190 1.580 . S
C1381 C386 1.647 . S
C1393 C204 1.579 . S
C1408 C302 1.626 . S
C1420 C456 1.581 . S
C1435 C428 1.631 . S
C1447 C316 1.619 . S
C1462 C330 1.607 . S
C1474 C442 1.641 . S
C1489 C258 1.478 . S
C1501 C6 1.498 . S
C1516 C272 1.513 . S
C1528 C20 1.479 . S
C1543 C34 1.461 . S
C1555 C286 1.521 . S
C1570 C48 1.475 . S
C1582 C468 1.516 . S
C1597 C482 1.513 . S
C1609 C62 1.478 . S
C1624 C496 1.461 . S
C1636 C76 1.521 . S
C1651 C90 1.520 . S
C1663 C342 1.471 . S
C1678 C104 1.503 . S
C1690 C356 1.490 . S
C1705 C370 1.462 . S
C1717 C118 1.522 . S
C1732 C132 1.481 . S
C1744 C216 1.512 . S
C1759 C146 1.465 . S
C1771 C230 1.511 . S
C1786 C244 1.490 . S
C1798 C160 1.485 . S
C1813 C174 1.479 . S
C1825 C426 1.496 . S
C1840 C188 1.522 . S
C1852 C440 1.463 . S
C1867 C454 1.476 . S
C1879 C202 1.514 . S
C1894 C384 1.463 . S
C1906 C300 1.522 . S
C1921 C314 1.466 . S
C1933 C398 1.511 . S
C1948 C328 1.510 . S
C1960 C412 1.483 . S
C1975 C385 1.247 1_554 S
C1987 C7 1.255 . S
C2002 C21 1.256 . S
C2014 C399 1.204 1_554 S
C2029 C413 1.263 1_554 S
C2041 C35 1.223 . S
C2056 C49 1.204 . S
C2068 C175 1.205 . S
C2083 C189 1.255 . S
C2095 C63 1.249 . S
C2110 C203 1.259 . S
C2122 C77 1.243 . S
C2137 C91 1.233 . S
C2149 C301 1.199 1_556 S
C2164 C315 1.209 1_556 S
C2176 C105 1.219 . S
C2191 C119 1.194 . S
C2203 C329 1.243 1_556 S
C2218 C133 1.261 . S
C2230 C427 1.216 . S
C2245 C147 1.217 . S
C2257 C441 1.261 . S
C2272 C455 1.250 . S
C2284 C161 1.194 . S
C2299 C217 1.221 . S
C2311 C343 1.195 . S
C2326 C231 1.247 . S
C2338 C357 1.197 . S
C2353 C245 1.203 . S
C2365 C371 1.255 . S
C2380 C259 1.251 . S
C2392 C469 1.233 . S
C2407 C273 1.224 . S
C2419 C483 1.206 . S
C2434 C497 1.257 . S
C2446 C287 1.194 . S
