# Generated by pormake.
# Topology unn, (4)-cn, num edge types: 1
# Building blocks:
#     Node 0, Type 0, BuildingBlock: QUQFOY_clean_sbu_1, # of connection points: 4
#     Node 1, Type 0, BuildingBlock: QUQFOY_clean_sbu_1, # of connection points: 4
#     Node 2, Type 0, BuildingBlock: QUQFOY_clean_sbu_1, # of connection points: 4
#     Node 3, Type 0, BuildingBlock: QUQFOY_clean_sbu_1, # of connection points: 4
#     Node 4, Type 0, BuildingBlock: QUQFOY_clean_sbu_1, # of connection points: 4
#     Node 5, Type 0, BuildingBlock: QUQFOY_clean_sbu_1, # of connection points: 4
#     Node 6, Type 0, BuildingBlock: QUQFOY_clean_sbu_1, # of connection points: 4
#     Node 7, Type 0, BuildingBlock: QUQFOY_clean_sbu_1, # of connection points: 4
#     Node 8, Type 0, BuildingBlock: QUQFOY_clean_sbu_1, # of connection points: 4
#     Node 9, Type 0, BuildingBlock: QUQFOY_clean_sbu_1, # of connection points: 4
#     Node 10, Type 0, BuildingBlock: QUQFOY_clean_sbu_1, # of connection points: 4
#     Node 11, Type 0, BuildingBlock: QUQFOY_clean_sbu_1, # of connection points: 4
#     Node 12, Type 0, BuildingBlock: QUQFOY_clean_sbu_1, # of connection points: 4
#     Node 13, Type 0, BuildingBlock: QUQFOY_clean_sbu_1, # of connection points: 4
#     Node 14, Type 0, BuildingBlock: QUQFOY_clean_sbu_1, # of connection points: 4
#     Node 15, Type 0, BuildingBlock: QUQFOY_clean_sbu_1, # of connection points: 4
#     Node 16, Type 0, BuildingBlock: QUQFOY_clean_sbu_1, # of connection points: 4
#     Node 17, Type 0, BuildingBlock: QUQFOY_clean_sbu_1, # of connection points: 4
#     Edge 18, Type (0, 0), BuildingBlock: TEMPAE_clean_linker_10, # of connection points: 2
#     Edge 19, Type (0, 0), BuildingBlock: TEMPAE_clean_linker_10, # of connection points: 2
#     Edge 20, Type (0, 0), BuildingBlock: TEMPAE_clean_linker_10, # of connection points: 2
#     Edge 21, Type (0, 0), BuildingBlock: TEMPAE_clean_linker_10, # of connection points: 2
#     Edge 22, Type (0, 0), BuildingBlock: TEMPAE_clean_linker_10, # of connection points: 2
#     Edge 23, Type (0, 0), BuildingBlock: TEMPAE_clean_linker_10, # of connection points: 2
#     Edge 24, Type (0, 0), BuildingBlock: TEMPAE_clean_linker_10, # of connection points: 2
#     Edge 25, Type (0, 0), BuildingBlock: TEMPAE_clean_linker_10, # of connection points: 2
#     Edge 26, Type (0, 0), BuildingBlock: TEMPAE_clean_linker_10, # of connection points: 2
#     Edge 27, Type (0, 0), BuildingBlock: TEMPAE_clean_linker_10, # of connection points: 2
#     Edge 28, Type (0, 0), BuildingBlock: TEMPAE_clean_linker_10, # of connection points: 2
#     Edge 29, Type (0, 0), BuildingBlock: TEMPAE_clean_linker_10, # of connection points: 2
#     Edge 30, Type (0, 0), BuildingBlock: TEMPAE_clean_linker_10, # of connection points: 2
#     Edge 31, Type (0, 0), BuildingBlock: TEMPAE_clean_linker_10, # of connection points: 2
#     Edge 32, Type (0, 0), BuildingBlock: TEMPAE_clean_linker_10, # of connection points: 2
#     Edge 33, Type (0, 0), BuildingBlock: TEMPAE_clean_linker_10, # of connection points: 2
#     Edge 34, Type (0, 0), BuildingBlock: TEMPAE_clean_linker_10, # of connection points: 2
#     Edge 35, Type (0, 0), BuildingBlock: TEMPAE_clean_linker_10, # of connection points: 2
#     Edge 36, Type (0, 0), BuildingBlock: TEMPAE_clean_linker_10, # of connection points: 2
#     Edge 37, Type (0, 0), BuildingBlock: TEMPAE_clean_linker_10, # of connection points: 2
#     Edge 38, Type (0, 0), BuildingBlock: TEMPAE_clean_linker_10, # of connection points: 2
#     Edge 39, Type (0, 0), BuildingBlock: TEMPAE_clean_linker_10, # of connection points: 2
#     Edge 40, Type (0, 0), BuildingBlock: TEMPAE_clean_linker_10, # of connection points: 2
#     Edge 41, Type (0, 0), BuildingBlock: TEMPAE_clean_linker_10, # of connection points: 2
#     Edge 42, Type (0, 0), BuildingBlock: TEMPAE_clean_linker_10, # of connection points: 2
#     Edge 43, Type (0, 0), BuildingBlock: TEMPAE_clean_linker_10, # of connection points: 2
#     Edge 44, Type (0, 0), BuildingBlock: TEMPAE_clean_linker_10, # of connection points: 2
#     Edge 45, Type (0, 0), BuildingBlock: TEMPAE_clean_linker_10, # of connection points: 2
#     Edge 46, Type (0, 0), BuildingBlock: TEMPAE_clean_linker_10, # of connection points: 2
#     Edge 47, Type (0, 0), BuildingBlock: TEMPAE_clean_linker_10, # of connection points: 2
#     Edge 48, Type (0, 0), BuildingBlock: TEMPAE_clean_linker_10, # of connection points: 2
#     Edge 49, Type (0, 0), BuildingBlock: TEMPAE_clean_linker_10, # of connection points: 2
#     Edge 50, Type (0, 0), BuildingBlock: TEMPAE_clean_linker_10, # of connection points: 2
#     Edge 51, Type (0, 0), BuildingBlock: TEMPAE_clean_linker_10, # of connection points: 2
#     Edge 52, Type (0, 0), BuildingBlock: TEMPAE_clean_linker_10, # of connection points: 2
#     Edge 53, Type (0, 0), BuildingBlock: TEMPAE_clean_linker_10, # of connection points: 2
# Relax obj value: 0.137
# Max RMSD: 0.240
# Mean RMSD: 0.197
data_MOF--net-unn--node1-QUQFOY_clean_sbu_1--edge1-TEMPAE_clean_linker_10
_symmetry_space_group_name_H-M    P1
_symmetry_Int_Tables_number       1
_symmetry_cell_setting            triclinic
loop_
_symmetry_equiv_pos_as_xyz
'x, y, z'
_cell_length_a     46.037674
_cell_length_b     47.36723
_cell_length_c     40.662089
_cell_angle_alpha  90.601274
_cell_angle_beta   87.799753
_cell_angle_gamma 121.69
loop_
_atom_site_label
_atom_site_type_symbol
_atom_site_fract_x
_atom_site_fract_y
_atom_site_fract_z
_atom_type_partial_charge
O0 O 0.05768 0.74448 0.26059 0.0
Cd1 Cd 1.01995 0.6982 0.24663 0.0
Cd2 Cd 0.9862 0.72708 0.2471 0.0
O3 O 1.02017 0.7536 0.28514 0.0
O4 O 0.03663 0.6693 0.26046 0.0
O5 O 0.99167 0.66802 0.28396 0.0
C6 C 1.01348 0.65865 0.2839 0.0
C7 C 0.92644 0.69753 0.24812 0.0
C8 C 0.05085 0.76029 0.28166 0.0
C9 C 1.00798 0.71368 0.18243 0.0
O10 O 1.00473 0.73517 0.19845 0.0
O11 O 1.00905 0.69113 0.1979 0.0
O12 O 0.94406 0.72962 0.24722 0.0
O13 O 0.94271 0.68245 0.25229 0.0
O14 O 0.45331 0.26631 0.20867 0.0
Cd15 Cd 0.43612 0.2983 0.2172 0.0
Cd16 Cd 0.39838 0.25332 0.26186 0.0
O17 O 0.40726 0.22258 0.23062 0.0
O18 O 0.44558 0.32654 0.17687 0.0
O19 O 0.39413 0.28507 0.19237 0.0
C20 C 0.41341 0.30815 0.17129 0.0
C21 C 0.35104 0.25775 0.2764 0.0
C22 C 0.43507 0.23501 0.21313 0.0
C23 C 0.45048 0.3149 0.28783 0.0
O24 O 0.43749 0.28387 0.2912 0.0
O25 O 0.44875 0.32644 0.26029 0.0
O26 O 0.35482 0.23537 0.29009 0.0
O27 O 0.37173 0.2745 0.25212 0.0
O28 O 0.8339 0.15427 0.23136 0.0
Cd29 Cd 0.79938 0.1042 0.23821 0.0
Cd30 Cd 0.84352 0.11338 0.28127 0.0
O31 O 0.87777 0.1546 0.25168 0.0
O32 O 0.7732 0.08671 0.19706 0.0
O33 O 0.81163 0.07542 0.21258 0.0
C34 C 0.79063 0.07288 0.19092 0.0
C35 C 0.84075 0.06483 0.29833 0.0
C36 C 0.86587 0.16915 0.23561 0.0
C37 C 0.7787 0.10273 0.30731 0.0
O38 O 0.81076 0.12022 0.31053 0.0
O39 O 0.76703 0.08863 0.28002 0.0
O40 O 0.86149 0.09307 0.31162 0.0
O41 O 0.82501 0.06507 0.27279 0.0
O42 O 0.06164 0.30817 0.75563 0.0
Cd43 Cd 1.02502 0.31637 0.73989 0.0
Cd44 Cd 0.98861 0.2533 0.74315 0.0
O45 O 1.02239 0.26299 0.7818 0.0
O46 O 0.03857 0.36113 0.75636 0.0
O47 O 0.99366 0.31427 0.77599 0.0
C48 C 1.01422 0.34597 0.77847 0.0
C49 C 0.92863 0.22434 0.74488 0.0
C50 C 0.05357 0.28655 0.77801 0.0
C51 C 1.01286 0.28536 0.67699 0.0
O52 O 1.0073 0.26075 0.69454 0.0
O53 O 1.01554 0.31076 0.69081 0.0
O54 O 0.94474 0.20873 0.74488 0.0
O55 O 0.94657 0.25628 0.74732 0.0
O56 O 0.83291 0.65034 0.71439 0.0
Cd57 Cd 0.79965 0.66691 0.72147 0.0
Cd58 Cd 0.84498 0.7037 0.76354 0.0
O59 O 0.87773 0.69517 0.73358 0.0
O60 O 0.7725 0.65789 0.68096 0.0
O61 O 0.81359 0.708 0.69537 0.0
C62 C 0.79122 0.68931 0.67444 0.0
C63 C 0.84246 0.7504 0.77847 0.0
C64 C 0.86501 0.66774 0.71817 0.0
C65 C 0.78078 0.65107 0.7917 0.0
O66 O 0.81284 0.6651 0.7941 0.0
O67 O 0.76882 0.6528 0.76457 0.0
O68 O 0.86398 0.74462 0.79175 0.0
O69 O 0.8256 0.73197 0.75422 0.0
O70 O 0.36371 0.04799 0.74685 0.0
Cd71 Cd 0.40864 0.09042 0.73507 0.0
Cd72 Cd 0.37071 0.11404 0.73756 0.0
O73 O 0.3454 0.07624 0.77417 0.0
O74 O 0.44418 0.08494 0.75522 0.0
O75 O 0.42792 0.11882 0.77427 0.0
C76 C 0.44436 0.10393 0.77843 0.0
C77 C 0.39652 0.17188 0.73858 0.0
C78 C 0.34364 0.04876 0.76856 0.0
C79 C 0.38974 0.09986 0.67196 0.0
O80 O 0.36547 0.09849 0.6894 0.0
O81 O 0.41565 0.10313 0.68587 0.0
O82 O 0.36361 0.15255 0.73888 0.0
O83 O 0.4143 0.15821 0.74159 0.0
O84 O 0.71679 0.08608 0.60467 0.0
Cd85 Cd 0.6777 0.03922 0.59454 0.0
Cd86 Cd 0.64584 0.06859 0.59317 0.0
O87 O 0.68006 0.09496 0.63121 0.0
O88 O 0.69136 1.00976 0.61361 0.0
O89 O 0.6493 1.01518 0.63458 0.0
C90 C 0.66949 1.0041 0.63742 0.0
C91 C 0.58621 0.0386 0.59196 0.0
C92 C 0.71073 0.10195 0.62634 0.0
C93 C 0.6667 0.05262 0.52988 0.0
O94 O 0.66551 0.0756 0.54519 0.0
O95 O 0.66542 0.02922 0.54617 0.0
O96 O 0.60353 0.07071 0.59122 0.0
O97 O 0.60253 0.02384 0.59771 0.0
O98 O 0.03486 0.62183 0.57895 0.0
Cd99 Cd 0.08109 0.62803 0.56703 0.0
Cd100 Cd 0.04565 0.56568 0.56442 0.0
O101 O 1.01774 0.5738 0.60256 0.0
O102 O 0.11471 0.66873 0.59073 0.0
O103 O 0.09991 0.61768 0.60519 0.0
C104 C 0.11505 0.64886 0.61212 0.0
C105 C 0.07423 0.53651 0.56097 0.0
C106 C 1.01456 0.59885 0.59887 0.0
C107 C 0.06417 0.60368 0.50184 0.0
O108 O 0.04047 0.57864 0.51777 0.0
O109 O 0.08951 0.62642 0.51705 0.0
O110 O 0.04121 0.52092 0.56106 0.0
O111 O 0.0905 0.56799 0.56667 0.0
O112 O 0.45512 0.3737 0.59121 0.0
Cd113 Cd 0.44717 0.40919 0.57336 0.0
Cd114 Cd 0.51308 0.44431 0.57265 0.0
O115 O 0.50412 0.41102 0.61185 0.0
O116 O 0.40248 0.39938 0.59341 0.0
O117 O 0.45269 0.44237 0.60677 0.0
C118 C 0.42009 0.42423 0.61251 0.0
C119 C 0.54404 0.50279 0.57196 0.0
C120 C 0.47889 0.38108 0.61073 0.0
C121 C 0.47877 0.41889 0.50857 0.0
O122 O 0.50461 0.42581 0.52511 0.0
O123 O 0.45236 0.41597 0.52315 0.0
O124 O 0.55954 0.48659 0.57082 0.0
O125 O 0.51125 0.48581 0.57655 0.0
O126 O 0.7243 0.63671 0.09907 0.0
Cd127 Cd 0.68768 0.64437 0.0819 0.0
Cd128 Cd 0.65282 0.58099 0.08329 0.0
O129 O 0.6858 0.589 0.12201 0.0
O130 O 0.69977 0.68888 0.09818 0.0
O131 O 0.65474 0.6416 0.11673 0.0
C132 C 0.67449 0.67339 0.11931 0.0
C133 C 0.59304 0.55199 0.08283 0.0
C134 C 0.71658 0.61362 0.11964 0.0
C135 C 0.67804 0.61446 0.01813 0.0
O136 O 0.67267 0.58972 0.03527 0.0
O137 O 0.67994 0.63938 0.03232 0.0
O138 O 0.6092 0.53642 0.08263 0.0
O139 O 0.61066 0.58371 0.08708 0.0
O140 O 0.50176 0.98933 0.04054 0.0
Cd141 Cd 0.46928 1.00646 0.049 0.0
Cd142 Cd 0.51546 0.04253 0.09131 0.0
O143 O 0.5472 0.03299 0.06059 0.0
O144 O 0.44253 0.99902 0.00842 0.0
O145 O 0.48429 0.04831 0.02388 0.0
C146 C 0.46208 0.03049 0.0025 0.0
C147 C 0.51357 0.08974 0.10615 0.0
C148 C 0.53387 1.00601 0.04431 0.0
C149 C 0.45094 0.9895 0.11938 0.0
O150 O 0.48305 1.00394 0.12172 0.0
O151 O 0.43873 0.9914 0.09244 0.0
O152 O 0.53513 0.08389 0.11925 0.0
O153 O 0.4962 0.07096 0.08232 0.0
O154 O 1.0316 0.37958 0.08487 0.0
Cd155 Cd 0.07739 0.41992 0.07055 0.0
Cd156 Cd 0.04282 0.44716 0.07252 0.0
O157 O 1.01792 0.41179 0.1115 0.0
O158 O 0.11259 0.41378 0.09064 0.0
O159 O 0.09902 0.4501 0.10814 0.0
C160 C 0.11461 0.43448 0.11283 0.0
C161 C 0.07266 0.50534 0.06962 0.0
C162 C 1.0137 0.38309 0.10711 0.0
C163 C 0.05723 0.42843 0.00756 0.0
O164 O 0.03414 0.4288 0.02544 0.0
O165 O 0.08303 0.43087 0.02091 0.0
O166 O 0.03961 0.48807 0.07204 0.0
O167 O 0.08851 0.48976 0.07283 0.0
O168 O 0.39368 0.43142 0.92625 0.0
Cd169 Cd 0.35653 0.38507 0.91241 0.0
Cd170 Cd 0.32164 0.41177 0.91301 0.0
O171 O 0.35388 0.43548 0.95312 0.0
O172 O 0.36901 0.35453 0.93132 0.0
O173 O 0.32548 0.35865 0.95022 0.0
C174 C 0.3455 0.34751 0.95385 0.0
C175 C 0.26185 0.38038 0.91142 0.0
C176 C 0.38521 0.44426 0.94924 0.0
C177 C 0.34671 0.40208 0.8485 0.0
O178 O 0.34269 0.42273 0.86526 0.0
O179 O 0.34694 0.37866 0.86324 0.0
O180 O 0.27835 0.41244 0.91239 0.0
O181 O 0.27907 0.36619 0.91508 0.0
O182 O 0.78058 0.92196 0.89031 0.0
Cd183 Cd 0.76373 0.95388 0.89929 0.0
Cd184 Cd 0.71943 0.90521 0.93848 0.0
O185 O 0.73085 0.87761 0.90483 0.0
O186 O 0.77415 0.98463 0.86051 0.0
O187 O 0.72327 0.94043 0.87217 0.0
C188 C 0.74262 0.96528 0.85295 0.0
C189 C 0.67321 0.91254 0.9494 0.0
C190 C 0.76051 0.89056 0.8906 0.0
C191 C 0.76864 0.96181 0.97241 0.0
O192 O 0.75488 0.93054 0.97267 0.0
O193 O 0.77098 0.97668 0.94551 0.0
O194 O 0.67272 0.88705 0.96138 0.0
O195 O 0.69779 0.93121 0.92881 0.0
O196 O 0.16749 0.81145 0.88158 0.0
Cd197 Cd 0.13419 0.76116 0.88937 0.0
Cd198 Cd 0.17801 0.77382 0.93345 0.0
O199 O 0.21202 0.81469 0.90388 0.0
O200 O 0.1089 0.74251 0.8479 0.0
O201 O 0.14796 0.73274 0.86483 0.0
C202 C 0.12723 0.72949 0.84252 0.0
C203 C 0.17676 0.72699 0.95325 0.0
C204 C 0.19935 0.82778 0.8867 0.0
C205 C 0.11221 0.76208 0.95741 0.0
O206 O 0.14417 0.78064 0.96062 0.0
O207 O 0.10103 0.74618 0.9308 0.0
O208 O 0.1964 0.75586 0.96593 0.0
O209 O 0.16133 0.72567 0.92685 0.0
O210 O 0.39401 0.96948 0.42695 0.0
Cd211 Cd 0.35813 0.97798 0.40948 0.0
Cd212 Cd 0.32188 0.91489 0.41147 0.0
O213 O 0.35364 0.924 0.45178 0.0
O214 O 0.37241 0.0233 0.42458 0.0
O215 O 0.32648 0.97744 0.4445 0.0
C216 C 0.34757 1.00913 0.44634 0.0
C217 C 0.26208 0.88585 0.41044 0.0
C218 C 0.38491 0.94758 0.44926 0.0
C219 C 0.34805 0.94762 0.34615 0.0
O220 O 0.34251 0.92293 0.36354 0.0
O221 O 0.34993 0.9726 0.36013 0.0
O222 O 0.27819 0.8703 0.41168 0.0
O223 O 0.27973 0.91776 0.41339 0.0
O224 O 0.17501 0.32602 0.37592 0.0
Cd225 Cd 0.14221 0.34297 0.38446 0.0
Cd226 Cd 0.18561 0.37482 0.42925 0.0
O227 O 0.21949 0.36827 0.39867 0.0
O228 O 0.11642 0.33581 0.34354 0.0
O229 O 0.15688 0.3853 0.36022 0.0
C230 C 0.13536 0.36742 0.33827 0.0
C231 C 0.18244 0.42003 0.44869 0.0
C232 C 0.20693 0.34236 0.3808 0.0
C233 C 0.11985 0.32166 0.45308 0.0
O234 O 0.15155 0.33377 0.45619 0.0
O235 O 0.10956 0.32653 0.42633 0.0
O236 O 0.20274 0.4124 0.46165 0.0
O237 O 0.16757 0.40475 0.42224 0.0
O238 O 0.67907 0.71098 0.42423 0.0
Cd239 Cd 0.7268 0.74859 0.4101 0.0
Cd240 Cd 0.69771 0.7808 0.41148 0.0
O241 O 0.67246 0.74729 0.45195 0.0
O242 O 0.75854 0.73746 0.42966 0.0
O243 O 0.75105 0.77772 0.44768 0.0
C244 C 0.76336 0.75903 0.45198 0.0
C245 C 0.73013 0.83905 0.40809 0.0
C246 C 0.66435 0.71727 0.44756 0.0
C247 C 0.70943 0.75877 0.34693 0.0
O248 O 0.68746 0.76139 0.36448 0.0
O249 O 0.7342 0.75954 0.36068 0.0
O250 O 0.69711 0.82306 0.41057 0.0
O251 O 0.74464 0.82217 0.4113 0.0
C252 C 1.02689 0.69931 0.12997 0.0
C253 C 1.01343 0.71646 0.14622 0.0
C254 C 0.03671 0.70502 0.09649 0.0
C255 C 1.03241 0.72803 0.07869 0.0
C256 C 1.0162 0.74331 0.09426 0.0
C257 C 1.00723 0.73764 0.12801 0.0
C258 C 0.05419 0.6884 0.08093 0.0
C259 C 1.01023 0.7672 0.07583 0.0
C260 C 0.1034 0.77518 0.01487 0.0
C261 C 0.0893 0.75668 0.98639 0.0
C262 C 0.08445 0.76705 0.04465 0.0
C263 C 0.05019 0.7401 0.04598 0.0
C264 C 0.03482 0.72298 0.0168 0.0
C265 C 0.0547 0.73131 0.98726 0.0
C266 C 0.10198 0.78594 0.07518 0.0
C267 C 0.99804 0.69475 0.01712 0.0
H268 H 1.03152 0.6827 0.14379 0.0
H269 H 0.99625 0.75052 0.1403 0.0
H270 H 0.04271 0.67706 0.05719 0.0
H271 H 0.08156 0.70723 0.07563 0.0
H272 H 0.05259 0.66883 0.09711 0.0
H273 H 0.99155 0.77166 0.08923 0.0
H274 H 0.03469 0.79131 0.07258 0.0
H275 H 1.00083 0.75772 0.05096 0.0
H276 H 0.12997 0.79517 0.0144 0.0
H277 H 0.04353 0.71706 0.96531 0.0
H278 H 0.10369 0.76908 0.09267 0.0
H279 H 0.08696 0.79531 0.08779 0.0
H280 H 0.1282 0.80733 0.06958 0.0
H281 H 0.99592 0.6723 0.02791 0.0
H282 H 0.98809 0.68872 0.99191 0.0
H283 H 0.98166 0.70079 0.03255 0.0
C284 C 0.33284 0.33952 0.01433 0.0
C285 C 0.34606 0.33291 0.98562 0.0
C286 C 0.34048 0.33342 0.04559 0.0
C287 C 0.36131 0.31982 0.04814 0.0
C288 C 0.37256 0.31079 0.01926 0.0
C289 C 0.36504 0.31771 0.98832 0.0
C290 C 0.32835 0.34381 0.07572 0.0
C291 C 0.39423 0.29559 0.02096 0.0
C292 C 0.41778 0.3409 0.12143 0.0
C293 C 0.39919 0.3121 0.14086 0.0
C294 C 0.40521 0.34407 0.09166 0.0
C295 C 0.37365 0.31749 0.08072 0.0
C296 C 0.35456 0.28853 0.10046 0.0
C297 C 0.36742 0.2863 0.13044 0.0
C298 C 0.42598 0.37569 0.07167 0.0
C299 C 0.32099 0.25959 0.08952 0.0
H300 H 0.31848 0.35163 0.01248 0.0
H301 H 0.37532 0.31254 0.96622 0.0
H302 H 0.31705 0.32381 0.09469 0.0
H303 H 0.35047 0.36586 0.08663 0.0
H304 H 0.30912 0.35025 0.06987 0.0
H305 H 0.39766 0.28662 0.99663 0.0
H306 H 0.4198 0.31432 0.02983 0.0
H307 H 0.38253 0.2745 0.03875 0.0
H308 H 0.44224 0.36097 0.12945 0.0
H309 H 0.35297 0.26388 0.14529 0.0
H310 H 0.40996 0.38591 0.06557 0.0
H311 H 0.43504 0.37038 0.04809 0.0
H312 H 0.44852 0.39494 0.08486 0.0
H313 H 0.30308 0.26786 0.08447 0.0
H314 H 0.30874 0.23925 0.1082 0.0
H315 H 0.32518 0.24958 0.06623 0.0
C316 C 0.81414 0.05077 0.14859 0.0
C317 C 0.78823 0.05636 0.15915 0.0
C318 C 0.81343 0.03693 0.11772 0.0
C319 C 0.78578 0.02784 0.09715 0.0
C320 C 0.75934 0.03312 0.1078 0.0
C321 C 0.76106 0.04762 0.13856 0.0
C322 C 0.84232 0.03212 0.10706 0.0
C323 C 0.72905 0.02312 0.08685 0.0
C324 C 0.79289 1.01413 0.00544 0.0
C325 C 0.7765 0.97947 0.00425 0.0
C326 C 0.79693 0.03038 0.03562 0.0
C327 C 0.78371 1.01144 0.06515 0.0
C328 C 0.76775 0.97654 0.06412 0.0
C329 C 0.76464 0.96105 0.03381 0.0
C330 C 0.8147 0.06772 0.03586 0.0
C331 C 0.7529 0.9554 0.09496 0.0
H332 H 0.83543 0.05782 0.16422 0.0
H333 H 0.74097 0.0519 0.14658 0.0
H334 H 0.83241 1.00536 0.10344 0.0
H335 H 0.85383 0.04488 0.0831 0.0
H336 H 0.86267 0.04179 0.12532 0.0
H337 H 0.71069 0.02899 0.09863 0.0
H338 H 0.73783 0.03601 0.06261 0.0
H339 H 0.71542 0.99607 0.08212 0.0
H340 H 0.80211 0.02853 0.98276 0.0
H341 H 0.75171 0.93423 0.03324 0.0
H342 H 0.83571 0.07823 0.05341 0.0
H343 H 0.79642 0.07505 0.04437 0.0
H344 H 0.82543 0.07895 0.01115 0.0
H345 H 0.77292 0.96324 0.11329 0.0
H346 H 0.74173 0.92858 0.09001 0.0
H347 H 0.73264 0.9588 0.10628 0.0
C348 C 0.68404 0.03554 0.4781 0.0
C349 C 0.67304 0.05499 0.4938 0.0
C350 C 0.69548 0.04126 0.44501 0.0
C351 C 0.6955 0.06677 0.42714 0.0
C352 C 0.68164 0.0845 0.44202 0.0
C353 C 0.6708 0.07857 0.47531 0.0
C354 C 0.71018 1.02185 0.43005 0.0
C355 C 0.68052 0.11136 0.42355 0.0
C356 C 0.77026 0.1118 0.36636 0.0
C357 C 0.75591 0.09639 0.33661 0.0
C358 C 0.7505 0.10305 0.39569 0.0
C359 C 0.71528 0.07854 0.39533 0.0
C360 C 0.70009 0.06419 0.36516 0.0
C361 C 0.72067 0.07316 0.33606 0.0
C362 C 0.76779 0.11898 0.42735 0.0
C363 C 0.66247 0.03845 0.36381 0.0
H364 H 0.68558 1.01707 0.49215 0.0
H365 H 0.66175 0.09331 0.48714 0.0
H366 H 0.70002 1.01275 0.40534 0.0
H367 H 0.73834 0.03833 0.4269 0.0
H368 H 0.70448 1.0003 0.44568 0.0
H369 H 0.66348 0.11839 0.43631 0.0
H370 H 0.70661 0.13376 0.42135 0.0
H371 H 0.67165 0.10328 0.39825 0.0
H372 H 0.79739 0.12999 0.36706 0.0
H373 H 0.70936 0.06122 0.31316 0.0
H374 H 0.76603 0.09979 0.44416 0.0
H375 H 0.75473 0.13036 0.44004 0.0
H376 H 0.79518 0.13844 0.42317 0.0
H377 H 0.65726 1.01488 0.37496 0.0
H378 H 0.65369 0.03349 0.33816 0.0
H379 H 0.64716 0.04648 0.37825 0.0
C380 C 0.03499 0.58044 0.44913 0.0
C381 C 0.05979 0.60767 0.46666 0.0
C382 C 1.0267 0.58444 0.41739 0.0
C383 C 0.04335 0.61651 0.40299 0.0
C384 C 0.06959 0.64386 0.41988 0.0
C385 C 0.07765 0.63907 0.45148 0.0
C386 C 0.99903 0.55461 0.39994 0.0
C387 C 0.08794 0.67849 0.40528 0.0
C388 C 0.03986 0.63143 0.31214 0.0
C389 C 1.01577 0.64109 0.31261 0.0
C390 C 0.04795 0.62174 0.34119 0.0
C391 C 1.03177 0.62199 0.37137 0.0
C392 C 1.00587 0.62965 0.37165 0.0
C393 C 0.99803 0.63892 0.3422 0.0
C394 C 0.07521 0.61309 0.33982 0.0
C395 C 0.98793 0.6301 0.40337 0.0
H396 H 1.02129 0.55602 0.4606 0.0
H397 H 0.09677 0.66022 0.4649 0.0
H398 H 0.97622 0.55669 0.39838 0.0
H399 H 1.00774 0.55355 0.37439 0.0
H400 H 0.99129 0.53098 0.41286 0.0
H401 H 0.10907 0.69671 0.42063 0.0
H402 H 0.09857 0.67872 0.38027 0.0
H403 H 0.06958 0.68675 0.40277 0.0
H404 H 0.05359 0.63292 0.28932 0.0
H405 H 0.97946 0.64641 0.3428 0.0
H406 H 0.06657 0.58988 0.35389 0.0
H407 H 0.09849 0.63312 0.35137 0.0
H408 H 0.08216 0.60998 0.31415 0.0
H409 H 0.97736 0.60632 0.41701 0.0
H410 H 0.96682 0.63434 0.3991 0.0
H411 H 1.00656 0.65013 0.41933 0.0
C412 C 0.44779 0.39565 0.4564 0.0
C413 C 0.47851 0.41141 0.47302 0.0
C414 C 0.44641 0.38438 0.42408 0.0
C415 C 0.47655 0.38928 0.40789 0.0
C416 C 0.50803 0.40712 0.42373 0.0
C417 C 0.5086 0.4178 0.45617 0.0
C418 C 0.41228 0.3654 0.40807 0.0
C419 C 0.54081 0.41337 0.40709 0.0
C420 C 0.46229 0.32201 0.34767 0.0
C421 C 0.46245 0.33609 0.31741 0.0
C422 C 0.4679 0.33952 0.37707 0.0
C423 C 0.47425 0.37216 0.3763 0.0
C424 C 0.47641 0.3873 0.3457 0.0
C425 C 0.47034 0.36902 0.31656 0.0
C426 C 0.46538 0.32241 0.40916 0.0
C427 C 0.48369 0.42226 0.34387 0.0
H428 H 0.42443 0.39073 0.46914 0.0
H429 H 0.53256 0.43034 0.46866 0.0
H430 H 0.41416 0.37538 0.383 0.0
H431 H 0.40452 0.33902 0.40546 0.0
H432 H 0.39191 0.36641 0.4226 0.0
H433 H 0.56363 0.43155 0.42067 0.0
H434 H 0.54035 0.38974 0.40555 0.0
H435 H 0.54341 0.4227 0.38156 0.0
H436 H 0.45643 0.29667 0.34865 0.0
H437 H 0.47054 0.38013 0.29332 0.0
H438 H 0.44358 0.31956 0.42461 0.0
H439 H 0.48885 0.33766 0.42312 0.0
H440 H 0.46167 0.29747 0.40539 0.0
H441 H 0.46143 0.42286 0.35439 0.0
H442 H 0.48879 0.43187 0.31816 0.0
H443 H 0.50599 0.43917 0.35867 0.0
C444 C 0.99422 0.34443 0.83654 0.0
C445 C 1.01413 0.36313 0.80902 0.0
C446 C 1.0004 0.3583 0.86801 0.0
C447 C 1.02674 0.39183 0.87191 0.0
C448 C 0.04477 0.41166 0.84387 0.0
C449 C 0.03836 0.39701 0.8127 0.0
C450 C 0.98055 0.33632 0.89731 0.0
C451 C 0.07247 0.44771 0.847 0.0
C452 C 1.02852 0.42736 0.9563 0.0
C453 C 0.05246 0.42275 0.97184 0.0
C454 C 1.02101 0.41888 0.92324 0.0
C455 C 0.03742 0.40495 0.9055 0.0
C456 C 0.06252 0.40134 0.92069 0.0
C457 C 0.06994 0.41056 0.95364 0.0
C458 C 0.99462 0.42369 0.90769 0.0
C459 C 0.08046 0.38638 0.9026 0.0
H460 H 0.9754 0.31825 0.83394 0.0
H461 H 0.05372 0.41169 0.79151 0.0
H462 H 0.99784 0.33229 0.91214 0.0
H463 H 0.97033 0.3484 0.91343 0.0
H464 H 0.95894 0.31175 0.88989 0.0
H465 H 0.08023 0.46087 0.82282 0.0
H466 H 0.06389 0.46063 0.86397 0.0
H467 H 0.09525 0.44948 0.85752 0.0
H468 H 1.01517 0.43712 0.97017 0.0
H469 H 0.08842 0.4069 0.96553 0.0
H470 H 0.97147 0.39916 0.90309 0.0
H471 H 1.00451 0.43661 0.88355 0.0
H472 H 0.98706 0.43819 0.92356 0.0
H473 H 0.06156 0.36034 0.89608 0.0
H474 H 0.10028 0.38653 0.9175 0.0
H475 H 0.09276 0.40019 0.87928 0.0
C476 C 0.69942 0.64518 0.96447 0.0
C477 C 0.68441 0.61515 0.98211 0.0
C478 C 0.7096 0.64706 0.93122 0.0
C479 C 0.70422 0.61811 0.91513 0.0
C480 C 0.6868 0.58728 0.93213 0.0
C481 C 0.67736 0.5862 0.96554 0.0
C482 C 0.72827 0.6805 0.91401 0.0
C483 C 0.67991 0.55576 0.91559 0.0
C484 C 0.72453 0.62844 0.82291 0.0
C485 C 0.75871 0.63695 0.82188 0.0
C486 C 0.70556 0.62037 0.85298 0.0
C487 C 0.72137 0.62123 0.8825 0.0
C488 C 0.75517 0.62792 0.88125 0.0
C489 C 0.77327 0.63543 0.85099 0.0
C490 C 0.66929 0.6126 0.85332 0.0
C491 C 0.77304 0.62913 0.91213 0.0
H492 H 0.70475 0.66762 0.97703 0.0
H493 H 0.66525 0.56278 0.97888 0.0
H494 H 0.75541 0.68835 0.9092 0.0
H495 H 0.71712 0.67896 0.88988 0.0
H496 H 0.72746 0.69992 0.92885 0.0
H497 H 0.66123 0.53332 0.93016 0.0
H498 H 0.67006 0.55395 0.89069 0.0
H499 H 0.70409 0.556 0.91256 0.0
H500 H 0.71304 0.62942 0.80052 0.0
H501 H 0.79953 0.64158 0.85043 0.0
H502 H 0.66842 0.63402 0.86337 0.0
H503 H 0.65243 0.59086 0.8695 0.0
H504 H 0.65896 0.60749 0.82826 0.0
H505 H 0.77595 0.64964 0.92795 0.0
H506 H 0.79877 0.63309 0.90672 0.0
H507 H 0.75758 0.60572 0.92649 0.0
C508 C 0.4342 0.02751 0.94974 0.0
C509 C 0.461 0.04546 0.97111 0.0
C510 C 0.43436 0.04069 0.91889 0.0
C511 C 0.46228 0.07234 0.90896 0.0
C512 C 0.48917 0.09074 0.9306 0.0
C513 C 0.48808 0.07719 0.96151 0.0
C514 C 0.40485 1.02052 0.89673 0.0
C515 C 0.51953 0.12436 0.92078 0.0
C516 C 0.47318 0.08574 0.81631 0.0
C517 C 0.45649 0.10294 0.81138 0.0
C518 C 0.47701 0.07724 0.84817 0.0
C519 C 0.46343 0.08578 0.87567 0.0
C520 C 0.44865 0.10508 0.87096 0.0
C521 C 0.44564 0.11368 0.83889 0.0
C522 C 0.4937 0.05735 0.85223 0.0
C523 C 0.43372 0.11457 0.89957 0.0
H524 H 0.41319 1.00303 0.95704 0.0
H525 H 0.50902 0.09115 0.97778 0.0
H526 H 0.39353 0.03517 0.88965 0.0
H527 H 0.41411 1.01447 0.87373 0.0
H528 H 0.38448 0.99698 0.90862 0.0
H529 H 0.53786 0.13592 0.94083 0.0
H530 H 0.53313 0.12191 0.89886 0.0
H531 H 0.51092 0.14132 0.91383 0.0
H532 H 0.4817 0.07741 0.79522 0.0
H533 H 0.43259 0.12687 0.83539 0.0
H534 H 0.4741 0.03169 0.86024 0.0
H535 H 0.51289 0.06828 0.87156 0.0
H536 H 0.50643 0.05609 0.82897 0.0
H537 H 0.41061 0.09199 0.90988 0.0
H538 H 0.42643 0.13248 0.89221 0.0
H539 H 0.45216 0.12564 0.91952 0.0
C540 C 0.36132 0.09745 0.62002 0.0
C541 C 0.38579 0.09412 0.63617 0.0
C542 C 0.35392 0.08786 0.58715 0.0
C543 C 0.37096 0.07409 0.57028 0.0
C544 C 0.39678 0.07205 0.58599 0.0
C545 C 0.40409 0.08238 0.61869 0.0
C546 C 0.3268 0.09111 0.571 0.0
C547 C 0.41543 0.05731 0.56888 0.0
C548 C 0.32811 1.00982 0.50415 0.0
C549 C 0.34738 0.02746 0.47592 0.0
C550 C 0.33435 0.02523 0.53488 0.0
C551 C 0.36005 0.05921 0.53729 0.0
C552 C 0.37736 0.07785 0.50844 0.0
C553 C 0.37096 0.06168 0.47806 0.0
C554 C 0.31531 1.00445 0.56509 0.0
C555 C 0.40431 0.11431 0.50993 0.0
H556 H 0.34733 0.10684 0.63334 0.0
H557 H 0.42296 0.07969 0.63106 0.0
H558 H 0.33598 0.10265 0.54619 0.0
H559 H 0.30381 0.06612 0.56775 0.0
H560 H 0.3192 0.10619 0.58585 0.0
H561 H 0.43599 0.05914 0.5839 0.0
H562 H 0.39711 0.03074 0.5637 0.0
H563 H 0.42689 0.07005 0.54492 0.0
H564 H 0.30985 0.98338 0.50274 0.0
H565 H 0.38582 0.07553 0.4563 0.0
H566 H 0.30462 1.0167 0.58029 0.0
H567 H 0.33327 1.00194 0.58044 0.0
H568 H 0.29413 0.97921 0.55875 0.0
H569 H 0.39538 0.12749 0.52609 0.0
H570 H 0.41132 0.12627 0.48516 0.0
H571 H 0.42762 0.1174 0.52058 0.0
C572 C 1.01155 0.25647 0.62459 0.0
C573 C 1.01929 0.28569 0.641 0.0
C574 C 1.02137 0.25728 0.59132 0.0
C575 C 0.03996 0.28812 0.57437 0.0
C576 C 0.04603 0.31739 0.59026 0.0
C577 C 0.03536 0.31576 0.62331 0.0
C578 C 1.01358 0.22544 0.57492 0.0
C579 C 0.06599 0.35085 0.57314 0.0
C580 C 0.10985 0.30393 0.51189 0.0
C581 C 0.09662 0.30685 0.48247 0.0
C582 C 0.09094 0.29632 0.5417 0.0
C583 C 0.05761 0.29081 0.54212 0.0
C584 C 0.04299 0.2911 0.5122 0.0
C585 C 0.06281 0.29939 0.48264 0.0
C586 C 0.10763 0.29641 0.57304 0.0
C587 C 1.00718 0.28446 0.5116 0.0
H588 H 0.99863 0.23305 0.63798 0.0
H589 H 0.04126 0.33843 0.63574 0.0
H590 H 1.00457 0.22417 0.54971 0.0
H591 H 0.03721 0.22459 0.57263 0.0
H592 H 0.99394 0.20323 0.5892 0.0
H593 H 0.06585 0.37069 0.58785 0.0
H594 H 0.0929 0.35778 0.56869 0.0
H595 H 0.05537 0.34985 0.54884 0.0
H596 H 0.13581 0.30928 0.51202 0.0
H597 H 0.05231 0.3014 0.46 0.0
H598 H 0.09114 0.27297 0.58708 0.0
H599 H 0.11096 0.31706 0.5889 0.0
H600 H 0.13304 0.29944 0.56825 0.0
H601 H 0.98949 0.26304 0.5278 0.0
H602 H 0.9974 0.27943 0.48631 0.0
H603 H 1.00696 0.30641 0.52103 0.0
C604 C 0.79209 0.73943 0.48823 0.0
C605 C 0.77622 0.75754 0.48432 0.0
C606 C 0.79725 0.7313 0.51972 0.0
C607 C 0.78568 0.741 0.5479 0.0
C608 C 0.77132 0.7608 0.54411 0.0
C609 C 0.76708 0.76911 0.51237 0.0
C610 C 0.81339 0.71079 0.52276 0.0
C611 C 0.7582 0.77125 0.57346 0.0
C612 C 0.76045 0.68496 0.62334 0.0
C613 C 0.78867 0.7033 0.64304 0.0
C614 C 0.75882 0.69733 0.59266 0.0
C615 C 0.78642 0.72847 0.58112 0.0
C616 C 0.81481 0.74723 0.60106 0.0
C617 C 0.81545 0.73456 0.63191 0.0
C618 C 0.72773 0.67687 0.5724 0.0
C619 C 0.84486 0.78033 0.58948 0.0
H620 H 0.79918 0.73039 0.46668 0.0
H621 H 0.75442 0.78279 0.5096 0.0
H622 H 0.83392 0.72201 0.54079 0.0
H623 H 0.79389 0.68557 0.53202 0.0
H624 H 0.82433 0.70837 0.49883 0.0
H625 H 0.751 0.78936 0.56662 0.0
H626 H 0.73535 0.74909 0.58474 0.0
H627 H 0.7777 0.78243 0.59249 0.0
H628 H 0.73963 0.66086 0.63186 0.0
H629 H 0.83746 0.74879 0.64692 0.0
H630 H 0.73515 0.6692 0.54928 0.0
H631 H 0.7168 0.69188 0.5654 0.0
H632 H 0.70755 0.65424 0.58576 0.0
H633 H 0.85666 0.77702 0.56662 0.0
H634 H 0.86469 0.79214 0.60821 0.0
H635 H 0.83619 0.79747 0.58346 0.0
C636 C 0.34767 0.42875 0.79515 0.0
C637 C 0.35285 0.40629 0.81235 0.0
C638 C 0.35507 0.43407 0.76112 0.0
C639 C 0.36841 0.41689 0.74404 0.0
C640 C 0.37306 0.39373 0.76116 0.0
C641 C 0.36501 0.38857 0.79502 0.0
C642 C 0.34925 0.45851 0.74358 0.0
C643 C 0.38748 0.37505 0.7439 0.0
C644 C 0.36994 0.40589 0.65171 0.0
C645 C 0.40459 0.42816 0.64346 0.0
C646 C 0.35697 0.40371 0.68404 0.0
C647 C 0.3793 0.42406 0.70865 0.0
C648 C 0.41355 0.44853 0.69982 0.0
C649 C 0.42571 0.45044 0.66727 0.0
C650 C 0.32008 0.37784 0.69233 0.0
C651 C 0.43823 0.47073 0.72528 0.0
H652 H 0.33803 0.44235 0.80833 0.0
H653 H 0.36911 0.3712 0.80809 0.0
H654 H 0.37411 0.48008 0.73473 0.0
H655 H 0.33381 0.44689 0.72165 0.0
H656 H 0.33605 0.46771 0.75977 0.0
H657 H 0.38887 0.35742 0.76061 0.0
H658 H 0.37151 0.36095 0.72298 0.0
H659 H 0.41357 0.39284 0.73365 0.0
H660 H 0.35335 0.38874 0.63342 0.0
H661 H 0.45249 0.46788 0.66112 0.0
H662 H 0.30829 0.38813 0.70893 0.0
H663 H 0.3187 0.35672 0.70545 0.0
H664 H 0.30484 0.3682 0.66993 0.0
H665 H 0.42678 0.48189 0.74108 0.0
H666 H 0.46263 0.49101 0.71389 0.0
H667 H 0.44403 0.45574 0.74149 0.0
C668 C 0.66079 0.99885 0.69845 0.0
C669 C 0.67214 0.99099 0.66926 0.0
C670 C 0.6701 0.99367 0.72925 0.0
C671 C 0.69075 0.97978 0.73087 0.0
C672 C 0.7004 0.96981 0.70159 0.0
C673 C 0.69119 0.97577 0.67111 0.0
C674 C 0.65952 1.00486 0.75988 0.0
C675 C 0.72179 0.95425 0.70235 0.0
C676 C 0.74802 0.99901 0.80329 0.0
C677 C 0.72898 0.97011 0.82253 0.0
C678 C 0.73551 1.00282 0.77373 0.0
C679 C 0.70346 0.97687 0.76298 0.0
C680 C 0.68401 0.94783 0.78249 0.0
C681 C 0.69689 0.9449 0.81211 0.0
C682 C 0.75673 0.03444 0.7538 0.0
C683 C 0.64991 0.91952 0.77174 0.0
H684 H 0.64641 1.011 0.69721 0.0
H685 H 0.70005 0.96967 0.64862 0.0
H686 H 0.64758 0.98466 0.77864 0.0
H687 H 0.68245 0.02607 0.77075 0.0
H688 H 0.64126 1.01273 0.75471 0.0
H689 H 0.72473 0.9454 0.67776 0.0
H690 H 0.74757 0.97266 0.71102 0.0
H691 H 0.71013 0.93299 0.71993 0.0
H692 H 0.77274 1.01862 0.81128 0.0
H693 H 0.68201 0.9224 0.82677 0.0
H694 H 0.74154 0.04593 0.74923 0.0
H695 H 0.76411 0.02879 0.72946 0.0
H696 H 0.78033 0.05281 0.76626 0.0
H697 H 0.63237 0.92846 0.76759 0.0
H698 H 0.63758 0.89892 0.79013 0.0
H699 H 0.65334 0.90964 0.74802 0.0
C700 C 0.10035 0.70534 0.78884 0.0
C701 C 0.12663 0.71389 0.81053 0.0
C702 C 0.10122 0.69359 0.75717 0.0
C703 C 0.12939 0.6909 0.74668 0.0
C704 C 0.15565 0.69885 0.7687 0.0
C705 C 0.15382 0.70998 0.80046 0.0
C706 C 0.0723 0.68472 0.73468 0.0
C707 C 0.18626 0.69668 0.75835 0.0
C708 C 0.11465 0.63689 0.67185 0.0
C709 C 0.12608 0.66025 0.64604 0.0
C710 C 0.11694 0.64663 0.70487 0.0
C711 C 0.13156 0.68061 0.71231 0.0
C712 C 0.14565 0.70454 0.68648 0.0
C713 C 0.14251 0.69406 0.65364 0.0
C714 C 0.10138 0.62028 0.73158 0.0
C715 C 0.16217 0.7411 0.69341 0.0
H716 H 0.07923 0.70821 0.79648 0.0
H717 H 0.17437 0.71679 0.81699 0.0
H718 H 0.08204 0.7016 0.71291 0.0
H719 H 0.0615 0.65908 0.72551 0.0
H720 H 0.05141 0.68649 0.74714 0.0
H721 H 0.2037 0.70223 0.77886 0.0
H722 H 0.17791 0.67154 0.74903 0.0
H723 H 0.20077 0.71452 0.73789 0.0
H724 H 0.10173 0.61068 0.66629 0.0
H725 H 0.15147 0.71228 0.63389 0.0
H726 H 0.07787 0.6185 0.74213 0.0
H727 H 0.11921 0.62692 0.75188 0.0
H728 H 0.09454 0.59551 0.72218 0.0
H729 H 0.14238 0.74629 0.70233 0.0
H730 H 0.17546 0.75668 0.67116 0.0
H731 H 0.18087 0.74857 0.71306 0.0
C732 C 0.72258 0.74016 0.29374 0.0
C733 C 0.70449 0.7521 0.3113 0.0
C734 C 0.71563 0.73043 0.26088 0.0
C735 C 0.69031 0.73316 0.24504 0.0
C736 C 0.67308 0.74664 0.26212 0.0
C737 C 0.68019 0.75573 0.29517 0.0
C738 C 0.73448 0.71598 0.24353 0.0
C739 C 0.64642 0.75051 0.24584 0.0
C740 C 0.69507 0.72468 0.15263 0.0
C741 C 0.67214 0.6905 0.149 0.0
C742 C 0.6994 0.73965 0.1835 0.0
C743 C 0.68063 0.71984 0.21133 0.0
C744 C 0.65536 0.68595 0.20726 0.0
C745 C 0.65123 0.67175 0.17606 0.0
C746 C 0.72596 0.77605 0.18672 0.0
C747 C 0.63478 0.66395 0.2363 0.0
H748 H 0.74136 0.73726 0.30602 0.0
H749 H 0.6663 0.76521 0.30852 0.0
H750 H 0.71609 0.68983 0.23691 0.0
H751 H 0.74707 0.72986 0.22031 0.0
H752 H 0.7542 0.71659 0.25894 0.0
H753 H 0.63814 0.76474 0.26123 0.0
H754 H 0.65642 0.76328 0.22165 0.0
H755 H 0.62371 0.72568 0.24121 0.0
H756 H 0.71112 0.73942 0.13177 0.0
H757 H 0.63334 0.64534 0.17347 0.0
H758 H 0.74889 0.77883 0.19799 0.0
H759 H 0.71621 0.78841 0.20307 0.0
H760 H 0.73388 0.78905 0.16246 0.0
H761 H 0.65175 0.66019 0.25191 0.0
H762 H 0.61362 0.63926 0.22856 0.0
H763 H 0.62385 0.67583 0.25175 0.0
C764 C 0.44389 0.97247 0.17823 0.0
C765 C 0.42897 0.97418 0.14944 0.0
C766 C 0.42575 0.96366 0.20852 0.0
C767 C 0.39154 0.95579 0.21016 0.0
C768 C 0.3754 0.955 0.18088 0.0
C769 C 0.39441 0.96443 0.15078 0.0
C770 C 0.44405 0.96494 0.23912 0.0
C771 C 0.33869 0.94592 0.18159 0.0
C772 C 0.34853 0.91977 0.29348 0.0
C773 C 0.35469 0.9484 0.31014 0.0
C774 C 0.35796 0.92118 0.25998 0.0
C775 C 0.37449 0.95204 0.24301 0.0
C776 C 0.37908 0.98062 0.25926 0.0
C777 C 0.36891 0.97839 0.29254 0.0
C778 C 0.35187 0.89002 0.24326 0.0
C779 C 0.39687 1.0141 0.24217 0.0
H780 H 0.47044 0.97952 0.17745 0.0
H781 H 0.38261 0.96547 0.12864 0.0
H782 H 0.44653 0.98505 0.25532 0.0
H783 H 0.42914 0.94131 0.25323 0.0
H784 H 0.47001 0.96959 0.23336 0.0
H785 H 0.32822 0.94072 0.15659 0.0
H786 H 0.3225 0.92386 0.19762 0.0
H787 H 0.33693 0.96675 0.19198 0.0
H788 H 0.33706 0.89638 0.30679 0.0
H789 H 0.37356 1.0006 0.30513 0.0
H790 H 0.3764 0.89096 0.24006 0.0
H791 H 0.34182 0.88802 0.21842 0.0
H792 H 0.33365 0.86736 0.2578 0.0
H793 H 0.4241 0.02252 0.23686 0.0
H794 H 0.3958 0.03322 0.25729 0.0
H795 H 0.38521 1.01236 0.21829 0.0
C796 C 0.16192 0.41348 0.2965 0.0
C797 C 0.13431 0.38235 0.30687 0.0
C798 C 0.163 0.42648 0.26526 0.0
C799 C 0.13554 0.40817 0.24416 0.0
C800 C 0.10704 0.37726 0.25498 0.0
C801 C 0.10694 0.36458 0.28608 0.0
C802 C 0.19397 0.4593 0.25446 0.0
C803 C 0.07687 0.35726 0.23349 0.0
C804 C 0.11882 0.44778 0.1726 0.0
C805 C 0.12792 0.43494 0.14555 0.0
C806 C 0.12272 0.44065 0.20496 0.0
C807 C 0.13666 0.42073 0.21042 0.0
C808 C 0.14869 0.41021 0.18325 0.0
C809 C 0.14396 0.41724 0.1511 0.0
C810 C 0.10937 0.45219 0.23319 0.0
C811 C 0.16447 0.3896 0.18806 0.0
H812 H 0.1833 0.42724 0.31235 0.0
H813 H 0.0855 0.34058 0.29401 0.0
H814 H 0.20703 0.45552 0.23291 0.0
H815 H 0.18616 0.47663 0.24658 0.0
H816 H 0.21252 0.47113 0.27429 0.0
H817 H 0.05606 0.3345 0.24616 0.0
H818 H 0.06645 0.37255 0.22588 0.0
H819 H 0.08516 0.34984 0.21075 0.0
H820 H 0.10631 0.46141 0.16862 0.0
H821 H 0.15117 0.40733 0.13037 0.0
H822 H 0.12823 0.46322 0.25278 0.0
H823 H 0.08579 0.43058 0.24421 0.0
H824 H 0.10322 0.47076 0.22515 0.0
H825 H 0.18408 0.40076 0.207 0.0
H826 H 0.17648 0.38709 0.16489 0.0
H827 H 0.14446 0.36442 0.19696 0.0
C828 C 0.2067 0.83353 0.39812 0.0
C829 C 0.22571 0.86823 0.40086 0.0
C830 C 0.17507 0.81707 0.38278 0.0
C831 C 0.16219 0.83571 0.36942 0.0
C832 C 0.18009 0.87048 0.37416 0.0
C833 C 0.21149 0.88628 0.38993 0.0
C834 C 0.1566 0.77989 0.37891 0.0
C835 C 0.16742 0.89139 0.36041 0.0
C836 C 0.11261 0.79895 0.29179 0.0
C837 C 0.0785 0.78374 0.3034 0.0
C838 C 0.13983 0.81692 0.31278 0.0
C839 C 0.13303 0.81953 0.34659 0.0
C840 C 0.09865 0.80534 0.3583 0.0
C841 C 0.07174 0.78775 0.33651 0.0
C842 C 0.17597 0.83201 0.29892 0.0
C843 C 0.09021 0.80732 0.39414 0.0
H844 H 0.21727 0.81928 0.40662 0.0
H845 H 0.22587 0.91308 0.39185 0.0
H846 H 0.12902 0.76827 0.38554 0.0
H847 H 0.15876 0.77396 0.35279 0.0
H848 H 0.16728 0.76855 0.39437 0.0
H849 H 0.18126 0.91702 0.3702 0.0
H850 H 0.17113 0.89287 0.33321 0.0
H851 H 0.1397 0.87995 0.36614 0.0
H852 H 0.11806 0.79608 0.26621 0.0
H853 H 0.04547 0.77573 0.34577 0.0
H854 H 0.18807 0.81962 0.3101 0.0
H855 H 0.19143 0.85871 0.30512 0.0
H856 H 0.17701 0.82961 0.27175 0.0
H857 H 0.09624 0.79166 0.40899 0.0
H858 H 0.06279 0.79866 0.39863 0.0
H859 H 0.10599 0.83313 0.40302 0.0
C860 C 0.32427 0.2922 0.27516 0.0
C861 C 0.32692 0.26721 0.29045 0.0
C862 C 0.30527 0.30476 0.29 0.0
C863 C 0.28837 0.29216 0.32104 0.0
C864 C 0.29036 0.26648 0.33635 0.0
C865 C 0.30955 0.25432 0.3209 0.0
C866 C 0.3037 0.33191 0.27261 0.0
C867 C 0.27265 0.25221 0.36934 0.0
C868 C 0.26323 0.34502 0.37238 0.0
C869 C 0.22852 0.33025 0.36566 0.0
C870 C 0.28299 0.33277 0.35832 0.0
C871 C 0.26778 0.30519 0.3369 0.0
C872 C 0.23284 0.29031 0.33003 0.0
C873 C 0.21376 0.30292 0.34442 0.0
C874 C 0.32017 0.34936 0.36635 0.0
C875 C 0.21551 0.26101 0.30731 0.0
H876 H 0.33769 0.30254 0.25175 0.0
H877 H 0.31167 0.2353 0.33314 0.0
H878 H 0.27674 0.32377 0.26838 0.0
H879 H 0.31433 0.35426 0.28827 0.0
H880 H 0.31812 0.33897 0.24854 0.0
H881 H 0.27643 0.23221 0.37793 0.0
H882 H 0.28249 0.2721 0.388 0.0
H883 H 0.24485 0.24201 0.3679 0.0
H884 H 0.27493 0.36602 0.38876 0.0
H885 H 0.18703 0.29121 0.33888 0.0
H886 H 0.33641 0.359 0.34345 0.0
H887 H 0.32511 0.33102 0.37738 0.0
H888 H 0.32814 0.37023 0.38372 0.0
H889 H 0.22842 0.26793 0.28255 0.0
H890 H 0.18805 0.25201 0.30472 0.0
H891 H 0.21762 0.24028 0.3167 0.0
C892 C 0.83834 0.03196 0.34771 0.0
C893 C 0.83128 0.0328 0.31454 0.0
C894 C 0.82439 1.00166 0.3651 0.0
C895 C 0.80316 0.97129 0.34892 0.0
C896 C 0.79731 0.97196 0.31501 0.0
C897 C 0.81117 1.0026 0.29837 0.0
C898 C 0.83111 1.00225 0.40122 0.0
C899 C 0.77539 0.94028 0.29652 0.0
C900 C 0.78416 0.88872 0.38494 0.0
C901 C 0.75041 0.87466 0.39746 0.0
C902 C 0.80193 0.92039 0.36986 0.0
C903 C 0.78587 0.93887 0.36754 0.0
C904 C 0.75243 0.9255 0.3816 0.0
C905 C 0.73505 0.89354 0.39609 0.0
C906 C 0.83736 0.93342 0.35504 0.0
C907 C 0.7345 0.94451 0.38034 0.0
H908 H 0.85349 0.05508 0.36062 0.0
H909 H 0.80546 1.00289 0.2728 0.0
H910 H 0.80689 0.99285 0.41591 0.0
H911 H 0.84065 0.98564 0.40638 0.0
H912 H 0.84999 0.02761 0.40969 0.0
H913 H 0.77525 0.94483 0.2698 0.0
H914 H 0.78466 0.92311 0.29966 0.0
H915 H 0.74873 0.9276 0.30672 0.0
H916 H 0.79626 0.87435 0.38557 0.0
H917 H 0.70903 0.883 0.40564 0.0
H918 H 0.85538 0.9587 0.36416 0.0
H919 H 0.83699 0.93533 0.3279 0.0
H920 H 0.84723 0.91715 0.36079 0.0
H921 H 0.75092 0.96982 0.39023 0.0
H922 H 0.70971 0.93193 0.39455 0.0
H923 H 0.72969 0.94732 0.3544 0.0
C924 C 0.92406 0.22055 0.22323 0.0
C925 C 0.88838 0.20315 0.22119 0.0
C926 C 0.94494 0.25195 0.20792 0.0
C927 C 0.92981 0.26623 0.19003 0.0
C928 C 0.89381 0.2493 0.18894 0.0
C929 C 0.87366 0.21817 0.20447 0.0
C930 C 0.98323 0.26929 0.20986 0.0
C931 C 0.8765 0.26338 0.17011 0.0
C932 C 0.98106 0.35701 0.16078 0.0
C933 C 0.99019 0.35378 0.12828 0.0
C934 C 0.96188 0.32886 0.18151 0.0
C935 C 0.95134 0.2968 0.16929 0.0
C936 C 0.96008 0.29352 0.13633 0.0
C937 C 0.97936 0.3219 0.1164 0.0
C938 C 0.9533 0.33341 0.21657 0.0
C939 C 0.94908 0.25993 0.12199 0.0
H940 H 0.93575 0.20939 0.23623 0.0
H941 H 0.84615 0.20528 0.20285 0.0
H942 H 0.99458 0.26932 0.18528 0.0
H943 H 0.99423 0.29556 0.217 0.0
H944 H 0.99088 0.25705 0.22778 0.0
H945 H 0.84827 0.24859 0.17396 0.0
H946 H 0.88599 0.2893 0.17761 0.0
H947 H 0.88273 0.26391 0.14341 0.0
H948 H 0.98973 0.38155 0.1703 0.0
H949 H 0.98621 0.31909 0.0913 0.0
H950 H 0.9644 0.32383 0.23372 0.0
H951 H 0.92521 0.31888 0.22125 0.0
H952 H 0.96309 0.35985 0.2223 0.0
H953 H 0.95901 0.24741 0.13668 0.0
H954 H 0.95825 0.26167 0.09599 0.0
H955 H 0.9208 0.24396 0.12312 0.0
C956 C 0.73621 0.60691 0.17459 0.0
C957 C 0.74357 0.61757 0.14159 0.0
C958 C 0.76274 0.61587 0.19652 0.0
C959 C 0.79734 0.63551 0.18503 0.0
C960 C 0.80467 0.64477 0.15132 0.0
C961 C 0.77782 0.63594 0.13021 0.0
C962 C 0.75374 0.60571 0.23226 0.0
C963 C 0.84102 0.66517 0.13767 0.0
C964 C 0.8721 0.69542 0.23662 0.0
C965 C 0.88986 0.67892 0.23921 0.0
C966 C 0.84042 0.68042 0.22145 0.0
C967 C 0.82626 0.64824 0.20802 0.0
C968 C 0.84285 0.63055 0.21271 0.0
C969 C 0.8743 0.646 0.22838 0.0
C970 C 0.82335 0.70001 0.2177 0.0
C971 C 0.82882 0.59628 0.19885 0.0
H972 H 0.70983 0.59306 0.18365 0.0
H973 H 0.78372 0.64415 0.10471 0.0
H974 H 0.76866 0.59524 0.24119 0.0
H975 H 0.76046 0.62789 0.24727 0.0
H976 H 0.72609 0.58714 0.23652 0.0
H977 H 0.84237 0.66838 0.11052 0.0
H978 H 0.85403 0.69009 0.149 0.0
H979 H 0.85542 0.65325 0.14388 0.0
H980 H 0.88371 0.72076 0.24506 0.0
H981 H 0.88775 0.63298 0.23016 0.0
H982 H 0.79565 0.68441 0.2242 0.0
H983 H 0.82598 0.708 0.19163 0.0
H984 H 0.8348 0.72244 0.23333 0.0
H985 H 0.80094 0.58044 0.20437 0.0
H986 H 0.84158 0.58391 0.20874 0.0
H987 H 0.83277 0.59812 0.17168 0.0
C988 C 0.42952 0.17938 0.20373 0.0
C989 C 0.44685 0.21372 0.19764 0.0
C990 C 0.44111 0.15966 0.18915 0.0
C991 C 0.47066 0.17449 0.16778 0.0
C992 C 0.48818 0.20908 0.16157 0.0
C993 C 0.47617 0.22816 0.17653 0.0
C994 C 0.42168 0.12289 0.19655 0.0
C995 C 0.51961 0.22601 0.13889 0.0
C996 C 0.51832 0.12924 0.15074 0.0
C997 C 0.50564 0.11426 0.12035 0.0
C998 C 0.50725 0.14888 0.16641 0.0
C999 C 0.48297 0.15388 0.15136 0.0
C1000 C 0.47077 0.13951 0.1203 0.0
C1001 C 0.48215 0.11992 0.10527 0.0
C1002 C 0.52102 0.16374 0.19944 0.0
C1003 C 0.44517 0.14437 0.10314 0.0
H1004 H 0.40694 0.1679 0.21999 0.0
H1005 H 0.48988 0.2546 0.17146 0.0
H1006 H 0.41218 0.1088 0.17344 0.0
H1007 H 0.43891 0.11588 0.20714 0.0
H1008 H 0.39958 0.11516 0.21405 0.0
H1009 H 0.53055 0.25317 0.1368 0.0
H1010 H 0.53948 0.22181 0.14796 0.0
H1011 H 0.51323 0.21519 0.11395 0.0
H1012 H 0.53617 0.12483 0.16281 0.0
H1013 H 0.47201 0.10842 0.08189 0.0
H1014 H 0.49973 0.15409 0.21821 0.0
H1015 H 0.5331 0.19107 0.19829 0.0
H1016 H 0.54014 0.15803 0.20767 0.0
H1017 H 0.42137 0.13417 0.11869 0.0
H1018 H 0.43864 0.13208 0.07881 0.0
H1019 H 0.45543 0.17122 0.09948 0.0
C1020 C 0.77268 0.14173 0.63392 0.0
C1021 C 0.73917 0.12521 0.64736 0.0
C1022 C 0.80097 0.15905 0.65383 0.0
C1023 C 0.79586 0.15965 0.68835 0.0
C1024 C 0.76202 0.14417 0.70203 0.0
C1025 C 0.73401 0.12725 0.68132 0.0
C1026 C 0.83643 0.17548 0.63796 0.0
C1027 C 0.75535 0.14391 0.73867 0.0
C1028 C 0.87284 0.17224 0.73311 0.0
C1029 C 0.89168 0.20677 0.73737 0.0
C1030 C 0.8403 0.15616 0.71956 0.0
C1031 C 0.82625 0.17501 0.70968 0.0
C1032 C 0.84403 0.20947 0.71619 0.0
C1033 C 0.87643 0.22489 0.73 0.0
C1034 C 0.82207 0.11928 0.71365 0.0
C1035 C 0.83 0.23053 0.70635 0.0
H1036 H 0.77684 0.14024 0.60769 0.0
H1037 H 0.7082 0.11407 0.69195 0.0
H1038 H 0.85183 0.20183 0.64541 0.0
H1039 H 0.84956 0.16297 0.64641 0.0
H1040 H 0.83605 0.17454 0.61066 0.0
H1041 H 0.72822 0.13531 0.74494 0.0
H1042 H 0.76163 0.127 0.75082 0.0
H1043 H 0.77189 0.169 0.74896 0.0
H1044 H 0.88418 0.1579 0.73889 0.0
H1045 H 0.89061 0.25155 0.73324 0.0
H1046 H 0.82335 0.11481 0.68693 0.0
H1047 H 0.79469 0.10701 0.72142 0.0
H1048 H 0.83361 0.10743 0.72701 0.0
H1049 H 0.83189 0.23331 0.67916 0.0
H1050 H 0.84419 0.25565 0.71727 0.0
H1051 H 0.8026 0.21841 0.71402 0.0
C1052 C 0.97829 0.59131 0.65031 0.0
C1053 C 0.9892 0.60348 0.61804 0.0
C1054 C 0.95813 0.60025 0.66952 0.0
C1055 C 0.9485 0.62157 0.656 0.0
C1056 C 0.95871 0.63302 0.62312 0.0
C1057 C 0.97887 0.62394 0.60472 0.0
C1058 C 0.94788 0.58761 0.7045 0.0
C1059 C 0.94878 0.65538 0.6074 0.0
C1060 C 0.87158 0.62485 0.6879 0.0
C1061 C 0.88681 0.65535 0.70439 0.0
C1062 C 0.89121 0.61286 0.67351 0.0
C1063 C 0.92719 0.63167 0.67551 0.0
C1064 C 0.94275 0.66192 0.69307 0.0
C1065 C 0.92242 0.67343 0.70725 0.0
C1066 C 0.87345 0.58058 0.655 0.0
C1067 C 0.98103 0.6827 0.69592 0.0
H1068 H 0.98655 0.5759 0.66092 0.0
H1069 H 0.98708 0.6334 0.57976 0.0
H1070 H 0.95953 0.60881 0.72166 0.0
H1071 H 0.91976 0.57489 0.7084 0.0
H1072 H 0.95603 0.57012 0.71094 0.0
H1073 H 0.95853 0.66188 0.58146 0.0
H1074 H 0.92056 0.64308 0.60792 0.0
H1075 H 0.95894 0.67866 0.62154 0.0
H1076 H 0.84411 0.6104 0.68565 0.0
H1077 H 0.9345 0.69684 0.72011 0.0
H1078 H 0.88191 0.56391 0.66339 0.0
H1079 H 0.88043 0.58554 0.62836 0.0
H1080 H 0.8452 0.56744 0.65818 0.0
H1081 H 0.9908 0.66724 0.70472 0.0
H1082 H 0.98896 0.7038 0.71296 0.0
H1083 H 0.99331 0.69275 0.67131 0.0
C1084 C 0.44836 0.22596 0.72007 0.0
C1085 C 0.4135 0.20775 0.72965 0.0
C1086 C 0.46329 0.25727 0.7046 0.0
C1087 C 0.44305 0.27104 0.69885 0.0
C1088 C 0.40861 0.25403 0.71096 0.0
C1089 C 0.3942 0.22254 0.72596 0.0
C1090 C 0.50003 0.27434 0.69211 0.0
C1091 C 0.38623 0.26804 0.70604 0.0
C1092 C 0.48278 0.36006 0.66615 0.0
C1093 C 0.47511 0.35443 0.63277 0.0
C1094 C 0.47321 0.33332 0.68805 0.0
C1095 C 0.45611 0.30035 0.67611 0.0
C1096 C 0.45 0.29492 0.64207 0.0
C1097 C 0.45922 0.32188 0.62102 0.0
C1098 C 0.47984 0.34023 0.72415 0.0
C1099 C 0.43254 0.26041 0.62796 0.0
H1100 H 0.46361 0.21487 0.72275 0.0
H1101 H 0.36733 0.20886 0.7334 0.0
H1102 H 0.50086 0.27247 0.6649 0.0
H1103 H 0.51393 0.3011 0.69819 0.0
H1104 H 0.51363 0.26305 0.70253 0.0
H1105 H 0.36181 0.25437 0.72079 0.0
H1106 H 0.39976 0.29461 0.71285 0.0
H1107 H 0.38023 0.26647 0.67966 0.0
H1108 H 0.49456 0.38511 0.67546 0.0
H1109 H 0.45325 0.31739 0.59523 0.0
H1110 H 0.49148 0.32677 0.73389 0.0
H1111 H 0.45523 0.33112 0.73805 0.0
H1112 H 0.49689 0.36714 0.72894 0.0
H1113 H 0.44597 0.24772 0.63493 0.0
H1114 H 0.43171 0.26062 0.6007 0.0
H1115 H 0.40596 0.24549 0.63828 0.0
C1116 C 0.30646 1.01824 0.81891 0.0
C1117 C 0.32047 1.01782 0.78779 0.0
C1118 C 0.28725 0.98883 0.83792 0.0
C1119 C 0.28178 0.95839 0.82537 0.0
C1120 C 0.29553 0.95791 0.7938 0.0
C1121 C 0.3146 0.98747 0.77554 0.0
C1122 C 0.27309 0.99034 0.87151 0.0
C1123 C 0.2901 0.92608 0.7792 0.0
C1124 C 0.25577 0.88211 0.8786 0.0
C1125 C 0.2208 0.86202 0.87266 0.0
C1126 C 0.27574 0.91425 0.86465 0.0
C1127 C 0.26043 0.92651 0.84415 0.0
C1128 C 0.22503 0.90666 0.83881 0.0
C1129 C 0.20575 0.87485 0.85308 0.0
C1130 C 0.31341 0.93471 0.87105 0.0
C1131 C 0.20764 0.91853 0.81698 0.0
H1132 H 0.31118 0.04159 0.82872 0.0
H1133 H 0.32518 0.98677 0.75148 0.0
H1134 H 0.24488 0.9737 0.87259 0.0
H1135 H 0.2832 0.9814 0.89046 0.0
H1136 H 0.27967 1.01586 0.87784 0.0
H1137 H 0.30292 0.93002 0.7545 0.0
H1138 H 0.30005 0.91484 0.79568 0.0
H1139 H 0.26238 0.90791 0.77692 0.0
H1140 H 0.26764 0.87264 0.89387 0.0
H1141 H 0.17875 0.85977 0.84837 0.0
H1142 H 0.32062 0.95994 0.8792 0.0
H1143 H 0.32839 0.93765 0.84793 0.0
H1144 H 0.32079 0.92315 0.89002 0.0
H1145 H 0.21322 0.94335 0.8248 0.0
H1146 H 0.17949 0.90123 0.81733 0.0
H1147 H 0.21771 0.92108 0.79124 0.0
C1148 C 0.11473 0.30945 0.78965 0.0
C1149 C 0.08041 0.29179 0.80089 0.0
C1150 C 0.14145 0.32001 0.81137 0.0
C1151 C 0.13392 0.31319 0.84551 0.0
C1152 C 0.09925 0.29419 0.85696 0.0
C1153 C 0.07287 0.28354 0.83447 0.0
C1154 C 0.17788 0.33976 0.79782 0.0
C1155 C 0.09003 0.2866 0.89312 0.0
C1156 C 0.21061 0.32751 0.89239 0.0
C1157 C 0.22562 0.36095 0.90133 0.0
C1158 C 0.17944 0.3108 0.8762 0.0
C1159 C 0.16266 0.32777 0.86886 0.0
C1160 C 0.17632 0.36066 0.88018 0.0
C1161 C 0.20763 0.37686 0.8961 0.0
C1162 C 0.16581 0.27573 0.86485 0.0
C1163 C 0.15916 0.37966 0.87339 0.0
H1164 H 0.12079 0.31587 0.76373 0.0
H1165 H 0.04645 0.27032 0.84343 0.0
H1166 H 0.19068 0.36538 0.80748 0.0
H1167 H 0.19235 0.32851 0.80595 0.0
H1168 H 0.17942 0.34116 0.77049 0.0
H1169 H 0.06243 0.26796 0.89761 0.0
H1170 H 0.1052 0.27731 0.90407 0.0
H1171 H 0.0962 0.30972 0.90613 0.0
H1172 H 0.22415 0.31487 0.89629 0.0
H1173 H 0.2188 0.4026 0.903 0.0
H1174 H 0.16972 0.27575 0.83775 0.0
H1175 H 0.13796 0.25997 0.87056 0.0
H1176 H 0.17882 0.26438 0.87642 0.0
H1177 H 0.16339 0.38708 0.84702 0.0
H1178 H 0.16938 0.40242 0.88846 0.0
H1179 H 0.13119 0.36391 0.87836 0.0
C1180 C 0.84511 0.78774 0.82434 0.0
C1181 C 0.83383 0.77425 0.79314 0.0
C1182 C 0.83318 0.80643 0.8405 0.0
C1183 C 0.80954 0.81209 0.82509 0.0
C1184 C 0.7988 0.79931 0.79321 0.0
C1185 C 0.81093 0.78051 0.77774 0.0
C1186 C 0.84531 0.81952 0.87444 0.0
C1187 C 0.77402 0.80505 0.77562 0.0
C1188 C 0.75427 0.83519 0.87771 0.0
C1189 C 0.77225 0.86983 0.8738 0.0
C1190 C 0.76614 0.81608 0.8622 0.0
C1191 C 0.79653 0.83188 0.842 0.0
C1192 C 0.81454 0.86676 0.83776 0.0
C1193 C 0.80233 0.88521 0.85373 0.0
C1194 C 0.74626 0.77896 0.86758 0.0
C1195 C 0.84679 0.8847 0.81626 0.0
H1196 H 0.86246 0.78279 0.83667 0.0
H1197 H 0.80187 0.77012 0.75373 0.0
H1198 H 0.85748 0.84688 0.87461 0.0
H1199 H 0.82318 0.80902 0.8923 0.0
H1200 H 0.86394 0.81328 0.88298 0.0
H1201 H 0.76874 0.79411 0.75065 0.0
H1202 H 0.74953 0.79401 0.79017 0.0
H1203 H 0.78432 0.83204 0.7733 0.0
H1204 H 0.73111 0.82301 0.89316 0.0
H1205 H 0.81645 0.9119 0.85027 0.0
H1206 H 0.76282 0.77124 0.87844 0.0
H1207 H 0.73802 0.7662 0.84366 0.0
H1208 H 0.72331 0.77041 0.88412 0.0
H1209 H 0.86633 0.88017 0.82564 0.0
H1210 H 0.85769 0.9119 0.81526 0.0
H1211 H 0.84148 0.87497 0.79085 0.0
C1212 C 0.59729 0.55623 0.55406 0.0
C1213 C 0.56249 0.53893 0.56371 0.0
C1214 C 0.6134 0.58827 0.53999 0.0
C1215 C 0.5943 0.60351 0.53529 0.0
C1216 C 0.55989 0.58721 0.54729 0.0
C1217 C 0.54442 0.55519 0.5613 0.0
C1218 C 0.65019 0.60463 0.52782 0.0
C1219 C 0.53861 0.60254 0.54316 0.0
C1220 C 0.64376 0.69395 0.50493 0.0
C1221 C 0.64144 0.68976 0.47072 0.0
C1222 C 0.62776 0.66623 0.52655 0.0
C1223 C 0.60872 0.63371 0.5136 0.0
C1224 C 0.60493 0.6297 0.47916 0.0
C1225 C 0.62146 0.65765 0.45826 0.0
C1226 C 0.6327 0.67159 0.56303 0.0
C1227 C 0.58479 0.59569 0.4641 0.0
H1228 H 0.61161 0.54407 0.55587 0.0
H1229 H 0.51758 0.54223 0.56881 0.0
H1230 H 0.65111 0.60185 0.50073 0.0
H1231 H 0.6645 0.63156 0.53308 0.0
H1232 H 0.66333 0.59328 0.53913 0.0
H1233 H 0.51432 0.58942 0.55816 0.0
H1234 H 0.55305 0.62906 0.55016 0.0
H1235 H 0.53237 0.60142 0.51691 0.0
H1236 H 0.65975 0.71865 0.51465 0.0
H1237 H 0.61977 0.65429 0.43182 0.0
H1238 H 0.64739 0.66075 0.57165 0.0
H1239 H 0.60759 0.65867 0.57663 0.0
H1240 H 0.64657 0.69832 0.56941 0.0
H1241 H 0.59739 0.58165 0.46873 0.0
H1242 H 0.58258 0.59692 0.43711 0.0
H1243 H 0.5587 0.58149 0.47568 0.0
C1244 C 0.53524 0.98605 0.57206 0.0
C1245 C 0.55034 1.01954 0.58084 0.0
C1246 C 0.50498 0.96979 0.55442 0.0
C1247 C 0.48914 0.98726 0.54548 0.0
C1248 C 0.50273 1.02018 0.55665 0.0
C1249 C 0.53317 0.03594 0.57399 0.0
C1250 C 0.49146 0.9347 0.5432 0.0
C1251 C 0.4865 0.03967 0.54824 0.0
C1252 C 0.44528 0.96996 0.46385 0.0
C1253 C 0.41051 0.9525 0.47356 0.0
C1254 C 0.47083 0.98009 0.48688 0.0
C1255 C 0.46163 0.97311 0.52079 0.0
C1256 C 0.42649 0.95437 0.53071 0.0
C1257 C 0.40132 0.94409 0.50694 0.0
C1258 C 0.50782 0.99949 0.47493 0.0
C1259 C 0.4155 0.94668 0.56656 0.0
H1260 H 0.54819 0.97306 0.57713 0.0
H1261 H 0.54442 0.06174 0.58072 0.0
H1262 H 0.46336 0.91924 0.54751 0.0
H1263 H 0.49682 0.93484 0.51634 0.0
H1264 H 0.50343 0.92294 0.55598 0.0
H1265 H 0.49648 0.06256 0.56307 0.0
H1266 H 0.49185 0.04693 0.52182 0.0
H1267 H 0.45836 0.0243 0.55224 0.0
H1268 H 0.45261 0.97652 0.4381 0.0
H1269 H 0.37454 0.93103 0.51471 0.0
H1270 H 0.52156 0.98795 0.4843 0.0
H1271 H 0.52042 0.02512 0.48457 0.0
H1272 H 0.51068 1.00092 0.44764 0.0
H1273 H 0.42963 0.9368 0.57858 0.0
H1274 H 0.38765 0.92847 0.56996 0.0
H1275 H 0.42162 0.96987 0.57938 0.0
C1276 C 0.15437 0.4535 0.44974 0.0
C1277 C 0.17246 0.44183 0.46602 0.0
C1278 C 0.14031 0.46988 0.46687 0.0
C1279 C 0.14376 0.47428 0.50137 0.0
C1280 C 0.16265 0.46321 0.51783 0.0
C1281 C 0.17697 0.44741 0.49997 0.0
C1282 C 0.12096 0.48174 0.4481 0.0
C1283 C 0.16657 0.46682 0.55458 0.0
C1284 C 0.12769 0.53912 0.54001 0.0
C1285 C 0.09304 0.51993 0.55019 0.0
C1286 C 0.14469 0.52457 0.52485 0.0
C1287 C 0.12692 0.4898 0.52012 0.0
C1288 C 0.09242 0.47008 0.53186 0.0
C1289 C 0.07584 0.48537 0.54639 0.0
C1290 C 0.18131 0.54666 0.51256 0.0
C1291 C 0.07264 0.43286 0.5281 0.0
H1292 H 0.15057 0.44921 0.42359 0.0
H1293 H 0.1904 0.43806 0.51296 0.0
H1294 H 0.09374 0.46799 0.45673 0.0
H1295 H 0.13137 0.50845 0.45281 0.0
H1296 H 0.12222 0.47821 0.42114 0.0
H1297 H 0.18371 0.45884 0.56346 0.0
H1298 H 0.17688 0.49297 0.56176 0.0
H1299 H 0.14116 0.45158 0.56731 0.0
H1300 H 0.14126 0.56584 0.54252 0.0
H1301 H 0.04911 0.47026 0.55411 0.0
H1302 H 0.18278 0.54551 0.48532 0.0
H1303 H 0.1974 0.53787 0.52231 0.0
H1304 H 0.19219 0.57295 0.51972 0.0
H1305 H 0.06887 0.42657 0.50163 0.0
H1306 H 0.0472 0.42076 0.54114 0.0
H1307 H 0.08721 0.42231 0.53778 0.0
C1308 C 0.44549 0.48562 0.96193 0.0
C1309 C 0.41141 0.46524 0.9732 0.0
C1310 C 0.47222 0.50061 0.98392 0.0
C1311 C 0.46491 0.49469 0.01819 0.0
C1312 C 0.43037 0.47518 0.02987 0.0
C1313 C 0.40396 0.46087 0.00721 0.0
C1314 C 0.50851 0.52137 0.97023 0.0
C1315 C 0.42149 0.46773 0.0661 0.0
C1316 C 0.53993 0.50203 0.06239 0.0
C1317 C 0.55675 0.535 0.07316 0.0
C1318 C 0.50878 0.48783 0.04642 0.0
C1319 C 0.49383 0.50696 0.04108 0.0
C1320 C 0.50933 0.53936 0.05412 0.0
C1321 C 0.54059 0.55301 0.06992 0.0
C1322 C 0.49348 0.45327 0.03287 0.0
C1323 C 0.49422 0.56054 0.04932 0.0
H1324 H 0.45137 0.4889 0.93566 0.0
H1325 H 0.37773 0.44457 0.01601 0.0
H1326 H 0.52203 0.54576 0.98257 0.0
H1327 H 0.5225 0.50872 0.97512 0.0
H1328 H 0.50972 0.52567 0.94327 0.0
H1329 H 0.43063 0.45165 0.07467 0.0
H1330 H 0.43453 0.49096 0.08044 0.0
H1331 H 0.39353 0.45488 0.07153 0.0
H1332 H 0.55206 0.4878 0.06468 0.0
H1333 H 0.55322 0.57846 0.07819 0.0
H1334 H 0.50072 0.45499 0.00629 0.0
H1335 H 0.4652 0.43929 0.03522 0.0
H1336 H 0.50288 0.43905 0.04547 0.0
H1337 H 0.49787 0.56846 0.02313 0.0
H1338 H 0.50637 0.58307 0.06481 0.0
H1339 H 0.46634 0.54615 0.05523 0.0
C1340 C 0.62956 0.90978 0.99079 0.0
C1341 C 0.64934 0.923 0.96154 0.0
C1342 C 0.61094 0.92318 0.00487 0.0
C1343 C 0.61193 0.95035 0.98927 0.0
C1344 C 0.63113 0.96316 0.95929 0.0
C1345 C 0.64956 0.94943 0.94588 0.0
C1346 C 0.59078 0.90872 0.03683 0.0
C1347 C 0.63266 0.9918 0.94156 0.0
C1348 C 0.53994 0.96614 0.00802 0.0
C1349 C 0.5548 0.99289 0.02992 0.0
C1350 C 0.55816 0.95213 0.99483 0.0
C1351 C 0.59225 0.96491 0.00374 0.0
C1352 C 0.60757 0.99197 0.02577 0.0
C1353 C 0.58874 1.00573 0.03848 0.0
C1354 C 0.54084 0.9236 0.97124 0.0
C1355 C 0.64384 1.00627 0.03601 0.0
H1356 H 0.62953 0.88968 0.00332 0.0
H1357 H 0.66482 0.95996 0.92333 0.0
H1358 H 0.60052 0.92808 0.05602 0.0
H1359 H 0.56356 0.90027 0.03371 0.0
H1360 H 0.59226 0.88743 0.04571 0.0
H1361 H 0.64835 0.99861 0.91823 0.0
H1362 H 0.60651 0.9854 0.93585 0.0
H1363 H 0.64362 1.01385 0.95765 0.0
H1364 H 0.51381 0.95599 0.00103 0.0
H1365 H 0.60045 0.02623 0.05546 0.0
H1366 H 0.54057 0.90167 0.98099 0.0
H1367 H 0.55534 0.93041 0.94726 0.0
H1368 H 0.51413 0.91639 0.96689 0.0
H1369 H 0.64644 0.98663 0.04758 0.0
H1370 H 0.65196 0.02693 0.05367 0.0
H1371 H 0.66153 1.0156 0.01404 0.0
C1372 C 0.1744 0.69659 0.00458 0.0
C1373 C 0.16804 0.69592 0.97096 0.0
C1374 C 0.16108 0.66706 0.02313 0.0
C1375 C 0.14126 0.63596 0.00769 0.0
C1376 C 0.13608 0.63515 0.97344 0.0
C1377 C 0.14926 0.66504 0.95561 0.0
C1378 C 0.16699 0.66918 0.05956 0.0
C1379 C 0.11566 0.60263 0.95578 0.0
C1380 C 0.12583 0.55613 0.04711 0.0
C1381 C 0.09163 0.54081 0.05865 0.0
C1382 C 0.14259 0.58742 0.03134 0.0
C1383 C 0.125 0.60423 0.02732 0.0
C1384 C 0.09109 0.58973 0.04051 0.0
C1385 C 0.07475 0.55814 0.05574 0.0
C1386 C 0.17861 0.60172 0.01754 0.0
C1387 C 0.07157 0.60703 0.03743 0.0
H1388 H 0.18848 0.72026 0.01683 0.0
H1389 H 0.1441 0.66419 0.92972 0.0
H1390 H 0.14228 0.65919 0.07353 0.0
H1391 H 0.17757 0.65379 0.06626 0.0
H1392 H 0.18474 0.69506 0.06749 0.0
H1393 H 0.11572 0.60614 0.9288 0.0
H1394 H 0.1261 0.58662 0.96026 0.0
H1395 H 0.08882 0.58918 0.96554 0.0
H1396 H 0.13914 0.54298 0.04897 0.0
H1397 H 0.04837 0.54661 0.06452 0.0
H1398 H 0.19537 0.62751 0.02611 0.0
H1399 H 0.17876 0.60273 0.99027 0.0
H1400 H 0.18963 0.5868 0.02468 0.0
H1401 H 0.08679 0.63279 0.04663 0.0
H1402 H 0.04657 0.59387 0.05128 0.0
H1403 H 0.06693 0.60863 0.01114 0.0
loop_
_geom_bond_atom_site_label_1
_geom_bond_atom_site_label_2
_geom_bond_distance
_geom_bond_site_symmetry_2
_ccdc_geom_bond_type
O0 Cd1 2.223 . S
O0 C8 1.315 . S
Cd1 O0 2.223 . S
Cd1 O4 2.297 . S
Cd1 O5 2.439 1_455 S
Cd1 O11 2.240 . S
Cd2 O3 2.240 . S
Cd2 O10 2.223 . S
Cd2 O12 2.297 1_455 S
Cd2 O13 2.439 1_455 S
O3 Cd2 2.240 . S
O3 C8 1.279 . S
O4 Cd1 2.297 . S
O4 C6 1.247 . S
O5 Cd1 2.439 1_655 S
O5 C6 1.208 1_655 S
C6 O4 1.247 . S
C6 O5 1.208 1_455 S
C7 O12 1.247 . S
C7 O13 1.208 . S
C8 O0 1.315 . S
C8 O3 1.279 . S
C9 O10 1.315 . S
C9 O11 1.279 . S
O10 Cd2 2.223 . S
O10 C9 1.315 . S
O11 Cd1 2.240 . S
O11 C9 1.279 . S
O12 Cd2 2.297 1_655 S
O12 C7 1.247 . S
O13 Cd2 2.439 1_655 S
O13 C7 1.208 . S
O14 Cd15 2.223 . S
O14 C22 1.315 . S
Cd15 O14 2.223 . S
Cd15 O18 2.297 . S
Cd15 O19 2.439 . S
Cd15 O25 2.240 . S
Cd16 O17 2.240 . S
Cd16 O24 2.223 . S
Cd16 O26 2.297 . S
Cd16 O27 2.439 . S
O17 Cd16 2.240 . S
O17 C22 1.279 . S
O18 Cd15 2.297 . S
O18 C20 1.247 . S
O19 Cd15 2.439 . S
O19 C20 1.208 . S
C20 O18 1.247 . S
C20 O19 1.208 . S
C21 O26 1.247 . S
C21 O27 1.208 . S
C22 O14 1.315 . S
C22 O17 1.279 . S
C23 O24 1.315 . S
C23 O25 1.279 . S
O24 Cd16 2.223 . S
O24 C23 1.315 . S
O25 Cd15 2.240 . S
O25 C23 1.279 . S
O26 Cd16 2.297 . S
O26 C21 1.247 . S
O27 Cd16 2.439 . S
O27 C21 1.208 . S
O28 Cd29 2.223 . S
O28 C36 1.315 . S
Cd29 O28 2.223 . S
Cd29 O32 2.297 . S
Cd29 O33 2.439 1_545 S
Cd29 O39 2.240 . S
Cd30 O31 2.240 . S
Cd30 O38 2.223 . S
Cd30 O40 2.297 1_545 S
Cd30 O41 2.439 1_545 S
O31 Cd30 2.240 . S
O31 C36 1.279 . S
O32 Cd29 2.297 . S
O32 C34 1.247 . S
O33 Cd29 2.439 1_565 S
O33 C34 1.208 1_565 S
C34 O32 1.247 . S
C34 O33 1.208 1_545 S
C35 O40 1.247 . S
C35 O41 1.208 . S
C36 O28 1.315 . S
C36 O31 1.279 . S
C37 O38 1.315 . S
C37 O39 1.279 . S
O38 Cd30 2.223 . S
O38 C37 1.315 . S
O39 Cd29 2.240 . S
O39 C37 1.279 . S
O40 Cd30 2.297 1_565 S
O40 C35 1.247 . S
O41 Cd30 2.439 1_565 S
O41 C35 1.208 . S
O42 Cd43 2.223 . S
O42 C50 1.315 . S
Cd43 O42 2.223 . S
Cd43 O46 2.297 . S
Cd43 O47 2.439 1_455 S
Cd43 O53 2.240 . S
Cd44 O45 2.240 . S
Cd44 O52 2.223 . S
Cd44 O54 2.297 1_455 S
Cd44 O55 2.439 1_455 S
O45 Cd44 2.240 . S
O45 C50 1.279 . S
O46 Cd43 2.297 . S
O46 C48 1.247 . S
O47 Cd43 2.439 1_655 S
O47 C48 1.208 1_655 S
C48 O46 1.247 . S
C48 O47 1.208 1_455 S
C49 O54 1.247 . S
C49 O55 1.208 . S
C50 O42 1.315 . S
C50 O45 1.279 . S
C51 O52 1.315 . S
C51 O53 1.279 . S
O52 Cd44 2.223 . S
O52 C51 1.315 . S
O53 Cd43 2.240 . S
O53 C51 1.279 . S
O54 Cd44 2.297 1_655 S
O54 C49 1.247 . S
O55 Cd44 2.439 1_655 S
O55 C49 1.208 . S
O56 Cd57 2.223 . S
O56 C64 1.315 . S
Cd57 O56 2.223 . S
Cd57 O60 2.297 . S
Cd57 O61 2.439 . S
Cd57 O67 2.240 . S
Cd58 O59 2.240 . S
Cd58 O66 2.223 . S
Cd58 O68 2.297 . S
Cd58 O69 2.439 . S
O59 Cd58 2.240 . S
O59 C64 1.279 . S
O60 Cd57 2.297 . S
O60 C62 1.247 . S
O61 Cd57 2.439 . S
O61 C62 1.208 . S
C62 O60 1.247 . S
C62 O61 1.208 . S
C63 O68 1.247 . S
C63 O69 1.208 . S
C64 O56 1.315 . S
C64 O59 1.279 . S
C65 O66 1.315 . S
C65 O67 1.279 . S
O66 Cd58 2.223 . S
O66 C65 1.315 . S
O67 Cd57 2.240 . S
O67 C65 1.279 . S
O68 Cd58 2.297 . S
O68 C63 1.247 . S
O69 Cd58 2.439 . S
O69 C63 1.208 . S
O70 Cd71 2.223 . S
O70 C78 1.315 . S
Cd71 O70 2.223 . S
Cd71 O74 2.297 1_565 S
Cd71 O75 2.439 1_565 S
Cd71 O81 2.240 1_565 S
Cd72 O73 2.240 1_545 S
Cd72 O80 2.223 1_545 S
Cd72 O82 2.297 . S
Cd72 O83 2.439 . S
O73 Cd72 2.240 1_565 S
O73 C78 1.279 . S
O74 Cd71 2.297 1_545 S
O74 C76 1.247 . S
O75 Cd71 2.439 1_545 S
O75 C76 1.208 . S
C76 O74 1.247 . S
C76 O75 1.208 . S
C77 O82 1.247 . S
C77 O83 1.208 . S
C78 O70 1.315 . S
C78 O73 1.279 . S
C79 O80 1.315 . S
C79 O81 1.279 1_565 S
O80 Cd72 2.223 1_565 S
O80 C79 1.315 . S
O81 Cd71 2.240 1_545 S
O81 C79 1.279 1_545 S
O82 Cd72 2.297 . S
O82 C77 1.247 . S
O83 Cd72 2.439 . S
O83 C77 1.208 . S
O84 Cd85 2.223 . S
O84 C92 1.315 . S
Cd85 O84 2.223 . S
Cd85 O88 2.297 . S
Cd85 O89 2.439 . S
Cd85 O95 2.240 . S
Cd86 O87 2.240 . S
Cd86 O94 2.223 . S
Cd86 O96 2.297 . S
Cd86 O97 2.439 . S
O87 Cd86 2.240 . S
O87 C92 1.279 . S
O88 Cd85 2.297 . S
O88 C90 1.247 . S
O89 Cd85 2.439 . S
O89 C90 1.208 . S
C90 O88 1.247 . S
C90 O89 1.208 . S
C91 O96 1.247 . S
C91 O97 1.208 . S
C92 O84 1.315 . S
C92 O87 1.279 . S
C93 O94 1.315 . S
C93 O95 1.279 . S
O94 Cd86 2.223 . S
O94 C93 1.315 . S
O95 Cd85 2.240 . S
O95 C93 1.279 . S
O96 Cd86 2.297 . S
O96 C91 1.247 . S
O97 Cd86 2.439 . S
O97 C91 1.208 . S
O98 Cd99 2.223 . S
O98 C106 1.315 . S
Cd99 O98 2.223 . S
Cd99 O102 2.297 . S
Cd99 O103 2.439 . S
Cd99 O109 2.240 . S
Cd100 O101 2.240 . S
Cd100 O108 2.223 . S
Cd100 O110 2.297 . S
Cd100 O111 2.439 . S
O101 Cd100 2.240 . S
O101 C106 1.279 . S
O102 Cd99 2.297 . S
O102 C104 1.247 . S
O103 Cd99 2.439 . S
O103 C104 1.208 . S
C104 O102 1.247 . S
C104 O103 1.208 . S
C105 O110 1.247 . S
C105 O111 1.208 . S
C106 O98 1.315 . S
C106 O101 1.279 . S
C107 O108 1.315 . S
C107 O109 1.279 . S
O108 Cd100 2.223 . S
O108 C107 1.315 . S
O109 Cd99 2.240 . S
O109 C107 1.279 . S
O110 Cd100 2.297 . S
O110 C105 1.247 . S
O111 Cd100 2.439 . S
O111 C105 1.208 . S
O112 Cd113 2.223 . S
O112 C120 1.315 . S
Cd113 O112 2.223 . S
Cd113 O116 2.297 . S
Cd113 O117 2.439 . S
Cd113 O123 2.240 . S
Cd114 O115 2.240 . S
Cd114 O122 2.223 . S
Cd114 O124 2.297 . S
Cd114 O125 2.439 . S
O115 Cd114 2.240 . S
O115 C120 1.279 . S
O116 Cd113 2.297 . S
O116 C118 1.247 . S
O117 Cd113 2.439 . S
O117 C118 1.208 . S
C118 O116 1.247 . S
C118 O117 1.208 . S
C119 O124 1.247 . S
C119 O125 1.208 . S
C120 O112 1.315 . S
C120 O115 1.279 . S
C121 O122 1.315 . S
C121 O123 1.279 . S
O122 Cd114 2.223 . S
O122 C121 1.315 . S
O123 Cd113 2.240 . S
O123 C121 1.279 . S
O124 Cd114 2.297 . S
O124 C119 1.247 . S
O125 Cd114 2.439 . S
O125 C119 1.208 . S
O126 Cd127 2.223 . S
O126 C134 1.315 . S
Cd127 O126 2.223 . S
Cd127 O130 2.297 . S
Cd127 O131 2.439 . S
Cd127 O137 2.240 . S
Cd128 O129 2.240 . S
Cd128 O136 2.223 . S
Cd128 O138 2.297 . S
Cd128 O139 2.439 . S
O129 Cd128 2.240 . S
O129 C134 1.279 . S
O130 Cd127 2.297 . S
O130 C132 1.247 . S
O131 Cd127 2.439 . S
O131 C132 1.208 . S
C132 O130 1.247 . S
C132 O131 1.208 . S
C133 O138 1.247 . S
C133 O139 1.208 . S
C134 O126 1.315 . S
C134 O129 1.279 . S
C135 O136 1.315 . S
C135 O137 1.279 . S
O136 Cd128 2.223 . S
O136 C135 1.315 . S
O137 Cd127 2.240 . S
O137 C135 1.279 . S
O138 Cd128 2.297 . S
O138 C133 1.247 . S
O139 Cd128 2.439 . S
O139 C133 1.208 . S
O140 Cd141 2.223 . S
O140 C148 1.315 . S
Cd141 O140 2.223 . S
Cd141 O144 2.297 . S
Cd141 O145 2.439 . S
Cd141 O151 2.240 . S
Cd142 O143 2.240 . S
Cd142 O150 2.223 . S
Cd142 O152 2.297 . S
Cd142 O153 2.439 . S
O143 Cd142 2.240 . S
O143 C148 1.279 . S
O144 Cd141 2.297 . S
O144 C146 1.247 . S
O145 Cd141 2.439 . S
O145 C146 1.208 . S
C146 O144 1.247 . S
C146 O145 1.208 . S
C147 O152 1.247 . S
C147 O153 1.208 . S
C148 O140 1.315 . S
C148 O143 1.279 . S
C149 O150 1.315 . S
C149 O151 1.279 . S
O150 Cd142 2.223 . S
O150 C149 1.315 . S
O151 Cd141 2.240 . S
O151 C149 1.279 . S
O152 Cd142 2.297 . S
O152 C147 1.247 . S
O153 Cd142 2.439 . S
O153 C147 1.208 . S
O154 Cd155 2.223 . S
O154 C162 1.315 . S
Cd155 O154 2.223 . S
Cd155 O158 2.297 1_655 S
Cd155 O159 2.439 . S
Cd155 O165 2.240 . S
Cd156 O157 2.240 . S
Cd156 O164 2.223 . S
Cd156 O166 2.297 . S
Cd156 O167 2.439 . S
O157 Cd156 2.240 . S
O157 C162 1.279 . S
O158 Cd155 2.297 1_455 S
O158 C160 1.247 . S
O159 Cd155 2.439 . S
O159 C160 1.208 1_655 S
C160 O158 1.247 . S
C160 O159 1.208 1_455 S
C161 O166 1.247 . S
C161 O167 1.208 . S
C162 O154 1.315 . S
C162 O157 1.279 . S
C163 O164 1.315 . S
C163 O165 1.279 . S
O164 Cd156 2.223 . S
O164 C163 1.315 . S
O165 Cd155 2.240 . S
O165 C163 1.279 . S
O166 Cd156 2.297 . S
O166 C161 1.247 . S
O167 Cd156 2.439 . S
O167 C161 1.208 . S
O168 Cd169 2.223 . S
O168 C176 1.315 . S
Cd169 O168 2.223 . S
Cd169 O172 2.297 . S
Cd169 O173 2.439 . S
Cd169 O179 2.240 . S
Cd170 O171 2.240 . S
Cd170 O178 2.223 . S
Cd170 O180 2.297 . S
Cd170 O181 2.439 . S
O171 Cd170 2.240 . S
O171 C176 1.279 . S
O172 Cd169 2.297 . S
O172 C174 1.247 . S
O173 Cd169 2.439 . S
O173 C174 1.208 . S
C174 O172 1.247 . S
C174 O173 1.208 . S
C175 O180 1.247 . S
C175 O181 1.208 . S
C176 O168 1.315 . S
C176 O171 1.279 . S
C177 O178 1.315 . S
C177 O179 1.279 . S
O178 Cd170 2.223 . S
O178 C177 1.315 . S
O179 Cd169 2.240 . S
O179 C177 1.279 . S
O180 Cd170 2.297 . S
O180 C175 1.247 . S
O181 Cd170 2.439 . S
O181 C175 1.208 . S
O182 Cd183 2.223 . S
O182 C190 1.315 . S
Cd183 O182 2.223 . S
Cd183 O186 2.297 . S
Cd183 O187 2.439 . S
Cd183 O193 2.240 . S
Cd184 O185 2.240 . S
Cd184 O192 2.223 . S
Cd184 O194 2.297 . S
Cd184 O195 2.439 . S
O185 Cd184 2.240 . S
O185 C190 1.279 . S
O186 Cd183 2.297 . S
O186 C188 1.247 . S
O187 Cd183 2.439 . S
O187 C188 1.208 . S
C188 O186 1.247 . S
C188 O187 1.208 . S
C189 O194 1.247 . S
C189 O195 1.208 . S
C190 O182 1.315 . S
C190 O185 1.279 . S
C191 O192 1.315 . S
C191 O193 1.279 . S
O192 Cd184 2.223 . S
O192 C191 1.315 . S
O193 Cd183 2.240 . S
O193 C191 1.279 . S
O194 Cd184 2.297 . S
O194 C189 1.247 . S
O195 Cd184 2.439 . S
O195 C189 1.208 . S
O196 Cd197 2.223 . S
O196 C204 1.315 . S
Cd197 O196 2.223 . S
Cd197 O200 2.297 . S
Cd197 O201 2.439 . S
Cd197 O207 2.240 . S
Cd198 O199 2.240 . S
Cd198 O206 2.223 . S
Cd198 O208 2.297 . S
Cd198 O209 2.439 . S
O199 Cd198 2.240 . S
O199 C204 1.279 . S
O200 Cd197 2.297 . S
O200 C202 1.247 . S
O201 Cd197 2.439 . S
O201 C202 1.208 . S
C202 O200 1.247 . S
C202 O201 1.208 . S
C203 O208 1.247 . S
C203 O209 1.208 . S
C204 O196 1.315 . S
C204 O199 1.279 . S
C205 O206 1.315 . S
C205 O207 1.279 . S
O206 Cd198 2.223 . S
O206 C205 1.315 . S
O207 Cd197 2.240 . S
O207 C205 1.279 . S
O208 Cd198 2.297 . S
O208 C203 1.247 . S
O209 Cd198 2.439 . S
O209 C203 1.208 . S
O210 Cd211 2.223 . S
O210 C218 1.315 . S
Cd211 O210 2.223 . S
Cd211 O214 2.297 . S
Cd211 O215 2.439 . S
Cd211 O221 2.240 . S
Cd212 O213 2.240 . S
Cd212 O220 2.223 . S
Cd212 O222 2.297 . S
Cd212 O223 2.439 . S
O213 Cd212 2.240 . S
O213 C218 1.279 . S
O214 Cd211 2.297 . S
O214 C216 1.247 . S
O215 Cd211 2.439 . S
O215 C216 1.208 . S
C216 O214 1.247 . S
C216 O215 1.208 . S
C217 O222 1.247 . S
C217 O223 1.208 . S
C218 O210 1.315 . S
C218 O213 1.279 . S
C219 O220 1.315 . S
C219 O221 1.279 . S
O220 Cd212 2.223 . S
O220 C219 1.315 . S
O221 Cd211 2.240 . S
O221 C219 1.279 . S
O222 Cd212 2.297 . S
O222 C217 1.247 . S
O223 Cd212 2.439 . S
O223 C217 1.208 . S
O224 Cd225 2.223 . S
O224 C232 1.315 . S
Cd225 O224 2.223 . S
Cd225 O228 2.297 . S
Cd225 O229 2.439 . S
Cd225 O235 2.240 . S
Cd226 O227 2.240 . S
Cd226 O234 2.223 . S
Cd226 O236 2.297 . S
Cd226 O237 2.439 . S
O227 Cd226 2.240 . S
O227 C232 1.279 . S
O228 Cd225 2.297 . S
O228 C230 1.247 . S
O229 Cd225 2.439 . S
O229 C230 1.208 . S
C230 O228 1.247 . S
C230 O229 1.208 . S
C231 O236 1.247 . S
C231 O237 1.208 . S
C232 O224 1.315 . S
C232 O227 1.279 . S
C233 O234 1.315 . S
C233 O235 1.279 . S
O234 Cd226 2.223 . S
O234 C233 1.315 . S
O235 Cd225 2.240 . S
O235 C233 1.279 . S
O236 Cd226 2.297 . S
O236 C231 1.247 . S
O237 Cd226 2.439 . S
O237 C231 1.208 . S
O238 Cd239 2.223 . S
O238 C246 1.315 . S
Cd239 O238 2.223 . S
Cd239 O242 2.297 . S
Cd239 O243 2.439 . S
Cd239 O249 2.240 . S
Cd240 O241 2.240 . S
Cd240 O248 2.223 . S
Cd240 O250 2.297 . S
Cd240 O251 2.439 . S
O241 Cd240 2.240 . S
O241 C246 1.279 . S
O242 Cd239 2.297 . S
O242 C244 1.247 . S
O243 Cd239 2.439 . S
O243 C244 1.208 . S
C244 O242 1.247 . S
C244 O243 1.208 . S
C245 O250 1.247 . S
C245 O251 1.208 . S
C246 O238 1.315 . S
C246 O241 1.279 . S
C247 O248 1.315 . S
C247 O249 1.279 . S
O248 Cd240 2.223 . S
O248 C247 1.315 . S
O249 Cd239 2.240 . S
O249 C247 1.279 . S
O250 Cd240 2.297 . S
O250 C245 1.247 . S
O251 Cd240 2.439 . S
O251 C245 1.208 . S
C252 C253 1.391 . S
C252 C254 1.394 . S
C252 H268 0.931 . S
C253 C252 1.391 . S
C253 C257 1.376 . S
C254 C252 1.394 . S
C254 C255 1.369 . S
C254 C258 1.531 . S
C255 C254 1.369 . S
C255 C256 1.410 . S
C255 C263 1.503 . S
C256 C255 1.410 . S
C256 C257 1.392 . S
C256 C259 1.511 . S
C257 C253 1.376 . S
C257 C256 1.392 . S
C257 H269 0.929 . S
C258 C254 1.531 . S
C258 H270 0.960 . S
C258 H271 0.962 . S
C258 H272 0.960 . S
C259 C256 1.511 . S
C259 H273 0.961 . S
C259 H274 0.961 . S
C259 H275 0.961 . S
C260 C261 1.370 . S
C260 C262 1.363 . S
C260 H276 0.931 . S
C261 C260 1.370 . S
C261 C265 1.408 . S
C262 C260 1.363 . S
C262 C263 1.370 . S
C262 C266 1.524 . S
C263 C255 1.503 . S
C263 C262 1.370 . S
C263 C264 1.403 . S
C264 C263 1.403 . S
C264 C265 1.404 . S
C264 C267 1.539 . S
C265 C261 1.408 . S
C265 C264 1.404 . S
C265 H277 0.930 1_554 S
C266 C262 1.524 . S
C266 H278 0.956 . S
C266 H279 0.961 . S
C266 H280 0.961 . S
C267 C264 1.539 . S
C267 H281 0.958 . S
C267 H282 0.961 . S
C267 H283 0.960 . S
H268 C252 0.931 . S
H269 C257 0.929 . S
H270 C258 0.960 . S
H271 C258 0.962 . S
H272 C258 0.960 . S
H273 C259 0.961 . S
H274 C259 0.961 . S
H275 C259 0.961 . S
H276 C260 0.931 . S
H277 C265 0.930 1_556 S
H278 C266 0.956 . S
H279 C266 0.961 . S
H280 C266 0.961 . S
H281 C267 0.958 . S
H282 C267 0.961 . S
H283 C267 0.960 . S
C284 C285 1.391 . S
C284 C286 1.394 . S
C284 H300 0.931 . S
C285 C284 1.391 . S
C285 C289 1.376 . S
C286 C284 1.394 . S
C286 C287 1.369 . S
C286 C290 1.531 . S
C287 C286 1.369 . S
C287 C288 1.410 . S
C287 C295 1.503 . S
C288 C287 1.410 . S
C288 C289 1.392 . S
C288 C291 1.511 . S
C289 C285 1.376 . S
C289 C288 1.392 . S
C289 H301 0.929 . S
C290 C286 1.531 . S
C290 H302 0.960 . S
C290 H303 0.962 . S
C290 H304 0.960 . S
C291 C288 1.511 . S
C291 H305 0.961 . S
C291 H306 0.961 . S
C291 H307 0.961 . S
C292 C293 1.370 . S
C292 C294 1.363 . S
C292 H308 0.931 . S
C293 C292 1.370 . S
C293 C297 1.408 . S
C294 C292 1.363 . S
C294 C295 1.370 . S
C294 C298 1.524 . S
C295 C287 1.503 . S
C295 C294 1.370 . S
C295 C296 1.403 . S
C296 C295 1.403 . S
C296 C297 1.404 . S
C296 C299 1.539 . S
C297 C293 1.408 . S
C297 C296 1.404 . S
C297 H309 0.930 . S
C298 C294 1.524 . S
C298 H310 0.956 . S
C298 H311 0.961 . S
C298 H312 0.961 . S
C299 C296 1.539 . S
C299 H313 0.958 . S
C299 H314 0.961 . S
C299 H315 0.960 . S
H300 C284 0.931 . S
H301 C289 0.929 . S
H302 C290 0.960 . S
H303 C290 0.962 . S
H304 C290 0.960 . S
H305 C291 0.961 . S
H306 C291 0.961 . S
H307 C291 0.961 . S
H308 C292 0.931 . S
H309 C297 0.930 . S
H310 C298 0.956 . S
H311 C298 0.961 . S
H312 C298 0.961 . S
H313 C299 0.958 . S
H314 C299 0.961 . S
H315 C299 0.960 . S
C316 C317 1.391 . S
C316 C318 1.394 . S
C316 H332 0.931 . S
C317 C316 1.391 . S
C317 C321 1.376 1_565 S
C318 C316 1.394 . S
C318 C319 1.369 . S
C318 C322 1.531 . S
C319 C318 1.369 . S
C319 C320 1.410 . S
C319 C327 1.503 . S
C320 C319 1.410 . S
C320 C321 1.392 1_565 S
C320 C323 1.511 1_565 S
C321 C317 1.376 1_545 S
C321 C320 1.392 1_545 S
C321 H333 0.929 . S
C322 C318 1.531 . S
C322 H334 0.960 . S
C322 H335 0.962 . S
C322 H336 0.960 . S
C323 C320 1.511 1_545 S
C323 H337 0.961 . S
C323 H338 0.961 . S
C323 H339 0.961 . S
C324 C325 1.370 . S
C324 C326 1.363 1_556 S
C324 H340 0.931 . S
C325 C324 1.370 . S
C325 C329 1.408 1_556 S
C326 C324 1.363 1_554 S
C326 C327 1.370 . S
C326 C330 1.524 1_565 S
C327 C319 1.503 . S
C327 C326 1.370 . S
C327 C328 1.403 . S
C328 C327 1.403 . S
C328 C329 1.404 . S
C328 C331 1.539 . S
C329 C325 1.408 1_554 S
C329 C328 1.404 . S
C329 H341 0.930 . S
C330 C326 1.524 1_545 S
C330 H342 0.956 1_545 S
C330 H343 0.961 . S
C330 H344 0.961 1_554 S
C331 C328 1.539 . S
C331 H345 0.958 . S
C331 H346 0.961 . S
C331 H347 0.960 . S
H332 C316 0.931 . S
H333 C321 0.929 . S
H334 C322 0.960 . S
H335 C322 0.962 . S
H336 C322 0.960 . S
H337 C323 0.961 . S
H338 C323 0.961 . S
H339 C323 0.961 . S
H340 C324 0.931 . S
H341 C329 0.930 . S
H342 C330 0.956 1_565 S
H343 C330 0.961 . S
H344 C330 0.961 1_556 S
H345 C331 0.958 . S
H346 C331 0.961 . S
H347 C331 0.960 . S
C348 C349 1.391 . S
C348 C350 1.394 . S
C348 H364 0.931 . S
C349 C348 1.391 . S
C349 C353 1.376 . S
C350 C348 1.394 . S
C350 C351 1.369 . S
C350 C354 1.531 . S
C351 C350 1.369 . S
C351 C352 1.410 . S
C351 C359 1.503 . S
C352 C351 1.410 . S
C352 C353 1.392 . S
C352 C355 1.511 . S
C353 C349 1.376 . S
C353 C352 1.392 . S
C353 H365 0.929 . S
C354 C350 1.531 . S
C354 H366 0.960 . S
C354 H367 0.962 . S
C354 H368 0.960 . S
C355 C352 1.511 . S
C355 H369 0.961 . S
C355 H370 0.961 . S
C355 H371 0.961 . S
C356 C357 1.370 . S
C356 C358 1.363 . S
C356 H372 0.931 . S
C357 C356 1.370 . S
C357 C361 1.408 . S
C358 C356 1.363 . S
C358 C359 1.370 . S
C358 C362 1.524 . S
C359 C351 1.503 . S
C359 C358 1.370 . S
C359 C360 1.403 . S
C360 C359 1.403 . S
C360 C361 1.404 . S
C360 C363 1.539 . S
C361 C357 1.408 . S
C361 C360 1.404 . S
C361 H373 0.930 . S
C362 C358 1.524 . S
C362 H374 0.956 . S
C362 H375 0.961 . S
C362 H376 0.961 . S
C363 C360 1.539 . S
C363 H377 0.958 1_545 S
C363 H378 0.961 1_545 S
C363 H379 0.960 . S
H364 C348 0.931 . S
H365 C353 0.929 . S
H366 C354 0.960 . S
H367 C354 0.962 . S
H368 C354 0.960 . S
H369 C355 0.961 . S
H370 C355 0.961 . S
H371 C355 0.961 . S
H372 C356 0.931 . S
H373 C361 0.930 . S
H374 C362 0.956 . S
H375 C362 0.961 . S
H376 C362 0.961 . S
H377 C363 0.958 1_565 S
H378 C363 0.961 1_565 S
H379 C363 0.960 . S
C380 C381 1.391 . S
C380 C382 1.394 . S
C380 H396 0.931 . S
C381 C380 1.391 . S
C381 C385 1.376 . S
C382 C380 1.394 . S
C382 C383 1.369 . S
C382 C386 1.531 . S
C383 C382 1.369 . S
C383 C384 1.410 . S
C383 C391 1.503 . S
C384 C383 1.410 . S
C384 C385 1.392 . S
C384 C387 1.511 . S
C385 C381 1.376 . S
C385 C384 1.392 . S
C385 H397 0.929 . S
C386 C382 1.531 . S
C386 H398 0.960 . S
C386 H399 0.962 . S
C386 H400 0.960 . S
C387 C384 1.511 . S
C387 H401 0.961 . S
C387 H402 0.961 . S
C387 H403 0.961 . S
C388 C389 1.370 1_455 S
C388 C390 1.363 . S
C388 H404 0.931 . S
C389 C388 1.370 1_655 S
C389 C393 1.408 . S
C390 C388 1.363 . S
C390 C391 1.370 1_455 S
C390 C394 1.524 . S
C391 C383 1.503 . S
C391 C390 1.370 1_655 S
C391 C392 1.403 . S
C392 C391 1.403 . S
C392 C393 1.404 . S
C392 C395 1.539 . S
C393 C389 1.408 . S
C393 C392 1.404 . S
C393 H405 0.930 . S
C394 C390 1.524 . S
C394 H406 0.956 . S
C394 H407 0.961 . S
C394 H408 0.961 . S
C395 C392 1.539 . S
C395 H409 0.958 . S
C395 H410 0.961 . S
C395 H411 0.960 . S
H396 C380 0.931 . S
H397 C385 0.929 . S
H398 C386 0.960 . S
H399 C386 0.962 . S
H400 C386 0.960 . S
H401 C387 0.961 . S
H402 C387 0.961 . S
H403 C387 0.961 . S
H404 C388 0.931 . S
H405 C393 0.930 . S
H406 C394 0.956 . S
H407 C394 0.961 . S
H408 C394 0.961 . S
H409 C395 0.958 . S
H410 C395 0.961 . S
H411 C395 0.960 . S
C412 C413 1.391 . S
C412 C414 1.394 . S
C412 H428 0.931 . S
C413 C412 1.391 . S
C413 C417 1.376 . S
C414 C412 1.394 . S
C414 C415 1.369 . S
C414 C418 1.531 . S
C415 C414 1.369 . S
C415 C416 1.410 . S
C415 C423 1.503 . S
C416 C415 1.410 . S
C416 C417 1.392 . S
C416 C419 1.511 . S
C417 C413 1.376 . S
C417 C416 1.392 . S
C417 H429 0.929 . S
C418 C414 1.531 . S
C418 H430 0.960 . S
C418 H431 0.962 . S
C418 H432 0.960 . S
C419 C416 1.511 . S
C419 H433 0.961 . S
C419 H434 0.961 . S
C419 H435 0.961 . S
C420 C421 1.370 . S
C420 C422 1.363 . S
C420 H436 0.931 . S
C421 C420 1.370 . S
C421 C425 1.408 . S
C422 C420 1.363 . S
C422 C423 1.370 . S
C422 C426 1.524 . S
C423 C415 1.503 . S
C423 C422 1.370 . S
C423 C424 1.403 . S
C424 C423 1.403 . S
C424 C425 1.404 . S
C424 C427 1.539 . S
C425 C421 1.408 . S
C425 C424 1.404 . S
C425 H437 0.930 . S
C426 C422 1.524 . S
C426 H438 0.956 . S
C426 H439 0.961 . S
C426 H440 0.961 . S
C427 C424 1.539 . S
C427 H441 0.958 . S
C427 H442 0.961 . S
C427 H443 0.960 . S
H428 C412 0.931 . S
H429 C417 0.929 . S
H430 C418 0.960 . S
H431 C418 0.962 . S
H432 C418 0.960 . S
H433 C419 0.961 . S
H434 C419 0.961 . S
H435 C419 0.961 . S
H436 C420 0.931 . S
H437 C425 0.930 . S
H438 C426 0.956 . S
H439 C426 0.961 . S
H440 C426 0.961 . S
H441 C427 0.958 . S
H442 C427 0.961 . S
H443 C427 0.960 . S
C444 C445 1.391 . S
C444 C446 1.394 . S
C444 H460 0.931 . S
C445 C444 1.391 . S
C445 C449 1.376 1_655 S
C446 C444 1.394 . S
C446 C447 1.369 . S
C446 C450 1.531 . S
C447 C446 1.369 . S
C447 C448 1.410 1_655 S
C447 C455 1.503 . S
C448 C447 1.410 1_455 S
C448 C449 1.392 . S
C448 C451 1.511 . S
C449 C445 1.376 1_455 S
C449 C448 1.392 . S
C449 H461 0.929 . S
C450 C446 1.531 . S
C450 H462 0.960 . S
C450 H463 0.962 . S
C450 H464 0.960 . S
C451 C448 1.511 . S
C451 H465 0.961 . S
C451 H466 0.961 . S
C451 H467 0.961 . S
C452 C453 1.370 1_556 S
C452 C454 1.363 . S
C452 H468 0.931 . S
C453 C452 1.370 1_554 S
C453 C457 1.410 1_655 S
C454 C452 1.363 . S
C454 C455 1.370 . S
C454 C458 1.524 . S
C455 C447 1.503 . S
C455 C454 1.370 . S
C455 C456 1.403 1_655 S
C456 C455 1.403 1_455 S
C456 C457 1.403 1_556 S
C456 C459 1.539 . S
C457 C453 1.410 1_455 S
C457 C456 1.403 1_554 S
C457 H469 0.929 . S
C458 C454 1.524 . S
C458 H470 0.956 . S
C458 H471 0.961 . S
C458 H472 0.961 . S
C459 C456 1.539 . S
C459 H473 0.958 . S
C459 H474 0.961 . S
C459 H475 0.960 . S
H460 C444 0.931 . S
H461 C449 0.929 . S
H462 C450 0.960 . S
H463 C450 0.962 . S
H464 C450 0.960 . S
H465 C451 0.961 . S
H466 C451 0.961 . S
H467 C451 0.961 . S
H468 C452 0.931 . S
H469 C457 0.929 . S
H470 C458 0.956 . S
H471 C458 0.961 . S
H472 C458 0.961 . S
H473 C459 0.958 . S
H474 C459 0.961 . S
H475 C459 0.960 . S
C476 C477 1.391 . S
C476 C478 1.394 . S
C476 H492 0.931 1_556 S
C477 C476 1.391 . S
C477 C481 1.376 . S
C478 C476 1.394 . S
C478 C479 1.369 . S
C478 C482 1.531 . S
C479 C478 1.369 . S
C479 C480 1.410 . S
C479 C487 1.503 . S
C480 C479 1.410 . S
C480 C481 1.392 . S
C480 C483 1.511 . S
C481 C477 1.376 . S
C481 C480 1.392 . S
C481 H493 0.929 . S
C482 C478 1.531 . S
C482 H494 0.960 . S
C482 H495 0.962 . S
C482 H496 0.960 . S
C483 C480 1.511 . S
C483 H497 0.961 . S
C483 H498 0.961 . S
C483 H499 0.961 . S
C484 C485 1.370 . S
C484 C486 1.363 . S
C484 H500 0.931 . S
C485 C484 1.370 . S
C485 C489 1.408 . S
C486 C484 1.363 . S
C486 C487 1.370 . S
C486 C490 1.524 . S
C487 C479 1.503 . S
C487 C486 1.370 . S
C487 C488 1.403 . S
C488 C487 1.403 . S
C488 C489 1.404 . S
C488 C491 1.539 . S
C489 C485 1.408 . S
C489 C488 1.404 . S
C489 H501 0.930 . S
C490 C486 1.524 . S
C490 H502 0.956 . S
C490 H503 0.961 . S
C490 H504 0.961 . S
C491 C488 1.539 . S
C491 H505 0.958 . S
C491 H506 0.961 . S
C491 H507 0.960 . S
H492 C476 0.931 1_554 S
H493 C481 0.929 . S
H494 C482 0.960 . S
H495 C482 0.962 . S
H496 C482 0.960 . S
H497 C483 0.961 . S
H498 C483 0.961 . S
H499 C483 0.961 . S
H500 C484 0.931 . S
H501 C489 0.930 . S
H502 C490 0.956 . S
H503 C490 0.961 . S
H504 C490 0.961 . S
H505 C491 0.958 . S
H506 C491 0.961 . S
H507 C491 0.960 . S
C508 C509 1.391 1_556 S
C508 C510 1.394 . S
C508 H524 0.932 . S
C509 C508 1.391 1_554 S
C509 C513 1.376 . S
C510 C508 1.394 . S
C510 C511 1.369 . S
C510 C514 1.531 . S
C511 C510 1.369 . S
C511 C512 1.410 . S
C511 C519 1.503 . S
C512 C511 1.410 . S
C512 C513 1.392 1_556 S
C512 C515 1.511 . S
C513 C509 1.376 . S
C513 C512 1.392 1_554 S
C513 H525 0.929 . S
C514 C510 1.531 . S
C514 H526 0.960 . S
C514 H527 0.962 . S
C514 H528 0.960 . S
C515 C512 1.511 . S
C515 H529 0.961 . S
C515 H530 0.961 . S
C515 H531 0.961 . S
C516 C517 1.370 . S
C516 C518 1.363 . S
C516 H532 0.931 . S
C517 C516 1.370 . S
C517 C521 1.408 . S
C518 C516 1.363 . S
C518 C519 1.370 . S
C518 C522 1.524 . S
C519 C511 1.503 . S
C519 C518 1.370 . S
C519 C520 1.403 . S
C520 C519 1.403 . S
C520 C521 1.404 . S
C520 C523 1.539 . S
C521 C517 1.408 . S
C521 C520 1.404 . S
C521 H533 0.930 . S
C522 C518 1.524 . S
C522 H534 0.956 . S
C522 H535 0.961 . S
C522 H536 0.961 . S
C523 C520 1.539 . S
C523 H537 0.958 1_545 S
C523 H538 0.961 . S
C523 H539 0.960 . S
H524 C508 0.932 . S
H525 C513 0.929 . S
H526 C514 0.960 . S
H527 C514 0.962 . S
H528 C514 0.960 . S
H529 C515 0.961 . S
H530 C515 0.961 . S
H531 C515 0.961 . S
H532 C516 0.931 . S
H533 C521 0.930 . S
H534 C522 0.956 . S
H535 C522 0.961 . S
H536 C522 0.961 . S
H537 C523 0.958 1_565 S
H538 C523 0.961 . S
H539 C523 0.960 . S
C540 C541 1.391 . S
C540 C542 1.394 . S
C540 H556 0.931 1_565 S
C541 C540 1.391 . S
C541 C545 1.376 . S
C542 C540 1.394 . S
C542 C543 1.369 . S
C542 C546 1.531 . S
C543 C542 1.369 . S
C543 C544 1.410 . S
C543 C551 1.503 . S
C544 C543 1.410 . S
C544 C545 1.392 . S
C544 C547 1.511 . S
C545 C541 1.376 . S
C545 C544 1.392 . S
C545 H557 0.929 . S
C546 C542 1.531 . S
C546 H558 0.960 . S
C546 H559 0.962 . S
C546 H560 0.960 1_565 S
C547 C544 1.511 . S
C547 H561 0.961 . S
C547 H562 0.961 . S
C547 H563 0.961 . S
C548 C549 1.370 . S
C548 C550 1.363 . S
C548 H564 0.931 . S
C549 C548 1.370 . S
C549 C553 1.408 . S
C550 C548 1.363 . S
C550 C551 1.370 . S
C550 C554 1.524 . S
C551 C543 1.503 . S
C551 C550 1.370 . S
C551 C552 1.403 . S
C552 C551 1.403 . S
C552 C553 1.404 . S
C552 C555 1.539 . S
C553 C549 1.408 . S
C553 C552 1.404 . S
C553 H565 0.930 . S
C554 C550 1.524 . S
C554 H566 0.956 . S
C554 H567 0.961 . S
C554 H568 0.961 . S
C555 C552 1.539 . S
C555 H569 0.958 1_565 S
C555 H570 0.961 . S
C555 H571 0.960 . S
H556 C540 0.931 1_545 S
H557 C545 0.929 . S
H558 C546 0.960 . S
H559 C546 0.962 . S
H560 C546 0.960 1_545 S
H561 C547 0.961 . S
H562 C547 0.961 . S
H563 C547 0.961 . S
H564 C548 0.931 . S
H565 C553 0.930 . S
H566 C554 0.956 . S
H567 C554 0.961 . S
H568 C554 0.961 . S
H569 C555 0.958 1_545 S
H570 C555 0.961 . S
H571 C555 0.960 . S
C572 C573 1.391 . S
C572 C574 1.394 . S
C572 H588 0.931 . S
C573 C572 1.391 . S
C573 C577 1.376 . S
C574 C572 1.394 . S
C574 C575 1.369 . S
C574 C578 1.531 . S
C575 C574 1.369 . S
C575 C576 1.410 . S
C575 C583 1.503 . S
C576 C575 1.410 . S
C576 C577 1.392 . S
C576 C579 1.511 . S
C577 C573 1.376 . S
C577 C576 1.392 . S
C577 H589 0.929 . S
C578 C574 1.531 . S
C578 H590 0.960 . S
C578 H591 0.962 . S
C578 H592 0.960 . S
C579 C576 1.511 . S
C579 H593 0.961 . S
C579 H594 0.961 . S
C579 H595 0.961 . S
C580 C581 1.370 . S
C580 C582 1.363 . S
C580 H596 0.931 . S
C581 C580 1.370 . S
C581 C585 1.408 . S
C582 C580 1.363 . S
C582 C583 1.370 . S
C582 C586 1.524 . S
C583 C575 1.503 . S
C583 C582 1.370 . S
C583 C584 1.403 . S
C584 C583 1.403 . S
C584 C585 1.404 . S
C584 C587 1.539 . S
C585 C581 1.408 . S
C585 C584 1.404 . S
C585 H597 0.930 . S
C586 C582 1.524 . S
C586 H598 0.956 . S
C586 H599 0.961 . S
C586 H600 0.961 . S
C587 C584 1.539 . S
C587 H601 0.958 . S
C587 H602 0.961 . S
C587 H603 0.960 . S
H588 C572 0.931 . S
H589 C577 0.929 . S
H590 C578 0.960 . S
H591 C578 0.962 . S
H592 C578 0.960 . S
H593 C579 0.961 . S
H594 C579 0.961 . S
H595 C579 0.961 . S
H596 C580 0.931 . S
H597 C585 0.930 . S
H598 C586 0.956 . S
H599 C586 0.961 . S
H600 C586 0.961 . S
H601 C587 0.958 . S
H602 C587 0.961 . S
H603 C587 0.960 . S
C604 C605 1.391 . S
C604 C606 1.394 . S
C604 H620 0.931 . S
C605 C604 1.391 . S
C605 C609 1.376 . S
C606 C604 1.394 . S
C606 C607 1.369 . S
C606 C610 1.531 . S
C607 C606 1.369 . S
C607 C608 1.410 . S
C607 C615 1.503 . S
C608 C607 1.410 . S
C608 C609 1.392 . S
C608 C611 1.511 . S
C609 C605 1.376 . S
C609 C608 1.392 . S
C609 H621 0.929 . S
C610 C606 1.531 . S
C610 H622 0.960 . S
C610 H623 0.962 . S
C610 H624 0.960 . S
C611 C608 1.511 . S
C611 H625 0.961 . S
C611 H626 0.961 . S
C611 H627 0.961 . S
C612 C613 1.370 . S
C612 C614 1.363 . S
C612 H628 0.931 . S
C613 C612 1.370 . S
C613 C617 1.408 . S
C614 C612 1.363 . S
C614 C615 1.370 . S
C614 C618 1.524 . S
C615 C607 1.503 . S
C615 C614 1.370 . S
C615 C616 1.403 . S
C616 C615 1.403 . S
C616 C617 1.404 . S
C616 C619 1.539 . S
C617 C613 1.408 . S
C617 C616 1.404 . S
C617 H629 0.930 . S
C618 C614 1.524 . S
C618 H630 0.956 . S
C618 H631 0.961 . S
C618 H632 0.961 . S
C619 C616 1.539 . S
C619 H633 0.958 . S
C619 H634 0.961 . S
C619 H635 0.960 . S
H620 C604 0.931 . S
H621 C609 0.929 . S
H622 C610 0.960 . S
H623 C610 0.962 . S
H624 C610 0.960 . S
H625 C611 0.961 . S
H626 C611 0.961 . S
H627 C611 0.961 . S
H628 C612 0.931 . S
H629 C617 0.930 . S
H630 C618 0.956 . S
H631 C618 0.961 . S
H632 C618 0.961 . S
H633 C619 0.958 . S
H634 C619 0.961 . S
H635 C619 0.960 . S
C636 C637 1.391 . S
C636 C638 1.394 . S
C636 H652 0.931 . S
C637 C636 1.391 . S
C637 C641 1.376 . S
C638 C636 1.394 . S
C638 C639 1.369 . S
C638 C642 1.531 . S
C639 C638 1.369 . S
C639 C640 1.410 . S
C639 C647 1.503 . S
C640 C639 1.410 . S
C640 C641 1.392 . S
C640 C643 1.511 . S
C641 C637 1.376 . S
C641 C640 1.392 . S
C641 H653 0.929 . S
C642 C638 1.531 . S
C642 H654 0.960 . S
C642 H655 0.962 . S
C642 H656 0.960 . S
C643 C640 1.511 . S
C643 H657 0.961 . S
C643 H658 0.961 . S
C643 H659 0.961 . S
C644 C645 1.370 . S
C644 C646 1.363 . S
C644 H660 0.931 . S
C645 C644 1.370 . S
C645 C649 1.408 . S
C646 C644 1.363 . S
C646 C647 1.370 . S
C646 C650 1.524 . S
C647 C639 1.503 . S
C647 C646 1.370 . S
C647 C648 1.403 . S
C648 C647 1.403 . S
C648 C649 1.404 . S
C648 C651 1.539 . S
C649 C645 1.408 . S
C649 C648 1.404 . S
C649 H661 0.930 . S
C650 C646 1.524 . S
C650 H662 0.956 . S
C650 H663 0.961 . S
C650 H664 0.961 . S
C651 C648 1.539 . S
C651 H665 0.958 . S
C651 H666 0.961 . S
C651 H667 0.960 . S
H652 C636 0.931 . S
H653 C641 0.929 . S
H654 C642 0.960 . S
H655 C642 0.962 . S
H656 C642 0.960 . S
H657 C643 0.961 . S
H658 C643 0.961 . S
H659 C643 0.961 . S
H660 C644 0.931 . S
H661 C649 0.930 . S
H662 C650 0.956 . S
H663 C650 0.961 . S
H664 C650 0.961 . S
H665 C651 0.958 . S
H666 C651 0.961 . S
H667 C651 0.960 . S
C668 C669 1.391 . S
C668 C670 1.394 . S
C668 H684 0.931 . S
C669 C668 1.391 . S
C669 C673 1.376 . S
C670 C668 1.394 . S
C670 C671 1.369 . S
C670 C674 1.531 1_545 S
C671 C670 1.369 . S
C671 C672 1.410 . S
C671 C679 1.496 1_545 S
C672 C671 1.410 . S
C672 C673 1.392 . S
C672 C675 1.511 . S
C673 C669 1.376 . S
C673 C672 1.392 . S
C673 H685 0.929 . S
C674 C670 1.531 1_565 S
C674 H686 0.960 . S
C674 H687 0.962 . S
C674 H688 0.960 . S
C675 C672 1.511 . S
C675 H689 0.961 . S
C675 H690 0.961 . S
C675 H691 0.961 . S
C676 C677 1.370 1_545 S
C676 C678 1.363 . S
C676 H692 0.931 . S
C677 C676 1.370 1_565 S
C677 C681 1.408 . S
C678 C676 1.363 . S
C678 C679 1.353 1_545 S
C678 C682 1.524 . S
C679 C671 1.496 1_565 S
C679 C678 1.353 1_565 S
C679 C680 1.428 . S
C680 C679 1.428 . S
C680 C681 1.404 . S
C680 C683 1.539 . S
C681 C677 1.408 . S
C681 C680 1.404 . S
C681 H693 0.930 . S
C682 C678 1.524 . S
C682 H694 0.956 . S
C682 H695 0.961 . S
C682 H696 0.961 . S
C683 C680 1.539 . S
C683 H697 0.958 . S
C683 H698 0.961 . S
C683 H699 0.960 . S
H684 C668 0.931 . S
H685 C673 0.929 . S
H686 C674 0.960 . S
H687 C674 0.962 . S
H688 C674 0.960 . S
H689 C675 0.961 . S
H690 C675 0.961 . S
H691 C675 0.961 . S
H692 C676 0.931 . S
H693 C681 0.930 . S
H694 C682 0.956 . S
H695 C682 0.961 . S
H696 C682 0.961 . S
H697 C683 0.958 . S
H698 C683 0.961 . S
H699 C683 0.960 . S
C700 C701 1.391 . S
C700 C702 1.394 . S
C700 H716 0.931 . S
C701 C700 1.391 . S
C701 C705 1.376 . S
C702 C700 1.394 . S
C702 C703 1.369 . S
C702 C706 1.531 . S
C703 C702 1.369 . S
C703 C704 1.410 . S
C703 C711 1.503 . S
C704 C703 1.410 . S
C704 C705 1.392 . S
C704 C707 1.511 . S
C705 C701 1.376 . S
C705 C704 1.392 . S
C705 H717 0.929 . S
C706 C702 1.531 . S
C706 H718 0.960 . S
C706 H719 0.962 . S
C706 H720 0.960 . S
C707 C704 1.511 . S
C707 H721 0.961 . S
C707 H722 0.961 . S
C707 H723 0.961 . S
C708 C709 1.365 1_655 S
C708 C710 1.363 1_655 S
C708 H724 0.931 . S
C709 C708 1.365 1_455 S
C709 C713 1.422 . S
C710 C708 1.363 1_455 S
C710 C711 1.370 . S
C710 C714 1.524 1_455 S
C711 C703 1.503 . S
C711 C710 1.370 . S
C711 C712 1.403 . S
C712 C711 1.403 . S
C712 C713 1.404 . S
C712 C715 1.539 . S
C713 C709 1.422 . S
C713 C712 1.404 . S
C713 H725 0.930 . S
C714 C710 1.524 1_655 S
C714 H726 0.961 1_655 S
C714 H727 0.961 . S
C714 H728 0.961 . S
C715 C712 1.539 . S
C715 H729 0.958 . S
C715 H730 0.961 . S
C715 H731 0.960 . S
H716 C700 0.931 . S
H717 C705 0.929 . S
H718 C706 0.960 . S
H719 C706 0.962 . S
H720 C706 0.960 . S
H721 C707 0.961 . S
H722 C707 0.961 . S
H723 C707 0.961 . S
H724 C708 0.931 . S
H725 C713 0.930 . S
H726 C714 0.961 1_455 S
H727 C714 0.961 . S
H728 C714 0.961 . S
H729 C715 0.958 . S
H730 C715 0.961 . S
H731 C715 0.960 . S
C732 C733 1.391 . S
C732 C734 1.394 . S
C732 H748 0.931 . S
C733 C732 1.391 . S
C733 C737 1.376 . S
C734 C732 1.394 . S
C734 C735 1.369 . S
C734 C738 1.531 . S
C735 C734 1.369 . S
C735 C736 1.410 . S
C735 C743 1.503 . S
C736 C735 1.410 . S
C736 C737 1.392 . S
C736 C739 1.511 . S
C737 C733 1.376 . S
C737 C736 1.392 . S
C737 H749 0.929 . S
C738 C734 1.531 . S
C738 H750 0.960 . S
C738 H751 0.962 . S
C738 H752 0.960 . S
C739 C736 1.511 . S
C739 H753 0.961 . S
C739 H754 0.961 . S
C739 H755 0.961 . S
C740 C741 1.370 . S
C740 C742 1.363 . S
C740 H756 0.931 . S
C741 C740 1.370 . S
C741 C745 1.408 . S
C742 C740 1.363 . S
C742 C743 1.370 . S
C742 C746 1.524 . S
C743 C735 1.503 . S
C743 C742 1.370 . S
C743 C744 1.403 . S
C744 C743 1.403 . S
C744 C745 1.404 . S
C744 C747 1.539 . S
C745 C741 1.408 . S
C745 C744 1.404 . S
C745 H757 0.930 . S
C746 C742 1.524 . S
C746 H758 0.956 . S
C746 H759 0.961 . S
C746 H760 0.961 . S
C747 C744 1.539 . S
C747 H761 0.958 . S
C747 H762 0.961 . S
C747 H763 0.960 . S
H748 C732 0.931 . S
H749 C737 0.929 . S
H750 C738 0.960 . S
H751 C738 0.962 . S
H752 C738 0.960 . S
H753 C739 0.961 . S
H754 C739 0.961 . S
H755 C739 0.961 . S
H756 C740 0.931 . S
H757 C745 0.930 . S
H758 C746 0.956 . S
H759 C746 0.961 . S
H760 C746 0.961 . S
H761 C747 0.958 . S
H762 C747 0.961 . S
H763 C747 0.960 . S
C764 C765 1.391 . S
C764 C766 1.394 . S
C764 H780 0.931 . S
C765 C764 1.391 . S
C765 C769 1.376 . S
C766 C764 1.394 . S
C766 C767 1.369 . S
C766 C770 1.531 . S
C767 C766 1.369 . S
C767 C768 1.410 . S
C767 C775 1.503 1_545 S
C768 C767 1.410 . S
C768 C769 1.392 . S
C768 C771 1.511 . S
C769 C765 1.376 . S
C769 C768 1.392 . S
C769 H781 0.929 . S
C770 C766 1.531 . S
C770 H782 0.960 . S
C770 H783 0.962 . S
C770 H784 0.960 . S
C771 C768 1.511 . S
C771 H785 0.962 1_545 S
C771 H786 0.961 1_545 S
C771 H787 0.961 . S
C772 C773 1.370 . S
C772 C774 1.363 . S
C772 H788 0.931 . S
C773 C772 1.370 . S
C773 C777 1.408 . S
C774 C772 1.363 . S
C774 C775 1.370 . S
C774 C778 1.524 . S
C775 C767 1.503 1_565 S
C775 C774 1.370 . S
C775 C776 1.403 1_565 S
C776 C775 1.403 1_545 S
C776 C777 1.404 1_545 S
C776 C779 1.539 . S
C777 C773 1.408 . S
C777 C776 1.404 1_565 S
C777 H789 0.930 . S
C778 C774 1.524 . S
C778 H790 0.956 . S
C778 H791 0.961 . S
C778 H792 0.961 . S
C779 C776 1.539 . S
C779 H793 0.958 . S
C779 H794 0.961 . S
C779 H795 0.960 . S
H780 C764 0.931 . S
H781 C769 0.929 . S
H782 C770 0.960 . S
H783 C770 0.962 . S
H784 C770 0.960 . S
H785 C771 0.962 1_565 S
H786 C771 0.961 1_565 S
H787 C771 0.961 . S
H788 C772 0.931 . S
H789 C777 0.930 . S
H790 C778 0.956 . S
H791 C778 0.961 . S
H792 C778 0.961 . S
H793 C779 0.958 . S
H794 C779 0.961 . S
H795 C779 0.960 . S
C796 C797 1.391 . S
C796 C798 1.394 . S
C796 H812 0.931 . S
C797 C796 1.391 . S
C797 C801 1.376 . S
C798 C796 1.394 . S
C798 C799 1.369 . S
C798 C802 1.531 . S
C799 C798 1.369 . S
C799 C800 1.410 . S
C799 C807 1.503 . S
C800 C799 1.410 . S
C800 C801 1.392 . S
C800 C803 1.511 . S
C801 C797 1.376 . S
C801 C800 1.392 . S
C801 H813 0.929 . S
C802 C798 1.531 . S
C802 H814 0.960 . S
C802 H815 0.962 . S
C802 H816 0.960 . S
C803 C800 1.511 . S
C803 H817 0.961 . S
C803 H818 0.961 . S
C803 H819 0.961 . S
C804 C805 1.370 1_655 S
C804 C806 1.363 1_655 S
C804 H820 0.931 . S
C805 C804 1.370 1_455 S
C805 C809 1.408 . S
C806 C804 1.363 1_455 S
C806 C807 1.370 . S
C806 C810 1.524 1_455 S
C807 C799 1.503 . S
C807 C806 1.370 . S
C807 C808 1.403 . S
C808 C807 1.403 . S
C808 C809 1.404 . S
C808 C811 1.539 . S
C809 C805 1.408 . S
C809 C808 1.404 . S
C809 H821 0.930 . S
C810 C806 1.524 1_655 S
C810 H822 0.956 . S
C810 H823 0.961 . S
C810 H824 0.961 . S
C811 C808 1.539 . S
C811 H825 0.958 . S
C811 H826 0.961 . S
C811 H827 0.960 . S
H812 C796 0.931 . S
H813 C801 0.929 . S
H814 C802 0.960 . S
H815 C802 0.962 . S
H816 C802 0.960 . S
H817 C803 0.961 . S
H818 C803 0.961 . S
H819 C803 0.961 . S
H820 C804 0.931 . S
H821 C809 0.930 . S
H822 C810 0.956 . S
H823 C810 0.961 . S
H824 C810 0.961 . S
H825 C811 0.958 . S
H826 C811 0.961 . S
H827 C811 0.960 . S
C828 C829 1.391 . S
C828 C830 1.394 . S
C828 H844 0.931 . S
C829 C828 1.391 . S
C829 C833 1.376 . S
C830 C828 1.394 . S
C830 C831 1.369 . S
C830 C834 1.531 . S
C831 C830 1.369 . S
C831 C832 1.410 . S
C831 C839 1.503 . S
C832 C831 1.410 . S
C832 C833 1.392 . S
C832 C835 1.511 . S
C833 C829 1.376 . S
C833 C832 1.392 . S
C833 H845 0.929 . S
C834 C830 1.531 . S
C834 H846 0.960 . S
C834 H847 0.962 . S
C834 H848 0.960 . S
C835 C832 1.511 . S
C835 H849 0.961 . S
C835 H850 0.961 . S
C835 H851 0.961 . S
C836 C837 1.370 . S
C836 C838 1.363 . S
C836 H852 0.931 . S
C837 C836 1.370 . S
C837 C841 1.408 . S
C838 C836 1.363 . S
C838 C839 1.370 . S
C838 C842 1.524 . S
C839 C831 1.503 . S
C839 C838 1.370 . S
C839 C840 1.403 . S
C840 C839 1.403 . S
C840 C841 1.404 . S
C840 C843 1.539 . S
C841 C837 1.408 . S
C841 C840 1.404 . S
C841 H853 0.930 . S
C842 C838 1.524 . S
C842 H854 0.956 . S
C842 H855 0.961 . S
C842 H856 0.961 . S
C843 C840 1.539 . S
C843 H857 0.958 . S
C843 H858 0.961 . S
C843 H859 0.960 . S
H844 C828 0.931 . S
H845 C833 0.929 . S
H846 C834 0.960 . S
H847 C834 0.962 . S
H848 C834 0.960 . S
H849 C835 0.961 . S
H850 C835 0.961 . S
H851 C835 0.961 . S
H852 C836 0.931 . S
H853 C841 0.930 . S
H854 C842 0.956 . S
H855 C842 0.961 . S
H856 C842 0.961 . S
H857 C843 0.958 . S
H858 C843 0.961 . S
H859 C843 0.960 . S
C860 C861 1.391 . S
C860 C862 1.394 . S
C860 H876 0.931 . S
C861 C860 1.391 . S
C861 C865 1.376 . S
C862 C860 1.394 . S
C862 C863 1.369 . S
C862 C866 1.531 . S
C863 C862 1.369 . S
C863 C864 1.410 . S
C863 C871 1.503 . S
C864 C863 1.410 . S
C864 C865 1.392 . S
C864 C867 1.511 . S
C865 C861 1.376 . S
C865 C864 1.392 . S
C865 H877 0.929 . S
C866 C862 1.531 . S
C866 H878 0.960 . S
C866 H879 0.962 . S
C866 H880 0.960 . S
C867 C864 1.511 . S
C867 H881 0.961 . S
C867 H882 0.961 . S
C867 H883 0.961 . S
C868 C869 1.370 . S
C868 C870 1.363 . S
C868 H884 0.931 . S
C869 C868 1.370 . S
C869 C873 1.408 . S
C870 C868 1.363 . S
C870 C871 1.370 . S
C870 C874 1.524 . S
C871 C863 1.503 . S
C871 C870 1.370 . S
C871 C872 1.403 . S
C872 C871 1.403 . S
C872 C873 1.404 . S
C872 C875 1.539 . S
C873 C869 1.408 . S
C873 C872 1.404 . S
C873 H885 0.930 . S
C874 C870 1.524 . S
C874 H886 0.956 . S
C874 H887 0.961 . S
C874 H888 0.961 . S
C875 C872 1.539 . S
C875 H889 0.958 . S
C875 H890 0.961 . S
C875 H891 0.960 . S
H876 C860 0.931 . S
H877 C865 0.929 . S
H878 C866 0.960 . S
H879 C866 0.962 . S
H880 C866 0.960 . S
H881 C867 0.961 . S
H882 C867 0.961 . S
H883 C867 0.961 . S
H884 C868 0.931 . S
H885 C873 0.930 . S
H886 C874 0.956 . S
H887 C874 0.961 . S
H888 C874 0.961 . S
H889 C875 0.958 . S
H890 C875 0.961 . S
H891 C875 0.960 . S
C892 C893 1.391 . S
C892 C894 1.394 . S
C892 H908 0.931 . S
C893 C892 1.391 . S
C893 C897 1.376 . S
C894 C892 1.394 . S
C894 C895 1.369 . S
C894 C898 1.531 . S
C895 C894 1.369 . S
C895 C896 1.410 . S
C895 C903 1.503 . S
C896 C895 1.410 . S
C896 C897 1.392 . S
C896 C899 1.511 . S
C897 C893 1.376 . S
C897 C896 1.392 . S
C897 H909 0.929 . S
C898 C894 1.531 . S
C898 H910 0.960 . S
C898 H911 0.962 . S
C898 H912 0.960 . S
C899 C896 1.511 . S
C899 H913 0.961 . S
C899 H914 0.961 . S
C899 H915 0.961 . S
C900 C901 1.370 . S
C900 C902 1.363 . S
C900 H916 0.931 . S
C901 C900 1.370 . S
C901 C905 1.408 . S
C902 C900 1.363 . S
C902 C903 1.370 . S
C902 C906 1.524 . S
C903 C895 1.503 . S
C903 C902 1.370 . S
C903 C904 1.403 . S
C904 C903 1.403 . S
C904 C905 1.404 . S
C904 C907 1.539 . S
C905 C901 1.408 . S
C905 C904 1.404 . S
C905 H917 0.930 . S
C906 C902 1.524 . S
C906 H918 0.956 . S
C906 H919 0.961 . S
C906 H920 0.961 . S
C907 C904 1.539 . S
C907 H921 0.958 . S
C907 H922 0.961 . S
C907 H923 0.960 . S
H908 C892 0.931 . S
H909 C897 0.929 . S
H910 C898 0.960 . S
H911 C898 0.962 . S
H912 C898 0.960 . S
H913 C899 0.961 . S
H914 C899 0.961 . S
H915 C899 0.961 . S
H916 C900 0.931 . S
H917 C905 0.930 . S
H918 C906 0.956 . S
H919 C906 0.961 . S
H920 C906 0.961 . S
H921 C907 0.958 . S
H922 C907 0.961 . S
H923 C907 0.960 . S
C924 C925 1.391 . S
C924 C926 1.394 . S
C924 H940 0.931 . S
C925 C924 1.391 . S
C925 C929 1.376 . S
C926 C924 1.394 . S
C926 C927 1.369 . S
C926 C930 1.531 . S
C927 C926 1.369 . S
C927 C928 1.410 . S
C927 C935 1.503 . S
C928 C927 1.410 . S
C928 C929 1.392 . S
C928 C931 1.511 . S
C929 C925 1.376 . S
C929 C928 1.392 . S
C929 H941 0.929 . S
C930 C926 1.531 . S
C930 H942 0.960 . S
C930 H943 0.962 . S
C930 H944 0.960 . S
C931 C928 1.511 . S
C931 H945 0.961 . S
C931 H946 0.961 . S
C931 H947 0.961 . S
C932 C933 1.370 . S
C932 C934 1.363 . S
C932 H948 0.931 . S
C933 C932 1.370 . S
C933 C937 1.408 . S
C934 C932 1.363 . S
C934 C935 1.370 . S
C934 C938 1.524 . S
C935 C927 1.503 . S
C935 C934 1.370 . S
C935 C936 1.403 . S
C936 C935 1.403 . S
C936 C937 1.404 . S
C936 C939 1.539 . S
C937 C933 1.408 . S
C937 C936 1.404 . S
C937 H949 0.930 . S
C938 C934 1.524 . S
C938 H950 0.956 . S
C938 H951 0.961 . S
C938 H952 0.961 . S
C939 C936 1.539 . S
C939 H953 0.958 . S
C939 H954 0.961 . S
C939 H955 0.960 . S
H940 C924 0.931 . S
H941 C929 0.929 . S
H942 C930 0.960 . S
H943 C930 0.962 . S
H944 C930 0.960 . S
H945 C931 0.961 . S
H946 C931 0.961 . S
H947 C931 0.961 . S
H948 C932 0.931 . S
H949 C937 0.930 . S
H950 C938 0.956 . S
H951 C938 0.961 . S
H952 C938 0.961 . S
H953 C939 0.958 . S
H954 C939 0.961 . S
H955 C939 0.960 . S
C956 C957 1.391 . S
C956 C958 1.394 . S
C956 H972 0.931 . S
C957 C956 1.391 . S
C957 C961 1.376 . S
C958 C956 1.394 . S
C958 C959 1.369 . S
C958 C962 1.531 . S
C959 C958 1.369 . S
C959 C960 1.410 . S
C959 C967 1.503 . S
C960 C959 1.410 . S
C960 C961 1.392 . S
C960 C963 1.511 . S
C961 C957 1.376 . S
C961 C960 1.392 . S
C961 H973 0.929 . S
C962 C958 1.531 . S
C962 H974 0.960 . S
C962 H975 0.962 . S
C962 H976 0.960 . S
C963 C960 1.511 . S
C963 H977 0.961 . S
C963 H978 0.961 . S
C963 H979 0.961 . S
C964 C965 1.370 . S
C964 C966 1.363 . S
C964 H980 0.931 . S
C965 C964 1.370 . S
C965 C969 1.408 . S
C966 C964 1.363 . S
C966 C967 1.370 . S
C966 C970 1.524 . S
C967 C959 1.503 . S
C967 C966 1.370 . S
C967 C968 1.403 . S
C968 C967 1.403 . S
C968 C969 1.404 . S
C968 C971 1.539 . S
C969 C965 1.408 . S
C969 C968 1.404 . S
C969 H981 0.930 . S
C970 C966 1.524 . S
C970 H982 0.956 . S
C970 H983 0.961 . S
C970 H984 0.961 . S
C971 C968 1.539 . S
C971 H985 0.958 . S
C971 H986 0.961 . S
C971 H987 0.960 . S
H972 C956 0.931 . S
H973 C961 0.929 . S
H974 C962 0.960 . S
H975 C962 0.962 . S
H976 C962 0.960 . S
H977 C963 0.961 . S
H978 C963 0.961 . S
H979 C963 0.961 . S
H980 C964 0.931 . S
H981 C969 0.930 . S
H982 C970 0.956 . S
H983 C970 0.961 . S
H984 C970 0.961 . S
H985 C971 0.958 . S
H986 C971 0.961 . S
H987 C971 0.960 . S
C988 C989 1.391 . S
C988 C990 1.394 . S
C988 H1004 0.931 . S
C989 C988 1.391 . S
C989 C993 1.376 . S
C990 C988 1.394 . S
C990 C991 1.369 . S
C990 C994 1.531 . S
C991 C990 1.369 . S
C991 C992 1.410 . S
C991 C999 1.503 . S
C992 C991 1.410 . S
C992 C993 1.392 . S
C992 C995 1.511 . S
C993 C989 1.376 . S
C993 C992 1.392 . S
C993 H1005 0.929 . S
C994 C990 1.531 . S
C994 H1006 0.960 . S
C994 H1007 0.962 . S
C994 H1008 0.960 . S
C995 C992 1.511 . S
C995 H1009 0.961 . S
C995 H1010 0.961 . S
C995 H1011 0.961 . S
C996 C997 1.370 . S
C996 C998 1.363 . S
C996 H1012 0.931 . S
C997 C996 1.370 . S
C997 C1001 1.408 . S
C998 C996 1.363 . S
C998 C999 1.370 . S
C998 C1002 1.524 . S
C999 C991 1.503 . S
C999 C998 1.370 . S
C999 C1000 1.403 . S
C1000 C999 1.403 . S
C1000 C1001 1.404 . S
C1000 C1003 1.539 . S
C1001 C997 1.408 . S
C1001 C1000 1.404 . S
C1001 H1013 0.930 . S
C1002 C998 1.524 . S
C1002 H1014 0.956 . S
C1002 H1015 0.961 . S
C1002 H1016 0.961 . S
C1003 C1000 1.539 . S
C1003 H1017 0.958 . S
C1003 H1018 0.961 . S
C1003 H1019 0.960 . S
H1004 C988 0.931 . S
H1005 C993 0.929 . S
H1006 C994 0.960 . S
H1007 C994 0.962 . S
H1008 C994 0.960 . S
H1009 C995 0.961 . S
H1010 C995 0.961 . S
H1011 C995 0.961 . S
H1012 C996 0.931 . S
H1013 C1001 0.930 . S
H1014 C1002 0.956 . S
H1015 C1002 0.961 . S
H1016 C1002 0.961 . S
H1017 C1003 0.958 . S
H1018 C1003 0.961 . S
H1019 C1003 0.960 . S
C1020 C1021 1.391 . S
C1020 C1022 1.394 . S
C1020 H1036 0.931 . S
C1021 C1020 1.391 . S
C1021 C1025 1.376 . S
C1022 C1020 1.394 . S
C1022 C1023 1.369 . S
C1022 C1026 1.531 . S
C1023 C1022 1.369 . S
C1023 C1024 1.410 . S
C1023 C1031 1.503 . S
C1024 C1023 1.410 . S
C1024 C1025 1.392 . S
C1024 C1027 1.511 . S
C1025 C1021 1.376 . S
C1025 C1024 1.392 . S
C1025 H1037 0.929 . S
C1026 C1022 1.531 . S
C1026 H1038 0.960 . S
C1026 H1039 0.962 . S
C1026 H1040 0.960 . S
C1027 C1024 1.511 . S
C1027 H1041 0.961 . S
C1027 H1042 0.961 . S
C1027 H1043 0.961 . S
C1028 C1029 1.370 . S
C1028 C1030 1.363 . S
C1028 H1044 0.931 . S
C1029 C1028 1.370 . S
C1029 C1033 1.408 . S
C1030 C1028 1.363 . S
C1030 C1031 1.370 . S
C1030 C1034 1.524 . S
C1031 C1023 1.503 . S
C1031 C1030 1.370 . S
C1031 C1032 1.403 . S
C1032 C1031 1.403 . S
C1032 C1033 1.404 . S
C1032 C1035 1.539 . S
C1033 C1029 1.408 . S
C1033 C1032 1.404 . S
C1033 H1045 0.930 . S
C1034 C1030 1.524 . S
C1034 H1046 0.956 . S
C1034 H1047 0.961 . S
C1034 H1048 0.961 . S
C1035 C1032 1.539 . S
C1035 H1049 0.958 . S
C1035 H1050 0.961 . S
C1035 H1051 0.960 . S
H1036 C1020 0.931 . S
H1037 C1025 0.929 . S
H1038 C1026 0.960 . S
H1039 C1026 0.962 . S
H1040 C1026 0.960 . S
H1041 C1027 0.961 . S
H1042 C1027 0.961 . S
H1043 C1027 0.961 . S
H1044 C1028 0.931 . S
H1045 C1033 0.930 . S
H1046 C1034 0.956 . S
H1047 C1034 0.961 . S
H1048 C1034 0.961 . S
H1049 C1035 0.958 . S
H1050 C1035 0.961 . S
H1051 C1035 0.960 . S
C1052 C1053 1.391 . S
C1052 C1054 1.394 . S
C1052 H1068 0.931 . S
C1053 C1052 1.391 . S
C1053 C1057 1.376 . S
C1054 C1052 1.394 . S
C1054 C1055 1.369 . S
C1054 C1058 1.531 . S
C1055 C1054 1.369 . S
C1055 C1056 1.410 . S
C1055 C1063 1.503 . S
C1056 C1055 1.410 . S
C1056 C1057 1.392 . S
C1056 C1059 1.511 . S
C1057 C1053 1.376 . S
C1057 C1056 1.392 . S
C1057 H1069 0.929 . S
C1058 C1054 1.531 . S
C1058 H1070 0.960 . S
C1058 H1071 0.962 . S
C1058 H1072 0.960 . S
C1059 C1056 1.511 . S
C1059 H1073 0.961 . S
C1059 H1074 0.961 . S
C1059 H1075 0.961 . S
C1060 C1061 1.370 . S
C1060 C1062 1.363 . S
C1060 H1076 0.931 . S
C1061 C1060 1.370 . S
C1061 C1065 1.408 . S
C1062 C1060 1.363 . S
C1062 C1063 1.370 . S
C1062 C1066 1.524 . S
C1063 C1055 1.503 . S
C1063 C1062 1.370 . S
C1063 C1064 1.403 . S
C1064 C1063 1.403 . S
C1064 C1065 1.404 . S
C1064 C1067 1.539 . S
C1065 C1061 1.408 . S
C1065 C1064 1.404 . S
C1065 H1077 0.930 . S
C1066 C1062 1.524 . S
C1066 H1078 0.956 . S
C1066 H1079 0.961 . S
C1066 H1080 0.961 . S
C1067 C1064 1.539 . S
C1067 H1081 0.958 . S
C1067 H1082 0.961 . S
C1067 H1083 0.960 . S
H1068 C1052 0.931 . S
H1069 C1057 0.929 . S
H1070 C1058 0.960 . S
H1071 C1058 0.962 . S
H1072 C1058 0.960 . S
H1073 C1059 0.961 . S
H1074 C1059 0.961 . S
H1075 C1059 0.961 . S
H1076 C1060 0.931 . S
H1077 C1065 0.930 . S
H1078 C1066 0.956 . S
H1079 C1066 0.961 . S
H1080 C1066 0.961 . S
H1081 C1067 0.958 . S
H1082 C1067 0.961 . S
H1083 C1067 0.960 . S
C1084 C1085 1.391 . S
C1084 C1086 1.394 . S
C1084 H1100 0.931 . S
C1085 C1084 1.391 . S
C1085 C1089 1.376 . S
C1086 C1084 1.394 . S
C1086 C1087 1.369 . S
C1086 C1090 1.531 . S
C1087 C1086 1.369 . S
C1087 C1088 1.410 . S
C1087 C1095 1.503 . S
C1088 C1087 1.410 . S
C1088 C1089 1.392 . S
C1088 C1091 1.511 . S
C1089 C1085 1.376 . S
C1089 C1088 1.392 . S
C1089 H1101 0.929 . S
C1090 C1086 1.531 . S
C1090 H1102 0.960 . S
C1090 H1103 0.962 . S
C1090 H1104 0.960 . S
C1091 C1088 1.511 . S
C1091 H1105 0.961 . S
C1091 H1106 0.961 . S
C1091 H1107 0.961 . S
C1092 C1093 1.370 . S
C1092 C1094 1.363 . S
C1092 H1108 0.931 . S
C1093 C1092 1.370 . S
C1093 C1097 1.408 . S
C1094 C1092 1.363 . S
C1094 C1095 1.370 . S
C1094 C1098 1.524 . S
C1095 C1087 1.503 . S
C1095 C1094 1.370 . S
C1095 C1096 1.403 . S
C1096 C1095 1.403 . S
C1096 C1097 1.404 . S
C1096 C1099 1.539 . S
C1097 C1093 1.408 . S
C1097 C1096 1.404 . S
C1097 H1109 0.930 . S
C1098 C1094 1.524 . S
C1098 H1110 0.956 . S
C1098 H1111 0.961 . S
C1098 H1112 0.961 . S
C1099 C1096 1.539 . S
C1099 H1113 0.958 . S
C1099 H1114 0.961 . S
C1099 H1115 0.960 . S
H1100 C1084 0.931 . S
H1101 C1089 0.929 . S
H1102 C1090 0.960 . S
H1103 C1090 0.962 . S
H1104 C1090 0.960 . S
H1105 C1091 0.961 . S
H1106 C1091 0.961 . S
H1107 C1091 0.961 . S
H1108 C1092 0.931 . S
H1109 C1097 0.930 . S
H1110 C1098 0.956 . S
H1111 C1098 0.961 . S
H1112 C1098 0.961 . S
H1113 C1099 0.958 . S
H1114 C1099 0.961 . S
H1115 C1099 0.960 . S
C1116 C1117 1.391 . S
C1116 C1118 1.394 . S
C1116 H1132 0.931 . S
C1117 C1116 1.391 . S
C1117 C1121 1.376 . S
C1118 C1116 1.394 . S
C1118 C1119 1.369 . S
C1118 C1122 1.531 . S
C1119 C1118 1.369 . S
C1119 C1120 1.410 . S
C1119 C1127 1.503 . S
C1120 C1119 1.410 . S
C1120 C1121 1.392 . S
C1120 C1123 1.511 . S
C1121 C1117 1.376 . S
C1121 C1120 1.392 . S
C1121 H1133 0.929 . S
C1122 C1118 1.531 . S
C1122 H1134 0.960 . S
C1122 H1135 0.962 . S
C1122 H1136 0.960 . S
C1123 C1120 1.511 . S
C1123 H1137 0.961 . S
C1123 H1138 0.961 . S
C1123 H1139 0.961 . S
C1124 C1125 1.370 . S
C1124 C1126 1.363 . S
C1124 H1140 0.931 . S
C1125 C1124 1.370 . S
C1125 C1129 1.408 . S
C1126 C1124 1.363 . S
C1126 C1127 1.370 . S
C1126 C1130 1.524 . S
C1127 C1119 1.503 . S
C1127 C1126 1.370 . S
C1127 C1128 1.403 . S
C1128 C1127 1.403 . S
C1128 C1129 1.404 . S
C1128 C1131 1.539 . S
C1129 C1125 1.408 . S
C1129 C1128 1.404 . S
C1129 H1141 0.930 . S
C1130 C1126 1.524 . S
C1130 H1142 0.956 . S
C1130 H1143 0.961 . S
C1130 H1144 0.961 . S
C1131 C1128 1.539 . S
C1131 H1145 0.958 . S
C1131 H1146 0.961 . S
C1131 H1147 0.960 . S
H1132 C1116 0.931 . S
H1133 C1121 0.929 . S
H1134 C1122 0.960 . S
H1135 C1122 0.962 . S
H1136 C1122 0.960 . S
H1137 C1123 0.961 . S
H1138 C1123 0.961 . S
H1139 C1123 0.961 . S
H1140 C1124 0.931 . S
H1141 C1129 0.930 . S
H1142 C1130 0.956 . S
H1143 C1130 0.961 . S
H1144 C1130 0.961 . S
H1145 C1131 0.958 . S
H1146 C1131 0.961 . S
H1147 C1131 0.960 . S
C1148 C1149 1.391 . S
C1148 C1150 1.394 . S
C1148 H1164 0.931 . S
C1149 C1148 1.391 . S
C1149 C1153 1.376 . S
C1150 C1148 1.394 . S
C1150 C1151 1.369 . S
C1150 C1154 1.531 . S
C1151 C1150 1.369 . S
C1151 C1152 1.410 . S
C1151 C1159 1.503 . S
C1152 C1151 1.410 . S
C1152 C1153 1.392 . S
C1152 C1155 1.511 . S
C1153 C1149 1.376 . S
C1153 C1152 1.392 . S
C1153 H1165 0.929 . S
C1154 C1150 1.531 . S
C1154 H1166 0.960 . S
C1154 H1167 0.962 . S
C1154 H1168 0.960 . S
C1155 C1152 1.511 . S
C1155 H1169 0.961 . S
C1155 H1170 0.961 . S
C1155 H1171 0.961 . S
C1156 C1157 1.370 . S
C1156 C1158 1.363 . S
C1156 H1172 0.931 . S
C1157 C1156 1.370 . S
C1157 C1161 1.408 . S
C1158 C1156 1.363 . S
C1158 C1159 1.370 . S
C1158 C1162 1.524 . S
C1159 C1151 1.503 . S
C1159 C1158 1.370 . S
C1159 C1160 1.403 . S
C1160 C1159 1.403 . S
C1160 C1161 1.404 . S
C1160 C1163 1.539 . S
C1161 C1157 1.408 . S
C1161 C1160 1.404 . S
C1161 H1173 0.930 . S
C1162 C1158 1.524 . S
C1162 H1174 0.956 . S
C1162 H1175 0.961 . S
C1162 H1176 0.961 . S
C1163 C1160 1.539 . S
C1163 H1177 0.958 . S
C1163 H1178 0.961 . S
C1163 H1179 0.960 . S
H1164 C1148 0.931 . S
H1165 C1153 0.929 . S
H1166 C1154 0.960 . S
H1167 C1154 0.962 . S
H1168 C1154 0.960 . S
H1169 C1155 0.961 . S
H1170 C1155 0.961 . S
H1171 C1155 0.961 . S
H1172 C1156 0.931 . S
H1173 C1161 0.930 . S
H1174 C1162 0.956 . S
H1175 C1162 0.961 . S
H1176 C1162 0.961 . S
H1177 C1163 0.958 . S
H1178 C1163 0.961 . S
H1179 C1163 0.960 . S
C1180 C1181 1.391 . S
C1180 C1182 1.394 . S
C1180 H1196 0.931 . S
C1181 C1180 1.391 . S
C1181 C1185 1.376 . S
C1182 C1180 1.394 . S
C1182 C1183 1.369 . S
C1182 C1186 1.531 . S
C1183 C1182 1.369 . S
C1183 C1184 1.410 . S
C1183 C1191 1.503 . S
C1184 C1183 1.410 . S
C1184 C1185 1.392 . S
C1184 C1187 1.511 . S
C1185 C1181 1.376 . S
C1185 C1184 1.392 . S
C1185 H1197 0.929 . S
C1186 C1182 1.531 . S
C1186 H1198 0.960 . S
C1186 H1199 0.962 . S
C1186 H1200 0.960 . S
C1187 C1184 1.511 . S
C1187 H1201 0.961 . S
C1187 H1202 0.961 . S
C1187 H1203 0.961 . S
C1188 C1189 1.370 . S
C1188 C1190 1.363 . S
C1188 H1204 0.931 . S
C1189 C1188 1.370 . S
C1189 C1193 1.408 . S
C1190 C1188 1.363 . S
C1190 C1191 1.370 . S
C1190 C1194 1.524 . S
C1191 C1183 1.503 . S
C1191 C1190 1.370 . S
C1191 C1192 1.403 . S
C1192 C1191 1.403 . S
C1192 C1193 1.404 . S
C1192 C1195 1.539 . S
C1193 C1189 1.408 . S
C1193 C1192 1.404 . S
C1193 H1205 0.930 . S
C1194 C1190 1.524 . S
C1194 H1206 0.956 . S
C1194 H1207 0.961 . S
C1194 H1208 0.961 . S
C1195 C1192 1.539 . S
C1195 H1209 0.958 . S
C1195 H1210 0.961 . S
C1195 H1211 0.960 . S
H1196 C1180 0.931 . S
H1197 C1185 0.929 . S
H1198 C1186 0.960 . S
H1199 C1186 0.962 . S
H1200 C1186 0.960 . S
H1201 C1187 0.961 . S
H1202 C1187 0.961 . S
H1203 C1187 0.961 . S
H1204 C1188 0.931 . S
H1205 C1193 0.930 . S
H1206 C1194 0.956 . S
H1207 C1194 0.961 . S
H1208 C1194 0.961 . S
H1209 C1195 0.958 . S
H1210 C1195 0.961 . S
H1211 C1195 0.960 . S
C1212 C1213 1.391 . S
C1212 C1214 1.394 . S
C1212 H1228 0.931 . S
C1213 C1212 1.391 . S
C1213 C1217 1.376 . S
C1214 C1212 1.394 . S
C1214 C1215 1.369 . S
C1214 C1218 1.531 . S
C1215 C1214 1.369 . S
C1215 C1216 1.410 . S
C1215 C1223 1.503 . S
C1216 C1215 1.410 . S
C1216 C1217 1.392 . S
C1216 C1219 1.511 . S
C1217 C1213 1.376 . S
C1217 C1216 1.392 . S
C1217 H1229 0.929 . S
C1218 C1214 1.531 . S
C1218 H1230 0.960 . S
C1218 H1231 0.962 . S
C1218 H1232 0.960 . S
C1219 C1216 1.511 . S
C1219 H1233 0.961 . S
C1219 H1234 0.961 . S
C1219 H1235 0.961 . S
C1220 C1221 1.370 . S
C1220 C1222 1.363 . S
C1220 H1236 0.931 . S
C1221 C1220 1.370 . S
C1221 C1225 1.408 . S
C1222 C1220 1.363 . S
C1222 C1223 1.370 . S
C1222 C1226 1.524 . S
C1223 C1215 1.503 . S
C1223 C1222 1.370 . S
C1223 C1224 1.403 . S
C1224 C1223 1.403 . S
C1224 C1225 1.404 . S
C1224 C1227 1.539 . S
C1225 C1221 1.408 . S
C1225 C1224 1.404 . S
C1225 H1237 0.930 . S
C1226 C1222 1.524 . S
C1226 H1238 0.956 . S
C1226 H1239 0.961 . S
C1226 H1240 0.961 . S
C1227 C1224 1.539 . S
C1227 H1241 0.958 . S
C1227 H1242 0.961 . S
C1227 H1243 0.960 . S
H1228 C1212 0.931 . S
H1229 C1217 0.929 . S
H1230 C1218 0.960 . S
H1231 C1218 0.962 . S
H1232 C1218 0.960 . S
H1233 C1219 0.961 . S
H1234 C1219 0.961 . S
H1235 C1219 0.961 . S
H1236 C1220 0.931 . S
H1237 C1225 0.930 . S
H1238 C1226 0.956 . S
H1239 C1226 0.961 . S
H1240 C1226 0.961 . S
H1241 C1227 0.958 . S
H1242 C1227 0.961 . S
H1243 C1227 0.960 . S
C1244 C1245 1.391 . S
C1244 C1246 1.398 . S
C1244 H1260 0.931 . S
C1245 C1244 1.391 . S
C1245 C1249 1.376 . S
C1246 C1244 1.398 . S
C1246 C1247 1.377 . S
C1246 C1250 1.518 1_545 S
C1247 C1246 1.377 . S
C1247 C1248 1.410 . S
C1247 C1255 1.503 1_545 S
C1248 C1247 1.410 . S
C1248 C1249 1.392 . S
C1248 C1251 1.511 . S
C1249 C1245 1.376 . S
C1249 C1248 1.392 . S
C1249 H1261 0.929 . S
C1250 C1246 1.518 1_565 S
C1250 H1262 0.960 . S
C1250 H1263 0.962 . S
C1250 H1264 0.960 . S
C1251 C1248 1.511 . S
C1251 H1265 0.961 . S
C1251 H1266 0.961 . S
C1251 H1267 0.961 . S
C1252 C1253 1.370 . S
C1252 C1254 1.363 . S
C1252 H1268 0.931 . S
C1253 C1252 1.370 . S
C1253 C1257 1.408 . S
C1254 C1252 1.363 . S
C1254 C1255 1.370 . S
C1254 C1258 1.524 1_565 S
C1255 C1247 1.503 1_565 S
C1255 C1254 1.370 . S
C1255 C1256 1.403 . S
C1256 C1255 1.403 . S
C1256 C1257 1.404 . S
C1256 C1259 1.539 . S
C1257 C1253 1.408 . S
C1257 C1256 1.404 . S
C1257 H1269 0.930 . S
C1258 C1254 1.524 1_545 S
C1258 H1270 0.956 . S
C1258 H1271 0.961 . S
C1258 H1272 0.959 . S
C1259 C1256 1.539 . S
C1259 H1273 0.958 . S
C1259 H1274 0.961 . S
C1259 H1275 0.960 . S
H1260 C1244 0.931 . S
H1261 C1249 0.929 . S
H1262 C1250 0.960 . S
H1263 C1250 0.962 . S
H1264 C1250 0.960 . S
H1265 C1251 0.961 . S
H1266 C1251 0.961 . S
H1267 C1251 0.961 . S
H1268 C1252 0.931 . S
H1269 C1257 0.930 . S
H1270 C1258 0.956 . S
H1271 C1258 0.961 . S
H1272 C1258 0.959 . S
H1273 C1259 0.958 . S
H1274 C1259 0.961 . S
H1275 C1259 0.960 . S
C1276 C1277 1.391 . S
C1276 C1278 1.394 . S
C1276 H1292 0.931 . S
C1277 C1276 1.391 . S
C1277 C1281 1.376 . S
C1278 C1276 1.394 . S
C1278 C1279 1.369 . S
C1278 C1282 1.531 . S
C1279 C1278 1.369 . S
C1279 C1280 1.410 . S
C1279 C1287 1.503 . S
C1280 C1279 1.410 . S
C1280 C1281 1.392 . S
C1280 C1283 1.511 . S
C1281 C1277 1.376 . S
C1281 C1280 1.392 . S
C1281 H1293 0.929 . S
C1282 C1278 1.531 . S
C1282 H1294 0.960 1_455 S
C1282 H1295 0.962 . S
C1282 H1296 0.960 . S
C1283 C1280 1.511 . S
C1283 H1297 0.961 . S
C1283 H1298 0.961 . S
C1283 H1299 0.961 . S
C1284 C1285 1.370 1_455 S
C1284 C1286 1.363 . S
C1284 H1300 0.931 . S
C1285 C1284 1.370 1_655 S
C1285 C1289 1.408 . S
C1286 C1284 1.363 . S
C1286 C1287 1.370 . S
C1286 C1290 1.524 . S
C1287 C1279 1.503 . S
C1287 C1286 1.370 . S
C1287 C1288 1.403 1_455 S
C1288 C1287 1.403 1_655 S
C1288 C1289 1.404 . S
C1288 C1291 1.539 . S
C1289 C1285 1.408 . S
C1289 C1288 1.404 . S
C1289 H1301 0.930 . S
C1290 C1286 1.524 . S
C1290 H1302 0.956 . S
C1290 H1303 0.961 . S
C1290 H1304 0.961 . S
C1291 C1288 1.539 . S
C1291 H1305 0.958 . S
C1291 H1306 0.961 . S
C1291 H1307 0.960 1_655 S
H1292 C1276 0.931 . S
H1293 C1281 0.929 . S
H1294 C1282 0.960 1_655 S
H1295 C1282 0.962 . S
H1296 C1282 0.960 . S
H1297 C1283 0.961 . S
H1298 C1283 0.961 . S
H1299 C1283 0.961 . S
H1300 C1284 0.931 . S
H1301 C1289 0.930 . S
H1302 C1290 0.956 . S
H1303 C1290 0.961 . S
H1304 C1290 0.961 . S
H1305 C1291 0.958 . S
H1306 C1291 0.961 . S
H1307 C1291 0.960 1_455 S
C1308 C1309 1.391 . S
C1308 C1310 1.394 . S
C1308 H1324 0.931 . S
C1309 C1308 1.391 . S
C1309 C1313 1.376 . S
C1310 C1308 1.394 . S
C1310 C1311 1.369 . S
C1310 C1314 1.531 . S
C1311 C1310 1.369 . S
C1311 C1312 1.410 . S
C1311 C1319 1.503 . S
C1312 C1311 1.410 . S
C1312 C1313 1.392 . S
C1312 C1315 1.511 . S
C1313 C1309 1.376 . S
C1313 C1312 1.392 . S
C1313 H1325 0.929 . S
C1314 C1310 1.531 . S
C1314 H1326 0.960 . S
C1314 H1327 0.962 . S
C1314 H1328 0.960 . S
C1315 C1312 1.511 . S
C1315 H1329 0.961 . S
C1315 H1330 0.961 . S
C1315 H1331 0.961 1_556 S
C1316 C1317 1.370 1_556 S
C1316 C1318 1.363 . S
C1316 H1332 0.931 . S
C1317 C1316 1.370 1_554 S
C1317 C1321 1.408 . S
C1318 C1316 1.363 . S
C1318 C1319 1.370 . S
C1318 C1322 1.524 . S
C1319 C1311 1.503 . S
C1319 C1318 1.370 . S
C1319 C1320 1.403 1_556 S
C1320 C1319 1.403 1_554 S
C1320 C1321 1.404 . S
C1320 C1323 1.539 . S
C1321 C1317 1.408 . S
C1321 C1320 1.404 . S
C1321 H1333 0.930 . S
C1322 C1318 1.524 . S
C1322 H1334 0.956 . S
C1322 H1335 0.961 . S
C1322 H1336 0.961 . S
C1323 C1320 1.539 . S
C1323 H1337 0.958 . S
C1323 H1338 0.961 . S
C1323 H1339 0.960 . S
H1324 C1308 0.931 . S
H1325 C1313 0.929 . S
H1326 C1314 0.960 . S
H1327 C1314 0.962 . S
H1328 C1314 0.960 . S
H1329 C1315 0.961 . S
H1330 C1315 0.961 . S
H1331 C1315 0.961 1_554 S
H1332 C1316 0.931 . S
H1333 C1321 0.930 . S
H1334 C1322 0.956 . S
H1335 C1322 0.961 . S
H1336 C1322 0.961 . S
H1337 C1323 0.958 . S
H1338 C1323 0.961 . S
H1339 C1323 0.960 . S
C1340 C1341 1.391 . S
C1340 C1342 1.394 1_556 S
C1340 H1356 0.931 . S
C1341 C1340 1.391 . S
C1341 C1345 1.376 1_556 S
C1342 C1340 1.394 1_554 S
C1342 C1343 1.368 1_565 S
C1342 C1346 1.526 1_554 S
C1343 C1342 1.368 1_545 S
C1343 C1344 1.407 1_545 S
C1343 C1351 1.508 . S
C1344 C1343 1.407 1_565 S
C1344 C1345 1.392 . S
C1344 C1347 1.511 1_565 S
C1345 C1341 1.376 1_554 S
C1345 C1344 1.392 . S
C1345 H1357 0.929 . S
C1346 C1342 1.526 1_556 S
C1346 H1358 0.931 1_556 S
C1346 H1359 0.986 . S
C1346 H1360 0.972 . S
C1347 C1344 1.511 1_545 S
C1347 H1361 0.961 . S
C1347 H1362 0.961 . S
C1347 H1363 0.961 . S
C1348 C1349 1.370 . S
C1348 C1350 1.363 . S
C1348 H1364 0.931 . S
C1349 C1348 1.370 . S
C1349 C1353 1.408 . S
C1350 C1348 1.363 . S
C1350 C1351 1.370 . S
C1350 C1354 1.524 1_554 S
C1351 C1343 1.508 . S
C1351 C1350 1.370 . S
C1351 C1352 1.403 . S
C1352 C1351 1.403 . S
C1352 C1353 1.404 . S
C1352 C1355 1.539 1_545 S
C1353 C1349 1.408 . S
C1353 C1352 1.404 . S
C1353 H1365 0.930 . S
C1354 C1350 1.524 1_556 S
C1354 H1366 0.956 . S
C1354 H1367 0.961 . S
C1354 H1368 0.961 . S
C1355 C1352 1.539 1_565 S
C1355 H1369 0.958 . S
C1355 H1370 0.961 . S
C1355 H1371 0.960 . S
H1356 C1340 0.931 . S
H1357 C1345 0.929 . S
H1358 C1346 0.931 1_554 S
H1359 C1346 0.986 . S
H1360 C1346 0.972 . S
H1361 C1347 0.961 . S
H1362 C1347 0.961 . S
H1363 C1347 0.961 . S
H1364 C1348 0.931 . S
H1365 C1353 0.930 . S
H1366 C1354 0.956 . S
H1367 C1354 0.961 . S
H1368 C1354 0.961 . S
H1369 C1355 0.958 . S
H1370 C1355 0.961 . S
H1371 C1355 0.960 . S
C1372 C1373 1.404 . S
C1372 C1374 1.385 1_556 S
C1372 H1388 0.927 1_556 S
C1373 C1372 1.404 . S
C1373 C1377 1.376 . S
C1374 C1372 1.385 1_554 S
C1374 C1375 1.369 . S
C1374 C1378 1.531 . S
C1375 C1374 1.369 . S
C1375 C1376 1.410 1_554 S
C1375 C1383 1.503 . S
C1376 C1375 1.410 1_556 S
C1376 C1377 1.392 . S
C1376 C1379 1.511 . S
C1377 C1373 1.376 . S
C1377 C1376 1.392 . S
C1377 H1389 0.929 . S
C1378 C1374 1.531 . S
C1378 H1390 0.960 . S
C1378 H1391 0.962 . S
C1378 H1392 0.960 . S
C1379 C1376 1.511 . S
C1379 H1393 0.961 . S
C1379 H1394 0.961 . S
C1379 H1395 0.961 1_556 S
C1380 C1381 1.370 1_455 S
C1380 C1382 1.372 . S
C1380 H1396 0.933 1_454 S
C1381 C1380 1.370 1_655 S
C1381 C1385 1.408 . S
C1382 C1380 1.372 . S
C1382 C1383 1.389 . S
C1382 C1386 1.497 1_554 S
C1383 C1375 1.503 . S
C1383 C1382 1.389 . S
C1383 C1384 1.403 . S
C1384 C1383 1.403 . S
C1384 C1385 1.404 1_455 S
C1384 C1387 1.539 . S
C1385 C1381 1.408 . S
C1385 C1384 1.404 1_655 S
C1385 H1397 0.930 . S
C1386 C1382 1.497 1_556 S
C1386 H1398 0.956 . S
C1386 H1399 0.961 . S
C1386 H1400 0.961 . S
C1387 C1384 1.539 . S
C1387 H1401 0.958 . S
C1387 H1402 0.961 . S
C1387 H1403 0.960 . S
H1388 C1372 0.927 1_554 S
H1389 C1377 0.929 . S
H1390 C1378 0.960 . S
H1391 C1378 0.962 . S
H1392 C1378 0.960 . S
H1393 C1379 0.961 . S
H1394 C1379 0.961 . S
H1395 C1379 0.961 1_554 S
H1396 C1380 0.933 1_656 S
H1397 C1385 0.930 . S
H1398 C1386 0.956 . S
H1399 C1386 0.961 . S
H1400 C1386 0.961 . S
H1401 C1387 0.958 . S
H1402 C1387 0.961 . S
H1403 C1387 0.960 . S
C253 C9 1.446 . S
C261 C205 1.474 1_554 S
C285 C174 1.226 1_554 S
C293 C20 1.236 . S
C317 C34 1.049 1_565 S
C325 C191 1.080 . S
C349 C93 1.596 . S
C357 C37 1.607 . S
C381 C107 1.498 . S
C389 C6 1.515 1_655 S
C413 C121 1.438 . S
C421 C23 1.461 . S
C445 C48 1.392 1_655 S
C453 C163 1.428 . S
C477 C135 1.552 1_556 S
C485 C65 1.540 . S
C509 C146 1.098 . S
C517 C76 1.136 . S
C541 C79 1.472 . S
C549 C216 1.448 . S
C573 C51 1.201 . S
C581 C233 1.240 . S
C605 C244 1.034 . S
C613 C62 1.022 . S
C637 C177 1.155 . S
C645 C118 1.166 . S
C669 C90 1.099 . S
C677 C188 1.121 . S
C701 C202 0.774 . S
C709 C104 0.715 1_455 S
C733 C247 1.157 . S
C741 C132 1.178 . S
C765 C149 1.285 . S
C773 C219 1.318 . S
C797 C230 0.967 . S
C805 C160 0.947 . S
C829 C217 1.925 . S
C837 C8 1.619 . S
C861 C21 1.757 . S
C869 C232 1.523 . S
C893 C35 1.591 . S
C901 C245 1.631 . S
C925 C36 1.549 . S
C933 C162 1.578 . S
C957 C134 1.675 . S
C965 C7 1.878 . S
C989 C22 1.621 . S
C997 C147 1.799 . S
C1021 C92 1.611 . S
C1029 C49 1.798 . S
C1053 C106 1.604 . S
C1061 C64 1.656 . S
C1085 C77 1.796 . S
C1093 C120 1.615 . S
C1117 C78 1.643 . S
C1125 C204 1.688 . S
C1149 C50 1.436 . S
C1157 C175 1.694 . S
C1181 C63 1.903 . S
C1189 C190 1.720 . S
C1213 C119 1.710 . S
C1221 C246 1.563 . S
C1245 C91 1.831 . S
C1253 C218 1.594 . S
C1277 C231 1.731 . S
C1285 C105 1.761 . S
C1309 C176 1.586 . S
C1317 C133 1.776 . S
C1341 C189 1.793 . S
C1349 C148 1.577 . S
C1373 C203 1.742 . S
C1381 C161 1.762 . S
