# Generated by pormake.
# Topology uol, (4)-cn, num edge types: 1
# Building blocks:
#     Node 0, Type 0, BuildingBlock: ICAMEG_clean_sbu_1, # of connection points: 4
#     Node 1, Type 0, BuildingBlock: ICAMEG_clean_sbu_1, # of connection points: 4
#     Node 2, Type 0, BuildingBlock: ICAMEG_clean_sbu_1, # of connection points: 4
#     Node 3, Type 0, BuildingBlock: ICAMEG_clean_sbu_1, # of connection points: 4
#     Node 4, Type 0, BuildingBlock: ICAMEG_clean_sbu_1, # of connection points: 4
#     Node 5, Type 0, BuildingBlock: ICAMEG_clean_sbu_1, # of connection points: 4
#     Node 6, Type 0, BuildingBlock: ICAMEG_clean_sbu_1, # of connection points: 4
#     Node 7, Type 0, BuildingBlock: ICAMEG_clean_sbu_1, # of connection points: 4
#     Node 8, Type 0, BuildingBlock: ICAMEG_clean_sbu_1, # of connection points: 4
#     Node 9, Type 0, BuildingBlock: ICAMEG_clean_sbu_1, # of connection points: 4
#     Node 10, Type 0, BuildingBlock: ICAMEG_clean_sbu_1, # of connection points: 4
#     Node 11, Type 0, BuildingBlock: ICAMEG_clean_sbu_1, # of connection points: 4
#     Edge 12, Type (0, 0), BuildingBlock: CIFDUS_clean_linker_0, # of connection points: 2
#     Edge 13, Type (0, 0), BuildingBlock: CIFDUS_clean_linker_0, # of connection points: 2
#     Edge 14, Type (0, 0), BuildingBlock: CIFDUS_clean_linker_0, # of connection points: 2
#     Edge 15, Type (0, 0), BuildingBlock: CIFDUS_clean_linker_0, # of connection points: 2
#     Edge 16, Type (0, 0), BuildingBlock: CIFDUS_clean_linker_0, # of connection points: 2
#     Edge 17, Type (0, 0), BuildingBlock: CIFDUS_clean_linker_0, # of connection points: 2
#     Edge 18, Type (0, 0), BuildingBlock: CIFDUS_clean_linker_0, # of connection points: 2
#     Edge 19, Type (0, 0), BuildingBlock: CIFDUS_clean_linker_0, # of connection points: 2
#     Edge 20, Type (0, 0), BuildingBlock: CIFDUS_clean_linker_0, # of connection points: 2
#     Edge 21, Type (0, 0), BuildingBlock: CIFDUS_clean_linker_0, # of connection points: 2
#     Edge 22, Type (0, 0), BuildingBlock: CIFDUS_clean_linker_0, # of connection points: 2
#     Edge 23, Type (0, 0), BuildingBlock: CIFDUS_clean_linker_0, # of connection points: 2
#     Edge 24, Type (0, 0), BuildingBlock: CIFDUS_clean_linker_0, # of connection points: 2
#     Edge 25, Type (0, 0), BuildingBlock: CIFDUS_clean_linker_0, # of connection points: 2
#     Edge 26, Type (0, 0), BuildingBlock: CIFDUS_clean_linker_0, # of connection points: 2
#     Edge 27, Type (0, 0), BuildingBlock: CIFDUS_clean_linker_0, # of connection points: 2
#     Edge 28, Type (0, 0), BuildingBlock: CIFDUS_clean_linker_0, # of connection points: 2
#     Edge 29, Type (0, 0), BuildingBlock: CIFDUS_clean_linker_0, # of connection points: 2
#     Edge 30, Type (0, 0), BuildingBlock: CIFDUS_clean_linker_0, # of connection points: 2
#     Edge 31, Type (0, 0), BuildingBlock: CIFDUS_clean_linker_0, # of connection points: 2
#     Edge 32, Type (0, 0), BuildingBlock: CIFDUS_clean_linker_0, # of connection points: 2
#     Edge 33, Type (0, 0), BuildingBlock: CIFDUS_clean_linker_0, # of connection points: 2
#     Edge 34, Type (0, 0), BuildingBlock: CIFDUS_clean_linker_0, # of connection points: 2
#     Edge 35, Type (0, 0), BuildingBlock: CIFDUS_clean_linker_0, # of connection points: 2
# Relax obj value: 0.049
# Max RMSD: 0.109
# Mean RMSD: 0.109
data_MOF--net-uol--node1-ICAMEG_clean_sbu_1--edge1-CIFDUS_clean_linker_0
_symmetry_space_group_name_H-M    P1
_symmetry_Int_Tables_number       1
_symmetry_cell_setting            triclinic
loop_
_symmetry_equiv_pos_as_xyz
'x, y, z'
_cell_length_a     30.888983
_cell_length_b     30.886821
_cell_length_c     63.123279
_cell_angle_alpha  89.947451
_cell_angle_beta   90.148177
_cell_angle_gamma 119.93941
loop_
_atom_site_label
_atom_site_type_symbol
_atom_site_fract_x
_atom_site_fract_y
_atom_site_fract_z
_atom_type_partial_charge
Co0 Co 0.06191 0.27788 0.11242 0.0
Co1 Co 0.177 0.38166 0.12366 0.0
O2 O 0.1039 0.34672 0.1222 0.0
C3 C 0.02499 0.27579 0.15572 0.0
O4 O 0.07196 0.29982 0.16176 0.0
C5 C 0.15243 0.446 0.0972 0.0
O6 O 0.11629 0.40515 0.08868 0.0
O7 O 0.18208 0.35896 0.09469 0.0
O8 O 0.10845 0.28937 0.08839 0.0
H9 H 0.34642 0.39758 0.11685 0.0
H10 H 0.01648 0.34133 0.11995 0.0
O11 O 0.01408 0.26466 0.13628 0.0
H12 H 0.98516 0.29404 0.04452 0.0
H13 H 0.89788 0.12299 0.0965 0.0
H14 H 0.08124 0.1989 0.09644 0.0
H15 H 0.02933 0.26335 0.06718 0.0
H16 H 0.95185 0.21008 0.10824 0.0
O17 O 0.18078 0.44353 0.11127 0.0
H18 H 0.25443 0.35393 0.11505 0.0
H19 H 0.25503 0.48499 0.1358 0.0
H20 H 0.02868 0.11182 0.08441 0.0
H21 H 0.97171 0.37248 0.09793 0.0
H22 H 0.9363 0.07332 0.08439 0.0
H23 H 0.95598 0.349 0.0599 0.0
O24 O 0.09916 0.25399 0.13046 0.0
H25 H 0.11413 0.45445 0.17858 0.0
H26 H 0.22201 0.38172 0.16551 0.0
H27 H 0.21497 0.40744 0.20173 0.0
H28 H 0.16077 0.44417 0.20843 0.0
H29 H 0.12193 0.42784 0.14263 0.0
H30 H 0.34708 0.5302 0.13768 0.0
H31 H 0.39339 0.4864 0.12822 0.0
O32 O 0.17498 0.32112 0.13594 0.0
C33 C 0.15311 0.32146 0.08323 0.0
C34 C 0.32668 0.41707 0.12103 0.0
C35 C 0.32704 0.49151 0.13269 0.0
N36 N 0.24937 0.41684 0.12533 0.0
C37 C 0.27458 0.39252 0.12006 0.0
C38 C 0.27492 0.46576 0.13153 0.0
C39 C 0.353 0.4669 0.1274 0.0
C40 C 0.00933 0.33056 0.10346 0.0
N41 N 0.02552 0.30059 0.09485 0.0
C42 C 0.98415 0.34848 0.09105 0.0
C43 C 0.97542 0.33536 0.06971 0.0
C44 C 0.99184 0.30459 0.06106 0.0
C45 C 0.01701 0.28748 0.07394 0.0
C46 C 0.93809 0.13939 0.09639 0.0
C47 C 0.04108 0.1825 0.09635 0.0
C48 C 0.96884 0.18864 0.10306 0.0
N49 N 0.01965 0.20965 0.10287 0.0
C50 C 0.01151 0.13313 0.08958 0.0
C51 C 0.95967 0.11154 0.08959 0.0
C52 C 0.14354 0.27463 0.13792 0.0
C53 C 0.13799 0.43864 0.17584 0.0
C54 C 0.19829 0.39761 0.16831 0.0
C55 C 0.19452 0.41217 0.18884 0.0
C56 C 0.16412 0.4328 0.19259 0.0
N57 N 0.17265 0.40359 0.15195 0.0
C58 C 0.14271 0.42371 0.15551 0.0
Co59 Co 0.806 0.06988 0.28419 0.0
Co60 Co 0.78215 0.16733 0.28816 0.0
O61 O 0.76011 0.09559 0.28925 0.0
C62 C 0.75737 0.02117 0.32454 0.0
O63 O 0.76179 0.06391 0.33047 0.0
C64 C 0.67761 0.1145 0.26894 0.0
O65 O 0.67434 0.07064 0.27058 0.0
O66 O 0.81045 0.17274 0.25926 0.0
O67 O 0.84352 0.12281 0.26261 0.0
H68 H 0.90604 0.34815 0.27437 0.0
H69 H 0.69749 0.99698 0.28258 0.0
O70 O 0.77126 0.01653 0.30612 0.0
H71 H 0.76071 0.99411 0.21125 0.0
H72 H 0.85077 0.93508 0.2746 0.0
H73 H 0.91565 0.1167 0.27815 0.0
H74 H 0.81792 0.04882 0.23911 0.0
H75 H 0.79353 0.96801 0.28018 0.0
O76 O 0.71694 0.15407 0.27495 0.0
H77 H 0.87701 0.25802 0.27628 0.0
H78 H 0.73423 0.22878 0.29714 0.0
H79 H 0.97411 0.08539 0.27245 0.0
H80 H 0.63902 0.94119 0.25527 0.0
H81 H 0.94177 0.99396 0.27064 0.0
H82 H 0.67055 0.93967 0.21927 0.0
O83 O 0.8525 0.11481 0.30623 0.0
H84 H 0.653 0.08982 0.34583 0.0
H85 H 0.82096 0.22727 0.32765 0.0
H86 H 0.78892 0.22166 0.36383 0.0
H87 H 0.70423 0.15269 0.37312 0.0
H88 H 0.68673 0.09636 0.31002 0.0
H89 H 0.76161 0.31858 0.29524 0.0
H90 H 0.84816 0.37897 0.28388 0.0
O91 O 0.84839 0.1845 0.30105 0.0
C92 C 0.83998 0.15752 0.25331 0.0
C93 C 0.86828 0.32221 0.2794 0.0
C94 C 0.7872 0.30561 0.29108 0.0
N95 N 0.80406 0.23815 0.28693 0.0
C96 C 0.85165 0.27112 0.28056 0.0
C97 C 0.77186 0.25478 0.29206 0.0
C98 C 0.83577 0.33948 0.28471 0.0
C99 C 0.71151 0.99626 0.267 0.0
N100 N 0.76098 0.02623 0.26243 0.0
C101 C 0.67822 0.96472 0.25158 0.0
C102 C 0.69593 0.96393 0.23138 0.0
C103 C 0.74649 0.99452 0.22686 0.0
C104 C 0.77867 0.02562 0.24267 0.0
C105 C 0.86531 0.97501 0.27532 0.0
C106 C 0.90119 0.07687 0.27726 0.0
C107 C 0.83308 0.99388 0.2785 0.0
N108 N 0.85115 0.04426 0.27935 0.0
C109 C 0.93452 0.05936 0.27408 0.0
C110 C 0.91636 0.00805 0.27309 0.0
C111 C 0.86968 0.16153 0.30867 0.0
C112 C 0.68978 0.12031 0.34193 0.0
C113 C 0.78407 0.1971 0.33151 0.0
C114 C 0.76611 0.19417 0.35205 0.0
C115 C 0.71859 0.1555 0.35725 0.0
N116 N 0.75544 0.16269 0.31648 0.0
C117 C 0.70896 0.12448 0.32154 0.0
Co118 Co 0.72228 0.78612 0.44838 0.0
Co119 Co 0.61211 0.78288 0.46192 0.0
O120 O 0.65287 0.75158 0.45773 0.0
C121 C 0.72306 0.74479 0.49028 0.0
O122 O 0.69118 0.759 0.49582 0.0
C123 C 0.5549 0.70426 0.43002 0.0
O124 O 0.59577 0.72366 0.4186 0.0
O125 O 0.63377 0.81844 0.43425 0.0
O126 O 0.70616 0.82161 0.42573 0.0
H127 H 0.57584 0.92444 0.46271 0.0
H128 H 0.66782 0.67593 0.45284 0.0
O129 O 0.73999 0.75215 0.4714 0.0
H130 H 0.71654 0.70835 0.37764 0.0
H131 H 0.88666 0.79769 0.43099 0.0
H132 H 0.79419 0.88943 0.43465 0.0
H133 H 0.7399 0.77821 0.40251 0.0
H134 H 0.79861 0.75511 0.44248 0.0
O135 O 0.55452 0.7236 0.44781 0.0
H136 H 0.62808 0.88558 0.45773 0.0
H137 H 0.50612 0.74383 0.47454 0.0
H138 H 0.88203 0.93337 0.4229 0.0
H139 H 0.64397 0.60489 0.42857 0.0
H140 H 0.92886 0.88742 0.42102 0.0
H141 H 0.66828 0.62094 0.39066 0.0
O142 O 0.74007 0.84285 0.46798 0.0
H143 H 0.54947 0.63524 0.51083 0.0
H144 H 0.60665 0.81523 0.50583 0.0
H145 H 0.58277 0.77343 0.54061 0.0
H146 H 0.55391 0.68278 0.54326 0.0
H147 H 0.57417 0.6786 0.4764 0.0
H148 H 0.45238 0.78106 0.47953 0.0
H149 H 0.48727 0.87204 0.47368 0.0
O150 O 0.66895 0.84239 0.47597 0.0
C151 C 0.67172 0.8323 0.42227 0.0
C152 C 0.56023 0.88478 0.46536 0.0
C153 C 0.49093 0.8043 0.47477 0.0
N154 N 0.57029 0.81258 0.46598 0.0
C155 C 0.58968 0.86259 0.46262 0.0
C156 C 0.5215 0.78341 0.47187 0.0
C157 C 0.51053 0.85535 0.4715 0.0
C158 C 0.67886 0.68316 0.4364 0.0
N159 N 0.70542 0.73109 0.42911 0.0
C160 C 0.66511 0.64281 0.42272 0.0
C161 C 0.67871 0.65184 0.40145 0.0
C162 C 0.70576 0.70087 0.39413 0.0
C163 C 0.71879 0.74028 0.40826 0.0
C164 C 0.86662 0.81809 0.4317 0.0
C165 C 0.81423 0.86911 0.43372 0.0
C166 C 0.81681 0.7942 0.43823 0.0
N167 N 0.79123 0.81968 0.43906 0.0
C168 C 0.864 0.89422 0.42713 0.0
C169 C 0.89027 0.86843 0.4261 0.0
C170 C 0.71632 0.86147 0.47709 0.0
C171 C 0.56182 0.67472 0.50986 0.0
C172 C 0.5942 0.77579 0.50686 0.0
C173 C 0.58063 0.75231 0.52659 0.0
C174 C 0.5644 0.70143 0.52806 0.0
N175 N 0.59154 0.74933 0.48908 0.0
C176 C 0.57561 0.69942 0.4904 0.0
Co177 Co 0.95183 0.74089 0.61434 0.0
Co178 Co 0.83805 0.63465 0.62411 0.0
O179 O 0.91112 0.67181 0.62422 0.0
C180 C 0.98352 0.74216 0.65843 0.0
O181 O 0.93588 0.71415 0.66277 0.0
C182 C 0.8649 0.56618 0.60158 0.0
O183 O 0.89767 0.60402 0.59023 0.0
O184 O 0.83616 0.65269 0.59391 0.0
O185 O 0.90694 0.72634 0.58913 0.0
H186 H 0.66714 0.60987 0.60946 0.0
H187 H 0.99949 0.68053 0.62444 0.0
O188 O 0.99747 0.75691 0.63952 0.0
H189 H 0.03804 0.72706 0.54925 0.0
H190 H 0.11376 0.89945 0.60034 0.0
H191 H 0.93005 0.81626 0.59587 0.0
H192 H 0.98942 0.75572 0.56994 0.0
H193 H 0.06145 0.81227 0.61227 0.0
O194 O 0.83834 0.57256 0.61524 0.0
H195 H 0.75923 0.65645 0.61001 0.0
H196 H 0.76111 0.53234 0.63803 0.0
H197 H 0.98093 0.90334 0.58359 0.0
H198 H 0.04862 0.65139 0.60441 0.0
H199 H 0.07348 0.9455 0.5858 0.0
H200 H 0.06806 0.67454 0.56651 0.0
O201 O 0.91126 0.76324 0.63075 0.0
H202 H 0.89741 0.57388 0.68544 0.0
H203 H 0.7869 0.63851 0.66355 0.0
H204 H 0.79046 0.61887 0.70116 0.0
H205 H 0.84598 0.58624 0.71232 0.0
H206 H 0.89315 0.59452 0.64803 0.0
H207 H 0.66902 0.48426 0.63766 0.0
H208 H 0.62139 0.52309 0.62335 0.0
O209 O 0.83551 0.69495 0.63332 0.0
C210 C 0.86448 0.69118 0.58279 0.0
C211 C 0.68745 0.59254 0.61574 0.0
C212 C 0.68852 0.52202 0.63154 0.0
N213 N 0.76556 0.59716 0.62402 0.0
C214 C 0.73962 0.61875 0.61611 0.0
C215 C 0.74068 0.54937 0.63163 0.0
C216 C 0.66182 0.54384 0.62352 0.0
C217 C 0.00813 0.69105 0.608 0.0
N218 N 0.99166 0.71982 0.59837 0.0
C219 C 0.03582 0.67431 0.59672 0.0
C220 C 0.04665 0.68726 0.57545 0.0
C221 C 0.02979 0.71669 0.56575 0.0
C222 C 1.00212 0.73267 0.57752 0.0
C223 C 0.07347 0.88145 0.59926 0.0
C224 C 0.97032 0.83426 0.59674 0.0
C225 C 0.04367 0.83215 0.60603 0.0
N226 N 0.99278 0.80913 0.60461 0.0
C227 C 0.99892 0.88361 0.58983 0.0
C228 C 0.05085 0.90726 0.59109 0.0
C229 C 0.86535 0.74147 0.63607 0.0
C230 C 0.87295 0.5879 0.68076 0.0
C231 C 0.81128 0.62448 0.66828 0.0
C232 C 0.81303 0.6133 0.6896 0.0
C233 C 0.84415 0.59494 0.69584 0.0
N234 N 0.83965 0.61749 0.65358 0.0
C235 C 0.87019 0.59943 0.65958 0.0
Co236 Co 0.22525 0.94846 0.78357 0.0
Co237 Co 0.21301 0.83155 0.79072 0.0
O238 O 0.25026 0.90443 0.79267 0.0
C239 C 0.24375 0.96902 0.82914 0.0
O240 O 0.22046 0.92035 0.83157 0.0
C241 C 0.30763 0.86401 0.76736 0.0
O242 O 0.3047 0.90252 0.76044 0.0
O243 O 0.19055 0.8336 0.76132 0.0
O244 O 0.19848 0.90956 0.75668 0.0
H245 H 0.06278 0.664 0.77538 0.0
H246 H 0.33085 0.99286 0.79724 0.0
O247 O 0.25087 0.98781 0.81061 0.0
H248 H 0.33772 0.04551 0.72296 0.0
H249 H 0.23582 0.11542 0.77464 0.0
H250 H 0.13242 0.93379 0.76301 0.0
H251 H 0.25666 0.99393 0.74067 0.0
H252 H 0.26628 0.05854 0.78551 0.0
O253 O 0.27371 0.83157 0.77929 0.0
H254 H 0.10999 0.7559 0.77788 0.0
H255 H 0.23776 0.75165 0.80003 0.0
H256 H 0.10066 0.98934 0.75174 0.0
H257 H 0.41273 0.0448 0.78021 0.0
H258 H 0.15252 0.08087 0.75754 0.0
H259 H 0.41649 0.0713 0.74278 0.0
O260 O 0.15922 0.90553 0.79744 0.0
H261 H 0.33773 0.88115 0.85006 0.0
H262 H 0.16074 0.77595 0.8298 0.0
H263 H 0.18663 0.77393 0.86661 0.0
H264 H 0.27572 0.82674 0.87693 0.0
H265 H 0.31015 0.88232 0.81346 0.0
H266 H 0.19204 0.65968 0.79764 0.0
H267 H 0.10385 0.61523 0.78529 0.0
O268 O 0.152 0.83 0.80194 0.0
C269 C 0.18575 0.86557 0.75025 0.0
C270 C 0.10119 0.68292 0.78078 0.0
C271 C 0.17376 0.68051 0.79324 0.0
N272 N 0.1766 0.75916 0.78904 0.0
C273 C 0.12811 0.73498 0.78223 0.0
C274 C 0.19952 0.73262 0.79449 0.0
C275 C 0.12426 0.65559 0.78633 0.0
C276 C 0.33222 0.0047 0.78102 0.0
N277 N 0.28907 0.99051 0.76997 0.0
C278 C 0.37867 0.03392 0.77143 0.0
C279 C 0.38075 0.0487 0.75041 0.0
C280 C 0.33657 0.03419 0.73928 0.0
C281 C 0.29078 0.00487 0.74937 0.0
C282 C 0.21292 0.07562 0.77198 0.0
C283 C 0.15533 0.97362 0.76545 0.0
C284 C 0.22993 0.04323 0.77814 0.0
N285 N 0.20131 0.99297 0.77473 0.0
C286 C 0.13709 0.00487 0.7591 0.0
C287 C 0.16618 0.05621 0.76238 0.0
C288 C 0.13513 0.86007 0.80352 0.0
C289 C 0.29883 0.85783 0.84573 0.0
C290 C 0.19957 0.79907 0.83417 0.0
C291 C 0.21401 0.79772 0.85503 0.0
C292 C 0.26401 0.82735 0.86081 0.0
N293 N 0.23399 0.82894 0.81946 0.0
C294 C 0.28304 0.85818 0.82501 0.0
Co295 Co 0.28538 0.20612 0.95363 0.0
Co296 Co 0.40481 0.22505 0.95723 0.0
O297 O 0.35677 0.2484 0.95902 0.0
C298 C 0.29128 0.24907 0.99586 0.0
O299 O 0.32632 0.23809 1.00007 0.0
C300 C 0.4494 0.31345 0.92905 0.0
O301 O 0.40749 0.29242 0.9182 0.0
O302 O 0.38087 0.19773 0.92825 0.0
O303 O 0.29862 0.17174 0.92975 0.0
H304 H 0.46157 0.10181 0.94131 0.0
H305 H 0.32957 0.31604 0.95585 0.0
O306 O 0.27036 0.23903 0.97771 0.0
H307 H 0.25675 0.26839 0.88422 0.0
H308 H 0.10856 0.1718 0.94691 0.0
H309 H 0.21845 0.09868 0.94402 0.0
H310 H 0.25012 0.20431 0.90945 0.0
H311 H 0.19932 0.2244 0.95283 0.0
O312 O 0.45482 0.2914 0.94504 0.0
H313 H 0.40041 0.13073 0.94411 0.0
H314 H 0.51413 0.2727 0.96573 0.0
H315 H 0.12802 0.04479 0.93784 0.0
H316 H 0.33678 0.38132 0.93117 0.0
H317 H 0.07239 0.08134 0.93927 0.0
H318 H 0.30027 0.35761 0.89506 0.0
O319 O 0.28152 0.15423 0.97332 0.0
H320 H 0.46219 0.35492 0.01465 0.0
H321 H 0.42414 0.18409 0.9967 0.0
H322 H 0.45137 0.21594 0.03295 0.0
H323 H 0.47069 0.30197 0.04212 0.0
H324 H 0.43425 0.32138 0.97867 0.0
H325 H 0.5766 0.24545 0.963 0.0
H326 H 0.55038 0.15936 0.95079 0.0
O327 O 0.35578 0.15835 0.96956 0.0
C328 C 0.33655 0.17359 0.92082 0.0
C329 C 0.47342 0.13935 0.94671 0.0
C330 C 0.538 0.21999 0.95886 0.0
N331 N 0.45361 0.2032 0.95524 0.0
C332 C 0.43894 0.15589 0.94838 0.0
C333 C 0.50248 0.23525 0.96033 0.0
C334 C 0.52326 0.17168 0.95201 0.0
C335 C 0.31323 0.30542 0.94022 0.0
N336 N 0.28917 0.25644 0.93414 0.0
C337 C 0.31758 0.34255 0.92629 0.0
C338 C 0.29715 0.32923 0.90602 0.0
C339 C 0.27275 0.27918 0.89993 0.0
C340 C 0.26918 0.24308 0.91427 0.0
C341 C 0.13243 0.15547 0.94617 0.0
C342 C 0.19457 0.11494 0.94448 0.0
C343 C 0.18383 0.18505 0.94954 0.0
N344 N 0.21421 0.16472 0.94854 0.0
C345 C 0.14335 0.0842 0.94105 0.0
C346 C 0.11216 0.10472 0.94189 0.0
C347 C 0.31067 0.13661 0.97612 0.0
C348 C 0.45403 0.31743 0.01084 0.0
C349 C 0.43225 0.22148 1.00058 0.0
C350 C 0.44781 0.23937 0.02112 0.0
C351 C 0.4587 0.28767 0.02625 0.0
N352 N 0.42774 0.25089 0.98555 0.0
C353 C 0.43844 0.29832 0.99045 0.0
Co354 Co 0.73028 0.94577 0.71773 0.0
Co355 Co 0.61478 0.8378 0.7141 0.0
O356 O 0.65835 0.91028 0.71214 0.0
C357 C 0.72066 0.97508 0.67416 0.0
O358 O 0.68695 0.92813 0.67086 0.0
C359 C 0.56856 0.88108 0.74175 0.0
O360 O 0.61359 0.91347 0.74842 0.0
O361 O 0.64341 0.83555 0.74218 0.0
O362 O 0.72024 0.90368 0.74335 0.0
H363 H 0.57525 0.66108 0.7267 0.0
H364 H 0.67754 0.00299 0.71174 0.0
O365 O 0.74195 0.98881 0.69216 0.0
H366 H 0.75064 0.04661 0.78344 0.0
H367 H 0.90134 0.0984 0.72217 0.0
H368 H 0.80351 0.91544 0.73083 0.0
H369 H 0.7638 0.98897 0.76092 0.0
H370 H 0.81035 0.05281 0.71586 0.0
O371 O 0.56226 0.84741 0.72846 0.0
H372 H 0.62997 0.75237 0.72397 0.0
H373 H 0.50535 0.76909 0.70821 0.0
H374 H 0.89438 0.95958 0.73747 0.0
H375 H 0.66385 0.0612 0.73363 0.0
H376 H 0.94391 0.05173 0.73313 0.0
H377 H 0.70038 0.08319 0.76979 0.0
O378 O 0.73997 0.89786 0.69992 0.0
H379 H 0.54242 0.90411 0.66025 0.0
H380 H 0.59454 0.77957 0.67405 0.0
H381 H 0.5615 0.7828 0.63884 0.0
H382 H 0.53512 0.84539 0.63177 0.0
H383 H 0.5761 0.89988 0.69517 0.0
H384 H 0.4492 0.678 0.7109 0.0
H385 H 0.48413 0.62332 0.72014 0.0
O386 O 0.66586 0.82675 0.69975 0.0
C387 C 0.68562 0.86288 0.75114 0.0
C388 C 0.55958 0.6845 0.72265 0.0
C389 C 0.48884 0.69401 0.7138 0.0
N390 N 0.57092 0.76604 0.71594 0.0
C391 C 0.5904 0.73622 0.72106 0.0
C392 C 0.5208 0.74559 0.71238 0.0
C393 C 0.50846 0.66334 0.71898 0.0
C394 C 0.69396 0.01278 0.72738 0.0
N395 N 0.72145 0.99264 0.73505 0.0
C396 C 0.68592 0.04559 0.73973 0.0
C397 C 0.70634 0.05784 0.76003 0.0
C398 C 0.7345 0.03729 0.76771 0.0
C399 C 0.74168 0.00453 0.75493 0.0
C400 C 0.88015 0.05826 0.72416 0.0
C401 C 0.82478 0.95559 0.72906 0.0
C402 C 0.82864 0.03224 0.72057 0.0
N403 N 0.80162 0.98157 0.72314 0.0
C404 C 0.87623 0.98035 0.73277 0.0
C405 C 0.90401 0.03205 0.73031 0.0
C406 C 0.71198 0.85208 0.69485 0.0
C407 C 0.55364 0.87657 0.66316 0.0
C408 C 0.58324 0.80697 0.67108 0.0
C409 C 0.56446 0.80856 0.65113 0.0
C410 C 0.54963 0.84366 0.64717 0.0
N411 N 0.58702 0.83934 0.68669 0.0
C412 C 0.57251 0.87384 0.68294 0.0
Co413 Co 0.79854 0.73824 0.88499 0.0
Co414 Co 0.78345 0.61983 0.8799 0.0
O415 O 0.75838 0.66669 0.87911 0.0
C416 C 0.75981 0.73203 0.84168 0.0
O417 O 0.77062 0.6966 0.83828 0.0
C418 C 0.69975 0.57258 0.91082 0.0
O419 O 0.72122 0.61359 0.92221 0.0
O420 O 0.81598 0.64584 0.90804 0.0
O421 O 0.82914 0.72444 0.91022 0.0
H422 H 0.9125 0.56806 0.89073 0.0
H423 H 0.68881 0.69071 0.87966 0.0
O424 O 0.76859 0.75336 0.85971 0.0
H425 H 0.72399 0.7628 0.95157 0.0
H426 H 0.82801 0.91348 0.89084 0.0
H427 H 0.90344 0.80617 0.89806 0.0
H428 H 0.79256 0.77235 0.9285 0.0
H429 H 0.77802 0.82287 0.884 0.0
O430 O 0.71987 0.56917 0.8938 0.0
H431 H 0.88121 0.62747 0.88927 0.0
H432 H 0.73658 0.51011 0.87249 0.0
H433 H 0.9547 0.89653 0.90521 0.0
H434 H 0.6191 0.68061 0.90212 0.0
H435 H 0.91697 0.95082 0.9016 0.0
H436 H 0.63652 0.71672 0.93838 0.0
O437 O 0.85443 0.7451 0.8668 0.0
H438 H 0.64408 0.55795 0.82651 0.0
H439 H 0.81815 0.59906 0.83908 0.0
H440 H 0.78041 0.56964 0.80379 0.0
H441 H 0.69273 0.54881 0.79733 0.0
H442 H 0.68344 0.588 0.86149 0.0
H443 H 0.76623 0.44935 0.87389 0.0
H444 H 0.85482 0.47826 0.883 0.0
O445 O 0.84663 0.66888 0.86576 0.0
C446 C 0.8331 0.68792 0.91743 0.0
C447 C 0.87383 0.55501 0.88671 0.0
C448 C 0.79172 0.48838 0.87728 0.0
N449 N 0.80717 0.57233 0.88075 0.0
C450 C 0.85592 0.58849 0.88584 0.0
C451 C 0.77512 0.52294 0.87658 0.0
C452 C 0.84144 0.50463 0.88239 0.0
C453 C 0.69668 0.7068 0.89537 0.0
N454 N 0.74467 0.73219 0.90275 0.0
C455 C 0.65706 0.70085 0.90803 0.0
C456 C 0.66686 0.72107 0.92838 0.0
C457 C 0.71592 0.7469 0.9358 0.0
C458 C 0.75458 0.75206 0.92269 0.0
C459 C 0.84484 0.8902 0.89251 0.0
C460 C 0.88669 0.82952 0.89661 0.0
C461 C 0.81675 0.8389 0.88862 0.0
N462 N 0.83772 0.80925 0.8908 0.0
C463 C 0.91593 0.88067 0.90061 0.0
C464 C 0.89475 0.91112 0.89855 0.0
C465 C 0.86973 0.71529 0.86128 0.0
C466 C 0.68226 0.56676 0.82914 0.0
C467 C 0.78003 0.59019 0.83639 0.0
C468 C 0.75881 0.57344 0.81638 0.0
C469 C 0.7096 0.56171 0.81277 0.0
N470 N 0.75296 0.59502 0.85237 0.0
C471 C 0.70467 0.58355 0.84896 0.0
Co472 Co 0.06889 0.78498 0.0518 0.0
Co473 Co 0.17769 0.78153 0.04251 0.0
O474 O 0.10495 0.75098 0.04318 0.0
C475 C 0.03452 0.74953 0.00832 0.0
O476 O 0.08132 0.76399 0.00401 0.0
C477 C 0.14097 0.69252 0.06989 0.0
O478 O 0.11111 0.70635 0.07844 0.0
O479 O 0.18456 0.81111 0.07116 0.0
O480 O 0.11549 0.81682 0.07639 0.0
H481 H 0.35512 0.92076 0.05071 0.0
H482 H 0.01234 0.67565 0.04439 0.0
O483 O 0.02206 0.75477 0.02698 0.0
H484 H 0.98182 0.69812 0.11914 0.0
H485 H 0.9144 0.79715 0.06422 0.0
H486 H 0.0985 0.88672 0.06729 0.0
H487 H 0.03436 0.77108 0.09664 0.0
H488 H 0.9611 0.75492 0.05393 0.0
O489 O 0.17175 0.7192 0.05553 0.0
H490 H 0.26343 0.88251 0.05145 0.0
H491 H 0.24661 0.74323 0.03214 0.0
H492 H 0.05331 0.93024 0.07791 0.0
H493 H 0.95909 0.60165 0.06625 0.0
H494 H 0.96058 0.88538 0.0764 0.0
H495 H 0.94371 0.61266 0.10394 0.0
O496 O 0.11243 0.84397 0.03411 0.0
H497 H 0.10448 0.64489 0.9879 0.0
H498 H 0.2273 0.8222 1.001 0.0
H499 H 0.21822 0.78768 0.965 0.0
H500 H 0.15646 0.6984 0.95827 0.0
H501 H 0.11446 0.68103 0.02362 0.0
H502 H 0.33815 0.77985 0.03137 0.0
H503 H 0.39306 0.8693 0.04063 0.0
O504 O 0.18477 0.84421 0.02965 0.0
C505 C 0.15872 0.82495 0.08199 0.0
C506 C 0.3316 0.88177 0.04661 0.0
C507 C 0.32207 0.80267 0.03579 0.0
N508 N 0.2497 0.81076 0.04177 0.0
C509 C 0.27965 0.85993 0.04695 0.0
C510 C 0.27026 0.7821 0.03631 0.0
C511 C 0.35286 0.85286 0.04097 0.0
C512 C 0.00533 0.68074 0.06071 0.0
N513 N 0.02621 0.7276 0.06921 0.0
C514 C 0.97534 0.6387 0.07304 0.0
C515 C 0.96681 0.64491 0.09419 0.0
C516 C 0.98822 0.69284 0.10274 0.0
C517 C 0.01804 0.734 0.08994 0.0
C518 C 0.9548 0.81705 0.065 0.0
C519 C 0.05814 0.86684 0.06674 0.0
C520 C 0.98143 0.79337 0.05915 0.0
N521 N 0.03243 0.81821 0.06019 0.0
C522 C 0.03276 0.89173 0.07271 0.0
C523 C 0.98073 0.86656 0.07184 0.0
C524 C 0.15713 0.86382 0.02728 0.0
C525 C 0.13165 0.68379 0.99065 0.0
C526 C 0.20031 0.78333 0.9982 0.0
C527 C 0.1954 0.76397 0.97778 0.0
C528 C 0.16077 0.71386 0.97403 0.0
N529 N 0.17165 0.75358 0.01442 0.0
C530 C 0.13765 0.7044 0.01087 0.0
Co531 Co 0.25267 0.05227 0.2235 0.0
Co532 Co 0.37366 0.1503 0.21599 0.0
O533 O 0.32296 0.07902 0.21563 0.0
C534 C 0.24856 0.01278 0.18022 0.0
O535 O 0.28853 0.05531 0.17552 0.0
C536 C 0.41792 0.10192 0.24238 0.0
O537 O 0.37359 0.07311 0.25061 0.0
O538 O 0.35334 0.15904 0.24497 0.0
O539 O 0.27319 0.09803 0.24849 0.0
H540 H 0.43666 0.33328 0.22727 0.0
H541 H 0.29165 0.9832 0.21637 0.0
O542 O 0.22973 0.00529 0.1987 0.0
H543 H 0.23201 0.95432 0.29022 0.0
H544 H 0.07443 0.91613 0.23442 0.0
H545 H 0.19307 0.09723 0.23849 0.0
H546 H 0.22387 0.01535 0.2678 0.0
H547 H 0.16301 0.95007 0.22497 0.0
O548 O 0.42413 0.13466 0.22859 0.0
H549 H 0.37335 0.24371 0.22653 0.0
H550 H 0.48254 0.20787 0.20596 0.0
H551 H 0.10489 0.06484 0.24826 0.0
H552 H 0.30008 0.92141 0.23814 0.0
H553 H 0.04491 0.97367 0.24624 0.0
H554 H 0.27031 0.90681 0.27538 0.0
O555 O 0.24729 0.1028 0.20561 0.0
H556 H 0.42211 0.06625 0.16031 0.0
H557 H 0.39146 0.2054 0.17516 0.0
H558 H 0.41499 0.19465 0.13907 0.0
H559 H 0.43057 0.12471 0.13146 0.0
H560 H 0.398 0.07807 0.19613 0.0
H561 H 0.54712 0.29703 0.20661 0.0
H562 H 0.5243 0.36046 0.21726 0.0
O563 O 0.32528 0.16799 0.20333 0.0
C564 C 0.31235 0.13671 0.25523 0.0
C565 C 0.44707 0.30601 0.22258 0.0
C566 C 0.50907 0.28566 0.21101 0.0
N567 N 0.42418 0.22058 0.2162 0.0
C568 C 0.41136 0.25524 0.22212 0.0
C569 C 0.47235 0.2352 0.21074 0.0
C570 C 0.49623 0.32123 0.21698 0.0
C571 C 0.27821 0.97669 0.2325 0.0
N572 N 0.25729 0.00281 0.24081 0.0
C573 C 0.28325 0.94182 0.24478 0.0
C574 C 0.26661 0.9337 0.26568 0.0
C575 C 0.24516 0.96038 0.27402 0.0
C576 C 0.24082 0.99502 0.26128 0.0
C577 C 0.10023 0.95592 0.23541 0.0
C578 C 0.16724 0.05748 0.23772 0.0
C579 C 0.15041 0.97536 0.23003 0.0
N580 N 0.18324 0.02555 0.23134 0.0
C581 C 0.11734 0.03937 0.2432 0.0
C582 C 0.08369 0.98822 0.24204 0.0
C583 C 0.27849 0.14713 0.19968 0.0
C584 C 0.41557 0.09697 0.16344 0.0
C585 C 0.39799 0.17476 0.17197 0.0
C586 C 0.41144 0.16895 0.15151 0.0
C587 C 0.42023 0.12973 0.14725 0.0
N588 N 0.39355 0.1425 0.18777 0.0
C589 C 0.40216 0.10399 0.18372 0.0
Co590 Co 0.22035 0.28268 0.38764 0.0
Co591 Co 0.22123 0.39251 0.37559 0.0
O592 O 0.25359 0.3524 0.3787 0.0
C593 C 0.26053 0.28374 0.34528 0.0
O594 O 0.24555 0.31527 0.34007 0.0
C595 C 0.30117 0.44938 0.40702 0.0
O596 O 0.28267 0.40814 0.41822 0.0
O597 O 0.18727 0.36953 0.40351 0.0
O598 O 0.185 0.29697 0.41079 0.0
H599 H 0.07803 0.42625 0.37745 0.0
H600 H 0.33036 0.33884 0.3826 0.0
O601 O 0.25411 0.26661 0.36412 0.0
H602 H 0.30114 0.28719 0.45756 0.0
H603 H 0.21221 0.11894 0.40324 0.0
H604 H 0.11785 0.20896 0.40162 0.0
H605 H 0.23023 0.26365 0.43319 0.0
H606 H 0.25321 0.2074 0.39234 0.0
O607 O 0.2809 0.45009 0.38949 0.0
H608 H 0.11822 0.37487 0.38114 0.0
H609 H 0.25824 0.49871 0.36381 0.0
H610 H 0.07551 0.12068 0.4128 0.0
H611 H 0.40242 0.36293 0.40637 0.0
H612 H 0.12277 0.07507 0.41365 0.0
H613 H 0.38799 0.33713 0.44415 0.0
O614 O 0.16266 0.26484 0.36853 0.0
H615 H 0.36597 0.45852 0.3251 0.0
H616 H 0.18587 0.39871 0.33233 0.0
H617 H 0.22546 0.42411 0.29718 0.0
H618 H 0.31615 0.45431 0.29342 0.0
H619 H 0.32481 0.43229 0.3599 0.0
H620 H 0.21965 0.55161 0.36011 0.0
H621 H 0.12886 0.51533 0.36687 0.0
O622 O 0.16131 0.33566 0.36182 0.0
C623 C 0.17396 0.3308 0.41497 0.0
C624 C 0.1176 0.44247 0.37441 0.0
C625 C 0.19709 0.51283 0.36471 0.0
N626 N 0.19045 0.43367 0.37257 0.0
C627 C 0.14055 0.41351 0.37642 0.0
C628 C 0.21876 0.48274 0.36688 0.0
C629 C 0.14615 0.49245 0.36849 0.0
C630 C 0.32384 0.32715 0.39898 0.0
N631 N 0.27622 0.29966 0.40648 0.0
C632 C 0.36476 0.34104 0.41238 0.0
C633 C 0.35663 0.32661 0.43359 0.0
C634 C 0.30791 0.29861 0.44112 0.0
C635 C 0.26792 0.28547 0.42727 0.0
C636 C 0.19125 0.13844 0.40298 0.0
C637 C 0.13876 0.18946 0.4021 0.0
C638 C 0.21423 0.18849 0.39678 0.0
N639 N 0.18804 0.21339 0.39652 0.0
C640 C 0.11454 0.13944 0.40837 0.0
C641 C 0.14107 0.11386 0.40882 0.0
C642 C 0.14272 0.28842 0.36029 0.0
C643 C 0.32646 0.44559 0.32655 0.0
C644 C 0.22534 0.41173 0.33081 0.0
C645 C 0.24757 0.42616 0.31088 0.0
C646 C 0.29847 0.44313 0.30878 0.0
N647 N 0.25306 0.41427 0.34817 0.0
C648 C 0.303 0.43093 0.34624 0.0
Co649 Co 0.94134 0.20065 0.55452 0.0
Co650 Co 0.84615 0.22691 0.54508 0.0
O651 O 0.91668 0.24523 0.54574 0.0
C652 C 0.98181 0.23305 0.51133 0.0
O653 O 0.93892 0.22912 0.50601 0.0
C654 C 0.84676 0.3054 0.57224 0.0
O655 O 0.8115 0.269 0.58339 0.0
O656 O 0.8356 0.19883 0.5744 0.0
O657 O 0.89466 0.17711 0.57898 0.0
H658 H 0.66181 0.11424 0.55625 0.0
H659 H 0.01299 0.30797 0.54717 0.0
O660 O 0.98916 0.22319 0.53013 0.0
H661 H 0.03744 0.27715 0.62174 0.0
H662 H 0.07383 0.15409 0.56774 0.0
H663 H 0.89348 0.09631 0.57009 0.0
H664 H 0.97561 0.20869 0.59931 0.0
H665 H 0.04228 0.2103 0.55725 0.0
O666 O 0.86611 0.29518 0.55657 0.0
H667 H 0.75057 0.13723 0.55692 0.0
H668 H 0.79213 0.28004 0.53145 0.0
H669 H 0.92344 0.03897 0.58087 0.0
H670 H 0.0756 0.37746 0.56897 0.0
H671 H 0.01422 0.06779 0.57972 0.0
H672 H 0.08807 0.36223 0.60655 0.0
O673 O 0.89038 0.1451 0.53676 0.0
H674 H 0.93591 0.35486 0.4882 0.0
H675 H 0.79274 0.18827 0.50394 0.0
H676 H 0.80626 0.22019 0.46732 0.0
H677 H 0.87822 0.3041 0.45926 0.0
H678 H 0.92138 0.32129 0.52455 0.0
H679 H 0.70379 0.25864 0.53053 0.0
H680 H 0.63792 0.1752 0.54299 0.0
O681 O 0.826 0.15925 0.53363 0.0
C682 C 0.85653 0.17924 0.58512 0.0
C683 C 0.69016 0.15073 0.55079 0.0
C684 C 0.71372 0.23176 0.53635 0.0
N685 N 0.77651 0.20992 0.54426 0.0
C686 C 0.74049 0.16395 0.55114 0.0
C687 C 0.76367 0.24367 0.53692 0.0
C688 C 0.67678 0.18494 0.54334 0.0
C689 C 0.01848 0.30102 0.56347 0.0
N690 N 0.9909 0.25432 0.57193 0.0
C691 C 0.05387 0.34052 0.57575 0.0
C692 C 0.06081 0.33197 0.59685 0.0
C693 C 0.0324 0.28424 0.60538 0.0
C694 C 0.99735 0.24566 0.59262 0.0
C695 C 0.0342 0.14113 0.56835 0.0
C696 C 0.93307 0.10922 0.56969 0.0
C697 C 0.01611 0.17276 0.56239 0.0
N698 N 0.96613 0.15671 0.56321 0.0
C699 C 0.9498 0.07654 0.57574 0.0
C700 C 1.00073 0.09272 0.57508 0.0
C701 C 0.84604 0.13225 0.5308 0.0
C702 C 0.9043 0.31833 0.49153 0.0
C703 C 0.82426 0.22475 0.50056 0.0
C704 C 0.83163 0.24269 0.4798 0.0
C705 C 0.87198 0.28979 0.47529 0.0
N706 N 0.85607 0.253 0.51642 0.0
C707 C 0.89571 0.29924 0.51211 0.0
H708 H 0.21406 0.66811 0.07307 0.0
H709 H 0.05507 0.60715 0.07906 0.0
H710 H 0.04408 0.52464 0.08675 0.0
H711 H 0.07978 0.46962 0.0919 0.0
H712 H 0.23947 0.53232 0.0901 0.0
H713 H 0.25035 0.61419 0.08063 0.0
C714 C 0.1771 0.63667 0.07611 0.0
C715 C 0.1354 0.6435 0.07543 0.0
C716 C 0.17127 0.58966 0.0812 0.0
C717 C 0.08773 0.60276 0.07961 0.0
C718 C 0.08141 0.55556 0.08392 0.0
C719 C 0.11687 0.50126 0.08931 0.0
C720 C 0.15876 0.49508 0.09136 0.0
C721 C 0.12287 0.54853 0.08474 0.0
C722 C 0.20674 0.53638 0.08847 0.0
C723 C 0.21293 0.58309 0.08308 0.0
H724 H 0.57883 0.04422 0.27208 0.0
H725 H 0.67842 0.19431 0.25034 0.0
H726 H 0.60707 0.20322 0.23988 0.0
H727 H 0.51652 0.16917 0.23745 0.0
H728 H 0.41625 0.02121 0.26123 0.0
H729 H 0.48755 0.01078 0.27047 0.0
C730 C 0.58483 0.07867 0.26487 0.0
C731 C 0.63389 0.11838 0.2618 0.0
C732 C 0.54349 0.08407 0.25942 0.0
C733 C 0.64107 0.16314 0.25282 0.0
C734 C 0.60028 0.1683 0.24686 0.0
C735 C 0.5102 0.13457 0.24463 0.0
C736 C 0.46106 0.09597 0.24858 0.0
C737 C 0.55135 0.12915 0.25019 0.0
C738 C 0.45365 0.05161 0.25809 0.0
C739 C 0.49443 0.04555 0.26331 0.0
H740 H 0.48116 0.63146 0.4537 0.0
H741 H 0.52694 0.67615 0.38911 0.0
H742 H 0.45146 0.60227 0.37623 0.0
H743 H 0.37252 0.52451 0.38335 0.0
H744 H 0.33058 0.47611 0.4479 0.0
H745 H 0.40431 0.5517 0.46079 0.0
C746 C 0.47443 0.62505 0.43681 0.0
C747 C 0.50929 0.65938 0.42236 0.0
C748 C 0.43166 0.58177 0.42953 0.0
C749 C 0.50062 0.65024 0.40053 0.0
C750 C 0.45744 0.60806 0.39316 0.0
C751 C 0.3795 0.53069 0.40024 0.0
C752 C 0.34599 0.49506 0.41467 0.0
C753 C 0.42271 0.57355 0.40751 0.0
C754 C 0.35586 0.50303 0.43649 0.0
C755 C 0.39795 0.54627 0.44387 0.0
H756 H 0.91201 0.53518 0.57367 0.0
H757 H 0.8029 0.48257 0.62399 0.0
H758 H 0.78974 0.39864 0.62002 0.0
H759 H 0.80684 0.33911 0.6018 0.0
H760 H 0.91479 0.38984 0.55115 0.0
H761 H 0.93087 0.47517 0.55587 0.0
C762 C 0.88542 0.50537 0.58377 0.0
C763 C 0.85831 0.51542 0.59899 0.0
C764 C 0.87778 0.45664 0.58141 0.0
C765 C 0.82415 0.47619 0.61202 0.0
C766 C 0.81657 0.42798 0.60981 0.0
C767 C 0.83418 0.3688 0.59186 0.0
C768 C 0.85945 0.35787 0.57614 0.0
C769 C 0.84289 0.41767 0.5945 0.0
C770 C 0.89473 0.39703 0.56341 0.0
C771 C 0.90388 0.44591 0.56606 0.0
H772 H 0.47196 0.8073 0.7446 0.0
H773 H 0.56802 0.96611 0.75278 0.0
H774 H 0.49539 0.97534 0.76047 0.0
H775 H 0.40409 0.93818 0.76431 0.0
H776 H 0.30921 0.77849 0.75933 0.0
H777 H 0.38165 0.76955 0.75084 0.0
C778 C 0.47693 0.84387 0.74818 0.0
C779 C 0.52516 0.88599 0.74806 0.0
C780 C 0.43516 0.84871 0.753 0.0
C781 C 0.53125 0.9331 0.75291 0.0
C782 C 0.48972 0.93843 0.75718 0.0
C783 C 0.39942 0.90153 0.76125 0.0
C784 C 0.35149 0.85909 0.76212 0.0
C785 C 0.44146 0.89654 0.75713 0.0
C786 C 0.34583 0.81165 0.75862 0.0
C787 C 0.38719 0.80654 0.75379 0.0
H788 H 0.51942 0.38573 0.95418 0.0
H789 H 0.47331 0.35015 0.88896 0.0
H790 H 0.54655 0.42796 0.87755 0.0
H791 H 0.62566 0.50411 0.88608 0.0
H792 H 0.66871 0.54309 0.95138 0.0
H793 H 0.59444 0.4661 0.9629 0.0
C794 C 0.52539 0.39524 0.93748 0.0
C795 C 0.49147 0.36214 0.92238 0.0
C796 C 0.56693 0.44051 0.93111 0.0
C797 C 0.499 0.3751 0.90084 0.0
C798 C 0.54091 0.41946 0.89432 0.0
C799 C 0.61853 0.49583 0.90283 0.0
C800 C 0.65272 0.52881 0.91789 0.0
C801 C 0.5754 0.45212 0.9093 0.0
C802 C 0.64282 0.5182 0.93954 0.0
C803 C 0.60053 0.47413 0.9461 0.0
H804 H 0.18307 0.117 0.18591 0.0
H805 H 0.33253 0.24462 0.18732 0.0
H806 H 0.30374 0.2945 0.16878 0.0
H807 H 0.23703 0.30272 0.15217 0.0
H808 H 0.08741 0.17595 0.14971 0.0
H809 H 0.11558 0.12527 0.16865 0.0
C810 C 0.20938 0.1557 0.18216 0.0
C811 C 0.26 0.17674 0.1881 0.0
C812 C 0.19263 0.18454 0.17131 0.0
C813 C 0.29341 0.22707 0.18301 0.0
C814 C 0.277 0.25585 0.17238 0.0
C815 C 0.21034 0.26402 0.15575 0.0
C816 C 0.16005 0.24339 0.1495 0.0
C817 C 0.22678 0.23503 0.16647 0.0
C818 C 0.12634 0.19299 0.15429 0.0
C819 C 0.14243 0.16392 0.16514 0.0
H820 H 0.93451 0.13067 0.32121 0.0
H821 H 0.91644 0.26061 0.31938 0.0
H822 H 0.99993 0.3116 0.33419 0.0
H823 H 0.07833 0.31966 0.34745 0.0
H824 H 0.09615 0.18957 0.34936 0.0
H825 H 0.01284 0.13874 0.33437 0.0
C826 C 0.94856 0.17005 0.32417 0.0
C827 C 0.9189 0.19154 0.31922 0.0
C828 C 0.9969 0.19942 0.33247 0.0
C829 C 0.93816 0.24283 0.32307 0.0
C830 C 0.98609 0.27218 0.33147 0.0
C831 C 0.06424 0.28028 0.34447 0.0
C832 C 0.09373 0.25867 0.34955 0.0
C833 C 0.01592 0.25095 0.33611 0.0
C834 C 0.07447 0.2074 0.34563 0.0
C835 C 0.02667 0.17815 0.33712 0.0
H836 H 0.87378 0.0634 0.52091 0.0
H837 H 0.74837 0.08878 0.51812 0.0
H838 H 0.6967 0.00646 0.50254 0.0
H839 H 0.68701 0.92761 0.48919 0.0
H840 H 0.81295 0.90314 0.49081 0.0
H841 H 0.86403 0.98441 0.50756 0.0
C842 C 0.8352 0.05108 0.51687 0.0
C843 C 0.81528 0.0826 0.52068 0.0
C844 C 0.8055 0.0036 0.50779 0.0
C845 C 0.76503 0.06566 0.51533 0.0
C846 C 0.73524 0.0184 0.50645 0.0
C847 C 0.72549 0.9398 0.49334 0.0
C848 C 0.74597 0.90916 0.48873 0.0
C849 C 0.75506 0.98706 0.5026 0.0
C850 C 0.79613 0.92591 0.49412 0.0
C851 C 0.82548 0.97248 0.50367 0.0
H852 H 0.7691 0.70864 0.64713 0.0
H853 H 0.91554 0.84042 0.64819 0.0
H854 H 0.88106 0.88682 0.66609 0.0
H855 H 0.80924 0.88914 0.68217 0.0
H856 H 0.66365 0.75582 0.68067 0.0
H857 H 0.69827 0.7112 0.66219 0.0
C858 C 0.79376 0.74755 0.6512 0.0
C859 C 0.845 0.7708 0.64636 0.0
C860 C 0.77382 0.77386 0.66147 0.0
C861 C 0.87597 0.82141 0.65173 0.0
C862 C 0.85627 0.84799 0.66199 0.0
C863 C 0.78502 0.8504 0.67772 0.0
C864 C 0.73379 0.82611 0.6829 0.0
C865 C 0.80522 0.82449 0.66705 0.0
C866 C 0.70314 0.77577 0.67698 0.0
C867 C 0.72289 0.75001 0.66639 0.0
H868 H 0.93305 0.81178 0.84866 0.0
H869 H 0.91405 0.6633 0.84722 0.0
H870 H 0.99341 0.69501 0.82912 0.0
H871 H 0.06896 0.76432 0.81443 0.0
H872 H 0.08948 0.91325 0.81528 0.0
H873 H 0.00873 0.88166 0.83282 0.0
C874 C 0.94611 0.7863 0.84431 0.0
C875 C 0.91734 0.73517 0.84941 0.0
C876 C 0.99218 0.80476 0.83383 0.0
C877 C 0.9351 0.70281 0.84359 0.0
C878 C 0.98066 0.72088 0.83322 0.0
C879 C 0.05595 0.79007 0.81838 0.0
C880 C 0.08555 0.84118 0.81358 0.0
C881 C 0.00962 0.77175 0.8284 0.0
C882 C 0.0676 0.8737 0.81877 0.0
C883 C 0.02141 0.85568 0.82883 0.0
H884 H 0.25421 0.92684 0.01583 0.0
H885 H 0.10783 0.91285 0.01549 0.0
H886 H 0.14268 0.99604 1.00031 0.0
H887 H 0.21425 0.07301 0.98745 0.0
H888 H 0.36092 0.08783 0.98758 0.0
H889 H 0.32625 0.00432 0.00273 0.0
C890 C 0.22982 0.94179 0.01234 0.0
C891 C 0.17839 0.91334 0.01684 0.0
C892 C 0.25015 0.99008 0.00374 0.0
C893 C 0.14754 0.93368 0.01225 0.0
C894 C 0.16743 0.98142 0.00359 0.0
C895 C 0.23885 0.05827 0.99088 0.0
C896 C 0.29023 0.087 0.98642 0.0
C897 C 0.21868 0.01005 0.9994 0.0
C898 C 0.32126 0.0668 0.99088 0.0
C899 C 0.30144 0.0189 0.9995 0.0
H900 H 0.24845 0.34319 0.07611 0.0
H901 H 0.10286 0.27652 0.04685 0.0
H902 H 0.134 0.25172 0.01632 0.0
H903 H 0.20104 0.24365 0.99915 0.0
H904 H 0.34431 0.30345 0.03008 0.0
H905 H 0.31577 0.33625 0.05874 0.0
C906 C 0.22376 0.32393 0.06291 0.0
C907 C 0.17346 0.3119 0.06372 0.0
C908 C 0.24143 0.30808 0.04581 0.0
C909 C 0.14171 0.28619 0.04662 0.0
C910 C 0.15947 0.2719 0.02919 0.0
C911 C 0.22614 0.26431 0.01206 0.0
C912 C 0.27468 0.27112 0.01252 0.0
C913 C 0.20901 0.28179 0.02879 0.0
C914 C 0.30666 0.29748 0.02945 0.0
C915 C 0.2904 0.31632 0.04582 0.0
H916 H 0.82886 0.17516 0.21169 0.0
H917 H 0.93844 0.20473 0.2603 0.0
H918 H 0.00593 0.24788 0.23478 0.0
H919 H 0.03372 0.27214 0.19834 0.0
H920 H 0.92499 0.23825 0.14875 0.0
H921 H 0.85751 0.20227 0.1748 0.0
C922 C 0.86759 0.19172 0.2166 0.0
C923 C 0.87899 0.18698 0.23771 0.0
C924 C 0.90634 0.21537 0.20165 0.0
C925 C 0.9291 0.20793 0.24402 0.0
C926 C 0.96764 0.23254 0.22947 0.0
C927 C 0.99533 0.25739 0.19323 0.0
C928 C 0.98448 0.25779 0.17163 0.0
C929 C 0.95671 0.23573 0.20818 0.0
C930 C 0.93441 0.23821 0.1653 0.0
C931 C 0.89575 0.21759 0.18018 0.0
H932 H 0.69493 0.99971 0.35816 0.0
H933 H 0.78483 0.95017 0.32541 0.0
H934 H 0.76515 0.88615 0.35232 0.0
H935 H 0.72596 0.84707 0.38622 0.0
H936 H 0.6315 0.89286 0.41774 0.0
H937 H 0.64892 0.95487 0.39024 0.0
C938 C 0.70988 0.97462 0.35689 0.0
C939 C 0.74158 0.97992 0.33995 0.0
C940 C 0.69764 0.93719 0.37222 0.0
C941 C 0.76023 0.94679 0.33829 0.0
C942 C 0.74915 0.91027 0.35372 0.0
C943 C 0.70884 0.8703 0.38697 0.0
C944 C 0.67787 0.86555 0.40417 0.0
C945 C 0.71841 0.90551 0.3709 0.0
C946 C 0.65551 0.89561 0.40473 0.0
C947 C 0.66562 0.93134 0.38903 0.0
H948 H 0.76768 0.65455 0.57115 0.0
H949 H 0.91849 0.7443 0.54831 0.0
H950 H 0.88736 0.76386 0.51617 0.0
H951 H 0.81759 0.76184 0.49604 0.0
H952 H 0.66835 0.68025 0.52132 0.0
H953 H 0.69825 0.6509 0.55087 0.0
C954 C 0.79374 0.67779 0.55903 0.0
C955 C 0.84537 0.69787 0.56218 0.0
C956 C 0.77572 0.69064 0.54102 0.0
C957 C 0.87858 0.7284 0.54634 0.0
C958 C 0.86079 0.7397 0.52795 0.0
C959 C 0.79165 0.73692 0.50786 0.0
C960 C 0.74087 0.72291 0.50652 0.0
C961 C 0.80951 0.72197 0.52533 0.0
C962 C 0.70762 0.69143 0.52208 0.0
C963 C 0.7247 0.67473 0.53898 0.0
H964 H 0.11157 0.7727 0.74049 0.0
H965 H 0.19689 0.92125 0.71471 0.0
H966 H 0.14432 0.89479 0.68284 0.0
H967 H 0.06995 0.83056 0.66353 0.0
H968 H 0.97949 0.6856 0.69195 0.0
H969 H 0.03809 0.70932 0.72159 0.0
C970 C 0.11923 0.79913 0.72778 0.0
C971 C 0.15838 0.84874 0.72989 0.0
C972 C 0.08748 0.7843 0.71007 0.0
C973 C 0.16711 0.88278 0.71342 0.0
C974 C 0.13695 0.8677 0.69525 0.0
C975 C 0.06352 0.80415 0.67615 0.0
C976 C 0.02068 0.75639 0.6756 0.0
C977 C 0.09641 0.81876 0.69357 0.0
C978 C 0.01216 0.72262 0.69213 0.0
C979 C 0.04567 0.73613 0.70903 0.0
H980 H 0.26298 0.07909 0.91547 0.0
H981 H 0.39036 0.19828 0.88399 0.0
H982 H 0.37259 0.14571 0.85231 0.0
H983 H 0.31945 0.06546 0.83357 0.0
H984 H 0.19672 0.94491 0.867 0.0
H985 H 0.21397 0.99826 0.89796 0.0
C986 C 0.28666 0.09358 0.90161 0.0
C987 C 0.32735 0.14254 0.9018 0.0
C988 C 0.27707 0.06281 0.88388 0.0
C989 C 0.35865 0.16065 0.88404 0.0
C990 C 0.34845 0.13066 0.86598 0.0
C991 C 0.29669 0.05102 0.84768 0.0
C992 C 0.25674 1.00144 0.84799 0.0
C993 C 0.30759 0.08165 0.8657 0.0
C994 C 0.22781 0.98286 0.86642 0.0
C995 C 0.2375 0.01338 0.8841 0.0
H996 H 0.66311 0.76828 0.76028 0.0
H997 H 0.73532 0.91755 0.78587 0.0
H998 H 0.76168 0.88938 0.81706 0.0
H999 H 0.76844 0.82321 0.83601 0.0
H1000 H 0.70335 0.67598 0.8085 0.0
H1001 H 0.66994 0.70223 0.77913 0.0
C1002 C 0.68394 0.79439 0.77285 0.0
C1003 C 0.69693 0.84479 0.7709 0.0
C1004 C 0.70064 0.77832 0.79028 0.0
C1005 C 0.72487 0.87855 0.78707 0.0
C1006 C 0.74 0.86247 0.80486 0.0
C1007 C 0.74657 0.79683 0.82366 0.0
C1008 C 0.73827 0.74774 0.82441 0.0
C1009 C 0.72879 0.81261 0.80648 0.0
C1010 C 0.71044 0.71405 0.80819 0.0
C1011 C 0.69123 0.729 0.79143 0.0
H1012 H 0.90355 0.66255 0.92578 0.0
H1013 H 0.82732 0.73364 0.95327 0.0
H1014 H 0.88012 0.7551 0.9849 0.0
H1015 H 0.9519 0.75857 0.00369 0.0
H1016 H 0.03375 0.69541 0.9743 0.0
H1017 H 0.97496 0.66569 0.94457 0.0
C1018 C 0.89807 0.68202 0.93886 0.0
C1019 C 0.86146 0.69622 0.93732 0.0
C1020 C 0.92991 0.69597 0.95659 0.0
C1021 C 0.85533 0.72238 0.95415 0.0
C1022 C 0.88553 0.73468 0.97221 0.0
C1023 C 0.95641 0.73779 0.99087 0.0
C1024 C 0.9969 0.729 0.99118 0.0
C1025 C 0.92352 0.72242 0.97346 0.0
C1026 C 1.00289 0.70272 0.97435 0.0
C1027 C 0.9693 0.6857 0.95737 0.0
H1028 H 0.11325 0.84476 0.11466 0.0
H1029 H 0.25811 0.87774 0.09168 0.0
H1030 H 0.29867 0.93935 0.11966 0.0
H1031 H 0.29348 0.98737 0.14972 0.0
H1032 H 0.1491 0.9499 0.17461 0.0
H1033 H 0.10798 0.88686 0.14688 0.0
C1034 C 0.15367 0.86499 0.11591 0.0
C1035 C 0.18244 0.8568 0.10089 0.0
C1036 C 0.17695 0.90005 0.1323 0.0
C1037 C 0.23484 0.88313 0.10293 0.0
C1038 C 0.25822 0.91869 0.1189 0.0
C1039 C 0.25303 0.96527 0.14903 0.0
C1040 C 0.22427 0.97357 0.16393 0.0
C1041 C 0.22971 0.92808 0.13345 0.0
C1042 C 0.17194 0.94417 0.16321 0.0
C1043 C 0.14844 0.90817 0.14737 0.0
H1044 H 0.34316 0.23386 0.26329 0.0
H1045 H 0.26983 0.08776 0.2919 0.0
H1046 H 0.25216 0.12172 0.32363 0.0
H1047 H 0.25089 0.19164 0.34186 0.0
H1048 H 0.31597 0.33552 0.31132 0.0
H1049 H 0.34391 0.30419 0.28187 0.0
C1050 C 0.32423 0.20977 0.27667 0.0
C1051 C 0.30808 0.15852 0.27537 0.0
C1052 C 0.31233 0.22919 0.29444 0.0
C1053 C 0.28258 0.12736 0.29259 0.0
C1054 C 0.27241 0.14675 0.31069 0.0
C1055 C 0.27189 0.21624 0.3289 0.0
C1056 C 0.28154 0.2658 0.32874 0.0
C1057 C 0.28609 0.1974 0.31161 0.0
C1058 C 0.30804 0.29716 0.31172 0.0
C1059 C 0.32399 0.27928 0.29489 0.0
H1060 H 0.15629 0.26999 0.44908 0.0
H1061 H 0.115 0.37225 0.42146 0.0
H1062 H 0.05126 0.35036 0.44853 0.0
H1063 H 0.00419 0.29906 0.47916 0.0
H1064 H 0.04945 0.20161 0.50836 0.0
H1065 H 0.11442 0.22451 0.48157 0.0
C1066 C 0.13371 0.28788 0.4491 0.0
C1067 C 0.14026 0.3224 0.43311 0.0
C1068 C 0.09742 0.27559 0.4649 0.0
C1069 C 0.11093 0.34557 0.43354 0.0
C1070 C 0.07417 0.33287 0.44896 0.0
C1071 C 0.02836 0.28293 0.4796 0.0
C1072 C 0.02178 0.24827 0.49547 0.0
C1073 C 0.06653 0.29734 0.46452 0.0
C1074 C 0.05383 0.22828 0.4962 0.0
C1075 C 0.09093 0.24134 0.4809 0.0
H1076 H 0.80434 0.06627 0.67193 0.0
H1077 H 0.67078 0.96622 0.63716 0.0
H1078 H 0.6981 0.02486 0.60746 0.0
H1079 H 0.76343 0.10131 0.59022 0.0
H1080 H 0.89999 0.19695 0.62382 0.0
H1081 H 0.86784 0.14393 0.65531 0.0
C1082 C 0.78092 0.05751 0.65795 0.0
C1083 C 0.7357 0.01184 0.65672 0.0
C1084 C 0.79741 0.09081 0.64077 0.0
C1085 C 0.70596 1.00094 0.63843 0.0
C1086 C 0.72149 0.03451 0.62147 0.0
C1087 C 0.78537 0.11112 0.60468 0.0
C1088 C 0.83347 0.15326 0.605 0.0
C1089 C 0.76752 0.07917 0.62232 0.0
C1090 C 0.86254 0.16495 0.62346 0.0
C1091 C 0.84432 0.13448 0.64135 0.0
loop_
_geom_bond_atom_site_label_1
_geom_bond_atom_site_label_2
_geom_bond_distance
_geom_bond_site_symmetry_2
_ccdc_geom_bond_type
Co0 O2 2.143 . S
Co0 O8 2.074 . S
Co0 O11 2.093 . S
Co0 O24 2.097 . S
Co0 N41 2.151 . S
Co0 N49 2.214 . S
Co1 O2 2.160 . S
Co1 O7 2.058 . S
Co1 O17 2.057 . S
Co1 O32 2.037 . S
Co1 N36 2.145 . S
Co1 N57 2.257 . S
O2 Co0 2.143 . S
O2 Co1 2.160 . S
C3 O4 1.278 . S
C3 O11 1.224 . S
O4 C3 1.278 . S
C5 O6 1.245 . S
C5 O17 1.232 . S
O6 C5 1.245 . S
O7 Co1 2.058 . S
O7 C33 1.269 . S
O8 Co0 2.074 . S
O8 C33 1.257 . S
H9 C34 0.930 . S
H10 C40 0.930 1_455 S
O11 Co0 2.093 . S
O11 C3 1.224 . S
H12 C44 0.929 . S
H13 C46 0.930 1_655 S
H14 C47 0.930 . S
H15 C45 0.929 . S
H16 C48 0.928 . S
O17 Co1 2.057 . S
O17 C5 1.232 . S
H18 C37 0.929 . S
H19 C38 0.929 . S
H20 C50 0.931 . S
H21 C42 0.929 . S
H22 C51 0.930 . S
H23 C43 0.931 . S
O24 Co0 2.097 . S
O24 C52 1.214 . S
H25 C53 0.929 . S
H26 C54 0.929 . S
H27 C55 0.930 . S
H28 C56 0.929 . S
H29 C58 0.930 . S
H30 C35 0.930 . S
H31 C39 0.930 . S
O32 Co1 2.037 . S
O32 C52 1.234 . S
C33 O7 1.269 . S
C33 O8 1.257 . S
C34 H9 0.930 . S
C34 C37 1.388 . S
C34 C39 1.418 . S
C35 H30 0.930 . S
C35 C38 1.404 . S
C35 C39 1.353 . S
N36 Co1 2.145 . S
N36 C37 1.397 . S
N36 C38 1.334 . S
C37 H18 0.929 . S
C37 C34 1.388 . S
C37 N36 1.397 . S
C38 H19 0.929 . S
C38 C35 1.404 . S
C38 N36 1.334 . S
C39 H31 0.930 . S
C39 C34 1.418 . S
C39 C35 1.353 . S
C40 H10 0.930 1_655 S
C40 N41 1.330 1_655 S
C40 C42 1.446 . S
N41 Co0 2.151 . S
N41 C40 1.330 1_455 S
N41 C45 1.418 . S
C42 H21 0.929 . S
C42 C40 1.446 . S
C42 C43 1.332 . S
C43 H23 0.931 . S
C43 C42 1.332 . S
C43 C44 1.267 . S
C44 H12 0.929 . S
C44 C43 1.267 . S
C44 C45 1.251 1_655 S
C45 H15 0.929 . S
C45 N41 1.418 . S
C45 C44 1.251 1_455 S
C46 H13 0.930 1_455 S
C46 C48 1.406 . S
C46 C51 1.261 . S
C47 H14 0.930 . S
C47 N49 1.325 . S
C47 C50 1.357 . S
C48 H16 0.928 . S
C48 C46 1.406 . S
C48 N49 1.261 . S
N49 Co0 2.214 . S
N49 C47 1.325 . S
N49 C48 1.261 . S
C50 H20 0.931 . S
C50 C47 1.357 . S
C50 C51 1.312 . S
C51 H22 0.930 . S
C51 C46 1.261 . S
C51 C50 1.312 . S
C52 O24 1.214 . S
C52 O32 1.234 . S
C53 H25 0.929 . S
C53 C56 1.391 . S
C53 C58 1.391 . S
C54 H26 0.929 . S
C54 C55 1.390 . S
C54 N57 1.391 . S
C55 H27 0.930 . S
C55 C54 1.390 . S
C55 C56 1.392 . S
C56 H28 0.929 . S
C56 C53 1.391 . S
C56 C55 1.392 . S
N57 Co1 2.257 . S
N57 C54 1.391 . S
N57 C58 1.388 . S
C58 H29 0.930 . S
C58 C53 1.391 . S
C58 N57 1.388 . S
Co59 O61 2.143 . S
Co59 O67 2.074 . S
Co59 O70 2.093 . S
Co59 O83 2.097 . S
Co59 N100 2.151 . S
Co59 N108 2.214 . S
Co60 O61 2.160 . S
Co60 O66 2.058 . S
Co60 O76 2.057 . S
Co60 O91 2.037 . S
Co60 N95 2.145 . S
Co60 N116 2.257 . S
O61 Co59 2.143 . S
O61 Co60 2.160 . S
C62 O63 1.278 . S
C62 O70 1.224 . S
O63 C62 1.278 . S
C64 O65 1.245 . S
C64 O76 1.232 . S
O65 C64 1.245 . S
O66 Co60 2.058 . S
O66 C92 1.269 . S
O67 Co59 2.074 . S
O67 C92 1.257 . S
H68 C93 0.930 . S
H69 C99 0.930 1_545 S
O70 Co59 2.093 . S
O70 C62 1.224 . S
H71 C103 0.929 . S
H72 C105 0.930 1_565 S
H73 C106 0.930 . S
H74 C104 0.929 . S
H75 C107 0.928 . S
O76 Co60 2.057 . S
O76 C64 1.232 . S
H77 C96 0.929 . S
H78 C97 0.929 . S
H79 C109 0.931 . S
H80 C101 0.929 . S
H81 C110 0.930 . S
H82 C102 0.931 . S
O83 Co59 2.097 . S
O83 C111 1.214 . S
H84 C112 0.929 . S
H85 C113 0.929 . S
H86 C114 0.930 . S
H87 C115 0.929 . S
H88 C117 0.930 . S
H89 C94 0.930 . S
H90 C98 0.930 . S
O91 Co60 2.037 . S
O91 C111 1.234 . S
C92 O66 1.269 . S
C92 O67 1.257 . S
C93 H68 0.930 . S
C93 C96 1.388 . S
C93 C98 1.418 . S
C94 H89 0.930 . S
C94 C97 1.404 . S
C94 C98 1.353 . S
N95 Co60 2.145 . S
N95 C96 1.397 . S
N95 C97 1.334 . S
C96 H77 0.929 . S
C96 C93 1.388 . S
C96 N95 1.397 . S
C97 H78 0.929 . S
C97 C94 1.404 . S
C97 N95 1.334 . S
C98 H90 0.930 . S
C98 C93 1.418 . S
C98 C94 1.353 . S
C99 H69 0.930 1_565 S
C99 N100 1.330 1_565 S
C99 C101 1.446 . S
N100 Co59 2.151 . S
N100 C99 1.330 1_545 S
N100 C104 1.418 . S
C101 H80 0.929 . S
C101 C99 1.446 . S
C101 C102 1.332 . S
C102 H82 0.931 . S
C102 C101 1.332 . S
C102 C103 1.267 . S
C103 H71 0.929 . S
C103 C102 1.267 . S
C103 C104 1.251 1_565 S
C104 H74 0.929 . S
C104 N100 1.418 . S
C104 C103 1.251 1_545 S
C105 H72 0.930 1_545 S
C105 C107 1.406 . S
C105 C110 1.261 . S
C106 H73 0.930 . S
C106 N108 1.325 . S
C106 C109 1.357 . S
C107 H75 0.928 . S
C107 C105 1.406 . S
C107 N108 1.261 . S
N108 Co59 2.214 . S
N108 C106 1.325 . S
N108 C107 1.261 . S
C109 H79 0.931 . S
C109 C106 1.357 . S
C109 C110 1.312 . S
C110 H81 0.930 . S
C110 C105 1.261 . S
C110 C109 1.312 . S
C111 O83 1.214 . S
C111 O91 1.234 . S
C112 H84 0.929 . S
C112 C115 1.391 . S
C112 C117 1.391 . S
C113 H85 0.929 . S
C113 C114 1.390 . S
C113 N116 1.391 . S
C114 H86 0.930 . S
C114 C113 1.390 . S
C114 C115 1.392 . S
C115 H87 0.929 . S
C115 C112 1.391 . S
C115 C114 1.392 . S
N116 Co60 2.257 . S
N116 C113 1.391 . S
N116 C117 1.388 . S
C117 H88 0.930 . S
C117 C112 1.391 . S
C117 N116 1.388 . S
Co118 O120 2.143 . S
Co118 O126 2.074 . S
Co118 O129 2.093 . S
Co118 O142 2.097 . S
Co118 N159 2.151 . S
Co118 N167 2.214 . S
Co119 O120 2.160 . S
Co119 O125 2.058 . S
Co119 O135 2.057 . S
Co119 O150 2.037 . S
Co119 N154 2.145 . S
Co119 N175 2.257 . S
O120 Co118 2.143 . S
O120 Co119 2.160 . S
C121 O122 1.278 . S
C121 O129 1.224 . S
O122 C121 1.278 . S
C123 O124 1.245 . S
C123 O135 1.232 . S
O124 C123 1.245 . S
O125 Co119 2.058 . S
O125 C151 1.269 . S
O126 Co118 2.074 . S
O126 C151 1.257 . S
H127 C152 0.930 . S
H128 C158 0.930 . S
O129 Co118 2.093 . S
O129 C121 1.224 . S
H130 C162 0.929 . S
H131 C164 0.930 . S
H132 C165 0.930 . S
H133 C163 0.929 . S
H134 C166 0.928 . S
O135 Co119 2.057 . S
O135 C123 1.232 . S
H136 C155 0.929 . S
H137 C156 0.929 . S
H138 C168 0.931 . S
H139 C160 0.929 . S
H140 C169 0.930 . S
H141 C161 0.931 . S
O142 Co118 2.097 . S
O142 C170 1.214 . S
H143 C171 0.929 . S
H144 C172 0.929 . S
H145 C173 0.930 . S
H146 C174 0.929 . S
H147 C176 0.930 . S
H148 C153 0.930 . S
H149 C157 0.930 . S
O150 Co119 2.037 . S
O150 C170 1.234 . S
C151 O125 1.269 . S
C151 O126 1.257 . S
C152 H127 0.930 . S
C152 C155 1.388 . S
C152 C157 1.418 . S
C153 H148 0.930 . S
C153 C156 1.404 . S
C153 C157 1.353 . S
N154 Co119 2.145 . S
N154 C155 1.397 . S
N154 C156 1.334 . S
C155 H136 0.929 . S
C155 C152 1.388 . S
C155 N154 1.397 . S
C156 H137 0.929 . S
C156 C153 1.404 . S
C156 N154 1.334 . S
C157 H149 0.930 . S
C157 C152 1.418 . S
C157 C153 1.353 . S
C158 H128 0.930 . S
C158 N159 1.330 . S
C158 C160 1.446 . S
N159 Co118 2.151 . S
N159 C158 1.330 . S
N159 C163 1.418 . S
C160 H139 0.929 . S
C160 C158 1.446 . S
C160 C161 1.332 . S
C161 H141 0.931 . S
C161 C160 1.332 . S
C161 C162 1.267 . S
C162 H130 0.929 . S
C162 C161 1.267 . S
C162 C163 1.251 . S
C163 H133 0.929 . S
C163 N159 1.418 . S
C163 C162 1.251 . S
C164 H131 0.930 . S
C164 C166 1.406 . S
C164 C169 1.261 . S
C165 H132 0.930 . S
C165 N167 1.325 . S
C165 C168 1.357 . S
C166 H134 0.928 . S
C166 C164 1.406 . S
C166 N167 1.261 . S
N167 Co118 2.214 . S
N167 C165 1.325 . S
N167 C166 1.261 . S
C168 H138 0.931 . S
C168 C165 1.357 . S
C168 C169 1.312 . S
C169 H140 0.930 . S
C169 C164 1.261 . S
C169 C168 1.312 . S
C170 O142 1.214 . S
C170 O150 1.234 . S
C171 H143 0.929 . S
C171 C174 1.391 . S
C171 C176 1.391 . S
C172 H144 0.929 . S
C172 C173 1.390 . S
C172 N175 1.391 . S
C173 H145 0.930 . S
C173 C172 1.390 . S
C173 C174 1.392 . S
C174 H146 0.929 . S
C174 C171 1.391 . S
C174 C173 1.392 . S
N175 Co119 2.257 . S
N175 C172 1.391 . S
N175 C176 1.388 . S
C176 H147 0.930 . S
C176 C171 1.391 . S
C176 N175 1.388 . S
Co177 O179 2.143 . S
Co177 O185 2.074 . S
Co177 O188 2.093 . S
Co177 O201 2.097 . S
Co177 N218 2.151 . S
Co177 N226 2.214 . S
Co178 O179 2.160 . S
Co178 O184 2.058 . S
Co178 O194 2.057 . S
Co178 O209 2.037 . S
Co178 N213 2.145 . S
Co178 N234 2.257 . S
O179 Co177 2.143 . S
O179 Co178 2.160 . S
C180 O181 1.278 . S
C180 O188 1.224 . S
O181 C180 1.278 . S
C182 O183 1.245 . S
C182 O194 1.232 . S
O183 C182 1.245 . S
O184 Co178 2.058 . S
O184 C210 1.269 . S
O185 Co177 2.074 . S
O185 C210 1.257 . S
H186 C211 0.930 . S
H187 C217 0.930 1_655 S
O188 Co177 2.093 . S
O188 C180 1.224 . S
H189 C221 0.929 . S
H190 C223 0.930 1_455 S
H191 C224 0.930 . S
H192 C222 0.929 . S
H193 C225 0.928 . S
O194 Co178 2.057 . S
O194 C182 1.232 . S
H195 C214 0.929 . S
H196 C215 0.929 . S
H197 C227 0.931 . S
H198 C219 0.929 . S
H199 C228 0.930 . S
H200 C220 0.931 . S
O201 Co177 2.097 . S
O201 C229 1.214 . S
H202 C230 0.929 . S
H203 C231 0.929 . S
H204 C232 0.930 . S
H205 C233 0.929 . S
H206 C235 0.930 . S
H207 C212 0.930 . S
H208 C216 0.930 . S
O209 Co178 2.037 . S
O209 C229 1.234 . S
C210 O184 1.269 . S
C210 O185 1.257 . S
C211 H186 0.930 . S
C211 C214 1.388 . S
C211 C216 1.418 . S
C212 H207 0.930 . S
C212 C215 1.404 . S
C212 C216 1.353 . S
N213 Co178 2.145 . S
N213 C214 1.397 . S
N213 C215 1.334 . S
C214 H195 0.929 . S
C214 C211 1.388 . S
C214 N213 1.397 . S
C215 H196 0.929 . S
C215 C212 1.404 . S
C215 N213 1.334 . S
C216 H208 0.930 . S
C216 C211 1.418 . S
C216 C212 1.353 . S
C217 H187 0.930 1_455 S
C217 N218 1.330 1_455 S
C217 C219 1.446 . S
N218 Co177 2.151 . S
N218 C217 1.330 1_655 S
N218 C222 1.418 . S
C219 H198 0.929 . S
C219 C217 1.446 . S
C219 C220 1.332 . S
C220 H200 0.931 . S
C220 C219 1.332 . S
C220 C221 1.267 . S
C221 H189 0.929 . S
C221 C220 1.267 . S
C221 C222 1.251 1_455 S
C222 H192 0.929 . S
C222 N218 1.418 . S
C222 C221 1.251 1_655 S
C223 H190 0.930 1_655 S
C223 C225 1.406 . S
C223 C228 1.261 . S
C224 H191 0.930 . S
C224 N226 1.325 . S
C224 C227 1.357 . S
C225 H193 0.928 . S
C225 C223 1.406 . S
C225 N226 1.261 . S
N226 Co177 2.214 . S
N226 C224 1.325 . S
N226 C225 1.261 . S
C227 H197 0.931 . S
C227 C224 1.357 . S
C227 C228 1.312 . S
C228 H199 0.930 . S
C228 C223 1.261 . S
C228 C227 1.312 . S
C229 O201 1.214 . S
C229 O209 1.234 . S
C230 H202 0.929 . S
C230 C233 1.391 . S
C230 C235 1.391 . S
C231 H203 0.929 . S
C231 C232 1.390 . S
C231 N234 1.391 . S
C232 H204 0.930 . S
C232 C231 1.390 . S
C232 C233 1.392 . S
C233 H205 0.929 . S
C233 C230 1.391 . S
C233 C232 1.392 . S
N234 Co178 2.257 . S
N234 C231 1.391 . S
N234 C235 1.388 . S
C235 H206 0.930 . S
C235 C230 1.391 . S
C235 N234 1.388 . S
Co236 O238 2.143 . S
Co236 O244 2.074 . S
Co236 O247 2.093 . S
Co236 O260 2.097 . S
Co236 N277 2.151 . S
Co236 N285 2.214 . S
Co237 O238 2.160 . S
Co237 O243 2.058 . S
Co237 O253 2.057 . S
Co237 O268 2.037 . S
Co237 N272 2.145 . S
Co237 N293 2.257 . S
O238 Co236 2.143 . S
O238 Co237 2.160 . S
C239 O240 1.278 . S
C239 O247 1.224 . S
O240 C239 1.278 . S
C241 O242 1.245 . S
C241 O253 1.232 . S
O242 C241 1.245 . S
O243 Co237 2.058 . S
O243 C269 1.269 . S
O244 Co236 2.074 . S
O244 C269 1.257 . S
H245 C270 0.930 . S
H246 C276 0.930 1_565 S
O247 Co236 2.093 . S
O247 C239 1.224 . S
H248 C280 0.929 . S
H249 C282 0.930 1_545 S
H250 C283 0.930 . S
H251 C281 0.929 . S
H252 C284 0.928 . S
O253 Co237 2.057 . S
O253 C241 1.232 . S
H254 C273 0.929 . S
H255 C274 0.929 . S
H256 C286 0.931 . S
H257 C278 0.929 . S
H258 C287 0.930 . S
H259 C279 0.931 . S
O260 Co236 2.097 . S
O260 C288 1.214 . S
H261 C289 0.929 . S
H262 C290 0.929 . S
H263 C291 0.930 . S
H264 C292 0.929 . S
H265 C294 0.930 . S
H266 C271 0.930 . S
H267 C275 0.930 . S
O268 Co237 2.037 . S
O268 C288 1.234 . S
C269 O243 1.269 . S
C269 O244 1.257 . S
C270 H245 0.930 . S
C270 C273 1.388 . S
C270 C275 1.418 . S
C271 H266 0.930 . S
C271 C274 1.404 . S
C271 C275 1.353 . S
N272 Co237 2.145 . S
N272 C273 1.397 . S
N272 C274 1.334 . S
C273 H254 0.929 . S
C273 C270 1.388 . S
C273 N272 1.397 . S
C274 H255 0.929 . S
C274 C271 1.404 . S
C274 N272 1.334 . S
C275 H267 0.930 . S
C275 C270 1.418 . S
C275 C271 1.353 . S
C276 H246 0.930 1_545 S
C276 N277 1.330 1_545 S
C276 C278 1.446 . S
N277 Co236 2.151 . S
N277 C276 1.330 1_565 S
N277 C281 1.418 . S
C278 H257 0.929 . S
C278 C276 1.446 . S
C278 C279 1.332 . S
C279 H259 0.931 . S
C279 C278 1.332 . S
C279 C280 1.267 . S
C280 H248 0.929 . S
C280 C279 1.267 . S
C280 C281 1.251 1_545 S
C281 H251 0.929 . S
C281 N277 1.418 . S
C281 C280 1.251 1_565 S
C282 H249 0.930 1_565 S
C282 C284 1.406 . S
C282 C287 1.261 . S
C283 H250 0.930 . S
C283 N285 1.325 . S
C283 C286 1.357 . S
C284 H252 0.928 . S
C284 C282 1.406 . S
C284 N285 1.261 . S
N285 Co236 2.214 . S
N285 C283 1.325 . S
N285 C284 1.261 . S
C286 H256 0.931 . S
C286 C283 1.357 . S
C286 C287 1.312 . S
C287 H258 0.930 . S
C287 C282 1.261 . S
C287 C286 1.312 . S
C288 O260 1.214 . S
C288 O268 1.234 . S
C289 H261 0.929 . S
C289 C292 1.391 . S
C289 C294 1.391 . S
C290 H262 0.929 . S
C290 C291 1.390 . S
C290 N293 1.391 . S
C291 H263 0.930 . S
C291 C290 1.390 . S
C291 C292 1.392 . S
C292 H264 0.929 . S
C292 C289 1.391 . S
C292 C291 1.392 . S
N293 Co237 2.257 . S
N293 C290 1.391 . S
N293 C294 1.388 . S
C294 H265 0.930 . S
C294 C289 1.391 . S
C294 N293 1.388 . S
Co295 O297 2.143 . S
Co295 O303 2.074 . S
Co295 O306 2.093 . S
Co295 O319 2.097 . S
Co295 N336 2.151 . S
Co295 N344 2.214 . S
Co296 O297 2.160 . S
Co296 O302 2.058 . S
Co296 O312 2.057 . S
Co296 O327 2.037 . S
Co296 N331 2.145 . S
Co296 N352 2.257 . S
O297 Co295 2.143 . S
O297 Co296 2.160 . S
C298 O299 1.278 . S
C298 O306 1.224 . S
O299 C298 1.278 . S
C300 O301 1.245 . S
C300 O312 1.232 . S
O301 C300 1.245 . S
O302 Co296 2.058 . S
O302 C328 1.269 . S
O303 Co295 2.074 . S
O303 C328 1.257 . S
H304 C329 0.930 . S
H305 C335 0.930 . S
O306 Co295 2.093 . S
O306 C298 1.224 . S
H307 C339 0.929 . S
H308 C341 0.930 . S
H309 C342 0.930 . S
H310 C340 0.929 . S
H311 C343 0.928 . S
O312 Co296 2.057 . S
O312 C300 1.232 . S
H313 C332 0.929 . S
H314 C333 0.929 . S
H315 C345 0.931 . S
H316 C337 0.929 . S
H317 C346 0.930 . S
H318 C338 0.931 . S
O319 Co295 2.097 . S
O319 C347 1.214 . S
H320 C348 0.929 . S
H321 C349 0.929 . S
H322 C350 0.930 . S
H323 C351 0.929 . S
H324 C353 0.930 . S
H325 C330 0.930 . S
H326 C334 0.930 . S
O327 Co296 2.037 . S
O327 C347 1.234 . S
C328 O302 1.269 . S
C328 O303 1.257 . S
C329 H304 0.930 . S
C329 C332 1.388 . S
C329 C334 1.418 . S
C330 H325 0.930 . S
C330 C333 1.404 . S
C330 C334 1.353 . S
N331 Co296 2.145 . S
N331 C332 1.397 . S
N331 C333 1.334 . S
C332 H313 0.929 . S
C332 C329 1.388 . S
C332 N331 1.397 . S
C333 H314 0.929 . S
C333 C330 1.404 . S
C333 N331 1.334 . S
C334 H326 0.930 . S
C334 C329 1.418 . S
C334 C330 1.353 . S
C335 H305 0.930 . S
C335 N336 1.330 . S
C335 C337 1.446 . S
N336 Co295 2.151 . S
N336 C335 1.330 . S
N336 C340 1.418 . S
C337 H316 0.929 . S
C337 C335 1.446 . S
C337 C338 1.332 . S
C338 H318 0.931 . S
C338 C337 1.332 . S
C338 C339 1.267 . S
C339 H307 0.929 . S
C339 C338 1.267 . S
C339 C340 1.251 . S
C340 H310 0.929 . S
C340 N336 1.418 . S
C340 C339 1.251 . S
C341 H308 0.930 . S
C341 C343 1.406 . S
C341 C346 1.261 . S
C342 H309 0.930 . S
C342 N344 1.325 . S
C342 C345 1.357 . S
C343 H311 0.928 . S
C343 C341 1.406 . S
C343 N344 1.261 . S
N344 Co295 2.214 . S
N344 C342 1.325 . S
N344 C343 1.261 . S
C345 H315 0.931 . S
C345 C342 1.357 . S
C345 C346 1.312 . S
C346 H317 0.930 . S
C346 C341 1.261 . S
C346 C345 1.312 . S
C347 O319 1.214 . S
C347 O327 1.234 . S
C348 H320 0.929 . S
C348 C351 1.391 . S
C348 C353 1.391 1_554 S
C349 H321 0.929 . S
C349 C350 1.390 1_556 S
C349 N352 1.391 . S
C350 H322 0.930 . S
C350 C349 1.390 1_554 S
C350 C351 1.392 . S
C351 H323 0.929 . S
C351 C348 1.391 . S
C351 C350 1.392 . S
N352 Co296 2.257 . S
N352 C349 1.391 . S
N352 C353 1.388 . S
C353 H324 0.930 . S
C353 C348 1.391 1_556 S
C353 N352 1.388 . S
Co354 O356 2.143 . S
Co354 O362 2.074 . S
Co354 O365 2.093 . S
Co354 O378 2.097 . S
Co354 N395 2.151 . S
Co354 N403 2.214 . S
Co355 O356 2.160 . S
Co355 O361 2.058 . S
Co355 O371 2.057 . S
Co355 O386 2.037 . S
Co355 N390 2.145 . S
Co355 N411 2.257 . S
O356 Co354 2.143 . S
O356 Co355 2.160 . S
C357 O358 1.278 . S
C357 O365 1.224 . S
O358 C357 1.278 . S
C359 O360 1.245 . S
C359 O371 1.232 . S
O360 C359 1.245 . S
O361 Co355 2.058 . S
O361 C387 1.269 . S
O362 Co354 2.074 . S
O362 C387 1.257 . S
H363 C388 0.930 . S
H364 C394 0.930 1_565 S
O365 Co354 2.093 . S
O365 C357 1.224 . S
H366 C398 0.929 . S
H367 C400 0.930 1_545 S
H368 C401 0.930 . S
H369 C399 0.929 . S
H370 C402 0.928 . S
O371 Co355 2.057 . S
O371 C359 1.232 . S
H372 C391 0.929 . S
H373 C392 0.929 . S
H374 C404 0.931 . S
H375 C396 0.929 . S
H376 C405 0.930 . S
H377 C397 0.931 . S
O378 Co354 2.097 . S
O378 C406 1.214 . S
H379 C407 0.929 . S
H380 C408 0.929 . S
H381 C409 0.930 . S
H382 C410 0.929 . S
H383 C412 0.930 . S
H384 C389 0.930 . S
H385 C393 0.930 . S
O386 Co355 2.037 . S
O386 C406 1.234 . S
C387 O361 1.269 . S
C387 O362 1.257 . S
C388 H363 0.930 . S
C388 C391 1.388 . S
C388 C393 1.418 . S
C389 H384 0.930 . S
C389 C392 1.404 . S
C389 C393 1.353 . S
N390 Co355 2.145 . S
N390 C391 1.397 . S
N390 C392 1.334 . S
C391 H372 0.929 . S
C391 C388 1.388 . S
C391 N390 1.397 . S
C392 H373 0.929 . S
C392 C389 1.404 . S
C392 N390 1.334 . S
C393 H385 0.930 . S
C393 C388 1.418 . S
C393 C389 1.353 . S
C394 H364 0.930 1_545 S
C394 N395 1.330 1_545 S
C394 C396 1.446 . S
N395 Co354 2.151 . S
N395 C394 1.330 1_565 S
N395 C399 1.418 . S
C396 H375 0.929 . S
C396 C394 1.446 . S
C396 C397 1.332 . S
C397 H377 0.931 . S
C397 C396 1.332 . S
C397 C398 1.267 . S
C398 H366 0.929 . S
C398 C397 1.267 . S
C398 C399 1.251 1_545 S
C399 H369 0.929 . S
C399 N395 1.418 . S
C399 C398 1.251 1_565 S
C400 H367 0.930 1_565 S
C400 C402 1.406 . S
C400 C405 1.261 . S
C401 H368 0.930 . S
C401 N403 1.325 . S
C401 C404 1.357 . S
C402 H370 0.928 . S
C402 C400 1.406 . S
C402 N403 1.261 . S
N403 Co354 2.214 . S
N403 C401 1.325 . S
N403 C402 1.261 . S
C404 H374 0.931 . S
C404 C401 1.357 . S
C404 C405 1.312 . S
C405 H376 0.930 . S
C405 C400 1.261 . S
C405 C404 1.312 . S
C406 O378 1.214 . S
C406 O386 1.234 . S
C407 H379 0.929 . S
C407 C410 1.391 . S
C407 C412 1.391 . S
C408 H380 0.929 . S
C408 C409 1.390 . S
C408 N411 1.391 . S
C409 H381 0.930 . S
C409 C408 1.390 . S
C409 C410 1.392 . S
C410 H382 0.929 . S
C410 C407 1.391 . S
C410 C409 1.392 . S
N411 Co355 2.257 . S
N411 C408 1.391 . S
N411 C412 1.388 . S
C412 H383 0.930 . S
C412 C407 1.391 . S
C412 N411 1.388 . S
Co413 O415 2.143 . S
Co413 O421 2.074 . S
Co413 O424 2.093 . S
Co413 O437 2.097 . S
Co413 N454 2.151 . S
Co413 N462 2.214 . S
Co414 O415 2.160 . S
Co414 O420 2.058 . S
Co414 O430 2.057 . S
Co414 O445 2.037 . S
Co414 N449 2.145 . S
Co414 N470 2.257 . S
O415 Co413 2.143 . S
O415 Co414 2.160 . S
C416 O417 1.278 . S
C416 O424 1.224 . S
O417 C416 1.278 . S
C418 O419 1.245 . S
C418 O430 1.232 . S
O419 C418 1.245 . S
O420 Co414 2.058 . S
O420 C446 1.269 . S
O421 Co413 2.074 . S
O421 C446 1.257 . S
H422 C447 0.930 . S
H423 C453 0.930 . S
O424 Co413 2.093 . S
O424 C416 1.224 . S
H425 C457 0.929 . S
H426 C459 0.930 . S
H427 C460 0.930 . S
H428 C458 0.929 . S
H429 C461 0.928 . S
O430 Co414 2.057 . S
O430 C418 1.232 . S
H431 C450 0.929 . S
H432 C451 0.929 . S
H433 C463 0.931 . S
H434 C455 0.929 . S
H435 C464 0.930 . S
H436 C456 0.931 . S
O437 Co413 2.097 . S
O437 C465 1.214 . S
H438 C466 0.929 . S
H439 C467 0.929 . S
H440 C468 0.930 . S
H441 C469 0.929 . S
H442 C471 0.930 . S
H443 C448 0.930 . S
H444 C452 0.930 . S
O445 Co414 2.037 . S
O445 C465 1.234 . S
C446 O420 1.269 . S
C446 O421 1.257 . S
C447 H422 0.930 . S
C447 C450 1.388 . S
C447 C452 1.418 . S
C448 H443 0.930 . S
C448 C451 1.404 . S
C448 C452 1.353 . S
N449 Co414 2.145 . S
N449 C450 1.397 . S
N449 C451 1.334 . S
C450 H431 0.929 . S
C450 C447 1.388 . S
C450 N449 1.397 . S
C451 H432 0.929 . S
C451 C448 1.404 . S
C451 N449 1.334 . S
C452 H444 0.930 . S
C452 C447 1.418 . S
C452 C448 1.353 . S
C453 H423 0.930 . S
C453 N454 1.330 . S
C453 C455 1.446 . S
N454 Co413 2.151 . S
N454 C453 1.330 . S
N454 C458 1.418 . S
C455 H434 0.929 . S
C455 C453 1.446 . S
C455 C456 1.332 . S
C456 H436 0.931 . S
C456 C455 1.332 . S
C456 C457 1.267 . S
C457 H425 0.929 . S
C457 C456 1.267 . S
C457 C458 1.251 . S
C458 H428 0.929 . S
C458 N454 1.418 . S
C458 C457 1.251 . S
C459 H426 0.930 . S
C459 C461 1.406 . S
C459 C464 1.261 . S
C460 H427 0.930 . S
C460 N462 1.325 . S
C460 C463 1.357 . S
C461 H429 0.928 . S
C461 C459 1.406 . S
C461 N462 1.261 . S
N462 Co413 2.214 . S
N462 C460 1.325 . S
N462 C461 1.261 . S
C463 H433 0.931 . S
C463 C460 1.357 . S
C463 C464 1.312 . S
C464 H435 0.930 . S
C464 C459 1.261 . S
C464 C463 1.312 . S
C465 O437 1.214 . S
C465 O445 1.234 . S
C466 H438 0.929 . S
C466 C469 1.391 . S
C466 C471 1.391 . S
C467 H439 0.929 . S
C467 C468 1.390 . S
C467 N470 1.391 . S
C468 H440 0.930 . S
C468 C467 1.390 . S
C468 C469 1.392 . S
C469 H441 0.929 . S
C469 C466 1.391 . S
C469 C468 1.392 . S
N470 Co414 2.257 . S
N470 C467 1.391 . S
N470 C471 1.388 . S
C471 H442 0.930 . S
C471 C466 1.391 . S
C471 N470 1.388 . S
Co472 O474 2.143 . S
Co472 O480 2.074 . S
Co472 O483 2.093 . S
Co472 O496 2.097 . S
Co472 N513 2.151 . S
Co472 N521 2.214 . S
Co473 O474 2.160 . S
Co473 O479 2.058 . S
Co473 O489 2.057 . S
Co473 O504 2.037 . S
Co473 N508 2.145 . S
Co473 N529 2.257 . S
O474 Co472 2.143 . S
O474 Co473 2.160 . S
C475 O476 1.278 . S
C475 O483 1.224 . S
O476 C475 1.278 . S
C477 O478 1.245 . S
C477 O489 1.232 . S
O478 C477 1.245 . S
O479 Co473 2.058 . S
O479 C505 1.269 . S
O480 Co472 2.074 . S
O480 C505 1.257 . S
H481 C506 0.930 . S
H482 C512 0.930 1_455 S
O483 Co472 2.093 . S
O483 C475 1.224 . S
H484 C516 0.929 . S
H485 C518 0.930 1_655 S
H486 C519 0.930 . S
H487 C517 0.929 . S
H488 C520 0.928 . S
O489 Co473 2.057 . S
O489 C477 1.232 . S
H490 C509 0.929 . S
H491 C510 0.929 . S
H492 C522 0.931 . S
H493 C514 0.929 . S
H494 C523 0.930 . S
H495 C515 0.931 . S
O496 Co472 2.097 . S
O496 C524 1.214 . S
H497 C525 0.929 . S
H498 C526 0.929 . S
H499 C527 0.930 . S
H500 C528 0.929 . S
H501 C530 0.930 . S
H502 C507 0.930 . S
H503 C511 0.930 . S
O504 Co473 2.037 . S
O504 C524 1.234 . S
C505 O479 1.269 . S
C505 O480 1.257 . S
C506 H481 0.930 . S
C506 C509 1.388 . S
C506 C511 1.418 . S
C507 H502 0.930 . S
C507 C510 1.404 . S
C507 C511 1.353 . S
N508 Co473 2.145 . S
N508 C509 1.397 . S
N508 C510 1.334 . S
C509 H490 0.929 . S
C509 C506 1.388 . S
C509 N508 1.397 . S
C510 H491 0.929 . S
C510 C507 1.404 . S
C510 N508 1.334 . S
C511 H503 0.930 . S
C511 C506 1.418 . S
C511 C507 1.353 . S
C512 H482 0.930 1_655 S
C512 N513 1.330 1_655 S
C512 C514 1.446 . S
N513 Co472 2.151 . S
N513 C512 1.330 1_455 S
N513 C517 1.418 . S
C514 H493 0.929 . S
C514 C512 1.446 . S
C514 C515 1.332 . S
C515 H495 0.931 . S
C515 C514 1.332 . S
C515 C516 1.267 . S
C516 H484 0.929 . S
C516 C515 1.267 . S
C516 C517 1.251 1_655 S
C517 H487 0.929 . S
C517 N513 1.418 . S
C517 C516 1.251 1_455 S
C518 H485 0.930 1_455 S
C518 C520 1.406 . S
C518 C523 1.261 . S
C519 H486 0.930 . S
C519 N521 1.325 . S
C519 C522 1.357 . S
C520 H488 0.928 . S
C520 C518 1.406 . S
C520 N521 1.261 . S
N521 Co472 2.214 . S
N521 C519 1.325 . S
N521 C520 1.261 . S
C522 H492 0.931 . S
C522 C519 1.357 . S
C522 C523 1.312 . S
C523 H494 0.930 . S
C523 C518 1.261 . S
C523 C522 1.312 . S
C524 O496 1.214 . S
C524 O504 1.234 . S
C525 H497 0.929 . S
C525 C528 1.391 . S
C525 C530 1.391 1_556 S
C526 H498 0.929 . S
C526 C527 1.390 1_554 S
C526 N529 1.391 . S
C527 H499 0.930 . S
C527 C526 1.390 1_556 S
C527 C528 1.392 . S
C528 H500 0.929 . S
C528 C525 1.391 . S
C528 C527 1.392 . S
N529 Co473 2.257 . S
N529 C526 1.391 . S
N529 C530 1.388 . S
C530 H501 0.930 . S
C530 C525 1.391 1_554 S
C530 N529 1.388 . S
Co531 O533 2.143 . S
Co531 O539 2.074 . S
Co531 O542 2.093 . S
Co531 O555 2.097 . S
Co531 N572 2.151 . S
Co531 N580 2.214 . S
Co532 O533 2.160 . S
Co532 O538 2.058 . S
Co532 O548 2.057 . S
Co532 O563 2.037 . S
Co532 N567 2.145 . S
Co532 N588 2.257 . S
O533 Co531 2.143 . S
O533 Co532 2.160 . S
C534 O535 1.278 . S
C534 O542 1.224 . S
O535 C534 1.278 . S
C536 O537 1.245 . S
C536 O548 1.232 . S
O537 C536 1.245 . S
O538 Co532 2.058 . S
O538 C564 1.269 . S
O539 Co531 2.074 . S
O539 C564 1.257 . S
H540 C565 0.930 . S
H541 C571 0.930 1_545 S
O542 Co531 2.093 . S
O542 C534 1.224 . S
H543 C575 0.929 . S
H544 C577 0.930 1_565 S
H545 C578 0.930 . S
H546 C576 0.929 . S
H547 C579 0.928 . S
O548 Co532 2.057 . S
O548 C536 1.232 . S
H549 C568 0.929 . S
H550 C569 0.929 . S
H551 C581 0.931 . S
H552 C573 0.929 . S
H553 C582 0.930 . S
H554 C574 0.931 . S
O555 Co531 2.097 . S
O555 C583 1.214 . S
H556 C584 0.929 . S
H557 C585 0.929 . S
H558 C586 0.930 . S
H559 C587 0.929 . S
H560 C589 0.930 . S
H561 C566 0.930 . S
H562 C570 0.930 . S
O563 Co532 2.037 . S
O563 C583 1.234 . S
C564 O538 1.269 . S
C564 O539 1.257 . S
C565 H540 0.930 . S
C565 C568 1.388 . S
C565 C570 1.418 . S
C566 H561 0.930 . S
C566 C569 1.404 . S
C566 C570 1.353 . S
N567 Co532 2.145 . S
N567 C568 1.397 . S
N567 C569 1.334 . S
C568 H549 0.929 . S
C568 C565 1.388 . S
C568 N567 1.397 . S
C569 H550 0.929 . S
C569 C566 1.404 . S
C569 N567 1.334 . S
C570 H562 0.930 . S
C570 C565 1.418 . S
C570 C566 1.353 . S
C571 H541 0.930 1_565 S
C571 N572 1.330 1_565 S
C571 C573 1.446 . S
N572 Co531 2.151 . S
N572 C571 1.330 1_545 S
N572 C576 1.418 . S
C573 H552 0.929 . S
C573 C571 1.446 . S
C573 C574 1.332 . S
C574 H554 0.931 . S
C574 C573 1.332 . S
C574 C575 1.267 . S
C575 H543 0.929 . S
C575 C574 1.267 . S
C575 C576 1.251 1_565 S
C576 H546 0.929 . S
C576 N572 1.418 . S
C576 C575 1.251 1_545 S
C577 H544 0.930 1_545 S
C577 C579 1.406 . S
C577 C582 1.261 . S
C578 H545 0.930 . S
C578 N580 1.325 . S
C578 C581 1.357 . S
C579 H547 0.928 . S
C579 C577 1.406 . S
C579 N580 1.261 . S
N580 Co531 2.214 . S
N580 C578 1.325 . S
N580 C579 1.261 . S
C581 H551 0.931 . S
C581 C578 1.357 . S
C581 C582 1.312 . S
C582 H553 0.930 . S
C582 C577 1.261 . S
C582 C581 1.312 . S
C583 O555 1.214 . S
C583 O563 1.234 . S
C584 H556 0.929 . S
C584 C587 1.391 . S
C584 C589 1.391 . S
C585 H557 0.929 . S
C585 C586 1.390 . S
C585 N588 1.391 . S
C586 H558 0.930 . S
C586 C585 1.390 . S
C586 C587 1.392 . S
C587 H559 0.929 . S
C587 C584 1.391 . S
C587 C586 1.392 . S
N588 Co532 2.257 . S
N588 C585 1.391 . S
N588 C589 1.388 . S
C589 H560 0.930 . S
C589 C584 1.391 . S
C589 N588 1.388 . S
Co590 O592 2.143 . S
Co590 O598 2.074 . S
Co590 O601 2.093 . S
Co590 O614 2.097 . S
Co590 N631 2.151 . S
Co590 N639 2.214 . S
Co591 O592 2.160 . S
Co591 O597 2.058 . S
Co591 O607 2.057 . S
Co591 O622 2.037 . S
Co591 N626 2.145 . S
Co591 N647 2.257 . S
O592 Co590 2.143 . S
O592 Co591 2.160 . S
C593 O594 1.278 . S
C593 O601 1.224 . S
O594 C593 1.278 . S
C595 O596 1.245 . S
C595 O607 1.232 . S
O596 C595 1.245 . S
O597 Co591 2.058 . S
O597 C623 1.269 . S
O598 Co590 2.074 . S
O598 C623 1.257 . S
H599 C624 0.930 . S
H600 C630 0.930 . S
O601 Co590 2.093 . S
O601 C593 1.224 . S
H602 C634 0.929 . S
H603 C636 0.930 . S
H604 C637 0.930 . S
H605 C635 0.929 . S
H606 C638 0.928 . S
O607 Co591 2.057 . S
O607 C595 1.232 . S
H608 C627 0.929 . S
H609 C628 0.929 . S
H610 C640 0.931 . S
H611 C632 0.929 . S
H612 C641 0.930 . S
H613 C633 0.931 . S
O614 Co590 2.097 . S
O614 C642 1.214 . S
H615 C643 0.929 . S
H616 C644 0.929 . S
H617 C645 0.930 . S
H618 C646 0.929 . S
H619 C648 0.930 . S
H620 C625 0.930 . S
H621 C629 0.930 . S
O622 Co591 2.037 . S
O622 C642 1.234 . S
C623 O597 1.269 . S
C623 O598 1.257 . S
C624 H599 0.930 . S
C624 C627 1.388 . S
C624 C629 1.418 . S
C625 H620 0.930 . S
C625 C628 1.404 . S
C625 C629 1.353 . S
N626 Co591 2.145 . S
N626 C627 1.397 . S
N626 C628 1.334 . S
C627 H608 0.929 . S
C627 C624 1.388 . S
C627 N626 1.397 . S
C628 H609 0.929 . S
C628 C625 1.404 . S
C628 N626 1.334 . S
C629 H621 0.930 . S
C629 C624 1.418 . S
C629 C625 1.353 . S
C630 H600 0.930 . S
C630 N631 1.330 . S
C630 C632 1.446 . S
N631 Co590 2.151 . S
N631 C630 1.330 . S
N631 C635 1.418 . S
C632 H611 0.929 . S
C632 C630 1.446 . S
C632 C633 1.332 . S
C633 H613 0.931 . S
C633 C632 1.332 . S
C633 C634 1.267 . S
C634 H602 0.929 . S
C634 C633 1.267 . S
C634 C635 1.251 . S
C635 H605 0.929 . S
C635 N631 1.418 . S
C635 C634 1.251 . S
C636 H603 0.930 . S
C636 C638 1.406 . S
C636 C641 1.261 . S
C637 H604 0.930 . S
C637 N639 1.325 . S
C637 C640 1.357 . S
C638 H606 0.928 . S
C638 C636 1.406 . S
C638 N639 1.261 . S
N639 Co590 2.214 . S
N639 C637 1.325 . S
N639 C638 1.261 . S
C640 H610 0.931 . S
C640 C637 1.357 . S
C640 C641 1.312 . S
C641 H612 0.930 . S
C641 C636 1.261 . S
C641 C640 1.312 . S
C642 O614 1.214 . S
C642 O622 1.234 . S
C643 H615 0.929 . S
C643 C646 1.391 . S
C643 C648 1.391 . S
C644 H616 0.929 . S
C644 C645 1.390 . S
C644 N647 1.391 . S
C645 H617 0.930 . S
C645 C644 1.390 . S
C645 C646 1.392 . S
C646 H618 0.929 . S
C646 C643 1.391 . S
C646 C645 1.392 . S
N647 Co591 2.257 . S
N647 C644 1.391 . S
N647 C648 1.388 . S
C648 H619 0.930 . S
C648 C643 1.391 . S
C648 N647 1.388 . S
Co649 O651 2.143 . S
Co649 O657 2.074 . S
Co649 O660 2.093 . S
Co649 O673 2.097 . S
Co649 N690 2.151 . S
Co649 N698 2.214 . S
Co650 O651 2.160 . S
Co650 O656 2.058 . S
Co650 O666 2.057 . S
Co650 O681 2.037 . S
Co650 N685 2.145 . S
Co650 N706 2.257 . S
O651 Co649 2.143 . S
O651 Co650 2.160 . S
C652 O653 1.278 . S
C652 O660 1.224 . S
O653 C652 1.278 . S
C654 O655 1.245 . S
C654 O666 1.232 . S
O655 C654 1.245 . S
O656 Co650 2.058 . S
O656 C682 1.269 . S
O657 Co649 2.074 . S
O657 C682 1.257 . S
H658 C683 0.930 . S
H659 C689 0.930 1_655 S
O660 Co649 2.093 . S
O660 C652 1.224 . S
H661 C693 0.929 . S
H662 C695 0.930 1_455 S
H663 C696 0.930 . S
H664 C694 0.929 . S
H665 C697 0.928 . S
O666 Co650 2.057 . S
O666 C654 1.232 . S
H667 C686 0.929 . S
H668 C687 0.929 . S
H669 C699 0.931 . S
H670 C691 0.929 . S
H671 C700 0.930 . S
H672 C692 0.931 . S
O673 Co649 2.097 . S
O673 C701 1.214 . S
H674 C702 0.929 . S
H675 C703 0.929 . S
H676 C704 0.930 . S
H677 C705 0.929 . S
H678 C707 0.930 . S
H679 C684 0.930 . S
H680 C688 0.930 . S
O681 Co650 2.037 . S
O681 C701 1.234 . S
C682 O656 1.269 . S
C682 O657 1.257 . S
C683 H658 0.930 . S
C683 C686 1.388 . S
C683 C688 1.418 . S
C684 H679 0.930 . S
C684 C687 1.404 . S
C684 C688 1.353 . S
N685 Co650 2.145 . S
N685 C686 1.397 . S
N685 C687 1.334 . S
C686 H667 0.929 . S
C686 C683 1.388 . S
C686 N685 1.397 . S
C687 H668 0.929 . S
C687 C684 1.404 . S
C687 N685 1.334 . S
C688 H680 0.930 . S
C688 C683 1.418 . S
C688 C684 1.353 . S
C689 H659 0.930 1_455 S
C689 N690 1.330 1_455 S
C689 C691 1.446 . S
N690 Co649 2.151 . S
N690 C689 1.330 1_655 S
N690 C694 1.418 . S
C691 H670 0.929 . S
C691 C689 1.446 . S
C691 C692 1.332 . S
C692 H672 0.931 . S
C692 C691 1.332 . S
C692 C693 1.267 . S
C693 H661 0.929 . S
C693 C692 1.267 . S
C693 C694 1.251 1_455 S
C694 H664 0.929 . S
C694 N690 1.418 . S
C694 C693 1.251 1_655 S
C695 H662 0.930 1_655 S
C695 C697 1.406 . S
C695 C700 1.261 . S
C696 H663 0.930 . S
C696 N698 1.325 . S
C696 C699 1.357 . S
C697 H665 0.928 . S
C697 C695 1.406 . S
C697 N698 1.261 . S
N698 Co649 2.214 . S
N698 C696 1.325 . S
N698 C697 1.261 . S
C699 H669 0.931 . S
C699 C696 1.357 . S
C699 C700 1.312 . S
C700 H671 0.930 . S
C700 C695 1.261 . S
C700 C699 1.312 . S
C701 O673 1.214 . S
C701 O681 1.234 . S
C702 H674 0.929 . S
C702 C705 1.391 . S
C702 C707 1.391 . S
C703 H675 0.929 . S
C703 C704 1.390 . S
C703 N706 1.391 . S
C704 H676 0.930 . S
C704 C703 1.390 . S
C704 C705 1.392 . S
C705 H677 0.929 . S
C705 C702 1.391 . S
C705 C704 1.392 . S
N706 Co650 2.257 . S
N706 C703 1.391 . S
N706 C707 1.388 . S
C707 H678 0.930 . S
C707 C702 1.391 . S
C707 N706 1.388 . S
H708 C714 0.930 . S
H709 C717 0.930 . S
H710 C718 0.930 . S
H711 C719 0.930 . S
H712 C722 0.930 . S
H713 C723 0.930 . S
C714 H708 0.930 . S
C714 C715 1.355 . S
C714 C716 1.415 . S
C715 C714 1.355 . S
C715 C717 1.419 . S
C716 C714 1.415 . S
C716 C721 1.425 . S
C716 C723 1.409 . S
C717 H709 0.930 . S
C717 C715 1.419 . S
C717 C718 1.362 . S
C718 H710 0.930 . S
C718 C717 1.362 . S
C718 C721 1.409 . S
C719 H711 0.930 . S
C719 C720 1.355 . S
C719 C721 1.415 . S
C720 C719 1.355 . S
C720 C722 1.419 . S
C721 C716 1.425 . S
C721 C718 1.409 . S
C721 C719 1.415 . S
C722 H712 0.930 . S
C722 C720 1.419 . S
C722 C723 1.362 . S
C723 H713 0.930 . S
C723 C716 1.409 . S
C723 C722 1.362 . S
H724 C730 0.930 . S
H725 C733 0.930 . S
H726 C734 0.930 . S
H727 C735 0.930 . S
H728 C738 0.930 . S
H729 C739 0.930 . S
C730 H724 0.930 . S
C730 C731 1.355 . S
C730 C732 1.415 . S
C731 C730 1.355 . S
C731 C733 1.419 . S
C732 C730 1.415 . S
C732 C737 1.425 . S
C732 C739 1.409 . S
C733 H725 0.930 . S
C733 C731 1.419 . S
C733 C734 1.362 . S
C734 H726 0.930 . S
C734 C733 1.362 . S
C734 C737 1.409 . S
C735 H727 0.930 . S
C735 C736 1.355 . S
C735 C737 1.415 . S
C736 C735 1.355 . S
C736 C738 1.419 . S
C737 C732 1.425 . S
C737 C734 1.409 . S
C737 C735 1.415 . S
C738 H728 0.930 . S
C738 C736 1.419 . S
C738 C739 1.362 . S
C739 H729 0.930 . S
C739 C732 1.409 . S
C739 C738 1.362 . S
H740 C746 0.930 . S
H741 C749 0.930 . S
H742 C750 0.930 . S
H743 C751 0.930 . S
H744 C754 0.930 . S
H745 C755 0.930 . S
C746 H740 0.930 . S
C746 C747 1.355 . S
C746 C748 1.415 . S
C747 C746 1.355 . S
C747 C749 1.419 . S
C748 C746 1.415 . S
C748 C753 1.425 . S
C748 C755 1.409 . S
C749 H741 0.930 . S
C749 C747 1.419 . S
C749 C750 1.362 . S
C750 H742 0.930 . S
C750 C749 1.362 . S
C750 C753 1.409 . S
C751 H743 0.930 . S
C751 C752 1.355 . S
C751 C753 1.415 . S
C752 C751 1.355 . S
C752 C754 1.419 . S
C753 C748 1.425 . S
C753 C750 1.409 . S
C753 C751 1.415 . S
C754 H744 0.930 . S
C754 C752 1.419 . S
C754 C755 1.362 . S
C755 H745 0.930 . S
C755 C748 1.409 . S
C755 C754 1.362 . S
H756 C762 0.930 . S
H757 C765 0.930 . S
H758 C766 0.930 . S
H759 C767 0.930 . S
H760 C770 0.930 . S
H761 C771 0.930 . S
C762 H756 0.930 . S
C762 C763 1.355 . S
C762 C764 1.415 . S
C763 C762 1.355 . S
C763 C765 1.419 . S
C764 C762 1.415 . S
C764 C769 1.425 . S
C764 C771 1.409 . S
C765 H757 0.930 . S
C765 C763 1.419 . S
C765 C766 1.362 . S
C766 H758 0.930 . S
C766 C765 1.362 . S
C766 C769 1.409 . S
C767 H759 0.930 . S
C767 C768 1.355 . S
C767 C769 1.415 . S
C768 C767 1.355 . S
C768 C770 1.419 . S
C769 C764 1.425 . S
C769 C766 1.409 . S
C769 C767 1.415 . S
C770 H760 0.930 . S
C770 C768 1.419 . S
C770 C771 1.362 . S
C771 H761 0.930 . S
C771 C764 1.409 . S
C771 C770 1.362 . S
H772 C778 0.930 . S
H773 C781 0.930 . S
H774 C782 0.930 . S
H775 C783 0.930 . S
H776 C786 0.930 . S
H777 C787 0.930 . S
C778 H772 0.930 . S
C778 C779 1.355 . S
C778 C780 1.415 . S
C779 C778 1.355 . S
C779 C781 1.419 . S
C780 C778 1.415 . S
C780 C785 1.425 . S
C780 C787 1.409 . S
C781 H773 0.930 . S
C781 C779 1.419 . S
C781 C782 1.362 . S
C782 H774 0.930 . S
C782 C781 1.362 . S
C782 C785 1.409 . S
C783 H775 0.930 . S
C783 C784 1.355 . S
C783 C785 1.415 . S
C784 C783 1.355 . S
C784 C786 1.419 . S
C785 C780 1.425 . S
C785 C782 1.409 . S
C785 C783 1.415 . S
C786 H776 0.930 . S
C786 C784 1.419 . S
C786 C787 1.362 . S
C787 H777 0.930 . S
C787 C780 1.409 . S
C787 C786 1.362 . S
H788 C794 0.930 . S
H789 C797 0.930 . S
H790 C798 0.930 . S
H791 C799 0.930 . S
H792 C802 0.930 . S
H793 C803 0.930 . S
C794 H788 0.930 . S
C794 C795 1.355 . S
C794 C796 1.415 . S
C795 C794 1.355 . S
C795 C797 1.419 . S
C796 C794 1.415 . S
C796 C801 1.425 . S
C796 C803 1.409 . S
C797 H789 0.930 . S
C797 C795 1.419 . S
C797 C798 1.362 . S
C798 H790 0.930 . S
C798 C797 1.362 . S
C798 C801 1.409 . S
C799 H791 0.930 . S
C799 C800 1.355 . S
C799 C801 1.415 . S
C800 C799 1.355 . S
C800 C802 1.419 . S
C801 C796 1.425 . S
C801 C798 1.409 . S
C801 C799 1.415 . S
C802 H792 0.930 . S
C802 C800 1.419 . S
C802 C803 1.362 . S
C803 H793 0.930 . S
C803 C796 1.409 . S
C803 C802 1.362 . S
H804 C810 0.930 . S
H805 C813 0.930 . S
H806 C814 0.930 . S
H807 C815 0.930 . S
H808 C818 0.930 . S
H809 C819 0.930 . S
C810 H804 0.930 . S
C810 C811 1.355 . S
C810 C812 1.415 . S
C811 C810 1.355 . S
C811 C813 1.419 . S
C812 C810 1.415 . S
C812 C817 1.425 . S
C812 C819 1.409 . S
C813 H805 0.930 . S
C813 C811 1.419 . S
C813 C814 1.362 . S
C814 H806 0.930 . S
C814 C813 1.362 . S
C814 C817 1.409 . S
C815 H807 0.930 . S
C815 C816 1.355 . S
C815 C817 1.415 . S
C816 C815 1.355 . S
C816 C818 1.419 . S
C817 C812 1.425 . S
C817 C814 1.409 . S
C817 C815 1.415 . S
C818 H808 0.930 . S
C818 C816 1.419 . S
C818 C819 1.362 . S
C819 H809 0.930 . S
C819 C812 1.409 . S
C819 C818 1.362 . S
H820 C826 0.930 . S
H821 C829 0.930 . S
H822 C830 0.930 . S
H823 C831 0.930 . S
H824 C834 0.930 . S
H825 C835 0.930 . S
C826 H820 0.930 . S
C826 C827 1.355 . S
C826 C828 1.415 . S
C827 C826 1.355 . S
C827 C829 1.419 . S
C828 C826 1.415 . S
C828 C833 1.425 1_655 S
C828 C835 1.409 1_655 S
C829 H821 0.930 . S
C829 C827 1.419 . S
C829 C830 1.362 . S
C830 H822 0.930 . S
C830 C829 1.362 . S
C830 C833 1.409 1_655 S
C831 H823 0.930 . S
C831 C832 1.355 . S
C831 C833 1.415 . S
C832 C831 1.355 . S
C832 C834 1.419 . S
C833 C828 1.425 1_455 S
C833 C830 1.409 1_455 S
C833 C831 1.415 . S
C834 H824 0.930 . S
C834 C832 1.419 . S
C834 C835 1.362 . S
C835 H825 0.930 . S
C835 C828 1.409 1_455 S
C835 C834 1.362 . S
H836 C842 0.930 . S
H837 C845 0.930 . S
H838 C846 0.934 . S
H839 C847 0.930 . S
H840 C850 0.930 . S
H841 C851 0.934 . S
C842 H836 0.930 . S
C842 C843 1.355 . S
C842 C844 1.415 . S
C843 C842 1.355 . S
C843 C845 1.419 . S
C844 C842 1.415 . S
C844 C849 1.425 1_545 S
C844 C851 1.413 . S
C845 H837 0.930 . S
C845 C843 1.419 . S
C845 C846 1.355 1_545 S
C846 H838 0.934 . S
C846 C845 1.355 1_565 S
C846 C849 1.413 . S
C847 H839 0.930 . S
C847 C848 1.355 . S
C847 C849 1.415 . S
C848 C847 1.355 . S
C848 C850 1.419 . S
C849 C844 1.425 1_565 S
C849 C846 1.413 . S
C849 C847 1.415 . S
C850 H840 0.930 . S
C850 C848 1.419 . S
C850 C851 1.355 1_565 S
C851 H841 0.934 . S
C851 C844 1.413 . S
C851 C850 1.355 1_545 S
H852 C858 0.930 . S
H853 C861 0.930 . S
H854 C862 0.930 . S
H855 C863 0.930 . S
H856 C866 0.930 . S
H857 C867 0.930 . S
C858 H852 0.930 . S
C858 C859 1.355 . S
C858 C860 1.415 . S
C859 C858 1.355 . S
C859 C861 1.419 . S
C860 C858 1.415 . S
C860 C865 1.425 . S
C860 C867 1.409 . S
C861 H853 0.930 . S
C861 C859 1.419 . S
C861 C862 1.362 . S
C862 H854 0.930 . S
C862 C861 1.362 . S
C862 C865 1.409 . S
C863 H855 0.930 . S
C863 C864 1.355 . S
C863 C865 1.415 . S
C864 C863 1.355 . S
C864 C866 1.419 . S
C865 C860 1.425 . S
C865 C862 1.409 . S
C865 C863 1.415 . S
C866 H856 0.930 . S
C866 C864 1.419 . S
C866 C867 1.362 . S
C867 H857 0.930 . S
C867 C860 1.409 . S
C867 C866 1.362 . S
H868 C874 0.930 . S
H869 C877 0.930 . S
H870 C878 0.930 . S
H871 C879 0.930 . S
H872 C882 0.930 . S
H873 C883 0.930 . S
C874 H868 0.930 . S
C874 C875 1.355 . S
C874 C876 1.415 . S
C875 C874 1.355 . S
C875 C877 1.419 . S
C876 C874 1.415 . S
C876 C881 1.425 1_655 S
C876 C883 1.409 1_655 S
C877 H869 0.930 . S
C877 C875 1.419 . S
C877 C878 1.362 . S
C878 H870 0.930 . S
C878 C877 1.362 . S
C878 C881 1.409 1_655 S
C879 H871 0.930 . S
C879 C880 1.355 . S
C879 C881 1.415 . S
C880 C879 1.355 . S
C880 C882 1.419 . S
C881 C876 1.425 1_455 S
C881 C878 1.409 1_455 S
C881 C879 1.415 . S
C882 H872 0.930 . S
C882 C880 1.419 . S
C882 C883 1.362 . S
C883 H873 0.930 . S
C883 C876 1.409 1_455 S
C883 C882 1.362 . S
H884 C890 0.930 . S
H885 C893 0.930 . S
H886 C894 0.939 . S
H887 C895 0.930 . S
H888 C898 0.930 . S
H889 C899 0.940 . S
C890 H884 0.930 . S
C890 C891 1.355 1_556 S
C890 C892 1.415 . S
C891 C890 1.355 1_554 S
C891 C893 1.419 . S
C892 C890 1.415 . S
C892 C897 1.425 1_566 S
C892 C899 1.411 . S
C893 H885 0.930 . S
C893 C891 1.419 . S
C893 C894 1.351 1_565 S
C894 H886 0.939 . S
C894 C893 1.351 1_545 S
C894 C897 1.411 . S
C895 H887 0.930 . S
C895 C896 1.355 1_554 S
C895 C897 1.415 . S
C896 C895 1.355 1_556 S
C896 C898 1.419 . S
C897 C892 1.425 1_544 S
C897 C894 1.411 . S
C897 C895 1.415 . S
C898 H888 0.930 . S
C898 C896 1.419 . S
C898 C899 1.351 1_545 S
C899 H889 0.940 . S
C899 C892 1.411 . S
C899 C898 1.351 1_565 S
H900 C906 0.930 . S
H901 C909 0.930 . S
H902 C910 0.930 . S
H903 C911 0.930 . S
H904 C914 0.930 . S
H905 C915 0.930 . S
C906 H900 0.930 . S
C906 C907 1.355 . S
C906 C908 1.415 . S
C907 C906 1.355 . S
C907 C909 1.419 . S
C908 C906 1.415 . S
C908 C913 1.425 . S
C908 C915 1.409 . S
C909 H901 0.930 . S
C909 C907 1.419 . S
C909 C910 1.362 . S
C910 H902 0.930 . S
C910 C909 1.362 . S
C910 C913 1.409 . S
C911 H903 0.930 . S
C911 C912 1.355 . S
C911 C913 1.415 . S
C912 C911 1.355 . S
C912 C914 1.419 . S
C913 C908 1.425 . S
C913 C910 1.409 . S
C913 C911 1.415 . S
C914 H904 0.930 . S
C914 C912 1.419 . S
C914 C915 1.362 . S
C915 H905 0.930 . S
C915 C908 1.409 . S
C915 C914 1.362 . S
H916 C922 0.930 . S
H917 C925 0.930 . S
H918 C926 0.930 1_455 S
H919 C927 0.930 . S
H920 C930 0.930 . S
H921 C931 0.930 . S
C922 H916 0.930 . S
C922 C923 1.355 . S
C922 C924 1.415 . S
C923 C922 1.355 . S
C923 C925 1.419 . S
C924 C922 1.415 . S
C924 C929 1.425 . S
C924 C931 1.409 . S
C925 H917 0.930 . S
C925 C923 1.419 . S
C925 C926 1.362 . S
C926 H918 0.930 1_655 S
C926 C925 1.362 . S
C926 C929 1.409 . S
C927 H919 0.930 . S
C927 C928 1.355 1_455 S
C927 C929 1.415 1_455 S
C928 C927 1.355 1_655 S
C928 C930 1.419 . S
C929 C924 1.425 . S
C929 C926 1.409 . S
C929 C927 1.415 1_655 S
C930 H920 0.930 . S
C930 C928 1.419 . S
C930 C931 1.362 . S
C931 H921 0.930 . S
C931 C924 1.409 . S
C931 C930 1.362 . S
H932 C938 0.930 . S
H933 C941 0.930 1_545 S
H934 C942 0.930 . S
H935 C943 0.930 . S
H936 C946 0.930 . S
H937 C947 0.930 . S
C938 H932 0.930 . S
C938 C939 1.352 1_565 S
C938 C940 1.415 . S
C939 C938 1.352 1_545 S
C939 C941 1.407 1_545 S
C940 C938 1.415 . S
C940 C945 1.425 . S
C940 C947 1.409 . S
C941 H933 0.930 1_565 S
C941 C939 1.407 1_565 S
C941 C942 1.362 . S
C942 H934 0.930 . S
C942 C941 1.362 . S
C942 C945 1.409 . S
C943 H935 0.930 . S
C943 C944 1.355 . S
C943 C945 1.415 . S
C944 C943 1.355 . S
C944 C946 1.419 . S
C945 C940 1.425 . S
C945 C942 1.409 . S
C945 C943 1.415 . S
C946 H936 0.930 . S
C946 C944 1.419 . S
C946 C947 1.362 . S
C947 H937 0.930 . S
C947 C940 1.409 . S
C947 C946 1.362 . S
H948 C954 0.930 . S
H949 C957 0.930 . S
H950 C958 0.930 . S
H951 C959 0.930 . S
H952 C962 0.930 . S
H953 C963 0.930 . S
C954 H948 0.930 . S
C954 C955 1.355 . S
C954 C956 1.415 . S
C955 C954 1.355 . S
C955 C957 1.419 . S
C956 C954 1.415 . S
C956 C961 1.425 . S
C956 C963 1.409 . S
C957 H949 0.930 . S
C957 C955 1.419 . S
C957 C958 1.362 . S
C958 H950 0.930 . S
C958 C957 1.362 . S
C958 C961 1.409 . S
C959 H951 0.930 . S
C959 C960 1.355 . S
C959 C961 1.415 . S
C960 C959 1.355 . S
C960 C962 1.419 . S
C961 C956 1.425 . S
C961 C958 1.409 . S
C961 C959 1.415 . S
C962 H952 0.930 . S
C962 C960 1.419 . S
C962 C963 1.362 . S
C963 H953 0.930 . S
C963 C956 1.409 . S
C963 C962 1.362 . S
H964 C970 0.930 . S
H965 C973 0.930 . S
H966 C974 0.930 . S
H967 C975 0.930 . S
H968 C978 0.930 . S
H969 C979 0.930 . S
C970 H964 0.930 . S
C970 C971 1.355 . S
C970 C972 1.415 . S
C971 C970 1.355 . S
C971 C973 1.419 . S
C972 C970 1.415 . S
C972 C977 1.425 . S
C972 C979 1.409 . S
C973 H965 0.930 . S
C973 C971 1.419 . S
C973 C974 1.362 . S
C974 H966 0.930 . S
C974 C973 1.362 . S
C974 C977 1.409 . S
C975 H967 0.930 . S
C975 C976 1.355 1_655 S
C975 C977 1.415 1_655 S
C976 C975 1.355 1_455 S
C976 C978 1.419 . S
C977 C972 1.425 . S
C977 C974 1.409 . S
C977 C975 1.415 1_455 S
C978 H968 0.930 . S
C978 C976 1.419 . S
C978 C979 1.362 . S
C979 H969 0.930 . S
C979 C972 1.409 . S
C979 C978 1.362 . S
H980 C986 0.930 . S
H981 C989 0.930 . S
H982 C990 0.930 . S
H983 C991 0.930 . S
H984 C994 0.930 . S
H985 C995 0.930 . S
C986 H980 0.930 . S
C986 C987 1.355 . S
C986 C988 1.415 . S
C987 C986 1.355 . S
C987 C989 1.419 . S
C988 C986 1.415 . S
C988 C993 1.425 . S
C988 C995 1.409 1_545 S
C989 H981 0.930 . S
C989 C987 1.419 . S
C989 C990 1.362 . S
C990 H982 0.930 . S
C990 C989 1.362 . S
C990 C993 1.409 . S
C991 H983 0.930 . S
C991 C992 1.355 1_545 S
C991 C993 1.415 . S
C992 C991 1.355 1_565 S
C992 C994 1.419 . S
C993 C988 1.425 . S
C993 C990 1.409 . S
C993 C991 1.415 . S
C994 H984 0.930 . S
C994 C992 1.419 . S
C994 C995 1.362 . S
C995 H985 0.930 . S
C995 C988 1.409 1_565 S
C995 C994 1.362 . S
H996 C1002 0.930 . S
H997 C1005 0.930 . S
H998 C1006 0.930 . S
H999 C1007 0.930 . S
H1000 C1010 0.930 . S
H1001 C1011 0.930 . S
C1002 H996 0.930 . S
C1002 C1003 1.355 . S
C1002 C1004 1.415 . S
C1003 C1002 1.355 . S
C1003 C1005 1.419 . S
C1004 C1002 1.415 . S
C1004 C1009 1.425 . S
C1004 C1011 1.409 . S
C1005 H997 0.930 . S
C1005 C1003 1.419 . S
C1005 C1006 1.362 . S
C1006 H998 0.930 . S
C1006 C1005 1.362 . S
C1006 C1009 1.409 . S
C1007 H999 0.930 . S
C1007 C1008 1.355 . S
C1007 C1009 1.415 . S
C1008 C1007 1.355 . S
C1008 C1010 1.419 . S
C1009 C1004 1.425 . S
C1009 C1006 1.409 . S
C1009 C1007 1.415 . S
C1010 H1000 0.930 . S
C1010 C1008 1.419 . S
C1010 C1011 1.362 . S
C1011 H1001 0.930 . S
C1011 C1004 1.409 . S
C1011 C1010 1.362 . S
H1012 C1018 0.930 . S
H1013 C1021 0.930 . S
H1014 C1022 0.930 . S
H1015 C1023 0.930 1_554 S
H1016 C1026 0.930 . S
H1017 C1027 0.930 . S
C1018 H1012 0.930 . S
C1018 C1019 1.355 . S
C1018 C1020 1.415 . S
C1019 C1018 1.355 . S
C1019 C1021 1.419 . S
C1020 C1018 1.415 . S
C1020 C1025 1.425 . S
C1020 C1027 1.409 . S
C1021 H1013 0.930 . S
C1021 C1019 1.419 . S
C1021 C1022 1.362 . S
C1022 H1014 0.930 . S
C1022 C1021 1.362 . S
C1022 C1025 1.409 . S
C1023 H1015 0.930 1_556 S
C1023 C1024 1.355 1_655 S
C1023 C1025 1.415 . S
C1024 C1023 1.355 1_455 S
C1024 C1026 1.419 . S
C1025 C1020 1.425 . S
C1025 C1022 1.409 . S
C1025 C1023 1.415 . S
C1026 H1016 0.930 . S
C1026 C1024 1.419 . S
C1026 C1027 1.362 1_455 S
C1027 H1017 0.930 . S
C1027 C1020 1.409 . S
C1027 C1026 1.362 1_655 S
H1028 C1034 0.930 . S
H1029 C1037 0.930 . S
H1030 C1038 0.930 1_545 S
H1031 C1039 0.930 . S
H1032 C1042 0.930 . S
H1033 C1043 0.930 . S
C1034 H1028 0.930 . S
C1034 C1035 1.355 . S
C1034 C1036 1.415 . S
C1035 C1034 1.355 . S
C1035 C1037 1.419 . S
C1036 C1034 1.415 . S
C1036 C1041 1.425 . S
C1036 C1043 1.409 . S
C1037 H1029 0.930 . S
C1037 C1035 1.419 . S
C1037 C1038 1.362 . S
C1038 H1030 0.930 1_565 S
C1038 C1037 1.362 . S
C1038 C1041 1.409 . S
C1039 H1031 0.930 . S
C1039 C1040 1.355 1_545 S
C1039 C1041 1.415 1_545 S
C1040 C1039 1.355 1_565 S
C1040 C1042 1.419 . S
C1041 C1036 1.425 . S
C1041 C1038 1.409 . S
C1041 C1039 1.415 1_565 S
C1042 H1032 0.930 . S
C1042 C1040 1.419 . S
C1042 C1043 1.362 . S
C1043 H1033 0.930 . S
C1043 C1036 1.409 . S
C1043 C1042 1.362 . S
H1044 C1050 0.930 . S
H1045 C1053 0.930 . S
H1046 C1054 0.930 . S
H1047 C1055 0.930 . S
H1048 C1058 0.930 . S
H1049 C1059 0.930 . S
C1050 H1044 0.930 . S
C1050 C1051 1.355 . S
C1050 C1052 1.415 . S
C1051 C1050 1.355 . S
C1051 C1053 1.419 . S
C1052 C1050 1.415 . S
C1052 C1057 1.425 . S
C1052 C1059 1.409 . S
C1053 H1045 0.930 . S
C1053 C1051 1.419 . S
C1053 C1054 1.362 . S
C1054 H1046 0.930 . S
C1054 C1053 1.362 . S
C1054 C1057 1.409 . S
C1055 H1047 0.930 . S
C1055 C1056 1.355 . S
C1055 C1057 1.415 . S
C1056 C1055 1.355 . S
C1056 C1058 1.419 . S
C1057 C1052 1.425 . S
C1057 C1054 1.409 . S
C1057 C1055 1.415 . S
C1058 H1048 0.930 . S
C1058 C1056 1.419 . S
C1058 C1059 1.362 . S
C1059 H1049 0.930 . S
C1059 C1052 1.409 . S
C1059 C1058 1.362 . S
H1060 C1066 0.930 . S
H1061 C1069 0.930 . S
H1062 C1070 0.930 . S
H1063 C1071 0.930 . S
H1064 C1074 0.930 . S
H1065 C1075 0.930 1_655 S
C1066 H1060 0.930 . S
C1066 C1067 1.355 . S
C1066 C1068 1.415 . S
C1067 C1066 1.355 . S
C1067 C1069 1.419 . S
C1068 C1066 1.415 . S
C1068 C1073 1.425 . S
C1068 C1075 1.409 . S
C1069 H1061 0.930 . S
C1069 C1067 1.419 . S
C1069 C1070 1.362 . S
C1070 H1062 0.930 . S
C1070 C1069 1.362 . S
C1070 C1073 1.409 . S
C1071 H1063 0.930 . S
C1071 C1072 1.344 1_455 S
C1071 C1073 1.415 . S
C1072 C1071 1.344 1_655 S
C1072 C1074 1.417 . S
C1073 C1068 1.425 . S
C1073 C1070 1.409 . S
C1073 C1071 1.415 . S
C1074 H1064 0.930 . S
C1074 C1072 1.417 . S
C1074 C1075 1.362 1_655 S
C1075 H1065 0.930 1_455 S
C1075 C1068 1.409 . S
C1075 C1074 1.362 1_455 S
H1076 C1082 0.930 1_565 S
H1077 C1085 0.930 . S
H1078 C1086 0.930 . S
H1079 C1087 0.930 . S
H1080 C1090 0.930 . S
H1081 C1091 0.930 . S
C1082 H1076 0.930 1_545 S
C1082 C1083 1.355 . S
C1082 C1084 1.415 . S
C1083 C1082 1.355 . S
C1083 C1085 1.419 . S
C1084 C1082 1.415 . S
C1084 C1089 1.425 . S
C1084 C1091 1.409 . S
C1085 H1077 0.930 . S
C1085 C1083 1.419 . S
C1085 C1086 1.362 . S
C1086 H1078 0.930 . S
C1086 C1085 1.362 . S
C1086 C1089 1.409 . S
C1087 H1079 0.930 . S
C1087 C1088 1.355 . S
C1087 C1089 1.415 . S
C1088 C1087 1.355 . S
C1088 C1090 1.419 . S
C1089 C1084 1.425 . S
C1089 C1086 1.409 . S
C1089 C1087 1.415 . S
C1090 H1080 0.930 . S
C1090 C1088 1.419 . S
C1090 C1091 1.362 . S
C1091 H1081 0.930 . S
C1091 C1084 1.409 . S
C1091 C1090 1.362 . S
C715 C477 1.354 . S
C720 C5 1.355 . S
C731 C64 1.349 . S
C736 C536 1.344 . S
C747 C123 1.338 . S
C752 C595 1.335 . S
C763 C182 1.355 . S
C768 C654 1.354 . S
C779 C359 1.354 . S
C784 C241 1.354 . S
C795 C300 1.335 . S
C800 C418 1.334 . S
C811 C583 1.102 . S
C816 C52 1.084 . S
C827 C111 1.110 . S
C832 C642 1.081 . S
C843 C701 1.103 . S
C848 C170 1.083 . S
C859 C229 1.086 . S
C864 C406 1.106 . S
C875 C465 1.109 . S
C880 C288 1.081 . S
C891 C524 1.091 . S
C896 C347 1.093 . S
C907 C33 1.550 . S
C912 C298 1.501 1_554 S
C923 C92 1.532 . S
C928 C3 1.533 1_655 S
C939 C62 1.487 . S
C944 C151 1.526 . S
C955 C210 1.550 . S
C960 C121 1.498 . S
C971 C269 1.536 . S
C976 C180 1.533 1_455 S
C987 C328 1.538 . S
C992 C239 1.472 . S
C1003 C387 1.548 . S
C1008 C416 1.521 . S
C1019 C446 1.549 . S
C1024 C475 1.492 1_556 S
C1035 C505 1.524 . S
C1040 C534 1.527 1_565 S
C1051 C564 1.547 . S
C1056 C593 1.485 . S
C1067 C623 1.525 . S
C1072 C652 1.487 . S
C1083 C357 1.533 1_545 S
C1088 C682 1.531 . S
