# Generated by pormake.
# Topology bsn, (6)-cn, num edge types: 1
# Building blocks:
#     Node 0, Type 0, BuildingBlock: UKALOJ_clean_sbu_0, # of connection points: 6
#     Node 1, Type 0, BuildingBlock: UKALOJ_clean_sbu_0, # of connection points: 6
#     Node 2, Type 0, BuildingBlock: UKALOJ_clean_sbu_0, # of connection points: 6
#     Node 3, Type 0, BuildingBlock: UKALOJ_clean_sbu_0, # of connection points: 6
#     Edge 4, Type (0, 0), BuildingBlock: MIFKUJ_clean_linker_0, # of connection points: 2
#     Edge 5, Type (0, 0), BuildingBlock: MIFKUJ_clean_linker_0, # of connection points: 2
#     Edge 6, Type (0, 0), BuildingBlock: MIFKUJ_clean_linker_0, # of connection points: 2
#     Edge 7, Type (0, 0), BuildingBlock: MIFKUJ_clean_linker_0, # of connection points: 2
#     Edge 8, Type (0, 0), BuildingBlock: MIFKUJ_clean_linker_0, # of connection points: 2
#     Edge 9, Type (0, 0), BuildingBlock: MIFKUJ_clean_linker_0, # of connection points: 2
#     Edge 10, Type (0, 0), BuildingBlock: MIFKUJ_clean_linker_0, # of connection points: 2
#     Edge 11, Type (0, 0), BuildingBlock: MIFKUJ_clean_linker_0, # of connection points: 2
#     Edge 12, Type (0, 0), BuildingBlock: MIFKUJ_clean_linker_0, # of connection points: 2
#     Edge 13, Type (0, 0), BuildingBlock: MIFKUJ_clean_linker_0, # of connection points: 2
#     Edge 14, Type (0, 0), BuildingBlock: MIFKUJ_clean_linker_0, # of connection points: 2
#     Edge 15, Type (0, 0), BuildingBlock: MIFKUJ_clean_linker_0, # of connection points: 2
# Relax obj value: 0.161
# Max RMSD: 0.167
# Mean RMSD: 0.156
data_MOF--net-bsn--node1-UKALOJ_clean_sbu_0--edge1-MIFKUJ_clean_linker_0
_symmetry_space_group_name_H-M    P1
_symmetry_Int_Tables_number       1
_symmetry_cell_setting            triclinic
loop_
_symmetry_equiv_pos_as_xyz
'x, y, z'
_cell_length_a     39.76173
_cell_length_b     44.959754
_cell_length_c     19.265682
_cell_angle_alpha  90.713189
_cell_angle_beta   98.128737
_cell_angle_gamma 89.143472
loop_
_atom_site_label
_atom_site_type_symbol
_atom_site_fract_x
_atom_site_fract_y
_atom_site_fract_z
_atom_type_partial_charge
Zn0 Zn 0.03906 0.30612 0.34396 0.0
O1 O 0.98686 0.31186 0.35487 0.0
C2 C 0.05557 0.28469 0.48721 0.0
Zn3 Zn 0.03688 0.25604 0.34669 0.0
C4 C 0.96976 0.28834 0.35813 0.0
O5 O 0.98459 0.26312 0.35631 0.0
C6 C 0.10593 0.27363 0.33039 0.0
O7 O 0.02409 0.25341 0.23767 0.0
O8 O 0.02557 0.30233 0.23535 0.0
N9 N 0.02986 0.21084 0.35777 0.0
C10 C 0.04132 0.18547 0.33003 0.0
C11 C 1.00654 0.173 0.39876 0.0
N12 N 1.00838 0.20285 0.40052 0.0
N13 N 0.02697 0.16133 0.35503 0.0
C14 C 0.03364 0.37606 0.36578 0.0
C15 C 0.06661 0.39094 0.29577 0.0
N16 N 0.04528 0.35159 0.33452 0.0
N17 N 0.06566 0.36106 0.29099 0.0
N18 N 0.04669 0.40113 0.34222 0.0
H19 H 1.01293 0.35327 0.44793 0.0
H20 H 0.98427 0.37848 0.39712 0.0
H21 H 1.01756 0.39303 0.46107 0.0
C22 C 1.011 0.37509 0.4216 0.0
C23 C 0.06504 0.18465 0.27622 0.0
H24 H 0.06355 0.20579 0.24686 0.0
H25 H 0.05908 0.16572 0.23923 0.0
H26 H 0.09144 0.18172 0.30307 0.0
O27 O 0.08899 0.2502 0.33634 0.0
O28 O 0.09127 0.29898 0.33204 0.0
C29 C 1.02093 0.27751 0.20335 0.0
O30 O 0.05272 0.30866 0.45255 0.0
O31 O 0.05 0.25989 0.45563 0.0
Zn32 Zn 1.00507 0.78209 0.38292 0.0
O33 O 1.0042 0.73477 0.39867 0.0
C34 C 0.03841 0.79224 0.52716 0.0
Zn35 Zn 0.06158 0.77978 0.3928 0.0
C36 C 0.03176 0.71965 0.40853 0.0
O37 O 0.0598 0.73309 0.41036 0.0
C38 C 0.03507 0.84198 0.36444 0.0
O39 O 0.05721 0.77119 0.28613 0.0
O40 O 1.00137 0.77408 0.2759 0.0
N41 N 0.11344 0.77634 0.40279 0.0
C42 C 0.1378 0.79011 0.44714 0.0
C43 C 0.16171 0.75463 0.39754 0.0
N44 N 0.12842 0.75445 0.37169 0.0
N45 N 0.16833 0.77658 0.44567 0.0
C46 C 0.93263 0.77538 0.4217 0.0
C47 C 0.90227 0.80117 0.34386 0.0
N48 N 0.95332 0.78485 0.37699 0.0
N49 N 0.93434 0.80072 0.32835 0.0
N50 N 0.90063 0.78514 0.40177 0.0
H51 H 0.96883 0.7479 0.48863 0.0
H52 H 0.92475 0.74193 0.49628 0.0
H53 H 0.94526 0.77481 0.53317 0.0
C54 C 0.94381 0.75889 0.4884 0.0
C55 C 0.13178 0.81748 0.48939 0.0
H56 H 0.11056 0.83109 0.46293 0.0
H57 H 0.15487 0.83136 0.49803 0.0
H58 H 0.12512 0.81095 0.54098 0.0
O59 O 0.06238 0.8265 0.37316 0.0
O60 O 1.00688 0.82907 0.36583 0.0
C61 C 0.02831 0.7698 0.24858 0.0
O62 O 1.00964 0.79068 0.4897 0.0
O63 O 0.06516 0.78799 0.49962 0.0
Zn64 Zn 0.56575 0.80304 0.83967 0.0
O65 O 0.51331 0.80596 0.84832 0.0
C66 C 0.58046 0.7752 -0.02197 0.0
Zn67 Zn 0.56241 0.75358 0.83283 0.0
C68 C 0.49592 0.78242 0.84681 0.0
O69 O 0.51071 0.75731 0.84395 0.0
C70 C 0.63124 0.7741 0.81604 0.0
O71 O 0.54907 0.75658 0.72436 0.0
O72 O 0.55295 0.8053 0.73155 0.0
N73 N 0.55733 0.70828 0.82804 0.0
C74 C 0.57275 0.6868 0.86983 0.0
C75 C 0.53145 0.6668 0.80414 0.0
N76 N 0.53185 0.69574 0.78685 0.0
N77 N 0.55668 0.6606 0.8566 0.0
C78 C 0.55616 0.86867 0.88693 0.0
C79 C 0.58872 0.89186 0.82792 0.0
N80 N 0.56961 0.8484 0.84609 0.0
N81 N 0.5897 0.8629 0.80926 0.0
N82 N 0.56766 0.89613 0.87624 0.0
H83 H 0.53524 0.83773 0.95475 0.0
H84 H 0.50666 0.86622 0.91747 0.0
H85 H 0.53967 0.87527 -0.01194 0.0
C86 C 0.53338 0.8614 0.94008 0.0
C87 C 0.60449 0.69121 0.92089 0.0
H88 H 0.62025 0.70886 0.903 0.0
H89 H 0.61962 0.67023 0.92745 0.0
H90 H 0.59772 0.69807 0.97262 0.0
O91 O 0.61398 0.7506 0.81774 0.0
O92 O 0.61767 0.79924 0.82677 0.0
C93 C 0.54684 0.78182 0.69497 0.0
O94 O 0.57886 0.80015 0.94782 0.0
O95 O 0.57497 0.75162 0.94174 0.0
Zn96 Zn 0.53792 0.25529 0.29428 0.0
O97 O 0.54702 0.25969 0.40226 0.0
C98 C 0.46615 0.27524 0.29709 0.0
Zn99 Zn 0.5326 0.30473 0.28932 0.0
C100 C 0.54824 0.28488 0.43291 0.0
O101 O 0.54231 0.3085 0.39765 0.0
C102 C 0.52334 0.27532 0.15055 0.0
O103 O 0.58582 0.30801 0.28618 0.0
O104 O 0.59086 0.25944 0.2914 0.0
N105 N 0.52659 0.34989 0.28037 0.0
C106 C 0.54071 0.36964 0.24129 0.0
C107 C 0.50392 0.39327 0.29174 0.0
N108 N 0.50381 0.36465 0.3118 0.0
N109 N 0.52702 0.397 0.24785 0.0
C110 C 0.53119 0.18732 0.26222 0.0
C111 C 0.57069 0.16941 0.33697 0.0
N112 N 0.54451 0.21013 0.30276 0.0
N113 N 0.56876 0.19887 0.34965 0.0
N114 N 0.54728 0.16153 0.28258 0.0
H115 H 0.48938 0.21118 0.20276 0.0
H116 H 0.48794 0.1715 0.19138 0.0
H117 H 0.51804 0.19226 0.1515 0.0
C118 C 0.50502 0.19083 0.19859 0.0
C119 C 0.56629 0.36191 0.19336 0.0
H120 H 0.56546 0.33818 0.17788 0.0
H121 H 0.59211 0.36661 0.22093 0.0
H122 H 0.56192 0.37563 0.14536 0.0
O123 O 0.52254 0.30035 0.18119 0.0
O124 O 0.52988 0.25195 0.18617 0.0
C125 C 0.60449 0.28473 0.28868 0.0
O126 O 0.48463 0.25183 0.29794 0.0
O127 O 0.47983 0.30052 0.29412 0.0
H128 H 0.9889 0.43081 0.36667 0.0
H129 H 0.98301 0.48418 0.39104 0.0
H130 H 0.08962 0.49552 0.37966 0.0
H131 H 0.09572 0.44218 0.35793 0.0
H132 H 0.07202 0.52821 0.48434 0.0
H133 H 0.02603 0.51218 0.24055 0.0
H134 H 0.98732 0.48971 0.14328 0.0
H135 H 0.90124 0.52503 0.2303 0.0
H136 H 0.93946 0.54741 0.32858 0.0
H137 H 0.08542 0.68067 0.41117 0.0
H138 H 0.08451 0.62647 0.41075 0.0
H139 H 0.97648 0.62901 0.41685 0.0
H140 H 0.97707 0.68352 0.41526 0.0
H141 H 0.98996 0.58884 0.32512 0.0
H142 H 0.03604 0.60905 0.56311 0.0
H143 H 0.0747 0.63193 0.6598 0.0
H144 H 0.16016 0.58897 0.5855 0.0
H145 H 0.12206 0.56613 0.48779 0.0
C146 C 1.01123 0.44453 0.37128 0.0
C147 C 0.04294 0.4321 0.36151 0.0
C148 C 1.00776 0.47519 0.38416 0.0
C149 C 0.03582 0.49412 0.38664 0.0
C150 C 0.06756 0.48156 0.37823 0.0
C151 C 0.07101 0.45104 0.36549 0.0
C152 C 0.03237 0.52709 0.39586 0.0
C153 C 0.05422 0.54147 0.44919 0.0
C154 C 1.00852 0.54452 0.35144 0.0
C155 C 0.98557 0.53117 0.29228 0.0
C156 C 0.99884 0.51497 0.23919 0.0
C157 C 0.97699 0.50228 0.18384 0.0
C158 C 0.94184 0.50587 0.18073 0.0
C159 C 0.92847 0.52223 0.23285 0.0
C160 C 0.95021 0.53493 0.28835 0.0
C161 C 0.06145 0.66979 0.41312 0.0
C162 C 0.03132 0.68659 0.41351 0.0
C163 C 0.06099 0.63865 0.41319 0.0
C164 C 0.0305 0.62339 0.41483 0.0
C165 C 1.00038 0.64012 0.41574 0.0
C166 C 1.00077 0.67135 0.4151 0.0
C167 C 0.03005 0.59007 0.41292 0.0
C168 C 1.00749 0.57562 0.36092 0.0
C169 C 0.05321 0.57256 0.45871 0.0
C170 C 0.07619 0.58604 0.51781 0.0
C171 C 0.06309 0.60462 0.56713 0.0
C172 C 0.08491 0.61757 0.62216 0.0
C173 C 0.11987 0.61196 0.62871 0.0
C174 C 0.13307 0.59331 0.58035 0.0
C175 C 0.11137 0.58032 0.52519 0.0
H176 H 0.13671 0.62202 0.67131 0.0
H177 H 0.92497 0.49603 0.13784 0.0
H178 H 0.65879 0.7276 0.75012 0.0
H179 H 0.70755 0.72891 0.68661 0.0
H180 H 0.72809 0.8188 0.76004 0.0
H181 H 0.67839 0.81802 0.82153 0.0
H182 H 0.72733 0.81654 0.62609 0.0
H183 H 0.78142 0.75701 0.81542 0.0
H184 H 0.78734 0.71514 0.89793 0.0
H185 H 0.78356 0.65313 0.72577 0.0
H186 H 0.77717 0.69462 0.64214 0.0
H187 H 0.88316 0.82822 0.48719 0.0
H188 H 0.83935 0.82578 0.56488 0.0
H189 H 0.813 0.73775 0.48484 0.0
H190 H 0.85772 0.74017 0.40883 0.0
H191 H 0.81765 0.73942 0.62391 0.0
H192 H 0.76467 0.80085 0.43493 0.0
H193 H 0.76123 0.84381 0.35573 0.0
H194 H 0.76364 0.90364 0.53161 0.0
H195 H 0.76837 0.86113 0.6122 0.0
C196 C 0.67415 0.74741 0.75422 0.0
C197 C 0.66466 0.77276 0.79071 0.0
C198 C 0.70213 0.74811 0.71787 0.0
C199 C 0.72166 0.77393 0.71861 0.0
C200 C 0.71333 0.79868 0.75836 0.0
C201 C 0.68504 0.79815 0.79386 0.0
C202 C 0.74881 0.77602 0.67321 0.0
C203 C 0.74744 0.79993 0.62659 0.0
C204 C 0.77451 0.75394 0.67226 0.0
C205 C 0.77853 0.72894 0.72249 0.0
C206 C 0.78161 0.73444 0.79513 0.0
C207 C 0.7851 0.71077 0.8421 0.0
C208 C 0.78575 0.68149 0.8171 0.0
C209 C 0.78302 0.67582 0.74506 0.0
C210 C 0.77951 0.69941 0.69786 0.0
C211 C 0.86753 0.80865 0.48591 0.0
C212 C 0.87303 0.78456 0.4419 0.0
C213 C 0.84263 0.80719 0.53007 0.0
C214 C 0.82254 0.78172 0.53 0.0
C215 C 0.8281 0.75764 0.48561 0.0
C216 C 0.85329 0.75904 0.44196 0.0
C217 C 0.7962 0.77998 0.57722 0.0
C218 C 0.79763 0.75608 0.62383 0.0
C219 C 0.77068 0.80221 0.57853 0.0
C220 C 0.76722 0.82775 0.52974 0.0
C221 C 0.76478 0.82315 0.45683 0.0
C222 C 0.76263 0.84743 0.41168 0.0
C223 C 0.76216 0.8764 0.4386 0.0
C224 C 0.76399 0.88118 0.5108 0.0
C225 C 0.76652 0.85701 0.55627 0.0
H226 H 0.76036 0.89514 0.40349 0.0
H227 H 0.78844 0.6632 0.85355 0.0
H228 H 0.58736 0.42149 0.23373 0.0
H229 H 0.59638 0.46656 0.1686 0.0
H230 H 0.48786 0.47794 0.11497 0.0
H231 H 0.479 0.43305 0.18064 0.0
H232 H 0.58132 0.48079 0.03468 0.0
H233 H 0.46706 0.55066 0.10675 0.0
H234 H 0.43377 0.55657 0.20497 0.0
H235 H 0.51887 0.52486 0.34853 0.0
H236 H 0.55279 0.51914 0.25138 0.0
H237 H 0.54685 0.60477 0.8059 0.0
H238 H 0.54573 0.55919 0.87409 0.0
H239 H 0.57217 0.60981 0.06534 0.0
H240 H 0.57062 0.65522 -0.00193 0.0
H241 H 0.52391 0.57612 0.08178 0.0
H242 H 0.62952 0.56023 -0.0061 0.0
H243 H 0.66798 0.55563 0.90442 0.0
H244 H 0.61022 0.4823 0.80836 0.0
H245 H 0.5711 0.48675 0.89668 0.0
C246 C 0.56556 0.43358 0.20752 0.0
C247 C 0.53251 0.42379 0.21137 0.0
C248 C 0.57068 0.45928 0.1705 0.0
C249 C 0.54281 0.47572 0.13716 0.0
C250 C 0.50976 0.46589 0.1411 0.0
C251 C 0.50467 0.44032 0.17849 0.0
C252 C 0.54821 0.50318 0.0984 0.0
C253 C 0.56884 0.50168 0.04499 0.0
C254 C 0.53243 0.53055 0.11269 0.0
C255 C 0.51233 0.5342 0.17163 0.0
C256 C 0.4787 0.54505 0.15932 0.0
C257 C 0.45972 0.54835 0.2148 0.0
C258 C 0.47416 0.54101 0.28291 0.0
C259 C 0.50766 0.53044 0.29572 0.0
C260 C 0.52676 0.52712 0.24045 0.0
C261 C 0.55287 0.60597 0.86246 0.0
C262 C 0.56005 0.63349 0.89629 0.0
C263 C 0.55243 0.57993 0.9014 0.0
C264 C 0.55948 0.58091 -0.02502 0.0
C265 C 0.56698 0.60836 0.00867 0.0
C266 C 0.56686 0.63436 0.96989 0.0
C267 C 0.55691 0.55384 0.01743 0.0
C268 C 0.53659 0.55533 0.07143 0.0
C269 C 0.57372 0.52672 0.0048 0.0
C270 C 0.59719 0.52402 0.95155 0.0
C271 C 0.62485 0.54328 0.95337 0.0
C272 C 0.6468 0.54067 0.9029 0.0
C273 C 0.64149 0.51874 0.85063 0.0
C274 C 0.61427 0.49932 0.84881 0.0
C275 C 0.59222 0.50185 0.89909 0.0
H276 H 0.65852 0.51675 0.81162 0.0
H277 H 0.45942 0.54356 0.32577 0.0
H278 H 0.92887 0.33801 0.36338 0.0
H279 H 0.86671 0.33976 0.35413 0.0
H280 H 0.86433 0.24391 0.34547 0.0
H281 H 0.9261 0.24192 0.35451 0.0
H282 H 0.82032 0.26799 0.24104 0.0
H283 H 0.84481 0.27955 0.49175 0.0
H284 H 0.87152 0.30189 0.60321 0.0
H285 H 0.82707 0.38681 0.54115 0.0
H286 H 0.79979 0.36483 0.42949 0.0
H287 H 0.65108 0.23929 0.29081 0.0
H288 H 0.71283 0.24283 0.30248 0.0
H289 H 0.70471 0.33858 0.30642 0.0
H290 H 0.64272 0.33526 0.29532 0.0
H291 H 0.7538 0.31795 0.40927 0.0
H292 H 0.72395 0.30312 0.16169 0.0
H293 H 0.69587 0.27839 0.05443 0.0
H294 H 0.75115 0.19757 0.11201 0.0
H295 H 0.77922 0.22169 0.22017 0.0
C296 C 0.91512 0.3173 0.36026 0.0
C297 C 0.9325 0.28984 0.35927 0.0
C298 C 0.87959 0.31834 0.35517 0.0
C299 C 0.86083 0.29194 0.34898 0.0
C300 C 0.87823 0.26455 0.34981 0.0
C301 C 0.91363 0.26349 0.35524 0.0
C302 C 0.82303 0.2927 0.33814 0.0
C303 C 0.80579 0.27866 0.27821 0.0
C304 C 0.80401 0.30726 0.38557 0.0
C305 C 0.8206 0.32065 0.45208 0.0
C306 C 0.84093 0.30303 0.50172 0.0
C307 C 0.85603 0.31559 0.56503 0.0
C308 C 0.85117 0.3458 0.57909 0.0
C309 C 0.83089 0.36343 0.53011 0.0
C310 C 0.81547 0.35091 0.46695 0.0
C311 C 0.66234 0.26114 0.29366 0.0
C312 C 0.64188 0.287 0.29187 0.0
C313 C 0.6977 0.26312 0.3002 0.0
C314 C 0.71343 0.29098 0.30476 0.0
C315 C 0.69313 0.31685 0.30293 0.0
C316 C 0.65768 0.3149 0.2962 0.0
C317 C 0.7511 0.2929 0.31259 0.0
C318 C 0.76832 0.30749 0.37179 0.0
C319 C 0.77014 0.27867 0.26464 0.0
C320 C 0.75349 0.26416 0.19934 0.0
C321 C 0.72995 0.28001 0.15174 0.0
C322 C 0.71406 0.26611 0.09074 0.0
C323 C 0.72167 0.23641 0.07649 0.0
C324 C 0.74526 0.22057 0.12314 0.0
C325 C 0.7612 0.23436 0.18426 0.0
H326 H 0.70933 0.22569 0.02924 0.0
H327 H 0.86305 0.35551 0.628 0.0
H328 H 0.4281 0.22511 0.3039 0.0
H329 H 0.36693 0.22243 0.30797 0.0
H330 H 0.359 0.31812 0.29798 0.0
H331 H 0.42002 0.32102 0.29507 0.0
H332 H 0.32448 0.298 0.39521 0.0
H333 H 0.33264 0.27301 0.15457 0.0
H334 H 0.35337 0.24459 0.05846 0.0
H335 H 0.31246 0.16449 0.12982 0.0
H336 H 0.29188 0.19238 0.22699 0.0
H337 H 0.14814 0.31939 0.31222 0.0
H338 H 0.20877 0.31691 0.3042 0.0
H339 H 0.20775 0.22145 0.3228 0.0
H340 H 0.14666 0.22367 0.32991 0.0
H341 H 0.24687 0.23849 0.22481 0.0
H342 H 0.23716 0.26407 0.46343 0.0
H343 H 0.21604 0.29284 0.55854 0.0
H344 H 0.25999 0.37212 0.49033 0.0
H345 H 0.28097 0.3439 0.39414 0.0
C346 C 0.41333 0.24559 0.30255 0.0
C347 C 0.42903 0.27329 0.29917 0.0
C348 C 0.3783 0.24401 0.30452 0.0
C349 C 0.35822 0.27007 0.30262 0.0
C350 C 0.3739 0.2977 0.29954 0.0
C351 C 0.40885 0.29931 0.2977 0.0
C352 C 0.32097 0.26879 0.30509 0.0
C353 C 0.30751 0.28523 0.35741 0.0
C354 C 0.29882 0.2515 0.25703 0.0
C355 C 0.31106 0.23472 0.19851 0.0
C356 C 0.32831 0.24929 0.15011 0.0
C357 C 0.33999 0.23329 0.09538 0.0
C358 C 0.33432 0.20274 0.08816 0.0
C359 C 0.31688 0.18815 0.13555 0.0
C360 C 0.30518 0.20404 0.19043 0.0
C361 C 0.16069 0.29781 0.31447 0.0
C362 C 0.14254 0.27175 0.3226 0.0
C363 C 0.19545 0.29645 0.31001 0.0
C364 C 0.213 0.26905 0.31416 0.0
C365 C 0.19479 0.24286 0.31987 0.0
C366 C 0.1599 0.24418 0.32421 0.0
C367 C 0.25046 0.26803 0.31431 0.0
C368 C 0.26393 0.25113 0.26272 0.0
C369 C 0.27269 0.28492 0.363 0.0
C370 C 0.2604 0.3019 0.42123 0.0
C371 C 0.24213 0.28768 0.46843 0.0
C372 C 0.23021 0.30389 0.52257 0.0
C373 C 0.23661 0.3343 0.53038 0.0
C374 C 0.25503 0.34856 0.48417 0.0
C375 C 0.26697 0.33246 0.42988 0.0
H376 H 0.22734 0.34682 0.57232 0.0
H377 H 0.34338 0.19039 0.04576 0.0
H378 H 0.45143 0.73642 0.83823 0.0
H379 H 0.39272 0.73753 0.78084 0.0
H380 H 0.39671 0.83296 0.76416 0.0
H381 H 0.4557 0.83208 0.82087 0.0
H382 H 0.33231 0.76179 0.79238 0.0
H383 H 0.36516 0.85129 0.59762 0.0
H384 H 0.41544 0.86846 0.54819 0.0
H385 H 0.46324 0.78277 0.58527 0.0
H386 H 0.41328 0.76508 0.63443 0.0
H387 H 0.17854 0.79348 0.58382 0.0
H388 H 0.23234 0.79882 0.6586 0.0
H389 H 0.28492 0.76784 0.48957 0.0
H390 H 0.23086 0.76622 0.41138 0.0
H391 H 0.32196 0.80567 0.55501 0.0
H392 H 0.26561 0.72202 0.63126 0.0
H393 H 0.21889 0.69421 0.67069 0.0
H394 H 0.22349 0.75025 0.85381 0.0
H395 H 0.26998 0.77864 0.81502 0.0
C396 C 0.43956 0.75777 0.82429 0.0
C397 C 0.45844 0.78411 0.83288 0.0
C398 C 0.40595 0.75835 0.79144 0.0
C399 C 0.39072 0.78523 0.76668 0.0
C400 C 0.40831 0.81191 0.78173 0.0
C401 C 0.44195 0.81137 0.81463 0.0
C402 C 0.35814 0.78491 0.71875 0.0
C403 C 0.32986 0.77159 0.74069 0.0
C404 C 0.3555 0.79645 0.65014 0.0
C405 C 0.38565 0.80703 0.62057 0.0
C406 C 0.38642 0.83615 0.59522 0.0
C407 C 0.41489 0.84596 0.56733 0.0
C408 C 0.44264 0.82678 0.56409 0.0
C409 C 0.44191 0.7977 0.58842 0.0
C410 C 0.41354 0.78779 0.61639 0.0
C411 C 0.20144 0.78932 0.56104 0.0
C412 C 0.20029 0.78065 0.49034 0.0
C413 C 0.23238 0.79145 0.60488 0.0
C414 C 0.26285 0.78319 0.58047 0.0
C415 C 0.26186 0.77446 0.50989 0.0
C416 C 0.23094 0.77335 0.46529 0.0
C417 C 0.29554 0.78299 0.62884 0.0
C418 C 0.32404 0.79615 0.60692 0.0
C419 C 0.29883 0.76978 0.69607 0.0
C420 C 0.27106 0.75263 0.71989 0.0
C421 C 0.25652 0.72852 0.67974 0.0
C422 C 0.2301 0.71264 0.70199 0.0
C423 C 0.21817 0.72051 0.76462 0.0
C424 C 0.23273 0.74421 0.80526 0.0
C425 C 0.25914 0.76018 0.78321 0.0
H426 H 0.1977 0.7082 0.78174 0.0
H427 H 0.46461 0.83438 0.54232 0.0
H428 H 0.50839 0.91964 0.90818 0.0
H429 H 0.50161 0.96426 -0.02049 0.0
H430 H 0.60928 0.97995 -0.00389 0.0
H431 H 0.61618 0.93469 0.92715 0.0
H432 H 0.58843 0.98518 0.12108 0.0
H433 H 0.55049 1.02163 0.8888 0.0
H434 H 0.51543 1.02214 0.77249 0.0
H435 H 0.42512 0.03239 0.86962 0.0
H436 H 0.45962 0.03154 -0.0134 0.0
H437 H 0.60034 0.13473 0.23551 0.0
H438 H 0.60025 0.08807 0.16851 0.0
H439 H 0.49318 0.07875 0.17845 0.0
H440 H 0.49353 0.12539 0.24682 0.0
H441 H 0.50936 0.06869 0.04488 0.0
H442 H 0.5481 0.03539 0.27727 0.0
H443 H 0.58359 0.03564 0.39307 0.0
H444 H 0.67284 1.01983 0.29521 0.0
H445 H 0.63794 1.01992 0.17868 0.0
C446 C 0.53059 0.93246 0.92781 0.0
C447 C 0.56293 0.92343 0.91364 0.0
C448 C 0.52666 0.95814 0.96774 0.0
C449 C 0.55495 0.97547 -0.00683 0.0
C450 C 0.58712 0.96685 -0.02262 0.0
C451 C 0.59103 0.94116 0.93768 0.0
C452 C 0.55141 1.00212 0.03797 0.0
C453 C 0.57141 1.00358 0.10405 0.0
C454 C 0.52838 1.0257 0.01674 0.0
C455 C 0.50761 1.02617 0.94646 0.0
C456 C 0.52313 1.02372 0.88537 0.0
C457 C 0.50336 1.02413 0.81932 0.0
C458 C 0.46806 1.02721 0.81367 0.0
C459 C 0.45246 1.02996 0.87408 0.0
C460 C 0.47211 1.02953 0.94026 0.0
C461 C 0.57691 0.12253 0.22369 0.0
C462 C 0.54684 0.13371 0.24509 0.0
C463 C 0.57684 0.09596 0.18555 0.0
C464 C 0.54672 0.07991 0.1687 0.0
C465 C 0.51663 0.09091 0.19058 0.0
C466 C 0.51677 0.11753 0.2291 0.0
C467 C 0.54685 0.05191 0.12726 0.0
C468 C 0.52618 0.05017 0.06201 0.0
C469 C 0.56931 1.02806 0.14912 0.0
C470 C 0.59041 1.02791 0.21917 0.0
C471 C 0.57532 0.0322 0.28038 0.0
C472 C 0.59533 0.03224 0.34617 0.0
C473 C 0.63045 1.02781 0.35149 0.0
C474 C 0.64563 1.02328 0.29101 0.0
C475 C 0.62574 1.02325 0.22508 0.0
H476 H 0.6459 1.02784 0.40247 0.0
H477 H 0.45281 1.02753 0.76249 0.0
H478 H 0.98175 0.88191 0.34779 0.0
H479 H 0.98384 0.93586 0.33562 0.0
H480 H 0.09285 0.93059 0.34639 0.0
H481 H 0.09101 0.8766 0.35988 0.0
H482 H 0.07607 0.97522 0.4258 0.0
H483 H 0.04031 0.94395 0.18963 0.0
H484 H 1.00523 0.91733 0.09335 0.0
H485 H 0.91677 0.96614 0.13668 0.0
H486 H 0.95124 0.99277 0.23386 0.0
H487 H 0.08491 0.1294 0.34343 0.0
H488 H 0.08999 0.07505 0.33244 0.0
H489 H 0.98168 0.06762 0.32804 0.0
H490 H 0.97657 0.12171 0.33718 0.0
H491 H 1.00302 1.02918 0.23676 0.0
H492 H 0.03825 0.05677 0.47944 0.0
H493 H 0.07334 0.08313 0.57619 0.0
H494 H 0.16326 0.0409 0.51933 0.0
H495 H 0.12871 1.01457 0.42163 0.0
C496 C 1.00619 0.89216 0.34722 0.0
C497 C 0.0362 0.87478 0.35458 0.0
C498 C 1.00734 0.92309 0.33989 0.0
C499 C 0.03848 0.93745 0.33909 0.0
C500 C 0.06849 0.92015 0.34663 0.0
C501 C 0.06737 0.8892 0.35411 0.0
C502 C 0.03972 0.97053 0.33232 0.0
C503 C 0.06054 0.98693 0.38365 0.0
C504 C 1.01915 0.98607 0.27803 0.0
C505 C 0.99834 0.97019 0.21942 0.0
C506 C 1.01334 0.94886 0.17896 0.0
C507 C 0.99356 0.93379 0.12416 0.0
C508 C 0.95878 0.94 0.10901 0.0
C509 C 0.94371 0.96134 0.14852 0.0
C510 C 0.96337 0.97646 0.2034 0.0
C511 C 0.06215 0.11621 0.3381 0.0
C512 C 0.03027 0.12989 0.34033 0.0
C513 C 0.06509 0.08509 0.33279 0.0
C514 C 0.03623 0.06705 0.33013 0.0
C515 C 1.00433 0.08087 0.32991 0.0
C516 C 1.00143 0.11182 0.33535 0.0
C517 C 0.03898 0.03383 0.33076 0.0
C518 C 1.01886 1.0174 0.27835 0.0
C519 C 0.06022 1.01826 0.38397 0.0
C520 C 0.08096 0.03399 0.44278 0.0
C521 C 0.06554 0.05329 0.48726 0.0
C522 C 0.08531 0.06819 0.54231 0.0
C523 C 0.12051 0.06376 0.55376 0.0
C524 C 0.136 0.04435 0.51031 0.0
C525 C 0.11633 1.02943 0.45511 0.0
H526 H 0.13579 0.07531 0.59642 0.0
H527 H 0.94352 0.92831 0.06657 0.0
H528 H 0.02698 0.22961 0.11756 0.0
H529 H 0.03181 0.23112 -0.00738 0.0
H530 H 1.00957 0.32534 -0.00909 0.0
H531 H 1.00455 0.3241 0.11563 0.0
H532 H 0.98254 0.29569 0.86633 0.0
H533 H 0.08758 0.30648 0.02085 0.0
H534 H 0.13068 0.2921 0.12009 0.0
H535 H 0.1484 0.20947 0.01626 0.0
H536 H 0.10484 0.2231 0.91697 0.0
H537 H 0.05529 0.33349 0.57266 0.0
H538 H 0.05385 0.33338 0.69901 0.0
H539 H 0.06862 0.23814 0.7015 0.0
H540 H 0.07021 0.23794 0.57532 0.0
H541 H 0.10032 0.2698 0.82627 0.0
H542 H 0.99216 0.25986 0.67305 0.0
H543 H 0.95241 0.27739 0.57128 0.0
H544 H 0.94277 0.36186 0.67353 0.0
H545 H 0.98304 0.345 0.7754 0.0
C546 C 0.02215 0.25047 0.09017 0.0
C547 C 1.01607 0.27686 0.12639 0.0
C548 C 0.02499 0.25129 0.01899 0.0
C549 C 1.02168 0.27845 -0.0165 0.0
C550 C 1.01237 0.30425 0.01788 0.0
C551 C 1.0097 0.3035 0.08908 0.0
C552 C 0.03217 0.28071 0.91367 0.0
C553 C 1.00829 0.29024 0.85761 0.0
C554 C 0.0659 0.27368 0.9029 0.0
C555 C 0.09267 0.26567 0.9618 0.0
C556 C 0.10047 0.28514 0.0194 0.0
C557 C 0.125 0.27714 0.07566 0.0
C558 C 0.14221 0.24986 0.07457 0.0
C559 C 0.135 0.23057 0.01709 0.0
C560 C 0.11039 0.23842 0.9608 0.0
C561 C 0.05921 0.31263 0.60039 0.0
C562 C 0.06205 0.28562 0.56412 0.0
C563 C 0.05847 0.31264 0.67244 0.0
C564 C 0.0606 0.28569 0.70869 0.0
C565 C 0.06686 0.25909 0.67395 0.0
C566 C 0.06746 0.25902 0.60189 0.0
C567 C 0.05064 0.2845 0.7791 0.0
C568 C 0.07458 0.2752 0.83518 0.0
C569 C 1.01708 0.29198 0.79008 0.0
C570 C 0.99084 0.30129 0.73149 0.0
C571 C 0.98156 0.28218 0.6738 0.0
C572 C 0.95903 0.29201 0.61605 0.0
C573 C 0.94531 0.3208 0.61575 0.0
C574 C 0.95359 0.33962 0.67374 0.0
C575 C 0.97624 0.32993 0.73152 0.0
H576 H 0.92828 0.32852 0.57057 0.0
H577 H 0.16118 0.2437 0.1182 0.0
H578 H 0.98791 0.81134 0.59842 0.0
H579 H 0.98818 0.80978 0.72482 0.0
H580 H 0.09349 0.78169 0.75271 0.0
H581 H 0.09337 0.78275 0.62597 0.0
H582 H 0.05122 0.74288 0.80609 0.0
H583 H 0.07381 0.84692 0.81541 0.0
H584 H 0.06584 0.89957 0.7821 0.0
H585 H 0.96572 0.89971 0.84134 0.0
H586 H 0.97285 0.84688 0.87397 0.0
H587 H 0.07922 0.75165 0.17726 0.0
H588 H 0.07883 0.75314 0.05084 0.0
H589 H 0.97305 0.77973 0.02289 0.0
H590 H 0.97316 0.77846 0.14967 0.0
H591 H 1.01544 0.81928 0.96962 0.0
H592 H 0.99306 0.71507 0.96027 0.0
H593 H 1.00141 0.66252 -0.00576 0.0
H594 H 0.10166 0.66287 0.93566 0.0
H595 H 0.09412 0.7156 0.90233 0.0
C596 C 1.01128 0.80533 0.63159 0.0
C597 C 0.04043 0.79662 0.60277 0.0
C598 C 1.01147 0.80473 0.70361 0.0
C599 C 0.04084 0.79556 0.74731 0.0
C600 C 0.07066 0.78879 0.71915 0.0
C601 C 0.07053 0.78947 0.64705 0.0
C602 C 0.03886 0.7892 0.82076 0.0
C603 C 0.04403 0.75964 0.84248 0.0
C604 C 0.02823 0.81104 0.86644 0.0
C605 C 0.02376 0.84281 0.84652 0.0
C606 C 0.04995 0.85807 0.82068 0.0
C607 C 0.04561 0.88798 0.80206 0.0
C608 C 1.01526 0.90296 0.80943 0.0
C609 C 0.9892 0.88807 0.83557 0.0
C610 C 0.99339 0.85814 0.8542 0.0
C611 C 0.05569 0.75724 0.14411 0.0
C612 C 0.02637 0.76547 0.17293 0.0
C613 C 0.05547 0.75785 0.07208 0.0
C614 C 0.02594 0.76661 0.02837 0.0
C615 C 0.99601 0.77295 0.05649 0.0
C616 C 0.99614 0.77219 0.12861 0.0
C617 C 0.0278 0.77296 0.95489 0.0
C618 C 0.02261 0.80253 0.93319 0.0
C619 C 0.03846 0.75114 0.90925 0.0
C620 C 0.04312 0.71941 0.92939 0.0
C621 C 1.01701 0.70405 0.95525 0.0
C622 C 1.02158 0.6742 -0.02574 0.0
C623 C 0.05208 0.65939 0.96728 0.0
C624 C 0.07806 0.67438 0.94112 0.0
C625 C 0.07364 0.70425 0.92208 0.0
H626 H 0.05555 0.63627 -0.018 0.0
H627 H 1.01196 0.92612 0.79503 0.0
H628 H 0.59711 0.82066 0.07038 0.0
H629 H 0.59083 0.82162 0.19446 0.0
H630 H 0.56399 0.72886 0.18268 0.0
H631 H 0.56987 0.72769 0.05828 0.0
H632 H 0.51646 0.76454 0.23495 0.0
H633 H 0.63654 0.74766 0.27524 0.0
H634 H 0.69648 0.75609 0.26255 0.0
H635 H 0.68977 0.84438 0.34757 0.0
H636 H 0.62969 0.83658 0.36014 0.0
H637 H 0.5303 0.73662 0.60153 0.0
H638 H 0.53107 0.7381 0.47523 0.0
H639 H 0.55039 0.83231 0.48934 0.0
H640 H 0.5495 0.83119 0.61567 0.0
H641 H 0.60047 0.79736 0.43543 0.0
H642 H 0.47999 0.81213 0.40117 0.0
H643 H 0.42099 0.80153 0.4175 0.0
H644 H 0.42919 0.71491 0.3246 0.0
H645 H 0.48841 0.72483 0.30835 0.0
C646 C 0.59065 0.80028 0.09456 0.0
C647 C 0.58377 0.77414 0.05471 0.0
C648 C 0.58711 0.80087 0.16534 0.0
C649 C 0.57678 0.77534 0.19707 0.0
C650 C 0.57184 0.74876 0.15854 0.0
C651 C 0.57549 0.7481 0.08777 0.0
C652 C 0.56839 0.77718 0.26876 0.0
C653 C 0.53489 0.77131 0.27912 0.0
C654 C 0.59233 0.78683 0.32535 0.0
C655 C 0.62849 0.79164 0.31789 0.0
C656 C 0.64776 0.76897 0.29067 0.0
C657 C 0.6818 0.7736 0.28369 0.0
C658 C 0.69691 0.80077 0.30407 0.0
C659 C 0.67806 0.82334 0.33179 0.0
C660 C 0.64401 0.81881 0.33893 0.0
C661 C 0.53395 0.75778 0.57754 0.0
C662 C 0.54059 0.78367 0.61838 0.0
C663 C 0.53417 0.7586 0.5055 0.0
C664 C 0.54104 0.78528 0.4738 0.0
C665 C 0.54519 0.81156 0.51353 0.0
C666 C 0.5447 0.81083 0.58549 0.0
C667 C 0.54858 0.78473 0.40159 0.0
C668 C 0.58197 0.79079 0.39115 0.0
C669 C 0.5246 0.77505 0.34519 0.0
C670 C 0.48878 0.76915 0.354 0.0
C671 C 0.46933 0.79073 0.38465 0.0
C672 C 0.43582 0.78486 0.39385 0.0
C673 C 0.4214 0.75753 0.37236 0.0
C674 C 0.44041 0.73606 0.34129 0.0
C675 C 0.47393 0.74182 0.33193 0.0
H676 H 0.39547 0.75302 0.37962 0.0
H677 H 0.72323 0.80428 0.29839 0.0
H678 H 0.53484 0.33105 0.5177 0.0
H679 H 0.53744 0.32968 0.6449 0.0
H680 H 0.58061 0.24093 0.64671 0.0
H681 H 0.57742 0.24186 0.51944 0.0
H682 H 0.52254 0.24329 0.70106 0.0
H683 H 0.62603 0.29752 0.7272 0.0
H684 H 0.66451 0.33784 0.70577 0.0
H685 H 0.59796 0.40212 0.78427 0.0
H686 H 0.55879 0.36224 0.8052 0.0
H687 H 0.54117 0.22908 0.07085 0.0
H688 H 0.54677 0.23049 0.94675 0.0
H689 H 0.50504 0.31981 0.93439 0.0
H690 H 0.50007 0.31888 0.05916 0.0
H691 H 0.56535 0.31598 0.88722 0.0
H692 H 0.46047 0.26215 0.85449 0.0
H693 H 0.42196 0.22189 0.87621 0.0
H694 H 0.49134 0.157 0.80955 0.0
H695 H 0.53051 0.19687 0.78832 0.0
C696 C 0.5456 0.31155 0.54548 0.0
C697 C 0.5552 0.2863 0.50919 0.0
C698 C 0.54732 0.31089 0.61798 0.0
C699 C 0.55915 0.28516 0.65452 0.0
C700 C 0.5713 0.26087 0.61885 0.0
C701 C 0.56927 0.2614 0.54642 0.0
C702 C 0.55368 0.28185 0.72746 0.0
C703 C 0.53246 0.25881 0.74226 0.0
C704 C 0.56578 0.30278 0.77984 0.0
C705 C 0.58931 0.32687 0.76724 0.0
C706 C 0.61943 0.32027 0.73933 0.0
C707 C 0.6414 0.34305 0.72738 0.0
C708 C 0.63365 0.37252 0.7435 0.0
C709 C 0.60393 0.37928 0.77175 0.0
C710 C 0.58185 0.35659 0.78375 0.0
C711 C 0.5324 0.24873 0.04133 0.0
C712 C 0.52049 0.27398 0.07432 0.0
C713 C 0.5356 0.24949 0.97058 0.0
C714 C 0.52634 0.27528 0.9321 0.0
C715 C 0.51245 0.29983 0.96389 0.0
C716 C 0.50955 0.29921 0.03479 0.0
C717 C 0.53404 0.27759 0.86042 0.0
C718 C 0.55564 0.3004 0.84598 0.0
C719 C 0.52225 0.25649 0.80822 0.0
C720 C 0.49856 0.2325 0.82039 0.0
C721 C 0.46764 0.23929 0.84494 0.0
C722 C 0.44567 0.21653 0.85708 0.0
C723 C 0.45424 0.1869 0.84442 0.0
C724 C 0.48475 0.17996 0.81939 0.0
C725 C 0.50682 0.20263 0.80721 0.0
H726 H 0.4372 0.16932 0.85389 0.0
H727 H 0.6507 0.39012 0.73423 0.0
loop_
_geom_bond_atom_site_label_1
_geom_bond_atom_site_label_2
_geom_bond_distance
_geom_bond_site_symmetry_2
_ccdc_geom_bond_type
Zn0 O1 2.055 1_455 S
Zn0 O8 2.046 . S
Zn0 N16 2.036 . S
Zn0 O28 2.053 . S
Zn0 O30 2.066 . S
O1 Zn0 2.055 1_655 S
O1 C4 1.259 . S
C2 O30 1.256 . S
C2 O31 1.244 . S
Zn3 O5 2.046 1_455 S
Zn3 O7 2.055 . S
Zn3 N9 2.036 . S
Zn3 O27 2.066 . S
Zn3 O31 2.053 . S
C4 O1 1.259 . S
C4 O5 1.254 . S
O5 Zn3 2.046 1_655 S
O5 C4 1.254 . S
C6 O27 1.256 . S
C6 O28 1.244 . S
O7 Zn3 2.055 . S
O7 C29 1.259 . S
O8 Zn0 2.046 . S
O8 C29 1.254 . S
N9 Zn3 2.036 . S
N9 C10 1.298 . S
N9 N12 1.398 . S
C10 N9 1.298 . S
C10 N13 1.367 . S
C10 C23 1.481 . S
C11 N12 1.299 . S
C11 N13 1.379 . S
N12 N9 1.398 . S
N12 C11 1.299 . S
N13 C10 1.367 . S
N13 C11 1.379 . S
C14 N16 1.298 . S
C14 N18 1.367 . S
C14 C22 1.481 1_455 S
C15 N17 1.299 . S
C15 N18 1.379 . S
N16 Zn0 2.036 . S
N16 C14 1.298 . S
N16 N17 1.398 . S
N17 C15 1.299 . S
N17 N16 1.398 . S
N18 C14 1.367 . S
N18 C15 1.379 . S
H19 C22 0.980 . S
H20 C22 0.981 . S
H21 C22 0.981 . S
C22 C14 1.481 1_655 S
C22 H19 0.980 . S
C22 H20 0.981 . S
C22 H21 0.981 . S
C23 C10 1.481 . S
C23 H24 0.980 . S
C23 H25 0.981 . S
C23 H26 0.981 . S
H24 C23 0.980 . S
H25 C23 0.981 . S
H26 C23 0.981 . S
O27 Zn3 2.066 . S
O27 C6 1.256 . S
O28 Zn0 2.053 . S
O28 C6 1.244 . S
C29 O7 1.259 . S
C29 O8 1.254 . S
O30 Zn0 2.066 . S
O30 C2 1.256 . S
O31 C2 1.244 . S
O31 Zn3 2.053 . S
Zn32 O33 2.055 . S
Zn32 O40 2.046 . S
Zn32 N48 2.036 . S
Zn32 O60 2.053 . S
Zn32 O62 2.066 . S
O33 Zn32 2.055 . S
O33 C36 1.259 1_655 S
C34 O62 1.256 1_455 S
C34 O63 1.244 . S
Zn35 O37 2.046 . S
Zn35 O39 2.055 . S
Zn35 N41 2.036 . S
Zn35 O59 2.066 . S
Zn35 O63 2.053 . S
C36 O33 1.259 1_455 S
C36 O37 1.254 . S
O37 Zn35 2.046 . S
O37 C36 1.254 . S
C38 O59 1.256 . S
C38 O60 1.244 1_455 S
O39 Zn35 2.055 . S
O39 C61 1.259 . S
O40 Zn32 2.046 . S
O40 C61 1.254 1_655 S
N41 Zn35 2.036 . S
N41 C42 1.298 . S
N41 N44 1.398 . S
C42 N41 1.298 . S
C42 N45 1.367 . S
C42 C55 1.481 . S
C43 N44 1.299 . S
C43 N45 1.379 . S
N44 N41 1.398 . S
N44 C43 1.299 . S
N45 C42 1.367 . S
N45 C43 1.379 . S
C46 N48 1.298 . S
C46 N50 1.367 . S
C46 C54 1.481 . S
C47 N49 1.299 . S
C47 N50 1.379 . S
N48 Zn32 2.036 . S
N48 C46 1.298 . S
N48 N49 1.398 . S
N49 C47 1.299 . S
N49 N48 1.398 . S
N50 C46 1.367 . S
N50 C47 1.379 . S
H51 C54 0.980 . S
H52 C54 0.981 . S
H53 C54 0.981 . S
C54 C46 1.481 . S
C54 H51 0.980 . S
C54 H52 0.981 . S
C54 H53 0.981 . S
C55 C42 1.481 . S
C55 H56 0.980 . S
C55 H57 0.981 . S
C55 H58 0.981 . S
H56 C55 0.980 . S
H57 C55 0.981 . S
H58 C55 0.981 . S
O59 Zn35 2.066 . S
O59 C38 1.256 . S
O60 Zn32 2.053 . S
O60 C38 1.244 1_655 S
C61 O39 1.259 . S
C61 O40 1.254 1_455 S
O62 Zn32 2.066 . S
O62 C34 1.256 1_655 S
O63 C34 1.244 . S
O63 Zn35 2.053 . S
Zn64 O65 2.055 . S
Zn64 O72 2.046 . S
Zn64 N80 2.036 . S
Zn64 O92 2.053 . S
Zn64 O94 2.066 . S
O65 Zn64 2.055 . S
O65 C68 1.259 . S
C66 O94 1.256 . S
C66 O95 1.244 . S
Zn67 O69 2.046 . S
Zn67 O71 2.055 . S
Zn67 N73 2.036 . S
Zn67 O91 2.066 . S
Zn67 O95 2.053 . S
C68 O65 1.259 . S
C68 O69 1.254 . S
O69 Zn67 2.046 . S
O69 C68 1.254 . S
C70 O91 1.256 . S
C70 O92 1.244 . S
O71 Zn67 2.055 . S
O71 C93 1.259 . S
O72 Zn64 2.046 . S
O72 C93 1.254 . S
N73 Zn67 2.036 . S
N73 C74 1.298 . S
N73 N76 1.398 . S
C74 N73 1.298 . S
C74 N77 1.367 . S
C74 C87 1.481 . S
C75 N76 1.299 . S
C75 N77 1.379 . S
N76 N73 1.398 . S
N76 C75 1.299 . S
N77 C74 1.367 . S
N77 C75 1.379 . S
C78 N80 1.298 . S
C78 N82 1.367 . S
C78 C86 1.481 . S
C79 N81 1.299 . S
C79 N82 1.379 . S
N80 Zn64 2.036 . S
N80 C78 1.298 . S
N80 N81 1.398 . S
N81 C79 1.299 . S
N81 N80 1.398 . S
N82 C78 1.367 . S
N82 C79 1.379 . S
H83 C86 0.980 . S
H84 C86 0.981 . S
H85 C86 0.981 . S
C86 C78 1.481 . S
C86 H83 0.980 . S
C86 H84 0.981 . S
C86 H85 0.981 . S
C87 C74 1.481 . S
C87 H88 0.980 . S
C87 H89 0.981 . S
C87 H90 0.981 . S
H88 C87 0.980 . S
H89 C87 0.981 . S
H90 C87 0.981 . S
O91 Zn67 2.066 . S
O91 C70 1.256 . S
O92 Zn64 2.053 . S
O92 C70 1.244 . S
C93 O71 1.259 . S
C93 O72 1.254 . S
O94 Zn64 2.066 . S
O94 C66 1.256 . S
O95 C66 1.244 . S
O95 Zn67 2.053 . S
Zn96 O97 2.055 . S
Zn96 O104 2.046 . S
Zn96 N112 2.036 . S
Zn96 O124 2.053 . S
Zn96 O126 2.066 . S
O97 Zn96 2.055 . S
O97 C100 1.259 . S
C98 O126 1.256 . S
C98 O127 1.244 . S
Zn99 O101 2.046 . S
Zn99 O103 2.055 . S
Zn99 N105 2.036 . S
Zn99 O123 2.066 . S
Zn99 O127 2.053 . S
C100 O97 1.259 . S
C100 O101 1.254 . S
O101 Zn99 2.046 . S
O101 C100 1.254 . S
C102 O123 1.256 . S
C102 O124 1.244 . S
O103 Zn99 2.055 . S
O103 C125 1.259 . S
O104 Zn96 2.046 . S
O104 C125 1.254 . S
N105 Zn99 2.036 . S
N105 C106 1.298 . S
N105 N108 1.398 . S
C106 N105 1.298 . S
C106 N109 1.367 . S
C106 C119 1.481 . S
C107 N108 1.299 . S
C107 N109 1.379 . S
N108 N105 1.398 . S
N108 C107 1.299 . S
N109 C106 1.367 . S
N109 C107 1.379 . S
C110 N112 1.298 . S
C110 N114 1.367 . S
C110 C118 1.481 . S
C111 N113 1.299 . S
C111 N114 1.379 . S
N112 Zn96 2.036 . S
N112 C110 1.298 . S
N112 N113 1.398 . S
N113 C111 1.299 . S
N113 N112 1.398 . S
N114 C110 1.367 . S
N114 C111 1.379 . S
H115 C118 0.980 . S
H116 C118 0.981 . S
H117 C118 0.981 . S
C118 C110 1.481 . S
C118 H115 0.980 . S
C118 H116 0.981 . S
C118 H117 0.981 . S
C119 C106 1.481 . S
C119 H120 0.980 . S
C119 H121 0.981 . S
C119 H122 0.981 . S
H120 C119 0.980 . S
H121 C119 0.981 . S
H122 C119 0.981 . S
O123 Zn99 2.066 . S
O123 C102 1.256 . S
O124 Zn96 2.053 . S
O124 C102 1.244 . S
C125 O103 1.259 . S
C125 O104 1.254 . S
O126 Zn96 2.066 . S
O126 C98 1.256 . S
O127 C98 1.244 . S
O127 Zn99 2.053 . S
H128 C146 0.951 . S
H129 C148 0.951 . S
H130 C150 0.950 . S
H131 C151 0.950 . S
H132 C153 0.950 . S
H133 C156 0.950 . S
H134 C157 0.950 . S
H135 C159 0.950 . S
H136 C160 0.950 1_455 S
H137 C161 0.951 1_655 S
H138 C163 0.951 . S
H139 C165 0.950 . S
H140 C166 0.950 . S
H141 C168 0.950 1_655 S
H142 C171 0.950 . S
H143 C172 0.950 . S
H144 C174 0.950 . S
H145 C175 0.950 . S
C146 H128 0.951 . S
C146 C147 1.366 . S
C146 C148 1.388 . S
C147 C146 1.366 . S
C147 C151 1.385 . S
C148 H129 0.951 . S
C148 C146 1.388 . S
C148 C149 1.366 . S
C149 C148 1.366 . S
C149 C150 1.414 . S
C149 C152 1.499 . S
C150 H130 0.950 . S
C150 C149 1.414 . S
C150 C151 1.374 . S
C151 H131 0.950 . S
C151 C147 1.385 . S
C151 C150 1.374 . S
C152 C149 1.499 . S
C152 C153 1.373 . S
C152 C154 1.389 . S
C153 H132 0.950 . S
C153 C152 1.373 . S
C153 C169 1.377 . S
C154 C152 1.389 . S
C154 C155 1.524 1_455 S
C154 C168 1.377 . S
C155 C154 1.524 1_655 S
C155 C156 1.397 . S
C155 C160 1.363 . S
C156 H133 0.950 . S
C156 C155 1.397 . S
C156 C157 1.334 . S
C157 H134 0.950 . S
C157 C156 1.334 . S
C157 C158 1.287 . S
C158 C157 1.287 . S
C158 C159 1.524 . S
C158 H177 0.913 . S
C159 H135 0.950 . S
C159 C158 1.524 . S
C159 C160 1.415 . S
C160 H136 0.950 1_655 S
C160 C155 1.363 . S
C160 C159 1.415 . S
C161 H137 0.951 1_455 S
C161 C162 1.366 . S
C161 C163 1.388 . S
C162 C161 1.366 . S
C162 C166 1.385 . S
C163 H138 0.951 . S
C163 C161 1.388 . S
C163 C164 1.366 . S
C164 C163 1.366 . S
C164 C165 1.414 . S
C164 C167 1.499 . S
C165 H139 0.950 . S
C165 C164 1.414 . S
C165 C166 1.374 . S
C166 H140 0.950 . S
C166 C162 1.385 . S
C166 C165 1.374 . S
C167 C164 1.499 . S
C167 C168 1.373 . S
C167 C169 1.389 . S
C168 H141 0.950 1_455 S
C168 C154 1.377 . S
C168 C167 1.373 . S
C169 C153 1.377 . S
C169 C167 1.389 . S
C169 C170 1.524 . S
C170 C169 1.524 . S
C170 C171 1.397 . S
C170 C175 1.363 . S
C171 H142 0.950 . S
C171 C170 1.397 . S
C171 C172 1.334 . S
C172 H143 0.950 . S
C172 C171 1.334 . S
C172 C173 1.287 . S
C173 C172 1.287 . S
C173 C174 1.524 . S
C173 H176 0.999 . S
C174 H144 0.950 . S
C174 C173 1.524 . S
C174 C175 1.415 . S
C175 H145 0.950 . S
C175 C170 1.363 . S
C175 C174 1.415 . S
H176 C173 0.999 . S
H177 C158 0.913 . S
H178 C196 0.951 . S
H179 C198 0.951 . S
H180 C200 0.950 . S
H181 C201 0.950 . S
H182 C203 0.950 . S
H183 C206 0.950 . S
H184 C207 0.950 . S
H185 C209 0.950 . S
H186 C210 0.950 . S
H187 C211 0.951 . S
H188 C213 0.951 . S
H189 C215 0.950 . S
H190 C216 0.950 . S
H191 C218 0.950 . S
H192 C221 0.950 . S
H193 C222 0.950 . S
H194 C224 0.950 . S
H195 C225 0.950 . S
C196 H178 0.951 . S
C196 C197 1.366 . S
C196 C198 1.388 . S
C197 C196 1.366 . S
C197 C201 1.385 . S
C198 H179 0.951 . S
C198 C196 1.388 . S
C198 C199 1.366 . S
C199 C198 1.366 . S
C199 C200 1.414 . S
C199 C202 1.499 . S
C200 H180 0.950 . S
C200 C199 1.414 . S
C200 C201 1.374 . S
C201 H181 0.950 . S
C201 C197 1.385 . S
C201 C200 1.374 . S
C202 C199 1.499 . S
C202 C203 1.373 . S
C202 C204 1.389 . S
C203 H182 0.950 . S
C203 C202 1.373 . S
C203 C219 1.377 . S
C204 C202 1.389 . S
C204 C205 1.524 . S
C204 C218 1.377 . S
C205 C204 1.524 . S
C205 C206 1.397 . S
C205 C210 1.363 . S
C206 H183 0.950 . S
C206 C205 1.397 . S
C206 C207 1.334 . S
C207 H184 0.950 . S
C207 C206 1.334 . S
C207 C208 1.287 . S
C208 C207 1.287 . S
C208 C209 1.524 . S
C208 H227 0.913 . S
C209 H185 0.950 . S
C209 C208 1.524 . S
C209 C210 1.415 . S
C210 H186 0.950 . S
C210 C205 1.363 . S
C210 C209 1.415 . S
C211 H187 0.951 . S
C211 C212 1.366 . S
C211 C213 1.388 . S
C212 C211 1.366 . S
C212 C216 1.385 . S
C213 H188 0.951 . S
C213 C211 1.388 . S
C213 C214 1.366 . S
C214 C213 1.366 . S
C214 C215 1.414 . S
C214 C217 1.499 . S
C215 H189 0.950 . S
C215 C214 1.414 . S
C215 C216 1.374 . S
C216 H190 0.950 . S
C216 C212 1.385 . S
C216 C215 1.374 . S
C217 C214 1.499 . S
C217 C218 1.373 . S
C217 C219 1.389 . S
C218 H191 0.950 . S
C218 C204 1.377 . S
C218 C217 1.373 . S
C219 C203 1.377 . S
C219 C217 1.389 . S
C219 C220 1.524 . S
C220 C219 1.524 . S
C220 C221 1.397 . S
C220 C225 1.363 . S
C221 H192 0.950 . S
C221 C220 1.397 . S
C221 C222 1.334 . S
C222 H193 0.950 . S
C222 C221 1.334 . S
C222 C223 1.287 . S
C223 C222 1.287 . S
C223 C224 1.524 . S
C223 H226 0.999 . S
C224 H194 0.950 . S
C224 C223 1.524 . S
C224 C225 1.415 . S
C225 H195 0.950 . S
C225 C220 1.363 . S
C225 C224 1.415 . S
H226 C223 0.999 . S
H227 C208 0.913 . S
H228 C246 0.951 . S
H229 C248 0.951 . S
H230 C250 0.950 . S
H231 C251 0.950 . S
H232 C253 0.950 . S
H233 C256 0.950 . S
H234 C257 0.950 . S
H235 C259 0.950 . S
H236 C260 0.950 . S
H237 C261 0.951 . S
H238 C263 0.951 . S
H239 C265 0.950 . S
H240 C266 0.950 . S
H241 C268 0.950 . S
H242 C271 0.950 . S
H243 C272 0.950 . S
H244 C274 0.950 . S
H245 C275 0.950 . S
C246 H228 0.951 . S
C246 C247 1.366 . S
C246 C248 1.388 . S
C247 C246 1.366 . S
C247 C251 1.385 . S
C248 H229 0.951 . S
C248 C246 1.388 . S
C248 C249 1.366 . S
C249 C248 1.366 . S
C249 C250 1.414 . S
C249 C252 1.499 . S
C250 H230 0.950 . S
C250 C249 1.414 . S
C250 C251 1.374 . S
C251 H231 0.950 . S
C251 C247 1.385 . S
C251 C250 1.374 . S
C252 C249 1.499 . S
C252 C253 1.373 1_554 S
C252 C254 1.389 . S
C253 H232 0.950 . S
C253 C252 1.373 1_556 S
C253 C269 1.377 . S
C254 C252 1.389 . S
C254 C255 1.524 . S
C254 C268 1.377 . S
C255 C254 1.524 . S
C255 C256 1.397 . S
C255 C260 1.363 . S
C256 H233 0.950 . S
C256 C255 1.397 . S
C256 C257 1.334 . S
C257 H234 0.950 . S
C257 C256 1.334 . S
C257 C258 1.287 . S
C258 C257 1.287 . S
C258 C259 1.524 . S
C258 H277 0.913 . S
C259 H235 0.950 . S
C259 C258 1.524 . S
C259 C260 1.415 . S
C260 H236 0.950 . S
C260 C255 1.363 . S
C260 C259 1.415 . S
C261 H237 0.951 . S
C261 C262 1.366 . S
C261 C263 1.388 . S
C262 C261 1.366 . S
C262 C266 1.385 . S
C263 H238 0.951 . S
C263 C261 1.388 . S
C263 C264 1.366 . S
C264 C263 1.366 . S
C264 C265 1.414 . S
C264 C267 1.499 . S
C265 H239 0.950 . S
C265 C264 1.414 . S
C265 C266 1.374 . S
C266 H240 0.950 . S
C266 C262 1.385 . S
C266 C265 1.374 . S
C267 C264 1.499 . S
C267 C268 1.373 1_556 S
C267 C269 1.389 . S
C268 H241 0.950 . S
C268 C254 1.377 . S
C268 C267 1.373 1_554 S
C269 C253 1.377 . S
C269 C267 1.389 . S
C269 C270 1.524 . S
C270 C269 1.524 . S
C270 C271 1.397 . S
C270 C275 1.363 . S
C271 H242 0.950 . S
C271 C270 1.397 . S
C271 C272 1.334 . S
C272 H243 0.950 . S
C272 C271 1.334 . S
C272 C273 1.287 . S
C273 C272 1.287 . S
C273 C274 1.524 . S
C273 H276 0.999 . S
C274 H244 0.950 . S
C274 C273 1.524 . S
C274 C275 1.415 . S
C275 H245 0.950 . S
C275 C270 1.363 . S
C275 C274 1.415 . S
H276 C273 0.999 . S
H277 C258 0.913 . S
H278 C296 0.951 . S
H279 C298 0.951 . S
H280 C300 0.950 . S
H281 C301 0.950 . S
H282 C303 0.950 . S
H283 C306 0.950 . S
H284 C307 0.950 . S
H285 C309 0.950 . S
H286 C310 0.950 . S
H287 C311 0.951 . S
H288 C313 0.951 . S
H289 C315 0.950 . S
H290 C316 0.950 . S
H291 C318 0.950 . S
H292 C321 0.950 . S
H293 C322 0.950 . S
H294 C324 0.950 . S
H295 C325 0.950 . S
C296 H278 0.951 . S
C296 C297 1.366 . S
C296 C298 1.388 . S
C297 C296 1.366 . S
C297 C301 1.385 . S
C298 H279 0.951 . S
C298 C296 1.388 . S
C298 C299 1.366 . S
C299 C298 1.366 . S
C299 C300 1.414 . S
C299 C302 1.499 . S
C300 H280 0.950 . S
C300 C299 1.414 . S
C300 C301 1.374 . S
C301 H281 0.950 . S
C301 C297 1.385 . S
C301 C300 1.374 . S
C302 C299 1.499 . S
C302 C303 1.373 . S
C302 C304 1.389 . S
C303 H282 0.950 . S
C303 C302 1.373 . S
C303 C319 1.377 . S
C304 C302 1.389 . S
C304 C305 1.524 . S
C304 C318 1.377 . S
C305 C304 1.524 . S
C305 C306 1.397 . S
C305 C310 1.363 . S
C306 H283 0.950 . S
C306 C305 1.397 . S
C306 C307 1.334 . S
C307 H284 0.950 . S
C307 C306 1.334 . S
C307 C308 1.287 . S
C308 C307 1.287 . S
C308 C309 1.524 . S
C308 H327 0.913 . S
C309 H285 0.950 . S
C309 C308 1.524 . S
C309 C310 1.415 . S
C310 H286 0.950 . S
C310 C305 1.363 . S
C310 C309 1.415 . S
C311 H287 0.951 . S
C311 C312 1.366 . S
C311 C313 1.388 . S
C312 C311 1.366 . S
C312 C316 1.385 . S
C313 H288 0.951 . S
C313 C311 1.388 . S
C313 C314 1.366 . S
C314 C313 1.366 . S
C314 C315 1.414 . S
C314 C317 1.499 . S
C315 H289 0.950 . S
C315 C314 1.414 . S
C315 C316 1.374 . S
C316 H290 0.950 . S
C316 C312 1.385 . S
C316 C315 1.374 . S
C317 C314 1.499 . S
C317 C318 1.373 . S
C317 C319 1.389 . S
C318 H291 0.950 . S
C318 C304 1.377 . S
C318 C317 1.373 . S
C319 C303 1.377 . S
C319 C317 1.389 . S
C319 C320 1.524 . S
C320 C319 1.524 . S
C320 C321 1.397 . S
C320 C325 1.363 . S
C321 H292 0.950 . S
C321 C320 1.397 . S
C321 C322 1.334 . S
C322 H293 0.950 . S
C322 C321 1.334 . S
C322 C323 1.287 . S
C323 C322 1.287 . S
C323 C324 1.524 1_554 S
C323 H326 0.999 1_554 S
C324 H294 0.950 . S
C324 C323 1.524 1_556 S
C324 C325 1.415 1_556 S
C325 H295 0.950 . S
C325 C320 1.363 . S
C325 C324 1.415 1_554 S
H326 C323 0.999 1_556 S
H327 C308 0.913 . S
H328 C346 0.951 . S
H329 C348 0.951 . S
H330 C350 0.950 . S
H331 C351 0.950 . S
H332 C353 0.950 . S
H333 C356 0.950 . S
H334 C357 0.950 . S
H335 C359 0.950 . S
H336 C360 0.950 . S
H337 C361 0.951 . S
H338 C363 0.951 . S
H339 C365 0.950 . S
H340 C366 0.950 . S
H341 C368 0.950 . S
H342 C371 0.950 . S
H343 C372 0.950 . S
H344 C374 0.950 . S
H345 C375 0.950 . S
C346 H328 0.951 . S
C346 C347 1.366 . S
C346 C348 1.388 . S
C347 C346 1.366 . S
C347 C351 1.385 . S
C348 H329 0.951 . S
C348 C346 1.388 . S
C348 C349 1.366 . S
C349 C348 1.366 . S
C349 C350 1.414 . S
C349 C352 1.499 . S
C350 H330 0.950 . S
C350 C349 1.414 . S
C350 C351 1.374 . S
C351 H331 0.950 . S
C351 C347 1.385 . S
C351 C350 1.374 . S
C352 C349 1.499 . S
C352 C353 1.373 . S
C352 C354 1.389 . S
C353 H332 0.950 . S
C353 C352 1.373 . S
C353 C369 1.377 . S
C354 C352 1.389 . S
C354 C355 1.524 . S
C354 C368 1.377 . S
C355 C354 1.524 . S
C355 C356 1.397 . S
C355 C360 1.363 . S
C356 H333 0.950 . S
C356 C355 1.397 . S
C356 C357 1.334 . S
C357 H334 0.950 . S
C357 C356 1.334 . S
C357 C358 1.287 . S
C358 C357 1.287 . S
C358 C359 1.524 . S
C358 H377 0.913 . S
C359 H335 0.950 . S
C359 C358 1.524 . S
C359 C360 1.415 . S
C360 H336 0.950 . S
C360 C355 1.363 . S
C360 C359 1.415 . S
C361 H337 0.951 . S
C361 C362 1.366 . S
C361 C363 1.388 . S
C362 C361 1.366 . S
C362 C366 1.385 . S
C363 H338 0.951 . S
C363 C361 1.388 . S
C363 C364 1.366 . S
C364 C363 1.366 . S
C364 C365 1.414 . S
C364 C367 1.499 . S
C365 H339 0.950 . S
C365 C364 1.414 . S
C365 C366 1.374 . S
C366 H340 0.950 . S
C366 C362 1.385 . S
C366 C365 1.374 . S
C367 C364 1.499 . S
C367 C368 1.373 . S
C367 C369 1.389 . S
C368 H341 0.950 . S
C368 C354 1.377 . S
C368 C367 1.373 . S
C369 C353 1.377 . S
C369 C367 1.389 . S
C369 C370 1.524 . S
C370 C369 1.524 . S
C370 C371 1.397 . S
C370 C375 1.363 . S
C371 H342 0.950 . S
C371 C370 1.397 . S
C371 C372 1.334 . S
C372 H343 0.950 . S
C372 C371 1.334 . S
C372 C373 1.287 . S
C373 C372 1.287 . S
C373 C374 1.524 . S
C373 H376 0.999 . S
C374 H344 0.950 . S
C374 C373 1.524 . S
C374 C375 1.415 . S
C375 H345 0.950 . S
C375 C370 1.363 . S
C375 C374 1.415 . S
H376 C373 0.999 . S
H377 C358 0.913 . S
H378 C396 0.951 . S
H379 C398 0.951 . S
H380 C400 0.950 . S
H381 C401 0.950 . S
H382 C403 0.950 . S
H383 C406 0.950 . S
H384 C407 0.950 . S
H385 C409 0.950 . S
H386 C410 0.950 . S
H387 C411 0.951 . S
H388 C413 0.951 . S
H389 C415 0.950 . S
H390 C416 0.950 . S
H391 C418 0.950 . S
H392 C421 0.950 . S
H393 C422 0.950 . S
H394 C424 0.950 . S
H395 C425 0.950 . S
C396 H378 0.951 . S
C396 C397 1.366 . S
C396 C398 1.388 . S
C397 C396 1.366 . S
C397 C401 1.385 . S
C398 H379 0.951 . S
C398 C396 1.388 . S
C398 C399 1.366 . S
C399 C398 1.366 . S
C399 C400 1.414 . S
C399 C402 1.499 . S
C400 H380 0.950 . S
C400 C399 1.414 . S
C400 C401 1.374 . S
C401 H381 0.950 . S
C401 C397 1.385 . S
C401 C400 1.374 . S
C402 C399 1.499 . S
C402 C403 1.373 . S
C402 C404 1.389 . S
C403 H382 0.950 . S
C403 C402 1.373 . S
C403 C419 1.377 . S
C404 C402 1.389 . S
C404 C405 1.524 . S
C404 C418 1.377 . S
C405 C404 1.524 . S
C405 C406 1.397 . S
C405 C410 1.363 . S
C406 H383 0.950 . S
C406 C405 1.397 . S
C406 C407 1.334 . S
C407 H384 0.950 . S
C407 C406 1.334 . S
C407 C408 1.287 . S
C408 C407 1.287 . S
C408 C409 1.524 . S
C408 H427 0.913 . S
C409 H385 0.950 . S
C409 C408 1.524 . S
C409 C410 1.415 . S
C410 H386 0.950 . S
C410 C405 1.363 . S
C410 C409 1.415 . S
C411 H387 0.951 . S
C411 C412 1.366 . S
C411 C413 1.388 . S
C412 C411 1.366 . S
C412 C416 1.385 . S
C413 H388 0.951 . S
C413 C411 1.388 . S
C413 C414 1.366 . S
C414 C413 1.366 . S
C414 C415 1.414 . S
C414 C417 1.499 . S
C415 H389 0.950 . S
C415 C414 1.414 . S
C415 C416 1.374 . S
C416 H390 0.950 . S
C416 C412 1.385 . S
C416 C415 1.374 . S
C417 C414 1.499 . S
C417 C418 1.373 . S
C417 C419 1.389 . S
C418 H391 0.950 . S
C418 C404 1.377 . S
C418 C417 1.373 . S
C419 C403 1.377 . S
C419 C417 1.389 . S
C419 C420 1.524 . S
C420 C419 1.524 . S
C420 C421 1.397 . S
C420 C425 1.363 . S
C421 H392 0.950 . S
C421 C420 1.397 . S
C421 C422 1.334 . S
C422 H393 0.950 . S
C422 C421 1.334 . S
C422 C423 1.287 . S
C423 C422 1.287 . S
C423 C424 1.524 . S
C423 H426 0.999 . S
C424 H394 0.950 . S
C424 C423 1.524 . S
C424 C425 1.415 . S
C425 H395 0.950 . S
C425 C420 1.363 . S
C425 C424 1.415 . S
H426 C423 0.999 . S
H427 C408 0.913 . S
H428 C446 0.951 . S
H429 C448 0.951 . S
H430 C450 0.950 . S
H431 C451 0.950 . S
H432 C453 0.950 . S
H433 C456 0.950 . S
H434 C457 0.950 . S
H435 C459 0.950 . S
H436 C460 0.950 . S
H437 C461 0.951 . S
H438 C463 0.951 . S
H439 C465 0.950 . S
H440 C466 0.950 . S
H441 C468 0.950 . S
H442 C471 0.950 . S
H443 C472 0.950 . S
H444 C474 0.950 . S
H445 C475 0.950 1_565 S
C446 H428 0.951 . S
C446 C447 1.366 . S
C446 C448 1.388 . S
C447 C446 1.366 . S
C447 C451 1.385 . S
C448 H429 0.951 . S
C448 C446 1.388 . S
C448 C449 1.366 . S
C449 C448 1.366 . S
C449 C450 1.414 . S
C449 C452 1.499 . S
C450 H430 0.950 . S
C450 C449 1.414 . S
C450 C451 1.374 . S
C451 H431 0.950 . S
C451 C447 1.385 . S
C451 C450 1.374 . S
C452 C449 1.499 . S
C452 C453 1.373 1_556 S
C452 C454 1.409 . S
C453 H432 0.950 . S
C453 C452 1.373 1_554 S
C453 C469 1.377 1_565 S
C454 C452 1.409 . S
C454 C455 1.527 . S
C454 C468 1.352 1_565 S
C455 C454 1.527 . S
C455 C456 1.397 . S
C455 C460 1.363 1_565 S
C456 H433 0.950 . S
C456 C455 1.397 . S
C456 C457 1.334 . S
C457 H434 0.950 . S
C457 C456 1.334 . S
C457 C458 1.287 . S
C458 C457 1.287 . S
C458 C459 1.524 1_565 S
C458 H477 0.913 . S
C459 H435 0.950 . S
C459 C458 1.524 1_545 S
C459 C460 1.415 . S
C460 H436 0.950 . S
C460 C455 1.363 1_545 S
C460 C459 1.415 . S
C461 H437 0.951 . S
C461 C462 1.366 . S
C461 C463 1.388 . S
C462 C461 1.366 . S
C462 C466 1.385 . S
C463 H438 0.951 . S
C463 C461 1.388 . S
C463 C464 1.366 . S
C464 C463 1.366 . S
C464 C465 1.414 . S
C464 C467 1.499 . S
C465 H439 0.950 . S
C465 C464 1.414 . S
C465 C466 1.374 . S
C466 H440 0.950 . S
C466 C462 1.385 . S
C466 C465 1.374 . S
C467 C464 1.499 . S
C467 C468 1.373 1_554 S
C467 C469 1.389 . S
C468 H441 0.950 . S
C468 C454 1.352 1_545 S
C468 C467 1.373 1_556 S
C469 C453 1.377 1_545 S
C469 C467 1.389 . S
C469 C470 1.524 . S
C470 C469 1.524 . S
C470 C471 1.397 . S
C470 C475 1.363 . S
C471 H442 0.950 . S
C471 C470 1.397 . S
C471 C472 1.334 . S
C472 H443 0.950 . S
C472 C471 1.334 . S
C472 C473 1.287 . S
C473 C472 1.287 . S
C473 C474 1.524 . S
C473 H476 0.999 . S
C474 H444 0.950 . S
C474 C473 1.524 . S
C474 C475 1.415 . S
C475 H445 0.950 1_545 S
C475 C470 1.363 . S
C475 C474 1.415 . S
H476 C473 0.999 . S
H477 C458 0.913 . S
H478 C496 0.951 1_655 S
H479 C498 0.951 . S
H480 C500 0.950 . S
H481 C501 0.950 . S
H482 C503 0.950 . S
H483 C506 0.950 . S
H484 C507 0.950 . S
H485 C509 0.950 . S
H486 C510 0.950 . S
H487 C511 0.951 . S
H488 C513 0.951 . S
H489 C515 0.950 . S
H490 C516 0.950 . S
H491 C518 0.950 1_655 S
H492 C521 0.950 . S
H493 C522 0.950 . S
H494 C524 0.950 . S
H495 C525 0.950 . S
C496 H478 0.951 1_455 S
C496 C497 1.366 . S
C496 C498 1.388 . S
C497 C496 1.366 . S
C497 C501 1.385 . S
C498 H479 0.951 . S
C498 C496 1.388 . S
C498 C499 1.366 . S
C499 C498 1.366 . S
C499 C500 1.414 . S
C499 C502 1.499 . S
C500 H480 0.950 . S
C500 C499 1.414 . S
C500 C501 1.374 . S
C501 H481 0.950 . S
C501 C497 1.385 . S
C501 C500 1.374 . S
C502 C499 1.499 . S
C502 C503 1.373 . S
C502 C504 1.389 . S
C503 H482 0.950 . S
C503 C502 1.373 . S
C503 C519 1.377 . S
C504 C502 1.389 . S
C504 C505 1.524 1_455 S
C504 C518 1.377 . S
C505 C504 1.524 1_655 S
C505 C506 1.397 . S
C505 C510 1.363 . S
C506 H483 0.950 . S
C506 C505 1.397 . S
C506 C507 1.334 . S
C507 H484 0.950 . S
C507 C506 1.334 . S
C507 C508 1.287 . S
C508 C507 1.287 . S
C508 C509 1.524 . S
C508 H527 0.913 . S
C509 H485 0.950 . S
C509 C508 1.524 . S
C509 C510 1.415 . S
C510 H486 0.950 . S
C510 C505 1.363 . S
C510 C509 1.415 . S
C511 H487 0.951 . S
C511 C512 1.366 . S
C511 C513 1.388 . S
C512 C511 1.366 . S
C512 C516 1.385 . S
C513 H488 0.951 . S
C513 C511 1.388 . S
C513 C514 1.366 . S
C514 C513 1.366 . S
C514 C515 1.414 . S
C514 C517 1.499 1_545 S
C515 H489 0.950 . S
C515 C514 1.414 . S
C515 C516 1.374 . S
C516 H490 0.950 . S
C516 C512 1.385 . S
C516 C515 1.374 . S
C517 C514 1.499 1_565 S
C517 C518 1.373 . S
C517 C519 1.389 . S
C518 H491 0.950 1_455 S
C518 C504 1.377 . S
C518 C517 1.373 . S
C519 C503 1.377 . S
C519 C517 1.389 . S
C519 C520 1.524 . S
C520 C519 1.524 . S
C520 C521 1.397 1_565 S
C520 C525 1.363 . S
C521 H492 0.950 . S
C521 C520 1.397 1_545 S
C521 C522 1.334 . S
C522 H493 0.950 . S
C522 C521 1.334 . S
C522 C523 1.287 . S
C523 C522 1.287 . S
C523 C524 1.524 1_545 S
C523 H526 0.999 . S
C524 H494 0.950 . S
C524 C523 1.524 1_565 S
C524 C525 1.415 . S
C525 H495 0.950 . S
C525 C520 1.363 . S
C525 C524 1.415 . S
H526 C523 0.999 . S
H527 C508 0.913 . S
H528 C546 0.951 . S
H529 C548 0.951 . S
H530 C550 0.950 . S
H531 C551 0.950 . S
H532 C553 0.942 1_655 S
H533 C556 0.950 1_554 S
H534 C557 0.950 . S
H535 C559 0.950 . S
H536 C560 0.950 . S
H537 C561 0.951 . S
H538 C563 0.951 . S
H539 C565 0.950 . S
H540 C566 0.950 . S
H541 C568 0.950 . S
H542 C571 0.950 . S
H543 C572 0.950 . S
H544 C574 0.950 . S
H545 C575 0.950 1_455 S
C546 H528 0.951 . S
C546 C547 1.366 . S
C546 C548 1.388 . S
C547 C546 1.366 . S
C547 C551 1.385 . S
C548 H529 0.951 . S
C548 C546 1.388 . S
C548 C549 1.366 . S
C549 C548 1.366 . S
C549 C550 1.414 . S
C549 C552 1.499 1_554 S
C550 H530 0.950 . S
C550 C549 1.414 . S
C550 C551 1.374 . S
C551 H531 0.950 . S
C551 C547 1.385 . S
C551 C550 1.374 . S
C552 C549 1.499 1_556 S
C552 C553 1.373 . S
C552 C554 1.389 . S
C553 H532 0.942 1_455 S
C553 C552 1.373 . S
C553 C569 1.377 . S
C554 C552 1.389 . S
C554 C555 1.524 . S
C554 C568 1.377 . S
C555 C554 1.524 . S
C555 C556 1.397 . S
C555 C560 1.363 . S
C556 H533 0.950 1_556 S
C556 C555 1.397 . S
C556 C557 1.334 1_556 S
C557 H534 0.950 . S
C557 C556 1.334 1_554 S
C557 C558 1.287 . S
C558 C557 1.287 . S
C558 C559 1.524 1_554 S
C558 H577 0.913 . S
C559 H535 0.950 . S
C559 C558 1.524 1_556 S
C559 C560 1.415 . S
C560 H536 0.950 . S
C560 C555 1.363 . S
C560 C559 1.415 . S
C561 H537 0.951 . S
C561 C562 1.366 . S
C561 C563 1.388 . S
C562 C561 1.366 . S
C562 C566 1.385 . S
C563 H538 0.951 . S
C563 C561 1.388 . S
C563 C564 1.366 . S
C564 C563 1.366 . S
C564 C565 1.414 . S
C564 C567 1.499 . S
C565 H539 0.950 . S
C565 C564 1.414 . S
C565 C566 1.374 . S
C566 H540 0.950 . S
C566 C562 1.385 . S
C566 C565 1.374 . S
C567 C564 1.499 . S
C567 C568 1.373 . S
C567 C569 1.389 . S
C568 H541 0.950 . S
C568 C554 1.377 . S
C568 C567 1.373 . S
C569 C553 1.377 . S
C569 C567 1.389 . S
C569 C570 1.524 1_455 S
C570 C569 1.524 1_655 S
C570 C571 1.397 . S
C570 C575 1.363 . S
C571 H542 0.950 . S
C571 C570 1.397 . S
C571 C572 1.334 . S
C572 H543 0.950 . S
C572 C571 1.334 . S
C572 C573 1.287 . S
C573 C572 1.287 . S
C573 C574 1.524 . S
C573 H576 0.999 . S
C574 H544 0.950 . S
C574 C573 1.524 . S
C574 C575 1.415 . S
C575 H545 0.950 1_655 S
C575 C570 1.363 . S
C575 C574 1.415 . S
H576 C573 0.999 . S
H577 C558 0.913 . S
H578 C596 0.951 . S
H579 C598 0.951 . S
H580 C600 0.950 . S
H581 C601 0.950 . S
H582 C603 0.950 . S
H583 C606 0.950 . S
H584 C607 0.950 . S
H585 C609 0.950 . S
H586 C610 0.950 . S
H587 C611 0.951 . S
H588 C613 0.951 . S
H589 C615 0.953 . S
H590 C616 0.959 . S
H591 C618 0.950 . S
H592 C621 0.950 . S
H593 C622 0.950 . S
H594 C624 0.950 . S
H595 C625 0.950 . S
C596 H578 0.951 . S
C596 C597 1.366 . S
C596 C598 1.388 . S
C597 C596 1.366 . S
C597 C601 1.385 . S
C598 H579 0.951 . S
C598 C596 1.388 . S
C598 C599 1.366 . S
C599 C598 1.366 . S
C599 C600 1.414 . S
C599 C602 1.499 1_556 S
C600 H580 0.950 . S
C600 C599 1.414 . S
C600 C601 1.374 . S
C601 H581 0.950 . S
C601 C597 1.385 . S
C601 C600 1.374 . S
C602 C599 1.499 1_554 S
C602 C603 1.373 1_455 S
C602 C604 1.389 . S
C603 H582 0.950 . S
C603 C602 1.373 1_655 S
C603 C619 1.377 . S
C604 C602 1.389 . S
C604 C605 1.524 . S
C604 C618 1.377 . S
C605 C604 1.524 . S
C605 C606 1.397 1_554 S
C605 C610 1.363 . S
C606 H583 0.950 . S
C606 C605 1.397 1_556 S
C606 C607 1.334 . S
C607 H584 0.950 . S
C607 C606 1.334 . S
C607 C608 1.287 . S
C608 C607 1.287 . S
C608 C609 1.524 1_556 S
C608 H627 0.913 . S
C609 H585 0.950 . S
C609 C608 1.524 1_554 S
C609 C610 1.415 . S
C610 H586 0.950 . S
C610 C605 1.363 . S
C610 C609 1.415 . S
C611 H587 0.951 . S
C611 C612 1.366 . S
C611 C613 1.388 . S
C612 C611 1.366 . S
C612 C616 1.385 . S
C613 H588 0.951 . S
C613 C611 1.388 . S
C613 C614 1.366 . S
C614 C613 1.366 . S
C614 C615 1.414 . S
C614 C617 1.499 . S
C615 H589 0.953 . S
C615 C614 1.414 . S
C615 C616 1.374 . S
C616 H590 0.959 . S
C616 C612 1.385 . S
C616 C615 1.374 . S
C617 C614 1.499 . S
C617 C618 1.373 . S
C617 C619 1.389 1_455 S
C618 H591 0.950 . S
C618 C604 1.377 . S
C618 C617 1.373 . S
C619 C603 1.377 . S
C619 C617 1.389 1_655 S
C619 C620 1.524 . S
C620 C619 1.524 . S
C620 C621 1.397 . S
C620 C625 1.363 . S
C621 H592 0.950 . S
C621 C620 1.397 . S
C621 C622 1.334 . S
C622 H593 0.950 . S
C622 C621 1.334 . S
C622 C623 1.287 . S
C623 C622 1.287 . S
C623 C624 1.524 . S
C623 H626 0.999 . S
C624 H594 0.950 . S
C624 C623 1.524 . S
C624 C625 1.415 . S
C625 H595 0.950 . S
C625 C620 1.363 . S
C625 C624 1.415 . S
H626 C623 0.999 . S
H627 C608 0.913 . S
H628 C646 0.951 . S
H629 C648 0.951 . S
H630 C650 0.950 . S
H631 C651 0.950 . S
H632 C653 0.950 . S
H633 C656 0.950 . S
H634 C657 0.950 . S
H635 C659 0.950 . S
H636 C660 0.950 . S
H637 C661 0.951 . S
H638 C663 0.951 . S
H639 C665 0.950 . S
H640 C666 0.950 . S
H641 C668 0.950 . S
H642 C671 0.950 . S
H643 C672 0.950 . S
H644 C674 0.950 . S
H645 C675 0.950 . S
C646 H628 0.951 . S
C646 C647 1.366 . S
C646 C648 1.388 . S
C647 C646 1.366 . S
C647 C651 1.385 . S
C648 H629 0.951 . S
C648 C646 1.388 . S
C648 C649 1.366 . S
C649 C648 1.366 . S
C649 C650 1.414 . S
C649 C652 1.499 . S
C650 H630 0.950 . S
C650 C649 1.414 . S
C650 C651 1.374 . S
C651 H631 0.950 . S
C651 C647 1.385 . S
C651 C650 1.374 . S
C652 C649 1.499 . S
C652 C653 1.373 . S
C652 C654 1.389 . S
C653 H632 0.950 . S
C653 C652 1.373 . S
C653 C669 1.377 . S
C654 C652 1.389 . S
C654 C655 1.524 . S
C654 C668 1.377 . S
C655 C654 1.524 . S
C655 C656 1.397 . S
C655 C660 1.363 . S
C656 H633 0.950 . S
C656 C655 1.397 . S
C656 C657 1.334 . S
C657 H634 0.950 . S
C657 C656 1.334 . S
C657 C658 1.287 . S
C658 C657 1.287 . S
C658 C659 1.524 . S
C658 H677 0.913 . S
C659 H635 0.950 . S
C659 C658 1.524 . S
C659 C660 1.415 . S
C660 H636 0.950 . S
C660 C655 1.363 . S
C660 C659 1.415 . S
C661 H637 0.951 . S
C661 C662 1.366 . S
C661 C663 1.388 . S
C662 C661 1.366 . S
C662 C666 1.385 . S
C663 H638 0.951 . S
C663 C661 1.388 . S
C663 C664 1.366 . S
C664 C663 1.366 . S
C664 C665 1.414 . S
C664 C667 1.499 . S
C665 H639 0.950 . S
C665 C664 1.414 . S
C665 C666 1.374 . S
C666 H640 0.950 . S
C666 C662 1.385 . S
C666 C665 1.374 . S
C667 C664 1.499 . S
C667 C668 1.373 . S
C667 C669 1.389 . S
C668 H641 0.950 . S
C668 C654 1.377 . S
C668 C667 1.373 . S
C669 C653 1.377 . S
C669 C667 1.389 . S
C669 C670 1.524 . S
C670 C669 1.524 . S
C670 C671 1.397 . S
C670 C675 1.363 . S
C671 H642 0.950 . S
C671 C670 1.397 . S
C671 C672 1.334 . S
C672 H643 0.950 . S
C672 C671 1.334 . S
C672 C673 1.287 . S
C673 C672 1.287 . S
C673 C674 1.524 . S
C673 H676 0.999 . S
C674 H644 0.950 . S
C674 C673 1.524 . S
C674 C675 1.415 . S
C675 H645 0.950 . S
C675 C670 1.363 . S
C675 C674 1.415 . S
H676 C673 0.999 . S
H677 C658 0.913 . S
H678 C696 0.951 . S
H679 C698 0.951 . S
H680 C700 0.950 . S
H681 C701 0.950 . S
H682 C703 0.950 . S
H683 C706 0.950 . S
H684 C707 0.950 . S
H685 C709 0.950 . S
H686 C710 0.950 . S
H687 C711 0.951 . S
H688 C713 0.951 . S
H689 C715 0.950 . S
H690 C716 0.950 . S
H691 C718 0.950 . S
H692 C721 0.950 . S
H693 C722 0.950 . S
H694 C724 0.950 . S
H695 C725 0.950 . S
C696 H678 0.951 . S
C696 C697 1.366 . S
C696 C698 1.388 . S
C697 C696 1.366 . S
C697 C701 1.385 . S
C698 H679 0.951 . S
C698 C696 1.388 . S
C698 C699 1.366 . S
C699 C698 1.366 . S
C699 C700 1.414 . S
C699 C702 1.499 . S
C700 H680 0.950 . S
C700 C699 1.414 . S
C700 C701 1.374 . S
C701 H681 0.950 . S
C701 C697 1.385 . S
C701 C700 1.374 . S
C702 C699 1.499 . S
C702 C703 1.373 . S
C702 C704 1.389 . S
C703 H682 0.950 . S
C703 C702 1.373 . S
C703 C719 1.377 . S
C704 C702 1.389 . S
C704 C705 1.524 . S
C704 C718 1.377 . S
C705 C704 1.524 . S
C705 C706 1.397 . S
C705 C710 1.363 . S
C706 H683 0.950 . S
C706 C705 1.397 . S
C706 C707 1.334 . S
C707 H684 0.950 . S
C707 C706 1.334 . S
C707 C708 1.287 . S
C708 C707 1.287 . S
C708 C709 1.524 . S
C708 H727 0.913 . S
C709 H685 0.950 . S
C709 C708 1.524 . S
C709 C710 1.415 . S
C710 H686 0.950 . S
C710 C705 1.363 . S
C710 C709 1.415 . S
C711 H687 0.951 . S
C711 C712 1.366 . S
C711 C713 1.388 . S
C712 C711 1.366 . S
C712 C716 1.385 . S
C713 H688 0.951 . S
C713 C711 1.388 . S
C713 C714 1.366 . S
C714 C713 1.366 . S
C714 C715 1.414 . S
C714 C717 1.499 . S
C715 H689 0.950 . S
C715 C714 1.414 . S
C715 C716 1.374 . S
C716 H690 0.950 . S
C716 C712 1.385 . S
C716 C715 1.374 . S
C717 C714 1.499 . S
C717 C718 1.373 . S
C717 C719 1.389 . S
C718 H691 0.950 . S
C718 C704 1.377 . S
C718 C717 1.373 . S
C719 C703 1.377 . S
C719 C717 1.389 . S
C719 C720 1.524 . S
C720 C719 1.524 . S
C720 C721 1.397 . S
C720 C725 1.363 . S
C721 H692 0.950 . S
C721 C720 1.397 . S
C721 C722 1.334 . S
C722 H693 0.950 . S
C722 C721 1.334 . S
C722 C723 1.287 . S
C723 C722 1.287 . S
C723 C724 1.524 . S
C723 H726 0.999 . S
C724 H694 0.950 . S
C724 C723 1.524 . S
C724 C725 1.415 . S
C725 H695 0.950 . S
C725 C720 1.363 . S
C725 C724 1.415 . S
H726 C723 0.999 . S
H727 C708 0.913 . S
C147 N18 2.331 . S
C162 C36 2.295 . S
C197 C70 1.402 . S
C212 N50 1.400 . S
C247 N109 1.234 . S
C262 N77 1.141 . S
C297 C4 2.071 . S
C312 C125 2.069 . S
C347 C98 2.773 . S
C362 C6 2.772 . S
C397 C68 0.818 . S
C412 N45 0.809 . S
C447 N82 1.077 . S
C462 N114 1.003 . S
C497 C38 2.592 . S
C512 N13 2.436 . S
C547 C29 0.867 . S
C562 C2 0.869 . S
C597 C34 0.876 . S
C612 C61 0.873 . S
C647 C66 0.869 1_554 S
C662 C93 0.867 . S
C697 C100 0.868 . S
C712 C102 0.869 1_556 S
