# Generated by pormake.
# Topology qtz-x, (6)-cn, num edge types: 1
# Building blocks:
#     Node 0, Type 0, BuildingBlock: KUMBOL_clean_sbu_0, # of connection points: 6
#     Node 1, Type 0, BuildingBlock: KUMBOL_clean_sbu_0, # of connection points: 6
#     Node 2, Type 0, BuildingBlock: KUMBOL_clean_sbu_0, # of connection points: 6
#     Edge 3, Type (0, 0), BuildingBlock: KIFKEQ_clean_linker_1, # of connection points: 2
#     Edge 4, Type (0, 0), BuildingBlock: KIFKEQ_clean_linker_1, # of connection points: 2
#     Edge 5, Type (0, 0), BuildingBlock: KIFKEQ_clean_linker_1, # of connection points: 2
#     Edge 6, Type (0, 0), BuildingBlock: KIFKEQ_clean_linker_1, # of connection points: 2
#     Edge 7, Type (0, 0), BuildingBlock: KIFKEQ_clean_linker_1, # of connection points: 2
#     Edge 8, Type (0, 0), BuildingBlock: KIFKEQ_clean_linker_1, # of connection points: 2
#     Edge 9, Type (0, 0), BuildingBlock: KIFKEQ_clean_linker_1, # of connection points: 2
#     Edge 10, Type (0, 0), BuildingBlock: KIFKEQ_clean_linker_1, # of connection points: 2
#     Edge 11, Type (0, 0), BuildingBlock: KIFKEQ_clean_linker_1, # of connection points: 2
# Relax obj value: 0.166
# Max RMSD: 0.280
# Mean RMSD: 0.280
data_MOF--net-qtz-x--node1-KUMBOL_clean_sbu_0--edge1-KIFKEQ_clean_linker_1
_symmetry_space_group_name_H-M    P1
_symmetry_Int_Tables_number       1
_symmetry_cell_setting            triclinic
loop_
_symmetry_equiv_pos_as_xyz
'x, y, z'
_cell_length_a     15.458487
_cell_length_b     15.463297
_cell_length_c     51.425628
_cell_angle_alpha  89.95473
_cell_angle_beta   89.983316
_cell_angle_gamma 120.01059
loop_
_atom_site_label
_atom_site_type_symbol
_atom_site_fract_x
_atom_site_fract_y
_atom_site_fract_z
_atom_type_partial_charge
Gd0 Gd 0.0189 0.37111 0.15927 0.0
Gd1 Gd 0.23616 0.46961 0.20247 0.0
C2 C 0.55122 0.64104 0.16822 0.0
C3 C 0.6217 0.53969 0.18247 0.0
C4 C 0.44915 0.48944 0.19293 0.0
C5 C 0.45936 0.57375 0.18026 0.0
C6 C 0.5313 0.47347 0.19476 0.0
C7 C 0.63116 0.62234 0.16893 0.0
C8 C 0.56177 0.72739 0.15656 0.0
C9 C 0.48365 0.74743 0.15792 0.0
N10 N 0.38212 0.59275 0.18079 0.0
C11 C 0.39487 0.68027 0.17047 0.0
H12 H 0.33701 0.69933 0.17081 0.0
C13 C 0.35312 0.35095 0.22055 0.0
N14 N 0.36167 0.42701 0.20511 0.0
C15 C 0.4322 0.33211 0.22274 0.0
C16 C 0.52163 0.39354 0.20977 0.0
H17 H 0.28446 0.30417 0.23095 0.0
H18 H 0.70194 0.67332 0.15981 0.0
H19 H 0.89504 0.16404 0.19571 0.0
H20 H 0.63083 0.78036 0.14705 0.0
H21 H 0.49177 0.81505 0.14933 0.0
H22 H 0.68559 0.52887 0.18379 0.0
H23 H 0.00558 0.54325 0.12287 0.0
H24 H 0.5956 0.1024 0.20631 0.0
H25 H 0.72768 0.05984 0.2143 0.0
H26 H 0.58231 0.35266 0.15445 0.0
H27 H 0.4246 0.27108 0.23471 0.0
H28 H 0.58368 0.3803 0.21207 0.0
H29 H 0.54155 0.21075 0.18343 0.0
H30 H 0.88069 0.58973 0.11006 0.0
N31 N 0.86265 0.27123 0.17943 0.0
C32 C 0.67012 0.15026 0.1987 0.0
C33 C 0.74437 0.12596 0.20323 0.0
C34 C 0.69194 0.23387 0.18354 0.0
C35 C 0.79036 0.29409 0.17421 0.0
C36 C 0.83984 0.18613 0.19285 0.0
N37 N 0.90761 0.42778 0.14868 0.0
C38 C 0.81339 0.37449 0.15818 0.0
C39 C 0.86079 0.52922 0.12368 0.0
C40 C 0.76396 0.47622 0.13365 0.0
C41 C 0.93157 0.50282 0.1311 0.0
C42 C 0.73876 0.39683 0.15082 0.0
H43 H 0.70885 0.49593 0.12762 0.0
O44 O 0.02074 0.36521 0.11711 0.0
O45 O 0.18417 0.43983 0.16177 0.0
O46 O 0.19699 0.58867 0.1923 0.0
O47 O 0.03001 0.50649 0.17848 0.0
O48 O 0.13089 0.49825 0.13444 0.0
O49 O 0.94583 0.22806 0.13949 0.0
O50 O 0.20029 0.52533 0.23759 0.0
O51 O 0.07131 0.39576 0.20032 0.0
O52 O 0.05078 0.24813 0.17051 0.0
O53 O 0.21584 0.32658 0.18513 0.0
O54 O 0.12877 0.33069 0.22435 0.0
O55 O 0.3409 0.53039 0.2348 0.0
C56 C 0.21033 0.5024 0.14357 0.0
C57 C 0.64089 0.33744 0.16014 0.0
C58 C 0.61765 0.25652 0.1766 0.0
C59 C 0.96285 0.26863 0.11642 0.0
C60 C 0.87879 0.22968 0.09781 0.0
C61 C 0.78397 0.14957 0.10433 0.0
C62 C 0.89486 0.27081 0.07266 0.0
C63 C 0.81798 0.23175 0.05407 0.0
C64 C 0.70734 0.11064 0.0859 0.0
C65 C 0.72425 0.15089 0.06084 0.0
C66 C 0.11206 0.58683 0.18678 0.0
C67 C 0.04784 0.32964 0.21757 0.0
C68 C 0.28053 0.54221 0.24991 0.0
C69 C 0.26783 0.50069 0.27653 0.0
C70 C 0.22547 0.39748 0.28053 0.0
C71 C 0.30259 0.56487 0.29819 0.0
C72 C 0.29457 0.52605 0.32356 0.0
C73 C 0.21425 0.35849 0.3055 0.0
C74 C 0.24855 0.42199 0.32688 0.0
C75 C 0.13374 0.24756 0.17654 0.0
H76 H 0.76906 0.11644 0.12355 0.0
H77 H 0.96782 0.33223 0.06735 0.0
H78 H 0.63463 0.0488 0.09104 0.0
H79 H 0.66377 0.1199 0.04686 0.0
H80 H 0.20287 0.34622 0.26456 0.0
H81 H 0.33699 0.64475 0.29522 0.0
H82 H 0.1812 0.27871 0.30824 0.0
H83 H 0.24259 0.38949 0.34592 0.0
Gd84 Gd 0.72181 0.15887 0.49348 0.0
Gd85 Gd 0.6031 0.93015 0.53366 0.0
C86 C 0.43937 0.61868 0.49732 0.0
C87 C 0.27262 0.55127 0.51528 0.0
C88 C 0.40097 0.72209 0.52488 0.0
C89 C 0.46885 0.71025 0.51001 0.0
C90 C 0.30258 0.64204 0.52812 0.0
C91 C 0.34037 0.54013 0.49958 0.0
C92 C 0.51145 0.6069 0.48389 0.0
C93 C 0.61095 0.68324 0.48448 0.0
N94 N 0.56549 0.78519 0.50973 0.0
C95 C 0.63712 0.77132 0.49803 0.0
H96 H 0.71463 0.82866 0.49846 0.0
C97 C 0.37244 0.82007 0.5552 0.0
N98 N 0.43349 0.80908 0.53792 0.0
C99 C 0.27369 0.74364 0.55866 0.0
C100 C 0.23858 0.65415 0.54508 0.0
H101 H 0.40015 0.8885 0.56615 0.0
H102 H 0.31649 0.46915 0.49009 0.0
H103 H 0.63803 0.2749 0.53267 0.0
H104 H 0.4917 0.53799 0.47379 0.0
H105 H 0.66779 0.67395 0.4747 0.0
H106 H 0.19797 0.48837 0.51788 0.0
H107 H 0.90673 0.1799 0.45541 0.0
H108 H 0.87136 0.576 0.54362 0.0
H109 H 0.69891 0.44011 0.55225 0.0
H110 H 0.1327 0.60142 0.48856 0.0
H111 H 0.22526 0.75316 0.57212 0.0
H112 H 0.16286 0.59406 0.54833 0.0
H113 H 0.03214 0.63597 0.51935 0.0
H114 H 0.07547 0.30912 0.44187 0.0
N115 N 0.77686 0.31233 0.51496 0.0
C116 C 0.84574 0.50248 0.5355 0.0
C117 C 0.7484 0.42611 0.54037 0.0
C118 C 0.90754 0.48407 0.51935 0.0
C119 C 0.87075 0.38676 0.5094 0.0
C120 C 0.71436 0.33191 0.52935 0.0
N121 N 0.88843 0.27383 0.48243 0.0
C122 C 0.92802 0.3671 0.49243 0.0
C123 C 0.035 0.32641 0.45617 0.0
C124 C 0.0773 0.42239 0.46656 0.0
C125 C 0.93933 0.25316 0.46401 0.0
C126 C 0.02329 0.44418 0.48465 0.0
H127 H 0.15081 0.47946 0.46016 0.0
O128 O 0.70592 0.15895 0.45158 0.0
O129 O 0.62674 -0.00619 0.49415 0.0
O130 O 0.76317 0.97724 0.52251 0.0
O131 O 0.84882 0.14593 0.51025 0.0
O132 O 0.73607 0.05273 0.46611 0.0
O133 O 0.64884 0.23356 0.47589 0.0
O134 O 0.59013 0.91081 0.57567 0.0
O135 O 0.69831 0.09533 0.53341 0.0
O136 O 0.56827 0.12109 0.50818 0.0
O137 O 0.48028 0.94937 0.51625 0.0
O138 O 0.5874 0.03456 0.56125 0.0
O139 O 0.67578 0.86008 0.55373 0.0
C140 C 0.66182 0.97142 0.47488 0.0
C141 C 0.06026 0.541 0.49454 0.0
C142 C 0.00292 0.5607 0.51204 0.0
C143 C 0.66718 0.21671 0.45222 0.0
C144 C 0.70802 0.30047 0.43343 0.0
C145 C 0.71948 0.39388 0.43999 0.0
C146 C 0.73169 0.2852 0.40803 0.0
C147 C 0.7654 0.36151 0.38928 0.0
C148 C 0.753 0.46997 0.42142 0.0
C149 C 0.77529 0.4539 0.39616 0.0
C150 C 0.84653 0.06233 0.5173 0.0
C151 C 0.66195 0.11638 0.55273 0.0
C152 C 0.63822 0.86174 0.57635 0.0
C153 C 0.58941 0.76728 0.5911 0.0
C154 C 0.52722 0.67687 0.57834 0.0
C155 C 0.60301 0.76729 0.61819 0.0
C156 C 0.55446 0.67719 0.63244 0.0
C157 C 0.47715 0.58809 0.59233 0.0
C158 C 0.49006 0.58807 0.61915 0.0
C159 C 0.48398 0.03546 0.51179 0.0
H160 H 0.7019 0.40806 0.45936 0.0
H161 H 0.72219 0.21313 0.40266 0.0
H162 H 0.76145 0.54163 0.4266 0.0
H163 H 0.80162 0.51405 0.3821 0.0
H164 H 0.51728 0.67466 0.55758 0.0
H165 H 0.65257 0.83686 0.62798 0.0
H166 H 0.42831 0.51891 0.58233 0.0
H167 H 0.44933 0.51786 0.62948 0.0
Gd168 Gd 0.8007 0.47924 0.82601 0.0
Gd169 Gd 0.70261 0.59895 0.86881 0.0
C170 C 0.53011 0.74242 0.83544 0.0
C171 C 0.63362 0.91496 0.84888 0.0
C172 C 0.68382 0.79256 0.85915 0.0
C173 C 0.59843 0.71817 0.84695 0.0
C174 C 0.70031 0.89086 0.86088 0.0
C175 C 0.54954 0.84132 0.83591 0.0
C176 C 0.44167 0.66594 0.82481 0.0
C177 C 0.42047 0.56754 0.82684 0.0
N178 N 0.57857 0.62172 0.84788 0.0
C179 C 0.48882 0.5464 0.83887 0.0
H180 H 0.46873 0.46928 0.83998 0.0
C181 C 0.82334 0.83521 0.88634 0.0
N182 N 0.74641 0.76745 0.87119 0.0
C183 C 0.84273 0.93331 0.88841 0.0
C184 C 0.78101 0.96128 0.87563 0.0
H185 H 0.87051 0.81349 0.89657 0.0
H186 H 0.49785 0.86091 0.82716 0.0
H187 H 0.01015 0.56876 0.86181 0.0
H188 H 0.38775 0.68172 0.81576 0.0
H189 H 0.35101 0.50752 0.81922 0.0
H190 H 0.64493 0.98985 0.85011 0.0
H191 H 0.63016 0.28876 0.79049 0.0
H192 H 0.07987 0.33707 0.87309 0.0
H193 H 0.11847 0.51084 0.88033 0.0
H194 H 0.8311 0.06701 0.82267 0.0
H195 H 0.90442 0.98691 0.90016 0.0
H196 H 0.79456 0.03666 0.8779 0.0
H197 H 0.9733 0.17238 0.85109 0.0
H198 H 0.5873 0.1181 0.77848 0.0
N199 N 0.90469 0.4274 0.8461 0.0
C200 C 0.0303 0.36151 0.86544 0.0
C201 C 0.05237 0.45956 0.86954 0.0
C202 C 0.9466 0.29734 0.85066 0.0
C203 C 0.88414 0.33276 0.84126 0.0
C204 C -0.01012 0.49195 0.85913 0.0
N205 N 0.74844 0.31154 0.81597 0.0
C206 C 0.80377 0.27312 0.82556 0.0
C207 C 0.64827 0.16073 0.79179 0.0
C208 C 0.70373 0.11974 0.80179 0.0
C209 C 0.67272 0.25771 0.79879 0.0
C210 C 0.78342 0.17643 0.81861 0.0
H211 H 0.68551 0.04506 0.79607 0.0
O212 O 0.80475 0.48041 0.78371 0.0
O213 O 0.72761 0.57298 0.82779 0.0
O214 O 0.58357 0.43975 0.85938 0.0
O215 O 0.66691 0.35537 0.84619 0.0
O216 O 0.66819 0.45444 0.80242 0.0
O217 O 0.94231 0.55835 0.80573 0.0
O218 O 0.64625 0.50707 0.90392 0.0
O219 O 0.77752 0.5092 0.86688 0.0
O220 O 0.92289 0.63512 0.83658 0.0
O221 O 0.84365 0.72152 0.85044 0.0
O222 O 0.84258 0.63248 0.89052 0.0
O223 O 0.64422 0.64419 0.90147 0.0
C224 C 0.66143 0.52924 0.81064 0.0
C225 C 0.84488 0.1406 0.82802 0.0
C226 C 0.92593 0.20067 0.84417 0.0
C227 C 0.90198 0.52806 0.78285 0.0
C228 C 0.94854 0.48785 0.76512 0.0
C229 C 0.02674 0.47283 0.77342 0.0
C230 C 0.91604 0.46691 0.73918 0.0
C231 C 0.96135 0.43219 0.72152 0.0
C232 C 0.07237 0.43894 0.75592 0.0
C233 C 0.04039 0.41917 0.73009 0.0
C234 C 0.58606 0.35665 0.85436 0.0
C235 C 0.84405 0.55275 0.88392 0.0
C236 C 0.63133 0.57128 0.91646 0.0
C237 C 0.67393 0.59899 0.943 0.0
C238 C 0.77709 0.6617 0.94666 0.0
C239 C 0.61099 0.56611 0.96498 0.0
C240 C 0.65111 0.59507 0.9903 0.0
C241 C 0.81741 0.68753 0.97154 0.0
C242 C 0.7552 0.65468 0.99322 0.0
C243 C 0.92309 0.71874 0.8421 0.0
H244 H 0.05307 0.48765 0.79332 0.0
H245 H 0.85593 0.47856 0.73264 0.0
H246 H 0.13263 0.42771 0.76243 0.0
H247 H 0.07593 0.39165 0.71695 0.0
H248 H 0.82721 0.69321 0.93051 0.0
H249 H 0.53106 0.5194 0.96232 0.0
H250 H 0.89716 0.73561 0.974 0.0
H251 H 0.78859 0.67974 1.01222 0.0
H252 H 0.95996 0.6209 0.17382 0.0
H253 H 0.26212 0.76879 0.20339 0.0
H254 H 0.96725 0.77989 0.16985 0.0
H255 H 0.26633 0.92768 0.20182 0.0
H256 H 0.28772 0.21109 0.17011 0.0
H257 H 0.28113 0.05067 0.17347 0.0
H258 H 0.96516 0.90792 0.1911 0.0
H259 H 0.97118 0.06625 0.18581 0.0
C260 C 0.02798 0.68726 0.17957 0.0
C261 C 0.11164 0.68211 0.18801 0.0
C262 C 0.03166 0.77892 0.17774 0.0
C263 C 0.11795 0.86763 0.18523 0.0
C264 C 0.19973 0.86167 0.19507 0.0
C265 C 0.1969 0.77011 0.19625 0.0
C266 C 0.21689 0.14485 0.17441 0.0
C267 C 0.12982 0.15071 0.17746 0.0
C268 C 0.2131 0.05299 0.17665 0.0
C269 C 0.12252 0.96564 0.18263 0.0
C270 C 0.0358 0.97253 0.18586 0.0
C271 C 0.03921 0.06369 0.18294 0.0
H272 H 0.29386 0.88247 0.50341 0.0
H273 H 0.46338 0.19561 0.52321 0.0
H274 H 0.14013 0.88998 0.50506 0.0
H275 H 0.31065 0.20219 0.5264 0.0
H276 H 0.03417 0.21246 0.50419 0.0
H277 H 0.18605 0.20362 0.50191 0.0
H278 H 0.02784 0.90308 0.53283 0.0
H279 H 0.87433 0.9093 0.53316 0.0
C280 C 0.29806 0.95261 0.50833 0.0
C281 C 0.39052 0.0386 0.51297 0.0
C282 C 0.21 0.95692 0.50949 0.0
C283 C 0.21269 0.04691 0.51581 0.0
C284 C 0.30552 0.13225 0.52084 0.0
C285 C 0.39336 0.12836 0.51917 0.0
C286 C 0.03133 0.14406 0.51018 0.0
C287 C 0.94136 0.06098 0.51828 0.0
C288 C 0.11904 0.13934 0.50923 0.0
C289 C 0.11945 0.05225 0.51703 0.0
C290 C 0.03005 0.97043 0.52602 0.0
C291 C 0.94198 0.97448 0.52647 0.0
H292 H 0.10496 0.73712 0.85032 0.0
H293 H 0.96039 0.91037 0.83677 0.0
H294 H 0.26311 0.88836 0.85618 0.0
H295 H 0.12117 0.06372 0.84061 0.0
H296 H 0.40397 0.32395 0.87127 0.0
H297 H 0.24458 0.16996 0.86894 0.0
H298 H 0.39227 0.02003 0.83608 0.0
H299 H 0.55159 0.17085 0.84083 0.0
C300 C 0.10739 0.80783 0.84806 0.0
C301 C 0.02026 0.81186 0.84307 0.0
C302 C 0.19871 0.89517 0.85127 0.0
C303 C 0.20599 0.98918 0.8488 0.0
C304 C 0.11866 0.99304 0.84323 0.0
C305 C 0.02653 0.90522 0.84071 0.0
C306 C 0.4025 0.25781 0.86377 0.0
C307 C 0.49063 0.26079 0.85548 0.0
C308 C 0.31061 0.16946 0.86215 0.0
C309 C 0.30436 0.08227 0.85182 0.0
C310 C 0.39325 0.08486 0.84434 0.0
C311 C 0.4852 0.17239 0.84662 0.0
H312 H 0.4753 0.59621 0.99444 0.0
H313 H 0.67993 0.54191 0.03921 0.0
H314 H 0.37912 0.57739 0.03358 0.0
H315 H 0.58639 0.52821 0.07872 0.0
H316 H 0.3203 0.4085 0.13809 0.0
H317 H 0.43028 0.42771 0.10163 0.0
H318 H 0.39808 0.67203 0.07218 0.0
H319 H 0.28649 0.65064 0.10816 0.0
C320 C 0.49922 0.57911 1.01256 0.0
C321 C 0.58574 0.57115 1.01362 0.0
C322 C 0.44509 0.57017 0.03515 0.0
C323 C 0.47624 0.55352 0.05945 0.0
C324 C 0.56039 0.54135 0.06039 0.0
C325 C 0.61439 0.54991 0.03773 0.0
C326 C 0.33884 0.46773 0.12412 0.0
C327 C 0.29467 0.52786 0.12578 0.0
C328 C 0.40158 0.47862 0.10318 0.0
C329 C 0.42087 0.54968 0.08356 0.0
C330 C 0.38225 0.6144 0.08644 0.0
C331 C 0.31935 0.6031 0.1072 0.0
H332 H 0.88894 0.29107 0.37577 0.0
H333 H 0.70054 0.39501 0.34294 0.0
H334 H 0.93773 0.26985 0.33231 0.0
H335 H 0.74478 0.369 0.29916 0.0
H336 H 0.95589 0.4376 0.22839 0.0
H337 H 0.87517 0.43598 0.26911 0.0
H338 H 0.89149 0.17732 0.29413 0.0
H339 H 0.97758 0.18334 0.25387 0.0
C340 C 0.85664 0.30765 0.35914 0.0
C341 C 0.79127 0.34489 0.36267 0.0
C342 C 0.88378 0.29467 0.33414 0.0
C343 C 0.8447 0.3168 0.31197 0.0
C344 C 0.77762 0.3524 0.31564 0.0
C345 C 0.75191 0.36707 0.34071 0.0
C346 C 0.93982 0.37889 0.24232 0.0
C347 C 0.97379 0.31111 0.23813 0.0
C348 C 0.89339 0.37782 0.26578 0.0
C349 C 0.87863 0.30793 0.28538 0.0
C350 C 0.9045 0.23443 0.27997 0.0
C351 C 0.9524 0.23667 0.25673 0.0
H352 H 0.48886 0.43982 0.78452 0.0
H353 H 0.75891 0.72395 0.79345 0.0
H354 H 0.45772 0.49329 0.74273 0.0
H355 H 0.7284 0.77746 0.75099 0.0
H356 H 0.57361 0.81119 0.67087 0.0
H357 H 0.59022 0.79532 0.71803 0.0
H358 H 0.58895 0.51916 0.70507 0.0
H359 H 0.57612 0.53595 0.65854 0.0
C360 C 0.53918 0.5155 0.77801 0.0
C361 C 0.62635 0.57759 0.79205 0.0
C362 C 0.52175 0.54583 0.75404 0.0
C363 C 0.59182 0.63851 0.74345 0.0
C364 C 0.67333 0.70558 0.75878 0.0
C365 C 0.69052 0.67522 0.78309 0.0
C366 C 0.57824 0.74787 0.67811 0.0
C367 C 0.57147 0.67375 0.66089 0.0
C368 C 0.58727 0.73876 0.70506 0.0
C369 C 0.58856 0.65494 0.71513 0.0
C370 C 0.58554 0.58328 0.69785 0.0
C371 C 0.57777 0.5928 0.67116 0.0
H372 H 0.74039 0.35243 0.89432 0.0
H373 H 0.9896 0.63091 0.9204 0.0
H374 H 0.74456 0.27265 0.9346 0.0
H375 H -0.0015 0.55018 0.96024 0.0
H376 H 0.88688 0.42625 0.04163 0.0
H377 H 0.90749 0.49918 0.99853 0.0
H378 H 0.81369 0.21045 0.96395 0.0
H379 H 0.78761 0.13722 1.00737 0.0
C380 C 0.79855 0.39565 0.9083 0.0
C381 C 0.86407 0.49812 0.90441 0.0
C382 C 0.80119 0.34985 0.93151 0.0
C383 C 0.87052 0.40523 0.95115 0.0
C384 C 0.94184 0.50572 0.94604 0.0
C385 C 0.93794 0.55183 0.92305 0.0
C386 C 0.87132 0.37883 0.02475 0.0
C387 C 0.83532 0.27626 0.02774 0.0
C388 C 0.88401 0.42062 0.99996 0.0
C389 C 0.86298 0.36113 0.9775 0.0
C390 C 0.8292 0.25857 0.98066 0.0
C391 C 0.81458 0.21648 1.00551 0.0
H392 H 0.22085 0.50062 0.37335 0.0
H393 H 0.47289 0.70147 0.32583 0.0
H394 H 0.3068 0.59684 0.41191 0.0
H395 H 0.55605 0.80085 0.36405 0.0
H396 H 0.7318 0.90056 0.43748 0.0
H397 H 0.63839 0.78873 0.40185 0.0
H398 H 0.3638 0.75241 0.43412 0.0
H399 H 0.45766 0.86222 0.47012 0.0
C400 C 0.29422 0.56586 0.37107 0.0
C401 C 0.3403 0.59266 0.34645 0.0
C402 C 0.34314 0.62152 0.39319 0.0
C403 C 0.43911 0.70579 0.39121 0.0
C404 C 0.48325 0.73493 0.36643 0.0
C405 C 0.43468 0.67895 0.34437 0.0
C406 C 0.65122 0.86695 0.43715 0.0
C407 C 0.60195 0.88974 0.45652 0.0
C408 C 0.59773 0.80386 0.41661 0.0
C409 C 0.49374 0.76337 0.41473 0.0
C410 C 0.44375 0.78212 0.43492 0.0
C411 C 0.49744 0.84491 0.45562 0.0
H412 H 0.06878 0.48657 0.67611 0.0
H413 H 0.76862 0.31719 0.70614 0.0
H414 H 0.00534 0.43725 0.63182 0.0
H415 H 0.70533 0.264 0.66247 0.0
H416 H 0.58928 0.20426 0.58404 0.0
H417 H 0.6694 0.30483 0.6224 0.0
H418 H 0.94009 0.30054 0.60356 0.0
H419 H 0.86118 0.20639 0.56411 0.0
C420 C 0.9892 0.43864 0.67317 0.0
C421 C 0.9235 0.40587 0.69451 0.0
C422 C 0.95275 0.41008 0.64782 0.0
C423 C 0.84987 0.34686 0.64331 0.0
C424 C 0.78458 0.315 0.66484 0.0
C425 C 0.82082 0.34479 0.69003 0.0
C426 C 0.66709 0.22816 0.58773 0.0
C427 C 0.71914 0.19776 0.57128 0.0
C428 C 0.71275 0.28446 0.60991 0.0
C429 C 0.81034 0.30809 0.61675 0.0
C430 C 0.86498 0.28411 0.59907 0.0
C431 C 0.81991 0.23006 0.57639 0.0
loop_
_geom_bond_atom_site_label_1
_geom_bond_atom_site_label_2
_geom_bond_distance
_geom_bond_site_symmetry_2
_ccdc_geom_bond_type
Gd0 N31 2.661 . S
Gd0 N37 2.601 . S
Gd0 O44 2.545 . S
Gd0 O45 2.606 1_655 S
Gd0 O47 2.429 . S
Gd0 O48 2.545 . S
Gd0 O49 2.412 . S
Gd0 O51 2.362 . S
Gd0 O52 2.324 . S
Gd0 C59 2.828 . S
Gd1 N10 2.661 . S
Gd1 N14 2.601 . S
Gd1 O45 2.362 . S
Gd1 O46 2.324 . S
Gd1 O50 2.545 . S
Gd1 O51 2.606 1_455 S
Gd1 O53 2.429 . S
Gd1 O54 2.545 . S
Gd1 O55 2.412 . S
Gd1 C68 2.828 . S
C2 C5 1.417 . S
C2 C7 1.431 . S
C2 C8 1.412 . S
C3 C6 1.437 . S
C3 C7 1.317 . S
C3 H22 0.929 . S
C4 C5 1.426 . S
C4 C6 1.413 . S
C4 N14 1.359 . S
C5 C2 1.417 . S
C5 C4 1.426 . S
C5 N10 1.350 . S
C6 C3 1.437 . S
C6 C4 1.413 . S
C6 C16 1.391 . S
C7 C2 1.431 . S
C7 C3 1.317 . S
C7 H18 0.930 . S
C8 C2 1.412 . S
C8 C9 1.355 . S
C8 H20 0.930 . S
C9 C8 1.355 . S
C9 C11 1.402 . S
C9 H21 0.930 . S
N10 Gd1 2.661 . S
N10 C5 1.350 . S
N10 C11 1.307 . S
C11 C9 1.402 . S
C11 N10 1.307 . S
C11 H12 0.930 . S
H12 C11 0.930 . S
C13 N14 1.334 . S
C13 C15 1.394 . S
C13 H17 0.930 . S
N14 Gd1 2.601 . S
N14 C4 1.359 . S
N14 C13 1.334 . S
C15 C13 1.394 . S
C15 C16 1.359 . S
C15 H27 0.930 . S
C16 C6 1.391 . S
C16 C15 1.359 . S
C16 H28 0.929 . S
H17 C13 0.930 . S
H18 C7 0.930 . S
H19 C36 0.930 . S
H20 C8 0.930 . S
H21 C9 0.930 . S
H22 C3 0.929 . S
H23 C41 0.930 . S
H24 C32 0.930 . S
H25 C33 0.930 . S
H26 C57 0.929 . S
H27 C15 0.930 . S
H28 C16 0.929 . S
H29 C58 0.930 . S
H30 C39 0.930 . S
N31 Gd0 2.661 . S
N31 C35 1.350 . S
N31 C36 1.307 . S
C32 H24 0.930 . S
C32 C33 1.355 . S
C32 C34 1.412 . S
C33 H25 0.930 . S
C33 C32 1.355 . S
C33 C36 1.402 . S
C34 C32 1.412 . S
C34 C35 1.417 . S
C34 C58 1.431 . S
C35 N31 1.350 . S
C35 C34 1.417 . S
C35 C38 1.426 . S
C36 H19 0.930 . S
C36 N31 1.307 . S
C36 C33 1.402 . S
N37 Gd0 2.601 . S
N37 C38 1.359 . S
N37 C41 1.334 . S
C38 C35 1.426 . S
C38 N37 1.359 . S
C38 C42 1.413 . S
C39 H30 0.930 . S
C39 C40 1.359 . S
C39 C41 1.394 . S
C40 C39 1.359 . S
C40 C42 1.391 . S
C40 H43 0.929 . S
C41 H23 0.930 . S
C41 N37 1.334 . S
C41 C39 1.394 . S
C42 C38 1.413 . S
C42 C40 1.391 . S
C42 C57 1.437 . S
H43 C40 0.929 . S
O44 Gd0 2.545 . S
O44 C59 1.258 . S
O45 Gd0 2.606 1_455 S
O45 Gd1 2.362 . S
O45 C56 1.284 . S
O46 Gd1 2.324 . S
O46 C66 1.254 . S
O47 Gd0 2.429 . S
O47 C66 1.268 1_655 S
O48 Gd0 2.545 . S
O48 C56 1.250 1_655 S
O49 Gd0 2.412 . S
O49 C59 1.252 . S
O50 Gd1 2.545 . S
O50 C68 1.258 . S
O51 Gd0 2.362 . S
O51 Gd1 2.606 1_655 S
O51 C67 1.284 . S
O52 Gd0 2.324 . S
O52 C75 1.254 . S
O53 Gd1 2.429 . S
O53 C75 1.268 1_455 S
O54 Gd1 2.545 . S
O54 C67 1.250 1_455 S
O55 Gd1 2.412 . S
O55 C68 1.252 . S
C56 O45 1.284 . S
C56 O48 1.250 1_455 S
C57 H26 0.929 . S
C57 C42 1.437 . S
C57 C58 1.317 . S
C58 H29 0.930 . S
C58 C34 1.431 . S
C58 C57 1.317 . S
C59 Gd0 2.828 . S
C59 O44 1.258 . S
C59 O49 1.252 . S
C59 C60 1.497 . S
C60 C59 1.497 . S
C60 C61 1.395 . S
C60 C62 1.380 . S
C61 C60 1.395 . S
C61 C64 1.398 . S
C61 H76 0.930 . S
C62 C60 1.380 . S
C62 C63 1.391 . S
C62 H77 0.930 . S
C63 C62 1.391 . S
C63 C65 1.387 . S
C64 C61 1.398 . S
C64 C65 1.380 . S
C64 H78 0.930 . S
C65 C63 1.387 . S
C65 C64 1.380 . S
C65 H79 0.930 . S
C66 O46 1.254 . S
C66 O47 1.268 1_455 S
C67 O51 1.284 . S
C67 O54 1.250 1_655 S
C68 Gd1 2.828 . S
C68 O50 1.258 . S
C68 O55 1.252 . S
C68 C69 1.497 . S
C69 C68 1.497 . S
C69 C70 1.395 . S
C69 C71 1.380 . S
C70 C69 1.395 . S
C70 C73 1.398 . S
C70 H80 0.930 . S
C71 C69 1.380 . S
C71 C72 1.391 . S
C71 H81 0.930 . S
C72 C71 1.391 . S
C72 C74 1.387 . S
C73 C70 1.398 . S
C73 C74 1.380 . S
C73 H82 0.930 . S
C74 C72 1.387 . S
C74 C73 1.380 . S
C74 H83 0.930 . S
C75 O52 1.254 . S
C75 O53 1.268 1_655 S
H76 C61 0.930 . S
H77 C62 0.930 . S
H78 C64 0.930 . S
H79 C65 0.930 . S
H80 C70 0.930 . S
H81 C71 0.930 . S
H82 C73 0.930 . S
H83 C74 0.930 . S
Gd84 N115 2.661 . S
Gd84 N121 2.601 1_655 S
Gd84 O128 2.545 . S
Gd84 O129 2.606 . S
Gd84 O131 2.429 . S
Gd84 O132 2.545 . S
Gd84 O133 2.412 . S
Gd84 O135 2.362 . S
Gd84 O136 2.324 . S
Gd84 C143 2.828 . S
Gd85 N94 2.661 1_545 S
Gd85 N98 2.601 1_545 S
Gd85 O129 2.362 . S
Gd85 O130 2.324 . S
Gd85 O134 2.545 1_545 S
Gd85 O135 2.606 . S
Gd85 O137 2.429 . S
Gd85 O138 2.545 . S
Gd85 O139 2.412 1_545 S
Gd85 C152 2.828 1_545 S
C86 C89 1.417 . S
C86 C91 1.431 . S
C86 C92 1.412 . S
C87 C90 1.437 . S
C87 C91 1.317 . S
C87 H106 0.929 . S
C88 C89 1.426 . S
C88 C90 1.413 . S
C88 N98 1.359 . S
C89 C86 1.417 . S
C89 C88 1.426 . S
C89 N94 1.350 . S
C90 C87 1.437 . S
C90 C88 1.413 . S
C90 C100 1.391 . S
C91 C86 1.431 . S
C91 C87 1.317 . S
C91 H102 0.930 . S
C92 C86 1.412 . S
C92 C93 1.355 . S
C92 H104 0.930 . S
C93 C92 1.355 . S
C93 C95 1.402 . S
C93 H105 0.930 . S
N94 Gd85 2.661 1_565 S
N94 C89 1.350 . S
N94 C95 1.307 . S
C95 C93 1.402 . S
C95 N94 1.307 . S
C95 H96 0.930 . S
H96 C95 0.930 . S
C97 N98 1.334 . S
C97 C99 1.394 . S
C97 H101 0.930 . S
N98 Gd85 2.601 1_565 S
N98 C88 1.359 . S
N98 C97 1.334 . S
C99 C97 1.394 . S
C99 C100 1.359 . S
C99 H111 0.930 . S
C100 C90 1.391 . S
C100 C99 1.359 . S
C100 H112 0.929 . S
H101 C97 0.930 . S
H102 C91 0.930 . S
H103 C120 0.930 . S
H104 C92 0.930 . S
H105 C93 0.930 . S
H106 C87 0.929 . S
H107 C125 0.930 . S
H108 C116 0.930 . S
H109 C117 0.930 . S
H110 C141 0.929 . S
H111 C99 0.930 . S
H112 C100 0.929 . S
H113 C142 0.930 . S
H114 C123 0.930 . S
N115 Gd84 2.661 . S
N115 C119 1.350 . S
N115 C120 1.307 . S
C116 H108 0.930 . S
C116 C117 1.355 . S
C116 C118 1.412 . S
C117 H109 0.930 . S
C117 C116 1.355 . S
C117 C120 1.402 . S
C118 C116 1.412 . S
C118 C119 1.417 . S
C118 C142 1.431 1_655 S
C119 N115 1.350 . S
C119 C118 1.417 . S
C119 C122 1.426 1_655 S
C120 H103 0.930 . S
C120 N115 1.307 . S
C120 C117 1.402 . S
N121 Gd84 2.601 1_455 S
N121 C122 1.359 . S
N121 C125 1.334 . S
C122 C119 1.426 1_455 S
C122 N121 1.359 . S
C122 C126 1.413 . S
C123 H114 0.930 . S
C123 C124 1.359 . S
C123 C125 1.394 . S
C124 C123 1.359 . S
C124 C126 1.391 . S
C124 H127 0.929 . S
C125 H107 0.930 . S
C125 N121 1.334 . S
C125 C123 1.394 . S
C126 C122 1.413 . S
C126 C124 1.391 . S
C126 C141 1.437 . S
H127 C124 0.929 . S
O128 Gd84 2.545 . S
O128 C143 1.258 . S
O129 Gd84 2.606 . S
O129 Gd85 2.362 . S
O129 C140 1.284 . S
O130 Gd85 2.324 . S
O130 C150 1.254 . S
O131 Gd84 2.429 . S
O131 C150 1.268 . S
O132 Gd84 2.545 . S
O132 C140 1.250 . S
O133 Gd84 2.412 . S
O133 C143 1.252 . S
O134 Gd85 2.545 1_565 S
O134 C152 1.258 . S
O135 Gd84 2.362 . S
O135 Gd85 2.606 . S
O135 C151 1.284 . S
O136 Gd84 2.324 . S
O136 C159 1.254 . S
O137 Gd85 2.429 . S
O137 C159 1.268 . S
O138 Gd85 2.545 . S
O138 C151 1.250 . S
O139 Gd85 2.412 1_565 S
O139 C152 1.252 . S
C140 O129 1.284 . S
C140 O132 1.250 . S
C141 H110 0.929 . S
C141 C126 1.437 . S
C141 C142 1.317 . S
C142 H113 0.930 . S
C142 C118 1.431 1_455 S
C142 C141 1.317 . S
C143 Gd84 2.828 . S
C143 O128 1.258 . S
C143 O133 1.252 . S
C143 C144 1.497 . S
C144 C143 1.497 . S
C144 C145 1.395 1_655 S
C144 C146 1.380 . S
C145 C144 1.395 1_455 S
C145 C148 1.398 . S
C145 H160 0.930 . S
C146 C144 1.380 . S
C146 C147 1.391 . S
C146 H161 0.930 . S
C147 C146 1.391 . S
C147 C149 1.387 . S
C148 C145 1.398 . S
C148 C149 1.380 1_455 S
C148 H162 0.930 . S
C149 C147 1.387 . S
C149 C148 1.380 1_655 S
C149 H163 0.930 . S
C150 O130 1.254 . S
C150 O131 1.268 . S
C151 O135 1.284 . S
C151 O138 1.250 . S
C152 Gd85 2.828 1_565 S
C152 O134 1.258 . S
C152 O139 1.252 . S
C152 C153 1.497 . S
C153 C152 1.497 . S
C153 C154 1.395 . S
C153 C155 1.380 . S
C154 C153 1.395 . S
C154 C157 1.398 . S
C154 H164 0.930 . S
C155 C153 1.380 . S
C155 C156 1.391 . S
C155 H165 0.930 . S
C156 C155 1.391 . S
C156 C158 1.387 . S
C157 C154 1.398 . S
C157 C158 1.380 . S
C157 H166 0.930 . S
C158 C156 1.387 . S
C158 C157 1.380 . S
C158 H167 0.930 . S
C159 O136 1.254 . S
C159 O137 1.268 . S
H160 C145 0.930 . S
H161 C146 0.930 . S
H162 C148 0.930 . S
H163 C149 0.930 . S
H164 C154 0.930 . S
H165 C155 0.930 . S
H166 C157 0.930 . S
H167 C158 0.930 . S
Gd168 N199 2.661 . S
Gd168 N205 2.601 . S
Gd168 O212 2.545 . S
Gd168 O213 2.606 . S
Gd168 O215 2.429 . S
Gd168 O216 2.545 . S
Gd168 O217 2.412 . S
Gd168 O219 2.362 . S
Gd168 O220 2.324 . S
Gd168 C227 2.828 . S
Gd169 N178 2.661 . S
Gd169 N182 2.601 . S
Gd169 O213 2.362 . S
Gd169 O214 2.324 . S
Gd169 O218 2.545 . S
Gd169 O219 2.606 . S
Gd169 O221 2.429 . S
Gd169 O222 2.545 . S
Gd169 O223 2.412 . S
Gd169 C236 2.828 . S
C170 C173 1.417 . S
C170 C175 1.431 . S
C170 C176 1.412 . S
C171 C174 1.437 . S
C171 C175 1.317 . S
C171 H190 0.929 . S
C172 C173 1.426 . S
C172 C174 1.413 . S
C172 N182 1.359 . S
C173 C170 1.417 . S
C173 C172 1.426 . S
C173 N178 1.350 . S
C174 C171 1.437 . S
C174 C172 1.413 . S
C174 C184 1.391 . S
C175 C170 1.431 . S
C175 C171 1.317 . S
C175 H186 0.930 . S
C176 C170 1.412 . S
C176 C177 1.355 . S
C176 H188 0.930 . S
C177 C176 1.355 . S
C177 C179 1.402 . S
C177 H189 0.930 . S
N178 Gd169 2.661 . S
N178 C173 1.350 . S
N178 C179 1.307 . S
C179 C177 1.402 . S
C179 N178 1.307 . S
C179 H180 0.930 . S
H180 C179 0.930 . S
C181 N182 1.334 . S
C181 C183 1.394 . S
C181 H185 0.930 . S
N182 Gd169 2.601 . S
N182 C172 1.359 . S
N182 C181 1.334 . S
C183 C181 1.394 . S
C183 C184 1.359 . S
C183 H195 0.930 . S
C184 C174 1.391 . S
C184 C183 1.359 . S
C184 H196 0.929 . S
H185 C181 0.930 . S
H186 C175 0.930 . S
H187 C204 0.930 . S
H188 C176 0.930 . S
H189 C177 0.930 . S
H190 C171 0.929 . S
H191 C209 0.930 . S
H192 C200 0.930 . S
H193 C201 0.930 . S
H194 C225 0.929 1_565 S
H195 C183 0.930 . S
H196 C184 0.929 . S
H197 C226 0.930 . S
H198 C207 0.930 . S
N199 Gd168 2.661 . S
N199 C203 1.350 . S
N199 C204 1.307 1_655 S
C200 H192 0.930 . S
C200 C201 1.355 . S
C200 C202 1.412 . S
C201 H193 0.930 . S
C201 C200 1.355 . S
C201 C204 1.402 . S
C202 C200 1.412 . S
C202 C203 1.417 1_455 S
C202 C226 1.431 . S
C203 N199 1.350 . S
C203 C202 1.417 1_655 S
C203 C206 1.426 . S
C204 H187 0.930 . S
C204 N199 1.307 1_455 S
C204 C201 1.402 . S
N205 Gd168 2.601 . S
N205 C206 1.359 . S
N205 C209 1.334 . S
C206 C203 1.426 . S
C206 N205 1.359 . S
C206 C210 1.413 . S
C207 H198 0.930 . S
C207 C208 1.359 . S
C207 C209 1.394 1_565 S
C208 C207 1.359 . S
C208 C210 1.391 1_565 S
C208 H211 0.929 . S
C209 H191 0.930 . S
C209 N205 1.334 . S
C209 C207 1.394 1_545 S
C210 C206 1.413 . S
C210 C208 1.391 1_545 S
C210 C225 1.437 . S
H211 C208 0.929 . S
O212 Gd168 2.545 . S
O212 C227 1.258 . S
O213 Gd168 2.606 . S
O213 Gd169 2.362 . S
O213 C224 1.284 . S
O214 Gd169 2.324 . S
O214 C234 1.254 . S
O215 Gd168 2.429 . S
O215 C234 1.268 . S
O216 Gd168 2.545 . S
O216 C224 1.250 . S
O217 Gd168 2.412 . S
O217 C227 1.252 . S
O218 Gd169 2.545 . S
O218 C236 1.258 . S
O219 Gd168 2.362 . S
O219 Gd169 2.606 . S
O219 C235 1.284 . S
O220 Gd168 2.324 . S
O220 C243 1.254 . S
O221 Gd169 2.429 . S
O221 C243 1.268 . S
O222 Gd169 2.545 . S
O222 C235 1.250 . S
O223 Gd169 2.412 . S
O223 C236 1.252 . S
C224 O213 1.284 . S
C224 O216 1.250 . S
C225 H194 0.929 1_545 S
C225 C210 1.437 . S
C225 C226 1.317 1_655 S
C226 H197 0.930 . S
C226 C202 1.431 . S
C226 C225 1.317 1_455 S
C227 Gd168 2.828 . S
C227 O212 1.258 . S
C227 O217 1.252 . S
C227 C228 1.497 . S
C228 C227 1.497 . S
C228 C229 1.395 . S
C228 C230 1.380 1_655 S
C229 C228 1.395 . S
C229 C232 1.398 . S
C229 H244 0.930 . S
C230 C228 1.380 1_455 S
C230 C231 1.391 . S
C230 H245 0.930 . S
C231 C230 1.391 . S
C231 C233 1.387 . S
C232 C229 1.398 . S
C232 C233 1.380 1_655 S
C232 H246 0.930 . S
C233 C231 1.387 . S
C233 C232 1.380 1_455 S
C233 H247 0.930 . S
C234 O214 1.254 . S
C234 O215 1.268 . S
C235 O219 1.284 . S
C235 O222 1.250 . S
C236 Gd169 2.828 . S
C236 O218 1.258 . S
C236 O223 1.252 . S
C236 C237 1.497 . S
C237 C236 1.497 . S
C237 C238 1.395 . S
C237 C239 1.380 . S
C238 C237 1.395 . S
C238 C241 1.398 . S
C238 H248 0.930 . S
C239 C237 1.380 . S
C239 C240 1.391 . S
C239 H249 0.930 . S
C240 C239 1.391 . S
C240 C242 1.387 . S
C241 C238 1.398 . S
C241 C242 1.380 . S
C241 H250 0.930 . S
C242 C240 1.387 . S
C242 C241 1.380 . S
C242 H251 0.930 . S
C243 O220 1.254 . S
C243 O221 1.268 . S
H244 C229 0.930 . S
H245 C230 0.930 . S
H246 C232 0.930 . S
H247 C233 0.930 . S
H248 C238 0.930 . S
H249 C239 0.930 . S
H250 C241 0.930 . S
H251 C242 0.930 . S
H252 C260 0.950 . S
H253 C265 0.950 . S
H254 C262 0.950 . S
H255 C264 0.950 . S
H256 C266 0.950 . S
H257 C268 0.950 1_565 S
H258 C270 0.950 . S
H259 C271 0.950 . S
C260 H252 0.950 . S
C260 C261 1.386 . S
C260 C262 1.391 . S
C261 C260 1.386 . S
C261 C265 1.393 1_455 S
C262 H254 0.950 . S
C262 C260 1.391 . S
C262 C263 1.400 1_455 S
C263 C262 1.400 1_655 S
C263 C264 1.398 . S
C263 C269 1.492 1_655 S
C264 H255 0.950 . S
C264 C263 1.398 . S
C264 C265 1.391 . S
C265 H253 0.950 . S
C265 C261 1.393 1_655 S
C265 C264 1.391 . S
C266 H256 0.950 . S
C266 C267 1.386 . S
C266 C268 1.391 . S
C267 C266 1.386 . S
C267 C271 1.393 1_655 S
C268 H257 0.950 1_545 S
C268 C266 1.391 . S
C268 C269 1.399 1_645 S
C269 C263 1.492 1_455 S
C269 C268 1.399 1_465 S
C269 C270 1.398 . S
C270 H258 0.950 . S
C270 C269 1.398 . S
C270 C271 1.391 1_565 S
C271 H259 0.950 . S
C271 C267 1.393 1_455 S
C271 C270 1.391 1_545 S
H272 C280 0.950 . S
H273 C285 0.950 . S
H274 C282 0.950 . S
H275 C284 0.950 . S
H276 C286 0.950 . S
H277 C288 0.950 . S
H278 C290 0.950 . S
H279 C291 0.950 1_655 S
C280 H272 0.950 . S
C280 C281 1.386 . S
C280 C282 1.391 . S
C281 C280 1.386 . S
C281 C285 1.393 . S
C282 H274 0.950 . S
C282 C280 1.391 . S
C282 C283 1.400 . S
C283 C282 1.400 . S
C283 C284 1.398 . S
C283 C289 1.491 . S
C284 H275 0.950 . S
C284 C283 1.398 . S
C284 C285 1.391 . S
C285 H273 0.950 . S
C285 C281 1.393 . S
C285 C284 1.391 . S
C286 H276 0.950 . S
C286 C287 1.386 . S
C286 C288 1.391 . S
C287 C286 1.386 . S
C287 C291 1.393 . S
C288 H277 0.950 . S
C288 C286 1.391 . S
C288 C289 1.400 . S
C289 C283 1.491 . S
C289 C288 1.400 . S
C289 C290 1.398 . S
C290 H278 0.950 . S
C290 C289 1.398 . S
C290 C291 1.391 . S
C291 H279 0.950 1_455 S
C291 C287 1.393 . S
C291 C290 1.391 . S
H292 C300 0.950 . S
H293 C305 0.950 1_655 S
H294 C302 0.950 . S
H295 C304 0.950 . S
H296 C306 0.950 . S
H297 C308 0.950 . S
H298 C310 0.950 . S
H299 C311 0.950 . S
C300 H292 0.950 . S
C300 C301 1.386 . S
C300 C302 1.391 . S
C301 C300 1.386 . S
C301 C305 1.393 . S
C302 H294 0.950 . S
C302 C300 1.391 . S
C302 C303 1.400 . S
C303 C302 1.400 . S
C303 C304 1.398 . S
C303 C309 1.491 . S
C304 H295 0.950 . S
C304 C303 1.398 . S
C304 C305 1.391 . S
C305 H293 0.950 1_455 S
C305 C301 1.393 . S
C305 C304 1.391 . S
C306 H296 0.950 . S
C306 C307 1.386 . S
C306 C308 1.391 . S
C307 C306 1.386 . S
C307 C311 1.393 . S
C308 H297 0.950 . S
C308 C306 1.391 . S
C308 C309 1.400 1_545 S
C309 C303 1.491 . S
C309 C308 1.400 1_565 S
C309 C310 1.398 . S
C310 H298 0.950 . S
C310 C309 1.398 . S
C310 C311 1.391 1_565 S
C311 H299 0.950 . S
C311 C307 1.393 . S
C311 C310 1.391 1_545 S
H312 C320 0.950 . S
H313 C325 0.950 1_556 S
H314 C322 0.950 . S
H315 C324 0.950 . S
H316 C326 0.950 . S
H317 C328 0.950 . S
H318 C330 0.950 . S
H319 C331 0.950 . S
C320 H312 0.950 . S
C320 C321 1.386 . S
C320 C322 1.391 1_556 S
C321 C320 1.386 . S
C321 C325 1.393 1_556 S
C322 H314 0.950 . S
C322 C320 1.391 1_554 S
C322 C323 1.400 . S
C323 C322 1.400 . S
C323 C324 1.398 . S
C323 C329 1.491 . S
C324 H315 0.950 . S
C324 C323 1.398 . S
C324 C325 1.391 . S
C325 H313 0.950 1_554 S
C325 C321 1.393 1_554 S
C325 C324 1.391 . S
C326 H316 0.950 . S
C326 C327 1.386 . S
C326 C328 1.391 . S
C327 C326 1.386 . S
C327 C331 1.393 . S
C328 H317 0.950 . S
C328 C326 1.391 . S
C328 C329 1.400 . S
C329 C323 1.491 . S
C329 C328 1.400 . S
C329 C330 1.398 . S
C330 H318 0.950 . S
C330 C329 1.398 . S
C330 C331 1.391 . S
C331 H319 0.950 . S
C331 C327 1.393 . S
C331 C330 1.391 . S
H332 C340 0.950 . S
H333 C345 0.950 . S
H334 C342 0.950 . S
H335 C344 0.950 . S
H336 C346 0.950 . S
H337 C348 0.950 . S
H338 C350 0.950 . S
H339 C351 0.950 . S
C340 H332 0.950 . S
C340 C341 1.386 . S
C340 C342 1.391 . S
C341 C340 1.386 . S
C341 C345 1.393 . S
C342 H334 0.950 . S
C342 C340 1.391 . S
C342 C343 1.400 . S
C343 C342 1.400 . S
C343 C344 1.398 . S
C343 C349 1.491 . S
C344 H335 0.950 . S
C344 C343 1.398 . S
C344 C345 1.391 . S
C345 H333 0.950 . S
C345 C341 1.393 . S
C345 C344 1.391 . S
C346 H336 0.950 . S
C346 C347 1.386 . S
C346 C348 1.391 . S
C347 C346 1.386 . S
C347 C351 1.393 . S
C348 H337 0.950 . S
C348 C346 1.391 . S
C348 C349 1.400 . S
C349 C343 1.491 . S
C349 C348 1.400 . S
C349 C350 1.398 . S
C350 H338 0.950 . S
C350 C349 1.398 . S
C350 C351 1.391 . S
C351 H339 0.950 . S
C351 C347 1.393 . S
C351 C350 1.391 . S
H352 C360 0.950 . S
H353 C365 0.950 . S
H354 C362 0.950 . S
H355 C364 0.950 . S
H356 C366 0.950 . S
H357 C368 0.950 . S
H358 C370 0.950 . S
H359 C371 0.950 . S
C360 H352 0.950 . S
C360 C361 1.386 . S
C360 C362 1.391 . S
C361 C360 1.386 . S
C361 C365 1.393 . S
C362 H354 0.950 . S
C362 C360 1.391 . S
C362 C363 1.400 . S
C363 C362 1.400 . S
C363 C364 1.398 . S
C363 C369 1.491 . S
C364 H355 0.950 . S
C364 C363 1.398 . S
C364 C365 1.391 . S
C365 H353 0.950 . S
C365 C361 1.393 . S
C365 C364 1.391 . S
C366 H356 0.950 . S
C366 C367 1.386 . S
C366 C368 1.391 . S
C367 C366 1.386 . S
C367 C371 1.393 . S
C368 H357 0.950 . S
C368 C366 1.391 . S
C368 C369 1.400 . S
C369 C363 1.491 . S
C369 C368 1.400 . S
C369 C370 1.398 . S
C370 H358 0.950 . S
C370 C369 1.398 . S
C370 C371 1.391 . S
C371 H359 0.950 . S
C371 C367 1.393 . S
C371 C370 1.391 . S
H372 C380 0.950 . S
H373 C385 0.950 . S
H374 C382 0.950 . S
H375 C384 0.950 . S
H376 C386 0.950 . S
H377 C388 0.950 . S
H378 C390 0.950 . S
H379 C391 0.950 . S
C380 H372 0.950 . S
C380 C381 1.386 . S
C380 C382 1.391 . S
C381 C380 1.386 . S
C381 C385 1.393 . S
C382 H374 0.950 . S
C382 C380 1.391 . S
C382 C383 1.400 . S
C383 C382 1.400 . S
C383 C384 1.398 . S
C383 C389 1.491 . S
C384 H375 0.950 . S
C384 C383 1.398 . S
C384 C385 1.391 . S
C385 H373 0.950 . S
C385 C381 1.393 . S
C385 C384 1.391 . S
C386 H376 0.950 . S
C386 C387 1.386 . S
C386 C388 1.391 1_554 S
C387 C386 1.386 . S
C387 C391 1.393 . S
C388 H377 0.950 . S
C388 C386 1.391 1_556 S
C388 C389 1.400 . S
C389 C383 1.491 . S
C389 C388 1.400 . S
C389 C390 1.398 . S
C390 H378 0.950 . S
C390 C389 1.398 . S
C390 C391 1.391 1_556 S
C391 H379 0.950 . S
C391 C387 1.393 . S
C391 C390 1.391 1_554 S
H392 C400 0.950 . S
H393 C405 0.950 . S
H394 C402 0.950 . S
H395 C404 0.950 . S
H396 C406 0.950 . S
H397 C408 0.950 . S
H398 C410 0.950 . S
H399 C411 0.950 . S
C400 H392 0.950 . S
C400 C401 1.386 . S
C400 C402 1.391 . S
C401 C400 1.386 . S
C401 C405 1.393 . S
C402 H394 0.950 . S
C402 C400 1.391 . S
C402 C403 1.400 . S
C403 C402 1.400 . S
C403 C404 1.398 . S
C403 C409 1.491 . S
C404 H395 0.950 . S
C404 C403 1.398 . S
C404 C405 1.391 . S
C405 H393 0.950 . S
C405 C401 1.393 . S
C405 C404 1.391 . S
C406 H396 0.950 . S
C406 C407 1.386 . S
C406 C408 1.391 1_545 S
C407 C406 1.386 . S
C407 C411 1.393 1_545 S
C408 H397 0.950 . S
C408 C406 1.391 1_565 S
C408 C409 1.400 . S
C409 C403 1.491 . S
C409 C408 1.400 . S
C409 C410 1.398 . S
C410 H398 0.950 . S
C410 C409 1.398 . S
C410 C411 1.391 . S
C411 H399 0.950 . S
C411 C407 1.393 1_565 S
C411 C410 1.391 . S
H412 C420 0.950 . S
H413 C425 0.950 . S
H414 C422 0.950 . S
H415 C424 0.950 . S
H416 C426 0.950 . S
H417 C428 0.950 . S
H418 C430 0.950 . S
H419 C431 0.950 . S
C420 H412 0.950 . S
C420 C421 1.386 . S
C420 C422 1.391 . S
C421 C420 1.386 . S
C421 C425 1.393 . S
C422 H414 0.950 . S
C422 C420 1.391 . S
C422 C423 1.400 1_455 S
C423 C422 1.400 1_655 S
C423 C424 1.398 . S
C423 C429 1.491 . S
C424 H415 0.950 . S
C424 C423 1.398 . S
C424 C425 1.391 1_655 S
C425 H413 0.950 . S
C425 C421 1.393 . S
C425 C424 1.391 1_455 S
C426 H416 0.950 . S
C426 C427 1.386 . S
C426 C428 1.391 . S
C427 C426 1.386 . S
C427 C431 1.393 . S
C428 H417 0.950 . S
C428 C426 1.391 . S
C428 C429 1.400 . S
C429 C423 1.491 . S
C429 C428 1.400 . S
C429 C430 1.398 . S
C430 H418 0.950 . S
C430 C429 1.398 . S
C430 C431 1.391 . S
C431 H419 0.950 . S
C431 C427 1.393 . S
C431 C430 1.391 . S
C261 C66 1.439 . S
C267 C75 1.439 . S
C281 C159 1.422 . S
C287 C150 1.422 1_455 S
C301 C243 1.451 1_455 S
C307 C234 1.451 . S
C321 C240 1.790 . S
C327 C56 1.938 . S
C341 C147 1.114 . S
C347 C67 1.195 . S
C361 C224 1.936 . S
C367 C156 1.798 . S
C381 C235 1.233 . S
C387 C63 1.053 . S
C401 C72 1.768 . S
C407 C140 1.921 . S
C421 C231 1.057 . S
C427 C151 1.228 . S
