# Generated by pormake.
# Topology zfn, (5)-cn, num edge types: 1
# Building blocks:
#     Node 0, Type 0, BuildingBlock: XOMCOT_clean_sbu_1, # of connection points: 5
#     Node 1, Type 0, BuildingBlock: XOMCOT_clean_sbu_1, # of connection points: 5
#     Node 2, Type 0, BuildingBlock: XOMCOT_clean_sbu_1, # of connection points: 5
#     Node 3, Type 0, BuildingBlock: XOMCOT_clean_sbu_1, # of connection points: 5
#     Node 4, Type 0, BuildingBlock: XOMCOT_clean_sbu_1, # of connection points: 5
#     Node 5, Type 0, BuildingBlock: XOMCOT_clean_sbu_1, # of connection points: 5
#     Node 6, Type 0, BuildingBlock: XOMCOT_clean_sbu_1, # of connection points: 5
#     Node 7, Type 0, BuildingBlock: XOMCOT_clean_sbu_1, # of connection points: 5
#     Node 8, Type 0, BuildingBlock: XOMCOT_clean_sbu_1, # of connection points: 5
#     Node 9, Type 0, BuildingBlock: XOMCOT_clean_sbu_1, # of connection points: 5
#     Node 10, Type 0, BuildingBlock: XOMCOT_clean_sbu_1, # of connection points: 5
#     Node 11, Type 0, BuildingBlock: XOMCOT_clean_sbu_1, # of connection points: 5
#     Node 12, Type 0, BuildingBlock: XOMCOT_clean_sbu_1, # of connection points: 5
#     Node 13, Type 0, BuildingBlock: XOMCOT_clean_sbu_1, # of connection points: 5
#     Node 14, Type 0, BuildingBlock: XOMCOT_clean_sbu_1, # of connection points: 5
#     Node 15, Type 0, BuildingBlock: XOMCOT_clean_sbu_1, # of connection points: 5
#     Edge 16, Type (0, 0), None
#     Edge 17, Type (0, 0), None
#     Edge 18, Type (0, 0), None
#     Edge 19, Type (0, 0), None
#     Edge 20, Type (0, 0), None
#     Edge 21, Type (0, 0), None
#     Edge 22, Type (0, 0), None
#     Edge 23, Type (0, 0), None
#     Edge 24, Type (0, 0), None
#     Edge 25, Type (0, 0), None
#     Edge 26, Type (0, 0), None
#     Edge 27, Type (0, 0), None
#     Edge 28, Type (0, 0), None
#     Edge 29, Type (0, 0), None
#     Edge 30, Type (0, 0), None
#     Edge 31, Type (0, 0), None
#     Edge 32, Type (0, 0), None
#     Edge 33, Type (0, 0), None
#     Edge 34, Type (0, 0), None
#     Edge 35, Type (0, 0), None
#     Edge 36, Type (0, 0), None
#     Edge 37, Type (0, 0), None
#     Edge 38, Type (0, 0), None
#     Edge 39, Type (0, 0), None
#     Edge 40, Type (0, 0), None
#     Edge 41, Type (0, 0), None
#     Edge 42, Type (0, 0), None
#     Edge 43, Type (0, 0), None
#     Edge 44, Type (0, 0), None
#     Edge 45, Type (0, 0), None
#     Edge 46, Type (0, 0), None
#     Edge 47, Type (0, 0), None
#     Edge 48, Type (0, 0), None
#     Edge 49, Type (0, 0), None
#     Edge 50, Type (0, 0), None
#     Edge 51, Type (0, 0), None
#     Edge 52, Type (0, 0), None
#     Edge 53, Type (0, 0), None
#     Edge 54, Type (0, 0), None
#     Edge 55, Type (0, 0), None
# Relax obj value: 0.127
# Max RMSD: 0.129
# Mean RMSD: 0.129
data_MOF--net-zfn--node1-XOMCOT_clean_sbu_1--edge1-none
_symmetry_space_group_name_H-M    P1
_symmetry_Int_Tables_number       1
_symmetry_cell_setting            triclinic
loop_
_symmetry_equiv_pos_as_xyz
'x, y, z'
_cell_length_a     36.759925
_cell_length_b     36.759838
_cell_length_c     9.2646774
_cell_angle_alpha  89.992333
_cell_angle_beta   89.992404
_cell_angle_gamma 89.999979
loop_
_atom_site_label
_atom_site_type_symbol
_atom_site_fract_x
_atom_site_fract_y
_atom_site_fract_z
_atom_type_partial_charge
C0 C 0.99893 0.32291 0.99692 0.0
C1 C 1.00136 0.32444 0.84843 0.0
N2 N 0.03681 0.32677 0.81323 0.0
N3 N 0.0327 0.32464 0.05393 0.0
C4 C 0.05522 0.32568 0.93841 0.0
H5 H 0.9741 0.3243 0.05936 0.0
Co6 Co 0.04391 0.33647 0.24602 0.0
C7 C 0.10626 0.38565 0.1646 0.0
O8 O 0.09227 0.41343 0.23437 0.0
N9 N 0.05512 0.34666 0.43976 0.0
C10 C 0.0843 0.35087 0.65015 0.0
C11 C 0.08683 0.35634 0.50302 0.0
C12 C 0.03409 0.33495 0.5504 0.0
N13 N 0.05107 0.33728 0.67812 0.0
O14 O 0.06191 0.28752 0.28126 0.0
H15 H 0.1112 0.36421 0.44634 0.0
H16 H 0.00741 0.32311 0.53714 0.0
O17 O 0.09196 0.35404 0.17718 0.0
C18 C 0.03298 0.27112 0.32182 0.0
O19 O 1.00181 0.28815 0.30584 0.0
N20 N 0.02116 0.38292 0.21878 0.0
C21 C 0.97008 0.43787 0.16335 0.0
C22 C 0.99776 0.43035 0.06387 0.0
C23 C 0.02328 0.40297 0.09409 0.0
C24 C 0.9944 0.39063 0.31634 0.0
C25 C 0.9694 0.41836 0.29268 0.0
H26 H 0.04305 0.39629 1.01212 0.0
H27 H 0.99 0.37368 0.40869 0.0
H28 H 0.08437 0.32859 0.94485 0.0
H29 H 0.97885 0.32697 0.77384 0.0
H30 H 0.10554 0.35533 0.72886 0.0
H31 H 0.99824 0.44375 0.95988 0.0
H32 H 0.94819 0.42299 0.37184 0.0
C33 C 0.1818 0.99893 0.49688 0.0
C34 C 0.18027 1.00136 0.34839 0.0
N35 N 0.17794 0.03681 0.31319 0.0
N36 N 0.18007 0.0327 0.55389 0.0
C37 C 0.17903 0.05522 0.43837 0.0
H38 H 0.18042 0.9741 0.55933 0.0
Co39 Co 0.16823 0.04391 0.74599 0.0
C40 C 0.11905 0.10626 0.6646 0.0
O41 O 0.09128 0.09227 0.73438 0.0
N42 N 0.15803 0.05511 0.93974 0.0
C43 C 0.15383 0.0843 0.15013 0.0
C44 C 0.14837 0.08682 1.00301 0.0
C45 C 0.16974 0.03408 0.05038 0.0
N46 N 0.16742 0.05106 0.17809 0.0
O47 O 0.21718 0.06191 0.78122 0.0
H48 H 0.1405 0.1112 0.94633 0.0
H49 H 0.18158 0.0074 0.0371 0.0
O50 O 0.15067 0.09196 0.67717 0.0
C51 C 0.23359 0.03298 0.82179 0.0
O52 O 0.21656 1.00181 0.8058 0.0
N53 N 0.12178 0.02115 0.71876 0.0
C54 C 0.06684 0.97008 0.66333 0.0
C55 C 0.07436 0.99777 0.56387 0.0
C56 C 0.10174 0.02328 0.59408 0.0
C57 C 0.11407 0.9944 0.81632 0.0
C58 C 0.08634 0.9694 0.79265 0.0
H59 H 0.10842 0.04305 0.51212 0.0
H60 H 0.13102 0.98999 0.90866 0.0
H61 H 0.17611 0.08437 0.44481 0.0
H62 H 0.17774 0.97885 0.27381 0.0
H63 H 0.14938 0.10554 0.22884 0.0
H64 H 0.06097 0.99825 0.45987 0.0
H65 H 0.08171 0.94818 0.87181 0.0
C66 C 0.50578 0.18179 0.9968 0.0
C67 C 0.50335 0.18026 0.84831 0.0
N68 N 0.4679 0.17793 0.81315 0.0
N69 N 0.47201 0.18006 0.05385 0.0
C70 C 0.44949 0.17902 0.93835 0.0
H71 H 0.5306 0.1804 0.05922 0.0
Co72 Co 0.4608 0.16823 0.24597 0.0
C73 C 0.39844 0.11905 0.16459 0.0
O74 O 0.41242 0.09127 0.23433 0.0
N75 N 0.44959 0.15803 0.43973 0.0
C76 C 0.42041 0.15382 0.65016 0.0
C77 C 0.41788 0.14835 0.50303 0.0
C78 C 0.47062 0.16975 0.55033 0.0
N79 N 0.45364 0.16741 0.67807 0.0
O80 O 0.4428 0.21718 0.28119 0.0
H81 H 0.39351 0.14047 0.44638 0.0
H82 H 0.4973 0.18159 0.53702 0.0
O83 O 0.41275 0.15066 0.17718 0.0
C84 C 0.47173 0.23358 0.32172 0.0
O85 O 0.5029 0.21656 0.30569 0.0
N86 N 0.48355 0.12177 0.21874 0.0
C87 C 0.53463 0.06683 0.16331 0.0
C88 C 0.50695 0.07435 0.06384 0.0
C89 C 0.48143 0.10173 0.09406 0.0
C90 C 0.5103 0.11406 0.31629 0.0
C91 C 0.5353 0.08633 0.29263 0.0
H92 H 0.46166 0.10841 1.0121 0.0
H93 H 0.5147 0.13101 0.40863 0.0
H94 H 0.42034 0.17611 0.94482 0.0
H95 H 0.52586 0.17773 0.77371 0.0
H96 H 0.39918 0.14935 0.72889 0.0
H97 H 0.50647 0.06096 0.95985 0.0
H98 H 0.55651 0.0817 0.37178 0.0
C99 C 0.32293 0.50578 0.49684 0.0
C100 C 0.32445 0.50335 0.34835 0.0
N101 N 0.32677 0.4679 0.31319 0.0
N102 N 0.32465 0.47201 0.55389 0.0
C103 C 0.32569 0.44949 0.4384 0.0
H104 H 0.32431 0.53061 0.55926 0.0
Co105 Co 0.33648 0.46079 0.746 0.0
C106 C 0.38566 0.39844 0.66459 0.0
O107 O 0.41344 0.41242 0.73431 0.0
N108 N 0.34667 0.44959 0.93974 0.0
C109 C 0.35088 0.42041 0.15017 0.0
C110 C 0.35635 0.41788 1.00304 0.0
C111 C 0.33495 0.47061 0.05036 0.0
N112 N 0.33729 0.45364 0.17809 0.0
O113 O 0.28753 0.4428 0.78123 0.0
H114 H 0.36423 0.39351 0.94639 0.0
H115 H 0.3231 0.4973 0.03706 0.0
O116 O 0.35405 0.41275 0.6772 0.0
C117 C 0.27112 0.47173 0.82175 0.0
O118 O 0.28815 0.5029 0.80573 0.0
N119 N 0.38293 0.48355 0.71875 0.0
C120 C 0.43787 0.53463 0.66333 0.0
C121 C 0.43036 0.50695 0.56385 0.0
C122 C 0.40298 0.48143 0.59407 0.0
C123 C 0.39064 0.5103 0.81631 0.0
C124 C 0.41837 0.5353 0.79265 0.0
H125 H 0.3963 0.46167 0.5121 0.0
H126 H 0.37368 0.5147 0.90866 0.0
H127 H 0.32859 0.42034 0.44486 0.0
H128 H 0.32698 0.52585 0.27374 0.0
H129 H 0.35536 0.39918 0.22891 0.0
H130 H 0.44375 0.50648 0.45985 0.0
H131 H 0.42299 0.55651 0.87182 0.0
C132 C 0.98904 0.17825 0.70434 0.0
C133 C 0.99168 0.17635 0.85278 0.0
N134 N 0.0272 0.17475 0.88683 0.0
N135 N 0.02275 0.17717 0.64596 0.0
C136 C 0.04534 0.17641 0.76109 0.0
H137 H 0.96399 0.17815 0.64345 0.0
Co138 Co 0.03556 0.16809 0.45262 0.0
C139 C 0.11271 0.13572 0.55787 0.0
O140 O 0.14033 0.15374 0.50345 0.0
N141 N 0.04788 0.15959 0.26141 0.0
C142 C 0.0779 0.16185 0.05342 0.0
C143 C 0.08118 0.15765 0.20056 0.0
C144 C 0.02478 0.16484 0.14996 0.0
N145 N 0.04242 0.16664 1.02295 0.0
O146 O 0.05773 0.21585 0.4339 0.0
H147 H 0.10645 0.15649 0.25926 0.0
H148 H 0.99603 0.17004 0.16299 0.0
O149 O 0.08015 0.14508 0.52618 0.0
C150 C 0.03113 0.23385 0.38054 0.0
O151 O 0.99886 0.21855 0.38088 0.0
N152 N 0.01003 0.12398 0.45781 0.0
C153 C 0.96273 0.06524 0.42285 0.0
C154 C 0.99882 0.0596 0.46656 0.0
C155 C 0.02243 0.08946 0.48153 0.0
C156 C 0.97475 0.12972 0.41924 0.0
C157 C 0.9507 0.10093 0.40171 0.0
H158 H 0.05059 0.0846 0.50689 0.0
H159 H 0.96533 0.15702 0.39806 0.0
H160 H 0.07458 0.17543 0.75377 0.0
H161 H 0.96931 0.17433 0.92824 0.0
H162 H 0.10001 0.16332 0.97676 0.0
H163 H 0.00886 0.03237 0.48263 0.0
H164 H 0.92297 0.10657 0.36894 0.0
C165 C 0.32644 0.98905 0.20434 0.0
C166 C 0.32834 0.99168 0.35278 0.0
N167 N 0.32995 0.0272 0.38683 0.0
N168 N 0.32752 0.02276 0.14597 0.0
C169 C 0.32828 0.04535 0.2611 0.0
H170 H 0.32654 0.964 0.14345 0.0
Co171 Co 0.33661 0.03557 0.95261 0.0
C172 C 0.36898 0.11272 0.05785 0.0
O173 O 0.35099 0.14035 1.00342 0.0
N174 N 0.34511 0.04789 0.7614 0.0
C175 C 0.34284 0.07791 0.55342 0.0
C176 C 0.34705 0.08118 0.70054 0.0
C177 C 0.33987 0.02478 0.64995 0.0
N178 N 0.33806 0.04243 0.52294 0.0
O179 O 0.28884 0.05773 0.9339 0.0
H180 H 0.34819 0.10645 0.75925 0.0
H181 H 0.33467 0.99603 0.66298 0.0
O182 O 0.35961 0.08016 0.02614 0.0
C183 C 0.27085 0.03113 0.88053 0.0
O184 O 0.28615 0.99886 0.88088 0.0
N185 N 0.38072 0.01004 0.9578 0.0
C186 C 0.43946 0.96274 0.92287 0.0
C187 C 0.4451 0.99883 0.96656 0.0
C188 C 0.41524 0.02244 0.9815 0.0
C189 C 0.37498 0.97476 0.91924 0.0
C190 C 0.40378 0.95071 0.90173 0.0
H191 H 0.4201 0.0506 1.00684 0.0
H192 H 0.34768 0.96534 0.89807 0.0
H193 H 0.32927 0.07459 0.25377 0.0
H194 H 0.33036 0.96932 0.42823 0.0
H195 H 0.34136 0.10002 0.47677 0.0
H196 H 0.47233 0.00888 0.98262 0.0
H197 H 0.39814 0.92298 0.86898 0.0
C198 C 0.51565 0.32643 0.70424 0.0
C199 C 0.51302 0.32833 0.85268 0.0
N200 N 0.4775 0.32995 0.88677 0.0
N201 N 0.48195 0.32751 0.6459 0.0
C202 C 0.45935 0.32828 0.76106 0.0
H203 H 0.5407 0.32652 0.64331 0.0
Co204 Co 0.46914 0.33661 0.45256 0.0
C205 C 0.39198 0.36898 0.55786 0.0
O206 O 0.36435 0.35098 0.50346 0.0
N207 N 0.45682 0.34511 0.26135 0.0
C208 C 0.4268 0.34284 0.05341 0.0
C209 C 0.42353 0.34705 0.20054 0.0
C210 C 0.47993 0.33986 0.14988 0.0
N211 N 0.46228 0.33806 1.02289 0.0
O212 O 0.44697 0.28884 0.43385 0.0
H213 H 0.39826 0.34819 0.25927 0.0
H214 H 0.50868 0.33466 0.16288 0.0
O215 O 0.42454 0.3596 0.52612 0.0
C216 C 0.47358 0.27084 0.38045 0.0
O217 O 0.50585 0.28615 0.38077 0.0
N218 N 0.49467 0.38072 0.45774 0.0
C219 C 0.54196 0.43946 0.42284 0.0
C220 C 0.50588 0.44509 0.46655 0.0
C221 C 0.48226 0.41523 0.48148 0.0
C222 C 0.52995 0.37498 0.41916 0.0
C223 C 0.554 0.40377 0.40166 0.0
H224 H 0.4541 0.42009 0.50684 0.0
H225 H 0.53936 0.34768 0.39796 0.0
H226 H 0.43012 0.32928 0.75377 0.0
H227 H 0.53539 0.33034 0.92811 0.0
H228 H 0.40469 0.34136 0.97679 0.0
H229 H 0.49583 0.47232 0.48265 0.0
H230 H 0.58173 0.39814 0.36889 0.0
C231 C 0.17826 0.51566 0.20424 0.0
C232 C 0.17637 0.51303 0.35268 0.0
N233 N 0.17475 0.47751 0.38677 0.0
N234 N 0.17718 0.48196 0.14589 0.0
C235 C 0.17642 0.45937 0.26105 0.0
H236 H 0.17817 0.54071 0.14331 0.0
Co237 Co 0.16809 0.46915 0.95257 0.0
C238 C 0.13573 0.39199 0.05788 0.0
O239 O 0.15374 0.36438 1.00349 0.0
N240 N 0.15959 0.45683 0.76137 0.0
C241 C 0.16185 0.42681 0.55342 0.0
C242 C 0.15765 0.42354 0.70055 0.0
C243 C 0.16485 0.47994 0.6499 0.0
N244 N 0.16664 0.46229 0.5229 0.0
O245 O 0.21585 0.44698 0.93385 0.0
H246 H 0.15649 0.39827 0.75928 0.0
H247 H 0.17005 0.50868 0.66289 0.0
O248 O 0.14509 0.42456 0.02616 0.0
C249 C 0.23386 0.47358 0.88046 0.0
O250 O 0.21856 0.50585 0.88077 0.0
N251 N 0.12398 0.49468 0.95775 0.0
C252 C 0.06524 0.54198 0.92282 0.0
C253 C 0.05961 0.50589 0.96656 0.0
C254 C 0.08947 0.48228 0.9815 0.0
C255 C 0.12972 0.52996 0.91915 0.0
C256 C 0.10093 0.55401 0.90164 0.0
H257 H 0.08461 0.45412 1.00689 0.0
H258 H 0.15702 0.53938 0.89794 0.0
H259 H 0.17542 0.43013 0.25376 0.0
H260 H 0.17435 0.5354 0.42811 0.0
H261 H 0.16332 0.4047 0.47678 0.0
H262 H 0.03238 0.49584 0.98266 0.0
H263 H 0.10657 0.58174 0.86885 0.0
C264 C 0.00578 0.6818 0.05503 0.0
C265 C 0.00335 0.68027 0.20352 0.0
N266 N 0.9679 0.67794 0.23872 0.0
N267 N 0.97201 0.68007 0.99802 0.0
C268 C 0.94949 0.67903 0.11354 0.0
H269 H 0.0306 0.68041 0.99258 0.0
Co270 Co 0.96079 0.66824 0.80593 0.0
C271 C 0.89845 0.61906 0.88735 0.0
O272 O 0.91243 0.59128 0.81758 0.0
N273 N 0.94959 0.65805 0.61219 0.0
C274 C 0.92041 0.65384 0.4018 0.0
C275 C 0.91788 0.64837 0.54893 0.0
C276 C 0.97062 0.66976 0.50154 0.0
N277 N 0.95364 0.66743 0.37383 0.0
O278 O 0.9428 0.71719 0.77069 0.0
H279 H 0.89351 0.6405 0.60561 0.0
H280 H 0.9973 0.6816 0.51481 0.0
O281 O 0.91275 0.65067 0.87477 0.0
C282 C 0.97172 0.73359 0.73013 0.0
O283 O 0.0029 0.71656 0.74611 0.0
N284 N 0.98355 0.62179 0.83317 0.0
C285 C 0.03464 0.56685 0.88862 0.0
C286 C 0.00695 0.57436 0.98809 0.0
C287 C 0.98142 0.60174 0.95787 0.0
C288 C 0.01031 0.61408 0.73561 0.0
C289 C 0.03531 0.58635 0.75928 0.0
H290 H 0.96166 0.60842 0.03983 0.0
H291 H 0.01471 0.63103 0.64325 0.0
H292 H 0.92034 0.67612 0.1071 0.0
H293 H 0.02585 0.67774 0.27811 0.0
H294 H 0.89917 0.64938 0.32309 0.0
H295 H 0.00647 0.56097 0.09209 0.0
H296 H 0.05652 0.58173 0.68012 0.0
C297 C 0.8229 0.00578 0.55507 0.0
C298 C 0.82443 0.00335 0.70356 0.0
N299 N 0.82676 0.9679 0.73876 0.0
N300 N 0.82463 0.97202 0.49806 0.0
C301 C 0.82568 0.94949 0.61358 0.0
H302 H 0.82428 0.03061 0.49262 0.0
Co303 Co 0.83647 0.9608 0.30595 0.0
C304 C 0.88565 0.89845 0.38735 0.0
O305 O 0.91343 0.91244 0.31757 0.0
N306 N 0.84667 0.9496 0.11221 0.0
C307 C 0.85087 0.92041 0.90181 0.0
C308 C 0.85634 0.91789 0.04894 0.0
C309 C 0.83496 0.97063 1.00157 0.0
N310 N 0.83729 0.95365 0.87386 0.0
O311 O 0.78752 0.9428 0.27073 0.0
H312 H 0.86421 0.89351 0.10562 0.0
H313 H 0.82312 0.99732 1.01485 0.0
O314 O 0.85404 0.91275 0.37478 0.0
C315 C 0.77112 0.97173 0.23016 0.0
O316 O 0.78814 0.0029 0.24615 0.0
N317 N 0.88292 0.98356 0.33319 0.0
C318 C 0.93786 0.03464 0.38864 0.0
C319 C 0.93035 0.00694 0.4881 0.0
C320 C 0.90296 0.98143 0.45787 0.0
C321 C 0.89064 0.01032 0.23564 0.0
C322 C 0.91836 0.03532 0.25931 0.0
H323 H 0.89628 0.96166 0.53983 0.0
H324 H 0.87369 0.01472 0.14329 0.0
H325 H 0.82859 0.92034 0.60714 0.0
H326 H 0.82696 0.02586 0.77814 0.0
H327 H 0.85533 0.89918 0.82311 0.0
H328 H 0.94373 0.00646 0.59209 0.0
H329 H 0.92299 0.05653 0.18015 0.0
C330 C 0.49893 0.82292 0.05515 0.0
C331 C 0.50135 0.82445 0.20364 0.0
N332 N 0.53681 0.82677 0.2388 0.0
N333 N 0.53269 0.82465 0.9981 0.0
C334 C 0.55521 0.82569 0.11359 0.0
H335 H 0.4741 0.8243 0.99273 0.0
Co336 Co 0.54391 0.83648 0.80598 0.0
C337 C 0.60626 0.88566 0.88736 0.0
O338 O 0.59228 0.91344 0.81762 0.0
N339 N 0.55511 0.84668 0.61222 0.0
C340 C 0.5843 0.85089 0.40179 0.0
C341 C 0.58682 0.85635 0.54892 0.0
C342 C 0.53409 0.83496 0.50162 0.0
N343 N 0.55107 0.8373 0.37388 0.0
O344 O 0.56191 0.78753 0.77075 0.0
H345 H 0.61119 0.86423 0.60557 0.0
H346 H 0.5074 0.82311 0.51493 0.0
O347 O 0.59196 0.85405 0.87477 0.0
C348 C 0.53298 0.77112 0.73023 0.0
O349 O 0.50181 0.78815 0.74626 0.0
N350 N 0.52116 0.88293 0.83321 0.0
C351 C 0.47007 0.93787 0.88866 0.0
C352 C 0.49776 0.93036 0.98812 0.0
C353 C 0.52328 0.90297 0.9579 0.0
C354 C 0.4944 0.89065 0.73567 0.0
C355 C 0.4694 0.91837 0.75934 0.0
H356 H 0.54304 0.89629 0.03985 0.0
H357 H 0.49 0.8737 0.64332 0.0
H358 H 0.58437 0.8286 0.10713 0.0
H359 H 0.47885 0.82698 0.27824 0.0
H360 H 0.60553 0.85535 0.32306 0.0
H361 H 0.49823 0.94374 0.09212 0.0
H362 H 0.44819 0.923 0.68018 0.0
C363 C 0.68178 0.49893 0.55511 0.0
C364 C 0.68026 0.50136 0.7036 0.0
N365 N 0.67794 0.53681 0.73876 0.0
N366 N 0.68005 0.53269 0.49806 0.0
C367 C 0.67902 0.55522 0.61355 0.0
H368 H 0.68039 0.4741 0.49269 0.0
Co369 Co 0.66823 0.54391 0.30595 0.0
C370 C 0.61905 0.60627 0.38736 0.0
O371 O 0.59127 0.59229 0.31764 0.0
N372 N 0.65804 0.55512 0.11221 0.0
C373 C 0.65382 0.5843 0.90178 0.0
C374 C 0.64836 0.58683 0.04891 0.0
C375 C 0.66976 0.53409 1.00159 0.0
N376 N 0.66742 0.55107 0.87386 0.0
O377 O 0.71718 0.56191 0.27072 0.0
H378 H 0.64047 0.6112 0.10556 0.0
H379 H 0.68161 0.50741 1.01489 0.0
O380 O 0.65066 0.59196 0.37475 0.0
C381 C 0.73359 0.53298 0.2302 0.0
O382 O 0.71656 0.50181 0.24622 0.0
N383 N 0.62178 0.52116 0.3332 0.0
C384 C 0.56684 0.47007 0.38864 0.0
C385 C 0.57435 0.49775 0.48811 0.0
C386 C 0.60173 0.52328 0.45789 0.0
C387 C 0.61407 0.49441 0.23564 0.0
C388 C 0.58634 0.4694 0.25931 0.0
H389 H 0.60841 0.54304 0.53985 0.0
H390 H 0.63102 0.49001 0.14329 0.0
H391 H 0.67611 0.58437 0.60709 0.0
H392 H 0.67773 0.47885 0.77821 0.0
H393 H 0.64935 0.60553 0.82304 0.0
H394 H 0.56096 0.49822 0.59212 0.0
H395 H 0.58171 0.4482 0.18015 0.0
C396 C 0.01566 0.82646 0.34761 0.0
C397 C 0.01303 0.82836 0.19917 0.0
N398 N 0.97751 0.82996 0.16512 0.0
N399 N 0.98196 0.82754 0.40599 0.0
C400 C 0.95936 0.8283 0.29086 0.0
H401 H 0.04071 0.82656 0.40851 0.0
Co402 Co 0.96914 0.83663 0.59933 0.0
C403 C 0.89199 0.86899 0.49408 0.0
O404 O 0.86437 0.85098 0.54851 0.0
N405 N 0.95682 0.84512 0.79054 0.0
C406 C 0.92681 0.84286 0.99853 0.0
C407 C 0.92353 0.84706 0.8514 0.0
C408 C 0.97993 0.83987 0.90199 0.0
N409 N 0.96229 0.83807 0.029 0.0
O410 O 0.94697 0.78886 0.61805 0.0
H411 H 0.89826 0.84822 0.79269 0.0
H412 H 0.00868 0.83467 0.88896 0.0
O413 O 0.92456 0.85963 0.52578 0.0
C414 C 0.97358 0.77086 0.67141 0.0
O415 O 0.00585 0.78616 0.67107 0.0
N416 N 0.99468 0.88073 0.59414 0.0
C417 C 0.04197 0.93947 0.62912 0.0
C418 C 0.00588 0.94511 0.5854 0.0
C419 C 0.98227 0.91525 0.57043 0.0
C420 C 0.02996 0.87499 0.63272 0.0
C421 C 0.054 0.90378 0.65026 0.0
H422 H 0.95411 0.92011 0.54506 0.0
H423 H 0.03937 0.84769 0.65389 0.0
H424 H 0.93013 0.82928 0.29818 0.0
H425 H 0.0354 0.83038 0.12371 0.0
H426 H 0.90469 0.84139 0.07519 0.0
H427 H 0.99584 0.97234 0.56933 0.0
H428 H 0.08173 0.89815 0.68303 0.0
C429 C 0.67826 0.01565 0.84761 0.0
C430 C 0.67636 0.01302 0.69917 0.0
N431 N 0.67475 0.9775 0.66512 0.0
N432 N 0.67718 0.98195 0.90599 0.0
C433 C 0.67642 0.95936 0.79085 0.0
H434 H 0.67817 0.0407 0.90851 0.0
Co435 Co 0.66809 0.96914 0.09934 0.0
C436 C 0.63572 0.89198 0.9941 0.0
O437 O 0.65371 0.86435 0.04853 0.0
N438 N 0.65959 0.95682 0.29056 0.0
C439 C 0.66187 0.9268 0.49853 0.0
C440 C 0.65766 0.92352 0.35141 0.0
C441 C 0.66484 0.97993 0.402 0.0
N442 N 0.66665 0.96228 0.52901 0.0
O443 O 0.71586 0.94697 0.11805 0.0
H444 H 0.65652 0.89825 0.2927 0.0
H445 H 0.67003 0.00867 0.38897 0.0
O446 O 0.6451 0.92454 1.02581 0.0
C447 C 0.73386 0.97358 0.17142 0.0
O448 O 0.71855 0.00585 0.17107 0.0
N449 N 0.62398 0.99467 0.09416 0.0
C450 C 0.56524 0.04196 0.1291 0.0
C451 C 0.55961 0.00587 0.0854 0.0
C452 C 0.58947 0.98226 0.07045 0.0
C453 C 0.62972 0.02995 0.13271 0.0
C454 C 0.60093 0.05399 0.15023 0.0
H455 H 0.58461 0.9541 0.04511 0.0
H456 H 0.65702 0.03936 0.15388 0.0
H457 H 0.67543 0.93012 0.79818 0.0
H458 H 0.67434 0.03539 0.62372 0.0
H459 H 0.66335 0.90468 0.57518 0.0
H460 H 0.53238 0.99582 0.06933 0.0
H461 H 0.60656 0.08172 0.18299 0.0
C462 C 0.48906 0.67828 0.34771 0.0
C463 C 0.49169 0.67638 0.19927 0.0
N464 N 0.52721 0.67476 0.16518 0.0
N465 N 0.52276 0.67719 0.40605 0.0
C466 C 0.54535 0.67642 0.2909 0.0
H467 H 0.46401 0.67819 0.40864 0.0
Co468 Co 0.53557 0.6681 0.59939 0.0
C469 C 0.61273 0.63573 0.49409 0.0
O470 O 0.64035 0.65372 0.54849 0.0
N471 N 0.54789 0.65959 0.7906 0.0
C472 C 0.5779 0.66187 0.99854 0.0
C473 C 0.58118 0.65766 0.85141 0.0
C474 C 0.52478 0.66484 0.90207 0.0
N475 N 0.54242 0.66665 0.02906 0.0
O476 O 0.55773 0.71587 0.6181 0.0
H477 H 0.60645 0.65651 0.79268 0.0
H478 H 0.49603 0.67004 0.88907 0.0
O479 O 0.58016 0.64511 0.52583 0.0
C480 C 0.53113 0.73387 0.6715 0.0
O481 O 0.49886 0.71856 0.67118 0.0
N482 N 0.51004 0.62399 0.59422 0.0
C483 C 0.46275 0.56524 0.62913 0.0
C484 C 0.49884 0.55961 0.58541 0.0
C485 C 0.52245 0.58948 0.57048 0.0
C486 C 0.47476 0.62972 0.6328 0.0
C487 C 0.45071 0.60093 0.6503 0.0
H488 H 0.55061 0.58461 0.54511 0.0
H489 H 0.46534 0.65702 0.654 0.0
H490 H 0.57459 0.67543 0.29819 0.0
H491 H 0.46932 0.67436 0.12384 0.0
H492 H 0.60002 0.66335 0.07517 0.0
H493 H 0.50888 0.53238 0.5693 0.0
H494 H 0.42298 0.60656 0.68308 0.0
C495 C 0.82645 0.48905 0.84771 0.0
C496 C 0.82834 0.49168 0.69928 0.0
N497 N 0.82996 0.5272 0.66518 0.0
N498 N 0.82753 0.52275 0.90606 0.0
C499 C 0.82829 0.54534 0.7909 0.0
H500 H 0.82654 0.464 0.90864 0.0
Co501 Co 0.83662 0.53556 0.09939 0.0
C502 C 0.86898 0.61272 0.99407 0.0
O503 O 0.85097 0.64033 0.04846 0.0
N504 N 0.84512 0.54788 0.29058 0.0
C505 C 0.84286 0.5779 0.49854 0.0
C506 C 0.84706 0.58118 0.3514 0.0
C507 C 0.83986 0.52477 0.40206 0.0
N508 N 0.83806 0.54242 0.52905 0.0
O509 O 0.78885 0.55773 0.1181 0.0
H510 H 0.84822 0.60645 0.29267 0.0
H511 H 0.83466 0.49603 0.38906 0.0
O512 O 0.85962 0.58015 1.02579 0.0
C513 C 0.77085 0.53113 0.17149 0.0
O514 O 0.78615 0.49886 0.17118 0.0
N515 N 0.88073 0.51003 0.0942 0.0
C516 C 0.93947 0.46274 0.12915 0.0
C517 C 0.9451 0.49882 0.0854 0.0
C518 C 0.91524 0.52243 0.07045 0.0
C519 C 0.87499 0.47475 0.1328 0.0
C520 C 0.90378 0.4507 0.15033 0.0
H521 H 0.9201 0.55059 0.04506 0.0
H522 H 0.84769 0.46533 0.15401 0.0
H523 H 0.82928 0.57458 0.79819 0.0
H524 H 0.83036 0.46931 0.62384 0.0
H525 H 0.84139 0.60001 0.57517 0.0
H526 H 0.97233 0.50887 0.06929 0.0
H527 H 0.89815 0.42297 0.18312 0.0
loop_
_geom_bond_atom_site_label_1
_geom_bond_atom_site_label_2
_geom_bond_distance
_geom_bond_site_symmetry_2
_ccdc_geom_bond_type
C0 C1 1.351 . S
C0 N3 1.368 . S
C0 H5 0.931 1_455 S
C1 C0 1.351 . S
C1 N2 1.373 . S
C1 H29 0.930 1_455 S
N2 C1 1.373 . S
N2 C4 1.340 . S
N3 C0 1.368 . S
N3 C4 1.321 . S
N3 Co6 2.135 1_556 S
C4 N2 1.340 . S
C4 N3 1.321 . S
C4 H28 0.930 . S
H5 C0 0.931 1_655 S
Co6 N3 2.135 1_554 S
Co6 N9 2.121 . S
Co6 O14 2.055 . S
Co6 O17 2.039 . S
Co6 N20 2.140 1_455 S
C7 O8 1.227 . S
C7 O17 1.265 . S
O8 C7 1.227 . S
N9 Co6 2.121 . S
N9 C11 1.375 . S
N9 C12 1.313 . S
C10 C11 1.338 . S
C10 N13 1.377 . S
C10 H30 0.930 . S
C11 N9 1.375 . S
C11 C10 1.338 . S
C11 H15 0.931 . S
C12 N9 1.313 . S
C12 N13 1.344 . S
C12 H16 0.930 . S
N13 C10 1.377 . S
N13 C12 1.344 . S
O14 Co6 2.055 . S
O14 C18 1.253 . S
H15 C11 0.931 . S
H16 C12 0.930 . S
O17 Co6 2.039 . S
O17 C7 1.265 . S
C18 O14 1.253 . S
C18 O19 1.227 1_455 S
O19 C18 1.227 1_655 S
N20 Co6 2.140 1_655 S
N20 C23 1.346 . S
N20 C24 1.345 . S
C21 C22 1.393 . S
C21 C25 1.391 . S
C22 C21 1.393 . S
C22 C23 1.370 . S
C22 H31 0.923 1_554 S
C23 N20 1.346 . S
C23 C22 1.370 . S
C23 H26 0.928 1_654 S
C24 N20 1.345 . S
C24 C25 1.371 . S
C24 H27 0.931 . S
C25 C21 1.391 . S
C25 C24 1.371 . S
C25 H32 0.930 . S
H26 C23 0.928 1_456 S
H27 C24 0.931 . S
H28 C4 0.930 . S
H29 C1 0.930 1_655 S
H30 C10 0.930 . S
H31 C22 0.923 1_556 S
H32 C25 0.930 . S
C33 C34 1.351 . S
C33 N36 1.368 . S
C33 H38 0.931 1_545 S
C34 C33 1.351 . S
C34 N35 1.373 . S
C34 H62 0.930 1_545 S
N35 C34 1.373 . S
N35 C37 1.340 . S
N36 C33 1.368 . S
N36 C37 1.321 . S
N36 Co39 2.135 . S
C37 N35 1.340 . S
C37 N36 1.321 . S
C37 H61 0.930 . S
H38 C33 0.931 1_565 S
Co39 N36 2.135 . S
Co39 N42 2.121 . S
Co39 O47 2.055 . S
Co39 O50 2.039 . S
Co39 N53 2.140 1_545 S
C40 O41 1.227 . S
C40 O50 1.265 . S
O41 C40 1.227 . S
N42 Co39 2.121 . S
N42 C44 1.375 . S
N42 C45 1.313 . S
C43 C44 1.338 1_554 S
C43 N46 1.377 . S
C43 H63 0.930 . S
C44 N42 1.375 . S
C44 C43 1.338 1_556 S
C44 H48 0.931 . S
C45 N42 1.313 . S
C45 N46 1.344 1_556 S
C45 H49 0.930 . S
N46 C43 1.377 . S
N46 C45 1.344 1_554 S
O47 Co39 2.055 . S
O47 C51 1.253 . S
H48 C44 0.931 . S
H49 C45 0.930 . S
O50 Co39 2.039 . S
O50 C40 1.265 . S
C51 O47 1.253 . S
C51 O52 1.227 1_545 S
O52 C51 1.227 1_565 S
N53 Co39 2.140 1_565 S
N53 C56 1.346 . S
N53 C57 1.345 . S
C54 C55 1.387 . S
C54 C58 1.391 . S
C55 C54 1.387 . S
C55 C56 1.369 . S
C55 H64 0.929 . S
C56 N53 1.346 . S
C56 C55 1.369 . S
C56 H59 0.928 1_565 S
C57 N53 1.345 . S
C57 C58 1.371 . S
C57 H60 0.931 . S
C58 C54 1.391 . S
C58 C57 1.371 . S
C58 H65 0.930 . S
H59 C56 0.928 1_545 S
H60 C57 0.931 . S
H61 C37 0.930 . S
H62 C34 0.930 1_565 S
H63 C43 0.930 . S
H64 C55 0.929 . S
H65 C58 0.930 . S
C66 C67 1.351 . S
C66 N69 1.368 . S
C66 H71 0.931 . S
C67 C66 1.351 . S
C67 N68 1.373 . S
C67 H95 0.930 . S
N68 C67 1.373 . S
N68 C70 1.340 . S
N69 C66 1.368 . S
N69 C70 1.321 . S
N69 Co72 2.135 1_556 S
C70 N68 1.340 . S
C70 N69 1.321 . S
C70 H94 0.930 . S
H71 C66 0.931 . S
Co72 N69 2.135 1_554 S
Co72 N75 2.121 . S
Co72 O80 2.055 . S
Co72 O83 2.039 . S
Co72 N86 2.140 . S
C73 O74 1.227 . S
C73 O83 1.265 . S
O74 C73 1.227 . S
N75 Co72 2.121 . S
N75 C77 1.375 . S
N75 C78 1.313 . S
C76 C77 1.338 . S
C76 N79 1.377 . S
C76 H96 0.930 . S
C77 N75 1.375 . S
C77 C76 1.338 . S
C77 H81 0.931 . S
C78 N75 1.313 . S
C78 N79 1.344 . S
C78 H82 0.930 . S
N79 C76 1.377 . S
N79 C78 1.344 . S
O80 Co72 2.055 . S
O80 C84 1.253 . S
H81 C77 0.931 . S
H82 C78 0.930 . S
O83 Co72 2.039 . S
O83 C73 1.265 . S
C84 O80 1.253 . S
C84 O85 1.227 . S
O85 C84 1.227 . S
N86 Co72 2.140 . S
N86 C89 1.346 . S
N86 C90 1.345 . S
C87 C88 1.393 . S
C87 C91 1.391 . S
C88 C87 1.393 . S
C88 C89 1.370 . S
C88 H97 0.923 1_554 S
C89 N86 1.346 . S
C89 C88 1.370 . S
C89 H92 0.928 1_554 S
C90 N86 1.345 . S
C90 C91 1.371 . S
C90 H93 0.931 . S
C91 C87 1.391 . S
C91 C90 1.371 . S
C91 H98 0.930 . S
H92 C89 0.928 1_556 S
H93 C90 0.931 . S
H94 C70 0.930 . S
H95 C67 0.930 . S
H96 C76 0.930 . S
H97 C88 0.923 1_556 S
H98 C91 0.930 . S
C99 C100 1.351 . S
C99 N102 1.368 . S
C99 H104 0.931 . S
C100 C99 1.351 . S
C100 N101 1.373 . S
C100 H128 0.930 . S
N101 C100 1.373 . S
N101 C103 1.340 . S
N102 C99 1.368 . S
N102 C103 1.321 . S
N102 Co105 2.135 . S
C103 N101 1.340 . S
C103 N102 1.321 . S
C103 H127 0.930 . S
H104 C99 0.931 . S
Co105 N102 2.135 . S
Co105 N108 2.121 . S
Co105 O113 2.055 . S
Co105 O116 2.039 . S
Co105 N119 2.140 . S
C106 O107 1.227 . S
C106 O116 1.265 . S
O107 C106 1.227 . S
N108 Co105 2.121 . S
N108 C110 1.375 . S
N108 C111 1.313 . S
C109 C110 1.338 1_554 S
C109 N112 1.377 . S
C109 H129 0.930 . S
C110 N108 1.375 . S
C110 C109 1.338 1_556 S
C110 H114 0.931 . S
C111 N108 1.313 . S
C111 N112 1.344 1_556 S
C111 H115 0.930 . S
N112 C109 1.377 . S
N112 C111 1.344 1_554 S
O113 Co105 2.055 . S
O113 C117 1.253 . S
H114 C110 0.931 . S
H115 C111 0.930 . S
O116 Co105 2.039 . S
O116 C106 1.265 . S
C117 O113 1.253 . S
C117 O118 1.227 . S
O118 C117 1.227 . S
N119 Co105 2.140 . S
N119 C122 1.346 . S
N119 C123 1.345 . S
C120 C121 1.387 . S
C120 C124 1.391 . S
C121 C120 1.387 . S
C121 C122 1.369 . S
C121 H130 0.929 . S
C122 N119 1.346 . S
C122 C121 1.369 . S
C122 H125 0.928 . S
C123 N119 1.345 . S
C123 C124 1.371 . S
C123 H126 0.931 . S
C124 C120 1.391 . S
C124 C123 1.371 . S
C124 H131 0.930 . S
H125 C122 0.928 . S
H126 C123 0.931 . S
H127 C103 0.930 . S
H128 C100 0.930 . S
H129 C109 0.930 . S
H130 C121 0.929 . S
H131 C124 0.930 . S
C132 C133 1.351 . S
C132 N135 1.368 . S
C132 H137 0.931 1_455 S
C133 C132 1.351 . S
C133 N134 1.373 . S
C133 H161 0.930 1_455 S
N134 C133 1.373 . S
N134 C136 1.340 . S
N135 C132 1.368 . S
N135 C136 1.321 . S
N135 Co138 2.135 . S
C136 N134 1.340 . S
C136 N135 1.321 . S
C136 H160 0.930 . S
H137 C132 0.931 1_655 S
Co138 N135 2.135 . S
Co138 N141 2.121 . S
Co138 O146 2.055 . S
Co138 O149 2.039 . S
Co138 N152 2.140 1_455 S
C139 O140 1.227 . S
C139 O149 1.265 . S
O140 C139 1.227 . S
N141 Co138 2.121 . S
N141 C143 1.375 . S
N141 C144 1.313 . S
C142 C143 1.338 1_556 S
C142 N145 1.377 . S
C142 H162 0.930 . S
C143 N141 1.375 . S
C143 C142 1.338 1_554 S
C143 H147 0.931 . S
C144 N141 1.313 . S
C144 N145 1.344 1_554 S
C144 H148 0.930 . S
N145 C142 1.377 . S
N145 C144 1.344 1_556 S
O146 Co138 2.055 . S
O146 C150 1.253 . S
H147 C143 0.931 . S
H148 C144 0.930 . S
O149 Co138 2.039 . S
O149 C139 1.265 . S
C150 O146 1.253 . S
C150 O151 1.227 1_455 S
O151 C150 1.227 1_655 S
N152 Co138 2.140 1_655 S
N152 C155 1.346 . S
N152 C156 1.345 . S
C153 C154 1.387 . S
C153 C157 1.391 . S
C154 C153 1.387 . S
C154 C155 1.369 . S
C154 H163 0.929 . S
C155 N152 1.346 . S
C155 C154 1.369 . S
C155 H158 0.928 1_655 S
C156 N152 1.345 . S
C156 C157 1.371 . S
C156 H159 0.931 . S
C157 C153 1.391 . S
C157 C156 1.371 . S
C157 H164 0.930 . S
H158 C155 0.928 1_455 S
H159 C156 0.931 . S
H160 C136 0.930 . S
H161 C133 0.930 1_655 S
H162 C142 0.930 . S
H163 C154 0.929 . S
H164 C157 0.930 . S
C165 C166 1.351 . S
C165 N168 1.368 . S
C165 H170 0.931 1_545 S
C166 C165 1.351 . S
C166 N167 1.373 . S
C166 H194 0.930 1_545 S
N167 C166 1.373 . S
N167 C169 1.340 . S
N168 C165 1.368 . S
N168 C169 1.321 . S
N168 Co171 2.135 1_554 S
C169 N167 1.340 . S
C169 N168 1.321 . S
C169 H193 0.930 . S
H170 C165 0.931 1_565 S
Co171 N168 2.135 1_556 S
Co171 N174 2.121 . S
Co171 O179 2.055 . S
Co171 O182 2.039 . S
Co171 N185 2.140 1_545 S
C172 O173 1.227 . S
C172 O182 1.265 . S
O173 C172 1.227 . S
N174 Co171 2.121 . S
N174 C176 1.375 . S
N174 C177 1.313 . S
C175 C176 1.338 . S
C175 N178 1.377 . S
C175 H195 0.930 . S
C176 N174 1.375 . S
C176 C175 1.338 . S
C176 H180 0.931 . S
C177 N174 1.313 . S
C177 N178 1.344 . S
C177 H181 0.930 . S
N178 C175 1.377 . S
N178 C177 1.344 . S
O179 Co171 2.055 . S
O179 C183 1.253 . S
H180 C176 0.931 . S
H181 C177 0.930 . S
O182 Co171 2.039 . S
O182 C172 1.265 . S
C183 O179 1.253 . S
C183 O184 1.227 1_545 S
O184 C183 1.227 1_565 S
N185 Co171 2.140 1_565 S
N185 C188 1.346 . S
N185 C189 1.345 . S
C186 C187 1.393 . S
C186 C190 1.391 . S
C187 C186 1.393 . S
C187 C188 1.370 . S
C187 H196 0.923 1_556 S
C188 N185 1.346 . S
C188 C187 1.370 . S
C188 H191 0.928 1_566 S
C189 N185 1.345 . S
C189 C190 1.371 . S
C189 H192 0.931 . S
C190 C186 1.391 . S
C190 C189 1.371 . S
C190 H197 0.930 . S
H191 C188 0.928 1_544 S
H192 C189 0.931 . S
H193 C169 0.930 . S
H194 C166 0.930 1_565 S
H195 C175 0.930 . S
H196 C187 0.923 1_554 S
H197 C190 0.930 . S
C198 C199 1.351 . S
C198 N201 1.368 . S
C198 H203 0.931 . S
C199 C198 1.351 . S
C199 N200 1.373 . S
C199 H227 0.930 . S
N200 C199 1.373 . S
N200 C202 1.340 . S
N201 C198 1.368 . S
N201 C202 1.321 . S
N201 Co204 2.135 . S
C202 N200 1.340 . S
C202 N201 1.321 . S
C202 H226 0.930 . S
H203 C198 0.931 . S
Co204 N201 2.135 . S
Co204 N207 2.121 . S
Co204 O212 2.055 . S
Co204 O215 2.039 . S
Co204 N218 2.140 . S
C205 O206 1.227 . S
C205 O215 1.265 . S
O206 C205 1.227 . S
N207 Co204 2.121 . S
N207 C209 1.375 . S
N207 C210 1.313 . S
C208 C209 1.338 1_556 S
C208 N211 1.377 . S
C208 H228 0.930 . S
C209 N207 1.375 . S
C209 C208 1.338 1_554 S
C209 H213 0.931 . S
C210 N207 1.313 . S
C210 N211 1.344 1_554 S
C210 H214 0.930 . S
N211 C208 1.377 . S
N211 C210 1.344 1_556 S
O212 Co204 2.055 . S
O212 C216 1.253 . S
H213 C209 0.931 . S
H214 C210 0.930 . S
O215 Co204 2.039 . S
O215 C205 1.265 . S
C216 O212 1.253 . S
C216 O217 1.227 . S
O217 C216 1.227 . S
N218 Co204 2.140 . S
N218 C221 1.346 . S
N218 C222 1.345 . S
C219 C220 1.387 . S
C219 C223 1.391 . S
C220 C219 1.387 . S
C220 C221 1.369 . S
C220 H229 0.929 . S
C221 N218 1.346 . S
C221 C220 1.369 . S
C221 H224 0.928 . S
C222 N218 1.345 . S
C222 C223 1.371 . S
C222 H225 0.931 . S
C223 C219 1.391 . S
C223 C222 1.371 . S
C223 H230 0.930 . S
H224 C221 0.928 . S
H225 C222 0.931 . S
H226 C202 0.930 . S
H227 C199 0.930 . S
H228 C208 0.930 . S
H229 C220 0.929 . S
H230 C223 0.930 . S
C231 C232 1.351 . S
C231 N234 1.368 . S
C231 H236 0.931 . S
C232 C231 1.351 . S
C232 N233 1.373 . S
C232 H260 0.930 . S
N233 C232 1.373 . S
N233 C235 1.340 . S
N234 C231 1.368 . S
N234 C235 1.321 . S
N234 Co237 2.135 1_554 S
C235 N233 1.340 . S
C235 N234 1.321 . S
C235 H259 0.930 . S
H236 C231 0.931 . S
Co237 N234 2.135 1_556 S
Co237 N240 2.121 . S
Co237 O245 2.055 . S
Co237 O248 2.039 . S
Co237 N251 2.140 . S
C238 O239 1.227 . S
C238 O248 1.265 . S
O239 C238 1.227 . S
N240 Co237 2.121 . S
N240 C242 1.375 . S
N240 C243 1.313 . S
C241 C242 1.338 . S
C241 N244 1.377 . S
C241 H261 0.930 . S
C242 N240 1.375 . S
C242 C241 1.338 . S
C242 H246 0.931 . S
C243 N240 1.313 . S
C243 N244 1.344 . S
C243 H247 0.930 . S
N244 C241 1.377 . S
N244 C243 1.344 . S
O245 Co237 2.055 . S
O245 C249 1.253 . S
H246 C242 0.931 . S
H247 C243 0.930 . S
O248 Co237 2.039 . S
O248 C238 1.265 . S
C249 O245 1.253 . S
C249 O250 1.227 . S
O250 C249 1.227 . S
N251 Co237 2.140 . S
N251 C254 1.346 . S
N251 C255 1.345 . S
C252 C253 1.393 . S
C252 C256 1.391 . S
C253 C252 1.393 . S
C253 C254 1.370 . S
C253 H262 0.923 1_556 S
C254 N251 1.346 . S
C254 C253 1.370 . S
C254 H257 0.928 1_556 S
C255 N251 1.345 . S
C255 C256 1.371 . S
C255 H258 0.931 . S
C256 C252 1.391 . S
C256 C255 1.371 . S
C256 H263 0.930 . S
H257 C254 0.928 1_554 S
H258 C255 0.931 . S
H259 C235 0.930 . S
H260 C232 0.930 . S
H261 C241 0.930 . S
H262 C253 0.923 1_554 S
H263 C256 0.930 . S
C264 C265 1.351 . S
C264 N267 1.368 . S
C264 H269 0.931 1_655 S
C265 C264 1.351 . S
C265 N266 1.373 . S
C265 H293 0.930 1_655 S
N266 C265 1.373 . S
N266 C268 1.340 . S
N267 C264 1.368 . S
N267 C268 1.321 . S
N267 Co270 2.135 1_554 S
C268 N266 1.340 . S
C268 N267 1.321 . S
C268 H292 0.930 . S
H269 C264 0.931 1_455 S
Co270 N267 2.135 1_556 S
Co270 N273 2.121 . S
Co270 O278 2.055 . S
Co270 O281 2.039 . S
Co270 N284 2.140 1_655 S
C271 O272 1.227 . S
C271 O281 1.265 . S
O272 C271 1.227 . S
N273 Co270 2.121 . S
N273 C275 1.375 . S
N273 C276 1.313 . S
C274 C275 1.338 . S
C274 N277 1.377 . S
C274 H294 0.930 . S
C275 N273 1.375 . S
C275 C274 1.338 . S
C275 H279 0.931 . S
C276 N273 1.313 . S
C276 N277 1.344 . S
C276 H280 0.930 . S
N277 C274 1.377 . S
N277 C276 1.344 . S
O278 Co270 2.055 . S
O278 C282 1.253 . S
H279 C275 0.931 . S
H280 C276 0.930 . S
O281 Co270 2.039 . S
O281 C271 1.265 . S
C282 O278 1.253 . S
C282 O283 1.227 1_655 S
O283 C282 1.227 1_455 S
N284 Co270 2.140 1_455 S
N284 C287 1.346 . S
N284 C288 1.345 . S
C285 C286 1.393 . S
C285 C289 1.391 . S
C286 C285 1.393 . S
C286 C287 1.370 . S
C286 H295 0.923 1_556 S
C287 N284 1.346 . S
C287 C286 1.370 . S
C287 H290 0.928 1_456 S
C288 N284 1.345 . S
C288 C289 1.371 . S
C288 H291 0.931 . S
C289 C285 1.391 . S
C289 C288 1.371 . S
C289 H296 0.930 . S
H290 C287 0.928 1_654 S
H291 C288 0.931 . S
H292 C268 0.930 . S
H293 C265 0.930 1_455 S
H294 C274 0.930 . S
H295 C286 0.923 1_554 S
H296 C289 0.930 . S
C297 C298 1.351 . S
C297 N300 1.368 . S
C297 H302 0.931 1_565 S
C298 C297 1.351 . S
C298 N299 1.373 . S
C298 H326 0.930 1_565 S
N299 C298 1.373 . S
N299 C301 1.340 . S
N300 C297 1.368 . S
N300 C301 1.321 . S
N300 Co303 2.135 . S
C301 N299 1.340 . S
C301 N300 1.321 . S
C301 H325 0.930 . S
H302 C297 0.931 1_545 S
Co303 N300 2.135 . S
Co303 N306 2.121 . S
Co303 O311 2.055 . S
Co303 O314 2.039 . S
Co303 N317 2.140 1_565 S
C304 O305 1.227 . S
C304 O314 1.265 . S
O305 C304 1.227 . S
N306 Co303 2.121 . S
N306 C308 1.375 . S
N306 C309 1.313 . S
C307 C308 1.338 1_556 S
C307 N310 1.377 . S
C307 H327 0.930 . S
C308 N306 1.375 . S
C308 C307 1.338 1_554 S
C308 H312 0.931 . S
C309 N306 1.313 . S
C309 N310 1.344 1_554 S
C309 H313 0.930 . S
N310 C307 1.377 . S
N310 C309 1.344 1_556 S
O311 Co303 2.055 . S
O311 C315 1.253 . S
H312 C308 0.931 . S
H313 C309 0.930 . S
O314 Co303 2.039 . S
O314 C304 1.265 . S
C315 O311 1.253 . S
C315 O316 1.227 1_565 S
O316 C315 1.227 1_545 S
N317 Co303 2.140 1_545 S
N317 C320 1.346 . S
N317 C321 1.345 . S
C318 C319 1.387 . S
C318 C322 1.391 . S
C319 C318 1.387 . S
C319 C320 1.369 . S
C319 H328 0.929 . S
C320 N317 1.346 . S
C320 C319 1.369 . S
C320 H323 0.928 1_545 S
C321 N317 1.345 . S
C321 C322 1.371 . S
C321 H324 0.931 . S
C322 C318 1.391 . S
C322 C321 1.371 . S
C322 H329 0.930 . S
H323 C320 0.928 1_565 S
H324 C321 0.931 . S
H325 C301 0.930 . S
H326 C298 0.930 1_545 S
H327 C307 0.930 . S
H328 C319 0.929 . S
H329 C322 0.930 . S
C330 C331 1.351 . S
C330 N333 1.368 . S
C330 H335 0.931 . S
C331 C330 1.351 . S
C331 N332 1.373 . S
C331 H359 0.930 . S
N332 C331 1.373 . S
N332 C334 1.340 . S
N333 C330 1.368 . S
N333 C334 1.321 . S
N333 Co336 2.135 1_554 S
C334 N332 1.340 . S
C334 N333 1.321 . S
C334 H358 0.930 . S
H335 C330 0.931 . S
Co336 N333 2.135 1_556 S
Co336 N339 2.121 . S
Co336 O344 2.055 . S
Co336 O347 2.039 . S
Co336 N350 2.140 . S
C337 O338 1.227 . S
C337 O347 1.265 . S
O338 C337 1.227 . S
N339 Co336 2.121 . S
N339 C341 1.375 . S
N339 C342 1.313 . S
C340 C341 1.338 . S
C340 N343 1.377 . S
C340 H360 0.930 . S
C341 N339 1.375 . S
C341 C340 1.338 . S
C341 H345 0.931 . S
C342 N339 1.313 . S
C342 N343 1.344 . S
C342 H346 0.930 . S
N343 C340 1.377 . S
N343 C342 1.344 . S
O344 Co336 2.055 . S
O344 C348 1.253 . S
H345 C341 0.931 . S
H346 C342 0.930 . S
O347 Co336 2.039 . S
O347 C337 1.265 . S
C348 O344 1.253 . S
C348 O349 1.227 . S
O349 C348 1.227 . S
N350 Co336 2.140 . S
N350 C353 1.346 . S
N350 C354 1.345 . S
C351 C352 1.393 . S
C351 C355 1.391 . S
C352 C351 1.393 . S
C352 C353 1.370 . S
C352 H361 0.923 1_556 S
C353 N350 1.346 . S
C353 C352 1.370 . S
C353 H356 0.928 1_556 S
C354 N350 1.345 . S
C354 C355 1.371 . S
C354 H357 0.931 . S
C355 C351 1.391 . S
C355 C354 1.371 . S
C355 H362 0.930 . S
H356 C353 0.928 1_554 S
H357 C354 0.931 . S
H358 C334 0.930 . S
H359 C331 0.930 . S
H360 C340 0.930 . S
H361 C352 0.923 1_554 S
H362 C355 0.930 . S
C363 C364 1.351 . S
C363 N366 1.368 . S
C363 H368 0.931 . S
C364 C363 1.351 . S
C364 N365 1.373 . S
C364 H392 0.930 . S
N365 C364 1.373 . S
N365 C367 1.340 . S
N366 C363 1.368 . S
N366 C367 1.321 . S
N366 Co369 2.135 . S
C367 N365 1.340 . S
C367 N366 1.321 . S
C367 H391 0.930 . S
H368 C363 0.931 . S
Co369 N366 2.135 . S
Co369 N372 2.121 . S
Co369 O377 2.055 . S
Co369 O380 2.039 . S
Co369 N383 2.140 . S
C370 O371 1.227 . S
C370 O380 1.265 . S
O371 C370 1.227 . S
N372 Co369 2.121 . S
N372 C374 1.375 . S
N372 C375 1.313 . S
C373 C374 1.338 1_556 S
C373 N376 1.377 . S
C373 H393 0.930 . S
C374 N372 1.375 . S
C374 C373 1.338 1_554 S
C374 H378 0.931 . S
C375 N372 1.313 . S
C375 N376 1.344 1_554 S
C375 H379 0.930 . S
N376 C373 1.377 . S
N376 C375 1.344 1_556 S
O377 Co369 2.055 . S
O377 C381 1.253 . S
H378 C374 0.931 . S
H379 C375 0.930 . S
O380 Co369 2.039 . S
O380 C370 1.265 . S
C381 O377 1.253 . S
C381 O382 1.227 . S
O382 C381 1.227 . S
N383 Co369 2.140 . S
N383 C386 1.346 . S
N383 C387 1.345 . S
C384 C385 1.387 . S
C384 C388 1.391 . S
C385 C384 1.387 . S
C385 C386 1.369 . S
C385 H394 0.929 . S
C386 N383 1.346 . S
C386 C385 1.369 . S
C386 H389 0.928 . S
C387 N383 1.345 . S
C387 C388 1.371 . S
C387 H390 0.931 . S
C388 C384 1.391 . S
C388 C387 1.371 . S
C388 H395 0.930 . S
H389 C386 0.928 . S
H390 C387 0.931 . S
H391 C367 0.930 . S
H392 C364 0.930 . S
H393 C373 0.930 . S
H394 C385 0.929 . S
H395 C388 0.930 . S
C396 C397 1.351 . S
C396 N399 1.368 . S
C396 H401 0.931 1_655 S
C397 C396 1.351 . S
C397 N398 1.373 . S
C397 H425 0.930 1_655 S
N398 C397 1.373 . S
N398 C400 1.340 . S
N399 C396 1.368 . S
N399 C400 1.321 . S
N399 Co402 2.135 . S
C400 N398 1.340 . S
C400 N399 1.321 . S
C400 H424 0.930 . S
H401 C396 0.931 1_455 S
Co402 N399 2.135 . S
Co402 N405 2.121 . S
Co402 O410 2.055 . S
Co402 O413 2.039 . S
Co402 N416 2.140 1_655 S
C403 O404 1.227 . S
C403 O413 1.265 . S
O404 C403 1.227 . S
N405 Co402 2.121 . S
N405 C407 1.375 . S
N405 C408 1.313 . S
C406 C407 1.338 1_554 S
C406 N409 1.377 . S
C406 H426 0.930 . S
C407 N405 1.375 . S
C407 C406 1.338 1_556 S
C407 H411 0.931 . S
C408 N405 1.313 . S
C408 N409 1.344 1_556 S
C408 H412 0.930 . S
N409 C406 1.377 . S
N409 C408 1.344 1_554 S
O410 Co402 2.055 . S
O410 C414 1.253 . S
H411 C407 0.931 . S
H412 C408 0.930 . S
O413 Co402 2.039 . S
O413 C403 1.265 . S
C414 O410 1.253 . S
C414 O415 1.227 1_655 S
O415 C414 1.227 1_455 S
N416 Co402 2.140 1_455 S
N416 C419 1.346 . S
N416 C420 1.345 . S
C417 C418 1.387 . S
C417 C421 1.391 . S
C418 C417 1.387 . S
C418 C419 1.369 . S
C418 H427 0.929 . S
C419 N416 1.346 . S
C419 C418 1.369 . S
C419 H422 0.928 1_455 S
C420 N416 1.345 . S
C420 C421 1.371 . S
C420 H423 0.931 . S
C421 C417 1.391 . S
C421 C420 1.371 . S
C421 H428 0.930 . S
H422 C419 0.928 1_655 S
H423 C420 0.931 . S
H424 C400 0.930 . S
H425 C397 0.930 1_455 S
H426 C406 0.930 . S
H427 C418 0.929 . S
H428 C421 0.930 . S
C429 C430 1.351 . S
C429 N432 1.368 . S
C429 H434 0.931 1_565 S
C430 C429 1.351 . S
C430 N431 1.373 . S
C430 H458 0.930 1_565 S
N431 C430 1.373 . S
N431 C433 1.340 . S
N432 C429 1.368 . S
N432 C433 1.321 . S
N432 Co435 2.135 1_556 S
C433 N431 1.340 . S
C433 N432 1.321 . S
C433 H457 0.930 . S
H434 C429 0.931 1_545 S
Co435 N432 2.135 1_554 S
Co435 N438 2.121 . S
Co435 O443 2.055 . S
Co435 O446 2.039 . S
Co435 N449 2.140 1_565 S
C436 O437 1.227 . S
C436 O446 1.265 . S
O437 C436 1.227 . S
N438 Co435 2.121 . S
N438 C440 1.375 . S
N438 C441 1.313 . S
C439 C440 1.338 . S
C439 N442 1.377 . S
C439 H459 0.930 . S
C440 N438 1.375 . S
C440 C439 1.338 . S
C440 H444 0.931 . S
C441 N438 1.313 . S
C441 N442 1.344 . S
C441 H445 0.930 . S
N442 C439 1.377 . S
N442 C441 1.344 . S
O443 Co435 2.055 . S
O443 C447 1.253 . S
H444 C440 0.931 . S
H445 C441 0.930 . S
O446 Co435 2.039 . S
O446 C436 1.265 . S
C447 O443 1.253 . S
C447 O448 1.227 1_565 S
O448 C447 1.227 1_545 S
N449 Co435 2.140 1_545 S
N449 C452 1.346 . S
N449 C453 1.345 . S
C450 C451 1.393 . S
C450 C454 1.391 . S
C451 C450 1.393 . S
C451 C452 1.370 . S
C451 H460 0.923 1_554 S
C452 N449 1.346 . S
C452 C451 1.370 . S
C452 H455 0.928 1_544 S
C453 N449 1.345 . S
C453 C454 1.371 . S
C453 H456 0.931 . S
C454 C450 1.391 . S
C454 C453 1.371 . S
C454 H461 0.930 . S
H455 C452 0.928 1_566 S
H456 C453 0.931 . S
H457 C433 0.930 . S
H458 C430 0.930 1_545 S
H459 C439 0.930 . S
H460 C451 0.923 1_556 S
H461 C454 0.930 . S
C462 C463 1.351 . S
C462 N465 1.368 . S
C462 H467 0.931 . S
C463 C462 1.351 . S
C463 N464 1.373 . S
C463 H491 0.930 . S
N464 C463 1.373 . S
N464 C466 1.340 . S
N465 C462 1.368 . S
N465 C466 1.321 . S
N465 Co468 2.135 . S
C466 N464 1.340 . S
C466 N465 1.321 . S
C466 H490 0.930 . S
H467 C462 0.931 . S
Co468 N465 2.135 . S
Co468 N471 2.121 . S
Co468 O476 2.055 . S
Co468 O479 2.039 . S
Co468 N482 2.140 . S
C469 O470 1.227 . S
C469 O479 1.265 . S
O470 C469 1.227 . S
N471 Co468 2.121 . S
N471 C473 1.375 . S
N471 C474 1.313 . S
C472 C473 1.338 1_554 S
C472 N475 1.377 . S
C472 H492 0.930 . S
C473 N471 1.375 . S
C473 C472 1.338 1_556 S
C473 H477 0.931 . S
C474 N471 1.313 . S
C474 N475 1.344 1_556 S
C474 H478 0.930 . S
N475 C472 1.377 . S
N475 C474 1.344 1_554 S
O476 Co468 2.055 . S
O476 C480 1.253 . S
H477 C473 0.931 . S
H478 C474 0.930 . S
O479 Co468 2.039 . S
O479 C469 1.265 . S
C480 O476 1.253 . S
C480 O481 1.227 . S
O481 C480 1.227 . S
N482 Co468 2.140 . S
N482 C485 1.346 . S
N482 C486 1.345 . S
C483 C484 1.387 . S
C483 C487 1.391 . S
C484 C483 1.387 . S
C484 C485 1.369 . S
C484 H493 0.929 . S
C485 N482 1.346 . S
C485 C484 1.369 . S
C485 H488 0.928 . S
C486 N482 1.345 . S
C486 C487 1.371 . S
C486 H489 0.931 . S
C487 C483 1.391 . S
C487 C486 1.371 . S
C487 H494 0.930 . S
H488 C485 0.928 . S
H489 C486 0.931 . S
H490 C466 0.930 . S
H491 C463 0.930 . S
H492 C472 0.930 . S
H493 C484 0.929 . S
H494 C487 0.930 . S
C495 C496 1.351 . S
C495 N498 1.368 . S
C495 H500 0.931 . S
C496 C495 1.351 . S
C496 N497 1.373 . S
C496 H524 0.930 . S
N497 C496 1.373 . S
N497 C499 1.340 . S
N498 C495 1.368 . S
N498 C499 1.321 . S
N498 Co501 2.135 1_556 S
C499 N497 1.340 . S
C499 N498 1.321 . S
C499 H523 0.930 . S
H500 C495 0.931 . S
Co501 N498 2.135 1_554 S
Co501 N504 2.121 . S
Co501 O509 2.055 . S
Co501 O512 2.039 . S
Co501 N515 2.140 . S
C502 O503 1.227 . S
C502 O512 1.265 . S
O503 C502 1.227 . S
N504 Co501 2.121 . S
N504 C506 1.375 . S
N504 C507 1.313 . S
C505 C506 1.338 . S
C505 N508 1.377 . S
C505 H525 0.930 . S
C506 N504 1.375 . S
C506 C505 1.338 . S
C506 H510 0.931 . S
C507 N504 1.313 . S
C507 N508 1.344 . S
C507 H511 0.930 . S
N508 C505 1.377 . S
N508 C507 1.344 . S
O509 Co501 2.055 . S
O509 C513 1.253 . S
H510 C506 0.931 . S
H511 C507 0.930 . S
O512 Co501 2.039 . S
O512 C502 1.265 . S
C513 O509 1.253 . S
C513 O514 1.227 . S
O514 C513 1.227 . S
N515 Co501 2.140 . S
N515 C518 1.346 . S
N515 C519 1.345 . S
C516 C517 1.393 . S
C516 C520 1.391 . S
C517 C516 1.393 . S
C517 C518 1.370 . S
C517 H526 0.923 1_554 S
C518 N515 1.346 . S
C518 C517 1.370 . S
C518 H521 0.928 1_554 S
C519 N515 1.345 . S
C519 C520 1.371 . S
C519 H522 0.931 . S
C520 C516 1.391 . S
C520 C519 1.371 . S
C520 H527 0.930 . S
H521 C518 0.928 1_556 S
H522 C519 0.931 . S
H523 C499 0.930 . S
H524 C496 0.930 . S
H525 C505 0.930 . S
H526 C517 0.923 1_556 S
H527 C520 0.930 . S
C21 C516 1.585 . S
C54 C417 1.585 . S
C450 C87 1.585 . S
C120 C483 1.585 . S
C318 C153 1.585 . S
C351 C186 1.585 . S
C384 C219 1.585 . S
C285 C252 1.585 . S
C7 C238 1.474 1_554 S
C40 C139 1.474 . S
C73 C172 1.474 1_554 S
C106 C205 1.474 . S
C502 C271 1.474 1_554 S
C403 C304 1.474 . S
C436 C337 1.474 1_554 S
C370 C469 1.474 . S
C18 C150 1.381 . S
C183 C51 1.381 . S
C216 C84 1.381 . S
C117 C249 1.381 . S
C414 C282 1.381 . S
C315 C447 1.381 . S
C348 C480 1.381 . S
C513 C381 1.381 . S
N2 N13 1.864 . S
N46 N35 1.864 . S
N68 N79 1.864 . S
N112 N101 1.864 . S
N134 N145 1.864 . S
N167 N178 1.864 . S
N200 N211 1.864 . S
N233 N244 1.864 . S
N277 N266 1.864 . S
N310 N299 1.864 . S
N343 N332 1.864 . S
N376 N365 1.864 . S
N398 N409 1.864 . S
N431 N442 1.864 . S
N475 N464 1.864 . S
N508 N497 1.864 . S
