# Generated by pormake.
# Topology smb, (6)-cn, num edge types: 1
# Building blocks:
#     Node 0, Type 0, BuildingBlock: IZENUY_clean_sbu_0, # of connection points: 6
#     Node 1, Type 0, BuildingBlock: IZENUY_clean_sbu_0, # of connection points: 6
#     Node 2, Type 0, BuildingBlock: IZENUY_clean_sbu_0, # of connection points: 6
#     Node 3, Type 0, BuildingBlock: IZENUY_clean_sbu_0, # of connection points: 6
#     Node 4, Type 0, BuildingBlock: IZENUY_clean_sbu_0, # of connection points: 6
#     Node 5, Type 0, BuildingBlock: IZENUY_clean_sbu_0, # of connection points: 6
#     Node 6, Type 0, BuildingBlock: IZENUY_clean_sbu_0, # of connection points: 6
#     Node 7, Type 0, BuildingBlock: IZENUY_clean_sbu_0, # of connection points: 6
#     Node 8, Type 0, BuildingBlock: IZENUY_clean_sbu_0, # of connection points: 6
#     Edge 9, Type (0, 0), BuildingBlock: TEMPAE_clean_linker_10, # of connection points: 2
#     Edge 10, Type (0, 0), BuildingBlock: TEMPAE_clean_linker_10, # of connection points: 2
#     Edge 11, Type (0, 0), BuildingBlock: TEMPAE_clean_linker_10, # of connection points: 2
#     Edge 12, Type (0, 0), BuildingBlock: TEMPAE_clean_linker_10, # of connection points: 2
#     Edge 13, Type (0, 0), BuildingBlock: TEMPAE_clean_linker_10, # of connection points: 2
#     Edge 14, Type (0, 0), BuildingBlock: TEMPAE_clean_linker_10, # of connection points: 2
#     Edge 15, Type (0, 0), BuildingBlock: TEMPAE_clean_linker_10, # of connection points: 2
#     Edge 16, Type (0, 0), BuildingBlock: TEMPAE_clean_linker_10, # of connection points: 2
#     Edge 17, Type (0, 0), BuildingBlock: TEMPAE_clean_linker_10, # of connection points: 2
#     Edge 18, Type (0, 0), BuildingBlock: TEMPAE_clean_linker_10, # of connection points: 2
#     Edge 19, Type (0, 0), BuildingBlock: TEMPAE_clean_linker_10, # of connection points: 2
#     Edge 20, Type (0, 0), BuildingBlock: TEMPAE_clean_linker_10, # of connection points: 2
#     Edge 21, Type (0, 0), BuildingBlock: TEMPAE_clean_linker_10, # of connection points: 2
#     Edge 22, Type (0, 0), BuildingBlock: TEMPAE_clean_linker_10, # of connection points: 2
#     Edge 23, Type (0, 0), BuildingBlock: TEMPAE_clean_linker_10, # of connection points: 2
#     Edge 24, Type (0, 0), BuildingBlock: TEMPAE_clean_linker_10, # of connection points: 2
#     Edge 25, Type (0, 0), BuildingBlock: TEMPAE_clean_linker_10, # of connection points: 2
#     Edge 26, Type (0, 0), BuildingBlock: TEMPAE_clean_linker_10, # of connection points: 2
#     Edge 27, Type (0, 0), BuildingBlock: TEMPAE_clean_linker_10, # of connection points: 2
#     Edge 28, Type (0, 0), BuildingBlock: TEMPAE_clean_linker_10, # of connection points: 2
#     Edge 29, Type (0, 0), BuildingBlock: TEMPAE_clean_linker_10, # of connection points: 2
#     Edge 30, Type (0, 0), BuildingBlock: TEMPAE_clean_linker_10, # of connection points: 2
#     Edge 31, Type (0, 0), BuildingBlock: TEMPAE_clean_linker_10, # of connection points: 2
#     Edge 32, Type (0, 0), BuildingBlock: TEMPAE_clean_linker_10, # of connection points: 2
#     Edge 33, Type (0, 0), BuildingBlock: TEMPAE_clean_linker_10, # of connection points: 2
#     Edge 34, Type (0, 0), BuildingBlock: TEMPAE_clean_linker_10, # of connection points: 2
#     Edge 35, Type (0, 0), BuildingBlock: TEMPAE_clean_linker_10, # of connection points: 2
# Relax obj value: 0.326
# Max RMSD: 0.238
# Mean RMSD: 0.238
data_MOF--net-smb--node1-IZENUY_clean_sbu_0--edge1-TEMPAE_clean_linker_10
_symmetry_space_group_name_H-M    P1
_symmetry_Int_Tables_number       1
_symmetry_cell_setting            triclinic
loop_
_symmetry_equiv_pos_as_xyz
'x, y, z'
_cell_length_a     39.001868
_cell_length_b     39.011432
_cell_length_c     30.081403
_cell_angle_alpha  90.051695
_cell_angle_beta   89.90063
_cell_angle_gamma 120.03007
loop_
_atom_site_label
_atom_site_type_symbol
_atom_site_fract_x
_atom_site_fract_y
_atom_site_fract_z
_atom_type_partial_charge
Fe0 Fe 0.40763 0.18516 0.9655 0.0
Fe1 Fe 0.3488 0.16743 0.04248 0.0
O2 O 0.39796 0.1877 0.02236 0.0
Fe3 Fe 0.43788 0.21057 0.05977 0.0
O4 O 0.47336 0.24507 0.01951 0.0
O5 O 0.43739 0.23882 0.96103 0.0
O6 O 0.36577 0.1901 0.94618 0.0
C7 C 0.34576 0.20328 0.96542 0.0
C8 C 0.46166 0.16841 0.00999 0.0
O9 O 0.33984 0.19965 0.0069 0.0
C10 C 0.38258 0.14507 0.10735 0.0
O11 O 0.37875 0.13178 0.96604 0.0
O12 O 0.32699 0.12695 1.00116 0.0
O13 O 0.45248 0.17445 0.04816 0.0
O14 O 0.45119 0.17949 0.97545 0.0
C15 C 0.39228 0.23994 0.08961 0.0
O16 O 0.35501 0.13352 0.07917 0.0
O17 O 0.41035 0.18051 0.10737 0.0
C18 C 0.34291 0.11191 0.97721 0.0
O19 O 0.36227 0.20525 0.08677 0.0
O20 O 0.42497 0.24762 0.07275 0.0
C21 C 0.46764 0.25915 0.98446 0.0
Fe22 Fe 0.82525 0.17398 0.03582 0.0
Fe23 Fe 0.77878 0.2169 0.05113 0.0
O24 O 0.79818 0.19568 0.01448 0.0
Fe25 Fe 0.78982 0.19596 0.95675 0.0
O26 O 0.76419 0.14264 0.9547 0.0
O27 O 0.80824 0.13511 0.99245 0.0
O28 O 0.78285 0.13866 0.06935 0.0
C29 C 0.7647 0.14874 0.09647 0.0
C30 C 0.86894 0.21274 0.96184 0.0
O31 O 0.77193 0.18404 0.09742 0.0
C32 C 0.80579 0.26994 0.97933 0.0
O33 O 0.84726 0.20968 0.08265 0.0
O34 O 0.82758 0.25262 0.06953 0.0
O35 O 0.83678 0.19978 0.9407 0.0
O36 O 0.86885 0.20766 0.00339 0.0
C37 C 0.7168 0.17778 0.9948 0.0
O38 O 0.78255 0.25436 0.01189 0.0
O39 O 0.81516 0.24964 0.95499 0.0
C40 C 0.85138 0.244 0.08759 0.0
O41 O 0.72873 0.18172 0.03433 0.0
O42 O 0.74113 0.19207 0.96288 0.0
C43 C 0.77899 0.1217 0.96587 0.0
Fe44 Fe 0.78144 0.57248 0.94696 0.0
Fe45 Fe 0.81708 0.62964 0.02582 0.0
O46 O 0.78873 0.58092 0.00472 0.0
Fe47 Fe 0.76689 0.5403 0.04153 0.0
O48 O 0.76944 0.50538 0.00279 0.0
O49 O 0.80491 0.54234 0.94691 0.0
O50 O 0.82975 0.61446 0.93154 0.0
C51 C 0.86156 0.63375 0.95339 0.0
C52 C 0.70637 0.51853 0.98312 0.0
O53 O 0.8608 0.63806 0.99496 0.0
C54 C 0.75659 0.59776 0.08609 0.0
O55 O 0.75747 0.60176 0.94366 0.0
O56 O 0.80261 0.65261 0.98156 0.0
O57 O 0.71759 0.52707 0.02294 0.0
O58 O 0.73161 0.529 0.95201 0.0
C59 C 0.83917 0.58386 0.0798 0.0
O60 O 0.77491 0.62451 0.05757 0.0
O61 O 0.76029 0.56744 0.08736 0.0
C62 C 0.77288 0.63729 0.95583 0.0
O63 O 0.83662 0.61479 0.07373 0.0
O64 O 0.81487 0.55146 0.06182 0.0
C65 C 0.79205 0.51137 0.96995 0.0
Fe66 Fe 0.08127 0.54255 0.29047 0.0
Fe67 Fe 0.02305 0.50683 0.36912 0.0
O68 O 0.07191 0.53486 0.34807 0.0
Fe69 Fe 0.11218 0.55595 0.38521 0.0
O70 O 0.12459 0.60527 0.36819 0.0
O71 O 0.12423 0.59276 0.29682 0.0
O72 O 0.05139 0.5657 0.28588 0.0
C73 C 0.01557 0.55038 0.29712 0.0
C74 C 0.14292 0.533 0.31388 0.0
O75 O 0.00045 0.52227 0.3252 0.0
C76 C 0.06853 0.48298 0.42118 0.0
O77 O 0.04009 0.49416 0.27452 0.0
O78 O 0.01407 0.46327 0.33762 0.0
O79 O 0.14818 0.55539 0.34656 0.0
O80 O 0.11196 0.5196 0.29088 0.0
C81 C 0.05531 0.56601 0.43098 0.0
O82 O 0.03778 0.48618 0.41627 0.0
O83 O 0.10105 0.50753 0.40349 0.0
C84 C 0.02002 0.46253 0.29641 0.0
O85 O 0.0286 0.54886 0.40205 0.0
O86 O 0.08463 0.56073 0.43148 0.0
C87 C 0.13334 0.6172 0.32863 0.0
Fe88 Fe 0.46374 0.54118 0.28957 0.0
Fe89 Fe 0.48603 0.50328 0.36552 0.0
O90 O 0.46588 0.53259 0.34694 0.0
Fe91 Fe 0.44823 0.55387 0.38595 0.0
O92 O 0.40969 0.55183 0.34967 0.0
O93 O 0.41024 0.51865 0.29099 0.0
O94 O 0.45589 0.49273 0.27243 0.0
C95 C 0.44268 0.46059 0.29381 0.0
C96 C 0.48657 0.6155 0.32851 0.0
O97 O 0.44928 0.46055 0.33489 0.0
C98 C 0.51679 0.56273 0.42683 0.0
O99 O 0.51697 0.56429 0.28442 0.0
O100 O 0.52217 0.51769 0.3196 0.0
O101 O 0.48408 0.60338 0.36788 0.0
O102 O 0.47105 0.59109 0.29684 0.0
C103 C 0.41966 0.48094 0.42229 0.0
O104 O 0.52433 0.5447 0.39702 0.0
O105 O 0.48299 0.55936 0.42986 0.0
C106 C 0.53647 0.54759 0.29407 0.0
O107 O 0.45283 0.48321 0.4146 0.0
O108 O 0.41174 0.50582 0.40582 0.0
C109 C 0.39207 0.52928 0.31716 0.0
Fe110 Fe 0.45171 0.894 0.40161 0.0
Fe111 Fe 0.45856 0.91612 0.30364 0.0
O112 O 0.46946 0.9307 0.35983 0.0
Fe113 Fe 0.49771 0.98132 0.37467 0.0
O114 O 0.52244 0.9723 0.42254 0.0
O115 O 0.50128 0.90839 0.41754 0.0
O116 O 0.45209 0.85577 0.36684 0.0
C117 C 0.4733 0.85925 0.33353 0.0
C118 C 0.44229 0.95374 0.44089 0.0
O119 O 0.48355 0.88743 0.30667 0.0
C120 C 0.4474 0.9798 0.30509 0.0
O121 O 0.40101 0.87783 0.3873 0.0
O122 O 0.4096 0.87299 0.31571 0.0
O123 O 0.45736 0.97764 0.40899 0.0
O124 O 0.44801 0.92487 0.44492 0.0
C125 C 0.53787 0.97963 0.30016 0.0
O126 O 0.43324 0.94358 0.29695 0.0
O127 O 0.47781 -0.00144 0.32955 0.0
C128 C 0.387 0.86574 0.34906 0.0
O129 O 0.50494 0.95691 0.28178 0.0
O130 O 0.53956 0.98836 0.34088 0.0
C131 C 0.52571 0.94223 0.43211 0.0
Fe132 Fe 0.75132 0.86023 0.62085 0.0
Fe133 Fe 0.69216 0.84016 0.6971 0.0
O134 O 0.74122 0.8584 0.67821 0.0
Fe135 Fe 0.78047 0.87492 0.71652 0.0
O136 O 0.81741 0.91255 0.67944 0.0
O137 O 0.78269 0.91361 0.62264 0.0
O138 O 0.71097 0.86849 0.60398 0.0
C139 C 0.69412 0.88397 0.62526 0.0
C140 C 0.80208 0.83585 0.65838 0.0
O141 O 0.68811 0.87821 0.66654 0.0
C142 C 0.71906 0.80763 0.75806 0.0
O143 O 0.72062 0.80722 0.61635 0.0
O144 O 0.66938 0.80382 0.65135 0.0
O145 O 0.79238 0.83785 0.69793 0.0
O146 O 0.79351 0.85216 0.62732 0.0
C147 C 0.73835 0.90607 0.75334 0.0
O148 O 0.69354 0.8011 0.72862 0.0
O149 O 0.75064 0.84062 0.76069 0.0
C150 C 0.68452 0.78832 0.62675 0.0
O151 O 0.70668 0.87349 0.74605 0.0
O152 O 0.77083 0.91276 0.73687 0.0
C153 C 0.81257 0.93075 0.64748 0.0
Fe154 Fe 0.13724 0.87661 0.62471 0.0
Fe155 Fe 0.15541 0.83662 0.70153 0.0
O156 O 0.13721 0.86725 0.6821 0.0
Fe157 Fe 0.11884 0.88891 0.71976 0.0
O158 O 0.08252 0.88843 0.68093 0.0
O159 O 0.08355 0.85331 0.62442 0.0
O160 O 0.13119 0.8291 0.60657 0.0
C161 C 0.11657 0.79624 0.6265 0.0
C162 C 0.15963 0.95072 0.66356 0.0
O163 O 0.11974 0.79496 0.66813 0.0
C164 C 0.18425 0.89442 0.76526 0.0
O165 O 0.19044 0.90014 0.62258 0.0
O166 O 0.19431 0.85278 0.65816 0.0
O167 O 0.15632 0.93842 0.70299 0.0
O168 O 0.14393 0.92628 0.63195 0.0
C169 C 0.08659 0.81455 0.75436 0.0
O170 O 0.19238 0.87634 0.7361 0.0
O171 O 0.15119 0.89288 0.76574 0.0
C172 C 0.20989 0.88385 0.63423 0.0
O173 O 0.11933 0.81544 0.748 0.0
O174 O 0.08068 0.84096 0.73828 0.0
C175 C 0.06529 0.86528 0.64872 0.0
Fe176 Fe 0.15669 0.30228 0.70307 0.0
Fe177 Fe 0.10697 0.21236 0.71484 0.0
O178 O 0.12942 0.25416 0.67985 0.0
Fe179 Fe 0.12394 0.24687 0.62183 0.0
O180 O 0.17209 0.28923 0.60816 0.0
O181 O 0.20125 0.31295 0.6724 0.0
O182 O 0.17663 0.28609 0.74959 0.0
C183 C 0.17908 0.25484 0.75389 0.0
C184 C 0.11361 0.31087 0.63139 0.0
O185 O 0.15452 0.22295 0.73516 0.0
C186 C 0.04799 0.19265 0.65544 0.0
O187 O 0.11394 0.29545 0.73552 0.0
O188 O 0.10015 0.23775 0.76168 0.0
O189 O 0.09992 0.27586 0.61783 0.0
O190 O 0.1414 0.32579 0.65992 0.0
C191 C 0.13487 0.18592 0.64477 0.0
O192 O 0.05823 0.20018 0.69565 0.0
O193 O 0.07405 0.20316 0.62516 0.0
C194 C 0.09486 0.26701 0.76199 0.0
O195 O 0.10974 0.17841 0.67511 0.0
O196 O 0.1482 0.21732 0.62248 0.0
C197 C 0.20311 0.30859 0.63105 0.0
C198 C 0.28167 0.06481 0.93643 0.0
C199 C 0.31831 0.0738 0.9544 0.0
C200 C 0.26133 0.03245 0.90764 0.0
C201 C 0.27752 0.00786 0.89779 0.0
C202 C 0.31337 0.01549 0.9181 0.0
C203 C 0.33372 0.04883 0.94556 0.0
C204 C 0.22362 0.02587 0.8859 0.0
C205 C 0.3309 0.98926 0.90963 0.0
C206 C 0.20372 0.91045 0.8442 0.0
C207 C 0.21323 0.91887 0.79915 0.0
C208 C 0.22623 0.93815 0.8771 0.0
C209 C 0.25791 0.97565 0.86431 0.0
C210 C 0.26856 0.98354 0.8188 0.0
C211 C 0.24627 0.95475 0.78672 0.0
C212 C 0.21471 0.9281 0.92528 0.0
C213 C 0.30154 0.02343 0.80364 0.0
H214 H 0.27007 0.08448 0.94272 0.0
H215 H 0.36213 0.05586 0.95951 0.0
H216 H 0.22774 0.02895 0.8493 0.0
H217 H 0.19913 0.99541 0.89265 0.0
H218 H 0.21461 0.0472 0.89772 0.0
H219 H 0.3564 0.99656 0.93182 0.0
H220 H 0.30812 0.95771 0.9145 0.0
H221 H 0.34118 0.99265 0.87466 0.0
H222 H 0.17772 0.88277 0.85352 0.0
H223 H 0.25287 0.96142 0.75169 0.0
H224 H 0.20064 0.94497 0.93754 0.0
H225 H 0.24132 0.93669 0.94601 0.0
H226 H 0.19353 0.89603 0.93009 0.0
H227 H 0.2933 0.04634 0.81058 0.0
H228 H 0.30776 0.02392 0.76752 0.0
H229 H 0.3291 0.03176 0.82231 0.0
C230 C 0.94272 0.24084 0.95615 0.0
C231 C 0.90639 0.23051 0.93601 0.0
C232 C 0.9773 0.25434 0.93046 0.0
C233 C 0.97532 0.25727 0.88367 0.0
C234 C 0.9393 0.24933 0.86365 0.0
C235 C 0.90542 0.23621 0.89002 0.0
C236 C 0.01533 0.26304 0.95303 0.0
C237 C 0.93569 0.25169 0.81388 0.0
C238 C 0.06569 0.30081 0.80736 0.0
C239 C 0.06583 0.2664 0.79421 0.0
C240 C 0.03733 0.29877 0.83801 0.0
C241 C 0.00823 0.26143 0.85491 0.0
C242 C 0.00847 0.22678 0.84168 0.0
C243 C 0.03727 0.22975 0.81183 0.0
C244 C 0.03809 0.33632 0.85183 0.0
C245 C 0.97752 0.18622 0.85796 0.0
H246 H 0.94393 0.23716 0.99172 0.0
H247 H 0.87771 0.22908 0.87411 0.0
H248 H 0.02132 0.23854 0.94636 0.0
H249 H 0.04066 0.29061 0.93962 0.0
H250 H 0.01386 0.2661 0.98961 0.0
H251 H 0.90722 0.24959 0.80418 0.0
H252 H 0.96037 0.27979 0.80066 0.0
H253 H 0.93749 0.22705 0.79772 0.0
H254 H 0.08775 0.32918 0.79393 0.0
H255 H 0.03676 0.20287 0.80145 0.0
H256 H 0.0377 0.33822 0.88861 0.0
H257 H 0.01121 0.33604 0.83932 0.0
H258 H 0.0646 0.36319 0.83887 0.0
H259 H 0.97729 0.18535 0.89482 0.0
H260 H 0.98265 0.16237 0.84537 0.0
H261 H 0.9477 0.17972 0.84701 0.0
C262 C 0.71565 0.78445 0.83528 0.0
C263 C 0.71354 0.77677 0.78963 0.0
C264 C 0.71974 0.7596 0.86579 0.0
C265 C 0.72344 0.72745 0.84985 0.0
C266 C 0.71944 0.7186 0.80378 0.0
C267 C 0.71397 0.74321 0.77416 0.0
C268 C 0.72254 0.7692 0.91473 0.0
C269 C 0.72418 0.68519 0.78535 0.0
C270 C 0.78822 0.69898 0.91574 0.0
C271 C 0.76006 0.66237 0.93334 0.0
C272 C 0.77658 0.72063 0.88872 0.0
C273 C 0.73575 0.7058 0.88053 0.0
C274 C 0.70713 0.66975 0.9002 0.0
C275 C 0.71971 0.64803 0.92573 0.0
C276 C 0.80806 0.75848 0.86742 0.0
C277 C 0.66336 0.65373 0.89345 0.0
H278 H 0.71564 0.81077 0.84691 0.0
H279 H 0.71313 0.73799 0.73865 0.0
H280 H 0.70418 0.74195 0.93443 0.0
H281 H 0.75364 0.78181 0.92592 0.0
H282 H 0.71287 0.79098 0.92213 0.0
H283 H 0.71706 0.68028 0.74934 0.0
H284 H 0.75522 0.69212 0.79011 0.0
H285 H 0.70484 0.65727 0.80344 0.0
H286 H 0.81944 0.70968 0.92122 0.0
H287 H 0.69802 0.61965 0.93955 0.0
H288 H 0.80375 0.78353 0.87698 0.0
H289 H 0.80556 0.75573 0.83067 0.0
H290 H 0.83847 0.7658 0.87709 0.0
H291 H 0.65566 0.6769 0.90119 0.0
H292 H 0.645 0.6274 0.91455 0.0
H293 H 0.65556 0.64525 0.85814 0.0
C294 C 0.06232 0.75764 0.80843 0.0
C295 C 0.05599 0.78492 0.78465 0.0
C296 C 0.03352 0.73067 0.83818 0.0
C297 C -0.0023 0.73113 0.84426 0.0
C298 C 0.9911 0.75837 0.82007 0.0
C299 C 0.02015 0.78473 0.7906 0.0
C300 C 0.04134 0.70172 0.86307 0.0
C301 C 0.95326 0.7598 0.82531 0.0
C302 C 0.90179 0.64387 0.885 0.0
C303 C 0.89924 0.65569 0.92838 0.0
C304 C 0.93503 0.66683 0.85824 0.0
C305 C 0.96636 0.70279 0.87505 0.0
C306 C 0.965 0.71378 0.91967 0.0
C307 C 0.9315 0.68993 0.94596 0.0
C308 C 0.93547 0.65374 0.81108 0.0
C309 C -0.00228 0.752 0.93874 0.0
H310 H 0.08984 0.75751 0.80404 0.0
H311 H 0.01469 0.80543 0.77227 0.0
H312 H 0.04032 0.70602 0.89941 0.0
H313 H 0.0179 0.67096 0.85544 0.0
H314 H 0.07058 0.70503 0.85455 0.0
H315 H 0.953 0.78317 0.80448 0.0
H316 H 0.92745 0.73084 0.81596 0.0
H317 H 0.94926 0.7654 0.86059 0.0
H318 H 0.87719 0.6171 0.87141 0.0
H319 H 0.92977 0.6992 0.97946 0.0
H320 H 0.9644 0.65614 0.8033 0.0
H321 H 0.93141 0.67339 0.78767 0.0
H322 H 0.91158 0.62277 0.80505 0.0
H323 H 0.02705 0.75505 0.93173 0.0
H324 H 0.99458 0.75399 0.97522 0.0
H325 H -0.00275 0.77737 0.92269 0.0
C326 C 0.23381 0.28639 0.81057 0.0
C327 C 0.20754 0.25333 0.78532 0.0
C328 C 0.25938 0.28377 0.84162 0.0
C329 C 0.25827 0.24721 0.84764 0.0
C330 C 0.23219 0.21398 0.82184 0.0
C331 C 0.20743 0.21752 0.79094 0.0
C332 C 0.28737 0.31994 0.86811 0.0
C333 C 0.23003 0.17439 0.82713 0.0
C334 C 0.34085 0.23466 0.89543 0.0
C335 C 0.32594 0.21954 0.93782 0.0
C336 C 0.32058 0.24675 0.86684 0.0
C337 C 0.28415 0.24296 0.88071 0.0
C338 C 0.26999 0.22966 0.92432 0.0
C339 C 0.29128 0.2184 0.95256 0.0
C340 C 0.33701 0.2614 0.82088 0.0
C341 C 0.23104 0.22478 0.94013 0.0
H342 H 0.23422 0.31418 0.80631 0.0
H343 H 0.18752 0.19176 0.77147 0.0
H344 H 0.28055 0.31426 0.90407 0.0
H345 H 0.31829 0.32649 0.86332 0.0
H346 H 0.28553 0.34646 0.85849 0.0
H347 H 0.20772 0.15135 0.80479 0.0
H348 H 0.25931 0.17741 0.81985 0.0
H349 H 0.22236 0.16398 0.86198 0.0
H350 H 0.36806 0.23628 0.88419 0.0
H351 H 0.27972 0.20689 0.98536 0.0
H352 H 0.33559 0.28836 0.8126 0.0
H353 H 0.31886 0.23841 0.796 0.0
H354 H 0.36819 0.26821 0.81765 0.0
H355 H 0.22935 0.25175 0.9328 0.0
H356 H 0.22647 0.21862 0.97637 0.0
H357 H 0.2064 0.1998 0.92207 0.0
C358 C 0.71204 0.92291 0.8211 0.0
C359 C 0.7391 0.93496 0.78575 0.0
C360 C 0.71527 0.95001 0.85403 0.0
C361 C 0.74577 0.99011 0.85092 0.0
C362 C 0.7725 0.00252 0.81463 0.0
C363 C 0.76902 0.97475 0.78275 0.0
C364 C 0.68658 0.93564 0.89256 0.0
C365 C 0.80495 0.04514 0.80947 0.0
C366 C 0.73821 0.0731 0.90689 0.0
C367 C 0.76632 0.08426 0.94111 0.0
C368 C 0.72989 0.04133 0.87855 0.0
C369 C 0.74966 0.01965 0.88486 0.0
C370 C 0.77611 0.02903 0.92105 0.0
C371 C 0.78432 0.06139 0.94864 0.0
C372 C 0.70176 0.03259 0.84015 0.0
C373 C 0.79725 0.00613 0.92931 0.0
H374 H 0.68914 0.89208 0.82376 0.0
H375 H 0.78986 0.98424 0.75531 0.0
H376 H 0.70305 0.94106 0.92424 0.0
H377 H 0.67058 0.95243 0.89413 0.0
H378 H 0.66452 0.90356 0.89009 0.0
H379 H 0.82281 0.05004 0.77885 0.0
H380 H 0.79193 0.06473 0.80832 0.0
H381 H 0.82506 0.05429 0.83857 0.0
H382 H 0.7238 0.09027 0.90085 0.0
H383 H 0.8058 0.06951 0.97515 0.0
H384 H 0.6794 0.0006 0.83902 0.0
H385 H 0.71853 0.04008 0.80841 0.0
H386 H 0.6861 0.04975 0.84219 0.0
H387 H 0.77595 0.97382 0.92853 0.0
H388 H 0.8129 0.01378 0.96177 0.0
H389 H 0.81931 0.01266 0.90257 0.0
C390 C 0.90372 0.2638 0.14691 0.0
C391 C 0.88043 0.27306 0.11946 0.0
C392 C 0.92923 0.29107 0.17885 0.0
C393 C 0.93117 0.32817 0.18344 0.0
C394 C 0.90814 0.33776 0.15538 0.0
C395 C 0.88337 0.31031 0.12372 0.0
C396 C 0.95384 0.28016 0.20786 0.0
C397 C 0.90931 0.37702 0.15894 0.0
C398 C 0.96414 0.39294 0.28631 0.0
C399 C 0.0002 0.42472 0.27164 0.0
C400 C 0.94242 0.35955 0.25916 0.0
C401 C 0.95752 0.35783 0.21682 0.0
C402 C 0.99546 0.38839 0.20364 0.0
C403 C 0.01617 0.42159 0.23105 0.0
C404 C 0.90197 0.32768 0.27431 0.0
C405 C 0.01295 0.3875 0.15912 0.0
H406 H 0.90169 0.23516 0.14384 0.0
H407 H 0.86581 0.31807 0.10257 0.0
H408 H 0.98566 0.30271 0.20457 0.0
H409 H 0.94564 0.27983 0.24325 0.0
H410 H 0.94986 0.25068 0.19927 0.0
H411 H 0.88896 0.37952 0.13506 0.0
H412 H 0.90104 0.38097 0.19308 0.0
H413 H 0.9398 0.40167 0.15254 0.0
H414 H 0.95176 0.39515 0.31775 0.0
H415 H 0.04445 0.4458 0.21996 0.0
H416 H 0.89793 0.29787 0.26796 0.0
H417 H 0.87896 0.33001 0.25508 0.0
H418 H 0.89703 0.3303 0.31023 0.0
H419 H 0.009 0.35776 0.15252 0.0
H420 H 0.045 0.40979 0.15708 0.0
H421 H -0.00267 0.39387 0.13243 0.0
C422 C 0.57879 0.52946 0.24938 0.0
C423 C 0.5729 0.55879 0.26863 0.0
C424 C 0.61075 0.53954 0.22049 0.0
C425 C 0.63821 0.57999 0.21199 0.0
C426 C 0.63323 0.60975 0.23291 0.0
C427 C 0.60013 0.59875 0.26032 0.0
C428 C 0.61434 0.50688 0.19787 0.0
C429 C 0.66256 0.65312 0.22591 0.0
C430 C 0.73548 0.59685 0.16411 0.0
C431 C 0.73033 0.60096 0.11878 0.0
C432 C 0.70683 0.59265 0.1953 0.0
C433 C 0.67153 0.59083 0.1804 0.0
C434 C 0.66685 0.5962 0.13464 0.0
C435 C 0.6967 0.60181 0.10438 0.0
C436 C 0.71356 0.58836 0.24389 0.0
C437 C 0.62923 0.59335 0.11721 0.0
H438 H 0.55733 0.49854 0.25531 0.0
H439 H 0.59546 0.62139 0.27531 0.0
H440 H 0.61381 0.51 0.16124 0.0
H441 H 0.64304 0.50914 0.20645 0.0
H442 H 0.59008 0.47696 0.20742 0.0
H443 H 0.65605 0.67245 0.24723 0.0
H444 H 0.69301 0.65927 0.23321 0.0
H445 H 0.6621 0.66116 0.19065 0.0
H446 H 0.76152 0.59596 0.17499 0.0
H447 H 0.69257 0.60421 0.06911 0.0
H448 H 0.6934 0.55743 0.25469 0.0
H449 H 0.70673 0.60783 0.26445 0.0
H450 H 0.74453 0.59577 0.2506 0.0
H451 H 0.60417 0.56281 0.12227 0.0
H452 H 0.63124 0.60059 0.08125 0.0
H453 H 0.62219 0.61361 0.13582 0.0
C454 C 0.35362 0.089 0.16249 0.0
C455 C 0.38591 0.11755 0.13811 0.0
C456 C 0.35886 0.06503 0.19364 0.0
C457 C 0.39684 0.06896 0.19887 0.0
C458 C 0.4291 0.09713 0.17327 0.0
C459 C 0.42336 0.12151 0.144 0.0
C460 C 0.32413 0.03604 0.22139 0.0
C461 C 0.46977 0.10139 0.17636 0.0
C462 C 0.43419 0.03616 0.29698 0.0
C463 C 0.43092 0.00106 0.28052 0.0
C464 C 0.41998 0.05701 0.27225 0.0
C465 C 0.40337 0.04301 0.22961 0.0
C466 C 0.39885 0.00688 0.21361 0.0
C467 C 0.41221 0.98613 0.2395 0.0
C468 C 0.42433 0.09492 0.29087 0.0
C469 C 0.38259 0.99154 0.16777 0.0
H470 H 0.32478 0.0863 0.1582 0.0
H471 H 0.44839 0.14357 0.12517 0.0
H472 H 0.31813 0.00547 0.21545 0.0
H473 H 0.33126 0.04251 0.2572 0.0
H474 H 0.29682 0.03719 0.21404 0.0
H475 H 0.49112 0.12349 0.15243 0.0
H476 H 0.48174 0.11064 0.2104 0.0
H477 H 0.46785 0.07249 0.16972 0.0
H478 H 0.44806 0.04741 0.32898 0.0
H479 H 0.40962 0.95899 0.22653 0.0
H480 H 0.3967 0.09598 0.28577 0.0
H481 H 0.44847 0.12059 0.2731 0.0
H482 H 0.43146 0.09822 0.32691 0.0
H483 H 0.35441 0.99141 0.16244 0.0
H484 H 0.37731 0.96112 0.16213 0.0
H485 H 0.40396 0.01145 0.14237 0.0
C486 C 0.73196 0.08465 0.14011 0.0
C487 C 0.73402 0.1202 0.12739 0.0
C488 C 0.70234 0.05849 0.16983 0.0
C489 C 0.6739 0.0679 0.18629 0.0
C490 C 0.67572 0.10351 0.17294 0.0
C491 C 0.70574 0.12916 0.14404 0.0
C492 C 0.70139 0.02086 0.1836 0.0
C493 C 0.64556 0.11441 0.18869 0.0
C494 C 0.57126 0.99197 0.22595 0.0
C495 C 0.57409 -0.00097 0.27199 0.0
C496 C 0.60421 0.01237 0.19795 0.0
C497 C 0.64115 0.04043 0.21631 0.0
C498 C 0.64481 0.0461 0.26299 0.0
C499 C 0.61122 0.02543 0.29028 0.0
C500 C 0.59882 0.00565 0.14837 0.0
C501 C 0.68373 0.0756 0.28389 0.0
H502 H 0.75365 0.07755 0.1273 0.0
H503 H 0.7066 0.15623 0.13383 0.0
H504 H 0.70298 0.01967 0.22035 0.0
H505 H 0.67301 0.99482 0.17318 0.0
H506 H 0.72619 0.01834 0.16889 0.0
H507 H 0.65131 0.14335 0.17528 0.0
H508 H 0.61543 0.09133 0.17831 0.0
H509 H 0.64566 0.11588 0.22552 0.0
H510 H 0.54288 0.97136 0.21137 0.0
H511 H 0.61391 0.03078 0.32581 0.0
H512 H 0.62264 0.00137 0.1341 0.0
H513 H 0.60077 0.03214 0.1322 0.0
H514 H 0.56973 0.97953 0.13985 0.0
H515 H 0.70817 0.0719 0.27037 0.0
H516 H 0.68316 0.07262 0.32065 0.0
H517 H 0.69049 0.10609 0.27566 0.0
C518 C 0.94905 0.54244 0.27862 0.0
C519 C 0.99009 0.56153 0.27146 0.0
C520 C 0.92441 0.54929 0.25032 0.0
C521 C 0.94117 0.5755 0.21382 0.0
C522 C 0.98271 0.59631 0.2078 0.0
C523 C 0.00662 0.5893 0.23681 0.0
C524 C 0.88026 0.52706 0.25825 0.0
C525 C 0.00179 0.62427 0.16914 0.0
C526 C 0.87775 0.55428 0.11073 0.0
C527 C 0.86699 0.58357 0.11301 0.0
C528 C 0.90192 0.55149 0.14326 0.0
C529 C 0.91526 0.57831 0.17944 0.0
C530 C 0.90465 0.6081 0.18191 0.0
C531 C 0.88089 0.61061 0.14839 0.0
C532 C 0.91315 0.51976 0.13886 0.0
C533 C 0.9179 0.63687 0.22028 0.0
H534 H 0.93598 0.52118 0.30542 0.0
H535 H 0.0383 0.60454 0.23105 0.0
H536 H 0.86835 0.54759 0.25692 0.0
H537 H 0.86545 0.50471 0.23163 0.0
H538 H 0.87237 0.5116 0.29085 0.0
H539 H 0.03463 0.64063 0.17126 0.0
H540 H 0.99298 0.60726 0.13758 0.0
H541 H 0.99144 0.64604 0.16756 0.0
H542 H 0.86724 0.53341 0.08333 0.0
H543 H 0.87229 0.63303 0.15055 0.0
H544 H 0.90247 0.49991 0.16822 0.0
H545 H 0.94587 0.53352 0.13784 0.0
H546 H 0.90064 0.50152 0.10844 0.0
H547 H 0.90711 0.62042 0.25205 0.0
H548 H 0.90687 0.65809 0.2175 0.0
H549 H 0.9507 0.65384 0.22196 0.0
C550 C 0.35885 0.2619 0.14521 0.0
C551 C 0.39186 0.27028 0.11886 0.0
C552 C 0.36028 0.29001 0.17565 0.0
C553 C 0.39561 0.32697 0.17991 0.0
C554 C 0.42856 0.33588 0.15252 0.0
C555 C 0.42615 0.30763 0.1222 0.0
C556 C 0.32437 0.27993 0.20378 0.0
C557 C 0.46685 0.375 0.15591 0.0
C558 C 0.40581 0.42095 0.22776 0.0
C559 C 0.42409 0.42313 0.26859 0.0
C560 C 0.39291 0.38787 0.20008 0.0
C561 C 0.39918 0.35664 0.21324 0.0
C562 C 0.41513 0.35747 0.25579 0.0
C563 C 0.42712 0.39067 0.28321 0.0
C564 C 0.37528 0.38775 0.15539 0.0
C565 C 0.42259 0.32488 0.27084 0.0
H566 H 0.3322 0.23321 0.14269 0.0
H567 H 0.45173 0.31467 0.1017 0.0
H568 H 0.33109 0.27811 0.23923 0.0
H569 H 0.31661 0.3036 0.20109 0.0
H570 H 0.29825 0.25129 0.19398 0.0
H571 H 0.48969 0.3772 0.13211 0.0
H572 H 0.46135 0.39981 0.14934 0.0
H573 H 0.47895 0.37897 0.19008 0.0
H574 H 0.40274 0.44575 0.21676 0.0
H575 H 0.44109 0.39221 0.31485 0.0
H576 H 0.3493 0.35825 0.14825 0.0
H577 H 0.39759 0.39416 0.12896 0.0
H578 H 0.366 0.41038 0.15349 0.0
H579 H 0.39629 0.29541 0.26451 0.0
H580 H 0.43006 0.32725 0.30675 0.0
H581 H 0.44763 0.32648 0.25154 0.0
C582 C 0.62369 0.74335 0.58398 0.0
C583 C 0.65924 0.75071 0.60355 0.0
C584 C 0.60237 0.71032 0.55634 0.0
C585 C 0.61641 0.68348 0.54944 0.0
C586 C 0.65139 0.68991 0.57091 0.0
C587 C 0.67279 0.72388 0.59712 0.0
C588 C 0.56566 0.70496 0.53319 0.0
C589 C 0.66661 0.66137 0.5655 0.0
C590 C 0.53812 0.58424 0.5042 0.0
C591 C 0.54703 0.58882 0.45874 0.0
C592 C 0.56211 0.61379 0.53465 0.0
C593 C 0.59484 0.64929 0.51885 0.0
C594 C 0.60491 0.65325 0.47308 0.0
C595 C 0.58104 0.6226 0.44354 0.0
C596 C 0.55109 0.60793 0.58331 0.0
C597 C 0.63905 0.69096 0.45478 0.0
H598 H 0.61362 0.76448 0.58849 0.0
H599 H 0.70037 0.72971 0.6124 0.0
H600 H 0.56961 0.70516 0.49662 0.0
H601 H 0.53981 0.67588 0.54208 0.0
H602 H 0.55883 0.72858 0.54196 0.0
H603 H 0.69248 0.66903 0.58721 0.0
H604 H 0.64283 0.6308 0.5734 0.0
H605 H 0.6755 0.6614 0.53045 0.0
H606 H 0.51147 0.55813 0.51567 0.0
H607 H 0.58724 0.62633 0.40816 0.0
H608 H 0.53918 0.62741 0.59301 0.0
H609 H 0.57761 0.61627 0.60409 0.0
H610 H 0.52834 0.57682 0.59089 0.0
H611 H 0.63238 0.71537 0.45815 0.0
H612 H 0.64481 0.68814 0.41916 0.0
H613 H 0.66643 0.69953 0.47396 0.0
C614 C 0.41928 0.95158 0.51815 0.0
C615 C 0.41536 0.95674 0.47275 0.0
C616 C 0.38887 0.94444 0.54817 0.0
C617 C 0.35319 0.94089 0.53196 0.0
C618 C 0.34993 0.94805 0.48637 0.0
C619 C 0.38142 0.95647 0.45732 0.0
C620 C 0.39405 0.93837 0.59672 0.0
C621 C 0.3121 0.94375 0.46761 0.0
C622 C 0.25805 0.87131 0.5932 0.0
C623 C 0.24877 0.89805 0.61317 0.0
C624 C 0.2922 0.88494 0.56688 0.0
C625 C 0.31815 0.92625 0.56173 0.0
C626 C 0.30983 0.9533 0.58384 0.0
C627 C 0.27482 0.93884 0.60868 0.0
C628 C 0.2996 0.85515 0.54306 0.0
C629 C 0.33737 -0.00255 0.58038 0.0
H630 H 0.44555 0.95154 0.52986 0.0
H631 H 0.37821 0.95966 0.42199 0.0
H632 H 0.38419 0.9551 0.61795 0.0
H633 H 0.37544 0.90657 0.60523 0.0
H634 H 0.42532 0.94784 0.6049 0.0
H635 H 0.31538 0.95316 0.43227 0.0
H636 H 0.28824 0.91232 0.46988 0.0
H637 H 0.30242 0.96149 0.48721 0.0
H638 H 0.23751 0.83979 0.59619 0.0
H639 H 0.26748 0.95945 0.62425 0.0
H640 H 0.3289 0.8593 0.55259 0.0
H641 H 0.30021 0.85982 0.50661 0.0
H642 H 0.27656 0.82413 0.55058 0.0
H643 H 0.36811 0.00501 0.58854 0.0
H644 H 0.3285 0.01426 0.60291 0.0
H645 H 0.33759 0.00732 0.54577 0.0
C646 C 0.12019 0.37698 0.61393 0.0
C647 C 0.10038 0.33579 0.60821 0.0
C648 C 0.11112 0.40086 0.58705 0.0
C649 C 0.08182 0.38308 0.55359 0.0
C650 C 0.06011 0.3414 0.54958 0.0
C651 C 0.06946 0.31831 0.57707 0.0
C652 C 0.13445 0.44523 0.59277 0.0
C653 C 0.0288 0.32123 0.51421 0.0
C654 C 0.04443 0.44282 0.49111 0.0
C655 C 0.06904 0.4548 0.45353 0.0
C656 C 0.0484 0.41973 0.52438 0.0
C657 C 0.07714 0.40791 0.51937 0.0
C658 C 0.1012 0.41904 0.48081 0.0
C659 C 0.09703 0.44255 0.44858 0.0
C660 C 0.02258 0.40876 0.5653 0.0
C661 C 0.13164 0.40638 0.47367 0.0
H662 H 0.14386 0.39075 0.63811 0.0
H663 H 0.05348 0.28644 0.57274 0.0
H664 H 0.15496 0.45871 0.56422 0.0
H665 H 0.11434 0.45766 0.59315 0.0
H666 H 0.15215 0.45404 0.62387 0.0
H667 H 0.0118 0.28857 0.51849 0.0
H668 H 0.00777 0.33255 0.51461 0.0
H669 H 0.04308 0.32795 0.48097 0.0
H670 H 0.0231 0.45267 0.49527 0.0
H671 H 0.11599 0.45165 0.41944 0.0
H672 H 0.04139 0.42131 0.59524 0.0
H673 H 0.00576 0.37614 0.56947 0.0
H674 H 0.00127 0.41976 0.56383 0.0
H675 H 0.15376 0.41797 0.50089 0.0
H676 H 0.14751 0.41706 0.44148 0.0
H677 H 0.1171 0.37361 0.47446 0.0
C678 C 0.27245 0.36552 0.62272 0.0
C679 C 0.24135 0.32943 0.60722 0.0
C680 C 0.30591 0.38835 0.59596 0.0
C681 C 0.30826 0.37439 0.55316 0.0
C682 C 0.27848 0.33639 0.53919 0.0
C683 C 0.2453 0.3145 0.56628 0.0
C684 C 0.33709 0.42872 0.61202 0.0
C685 C 0.27999 0.32013 0.4941 0.0
C686 C 0.35433 0.44958 0.46068 0.0
C687 C 0.39142 0.45244 0.45515 0.0
C688 C 0.32748 0.42472 0.49282 0.0
C689 C 0.33769 0.40173 0.52021 0.0
C690 C 0.37486 0.404 0.51468 0.0
C691 C 0.40139 0.42939 0.48211 0.0
C692 C 0.28804 0.42304 0.49731 0.0
C693 C 0.38653 0.37966 0.54314 0.0
H694 H 0.26958 0.37704 0.65445 0.0
H695 H 0.22161 0.28619 0.55458 0.0
H696 H 0.36721 0.43375 0.60507 0.0
H697 H 0.33398 0.45178 0.5939 0.0
H698 H 0.33437 0.43258 0.64821 0.0
H699 H 0.25812 0.28803 0.49121 0.0
H700 H 0.27343 0.3361 0.468 0.0
H701 H 0.30998 0.32475 0.48734 0.0
H702 H 0.34612 0.46702 0.43989 0.0
H703 H 0.43 0.43149 0.47812 0.0
H704 H 0.28415 0.43067 0.53178 0.0
H705 H 0.26358 0.39254 0.49057 0.0
H706 H 0.28514 0.44359 0.4741 0.0
H707 H 0.38589 0.38674 0.57875 0.0
H708 H 0.41656 0.38494 0.53487 0.0
H709 H 0.36489 0.3477 0.53879 0.0
C710 C 0.54285 0.90993 0.49177 0.0
C711 C 0.55356 0.94404 0.4665 0.0
C712 C 0.56933 0.90801 0.52133 0.0
C713 C 0.60774 0.94116 0.52604 0.0
C714 C 0.61808 0.97671 0.50284 0.0
C715 C 0.59069 0.97778 0.47317 0.0
C716 C 0.5568 0.86951 0.54548 0.0
C717 C 0.65861 0.0128 0.50758 0.0
C718 C 0.65923 0.92339 0.62206 0.0
C719 C 0.67707 0.90454 0.60015 0.0
C720 C 0.63976 0.93947 0.59794 0.0
C721 C 0.63762 0.93597 0.55103 0.0
C722 C 0.65809 0.91962 0.52871 0.0
C723 C 0.67771 0.90433 0.5535 0.0
C724 C 0.61915 0.95763 0.62283 0.0
C725 C 0.65638 0.91501 0.47874 0.0
H726 H 0.51377 0.88402 0.48764 0.0
H727 H 0.59889 0.00428 0.45393 0.0
H728 H 0.57478 0.85649 0.53364 0.0
H729 H 0.562 0.87483 0.5817 0.0
H730 H 0.52503 0.84743 0.54021 0.0
H731 H 0.65927 0.03991 0.49505 0.0
H732 H 0.66829 0.01745 0.54281 0.0
H733 H 0.68036 0.00842 0.48823 0.0
H734 H 0.65939 0.92453 0.65807 0.0
H735 H 0.69198 0.89046 0.53614 0.0
H736 H 0.58696 0.93601 0.62455 0.0
H737 H 0.6229 0.98433 0.60535 0.0
H738 H 0.63051 0.96591 0.65732 0.0
H739 H 0.62617 0.8917 0.46882 0.0
H740 H 0.67789 0.9065 0.46617 0.0
H741 H 0.66245 0.94292 0.46229 0.0
C742 C 0.08192 0.6066 0.49946 0.0
C743 C 0.0538 0.59277 0.46507 0.0
C744 C 0.08639 0.63679 0.5281 0.0
C745 C 0.06167 0.65338 0.52295 0.0
C746 C 0.03122 0.63768 0.49051 0.0
C747 C 0.02776 0.60761 0.46164 0.0
C748 C 0.11954 0.6528 0.56183 0.0
C749 C 0.00373 0.65405 0.48474 0.0
C750 C 0.07225 0.72281 0.6175 0.0
C751 C 0.1001 0.75958 0.59964 0.0
C752 C 0.05726 0.68804 0.59189 0.0
C753 C 0.07135 0.69009 0.54795 0.0
C754 C 0.09887 0.7273 0.52957 0.0
C755 C 0.11251 0.76155 0.55545 0.0
C756 C 0.02728 0.64902 0.61225 0.0
C757 C 0.1155 0.73081 0.48329 0.0
H758 H 0.1019 0.59501 0.50293 0.0
H759 H 0.00585 0.597 0.43534 0.0
H760 H 0.14212 0.68358 0.55281 0.0
H761 H 0.10817 0.65377 0.59533 0.0
H762 H 0.13431 0.63478 0.56371 0.0
H763 H 0.97779 0.63454 0.46368 0.0
H764 H 0.99301 0.65797 0.5175 0.0
H765 H 0.01998 0.6836 0.46876 0.0
H766 H 0.06215 0.72124 0.65144 0.0
H767 H 0.1341 0.78988 0.54145 0.0
H768 H 0.04133 0.63086 0.6188 0.0
H769 H 0.0024 0.63211 0.58889 0.0
H770 H 0.01521 0.65306 0.64406 0.0
H771 H 0.13296 0.71547 0.48186 0.0
H772 H 0.135 0.76211 0.47305 0.0
H773 H 0.09115 0.71625 0.45878 0.0
C774 C 0.49564 0.13823 0.96871 0.0
C775 C 0.49248 0.15738 0.00657 0.0
C776 C 0.52804 0.13228 0.96332 0.0
C777 C 0.55848 0.14752 0.99561 0.0
C778 C 0.55438 0.16523 0.03483 0.0
C779 C 0.521 0.16922 0.04018 0.0
C780 C 0.53049 0.11129 0.92234 0.0
C781 C 0.58656 0.18268 0.0697 0.0
C782 C 0.64538 0.13123 0.00787 0.0
C783 C 0.67519 0.16542 0.98742 0.0
C784 C 0.6059 0.1225 0.00664 0.0
C785 C 0.59687 0.14983 0.98656 0.0
C786 C 0.62678 0.18342 0.96396 0.0
C787 C 0.6656 0.19035 0.96393 0.0
C788 C 0.57452 0.08547 0.02928 0.0
C789 C 0.6187 0.21404 0.9435 0.0
H790 H 0.47317 0.12854 0.94306 0.0
H791 H 0.51859 0.18405 0.06953 0.0
H792 H 0.55155 0.13331 0.89827 0.0
H793 H 0.54163 0.09092 0.93086 0.0
H794 H 0.50125 0.09411 0.90576 0.0
H795 H 0.57833 0.19495 0.0985 0.0
H796 H 0.59317 0.15989 0.08217 0.0
H797 H 0.61421 0.2068 0.0548 0.0
H798 H 0.65312 0.11192 0.02577 0.0
H799 H 0.689 0.21695 0.94848 0.0
H800 H 0.54609 0.07243 0.01088 0.0
H801 H 0.56922 0.09283 0.06329 0.0
H802 H 0.58381 0.06288 0.03222 0.0
H803 H 0.59325 0.19985 0.92038 0.0
H804 H 0.64472 0.2372 0.92507 0.0
H805 H 0.61081 0.22866 0.97008 0.0
C806 C 0.7684 0.4401 0.96081 0.0
C807 C 0.79903 0.47928 0.95608 0.0
C808 C 0.77534 0.40859 0.95492 0.0
C809 C 0.81416 0.41659 0.94489 0.0
C810 C 0.84463 0.45603 0.93686 0.0
C811 C 0.83659 0.48713 0.9423 0.0
C812 C 0.74171 0.36693 0.96292 0.0
C813 C 0.88629 0.46569 0.92598 0.0
C814 C 0.82714 0.33845 1.00179 0.0
C815 C 0.81754 0.31085 0.96757 0.0
C816 C 0.8306 0.37529 0.9936 0.0
C817 C 0.82326 0.3842 0.95026 0.0
C818 C 0.81707 0.35783 0.91475 0.0
C819 C 0.81452 0.32128 0.92383 0.0
C820 C 0.83825 0.40293 0.0323 0.0
C821 C 0.80944 0.36646 0.86809 0.0
H822 H 0.73914 0.43414 0.9707 0.0
H823 H 0.86021 0.51756 0.93856 0.0
H824 H 0.74035 0.3469 0.93592 0.0
H825 H 0.74677 0.35556 0.99458 0.0
H826 H 0.71258 0.36551 0.96504 0.0
H827 H 0.90376 0.49558 0.91089 0.0
H828 H 0.90135 0.46511 0.95699 0.0
H829 H 0.88628 0.44347 0.90293 0.0
H830 H 0.83005 0.3304 0.03551 0.0
H831 H 0.80718 0.29981 0.89739 0.0
H832 H 0.81031 0.40219 0.04152 0.0
H833 H 0.86019 0.43385 0.02312 0.0
H834 H 0.84929 0.39448 0.06197 0.0
H835 H 0.77831 0.3598 0.86553 0.0
H836 H 0.81407 0.34809 0.84322 0.0
H837 H 0.8289 0.39818 0.85971 0.0
C838 C 0.63675 0.47415 0.00859 0.0
C839 C 0.66461 0.48861 0.97399 0.0
C840 C 0.59982 0.43992 0.00282 0.0
C841 C 0.59075 0.41978 0.96154 0.0
C842 C 0.61683 0.43681 0.92511 0.0
C843 C 0.65353 0.47114 0.93174 0.0
C844 C 0.57234 0.42315 0.04228 0.0
C845 C 0.60787 0.41664 0.88036 0.0
C846 C 0.53833 0.30936 0.97815 0.0
C847 C 0.49886 0.29849 0.9701 0.0
C848 C 0.56869 0.34848 0.97289 0.0
C849 C 0.5592 0.3776 0.95979 0.0
C850 C 0.5196 0.36639 0.94891 0.0
C851 C 0.48969 0.32663 0.95404 0.0
C852 C 0.61064 0.35893 0.98395 0.0
C853 C 0.50841 0.39655 0.93466 0.0
H854 H 0.64467 0.48807 0.04105 0.0
H855 H 0.67453 0.4826 0.90448 0.0
H856 H 0.54125 0.41243 0.03228 0.0
H857 H 0.57389 0.39746 0.05572 0.0
H858 H 0.58039 0.44532 0.06929 0.0
H859 H 0.62635 0.43732 0.85362 0.0
H860 H 0.61411 0.39184 0.8816 0.0
H861 H 0.57618 0.40402 0.87167 0.0
H862 H 0.54532 0.28734 0.99014 0.0
H863 H 0.45901 0.3181 0.94811 0.0
H864 H 0.62087 0.37813 0.01388 0.0
H865 H 0.63093 0.37574 0.95623 0.0
H866 H 0.61324 0.3323 0.99055 0.0
H867 H 0.50711 0.41276 0.96435 0.0
H868 H 0.47897 0.38237 0.91822 0.0
H869 H 0.53082 0.41863 0.91164 0.0
C870 C 0.33784 0.51868 0.26479 0.0
C871 C 0.35096 0.51895 0.30817 0.0
C872 C 0.30068 0.51529 0.25732 0.0
C873 C 0.27627 0.51143 0.29411 0.0
C874 C 0.28818 0.50817 0.3376 0.0
C875 C 0.3256 0.51246 0.3441 0.0
C876 C 0.289 0.51889 0.21053 0.0
C877 C 0.26269 0.50311 0.37773 0.0
C878 C 0.21441 0.56044 0.30091 0.0
C879 C 0.17602 0.5278 0.29961 0.0
C880 C 0.24738 0.55577 0.29507 0.0
C881 C 0.24174 0.5173 0.2888 0.0
C882 C 0.20289 0.48452 0.2844 0.0
C883 C 0.17026 0.49025 0.28954 0.0
C884 C 0.28825 0.5917 0.2991 0.0
C885 C 0.19571 0.4431 0.27788 0.0
H886 H 0.35752 0.52358 0.237 0.0
H887 H 0.3356 0.51197 0.37761 0.0
H888 H 0.25727 0.4973 0.20453 0.0
H889 H 0.29323 0.54897 0.2057 0.0
H890 H 0.30716 0.51421 0.18539 0.0
H891 H 0.27373 0.49565 0.40815 0.0
H892 H 0.26243 0.53103 0.3839 0.0
H893 H 0.23167 0.47944 0.37181 0.0
H894 H 0.21867 0.58958 0.30815 0.0
H895 H 0.14041 0.46506 0.28864 0.0
H896 H 0.30778 0.59211 0.27201 0.0
H897 H 0.30171 0.59052 0.33112 0.0
H898 H 0.28752 0.61981 0.29798 0.0
H899 H 0.21707 0.44279 0.25373 0.0
H900 H 0.16512 0.42257 0.26613 0.0
H901 H 0.20002 0.4318 0.31 0.0
C902 C 0.51766 0.83498 0.30512 0.0
C903 C 0.4816 0.8272 0.324 0.0
C904 C 0.52684 0.80459 0.30062 0.0
C905 C 0.49893 0.7658 0.31474 0.0
C906 C 0.46184 0.75772 0.33207 0.0
C907 C 0.45383 0.7886 0.33683 0.0
C908 C 0.5668 0.81429 0.28252 0.0
C909 C 0.43082 0.71656 0.34661 0.0
C910 C 0.49115 0.6697 0.28043 0.0
C911 C 0.49972 0.65769 0.32085 0.0
C912 C 0.49494 0.70718 0.2761 0.0
C913 C 0.50791 0.73317 0.31296 0.0
C914 C 0.52123 0.72304 0.35187 0.0
C915 C 0.51681 0.68524 0.35545 0.0
C916 C 0.48081 0.71704 0.2339 0.0
C917 C 0.53623 0.75043 0.39149 0.0
H918 H 0.5392 0.86501 0.29555 0.0
H919 H 0.42575 0.78257 0.35098 0.0
H920 H 0.58532 0.81349 0.31001 0.0
H921 H 0.5638 0.792 0.25757 0.0
H922 H 0.58258 0.84414 0.26703 0.0
H923 H 0.40287 0.71511 0.35742 0.0
H924 H 0.4239 0.69523 0.31898 0.0
H925 H 0.44229 0.70678 0.37467 0.0
H926 H 0.47866 0.64886 0.25315 0.0
H927 H 0.52452 0.67651 0.38639 0.0
H928 H 0.50048 0.74844 0.2244 0.0
H929 H 0.45071 0.71263 0.23943 0.0
H930 H 0.4793 0.69783 0.2058 0.0
H931 H 0.55617 0.78145 0.38081 0.0
H932 H 0.55234 0.74177 0.41527 0.0
H933 H 0.51076 0.74945 0.40921 0.0
C934 C 0.32895 0.80445 0.37625 0.0
C935 C 0.34522 0.83526 0.34523 0.0
C936 C 0.29093 0.77207 0.37026 0.0
C937 C 0.26823 0.77142 0.33323 0.0
C938 C 0.28359 0.80385 0.30345 0.0
C939 C 0.3225 0.83513 0.30922 0.0
C940 C 0.27612 0.73755 0.40208 0.0
C941 C 0.25948 0.80489 0.26484 0.0
C942 C 0.19693 0.66739 0.2958 0.0
C943 C 0.16377 0.65866 0.32179 0.0
C944 C 0.23064 0.70506 0.29709 0.0
C945 C 0.23034 0.73488 0.32373 0.0
C946 C 0.19541 0.72715 0.34656 0.0
C947 C 0.16268 0.68868 0.34614 0.0
C948 C 0.2677 0.71163 0.27353 0.0
C949 C 0.19347 0.7586 0.3739 0.0
H950 H 0.34686 0.80458 0.40387 0.0
H951 H 0.33526 0.85932 0.28553 0.0
H952 H 0.24761 0.73134 0.41714 0.0
H953 H 0.27065 0.71056 0.38377 0.0
H954 H 0.29749 0.743 0.42928 0.0
H955 H 0.27308 0.83473 0.24939 0.0
H956 H 0.25701 0.78341 0.2391 0.0
H957 H 0.22899 0.7961 0.27586 0.0
H958 H 0.19777 0.6439 0.2774 0.0
H959 H 0.13679 0.68172 0.36609 0.0
H960 H 0.29032 0.7156 0.29853 0.0
H961 H 0.28043 0.73892 0.25312 0.0
H962 H 0.26209 0.68637 0.25167 0.0
H963 H 0.20844 0.76191 0.40624 0.0
H964 H 0.16238 0.7508 0.38074 0.0
H965 H 0.20891 0.78769 0.35676 0.0
C966 C 0.01213 0.88208 0.64791 0.0
C967 C 0.02427 0.85457 0.63893 0.0
C968 C 0.97223 0.87129 0.64567 0.0
C969 C 0.94368 0.83176 0.63483 0.0
C970 C 0.95591 0.80419 0.62383 0.0
C971 C -0.00364 0.81607 0.62577 0.0
C972 C 0.96059 0.90194 0.6567 0.0
C973 C 0.92631 0.76179 0.6124 0.0
C974 C 0.84732 0.81207 0.68501 0.0
C975 C 0.83174 0.82358 0.64983 0.0
C976 C 0.88191 0.80999 0.67922 0.0
C977 C 0.9012 0.81983 0.63739 0.0
C978 C 0.88292 0.82661 0.60057 0.0
C979 C 0.84825 0.82828 0.60721 0.0
C980 C 0.89998 0.80147 0.71903 0.0
C981 C 0.90222 0.83653 0.55528 0.0
H982 H 0.03389 0.91196 0.65777 0.0
H983 H 0.00587 0.79474 0.61931 0.0
H984 H 0.9424 0.90383 0.62953 0.0
H985 H 0.94233 0.89317 0.6874 0.0
H986 H 0.98671 0.93185 0.66193 0.0
H987 H 0.94071 0.74654 0.5964 0.0
H988 H 0.91153 0.74556 0.6433 0.0
H989 H 0.90297 0.76008 0.58995 0.0
H990 H 0.83416 0.80736 0.71783 0.0
H991 H 0.83583 0.83618 0.5795 0.0
H992 H 0.92508 0.82963 0.73159 0.0
H993 H 0.91183 0.78185 0.70977 0.0
H994 H 0.87821 0.78738 0.74646 0.0
H995 H 0.92673 0.86776 0.55516 0.0
H996 H 0.88091 0.83304 0.52876 0.0
H997 H 0.91511 0.81756 0.54724 0.0
C998 C 0.17354 0.00602 0.61163 0.0
C999 C 0.1731 0.99295 0.65522 0.0
C1000 C 0.17675 0.04287 0.6036 0.0
C1001 C 0.17961 0.06705 0.64003 0.0
C1002 C 0.18431 0.05624 0.68358 0.0
C1003 C 0.18095 0.01917 0.69072 0.0
C1004 C 0.17266 0.05382 0.55659 0.0
C1005 C 0.18854 0.08185 0.72321 0.0
C1006 C 0.18566 0.16689 0.62711 0.0
C1007 C 0.14607 0.15603 0.63475 0.0
C1008 C 0.19727 0.13808 0.62691 0.0
C1009 C 0.1684 0.09788 0.63416 0.0
C1010 C 0.128 0.08677 0.63882 0.0
C1011 C 0.11743 0.11605 0.6393 0.0
C1012 C 0.24056 0.15104 0.62178 0.0
C1013 C 0.09605 0.04413 0.64574 0.0
H1014 H 0.16865 0.98639 0.58383 0.0
H1015 H 0.18167 0.00973 0.72442 0.0
H1016 H 0.14186 0.04742 0.55126 0.0
H1017 H 0.19274 0.08588 0.55053 0.0
H1018 H 0.17914 0.03668 0.5318 0.0
H1019 H 0.19882 0.073 0.75321 0.0
H1020 H 0.20966 0.11346 0.71594 0.0
H1021 H 0.15941 0.07911 0.73085 0.0
H1022 H 0.2078 0.19796 0.62405 0.0
H1023 H 0.08675 0.10779 0.64488 0.0
H1024 H 0.24468 0.12958 0.60153 0.0
H1025 H 0.25345 0.15256 0.65507 0.0
H1026 H 0.25734 0.18077 0.60617 0.0
H1027 H 0.09728 0.02518 0.61899 0.0
H1028 H 0.06588 0.04041 0.64615 0.0
H1029 H 0.10089 0.03318 0.67782 0.0
C1030 C 0.88275 0.98364 0.65019 0.0
C1031 C 0.8437 0.97156 0.63816 0.0
C1032 C 0.91242 0.02322 0.64656 0.0
C1033 C 0.90258 0.05151 0.63111 0.0
C1034 C 0.86346 0.03929 0.61723 0.0
C1035 C 0.83434 -0.00084 0.62071 0.0
C1036 C 0.95403 0.03489 0.66084 0.0
C1037 C 0.85191 0.06865 0.60083 0.0
C1038 C 0.9777 0.14937 0.67878 0.0
C1039 C 0.00649 0.16308 0.64516 0.0
C1040 C 0.94106 0.11493 0.6727 0.0
C1041 C 0.93341 0.09385 0.63221 0.0
C1042 C 0.96033 0.11022 0.59639 0.0
C1043 C -0.00334 0.14485 0.60325 0.0
C1044 C 0.91251 0.09887 0.71132 0.0
C1045 C 0.95288 0.0889 0.55247 0.0
H1046 H 0.89001 0.96212 0.6632 0.0
H1047 H 0.80397 0.98971 0.61169 0.0
H1048 H 0.97539 0.05152 0.63387 0.0
H1049 H 0.96248 0.05466 0.69025 0.0
H1050 H 0.95704 0.00885 0.66958 0.0
H1051 H 0.82285 0.0538 0.58357 0.0
H1052 H 0.84976 0.08534 0.62956 0.0
H1053 H 0.87464 0.09047 0.57788 0.0
H1054 H 0.98471 0.16397 0.71089 0.0
H1055 H 0.01843 0.15578 0.57673 0.0
H1056 H 0.91444 0.07413 0.72697 0.0
H1057 H 0.88158 0.08701 0.69987 0.0
H1058 H 0.91926 0.12184 0.73706 0.0
H1059 H 0.95933 0.06436 0.5559 0.0
H1060 H 0.97204 0.10896 0.52567 0.0
H1061 H 0.92145 0.07577 0.54237 0.0
loop_
_geom_bond_atom_site_label_1
_geom_bond_atom_site_label_2
_geom_bond_distance
_geom_bond_site_symmetry_2
_ccdc_geom_bond_type
Fe0 O2 1.918 1_556 S
Fe0 O5 1.997 . S
Fe0 O6 2.002 . S
Fe0 O11 1.976 . S
Fe0 O14 1.996 . S
Fe1 O2 1.918 . S
Fe1 O9 1.997 1_554 S
Fe1 O12 1.996 1_554 S
Fe1 O16 1.976 . S
Fe1 O19 2.002 . S
O2 Fe0 1.918 1_554 S
O2 Fe1 1.918 . S
O2 Fe3 1.918 . S
Fe3 O2 1.918 . S
Fe3 O4 2.002 . S
Fe3 O13 1.976 . S
Fe3 O17 1.996 . S
Fe3 O20 1.997 . S
O4 Fe3 2.002 . S
O4 C21 1.295 1_554 S
O5 Fe0 1.997 . S
O5 C21 1.235 . S
O6 Fe0 2.002 . S
O6 C7 1.295 . S
C7 O6 1.295 . S
C7 O9 1.235 . S
C8 O13 1.287 1_556 S
C8 O14 1.255 . S
O9 Fe1 1.997 1_556 S
O9 C7 1.235 . S
C10 O16 1.287 . S
C10 O17 1.255 . S
O11 Fe0 1.976 . S
O11 C18 1.287 . S
O12 Fe1 1.996 1_556 S
O12 C18 1.255 . S
O13 Fe3 1.976 . S
O13 C8 1.287 1_554 S
O14 Fe0 1.996 . S
O14 C8 1.255 . S
C15 O19 1.295 . S
C15 O20 1.235 . S
O16 Fe1 1.976 . S
O16 C10 1.287 . S
O17 Fe3 1.996 . S
O17 C10 1.255 . S
C18 O11 1.287 . S
C18 O12 1.255 . S
O19 Fe1 2.002 . S
O19 C15 1.295 . S
O20 Fe3 1.997 . S
O20 C15 1.235 . S
C21 O4 1.295 1_556 S
C21 O5 1.235 . S
Fe22 O24 1.918 . S
Fe22 O27 1.997 1_554 S
Fe22 O28 2.002 . S
Fe22 O33 1.976 . S
Fe22 O36 1.996 1_554 S
Fe23 O24 1.918 . S
Fe23 O31 1.997 . S
Fe23 O34 1.996 . S
Fe23 O38 1.976 . S
Fe23 O41 2.002 . S
O24 Fe22 1.918 . S
O24 Fe23 1.918 . S
O24 Fe25 1.918 1_554 S
Fe25 O24 1.918 1_556 S
Fe25 O26 2.002 . S
Fe25 O35 1.976 . S
Fe25 O39 1.996 . S
Fe25 O42 1.997 . S
O26 Fe25 2.002 . S
O26 C43 1.295 . S
O27 Fe22 1.997 1_556 S
O27 C43 1.235 . S
O28 Fe22 2.002 . S
O28 C29 1.295 . S
C29 O28 1.295 . S
C29 O31 1.235 . S
C30 O35 1.287 . S
C30 O36 1.255 . S
O31 Fe23 1.997 . S
O31 C29 1.235 . S
C32 O38 1.287 1_556 S
C32 O39 1.255 . S
O33 Fe22 1.976 . S
O33 C40 1.287 . S
O34 Fe23 1.996 . S
O34 C40 1.255 . S
O35 Fe25 1.976 . S
O35 C30 1.287 . S
O36 Fe22 1.996 1_556 S
O36 C30 1.255 . S
C37 O41 1.295 1_556 S
C37 O42 1.235 . S
O38 Fe23 1.976 . S
O38 C32 1.287 1_554 S
O39 Fe25 1.996 . S
O39 C32 1.255 . S
C40 O33 1.287 . S
C40 O34 1.255 . S
O41 Fe23 2.002 . S
O41 C37 1.295 1_554 S
O42 Fe25 1.997 . S
O42 C37 1.235 . S
C43 O26 1.295 . S
C43 O27 1.235 . S
Fe44 O46 1.918 1_556 S
Fe44 O49 1.997 . S
Fe44 O50 2.002 . S
Fe44 O55 1.976 . S
Fe44 O58 1.996 . S
Fe45 O46 1.918 . S
Fe45 O53 1.997 1_554 S
Fe45 O56 1.996 1_554 S
Fe45 O60 1.976 . S
Fe45 O63 2.002 . S
O46 Fe44 1.918 1_554 S
O46 Fe45 1.918 . S
O46 Fe47 1.918 . S
Fe47 O46 1.918 . S
Fe47 O48 2.002 . S
Fe47 O57 1.976 . S
Fe47 O61 1.996 . S
Fe47 O64 1.997 . S
O48 Fe47 2.002 . S
O48 C65 1.295 1_554 S
O49 Fe44 1.997 . S
O49 C65 1.235 . S
O50 Fe44 2.002 . S
O50 C51 1.295 . S
C51 O50 1.295 . S
C51 O53 1.235 . S
C52 O57 1.287 1_556 S
C52 O58 1.255 . S
O53 Fe45 1.997 1_556 S
O53 C51 1.235 . S
C54 O60 1.287 . S
C54 O61 1.255 . S
O55 Fe44 1.976 . S
O55 C62 1.287 . S
O56 Fe45 1.996 1_556 S
O56 C62 1.255 . S
O57 Fe47 1.976 . S
O57 C52 1.287 1_554 S
O58 Fe44 1.996 . S
O58 C52 1.255 . S
C59 O63 1.295 . S
C59 O64 1.235 . S
O60 Fe45 1.976 . S
O60 C54 1.287 . S
O61 Fe47 1.996 . S
O61 C54 1.255 . S
C62 O55 1.287 . S
C62 O56 1.255 . S
O63 Fe45 2.002 . S
O63 C59 1.295 . S
O64 Fe47 1.997 . S
O64 C59 1.235 . S
C65 O48 1.295 1_556 S
C65 O49 1.235 . S
Fe66 O68 1.918 . S
Fe66 O71 1.997 . S
Fe66 O72 2.002 . S
Fe66 O77 1.976 . S
Fe66 O80 1.996 . S
Fe67 O68 1.918 . S
Fe67 O75 1.997 . S
Fe67 O78 1.996 . S
Fe67 O82 1.976 . S
Fe67 O85 2.002 . S
O68 Fe66 1.918 . S
O68 Fe67 1.918 . S
O68 Fe69 1.918 . S
Fe69 O68 1.918 . S
Fe69 O70 2.002 . S
Fe69 O79 1.976 . S
Fe69 O83 1.996 . S
Fe69 O86 1.997 . S
O70 Fe69 2.002 . S
O70 C87 1.295 . S
O71 Fe66 1.997 . S
O71 C87 1.235 . S
O72 Fe66 2.002 . S
O72 C73 1.295 . S
C73 O72 1.295 . S
C73 O75 1.235 . S
C74 O79 1.287 . S
C74 O80 1.255 . S
O75 Fe67 1.997 . S
O75 C73 1.235 . S
C76 O82 1.287 . S
C76 O83 1.255 . S
O77 Fe66 1.976 . S
O77 C84 1.287 . S
O78 Fe67 1.996 . S
O78 C84 1.255 . S
O79 Fe69 1.976 . S
O79 C74 1.287 . S
O80 Fe66 1.996 . S
O80 C74 1.255 . S
C81 O85 1.295 . S
C81 O86 1.235 . S
O82 Fe67 1.976 . S
O82 C76 1.287 . S
O83 Fe69 1.996 . S
O83 C76 1.255 . S
C84 O77 1.287 . S
C84 O78 1.255 . S
O85 Fe67 2.002 . S
O85 C81 1.295 . S
O86 Fe69 1.997 . S
O86 C81 1.235 . S
C87 O70 1.295 . S
C87 O71 1.235 . S
Fe88 O90 1.918 . S
Fe88 O93 1.997 . S
Fe88 O94 2.002 . S
Fe88 O99 1.976 . S
Fe88 O102 1.996 . S
Fe89 O90 1.918 . S
Fe89 O97 1.997 . S
Fe89 O100 1.996 . S
Fe89 O104 1.976 . S
Fe89 O107 2.002 . S
O90 Fe88 1.918 . S
O90 Fe89 1.918 . S
O90 Fe91 1.918 . S
Fe91 O90 1.918 . S
Fe91 O92 2.002 . S
Fe91 O101 1.976 . S
Fe91 O105 1.996 . S
Fe91 O108 1.997 . S
O92 Fe91 2.002 . S
O92 C109 1.295 . S
O93 Fe88 1.997 . S
O93 C109 1.235 . S
O94 Fe88 2.002 . S
O94 C95 1.295 . S
C95 O94 1.295 . S
C95 O97 1.235 . S
C96 O101 1.287 . S
C96 O102 1.255 . S
O97 Fe89 1.997 . S
O97 C95 1.235 . S
C98 O104 1.287 . S
C98 O105 1.255 . S
O99 Fe88 1.976 . S
O99 C106 1.287 . S
O100 Fe89 1.996 . S
O100 C106 1.255 . S
O101 Fe91 1.976 . S
O101 C96 1.287 . S
O102 Fe88 1.996 . S
O102 C96 1.255 . S
C103 O107 1.295 . S
C103 O108 1.235 . S
O104 Fe89 1.976 . S
O104 C98 1.287 . S
O105 Fe91 1.996 . S
O105 C98 1.255 . S
C106 O99 1.287 . S
C106 O100 1.255 . S
O107 Fe89 2.002 . S
O107 C103 1.295 . S
O108 Fe91 1.997 . S
O108 C103 1.235 . S
C109 O92 1.295 . S
C109 O93 1.235 . S
Fe110 O112 1.918 . S
Fe110 O115 1.997 . S
Fe110 O116 2.002 . S
Fe110 O121 1.976 . S
Fe110 O124 1.996 . S
Fe111 O112 1.918 . S
Fe111 O119 1.997 . S
Fe111 O122 1.996 . S
Fe111 O126 1.976 . S
Fe111 O129 2.002 . S
O112 Fe110 1.918 . S
O112 Fe111 1.918 . S
O112 Fe113 1.918 . S
Fe113 O112 1.918 . S
Fe113 O114 2.002 . S
Fe113 O123 1.976 . S
Fe113 O127 1.996 . S
Fe113 O130 1.997 . S
O114 Fe113 2.002 . S
O114 C131 1.295 . S
O115 Fe110 1.997 . S
O115 C131 1.235 . S
O116 Fe110 2.002 . S
O116 C117 1.295 . S
C117 O116 1.295 . S
C117 O119 1.235 . S
C118 O123 1.287 . S
C118 O124 1.255 . S
O119 Fe111 1.997 . S
O119 C117 1.235 . S
C120 O126 1.287 . S
C120 O127 1.255 . S
O121 Fe110 1.976 . S
O121 C128 1.287 . S
O122 Fe111 1.996 . S
O122 C128 1.255 . S
O123 Fe113 1.976 . S
O123 C118 1.287 . S
O124 Fe110 1.996 . S
O124 C118 1.255 . S
C125 O129 1.295 . S
C125 O130 1.235 . S
O126 Fe111 1.976 . S
O126 C120 1.287 . S
O127 Fe113 1.996 . S
O127 C120 1.255 . S
C128 O121 1.287 . S
C128 O122 1.255 . S
O129 Fe111 2.002 . S
O129 C125 1.295 . S
O130 Fe113 1.997 . S
O130 C125 1.235 . S
C131 O114 1.295 . S
C131 O115 1.235 . S
Fe132 O134 1.918 . S
Fe132 O137 1.997 . S
Fe132 O138 2.002 . S
Fe132 O143 1.976 . S
Fe132 O146 1.996 . S
Fe133 O134 1.918 . S
Fe133 O141 1.997 . S
Fe133 O144 1.996 . S
Fe133 O148 1.976 . S
Fe133 O151 2.002 . S
O134 Fe132 1.918 . S
O134 Fe133 1.918 . S
O134 Fe135 1.918 . S
Fe135 O134 1.918 . S
Fe135 O136 2.002 . S
Fe135 O145 1.976 . S
Fe135 O149 1.996 . S
Fe135 O152 1.997 . S
O136 Fe135 2.002 . S
O136 C153 1.295 . S
O137 Fe132 1.997 . S
O137 C153 1.235 . S
O138 Fe132 2.002 . S
O138 C139 1.295 . S
C139 O138 1.295 . S
C139 O141 1.235 . S
C140 O145 1.287 . S
C140 O146 1.255 . S
O141 Fe133 1.997 . S
O141 C139 1.235 . S
C142 O148 1.287 . S
C142 O149 1.255 . S
O143 Fe132 1.976 . S
O143 C150 1.287 . S
O144 Fe133 1.996 . S
O144 C150 1.255 . S
O145 Fe135 1.976 . S
O145 C140 1.287 . S
O146 Fe132 1.996 . S
O146 C140 1.255 . S
C147 O151 1.295 . S
C147 O152 1.235 . S
O148 Fe133 1.976 . S
O148 C142 1.287 . S
O149 Fe135 1.996 . S
O149 C142 1.255 . S
C150 O143 1.287 . S
C150 O144 1.255 . S
O151 Fe133 2.002 . S
O151 C147 1.295 . S
O152 Fe135 1.997 . S
O152 C147 1.235 . S
C153 O136 1.295 . S
C153 O137 1.235 . S
Fe154 O156 1.918 . S
Fe154 O159 1.997 . S
Fe154 O160 2.002 . S
Fe154 O165 1.976 . S
Fe154 O168 1.996 . S
Fe155 O156 1.918 . S
Fe155 O163 1.997 . S
Fe155 O166 1.996 . S
Fe155 O170 1.976 . S
Fe155 O173 2.002 . S
O156 Fe154 1.918 . S
O156 Fe155 1.918 . S
O156 Fe157 1.918 . S
Fe157 O156 1.918 . S
Fe157 O158 2.002 . S
Fe157 O167 1.976 . S
Fe157 O171 1.996 . S
Fe157 O174 1.997 . S
O158 Fe157 2.002 . S
O158 C175 1.295 . S
O159 Fe154 1.997 . S
O159 C175 1.235 . S
O160 Fe154 2.002 . S
O160 C161 1.295 . S
C161 O160 1.295 . S
C161 O163 1.235 . S
C162 O167 1.287 . S
C162 O168 1.255 . S
O163 Fe155 1.997 . S
O163 C161 1.235 . S
C164 O170 1.287 . S
C164 O171 1.255 . S
O165 Fe154 1.976 . S
O165 C172 1.287 . S
O166 Fe155 1.996 . S
O166 C172 1.255 . S
O167 Fe157 1.976 . S
O167 C162 1.287 . S
O168 Fe154 1.996 . S
O168 C162 1.255 . S
C169 O173 1.295 . S
C169 O174 1.235 . S
O170 Fe155 1.976 . S
O170 C164 1.287 . S
O171 Fe157 1.996 . S
O171 C164 1.255 . S
C172 O165 1.287 . S
C172 O166 1.255 . S
O173 Fe155 2.002 . S
O173 C169 1.295 . S
O174 Fe157 1.997 . S
O174 C169 1.235 . S
C175 O158 1.295 . S
C175 O159 1.235 . S
Fe176 O178 1.918 . S
Fe176 O181 1.997 . S
Fe176 O182 2.002 . S
Fe176 O187 1.976 . S
Fe176 O190 1.996 . S
Fe177 O178 1.918 . S
Fe177 O185 1.997 . S
Fe177 O188 1.996 . S
Fe177 O192 1.976 . S
Fe177 O195 2.002 . S
O178 Fe176 1.918 . S
O178 Fe177 1.918 . S
O178 Fe179 1.918 . S
Fe179 O178 1.918 . S
Fe179 O180 2.002 . S
Fe179 O189 1.976 . S
Fe179 O193 1.996 . S
Fe179 O196 1.997 . S
O180 Fe179 2.002 . S
O180 C197 1.295 . S
O181 Fe176 1.997 . S
O181 C197 1.235 . S
O182 Fe176 2.002 . S
O182 C183 1.295 . S
C183 O182 1.295 . S
C183 O185 1.235 . S
C184 O189 1.287 . S
C184 O190 1.255 . S
O185 Fe177 1.997 . S
O185 C183 1.235 . S
C186 O192 1.287 . S
C186 O193 1.255 . S
O187 Fe176 1.976 . S
O187 C194 1.287 . S
O188 Fe177 1.996 . S
O188 C194 1.255 . S
O189 Fe179 1.976 . S
O189 C184 1.287 . S
O190 Fe176 1.996 . S
O190 C184 1.255 . S
C191 O195 1.295 . S
C191 O196 1.235 . S
O192 Fe177 1.976 . S
O192 C186 1.287 . S
O193 Fe179 1.996 . S
O193 C186 1.255 . S
C194 O187 1.287 . S
C194 O188 1.255 . S
O195 Fe177 2.002 . S
O195 C191 1.295 . S
O196 Fe179 1.997 . S
O196 C191 1.235 . S
C197 O180 1.295 . S
C197 O181 1.235 . S
C198 C199 1.391 . S
C198 C200 1.394 . S
C198 H214 0.931 . S
C199 C198 1.391 . S
C199 C203 1.376 . S
C200 C198 1.394 . S
C200 C201 1.369 . S
C200 C204 1.531 . S
C201 C200 1.369 . S
C201 C202 1.410 . S
C201 C209 1.503 1_545 S
C202 C201 1.410 . S
C202 C203 1.392 . S
C202 C205 1.511 . S
C203 C199 1.376 . S
C203 C202 1.392 . S
C203 H215 0.929 . S
C204 C200 1.531 . S
C204 H216 0.960 . S
C204 H217 0.962 . S
C204 H218 0.960 . S
C205 C202 1.511 . S
C205 H219 0.961 . S
C205 H220 0.961 1_545 S
C205 H221 0.961 . S
C206 C207 1.370 . S
C206 C208 1.363 . S
C206 H222 0.931 . S
C207 C206 1.370 . S
C207 C211 1.408 . S
C208 C206 1.363 . S
C208 C209 1.370 . S
C208 C212 1.524 . S
C209 C201 1.503 1_565 S
C209 C208 1.370 . S
C209 C210 1.403 . S
C210 C209 1.403 . S
C210 C211 1.404 . S
C210 C213 1.539 1_565 S
C211 C207 1.408 . S
C211 C210 1.404 . S
C211 H223 0.930 . S
C212 C208 1.524 . S
C212 H224 0.956 . S
C212 H225 0.961 . S
C212 H226 0.961 . S
C213 C210 1.539 1_545 S
C213 H227 0.958 . S
C213 H228 0.961 . S
C213 H229 0.960 . S
H214 C198 0.931 . S
H215 C203 0.929 . S
H216 C204 0.960 . S
H217 C204 0.962 . S
H218 C204 0.960 . S
H219 C205 0.961 . S
H220 C205 0.961 1_565 S
H221 C205 0.961 . S
H222 C206 0.931 . S
H223 C211 0.930 . S
H224 C212 0.956 . S
H225 C212 0.961 . S
H226 C212 0.961 . S
H227 C213 0.958 . S
H228 C213 0.961 . S
H229 C213 0.960 . S
C230 C231 1.391 . S
C230 C232 1.394 . S
C230 H246 0.931 . S
C231 C230 1.391 . S
C231 C235 1.376 . S
C232 C230 1.394 . S
C232 C233 1.369 . S
C232 C236 1.531 . S
C233 C232 1.369 . S
C233 C234 1.410 . S
C233 C241 1.503 1_655 S
C234 C233 1.410 . S
C234 C235 1.392 . S
C234 C237 1.511 . S
C235 C231 1.376 . S
C235 C234 1.392 . S
C235 H247 0.929 . S
C236 C232 1.531 . S
C236 H248 0.960 1_655 S
C236 H249 0.962 1_655 S
C236 H250 0.960 . S
C237 C234 1.511 . S
C237 H251 0.961 . S
C237 H252 0.961 . S
C237 H253 0.961 . S
C238 C239 1.370 . S
C238 C240 1.363 . S
C238 H254 0.931 . S
C239 C238 1.370 . S
C239 C243 1.408 . S
C240 C238 1.363 . S
C240 C241 1.370 . S
C240 C244 1.524 . S
C241 C233 1.503 1_455 S
C241 C240 1.370 . S
C241 C242 1.403 . S
C242 C241 1.403 . S
C242 C243 1.404 . S
C242 C245 1.539 1_455 S
C243 C239 1.408 . S
C243 C242 1.404 . S
C243 H255 0.930 . S
C244 C240 1.524 . S
C244 H256 0.956 . S
C244 H257 0.961 . S
C244 H258 0.961 . S
C245 C242 1.539 1_655 S
C245 H259 0.958 . S
C245 H260 0.961 . S
C245 H261 0.960 . S
H246 C230 0.931 . S
H247 C235 0.929 . S
H248 C236 0.960 1_455 S
H249 C236 0.962 1_455 S
H250 C236 0.960 . S
H251 C237 0.961 . S
H252 C237 0.961 . S
H253 C237 0.961 . S
H254 C238 0.931 . S
H255 C243 0.930 . S
H256 C244 0.956 . S
H257 C244 0.961 . S
H258 C244 0.961 . S
H259 C245 0.958 . S
H260 C245 0.961 . S
H261 C245 0.960 . S
C262 C263 1.391 . S
C262 C264 1.394 . S
C262 H278 0.931 . S
C263 C262 1.391 . S
C263 C267 1.376 . S
C264 C262 1.394 . S
C264 C265 1.369 . S
C264 C268 1.531 . S
C265 C264 1.369 . S
C265 C266 1.410 . S
C265 C273 1.503 . S
C266 C265 1.410 . S
C266 C267 1.392 . S
C266 C269 1.511 . S
C267 C263 1.376 . S
C267 C266 1.392 . S
C267 H279 0.929 . S
C268 C264 1.531 . S
C268 H280 0.960 . S
C268 H281 0.962 . S
C268 H282 0.960 . S
C269 C266 1.511 . S
C269 H283 0.961 . S
C269 H284 0.961 . S
C269 H285 0.961 . S
C270 C271 1.370 . S
C270 C272 1.363 . S
C270 H286 0.931 . S
C271 C270 1.370 . S
C271 C275 1.408 . S
C272 C270 1.363 . S
C272 C273 1.370 . S
C272 C276 1.524 . S
C273 C265 1.503 . S
C273 C272 1.370 . S
C273 C274 1.403 . S
C274 C273 1.403 . S
C274 C275 1.404 . S
C274 C277 1.539 . S
C275 C271 1.408 . S
C275 C274 1.404 . S
C275 H287 0.930 . S
C276 C272 1.524 . S
C276 H288 0.956 . S
C276 H289 0.961 . S
C276 H290 0.961 . S
C277 C274 1.539 . S
C277 H291 0.958 . S
C277 H292 0.961 . S
C277 H293 0.960 . S
H278 C262 0.931 . S
H279 C267 0.929 . S
H280 C268 0.960 . S
H281 C268 0.962 . S
H282 C268 0.960 . S
H283 C269 0.961 . S
H284 C269 0.961 . S
H285 C269 0.961 . S
H286 C270 0.931 . S
H287 C275 0.930 . S
H288 C276 0.956 . S
H289 C276 0.961 . S
H290 C276 0.961 . S
H291 C277 0.958 . S
H292 C277 0.961 . S
H293 C277 0.960 . S
C294 C295 1.391 . S
C294 C296 1.394 . S
C294 H310 0.931 . S
C295 C294 1.391 . S
C295 C299 1.376 . S
C296 C294 1.394 . S
C296 C297 1.369 . S
C296 C300 1.531 . S
C297 C296 1.369 . S
C297 C298 1.410 . S
C297 C305 1.503 1_455 S
C298 C297 1.410 . S
C298 C299 1.392 . S
C298 C301 1.511 1_455 S
C299 C295 1.376 . S
C299 C298 1.392 . S
C299 H311 0.929 . S
C300 C296 1.531 . S
C300 H312 0.960 . S
C300 H313 0.962 . S
C300 H314 0.960 . S
C301 C298 1.511 1_655 S
C301 H315 0.961 . S
C301 H316 0.961 . S
C301 H317 0.961 . S
C302 C303 1.370 . S
C302 C304 1.363 . S
C302 H318 0.931 . S
C303 C302 1.370 . S
C303 C307 1.408 . S
C304 C302 1.363 . S
C304 C305 1.370 . S
C304 C308 1.524 . S
C305 C297 1.503 1_655 S
C305 C304 1.370 . S
C305 C306 1.403 . S
C306 C305 1.403 . S
C306 C307 1.404 . S
C306 C309 1.539 . S
C307 C303 1.408 . S
C307 C306 1.404 . S
C307 H319 0.930 . S
C308 C304 1.524 . S
C308 H320 0.956 . S
C308 H321 0.961 . S
C308 H322 0.961 . S
C309 C306 1.539 . S
C309 H323 0.958 1_655 S
C309 H324 0.961 . S
C309 H325 0.960 1_655 S
H310 C294 0.931 . S
H311 C299 0.929 . S
H312 C300 0.960 . S
H313 C300 0.962 . S
H314 C300 0.960 . S
H315 C301 0.961 . S
H316 C301 0.961 . S
H317 C301 0.961 . S
H318 C302 0.931 . S
H319 C307 0.930 . S
H320 C308 0.956 . S
H321 C308 0.961 . S
H322 C308 0.961 . S
H323 C309 0.958 1_455 S
H324 C309 0.961 . S
H325 C309 0.960 1_455 S
C326 C327 1.391 . S
C326 C328 1.394 . S
C326 H342 0.931 . S
C327 C326 1.391 . S
C327 C331 1.376 . S
C328 C326 1.394 . S
C328 C329 1.369 . S
C328 C332 1.531 . S
C329 C328 1.369 . S
C329 C330 1.410 . S
C329 C337 1.503 . S
C330 C329 1.410 . S
C330 C331 1.392 . S
C330 C333 1.511 . S
C331 C327 1.376 . S
C331 C330 1.392 . S
C331 H343 0.929 . S
C332 C328 1.531 . S
C332 H344 0.960 . S
C332 H345 0.962 . S
C332 H346 0.960 . S
C333 C330 1.511 . S
C333 H347 0.961 . S
C333 H348 0.961 . S
C333 H349 0.961 . S
C334 C335 1.370 . S
C334 C336 1.363 . S
C334 H350 0.931 . S
C335 C334 1.370 . S
C335 C339 1.408 . S
C336 C334 1.363 . S
C336 C337 1.370 . S
C336 C340 1.524 . S
C337 C329 1.503 . S
C337 C336 1.370 . S
C337 C338 1.403 . S
C338 C337 1.403 . S
C338 C339 1.404 . S
C338 C341 1.539 . S
C339 C335 1.408 . S
C339 C338 1.404 . S
C339 H351 0.930 . S
C340 C336 1.524 . S
C340 H352 0.956 . S
C340 H353 0.961 . S
C340 H354 0.961 . S
C341 C338 1.539 . S
C341 H355 0.958 . S
C341 H356 0.961 . S
C341 H357 0.960 . S
H342 C326 0.931 . S
H343 C331 0.929 . S
H344 C332 0.960 . S
H345 C332 0.962 . S
H346 C332 0.960 . S
H347 C333 0.961 . S
H348 C333 0.961 . S
H349 C333 0.961 . S
H350 C334 0.931 . S
H351 C339 0.930 . S
H352 C340 0.956 . S
H353 C340 0.961 . S
H354 C340 0.961 . S
H355 C341 0.958 . S
H356 C341 0.961 . S
H357 C341 0.960 . S
C358 C359 1.391 . S
C358 C360 1.394 . S
C358 H374 0.931 . S
C359 C358 1.391 . S
C359 C363 1.376 . S
C360 C358 1.394 . S
C360 C361 1.369 . S
C360 C364 1.531 . S
C361 C360 1.369 . S
C361 C362 1.410 1_565 S
C361 C369 1.503 1_565 S
C362 C361 1.410 1_545 S
C362 C363 1.392 1_545 S
C362 C365 1.511 . S
C363 C359 1.376 . S
C363 C362 1.392 1_565 S
C363 H375 0.929 . S
C364 C360 1.531 . S
C364 H376 0.960 . S
C364 H377 0.962 . S
C364 H378 0.960 . S
C365 C362 1.511 . S
C365 H379 0.961 . S
C365 H380 0.961 . S
C365 H381 0.961 . S
C366 C367 1.370 . S
C366 C368 1.363 . S
C366 H382 0.931 . S
C367 C366 1.370 . S
C367 C371 1.408 . S
C368 C366 1.363 . S
C368 C369 1.370 . S
C368 C372 1.524 . S
C369 C361 1.503 1_545 S
C369 C368 1.370 . S
C369 C370 1.403 . S
C370 C369 1.403 . S
C370 C371 1.404 . S
C370 C373 1.539 . S
C371 C367 1.408 . S
C371 C370 1.404 . S
C371 H383 0.930 . S
C372 C368 1.524 . S
C372 H384 0.956 1_545 S
C372 H385 0.961 . S
C372 H386 0.961 . S
C373 C370 1.539 . S
C373 H387 0.958 . S
C373 H388 0.961 . S
C373 H389 0.960 . S
H374 C358 0.931 . S
H375 C363 0.929 . S
H376 C364 0.960 . S
H377 C364 0.962 . S
H378 C364 0.960 . S
H379 C365 0.961 . S
H380 C365 0.961 . S
H381 C365 0.961 . S
H382 C366 0.931 . S
H383 C371 0.930 . S
H384 C372 0.956 1_565 S
H385 C372 0.961 . S
H386 C372 0.961 . S
H387 C373 0.958 . S
H388 C373 0.961 . S
H389 C373 0.960 . S
C390 C391 1.391 . S
C390 C392 1.394 . S
C390 H406 0.931 . S
C391 C390 1.391 . S
C391 C395 1.376 . S
C392 C390 1.394 . S
C392 C393 1.369 . S
C392 C396 1.531 . S
C393 C392 1.369 . S
C393 C394 1.410 . S
C393 C401 1.503 . S
C394 C393 1.410 . S
C394 C395 1.392 . S
C394 C397 1.511 . S
C395 C391 1.376 . S
C395 C394 1.392 . S
C395 H407 0.929 . S
C396 C392 1.531 . S
C396 H408 0.960 1_655 S
C396 H409 0.962 1_655 S
C396 H410 0.961 1_655 S
C397 C394 1.511 . S
C397 H411 0.961 . S
C397 H412 0.961 . S
C397 H413 0.961 . S
C398 C399 1.370 1_655 S
C398 C400 1.363 . S
C398 H414 0.931 . S
C399 C398 1.370 1_455 S
C399 C403 1.408 1_455 S
C400 C398 1.363 . S
C400 C401 1.370 . S
C400 C404 1.524 . S
C401 C393 1.503 . S
C401 C400 1.370 . S
C401 C402 1.403 . S
C402 C401 1.403 . S
C402 C403 1.404 . S
C402 C405 1.539 . S
C403 C399 1.408 1_655 S
C403 C402 1.404 . S
C403 H415 0.930 1_655 S
C404 C400 1.524 . S
C404 H416 0.956 . S
C404 H417 0.961 . S
C404 H418 0.961 . S
C405 C402 1.539 . S
C405 H419 0.958 . S
C405 H420 0.961 . S
C405 H421 0.960 . S
H406 C390 0.931 . S
H407 C395 0.929 . S
H408 C396 0.960 1_455 S
H409 C396 0.962 1_455 S
H410 C396 0.961 1_455 S
H411 C397 0.961 . S
H412 C397 0.961 . S
H413 C397 0.961 . S
H414 C398 0.931 . S
H415 C403 0.930 1_455 S
H416 C404 0.956 . S
H417 C404 0.961 . S
H418 C404 0.961 . S
H419 C405 0.958 . S
H420 C405 0.961 . S
H421 C405 0.960 . S
C422 C423 1.391 . S
C422 C424 1.394 . S
C422 H438 0.931 . S
C423 C422 1.391 . S
C423 C427 1.376 . S
C424 C422 1.394 . S
C424 C425 1.369 . S
C424 C428 1.531 . S
C425 C424 1.369 . S
C425 C426 1.410 . S
C425 C433 1.503 . S
C426 C425 1.410 . S
C426 C427 1.392 . S
C426 C429 1.511 . S
C427 C423 1.376 . S
C427 C426 1.392 . S
C427 H439 0.929 . S
C428 C424 1.531 . S
C428 H440 0.960 . S
C428 H441 0.962 . S
C428 H442 0.960 . S
C429 C426 1.511 . S
C429 H443 0.961 . S
C429 H444 0.961 . S
C429 H445 0.961 . S
C430 C431 1.370 . S
C430 C432 1.363 . S
C430 H446 0.931 . S
C431 C430 1.370 . S
C431 C435 1.408 . S
C432 C430 1.363 . S
C432 C433 1.370 . S
C432 C436 1.524 . S
C433 C425 1.503 . S
C433 C432 1.370 . S
C433 C434 1.403 . S
C434 C433 1.403 . S
C434 C435 1.404 . S
C434 C437 1.539 . S
C435 C431 1.408 . S
C435 C434 1.404 . S
C435 H447 0.930 . S
C436 C432 1.524 . S
C436 H448 0.956 . S
C436 H449 0.961 . S
C436 H450 0.961 . S
C437 C434 1.539 . S
C437 H451 0.958 . S
C437 H452 0.961 . S
C437 H453 0.960 . S
H438 C422 0.931 . S
H439 C427 0.929 . S
H440 C428 0.960 . S
H441 C428 0.962 . S
H442 C428 0.960 . S
H443 C429 0.961 . S
H444 C429 0.961 . S
H445 C429 0.961 . S
H446 C430 0.931 . S
H447 C435 0.930 . S
H448 C436 0.956 . S
H449 C436 0.961 . S
H450 C436 0.961 . S
H451 C437 0.958 . S
H452 C437 0.961 . S
H453 C437 0.960 . S
C454 C455 1.391 . S
C454 C456 1.394 . S
C454 H470 0.931 . S
C455 C454 1.391 . S
C455 C459 1.376 . S
C456 C454 1.394 . S
C456 C457 1.369 . S
C456 C460 1.531 . S
C457 C456 1.369 . S
C457 C458 1.410 . S
C457 C465 1.503 . S
C458 C457 1.410 . S
C458 C459 1.392 . S
C458 C461 1.511 . S
C459 C455 1.376 . S
C459 C458 1.392 . S
C459 H471 0.929 . S
C460 C456 1.531 . S
C460 H472 0.960 1_545 S
C460 H473 0.962 . S
C460 H474 0.961 . S
C461 C458 1.511 . S
C461 H475 0.961 . S
C461 H476 0.961 . S
C461 H477 0.961 . S
C462 C463 1.370 1_545 S
C462 C464 1.363 . S
C462 H478 0.931 . S
C463 C462 1.370 1_565 S
C463 C467 1.408 . S
C464 C462 1.363 . S
C464 C465 1.370 . S
C464 C468 1.524 . S
C465 C457 1.503 . S
C465 C464 1.370 . S
C465 C466 1.403 . S
C466 C465 1.403 . S
C466 C467 1.404 1_545 S
C466 C469 1.539 . S
C467 C463 1.408 . S
C467 C466 1.404 1_565 S
C467 H479 0.930 . S
C468 C464 1.524 . S
C468 H480 0.956 . S
C468 H481 0.961 . S
C468 H482 0.961 . S
C469 C466 1.539 . S
C469 H483 0.958 1_545 S
C469 H484 0.961 . S
C469 H485 0.960 . S
H470 C454 0.931 . S
H471 C459 0.929 . S
H472 C460 0.960 1_565 S
H473 C460 0.962 . S
H474 C460 0.961 . S
H475 C461 0.961 . S
H476 C461 0.961 . S
H477 C461 0.961 . S
H478 C462 0.931 . S
H479 C467 0.930 . S
H480 C468 0.956 . S
H481 C468 0.961 . S
H482 C468 0.961 . S
H483 C469 0.958 1_565 S
H484 C469 0.961 . S
H485 C469 0.960 . S
C486 C487 1.391 . S
C486 C488 1.394 . S
C486 H502 0.931 . S
C487 C486 1.391 . S
C487 C491 1.376 . S
C488 C486 1.394 . S
C488 C489 1.369 . S
C488 C492 1.531 . S
C489 C488 1.369 . S
C489 C490 1.410 . S
C489 C497 1.503 . S
C490 C489 1.410 . S
C490 C491 1.392 . S
C490 C493 1.511 . S
C491 C487 1.376 . S
C491 C490 1.392 . S
C491 H503 0.929 . S
C492 C488 1.531 . S
C492 H504 0.960 . S
C492 H505 0.962 . S
C492 H506 0.960 . S
C493 C490 1.511 . S
C493 H507 0.961 . S
C493 H508 0.961 . S
C493 H509 0.961 . S
C494 C495 1.370 . S
C494 C496 1.363 1_565 S
C494 H510 0.931 . S
C495 C494 1.370 . S
C495 C499 1.408 1_565 S
C496 C494 1.363 1_545 S
C496 C497 1.370 . S
C496 C500 1.524 1_545 S
C497 C489 1.503 . S
C497 C496 1.370 . S
C497 C498 1.403 . S
C498 C497 1.403 . S
C498 C499 1.404 . S
C498 C501 1.539 . S
C499 C495 1.408 1_545 S
C499 C498 1.404 . S
C499 H511 0.930 . S
C500 C496 1.524 1_565 S
C500 H512 0.956 1_565 S
C500 H513 0.961 . S
C500 H514 0.961 . S
C501 C498 1.539 . S
C501 H515 0.958 . S
C501 H516 0.961 . S
C501 H517 0.960 . S
H502 C486 0.931 . S
H503 C491 0.929 . S
H504 C492 0.960 . S
H505 C492 0.962 . S
H506 C492 0.960 . S
H507 C493 0.961 . S
H508 C493 0.961 . S
H509 C493 0.961 . S
H510 C494 0.931 . S
H511 C499 0.930 . S
H512 C500 0.956 1_545 S
H513 C500 0.961 . S
H514 C500 0.961 . S
H515 C501 0.958 . S
H516 C501 0.961 . S
H517 C501 0.960 . S
C518 C519 1.391 1_655 S
C518 C520 1.394 . S
C518 H534 0.931 1_655 S
C519 C518 1.391 1_455 S
C519 C523 1.376 . S
C520 C518 1.394 . S
C520 C521 1.369 . S
C520 C524 1.531 . S
C521 C520 1.369 . S
C521 C522 1.410 . S
C521 C529 1.503 . S
C522 C521 1.410 . S
C522 C523 1.394 1_655 S
C522 C525 1.511 . S
C523 C519 1.376 . S
C523 C522 1.394 1_455 S
C523 H535 0.927 . S
C524 C520 1.531 . S
C524 H536 0.960 . S
C524 H537 0.962 . S
C524 H538 0.960 . S
C525 C522 1.511 . S
C525 H539 0.961 . S
C525 H540 0.961 . S
C525 H541 0.961 . S
C526 C527 1.370 . S
C526 C528 1.363 . S
C526 H542 0.931 . S
C527 C526 1.370 . S
C527 C531 1.408 . S
C528 C526 1.363 . S
C528 C529 1.370 . S
C528 C532 1.524 . S
C529 C521 1.503 . S
C529 C528 1.370 . S
C529 C530 1.403 . S
C530 C529 1.403 . S
C530 C531 1.404 . S
C530 C533 1.539 . S
C531 C527 1.408 . S
C531 C530 1.404 . S
C531 H543 0.930 . S
C532 C528 1.524 . S
C532 H544 0.956 . S
C532 H545 0.961 . S
C532 H546 0.961 . S
C533 C530 1.539 . S
C533 H547 0.958 1_655 S
C533 H548 0.961 1_655 S
C533 H549 0.960 1_655 S
H534 C518 0.931 1_455 S
H535 C523 0.927 . S
H536 C524 0.960 . S
H537 C524 0.962 . S
H538 C524 0.960 . S
H539 C525 0.961 . S
H540 C525 0.961 . S
H541 C525 0.961 . S
H542 C526 0.931 . S
H543 C531 0.930 . S
H544 C532 0.956 . S
H545 C532 0.961 . S
H546 C532 0.961 . S
H547 C533 0.958 1_455 S
H548 C533 0.961 1_455 S
H549 C533 0.960 1_455 S
C550 C551 1.391 . S
C550 C552 1.394 . S
C550 H566 0.931 . S
C551 C550 1.391 . S
C551 C555 1.376 . S
C552 C550 1.394 . S
C552 C553 1.369 . S
C552 C556 1.531 . S
C553 C552 1.369 . S
C553 C554 1.410 . S
C553 C561 1.503 . S
C554 C553 1.410 . S
C554 C555 1.392 . S
C554 C557 1.511 . S
C555 C551 1.376 . S
C555 C554 1.392 . S
C555 H567 0.929 . S
C556 C552 1.531 . S
C556 H568 0.960 . S
C556 H569 0.962 . S
C556 H570 0.960 . S
C557 C554 1.511 . S
C557 H571 0.961 . S
C557 H572 0.961 . S
C557 H573 0.961 . S
C558 C559 1.370 . S
C558 C560 1.363 . S
C558 H574 0.931 . S
C559 C558 1.370 . S
C559 C563 1.408 . S
C560 C558 1.363 . S
C560 C561 1.370 . S
C560 C564 1.524 . S
C561 C553 1.503 . S
C561 C560 1.370 . S
C561 C562 1.403 . S
C562 C561 1.403 . S
C562 C563 1.404 . S
C562 C565 1.539 . S
C563 C559 1.408 . S
C563 C562 1.404 . S
C563 H575 0.930 . S
C564 C560 1.524 . S
C564 H576 0.956 . S
C564 H577 0.961 . S
C564 H578 0.961 . S
C565 C562 1.539 . S
C565 H579 0.958 . S
C565 H580 0.961 . S
C565 H581 0.960 . S
H566 C550 0.931 . S
H567 C555 0.929 . S
H568 C556 0.960 . S
H569 C556 0.962 . S
H570 C556 0.960 . S
H571 C557 0.961 . S
H572 C557 0.961 . S
H573 C557 0.961 . S
H574 C558 0.931 . S
H575 C563 0.930 . S
H576 C564 0.956 . S
H577 C564 0.961 . S
H578 C564 0.961 . S
H579 C565 0.958 . S
H580 C565 0.961 . S
H581 C565 0.960 . S
C582 C583 1.391 . S
C582 C584 1.394 . S
C582 H598 0.931 . S
C583 C582 1.391 . S
C583 C587 1.376 . S
C584 C582 1.394 . S
C584 C585 1.369 . S
C584 C588 1.531 . S
C585 C584 1.369 . S
C585 C586 1.410 . S
C585 C593 1.503 . S
C586 C585 1.410 . S
C586 C587 1.392 . S
C586 C589 1.511 . S
C587 C583 1.376 . S
C587 C586 1.392 . S
C587 H599 0.929 . S
C588 C584 1.531 . S
C588 H600 0.960 . S
C588 H601 0.962 . S
C588 H602 0.960 . S
C589 C586 1.511 . S
C589 H603 0.961 . S
C589 H604 0.961 . S
C589 H605 0.961 . S
C590 C591 1.370 . S
C590 C592 1.363 . S
C590 H606 0.931 . S
C591 C590 1.370 . S
C591 C595 1.408 . S
C592 C590 1.363 . S
C592 C593 1.370 . S
C592 C596 1.524 . S
C593 C585 1.503 . S
C593 C592 1.370 . S
C593 C594 1.403 . S
C594 C593 1.403 . S
C594 C595 1.404 . S
C594 C597 1.539 . S
C595 C591 1.408 . S
C595 C594 1.404 . S
C595 H607 0.930 . S
C596 C592 1.524 . S
C596 H608 0.956 . S
C596 H609 0.961 . S
C596 H610 0.961 . S
C597 C594 1.539 . S
C597 H611 0.958 . S
C597 H612 0.961 . S
C597 H613 0.960 . S
H598 C582 0.931 . S
H599 C587 0.929 . S
H600 C588 0.960 . S
H601 C588 0.962 . S
H602 C588 0.960 . S
H603 C589 0.961 . S
H604 C589 0.961 . S
H605 C589 0.961 . S
H606 C590 0.931 . S
H607 C595 0.930 . S
H608 C596 0.956 . S
H609 C596 0.961 . S
H610 C596 0.961 . S
H611 C597 0.958 . S
H612 C597 0.961 . S
H613 C597 0.960 . S
C614 C615 1.391 . S
C614 C616 1.394 . S
C614 H630 0.931 . S
C615 C614 1.391 . S
C615 C619 1.376 . S
C616 C614 1.394 . S
C616 C617 1.369 . S
C616 C620 1.531 . S
C617 C616 1.369 . S
C617 C618 1.410 . S
C617 C625 1.503 . S
C618 C617 1.410 . S
C618 C619 1.392 . S
C618 C621 1.511 . S
C619 C615 1.376 . S
C619 C618 1.392 . S
C619 H631 0.929 . S
C620 C616 1.531 . S
C620 H632 0.960 . S
C620 H633 0.962 . S
C620 H634 0.960 . S
C621 C618 1.511 . S
C621 H635 0.961 . S
C621 H636 0.961 . S
C621 H637 0.961 . S
C622 C623 1.370 . S
C622 C624 1.363 . S
C622 H638 0.931 . S
C623 C622 1.370 . S
C623 C627 1.408 . S
C624 C622 1.363 . S
C624 C625 1.370 . S
C624 C628 1.524 . S
C625 C617 1.503 . S
C625 C624 1.370 . S
C625 C626 1.403 . S
C626 C625 1.403 . S
C626 C627 1.404 . S
C626 C629 1.539 . S
C627 C623 1.408 . S
C627 C626 1.404 . S
C627 H639 0.930 . S
C628 C624 1.524 . S
C628 H640 0.956 . S
C628 H641 0.961 . S
C628 H642 0.961 . S
C629 C626 1.539 . S
C629 H643 0.958 1_565 S
C629 H644 0.961 . S
C629 H645 0.960 . S
H630 C614 0.931 . S
H631 C619 0.929 . S
H632 C620 0.960 . S
H633 C620 0.962 . S
H634 C620 0.960 . S
H635 C621 0.961 . S
H636 C621 0.961 . S
H637 C621 0.961 . S
H638 C622 0.931 . S
H639 C627 0.930 . S
H640 C628 0.956 . S
H641 C628 0.961 . S
H642 C628 0.961 . S
H643 C629 0.958 1_545 S
H644 C629 0.961 . S
H645 C629 0.960 . S
C646 C647 1.391 . S
C646 C648 1.394 . S
C646 H662 0.931 . S
C647 C646 1.391 . S
C647 C651 1.376 . S
C648 C646 1.394 . S
C648 C649 1.369 . S
C648 C652 1.531 . S
C649 C648 1.369 . S
C649 C650 1.410 . S
C649 C657 1.503 . S
C650 C649 1.410 . S
C650 C651 1.392 . S
C650 C653 1.511 . S
C651 C647 1.376 . S
C651 C650 1.392 . S
C651 H663 0.929 . S
C652 C648 1.531 . S
C652 H664 0.960 . S
C652 H665 0.962 . S
C652 H666 0.960 . S
C653 C650 1.511 . S
C653 H667 0.961 1_455 S
C653 H668 0.961 . S
C653 H669 0.961 1_455 S
C654 C655 1.370 . S
C654 C656 1.363 . S
C654 H670 0.931 . S
C655 C654 1.370 . S
C655 C659 1.408 . S
C656 C654 1.363 . S
C656 C657 1.370 . S
C656 C660 1.524 . S
C657 C649 1.503 . S
C657 C656 1.370 . S
C657 C658 1.403 . S
C658 C657 1.403 . S
C658 C659 1.404 . S
C658 C661 1.539 . S
C659 C655 1.408 . S
C659 C658 1.404 . S
C659 H671 0.930 . S
C660 C656 1.524 . S
C660 H672 0.956 . S
C660 H673 0.961 . S
C660 H674 0.961 . S
C661 C658 1.539 . S
C661 H675 0.958 . S
C661 H676 0.961 . S
C661 H677 0.960 . S
H662 C646 0.931 . S
H663 C651 0.929 . S
H664 C652 0.960 . S
H665 C652 0.962 . S
H666 C652 0.960 . S
H667 C653 0.961 1_655 S
H668 C653 0.961 . S
H669 C653 0.961 1_655 S
H670 C654 0.931 . S
H671 C659 0.930 . S
H672 C660 0.956 . S
H673 C660 0.961 . S
H674 C660 0.961 . S
H675 C661 0.958 . S
H676 C661 0.961 . S
H677 C661 0.960 . S
C678 C679 1.391 . S
C678 C680 1.394 . S
C678 H694 0.931 . S
C679 C678 1.391 . S
C679 C683 1.376 . S
C680 C678 1.394 . S
C680 C681 1.369 . S
C680 C684 1.531 . S
C681 C680 1.369 . S
C681 C682 1.410 . S
C681 C689 1.503 . S
C682 C681 1.410 . S
C682 C683 1.392 . S
C682 C685 1.511 . S
C683 C679 1.376 . S
C683 C682 1.392 . S
C683 H695 0.929 . S
C684 C680 1.531 . S
C684 H696 0.960 . S
C684 H697 0.962 . S
C684 H698 0.960 . S
C685 C682 1.511 . S
C685 H699 0.961 . S
C685 H700 0.961 . S
C685 H701 0.961 . S
C686 C687 1.370 . S
C686 C688 1.363 . S
C686 H702 0.931 . S
C687 C686 1.370 . S
C687 C691 1.408 . S
C688 C686 1.363 . S
C688 C689 1.370 . S
C688 C692 1.524 . S
C689 C681 1.503 . S
C689 C688 1.370 . S
C689 C690 1.403 . S
C690 C689 1.403 . S
C690 C691 1.404 . S
C690 C693 1.539 . S
C691 C687 1.408 . S
C691 C690 1.404 . S
C691 H703 0.930 . S
C692 C688 1.524 . S
C692 H704 0.956 . S
C692 H705 0.961 . S
C692 H706 0.961 . S
C693 C690 1.539 . S
C693 H707 0.958 . S
C693 H708 0.961 . S
C693 H709 0.960 . S
H694 C678 0.931 . S
H695 C683 0.929 . S
H696 C684 0.960 . S
H697 C684 0.962 . S
H698 C684 0.960 . S
H699 C685 0.961 . S
H700 C685 0.961 . S
H701 C685 0.961 . S
H702 C686 0.931 . S
H703 C691 0.930 . S
H704 C692 0.956 . S
H705 C692 0.961 . S
H706 C692 0.961 . S
H707 C693 0.958 . S
H708 C693 0.961 . S
H709 C693 0.960 . S
C710 C711 1.391 . S
C710 C712 1.394 . S
C710 H726 0.931 . S
C711 C710 1.391 . S
C711 C715 1.376 . S
C712 C710 1.394 . S
C712 C713 1.369 . S
C712 C716 1.531 . S
C713 C712 1.369 . S
C713 C714 1.410 . S
C713 C721 1.503 . S
C714 C713 1.410 . S
C714 C715 1.392 . S
C714 C717 1.511 . S
C715 C711 1.376 . S
C715 C714 1.392 . S
C715 H727 0.929 . S
C716 C712 1.531 . S
C716 H728 0.960 . S
C716 H729 0.962 . S
C716 H730 0.960 . S
C717 C714 1.511 . S
C717 H731 0.961 . S
C717 H732 0.961 . S
C717 H733 0.961 . S
C718 C719 1.370 . S
C718 C720 1.363 . S
C718 H734 0.931 . S
C719 C718 1.370 . S
C719 C723 1.408 . S
C720 C718 1.363 . S
C720 C721 1.370 . S
C720 C724 1.524 . S
C721 C713 1.503 . S
C721 C720 1.370 . S
C721 C722 1.403 . S
C722 C721 1.403 . S
C722 C723 1.404 . S
C722 C725 1.539 . S
C723 C719 1.408 . S
C723 C722 1.404 . S
C723 H735 0.930 . S
C724 C720 1.524 . S
C724 H736 0.956 . S
C724 H737 0.961 . S
C724 H738 0.961 1_565 S
C725 C722 1.539 . S
C725 H739 0.958 . S
C725 H740 0.961 . S
C725 H741 0.960 . S
H726 C710 0.931 . S
H727 C715 0.929 . S
H728 C716 0.960 . S
H729 C716 0.962 . S
H730 C716 0.960 . S
H731 C717 0.961 . S
H732 C717 0.961 . S
H733 C717 0.961 . S
H734 C718 0.931 . S
H735 C723 0.930 . S
H736 C724 0.956 . S
H737 C724 0.961 . S
H738 C724 0.961 1_545 S
H739 C725 0.958 . S
H740 C725 0.961 . S
H741 C725 0.960 . S
C742 C743 1.391 . S
C742 C744 1.394 . S
C742 H758 0.931 . S
C743 C742 1.391 . S
C743 C747 1.376 . S
C744 C742 1.394 . S
C744 C745 1.369 . S
C744 C748 1.531 . S
C745 C744 1.369 . S
C745 C746 1.410 . S
C745 C753 1.503 . S
C746 C745 1.410 . S
C746 C747 1.392 . S
C746 C749 1.511 . S
C747 C743 1.376 . S
C747 C746 1.392 . S
C747 H759 0.929 . S
C748 C744 1.531 . S
C748 H760 0.960 . S
C748 H761 0.962 . S
C748 H762 0.960 . S
C749 C746 1.511 . S
C749 H763 0.961 1_455 S
C749 H764 0.961 . S
C749 H765 0.961 1_455 S
C750 C751 1.370 . S
C750 C752 1.363 . S
C750 H766 0.931 . S
C751 C750 1.370 . S
C751 C755 1.408 . S
C752 C750 1.363 . S
C752 C753 1.370 . S
C752 C756 1.524 . S
C753 C745 1.503 . S
C753 C752 1.370 . S
C753 C754 1.403 . S
C754 C753 1.403 . S
C754 C755 1.404 . S
C754 C757 1.539 . S
C755 C751 1.408 . S
C755 C754 1.404 . S
C755 H767 0.930 . S
C756 C752 1.524 . S
C756 H768 0.956 . S
C756 H769 0.961 . S
C756 H770 0.961 . S
C757 C754 1.539 . S
C757 H771 0.958 . S
C757 H772 0.961 . S
C757 H773 0.960 . S
H758 C742 0.931 . S
H759 C747 0.929 . S
H760 C748 0.960 . S
H761 C748 0.962 . S
H762 C748 0.960 . S
H763 C749 0.961 1_655 S
H764 C749 0.961 . S
H765 C749 0.961 1_655 S
H766 C750 0.931 . S
H767 C755 0.930 . S
H768 C756 0.956 . S
H769 C756 0.961 . S
H770 C756 0.961 . S
H771 C757 0.958 . S
H772 C757 0.961 . S
H773 C757 0.960 . S
C774 C775 1.391 . S
C774 C776 1.394 . S
C774 H790 0.931 . S
C775 C774 1.391 . S
C775 C779 1.376 1_556 S
C776 C774 1.394 . S
C776 C777 1.369 . S
C776 C780 1.531 . S
C777 C776 1.369 . S
C777 C778 1.410 1_556 S
C777 C785 1.503 . S
C778 C777 1.410 1_554 S
C778 C779 1.392 . S
C778 C781 1.511 . S
C779 C775 1.376 1_554 S
C779 C778 1.392 . S
C779 H791 0.929 . S
C780 C776 1.531 . S
C780 H792 0.960 . S
C780 H793 0.962 . S
C780 H794 0.960 . S
C781 C778 1.511 . S
C781 H795 0.961 . S
C781 H796 0.961 . S
C781 H797 0.961 . S
C782 C783 1.370 . S
C782 C784 1.363 . S
C782 H798 0.931 . S
C783 C782 1.370 . S
C783 C787 1.408 . S
C784 C782 1.363 . S
C784 C785 1.370 . S
C784 C788 1.524 . S
C785 C777 1.503 . S
C785 C784 1.370 . S
C785 C786 1.403 . S
C786 C785 1.403 . S
C786 C787 1.404 . S
C786 C789 1.539 . S
C787 C783 1.408 . S
C787 C786 1.404 . S
C787 H799 0.930 . S
C788 C784 1.524 . S
C788 H800 0.956 . S
C788 H801 0.961 1_556 S
C788 H802 0.961 . S
C789 C786 1.539 . S
C789 H803 0.958 . S
C789 H804 0.961 1_556 S
C789 H805 0.960 1_556 S
H790 C774 0.931 . S
H791 C779 0.929 . S
H792 C780 0.960 . S
H793 C780 0.962 . S
H794 C780 0.960 . S
H795 C781 0.961 . S
H796 C781 0.961 . S
H797 C781 0.961 . S
H798 C782 0.931 . S
H799 C787 0.930 . S
H800 C788 0.956 . S
H801 C788 0.961 1_554 S
H802 C788 0.961 . S
H803 C789 0.958 . S
H804 C789 0.961 1_554 S
H805 C789 0.960 1_554 S
C806 C807 1.391 . S
C806 C808 1.394 . S
C806 H822 0.931 . S
C807 C806 1.391 . S
C807 C811 1.368 1_556 S
C808 C806 1.394 . S
C808 C809 1.369 . S
C808 C812 1.531 . S
C809 C808 1.369 . S
C809 C810 1.410 . S
C809 C817 1.503 . S
C810 C809 1.410 . S
C810 C811 1.391 1_556 S
C810 C813 1.511 1_556 S
C811 C807 1.368 1_554 S
C811 C810 1.391 1_554 S
C811 H823 0.938 . S
C812 C808 1.531 . S
C812 H824 0.960 . S
C812 H825 0.962 . S
C812 H826 0.960 . S
C813 C810 1.511 1_554 S
C813 H827 0.961 . S
C813 H828 0.961 . S
C813 H829 0.961 1_554 S
C814 C815 1.370 1_554 S
C814 C816 1.363 . S
C814 H830 0.931 . S
C815 C814 1.370 1_556 S
C815 C819 1.408 . S
C816 C814 1.363 . S
C816 C817 1.370 1_554 S
C816 C820 1.524 . S
C817 C809 1.503 . S
C817 C816 1.370 1_556 S
C817 C818 1.403 . S
C818 C817 1.403 . S
C818 C819 1.404 . S
C818 C821 1.539 . S
C819 C815 1.408 . S
C819 C818 1.404 . S
C819 H831 0.930 . S
C820 C816 1.524 . S
C820 H832 0.956 . S
C820 H833 0.961 . S
C820 H834 0.961 . S
C821 C818 1.539 . S
C821 H835 0.958 . S
C821 H836 0.961 . S
C821 H837 0.960 . S
H822 C806 0.931 . S
H823 C811 0.938 . S
H824 C812 0.960 . S
H825 C812 0.962 . S
H826 C812 0.960 . S
H827 C813 0.961 . S
H828 C813 0.961 . S
H829 C813 0.961 1_556 S
H830 C814 0.931 . S
H831 C819 0.930 . S
H832 C820 0.956 . S
H833 C820 0.961 . S
H834 C820 0.961 . S
H835 C821 0.958 . S
H836 C821 0.961 . S
H837 C821 0.960 . S
C838 C839 1.391 1_554 S
C838 C840 1.394 . S
C838 H854 0.931 . S
C839 C838 1.391 1_556 S
C839 C843 1.376 . S
C840 C838 1.394 . S
C840 C841 1.369 1_554 S
C840 C844 1.531 . S
C841 C840 1.369 1_556 S
C841 C842 1.410 . S
C841 C849 1.503 . S
C842 C841 1.410 . S
C842 C843 1.392 . S
C842 C845 1.511 . S
C843 C839 1.376 . S
C843 C842 1.392 . S
C843 H855 0.929 . S
C844 C840 1.531 . S
C844 H856 0.960 . S
C844 H857 0.962 . S
C844 H858 0.960 . S
C845 C842 1.511 . S
C845 H859 0.961 . S
C845 H860 0.961 . S
C845 H861 0.961 . S
C846 C847 1.370 . S
C846 C848 1.363 . S
C846 H862 0.931 . S
C847 C846 1.370 . S
C847 C851 1.408 1_556 S
C848 C846 1.363 . S
C848 C849 1.370 . S
C848 C852 1.524 . S
C849 C841 1.503 . S
C849 C848 1.370 . S
C849 C850 1.403 1_556 S
C850 C849 1.403 1_554 S
C850 C851 1.404 . S
C850 C853 1.539 . S
C851 C847 1.408 1_554 S
C851 C850 1.404 . S
C851 H863 0.930 . S
C852 C848 1.524 . S
C852 H864 0.956 . S
C852 H865 0.961 . S
C852 H866 0.961 . S
C853 C850 1.539 . S
C853 H867 0.958 . S
C853 H868 0.961 . S
C853 H869 0.960 . S
H854 C838 0.931 . S
H855 C843 0.929 . S
H856 C844 0.960 . S
H857 C844 0.962 . S
H858 C844 0.960 . S
H859 C845 0.961 . S
H860 C845 0.961 . S
H861 C845 0.961 . S
H862 C846 0.931 . S
H863 C851 0.930 . S
H864 C852 0.956 . S
H865 C852 0.961 . S
H866 C852 0.961 . S
H867 C853 0.958 . S
H868 C853 0.961 . S
H869 C853 0.960 . S
C870 C871 1.391 . S
C870 C872 1.394 . S
C870 H886 0.931 . S
C871 C870 1.391 . S
C871 C875 1.376 . S
C872 C870 1.394 . S
C872 C873 1.369 . S
C872 C876 1.531 . S
C873 C872 1.369 . S
C873 C874 1.410 . S
C873 C881 1.503 . S
C874 C873 1.410 . S
C874 C875 1.392 . S
C874 C877 1.511 . S
C875 C871 1.376 . S
C875 C874 1.392 . S
C875 H887 0.929 . S
C876 C872 1.531 . S
C876 H888 0.960 . S
C876 H889 0.962 . S
C876 H890 0.960 . S
C877 C874 1.511 . S
C877 H891 0.961 . S
C877 H892 0.961 . S
C877 H893 0.961 . S
C878 C879 1.370 . S
C878 C880 1.363 . S
C878 H894 0.931 . S
C879 C878 1.370 . S
C879 C883 1.408 . S
C880 C878 1.363 . S
C880 C881 1.370 . S
C880 C884 1.524 . S
C881 C873 1.503 . S
C881 C880 1.370 . S
C881 C882 1.403 . S
C882 C881 1.403 . S
C882 C883 1.404 . S
C882 C885 1.539 . S
C883 C879 1.408 . S
C883 C882 1.404 . S
C883 H895 0.930 . S
C884 C880 1.524 . S
C884 H896 0.956 . S
C884 H897 0.961 . S
C884 H898 0.961 . S
C885 C882 1.539 . S
C885 H899 0.958 . S
C885 H900 0.961 . S
C885 H901 0.960 . S
H886 C870 0.931 . S
H887 C875 0.929 . S
H888 C876 0.960 . S
H889 C876 0.962 . S
H890 C876 0.960 . S
H891 C877 0.961 . S
H892 C877 0.961 . S
H893 C877 0.961 . S
H894 C878 0.931 . S
H895 C883 0.930 . S
H896 C884 0.956 . S
H897 C884 0.961 . S
H898 C884 0.961 . S
H899 C885 0.958 . S
H900 C885 0.961 . S
H901 C885 0.960 . S
C902 C903 1.391 . S
C902 C904 1.394 . S
C902 H918 0.931 . S
C903 C902 1.391 . S
C903 C907 1.376 . S
C904 C902 1.394 . S
C904 C905 1.369 . S
C904 C908 1.531 . S
C905 C904 1.369 . S
C905 C906 1.410 . S
C905 C913 1.503 . S
C906 C905 1.410 . S
C906 C907 1.392 . S
C906 C909 1.511 . S
C907 C903 1.376 . S
C907 C906 1.392 . S
C907 H919 0.929 . S
C908 C904 1.531 . S
C908 H920 0.960 . S
C908 H921 0.962 . S
C908 H922 0.960 . S
C909 C906 1.511 . S
C909 H923 0.961 . S
C909 H924 0.961 . S
C909 H925 0.961 . S
C910 C911 1.370 . S
C910 C912 1.363 . S
C910 H926 0.931 . S
C911 C910 1.370 . S
C911 C915 1.408 . S
C912 C910 1.363 . S
C912 C913 1.370 . S
C912 C916 1.524 . S
C913 C905 1.503 . S
C913 C912 1.370 . S
C913 C914 1.403 . S
C914 C913 1.403 . S
C914 C915 1.404 . S
C914 C917 1.539 . S
C915 C911 1.408 . S
C915 C914 1.404 . S
C915 H927 0.930 . S
C916 C912 1.524 . S
C916 H928 0.956 . S
C916 H929 0.961 . S
C916 H930 0.961 . S
C917 C914 1.539 . S
C917 H931 0.958 . S
C917 H932 0.961 . S
C917 H933 0.960 . S
H918 C902 0.931 . S
H919 C907 0.929 . S
H920 C908 0.960 . S
H921 C908 0.962 . S
H922 C908 0.960 . S
H923 C909 0.961 . S
H924 C909 0.961 . S
H925 C909 0.961 . S
H926 C910 0.931 . S
H927 C915 0.930 . S
H928 C916 0.956 . S
H929 C916 0.961 . S
H930 C916 0.961 . S
H931 C917 0.958 . S
H932 C917 0.961 . S
H933 C917 0.960 . S
C934 C935 1.391 . S
C934 C936 1.394 . S
C934 H950 0.931 . S
C935 C934 1.391 . S
C935 C939 1.376 . S
C936 C934 1.394 . S
C936 C937 1.369 . S
C936 C940 1.531 . S
C937 C936 1.369 . S
C937 C938 1.410 . S
C937 C945 1.503 . S
C938 C937 1.410 . S
C938 C939 1.392 . S
C938 C941 1.511 . S
C939 C935 1.376 . S
C939 C938 1.392 . S
C939 H951 0.929 . S
C940 C936 1.531 . S
C940 H952 0.960 . S
C940 H953 0.962 . S
C940 H954 0.960 . S
C941 C938 1.511 . S
C941 H955 0.961 . S
C941 H956 0.961 . S
C941 H957 0.961 . S
C942 C943 1.370 . S
C942 C944 1.363 . S
C942 H958 0.931 . S
C943 C942 1.370 . S
C943 C947 1.408 . S
C944 C942 1.363 . S
C944 C945 1.370 . S
C944 C948 1.524 . S
C945 C937 1.503 . S
C945 C944 1.370 . S
C945 C946 1.403 . S
C946 C945 1.403 . S
C946 C947 1.404 . S
C946 C949 1.539 . S
C947 C943 1.408 . S
C947 C946 1.404 . S
C947 H959 0.930 . S
C948 C944 1.524 . S
C948 H960 0.956 . S
C948 H961 0.961 . S
C948 H962 0.961 . S
C949 C946 1.539 . S
C949 H963 0.958 . S
C949 H964 0.961 . S
C949 H965 0.960 . S
H950 C934 0.931 . S
H951 C939 0.929 . S
H952 C940 0.960 . S
H953 C940 0.962 . S
H954 C940 0.960 . S
H955 C941 0.961 . S
H956 C941 0.961 . S
H957 C941 0.961 . S
H958 C942 0.931 . S
H959 C947 0.930 . S
H960 C948 0.956 . S
H961 C948 0.961 . S
H962 C948 0.961 . S
H963 C949 0.958 . S
H964 C949 0.961 . S
H965 C949 0.960 . S
C966 C967 1.391 . S
C966 C968 1.394 1_455 S
C966 H982 0.931 . S
C967 C966 1.391 . S
C967 C971 1.376 1_455 S
C968 C966 1.394 1_655 S
C968 C969 1.369 . S
C968 C972 1.531 . S
C969 C968 1.369 . S
C969 C970 1.410 . S
C969 C977 1.503 . S
C970 C969 1.410 . S
C970 C971 1.392 . S
C970 C973 1.511 . S
C971 C967 1.376 1_655 S
C971 C970 1.392 . S
C971 H983 0.929 . S
C972 C968 1.531 . S
C972 H984 0.960 . S
C972 H985 0.962 . S
C972 H986 0.960 1_655 S
C973 C970 1.511 . S
C973 H987 0.961 . S
C973 H988 0.961 . S
C973 H989 0.961 . S
C974 C975 1.370 . S
C974 C976 1.363 . S
C974 H990 0.931 . S
C975 C974 1.370 . S
C975 C979 1.408 . S
C976 C974 1.363 . S
C976 C977 1.370 . S
C976 C980 1.524 . S
C977 C969 1.503 . S
C977 C976 1.370 . S
C977 C978 1.403 . S
C978 C977 1.403 . S
C978 C979 1.404 . S
C978 C981 1.539 . S
C979 C975 1.408 . S
C979 C978 1.404 . S
C979 H991 0.930 . S
C980 C976 1.524 . S
C980 H992 0.956 . S
C980 H993 0.961 . S
C980 H994 0.961 . S
C981 C978 1.539 . S
C981 H995 0.958 . S
C981 H996 0.961 . S
C981 H997 0.960 . S
H982 C966 0.931 . S
H983 C971 0.929 . S
H984 C972 0.960 . S
H985 C972 0.962 . S
H986 C972 0.960 1_455 S
H987 C973 0.961 . S
H988 C973 0.961 . S
H989 C973 0.961 . S
H990 C974 0.931 . S
H991 C979 0.930 . S
H992 C980 0.956 . S
H993 C980 0.961 . S
H994 C980 0.961 . S
H995 C981 0.958 . S
H996 C981 0.961 . S
H997 C981 0.960 . S
C998 C999 1.391 1_545 S
C998 C1000 1.394 . S
C998 H1014 0.931 . S
C999 C998 1.391 1_565 S
C999 C1003 1.376 . S
C1000 C998 1.394 . S
C1000 C1001 1.369 . S
C1000 C1004 1.531 . S
C1001 C1000 1.369 . S
C1001 C1002 1.410 . S
C1001 C1009 1.503 . S
C1002 C1001 1.410 . S
C1002 C1003 1.392 1_545 S
C1002 C1005 1.511 . S
C1003 C999 1.376 . S
C1003 C1002 1.392 1_565 S
C1003 H1015 0.929 . S
C1004 C1000 1.531 . S
C1004 H1016 0.960 . S
C1004 H1017 0.962 . S
C1004 H1018 0.960 . S
C1005 C1002 1.511 . S
C1005 H1019 0.961 1_545 S
C1005 H1020 0.961 . S
C1005 H1021 0.961 . S
C1006 C1007 1.370 . S
C1006 C1008 1.363 . S
C1006 H1022 0.931 . S
C1007 C1006 1.370 . S
C1007 C1011 1.408 . S
C1008 C1006 1.363 . S
C1008 C1009 1.370 . S
C1008 C1012 1.524 . S
C1009 C1001 1.503 . S
C1009 C1008 1.370 . S
C1009 C1010 1.403 . S
C1010 C1009 1.403 . S
C1010 C1011 1.404 . S
C1010 C1013 1.539 . S
C1011 C1007 1.408 . S
C1011 C1010 1.404 . S
C1011 H1023 0.930 . S
C1012 C1008 1.524 . S
C1012 H1024 0.956 . S
C1012 H1025 0.961 . S
C1012 H1026 0.961 . S
C1013 C1010 1.539 . S
C1013 H1027 0.958 . S
C1013 H1028 0.961 . S
C1013 H1029 0.960 . S
H1014 C998 0.931 . S
H1015 C1003 0.929 . S
H1016 C1004 0.960 . S
H1017 C1004 0.962 . S
H1018 C1004 0.960 . S
H1019 C1005 0.961 1_565 S
H1020 C1005 0.961 . S
H1021 C1005 0.961 . S
H1022 C1006 0.931 . S
H1023 C1011 0.930 . S
H1024 C1012 0.956 . S
H1025 C1012 0.961 . S
H1026 C1012 0.961 . S
H1027 C1013 0.958 . S
H1028 C1013 0.961 . S
H1029 C1013 0.960 . S
C1030 C1031 1.391 . S
C1030 C1032 1.394 1_565 S
C1030 H1046 0.931 . S
C1031 C1030 1.391 . S
C1031 C1035 1.376 1_565 S
C1032 C1030 1.394 1_545 S
C1032 C1033 1.369 . S
C1032 C1036 1.531 . S
C1033 C1032 1.369 . S
C1033 C1034 1.410 . S
C1033 C1041 1.503 . S
C1034 C1033 1.410 . S
C1034 C1035 1.392 . S
C1034 C1037 1.511 . S
C1035 C1031 1.376 1_545 S
C1035 C1034 1.392 . S
C1035 H1047 0.929 . S
C1036 C1032 1.531 . S
C1036 H1048 0.960 . S
C1036 H1049 0.962 . S
C1036 H1050 0.960 1_545 S
C1037 C1034 1.511 . S
C1037 H1051 0.961 . S
C1037 H1052 0.961 . S
C1037 H1053 0.961 . S
C1038 C1039 1.370 . S
C1038 C1040 1.363 1_455 S
C1038 H1054 0.931 . S
C1039 C1038 1.370 . S
C1039 C1043 1.408 1_455 S
C1040 C1038 1.363 1_655 S
C1040 C1041 1.370 . S
C1040 C1044 1.524 . S
C1041 C1033 1.503 . S
C1041 C1040 1.370 . S
C1041 C1042 1.403 . S
C1042 C1041 1.403 . S
C1042 C1043 1.404 . S
C1042 C1045 1.539 . S
C1043 C1039 1.408 1_655 S
C1043 C1042 1.404 . S
C1043 H1055 0.930 1_655 S
C1044 C1040 1.524 . S
C1044 H1056 0.956 . S
C1044 H1057 0.961 . S
C1044 H1058 0.961 . S
C1045 C1042 1.539 . S
C1045 H1059 0.958 . S
C1045 H1060 0.961 . S
C1045 H1061 0.960 . S
H1046 C1030 0.931 . S
H1047 C1035 0.929 . S
H1048 C1036 0.960 . S
H1049 C1036 0.962 . S
H1050 C1036 0.960 1_565 S
H1051 C1037 0.961 . S
H1052 C1037 0.961 . S
H1053 C1037 0.961 . S
H1054 C1038 0.931 . S
H1055 C1043 0.930 1_455 S
H1056 C1044 0.956 . S
H1057 C1044 0.961 . S
H1058 C1044 0.961 . S
H1059 C1045 0.958 . S
H1060 C1045 0.961 . S
H1061 C1045 0.960 . S
C199 C18 1.257 . S
C207 C164 1.232 . S
C231 C30 1.250 . S
C239 C194 1.222 . S
C263 C142 1.263 . S
C271 C62 1.267 . S
C295 C169 1.338 . S
C303 C51 1.347 . S
C327 C183 1.357 . S
C335 C7 1.355 . S
C359 C147 1.325 . S
C367 C43 1.340 . S
C391 C40 1.205 . S
C399 C84 1.259 . S
C423 C106 1.265 . S
C431 C54 1.242 . S
C455 C10 1.215 . S
C463 C120 1.261 . S
C487 C29 1.326 . S
C495 C125 1.341 . S
C519 C73 1.353 . S
C527 C59 1.354 . S
C551 C15 1.337 . S
C559 C95 1.347 . S
C583 C150 1.259 . S
C591 C98 1.234 . S
C615 C118 1.254 . S
C623 C172 1.266 . S
C647 C184 1.261 . S
C655 C76 1.236 . S
C679 C197 1.346 . S
C687 C103 1.352 . S
C711 C131 1.325 . S
C719 C139 1.339 . S
C743 C81 1.345 . S
C751 C161 1.345 . S
C775 C8 0.872 . S
C783 C37 0.872 . S
C807 C65 0.924 . S
C815 C32 0.909 . S
C839 C52 0.900 . S
C847 C21 0.899 . S
C871 C109 0.927 . S
C879 C74 0.906 . S
C903 C117 0.847 . S
C911 C96 0.886 . S
C935 C128 0.892 . S
C943 C87 0.894 . S
C967 C175 0.921 . S
C975 C140 0.909 . S
C999 C162 0.902 . S
C1007 C191 0.887 . S
C1031 C153 0.922 . S
C1039 C186 0.909 . S
