# Generated by pormake.
# Topology mdf, (4)-cn, num edge types: 1
# Building blocks:
#     Node 0, Type 0, BuildingBlock: NAHDIM_clean_sbu_0, # of connection points: 4
#     Node 1, Type 0, BuildingBlock: NAHDIM_clean_sbu_0, # of connection points: 4
#     Node 2, Type 0, BuildingBlock: NAHDIM_clean_sbu_0, # of connection points: 4
#     Node 3, Type 0, BuildingBlock: NAHDIM_clean_sbu_0, # of connection points: 4
#     Node 4, Type 0, BuildingBlock: NAHDIM_clean_sbu_0, # of connection points: 4
#     Node 5, Type 0, BuildingBlock: NAHDIM_clean_sbu_0, # of connection points: 4
#     Node 6, Type 0, BuildingBlock: NAHDIM_clean_sbu_0, # of connection points: 4
#     Node 7, Type 0, BuildingBlock: NAHDIM_clean_sbu_0, # of connection points: 4
#     Edge 8, Type (0, 0), BuildingBlock: FUNLAD_clean_linker_1, # of connection points: 2
#     Edge 9, Type (0, 0), BuildingBlock: FUNLAD_clean_linker_1, # of connection points: 2
#     Edge 10, Type (0, 0), BuildingBlock: FUNLAD_clean_linker_1, # of connection points: 2
#     Edge 11, Type (0, 0), BuildingBlock: FUNLAD_clean_linker_1, # of connection points: 2
#     Edge 12, Type (0, 0), BuildingBlock: FUNLAD_clean_linker_1, # of connection points: 2
#     Edge 13, Type (0, 0), BuildingBlock: FUNLAD_clean_linker_1, # of connection points: 2
#     Edge 14, Type (0, 0), BuildingBlock: FUNLAD_clean_linker_1, # of connection points: 2
#     Edge 15, Type (0, 0), BuildingBlock: FUNLAD_clean_linker_1, # of connection points: 2
#     Edge 16, Type (0, 0), BuildingBlock: FUNLAD_clean_linker_1, # of connection points: 2
#     Edge 17, Type (0, 0), BuildingBlock: FUNLAD_clean_linker_1, # of connection points: 2
#     Edge 18, Type (0, 0), BuildingBlock: FUNLAD_clean_linker_1, # of connection points: 2
#     Edge 19, Type (0, 0), BuildingBlock: FUNLAD_clean_linker_1, # of connection points: 2
#     Edge 20, Type (0, 0), BuildingBlock: FUNLAD_clean_linker_1, # of connection points: 2
#     Edge 21, Type (0, 0), BuildingBlock: FUNLAD_clean_linker_1, # of connection points: 2
#     Edge 22, Type (0, 0), BuildingBlock: FUNLAD_clean_linker_1, # of connection points: 2
#     Edge 23, Type (0, 0), BuildingBlock: FUNLAD_clean_linker_1, # of connection points: 2
# Relax obj value: 0.050
# Max RMSD: 0.056
# Mean RMSD: 0.056
data_MOF--net-mdf--node1-NAHDIM_clean_sbu_0--edge1-FUNLAD_clean_linker_1
_symmetry_space_group_name_H-M    P1
_symmetry_Int_Tables_number       1
_symmetry_cell_setting            triclinic
loop_
_symmetry_equiv_pos_as_xyz
'x, y, z'
_cell_length_a     36.315259
_cell_length_b     36.068787
_cell_length_c     15.406255
_cell_angle_alpha  90.013348
_cell_angle_beta   90.043355
_cell_angle_gamma 95.097057
loop_
_atom_site_label
_atom_site_type_symbol
_atom_site_fract_x
_atom_site_fract_y
_atom_site_fract_z
_atom_type_partial_charge
C0 C 0.2405 0.62229 0.49356 0.0
O1 O 0.26386 0.63685 0.43534 0.0
O2 O 0.26615 0.58211 0.29587 0.0
Zn3 Zn 0.25216 0.55325 0.40478 0.0
O4 O 0.21366 0.51058 0.37882 0.0
C5 C 0.32945 0.55104 0.44995 0.0
O6 O 0.33127 0.58652 0.42986 0.0
O7 O 0.23198 0.5873 0.49413 0.0
C8 C 0.2082 0.4846 0.4344 0.0
O9 O 0.22732 0.48637 0.50684 0.0
C10 C 0.2468 0.58212 0.2271 0.0
O11 O 0.21462 0.56249 0.22386 0.0
O12 O 0.29843 0.5317 0.44729 0.0
C13 C 0.40152 0.74319 0.50859 0.0
O14 O 0.38617 0.71449 0.5517 0.0
O15 O 0.42246 0.72291 0.72881 0.0
Zn16 Zn 0.45996 0.73977 0.63667 0.0
O17 O 0.49393 0.7825 0.6851 0.0
C18 C 0.47344 0.66345 0.59936 0.0
O19 O 0.43778 0.65783 0.61395 0.0
O20 O 0.43305 0.75808 0.53202 0.0
C21 C 0.52441 0.79461 0.65058 0.0
O22 O 0.53539 0.77911 0.57904 0.0
C23 C 0.42874 0.72928 0.80891 0.0
O24 O 0.46013 0.74721 0.83277 0.0
O25 O 0.48926 0.69633 0.60436 0.0
C26 C 0.30561 0.93131 0.07148 0.0
O27 O 0.31366 0.96748 0.07537 0.0
O28 O 0.24105 0.91693 0.8254 0.0
Zn29 Zn 0.26967 0.94986 0.91219 0.0
O30 O 0.31506 0.97811 0.8599 0.0
C31 C 0.20161 0.98043 0.96743 0.0
O32 O 0.1868 0.94601 0.95955 0.0
O33 O 0.28612 0.91748 0.00897 0.0
C34 C 0.31243 0.0096 0.82453 0.0
O35 O 0.27977 0.02234 0.81745 0.0
C36 C 0.24871 0.91467 0.74536 0.0
O37 O 0.27775 0.93441 0.71362 0.0
O38 O 0.23602 0.98778 0.95442 0.0
C39 C 0.09462 0.73284 0.99489 0.0
O40 O 0.0962 0.72088 0.07516 0.0
O41 O 0.088 0.7991 0.16496 0.0
Zn42 Zn 0.04823 0.77864 0.08174 0.0
O43 O 0.01743 0.73509 0.13717 0.0
C44 C 0.00619 0.84075 0.11215 0.0
O45 O 0.01524 0.83299 0.19215 0.0
O46 O 0.07449 0.75902 0.97759 0.0
C47 C 0.9823 0.73162 0.13914 0.0
O48 O 0.96373 0.75755 0.10455 0.0
C49 C 0.08693 0.79334 0.24626 0.0
O50 O 0.05887 0.7728 0.28016 0.0
O51 O 0.01673 0.82075 0.05035 0.0
C52 C 0.74911 0.13105 0.00462 0.0
O53 O 0.77215 0.1457 0.94589 0.0
O54 O 0.775 0.09567 0.80934 0.0
Zn55 Zn 0.76277 0.0633 0.91411 0.0
O56 O 0.72433 0.0216 0.87785 0.0
C57 C 0.84135 0.04954 0.92896 0.0
O58 O 0.847 0.07816 0.87662 0.0
O59 O 0.74151 0.09587 0.0065 0.0
C60 C 0.73458 0.99027 0.85425 0.0
O61 O 0.76986 0.98502 0.85506 0.0
C62 C 0.78718 0.08381 0.73833 0.0
O63 O 0.79215 0.04835 0.72987 0.0
O64 O 0.80878 0.03992 0.95616 0.0
C65 C 0.91321 0.23529 0.93304 0.0
O66 O 0.89993 0.20261 0.96217 0.0
O67 O 0.93352 0.20768 0.15476 0.0
Zn68 Zn 0.96999 0.2317 0.06875 0.0
O69 O 1.00039 0.27626 0.11973 0.0
C70 C 0.01064 0.1696 0.09882 0.0
O71 O 0.99638 0.17438 0.17575 0.0
O72 O 0.94264 0.25112 0.96601 0.0
C73 C 0.01648 0.27802 0.19305 0.0
O74 O 0.01354 0.24905 0.24502 0.0
C75 C 0.91503 0.2223 0.21334 0.0
O76 O 0.9171 0.25866 0.22204 0.0
O77 O 1.00388 0.19165 0.03728 0.0
C78 C 0.80503 0.44197 0.56052 0.0
O79 O 0.81942 0.47624 0.54831 0.0
O80 O 0.73279 0.42776 0.334 0.0
Zn81 Zn 0.75112 0.46211 0.43196 0.0
O82 O 0.7885 0.5023 0.38361 0.0
C83 C 0.67532 0.48312 0.46659 0.0
O84 O 0.66455 0.45828 0.40742 0.0
O85 O 0.77577 0.43032 0.51987 0.0
C86 C 0.77755 0.53307 0.35826 0.0
O87 O 0.74232 0.53828 0.36317 0.0
C88 C 0.7186 0.43847 0.26396 0.0
O89 O 0.71458 0.47396 0.25229 0.0
O90 O 0.70925 0.48771 0.48818 0.0
C91 C 0.59765 0.23783 0.50272 0.0
O92 O 0.59432 0.22194 0.57923 0.0
O93 O 0.57457 0.31148 0.67527 0.0
Zn94 Zn 0.54593 0.2834 0.57966 0.0
O95 O 0.51542 0.23866 0.6284 0.0
C96 C 0.5184 0.3534 0.52985 0.0
O97 O 0.55101 0.36739 0.55703 0.0
O98 O 0.57983 0.26586 0.4865 0.0
C99 C 0.48842 0.24326 0.67852 0.0
O100 O 0.48152 0.27713 0.70033 0.0
C101 C 0.59253 0.29775 0.73633 0.0
O102 O 0.59419 0.26158 0.74114 0.0
O103 O 0.51064 0.31832 0.53013 0.0
H104 H 0.41019 0.71921 0.94359 0.0
C105 C 0.4023 0.7149 0.87598 0.0
H106 H 0.36231 0.68981 0.7895 0.0
H107 H 0.3128 0.56498 0.06672 0.0
H108 H 0.34064 0.52923 0.95521 0.0
H109 H 0.37144 0.56035 0.82881 0.0
H110 H 0.37484 0.62743 0.81362 0.0
C111 C 0.37011 0.69535 0.8567 0.0
C112 C 0.34704 0.67664 0.92649 0.0
C113 C 0.34443 0.63729 0.9331 0.0
C114 C 0.32626 0.61932 0.00543 0.0
C115 C 0.32555 0.58009 0.01238 0.0
C116 C 0.34159 0.5592 0.94895 0.0
C117 C 0.35897 0.57671 0.87786 0.0
C118 C 0.36065 0.61528 0.8699 0.0
H119 H 0.24544 0.59938 0.08945 0.0
C120 C 0.26135 0.60223 0.14924 0.0
H121 H 0.30999 0.62649 0.2096 0.0
H122 H 0.34092 0.75169 0.92426 0.0
H123 H 0.31003 0.78718 0.03171 0.0
H124 H 0.28088 0.75654 0.16049 0.0
H125 H 0.28034 0.68963 0.17993 0.0
C126 C 0.29421 0.62257 0.14984 0.0
C127 C 0.3102 0.64077 0.07015 0.0
C128 C 0.31125 0.67995 0.06128 0.0
C129 C 0.3293 0.69788 0.98879 0.0
C130 C 0.32863 0.73685 0.97959 0.0
C131 C 0.31099 0.75755 0.04074 0.0
C132 C 0.29429 0.74022 0.11289 0.0
C133 C 0.29427 0.70185 0.12335 0.0
H134 H 0.35337 0.74634 0.42202 0.0
C135 C 0.38082 0.75922 0.43729 0.0
H136 H 0.42176 0.80257 0.40702 0.0
H137 H 0.36512 0.84136 0.0364 0.0
H138 H 0.41566 0.80501 0.99694 0.0
H139 H 0.44645 0.76902 0.10733 0.0
H140 H 0.42719 0.76956 0.25825 0.0
C141 C 0.394 0.78994 0.39417 0.0
C142 C 0.37191 0.80734 0.32626 0.0
C143 C 0.38319 0.80643 0.23827 0.0
C144 C 0.36483 0.82645 0.17424 0.0
C145 C 0.37764 0.82614 0.08743 0.0
C146 C 0.40666 0.80543 0.06388 0.0
C147 C 0.424 0.78517 0.12605 0.0
C148 C 0.4127 0.78576 0.21241 0.0
H149 H 0.33533 0.92061 0.19248 0.0
C150 C 0.32044 0.90724 0.13802 0.0
H151 H 0.30388 0.85611 0.07622 0.0
H152 H 0.34303 0.81546 0.48929 0.0
H153 H 0.28885 0.84672 0.52573 0.0
H154 H 0.2538 0.87674 0.41192 0.0
H155 H 0.27331 0.87625 0.26193 0.0
C156 C 0.31726 0.86987 0.13212 0.0
C157 C 0.33462 0.84665 0.19799 0.0
C158 C 0.32172 0.84543 0.28489 0.0
C159 C 0.34093 0.82659 0.34958 0.0
C160 C 0.32881 0.82805 0.43681 0.0
C161 C 0.29774 0.84605 0.45878 0.0
C162 C 0.27809 0.86304 0.39495 0.0
C163 C 0.28979 0.86281 0.30899 0.0
H164 H 0.13943 0.82738 0.27004 0.0
C165 C 0.11629 0.81159 0.30159 0.0
H166 H 0.09194 0.79462 0.42128 0.0
H167 H 0.23921 0.82113 0.63998 0.0
H168 H 0.22941 0.75374 0.6412 0.0
H169 H 0.18043 0.72104 0.5513 0.0
H170 H 0.14081 0.75529 0.46101 0.0
C171 C 0.11446 0.81086 0.38864 0.0
C172 C 0.14371 0.831 0.443 0.0
C173 C 0.16618 0.81055 0.49706 0.0
C174 C 0.19434 0.82948 0.5489 0.0
C175 C 0.21697 0.80825 0.60057 0.0
C176 C 0.21177 0.76952 0.60158 0.0
C177 C 0.1842 0.75108 0.55116 0.0
C178 C 0.16161 0.77116 0.49944 0.0
H179 H 0.19951 0.87609 0.71854 0.0
C180 C 0.22351 0.89123 0.68889 0.0
H181 H 0.25129 0.90536 0.5716 0.0
H182 H 0.10288 0.87922 0.35419 0.0
H183 H 0.11382 0.94637 0.34993 0.0
H184 H 0.16442 0.97898 0.43485 0.0
H185 H 0.20406 0.94456 0.52533 0.0
C186 C 0.22828 0.88924 0.60276 0.0
C187 C 0.19979 0.86891 0.54686 0.0
C188 C 0.17761 0.88937 0.49212 0.0
C189 C 0.14908 0.87048 0.44134 0.0
C190 C 0.12594 0.89186 0.39133 0.0
C191 C 0.13168 0.93054 0.38892 0.0
C192 C 0.16011 0.9489 0.43684 0.0
C193 C 0.18273 0.92875 0.48837 0.0
H194 H 0.13116 0.69189 0.94747 0.0
C195 C 0.11619 0.71529 0.92763 0.0
H196 H 0.1029 0.74941 0.8227 0.0
H197 H 0.25178 0.66055 0.71335 0.0
H198 H 0.28438 0.69999 0.8207 0.0
H199 H 0.25151 0.74378 0.90868 0.0
H200 H 0.18568 0.7479 0.89033 0.0
C201 C 0.11833 0.72671 0.84463 0.0
C202 C 0.13962 0.70638 0.77995 0.0
C203 C 0.17843 0.70538 0.78885 0.0
C204 C 0.19769 0.68143 0.73523 0.0
C205 C 0.23598 0.67932 0.74957 0.0
C206 C 0.25504 0.70162 0.81162 0.0
C207 C 0.23653 0.72618 0.86128 0.0
C208 C 0.19868 0.7281 0.85047 0.0
H209 H 0.23126 0.67677 0.5508 0.0
C210 C 0.22336 0.64704 0.55502 0.0
H211 H 0.18879 0.60473 0.61611 0.0
H212 H 0.06607 0.70474 0.73957 0.0
H213 H 0.03433 0.66971 0.6231 0.0
H214 H 0.06812 0.63022 0.52602 0.0
H215 H 0.13378 0.62528 0.54516 0.0
C216 C 0.19792 0.63423 0.6136 0.0
C217 C 0.17841 0.65993 0.66965 0.0
C218 C 0.14003 0.66275 0.65723 0.0
C219 C 0.12063 0.68597 0.7124 0.0
C220 C 0.08223 0.68779 0.69918 0.0
C221 C 0.06366 0.66783 0.63253 0.0
C222 C 0.08267 0.64556 0.57792 0.0
C223 C 0.12037 0.64291 0.58983 0.0
H224 H 0.79203 0.13943 0.67801 0.0
C225 C 0.79842 0.11077 0.66948 0.0
H226 H 0.82452 0.0731 0.59038 0.0
H227 H 0.82544 0.16849 0.24785 0.0
H228 H 0.78135 0.11653 0.2107 0.0
H229 H 0.75869 0.07088 0.32171 0.0
H230 H 0.78066 0.07647 0.4702 0.0
C231 C 0.81828 0.1017 0.60046 0.0
C232 C 0.83153 0.13002 0.53465 0.0
C233 C 0.81826 0.12655 0.44825 0.0
C234 C 0.83128 0.15298 0.38431 0.0
C235 C 0.81725 0.14884 0.2987 0.0
C236 C 0.79163 0.11929 0.27659 0.0
C237 C 0.77885 0.0936 0.33908 0.0
C238 C 0.79178 0.09712 0.42405 0.0
H239 H 0.89776 0.16772 0.27019 0.0
C240 C 0.89452 0.19733 0.27557 0.0
H241 H 0.87089 0.23891 0.34772 0.0
H242 H 0.86616 0.14249 0.69202 0.0
H243 H 0.91178 0.19309 0.72803 0.0
H244 H 0.93352 0.2394 0.61785 0.0
H245 H 0.90875 0.23637 0.4719 0.0
C246 C 0.87355 0.20934 0.33954 0.0
C247 C 0.85765 0.18291 0.40696 0.0
C248 C 0.87084 0.18642 0.49354 0.0
C249 C 0.85818 0.15969 0.5572 0.0
C250 C 0.87366 0.16262 0.64172 0.0
C251 C 0.90021 0.1914 0.66322 0.0
C252 C 0.91232 0.2176 0.6013 0.0
C253 C 0.8979 0.21539 0.51752 0.0
H254 H 0.86648 0.24075 0.84309 0.0
C255 C 0.89174 0.25505 0.86894 0.0
H256 H 0.92642 0.30532 0.87166 0.0
H257 H 0.86492 0.36946 0.52309 0.0
H258 H 0.92378 0.35075 0.47272 0.0
H259 H 0.96235 0.31493 0.56754 0.0
H260 H 0.94203 0.29713 0.7129 0.0
C261 C 0.90098 0.29082 0.84732 0.0
C262 C 0.87723 0.31206 0.79007 0.0
C263 C 0.88997 0.32329 0.70634 0.0
C264 C 0.86815 0.34479 0.65248 0.0
C265 C 0.88086 0.35411 0.56767 0.0
C266 C 0.9145 0.34336 0.53773 0.0
C267 C 0.93621 0.32318 0.59109 0.0
C268 C 0.92423 0.31318 0.67442 0.0
H269 H 0.85031 0.42799 0.64668 0.0
C270 C 0.8245 0.41688 0.61689 0.0
H271 H 0.7863 0.36945 0.6026 0.0
H272 H 0.8456 0.29768 0.94969 0.0
H273 H 0.78691 0.31652 0.99982 0.0
H274 H 0.74906 0.35334 0.90625 0.0
H275 H 0.76964 0.37162 0.76103 0.0
C276 C 0.81246 0.38094 0.62985 0.0
C277 C 0.83415 0.35619 0.68361 0.0
C278 C 0.82118 0.34462 0.76694 0.0
C279 C 0.84286 0.32283 0.82057 0.0
C280 C 0.82993 0.31327 0.90511 0.0
C281 C 0.79635 0.32413 0.93505 0.0
C282 C 0.77501 0.34491 0.88227 0.0
C283 C 0.78716 0.35519 0.79923 0.0
H284 H 0.71455 0.38256 0.20466 0.0
C285 C 0.70633 0.41065 0.1974 0.0
H286 H 0.6766 0.44675 0.12234 0.0
H287 H 0.67619 0.35807 0.77149 0.0
H288 H 0.71354 0.41487 0.735 0.0
H289 H 0.73346 0.46068 0.84818 0.0
H290 H 0.71573 0.45015 0.99831 0.0
C291 C 0.68455 0.41862 0.13062 0.0
C292 C 0.67249 0.39039 0.06314 0.0
C293 C 0.68293 0.39704 0.97539 0.0
C294 C 0.67113 0.37077 0.90991 0.0
C295 C 0.68298 0.3777 0.82332 0.0
C296 C 0.70484 0.41004 0.80156 0.0
C297 C 0.71613 0.43578 0.8653 0.0
C298 C 0.7056 0.42942 0.9513 0.0
H299 H 0.60343 0.3518 0.80197 0.0
C300 C 0.60992 0.32294 0.80285 0.0
H301 H 0.63959 0.28296 0.8658 0.0
H302 H 0.64339 0.37075 0.22305 0.0
H303 H 0.60709 0.31359 0.25972 0.0
H304 H 0.59005 0.26613 0.1479 0.0
H305 H 0.60837 0.2764 0.99807 0.0
C306 C 0.63327 0.31183 0.86327 0.0
C307 C 0.64859 0.33794 0.93213 0.0
C308 C 0.63907 0.33072 0.0202 0.0
C309 C 0.65021 0.35737 0.08545 0.0
C310 C 0.63759 0.35074 0.17156 0.0
C311 C 0.61632 0.31808 0.19349 0.0
C312 C 0.6066 0.29148 0.13048 0.0
C313 C 0.61743 0.29773 0.04464 0.0
H314 H 0.73561 0.18594 0.05182 0.0
C315 C 0.73062 0.15615 0.06292 0.0
H316 H 0.70143 0.11403 0.13658 0.0
H317 H 0.6876 0.26179 0.39009 0.0
H318 H 0.75461 0.26745 0.39786 0.0
H319 H 0.79117 0.22846 0.30596 0.0
H320 H 0.76101 0.18386 0.20562 0.0
C321 C 0.70756 0.14377 0.12679 0.0
C322 C 0.68638 0.1696 0.17902 0.0
C323 C 0.70458 0.19558 0.23772 0.0
C324 C 0.68349 0.21757 0.2922 0.0
C325 C 0.70227 0.24368 0.34913 0.0
C326 C 0.74072 0.2474 0.35385 0.0
C327 C 0.76129 0.22547 0.30203 0.0
C328 C 0.74359 0.19989 0.2446 0.0
H329 H 0.63814 0.20019 0.45775 0.0
C330 C 0.62142 0.22214 0.43707 0.0
H331 H 0.60405 0.25293 0.3304 0.0
H332 H 0.64292 0.12614 0.06665 0.0
H333 H 0.57604 0.12206 0.05673 0.0
H334 H 0.53964 0.15954 0.15277 0.0
H335 H 0.56992 0.20141 0.25927 0.0
C336 C 0.62204 0.23253 0.35332 0.0
C337 C 0.64433 0.21325 0.28891 0.0
C338 C 0.62625 0.189 0.22685 0.0
C339 C 0.64726 0.16708 0.17212 0.0
C340 C 0.62837 0.14304 0.11078 0.0
C341 C 0.58997 0.14052 0.10414 0.0
C342 C 0.56948 0.16165 0.15815 0.0
C343 C 0.58723 0.18557 0.21905 0.0
H344 H 0.38971 0.5512 0.47047 0.0
C345 C 0.36387 0.53352 0.46836 0.0
H346 H 0.33896 0.47838 0.47086 0.0
H347 H 0.48117 0.40569 0.34585 0.0
H348 H 0.44565 0.40387 0.21233 0.0
H349 H 0.38861 0.43597 0.20144 0.0
H350 H 0.367 0.47043 0.32368 0.0
C351 C 0.36438 0.4965 0.47704 0.0
C352 C 0.3997 0.4786 0.48351 0.0
C353 C 0.41152 0.45787 0.41211 0.0
C354 C 0.44393 0.43861 0.41903 0.0
C355 C 0.45599 0.41959 0.34529 0.0
C356 C 0.43605 0.41863 0.26794 0.0
C357 C 0.40397 0.43675 0.26176 0.0
C358 C 0.3918 0.45631 0.3326 0.0
H359 H 0.4621 0.36492 0.4911 0.0
C360 C 0.48943 0.37793 0.50705 0.0
H361 H 0.52194 0.42861 0.52863 0.0
H362 H 0.38547 0.51683 0.63172 0.0
H363 H 0.42172 0.51971 0.7641 0.0
H364 H 0.47728 0.48551 0.77704 0.0
H365 H 0.49742 0.4488 0.6573 0.0
C366 C 0.49506 0.4153 0.51013 0.0
C367 C 0.46383 0.4391 0.49838 0.0
C368 C 0.45296 0.46125 0.56849 0.0
C369 C 0.42081 0.48095 0.56113 0.0
C370 C 0.40993 0.50181 0.63315 0.0
C371 C 0.43039 0.50356 0.70978 0.0
C372 C 0.46171 0.48434 0.71703 0.0
C373 C 0.47297 0.46335 0.6476 0.0
H374 H 0.71871 0.9338 0.80516 0.0
C375 C 0.70785 0.95978 0.82387 0.0
H376 H 0.66013 0.9891 0.83181 0.0
H377 H 0.57393 0.88922 0.54516 0.0
H378 H 0.58425 0.94846 0.47067 0.0
H379 H 0.62314 1.00065 0.53624 0.0
H380 H 0.65179 0.99404 0.67695 0.0
C381 C 0.67138 0.96294 0.81662 0.0
C382 C 0.6462 0.9319 0.77976 0.0
C383 C 0.62963 0.9362 0.69743 0.0
C384 C 0.60759 0.9059 0.65905 0.0
C385 C 0.59127 0.91112 0.5769 0.0
C386 C 0.5969 0.94501 0.53346 0.0
C387 C 0.61877 0.97441 0.57042 0.0
C388 C 0.63503 0.97023 0.65133 0.0
H389 H 0.53657 0.83765 0.75108 0.0
C390 C 0.54707 0.82574 0.69221 0.0
H391 H 0.59035 0.82859 0.60034 0.0
H392 H 0.66948 0.91581 0.94347 0.0
H393 H 0.66069 0.85611 0.01644 0.0
H394 H 0.62635 0.80227 0.94557 0.0
H395 H 0.60004 0.80796 0.80217 0.0
C396 C 0.58001 0.8394 0.66059 0.0
C397 C 0.60217 0.87127 0.70289 0.0
C398 C 0.61853 0.86704 0.78565 0.0
C399 C 0.63984 0.89762 0.82489 0.0
C400 C 0.65431 0.89313 0.90925 0.0
C401 C 0.64927 0.85907 0.95213 0.0
C402 C 0.62982 0.8288 0.91237 0.0
C403 C 0.61463 0.83254 0.83013 0.0
H404 H 0.03754 0.12098 0.14344 0.0
C405 C 0.03424 0.13879 0.08749 0.0
H406 H 0.04862 0.14871 0.95615 0.0
H407 H 0.17203 0.04283 0.13529 0.0
H408 H 0.19036 0.09675 0.22419 0.0
H409 H 0.15831 0.15402 0.21153 0.0
H410 H 0.10693 0.15713 0.11209 0.0
C411 C 0.05226 0.13215 0.01392 0.0
C412 C 0.07602 0.10049 0.00939 0.0
C413 C 0.10785 0.1002 0.06288 0.0
C414 C 0.12816 0.06826 0.06523 0.0
C415 C 0.15728 0.06729 0.12623 0.0
C416 C 0.16783 0.09792 0.17851 0.0
C417 C 0.14966 0.13007 0.17175 0.0
C418 C 0.12 0.13136 0.11481 0.0
H419 H 0.19113 0.03954 0.97301 0.0
C420 C 0.17836 0.01138 0.98192 0.0
H421 H 0.12927 0.97796 0.01028 0.0
H422 H 0.01564 0.09123 0.90279 0.0
H423 H 0.99804 0.03783 0.81145 0.0
H424 H 0.03607 0.98452 0.80636 0.0
H425 H 0.09155 0.98399 0.89337 0.0
C426 C 0.14231 1.00607 0.00274 0.0
C427 C 0.11871 0.03793 0.00822 0.0
C428 C 0.087 0.03835 0.95425 0.0
C429 C 0.06547 0.06949 0.95556 0.0
C430 C 0.03328 0.06859 0.90334 0.0
C431 C 0.02283 0.03809 0.85061 0.0
C432 C 0.04421 1.00806 0.84786 0.0
C433 C 0.07602 1.00811 0.89848 0.0
H434 H 0.97936 0.67604 0.2006 0.0
C435 C 0.9629 0.69786 0.17798 0.0
H436 H 0.90914 0.71446 0.16047 0.0
H437 H 0.8252 0.55469 0.15373 0.0
H438 H 0.82138 0.57264 0.00256 0.0
H439 H 0.85635 0.62969 0.94829 0.0
H440 H 0.89547 0.66903 0.04471 0.0
C441 C 0.92587 0.69328 0.18522 0.0
C442 C 0.90619 0.65804 0.21849 0.0
C443 C 0.88309 0.63551 0.16146 0.0
C444 C 0.86254 0.60284 0.19295 0.0
C445 C 0.84057 0.58034 0.13387 0.0
C446 C 0.83835 0.59016 0.04672 0.0
C447 C 0.85807 0.62226 0.01615 0.0
C448 C 0.88032 0.64468 0.07239 0.0
H449 H 0.79173 0.58806 0.29953 0.0
C450 C 0.8034 0.56311 0.32248 0.0
H451 H 0.85262 0.53705 0.34247 0.0
H452 H 0.94674 0.69541 0.34681 0.0
H453 H 0.95183 0.67627 0.49668 0.0
H454 H 0.91738 0.61877 0.55003 0.0
H455 H 0.8774 0.58016 0.45371 0.0
C456 C 0.84012 0.56111 0.31723 0.0
C457 C 0.86459 0.593 0.28187 0.0
C458 C 0.88875 0.61467 0.33819 0.0
C459 C 0.90922 0.64749 0.30687 0.0
C460 C 0.93151 0.66962 0.36603 0.0
C461 C 0.93447 0.6591 0.45258 0.0
C462 C 0.91503 0.62676 0.48266 0.0
C463 C 0.89222 0.60483 0.42661 0.0
H464 H 0.37283 0.02179 0.80793 0.0
C465 C 0.34619 0.03277 0.79855 0.0
H466 H 0.31838 0.07872 0.75727 0.0
H467 H 0.47731 0.17062 0.85155 0.0
H468 H 0.46149 0.15595 1.00141 0.0
H469 H 0.4071 0.11274 0.03708 0.0
H470 H 0.36864 0.08344 0.92325 0.0
C471 C 0.34482 0.06759 0.76842 0.0
C472 C 0.37882 0.09212 0.74782 0.0
C473 C 0.40047 0.10967 0.81542 0.0
C474 C 0.43097 0.13575 0.79499 0.0
C475 C 0.45301 0.15174 0.86355 0.0
C476 C 0.44439 0.14335 0.94983 0.0
C477 C 0.41384 0.11894 0.96989 0.0
C478 C 0.39203 0.10222 0.90381 0.0
H479 H 0.43933 0.21731 0.7463 0.0
C480 C 0.46317 0.2114 0.7077 0.0
H481 H 0.49063 0.16981 0.64442 0.0
H482 H 0.3449 0.06112 0.60342 0.0
H483 H 0.3608 0.07567 0.45348 0.0
H484 H 0.41242 0.12231 0.4179 0.0
H485 H 0.44853 0.15458 0.53174 0.0
C486 C 0.46759 0.17602 0.6853 0.0
C487 C 0.4389 0.14527 0.70718 0.0
C488 C 0.41819 0.12655 0.63963 0.0
C489 C 0.38814 0.09996 0.66005 0.0
C490 C 0.36776 0.08182 0.59142 0.0
C491 C 0.37664 0.08985 0.50512 0.0
C492 C 0.40572 0.11608 0.48509 0.0
C493 C 0.42628 0.13437 0.55121 0.0
H494 H 0.89693 0.03117 0.90675 0.0
C495 C 0.87182 0.02575 0.94476 0.0
H496 H 0.84301 0.99042 0.03527 0.0
H497 H 0.91585 0.84357 0.96133 0.0
H498 H 0.85261 0.82801 0.91475 0.0
H499 H 0.80883 0.87635 0.90473 0.0
H500 H 0.82785 0.94037 0.942 0.0
C501 C 0.86849 0.99642 0.99892 0.0
C502 C 0.8962 0.96812 1.00082 0.0
C503 C 0.88483 0.9308 0.97689 0.0
C504 C 0.91028 0.90301 0.98085 0.0
C505 C 0.89784 0.86588 0.95855 0.0
C506 C 0.86158 0.85652 0.93169 0.0
C507 C 0.83693 0.88372 0.92619 0.0
C508 C 0.84824 0.92042 0.94823 0.0
H509 H 0.97435 0.88677 0.15358 0.0
C510 C 0.98334 0.87203 0.09691 0.0
H511 H 0.9805 0.86753 0.96034 0.0
H512 H 0.92703 0.03613 0.05768 0.0
H513 H 0.99118 0.05209 0.09632 0.0
H514 H 0.03615 1.00477 0.09263 0.0
H515 H 0.01721 0.94112 0.05025 0.0
C516 C 0.97285 0.8826 0.01771 0.0
C517 C 0.94724 0.91252 0.00778 0.0
C518 C 0.95906 0.95005 0.02855 0.0
C519 C 0.93337 0.97772 0.02706 0.0
C520 C 0.94557 0.01437 0.0537 0.0
C521 C 0.98229 0.02385 0.07693 0.0
C522 C 0.00761 0.99719 0.07501 0.0
C523 C 0.99632 0.9607 0.0511 0.0
H524 H 0.0403 0.33567 0.17169 0.0
C525 C 0.03941 0.31238 0.21668 0.0
H526 H 0.06083 0.29189 0.33301 0.0
H527 H 0.2073 0.40146 0.30437 0.0
H528 H 0.23054 0.34249 0.26765 0.0
H529 H 0.18791 0.28593 0.24834 0.0
H530 H 0.12174 0.28805 0.26526 0.0
C531 C 0.06011 0.31538 0.28907 0.0
C532 C 0.08569 0.34927 0.30582 0.0
C533 C 0.12436 0.3474 0.29756 0.0
C534 C 0.14899 0.37993 0.30979 0.0
C535 C 0.18738 0.37749 0.29792 0.0
C536 C 0.2011 0.34383 0.2763 0.0
C537 C 0.1771 0.312 0.26533 0.0
C538 C 0.13917 0.31361 0.27542 0.0
H539 H 0.18004 0.42958 0.46579 0.0
C540 C 0.18181 0.45182 0.41792 0.0
H541 H 0.16105 0.47053 0.29897 0.0
H542 H 0.01339 0.36184 0.33394 0.0
H543 H 0.99013 0.42081 0.37111 0.0
H544 H 0.03275 0.47742 0.39002 0.0
H545 H 0.09896 0.47535 0.37249 0.0
C546 C 0.16063 0.44819 0.34636 0.0
C547 C 0.13493 0.41418 0.33182 0.0
C548 C 0.09627 0.41602 0.34043 0.0
C549 C 0.07163 0.38347 0.32823 0.0
C550 C 0.03326 0.38586 0.34033 0.0
C551 C 0.01955 0.4195 0.36219 0.0
C552 C 0.04355 0.45137 0.37296 0.0
C553 C 0.08149 0.4498 0.36255 0.0
H554 H 0.47903 0.60422 0.57082 0.0
C555 C 0.49438 0.63135 0.57775 0.0
H556 H 0.54683 0.66152 0.57155 0.0
H557 H 0.59098 0.48715 0.61772 0.0
H558 H 0.56291 0.48911 0.76044 0.0
H559 H 0.53053 0.54319 0.80589 0.0
H560 H 0.52526 0.5952 0.70852 0.0
C561 C 0.53126 0.63443 0.5672 0.0
C562 C 0.55154 0.60186 0.54185 0.0
C563 C 0.5551 0.57203 0.60063 0.0
C564 C 0.57505 0.54146 0.57575 0.0
C565 C 0.57709 0.5115 0.63438 0.0
C566 C 0.56103 0.51223 0.71634 0.0
C567 C 0.54269 0.54263 0.74182 0.0
C568 C 0.53966 0.57223 0.68498 0.0
H569 H 0.65945 0.52851 0.55119 0.0
C570 C 0.64937 0.50873 0.50149 0.0
H571 H 0.6055 0.49234 0.41567 0.0
H572 H 0.54916 0.65371 0.41268 0.0
H573 H 0.5783 0.65213 0.27133 0.0
H574 H 0.61433 0.60004 0.23003 0.0
H575 H 0.62132 0.54911 0.32966 0.0
C576 C 0.61528 0.51062 0.46851 0.0
C577 C 0.59242 0.54129 0.49341 0.0
C578 C 0.5886 0.5709 0.43446 0.0
C579 C 0.56818 0.60117 0.45868 0.0
C580 C 0.56471 0.63024 0.39817 0.0
C581 C 0.58123 0.62965 0.31667 0.0
C582 C 0.60148 0.60031 0.29339 0.0
C583 C 0.60524 0.57122 0.35126 0.0
loop_
_geom_bond_atom_site_label_1
_geom_bond_atom_site_label_2
_geom_bond_distance
_geom_bond_site_symmetry_2
_ccdc_geom_bond_type
C0 O1 1.160 . S
C0 O7 1.185 . S
O1 C0 1.160 . S
O2 Zn3 1.899 . S
O2 C10 1.284 . S
Zn3 O2 1.899 . S
Zn3 O4 2.032 . S
Zn3 O7 2.086 . S
Zn3 O12 1.977 . S
O4 Zn3 2.032 . S
O4 C8 1.278 . S
C5 O6 1.203 . S
C5 O12 1.267 . S
O6 C5 1.203 . S
O7 C0 1.185 . S
O7 Zn3 2.086 . S
C8 O4 1.278 . S
C8 O9 1.211 . S
O9 C8 1.211 . S
C10 O2 1.284 . S
C10 O11 1.273 . S
O11 C10 1.273 . S
O12 Zn3 1.977 . S
O12 C5 1.267 . S
C13 O14 1.160 . S
C13 O20 1.185 . S
O14 C13 1.160 . S
O15 Zn16 1.899 . S
O15 C23 1.284 . S
Zn16 O15 1.899 . S
Zn16 O17 2.032 . S
Zn16 O20 2.086 . S
Zn16 O25 1.977 . S
O17 Zn16 2.032 . S
O17 C21 1.278 . S
C18 O19 1.203 . S
C18 O25 1.267 . S
O19 C18 1.203 . S
O20 C13 1.185 . S
O20 Zn16 2.086 . S
C21 O17 1.278 . S
C21 O22 1.211 . S
O22 C21 1.211 . S
C23 O15 1.284 . S
C23 O24 1.273 . S
O24 C23 1.273 . S
O25 Zn16 1.977 . S
O25 C18 1.267 . S
C26 O27 1.160 1_554 S
C26 O33 1.185 . S
O27 C26 1.160 1_556 S
O28 Zn29 1.899 . S
O28 C36 1.284 . S
Zn29 O28 1.899 . S
Zn29 O30 2.032 . S
Zn29 O33 2.086 1_556 S
Zn29 O38 1.977 . S
O30 Zn29 2.032 . S
O30 C34 1.278 1_565 S
C31 O32 1.207 . S
C31 O38 1.281 . S
O32 C31 1.207 . S
O33 C26 1.185 . S
O33 Zn29 2.086 1_554 S
C34 O30 1.278 1_545 S
C34 O35 1.211 . S
O35 C34 1.211 . S
C36 O28 1.284 . S
C36 O37 1.273 . S
O37 C36 1.273 . S
O38 Zn29 1.977 . S
O38 C31 1.281 . S
C39 O40 1.160 1_556 S
C39 O46 1.185 . S
O40 C39 1.160 1_554 S
O41 Zn42 1.899 . S
O41 C49 1.284 . S
Zn42 O41 1.899 . S
Zn42 O43 2.032 . S
Zn42 O46 2.086 1_554 S
Zn42 O51 1.977 . S
O43 Zn42 2.032 . S
O43 C47 1.278 1_455 S
C44 O45 1.207 . S
C44 O51 1.281 . S
O45 C44 1.207 . S
O46 C39 1.185 . S
O46 Zn42 2.086 1_556 S
C47 O43 1.278 1_655 S
C47 O48 1.211 . S
O48 C47 1.211 . S
C49 O41 1.284 . S
C49 O50 1.273 . S
O50 C49 1.273 . S
O51 Zn42 1.977 . S
O51 C44 1.281 . S
C52 O53 1.160 1_554 S
C52 O59 1.185 . S
O53 C52 1.160 1_556 S
O54 Zn55 1.899 . S
O54 C62 1.284 . S
Zn55 O54 1.899 . S
Zn55 O56 2.032 . S
Zn55 O59 2.086 1_556 S
Zn55 O64 1.977 . S
O56 Zn55 2.032 . S
O56 C60 1.278 1_545 S
C57 O58 1.207 . S
C57 O64 1.281 . S
O58 C57 1.207 . S
O59 C52 1.185 . S
O59 Zn55 2.086 1_554 S
C60 O56 1.278 1_565 S
C60 O61 1.211 . S
O61 C60 1.211 . S
C62 O54 1.284 . S
C62 O63 1.273 . S
O63 C62 1.273 . S
O64 Zn55 1.977 . S
O64 C57 1.281 . S
C65 O66 1.160 1_556 S
C65 O72 1.185 . S
O66 C65 1.160 1_554 S
O67 Zn68 1.899 . S
O67 C75 1.284 . S
Zn68 O67 1.899 . S
Zn68 O69 2.032 . S
Zn68 O72 2.086 1_554 S
Zn68 O77 1.977 . S
O69 Zn68 2.032 . S
O69 C73 1.278 1_655 S
C70 O71 1.207 . S
C70 O77 1.281 . S
O71 C70 1.207 . S
O72 C65 1.185 . S
O72 Zn68 2.086 1_556 S
C73 O69 1.278 1_455 S
C73 O74 1.211 . S
O74 C73 1.211 . S
C75 O67 1.284 . S
C75 O76 1.273 . S
O76 C75 1.273 . S
O77 Zn68 1.977 . S
O77 C70 1.281 . S
C78 O79 1.160 . S
C78 O85 1.185 . S
O79 C78 1.160 . S
O80 Zn81 1.899 . S
O80 C88 1.284 . S
Zn81 O80 1.899 . S
Zn81 O82 2.032 . S
Zn81 O85 2.086 . S
Zn81 O90 1.977 . S
O82 Zn81 2.032 . S
O82 C86 1.278 . S
C83 O84 1.203 . S
C83 O90 1.267 . S
O84 C83 1.203 . S
O85 C78 1.185 . S
O85 Zn81 2.086 . S
C86 O82 1.278 . S
C86 O87 1.211 . S
O87 C86 1.211 . S
C88 O80 1.284 . S
C88 O89 1.273 . S
O89 C88 1.273 . S
O90 Zn81 1.977 . S
O90 C83 1.267 . S
C91 O92 1.160 . S
C91 O98 1.185 . S
O92 C91 1.160 . S
O93 Zn94 1.899 . S
O93 C101 1.284 . S
Zn94 O93 1.899 . S
Zn94 O95 2.032 . S
Zn94 O98 2.086 . S
Zn94 O103 1.977 . S
O95 Zn94 2.032 . S
O95 C99 1.278 . S
C96 O97 1.203 . S
C96 O103 1.267 . S
O97 C96 1.203 . S
O98 C91 1.185 . S
O98 Zn94 2.086 . S
C99 O95 1.278 . S
C99 O100 1.211 . S
O100 C99 1.211 . S
C101 O93 1.284 . S
C101 O102 1.273 . S
O102 C101 1.273 . S
O103 Zn94 1.977 . S
O103 C96 1.267 . S
H104 C105 0.951 . S
C105 H104 0.951 . S
C105 C111 1.265 . S
H106 C111 0.950 . S
H107 C115 0.949 . S
H108 C116 0.950 . S
H109 C117 0.951 . S
H110 C118 0.951 . S
C111 C105 1.265 . S
C111 H106 0.950 . S
C111 C112 1.478 . S
C112 C111 1.478 . S
C112 C113 1.397 . S
C112 C129 1.394 . S
C113 C112 1.397 . S
C113 C114 1.438 1_556 S
C113 C118 1.429 . S
C114 C113 1.438 1_554 S
C114 C115 1.428 . S
C114 C127 1.394 . S
C115 H107 0.949 . S
C115 C114 1.428 . S
C115 C116 1.345 1_554 S
C116 H108 0.950 . S
C116 C115 1.345 1_556 S
C116 C117 1.424 . S
C117 H109 0.951 . S
C117 C116 1.424 . S
C117 C118 1.347 . S
C118 H110 0.951 . S
C118 C113 1.429 . S
C118 C117 1.347 . S
H119 C120 0.951 . S
C120 H119 0.951 . S
C120 C126 1.265 . S
H121 C126 0.950 . S
H122 C130 0.949 . S
H123 C131 0.950 . S
H124 C132 0.951 . S
H125 C133 0.951 . S
C126 C120 1.265 . S
C126 H121 0.950 . S
C126 C127 1.478 . S
C127 C114 1.394 . S
C127 C126 1.478 . S
C127 C128 1.397 . S
C128 C127 1.397 . S
C128 C129 1.438 1_554 S
C128 C133 1.429 . S
C129 C112 1.394 . S
C129 C128 1.438 1_556 S
C129 C130 1.428 . S
C130 H122 0.949 . S
C130 C129 1.428 . S
C130 C131 1.345 1_556 S
C131 H123 0.950 . S
C131 C130 1.345 1_554 S
C131 C132 1.424 . S
C132 H124 0.951 . S
C132 C131 1.424 . S
C132 C133 1.347 . S
C133 H125 0.951 . S
C133 C128 1.429 . S
C133 C132 1.347 . S
H134 C135 0.951 . S
C135 H134 0.951 . S
C135 C141 1.265 . S
H136 C141 0.950 . S
H137 C145 0.949 . S
H138 C146 0.950 1_556 S
H139 C147 0.951 . S
H140 C148 0.951 . S
C141 C135 1.265 . S
C141 H136 0.950 . S
C141 C142 1.478 . S
C142 C141 1.478 . S
C142 C143 1.397 . S
C142 C159 1.394 . S
C143 C142 1.397 . S
C143 C144 1.438 . S
C143 C148 1.429 . S
C144 C143 1.438 . S
C144 C145 1.428 . S
C144 C157 1.394 . S
C145 H137 0.949 . S
C145 C144 1.428 . S
C145 C146 1.345 . S
C146 H138 0.950 1_554 S
C146 C145 1.345 . S
C146 C147 1.424 . S
C147 H139 0.951 . S
C147 C146 1.424 . S
C147 C148 1.347 . S
C148 H140 0.951 . S
C148 C143 1.429 . S
C148 C147 1.347 . S
H149 C150 0.951 . S
C150 H149 0.951 . S
C150 C156 1.265 . S
H151 C156 0.950 . S
H152 C160 0.949 . S
H153 C161 0.950 . S
H154 C162 0.951 . S
H155 C163 0.951 . S
C156 C150 1.265 . S
C156 H151 0.950 . S
C156 C157 1.478 . S
C157 C144 1.394 . S
C157 C156 1.478 . S
C157 C158 1.397 . S
C158 C157 1.397 . S
C158 C159 1.438 . S
C158 C163 1.429 . S
C159 C142 1.394 . S
C159 C158 1.438 . S
C159 C160 1.428 . S
C160 H152 0.949 . S
C160 C159 1.428 . S
C160 C161 1.345 . S
C161 H153 0.950 . S
C161 C160 1.345 . S
C161 C162 1.424 . S
C162 H154 0.951 . S
C162 C161 1.424 . S
C162 C163 1.347 . S
C163 H155 0.951 . S
C163 C158 1.429 . S
C163 C162 1.347 . S
H164 C165 0.951 . S
C165 H164 0.951 . S
C165 C171 1.265 . S
H166 C171 0.950 . S
H167 C175 0.949 . S
H168 C176 0.950 . S
H169 C177 0.951 . S
H170 C178 0.951 . S
C171 C165 1.265 . S
C171 H166 0.950 . S
C171 C172 1.478 . S
C172 C171 1.478 . S
C172 C173 1.397 . S
C172 C189 1.394 . S
C173 C172 1.397 . S
C173 C174 1.438 . S
C173 C178 1.429 . S
C174 C173 1.438 . S
C174 C175 1.428 . S
C174 C187 1.394 . S
C175 H167 0.949 . S
C175 C174 1.428 . S
C175 C176 1.345 . S
C176 H168 0.950 . S
C176 C175 1.345 . S
C176 C177 1.424 . S
C177 H169 0.951 . S
C177 C176 1.424 . S
C177 C178 1.347 . S
C178 H170 0.951 . S
C178 C173 1.429 . S
C178 C177 1.347 . S
H179 C180 0.951 . S
C180 H179 0.951 . S
C180 C186 1.265 . S
H181 C186 0.950 . S
H182 C190 0.949 . S
H183 C191 0.950 . S
H184 C192 0.951 . S
H185 C193 0.951 . S
C186 C180 1.265 . S
C186 H181 0.950 . S
C186 C187 1.478 . S
C187 C174 1.394 . S
C187 C186 1.478 . S
C187 C188 1.397 . S
C188 C187 1.397 . S
C188 C189 1.438 . S
C188 C193 1.429 . S
C189 C172 1.394 . S
C189 C188 1.438 . S
C189 C190 1.428 . S
C190 H182 0.949 . S
C190 C189 1.428 . S
C190 C191 1.345 . S
C191 H183 0.950 . S
C191 C190 1.345 . S
C191 C192 1.424 . S
C192 H184 0.951 . S
C192 C191 1.424 . S
C192 C193 1.347 . S
C193 H185 0.951 . S
C193 C188 1.429 . S
C193 C192 1.347 . S
H194 C195 0.951 . S
C195 H194 0.951 . S
C195 C201 1.265 . S
H196 C201 0.950 . S
H197 C205 0.949 . S
H198 C206 0.950 . S
H199 C207 0.951 . S
H200 C208 0.951 . S
C201 C195 1.265 . S
C201 H196 0.950 . S
C201 C202 1.478 . S
C202 C201 1.478 . S
C202 C203 1.397 . S
C202 C219 1.394 . S
C203 C202 1.397 . S
C203 C204 1.438 . S
C203 C208 1.429 . S
C204 C203 1.438 . S
C204 C205 1.428 . S
C204 C217 1.394 . S
C205 H197 0.949 . S
C205 C204 1.428 . S
C205 C206 1.345 . S
C206 H198 0.950 . S
C206 C205 1.345 . S
C206 C207 1.424 . S
C207 H199 0.951 . S
C207 C206 1.424 . S
C207 C208 1.347 . S
C208 H200 0.951 . S
C208 C203 1.429 . S
C208 C207 1.347 . S
H209 C210 0.951 . S
C210 H209 0.951 . S
C210 C216 1.265 . S
H211 C216 0.950 . S
H212 C220 0.949 . S
H213 C221 0.950 . S
H214 C222 0.951 . S
H215 C223 0.951 . S
C216 C210 1.265 . S
C216 H211 0.950 . S
C216 C217 1.478 . S
C217 C204 1.394 . S
C217 C216 1.478 . S
C217 C218 1.397 . S
C218 C217 1.397 . S
C218 C219 1.438 . S
C218 C223 1.429 . S
C219 C202 1.394 . S
C219 C218 1.438 . S
C219 C220 1.428 . S
C220 H212 0.949 . S
C220 C219 1.428 . S
C220 C221 1.345 . S
C221 H213 0.950 . S
C221 C220 1.345 . S
C221 C222 1.424 . S
C222 H214 0.951 . S
C222 C221 1.424 . S
C222 C223 1.347 . S
C223 H215 0.951 . S
C223 C218 1.429 . S
C223 C222 1.347 . S
H224 C225 0.951 . S
C225 H224 0.951 . S
C225 C231 1.265 . S
H226 C231 0.950 . S
H227 C235 0.949 . S
H228 C236 0.950 . S
H229 C237 0.951 . S
H230 C238 0.951 . S
C231 C225 1.265 . S
C231 H226 0.950 . S
C231 C232 1.478 . S
C232 C231 1.478 . S
C232 C233 1.397 . S
C232 C249 1.394 . S
C233 C232 1.397 . S
C233 C234 1.438 . S
C233 C238 1.429 . S
C234 C233 1.438 . S
C234 C235 1.428 . S
C234 C247 1.394 . S
C235 H227 0.949 . S
C235 C234 1.428 . S
C235 C236 1.345 . S
C236 H228 0.950 . S
C236 C235 1.345 . S
C236 C237 1.424 . S
C237 H229 0.951 . S
C237 C236 1.424 . S
C237 C238 1.347 . S
C238 H230 0.951 . S
C238 C233 1.429 . S
C238 C237 1.347 . S
H239 C240 0.951 . S
C240 H239 0.951 . S
C240 C246 1.265 . S
H241 C246 0.950 . S
H242 C250 0.949 . S
H243 C251 0.950 . S
H244 C252 0.951 . S
H245 C253 0.951 . S
C246 C240 1.265 . S
C246 H241 0.950 . S
C246 C247 1.478 . S
C247 C234 1.394 . S
C247 C246 1.478 . S
C247 C248 1.397 . S
C248 C247 1.397 . S
C248 C249 1.438 . S
C248 C253 1.429 . S
C249 C232 1.394 . S
C249 C248 1.438 . S
C249 C250 1.428 . S
C250 H242 0.949 . S
C250 C249 1.428 . S
C250 C251 1.345 . S
C251 H243 0.950 . S
C251 C250 1.345 . S
C251 C252 1.424 . S
C252 H244 0.951 . S
C252 C251 1.424 . S
C252 C253 1.347 . S
C253 H245 0.951 . S
C253 C248 1.429 . S
C253 C252 1.347 . S
H254 C255 0.951 . S
C255 H254 0.951 . S
C255 C261 1.265 . S
H256 C261 0.950 . S
H257 C265 0.949 . S
H258 C266 0.950 . S
H259 C267 0.951 . S
H260 C268 0.951 . S
C261 C255 1.265 . S
C261 H256 0.950 . S
C261 C262 1.478 . S
C262 C261 1.478 . S
C262 C263 1.397 . S
C262 C279 1.394 . S
C263 C262 1.397 . S
C263 C264 1.438 . S
C263 C268 1.429 . S
C264 C263 1.438 . S
C264 C265 1.428 . S
C264 C277 1.394 . S
C265 H257 0.949 . S
C265 C264 1.428 . S
C265 C266 1.345 . S
C266 H258 0.950 . S
C266 C265 1.345 . S
C266 C267 1.424 . S
C267 H259 0.951 . S
C267 C266 1.424 . S
C267 C268 1.347 . S
C268 H260 0.951 . S
C268 C263 1.429 . S
C268 C267 1.347 . S
H269 C270 0.951 . S
C270 H269 0.951 . S
C270 C276 1.265 . S
H271 C276 0.950 . S
H272 C280 0.949 . S
H273 C281 0.950 1_554 S
H274 C282 0.951 . S
H275 C283 0.951 . S
C276 C270 1.265 . S
C276 H271 0.950 . S
C276 C277 1.478 . S
C277 C264 1.394 . S
C277 C276 1.478 . S
C277 C278 1.397 . S
C278 C277 1.397 . S
C278 C279 1.438 . S
C278 C283 1.429 . S
C279 C262 1.394 . S
C279 C278 1.438 . S
C279 C280 1.428 . S
C280 H272 0.949 . S
C280 C279 1.428 . S
C280 C281 1.345 . S
C281 H273 0.950 1_556 S
C281 C280 1.345 . S
C281 C282 1.424 . S
C282 H274 0.951 . S
C282 C281 1.424 . S
C282 C283 1.347 . S
C283 H275 0.951 . S
C283 C278 1.429 . S
C283 C282 1.347 . S
H284 C285 0.951 . S
C285 H284 0.951 . S
C285 C291 1.265 . S
H286 C291 0.950 . S
H287 C295 0.949 . S
H288 C296 0.950 . S
H289 C297 0.951 . S
H290 C298 0.951 . S
C291 C285 1.265 . S
C291 H286 0.950 . S
C291 C292 1.478 . S
C292 C291 1.478 . S
C292 C293 1.397 1_554 S
C292 C309 1.394 . S
C293 C292 1.397 1_556 S
C293 C294 1.438 . S
C293 C298 1.429 . S
C294 C293 1.438 . S
C294 C295 1.428 . S
C294 C307 1.394 . S
C295 H287 0.949 . S
C295 C294 1.428 . S
C295 C296 1.345 . S
C296 H288 0.950 . S
C296 C295 1.345 . S
C296 C297 1.424 . S
C297 H289 0.951 . S
C297 C296 1.424 . S
C297 C298 1.347 . S
C298 H290 0.951 . S
C298 C293 1.429 . S
C298 C297 1.347 . S
H299 C300 0.951 . S
C300 H299 0.951 . S
C300 C306 1.265 . S
H301 C306 0.950 . S
H302 C310 0.949 . S
H303 C311 0.950 . S
H304 C312 0.951 . S
H305 C313 0.951 . S
C306 C300 1.265 . S
C306 H301 0.950 . S
C306 C307 1.478 . S
C307 C294 1.394 . S
C307 C306 1.478 . S
C307 C308 1.397 1_556 S
C308 C307 1.397 1_554 S
C308 C309 1.438 . S
C308 C313 1.429 . S
C309 C292 1.394 . S
C309 C308 1.438 . S
C309 C310 1.428 . S
C310 H302 0.949 . S
C310 C309 1.428 . S
C310 C311 1.345 . S
C311 H303 0.950 . S
C311 C310 1.345 . S
C311 C312 1.424 . S
C312 H304 0.951 . S
C312 C311 1.424 . S
C312 C313 1.347 . S
C313 H305 0.951 . S
C313 C308 1.429 . S
C313 C312 1.347 . S
H314 C315 0.951 . S
C315 H314 0.951 . S
C315 C321 1.265 . S
H316 C321 0.950 . S
H317 C325 0.949 . S
H318 C326 0.950 . S
H319 C327 0.951 . S
H320 C328 0.951 . S
C321 C315 1.265 . S
C321 H316 0.950 . S
C321 C322 1.478 . S
C322 C321 1.478 . S
C322 C323 1.397 . S
C322 C339 1.394 . S
C323 C322 1.397 . S
C323 C324 1.438 . S
C323 C328 1.429 . S
C324 C323 1.438 . S
C324 C325 1.428 . S
C324 C337 1.394 . S
C325 H317 0.949 . S
C325 C324 1.428 . S
C325 C326 1.345 . S
C326 H318 0.950 . S
C326 C325 1.345 . S
C326 C327 1.424 . S
C327 H319 0.951 . S
C327 C326 1.424 . S
C327 C328 1.347 . S
C328 H320 0.951 . S
C328 C323 1.429 . S
C328 C327 1.347 . S
H329 C330 0.951 . S
C330 H329 0.951 . S
C330 C336 1.265 . S
H331 C336 0.950 . S
H332 C340 0.949 . S
H333 C341 0.950 . S
H334 C342 0.951 . S
H335 C343 0.951 . S
C336 C330 1.265 . S
C336 H331 0.950 . S
C336 C337 1.478 . S
C337 C324 1.394 . S
C337 C336 1.478 . S
C337 C338 1.397 . S
C338 C337 1.397 . S
C338 C339 1.438 . S
C338 C343 1.429 . S
C339 C322 1.394 . S
C339 C338 1.438 . S
C339 C340 1.428 . S
C340 H332 0.949 . S
C340 C339 1.428 . S
C340 C341 1.345 . S
C341 H333 0.950 . S
C341 C340 1.345 . S
C341 C342 1.424 . S
C342 H334 0.951 . S
C342 C341 1.424 . S
C342 C343 1.347 . S
C343 H335 0.951 . S
C343 C338 1.429 . S
C343 C342 1.347 . S
H344 C345 0.951 . S
C345 H344 0.951 . S
C345 C351 1.265 . S
H346 C351 0.950 . S
H347 C355 0.949 . S
H348 C356 0.950 . S
H349 C357 0.951 . S
H350 C358 0.951 . S
C351 C345 1.265 . S
C351 H346 0.950 . S
C351 C352 1.478 . S
C352 C351 1.478 . S
C352 C353 1.397 . S
C352 C369 1.394 . S
C353 C352 1.397 . S
C353 C354 1.438 . S
C353 C358 1.429 . S
C354 C353 1.438 . S
C354 C355 1.428 . S
C354 C367 1.394 . S
C355 H347 0.949 . S
C355 C354 1.428 . S
C355 C356 1.345 . S
C356 H348 0.950 . S
C356 C355 1.345 . S
C356 C357 1.424 . S
C357 H349 0.951 . S
C357 C356 1.424 . S
C357 C358 1.347 . S
C358 H350 0.951 . S
C358 C353 1.429 . S
C358 C357 1.347 . S
H359 C360 0.951 . S
C360 H359 0.951 . S
C360 C366 1.265 . S
H361 C366 0.950 . S
H362 C370 0.949 . S
H363 C371 0.950 . S
H364 C372 0.951 . S
H365 C373 0.951 . S
C366 C360 1.265 . S
C366 H361 0.950 . S
C366 C367 1.478 . S
C367 C354 1.394 . S
C367 C366 1.478 . S
C367 C368 1.397 . S
C368 C367 1.397 . S
C368 C369 1.438 . S
C368 C373 1.429 . S
C369 C352 1.394 . S
C369 C368 1.438 . S
C369 C370 1.428 . S
C370 H362 0.949 . S
C370 C369 1.428 . S
C370 C371 1.345 . S
C371 H363 0.950 . S
C371 C370 1.345 . S
C371 C372 1.424 . S
C372 H364 0.951 . S
C372 C371 1.424 . S
C372 C373 1.347 . S
C373 H365 0.951 . S
C373 C368 1.429 . S
C373 C372 1.347 . S
H374 C375 0.951 . S
C375 H374 0.951 . S
C375 C381 1.265 . S
H376 C381 0.950 . S
H377 C385 0.949 . S
H378 C386 0.950 . S
H379 C387 0.951 . S
H380 C388 0.951 . S
C381 C375 1.265 . S
C381 H376 0.950 . S
C381 C382 1.478 . S
C382 C381 1.478 . S
C382 C383 1.397 . S
C382 C399 1.394 . S
C383 C382 1.397 . S
C383 C384 1.438 . S
C383 C388 1.429 . S
C384 C383 1.438 . S
C384 C385 1.428 . S
C384 C397 1.394 . S
C385 H377 0.949 . S
C385 C384 1.428 . S
C385 C386 1.345 . S
C386 H378 0.950 . S
C386 C385 1.345 . S
C386 C387 1.424 . S
C387 H379 0.951 . S
C387 C386 1.424 . S
C387 C388 1.347 . S
C388 H380 0.951 . S
C388 C383 1.429 . S
C388 C387 1.347 . S
H389 C390 0.951 . S
C390 H389 0.951 . S
C390 C396 1.265 . S
H391 C396 0.950 . S
H392 C400 0.949 . S
H393 C401 0.950 1_554 S
H394 C402 0.951 . S
H395 C403 0.951 . S
C396 C390 1.265 . S
C396 H391 0.950 . S
C396 C397 1.478 . S
C397 C384 1.394 . S
C397 C396 1.478 . S
C397 C398 1.397 . S
C398 C397 1.397 . S
C398 C399 1.438 . S
C398 C403 1.429 . S
C399 C382 1.394 . S
C399 C398 1.438 . S
C399 C400 1.428 . S
C400 H392 0.949 . S
C400 C399 1.428 . S
C400 C401 1.345 . S
C401 H393 0.950 1_556 S
C401 C400 1.345 . S
C401 C402 1.424 . S
C402 H394 0.951 . S
C402 C401 1.424 . S
C402 C403 1.347 . S
C403 H395 0.951 . S
C403 C398 1.429 . S
C403 C402 1.347 . S
H404 C405 0.951 . S
C405 H404 0.951 . S
C405 C411 1.265 . S
H406 C411 0.950 . S
H407 C415 0.949 . S
H408 C416 0.950 . S
H409 C417 0.951 . S
H410 C418 0.951 . S
C411 C405 1.265 . S
C411 H406 0.950 . S
C411 C412 1.478 . S
C412 C411 1.478 . S
C412 C413 1.397 . S
C412 C429 1.394 1_554 S
C413 C412 1.397 . S
C413 C414 1.438 . S
C413 C418 1.429 . S
C414 C413 1.438 . S
C414 C415 1.428 . S
C414 C427 1.394 1_554 S
C415 H407 0.949 . S
C415 C414 1.428 . S
C415 C416 1.345 . S
C416 H408 0.950 . S
C416 C415 1.345 . S
C416 C417 1.424 . S
C417 H409 0.951 . S
C417 C416 1.424 . S
C417 C418 1.347 . S
C418 H410 0.951 . S
C418 C413 1.429 . S
C418 C417 1.347 . S
H419 C420 0.951 . S
C420 H419 0.951 . S
C420 C426 1.265 . S
H421 C426 0.950 . S
H422 C430 0.949 . S
H423 C431 0.950 1_655 S
H424 C432 0.951 . S
H425 C433 0.951 . S
C426 C420 1.265 . S
C426 H421 0.950 . S
C426 C427 1.478 . S
C427 C414 1.394 1_556 S
C427 C426 1.478 . S
C427 C428 1.397 . S
C428 C427 1.397 . S
C428 C429 1.438 . S
C428 C433 1.429 . S
C429 C412 1.394 1_556 S
C429 C428 1.438 . S
C429 C430 1.428 . S
C430 H422 0.949 . S
C430 C429 1.428 . S
C430 C431 1.345 . S
C431 H423 0.950 1_455 S
C431 C430 1.345 . S
C431 C432 1.424 . S
C432 H424 0.951 . S
C432 C431 1.424 . S
C432 C433 1.347 . S
C433 H425 0.951 . S
C433 C428 1.429 . S
C433 C432 1.347 . S
H434 C435 0.951 . S
C435 H434 0.951 . S
C435 C441 1.265 . S
H436 C441 0.950 . S
H437 C445 0.949 . S
H438 C446 0.950 . S
H439 C447 0.951 . S
H440 C448 0.951 . S
C441 C435 1.265 . S
C441 H436 0.950 . S
C441 C442 1.478 . S
C442 C441 1.478 . S
C442 C443 1.397 . S
C442 C459 1.394 . S
C443 C442 1.397 . S
C443 C444 1.438 . S
C443 C448 1.429 . S
C444 C443 1.438 . S
C444 C445 1.428 . S
C444 C457 1.394 . S
C445 H437 0.949 . S
C445 C444 1.428 . S
C445 C446 1.345 . S
C446 H438 0.950 . S
C446 C445 1.345 . S
C446 C447 1.424 . S
C447 H439 0.951 . S
C447 C446 1.424 . S
C447 C448 1.347 . S
C448 H440 0.951 . S
C448 C443 1.429 . S
C448 C447 1.347 . S
H449 C450 0.951 . S
C450 H449 0.951 . S
C450 C456 1.265 . S
H451 C456 0.950 . S
H452 C460 0.949 . S
H453 C461 0.950 . S
H454 C462 0.951 . S
H455 C463 0.951 . S
C456 C450 1.265 . S
C456 H451 0.950 . S
C456 C457 1.478 . S
C457 C444 1.394 . S
C457 C456 1.478 . S
C457 C458 1.397 . S
C458 C457 1.397 . S
C458 C459 1.438 . S
C458 C463 1.429 . S
C459 C442 1.394 . S
C459 C458 1.438 . S
C459 C460 1.428 . S
C460 H452 0.949 . S
C460 C459 1.428 . S
C460 C461 1.345 . S
C461 H453 0.950 . S
C461 C460 1.345 . S
C461 C462 1.424 . S
C462 H454 0.951 . S
C462 C461 1.424 . S
C462 C463 1.347 . S
C463 H455 0.951 . S
C463 C458 1.429 . S
C463 C462 1.347 . S
H464 C465 0.951 . S
C465 H464 0.951 . S
C465 C471 1.265 . S
H466 C471 0.950 . S
H467 C475 0.949 . S
H468 C476 0.950 . S
H469 C477 0.951 . S
H470 C478 0.951 . S
C471 C465 1.265 . S
C471 H466 0.950 . S
C471 C472 1.478 . S
C472 C471 1.478 . S
C472 C473 1.397 . S
C472 C489 1.394 . S
C473 C472 1.397 . S
C473 C474 1.438 . S
C473 C478 1.429 . S
C474 C473 1.438 . S
C474 C475 1.428 . S
C474 C487 1.394 . S
C475 H467 0.949 . S
C475 C474 1.428 . S
C475 C476 1.345 . S
C476 H468 0.950 . S
C476 C475 1.345 . S
C476 C477 1.424 . S
C477 H469 0.951 . S
C477 C476 1.424 . S
C477 C478 1.347 . S
C478 H470 0.951 . S
C478 C473 1.429 . S
C478 C477 1.347 . S
H479 C480 0.951 . S
C480 H479 0.951 . S
C480 C486 1.265 . S
H481 C486 0.950 . S
H482 C490 0.949 . S
H483 C491 0.950 . S
H484 C492 0.951 . S
H485 C493 0.951 . S
C486 C480 1.265 . S
C486 H481 0.950 . S
C486 C487 1.478 . S
C487 C474 1.394 . S
C487 C486 1.478 . S
C487 C488 1.397 . S
C488 C487 1.397 . S
C488 C489 1.438 . S
C488 C493 1.429 . S
C489 C472 1.394 . S
C489 C488 1.438 . S
C489 C490 1.428 . S
C490 H482 0.949 . S
C490 C489 1.428 . S
C490 C491 1.345 . S
C491 H483 0.950 . S
C491 C490 1.345 . S
C491 C492 1.424 . S
C492 H484 0.951 . S
C492 C491 1.424 . S
C492 C493 1.347 . S
C493 H485 0.951 . S
C493 C488 1.429 . S
C493 C492 1.347 . S
H494 C495 0.951 . S
C495 H494 0.951 . S
C495 C501 1.265 1_556 S
H496 C501 0.950 . S
H497 C505 0.949 . S
H498 C506 0.950 . S
H499 C507 0.951 . S
H500 C508 0.951 . S
C501 C495 1.265 1_554 S
C501 H496 0.950 . S
C501 C502 1.478 . S
C502 C501 1.478 . S
C502 C503 1.397 . S
C502 C519 1.394 1_554 S
C503 C502 1.397 . S
C503 C504 1.438 . S
C503 C508 1.429 . S
C504 C503 1.438 . S
C504 C505 1.428 . S
C504 C517 1.394 1_554 S
C505 H497 0.949 . S
C505 C504 1.428 . S
C505 C506 1.345 . S
C506 H498 0.950 . S
C506 C505 1.345 . S
C506 C507 1.424 . S
C507 H499 0.951 . S
C507 C506 1.424 . S
C507 C508 1.347 . S
C508 H500 0.951 . S
C508 C503 1.429 . S
C508 C507 1.347 . S
H509 C510 0.951 . S
C510 H509 0.951 . S
C510 C516 1.265 1_554 S
H511 C516 0.950 . S
H512 C520 0.949 . S
H513 C521 0.950 . S
H514 C522 0.951 . S
H515 C523 0.951 . S
C516 C510 1.265 1_556 S
C516 H511 0.950 . S
C516 C517 1.478 . S
C517 C504 1.394 1_556 S
C517 C516 1.478 . S
C517 C518 1.397 . S
C518 C517 1.397 . S
C518 C519 1.438 . S
C518 C523 1.429 . S
C519 C502 1.394 1_556 S
C519 C518 1.438 . S
C519 C520 1.428 . S
C520 H512 0.949 . S
C520 C519 1.428 . S
C520 C521 1.345 . S
C521 H513 0.950 . S
C521 C520 1.345 . S
C521 C522 1.424 . S
C522 H514 0.951 . S
C522 C521 1.424 . S
C522 C523 1.347 . S
C523 H515 0.951 . S
C523 C518 1.429 . S
C523 C522 1.347 . S
H524 C525 0.951 . S
C525 H524 0.951 . S
C525 C531 1.265 . S
H526 C531 0.950 . S
H527 C535 0.949 . S
H528 C536 0.950 . S
H529 C537 0.951 . S
H530 C538 0.951 . S
C531 C525 1.265 . S
C531 H526 0.950 . S
C531 C532 1.478 . S
C532 C531 1.478 . S
C532 C533 1.397 . S
C532 C549 1.394 . S
C533 C532 1.397 . S
C533 C534 1.438 . S
C533 C538 1.429 . S
C534 C533 1.438 . S
C534 C535 1.428 . S
C534 C547 1.394 . S
C535 H527 0.949 . S
C535 C534 1.428 . S
C535 C536 1.345 . S
C536 H528 0.950 . S
C536 C535 1.345 . S
C536 C537 1.424 . S
C537 H529 0.951 . S
C537 C536 1.424 . S
C537 C538 1.347 . S
C538 H530 0.951 . S
C538 C533 1.429 . S
C538 C537 1.347 . S
H539 C540 0.951 . S
C540 H539 0.951 . S
C540 C546 1.265 . S
H541 C546 0.950 . S
H542 C550 0.949 . S
H543 C551 0.950 1_655 S
H544 C552 0.951 . S
H545 C553 0.951 . S
C546 C540 1.265 . S
C546 H541 0.950 . S
C546 C547 1.478 . S
C547 C534 1.394 . S
C547 C546 1.478 . S
C547 C548 1.397 . S
C548 C547 1.397 . S
C548 C549 1.438 . S
C548 C553 1.429 . S
C549 C532 1.394 . S
C549 C548 1.438 . S
C549 C550 1.428 . S
C550 H542 0.949 . S
C550 C549 1.428 . S
C550 C551 1.345 . S
C551 H543 0.950 1_455 S
C551 C550 1.345 . S
C551 C552 1.424 . S
C552 H544 0.951 . S
C552 C551 1.424 . S
C552 C553 1.347 . S
C553 H545 0.951 . S
C553 C548 1.429 . S
C553 C552 1.347 . S
H554 C555 0.951 . S
C555 H554 0.951 . S
C555 C561 1.265 . S
H556 C561 0.950 . S
H557 C565 0.949 . S
H558 C566 0.950 . S
H559 C567 0.951 . S
H560 C568 0.951 . S
C561 C555 1.265 . S
C561 H556 0.950 . S
C561 C562 1.478 . S
C562 C561 1.478 . S
C562 C563 1.397 . S
C562 C579 1.394 . S
C563 C562 1.397 . S
C563 C564 1.438 . S
C563 C568 1.429 . S
C564 C563 1.438 . S
C564 C565 1.428 . S
C564 C577 1.394 . S
C565 H557 0.949 . S
C565 C564 1.428 . S
C565 C566 1.345 . S
C566 H558 0.950 . S
C566 C565 1.345 . S
C566 C567 1.424 . S
C567 H559 0.951 . S
C567 C566 1.424 . S
C567 C568 1.347 . S
C568 H560 0.951 . S
C568 C563 1.429 . S
C568 C567 1.347 . S
H569 C570 0.951 . S
C570 H569 0.951 . S
C570 C576 1.265 . S
H571 C576 0.950 . S
H572 C580 0.949 . S
H573 C581 0.950 . S
H574 C582 0.951 . S
H575 C583 0.951 . S
C576 C570 1.265 . S
C576 H571 0.950 . S
C576 C577 1.478 . S
C577 C564 1.394 . S
C577 C576 1.478 . S
C577 C578 1.397 . S
C578 C577 1.397 . S
C578 C579 1.438 . S
C578 C583 1.429 . S
C579 C562 1.394 . S
C579 C578 1.438 . S
C579 C580 1.428 . S
C580 H572 0.949 . S
C580 C579 1.428 . S
C580 C581 1.345 . S
C581 H573 0.950 . S
C581 C580 1.345 . S
C581 C582 1.424 . S
C582 H574 0.951 . S
C582 C581 1.424 . S
C582 C583 1.347 . S
C583 H575 0.951 . S
C583 C578 1.429 . S
C583 C582 1.347 . S
C105 C23 1.336 . S
C120 C10 1.340 . S
C135 C13 1.357 . S
C150 C26 1.387 . S
C165 C49 1.393 . S
C180 C36 1.382 . S
C195 C39 1.378 . S
C210 C0 1.357 . S
C225 C62 1.392 . S
C240 C75 1.381 . S
C255 C65 1.358 . S
C270 C78 1.389 . S
C285 C88 1.391 . S
C300 C101 1.379 . S
C315 C52 1.357 . S
C330 C91 1.378 . S
C345 C5 1.417 . S
C360 C96 1.414 . S
C375 C60 1.380 . S
C390 C21 1.466 . S
C405 C70 1.390 1_455 S
C420 C31 1.383 1_545 S
C435 C47 1.461 . S
C450 C86 1.375 . S
C465 C34 1.459 . S
C480 C99 1.375 . S
C495 C57 1.359 1_565 S
C510 C44 1.362 1_655 S
C525 C73 1.435 . S
C540 C8 1.385 . S
C555 C18 1.430 . S
C570 C83 1.428 . S
