# Generated by pormake.
# Topology zft, (5)-cn, num edge types: 1
# Building blocks:
#     Node 0, Type 0, BuildingBlock: BEQFEK_clean_sbu_0, # of connection points: 5
#     Node 1, Type 0, BuildingBlock: BEQFEK_clean_sbu_0, # of connection points: 5
#     Node 2, Type 0, BuildingBlock: BEQFEK_clean_sbu_0, # of connection points: 5
#     Node 3, Type 0, BuildingBlock: BEQFEK_clean_sbu_0, # of connection points: 5
#     Node 4, Type 0, BuildingBlock: BEQFEK_clean_sbu_0, # of connection points: 5
#     Node 5, Type 0, BuildingBlock: BEQFEK_clean_sbu_0, # of connection points: 5
#     Node 6, Type 0, BuildingBlock: BEQFEK_clean_sbu_0, # of connection points: 5
#     Node 7, Type 0, BuildingBlock: BEQFEK_clean_sbu_0, # of connection points: 5
#     Edge 8, Type (0, 0), BuildingBlock: KIFKEQ_clean_linker_1, # of connection points: 2
#     Edge 9, Type (0, 0), BuildingBlock: KIFKEQ_clean_linker_1, # of connection points: 2
#     Edge 10, Type (0, 0), BuildingBlock: KIFKEQ_clean_linker_1, # of connection points: 2
#     Edge 11, Type (0, 0), BuildingBlock: KIFKEQ_clean_linker_1, # of connection points: 2
#     Edge 12, Type (0, 0), BuildingBlock: KIFKEQ_clean_linker_1, # of connection points: 2
#     Edge 13, Type (0, 0), BuildingBlock: KIFKEQ_clean_linker_1, # of connection points: 2
#     Edge 14, Type (0, 0), BuildingBlock: KIFKEQ_clean_linker_1, # of connection points: 2
#     Edge 15, Type (0, 0), BuildingBlock: KIFKEQ_clean_linker_1, # of connection points: 2
#     Edge 16, Type (0, 0), BuildingBlock: KIFKEQ_clean_linker_1, # of connection points: 2
#     Edge 17, Type (0, 0), BuildingBlock: KIFKEQ_clean_linker_1, # of connection points: 2
#     Edge 18, Type (0, 0), BuildingBlock: KIFKEQ_clean_linker_1, # of connection points: 2
#     Edge 19, Type (0, 0), BuildingBlock: KIFKEQ_clean_linker_1, # of connection points: 2
#     Edge 20, Type (0, 0), BuildingBlock: KIFKEQ_clean_linker_1, # of connection points: 2
#     Edge 21, Type (0, 0), BuildingBlock: KIFKEQ_clean_linker_1, # of connection points: 2
#     Edge 22, Type (0, 0), BuildingBlock: KIFKEQ_clean_linker_1, # of connection points: 2
#     Edge 23, Type (0, 0), BuildingBlock: KIFKEQ_clean_linker_1, # of connection points: 2
#     Edge 24, Type (0, 0), BuildingBlock: KIFKEQ_clean_linker_1, # of connection points: 2
#     Edge 25, Type (0, 0), BuildingBlock: KIFKEQ_clean_linker_1, # of connection points: 2
#     Edge 26, Type (0, 0), BuildingBlock: KIFKEQ_clean_linker_1, # of connection points: 2
#     Edge 27, Type (0, 0), BuildingBlock: KIFKEQ_clean_linker_1, # of connection points: 2
# Relax obj value: 0.052
# Max RMSD: 0.118
# Mean RMSD: 0.118
data_MOF--net-zft--node1-BEQFEK_clean_sbu_0--edge1-KIFKEQ_clean_linker_1
_symmetry_space_group_name_H-M    P1
_symmetry_Int_Tables_number       1
_symmetry_cell_setting            triclinic
loop_
_symmetry_equiv_pos_as_xyz
'x, y, z'
_cell_length_a     28.834073
_cell_length_b     28.820132
_cell_length_c     55.593535
_cell_angle_alpha  90.000384
_cell_angle_beta   90.014117
_cell_angle_gamma 90.019825
loop_
_atom_site_label
_atom_site_type_symbol
_atom_site_fract_x
_atom_site_fract_y
_atom_site_fract_z
_atom_type_partial_charge
Co0 Co 0.04573 0.28185 0.18555 0.0
Co1 Co 0.12983 0.33742 0.16436 0.0
C2 C 0.03608 0.33696 0.14044 0.0
O3 O 0.01838 0.31058 0.15638 0.0
O4 O 0.07827 0.34991 0.14168 0.0
C5 C 0.95372 0.25463 0.20208 0.0
O6 O 0.93763 0.28463 0.18637 0.0
C7 C 0.18019 0.42041 0.14877 0.0
C8 C 0.25236 0.39492 0.14711 0.0
C9 C 0.22531 0.43406 0.14334 0.0
N10 N 0.18087 0.37551 0.15529 0.0
N11 N 0.22406 0.36043 0.15419 0.0
C12 C 0.13729 0.44958 0.14936 0.0
H13 H 0.11119 0.43402 0.16163 0.0
H14 H 0.14553 0.48541 0.15531 0.0
H15 H 0.12205 0.45103 0.13105 0.0
C16 C 0.06739 0.34032 0.2279 0.0
N17 N 0.07536 0.32678 0.20509 0.0
N18 N 0.11165 0.34917 0.19664 0.0
C19 C 0.12847 0.37716 0.21402 0.0
C20 C 0.10085 0.37266 0.23438 0.0
C21 C 0.02712 0.32397 0.24262 0.0
H22 H 0.03277 0.28723 0.24784 0.0
H23 H 0.99504 0.32569 0.23167 0.0
H24 H 0.02228 0.34529 0.25903 0.0
O25 O 0.09029 0.23296 0.17565 0.0
O26 O 0.14949 0.27223 0.1603 0.0
H27 H 0.19858 0.38499 0.20178 0.0
H28 H 0.18622 0.41469 0.22959 0.0
C29 C 0.17204 0.40509 0.21172 0.0
H30 H 0.16451 0.43727 0.2015 0.0
H31 H 0.23422 0.32662 0.15837 0.0
O32 O 0.99727 0.24931 0.2043 0.0
C33 C 0.13 0.23398 0.16565 0.0
Co34 Co 0.21935 0.5467 0.43476 0.0
Co35 Co 0.16132 0.63182 0.41647 0.0
C36 C 0.16156 0.54 0.39043 0.0
O37 O 0.18828 0.52126 0.40588 0.0
O38 O 0.14887 0.58219 0.39245 0.0
C39 C 0.24118 0.45478 0.45335 0.0
O40 O 0.20004 0.44236 0.44549 0.0
C41 C 0.07875 0.68254 0.40026 0.0
C42 C 0.09774 0.75523 0.40819 0.0
C43 C 0.06259 0.72774 0.39897 0.0
N44 N 0.12161 0.6832 0.40976 0.0
N45 N 0.1329 0.7268 0.4143 0.0
C46 C 0.05275 0.63918 0.3942 0.0
H47 H 0.06474 0.61003 0.40566 0.0
H48 H 0.01487 0.64428 0.39659 0.0
H49 H 0.05938 0.63019 0.37511 0.0
C50 C 0.16492 0.56563 0.47919 0.0
N51 N 0.17615 0.57448 0.4561 0.0
N52 N 0.15152 0.60994 0.44838 0.0
C53 C 0.12357 0.62456 0.46628 0.0
C54 C 0.13109 0.59696 0.48638 0.0
C55 C 0.18508 0.52679 0.49367 0.0
H56 H 0.22348 0.52908 0.49335 0.0
H57 H 0.17487 0.49331 0.48541 0.0
H58 H 0.17274 0.52714 0.51255 0.0
O59 O 0.26633 0.59246 0.42436 0.0
O60 O 0.22605 0.65375 0.41229 0.0
H61 H 0.11294 0.6965 0.45884 0.0
H62 H 0.07555 0.67411 0.48198 0.0
C63 C 0.09239 0.66595 0.46457 0.0
H64 H 0.06531 0.65941 0.45081 0.0
H65 H 0.1644 0.73708 0.42185 0.0
O66 O 0.25455 0.49652 0.4508 0.0
C67 C 0.26465 0.63349 0.41592 0.0
Co68 Co 0.95249 0.72042 0.68461 0.0
Co69 Co 0.86947 0.65955 0.66566 0.0
C70 C 0.96263 0.65928 0.64132 0.0
O71 O 0.97942 0.68809 0.65637 0.0
O72 O 0.92079 0.64533 0.64292 0.0
C73 C 0.04235 0.73985 0.70597 0.0
O74 O 0.05207 0.69626 0.70126 0.0
C75 C 0.81453 0.58152 0.64584 0.0
C76 C 0.74681 0.59248 0.6635 0.0
C77 C 0.77041 0.56258 0.6483 0.0
N78 N 0.81716 0.62 0.65949 0.0
N79 N 0.77631 0.62666 0.66971 0.0
C80 C 0.85221 0.56629 0.62914 0.0
H81 H 0.86433 0.59668 0.61867 0.0
H82 H 0.88185 0.55276 0.63977 0.0
H83 H 0.84021 0.53961 0.61621 0.0
C84 C 0.93098 0.6686 0.72965 0.0
N85 N 0.92385 0.67804 0.70617 0.0
N86 N 0.89019 0.65139 0.69802 0.0
C87 C 0.87583 0.62328 0.71594 0.0
C88 C 0.90083 0.63356 0.73659 0.0
C89 C 0.9637 0.69477 0.74554 0.0
H90 H 0.96382 0.73202 0.74058 0.0
H91 H 0.99922 0.68076 0.74313 0.0
H92 H 0.95394 0.69131 0.76476 0.0
O93 O 0.90711 0.7667 0.67331 0.0
O94 O 0.84785 0.72454 0.66026 0.0
H95 H 0.8055 0.60025 0.71424 0.0
H96 H 0.84458 0.55876 0.72744 0.0
C97 C 0.84084 0.58529 0.71311 0.0
H98 H 0.84514 0.56818 0.6954 0.0
H99 H 0.76883 0.65417 0.68127 0.0
O100 O 0.0026 0.75585 0.70059 0.0
C101 C 0.86686 0.7638 0.66404 0.0
Co102 Co 0.78102 0.45102 0.93486 0.0
Co103 Co 0.83718 0.36772 0.91326 0.0
C104 C 0.83872 0.46306 0.89083 0.0
O105 O 0.81214 0.48006 0.90687 0.0
O106 O 0.85062 0.4205 0.8913 0.0
C107 C 0.73549 0.53791 0.9461 0.0
O108 O 0.74106 0.54758 0.92318 0.0
C109 C 0.92031 0.31679 0.89775 0.0
C110 C 0.89252 0.24594 0.89288 0.0
C111 C 0.93246 0.27228 0.89066 0.0
N112 N 0.87526 0.31666 0.90401 0.0
N113 N 0.85894 0.27414 0.90117 0.0
C114 C 0.94981 0.3595 0.89672 0.0
H115 H 0.93052 0.39018 0.90336 0.0
H116 H 0.98122 0.35495 0.90795 0.0
H117 H 0.96133 0.36548 0.87792 0.0
C118 C 0.83566 0.42561 0.97789 0.0
N119 N 0.82412 0.41942 0.95464 0.0
N120 N 0.8477 0.3842 0.94588 0.0
C121 C 0.87485 0.36655 0.9634 0.0
C122 C 0.86823 0.39238 0.98424 0.0
C123 C 0.81354 0.4609 0.99397 0.0
H124 H 0.8213 0.49619 0.98707 0.0
H125 H 0.82569 0.45793 0.01282 0.0
H126 H 0.77537 0.45616 0.99361 0.0
O127 O 0.73214 0.40816 0.9232 0.0
O128 O 0.7717 0.34834 0.90866 0.0
H129 H 0.88871 0.29696 0.95199 0.0
H130 H 0.92436 0.31603 0.97693 0.0
C131 C 0.90759 0.32683 0.9599 0.0
H132 H 0.93512 0.33738 0.94714 0.0
H133 H 0.82462 0.26458 0.90445 0.0
O134 O 0.75 0.4994 0.95425 0.0
C135 C 0.73334 0.36837 0.91324 0.0
Co136 Co 0.54516 0.21969 0.56528 0.0
Co137 Co 0.62712 0.16009 0.58584 0.0
C138 C 0.53314 0.15974 0.60891 0.0
O139 O 0.51679 0.18786 0.59339 0.0
O140 O 0.57511 0.14617 0.6079 0.0
C141 C 0.45656 0.23828 0.54224 0.0
O142 O 0.44702 0.1944 0.54631 0.0
C143 C 0.67673 0.0761 0.6014 0.0
C144 C 0.74908 0.10121 0.60323 0.0
C145 C 0.72152 0.06263 0.60726 0.0
N146 N 0.67787 0.12061 0.59411 0.0
N147 N 0.72125 0.1353 0.59513 0.0
C148 C 0.63298 0.04889 0.60468 0.0
H149 H 0.60471 0.06372 0.59353 0.0
H150 H 0.6381 0.01196 0.59988 0.0
H151 H 0.62256 0.05046 0.62387 0.0
C152 C 0.57024 0.16765 0.52077 0.0
N153 N 0.57543 0.17721 0.54436 0.0
N154 N 0.60952 0.15183 0.55306 0.0
C155 C 0.62674 0.12497 0.53531 0.0
C156 C 0.60239 0.1341 0.51426 0.0
C157 C 0.53757 0.19263 0.50435 0.0
H158 H 0.50235 0.17764 0.50636 0.0
H159 H 0.54834 0.18922 0.48527 0.0
H160 H 0.53618 0.22992 0.50915 0.0
O161 O 0.58983 0.26677 0.57678 0.0
O162 O 0.64774 0.22502 0.59172 0.0
H163 H 0.69647 0.10782 0.545 0.0
H164 H 0.67202 0.07022 0.52218 0.0
C165 C 0.66452 0.08999 0.53882 0.0
H166 H 0.6539 0.06508 0.55295 0.0
H167 H 0.73171 0.16892 0.59076 0.0
O168 O 0.49568 0.25459 0.54852 0.0
C169 C 0.62916 0.26411 0.58709 0.0
Co170 Co 0.27965 0.04478 0.81596 0.0
Co171 Co 0.3374 0.12936 0.83505 0.0
C172 C 0.33862 0.03677 0.85999 0.0
O173 O 0.31147 0.01867 0.84453 0.0
O174 O 0.35123 0.07902 0.85834 0.0
C175 C 0.26044 0.95438 0.79449 0.0
O176 O 0.30378 0.94394 0.79938 0.0
C177 C 0.41981 0.18098 0.85085 0.0
C178 C 0.39614 0.25358 0.84755 0.0
C179 C 0.43386 0.22673 0.85435 0.0
N180 N 0.37602 0.18115 0.84253 0.0
N181 N 0.36203 0.22463 0.84066 0.0
C182 C 0.44802 0.13771 0.85353 0.0
H183 H 0.43382 0.10969 0.84198 0.0
H184 H 0.48477 0.14425 0.84865 0.0
H185 H 0.44649 0.12589 0.87251 0.0
C186 C 0.33183 0.06752 0.7712 0.0
N187 N 0.32198 0.07422 0.79465 0.0
N188 N 0.34661 0.10943 0.80273 0.0
C189 C 0.37316 0.126 0.78471 0.0
C190 C 0.36469 0.09996 0.76413 0.0
C191 C 0.30763 0.03313 0.7554 0.0
H192 H 0.27015 0.03222 0.75979 0.0
H193 H 0.32243 0.99817 0.75863 0.0
H194 H 0.31186 0.04187 0.73609 0.0
O195 O 0.23212 0.08947 0.8268 0.0
O196 O 0.27236 0.1501 0.83977 0.0
H197 H 0.38774 0.19734 0.79214 0.0
H198 H 0.42737 0.17111 0.77086 0.0
C199 C 0.40684 0.1652 0.78743 0.0
H200 H 0.43115 0.15728 0.80228 0.0
H201 H 0.32921 0.23452 0.83465 0.0
O202 O 0.24496 0.99437 0.7998 0.0
C203 C 0.23376 0.13003 0.83581 0.0
Co204 Co 0.45106 0.78099 0.06576 0.0
Co205 Co 0.36825 0.83899 0.08698 0.0
C206 C 0.46257 0.83795 0.11043 0.0
O207 O 0.47911 0.81091 0.09444 0.0
O208 O 0.42049 0.85153 0.10961 0.0
C209 C 0.5384 0.73544 0.05493 0.0
O210 O 0.54828 0.74163 0.07777 0.0
C211 C 0.31308 0.91436 0.10889 0.0
C212 C 0.24504 0.90417 0.09139 0.0
C213 C 0.26879 0.93309 0.10704 0.0
N214 N 0.31564 0.87695 0.09449 0.0
N215 N 0.27461 0.87066 0.08439 0.0
C216 C 0.35106 0.92863 0.12564 0.0
H217 H 0.36352 0.89752 0.1354 0.0
H218 H 0.3804 0.94309 0.11512 0.0
H219 H 0.3392 0.95424 0.13917 0.0
C220 C 0.42864 0.8369 0.02276 0.0
N221 N 0.42134 0.82515 0.04591 0.0
N222 N 0.38738 0.85047 0.0547 0.0
C223 C 0.37253 0.87984 0.03742 0.0
C224 C 0.39794 0.87197 0.01659 0.0
C225 C 0.4623 0.81262 0.00659 0.0
H226 H 0.45646 0.77463 0.00767 0.0
H227 H 0.49815 0.81978 0.01283 0.0
H228 H 0.45866 0.8237 0.98759 0.0
O229 O 0.40693 0.7328 0.07643 0.0
O230 O 0.34793 0.77343 0.09101 0.0
H231 H 0.30156 0.90043 0.03978 0.0
H232 H 0.33908 0.94397 0.02709 0.0
C233 C 0.33642 0.91649 0.041 0.0
H234 H 0.34043 0.93256 0.05899 0.0
H235 H 0.26711 0.84401 0.07229 0.0
O236 O 0.49977 0.74958 0.04676 0.0
C237 C 0.36707 0.73467 0.08622 0.0
Co238 Co 0.72269 0.94985 0.31577 0.0
Co239 Co 0.66164 0.8694 0.33657 0.0
C240 C 0.66335 0.96323 0.35965 0.0
O241 O 0.69219 0.97875 0.34424 0.0
O242 O 0.64833 0.92173 0.35851 0.0
C243 C 0.74461 0.04027 0.29594 0.0
O244 O 0.7057 0.05391 0.30598 0.0
C245 C 0.57839 0.8199 0.35299 0.0
C246 C 0.60098 0.74684 0.35029 0.0
C247 C 0.56365 0.77449 0.35679 0.0
N248 N 0.62222 0.81879 0.34475 0.0
N249 N 0.63556 0.77506 0.34326 0.0
C250 C 0.55076 0.86362 0.35527 0.0
H251 H 0.56531 0.89105 0.34347 0.0
H252 H 0.51392 0.8574 0.35045 0.0
H253 H 0.55246 0.87604 0.37414 0.0
C254 C 0.6689 0.92691 0.27175 0.0
N255 N 0.67899 0.92076 0.29521 0.0
N256 N 0.65335 0.88683 0.30382 0.0
C257 C 0.62592 0.87039 0.2861 0.0
C258 C 0.63487 0.89526 0.26518 0.0
C259 C 0.69361 0.96042 0.25566 0.0
H260 H 0.6824 0.99621 0.26013 0.0
H261 H 0.6863 0.95353 0.2364 0.0
H262 H 0.73153 0.958 0.25873 0.0
O263 O 0.76939 0.90417 0.32677 0.0
O264 O 0.72607 0.84824 0.34256 0.0
H265 H 0.56985 0.8267 0.27303 0.0
H266 H 0.5668 0.84263 0.30421 0.0
C267 C 0.59068 0.8328 0.28948 0.0
H268 H 0.60848 0.80022 0.29473 0.0
H269 H 0.66822 0.7645 0.33733 0.0
O270 O 0.75726 0.99823 0.29804 0.0
C271 C 0.76559 0.86536 0.33753 0.0
H272 H 0.11263 0.465 0.24236 0.0
H273 H 0.10193 0.33351 0.27899 0.0
H274 H 0.12436 0.50413 0.28083 0.0
H275 H 0.11158 0.37263 0.31768 0.0
H276 H 0.18837 0.45229 0.37762 0.0
H277 H 0.17115 0.41137 0.34039 0.0
H278 H 0.08492 0.5256 0.3173 0.0
H279 H 0.10321 0.56717 0.35421 0.0
C280 C 0.11256 0.44459 0.25872 0.0
C281 C 0.10644 0.39635 0.2578 0.0
C282 C 0.11873 0.46698 0.28078 0.0
C283 C 0.11875 0.44155 0.30239 0.0
C284 C 0.1122 0.39321 0.30139 0.0
C285 C 0.10621 0.37085 0.27929 0.0
C286 C 0.16542 0.46858 0.36471 0.0
C287 C 0.14741 0.5132 0.36888 0.0
C288 C 0.15535 0.44496 0.34338 0.0
C289 C 0.12689 0.46531 0.32576 0.0
C290 C 0.10766 0.50928 0.33029 0.0
C291 C 0.11787 0.53297 0.35157 0.0
H292 H 0.04505 0.69588 0.62595 0.0
H293 H 0.94534 0.58839 0.60975 0.0
H294 H 0.08754 0.67676 0.58941 0.0
H295 H 0.98815 0.56886 0.57344 0.0
H296 H 0.03893 0.59397 0.49591 0.0
H297 H 0.00065 0.605 0.53468 0.0
H298 H 0.13446 0.61889 0.56906 0.0
H299 H 0.17242 0.60927 0.52996 0.0
C300 C 0.03251 0.66772 0.6148 0.0
C301 C 0.99129 0.64416 0.62062 0.0
C302 C 0.05701 0.65663 0.59388 0.0
C303 C 0.04097 0.6216 0.57835 0.0
C304 C 0.00089 0.59671 0.58474 0.0
C305 C 0.97635 0.60787 0.60561 0.0
C306 C 0.05997 0.59924 0.51183 0.0
C307 C 0.10843 0.60081 0.51011 0.0
C308 C 0.03819 0.60515 0.53405 0.0
C309 C 0.0645 0.61273 0.55501 0.0
C310 C 0.11318 0.61355 0.55324 0.0
C311 C 0.13493 0.60766 0.53097 0.0
H312 H 0.8099 0.551 0.87975 0.0
H313 H 0.90105 0.44154 0.8554 0.0
H314 H 0.82851 0.59604 0.84391 0.0
H315 H 0.91922 0.48656 0.81948 0.0
H316 H 0.96766 0.59669 0.76559 0.0
H317 H 0.95691 0.55928 0.80484 0.0
H318 H 0.80974 0.58629 0.80066 0.0
H319 H 0.82079 0.62406 0.76176 0.0
C320 C 0.83426 0.53671 0.86691 0.0
C321 C 0.85364 0.49244 0.87037 0.0
C322 C 0.84471 0.56245 0.84631 0.0
C323 C 0.87502 0.54468 0.82879 0.0
C324 C 0.89596 0.50132 0.83273 0.0
C325 C 0.8853 0.47541 0.85326 0.0
C326 C 0.93319 0.59495 0.77329 0.0
C327 C 0.89499 0.61293 0.76074 0.0
C328 C 0.92697 0.57336 0.79561 0.0
C329 C 0.88248 0.56986 0.80582 0.0
C330 C 0.8445 0.58889 0.79341 0.0
C331 C 0.8507 0.6101 0.77106 0.0
H332 H 0.86909 0.31494 0.01222 0.0
H333 H 0.91732 0.45645 0.0094 0.0
H334 H 0.90759 0.3045 0.05105 0.0
H335 H 0.95461 0.4469 0.04862 0.0
H336 H 0.0628 0.39115 0.10252 0.0
H337 H 0.02033 0.40618 0.06554 0.0
H338 H 0.90367 0.32832 0.09294 0.0
H339 H 0.94655 0.31229 0.12981 0.0
C340 C 0.88796 0.34377 0.02002 0.0
C341 C 0.89077 0.3863 0.00788 0.0
C342 C 0.9095 0.33806 0.04234 0.0
C343 C 0.93416 0.3749 0.05296 0.0
C344 C 0.93638 0.41768 0.04082 0.0
C345 C 0.91487 0.42329 0.01849 0.0
C346 C 0.02794 0.37752 0.10079 0.0
C347 C 0.00826 0.35018 0.1191 0.0
C348 C 0.00348 0.38636 0.0796 0.0
C349 C 0.95872 0.36818 0.07621 0.0
C350 C 0.93841 0.34216 0.09483 0.0
C351 C 0.96288 0.33327 0.11605 0.0
H352 H 0.68241 0.12817 0.48843 0.0
H353 H 0.53703 0.09331 0.48607 0.0
H354 H 0.69402 0.09014 0.44958 0.0
H355 H 0.54803 0.05641 0.44684 0.0
H356 H 0.60213 0.94201 0.39556 0.0
H357 H 0.58539 0.98661 0.43164 0.0
H358 H 0.67592 0.09601 0.40677 0.0
H359 H 0.69343 0.05098 0.37073 0.0
C360 C 0.65296 0.11243 0.47948 0.0
C361 C 0.609 0.11301 0.49026 0.0
C362 C 0.65942 0.09116 0.45714 0.0
C363 C 0.62195 0.07013 0.44512 0.0
C364 C 0.57771 0.07177 0.45576 0.0
C365 C 0.5713 0.0931 0.47809 0.0
C366 C 0.61817 0.97577 0.39761 0.0
C367 C 0.64943 0.99271 0.38028 0.0
C368 C 0.60834 0.00148 0.41828 0.0
C369 C 0.62952 0.04477 0.42217 0.0
C370 C 0.65957 0.06245 0.40448 0.0
C371 C 0.66936 0.03676 0.38374 0.0
H372 H 0.40721 0.03431 0.73682 0.0
H373 H 0.36789 0.17865 0.73713 0.0
H374 H 0.44358 0.0444 0.69738 0.0
H375 H 0.4053 0.18939 0.69808 0.0
H376 H 0.55629 0.10036 0.64536 0.0
H377 H 0.51213 0.08335 0.68157 0.0
H378 H 0.39971 0.16881 0.65559 0.0
H379 H 0.44423 0.18661 0.61945 0.0
C380 C 0.40631 0.06814 0.72834 0.0
C381 C 0.38531 0.10585 0.73999 0.0
C382 C 0.42732 0.07403 0.70588 0.0
C383 C 0.4275 0.11774 0.69462 0.0
C384 C 0.40538 0.15517 0.70612 0.0
C385 C 0.38445 0.14923 0.72858 0.0
C386 C 0.52196 0.11518 0.6472 0.0
C387 C 0.50402 0.1452 0.62955 0.0
C388 C 0.49652 0.1052 0.66794 0.0
C389 C 0.45252 0.12498 0.67155 0.0
C390 C 0.43382 0.1536 0.65351 0.0
C391 C 0.45925 0.16355 0.63272 0.0
H392 H 0.46391 0.91395 0.98904 0.0
H393 H 0.31824 0.88016 0.99099 0.0
H394 H 0.45348 0.95097 0.94971 0.0
H395 H 0.30738 0.91776 0.95198 0.0
H396 H 0.31142 0.94889 0.87227 0.0
H397 H 0.32865 0.90703 0.90929 0.0
H398 H 0.41459 0.02078 0.93323 0.0
H399 H 0.39785 0.06259 0.89613 0.0
C400 C 0.42973 0.91441 0.98095 0.0
C401 C 0.39186 0.8943 0.99288 0.0
C402 C 0.42368 0.93577 0.95858 0.0
C403 C 0.37964 0.93712 0.94771 0.0
C404 C 0.34185 0.91672 0.95971 0.0
C405 C 0.34791 0.89563 0.98211 0.0
C406 C 0.33443 0.96482 0.88527 0.0
C407 C 0.35297 0.00929 0.88127 0.0
C408 C 0.34403 0.94092 0.90657 0.0
C409 C 0.3726 0.9608 0.92428 0.0
C410 C 0.39266 0.00442 0.91987 0.0
C411 C 0.38288 0.02845 0.89862 0.0
H412 H 0.5936 0.96133 0.23757 0.0
H413 H 0.62819 0.81581 0.23896 0.0
H414 H 0.55618 0.95119 0.19841 0.0
H415 H 0.58952 0.805 0.20024 0.0
H416 H 0.54969 0.80666 0.12165 0.0
H417 H 0.59484 0.82332 0.1577 0.0
H418 H 0.48666 0.91503 0.18275 0.0
H419 H 0.44224 0.89947 0.14653 0.0
C420 C 0.59321 0.92721 0.22939 0.0
C421 C 0.61333 0.88925 0.24124 0.0
C422 C 0.57155 0.92129 0.2071 0.0
C423 C 0.56968 0.87724 0.19621 0.0
C424 C 0.59075 0.83948 0.20796 0.0
C425 C 0.61241 0.84548 0.23024 0.0
C426 C 0.53573 0.83082 0.1347 0.0
C427 C 0.49195 0.85132 0.13124 0.0
C428 C 0.5615 0.84009 0.15547 0.0
C429 C 0.5442 0.87017 0.17324 0.0
C430 C 0.50123 0.89195 0.16936 0.0
C431 C 0.47549 0.88268 0.14862 0.0
H432 H 0.31427 0.01544 0.11436 0.0
H433 H 0.18046 0.94978 0.12176 0.0
H434 H 0.28315 0.08669 0.13115 0.0
H435 H 0.14808 0.02229 0.1368 0.0
H436 H 0.11028 0.14673 0.18214 0.0
H437 H 0.14567 0.07381 0.16974 0.0
H438 H 0.23497 0.14861 0.12071 0.0
H439 H 0.20111 0.2214 0.13395 0.0
C440 C 0.27837 0.01593 0.12003 0.0
C441 C 0.25023 0.97643 0.1176 0.0
C442 C 0.26017 0.05722 0.12916 0.0
C443 C 0.21303 0.06042 0.13546 0.0
C444 C 0.18475 0.02096 0.13268 0.0
C445 C 0.20317 0.97947 0.12384 0.0
C446 C 0.13774 0.14755 0.16885 0.0
C447 C 0.15288 0.18985 0.15903 0.0
C448 C 0.15784 0.1057 0.1616 0.0
C449 C 0.19312 0.1051 0.14411 0.0
C450 C 0.20852 0.14759 0.13452 0.0
C451 C 0.18889 0.18944 0.14202 0.0
H452 H 0.52297 0.69278 0.34505 0.0
H453 H 0.50271 0.81481 0.38899 0.0
H454 H 0.45057 0.66055 0.36023 0.0
H455 H 0.42952 0.783 0.40357 0.0
H456 H 0.27718 0.72378 0.40152 0.0
H457 H 0.34909 0.75994 0.38754 0.0
H458 H 0.42274 0.632 0.40055 0.0
H459 H 0.35141 0.59582 0.41448 0.0
C460 C 0.50293 0.71295 0.35779 0.0
C461 C 0.5183 0.75684 0.3654 0.0
C462 C 0.46152 0.69441 0.36651 0.0
C463 C 0.43445 0.71932 0.38305 0.0
C464 C 0.44942 0.76339 0.39054 0.0
C465 C 0.49119 0.7818 0.38197 0.0
C466 C 0.30878 0.70347 0.40155 0.0
C467 C 0.30845 0.65682 0.40901 0.0
C468 C 0.34992 0.72425 0.39362 0.0
C469 C 0.39131 0.69861 0.39277 0.0
C470 C 0.39117 0.65236 0.4007 0.0
C471 C 0.35029 0.63176 0.40882 0.0
H472 H 0.77367 0.04945 0.64711 0.0
H473 H 0.70806 0.97579 0.58878 0.0
H474 H 0.80523 0.97668 0.66241 0.0
H475 H 0.74032 0.90283 0.60365 0.0
H476 H 0.7776 0.77386 0.64745 0.0
H477 H 0.73899 0.8455 0.63518 0.0
H478 H 0.86356 0.92278 0.65153 0.0
H479 H 0.90139 0.85193 0.66442 0.0
C480 C 0.76583 0.01749 0.63768 0.0
C481 C 0.73785 0.01797 0.61706 0.0
C482 C 0.7841 0.97583 0.64632 0.0
C483 C 0.77551 0.93377 0.63423 0.0
C484 C 0.74697 0.93435 0.61368 0.0
C485 C 0.72834 0.97608 0.60517 0.0
C486 C 0.7966 0.80622 0.64854 0.0
C487 C 0.84259 0.80708 0.65697 0.0
C488 C 0.77455 0.84727 0.64138 0.0
C489 C 0.79806 0.89004 0.64242 0.0
C490 C 0.84398 0.89073 0.65092 0.0
C491 C 0.86586 0.8499 0.65819 0.0
H492 H 0.49536 0.18774 0.88675 0.0
H493 H 0.47313 0.30934 0.84275 0.0
H494 H 0.56828 0.2204 0.90107 0.0
H495 H 0.54531 0.34255 0.85777 0.0
H496 H 0.64694 0.40717 0.91165 0.0
H497 H 0.57507 0.37157 0.89776 0.0
H498 H 0.64777 0.24325 0.88432 0.0
H499 H 0.72 0.27878 0.89819 0.0
C500 C 0.50637 0.22085 0.87966 0.0
C501 C 0.47885 0.24531 0.86306 0.0
C502 C 0.54799 0.23979 0.8881 0.0
C503 C 0.56246 0.28396 0.8805 0.0
C504 C 0.53481 0.30858 0.86409 0.0
C505 C 0.49354 0.28947 0.85546 0.0
C506 C 0.64767 0.37128 0.90587 0.0
C507 C 0.68929 0.34588 0.90596 0.0
C508 C 0.60652 0.35102 0.89778 0.0
C509 C 0.60593 0.30476 0.88984 0.0
C510 C 0.64723 0.27893 0.89045 0.0
C511 C 0.68857 0.29936 0.89829 0.0
H512 H 0.69955 0.27399 0.61972 0.0
H513 H 0.61173 0.35229 0.57159 0.0
H514 H 0.73416 0.34585 0.63417 0.0
H515 H 0.6477 0.42398 0.58519 0.0
H516 H 0.68198 0.54609 0.63377 0.0
H517 H 0.64917 0.47383 0.6187 0.0
H518 H 0.78348 0.4082 0.62499 0.0
H519 H 0.81512 0.47946 0.64174 0.0
C520 C 0.68813 0.30652 0.61196 0.0
C521 C 0.6527 0.30743 0.59461 0.0
C522 C 0.70815 0.34781 0.62016 0.0
C523 C 0.69365 0.39096 0.61096 0.0
C524 C 0.65907 0.3916 0.5931 0.0
C525 C 0.63864 0.35041 0.58515 0.0
C526 C 0.70444 0.51619 0.63187 0.0
C527 C 0.75148 0.51895 0.63819 0.0
C528 C 0.68577 0.47482 0.62301 0.0
C529 C 0.71375 0.43513 0.62026 0.0
C530 C 0.76077 0.43789 0.62688 0.0
C531 C 0.77925 0.47914 0.636 0.0
H532 H 0.22175 0.219 0.85226 0.0
H533 H 0.14623 0.09399 0.8345 0.0
H534 H 0.14931 0.25632 0.86411 0.0
H535 H 0.07441 0.13067 0.84696 0.0
H536 H 0.9467 0.22024 0.85082 0.0
H537 H 0.01991 0.18897 0.83594 0.0
H538 H 0.09193 0.25275 0.89563 0.0
H539 H 0.01868 0.2844 0.91017 0.0
C540 C 0.18976 0.19946 0.8509 0.0
C541 C 0.18985 0.15349 0.84242 0.0
C542 C 0.14826 0.22077 0.85782 0.0
C543 C 0.10598 0.19653 0.85649 0.0
C544 C 0.10615 0.1507 0.84784 0.0
C545 C 0.14749 0.12952 0.84082 0.0
C546 C 0.97834 0.22782 0.86059 0.0
C547 C 0.97728 0.25544 0.88134 0.0
C548 C 0.02023 0.20976 0.85217 0.0
C549 C 0.0619 0.21832 0.86458 0.0
C550 C 0.06071 0.24627 0.88533 0.0
C551 C 0.01878 0.26463 0.89363 0.0
H552 H 0.40251 0.64687 0.08452 0.0
H553 H 0.2789 0.72314 0.10388 0.0
H554 H 0.36632 0.57529 0.09817 0.0
H555 H 0.24279 0.65109 0.11764 0.0
H556 H 0.1822 0.50032 0.11516 0.0
H557 H 0.21448 0.5738 0.10128 0.0
H558 H 0.34277 0.54324 0.13804 0.0
H559 H 0.31025 0.47036 0.15245 0.0
C560 C 0.36753 0.64841 0.09156 0.0
C561 C 0.34371 0.69087 0.0932 0.0
C562 C 0.34693 0.60737 0.09953 0.0
C563 C 0.3019 0.60769 0.10916 0.0
C564 C 0.27749 0.64983 0.11021 0.0
C565 C 0.29826 0.69107 0.10242 0.0
C566 C 0.21674 0.50975 0.12091 0.0
C567 C 0.24325 0.4798 0.13539 0.0
C568 C 0.23539 0.55173 0.11273 0.0
C569 C 0.28115 0.56419 0.11854 0.0
C570 C 0.30757 0.53431 0.13304 0.0
C571 C 0.28886 0.49263 0.14134 0.0
H572 H 0.7749 0.80578 0.37532 0.0
H573 H 0.852 0.87009 0.3176 0.0
H574 H 0.8464 0.7698 0.39014 0.0
H575 H 0.92311 0.83278 0.33211 0.0
H576 H 0.02055 0.70526 0.35662 0.0
H577 H 0.94715 0.73597 0.34082 0.0
H578 H 0.93014 0.81813 0.40507 0.0
H579 H 0.00413 0.78851 0.42059 0.0
C580 C 0.80694 0.81166 0.36561 0.0
C581 C 0.80797 0.84083 0.34535 0.0
C582 C 0.8477 0.79123 0.37414 0.0
C583 C 0.88987 0.79867 0.36219 0.0
C584 C 0.89079 0.82653 0.34151 0.0
C585 C 0.85024 0.8479 0.3333 0.0
C586 C 0.00085 0.72955 0.36741 0.0
C587 C 0.01756 0.74437 0.38986 0.0
C588 C 0.95919 0.7472 0.35834 0.0
C589 C 0.93326 0.77908 0.37186 0.0
C590 C 0.94958 0.79331 0.39447 0.0
C591 C 0.99177 0.77656 0.40326 0.0
H592 H 0.72954 0.13301 0.28793 0.0
H593 H 0.82555 0.02173 0.27254 0.0
H594 H 0.77918 0.18698 0.26577 0.0
H595 H 0.87444 0.07528 0.25028 0.0
H596 H 0.97672 0.19088 0.23627 0.0
H597 H 0.92505 0.14115 0.25925 0.0
H598 H 0.8067 0.20329 0.22417 0.0
H599 H 0.85857 0.2538 0.20124 0.0
C600 C 0.76108 0.12003 0.27978 0.0
C601 C 0.77372 0.07313 0.28214 0.0
C602 C 0.78936 0.15089 0.267 0.0
C603 C 0.83088 0.13544 0.25643 0.0
C604 C 0.8431 0.08844 0.25857 0.0
C605 C 0.8149 0.05768 0.27125 0.0
C606 C 0.93969 0.19415 0.23346 0.0
C607 C 0.92179 0.22609 0.21676 0.0
C608 C 0.91008 0.16545 0.24657 0.0
C609 C 0.86182 0.16796 0.24335 0.0
C610 C 0.84373 0.20073 0.22713 0.0
C611 C 0.87345 0.22948 0.21392 0.0
H612 H 0.38205 0.21269 0.51463 0.0
H613 H 0.45521 0.33253 0.54178 0.0
H614 H 0.32935 0.26359 0.49253 0.0
H615 H 0.40167 0.38327 0.52077 0.0
H616 H 0.33399 0.46225 0.4609 0.0
H617 H 0.38466 0.4085 0.4818 0.0
H618 H 0.26784 0.31824 0.4957 0.0
H619 H 0.21738 0.37145 0.47366 0.0
C620 C 0.38651 0.2499 0.51609 0.0
C621 C 0.42295 0.26862 0.52977 0.0
C622 C 0.35618 0.27912 0.50353 0.0
C623 C 0.36141 0.32766 0.50464 0.0
C624 C 0.39722 0.34614 0.51892 0.0
C625 C 0.42781 0.31702 0.53114 0.0
C626 C 0.3191 0.43088 0.46837 0.0
C627 C 0.27166 0.42117 0.46573 0.0
C628 C 0.34813 0.40012 0.48054 0.0
C629 C 0.33036 0.35916 0.49077 0.0
C630 C 0.28288 0.34917 0.48787 0.0
C631 C 0.25388 0.37975 0.47534 0.0
H632 H 0.0404 0.83394 0.70954 0.0
H633 H 0.12119 0.71415 0.73011 0.0
H634 H 0.09461 0.88418 0.73046 0.0
H635 H 0.17483 0.76446 0.75201 0.0
H636 H 0.28496 0.87533 0.77013 0.0
H637 H 0.23379 0.82261 0.74814 0.0
H638 H 0.1154 0.90439 0.77002 0.0
H639 H 0.16647 0.95766 0.79101 0.0
C640 C 0.06966 0.81829 0.71869 0.0
C641 C 0.07639 0.77004 0.71827 0.0
C642 C 0.10065 0.84711 0.73085 0.0
C643 C 0.13888 0.82842 0.74322 0.0
C644 C 0.14603 0.78012 0.7425 0.0
C645 C 0.11518 0.75124 0.73006 0.0
C646 C 0.24798 0.88187 0.77024 0.0
C647 C 0.22979 0.92083 0.78214 0.0
C648 C 0.2186 0.85156 0.75773 0.0
C649 C 0.17043 0.85943 0.75708 0.0
C650 C 0.15237 0.89781 0.76957 0.0
C651 C 0.18167 0.92826 0.78178 0.0
H652 H 0.71814 0.52747 0.99407 0.0
H653 H 0.69717 0.62202 0.9347 0.0
H654 H 0.67382 0.5785 0.02021 0.0
H655 H 0.65351 0.67369 0.96109 0.0
H656 H 0.52755 0.71711 0.00709 0.0
H657 H 0.57852 0.67265 0.98101 0.0
H658 H 0.6744 0.65379 0.03995 0.0
H659 H 0.62276 0.69763 0.0663 0.0
C660 C 0.70447 0.55938 0.98663 0.0
C661 C 0.71091 0.5705 0.96223 0.0
C662 C 0.67932 0.58884 0.00169 0.0
C663 C 0.66004 0.63013 0.99273 0.0
C664 C 0.66741 0.64181 0.96846 0.0
C665 C 0.6926 0.61231 0.95337 0.0
C666 C 0.5596 0.70373 0.01451 0.0
C667 C 0.57092 0.71066 0.03885 0.0
C668 C 0.58902 0.6785 0.99947 0.0
C669 C 0.63051 0.65962 0.0084 0.0
C670 C 0.64237 0.6674 0.03261 0.0
C671 C 0.6129 0.69269 0.04768 0.0
loop_
_geom_bond_atom_site_label_1
_geom_bond_atom_site_label_2
_geom_bond_distance
_geom_bond_site_symmetry_2
_ccdc_geom_bond_type
Co0 O3 1.970 . S
Co0 N17 1.989 . S
Co0 O25 1.967 . S
Co0 O32 1.920 . S
Co1 O4 1.966 . S
Co1 N10 2.022 . S
Co1 N18 1.993 . S
Co1 O26 1.941 . S
C2 O3 1.258 . S
C2 O4 1.263 . S
O3 Co0 1.970 . S
O3 C2 1.258 . S
O4 Co1 1.966 . S
O4 C2 1.263 . S
C5 O6 1.235 . S
C5 O32 1.289 1_655 S
O6 C5 1.235 . S
C7 C9 1.400 . S
C7 N10 1.351 . S
C7 C12 1.501 . S
C8 C9 1.387 . S
C8 N11 1.341 . S
C9 C7 1.400 . S
C9 C8 1.387 . S
N10 Co1 2.022 . S
N10 C7 1.351 . S
N10 N11 1.365 . S
N11 C8 1.341 . S
N11 N10 1.365 . S
N11 H31 0.862 . S
C12 C7 1.501 . S
C12 H13 0.961 . S
C12 H14 0.961 . S
C12 H15 0.960 . S
H13 C12 0.961 . S
H14 C12 0.961 . S
H15 C12 0.960 . S
C16 N17 1.342 . S
C16 C20 1.401 . S
C16 C21 1.499 . S
N17 Co0 1.989 . S
N17 C16 1.342 . S
N17 N18 1.388 . S
N18 Co1 1.993 . S
N18 N17 1.388 . S
N18 C19 1.346 . S
C19 N18 1.346 . S
C19 C20 1.396 . S
C19 C29 1.510 . S
C20 C16 1.401 . S
C20 C19 1.396 . S
C21 C16 1.499 . S
C21 H22 0.959 . S
C21 H23 0.960 . S
C21 H24 0.961 . S
H22 C21 0.959 . S
H23 C21 0.960 . S
H24 C21 0.961 . S
O25 Co0 1.967 . S
O25 C33 1.258 . S
O26 Co1 1.941 . S
O26 C33 1.266 . S
H27 C29 0.959 . S
H28 C29 0.961 . S
C29 C19 1.510 . S
C29 H27 0.959 . S
C29 H28 0.961 . S
C29 H30 0.960 . S
H30 C29 0.960 . S
H31 N11 0.862 . S
O32 Co0 1.920 . S
O32 C5 1.289 1_455 S
C33 O25 1.258 . S
C33 O26 1.266 . S
Co34 O37 1.970 . S
Co34 N51 1.989 . S
Co34 O59 1.967 . S
Co34 O66 1.920 . S
Co35 O38 1.966 . S
Co35 N44 2.022 . S
Co35 N52 1.993 . S
Co35 O60 1.941 . S
C36 O37 1.258 . S
C36 O38 1.263 . S
O37 Co34 1.970 . S
O37 C36 1.258 . S
O38 Co35 1.966 . S
O38 C36 1.263 . S
C39 O40 1.235 . S
C39 O66 1.289 . S
O40 C39 1.235 . S
C41 C43 1.400 . S
C41 N44 1.351 . S
C41 C46 1.501 . S
C42 C43 1.387 . S
C42 N45 1.341 . S
C43 C41 1.400 . S
C43 C42 1.387 . S
N44 Co35 2.022 . S
N44 C41 1.351 . S
N44 N45 1.365 . S
N45 C42 1.341 . S
N45 N44 1.365 . S
N45 H65 0.862 . S
C46 C41 1.501 . S
C46 H47 0.961 . S
C46 H48 0.961 . S
C46 H49 0.960 . S
H47 C46 0.961 . S
H48 C46 0.961 . S
H49 C46 0.960 . S
C50 N51 1.342 . S
C50 C54 1.401 . S
C50 C55 1.499 . S
N51 Co34 1.989 . S
N51 C50 1.342 . S
N51 N52 1.388 . S
N52 Co35 1.993 . S
N52 N51 1.388 . S
N52 C53 1.346 . S
C53 N52 1.346 . S
C53 C54 1.396 . S
C53 C63 1.510 . S
C54 C50 1.401 . S
C54 C53 1.396 . S
C55 C50 1.499 . S
C55 H56 0.959 . S
C55 H57 0.960 . S
C55 H58 0.961 . S
H56 C55 0.959 . S
H57 C55 0.960 . S
H58 C55 0.961 . S
O59 Co34 1.967 . S
O59 C67 1.258 . S
O60 Co35 1.941 . S
O60 C67 1.266 . S
H61 C63 0.959 . S
H62 C63 0.961 . S
C63 C53 1.510 . S
C63 H61 0.959 . S
C63 H62 0.961 . S
C63 H64 0.960 . S
H64 C63 0.960 . S
H65 N45 0.862 . S
O66 Co34 1.920 . S
O66 C39 1.289 . S
C67 O59 1.258 . S
C67 O60 1.266 . S
Co68 O71 1.970 . S
Co68 N85 1.989 . S
Co68 O93 1.967 . S
Co68 O100 1.920 . S
Co69 O72 1.966 . S
Co69 N78 2.022 . S
Co69 N86 1.993 . S
Co69 O94 1.941 . S
C70 O71 1.258 . S
C70 O72 1.263 . S
O71 Co68 1.970 . S
O71 C70 1.258 . S
O72 Co69 1.966 . S
O72 C70 1.263 . S
C73 O74 1.235 . S
C73 O100 1.289 1_455 S
O74 C73 1.235 . S
C75 C77 1.400 . S
C75 N78 1.351 . S
C75 C80 1.501 . S
C76 C77 1.387 . S
C76 N79 1.341 . S
C77 C75 1.400 . S
C77 C76 1.387 . S
N78 Co69 2.022 . S
N78 C75 1.351 . S
N78 N79 1.365 . S
N79 C76 1.341 . S
N79 N78 1.365 . S
N79 H99 0.862 . S
C80 C75 1.501 . S
C80 H81 0.961 . S
C80 H82 0.961 . S
C80 H83 0.960 . S
H81 C80 0.961 . S
H82 C80 0.961 . S
H83 C80 0.960 . S
C84 N85 1.342 . S
C84 C88 1.401 . S
C84 C89 1.499 . S
N85 Co68 1.989 . S
N85 C84 1.342 . S
N85 N86 1.388 . S
N86 Co69 1.993 . S
N86 N85 1.388 . S
N86 C87 1.346 . S
C87 N86 1.346 . S
C87 C88 1.396 . S
C87 C97 1.510 . S
C88 C84 1.401 . S
C88 C87 1.396 . S
C89 C84 1.499 . S
C89 H90 0.959 . S
C89 H91 0.960 . S
C89 H92 0.961 . S
H90 C89 0.959 . S
H91 C89 0.960 . S
H92 C89 0.961 . S
O93 Co68 1.967 . S
O93 C101 1.258 . S
O94 Co69 1.941 . S
O94 C101 1.266 . S
H95 C97 0.959 . S
H96 C97 0.961 . S
C97 C87 1.510 . S
C97 H95 0.959 . S
C97 H96 0.961 . S
C97 H98 0.960 . S
H98 C97 0.960 . S
H99 N79 0.862 . S
O100 Co68 1.920 . S
O100 C73 1.289 1_655 S
C101 O93 1.258 . S
C101 O94 1.266 . S
Co102 O105 1.970 . S
Co102 N119 1.989 . S
Co102 O127 1.967 . S
Co102 O134 1.920 . S
Co103 O106 1.966 . S
Co103 N112 2.022 . S
Co103 N120 1.993 . S
Co103 O128 1.941 . S
C104 O105 1.258 . S
C104 O106 1.263 . S
O105 Co102 1.970 . S
O105 C104 1.258 . S
O106 Co103 1.966 . S
O106 C104 1.263 . S
C107 O108 1.235 . S
C107 O134 1.289 . S
O108 C107 1.235 . S
C109 C111 1.400 . S
C109 N112 1.351 . S
C109 C114 1.501 . S
C110 C111 1.387 . S
C110 N113 1.341 . S
C111 C109 1.400 . S
C111 C110 1.387 . S
N112 Co103 2.022 . S
N112 C109 1.351 . S
N112 N113 1.365 . S
N113 C110 1.341 . S
N113 N112 1.365 . S
N113 H133 0.862 . S
C114 C109 1.501 . S
C114 H115 0.961 . S
C114 H116 0.961 . S
C114 H117 0.960 . S
H115 C114 0.961 . S
H116 C114 0.961 . S
H117 C114 0.960 . S
C118 N119 1.342 . S
C118 C122 1.401 . S
C118 C123 1.486 1_556 S
N119 Co102 1.989 . S
N119 C118 1.342 . S
N119 N120 1.388 . S
N120 Co103 1.993 . S
N120 N119 1.388 . S
N120 C121 1.346 . S
C121 N120 1.346 . S
C121 C122 1.396 . S
C121 C131 1.510 . S
C122 C118 1.401 . S
C122 C121 1.396 . S
C123 C118 1.486 1_554 S
C123 H124 0.947 1_554 S
C123 H125 0.970 . S
C123 H126 0.976 . S
H124 C123 0.947 1_556 S
H125 C123 0.970 . S
H126 C123 0.976 . S
O127 Co102 1.967 . S
O127 C135 1.258 . S
O128 Co103 1.941 . S
O128 C135 1.266 . S
H129 C131 0.959 . S
H130 C131 0.961 . S
C131 C121 1.510 . S
C131 H129 0.959 . S
C131 H130 0.961 . S
C131 H132 0.960 . S
H132 C131 0.960 . S
H133 N113 0.862 . S
O134 Co102 1.920 . S
O134 C107 1.289 . S
C135 O127 1.258 . S
C135 O128 1.266 . S
Co136 O139 1.970 . S
Co136 N153 1.989 . S
Co136 O161 1.967 . S
Co136 O168 1.920 . S
Co137 O140 1.966 . S
Co137 N146 2.022 . S
Co137 N154 1.993 . S
Co137 O162 1.941 . S
C138 O139 1.258 . S
C138 O140 1.263 . S
O139 Co136 1.970 . S
O139 C138 1.258 . S
O140 Co137 1.966 . S
O140 C138 1.263 . S
C141 O142 1.235 . S
C141 O168 1.289 . S
O142 C141 1.235 . S
C143 C145 1.400 . S
C143 N146 1.351 . S
C143 C148 1.501 . S
C144 C145 1.387 . S
C144 N147 1.341 . S
C145 C143 1.400 . S
C145 C144 1.387 . S
N146 Co137 2.022 . S
N146 C143 1.351 . S
N146 N147 1.365 . S
N147 C144 1.341 . S
N147 N146 1.365 . S
N147 H167 0.862 . S
C148 C143 1.501 . S
C148 H149 0.961 . S
C148 H150 0.961 . S
C148 H151 0.960 . S
H149 C148 0.961 . S
H150 C148 0.961 . S
H151 C148 0.960 . S
C152 N153 1.342 . S
C152 C156 1.401 . S
C152 C157 1.499 . S
N153 Co136 1.989 . S
N153 C152 1.342 . S
N153 N154 1.388 . S
N154 Co137 1.993 . S
N154 N153 1.388 . S
N154 C155 1.346 . S
C155 N154 1.346 . S
C155 C156 1.396 . S
C155 C165 1.510 . S
C156 C152 1.401 . S
C156 C155 1.396 . S
C157 C152 1.499 . S
C157 H158 0.959 . S
C157 H159 0.960 . S
C157 H160 0.961 . S
H158 C157 0.959 . S
H159 C157 0.960 . S
H160 C157 0.961 . S
O161 Co136 1.967 . S
O161 C169 1.258 . S
O162 Co137 1.941 . S
O162 C169 1.266 . S
H163 C165 0.959 . S
H164 C165 0.961 . S
C165 C155 1.510 . S
C165 H163 0.959 . S
C165 H164 0.961 . S
C165 H166 0.960 . S
H166 C165 0.960 . S
H167 N147 0.862 . S
O168 Co136 1.920 . S
O168 C141 1.289 . S
C169 O161 1.258 . S
C169 O162 1.266 . S
Co170 O173 1.970 . S
Co170 N187 1.989 . S
Co170 O195 1.967 . S
Co170 O202 1.920 . S
Co171 O174 1.966 . S
Co171 N180 2.022 . S
Co171 N188 1.993 . S
Co171 O196 1.941 . S
C172 O173 1.258 . S
C172 O174 1.263 . S
O173 Co170 1.970 . S
O173 C172 1.258 . S
O174 Co171 1.966 . S
O174 C172 1.263 . S
C175 O176 1.235 . S
C175 O202 1.289 1_565 S
O176 C175 1.235 . S
C177 C179 1.400 . S
C177 N180 1.351 . S
C177 C182 1.501 . S
C178 C179 1.387 . S
C178 N181 1.341 . S
C179 C177 1.400 . S
C179 C178 1.387 . S
N180 Co171 2.022 . S
N180 C177 1.351 . S
N180 N181 1.365 . S
N181 C178 1.341 . S
N181 N180 1.365 . S
N181 H201 0.862 . S
C182 C177 1.501 . S
C182 H183 0.961 . S
C182 H184 0.961 . S
C182 H185 0.960 . S
H183 C182 0.961 . S
H184 C182 0.961 . S
H185 C182 0.960 . S
C186 N187 1.342 . S
C186 C190 1.401 . S
C186 C191 1.499 . S
N187 Co170 1.989 . S
N187 C186 1.342 . S
N187 N188 1.388 . S
N188 Co171 1.993 . S
N188 N187 1.388 . S
N188 C189 1.346 . S
C189 N188 1.346 . S
C189 C190 1.396 . S
C189 C199 1.510 . S
C190 C186 1.401 . S
C190 C189 1.396 . S
C191 C186 1.499 . S
C191 H192 0.959 . S
C191 H193 0.960 . S
C191 H194 0.961 . S
H192 C191 0.959 . S
H193 C191 0.960 . S
H194 C191 0.961 . S
O195 Co170 1.967 . S
O195 C203 1.258 . S
O196 Co171 1.941 . S
O196 C203 1.266 . S
H197 C199 0.959 . S
H198 C199 0.961 . S
C199 C189 1.510 . S
C199 H197 0.959 . S
C199 H198 0.961 . S
C199 H200 0.960 . S
H200 C199 0.960 . S
H201 N181 0.862 . S
O202 Co170 1.920 . S
O202 C175 1.289 1_545 S
C203 O195 1.258 . S
C203 O196 1.266 . S
Co204 O207 1.970 . S
Co204 N221 1.989 . S
Co204 O229 1.967 . S
Co204 O236 1.920 . S
Co205 O208 1.966 . S
Co205 N214 2.022 . S
Co205 N222 1.993 . S
Co205 O230 1.941 . S
C206 O207 1.258 . S
C206 O208 1.263 . S
O207 Co204 1.970 . S
O207 C206 1.258 . S
O208 Co205 1.966 . S
O208 C206 1.263 . S
C209 O210 1.235 . S
C209 O236 1.289 . S
O210 C209 1.235 . S
C211 C213 1.400 . S
C211 N214 1.351 . S
C211 C216 1.501 . S
C212 C213 1.387 . S
C212 N215 1.341 . S
C213 C211 1.400 . S
C213 C212 1.387 . S
N214 Co205 2.022 . S
N214 C211 1.351 . S
N214 N215 1.365 . S
N215 C212 1.341 . S
N215 N214 1.365 . S
N215 H235 0.862 . S
C216 C211 1.501 . S
C216 H217 0.961 . S
C216 H218 0.961 . S
C216 H219 0.960 . S
H217 C216 0.961 . S
H218 C216 0.961 . S
H219 C216 0.960 . S
C220 N221 1.342 . S
C220 C224 1.401 . S
C220 C225 1.486 1_554 S
N221 Co204 1.989 . S
N221 C220 1.342 . S
N221 N222 1.388 . S
N222 Co205 1.993 . S
N222 N221 1.388 . S
N222 C223 1.346 . S
C223 N222 1.346 . S
C223 C224 1.396 . S
C223 C233 1.510 . S
C224 C220 1.401 . S
C224 C223 1.396 . S
C225 C220 1.486 1_556 S
C225 H226 0.947 1_556 S
C225 H227 0.970 . S
C225 H228 0.976 . S
H226 C225 0.947 1_554 S
H227 C225 0.970 . S
H228 C225 0.976 . S
O229 Co204 1.967 . S
O229 C237 1.258 . S
O230 Co205 1.941 . S
O230 C237 1.266 . S
H231 C233 0.959 . S
H232 C233 0.961 . S
C233 C223 1.510 . S
C233 H231 0.959 . S
C233 H232 0.961 . S
C233 H234 0.960 . S
H234 C233 0.960 . S
H235 N215 0.862 . S
O236 Co204 1.920 . S
O236 C209 1.289 . S
C237 O229 1.258 . S
C237 O230 1.266 . S
Co238 O241 1.970 . S
Co238 N255 1.989 . S
Co238 O263 1.967 . S
Co238 O270 1.920 . S
Co239 O242 1.966 . S
Co239 N248 2.022 . S
Co239 N256 1.993 . S
Co239 O264 1.941 . S
C240 O241 1.258 . S
C240 O242 1.263 . S
O241 Co238 1.970 . S
O241 C240 1.258 . S
O242 Co239 1.966 . S
O242 C240 1.263 . S
C243 O244 1.235 . S
C243 O270 1.289 1_545 S
O244 C243 1.235 . S
C245 C247 1.400 . S
C245 N248 1.351 . S
C245 C250 1.501 . S
C246 C247 1.387 . S
C246 N249 1.341 . S
C247 C245 1.400 . S
C247 C246 1.387 . S
N248 Co239 2.022 . S
N248 C245 1.351 . S
N248 N249 1.365 . S
N249 C246 1.341 . S
N249 N248 1.365 . S
N249 H269 0.862 . S
C250 C245 1.501 . S
C250 H251 0.961 . S
C250 H252 0.961 . S
C250 H253 0.960 . S
H251 C250 0.961 . S
H252 C250 0.961 . S
H253 C250 0.960 . S
C254 N255 1.342 . S
C254 C258 1.401 . S
C254 C259 1.499 . S
N255 Co238 1.989 . S
N255 C254 1.342 . S
N255 N256 1.388 . S
N256 Co239 1.993 . S
N256 N255 1.388 . S
N256 C257 1.346 . S
C257 N256 1.346 . S
C257 C258 1.396 . S
C257 C267 1.510 . S
C258 C254 1.401 . S
C258 C257 1.396 . S
C259 C254 1.499 . S
C259 H260 0.959 . S
C259 H261 0.960 . S
C259 H262 0.961 . S
H260 C259 0.959 . S
H261 C259 0.960 . S
H262 C259 0.961 . S
O263 Co238 1.967 . S
O263 C271 1.258 . S
O264 Co239 1.941 . S
O264 C271 1.266 . S
H265 C267 0.959 . S
H266 C267 0.961 . S
C267 C257 1.510 . S
C267 H265 0.959 . S
C267 H266 0.961 . S
C267 H268 0.960 . S
H268 C267 0.960 . S
H269 N249 0.862 . S
O270 Co238 1.920 . S
O270 C243 1.289 1_565 S
C271 O263 1.258 . S
C271 O264 1.266 . S
H272 C280 0.950 . S
H273 C285 0.950 . S
H274 C282 0.950 . S
H275 C284 0.950 . S
H276 C286 0.950 . S
H277 C288 0.950 . S
H278 C290 0.950 . S
H279 C291 0.950 . S
C280 H272 0.950 . S
C280 C281 1.386 . S
C280 C282 1.391 . S
C281 C280 1.386 . S
C281 C285 1.393 . S
C282 H274 0.950 . S
C282 C280 1.391 . S
C282 C283 1.400 . S
C283 C282 1.400 . S
C283 C284 1.398 . S
C283 C289 1.491 . S
C284 H275 0.950 . S
C284 C283 1.398 . S
C284 C285 1.391 . S
C285 H273 0.950 . S
C285 C281 1.393 . S
C285 C284 1.391 . S
C286 H276 0.950 . S
C286 C287 1.386 . S
C286 C288 1.391 . S
C287 C286 1.386 . S
C287 C291 1.393 . S
C288 H277 0.950 . S
C288 C286 1.391 . S
C288 C289 1.400 . S
C289 C283 1.491 . S
C289 C288 1.400 . S
C289 C290 1.398 . S
C290 H278 0.950 . S
C290 C289 1.398 . S
C290 C291 1.391 . S
C291 H279 0.950 . S
C291 C287 1.393 . S
C291 C290 1.391 . S
H292 C300 0.950 . S
H293 C305 0.950 . S
H294 C302 0.950 . S
H295 C304 0.950 . S
H296 C306 0.950 . S
H297 C308 0.950 . S
H298 C310 0.950 . S
H299 C311 0.950 . S
C300 H292 0.950 . S
C300 C301 1.386 1_455 S
C300 C302 1.391 . S
C301 C300 1.386 1_655 S
C301 C305 1.393 . S
C302 H294 0.950 . S
C302 C300 1.391 . S
C302 C303 1.400 . S
C303 C302 1.400 . S
C303 C304 1.398 1_455 S
C303 C309 1.491 . S
C304 H295 0.950 . S
C304 C303 1.398 1_655 S
C304 C305 1.391 . S
C305 H293 0.950 . S
C305 C301 1.393 . S
C305 C304 1.391 . S
C306 H296 0.950 . S
C306 C307 1.386 . S
C306 C308 1.391 . S
C307 C306 1.386 . S
C307 C311 1.393 . S
C308 H297 0.950 . S
C308 C306 1.391 . S
C308 C309 1.400 . S
C309 C303 1.491 . S
C309 C308 1.400 . S
C309 C310 1.398 . S
C310 H298 0.950 . S
C310 C309 1.398 . S
C310 C311 1.391 . S
C311 H299 0.950 . S
C311 C307 1.393 . S
C311 C310 1.391 . S
H312 C320 0.950 . S
H313 C325 0.950 . S
H314 C322 0.950 . S
H315 C324 0.950 . S
H316 C326 0.950 . S
H317 C328 0.950 . S
H318 C330 0.950 . S
H319 C331 0.950 . S
C320 H312 0.950 . S
C320 C321 1.386 . S
C320 C322 1.391 . S
C321 C320 1.386 . S
C321 C325 1.393 . S
C322 H314 0.950 . S
C322 C320 1.391 . S
C322 C323 1.400 . S
C323 C322 1.400 . S
C323 C324 1.398 . S
C323 C329 1.491 . S
C324 H315 0.950 . S
C324 C323 1.398 . S
C324 C325 1.391 . S
C325 H313 0.950 . S
C325 C321 1.393 . S
C325 C324 1.391 . S
C326 H316 0.950 . S
C326 C327 1.386 . S
C326 C328 1.391 . S
C327 C326 1.386 . S
C327 C331 1.393 . S
C328 H317 0.950 . S
C328 C326 1.391 . S
C328 C329 1.400 . S
C329 C323 1.491 . S
C329 C328 1.400 . S
C329 C330 1.398 . S
C330 H318 0.950 . S
C330 C329 1.398 . S
C330 C331 1.391 . S
C331 H319 0.950 . S
C331 C327 1.393 . S
C331 C330 1.391 . S
H332 C340 0.950 . S
H333 C345 0.919 1_556 S
H334 C342 0.950 . S
H335 C344 0.950 1_455 S
H336 C346 0.950 . S
H337 C348 0.950 . S
H338 C350 0.950 . S
H339 C351 0.950 . S
C340 H332 0.950 . S
C340 C341 1.386 . S
C340 C342 1.391 . S
C341 C340 1.386 . S
C341 C345 1.393 . S
C342 H334 0.950 . S
C342 C340 1.391 . S
C342 C343 1.400 . S
C343 C342 1.400 . S
C343 C344 1.398 . S
C343 C349 1.491 . S
C344 H335 0.950 1_655 S
C344 C343 1.398 . S
C344 C345 1.391 . S
C345 H333 0.919 1_554 S
C345 C341 1.393 . S
C345 C344 1.391 . S
C346 H336 0.950 . S
C346 C347 1.386 . S
C346 C348 1.391 . S
C347 C346 1.386 . S
C347 C351 1.393 1_455 S
C348 H337 0.950 . S
C348 C346 1.391 . S
C348 C349 1.400 1_455 S
C349 C343 1.491 . S
C349 C348 1.400 1_655 S
C349 C350 1.398 . S
C350 H338 0.950 . S
C350 C349 1.398 . S
C350 C351 1.391 . S
C351 H339 0.950 . S
C351 C347 1.393 1_655 S
C351 C350 1.391 . S
H352 C360 0.950 . S
H353 C365 0.950 . S
H354 C362 0.950 . S
H355 C364 0.950 1_565 S
H356 C366 0.950 . S
H357 C368 0.950 . S
H358 C370 0.950 . S
H359 C371 0.950 . S
C360 H352 0.950 . S
C360 C361 1.386 . S
C360 C362 1.391 . S
C361 C360 1.386 . S
C361 C365 1.393 . S
C362 H354 0.950 . S
C362 C360 1.391 . S
C362 C363 1.400 . S
C363 C362 1.400 . S
C363 C364 1.398 . S
C363 C369 1.491 . S
C364 H355 0.950 1_545 S
C364 C363 1.398 . S
C364 C365 1.391 . S
C365 H353 0.950 . S
C365 C361 1.393 . S
C365 C364 1.391 . S
C366 H356 0.950 . S
C366 C367 1.386 . S
C366 C368 1.391 . S
C367 C366 1.386 . S
C367 C371 1.393 1_565 S
C368 H357 0.950 . S
C368 C366 1.391 . S
C368 C369 1.400 1_565 S
C369 C363 1.491 . S
C369 C368 1.400 1_545 S
C369 C370 1.398 . S
C370 H358 0.950 . S
C370 C369 1.398 . S
C370 C371 1.391 . S
C371 H359 0.950 . S
C371 C367 1.393 1_545 S
C371 C370 1.391 . S
H372 C380 0.950 . S
H373 C385 0.950 . S
H374 C382 0.950 . S
H375 C384 0.950 . S
H376 C386 0.950 . S
H377 C388 0.950 . S
H378 C390 0.950 . S
H379 C391 0.950 . S
C380 H372 0.950 . S
C380 C381 1.386 . S
C380 C382 1.391 . S
C381 C380 1.386 . S
C381 C385 1.393 . S
C382 H374 0.950 . S
C382 C380 1.391 . S
C382 C383 1.400 . S
C383 C382 1.400 . S
C383 C384 1.398 . S
C383 C389 1.491 . S
C384 H375 0.950 . S
C384 C383 1.398 . S
C384 C385 1.391 . S
C385 H373 0.950 . S
C385 C381 1.393 . S
C385 C384 1.391 . S
C386 H376 0.950 . S
C386 C387 1.386 . S
C386 C388 1.391 . S
C387 C386 1.386 . S
C387 C391 1.393 . S
C388 H377 0.950 . S
C388 C386 1.391 . S
C388 C389 1.400 . S
C389 C383 1.491 . S
C389 C388 1.400 . S
C389 C390 1.398 . S
C390 H378 0.950 . S
C390 C389 1.398 . S
C390 C391 1.391 . S
C391 H379 0.950 . S
C391 C387 1.393 . S
C391 C390 1.391 . S
H392 C400 0.950 . S
H393 C405 0.950 . S
H394 C402 0.947 1_545 S
H395 C404 0.950 . S
H396 C406 0.950 . S
H397 C408 0.950 . S
H398 C410 0.950 . S
H399 C411 0.950 . S
C400 H392 0.950 . S
C400 C401 1.386 . S
C400 C402 1.391 . S
C401 C400 1.386 . S
C401 C405 1.393 . S
C402 H394 0.947 1_565 S
C402 C400 1.391 . S
C402 C403 1.400 . S
C403 C402 1.400 . S
C403 C404 1.398 . S
C403 C409 1.491 . S
C404 H395 0.950 . S
C404 C403 1.398 . S
C404 C405 1.391 . S
C405 H393 0.950 . S
C405 C401 1.393 . S
C405 C404 1.391 . S
C406 H396 0.950 . S
C406 C407 1.386 1_565 S
C406 C408 1.391 . S
C407 C406 1.386 1_545 S
C407 C411 1.393 . S
C408 H397 0.950 . S
C408 C406 1.391 . S
C408 C409 1.400 . S
C409 C403 1.491 . S
C409 C408 1.400 . S
C409 C410 1.398 1_565 S
C410 H398 0.950 . S
C410 C409 1.398 1_545 S
C410 C411 1.391 . S
C411 H399 0.950 . S
C411 C407 1.393 . S
C411 C410 1.391 . S
H412 C420 0.950 . S
H413 C425 0.950 . S
H414 C422 0.950 . S
H415 C424 0.950 . S
H416 C426 0.950 . S
H417 C428 0.950 . S
H418 C430 0.950 . S
H419 C431 0.950 . S
C420 H412 0.950 . S
C420 C421 1.386 . S
C420 C422 1.391 . S
C421 C420 1.386 . S
C421 C425 1.393 . S
C422 H414 0.950 . S
C422 C420 1.391 . S
C422 C423 1.400 . S
C423 C422 1.400 . S
C423 C424 1.398 . S
C423 C429 1.491 . S
C424 H415 0.950 . S
C424 C423 1.398 . S
C424 C425 1.391 . S
C425 H413 0.950 . S
C425 C421 1.393 . S
C425 C424 1.391 . S
C426 H416 0.950 . S
C426 C427 1.386 . S
C426 C428 1.391 . S
C427 C426 1.386 . S
C427 C431 1.393 . S
C428 H417 0.950 . S
C428 C426 1.391 . S
C428 C429 1.400 . S
C429 C423 1.491 . S
C429 C428 1.400 . S
C429 C430 1.398 . S
C430 H418 0.950 . S
C430 C429 1.398 . S
C430 C431 1.391 . S
C431 H419 0.950 . S
C431 C427 1.393 . S
C431 C430 1.391 . S
H432 C440 0.950 . S
H433 C445 0.948 1_565 S
H434 C442 0.950 . S
H435 C444 0.950 . S
H436 C446 0.950 . S
H437 C448 0.950 . S
H438 C450 0.950 . S
H439 C451 0.950 . S
C440 H432 0.950 . S
C440 C441 1.386 . S
C440 C442 1.391 . S
C441 C440 1.386 . S
C441 C445 1.393 . S
C442 H434 0.950 . S
C442 C440 1.391 . S
C442 C443 1.400 . S
C443 C442 1.400 . S
C443 C444 1.398 . S
C443 C449 1.491 . S
C444 H435 0.950 . S
C444 C443 1.398 . S
C444 C445 1.391 . S
C445 H433 0.948 1_545 S
C445 C441 1.393 . S
C445 C444 1.391 . S
C446 H436 0.950 . S
C446 C447 1.386 . S
C446 C448 1.391 . S
C447 C446 1.386 . S
C447 C451 1.393 . S
C448 H437 0.950 . S
C448 C446 1.391 . S
C448 C449 1.400 . S
C449 C443 1.491 . S
C449 C448 1.400 . S
C449 C450 1.398 . S
C450 H438 0.950 . S
C450 C449 1.398 . S
C450 C451 1.391 . S
C451 H439 0.950 . S
C451 C447 1.393 . S
C451 C450 1.391 . S
H452 C460 0.950 . S
H453 C465 0.950 . S
H454 C462 0.950 . S
H455 C464 0.950 . S
H456 C466 0.950 . S
H457 C468 0.950 . S
H458 C470 0.950 . S
H459 C471 0.950 . S
C460 H452 0.950 . S
C460 C461 1.386 . S
C460 C462 1.391 . S
C461 C460 1.386 . S
C461 C465 1.393 . S
C462 H454 0.950 . S
C462 C460 1.391 . S
C462 C463 1.400 . S
C463 C462 1.400 . S
C463 C464 1.398 . S
C463 C469 1.491 . S
C464 H455 0.950 . S
C464 C463 1.398 . S
C464 C465 1.391 . S
C465 H453 0.950 . S
C465 C461 1.393 . S
C465 C464 1.391 . S
C466 H456 0.950 . S
C466 C467 1.386 . S
C466 C468 1.391 . S
C467 C466 1.386 . S
C467 C471 1.393 . S
C468 H457 0.950 . S
C468 C466 1.391 . S
C468 C469 1.400 . S
C469 C463 1.491 . S
C469 C468 1.400 . S
C469 C470 1.398 . S
C470 H458 0.950 . S
C470 C469 1.398 . S
C470 C471 1.391 . S
C471 H459 0.950 . S
C471 C467 1.393 . S
C471 C470 1.391 . S
H472 C480 0.950 1_545 S
H473 C485 0.950 . S
H474 C482 0.950 . S
H475 C484 0.950 . S
H476 C486 0.950 . S
H477 C488 0.950 . S
H478 C490 0.950 . S
H479 C491 0.950 . S
C480 H472 0.950 1_565 S
C480 C481 1.386 . S
C480 C482 1.391 . S
C481 C480 1.386 . S
C481 C485 1.393 . S
C482 H474 0.950 . S
C482 C480 1.391 . S
C482 C483 1.400 . S
C483 C482 1.400 . S
C483 C484 1.398 . S
C483 C489 1.491 . S
C484 H475 0.950 . S
C484 C483 1.398 . S
C484 C485 1.391 . S
C485 H473 0.950 . S
C485 C481 1.393 . S
C485 C484 1.391 . S
C486 H476 0.950 . S
C486 C487 1.386 . S
C486 C488 1.391 . S
C487 C486 1.386 . S
C487 C491 1.393 . S
C488 H477 0.950 . S
C488 C486 1.391 . S
C488 C489 1.400 . S
C489 C483 1.491 . S
C489 C488 1.400 . S
C489 C490 1.398 . S
C490 H478 0.950 . S
C490 C489 1.398 . S
C490 C491 1.391 . S
C491 H479 0.950 . S
C491 C487 1.393 . S
C491 C490 1.391 . S
H492 C500 0.950 . S
H493 C505 0.950 . S
H494 C502 0.950 . S
H495 C504 0.950 . S
H496 C506 0.950 . S
H497 C508 0.950 . S
H498 C510 0.950 . S
H499 C511 0.950 . S
C500 H492 0.950 . S
C500 C501 1.386 . S
C500 C502 1.391 . S
C501 C500 1.386 . S
C501 C505 1.393 . S
C502 H494 0.950 . S
C502 C500 1.391 . S
C502 C503 1.400 . S
C503 C502 1.400 . S
C503 C504 1.398 . S
C503 C509 1.491 . S
C504 H495 0.950 . S
C504 C503 1.398 . S
C504 C505 1.391 . S
C505 H493 0.950 . S
C505 C501 1.393 . S
C505 C504 1.391 . S
C506 H496 0.950 . S
C506 C507 1.386 . S
C506 C508 1.391 . S
C507 C506 1.386 . S
C507 C511 1.393 . S
C508 H497 0.950 . S
C508 C506 1.391 . S
C508 C509 1.400 . S
C509 C503 1.491 . S
C509 C508 1.400 . S
C509 C510 1.398 . S
C510 H498 0.950 . S
C510 C509 1.398 . S
C510 C511 1.391 . S
C511 H499 0.950 . S
C511 C507 1.393 . S
C511 C510 1.391 . S
H512 C520 0.950 . S
H513 C525 0.950 . S
H514 C522 0.950 . S
H515 C524 0.950 . S
H516 C526 0.950 . S
H517 C528 0.950 . S
H518 C530 0.950 . S
H519 C531 0.950 . S
C520 H512 0.950 . S
C520 C521 1.386 . S
C520 C522 1.391 . S
C521 C520 1.386 . S
C521 C525 1.393 . S
C522 H514 0.950 . S
C522 C520 1.391 . S
C522 C523 1.400 . S
C523 C522 1.400 . S
C523 C524 1.398 . S
C523 C529 1.491 . S
C524 H515 0.950 . S
C524 C523 1.398 . S
C524 C525 1.391 . S
C525 H513 0.950 . S
C525 C521 1.393 . S
C525 C524 1.391 . S
C526 H516 0.950 . S
C526 C527 1.386 . S
C526 C528 1.391 . S
C527 C526 1.386 . S
C527 C531 1.393 . S
C528 H517 0.950 . S
C528 C526 1.391 . S
C528 C529 1.400 . S
C529 C523 1.491 . S
C529 C528 1.400 . S
C529 C530 1.398 . S
C530 H518 0.950 . S
C530 C529 1.398 . S
C530 C531 1.391 . S
C531 H519 0.950 . S
C531 C527 1.393 . S
C531 C530 1.391 . S
H532 C540 0.950 . S
H533 C545 0.950 . S
H534 C542 0.950 . S
H535 C544 0.950 . S
H536 C546 0.950 1_655 S
H537 C548 0.950 . S
H538 C550 0.950 . S
H539 C551 0.950 . S
C540 H532 0.950 . S
C540 C541 1.386 . S
C540 C542 1.391 . S
C541 C540 1.386 . S
C541 C545 1.393 . S
C542 H534 0.950 . S
C542 C540 1.391 . S
C542 C543 1.400 . S
C543 C542 1.400 . S
C543 C544 1.398 . S
C543 C549 1.491 . S
C544 H535 0.950 . S
C544 C543 1.398 . S
C544 C545 1.391 . S
C545 H533 0.950 . S
C545 C541 1.393 . S
C545 C544 1.391 . S
C546 H536 0.950 1_455 S
C546 C547 1.386 . S
C546 C548 1.391 . S
C547 C546 1.386 . S
C547 C551 1.393 . S
C548 H537 0.950 . S
C548 C546 1.391 . S
C548 C549 1.400 . S
C549 C543 1.491 . S
C549 C548 1.400 . S
C549 C550 1.398 . S
C550 H538 0.950 . S
C550 C549 1.398 . S
C550 C551 1.391 . S
C551 H539 0.950 . S
C551 C547 1.393 . S
C551 C550 1.391 . S
H552 C560 0.950 . S
H553 C565 0.950 . S
H554 C562 0.950 . S
H555 C564 0.950 . S
H556 C566 0.950 . S
H557 C568 0.950 . S
H558 C570 0.950 . S
H559 C571 0.950 . S
C560 H552 0.950 . S
C560 C561 1.386 . S
C560 C562 1.391 . S
C561 C560 1.386 . S
C561 C565 1.393 . S
C562 H554 0.950 . S
C562 C560 1.391 . S
C562 C563 1.400 . S
C563 C562 1.400 . S
C563 C564 1.398 . S
C563 C569 1.491 . S
C564 H555 0.950 . S
C564 C563 1.398 . S
C564 C565 1.391 . S
C565 H553 0.950 . S
C565 C561 1.393 . S
C565 C564 1.391 . S
C566 H556 0.950 . S
C566 C567 1.386 . S
C566 C568 1.391 . S
C567 C566 1.386 . S
C567 C571 1.393 . S
C568 H557 0.950 . S
C568 C566 1.391 . S
C568 C569 1.400 . S
C569 C563 1.491 . S
C569 C568 1.400 . S
C569 C570 1.398 . S
C570 H558 0.950 . S
C570 C569 1.398 . S
C570 C571 1.391 . S
C571 H559 0.950 . S
C571 C567 1.393 . S
C571 C570 1.391 . S
H572 C580 0.950 . S
H573 C585 0.950 . S
H574 C582 0.950 . S
H575 C584 0.950 . S
H576 C586 0.950 . S
H577 C588 0.950 . S
H578 C590 0.950 . S
H579 C591 0.950 . S
C580 H572 0.950 . S
C580 C581 1.386 . S
C580 C582 1.391 . S
C581 C580 1.386 . S
C581 C585 1.393 . S
C582 H574 0.950 . S
C582 C580 1.391 . S
C582 C583 1.400 . S
C583 C582 1.400 . S
C583 C584 1.398 . S
C583 C589 1.491 . S
C584 H575 0.950 . S
C584 C583 1.398 . S
C584 C585 1.391 . S
C585 H573 0.950 . S
C585 C581 1.393 . S
C585 C584 1.391 . S
C586 H576 0.950 . S
C586 C587 1.386 . S
C586 C588 1.391 . S
C587 C586 1.386 . S
C587 C591 1.393 . S
C588 H577 0.950 . S
C588 C586 1.391 . S
C588 C589 1.400 . S
C589 C583 1.491 . S
C589 C588 1.400 . S
C589 C590 1.398 . S
C590 H578 0.950 . S
C590 C589 1.398 . S
C590 C591 1.391 . S
C591 H579 0.950 . S
C591 C587 1.393 . S
C591 C590 1.391 . S
H592 C600 0.950 . S
H593 C605 0.950 . S
H594 C602 0.950 . S
H595 C604 0.950 . S
H596 C606 0.950 . S
H597 C608 0.950 . S
H598 C610 0.950 . S
H599 C611 0.950 . S
C600 H592 0.950 . S
C600 C601 1.386 . S
C600 C602 1.391 . S
C601 C600 1.386 . S
C601 C605 1.393 . S
C602 H594 0.950 . S
C602 C600 1.391 . S
C602 C603 1.400 . S
C603 C602 1.400 . S
C603 C604 1.398 . S
C603 C609 1.491 . S
C604 H595 0.950 . S
C604 C603 1.398 . S
C604 C605 1.391 . S
C605 H593 0.950 . S
C605 C601 1.393 . S
C605 C604 1.391 . S
C606 H596 0.950 . S
C606 C607 1.386 . S
C606 C608 1.391 . S
C607 C606 1.386 . S
C607 C611 1.393 . S
C608 H597 0.950 . S
C608 C606 1.391 . S
C608 C609 1.400 . S
C609 C603 1.491 . S
C609 C608 1.400 . S
C609 C610 1.398 . S
C610 H598 0.950 . S
C610 C609 1.398 . S
C610 C611 1.391 . S
C611 H599 0.950 . S
C611 C607 1.393 . S
C611 C610 1.391 . S
H612 C620 0.950 . S
H613 C625 0.950 . S
H614 C622 0.950 . S
H615 C624 0.950 . S
H616 C626 0.950 . S
H617 C628 0.950 . S
H618 C630 0.950 . S
H619 C631 0.950 . S
C620 H612 0.950 . S
C620 C621 1.386 . S
C620 C622 1.391 . S
C621 C620 1.386 . S
C621 C625 1.393 . S
C622 H614 0.950 . S
C622 C620 1.391 . S
C622 C623 1.400 . S
C623 C622 1.400 . S
C623 C624 1.398 . S
C623 C629 1.491 . S
C624 H615 0.950 . S
C624 C623 1.398 . S
C624 C625 1.391 . S
C625 H613 0.950 . S
C625 C621 1.393 . S
C625 C624 1.391 . S
C626 H616 0.950 . S
C626 C627 1.386 . S
C626 C628 1.391 . S
C627 C626 1.386 . S
C627 C631 1.393 . S
C628 H617 0.950 . S
C628 C626 1.391 . S
C628 C629 1.400 . S
C629 C623 1.491 . S
C629 C628 1.400 . S
C629 C630 1.398 . S
C630 H618 0.950 . S
C630 C629 1.398 . S
C630 C631 1.391 . S
C631 H619 0.950 . S
C631 C627 1.393 . S
C631 C630 1.391 . S
H632 C640 0.950 . S
H633 C645 0.950 . S
H634 C642 0.950 . S
H635 C644 0.950 . S
H636 C646 0.950 . S
H637 C648 0.950 . S
H638 C650 0.950 . S
H639 C651 0.950 . S
C640 H632 0.950 . S
C640 C641 1.386 . S
C640 C642 1.391 . S
C641 C640 1.386 . S
C641 C645 1.393 . S
C642 H634 0.950 . S
C642 C640 1.391 . S
C642 C643 1.400 . S
C643 C642 1.400 . S
C643 C644 1.398 . S
C643 C649 1.491 . S
C644 H635 0.950 . S
C644 C643 1.398 . S
C644 C645 1.391 . S
C645 H633 0.950 . S
C645 C641 1.393 . S
C645 C644 1.391 . S
C646 H636 0.950 . S
C646 C647 1.386 . S
C646 C648 1.391 . S
C647 C646 1.386 . S
C647 C651 1.393 . S
C648 H637 0.950 . S
C648 C646 1.391 . S
C648 C649 1.400 . S
C649 C643 1.491 . S
C649 C648 1.400 . S
C649 C650 1.398 . S
C650 H638 0.950 . S
C650 C649 1.398 . S
C650 C651 1.391 . S
C651 H639 0.950 . S
C651 C647 1.393 . S
C651 C650 1.391 . S
H652 C660 0.950 1_554 S
H653 C665 0.950 . S
H654 C662 0.950 . S
H655 C664 0.950 . S
H656 C666 0.950 1_556 S
H657 C668 0.950 . S
H658 C670 0.950 . S
H659 C671 0.950 . S
C660 H652 0.950 1_556 S
C660 C661 1.386 . S
C660 C662 1.391 1_556 S
C661 C660 1.386 . S
C661 C665 1.393 . S
C662 H654 0.950 . S
C662 C660 1.391 1_554 S
C662 C663 1.400 1_554 S
C663 C662 1.400 1_556 S
C663 C664 1.398 . S
C663 C669 1.491 1_556 S
C664 H655 0.950 . S
C664 C663 1.398 . S
C664 C665 1.391 . S
C665 H653 0.950 . S
C665 C661 1.393 . S
C665 C664 1.391 . S
C666 H656 0.950 1_554 S
C666 C667 1.386 . S
C666 C668 1.391 1_554 S
C667 C666 1.386 . S
C667 C671 1.393 . S
C668 H657 0.950 . S
C668 C666 1.391 1_556 S
C668 C669 1.400 1_556 S
C669 C663 1.491 1_554 S
C669 C668 1.400 1_554 S
C669 C670 1.398 . S
C670 H658 0.950 . S
C670 C669 1.398 . S
C670 C671 1.391 . S
C671 H659 0.950 . S
C671 C667 1.393 . S
C671 C670 1.391 . S
C281 C20 1.302 . S
C287 C36 1.299 . S
C301 C70 1.301 . S
C307 C54 1.296 . S
C321 C104 1.301 . S
C327 C88 1.298 . S
C341 C122 1.299 1_554 S
C347 C2 1.300 . S
C361 C156 1.299 . S
C367 C240 1.300 . S
C381 C190 1.301 . S
C387 C138 1.299 . S
C401 C224 1.300 1_556 S
C407 C172 1.301 . S
C421 C258 1.296 . S
C427 C206 1.302 . S
C441 C213 1.353 1_545 S
C447 C33 1.396 . S
C461 C247 1.344 . S
C467 C67 1.390 . S
C481 C145 1.363 1_565 S
C487 C101 1.388 . S
C501 C179 1.356 . S
C507 C135 1.396 . S
C521 C169 1.396 . S
C527 C77 1.353 . S
C541 C203 1.396 . S
C547 C111 1.347 1_455 S
C561 C237 1.392 . S
C567 C9 1.341 . S
C581 C271 1.395 . S
C587 C43 1.343 1_655 S
C601 C243 1.685 . S
C607 C5 1.678 . S
C621 C141 1.678 . S
C627 C39 1.686 . S
C641 C73 1.676 . S
C647 C175 1.685 . S
C661 C107 1.677 . S
C667 C209 1.686 . S
