# Generated by pormake.
# Topology ecc, (8)-cn, num edge types: 1
# Building blocks:
#     Node 0, Type 0, BuildingBlock: EBIMEJ_clean_sbu_0, # of connection points: 8
#     Node 1, Type 0, BuildingBlock: EBIMEJ_clean_sbu_0, # of connection points: 8
#     Node 2, Type 0, BuildingBlock: EBIMEJ_clean_sbu_0, # of connection points: 8
#     Node 3, Type 0, BuildingBlock: EBIMEJ_clean_sbu_0, # of connection points: 8
#     Node 4, Type 0, BuildingBlock: EBIMEJ_clean_sbu_0, # of connection points: 8
#     Node 5, Type 0, BuildingBlock: EBIMEJ_clean_sbu_0, # of connection points: 8
#     Node 6, Type 0, BuildingBlock: EBIMEJ_clean_sbu_0, # of connection points: 8
#     Node 7, Type 0, BuildingBlock: EBIMEJ_clean_sbu_0, # of connection points: 8
#     Node 8, Type 0, BuildingBlock: EBIMEJ_clean_sbu_0, # of connection points: 8
#     Node 9, Type 0, BuildingBlock: EBIMEJ_clean_sbu_0, # of connection points: 8
#     Node 10, Type 0, BuildingBlock: EBIMEJ_clean_sbu_0, # of connection points: 8
#     Node 11, Type 0, BuildingBlock: EBIMEJ_clean_sbu_0, # of connection points: 8
#     Node 12, Type 0, BuildingBlock: EBIMEJ_clean_sbu_0, # of connection points: 8
#     Node 13, Type 0, BuildingBlock: EBIMEJ_clean_sbu_0, # of connection points: 8
#     Node 14, Type 0, BuildingBlock: EBIMEJ_clean_sbu_0, # of connection points: 8
#     Node 15, Type 0, BuildingBlock: EBIMEJ_clean_sbu_0, # of connection points: 8
#     Node 16, Type 0, BuildingBlock: EBIMEJ_clean_sbu_0, # of connection points: 8
#     Node 17, Type 0, BuildingBlock: EBIMEJ_clean_sbu_0, # of connection points: 8
#     Edge 18, Type (0, 0), BuildingBlock: MIFKUJ_clean_linker_0, # of connection points: 2
#     Edge 19, Type (0, 0), BuildingBlock: MIFKUJ_clean_linker_0, # of connection points: 2
#     Edge 20, Type (0, 0), BuildingBlock: MIFKUJ_clean_linker_0, # of connection points: 2
#     Edge 21, Type (0, 0), BuildingBlock: MIFKUJ_clean_linker_0, # of connection points: 2
#     Edge 22, Type (0, 0), BuildingBlock: MIFKUJ_clean_linker_0, # of connection points: 2
#     Edge 23, Type (0, 0), BuildingBlock: MIFKUJ_clean_linker_0, # of connection points: 2
#     Edge 24, Type (0, 0), BuildingBlock: MIFKUJ_clean_linker_0, # of connection points: 2
#     Edge 25, Type (0, 0), BuildingBlock: MIFKUJ_clean_linker_0, # of connection points: 2
#     Edge 26, Type (0, 0), BuildingBlock: MIFKUJ_clean_linker_0, # of connection points: 2
#     Edge 27, Type (0, 0), BuildingBlock: MIFKUJ_clean_linker_0, # of connection points: 2
#     Edge 28, Type (0, 0), BuildingBlock: MIFKUJ_clean_linker_0, # of connection points: 2
#     Edge 29, Type (0, 0), BuildingBlock: MIFKUJ_clean_linker_0, # of connection points: 2
#     Edge 30, Type (0, 0), BuildingBlock: MIFKUJ_clean_linker_0, # of connection points: 2
#     Edge 31, Type (0, 0), BuildingBlock: MIFKUJ_clean_linker_0, # of connection points: 2
#     Edge 32, Type (0, 0), BuildingBlock: MIFKUJ_clean_linker_0, # of connection points: 2
#     Edge 33, Type (0, 0), BuildingBlock: MIFKUJ_clean_linker_0, # of connection points: 2
#     Edge 34, Type (0, 0), BuildingBlock: MIFKUJ_clean_linker_0, # of connection points: 2
#     Edge 35, Type (0, 0), BuildingBlock: MIFKUJ_clean_linker_0, # of connection points: 2
#     Edge 36, Type (0, 0), BuildingBlock: MIFKUJ_clean_linker_0, # of connection points: 2
#     Edge 37, Type (0, 0), BuildingBlock: MIFKUJ_clean_linker_0, # of connection points: 2
#     Edge 38, Type (0, 0), BuildingBlock: MIFKUJ_clean_linker_0, # of connection points: 2
#     Edge 39, Type (0, 0), BuildingBlock: MIFKUJ_clean_linker_0, # of connection points: 2
#     Edge 40, Type (0, 0), BuildingBlock: MIFKUJ_clean_linker_0, # of connection points: 2
#     Edge 41, Type (0, 0), BuildingBlock: MIFKUJ_clean_linker_0, # of connection points: 2
#     Edge 42, Type (0, 0), BuildingBlock: MIFKUJ_clean_linker_0, # of connection points: 2
#     Edge 43, Type (0, 0), BuildingBlock: MIFKUJ_clean_linker_0, # of connection points: 2
#     Edge 44, Type (0, 0), BuildingBlock: MIFKUJ_clean_linker_0, # of connection points: 2
#     Edge 45, Type (0, 0), BuildingBlock: MIFKUJ_clean_linker_0, # of connection points: 2
#     Edge 46, Type (0, 0), BuildingBlock: MIFKUJ_clean_linker_0, # of connection points: 2
#     Edge 47, Type (0, 0), BuildingBlock: MIFKUJ_clean_linker_0, # of connection points: 2
#     Edge 48, Type (0, 0), BuildingBlock: MIFKUJ_clean_linker_0, # of connection points: 2
#     Edge 49, Type (0, 0), BuildingBlock: MIFKUJ_clean_linker_0, # of connection points: 2
#     Edge 50, Type (0, 0), BuildingBlock: MIFKUJ_clean_linker_0, # of connection points: 2
#     Edge 51, Type (0, 0), BuildingBlock: MIFKUJ_clean_linker_0, # of connection points: 2
#     Edge 52, Type (0, 0), BuildingBlock: MIFKUJ_clean_linker_0, # of connection points: 2
#     Edge 53, Type (0, 0), BuildingBlock: MIFKUJ_clean_linker_0, # of connection points: 2
#     Edge 54, Type (0, 0), BuildingBlock: MIFKUJ_clean_linker_0, # of connection points: 2
#     Edge 55, Type (0, 0), BuildingBlock: MIFKUJ_clean_linker_0, # of connection points: 2
#     Edge 56, Type (0, 0), BuildingBlock: MIFKUJ_clean_linker_0, # of connection points: 2
#     Edge 57, Type (0, 0), BuildingBlock: MIFKUJ_clean_linker_0, # of connection points: 2
#     Edge 58, Type (0, 0), BuildingBlock: MIFKUJ_clean_linker_0, # of connection points: 2
#     Edge 59, Type (0, 0), BuildingBlock: MIFKUJ_clean_linker_0, # of connection points: 2
#     Edge 60, Type (0, 0), BuildingBlock: MIFKUJ_clean_linker_0, # of connection points: 2
#     Edge 61, Type (0, 0), BuildingBlock: MIFKUJ_clean_linker_0, # of connection points: 2
#     Edge 62, Type (0, 0), BuildingBlock: MIFKUJ_clean_linker_0, # of connection points: 2
#     Edge 63, Type (0, 0), BuildingBlock: MIFKUJ_clean_linker_0, # of connection points: 2
#     Edge 64, Type (0, 0), BuildingBlock: MIFKUJ_clean_linker_0, # of connection points: 2
#     Edge 65, Type (0, 0), BuildingBlock: MIFKUJ_clean_linker_0, # of connection points: 2
#     Edge 66, Type (0, 0), BuildingBlock: MIFKUJ_clean_linker_0, # of connection points: 2
#     Edge 67, Type (0, 0), BuildingBlock: MIFKUJ_clean_linker_0, # of connection points: 2
#     Edge 68, Type (0, 0), BuildingBlock: MIFKUJ_clean_linker_0, # of connection points: 2
#     Edge 69, Type (0, 0), BuildingBlock: MIFKUJ_clean_linker_0, # of connection points: 2
#     Edge 70, Type (0, 0), BuildingBlock: MIFKUJ_clean_linker_0, # of connection points: 2
#     Edge 71, Type (0, 0), BuildingBlock: MIFKUJ_clean_linker_0, # of connection points: 2
#     Edge 72, Type (0, 0), BuildingBlock: MIFKUJ_clean_linker_0, # of connection points: 2
#     Edge 73, Type (0, 0), BuildingBlock: MIFKUJ_clean_linker_0, # of connection points: 2
#     Edge 74, Type (0, 0), BuildingBlock: MIFKUJ_clean_linker_0, # of connection points: 2
#     Edge 75, Type (0, 0), BuildingBlock: MIFKUJ_clean_linker_0, # of connection points: 2
#     Edge 76, Type (0, 0), BuildingBlock: MIFKUJ_clean_linker_0, # of connection points: 2
#     Edge 77, Type (0, 0), BuildingBlock: MIFKUJ_clean_linker_0, # of connection points: 2
#     Edge 78, Type (0, 0), BuildingBlock: MIFKUJ_clean_linker_0, # of connection points: 2
#     Edge 79, Type (0, 0), BuildingBlock: MIFKUJ_clean_linker_0, # of connection points: 2
#     Edge 80, Type (0, 0), BuildingBlock: MIFKUJ_clean_linker_0, # of connection points: 2
#     Edge 81, Type (0, 0), BuildingBlock: MIFKUJ_clean_linker_0, # of connection points: 2
#     Edge 82, Type (0, 0), BuildingBlock: MIFKUJ_clean_linker_0, # of connection points: 2
#     Edge 83, Type (0, 0), BuildingBlock: MIFKUJ_clean_linker_0, # of connection points: 2
#     Edge 84, Type (0, 0), BuildingBlock: MIFKUJ_clean_linker_0, # of connection points: 2
#     Edge 85, Type (0, 0), BuildingBlock: MIFKUJ_clean_linker_0, # of connection points: 2
#     Edge 86, Type (0, 0), BuildingBlock: MIFKUJ_clean_linker_0, # of connection points: 2
#     Edge 87, Type (0, 0), BuildingBlock: MIFKUJ_clean_linker_0, # of connection points: 2
#     Edge 88, Type (0, 0), BuildingBlock: MIFKUJ_clean_linker_0, # of connection points: 2
#     Edge 89, Type (0, 0), BuildingBlock: MIFKUJ_clean_linker_0, # of connection points: 2
# Relax obj value: 0.324
# Max RMSD: 0.288
# Mean RMSD: 0.288
data_MOF--net-ecc--node1-EBIMEJ_clean_sbu_0--edge1-MIFKUJ_clean_linker_0
_symmetry_space_group_name_H-M    P1
_symmetry_Int_Tables_number       1
_symmetry_cell_setting            triclinic
loop_
_symmetry_equiv_pos_as_xyz
'x, y, z'
_cell_length_a     74.719923
_cell_length_b     74.640887
_cell_length_c     33.449098
_cell_angle_alpha  90.009798
_cell_angle_beta   90.024026
_cell_angle_gamma 120.05887
loop_
_atom_site_label
_atom_site_type_symbol
_atom_site_fract_x
_atom_site_fract_y
_atom_site_fract_z
_atom_type_partial_charge
Co0 Co 0.14987 0.01036 0.72013 0.0
Co1 Co 0.18079 0.02661 0.79635 0.0
Co2 Co 0.18973 0.00555 0.7297 0.0
H3 H 0.16949 0.00698 0.73592 0.0
O4 O 0.16498 1.00347 0.75993 0.0
H5 H 0.2011 0.02467 0.79321 0.0
O6 O 0.20596 0.02772 0.76925 0.0
Co7 Co 0.22054 0.02218 0.81451 0.0
O8 O 0.21916 0.04115 0.85913 0.0
O9 O 0.197 0.04973 0.83287 0.0
O10 O 0.23093 0.00893 0.77105 0.0
O11 O 0.21477 0.00547 0.7118 0.0
O12 O 0.12348 0.01225 0.71411 0.0
O13 O 0.12144 0.98371 0.72264 0.0
O14 O 0.19889 0.99817 0.84736 0.0
O15 O 0.17355 0.0054 0.83967 0.0
C16 C 0.15826 0.98283 0.66595 0.0
C17 C 0.14495 0.03189 0.79142 0.0
C18 C 0.25523 0.03639 0.84847 0.0
C19 C 0.18744 0.03858 0.67624 0.0
C20 C 0.2099 0.05175 0.85974 0.0
C21 C 0.22855 1.00462 0.73317 0.0
C22 C 0.11158 0.9931 0.71778 0.0
C23 C 0.18085 0.99488 0.85569 0.0
O24 O 0.15011 0.99409 0.67192 0.0
O25 O 0.17242 0.98347 0.68885 0.0
O26 O 0.15594 0.02755 0.81399 0.0
O27 O 0.14463 0.03001 0.75349 0.0
O28 O 0.23992 0.01871 0.85463 0.0
O29 O 0.25095 0.04582 0.82243 0.0
O30 O 0.16984 0.03481 0.68837 0.0
O31 O 0.19587 0.02811 0.68797 0.0
Co32 Co 0.02752 0.16553 0.72099 0.0
Co33 Co 1.00642 0.17782 0.79294 0.0
Co34 Co 0.02844 0.20877 0.72771 0.0
H35 H 0.0283 0.18774 0.73508 0.0
O36 O 0.03096 0.1867 0.75967 0.0
H37 H 0.00859 0.20023 0.7904 0.0
O38 O 1.00581 0.20229 0.76637 0.0
Co39 Co 0.01121 0.22221 0.81162 0.0
O40 O 0.99165 0.20123 0.85438 0.0
O41 O 0.98224 0.17027 0.8274 0.0
O42 O 0.02403 0.24584 0.76823 0.0
O43 O 0.02783 0.23344 0.70889 0.0
O44 O 0.02909 0.13926 0.70986 0.0
O45 O 0.05284 0.16402 0.74046 0.0
O46 O 0.03472 0.22389 0.84467 0.0
O47 O 0.02644 0.19081 0.83868 0.0
C48 C 0.05631 0.20236 0.67061 0.0
C49 C 1.00068 0.1365 0.78361 0.0
C50 C 0.99851 0.24335 0.84791 0.0
C51 C 0.99811 0.17245 0.67334 0.0
C52 C 0.98026 0.18141 0.85387 0.0
C53 C 0.02859 0.24797 0.7305 0.0
C54 C 0.04626 0.14608 0.72695 0.0
C55 C 0.03725 0.20878 0.85405 0.0
O56 O 0.04818 0.18326 0.67935 0.0
O57 O 0.05108 0.21453 0.68753 0.0
O58 O 1.00468 0.1511 0.80828 0.0
O59 O 1.00444 0.13972 0.74636 0.0
O60 O 0.01218 0.23971 0.86074 0.0
O61 O 0.99229 0.23529 0.814 0.0
O62 O 1.00425 0.1603 0.68523 0.0
O63 O 1.00618 0.19118 0.68626 0.0
Co64 Co 0.86628 0.88232 0.71859 0.0
Co65 Co 0.85425 0.85134 0.79261 0.0
Co66 Co 0.82218 0.84204 0.7298 0.0
H67 H 0.8437 0.86244 0.73506 0.0
O68 O 0.84533 0.86688 0.75924 0.0
H69 H 0.8318 0.83134 0.79202 0.0
O70 O 0.82901 0.82608 0.7683 0.0
Co71 Co 0.81029 0.81252 0.81519 0.0
O72 O 0.83198 0.81453 0.85736 0.0
O73 O 0.86218 0.8351 0.82719 0.0
O74 O 0.78569 0.80142 0.77397 0.0
O75 O 0.7966 0.81683 0.71337 0.0
O76 O 0.89258 0.9103 0.70875 0.0
O77 O 0.86941 0.90847 0.74587 0.0
O78 O 0.80897 0.83584 0.84361 0.0
O79 O 0.84254 0.8591 0.83931 0.0
C80 C 0.82974 0.87358 0.66668 0.0
C81 C 0.89551 0.8836 0.77781 0.0
C82 C 0.79015 0.77843 0.85089 0.0
C83 C 0.85678 0.84474 0.67418 0.0
C84 C 0.8518 0.82296 0.85558 0.0
C85 C 0.78276 0.80326 0.73638 0.0
C86 C 0.88699 0.92007 0.73119 0.0
C87 C 0.82457 0.85307 0.8537 0.0
O88 O 0.84926 0.88241 0.6718 0.0
O89 O 0.81669 0.85907 0.68961 0.0
O90 O 0.88149 0.87634 0.80462 0.0
O91 O 0.8911 0.88175 0.74075 0.0
O92 O 0.79433 0.79566 0.8652 0.0
O93 O 0.79717 0.78051 0.81599 0.0
O94 O 0.8703 0.86282 0.68487 0.0
O95 O 0.83808 0.83569 0.6873 0.0
Co96 Co 0.8067 0.01618 0.20193 0.0
Co97 Co 0.83504 0.03259 0.28934 0.0
Co98 Co 0.84699 0.01311 0.22413 0.0
H99 H 0.82615 0.01426 0.22473 0.0
O100 O 0.82063 0.01078 0.24816 0.0
H101 H 0.85613 0.0328 0.28435 0.0
O102 O 0.86093 0.03656 0.26061 0.0
Co103 Co 0.87644 0.0308 0.30071 0.0
O104 O 0.87473 0.04607 0.34879 0.0
O105 O 0.85061 0.05435 0.33203 0.0
O106 O 0.87911 0.00784 0.27499 0.0
O107 O 0.87284 0.01265 0.21188 0.0
O108 O 0.78834 1.00102 0.15301 0.0
O109 O 0.7763 0.01046 0.19852 0.0
O110 O 0.85701 0.00573 0.33114 0.0
O111 O 0.82917 0.00955 0.32958 0.0
C112 C 0.81937 0.98721 0.15958 0.0
C113 C 0.79646 0.03276 0.28166 0.0
C114 C 0.91461 0.05041 0.29369 0.0
C115 C 0.84695 0.04374 0.16234 0.0
C116 C 0.86513 0.0559 0.3551 0.0
C117 C 0.88083 0.00608 0.23756 0.0
C118 C 0.77271 1.00147 0.16518 0.0
C119 C 0.83866 1.00017 0.34163 0.0
O120 O 0.80911 0.99681 0.15993 0.0
O121 O 0.83263 0.99002 0.18632 0.0
O122 O 0.80879 0.03071 0.30528 0.0
O123 O 0.79611 0.03008 0.24333 0.0
O124 O 0.90473 0.03333 0.31131 0.0
O125 O 0.90283 0.05652 0.28055 0.0
O126 O 0.82845 0.03965 0.1685 0.0
O127 O 0.85479 0.03422 0.18036 0.0
Co128 Co 0.01622 0.81412 0.20495 0.0
Co129 Co 0.99951 0.8281 0.28782 0.0
Co130 Co 0.02323 0.85903 0.22376 0.0
H131 H 0.01998 0.83635 0.22642 0.0
O132 O 0.02235 0.83391 0.25046 0.0
H133 H 1.00052 0.84946 0.28026 0.0
O134 O 0.99829 0.85085 0.25554 0.0
Co135 Co 1.00222 0.87193 0.29506 0.0
O136 O 0.98453 0.85561 0.34188 0.0
O137 O 0.97675 0.82313 0.32691 0.0
O138 O 0.02549 0.89759 0.26959 0.0
O139 O 0.02627 0.88617 0.2081 0.0
O140 O 0.01966 0.80123 0.15258 0.0
O141 O 0.03214 0.79782 0.20517 0.0
O142 O 0.02632 0.87702 0.32804 0.0
O143 O 0.02174 0.84505 0.33004 0.0
C144 C 0.04858 0.85463 0.16338 0.0
C145 C 0.99829 0.78824 0.28558 0.0
C146 C 0.98385 0.89166 0.28823 0.0
C147 C 0.99059 0.82857 0.16619 0.0
C148 C 0.97441 0.83617 0.3481 0.0
C149 C 0.03024 0.90076 0.23268 0.0
C150 C 0.02989 0.79391 0.16834 0.0
C151 C 0.03128 0.86416 0.34108 0.0
O152 O 0.03584 0.83502 0.1616 0.0
O153 O 0.04781 0.86581 0.19131 0.0
O154 O 0.99886 0.8028 0.30687 0.0
O155 O 1.0032 0.79033 0.24801 0.0
O156 O 1.00231 0.89938 0.29924 0.0
O157 O 0.97565 0.87258 0.28152 0.0
O158 O 0.99052 0.81277 0.18081 0.0
O159 O 1.00451 0.8469 0.17577 0.0
Co160 Co 0.2184 0.2267 0.20324 0.0
Co161 Co 0.205 0.19599 0.28582 0.0
Co162 Co 0.17352 0.18861 0.22273 0.0
H163 H 0.19625 0.20813 0.22485 0.0
O164 O 0.19883 0.21296 0.24889 0.0
H165 H 0.18363 0.17585 0.27866 0.0
O166 O 0.182 0.17202 0.25406 0.0
Co167 Co 0.16104 0.15553 0.2937 0.0
O168 O 0.17797 0.15205 0.33632 0.0
O169 O 0.21025 0.17806 0.32445 0.0
O170 O 0.13545 0.15422 0.27142 0.0
O171 O 0.14592 0.16424 0.20863 0.0
O172 O 0.2443 0.24826 0.1713 0.0
O173 O 0.22122 0.25466 0.18577 0.0
O174 O 0.15579 0.17526 0.32436 0.0
O175 O 0.18855 0.20111 0.32873 0.0
C176 C 0.17767 0.21811 0.16199 0.0
C177 C 0.24457 0.23487 0.28342 0.0
C178 C 0.14295 0.11773 0.28341 0.0
C179 C 0.20373 0.18635 0.16476 0.0
C180 C 0.19736 0.16142 0.343 0.0
C181 C 0.13163 0.15433 0.23438 0.0
C182 C 0.23828 0.2612 0.16842 0.0
C183 C 0.16936 0.19256 0.33843 0.0
O184 O 0.19729 0.22511 0.16012 0.0
O185 O 0.16661 0.20626 0.19016 0.0
O186 O 0.23012 0.22077 0.30465 0.0
O187 O 0.24247 0.23739 0.24569 0.0
O188 O 0.13847 0.1264 0.31065 0.0
O189 O 0.15784 0.13052 0.26248 0.0
O190 O 0.21952 0.20232 0.17884 0.0
O191 O 0.18539 0.18175 0.17473 0.0
Co192 Co 0.81668 0.3396 0.05375 0.0
Co193 Co 0.84983 0.36043 0.12648 0.0
Co194 Co 0.85777 0.33707 0.0629 0.0
H195 H 0.83733 0.33799 0.06959 0.0
O196 O 0.83345 0.33561 0.09416 0.0
H197 H 0.86953 0.35761 0.12435 0.0
O198 O 0.87444 0.36004 0.10041 0.0
Co199 Co 0.88815 0.35427 0.14636 0.0
O200 O 0.88658 0.37406 0.18934 0.0
O201 O 0.86708 0.38497 0.15918 0.0
O202 O 0.89899 0.3409 0.104 0.0
O203 O 0.88268 0.33681 0.04473 0.0
O204 O 0.78916 0.33894 0.04511 0.0
O205 O 0.78967 0.31405 0.07202 0.0
O206 O 0.86377 0.32799 0.1686 0.0
O207 O 0.84333 0.34157 0.17416 0.0
C208 C 0.82549 0.31249 1.00071 0.0
C209 C 0.81451 0.36644 0.11747 0.0
C210 C 0.92166 0.36841 0.18464 0.0
C211 C 0.85262 0.36581 1.00276 0.0
C212 C 0.87903 0.38624 0.18747 0.0
C213 C 0.89653 0.33617 0.06628 0.0
C214 C 0.77859 0.3213 0.06033 0.0
C215 C 0.84785 0.32767 0.18311 0.0
O216 O 0.81643 0.32287 1.00635 0.0
O217 O 0.84027 0.31425 0.02318 0.0
O218 O 0.82543 0.36287 0.14197 0.0
O219 O 0.81337 0.36211 0.08038 0.0
O220 O 0.90419 0.36211 0.20008 0.0
O221 O 0.92013 0.36649 0.14724 0.0
O222 O 0.83396 0.3596 0.0119 0.0
O223 O 0.86344 0.35914 0.02044 0.0
Co224 Co 0.6939 0.49975 0.05624 0.0
Co225 Co 0.67326 0.5124 0.12835 0.0
Co226 Co 0.69627 0.54335 0.06365 0.0
H227 H 0.69552 0.52216 0.07101 0.0
O228 O 0.69796 0.52081 0.0956 0.0
H229 H 0.67632 0.53507 0.1259 0.0
O230 O 0.67367 0.53736 0.10195 0.0
Co231 Co 0.6801 0.55734 0.14733 0.0
O232 O 0.66134 0.53668 0.19158 0.0
O233 O 0.64911 0.50561 0.16262 0.0
O234 O 0.69318 0.58108 0.10414 0.0
O235 O 0.6961 0.56818 0.04474 0.0
O236 O 0.69698 0.47445 0.04426 0.0
O237 O 0.71916 0.49894 0.07813 0.0
O238 O 0.70537 0.55871 0.17335 0.0
O239 O 0.69275 0.52466 0.17503 0.0
C240 C 0.72284 0.5359 1.00494 0.0
C241 C 0.66702 0.47082 0.11846 0.0
C242 C 0.66591 0.57756 0.18237 0.0
C243 C 0.66432 0.50701 0.01154 0.0
C244 C 0.64869 0.51704 0.19049 0.0
C245 C 0.69717 0.58291 0.06615 0.0
C246 C 0.71359 0.48143 0.06346 0.0
C247 C 0.70605 0.54296 0.18613 0.0
O248 O 0.71364 0.5166 0.01253 0.0
O249 O 0.71891 0.54861 0.02363 0.0
O250 O 0.67063 0.48527 0.14326 0.0
O251 O 0.67088 0.47406 0.08128 0.0
O252 O 0.68296 0.57883 0.19032 0.0
O253 O 0.65712 0.56509 0.15409 0.0
O254 O 0.66892 0.49395 0.02499 0.0
O255 O 0.67418 0.52619 0.02184 0.0
Co256 Co 0.53264 0.21804 0.05028 0.0
Co257 Co 0.52141 0.18721 0.12544 0.0
Co258 Co 0.48985 0.17668 0.06093 0.0
H259 H 0.51071 0.19749 0.06675 0.0
O260 O 0.51207 0.20195 0.09086 0.0
H261 H 0.49917 0.16661 0.1244 0.0
O262 O 0.49692 0.16139 0.10066 0.0
Co263 Co 0.47764 0.14712 0.14685 0.0
O264 O 0.49934 0.14954 0.18957 0.0
O265 O 0.52969 0.17185 0.16152 0.0
O266 O 0.45309 0.13643 0.10487 0.0
O267 O 0.46513 0.15106 0.04415 0.0
O268 O 0.55464 0.24717 0.03281 0.0
O269 O 0.5342 0.24308 0.07894 0.0
O270 O 0.4762 0.16917 0.18025 0.0
O271 O 0.5086 0.19477 0.17057 0.0
C272 C 0.49682 0.20733 0.99602 0.0
C273 C 0.56245 0.22304 0.11337 0.0
C274 C 0.45769 0.11249 0.18116 0.0
C275 C 0.52577 0.18096 1.00696 0.0
C276 C 0.51926 0.1592 0.18918 0.0
C277 C 0.4506 0.13817 0.06691 0.0
C278 C 0.54921 0.25588 0.05826 0.0
C279 C 0.49104 0.18736 0.18777 0.0
O280 O 0.5163 0.21638 1.00127 0.0
O281 O 0.48391 0.19311 0.01969 0.0
O282 O 0.5481 0.21274 0.1387 0.0
O283 O 0.559 0.2228 0.07606 0.0
O284 O 0.45191 0.12565 0.17913 0.0
O285 O 0.47452 0.11883 0.16299 0.0
O286 O 0.53841 0.19924 0.01821 0.0
O287 O 0.5069 0.17111 0.01938 0.0
Co288 Co 0.47351 0.35183 0.53659 0.0
Co289 Co 0.50305 0.36791 0.62164 0.0
Co290 Co 0.51215 0.34604 0.55681 0.0
H291 H 0.49221 0.34855 0.55846 0.0
O292 O 0.48704 0.34565 0.58222 0.0
H293 H 0.52375 0.36786 0.61428 0.0
O294 O 0.52767 0.37065 0.58982 0.0
Co295 Co 0.54472 0.36667 0.62864 0.0
O296 O 0.54694 0.38523 0.67396 0.0
O297 O 0.51997 0.39014 0.66289 0.0
O298 O 0.5449 0.34161 0.60725 0.0
O299 O 0.53712 0.34393 0.54376 0.0
O300 O 0.45701 0.34952 0.48514 0.0
O301 O 0.44132 0.33487 0.5368 0.0
O302 O 0.52701 0.34325 0.66443 0.0
O303 O 0.49805 0.34515 0.66208 0.0
C304 C 0.48324 0.32057 0.49466 0.0
C305 C 0.46475 0.36887 0.61792 0.0
C306 C 0.58152 0.38734 0.61008 0.0
C307 C 0.51375 0.3779 0.49675 0.0
C308 C 0.53653 0.39402 0.68192 0.0
C309 C 0.54568 0.33834 0.57016 0.0
C310 C 0.43955 0.3382 0.50055 0.0
C311 C 0.50853 0.33695 0.67516 0.0
O312 O 0.47551 0.33258 0.49339 0.0
O313 O 0.49557 0.32183 0.52224 0.0
O314 O 0.47771 0.36699 0.64003 0.0
O315 O 0.46307 0.36524 0.57974 0.0
O316 O 0.57435 0.37199 0.63307 0.0
O317 O 0.56785 0.39118 0.59822 0.0
O318 O 0.49651 0.37618 0.50688 0.0
O319 O 0.51979 0.36587 0.51063 0.0
Co320 Co 0.6844 0.14861 0.53584 0.0
Co321 Co 0.66657 0.16343 0.6174 0.0
Co322 Co 0.69332 0.19417 0.55497 0.0
H323 H 0.68841 0.17091 0.55737 0.0
O324 O 0.68973 0.16798 0.58173 0.0
H325 H 0.6684 0.18515 0.60958 0.0
O326 O 0.66769 0.18712 0.58447 0.0
Co327 Co 0.66842 0.20698 0.62436 0.0
O328 O 0.65581 0.19239 0.67616 0.0
O329 O 0.64361 0.15972 0.65563 0.0
O330 O 0.67059 0.21682 0.56692 0.0
O331 O 0.69954 0.22255 0.54065 0.0
O332 O 0.68154 0.12039 0.51772 0.0
O333 O 0.70851 0.14781 0.5071 0.0
O334 O 0.69288 0.21208 0.65734 0.0
O335 O 0.68849 0.18007 0.65966 0.0
C336 C 0.71731 0.18881 0.49409 0.0
C337 C 0.66431 0.12301 0.61661 0.0
C338 C 0.65272 0.22934 0.62542 0.0
C339 C 0.66065 0.16524 0.49547 0.0
C340 C 0.64382 0.17299 0.68054 0.0
C341 C 0.6877 0.22931 0.5506 0.0
C342 C 0.69935 0.12859 0.5027 0.0
C343 C 0.69799 0.19923 0.6702 0.0
O344 O 0.70392 0.16933 0.49178 0.0
O345 O 0.71781 0.19946 0.52414 0.0
O346 O 0.6646 0.13766 0.63725 0.0
O347 O 0.66995 0.1251 0.57937 0.0
O348 O 0.66288 0.22817 0.65426 0.0
O349 O 0.65128 0.2177 0.59718 0.0
O350 O 0.66013 0.14901 0.50906 0.0
O351 O 0.67478 0.18334 0.50626 0.0
Co352 Co 0.88541 0.55757 0.53693 0.0
Co353 Co 0.87115 0.52592 0.61965 0.0
Co354 Co 0.84015 0.5204 0.55677 0.0
H355 H 0.86324 0.53921 0.55879 0.0
O356 O 0.8661 0.54383 0.58297 0.0
H357 H 0.84918 0.5063 0.61235 0.0
O358 O 0.84741 0.50263 0.58765 0.0
Co359 Co 0.82603 0.48653 0.6272 0.0
O360 O 0.84239 0.48257 0.6701 0.0
O361 O 0.87525 0.50714 0.65834 0.0
O362 O 0.80347 0.49164 0.60826 0.0
O363 O 0.81171 0.49734 0.54398 0.0
O364 O 0.9098 0.57825 0.50062 0.0
O365 O 0.8898 0.58682 0.52481 0.0
O366 O 0.82228 0.50653 0.66049 0.0
O367 O 0.85539 0.5319 0.66298 0.0
C368 C 0.84521 0.55003 0.49552 0.0
C369 C 0.91144 0.56438 0.61725 0.0
C370 C 0.80452 0.4482 0.6208 0.0
C371 C 0.86941 0.51705 0.49818 0.0
C372 C 0.86167 0.49102 0.67738 0.0
C373 C 0.79824 0.49126 0.57192 0.0
C374 C 0.90533 0.59238 0.50283 0.0
C375 C 0.8364 0.52368 0.67411 0.0
O376 O 0.86469 0.55639 0.49323 0.0
O377 O 0.83433 0.53899 0.52469 0.0
O378 O 0.89704 0.55009 0.63838 0.0
O379 O 0.90921 0.56741 0.57982 0.0
O380 O 0.81033 0.45766 0.65349 0.0
O381 O 0.81121 0.46045 0.59174 0.0
O382 O 0.88548 0.53272 0.51225 0.0
O383 O 0.85118 0.5128 0.50822 0.0
Co384 Co 0.48326 0.67293 0.3852 0.0
Co385 Co 0.51576 0.69449 0.45718 0.0
Co386 Co 0.52455 0.67108 0.39491 0.0
H387 H 0.50396 0.67157 0.40113 0.0
O388 O 0.49998 0.66927 0.42564 0.0
H389 H 0.53567 0.69181 0.45649 0.0
O390 O 0.54073 0.69419 0.43263 0.0
Co391 Co 0.55453 0.6889 0.47897 0.0
O392 O 0.55228 0.70874 0.52085 0.0
O393 O 0.53246 0.71916 0.49009 0.0
O394 O 0.56538 0.67504 0.43755 0.0
O395 O 0.54974 0.67128 0.37755 0.0
O396 O 0.45488 0.67024 0.3759 0.0
O397 O 0.45735 0.64791 0.40871 0.0
O398 O 0.53025 0.66347 0.50433 0.0
O399 O 0.50874 0.67603 0.50567 0.0
C400 C 0.49052 0.64315 0.33715 0.0
C401 C 0.48236 0.70226 0.4413 0.0
C402 C 0.58904 0.70425 0.51434 0.0
C403 C 0.52022 0.70226 0.34013 0.0
C404 C 0.54424 0.72051 0.51886 0.0
C405 C 0.56318 0.67031 0.39981 0.0
C406 C 0.4454 0.65381 0.39565 0.0
C407 C 0.51391 0.66292 0.51722 0.0
O408 O 0.48005 0.65199 0.34412 0.0
O409 O 0.50751 0.64794 0.35539 0.0
O410 O 0.4909 0.69722 0.46888 0.0
O411 O 0.48414 0.69882 0.40466 0.0
O412 O 0.57924 0.68606 0.50101 0.0
O413 O 0.57939 0.71361 0.5071 0.0
O414 O 0.5022 0.69722 0.35205 0.0
O415 O 0.5298 0.69295 0.3522 0.0
Co416 Co 0.36328 0.83707 0.38814 0.0
Co417 Co 0.33901 0.84639 0.45853 0.0
Co418 Co 0.36205 0.87872 0.39599 0.0
H419 H 0.36267 0.85829 0.40325 0.0
O420 O 0.36466 0.85671 0.42799 0.0
H421 H 0.34124 0.8688 0.4577 0.0
O422 O 0.3388 0.87136 0.43376 0.0
Co423 Co 0.34376 0.89042 0.48001 0.0
O424 O 0.32357 0.86823 0.52111 0.0
O425 O 0.31418 0.83784 0.49139 0.0
O426 O 0.35708 0.91485 0.43794 0.0
O427 O 0.36098 0.90314 0.37778 0.0
O428 O 0.37555 0.81903 0.37114 0.0
O429 O 0.37812 0.82903 0.43005 0.0
O430 O 0.36877 0.89174 0.50756 0.0
O431 O 0.35714 0.8578 0.50736 0.0
C432 C 0.39175 0.87403 0.33959 0.0
C433 C 0.33228 0.80645 0.43968 0.0
C434 C 0.32992 0.91062 0.51616 0.0
C435 C 0.3357 0.84393 0.33499 0.0
C436 C 0.31239 0.84833 0.51961 0.0
C437 C 0.36172 0.91741 0.40019 0.0
C438 C 0.38196 0.81865 0.40563 0.0
C439 C 0.36966 0.87605 0.52006 0.0
O440 O 0.38438 0.85499 0.34778 0.0
O441 O 0.38546 0.88542 0.35645 0.0
O442 O 0.33669 0.81889 0.46916 0.0
O443 O 0.33564 0.81325 0.40405 0.0
O444 O 0.34308 0.90653 0.53014 0.0
O445 O 0.32483 0.90349 0.48134 0.0
O446 O 0.34393 0.83319 0.34415 0.0
O447 O 0.34042 0.86095 0.3533 0.0
Co448 Co 0.20047 0.54919 0.38941 0.0
Co449 Co 0.18727 0.51769 0.46228 0.0
Co450 Co 0.1561 0.50873 0.39775 0.0
H451 H 0.17757 0.5291 0.40414 0.0
O452 O 0.1788 0.53336 0.42837 0.0
H453 H 0.16486 0.49755 0.46034 0.0
O454 O 0.16256 0.49256 0.4364 0.0
Co455 Co 0.14315 0.47836 0.48246 0.0
O456 O 0.16425 0.48059 0.52623 0.0
O457 O 0.19471 0.50132 0.49723 0.0
O458 O 0.11897 0.46801 0.44018 0.0
O459 O 0.13108 0.48346 0.38006 0.0
O460 O 0.22363 0.57793 0.37203 0.0
O461 O 0.20541 0.5746 0.42173 0.0
O462 O 0.14166 0.50056 0.51488 0.0
O463 O 0.1746 0.52538 0.50758 0.0
C464 C 0.16371 0.54273 0.33964 0.0
C465 C 0.22904 0.55114 0.45143 0.0
C466 C 0.12336 0.44334 0.51537 0.0
C467 C 0.19136 0.51237 0.34279 0.0
C468 C 0.18408 0.48909 0.52523 0.0
C469 C 0.11671 0.46989 0.40224 0.0
C470 C 0.22016 0.58699 0.40006 0.0
C471 C 0.15677 0.51841 0.52342 0.0
O472 O 0.18306 0.55217 0.34699 0.0
O473 O 0.15068 0.52603 0.35788 0.0
O474 O 0.21425 0.54255 0.47656 0.0
O475 O 0.2258 0.55052 0.41396 0.0
O476 O 0.11587 0.45471 0.50726 0.0
O477 O 0.14184 0.45169 0.50409 0.0
O478 O 0.20498 0.53005 0.35527 0.0
O479 O 0.17252 0.50329 0.35509 0.0
Co480 Co 0.14058 0.68385 0.87041 0.0
Co481 Co 0.17069 0.69969 0.9547 0.0
Co482 Co 0.17842 0.67671 0.88965 0.0
H483 H 0.15896 0.67997 0.89208 0.0
O484 O 0.15395 0.67733 0.91596 0.0
H485 H 0.19083 0.69834 0.9477 0.0
O486 O 0.19489 0.70099 0.92327 0.0
Co487 Co 0.21103 0.69591 0.96314 0.0
O488 O 0.21175 0.7127 0.01066 0.0
O489 O 0.18837 0.72207 0.99538 0.0
O490 O 0.21372 0.67316 0.93615 0.0
O491 O 0.20268 0.67383 0.87429 0.0
O492 O 0.12427 0.67825 0.81733 0.0
O493 O 0.10841 0.67003 0.8709 0.0
O494 O 0.19367 0.67606 1.0051 0.0
O495 O 0.16448 0.67707 0.99638 0.0
C496 C 0.14896 0.65202 0.82765 0.0
C497 C 0.13224 0.70112 0.95157 0.0
C498 C 0.24897 0.71417 0.95549 0.0
C499 C 0.18082 0.70959 0.8311 0.0
C500 C 0.20314 0.72341 0.01744 0.0
C501 C 0.2131 0.66955 0.8988 0.0
C502 C 0.10676 0.67012 0.83347 0.0
C503 C 0.17504 0.67006 0.01401 0.0
O504 O 0.14197 0.66464 0.82645 0.0
O505 O 0.16097 0.65271 0.85533 0.0
O506 O 0.14591 0.70013 0.97308 0.0
O507 O 0.13005 0.69703 0.9136 0.0
O508 O 0.23871 0.69723 0.97344 0.0
O509 O 0.23766 0.72068 0.9416 0.0
O510 O 0.16428 0.7088 0.84324 0.0
O511 O 0.18602 0.69659 0.8433 0.0
Co512 Co 0.35036 0.48353 0.87034 0.0
Co513 Co 0.33206 0.49484 0.95391 0.0
Co514 Co 0.35631 0.52784 0.89318 0.0
H515 H 0.3535 0.50523 0.8935 0.0
O516 O 0.35561 0.50219 0.91726 0.0
H517 H 0.33334 0.51632 0.94915 0.0
O518 O 0.33122 0.51857 0.92488 0.0
Co519 Co 0.33538 0.53828 0.96725 0.0
O520 O 0.31647 0.52066 0.0114 0.0
O521 O 0.30867 0.48863 0.99242 0.0
O522 O 0.35991 0.56409 0.94578 0.0
O523 O 0.35904 0.55548 0.88165 0.0
O524 O 0.35135 0.46832 0.81917 0.0
O525 O 0.36881 0.47001 0.8685 0.0
O526 O 0.36014 0.54292 0.99799 0.0
O527 O 0.35332 0.51011 0.99809 0.0
C528 C 0.38217 0.52524 0.8309 0.0
C529 C 0.33149 0.45537 0.94778 0.0
C530 C 0.31458 0.55546 0.96027 0.0
C531 C 0.32406 0.49813 0.83472 0.0
C532 C 0.30599 0.50106 0.01496 0.0
C533 C 0.36328 0.56907 0.90897 0.0
C534 C 0.36404 0.46359 0.83318 0.0
C535 C 0.36382 0.52899 0.01 0.0
O536 O 0.37025 0.50546 0.82863 0.0
O537 O 0.38087 0.53568 0.85979 0.0
O538 O 0.33126 0.46915 0.97015 0.0
O539 O 0.33711 0.45846 0.91062 0.0
O540 O 0.33104 0.56271 0.98007 0.0
O541 O 0.3097 0.53823 0.94508 0.0
O542 O 0.32445 0.48233 0.84804 0.0
O543 O 0.33771 0.51648 0.8449 0.0
Co544 Co 0.55144 0.89268 0.86772 0.0
Co545 Co 0.53906 0.864 0.95367 0.0
Co546 Co 0.50729 0.85435 0.89026 0.0
H547 H 0.52976 0.87425 0.89079 0.0
O548 O 0.53237 0.87969 0.91436 0.0
H549 H 0.51789 0.84343 0.94791 0.0
O550 O 0.51638 0.83897 0.92375 0.0
Co551 Co 0.49548 0.82343 0.96433 0.0
O552 O 0.51226 0.82282 0.01112 0.0
O553 O 0.54466 0.84725 0.99454 0.0
O554 O 0.47081 0.82459 0.94312 0.0
O555 O 0.47992 0.8294 0.87894 0.0
O556 O 0.56656 0.90937 0.81681 0.0
O557 O 0.56503 0.92477 0.86684 0.0
O558 O 0.49089 0.84201 0.99992 0.0
O559 O 0.52255 0.8699 0.99557 0.0
C560 C 0.50983 0.88269 0.82752 0.0
C561 C 0.57836 0.90244 0.94742 0.0
C562 C 0.47684 0.78613 0.9479 0.0
C563 C 0.53711 0.85188 0.8312 0.0
C564 C 0.53176 0.83217 0.01671 0.0
C565 C 0.46611 0.8228 0.90617 0.0
C566 C 0.57133 0.92672 0.8314 0.0
C567 C 0.50408 0.86035 0.00989 0.0
O568 O 0.52965 0.89091 0.82564 0.0
O569 O 0.49939 0.87059 0.85591 0.0
O570 O 0.564 0.88956 0.9705 0.0
O571 O 0.57601 0.90344 0.90921 0.0
O572 O 0.47245 0.79382 0.97705 0.0
O573 O 0.49203 0.79956 0.92854 0.0
O574 O 0.55288 0.86843 0.84347 0.0
O575 O 0.51885 0.84671 0.84284 0.0
H576 H 0.03118 0.10527 0.70957 0.0
H577 H 0.0461 0.08379 0.72869 0.0
H578 H 0.09864 0.13728 0.78022 0.0
H579 H 0.08365 0.15873 0.7618 0.0
H580 H 0.10883 0.11219 0.73153 0.0
H581 H 0.06164 0.10429 0.84119 0.0
H582 H 0.02784 0.09438 0.87159 0.0
H583 H 1.00231 0.03309 0.82325 0.0
H584 H 0.03596 0.04265 0.79244 0.0
H585 H 0.15893 0.06978 0.82457 0.0
H586 H 0.13906 0.08773 0.82742 0.0
H587 H 0.08377 0.03113 0.79453 0.0
H588 H 0.10347 0.01292 0.79547 0.0
H589 H 0.07349 0.05626 0.8321 0.0
H590 H 0.11494 0.06089 0.71947 0.0
H591 H 0.14761 0.06479 0.69355 0.0
H592 H 0.18085 0.1267 0.74003 0.0
H593 H 0.14832 0.1231 0.76647 0.0
C594 C 0.04603 0.11247 0.72456 0.0
C595 C 0.05625 0.13364 0.73436 0.0
C596 C 0.05444 0.10017 0.73569 0.0
C597 C 0.07335 0.10895 0.75623 0.0
C598 C 0.08398 0.13023 0.76453 0.0
C599 C 0.07544 0.14246 0.75395 0.0
C600 C 0.08209 0.09601 0.76956 0.0
C601 C 0.1012 0.10015 0.75385 0.0
C602 C 0.0717 0.07966 0.79734 0.0
C603 C 0.05129 0.07421 0.81444 0.0
C604 C 0.04878 0.08875 0.83682 0.0
C605 C 0.0297 0.08315 0.85436 0.0
C606 C 0.01302 0.06304 0.84978 0.0
C607 C 0.01531 0.04858 0.82715 0.0
C608 C 0.03438 0.05408 0.80968 0.0
C609 C 0.14233 0.061 0.82028 0.0
C610 C 0.13262 0.04023 0.80847 0.0
C611 C 0.13101 0.07125 0.82145 0.0
C612 C 0.11016 0.06096 0.8093 0.0
C613 C 0.09992 0.03949 0.80318 0.0
C614 C 0.11115 0.02916 0.80315 0.0
C615 C 0.1005 0.07298 0.79521 0.0
C616 C 0.08114 0.06843 0.81003 0.0
C617 C 0.11019 0.0884 0.76542 0.0
C618 C 0.12925 0.09172 0.74504 0.0
C619 C 0.1292 0.07542 0.72379 0.0
C620 C 0.1477 0.07749 0.70933 0.0
C621 C 0.16632 0.09589 0.7156 0.0
C622 C 0.16642 0.1124 0.73558 0.0
C623 C 0.14794 0.1104 0.75007 0.0
H624 H 0.18064 0.09745 0.70447 0.0
H625 H 0.99826 0.05875 0.86332 0.0
H626 H 0.01941 0.11391 0.78072 0.0
H627 H 1.00219 0.07622 0.7793 0.0
H628 H 0.94521 0.07273 0.81613 0.0
H629 H 0.96237 0.1108 0.81482 0.0
H630 H 0.95388 0.0407 0.85045 0.0
H631 H 0.95254 0.07191 0.72057 0.0
H632 H 0.97109 0.09674 0.66622 0.0
H633 H 0.00883 0.06909 0.6473 0.0
H634 H 0.99063 0.04424 0.70183 0.0
H635 H 0.87685 0.94402 0.77672 0.0
H636 H 0.89896 0.98052 0.7942 0.0
H637 H 0.9492 0.98223 0.72732 0.0
H638 H 0.927 0.94583 0.70914 0.0
H639 H 0.94733 0.01515 0.71111 0.0
H640 H 0.94903 0.98186 0.82768 0.0
H641 H 0.93648 0.95763 0.88445 0.0
H642 H 0.90639 0.98889 0.93338 0.0
H643 H 0.91816 0.01293 0.87612 0.0
C644 C 1.00335 0.10507 0.78928 0.0
C645 C 0.99213 0.11508 0.7973 0.0
C646 C 0.99357 0.08357 0.78891 0.0
C647 C 0.97243 0.07169 0.79759 0.0
C648 C 0.96159 0.08167 0.80957 0.0
C649 C 0.97138 0.10335 0.8091 0.0
C650 C 0.96121 0.04924 0.78873 0.0
C651 C 0.95211 0.03501 0.82004 0.0
C652 C 0.96002 0.04194 0.74922 0.0
C653 C 0.97027 0.05627 0.71529 0.0
C654 C 0.96479 0.07114 0.7048 0.0
C655 C 0.97526 0.08523 0.674 0.0
C656 C 0.99113 0.0845 0.65333 0.0
C657 C 0.9965 0.06961 0.66327 0.0
C658 C 0.9861 0.0555 0.69407 0.0
C659 C 0.89259 0.95222 0.76567 0.0
C660 C 0.90017 0.94217 0.74133 0.0
C661 C 0.90526 0.97303 0.7759 0.0
C662 C 0.92582 0.98411 0.76237 0.0
C663 C 0.93339 0.97405 0.73802 0.0
C664 C 0.92069 0.95326 0.72764 0.0
C665 C 0.93919 0.00633 0.77275 0.0
C666 C 0.9489 0.02062 0.74168 0.0
C667 C 0.94158 0.01356 0.81269 0.0
C668 C 0.93428 0.99908 0.84722 0.0
C669 C 0.9395 0.98343 0.85022 0.0
C670 C 0.93253 0.96972 0.88253 0.0
C671 C 0.92056 0.97167 0.91243 0.0
C672 C 0.91561 0.98737 0.91013 0.0
C673 C 0.92239 1.00102 0.87767 0.0
H674 H 0.91519 0.96105 0.93745 0.0
H675 H 0.99927 0.09548 0.62962 0.0
H676 H 0.92252 0.87112 0.7606 0.0
H677 H 0.96015 0.89245 0.76088 0.0
H678 H 0.95558 0.94259 0.8147 0.0
H679 H 0.91761 0.92101 0.81432 0.0
H680 H 0.97904 0.9541 0.7465 0.0
H681 H 0.97648 0.91898 0.86737 0.0
H682 H 0.9649 0.88846 0.91075 0.0
H683 H 0.99246 0.86401 0.83128 0.0
H684 H 1.00393 0.89419 0.78694 0.0
H685 H 0.0891 0.01231 0.72828 0.0
H686 H 0.05327 0.99643 0.74982 0.0
H687 H 0.04632 0.93583 0.73266 0.0
H688 H 0.08308 0.95194 0.71713 0.0
H689 H 0.02895 0.93365 0.795 0.0
H690 H 0.02536 0.96445 0.66789 0.0
H691 H 0.03488 0.99335 0.62091 0.0
H692 H 0.01742 0.02418 0.70778 0.0
H693 H 0.00799 0.99556 0.75536 0.0
C694 C 0.92963 0.8864 0.77395 0.0
C695 C 0.91742 0.89435 0.78835 0.0
C696 C 0.95108 0.8986 0.77399 0.0
C697 C 0.96066 0.91902 0.78822 0.0
C698 C 0.94846 0.92679 0.80401 0.0
C699 C 0.92688 0.91443 0.80427 0.0
C700 C 0.98321 0.93259 0.78256 0.0
C701 C 0.9901 0.94992 0.75766 0.0
C702 C 0.99745 0.92682 0.79654 0.0
C703 C 0.99104 0.90888 0.82375 0.0
C704 C 0.98002 0.90707 0.85903 0.0
C705 C 0.97346 0.88982 0.88381 0.0
C706 C 0.97793 0.87431 0.87382 0.0
C707 C 0.98903 0.87604 0.83903 0.0
C708 C 0.99559 0.89325 0.81408 0.0
C709 C 0.0799 0.99559 0.72933 0.0
C710 C 0.08897 0.98335 0.72215 0.0
C711 C 0.05922 0.98645 0.74101 0.0
C712 C 0.04672 0.96478 0.7426 0.0
C713 C 0.05554 0.95257 0.73238 0.0
C714 C 0.07652 0.96175 0.723 0.0
C715 C 0.02484 0.95463 0.75673 0.0
C716 C 0.01806 0.93802 0.78376 0.0
C717 C 0.01063 0.96088 0.7441 0.0
C718 C 0.01618 0.97797 0.71529 0.0
C719 C 0.02365 0.97744 0.677 0.0
C720 C 0.02902 0.99377 0.65027 0.0
C721 C 0.02681 0.01061 0.66139 0.0
C722 C 0.01916 0.01114 0.69922 0.0
C723 C 0.01378 0.99487 0.72605 0.0
H724 H 0.03099 0.02324 0.64067 0.0
H725 H 0.9728 0.86095 0.89304 0.0
H726 H 1.00202 0.93359 0.28573 0.0
H727 H 0.9858 0.95408 0.26964 0.0
H728 H 0.92648 0.89808 0.26028 0.0
H729 H 0.94295 0.87745 0.27412 0.0
H730 H 0.9303 0.9223 0.2019 0.0
H731 H 0.94249 0.93281 0.34444 0.0
H732 H 0.96338 0.94298 0.40617 0.0
H733 H 1.00132 1.00444 0.3601 0.0
H734 H 0.9808 0.99459 0.2979 0.0
H735 H 0.86484 0.96557 0.22099 0.0
H736 H 0.88383 0.94677 0.22262 0.0
H737 H 0.94117 1.00471 0.23376 0.0
H738 H 0.92211 0.02338 0.23162 0.0
H739 H 0.94002 0.98079 0.28739 0.0
H740 H 0.92646 0.97096 0.14635 0.0
H741 H 0.90445 0.96117 0.08616 0.0
H742 H 0.86865 0.89888 0.12964 0.0
H743 H 0.89029 0.90834 0.19031 0.0
C744 C 0.9855 0.92566 0.28033 0.0
C745 C 0.9737 0.90395 0.28115 0.0
C746 C 0.97622 0.9374 0.27137 0.0
C747 C 0.95483 0.92767 0.26435 0.0
C748 C 0.94301 0.90595 0.26556 0.0
C749 C 0.95238 0.89418 0.27367 0.0
C750 C 0.94481 0.94006 0.25503 0.0
C751 C 0.93226 0.93497 0.22082 0.0
C752 C 0.94784 0.957 0.27899 0.0
C753 C 0.96023 0.96288 0.31635 0.0
C754 C 0.95538 0.94844 0.34735 0.0
C755 C 0.96714 0.95416 0.38245 0.0
C756 C 0.9837 0.97432 0.387 0.0
C757 C 0.98851 0.98883 0.35651 0.0
C758 C 0.97681 0.98319 0.32135 0.0
C759 C 0.88159 0.97424 0.22161 0.0
C760 C 0.89218 0.99584 0.22515 0.0
C761 C 0.89246 0.96353 0.22273 0.0
C762 C 0.91409 0.97434 0.22722 0.0
C763 C 0.92464 0.99606 0.22909 0.0
C764 C 0.91378 0.00673 0.22782 0.0
C765 C 0.92542 0.963 0.23432 0.0
C766 C 0.93821 0.96827 0.26816 0.0
C767 C 0.92261 0.94626 0.21001 0.0
C768 C 0.90994 0.9404 0.17299 0.0
C769 C 0.91386 0.95519 0.14313 0.0
C770 C 0.90145 0.9497 0.10893 0.0
C771 C 0.88514 0.92943 0.10411 0.0
C772 C 0.88128 0.91457 0.1334 0.0
C773 C 0.89365 0.91998 0.16766 0.0
H774 H 0.8755 0.92522 0.07767 0.0
H775 H 0.99278 0.97872 0.4142 0.0
H776 H 0.10968 0.08776 0.32407 0.0
H777 H 0.08974 0.05073 0.30808 0.0
H778 H 0.12963 0.06053 0.20731 0.0
H779 H 0.14938 0.09757 0.22293 0.0
H780 H 0.08773 0.03506 0.18913 0.0
H781 H 0.13718 0.04178 0.29163 0.0
H782 H 0.1536 0.05265 0.35799 0.0
H783 H 0.09484 0.01474 0.41465 0.0
H784 H 0.07804 1.00385 0.34861 0.0
H785 H 0.0714 0.92422 0.2215 0.0
H786 H 0.09116 0.96223 0.22126 0.0
H787 H 0.03419 0.96371 0.21863 0.0
H788 H 0.0145 0.92574 0.21877 0.0
H789 H 0.08476 0.98355 0.2867 0.0
H790 H 0.04108 1.00144 0.17612 0.0
H791 H 0.0242 0.99035 0.11007 0.0
H792 H 0.07246 0.97925 0.0704 0.0
H793 H 0.08922 0.98967 0.13665 0.0
C794 C 0.11419 0.08197 0.29859 0.0
C795 C 0.13119 0.09539 0.27488 0.0
C796 C 0.10279 0.06088 0.28945 0.0
C797 C 0.10829 0.05297 0.25655 0.0
C798 C 0.1251 0.06641 0.23264 0.0
C799 C 0.13646 0.08745 0.24177 0.0
C800 C 0.097 0.03056 0.24767 0.0
C801 C 0.0871 0.02382 0.21049 0.0
C802 C 0.09615 0.01589 0.27551 0.0
C803 C 0.10634 0.02212 0.31519 0.0
C804 C 0.12776 0.03584 0.31825 0.0
C805 C 0.13713 0.042 0.35579 0.0
C806 C 0.12526 0.03442 0.3905 0.0
C807 C 0.10401 0.02061 0.38774 0.0
C808 C 0.09456 0.01442 0.35026 0.0
C809 C 0.06322 0.93275 0.21912 0.0
C810 C 0.04157 0.92232 0.21963 0.0
C811 C 0.07445 0.95436 0.21938 0.0
C812 C 0.0641 0.96569 0.21991 0.0
C813 C 0.04244 0.95523 0.21765 0.0
C814 C 0.03123 0.93362 0.21766 0.0
C815 C 0.07571 0.98814 0.22813 0.0
C816 C 0.0855 0.99484 0.26536 0.0
C817 C 0.07639 1.00275 0.20057 0.0
C818 C 0.06636 0.99635 0.16104 0.0
C819 C 0.04803 0.99661 0.15323 0.0
C820 C 0.03843 0.99033 0.1159 0.0
C821 C 0.04722 0.98404 0.08609 0.0
C822 C 0.06559 0.98398 0.0936 0.0
C823 C 0.07507 0.98993 0.13108 0.0
H824 H 0.03982 0.97925 0.05716 0.0
H825 H 0.13254 0.03922 0.41954 0.0
H826 H 0.10701 0.16818 0.20352 0.0
H827 H 0.069 0.14921 0.20588 0.0
H828 H 0.06957 0.09444 0.24543 0.0
H829 H 0.10721 0.11321 0.24229 0.0
H830 H 0.03678 0.08327 0.20169 0.0
H831 H 0.06852 0.12723 0.31255 0.0
H832 H 0.09146 0.15958 0.3487 0.0
H833 H 0.05776 0.18746 0.30123 0.0
H834 H 0.03479 0.15535 0.26426 0.0
H835 H 0.94122 0.0364 0.31061 0.0
H836 H 0.978 0.05291 0.29365 0.0
H837 H 0.97529 0.10437 0.24158 0.0
H838 H 0.93853 0.08795 0.25849 0.0
H839 H 0.00897 0.11659 0.29107 0.0
H840 H 0.97571 0.06657 0.18188 0.0
H841 H 0.95482 0.03176 0.15235 0.0
H842 H 0.99284 0.01164 0.21092 0.0
H843 H 0.01392 0.04629 0.24082 0.0
C844 C 0.09888 0.15185 0.21092 0.0
C845 C 0.10986 0.14204 0.22257 0.0
C846 C 0.07724 0.14111 0.21284 0.0
C847 C 0.06648 0.12054 0.22672 0.0
C848 C 0.07748 0.11029 0.23481 0.0
C849 C 0.099 0.121 0.23293 0.0
C850 C 0.04415 0.11031 0.23677 0.0
C851 C 0.03071 0.09053 0.22132 0.0
C852 C 0.0363 0.11958 0.26312 0.0
C853 C 0.05011 0.13898 0.28516 0.0
C854 C 0.06612 0.14033 0.30948 0.0
C855 C 0.07912 0.1586 0.33018 0.0
C856 C 0.07612 0.17559 0.32712 0.0
C857 C 0.0601 0.1743 0.30346 0.0
C858 C 0.04708 0.15607 0.28262 0.0
C859 C 0.94852 0.0513 0.29578 0.0
C860 C 0.93705 0.06093 0.28585 0.0
C861 C 0.96947 0.06062 0.2858 0.0
C862 C 0.97929 0.07973 0.26583 0.0
C863 C 0.96796 0.08956 0.25677 0.0
C864 C 0.947 0.0802 0.26649 0.0
C865 C 1.0015 0.0898 0.25508 0.0
C866 C 0.015 0.10947 0.27094 0.0
C867 C 0.00953 0.08003 0.23052 0.0
C868 C 0.99634 0.05901 0.21366 0.0
C869 C 0.97953 0.05469 0.18864 0.0
C870 C 0.96775 0.03503 0.17162 0.0
C871 C 0.97266 0.01958 0.17939 0.0
C872 C 0.98919 0.02367 0.20459 0.0
C873 C 1.00106 0.04332 0.22153 0.0
H874 H 0.96349 1.00436 0.16629 0.0
H875 H 0.08618 0.18972 0.34319 0.0
H876 H 0.7733 0.34999 0.1159 0.0
H877 H 0.75489 0.36939 0.11626 0.0
H878 H 0.81144 0.4249 0.14808 0.0
H879 H 0.82996 0.40537 0.14715 0.0
H880 H 0.7706 0.41896 0.18234 0.0
H881 H 0.8056 0.42068 0.05693 0.0
H882 H 0.81377 0.40269 1.00434 0.0
H883 H 0.74909 0.36428 0.9784 0.0
H884 H 0.74055 0.38196 0.0311 0.0
H885 H 0.74968 0.49433 0.10379 0.0
H886 H 0.76616 0.47401 0.12002 0.0
H887 H 0.71766 0.42149 0.05754 0.0
H888 H 0.70135 0.4419 0.04049 0.0
H889 H 0.75393 0.42517 0.04101 0.0
H890 H 0.71797 0.42419 0.15892 0.0
H891 H 0.70731 0.43875 0.21395 0.0
H892 H 0.76983 0.47175 0.25722 0.0
H893 H 0.78094 0.45763 0.20199 0.0
C894 C 0.78157 0.36617 0.12416 0.0
C895 C 0.80293 0.37632 0.13109 0.0
C896 C 0.77109 0.3772 0.12453 0.0
C897 C 0.78192 0.39857 0.13172 0.0
C898 C 0.80288 0.40837 0.14262 0.0
C899 C 0.8134 0.39725 0.14222 0.0
C900 C 0.77224 0.41099 0.12121 0.0
C901 C 0.76719 0.42063 0.15149 0.0
C902 C 0.76728 0.4125 0.08101 0.0
C903 C 0.77244 0.40257 0.04802 0.0
C904 C 0.79313 0.40839 0.04001 0.0
C905 C 0.79783 0.39825 0.01022 0.0
C906 C 0.78196 0.38233 0.98809 0.0
C907 C 0.76137 0.37663 0.99554 0.0
C908 C 0.75659 0.38673 0.0253 0.0
C909 C 0.74264 0.4785 0.09325 0.0
C910 C 0.72425 0.46966 0.07094 0.0
C911 C 0.75198 0.46687 0.10276 0.0
C912 C 0.74296 0.44613 0.09054 0.0
C913 C 0.72486 0.43745 0.06735 0.0
C914 C 0.71557 0.44912 0.05762 0.0
C915 C 0.75236 0.4335 0.10215 0.0
C916 C 0.75736 0.42369 0.07195 0.0
C917 C 0.75694 0.4316 0.14255 0.0
C918 C 0.75033 0.44002 0.17603 0.0
C919 C 0.72949 0.43468 0.17997 0.0
C920 C 0.72335 0.44284 0.21123 0.0
C921 C 0.7379 0.45622 0.239 0.0
C922 C 0.75859 0.46141 0.23564 0.0
C923 C 0.76481 0.45333 0.20436 0.0
H924 H 0.73312 0.46253 0.26318 0.0
H925 H 0.78561 0.37444 0.96516 0.0
H926 H 0.68328 0.44586 0.11448 0.0
H927 H 0.66356 0.40796 0.1135 0.0
H928 H 0.60851 0.40927 0.14612 0.0
H929 H 0.62825 0.44732 0.14745 0.0
H930 H 0.62444 0.37319 0.17727 0.0
H931 H 0.59655 0.40231 0.07018 0.0
H932 H 0.60532 0.42967 0.01979 0.0
H933 H 0.65123 0.41774 0.96963 0.0
H934 H 0.64278 0.39041 0.02 0.0
H935 H 0.54113 0.27691 0.11526 0.0
H936 H 0.5621 0.31366 0.13202 0.0
H937 H 0.60445 0.32182 0.03673 0.0
H938 H 0.58342 0.28515 0.0195 0.0
H939 H 0.59669 0.35344 0.03929 0.0
H940 H 0.61567 0.31658 0.12966 0.0
H941 H 0.60925 0.28953 0.17898 0.0
H942 H 0.58575 0.31651 0.26209 0.0
H943 H 0.59127 0.34335 0.21269 0.0
C944 C 0.66718 0.43799 0.12328 0.0
C945 C 0.65722 0.44929 0.13151 0.0
C946 C 0.65598 0.41643 0.12272 0.0
C947 C 0.6347 0.40602 0.1302 0.0
C948 C 0.62504 0.41722 0.14132 0.0
C949 C 0.63629 0.43884 0.14214 0.0
C950 C 0.62203 0.3841 0.11912 0.0
C951 C 0.6181 0.36873 0.14737 0.0
C952 C 0.61451 0.37856 0.07973 0.0
C953 C 0.61909 0.39444 0.04877 0.0
C954 C 0.60851 0.40556 0.04838 0.0
C955 C 0.61344 0.42107 0.01989 0.0
C956 C 0.62885 0.42547 0.99156 0.0
C957 C 0.63931 0.41432 0.99159 0.0
C958 C 0.63445 0.39882 0.02006 0.0
C959 C 0.55478 0.28661 0.0976 0.0
C960 C 0.56069 0.27826 0.0661 0.0
C961 C 0.56678 0.30753 0.10733 0.0
C962 C 0.58493 0.32034 0.08589 0.0
C963 C 0.59049 0.31216 0.05361 0.0
C964 C 0.57849 0.29124 0.04383 0.0
C965 C 0.59839 0.34216 0.09779 0.0
C966 C 0.60275 0.35766 0.06943 0.0
C967 C 0.60653 0.3477 0.13703 0.0
C968 C 0.60365 0.33187 0.16722 0.0
C969 C 0.6089 0.31664 0.15825 0.0
C970 C 0.60536 0.3013 0.18618 0.0
C971 C 0.59705 0.30126 0.22358 0.0
C972 C 0.59217 0.31655 0.23308 0.0
C973 C 0.59543 0.3318 0.20506 0.0
H974 H 0.59447 0.28944 0.24525 0.0
H975 H 0.63267 0.43749 0.96956 0.0
H976 H 0.75296 0.28228 0.08792 0.0
H977 H 0.71591 0.26621 0.10209 0.0
H978 H 0.71662 0.32153 0.06228 0.0
H979 H 0.75357 0.33754 0.04723 0.0
H980 H 0.69697 0.30666 0.13671 0.0
H981 H 0.69529 0.28293 1.00457 0.0
H982 H 0.70387 0.26718 0.94845 0.0
H983 H 0.6772 0.20934 0.01138 0.0
H984 H 0.66878 0.22485 0.0683 0.0
H985 H 0.58817 0.26406 0.10466 0.0
H986 H 0.62594 0.2818 0.10524 0.0
H987 H 0.62343 0.22582 0.14662 0.0
H988 H 0.58545 0.20811 0.14664 0.0
H989 H 0.64424 0.24115 0.07338 0.0
H990 H 0.64504 0.26658 0.20575 0.0
H991 H 0.63673 0.28398 0.25923 0.0
H992 H 0.66402 0.34017 0.19075 0.0
H993 H 0.67233 0.32305 0.13666 0.0
C994 C 0.74516 0.29092 0.08187 0.0
C995 C 0.75609 0.31113 0.0666 0.0
C996 C 0.72405 0.28175 0.08997 0.0
C997 C 0.71361 0.29273 0.08326 0.0
C998 C 0.72446 0.31287 0.06774 0.0
C999 C 0.7455 0.32192 0.05899 0.0
C1000 C 0.69141 0.28319 0.09309 0.0
C1001 C 0.68537 0.29245 0.12261 0.0
C1002 C 0.67644 0.26454 0.07495 0.0
C1003 C 0.68166 0.25515 0.041 0.0
C1004 C 0.69149 0.26692 1.00671 0.0
C1005 C 0.69627 0.25802 0.97469 0.0
C1006 C 0.69116 0.23729 0.97642 0.0
C1007 C 0.68121 0.22541 0.01015 0.0
C1008 C 0.67642 0.23425 0.04231 0.0
C1009 C 0.59574 0.25585 0.11546 0.0
C1010 C 0.58409 0.23487 0.12599 0.0
C1011 C 0.61728 0.26594 0.11568 0.0
C1012 C 0.62744 0.25508 0.12588 0.0
C1013 C 0.61582 0.23446 0.13886 0.0
C1014 C 0.59421 0.22443 0.13926 0.0
C1015 C 0.64979 0.2644 0.11756 0.0
C1016 C 0.65585 0.25521 0.0879 0.0
C1017 C 0.66469 0.2833 0.13508 0.0
C1018 C 0.65923 0.29349 0.16708 0.0
C1019 C 0.64912 0.28259 0.20194 0.0
C1020 C 0.64451 0.29244 0.23246 0.0
C1021 C 0.64998 0.31321 0.22852 0.0
C1022 C 0.65994 0.32413 0.1939 0.0
C1023 C 0.66461 0.31436 0.16332 0.0
H1024 H 0.64635 0.32078 0.25213 0.0
H1025 H 0.69485 0.23042 0.95156 0.0
H1026 H 0.53126 0.2974 0.56877 0.0
H1027 H 0.55244 0.28104 0.57503 0.0
H1028 H 0.6076 0.34031 0.55733 0.0
H1029 H 0.58627 0.35671 0.55194 0.0
H1030 H 0.57914 0.27639 0.53216 0.0
H1031 H 0.6453 0.34288 0.62217 0.0
H1032 H 0.65155 0.37164 0.66719 0.0
H1033 H 0.58717 0.34048 0.69843 0.0
H1034 H 0.58058 0.31142 0.65401 0.0
H1035 H 0.65506 0.25014 0.5586 0.0
H1036 H 0.64006 0.27202 0.54625 0.0
H1037 H 0.61946 0.26421 0.66888 0.0
H1038 H 0.63558 0.24293 0.6819 0.0
H1039 H 0.63099 0.30267 0.6417 0.0
H1040 H 0.58707 0.23287 0.59587 0.0
H1041 H 0.57885 0.20117 0.55846 0.0
H1042 H 0.59403 0.23507 0.44812 0.0
H1043 H 0.6026 0.26704 0.48494 0.0
C1044 C 0.54783 0.30671 0.56452 0.0
C1045 C 0.55723 0.32813 0.55912 0.0
C1046 C 0.55994 0.29744 0.56845 0.0
C1047 C 0.58159 0.30952 0.56723 0.0
C1048 C 0.59092 0.33076 0.55887 0.0
C1049 C 0.57878 0.34005 0.55511 0.0
C1050 C 0.59418 0.29991 0.57723 0.0
C1051 C 0.59058 0.28224 0.55592 0.0
C1052 C 0.60882 0.30733 0.60881 0.0
C1053 C 0.61243 0.32507 0.63443 0.0
C1054 C 0.63248 0.34217 0.63863 0.0
C1055 C 0.63609 0.35849 0.66417 0.0
C1056 C 0.61979 0.35782 0.68587 0.0
C1057 C 0.59979 0.34093 0.68173 0.0
C1058 C 0.5961 0.32457 0.65626 0.0
C1059 C 0.64762 0.25338 0.58312 0.0
C1060 C 0.64605 0.24464 0.62101 0.0
C1061 C 0.63904 0.26582 0.57599 0.0
C1062 C 0.62814 0.2692 0.6063 0.0
C1063 C 0.62768 0.2616 0.64501 0.0
C1064 C 0.63679 0.24945 0.65244 0.0
C1065 C 0.616 0.2793 0.59643 0.0
C1066 C 0.6197 0.29701 0.61769 0.0
C1067 C 0.60107 0.27167 0.56542 0.0
C1068 C 0.59565 0.25238 0.5432 0.0
C1069 C 0.58877 0.23359 0.56365 0.0
C1070 C 0.58403 0.21557 0.54255 0.0
C1071 C 0.58596 0.21611 0.50095 0.0
C1072 C 0.59256 0.23467 0.48035 0.0
C1073 C 0.59734 0.25274 0.50131 0.0
H1074 H 0.58231 0.20215 0.48467 0.0
H1075 H 0.62261 0.37047 0.7056 0.0
H1076 H 0.78496 0.42633 0.55376 0.0
H1077 H 0.7622 0.3888 0.54736 0.0
H1078 H 0.77075 0.38125 0.6724 0.0
H1079 H 0.79336 0.41884 0.67915 0.0
H1080 H 0.77656 0.35467 0.62282 0.0
H1081 H 0.72775 0.37418 0.64857 0.0
H1082 H 0.70555 0.3898 0.64781 0.0
H1083 H 0.68332 0.36462 0.53105 0.0
H1084 H 0.70604 0.34951 0.53025 0.0
H1085 H 0.70086 0.24739 0.6228 0.0
H1086 H 0.71832 0.2843 0.63902 0.0
H1087 H 0.71501 0.2984 0.51508 0.0
H1088 H 0.6971 0.26117 0.49899 0.0
H1089 H 0.70468 0.32098 0.57118 0.0
H1090 H 0.7592 0.30333 0.55165 0.0
H1091 H 0.77523 0.28224 0.5677 0.0
H1092 H 0.78081 0.30062 0.69084 0.0
H1093 H 0.76476 0.32177 0.67546 0.0
C1094 C 0.78193 0.41668 0.57993 0.0
C1095 C 0.79091 0.42551 0.61696 0.0
C1096 C 0.76879 0.39527 0.5763 0.0
C1097 C 0.76451 0.38227 0.60952 0.0
C1098 C 0.77367 0.39103 0.64647 0.0
C1099 C 0.78659 0.41248 0.65026 0.0
C1100 C 0.75158 0.35947 0.6048 0.0
C1101 C 0.76077 0.34734 0.61187 0.0
C1102 C 0.73087 0.34982 0.59091 0.0
C1103 C 0.71894 0.3609 0.58913 0.0
C1104 C 0.71861 0.37241 0.6222 0.0
C1105 C 0.70578 0.38106 0.62218 0.0
C1106 C 0.69295 0.37811 0.5895 0.0
C1107 C 0.69317 0.36678 0.55647 0.0
C1108 C 0.70615 0.3583 0.55611 0.0
C1109 C 0.70353 0.25835 0.59921 0.0
C1110 C 0.6974 0.25154 0.55981 0.0
C1111 C 0.71366 0.27943 0.60842 0.0
C1112 C 0.7181 0.29411 0.57821 0.0
C1113 C 0.7117 0.2873 0.53882 0.0
C1114 C 0.70155 0.26613 0.52961 0.0
C1115 C 0.73 0.31659 0.58753 0.0
C1116 C 0.72057 0.32856 0.58159 0.0
C1117 C 0.7502 0.32601 0.60376 0.0
C1118 C 0.76063 0.31398 0.61248 0.0
C1119 C 0.76382 0.30284 0.58214 0.0
C1120 C 0.77292 0.29089 0.59111 0.0
C1121 C 0.77899 0.29005 0.63028 0.0
C1122 C 0.77611 0.30128 0.66051 0.0
C1123 C 0.76706 0.31329 0.65167 0.0
H1124 H 0.78596 0.28073 0.63719 0.0
H1125 H 0.68291 0.38469 0.58968 0.0
H1126 H 0.7695 0.48555 0.62693 0.0
H1127 H 0.73275 0.47034 0.61829 0.0
H1128 H 0.73917 0.46504 0.49127 0.0
H1129 H 0.77685 0.48014 0.49991 0.0
H1130 H 0.70941 0.4814 0.57857 0.0
H1131 H 0.68965 0.41547 0.46703 0.0
H1132 H 0.70559 0.39677 0.43636 0.0
H1133 H 0.74448 0.40972 0.53925 0.0
H1134 H 0.72832 0.42773 0.57117 0.0
H1135 H 0.59997 0.42184 0.56319 0.0
H1136 H 0.63626 0.44109 0.54235 0.0
H1137 H 0.64809 0.39797 0.60681 0.0
H1138 H 0.61172 0.37843 0.62659 0.0
H1139 H 0.668 0.40797 0.53653 0.0
H1140 H 0.65756 0.44396 0.64651 0.0
H1141 H 0.64198 0.46223 0.68043 0.0
H1142 H 0.66514 0.50867 0.58887 0.0
H1143 H 0.68024 0.49036 0.55352 0.0
C1144 C 0.76333 0.48131 0.59691 0.0
C1145 C 0.77615 0.48385 0.56408 0.0
C1146 C 0.7422 0.47275 0.59204 0.0
C1147 C 0.73319 0.46653 0.55422 0.0
C1148 C 0.74589 0.4697 0.52079 0.0
C1149 C 0.76734 0.47833 0.52571 0.0
C1150 C 0.71035 0.45564 0.55175 0.0
C1151 C 0.70029 0.46547 0.56858 0.0
C1152 C 0.69853 0.43478 0.53918 0.0
C1153 C 0.70811 0.42344 0.52104 0.0
C1154 C 0.7016 0.41429 0.48314 0.0
C1155 C 0.71064 0.40374 0.46559 0.0
C1156 C 0.72623 0.40224 0.48567 0.0
C1157 C 0.73264 0.4111 0.5235 0.0
C1158 C 0.72348 0.42144 0.5414 0.0
C1159 C 0.61033 0.41647 0.57275 0.0
C1160 C 0.60323 0.39889 0.59713 0.0
C1161 C 0.63101 0.42744 0.56081 0.0
C1162 C 0.64489 0.42108 0.57338 0.0
C1163 C 0.63764 0.40316 0.59679 0.0
C1164 C 0.61697 0.39217 0.60853 0.0
C1165 C 0.66721 0.43365 0.56421 0.0
C1166 C 0.67706 0.42411 0.54531 0.0
C1167 C 0.67896 0.4547 0.57562 0.0
C1168 C 0.66978 0.46561 0.597 0.0
C1169 C 0.65914 0.45793 0.63332 0.0
C1170 C 0.65042 0.46831 0.65287 0.0
C1171 C 0.65259 0.48657 0.63687 0.0
C1172 C 0.66343 0.49449 0.60119 0.0
C1173 C 0.672 0.48409 0.58131 0.0
H1174 H 0.64589 0.4946 0.65215 0.0
H1175 H 0.73323 0.39407 0.47207 0.0
H1176 H 0.48299 0.7241 0.50868 0.0
H1177 H 0.46425 0.74326 0.51757 0.0
H1178 H 0.43474 0.72114 0.40315 0.0
H1179 H 0.45366 0.70308 0.39325 0.0
H1180 H 0.4674 0.77343 0.44623 0.0
H1181 H 0.38363 0.71158 0.42217 0.0
H1182 H 0.36045 0.67419 0.43286 0.0
H1183 H 0.39537 0.67642 0.53659 0.0
H1184 H 0.4186 0.71393 0.52692 0.0
H1185 H 0.39634 0.80009 0.35545 0.0
H1186 H 0.41308 0.78012 0.37372 0.0
H1187 H 0.40576 0.78927 0.4986 0.0
H1188 H 0.38952 0.80972 0.48052 0.0
H1189 H 0.39194 0.74459 0.46398 0.0
H1190 H 0.44969 0.81754 0.46967 0.0
H1191 H 0.47114 0.85149 0.43692 0.0
H1192 H 0.48634 0.82238 0.34285 0.0
H1193 H 0.46478 0.78831 0.37439 0.0
C1194 C 0.47227 0.72312 0.48582 0.0
C1195 C 0.46981 0.71203 0.45032 0.0
C1196 C 0.46161 0.73402 0.49091 0.0
C1197 C 0.44801 0.73334 0.46111 0.0
C1198 C 0.44494 0.72159 0.42666 0.0
C1199 C 0.45585 0.71125 0.42114 0.0
C1200 C 0.43861 0.74659 0.4628 0.0
C1201 C 0.45101 0.76732 0.45129 0.0
C1202 C 0.417 0.73811 0.46686 0.0
C1203 C 0.40289 0.71562 0.4738 0.0
C1204 C 0.38627 0.70416 0.4475 0.0
C1205 C 0.37314 0.68293 0.45333 0.0
C1206 C 0.37641 0.67295 0.48542 0.0
C1207 C 0.39286 0.68418 0.51173 0.0
C1208 C 0.40604 0.70544 0.50606 0.0
C1209 C 0.39849 0.79797 0.38675 0.0
C1210 C 0.39196 0.80665 0.41658 0.0
C1211 C 0.40795 0.78655 0.39711 0.0
C1212 C 0.41069 0.7834 0.43744 0.0
C1213 C 0.40381 0.79167 0.46733 0.0
C1214 C 0.39466 0.80339 0.45697 0.0
C1215 C 0.42085 0.77151 0.44828 0.0
C1216 C 0.40849 0.75095 0.46089 0.0
C1217 C 0.4423 0.77972 0.44269 0.0
C1218 C 0.45554 0.80036 0.42436 0.0
C1219 C 0.45748 0.81838 0.44185 0.0
C1220 C 0.46963 0.83762 0.4235 0.0
C1221 C 0.47995 0.83905 0.38779 0.0
C1222 C 0.47828 0.82125 0.37045 0.0
C1223 C 0.46613 0.80198 0.38855 0.0
H1224 H 0.48929 0.85395 0.37362 0.0
H1225 H 0.36617 0.65652 0.48986 0.0
H1226 H 0.30853 0.78086 0.50136 0.0
H1227 H 0.29069 0.74267 0.50142 0.0
H1228 H 0.31959 0.74387 0.38905 0.0
H1229 H 0.33721 0.78134 0.3888 0.0
H1230 H 0.27771 0.7198 0.38565 0.0
H1231 H 0.33429 0.72942 0.46657 0.0
H1232 H 0.35857 0.74266 0.52332 0.0
H1233 H 0.3082 0.70998 0.60532 0.0
H1234 H 0.28356 0.69674 0.54895 0.0
H1235 H 0.25176 0.61606 0.35522 0.0
H1236 H 0.27267 0.6532 0.36882 0.0
H1237 H 0.23779 0.64535 0.47662 0.0
H1238 H 0.21705 0.60811 0.46349 0.0
H1239 H 0.28127 0.67244 0.48532 0.0
H1240 H 0.22518 0.66139 0.3958 0.0
H1241 H 0.20453 0.64724 0.33433 0.0
H1242 H 0.25877 0.68292 0.26284 0.0
H1243 H 0.27981 0.69705 0.3239 0.0
C1244 C 0.31132 0.77289 0.47722 0.0
C1245 C 0.32394 0.78402 0.44479 0.0
C1246 C 0.30114 0.75116 0.47719 0.0
C1247 C 0.30364 0.74053 0.44486 0.0
C1248 C 0.31722 0.75177 0.41391 0.0
C1249 C 0.32728 0.77322 0.41391 0.0
C1250 C 0.29124 0.71775 0.44123 0.0
C1251 C 0.27855 0.70945 0.40741 0.0
C1252 C 0.29235 0.70433 0.46959 0.0
C1253 C 0.30704 0.71233 0.5036 0.0
C1254 C 0.32835 0.72524 0.49673 0.0
C1255 C 0.3422 0.7327 0.52881 0.0
C1256 C 0.33492 0.72723 0.56793 0.0
C1257 C 0.3138 0.71424 0.57501 0.0
C1258 C 0.29989 0.70675 0.543 0.0
C1259 C 0.24866 0.62225 0.3819 0.0
C1260 C 0.23271 0.60932 0.4081 0.0
C1261 C 0.26058 0.64342 0.38965 0.0
C1262 C 0.25661 0.65196 0.42356 0.0
C1263 C 0.24106 0.63899 0.45033 0.0
C1264 C 0.22913 0.61781 0.44259 0.0
C1265 C 0.26785 0.6746 0.42977 0.0
C1266 C 0.28027 0.68283 0.46395 0.0
C1267 C 0.26692 0.68806 0.40119 0.0
C1268 C 0.25409 0.68018 0.36446 0.0
C1269 C 0.23272 0.66617 0.36698 0.0
C1270 C 0.22094 0.65815 0.33221 0.0
C1271 C 0.23034 0.66414 0.29471 0.0
C1272 C 0.25151 0.67828 0.29191 0.0
C1273 C 0.26336 0.68632 0.32659 0.0
H1274 H 0.22122 0.65786 0.26783 0.0
H1275 H 0.34566 0.73301 0.59275 0.0
H1276 H 0.253 0.59257 0.458 0.0
H1277 H 0.29085 0.61196 0.45925 0.0
H1278 H 0.29151 0.55477 0.47224 0.0
H1279 H 0.25353 0.5354 0.47141 0.0
H1280 H 0.32435 0.58799 0.51253 0.0
H1281 H 0.29257 0.57245 0.38092 0.0
H1282 H 0.26889 0.57258 0.32963 0.0
H1283 H 0.30021 0.63897 0.3338 0.0
H1284 H 0.32395 0.63922 0.38548 0.0
H1285 H 0.42075 0.61487 0.42478 0.0
H1286 H 0.38411 0.59855 0.44241 0.0
H1287 H 0.38377 0.65408 0.40754 0.0
H1288 H 0.42001 0.66995 0.38795 0.0
H1289 H 0.35081 0.62324 0.38221 0.0
H1290 H 0.38574 0.63923 0.50814 0.0
H1291 H 0.4088 0.63924 0.56072 0.0
H1292 H 0.37211 0.57307 0.56951 0.0
H1293 H 0.3489 0.57263 0.51659 0.0
C1294 C 0.26127 0.58428 0.46266 0.0
C1295 C 0.25056 0.56262 0.46481 0.0
C1296 C 0.28284 0.59532 0.46317 0.0
C1297 C 0.29395 0.58474 0.46511 0.0
C1298 C 0.28321 0.5632 0.47073 0.0
C1299 C 0.26158 0.55216 0.47041 0.0
C1300 C 0.31635 0.59569 0.45587 0.0
C1301 C 0.33022 0.59562 0.48401 0.0
C1302 C 0.32393 0.60594 0.41889 0.0
C1303 C 0.30993 0.60584 0.38725 0.0
C1304 C 0.29435 0.58707 0.37101 0.0
C1305 C 0.28094 0.58708 0.34185 0.0
C1306 C 0.28308 0.60577 0.32842 0.0
C1307 C 0.29862 0.62451 0.34416 0.0
C1308 C 0.31207 0.62459 0.37335 0.0
C1309 C 0.41278 0.62352 0.42079 0.0
C1310 C 0.42318 0.64366 0.40513 0.0
C1311 C 0.39191 0.61427 0.43122 0.0
C1312 C 0.38124 0.62525 0.4273 0.0
C1313 C 0.39164 0.64532 0.41116 0.0
C1314 C 0.41237 0.65439 0.39996 0.0
C1315 C 0.35912 0.61566 0.43892 0.0
C1316 C 0.34518 0.61589 0.41104 0.0
C1317 C 0.35158 0.60568 0.47629 0.0
C1318 C 0.36557 0.60591 0.50819 0.0
C1319 C 0.38259 0.62467 0.52114 0.0
C1320 C 0.39571 0.62475 0.55103 0.0
C1321 C 0.39194 0.60616 0.56845 0.0
C1322 C 0.37501 0.58746 0.55601 0.0
C1323 C 0.36185 0.58729 0.52608 0.0
H1324 H 0.40211 0.60625 0.59161 0.0
H1325 H 0.27268 0.60575 0.30585 0.0
H1326 H 0.27646 0.54053 0.92672 0.0
H1327 H 0.25934 0.56012 0.90918 0.0
H1328 H 0.31122 0.61567 0.95676 0.0
H1329 H 0.32788 0.59599 0.97586 0.0
H1330 H 0.27844 0.61537 0.97638 0.0
H1331 H 0.30243 0.60145 0.85484 0.0
H1332 H 0.30625 0.58117 0.80096 0.0
H1333 H 0.24142 0.55258 0.77477 0.0
H1334 H 0.23717 0.57263 0.82881 0.0
H1335 H 0.2545 0.68645 0.89762 0.0
H1336 H 0.27311 0.66726 0.89793 0.0
H1337 H 0.21611 0.61077 0.87289 0.0
H1338 H 0.19751 0.63014 0.87219 0.0
H1339 H 0.25172 0.61193 0.83905 0.0
H1340 H 0.22821 0.62398 0.96618 0.0
H1341 H 0.22555 0.64592 0.01829 0.0
H1342 H 0.29158 0.679 0.0319 0.0
H1343 H 0.29466 0.65753 0.97925 0.0
C1344 C 0.28409 0.5569 0.93367 0.0
C1345 C 0.30353 0.5668 0.95236 0.0
C1346 C 0.27439 0.56811 0.92334 0.0
C1347 C 0.28423 0.58952 0.9306 0.0
C1348 C 0.30339 0.59924 0.95042 0.0
C1349 C 0.31291 0.58798 0.96136 0.0
C1350 C 0.27462 0.60185 0.91781 0.0
C1351 C 0.2729 0.61478 0.94615 0.0
C1352 C 0.267 0.60085 0.87846 0.0
C1353 C 0.26949 0.58857 0.84611 0.0
C1354 C 0.28897 0.59085 0.8377 0.0
C1355 C 0.29121 0.57936 0.80711 0.0
C1356 C 0.27408 0.56557 0.78445 0.0
C1357 C 0.25468 0.56326 0.79235 0.0
C1358 C 0.25236 0.57472 0.82296 0.0
C1359 C 0.24615 0.67009 0.89064 0.0
C1360 C 0.22467 0.65967 0.88501 0.0
C1361 C 0.25674 0.65913 0.89095 0.0
C1362 C 0.24588 0.63754 0.88632 0.0
C1363 C 0.22474 0.62742 0.87661 0.0
C1364 C 0.21415 0.63846 0.87604 0.0
C1365 C 0.25577 0.62533 0.89756 0.0
C1366 C 0.25743 0.61245 0.8691 0.0
C1367 C 0.26354 0.62644 0.93665 0.0
C1368 C 0.26167 0.63926 0.96853 0.0
C1369 C 0.24217 0.63603 0.98007 0.0
C1370 C 0.24059 0.64837 0.00974 0.0
C1371 C 0.25838 0.66381 0.02844 0.0
C1372 C 0.2778 0.66698 0.01748 0.0
C1373 C 0.27948 0.65476 0.98767 0.0
H1374 H 0.25713 0.67337 0.05135 0.0
H1375 H 0.27584 0.55668 0.76076 0.0
H1376 H 0.36131 0.59785 0.95463 0.0
H1377 H 0.37844 0.63477 0.94494 0.0
H1378 H 0.40338 0.62859 0.8328 0.0
H1379 H 0.38577 0.59074 0.84239 0.0
H1380 H 0.43307 0.65715 0.88368 0.0
H1381 H 0.36911 0.64682 0.83114 0.0
H1382 H 0.33156 0.63317 0.82682 0.0
H1383 H 0.33229 0.65898 0.94196 0.0
H1384 H 0.36995 0.67297 0.94682 0.0
H1385 H 0.48242 0.76772 0.88244 0.0
H1386 H 0.46193 0.73135 0.86252 0.0
H1387 H 0.42379 0.71867 0.96741 0.0
H1388 H 0.44397 0.75506 0.98696 0.0
H1389 H 0.40059 0.7004 0.90387 0.0
H1390 H 0.46231 0.70595 0.96181 0.0
H1391 H 0.4999 0.72018 0.96874 0.0
H1392 H 0.50297 0.7023 0.84803 0.0
H1393 H 0.4654 0.6882 0.84023 0.0
C1394 C 0.37005 0.6041 0.9274 0.0
C1395 C 0.37219 0.59127 0.89931 0.0
C1396 C 0.37976 0.62535 0.92178 0.0
C1397 C 0.39197 0.63447 0.88792 0.0
C1398 C 0.39384 0.62178 0.85901 0.0
C1399 C 0.38378 0.60022 0.86445 0.0
C1400 C 0.40437 0.65737 0.88604 0.0
C1401 C 0.426 0.66671 0.88679 0.0
C1402 C 0.39511 0.66974 0.89152 0.0
C1403 C 0.37237 0.66091 0.88932 0.0
C1404 C 0.36126 0.64947 0.85565 0.0
C1405 C 0.33995 0.64173 0.85307 0.0
C1406 C 0.32952 0.64517 0.88414 0.0
C1407 C 0.3404 0.65639 0.91786 0.0
C1408 C 0.36175 0.66431 0.92045 0.0
C1409 C 0.4697 0.75713 0.90128 0.0
C1410 C 0.46485 0.76413 0.9364 0.0
C1411 C 0.45803 0.73637 0.8899 0.0
C1412 C 0.44146 0.72224 0.91367 0.0
C1413 C 0.43651 0.72929 0.94859 0.0
C1414 C 0.4481 0.75006 0.95986 0.0
C1415 C 0.42923 0.70006 0.90248 0.0
C1416 C 0.40768 0.69092 0.89957 0.0
C1417 C 0.43855 0.68784 0.89556 0.0
C1418 C 0.46111 0.69627 0.90026 0.0
C1419 C 0.47103 0.70522 0.93664 0.0
C1420 C 0.49232 0.71322 0.94074 0.0
C1421 C 0.50383 0.71221 0.9088 0.0
C1422 C 0.49404 0.70312 0.87272 0.0
C1423 C 0.47276 0.69511 0.86844 0.0
H1424 H 0.52031 0.71841 0.91203 0.0
H1425 H 0.31303 0.63917 0.88207 0.0
H1426 H 0.44019 0.83582 0.9292 0.0
H1427 H 0.40246 0.81525 0.93032 0.0
H1428 H 0.40477 0.7663 0.86608 0.0
H1429 H 0.44278 0.78724 0.86419 0.0
H1430 H 0.36992 0.77054 0.8459 0.0
H1431 H 0.40349 0.76309 0.96171 0.0
H1432 H 0.42845 0.77604 0.01746 0.0
H1433 H 0.39793 0.80657 0.06774 0.0
H1434 H 0.37298 0.79411 0.0119 0.0
H1435 H 0.2749 0.70022 0.9775 0.0
H1436 H 0.31209 0.71655 0.96434 0.0
H1437 H 0.31073 0.76739 0.90595 0.0
H1438 H 0.27361 0.75117 0.91913 0.0
H1439 H 0.34504 0.75667 0.98644 0.0
H1440 H 0.3374 0.77724 0.82448 0.0
H1441 H 0.31171 0.76281 0.76989 0.0
H1442 H 0.29022 0.7013 0.81404 0.0
H1443 H 0.31576 0.71539 0.86877 0.0
C1444 C 0.43255 0.82101 0.91394 0.0
C1445 C 0.44414 0.81307 0.8963 0.0
C1446 C 0.41108 0.80924 0.91483 0.0
C1447 C 0.40093 0.78916 0.89892 0.0
C1448 C 0.41239 0.7818 0.87847 0.0
C1449 C 0.434 0.79375 0.87718 0.0
C1450 C 0.37882 0.77526 0.90802 0.0
C1451 C 0.3645 0.76741 0.87657 0.0
C1452 C 0.37181 0.77076 0.94812 0.0
C1453 C 0.38643 0.77777 0.98243 0.0
C1454 C 0.40215 0.77265 0.98453 0.0
C1455 C 0.4163 0.7799 0.01615 0.0
C1456 C 0.4148 0.79215 0.04607 0.0
C1457 C 0.39908 0.79709 0.04452 0.0
C1458 C 0.38491 0.78992 0.01291 0.0
C1459 C 0.28261 0.71497 0.96224 0.0
C1460 C 0.27146 0.72445 0.9493 0.0
C1461 C 0.30379 0.72424 0.95472 0.0
C1462 C 0.31401 0.74304 0.9339 0.0
C1463 C 0.30298 0.75273 0.92164 0.0
C1464 C 0.28184 0.7435 0.92925 0.0
C1465 C 0.33621 0.75258 0.92439 0.0
C1466 C 0.35053 0.7596 0.95579 0.0
C1467 C 0.34322 0.75592 0.88439 0.0
C1468 C 0.32847 0.74737 0.85059 0.0
C1469 C 0.32731 0.76064 0.82225 0.0
C1470 C 0.31272 0.75252 0.79141 0.0
C1471 C 0.29935 0.73116 0.78847 0.0
C1472 C 0.30055 0.71785 0.81635 0.0
C1473 C 0.31505 0.72589 0.84731 0.0
H1474 H 0.28806 0.72491 0.76462 0.0
H1475 H 0.42579 0.79778 0.07048 0.0
H1476 H 0.2087 0.0809 0.67941 0.0
H1477 H 0.2168 0.10489 0.62317 0.0
H1478 H 0.19048 0.05303 0.54159 0.0
H1479 H 0.18376 0.02945 0.59755 0.0
H1480 H 0.21877 0.08007 0.50445 0.0
H1481 H 0.16436 0.08342 0.57384 0.0
H1482 H 0.14398 0.08992 0.62381 0.0
H1483 H 0.19453 0.15173 0.64125 0.0
H1484 H 0.21509 0.14568 0.59093 0.0
H1485 H 0.18252 0.12051 0.35311 0.0
H1486 H 0.18822 0.10308 0.40899 0.0
H1487 H 0.23261 0.16216 0.4591 0.0
H1488 H 0.22689 0.1799 0.40241 0.0
H1489 H 0.20108 0.1357 0.5125 0.0
H1490 H 0.24888 0.12994 0.42355 0.0
H1491 H 0.25874 0.12126 0.35913 0.0
H1492 H 0.20977 0.05821 0.37076 0.0
H1493 H 0.19946 0.06655 0.43501 0.0
C1494 C 0.20536 0.07481 0.64923 0.0
C1495 C 0.19627 0.05342 0.64265 0.0
C1496 C 0.20954 0.08848 0.61704 0.0
C1497 C 0.20398 0.08097 0.57762 0.0
C1498 C 0.19519 0.05951 0.57128 0.0
C1499 C 0.19146 0.04596 0.60331 0.0
C1500 C 0.20718 0.09519 0.54297 0.0
C1501 C 0.21471 0.0921 0.5065 0.0
C1502 C 0.20233 0.11133 0.54485 0.0
C1503 C 0.19134 0.114 0.57908 0.0
C1504 C 0.17126 0.09826 0.5889 0.0
C1505 C 0.15959 0.10195 0.6169 0.0
C1506 C 0.16791 0.12127 0.63544 0.0
C1507 C 0.18807 0.13681 0.62668 0.0
C1508 C 0.19973 0.13328 0.5984 0.0
C1509 C 0.19388 0.12985 0.37552 0.0
C1510 C 0.20432 0.15161 0.37324 0.0
C1511 C 0.19717 0.11982 0.40747 0.0
C1512 C 0.21097 0.13122 0.43825 0.0
C1513 C 0.22198 0.15301 0.43556 0.0
C1514 C 0.21885 0.16314 0.40305 0.0
C1515 C 0.2122 0.1202 0.47455 0.0
C1516 C 0.20552 0.12391 0.51115 0.0
C1517 C 0.21685 0.10403 0.47225 0.0
C1518 C 0.22341 0.09889 0.43411 0.0
C1519 C 0.24019 0.11424 0.41233 0.0
C1520 C 0.24585 0.10938 0.37584 0.0
C1521 C 0.2349 0.0892 0.36088 0.0
C1522 C 0.21828 0.07382 0.38243 0.0
C1523 C 0.21255 0.0786 0.41893 0.0
H1524 H 0.23928 0.08548 0.33258 0.0
H1525 H 0.15874 0.12419 0.65667 0.0
H1526 H 0.98383 0.19299 0.62434 0.0
H1527 H 0.95919 0.17793 0.56816 0.0
H1528 H 0.95097 0.1178 0.59515 0.0
H1529 H 0.97481 0.13227 0.65054 0.0
H1530 H 0.96027 0.12795 0.51608 0.0
H1531 H 0.91416 0.12882 0.61735 0.0
H1532 H 0.90209 0.14551 0.66545 0.0
H1533 H 0.89731 0.1818 0.57088 0.0
H1534 H 0.90965 0.16552 0.52229 0.0
H1535 H 0.87581 0.04769 0.42674 0.0
H1536 H 0.89639 0.07237 0.47855 0.0
H1537 H 0.89274 0.12077 0.41533 0.0
H1538 H 0.87179 0.09576 0.3627 0.0
H1539 H 0.89196 0.12343 0.50303 0.0
H1540 H 0.9337 0.11874 0.40009 0.0
H1541 H 0.94454 0.10078 0.35239 0.0
H1542 H 0.95768 0.07166 0.44972 0.0
H1543 H 0.94659 0.08915 0.49802 0.0
C1544 C 0.97652 0.17653 0.61859 0.0
C1545 C 0.98159 0.16398 0.64197 0.0
C1546 C 0.96248 0.16794 0.5864 0.0
C1547 C 0.95337 0.14672 0.57707 0.0
C1548 C 0.95792 0.13421 0.60127 0.0
C1549 C 0.97165 0.14263 0.6332 0.0
C1550 C 0.93961 0.13712 0.54163 0.0
C1551 C 0.94537 0.12704 0.51324 0.0
C1552 C 0.92037 0.13633 0.53708 0.0
C1553 C 0.91313 0.1462 0.56632 0.0
C1554 C 0.91077 0.14054 0.6069 0.0
C1555 C 0.90382 0.14988 0.63423 0.0
C1556 C 0.89902 0.16477 0.62126 0.0
C1557 C 0.9011 0.17031 0.58091 0.0
C1558 C 0.90807 0.16103 0.55347 0.0
C1559 C 0.87887 0.06346 0.42429 0.0
C1560 C 0.87229 0.06981 0.39045 0.0
C1561 C 0.89074 0.0776 0.45391 0.0
C1562 C 0.89655 0.09854 0.45044 0.0
C1563 C 0.88857 0.1047 0.41847 0.0
C1564 C 0.87649 0.0904 0.38856 0.0
C1565 C 0.91243 0.11381 0.47844 0.0
C1566 C 0.9071 0.12484 0.50533 0.0
C1567 C 0.93216 0.11555 0.48167 0.0
C1568 C 0.93919 0.1052 0.45272 0.0
C1569 C 0.93877 0.10841 0.41134 0.0
C1570 C 0.94497 0.09832 0.38418 0.0
C1571 C 0.95177 0.08507 0.39801 0.0
C1572 C 0.95242 0.08193 0.43905 0.0
C1573 C 0.9462 0.09195 0.46634 0.0
H1574 H 0.95656 0.07728 0.37694 0.0
H1575 H 0.89362 0.17197 0.64245 0.0
H1576 H 0.89056 0.84058 0.67823 0.0
H1577 H 0.9077 0.83377 0.62304 0.0
H1578 H 0.85724 0.82255 0.54473 0.0
H1579 H 0.83965 0.82878 0.60078 0.0
H1580 H 0.87281 0.79773 0.52495 0.0
H1581 H 0.90133 0.87039 0.54949 0.0
H1582 H 0.91672 0.90218 0.59036 0.0
H1583 H 0.96861 0.89444 0.61758 0.0
H1584 H 0.95339 0.86244 0.57733 0.0
H1585 H 0.93295 0.82135 0.34456 0.0
H1586 H 0.91021 0.818 0.40047 0.0
H1587 H 0.96032 0.83365 0.48313 0.0
H1588 H 0.98311 0.83765 0.42698 0.0
H1589 H 0.94376 0.85582 0.4995 0.0
H1590 H 0.91526 0.78304 0.47495 0.0
H1591 H 0.89978 0.75124 0.43412 0.0
H1592 H 0.84818 0.75939 0.40633 0.0
H1593 H 0.8635 0.79139 0.44659 0.0
C1594 C 0.88276 0.83593 0.64958 0.0
C1595 C 0.86367 0.83499 0.6439 0.0
C1596 C 0.89271 0.8323 0.61786 0.0
C1597 C 0.88409 0.8282 0.5793 0.0
C1598 C 0.86429 0.82581 0.5741 0.0
C1599 C 0.85414 0.82918 0.60619 0.0
C1600 C 0.89647 0.8279 0.54437 0.0
C1601 C 0.88823 0.81053 0.51911 0.0
C1602 C 0.91678 0.84447 0.53686 0.0
C1603 C 0.92611 0.86389 0.56068 0.0
C1604 C 0.91596 0.87539 0.56439 0.0
C1605 C 0.92466 0.89346 0.58743 0.0
C1606 C 0.9436 0.90029 0.60664 0.0
C1607 C 0.95392 0.88911 0.60273 0.0
C1608 C 0.94527 0.87102 0.57978 0.0
C1609 C 0.93881 0.82334 0.37482 0.0
C1610 C 0.95957 0.82915 0.38165 0.0
C1611 C 0.92585 0.82151 0.40685 0.0
C1612 C 0.93336 0.82532 0.4464 0.0
C1613 C 0.95402 0.83053 0.45311 0.0
C1614 C 0.967 0.83256 0.42108 0.0
C1615 C 0.92031 0.82543 0.48037 0.0
C1616 C 0.92839 0.84292 0.50535 0.0
C1617 C 0.8999 0.80899 0.4875 0.0
C1618 C 0.89062 0.7897 0.46351 0.0
C1619 C 0.90068 0.77812 0.45992 0.0
C1620 C 0.89192 0.76005 0.43691 0.0
C1621 C 0.87303 0.75332 0.41758 0.0
C1622 C 0.86282 0.76462 0.4213 0.0
C1623 C 0.87152 0.78271 0.44424 0.0
H1624 H 0.86628 0.73933 0.39977 0.0
H1625 H 0.95031 0.91427 0.62449 0.0
H1626 H 0.04009 0.22174 0.93127 0.0
H1627 H 0.06467 0.22433 0.98251 0.0
H1628 H 0.09531 0.20614 0.89554 0.0
H1629 H 0.06938 0.20163 0.84559 0.0
H1630 H 0.09678 0.18978 0.95735 0.0
H1631 H 0.11416 0.26045 0.93606 0.0
H1632 H 0.10761 0.28967 0.93131 0.0
H1633 H 0.08728 0.2803 0.05348 0.0
H1634 H 0.09351 0.2509 0.05883 0.0
H1635 H 0.18713 0.22383 0.08163 0.0
H1636 H 0.16512 0.22421 0.02716 0.0
H1637 H 0.12069 0.22061 0.11365 0.0
H1638 H 0.14227 0.21988 0.16776 0.0
H1639 H 0.12837 0.2493 0.05093 0.0
H1640 H 0.11178 0.17819 0.06956 0.0
H1641 H 0.12056 0.15047 0.07304 0.0
H1642 H 0.14261 0.16312 0.95203 0.0
H1643 H 0.13426 0.19115 0.94805 0.0
C1644 C 0.05218 0.21844 0.9232 0.0
C1645 C 0.05304 0.21179 0.88436 0.0
C1646 C 0.06643 0.2201 0.95244 0.0
C1647 C 0.08255 0.21613 0.94309 0.0
C1648 C 0.08326 0.20944 0.90401 0.0
C1649 C 0.06852 0.207 0.87524 0.0
C1650 C 0.09835 0.21851 0.97393 0.0
C1651 C 0.1039 0.20308 0.97713 0.0
C1652 C 0.10769 0.23558 1.00074 0.0
C1653 C 0.10416 0.25339 0.99773 0.0
C1654 C 0.10822 0.26458 0.96185 0.0
C1655 C 0.10457 0.28117 0.95906 0.0
C1656 C 0.09699 0.28681 0.99204 0.0
C1657 C 0.09313 0.27591 0.02795 0.0
C1658 C 0.09675 0.25931 0.0309 0.0
C1659 C 0.17288 0.22357 0.089 0.0
C1660 C 0.16652 0.22191 0.12909 0.0
C1661 C 0.16022 0.2236 0.05785 0.0
C1662 C 0.14113 0.22229 0.06626 0.0
C1663 C 0.13529 0.22164 0.10632 0.0
C1664 C 0.1477 0.22124 0.13727 0.0
C1665 C 0.12673 0.22078 0.03367 0.0
C1666 C 0.12138 0.23626 0.03049 0.0
C1667 C 0.11791 0.204 1.00646 0.0
C1668 C 0.12261 0.18693 1.00866 0.0
C1669 C 0.11865 0.17518 0.0438 0.0
C1670 C 0.12353 0.15939 0.04585 0.0
C1671 C 0.1322 0.15509 0.01282 0.0
C1672 C 0.13593 0.1665 0.97762 0.0
C1673 C 0.13112 0.18233 0.97544 0.0
H1674 H 0.13599 0.14288 0.01448 0.0
H1675 H 0.09415 0.29963 0.9898 0.0
H1676 H 0.78502 0.96114 0.11398 0.0
H1677 H 0.78327 0.93776 0.05986 0.0
H1678 H 0.84842 0.96001 0.07349 0.0
H1679 H 0.85015 0.98262 0.12785 0.0
H1680 H 0.83012 0.95726 0.98787 0.0
H1681 H 0.82662 0.9198 0.1098 0.0
H1682 H 0.81173 0.90435 0.17528 0.0
H1683 H 0.75245 0.86624 0.12044 0.0
H1684 H 0.76697 0.88172 0.05466 0.0
H1685 H 0.85472 0.89027 0.88363 0.0
H1686 H 0.85132 0.91238 0.93295 0.0
H1687 H 0.7859 0.86913 0.94181 0.0
H1688 H 0.78925 0.84654 0.89284 0.0
H1689 H 0.80103 0.88227 0.0139 0.0
H1690 H 0.80574 0.91547 0.8899 0.0
H1691 H 0.82023 0.9307 0.82414 0.0
H1692 H 0.87569 0.97742 0.88039 0.0
H1693 H 0.86191 0.96207 0.94658 0.0
C1694 C 0.79892 0.96105 0.10526 0.0
C1695 C 0.81766 0.97362 0.12543 0.0
C1696 C 0.79792 0.94769 0.07444 0.0
C1697 C 0.81574 0.94716 0.06268 0.0
C1698 C 0.83451 0.96016 0.082 0.0
C1699 C 0.83541 0.97301 0.11325 0.0
C1700 C 0.81503 0.93279 0.03094 0.0
C1701 C 0.82383 0.94087 0.99347 0.0
C1702 C 0.80653 0.91138 0.03807 0.0
C1703 C 0.79778 0.90214 0.0775 0.0
C1704 C 0.81035 0.90832 0.11181 0.0
C1705 C 0.802 0.89951 0.14894 0.0
C1706 C 0.78113 0.88438 0.15205 0.0
C1707 C 0.76859 0.878 0.118 0.0
C1708 C 0.77687 0.88678 0.08079 0.0
C1709 C 0.83954 0.88537 0.89589 0.0
C1710 C 0.82222 0.86657 0.88382 0.0
C1711 C 0.83761 0.89817 0.9241 0.0
C1712 C 0.81827 0.89271 0.94079 0.0
C1713 C 0.80099 0.87381 0.92931 0.0
C1714 C 0.80291 0.86091 0.90112 0.0
C1715 C 0.81626 0.90667 0.97042 0.0
C1716 C 0.80707 0.89857 1.00774 0.0
C1717 C 0.82435 0.9281 0.96296 0.0
C1718 C 0.83283 0.93745 0.92326 0.0
C1719 C 0.82114 0.92884 0.88829 0.0
C1720 C 0.82926 0.93749 0.85092 0.0
C1721 C 0.84896 0.95492 0.84812 0.0
C1722 C 0.86055 0.96379 0.88269 0.0
C1723 C 0.85259 0.95512 0.92014 0.0
H1724 H 0.85521 0.96163 0.81918 0.0
H1725 H 0.7747 0.87756 0.18082 0.0
H1726 H 0.19296 0.97837 0.91668 0.0
H1727 H 0.1712 0.95372 0.96817 0.0
H1728 H 0.11703 0.94986 0.91361 0.0
H1729 H 0.1388 0.97521 0.86356 0.0
H1730 H 0.11196 0.95035 0.98748 0.0
H1731 H 0.13206 0.90996 0.90712 0.0
H1732 H 0.15628 0.90163 0.87311 0.0
H1733 H 0.18435 0.90258 0.98573 0.0
H1734 H 0.16044 0.91115 0.02035 0.0
H1735 H 0.04309 0.84757 0.08232 0.0
H1736 H 0.06577 0.87023 0.02868 0.0
H1737 H 0.11023 0.90963 0.11669 0.0
H1738 H 0.08746 0.88761 0.17017 0.0
H1739 H 0.11885 0.88985 0.02561 0.0
H1740 H 0.10082 0.93716 0.10133 0.0
H1741 H 0.07406 0.94266 0.13267 0.0
H1742 H 0.03931 0.92524 0.0233 0.0
H1743 H 0.06579 0.91939 0.99146 0.0
C1744 C 0.1764 0.97213 0.91549 0.0
C1745 C 0.1677 0.97875 0.88572 0.0
C1746 C 0.16387 0.9579 0.94495 0.0
C1747 C 0.14222 0.94944 0.9448 0.0
C1748 C 0.13358 0.95601 0.91483 0.0
C1749 C 0.14611 0.97051 0.88594 0.0
C1750 C 0.12857 0.93409 0.97598 0.0
C1751 C 0.11352 0.9371 0.99535 0.0
C1752 C 0.13027 0.9166 0.98697 0.0
C1753 C 0.14459 0.91137 0.96625 0.0
C1754 C 0.14348 0.90851 0.92458 0.0
C1755 C 0.15714 0.90373 0.90521 0.0
C1756 C 0.17188 0.90163 0.92723 0.0
C1757 C 0.17295 0.90424 0.9687 0.0
C1758 C 0.15933 0.90903 0.98822 0.0
C1759 C 0.0579 0.86082 0.09012 0.0
C1760 C 0.06354 0.86571 0.13051 0.0
C1761 C 0.07076 0.87384 0.0595 0.0
C1762 C 0.0896 0.89176 0.06872 0.0
C1763 C 0.09569 0.89604 0.10887 0.0
C1764 C 0.08271 0.88335 0.13939 0.0
C1765 C 0.10274 0.90643 0.03679 0.0
C1766 C 0.11751 0.90319 0.01739 0.0
C1767 C 0.1007 0.92357 0.02548 0.0
C1768 C 0.08505 0.92747 0.04431 0.0
C1769 C 0.08735 0.93426 0.08415 0.0
C1770 C 0.07225 0.93745 0.10199 0.0
C1771 C 0.05485 0.93402 0.08018 0.0
C1772 C 0.05268 0.92768 0.04029 0.0
C1773 C 0.06773 0.92444 0.02232 0.0
H1774 H 0.04317 0.93646 0.09408 0.0
H1775 H 0.18244 0.89793 0.91218 0.0
H1776 H 0.80382 0.88977 0.66576 0.0
H1777 H 0.79998 0.90949 0.6108 0.0
H1778 H 0.83718 0.89421 0.535 0.0
H1779 H 0.84167 0.87542 0.59017 0.0
H1780 H 0.85157 0.93304 0.53094 0.0
H1781 H 0.78225 0.87437 0.52283 0.0
H1782 H 0.74772 0.84916 0.54874 0.0
H1783 H 0.73656 0.89868 0.57853 0.0
H1784 H 0.77112 0.92419 0.5532 0.0
H1785 H 0.84236 0.96599 0.34331 0.0
H1786 H 0.83498 0.94227 0.39905 0.0
H1787 H 0.8078 0.97249 0.46447 0.0
H1788 H 0.81496 0.99632 0.40786 0.0
H1789 H 0.78751 0.92886 0.47825 0.0
H1790 H 0.85653 0.98717 0.48207 0.0
H1791 H 0.89071 0.01178 0.45395 0.0
H1792 H 0.90234 0.96189 0.43127 0.0
H1793 H 0.86809 0.93693 0.45869 0.0
C1794 C 0.81058 0.89013 0.63693 0.0
C1795 C 0.82282 0.88088 0.63199 0.0
C1796 C 0.80847 0.90148 0.60549 0.0
C1797 C 0.81827 0.90343 0.56841 0.0
C1798 C 0.82955 0.89316 0.56316 0.0
C1799 C 0.83194 0.88221 0.5946 0.0
C1800 C 0.81834 0.91732 0.53596 0.0
C1801 C 0.83746 0.93185 0.51923 0.0
C1802 C 0.80012 0.91652 0.52135 0.0
C1803 C 0.77934 0.90119 0.53648 0.0
C1804 C 0.77248 0.87988 0.53517 0.0
C1805 C 0.7529 0.86554 0.5497 0.0
C1806 C 0.73997 0.87231 0.56536 0.0
C1807 C 0.74659 0.89345 0.56643 0.0
C1808 C 0.76616 0.90785 0.55196 0.0
C1809 C 0.83428 0.96725 0.36909 0.0
C1810 C 0.82927 0.98306 0.3712 0.0
C1811 C 0.83017 0.95373 0.40108 0.0
C1812 C 0.82125 0.95585 0.43638 0.0
C1813 C 0.81478 0.97061 0.4376 0.0
C1814 C 0.81876 0.98414 0.40517 0.0
C1815 C 0.8206 0.94386 0.47265 0.0
C1816 C 0.80152 0.92995 0.49021 0.0
C1817 C 0.83886 0.94509 0.48805 0.0
C1818 C 0.85966 0.96015 0.4722 0.0
C1819 C 0.86632 0.98142 0.47089 0.0
C1820 C 0.88571 0.99544 0.45508 0.0
C1821 C 0.89867 0.9884 0.44077 0.0
C1822 C 0.89228 0.96733 0.44235 0.0
C1823 C 0.87289 0.95324 0.45807 0.0
H1824 H 0.91366 0.99927 0.42851 0.0
H1825 H 0.72481 0.86118 0.57658 0.0
H1826 H 0.03947 0.84341 0.40127 0.0
H1827 H 0.0645 0.85933 0.45644 0.0
H1828 H 0.08521 0.91975 0.40575 0.0
H1829 H 0.0613 0.90413 0.35073 0.0
H1830 H 0.11674 0.9204 0.43341 0.0
H1831 H 0.0487 0.89773 0.48558 0.0
H1832 H 0.01242 0.87231 0.50173 0.0
H1833 H 0.03253 0.83889 0.57619 0.0
H1834 H 0.06893 0.86396 0.55999 0.0
H1835 H 0.146 0.99031 0.59489 0.0
H1836 H 0.12787 0.9661 0.54062 0.0
H1837 H 0.13275 0.91834 0.6036 0.0
H1838 H 0.1513 0.94287 0.65854 0.0
H1839 H 0.09095 0.90674 0.573 0.0
H1840 H 0.16116 0.93662 0.52501 0.0
H1841 H 0.19581 0.96597 0.50974 0.0
H1842 H 0.16912 0.99023 0.42747 0.0
H1843 H 0.13429 0.96115 0.44261 0.0
C1844 C 0.04973 0.86002 0.40152 0.0
C1845 C 0.0482 0.87243 0.37156 0.0
C1846 C 0.06389 0.86918 0.43335 0.0
C1847 C 0.07665 0.8909 0.43592 0.0
C1848 C 0.0757 0.90304 0.40489 0.0
C1849 C 0.06181 0.89399 0.37331 0.0
C1850 C 0.09052 0.9015 0.47109 0.0
C1851 C 0.11101 0.91728 0.46387 0.0
C1852 C 0.08335 0.89754 0.5112 0.0
C1853 C 0.06151 0.88253 0.52111 0.0
C1854 C 0.04537 0.88486 0.50514 0.0
C1855 C 0.02479 0.87054 0.51433 0.0
C1856 C 0.02017 0.85395 0.53984 0.0
C1857 C 0.03613 0.8517 0.55633 0.0
C1858 C 0.05674 0.86596 0.54715 0.0
C1859 C 0.14352 0.97474 0.59706 0.0
C1860 C 0.15019 0.96856 0.63103 0.0
C1861 C 0.13309 0.96088 0.56595 0.0
C1862 C 0.12887 0.94035 0.56792 0.0
C1863 C 0.13581 0.93411 0.60144 0.0
C1864 C 0.1466 0.94817 0.63258 0.0
C1865 C 0.11687 0.92567 0.53494 0.0
C1866 C 0.09676 0.90933 0.54258 0.0
C1867 C 0.12411 0.92951 0.49502 0.0
C1868 C 0.14511 0.9467 0.48501 0.0
C1869 C 0.16268 0.94824 0.50374 0.0
C1870 C 0.18235 0.96483 0.49511 0.0
C1871 C 0.18466 0.97996 0.46765 0.0
C1872 C 0.16731 0.97848 0.44867 0.0
C1873 C 0.1476 0.96192 0.4572 0.0
H1874 H 0.1999 0.99282 0.46107 0.0
H1875 H 1.00424 0.84288 0.54693 0.0
H1876 H 0.18648 0.20754 0.41193 0.0
H1877 H 0.16977 0.21452 0.46849 0.0
H1878 H 0.11897 0.20418 0.39223 0.0
H1879 H 0.13514 0.19641 0.33622 0.0
H1880 H 0.13719 0.24138 0.45511 0.0
H1881 H 0.10601 0.16688 0.43525 0.0
H1882 H 0.1079 0.13512 0.42541 0.0
H1883 H 0.14072 0.14602 0.53636 0.0
H1884 H 0.13934 0.17808 0.54648 0.0
H1885 H 0.05691 0.22012 0.5985 0.0
H1886 H 0.07876 0.2235 0.54086 0.0
H1887 H 0.11324 0.20374 0.61424 0.0
H1888 H 0.0908 0.19941 0.67083 0.0
H1889 H 0.10412 0.18295 0.55089 0.0
H1890 H 0.13319 0.25574 0.57493 0.0
H1891 H 0.13256 0.28814 0.58522 0.0
H1892 H 0.10564 0.28189 0.46896 0.0
H1893 H 0.10586 0.24929 0.45819 0.0
C1894 C 0.17209 0.20742 0.40699 0.0
C1895 C 0.16222 0.20167 0.3696 0.0
C1896 C 0.1625 0.21128 0.43933 0.0
C1897 C 0.14315 0.20991 0.4345 0.0
C1898 C 0.13395 0.20548 0.39654 0.0
C1899 C 0.14323 0.2011 0.36457 0.0
C1900 C 0.13151 0.21092 0.46971 0.0
C1901 C 0.12983 0.22861 0.47603 0.0
C1902 C 0.12215 0.19436 0.49718 0.0
C1903 C 0.12285 0.17503 0.49132 0.0
C1904 C 0.11385 0.16264 0.45731 0.0
C1905 C 0.11477 0.14455 0.45173 0.0
C1906 C 0.1245 0.1386 0.48017 0.0
C1907 C 0.13325 0.15069 0.51431 0.0
C1908 C 0.13239 0.16881 0.51998 0.0
C1909 C 0.06962 0.21721 0.60248 0.0
C1910 C 0.07244 0.20989 0.63927 0.0
C1911 C 0.0821 0.21905 0.56948 0.0
C1912 C 0.09788 0.21398 0.57292 0.0
C1913 C 0.10122 0.20768 0.61043 0.0
C1914 C 0.08856 0.20546 0.64299 0.0
C1915 C 0.10993 0.2137 0.53728 0.0
C1916 C 0.11158 0.19595 0.5305 0.0
C1917 C 0.11938 0.23033 0.50966 0.0
C1918 C 0.11937 0.24999 0.51591 0.0
C1919 C 0.12701 0.26121 0.55167 0.0
C1920 C 0.12675 0.27961 0.55757 0.0
C1921 C 0.11902 0.28704 0.5278 0.0
C1922 C 0.1116 0.2761 0.49201 0.0
C1923 C 0.11181 0.25767 0.48597 0.0
H1924 H 0.11882 0.30129 0.53244 0.0
H1925 H 0.1252 0.1246 0.47581 0.0
H1926 H 0.94944 0.79863 0.1617 0.0
H1927 H 0.92368 0.79613 0.11324 0.0
H1928 H 0.97111 0.84966 0.05123 0.0
H1929 H 0.99631 0.85307 0.10149 0.0
H1930 H 0.94086 0.85379 0.04891 0.0
H1931 H 0.94612 0.79334 0.01914 0.0
H1932 H 0.94495 0.76036 0.03382 0.0
H1933 H 0.88146 0.73326 0.06988 0.0
H1934 H 0.88234 0.76614 0.05582 0.0
H1935 H 0.89378 0.84058 0.86088 0.0
H1936 H 0.91444 0.83956 0.91584 0.0
H1937 H 0.85904 0.7991 0.98148 0.0
H1938 H 0.83783 0.80005 0.92591 0.0
H1939 H 0.89001 0.78741 0.98569 0.0
H1940 H 0.88559 0.84895 1.00527 0.0
H1941 H 0.88835 0.88196 0.98464 0.0
H1942 H 0.9531 0.90743 0.96118 0.0
H1943 H 0.95068 0.87446 0.98106 0.0
C1944 C 0.95433 0.80979 0.1376 0.0
C1945 C 0.97496 0.826 0.13546 0.0
C1946 C 0.93958 0.80828 0.10952 0.0
C1947 C 0.94525 0.82243 0.07749 0.0
C1948 C 0.96601 0.83849 0.07535 0.0
C1949 C 0.98054 0.8404 0.10411 0.0
C1950 C 0.92976 0.82098 0.0467 0.0
C1951 C 0.93 0.83923 0.03489 0.0
C1952 C 0.91493 0.80202 0.02859 0.0
C1953 C 0.91437 0.78225 0.03685 0.0
C1954 C 0.93196 0.78037 0.03042 0.0
C1955 C 0.93134 0.7617 0.0386 0.0
C1956 C 0.91316 0.74475 0.05288 0.0
C1957 C 0.89554 0.74641 0.05888 0.0
C1958 C 0.89608 0.76505 0.05079 0.0
C1959 C 0.88576 0.83126 0.88672 0.0
C1960 C 0.86393 0.82041 0.88866 0.0
C1961 C 0.89774 0.83081 0.9184 0.0
C1962 C 0.88841 0.81952 0.95324 0.0
C1963 C 0.86665 0.80803 0.95501 0.0
C1964 C 0.85452 0.80857 0.92317 0.0
C1965 C 0.90165 0.8202 0.98761 0.0
C1966 C 0.90091 0.80187 1.00003 0.0
C1967 C 0.91636 0.83914 1.00561 0.0
C1968 C 0.9179 0.85913 0.99433 0.0
C1969 C 0.90039 0.86152 0.99545 0.0
C1970 C 0.9019 0.88024 0.98391 0.0
C1971 C 0.92088 0.89675 0.97148 0.0
C1972 C 0.93841 0.89462 0.97075 0.0
C1973 C 0.93697 0.87592 0.98219 0.0
H1974 H 0.92201 0.91122 0.96251 0.0
H1975 H 0.91271 0.73031 0.05922 0.0
H1976 H 0.17596 0.16113 0.10851 0.0
H1977 H 0.17968 0.13893 0.05987 0.0
H1978 H 0.24076 0.1581 0.10515 0.0
H1979 H 0.23752 0.18144 0.15248 0.0
H1980 H 0.24259 0.15433 0.03084 0.0
H1981 H 0.19447 0.10614 0.12577 0.0
H1982 H 0.16362 0.08956 0.16867 0.0
H1983 H 0.12455 0.07761 0.06621 0.0
H1984 H 0.15529 0.09376 0.02247 0.0
H1985 H 0.23946 0.06759 0.92082 0.0
H1986 H 0.24148 0.09051 0.97615 0.0
H1987 H 0.18741 0.09027 0.93045 0.0
H1988 H 0.1853 0.06796 0.87618 0.0
H1989 H 0.18452 0.08278 0.0107 0.0
H1990 H 0.23465 0.13169 0.91638 0.0
H1991 H 0.26629 0.14569 0.87545 0.0
H1992 H 0.30252 0.15452 0.98104 0.0
H1993 H 0.27102 0.14033 0.02255 0.0
C1994 C 0.19021 0.16064 0.10823 0.0
C1995 C 0.20637 0.17298 0.1348 0.0
C1996 C 0.19227 0.1477 0.08049 0.0
C1997 C 0.21027 0.14612 0.07929 0.0
C1998 C 0.22661 0.15877 0.10536 0.0
C1999 C 0.22474 0.17213 0.13257 0.0
C2000 C 0.21202 0.13151 0.0506 0.0
C2001 C 0.22999 0.13857 0.02713 0.0
C2002 C 0.19568 0.11085 0.04496 0.0
C2003 C 0.17717 0.10134 0.07099 0.0
C2004 C 0.1793 0.10009 0.11245 0.0
C2005 C 0.16182 0.09073 0.13691 0.0
C2006 C 0.1421 0.08274 0.12031 0.0
C2007 C 0.13983 0.08387 0.07907 0.0
C2008 C 0.15727 0.09301 0.05439 0.0
C2009 C 0.2281 0.07252 0.92258 0.0
C2010 C 0.21234 0.06593 0.89362 0.0
C2011 C 0.22927 0.08565 0.95416 0.0
C2012 C 0.21458 0.09219 0.95752 0.0
C2013 C 0.19891 0.0855 0.92875 0.0
C2014 C 0.19785 0.07272 0.89737 0.0
C2015 C 0.21486 0.10573 0.99082 0.0
C2016 C 0.19721 0.09846 0.015 0.0
C2017 C 0.23157 0.126 0.99738 0.0
C2018 C 0.25048 0.13476 0.97249 0.0
C2019 C 0.24935 0.13649 0.93082 0.0
C2020 C 0.26725 0.14448 0.90753 0.0
C2021 C 0.28639 0.15094 0.92562 0.0
C2022 C 0.28768 0.14949 0.96706 0.0
C2023 C 0.26981 0.14149 0.99049 0.0
H2024 H 0.30024 0.15711 0.90753 0.0
H2025 H 0.12857 0.07558 0.13932 0.0
H2026 H 0.98367 0.19105 0.9339 0.0
H2027 H 0.96083 0.16926 0.98815 0.0
H2028 H 0.92009 0.1248 0.90142 0.0
H2029 H 0.94306 0.14603 0.84746 0.0
H2030 H 0.90054 0.1367 0.96834 0.0
H2031 H 0.9483 0.11187 0.94031 0.0
H2032 H 0.98316 0.11645 0.93254 0.0
H2033 H 0.99793 0.1384 0.05345 0.0
H2034 H 0.96322 0.13425 0.06171 0.0
H2035 H 0.83577 0.04933 0.08757 0.0
H2036 H 0.85792 0.07349 0.03602 0.0
H2037 H 0.90939 0.09893 0.1184 0.0
H2038 H 0.88761 0.0734 0.1685 0.0
H2039 H 0.9245 0.09868 0.05419 0.0
H2040 H 0.87808 0.12365 0.08561 0.0
H2041 H 0.84432 0.12146 0.09537 0.0
H2042 H 0.82831 0.10292 0.97298 0.0
H2043 H 0.8619 0.10479 0.96262 0.0
C2044 C 0.96963 0.17683 0.92643 0.0
C2045 C 0.9651 0.17033 0.88637 0.0
C2046 C 0.95669 0.16433 0.95743 0.0
C2047 C 0.93877 0.14536 0.94882 0.0
C2048 C 0.93378 0.13936 0.90877 0.0
C2049 C 0.94692 0.15154 0.87797 0.0
C2050 C 0.92558 0.13128 0.98136 0.0
C2051 C 0.90568 0.12829 0.9871 0.0
C2052 C 0.93246 0.12066 1.00635 0.0
C2053 C 0.95326 0.12301 1.00146 0.0
C2054 C 0.95905 0.11788 0.9651 0.0
C2055 C 0.97877 0.12035 0.96064 0.0
C2056 C 0.99278 0.12778 0.99244 0.0
C2057 C 0.98707 0.13269 0.02882 0.0
C2058 C 0.96738 0.13027 0.03341 0.0
C2059 C 0.85178 0.06023 0.09468 0.0
C2060 C 0.85989 0.05965 0.13223 0.0
C2061 C 0.86449 0.07423 0.06523 0.0
C2062 C 0.88543 0.08871 0.07318 0.0
C2063 C 0.8934 0.08812 0.11103 0.0
C2064 C 0.88089 0.0736 0.13991 0.0
C2065 C 0.89914 0.10402 0.04199 0.0
C2066 C 0.91923 0.1072 0.03614 0.0
C2067 C 0.89255 0.11517 0.01739 0.0
C2068 C 0.87243 0.1142 0.02346 0.0
C2069 C 0.86732 0.11902 0.06085 0.0
C2070 C 0.84822 0.11784 0.06648 0.0
C2071 C 0.83416 0.11201 0.03484 0.0
C2072 C 0.83921 0.10741 0.99747 0.0
C2073 C 0.85828 0.10856 0.99168 0.0
H2074 H 0.81937 0.11109 0.03927 0.0
H2075 H 0.00804 0.12968 0.98894 0.0
H2076 H 0.891 0.40099 0.99145 0.0
H2077 H 0.90097 0.42583 0.93546 0.0
H2078 H 0.84164 0.38686 0.88012 0.0
H2079 H 0.83182 0.36245 0.9351 0.0
H2080 H 0.87138 0.40053 0.82557 0.0
H2081 H 0.85073 0.42892 0.93384 0.0
H2082 H 0.8527 0.44267 1.00174 0.0
H2083 H 0.91489 0.49135 0.97934 0.0
H2084 H 0.91335 0.4777 0.9114 0.0
H2085 H 0.83704 0.45301 0.70938 0.0
H2086 H 0.84404 0.43608 0.7634 0.0
H2087 H 0.9061 0.48776 0.77359 0.0
H2088 H 0.89895 0.50561 0.71883 0.0
H2089 H 0.88502 0.47191 0.84935 0.0
H2090 H 0.89964 0.44415 0.73142 0.0
H2091 H 0.89208 0.4293 0.66346 0.0
H2092 H 0.83531 0.37758 0.70507 0.0
H2093 H 0.8424 0.39222 0.77315 0.0
C2094 C 0.88034 0.39766 0.96688 0.0
C2095 C 0.86065 0.3798 0.96765 0.0
C2096 C 0.88594 0.4119 0.93512 0.0
C2097 C 0.872 0.4083 0.90356 0.0
C2098 C 0.85271 0.39005 0.90387 0.0
C2099 C 0.8471 0.37609 0.93547 0.0
C2100 C 0.87672 0.42341 0.87032 0.0
C2101 C 0.87457 0.41621 0.83085 0.0
C2102 C 0.88108 0.44398 0.87695 0.0
C2103 C 0.88206 0.45211 0.9178 0.0
C2104 C 0.8649 0.44243 0.94355 0.0
C2105 C 0.86592 0.45023 0.982 0.0
C2106 C 0.88395 0.46782 0.99492 0.0
C2107 C 0.90096 0.47768 0.96934 0.0
C2108 C 0.90003 0.46992 0.93086 0.0
C2109 C 0.85229 0.46104 0.72273 0.0
C2110 C 0.86747 0.48083 0.7093 0.0
C2111 C 0.85627 0.45114 0.75378 0.0
C2112 C 0.87567 0.46041 0.77231 0.0
C2113 C 0.89101 0.48023 0.75951 0.0
C2114 C 0.88698 0.49034 0.72804 0.0
C2115 C 0.87926 0.44882 0.80477 0.0
C2116 C 0.88273 0.45656 0.84404 0.0
C2117 C 0.87557 0.42848 0.79814 0.0
C2118 C 0.8716 0.4193 0.75743 0.0
C2119 C 0.88554 0.42962 0.72607 0.0
C2120 C 0.88133 0.42124 0.68752 0.0
C2121 C 0.86324 0.4025 0.67996 0.0
C2122 C 0.84934 0.39207 0.71098 0.0
C2123 C 0.85349 0.40037 0.74958 0.0
H2124 H 0.85998 0.39607 0.65008 0.0
H2125 H 0.88471 0.47385 0.02469 0.0
H2126 H 0.57199 0.4307 0.67926 0.0
H2127 H 0.59168 0.45213 0.73614 0.0
H2128 H 0.54175 0.41253 0.81527 0.0
H2129 H 0.52177 0.3914 0.75777 0.0
H2130 H 0.55856 0.45017 0.84234 0.0
H2131 H 0.58401 0.40728 0.79973 0.0
H2132 H 0.59799 0.3907 0.75592 0.0
H2133 H 0.65355 0.44908 0.73915 0.0
H2134 H 0.63954 0.46628 0.7813 0.0
H2135 H 0.62764 0.47102 0.01256 0.0
H2136 H 0.60363 0.45449 0.95673 0.0
H2137 H 0.64094 0.50771 0.88287 0.0
H2138 H 0.66479 0.52464 0.93929 0.0
H2139 H 0.63019 0.463 0.85526 0.0
H2140 H 0.60019 0.5042 0.90193 0.0
H2141 H 0.58502 0.5159 0.95408 0.0
H2142 H 0.5369 0.45313 0.97382 0.0
H2143 H 0.55197 0.44104 0.92218 0.0
C2144 C 0.5649 0.42709 0.70862 0.0
C2145 C 0.54516 0.40973 0.71402 0.0
C2146 C 0.57631 0.43913 0.74127 0.0
C2147 C 0.56847 0.43377 0.78034 0.0
C2148 C 0.54821 0.41705 0.78554 0.0
C2149 C 0.53668 0.40508 0.75265 0.0
C2150 C 0.58183 0.445 0.81556 0.0
C2151 C 0.57417 0.45283 0.84507 0.0
C2152 C 0.60223 0.44835 0.81982 0.0
C2153 C 0.61051 0.43818 0.79323 0.0
C2154 C 0.59903 0.41671 0.78608 0.0
C2155 C 0.60697 0.40718 0.76151 0.0
C2156 C 0.62657 0.41886 0.74446 0.0
C2157 C 0.63828 0.44009 0.75206 0.0
C2158 C 0.6303 0.44976 0.77613 0.0
C2159 C 0.63038 0.47947 0.98478 0.0
C2160 C 0.64792 0.49927 0.98049 0.0
C2161 C 0.61672 0.46995 0.95285 0.0
C2162 C 0.62049 0.47984 0.91562 0.0
C2163 C 0.63771 0.49984 0.91142 0.0
C2164 C 0.65118 0.5096 0.94375 0.0
C2165 C 0.60711 0.46868 0.8807 0.0
C2166 C 0.61469 0.46057 0.85175 0.0
C2167 C 0.58646 0.4644 0.87771 0.0
C2168 C 0.57731 0.47171 0.90845 0.0
C2169 C 0.58648 0.49288 0.91764 0.0
C2170 C 0.57787 0.49959 0.94705 0.0
C2171 C 0.56003 0.48527 0.96732 0.0
C2172 C 0.55072 0.46421 0.95813 0.0
C2173 C 0.55928 0.45743 0.92876 0.0
H2174 H 0.55339 0.49049 0.99008 0.0
H2175 H 0.63272 0.41145 0.72556 0.0
H2176 H 0.60199 0.1449 0.68263 0.0
H2177 H 0.57791 0.13996 0.73756 0.0
H2178 H 0.62928 0.18243 0.81082 0.0
H2179 H 0.65312 0.18768 0.75613 0.0
H2180 H 0.60056 0.14764 0.8531 0.0
H2181 H 0.60246 0.1995 0.76503 0.0
H2182 H 0.59875 0.21347 0.70073 0.0
H2183 H 0.53459 0.1667 0.69581 0.0
H2184 H 0.53799 0.15223 0.75986 0.0
H2185 H 0.56519 0.1892 0.99952 0.0
H2186 H 0.58098 0.18146 0.94388 0.0
H2187 H 0.52126 0.14572 0.8879 0.0
H2188 H 0.50521 0.15412 0.94394 0.0
H2189 H 0.54967 0.17114 0.83416 0.0
H2190 H 0.54789 0.12221 0.92891 0.0
H2191 H 0.55296 0.11032 0.9945 0.0
H2192 H 0.61819 0.15332 0.98782 0.0
H2193 H 0.61349 0.16566 0.92241 0.0
C2194 C 0.60812 0.15275 0.71082 0.0
C2195 C 0.62945 0.16654 0.71519 0.0
C2196 C 0.59435 0.15011 0.74204 0.0
C2197 C 0.60174 0.16094 0.77836 0.0
C2198 C 0.62315 0.17389 0.78325 0.0
C2199 C 0.63678 0.17683 0.75196 0.0
C2200 C 0.58741 0.15959 0.81097 0.0
C2201 C 0.58941 0.15276 0.84893 0.0
C2202 C 0.57259 0.16595 0.80554 0.0
C2203 C 0.57055 0.17457 0.76694 0.0
C2204 C 0.58761 0.19203 0.75002 0.0
C2205 C 0.58556 0.20008 0.71367 0.0
C2206 C 0.56648 0.19092 0.6941 0.0
C2207 C 0.54939 0.17373 0.71093 0.0
C2208 C 0.55136 0.1656 0.74726 0.0
C2209 C 0.55523 0.17934 0.97582 0.0
C2210 C 0.53384 0.17216 0.9765 0.0
C2211 C 0.56435 0.17484 0.94388 0.0
C2212 C 0.5524 0.16273 0.9116 0.0
C2213 C 0.53087 0.155 0.91249 0.0
C2214 C 0.52164 0.15957 0.94477 0.0
C2215 C 0.56289 0.15929 0.87656 0.0
C2216 C 0.56036 0.16544 0.83817 0.0
C2217 C 0.57738 0.15244 0.88161 0.0
C2218 C 0.58031 0.14489 0.92078 0.0
C2219 C 0.56331 0.12919 0.9415 0.0
C2220 C 0.56612 0.12237 0.97865 0.0
C2221 C 0.58588 0.13107 0.99533 0.0
C2222 C 0.60289 0.14658 0.97485 0.0
C2223 C 0.60017 0.15346 0.93769 0.0
H2224 H 0.58802 0.12577 0.0241 0.0
H2225 H 0.56492 0.19719 0.66598 0.0
H2226 H 0.70917 0.51255 0.2262 0.0
H2227 H 0.73508 0.51636 0.27521 0.0
H2228 H 0.76595 0.58265 0.26201 0.0
H2229 H 0.73977 0.57904 0.21343 0.0
H2230 H 0.77734 0.53324 0.27147 0.0
H2231 H 0.77919 0.60276 0.3319 0.0
H2232 H 0.75623 0.61685 0.34707 0.0
H2233 H 0.70868 0.55671 0.3855 0.0
H2234 H 0.73127 0.54228 0.36978 0.0
H2235 H 0.85838 0.56396 0.41817 0.0
H2236 H 0.83744 0.56532 0.36265 0.0
H2237 H 0.78512 0.54407 0.44175 0.0
H2238 H 0.80575 0.54308 0.49678 0.0
H2239 H 0.78587 0.57235 0.3967 0.0
H2240 H 0.79088 0.51148 0.37492 0.0
H2241 H 0.80854 0.49145 0.36409 0.0
H2242 H 0.83573 0.52538 0.25613 0.0
H2243 H 0.8185 0.54587 0.2667 0.0
C2244 C 0.72143 0.52801 0.23363 0.0
C2245 C 0.7222 0.54551 0.2158 0.0
C2246 C 0.73633 0.53013 0.26169 0.0
C2247 C 0.75242 0.54979 0.27287 0.0
C2248 C 0.75347 0.5673 0.25468 0.0
C2249 C 0.7385 0.56521 0.22667 0.0
C2250 C 0.76778 0.55191 0.30405 0.0
C2251 C 0.77945 0.54204 0.29861 0.0
C2252 C 0.77021 0.56282 0.34004 0.0
C2253 C 0.75679 0.5715 0.34956 0.0
C2254 C 0.76383 0.59261 0.34362 0.0
C2255 C 0.75087 0.60062 0.35214 0.0
C2256 C 0.731 0.58768 0.3672 0.0
C2257 C 0.72403 0.5667 0.37365 0.0
C2258 C 0.73685 0.55858 0.36476 0.0
C2259 C 0.84252 0.55992 0.42382 0.0
C2260 C 0.83387 0.55345 0.46217 0.0
C2261 C 0.83047 0.56051 0.39193 0.0
C2262 C 0.80952 0.5546 0.39769 0.0
C2263 C 0.80117 0.54877 0.43623 0.0
C2264 C 0.8131 0.54818 0.46786 0.0
C2265 C 0.79593 0.55402 0.36406 0.0
C2266 C 0.78433 0.564 0.36918 0.0
C2267 C 0.79324 0.5427 0.32827 0.0
C2268 C 0.80363 0.53041 0.3219 0.0
C2269 C 0.80078 0.5148 0.34907 0.0
C2270 C 0.81067 0.50334 0.34293 0.0
C2271 C 0.8233 0.50718 0.30951 0.0
C2272 C 0.82599 0.52245 0.28207 0.0
C2273 C 0.81617 0.53401 0.28812 0.0
H2274 H 0.83097 0.49831 0.30482 0.0
H2275 H 0.72102 0.59392 0.3739 0.0
H2276 H 0.4727 0.28016 0.50121 0.0
H2277 H 0.47197 0.2571 0.44862 0.0
H2278 H 0.48787 0.30543 0.36141 0.0
H2279 H 0.4869 0.3279 0.41392 0.0
H2280 H 0.46584 0.27333 0.32507 0.0
H2281 H 0.52397 0.29059 0.40749 0.0
H2282 H 0.54424 0.29459 0.46848 0.0
H2283 H 0.50976 0.22892 0.48772 0.0
H2284 H 0.48905 0.22454 0.42723 0.0
H2285 H 0.51112 0.22966 0.1915 0.0
H2286 H 0.50787 0.25156 0.24226 0.0
H2287 H 0.46252 0.19719 0.30474 0.0
H2288 H 0.4652 0.17509 0.25327 0.0
H2289 H 0.50028 0.23244 0.3517 0.0
H2290 H 0.44307 0.21859 0.26174 0.0
H2291 H 0.42885 0.21846 0.19511 0.0
H2292 H 0.47023 0.28396 0.18486 0.0
H2293 H 0.4849 0.28441 0.25121 0.0
C2294 C 0.47555 0.28566 0.47061 0.0
C2295 C 0.47964 0.30577 0.46166 0.0
C2296 C 0.47552 0.27257 0.44049 0.0
C2297 C 0.48059 0.27955 0.40074 0.0
C2298 C 0.48399 0.29948 0.3916 0.0
C2299 C 0.48334 0.31236 0.42164 0.0
C2300 C 0.48246 0.26616 0.36907 0.0
C2301 C 0.47361 0.26464 0.33112 0.0
C2302 C 0.49265 0.25464 0.37606 0.0
C2303 C 0.5048 0.25726 0.41298 0.0
C2304 C 0.52056 0.27702 0.42493 0.0
C2305 C 0.53216 0.27935 0.45938 0.0
C2306 C 0.52826 0.26202 0.48195 0.0
C2307 C 0.51274 0.24233 0.47021 0.0
C2308 C 0.50107 0.23991 0.43584 0.0
C2309 C 0.50033 0.22231 0.21589 0.0
C2310 C 0.48835 0.20055 0.21812 0.0
C2311 C 0.49851 0.23489 0.24491 0.0
C2312 C 0.48497 0.22607 0.27739 0.0
C2313 C 0.47307 0.20437 0.27995 0.0
C2314 C 0.47453 0.19174 0.25038 0.0
C2315 C 0.48339 0.23954 0.3087 0.0
C2316 C 0.49246 0.24114 0.34625 0.0
C2317 C 0.4742 0.25176 0.30089 0.0
C2318 C 0.4652 0.25149 0.26125 0.0
C2319 C 0.44925 0.23292 0.24512 0.0
C2320 C 0.44109 0.2328 0.20744 0.0
C2321 C 0.44867 0.25118 0.18572 0.0
C2322 C 0.46439 0.26973 0.20169 0.0
C2323 C 0.47261 0.26993 0.23935 0.0
H2324 H 0.44233 0.25106 0.15655 0.0
H2325 H 0.53732 0.2638 0.50843 0.0
H2326 H 0.74387 0.23039 0.48868 0.0
H2327 H 0.76461 0.2503 0.43218 0.0
H2328 H 0.74411 0.1942 0.36461 0.0
H2329 H 0.72273 0.17372 0.42169 0.0
H2330 H 0.78911 0.22547 0.35994 0.0
H2331 H 0.72259 0.22058 0.34365 0.0
H2332 H 0.69283 0.22314 0.36826 0.0
H2333 H 0.73261 0.28787 0.39198 0.0
H2334 H 0.76273 0.28562 0.3686 0.0
H2335 H 0.83694 0.28658 0.18559 0.0
H2336 H 0.81363 0.26013 0.23302 0.0
H2337 H 0.80689 0.30658 0.29737 0.0
H2338 H 0.8287 0.33245 0.24812 0.0
H2339 H 0.77266 0.27607 0.29893 0.0
H2340 H 0.8387 0.28215 0.32772 0.0
H2341 H 0.87082 0.28168 0.31295 0.0
H2342 H 0.83525 0.21833 0.27499 0.0
H2343 H 0.80293 0.21851 0.28913 0.0
C2344 C 0.74377 0.22204 0.46212 0.0
C2345 C 0.73146 0.20027 0.46004 0.0
C2346 C 0.75568 0.23359 0.42962 0.0
C2347 C 0.75581 0.22384 0.39392 0.0
C2348 C 0.74421 0.20208 0.39186 0.0
C2349 C 0.732 0.19039 0.42452 0.0
C2350 C 0.76774 0.23678 0.35893 0.0
C2351 C 0.78533 0.23627 0.34594 0.0
C2352 C 0.76323 0.2514 0.34166 0.0
C2353 C 0.74497 0.25289 0.3545 0.0
C2354 C 0.72503 0.23534 0.35428 0.0
C2355 C 0.70809 0.23673 0.368 0.0
C2356 C 0.71083 0.25565 0.38155 0.0
C2357 C 0.73051 0.27323 0.38141 0.0
C2358 C 0.74753 0.2719 0.36793 0.0
C2359 C 0.83049 0.29109 0.20997 0.0
C2360 C 0.83473 0.31163 0.21311 0.0
C2361 C 0.81723 0.27595 0.23743 0.0
C2362 C 0.80857 0.28116 0.26979 0.0
C2363 C 0.81308 0.30184 0.27292 0.0
C2364 C 0.82573 0.31675 0.24476 0.0
C2365 C 0.79461 0.26529 0.30007 0.0
C2366 C 0.77652 0.26521 0.31234 0.0
C2367 C 0.79901 0.25054 0.31751 0.0
C2368 C 0.81842 0.25042 0.30902 0.0
C2369 C 0.83775 0.26817 0.31597 0.0
C2370 C 0.85598 0.26795 0.30775 0.0
C2371 C 0.85507 0.25001 0.29291 0.0
C2372 C 0.83593 0.23223 0.28639 0.0
C2373 C 0.81765 0.23238 0.29452 0.0
H2374 H 0.8692 0.24987 0.28656 0.0
H2375 H 0.69769 0.25668 0.39219 0.0
H2376 H 0.48003 0.32878 0.73555 0.0
H2377 H 0.47082 0.30341 0.79006 0.0
H2378 H 0.50903 0.28171 0.73661 0.0
H2379 H 0.51792 0.3065 0.68256 0.0
H2380 H 0.47564 0.24994 0.76488 0.0
H2381 H 0.5265 0.31682 0.81358 0.0
H2382 H 0.54082 0.35384 0.82899 0.0
H2383 H 0.49032 0.33872 0.90913 0.0
H2384 H 0.47552 0.30159 0.8937 0.0
H2385 H 0.5125 0.21395 0.92152 0.0
H2386 H 0.50752 0.23294 0.86746 0.0
H2387 H 0.46202 0.23809 0.93806 0.0
H2388 H 0.46704 0.21882 0.9928 0.0
H2389 H 0.49296 0.27643 0.90384 0.0
H2390 H 0.44622 0.20718 0.85941 0.0
H2391 H 0.43671 0.17115 0.84514 0.0
H2392 H 0.48445 0.19194 0.75624 0.0
H2393 H 0.49459 0.22823 0.77067 0.0
C2394 C 0.48603 0.31825 0.73506 0.0
C2395 C 0.49977 0.31974 0.70478 0.0
C2396 C 0.48094 0.30389 0.76642 0.0
C2397 C 0.48943 0.29074 0.76787 0.0
C2398 C 0.50225 0.29158 0.73643 0.0
C2399 C 0.50738 0.30588 0.70548 0.0
C2400 C 0.48605 0.27675 0.80264 0.0
C2401 C 0.47938 0.25578 0.79524 0.0
C2402 C 0.49081 0.28418 0.84249 0.0
C2403 C 0.49974 0.30646 0.85205 0.0
C2404 C 0.51835 0.3214 0.83423 0.0
C2405 C 0.52657 0.3424 0.843 0.0
C2406 C 0.51644 0.34863 0.8699 0.0
C2407 C 0.49812 0.33387 0.8882 0.0
C2408 C 0.4898 0.31284 0.87946 0.0
C2409 C 0.50101 0.21863 0.92517 0.0
C2410 C 0.48991 0.21459 0.96115 0.0
C2411 C 0.49825 0.2296 0.89427 0.0
C2412 C 0.48435 0.23695 0.8985 0.0
C2413 C 0.4728 0.23253 0.93406 0.0
C2414 C 0.47543 0.22127 0.96506 0.0
C2415 C 0.48264 0.24972 0.86591 0.0
C2416 C 0.48861 0.27049 0.87365 0.0
C2417 C 0.47772 0.24225 0.82617 0.0
C2418 C 0.47118 0.22044 0.81622 0.0
C2419 C 0.45473 0.20408 0.83687 0.0
C2420 C 0.44923 0.1836 0.82876 0.0
C2421 C 0.45993 0.17921 0.79973 0.0
C2422 C 0.47614 0.19535 0.77867 0.0
C2423 C 0.48176 0.21589 0.78679 0.0
H2424 H 0.45566 0.16332 0.79357 0.0
H2425 H 0.52282 0.3649 0.87664 0.0
H2426 H 0.80313 0.27018 0.99984 0.0
H2427 H 0.78301 0.24843 0.9432 0.0
H2428 H 0.81007 0.30212 0.86644 0.0
H2429 H 0.82947 0.32378 0.92331 0.0
H2430 H 0.77095 0.28288 0.85545 0.0
H2431 H 0.821 0.26082 0.85901 0.0
H2432 H 0.84166 0.24734 0.89004 0.0
H2433 H 0.78621 0.1908 0.92 0.0
H2434 H 0.76515 0.20418 0.88939 0.0
H2435 H 0.73317 0.23652 0.67042 0.0
H2436 H 0.75716 0.25312 0.72576 0.0
H2437 H 0.72362 0.19762 0.79628 0.0
H2438 H 0.69988 0.18057 0.73984 0.0
H2439 H 0.76437 0.21619 0.81268 0.0
H2440 H 0.71455 0.23911 0.80496 0.0
H2441 H 0.69527 0.25332 0.77014 0.0
H2442 H 0.75209 0.30944 0.74559 0.0
H2443 H 0.77175 0.29542 0.77954 0.0
C2444 C 0.80533 0.27711 0.97049 0.0
C2445 C 0.81827 0.29854 0.96566 0.0
C2446 C 0.79371 0.26471 0.93809 0.0
C2447 C 0.79497 0.27351 0.90014 0.0
C2448 C 0.80866 0.29485 0.89519 0.0
C2449 C 0.82003 0.3072 0.92757 0.0
C2450 C 0.78121 0.26098 0.86622 0.0
C2451 C 0.76979 0.26845 0.84588 0.0
C2452 C 0.77902 0.24176 0.8541 0.0
C2453 C 0.79153 0.23357 0.87229 0.0
C2454 C 0.81321 0.24557 0.87246 0.0
C2455 C 0.825 0.23792 0.88997 0.0
C2456 C 0.81528 0.2182 0.90715 0.0
C2457 C 0.79372 0.20608 0.90674 0.0
C2458 C 0.78185 0.21368 0.88927 0.0
C2459 C 0.73119 0.22765 0.69738 0.0
C2460 C 0.71463 0.20723 0.70079 0.0
C2461 C 0.74482 0.23724 0.72922 0.0
C2462 C 0.74189 0.2269 0.76583 0.0
C2463 C 0.72613 0.20602 0.76853 0.0
C2464 C 0.71263 0.19623 0.7362 0.0
C2465 C 0.75454 0.23836 0.80157 0.0
C2466 C 0.76556 0.23062 0.82239 0.0
C2467 C 0.7565 0.25744 0.81401 0.0
C2468 C 0.74463 0.26615 0.79461 0.0
C2469 C 0.72294 0.25445 0.792 0.0
C2470 C 0.71195 0.26246 0.77234 0.0
C2471 C 0.72246 0.28224 0.7555 0.0
C2472 C 0.74397 0.2941 0.75849 0.0
C2473 C 0.75505 0.28614 0.77799 0.0
H2474 H 0.71393 0.2884 0.74021 0.0
H2475 H 0.82442 0.21226 0.92066 0.0
H2476 H 0.72405 0.55425 0.93307 0.0
H2477 H 0.746 0.5576 0.87529 0.0
H2478 H 0.77865 0.53528 0.94727 0.0
H2479 H 0.7566 0.5316 1.0044 0.0
H2480 H 0.80509 0.56757 0.89639 0.0
H2481 H 0.74054 0.50261 0.89003 0.0
H2482 H 0.70258 0.48065 0.88727 0.0
H2483 H 0.70117 0.51054 0.77861 0.0
H2484 H 0.73912 0.53293 0.78109 0.0
H2485 H 0.84944 0.5309 0.7517 0.0
H2486 H 0.83254 0.53768 0.80766 0.0
H2487 H 0.79138 0.54358 0.72499 0.0
H2488 H 0.80737 0.53527 0.66961 0.0
H2489 H 0.76935 0.52214 0.78049 0.0
H2490 H 0.83373 0.58643 0.78404 0.0
H2491 H 0.87166 0.60882 0.78632 0.0
H2492 H 0.87356 0.58178 0.89839 0.0
H2493 H 0.83567 0.55905 0.89655 0.0
C2494 C 0.73639 0.55076 0.93678 0.0
C2495 C 0.7389 0.54305 0.97339 0.0
C2496 C 0.74876 0.55243 0.90368 0.0
C2497 C 0.76395 0.54657 0.90677 0.0
C2498 C 0.76716 0.53998 0.94404 0.0
C2499 C 0.75462 0.53799 0.97676 0.0
C2500 C 0.7756 0.54586 0.87098 0.0
C2501 C 0.7973 0.55762 0.87102 0.0
C2502 C 0.76549 0.53313 0.83752 0.0
C2503 C 0.74266 0.51965 0.83604 0.0
C2504 C 0.73213 0.50466 0.86577 0.0
C2505 C 0.71061 0.4921 0.86422 0.0
C2506 C 0.69946 0.49425 0.83287 0.0
C2507 C 0.70982 0.50893 0.80294 0.0
C2508 C 0.73133 0.52156 0.80441 0.0
C2509 C 0.83724 0.53432 0.74549 0.0
C2510 C 0.83008 0.53309 0.7062 0.0
C2511 C 0.82748 0.53819 0.77758 0.0
C2512 C 0.81071 0.54154 0.77102 0.0
C2513 C 0.80418 0.54108 0.73134 0.0
C2514 C 0.81354 0.53664 0.69949 0.0
C2515 C 0.79908 0.54411 0.80529 0.0
C2516 C 0.77729 0.53248 0.80527 0.0
C2517 C 0.80913 0.55715 0.83859 0.0
C2518 C 0.83188 0.57095 0.83999 0.0
C2519 C 0.84226 0.5852 0.80907 0.0
C2520 C 0.86375 0.59795 0.81029 0.0
C2521 C 0.87502 0.5967 0.84244 0.0
C2522 C 0.86481 0.58273 0.8735 0.0
C2523 C 0.84333 0.56993 0.87242 0.0
H2524 H 0.89166 0.60657 0.8433 0.0
H2525 H 0.6828 0.4845 0.83169 0.0
H2526 H 0.50993 0.12623 0.24067 0.0
H2527 H 0.53234 0.12486 0.29322 0.0
H2528 H 0.5782 0.18835 0.2682 0.0
H2529 H 0.55667 0.18932 0.21509 0.0
H2530 H 0.59798 0.1706 0.27768 0.0
H2531 H 0.54386 0.1698 0.35616 0.0
H2532 H 0.50793 0.15698 0.37803 0.0
H2533 H 0.50202 0.09848 0.40953 0.0
H2534 H 0.53786 0.11089 0.38742 0.0
H2535 H 0.65931 0.1963 0.45375 0.0
H2536 H 0.634 0.19329 0.40401 0.0
H2537 H 0.60071 0.12702 0.41851 0.0
H2538 H 0.62603 0.12986 0.46854 0.0
H2539 H 0.5742 0.14355 0.41443 0.0
H2540 H 0.6317 0.14846 0.33847 0.0
H2541 H 0.66851 0.16478 0.31979 0.0
H2542 H 0.66877 0.22053 0.28716 0.0
H2543 H 0.63201 0.20464 0.30611 0.0
C2544 C 0.52478 0.13984 0.24657 0.0
C2545 C 0.5315 0.15778 0.22325 0.0
C2546 C 0.53762 0.13914 0.27686 0.0
C2547 C 0.55718 0.15657 0.2853 0.0
C2548 C 0.56348 0.17454 0.26246 0.0
C2549 C 0.55099 0.17508 0.23192 0.0
C2550 C 0.57153 0.15639 0.31694 0.0
C2551 C 0.59265 0.16486 0.30764 0.0
C2552 C 0.56493 0.14866 0.35622 0.0
C2553 C 0.54344 0.14119 0.36972 0.0
C2554 C 0.53484 0.15416 0.36751 0.0
C2555 C 0.51451 0.14698 0.37999 0.0
C2556 C 0.50268 0.12691 0.39504 0.0
C2557 C 0.51119 0.11401 0.39779 0.0
C2558 C 0.53152 0.12111 0.38533 0.0
C2559 C 0.64663 0.18103 0.44653 0.0
C2560 C 0.64491 0.1633 0.46526 0.0
C2561 C 0.63212 0.17934 0.41788 0.0
C2562 C 0.61543 0.1599 0.40703 0.0
C2563 C 0.6134 0.1422 0.42621 0.0
C2564 C 0.628 0.14386 0.45476 0.0
C2565 C 0.60047 0.15808 0.37509 0.0
C2566 C 0.57934 0.1492 0.38434 0.0
C2567 C 0.60712 0.16596 0.33603 0.0
C2568 C 0.62912 0.17539 0.32392 0.0
C2569 C 0.63963 0.16423 0.32746 0.0
C2570 C 0.66048 0.17339 0.31679 0.0
C2571 C 0.67095 0.19366 0.30223 0.0
C2572 C 0.66061 0.20481 0.29831 0.0
C2573 C 0.63976 0.19572 0.30898 0.0
H2574 H 0.68711 0.20074 0.29407 0.0
H2575 H 0.48694 0.12137 0.40466 0.0
H2576 H 0.85637 0.51153 0.42084 0.0
H2577 H 0.86021 0.49038 0.36943 0.0
H2578 H 0.89025 0.4709 0.45524 0.0
H2579 H 0.88799 0.49363 0.50557 0.0
H2580 H 0.90791 0.47383 0.39108 0.0
H2581 H 0.83493 0.4398 0.4196 0.0
H2582 H 0.80098 0.43745 0.42739 0.0
H2583 H 0.80255 0.45484 0.30453 0.0
H2584 H 0.83662 0.45753 0.29612 0.0
H2585 H 0.89286 0.38785 0.26536 0.0
H2586 H 0.89248 0.40958 0.32039 0.0
H2587 H 0.87104 0.4396 0.23898 0.0
H2588 H 0.87117 0.41811 0.1847 0.0
H2589 H 0.84837 0.4291 0.30384 0.0
H2590 H 0.92189 0.46351 0.27682 0.0
H2591 H 0.95522 0.4645 0.26935 0.0
H2592 H 0.95146 0.44438 0.39088 0.0
H2593 H 0.91797 0.44302 0.3989 0.0
C2594 C 0.86386 0.50276 0.42856 0.0
C2595 C 0.87178 0.50411 0.46721 0.0
C2596 C 0.86586 0.49042 0.39924 0.0
C2597 C 0.87494 0.47826 0.40831 0.0
C2598 C 0.88308 0.47989 0.44705 0.0
C2599 C 0.88173 0.49284 0.47599 0.0
C2600 C 0.87606 0.46403 0.37758 0.0
C2601 C 0.89471 0.46384 0.37257 0.0
C2602 C 0.85907 0.45099 0.35253 0.0
C2603 C 0.83839 0.44899 0.35733 0.0
C2604 C 0.82806 0.44318 0.39428 0.0
C2605 C 0.80879 0.44179 0.39881 0.0
C2606 C 0.79963 0.44601 0.36649 0.0
C2607 C 0.80966 0.45155 0.32952 0.0
C2608 C 0.82893 0.45299 0.32485 0.0
C2609 C 0.88843 0.39934 0.2591 0.0
C2610 C 0.88207 0.40113 0.22039 0.0
C2611 C 0.88815 0.41176 0.29066 0.0
C2612 C 0.88167 0.42634 0.28409 0.0
C2613 C 0.87594 0.42846 0.24521 0.0
C2614 C 0.87617 0.41614 0.21396 0.0
C2615 C 0.8802 0.43912 0.31728 0.0
C2616 C 0.86147 0.43901 0.3227 0.0
C2617 C 0.897 0.45168 0.34286 0.0
C2618 C 0.91736 0.453 0.33835 0.0
C2619 C 0.92814 0.45921 0.30189 0.0
C2620 C 0.94706 0.45984 0.29756 0.0
C2621 C 0.95543 0.45446 0.32959 0.0
C2622 C 0.94495 0.44853 0.36608 0.0
C2623 C 0.92601 0.44785 0.37055 0.0
H2624 H 0.97005 0.45491 0.32615 0.0
H2625 H 0.78475 0.445 0.37008 0.0
H2626 H 0.55578 0.39659 0.48947 0.0
H2627 H 0.57816 0.42227 0.43995 0.0
H2628 H 0.52501 0.42099 0.38669 0.0
H2629 H 0.5025 0.39561 0.43688 0.0
H2630 H 0.55405 0.41575 0.33214 0.0
H2631 H 0.55433 0.46129 0.4373 0.0
H2632 H 0.55977 0.47354 0.50714 0.0
H2633 H 0.62283 0.4873 0.50167 0.0
H2634 H 0.61769 0.47492 0.4319 0.0
H2635 H 0.6069 0.49214 0.18715 0.0
H2636 H 0.58361 0.47096 0.24062 0.0
H2637 H 0.63528 0.49451 0.32233 0.0
H2638 H 0.65816 0.51708 0.26939 0.0
H2639 H 0.60653 0.48827 0.36478 0.0
H2640 H 0.61001 0.44155 0.27428 0.0
H2641 H 0.60885 0.424 0.21153 0.0
H2642 H 0.54555 0.4078 0.19376 0.0
H2643 H 0.54627 0.42502 0.2573 0.0
C2644 C 0.54882 0.40185 0.46738 0.0
C2645 C 0.5273 0.39405 0.46726 0.0
C2646 C 0.56168 0.4166 0.43914 0.0
C2647 C 0.55331 0.42366 0.40966 0.0
C2648 C 0.53183 0.41585 0.40926 0.0
C2649 C 0.51899 0.4014 0.43806 0.0
C2650 C 0.56691 0.43868 0.37851 0.0
C2651 C 0.56525 0.43175 0.33903 0.0
C2652 C 0.58239 0.45918 0.3879 0.0
C2653 C 0.58558 0.46707 0.42948 0.0
C2654 C 0.56932 0.46684 0.45106 0.0
C2655 C 0.57236 0.47382 0.49061 0.0
C2656 C 0.59163 0.48117 0.50884 0.0
C2657 C 0.60792 0.48162 0.4875 0.0
C2658 C 0.60496 0.47466 0.44793 0.0
C2659 C 0.61314 0.4931 0.21683 0.0
C2660 C 0.63427 0.50644 0.22423 0.0
C2661 C 0.59987 0.48066 0.24738 0.0
C2662 C 0.60755 0.48036 0.28576 0.0
C2663 C 0.6287 0.4942 0.29333 0.0
C2664 C 0.64185 0.50721 0.26303 0.0
C2665 C 0.59365 0.46553 0.31754 0.0
C2666 C 0.59526 0.4724 0.35735 0.0
C2667 C 0.57876 0.44458 0.30892 0.0
C2668 C 0.5783 0.43483 0.27013 0.0
C2669 C 0.59591 0.43443 0.25678 0.0
C2670 C 0.5953 0.42447 0.22107 0.0
C2671 C 0.5772 0.41497 0.19823 0.0
C2672 C 0.55959 0.41525 0.21135 0.0
C2673 C 0.56006 0.42502 0.24733 0.0
H2674 H 0.57673 0.40726 0.17053 0.0
H2675 H 0.59394 0.48653 0.53949 0.0
H2676 H 0.52112 0.73887 0.34352 0.0
H2677 H 0.52869 0.7636 0.28947 0.0
H2678 H 0.54568 0.72798 0.21302 0.0
H2679 H 0.53884 0.70346 0.26817 0.0
H2680 H 0.56927 0.76886 0.19617 0.0
H2681 H 0.49614 0.72176 0.21124 0.0
H2682 H 0.46336 0.70371 0.24877 0.0
H2683 H 0.46822 0.762 0.27799 0.0
H2684 H 0.50116 0.78042 0.24105 0.0
H2685 H 0.55017 0.80851 0.01413 0.0
H2686 H 0.55299 0.78852 0.06957 0.0
H2687 H 0.53064 0.81771 0.15115 0.0
H2688 H 0.52703 0.83692 0.09538 0.0
H2689 H 0.51017 0.77901 0.16364 0.0
H2690 H 0.5831 0.82651 0.15025 0.0
H2691 H 0.6162 0.84522 0.11399 0.0
H2692 H 0.612 0.7875 0.08217 0.0
H2693 H 0.57879 0.76842 0.11807 0.0
C2694 C 0.52704 0.73661 0.31554 0.0
C2695 C 0.52944 0.71924 0.31016 0.0
C2696 C 0.53116 0.75067 0.28443 0.0
C2697 C 0.53717 0.74742 0.24654 0.0
C2698 C 0.54091 0.73081 0.24178 0.0
C2699 C 0.53712 0.71684 0.27338 0.0
C2700 C 0.53809 0.76055 0.21172 0.0
C2701 C 0.55626 0.77089 0.18877 0.0
C2702 C 0.52128 0.76358 0.20216 0.0
C2703 C 0.50121 0.75248 0.22362 0.0
C2704 C 0.49026 0.73073 0.2258 0.0
C2705 C 0.47165 0.72043 0.24697 0.0
C2706 C 0.46374 0.7317 0.26582 0.0
C2707 C 0.47437 0.75329 0.26339 0.0
C2708 C 0.493 0.76367 0.2423 0.0
C2709 C 0.5466 0.81116 0.04418 0.0
C2710 C 0.53891 0.82466 0.05069 0.0
C2711 C 0.54812 0.79965 0.07596 0.0
C2712 C 0.5422 0.8016 0.11503 0.0
C2713 C 0.53533 0.81581 0.12155 0.0
C2714 C 0.53353 0.82703 0.08975 0.0
C2715 C 0.54155 0.78781 0.14847 0.0
C2716 C 0.52328 0.77714 0.17102 0.0
C2717 C 0.55829 0.78461 0.15767 0.0
C2718 C 0.57838 0.79604 0.13656 0.0
C2719 C 0.58919 0.8178 0.13534 0.0
C2720 C 0.60797 0.82847 0.11486 0.0
C2721 C 0.61616 0.81755 0.09563 0.0
C2722 C 0.60563 0.79594 0.09703 0.0
C2723 C 0.58685 0.78519 0.11751 0.0
H2724 H 0.63068 0.82585 0.07973 0.0
H2725 H 0.44935 0.7237 0.28227 0.0
H2726 H 0.31005 0.85807 0.30415 0.0
H2727 H 0.28509 0.84273 0.24848 0.0
H2728 H 0.30147 0.79526 0.2354 0.0
H2729 H 0.32602 0.8102 0.28916 0.0
H2730 H 0.30065 0.80938 0.1652 0.0
H2731 H 0.25616 0.78686 0.28127 0.0
H2732 H 0.24017 0.79123 0.34222 0.0
H2733 H 0.21619 0.8235 0.27464 0.0
H2734 H 0.23229 0.81954 0.21335 0.0
H2735 H 0.22318 0.71968 0.08142 0.0
H2736 H 0.24289 0.74518 0.13228 0.0
H2737 H 0.22273 0.78584 0.08494 0.0
H2738 H 0.20278 0.76006 0.03253 0.0
H2739 H 0.22528 0.78259 0.17736 0.0
H2740 H 0.26652 0.79781 0.05755 0.0
H2741 H 0.28051 0.78829 0.99971 0.0
H2742 H 0.30971 0.76532 0.07871 0.0
H2743 H 0.29559 0.77434 0.13704 0.0
C2744 C 0.30833 0.84441 0.28926 0.0
C2745 C 0.32025 0.83555 0.30147 0.0
C2746 C 0.29398 0.83558 0.25751 0.0
C2747 C 0.29134 0.81777 0.2374 0.0
C2748 C 0.30321 0.80904 0.24984 0.0
C2749 C 0.31732 0.81771 0.2811 0.0
C2750 C 0.27661 0.80784 0.20315 0.0
C2751 C 0.28419 0.80369 0.16794 0.0
C2752 C 0.2551 0.80057 0.206 0.0
C2753 C 0.24572 0.80323 0.2429 0.0
C2754 C 0.24769 0.79511 0.27951 0.0
C2755 C 0.23856 0.79746 0.31409 0.0
C2756 C 0.22726 0.80773 0.31234 0.0
C2757 C 0.22502 0.81562 0.27598 0.0
C2758 C 0.23415 0.81334 0.24132 0.0
C2759 C 0.22264 0.73392 0.08175 0.0
C2760 C 0.21162 0.73791 0.05217 0.0
C2761 C 0.23395 0.74851 0.11112 0.0
C2762 C 0.23462 0.76758 0.11214 0.0
C2763 C 0.22253 0.77123 0.08456 0.0
C2764 C 0.2111 0.75649 0.05468 0.0
C2765 C 0.24938 0.78385 0.14026 0.0
C2766 C 0.24183 0.78898 0.17424 0.0
C2767 C 0.27095 0.79169 0.1368 0.0
C2768 C 0.27989 0.78669 0.10172 0.0
C2769 C 0.27582 0.79062 0.06261 0.0
C2770 C 0.28378 0.78531 0.02972 0.0
C2771 C 0.29596 0.77618 0.03553 0.0
C2772 C 0.30027 0.7724 0.07425 0.0
C2773 C 0.29231 0.77763 0.10725 0.0
H2774 H 0.30209 0.77206 0.01003 0.0
H2775 H 0.22017 0.8095 0.33913 0.0
H2776 H 0.2683 0.49743 0.00893 0.0
H2777 H 0.24531 0.49415 0.06414 0.0
H2778 H 0.28546 0.4868 0.14694 0.0
H2779 H 0.30822 0.48963 0.09129 0.0
H2780 H 0.24613 0.46335 0.17015 0.0
H2781 H 0.28944 0.53377 0.13237 0.0
H2782 H 0.30556 0.56319 0.08554 0.0
H2783 H 0.24593 0.55527 0.0576 0.0
H2784 H 0.22938 0.52555 0.10382 0.0
H2785 H 0.22424 0.50639 0.34372 0.0
H2786 H 0.24005 0.49902 0.28653 0.0
H2787 H 0.1909 0.49333 0.21041 0.0
H2788 H 0.17467 0.50012 0.26813 0.0
H2789 H 0.23348 0.52232 0.18338 0.0
H2790 H 0.19124 0.45175 0.22717 0.0
H2791 H 0.17759 0.42337 0.27642 0.0
H2792 H 0.23889 0.43411 0.29746 0.0
H2793 H 0.25296 0.46278 0.24876 0.0
C2794 C 0.27171 0.49425 0.03871 0.0
C2795 C 0.28968 0.49321 0.04578 0.0
C2796 C 0.25876 0.49271 0.07038 0.0
C2797 C 0.26378 0.49059 0.10997 0.0
C2798 C 0.28118 0.4884 0.11677 0.0
C2799 C 0.2941 0.48983 0.08495 0.0
C2800 C 0.25173 0.49211 0.14425 0.0
C2801 C 0.24352 0.47633 0.17313 0.0
C2802 C 0.2482 0.50903 0.14832 0.0
C2803 C 0.25813 0.52724 0.12122 0.0
C2804 C 0.27973 0.5382 0.11606 0.0
C2805 C 0.28895 0.55494 0.08963 0.0
C2806 C 0.27676 0.56104 0.06847 0.0
C2807 C 0.25534 0.55049 0.07393 0.0
C2808 C 0.24603 0.5337 0.10026 0.0
C2809 C 0.21644 0.50285 0.31505 0.0
C2810 C 0.19797 0.50334 0.31055 0.0
C2811 C 0.22557 0.4988 0.28233 0.0
C2812 C 0.21669 0.49562 0.24412 0.0
C2813 C 0.19798 0.49565 0.23964 0.0
C2814 C 0.18857 0.49925 0.27268 0.0
C2815 C 0.22764 0.49339 0.2088 0.0
C2816 C 0.23588 0.50922 0.18002 0.0
C2817 C 0.23158 0.47677 0.20531 0.0
C2818 C 0.22317 0.45953 0.23457 0.0
C2819 C 0.20183 0.44818 0.24257 0.0
C2820 C 0.19401 0.43202 0.27033 0.0
C2821 C 0.20737 0.42697 0.29012 0.0
C2822 C 0.22856 0.43805 0.28213 0.0
C2823 C 0.23647 0.45425 0.25442 0.0
H2824 H 0.20128 0.41444 0.31159 0.0
H2825 H 0.28392 0.57396 0.04792 0.0
H2826 H 0.40725 0.91061 0.53732 0.0
H2827 H 0.43288 0.91394 0.58747 0.0
H2828 H 0.39242 0.85098 0.62466 0.0
H2829 H 0.36715 0.84726 0.57388 0.0
H2830 H 0.41759 0.8956 0.68518 0.0
H2831 H 0.41867 0.84191 0.60023 0.0
H2832 H 0.41961 0.82878 0.53308 0.0
H2833 H 0.47623 0.88493 0.50749 0.0
H2834 H 0.47539 0.89853 0.57447 0.0
H2835 H 0.46797 0.86576 0.82371 0.0
H2836 H 0.44699 0.86733 0.77039 0.0
H2837 H 0.50183 0.90707 0.70248 0.0
H2838 H 0.52341 0.90507 0.75621 0.0
H2839 H 0.47169 0.87758 0.65444 0.0
H2840 H 0.47321 0.92617 0.75131 0.0
H2841 H 0.4698 0.93765 0.81861 0.0
H2842 H 0.40619 0.88942 0.82322 0.0
H2843 H 0.40927 0.87748 0.75617 0.0
C2844 C 0.40382 0.89746 0.55611 0.0
C2845 C 0.38515 0.87862 0.55126 0.0
C2846 C 0.41851 0.89937 0.58472 0.0
C2847 C 0.41471 0.88263 0.60953 0.0
C2848 C 0.39587 0.86401 0.60548 0.0
C2849 C 0.38141 0.86194 0.57639 0.0
C2850 C 0.43022 0.88461 0.6401 0.0
C2851 C 0.42939 0.89161 0.67856 0.0
C2852 C 0.44576 0.87964 0.63146 0.0
C2853 C 0.44676 0.87136 0.5919 0.0
C2854 C 0.4312 0.85153 0.58011 0.0
C2855 C 0.43172 0.84399 0.54216 0.0
C2856 C 0.44785 0.8561 0.51592 0.0
C2857 C 0.46366 0.87564 0.52779 0.0
C2858 C 0.46317 0.88328 0.56573 0.0
C2859 C 0.47585 0.87506 0.79776 0.0
C2860 C 0.49763 0.88547 0.79483 0.0
C2861 C 0.46365 0.87598 0.76708 0.0
C2862 C 0.47266 0.88763 0.73243 0.0
C2863 C 0.49441 0.89805 0.72897 0.0
C2864 C 0.50678 0.89702 0.75987 0.0
C2865 C 0.45904 0.88841 0.70017 0.0
C2866 C 0.46016 0.8819 0.6612 0.0
C2867 C 0.44347 0.89352 0.70866 0.0
C2868 C 0.44151 0.9009 0.74875 0.0
C2869 C 0.45852 0.91797 0.76674 0.0
C2870 C 0.45664 0.92455 0.80484 0.0
C2871 C 0.4378 0.91426 0.82519 0.0
C2872 C 0.42077 0.89739 0.80742 0.0
C2873 C 0.42256 0.89073 0.76933 0.0
H2874 H 0.43638 0.91937 0.8547 0.0
H2875 H 0.44802 0.85031 0.48642 0.0
H2876 H 0.13292 0.50651 0.59132 0.0
H2877 H 0.13009 0.5287 0.64178 0.0
H2878 H 0.17069 0.58266 0.57195 0.0
H2879 H 0.1748 0.56053 0.52333 0.0
H2880 H 0.18055 0.59337 0.64121 0.0
H2881 H 0.11276 0.55843 0.58245 0.0
H2882 H 0.07969 0.52865 0.56035 0.0
H2883 H 0.06621 0.50601 0.68094 0.0
H2884 H 0.09929 0.53554 0.70368 0.0
H2885 H 0.14802 0.65802 0.74674 0.0
H2886 H 0.14764 0.63529 0.69285 0.0
H2887 H 0.14071 0.58986 0.78027 0.0
H2888 H 0.14186 0.61271 0.83401 0.0
H2889 H 0.11312 0.5762 0.70126 0.0
H2890 H 0.18325 0.61196 0.75675 0.0
H2891 H 0.21536 0.64355 0.7765 0.0
H2892 H 0.22294 0.66675 0.65652 0.0
H2893 H 0.19066 0.6354 0.63625 0.0
C2894 C 0.14113 0.5231 0.58669 0.0
C2895 C 0.15396 0.53171 0.55313 0.0
C2896 C 0.13939 0.53587 0.61549 0.0
C2897 C 0.14972 0.55757 0.61067 0.0
C2898 C 0.16248 0.56609 0.57687 0.0
C2899 C 0.16475 0.55338 0.54881 0.0
C2900 C 0.14773 0.57143 0.64104 0.0
C2901 C 0.16567 0.58961 0.65362 0.0
C2902 C 0.12847 0.56682 0.65827 0.0
C2903 C 0.10858 0.54908 0.64467 0.0
C2904 C 0.10279 0.54703 0.60419 0.0
C2905 C 0.08404 0.53021 0.59157 0.0
C2906 C 0.07088 0.51543 0.6192 0.0
C2907 C 0.07642 0.51746 0.65955 0.0
C2908 C 0.09515 0.53425 0.67234 0.0
C2909 C 0.14595 0.64299 0.75433 0.0
C2910 C 0.14481 0.63709 0.79461 0.0
C2911 C 0.1459 0.63009 0.72358 0.0
C2912 C 0.14422 0.61089 0.73257 0.0
C2913 C 0.142 0.60456 0.77261 0.0
C2914 C 0.1426 0.61763 0.80329 0.0
C2915 C 0.14578 0.59776 0.70069 0.0
C2916 C 0.12785 0.57982 0.68818 0.0
C2917 C 0.16491 0.60275 0.68301 0.0
C2918 C 0.1844 0.62148 0.69513 0.0
C2919 C 0.19163 0.6239 0.73469 0.0
C2920 C 0.20989 0.64174 0.74596 0.0
C2921 C 0.22114 0.65719 0.71781 0.0
C2922 C 0.21418 0.65479 0.67831 0.0
C2923 C 0.19591 0.63699 0.66692 0.0
H2924 H 0.23527 0.67099 0.72657 0.0
H2925 H 0.05638 0.50241 0.60937 0.0
H2926 H 0.40781 0.56714 0.82632 0.0
H2927 H 0.42914 0.58765 0.77086 0.0
H2928 H 0.41128 0.53206 0.70314 0.0
H2929 H 0.38954 0.51103 0.75926 0.0
H2930 H 0.45382 0.56167 0.69631 0.0
H2931 H 0.38914 0.5612 0.6818 0.0
H2932 H 0.36048 0.56549 0.70702 0.0
H2933 H 0.4033 0.62892 0.73634 0.0
H2934 H 0.43223 0.62497 0.71157 0.0
H2935 H 0.50141 0.62147 0.52062 0.0
H2936 H 0.47814 0.5959 0.56936 0.0
H2937 H 0.47487 0.64427 0.63406 0.0
H2938 H 0.49648 0.66927 0.58327 0.0
H2939 H 0.44037 0.61503 0.63882 0.0
H2940 H 0.50504 0.61693 0.66186 0.0
H2941 H 0.53564 0.61414 0.64438 0.0
H2942 H 0.49627 0.55103 0.60796 0.0
H2943 H 0.46544 0.55352 0.62482 0.0
C2944 C 0.40839 0.55905 0.79991 0.0
C2945 C 0.39673 0.53724 0.79757 0.0
C2946 C 0.42061 0.57095 0.76792 0.0
C2947 C 0.42161 0.56155 0.73231 0.0
C2948 C 0.41067 0.53975 0.73014 0.0
C2949 C 0.39825 0.52772 0.76232 0.0
C2950 C 0.43394 0.57474 0.69766 0.0
C2951 C 0.45072 0.57313 0.68322 0.0
C2952 C 0.43035 0.59018 0.68129 0.0
C2953 C 0.41286 0.59275 0.69499 0.0
C2954 C 0.39245 0.57605 0.69369 0.0
C2955 C 0.37615 0.57842 0.70789 0.0
C2956 C 0.38007 0.59746 0.72331 0.0
C2957 C 0.40028 0.61419 0.72435 0.0
C2958 C 0.41662 0.61191 0.71013 0.0
C2959 C 0.49573 0.62659 0.54537 0.0
C2960 C 0.50088 0.64742 0.54814 0.0
C2961 C 0.48251 0.61195 0.57364 0.0
C2962 C 0.47486 0.61793 0.60658 0.0
C2963 C 0.48028 0.63891 0.60928 0.0
C2964 C 0.49282 0.65333 0.58025 0.0
C2965 C 0.46093 0.60254 0.63773 0.0
C2966 C 0.44366 0.60363 0.65154 0.0
C2967 C 0.46444 0.58699 0.65428 0.0
C2968 C 0.48295 0.5855 0.64414 0.0
C2969 C 0.50292 0.60251 0.64987 0.0
C2970 C 0.5203 0.60097 0.64011 0.0
C2971 C 0.5179 0.58245 0.62494 0.0
C2972 C 0.49811 0.56539 0.61963 0.0
C2973 C 0.48068 0.56685 0.62929 0.0
H2974 H 0.53137 0.58129 0.6174 0.0
H2975 H 0.36745 0.59925 0.73442 0.0
H2976 H 0.13923 0.63193 0.02073 0.0
H2977 H 0.13115 0.60655 0.07495 0.0
H2978 H 0.18517 0.65145 0.13949 0.0
H2979 H 0.19335 0.67627 0.08558 0.0
H2980 H 0.18585 0.61724 0.13531 0.0
H2981 H 0.13428 0.63536 0.16926 0.0
H2982 H 0.10398 0.63948 0.15717 0.0
H2983 H 0.06666 0.57436 0.13364 0.0
H2984 H 0.09685 0.56991 0.14505 0.0
H2985 H 0.17949 0.58367 0.32885 0.0
H2986 H 0.17482 0.6013 0.27217 0.0
H2987 H 0.12912 0.54265 0.22274 0.0
H2988 H 0.13361 0.5246 0.28055 0.0
H2989 H 0.12087 0.57796 0.21265 0.0
H2990 H 0.17395 0.56075 0.18569 0.0
H2991 H 0.20484 0.55845 0.2029 0.0
H2992 H 0.24011 0.62443 0.21768 0.0
H2993 H 0.20937 0.6271 0.20101 0.0
C2994 C 0.14897 0.63645 0.04708 0.0
C2995 C 0.16686 0.65608 0.04906 0.0
C2996 C 0.14444 0.62193 0.07798 0.0
C2997 C 0.15764 0.62695 0.11142 0.0
C2998 C 0.17484 0.64699 0.11403 0.0
C2999 C 0.17941 0.66128 0.08329 0.0
C3000 C 0.15469 0.61135 0.14277 0.0
C3001 C 0.17161 0.60875 0.15217 0.0
C3002 C 0.136 0.5997 0.16436 0.0
C3003 C 0.11787 0.60235 0.15747 0.0
C3004 C 0.11966 0.62196 0.16114 0.0
C3005 C 0.1025 0.62434 0.15448 0.0
C3006 C 0.08343 0.6072 0.1445 0.0
C3007 C 0.08146 0.58763 0.14127 0.0
C3008 C 0.09859 0.58516 0.14783 0.0
C3009 C 0.16808 0.57443 0.30642 0.0
C3010 C 0.15705 0.55268 0.30908 0.0
C3011 C 0.16546 0.58458 0.27394 0.0
C3012 C 0.15187 0.57332 0.24283 0.0
C3013 C 0.1397 0.55164 0.24644 0.0
C3014 C 0.14224 0.54135 0.27947 0.0
C3015 C 0.15218 0.58446 0.20554 0.0
C3016 C 0.1349 0.5862 0.1951 0.0
C3017 C 0.17063 0.5956 0.18315 0.0
C3018 C 0.18932 0.5941 0.19221 0.0
C3019 C 0.18827 0.57476 0.19274 0.0
C3020 C 0.20576 0.57339 0.20239 0.0
C3021 C 0.22442 0.59128 0.2114 0.0
C3022 C 0.22565 0.61059 0.21064 0.0
C3023 C 0.20821 0.61204 0.201 0.0
H3024 H 0.23794 0.59019 0.21893 0.0
H3025 H 0.07015 0.60908 0.13938 0.0
H3026 H 0.35886 0.51425 0.08617 0.0
H3027 H 0.38292 0.53075 0.14233 0.0
H3028 H 0.42835 0.57509 0.0613 0.0
H3029 H 0.40409 0.55908 1.00547 0.0
H3030 H 0.44466 0.55932 0.12587 0.0
H3031 H 0.4029 0.59097 0.103 0.0
H3032 H 0.36997 0.59053 0.09317 0.0
H3033 H 0.34933 0.56319 0.20911 0.0
H3034 H 0.38202 0.56312 0.21932 0.0
H3035 H 0.50682 0.64138 0.26481 0.0
H3036 H 0.48742 0.61897 0.20828 0.0
H3037 H 0.43393 0.58589 0.28415 0.0
H3038 H 0.45304 0.60876 0.33972 0.0
H3039 H 0.4222 0.59544 0.22034 0.0
H3040 H 0.46409 0.56446 0.24507 0.0
H3041 H 0.49666 0.5642 0.25494 0.0
H3042 H 0.51681 0.58937 0.13736 0.0
H3043 H 0.48444 0.59004 0.12699 0.0
C3044 C 0.37425 0.52705 0.08023 0.0
C3045 C 0.37979 0.53518 0.04144 0.0
C3046 C 0.38792 0.53657 0.11232 0.0
C3047 C 0.40746 0.55418 0.10602 0.0
C3048 C 0.41346 0.56147 0.06685 0.0
C3049 C 0.39963 0.55227 0.03498 0.0
C3050 C 0.42071 0.56621 0.14048 0.0
C3051 C 0.43986 0.56734 0.14646 0.0
C3052 C 0.41436 0.57651 0.16753 0.0
C3053 C 0.39479 0.57677 0.16168 0.0
C3054 C 0.39125 0.58466 0.12623 0.0
C3055 C 0.37265 0.58454 0.12061 0.0
C3056 C 0.35753 0.57675 0.15042 0.0
C3057 C 0.36103 0.56916 0.18599 0.0
C3058 C 0.3796 0.5692 0.19171 0.0
C3059 C 0.49119 0.62881 0.26962 0.0
C3060 C 0.48156 0.62648 0.30683 0.0
C3061 C 0.48 0.61604 0.23724 0.0
C3062 C 0.45909 0.60054 0.2417 0.0
C3063 C 0.44993 0.59768 0.2796 0.0
C3064 C 0.46096 0.61057 0.31159 0.0
C3065 C 0.44617 0.58829 0.20671 0.0
C3066 C 0.42706 0.58728 0.20024 0.0
C3067 C 0.45255 0.57803 0.17941 0.0
C3068 C 0.47192 0.57746 0.1854 0.0
C3069 C 0.47552 0.57006 0.22142 0.0
C3070 C 0.49394 0.56982 0.22709 0.0
C3071 C 0.50882 0.57681 0.19684 0.0
C3072 C 0.50528 0.58399 0.16079 0.0
C3073 C 0.48689 0.58427 0.15497 0.0
H3074 H 0.52307 0.57663 0.2013 0.0
H3075 H 0.34312 0.57666 0.14602 0.0
H3076 H 0.46925 0.86302 0.00978 0.0
H3077 H 0.45386 0.87138 0.06628 0.0
H3078 H 0.50692 0.88502 0.13875 0.0
H3079 H 0.52268 0.87716 0.08161 0.0
H3080 H 0.46637 0.85467 0.17134 0.0
H3081 H 0.50136 0.9235 0.11612 0.0
H3082 H 0.51079 0.94934 0.06248 0.0
H3083 H 0.44693 0.93159 0.0475 0.0
H3084 H 0.43708 0.9054 0.10067 0.0
H3085 H 0.43017 0.87922 0.34437 0.0
H3086 H 0.45263 0.88225 0.28847 0.0
H3087 H 0.41036 0.88666 0.20655 0.0
H3088 H 0.38836 0.88452 0.26301 0.0
H3089 H 0.44694 0.90913 0.17843 0.0
H3090 H 0.41048 0.84007 0.22795 0.0
H3091 H 0.39824 0.81088 0.27516 0.0
H3092 H 0.4607 0.82483 0.29455 0.0
H3093 H 0.4734 0.85443 0.24836 0.0
C3094 C 0.47795 0.8685 0.03737 0.0
C3095 C 0.49737 0.86988 0.04104 0.0
C3096 C 0.46909 0.87316 0.06971 0.0
C3097 C 0.47922 0.87888 0.10681 0.0
C3098 C 0.49887 0.88076 0.11035 0.0
C3099 C 0.50798 0.87653 0.0776 0.0
C3100 C 0.46853 0.88136 0.14235 0.0
C3101 C 0.46251 0.86686 0.17341 0.0
C3102 C 0.46259 0.89662 0.14407 0.0
C3103 C 0.46847 0.91237 0.11216 0.0
C3104 C 0.48931 0.92497 0.10115 0.0
C3105 C 0.49473 0.93971 0.07088 0.0
C3106 C 0.47947 0.94208 0.05153 0.0
C3107 C 0.45874 0.92973 0.06248 0.0
C3108 C 0.45323 0.91495 0.09272 0.0
C3109 C 0.42618 0.88175 0.31457 0.0
C3110 C 0.40783 0.88222 0.30814 0.0
C3111 C 0.4388 0.88305 0.28245 0.0
C3112 C 0.43303 0.88414 0.24286 0.0
C3113 C 0.41525 0.88579 0.23662 0.0
C3114 C 0.40276 0.88481 0.26895 0.0
C3115 C 0.44494 0.88258 0.20817 0.0
C3116 C 0.451 0.89709 0.17691 0.0
C3117 C 0.45049 0.86695 0.20579 0.0
C3118 C 0.44293 0.84967 0.235 0.0
C3119 C 0.42165 0.83713 0.24275 0.0
C3120 C 0.41462 0.82048 0.26931 0.0
C3121 C 0.42871 0.81606 0.28795 0.0
C3122 C 0.44984 0.82835 0.2803 0.0
C3123 C 0.45696 0.84508 0.25396 0.0
H3124 H 0.42328 0.80302 0.30809 0.0
H3125 H 0.4837 0.95351 0.02812 0.0
H3126 H 0.28258 0.46966 0.83454 0.0
H3127 H 0.25643 0.46672 0.78666 0.0
H3128 H 0.3041 0.51679 0.71757 0.0
H3129 H 0.32974 0.52087 0.76744 0.0
H3130 H 0.27503 0.52238 0.71395 0.0
H3131 H 0.27631 0.45912 0.69368 0.0
H3132 H 0.27374 0.42597 0.71266 0.0
H3133 H 0.21126 0.40283 0.75201 0.0
H3134 H 0.21355 0.43594 0.73368 0.0
H3135 H 0.22559 0.5036 0.52799 0.0
H3136 H 0.2463 0.50323 0.5834 0.0
H3137 H 0.19132 0.46871 0.65444 0.0
H3138 H 0.17003 0.46899 0.59831 0.0
H3139 H 0.22069 0.45466 0.66108 0.0
H3140 H 0.22106 0.51964 0.67131 0.0
H3141 H 0.22563 0.55242 0.64424 0.0
H3142 H 0.28859 0.57182 0.61389 0.0
H3143 H 0.28434 0.53909 0.64044 0.0
C3144 C 0.28739 0.47998 0.80904 0.0
C3145 C 0.30821 0.49544 0.80469 0.0
C3146 C 0.27244 0.47819 0.7813 0.0
C3147 C 0.27808 0.49118 0.74744 0.0
C3148 C 0.29903 0.50653 0.74316 0.0
C3149 C 0.3138 0.50881 0.77165 0.0
C3150 C 0.26235 0.48929 0.7169 0.0
C3151 C 0.26339 0.50748 0.70225 0.0
C3152 C 0.24657 0.46996 0.70171 0.0
C3153 C 0.24519 0.45008 0.71275 0.0
C3154 C 0.26208 0.44701 0.70664 0.0
C3155 C 0.26066 0.42822 0.71724 0.0
C3156 C 0.24237 0.41233 0.73365 0.0
C3157 C 0.22543 0.41517 0.73938 0.0
C3158 C 0.22677 0.43393 0.72887 0.0
C3159 C 0.21765 0.49573 0.55515 0.0
C3160 C 0.19596 0.48642 0.55849 0.0
C3161 C 0.22967 0.49565 0.58704 0.0
C3162 C 0.2205 0.48632 0.62348 0.0
C3163 C 0.19879 0.47617 0.62668 0.0
C3164 C 0.18662 0.4763 0.59455 0.0
C3165 C 0.23391 0.48765 0.65791 0.0
C3166 C 0.23236 0.46943 0.67323 0.0
C3167 C 0.24965 0.50695 0.67281 0.0
C3168 C 0.25234 0.52686 0.65771 0.0
C3169 C 0.23585 0.53087 0.65875 0.0
C3170 C 0.23839 0.54945 0.64352 0.0
C3171 C 0.25738 0.56418 0.62732 0.0
C3172 C 0.27389 0.56041 0.62648 0.0
C3173 C 0.27144 0.54186 0.6417 0.0
H3174 H 0.25929 0.57853 0.61545 0.0
H3175 H 0.24131 0.3978 0.74185 0.0
H3176 H 0.56782 0.84192 0.82543 0.0
H3177 H 0.57064 0.81889 0.77686 0.0
H3178 H 0.51548 0.81025 0.71763 0.0
H3179 H 0.51176 0.83171 0.76827 0.0
H3180 H 0.51272 0.7767 0.71388 0.0
H3181 H 0.57127 0.84332 0.68308 0.0
H3182 H 0.60369 0.876 0.69614 0.0
H3183 H 0.63347 0.8419 0.73067 0.0
H3184 H 0.60115 0.80902 0.71824 0.0
H3185 H 0.52665 0.74485 0.52463 0.0
H3186 H 0.52761 0.76628 0.58 0.0
H3187 H 0.56799 0.7511 0.64518 0.0
H3188 H 0.56713 0.7292 0.58914 0.0
H3189 H 0.57929 0.79437 0.64925 0.0
H3190 H 0.51847 0.7272 0.67045 0.0
H3191 H 0.48602 0.69666 0.64825 0.0
H3192 H 0.46025 0.73538 0.6215 0.0
H3193 H 0.49262 0.76618 0.64316 0.0
C3194 C 0.55634 0.83508 0.80197 0.0
C3195 C 0.5396 0.83869 0.80071 0.0
C3196 C 0.55804 0.82201 0.77379 0.0
C3197 C 0.54356 0.81294 0.74243 0.0
C3198 C 0.52692 0.81678 0.74123 0.0
C3199 C 0.52482 0.82921 0.77019 0.0
C3200 C 0.54532 0.79921 0.71131 0.0
C3201 C 0.52733 0.78087 0.69965 0.0
C3202 C 0.56433 0.80399 0.69266 0.0
C3203 C 0.58374 0.82373 0.70018 0.0
C3204 C 0.5847 0.84281 0.69372 0.0
C3205 C 0.60305 0.86136 0.70097 0.0
C3206 C 0.6206 0.86103 0.71435 0.0
C3207 C 0.61985 0.84214 0.72039 0.0
C3208 C 0.60153 0.82354 0.71322 0.0
C3209 C 0.53596 0.74606 0.55043 0.0
C3210 C 0.5468 0.73509 0.55213 0.0
C3211 C 0.53638 0.75835 0.58233 0.0
C3212 C 0.54761 0.76015 0.61715 0.0
C3213 C 0.55911 0.74989 0.6187 0.0
C3214 C 0.55861 0.73736 0.58662 0.0
C3215 C 0.54674 0.77242 0.65179 0.0
C3216 C 0.56482 0.79035 0.66398 0.0
C3217 C 0.52775 0.76764 0.67006 0.0
C3218 C 0.50802 0.74901 0.65831 0.0
C3219 C 0.5059 0.72921 0.65976 0.0
C3220 C 0.48752 0.71185 0.64727 0.0
C3221 C 0.47109 0.71409 0.63346 0.0
C3222 C 0.47298 0.73367 0.63226 0.0
C3223 C 0.49132 0.75108 0.64473 0.0
H3224 H 0.4569 0.70064 0.6237 0.0
H3225 H 0.6348 0.8754 0.71995 0.0
H3226 H 0.17601 0.74062 0.7968 0.0
H3227 H 0.19809 0.76619 0.74694 0.0
H3228 H 0.23803 0.73995 0.74583 0.0
H3229 H 0.21642 0.7148 0.79627 0.0
H3230 H 0.26129 0.77913 0.74251 0.0
H3231 H 0.20191 0.7314 0.66933 0.0
H3232 H 0.1649 0.71014 0.65269 0.0
H3233 H 0.16066 0.7651 0.63902 0.0
H3234 H 0.19763 0.7867 0.65615 0.0
H3235 H 0.30169 0.80933 0.54275 0.0
H3236 H 0.27984 0.78904 0.59831 0.0
H3237 H 0.26938 0.83901 0.62976 0.0
H3238 H 0.29206 0.86 0.57431 0.0
H3239 H 0.23151 0.79047 0.61904 0.0
H3240 H 0.29524 0.8375 0.68885 0.0
H3241 H 0.33295 0.85488 0.69916 0.0
H3242 H 0.32927 0.7959 0.71221 0.0
H3243 H 0.29158 0.77814 0.70108 0.0
C3244 C 0.18951 0.74029 0.78607 0.0
C3245 C 0.19428 0.72548 0.80078 0.0
C3246 C 0.20213 0.75492 0.75723 0.0
C3247 C 0.21975 0.75502 0.74189 0.0
C3248 C 0.22463 0.74038 0.75692 0.0
C3249 C 0.21212 0.72586 0.78585 0.0
C3250 C 0.23306 0.77023 0.71023 0.0
C3251 C 0.25466 0.78149 0.71555 0.0
C3252 C 0.22471 0.77355 0.6747 0.0
C3253 C 0.20247 0.76065 0.66455 0.0
C3254 C 0.19305 0.73895 0.66315 0.0
C3255 C 0.17209 0.72684 0.65356 0.0
C3256 C 0.16042 0.73627 0.64495 0.0
C3257 C 0.16971 0.75782 0.6458 0.0
C3258 C 0.19067 0.77001 0.65544 0.0
C3259 C 0.29473 0.81611 0.56123 0.0
C3260 C 0.29854 0.83633 0.55363 0.0
C3261 C 0.28226 0.80443 0.59319 0.0
C3262 C 0.27291 0.81242 0.61824 0.0
C3263 C 0.27643 0.83251 0.61077 0.0
C3264 C 0.2894 0.8445 0.57913 0.0
C3265 C 0.25949 0.79945 0.65188 0.0
C3266 C 0.23795 0.78837 0.64654 0.0
C3267 C 0.26793 0.79582 0.68679 0.0
C3268 C 0.2906 0.80649 0.69358 0.0
C3269 C 0.30249 0.82822 0.69337 0.0
C3270 C 0.32387 0.83815 0.69947 0.0
C3271 C 0.33351 0.82651 0.70617 0.0
C3272 C 0.32179 0.8049 0.7069 0.0
C3273 C 0.30042 0.7949 0.70069 0.0
H3274 H 0.35006 0.83422 0.71092 0.0
H3275 H 0.1442 0.72687 0.63751 0.0
H3276 H 0.2282 0.9954 0.65376 0.0
H3277 H 0.24635 0.98038 0.62003 0.0
H3278 H 0.27619 0.98078 0.73054 0.0
H3279 H 0.25797 0.99613 0.76507 0.0
H3280 H 0.30322 0.99261 0.66579 0.0
H3281 H 0.23521 0.93569 0.69545 0.0
H3282 H 0.19709 0.91787 0.69607 0.0
H3283 H 0.19626 0.91997 0.56784 0.0
H3284 H 0.23439 0.93799 0.56646 0.0
H3285 H 0.33819 0.92537 0.59309 0.0
H3286 H 0.32221 0.94171 0.63119 0.0
H3287 H 0.28459 0.93643 0.5291 0.0
H3288 H 0.3003 0.9197 0.49118 0.0
H3289 H 0.26149 0.92662 0.59239 0.0
H3290 H 0.32768 0.98379 0.56001 0.0
H3291 H 0.36571 1.00379 0.55557 0.0
H3292 H 0.37018 1.00357 0.68354 0.0
H3293 H 0.33214 0.9833 0.68873 0.0
C3294 C 0.23867 0.99247 0.67124 0.0
C3295 C 0.24138 0.99697 0.71257 0.0
C3296 C 0.24903 0.98371 0.6517 0.0
C3297 C 0.26243 0.97898 0.67265 0.0
C3298 C 0.26585 0.98411 0.71359 0.0
C3299 C 0.25539 0.99292 0.73337 0.0
C3300 C 0.2724 0.9684 0.65159 0.0
C3301 C 0.29408 0.97798 0.65039 0.0
C3302 C 0.26061 0.94961 0.63017 0.0
C3303 C 0.23766 0.9383 0.63088 0.0
C3304 C 0.2269 0.93241 0.66739 0.0
C3305 C 0.20529 0.92227 0.66787 0.0
C3306 C 0.19426 0.91783 0.63202 0.0
C3307 C 0.20482 0.92342 0.59559 0.0
C3308 C 0.22643 0.93356 0.59493 0.0
C3309 C 0.32659 0.92778 0.57864 0.0
C3310 C 0.32066 0.92129 0.53889 0.0
C3311 C 0.31747 0.93725 0.60049 0.0
C3312 C 0.30226 0.94069 0.58315 0.0
C3313 C 0.29626 0.93409 0.54344 0.0
C3314 C 0.30535 0.92457 0.52161 0.0
C3315 C 0.29242 0.95083 0.60645 0.0
C3316 C 0.27071 0.94116 0.60801 0.0
C3317 C 0.3042 0.96969 0.62769 0.0
C3318 C 0.32707 0.98182 0.62474 0.0
C3319 C 0.33677 0.98785 0.5872 0.0
C3320 C 0.35833 0.99926 0.58454 0.0
C3321 C 0.37036 1.00489 0.61924 0.0
C3322 C 0.36084 0.99916 0.65668 0.0
C3323 C 0.33928 0.98772 0.6595 0.0
H3324 H 0.38705 0.01374 0.61712 0.0
H3325 H 0.17754 0.91003 0.63246 0.0
H3326 H 0.05568 0.26337 0.66829 0.0
H3327 H 0.07025 0.29714 0.6359 0.0
H3328 H 0.035 0.31354 0.71427 0.0
H3329 H 0.02078 0.27977 0.74822 0.0
H3330 H 0.03964 0.31666 0.60617 0.0
H3331 H 0.06889 0.34102 0.74168 0.0
H3332 H 0.08718 0.33923 0.80159 0.0
H3333 H 0.13817 0.34781 0.72868 0.0
H3334 H 0.11992 0.34916 0.6682 0.0
H3335 H 0.08277 0.42174 0.54017 0.0
H3336 H 0.06553 0.3894 0.57861 0.0
H3337 H 0.12218 0.38733 0.58008 0.0
H3338 H 0.13945 0.4197 0.54215 0.0
H3339 H 0.10558 0.3771 0.651 0.0
H3340 H 0.0805 0.35531 0.51864 0.0
H3341 H 0.06419 0.35492 0.4543 0.0
H3342 H 0.0076 0.33944 0.51489 0.0
H3343 H 0.02368 0.34002 0.57971 0.0
C3344 C 0.05092 0.27408 0.67879 0.0
C3345 C 0.03692 0.26871 0.71092 0.0
C3346 C 0.05937 0.29347 0.6602 0.0
C3347 C 0.05389 0.30801 0.6727 0.0
C3348 C 0.03968 0.30269 0.70436 0.0
C3349 C 0.03152 0.28336 0.72372 0.0
C3350 C 0.06298 0.32851 0.65194 0.0
C3351 C 0.05378 0.33007 0.61647 0.0
C3352 C 0.08196 0.34571 0.66417 0.0
C3353 C 0.09288 0.34481 0.70041 0.0
C3354 C 0.08384 0.34218 0.73836 0.0
C3355 C 0.09424 0.34132 0.77244 0.0
C3356 C 0.11379 0.3433 0.76893 0.0
C3357 C 0.12299 0.34619 0.73133 0.0
C3358 C 0.11262 0.34698 0.69716 0.0
C3359 C 0.09152 0.41435 0.54856 0.0
C3360 C 0.11248 0.42331 0.53777 0.0
C3361 C 0.08162 0.39576 0.5705 0.0
C3362 C 0.0924 0.3856 0.58221 0.0
C3363 C 0.1134 0.39469 0.57163 0.0
C3364 C 0.12326 0.4132 0.54964 0.0
C3365 C 0.08194 0.36564 0.6055 0.0
C3366 C 0.09113 0.36397 0.64102 0.0
C3367 C 0.06307 0.34822 0.59294 0.0
C3368 C 0.05338 0.34798 0.55408 0.0
C3369 C 0.06464 0.35202 0.51829 0.0
C3370 C 0.05543 0.35173 0.48173 0.0
C3371 C 0.0349 0.34724 0.48052 0.0
C3372 C 0.02352 0.34297 0.51588 0.0
C3373 C 0.03267 0.34328 0.55255 0.0
H3374 H 0.02779 0.347 0.45218 0.0
H3375 H 0.12183 0.34269 0.79534 0.0
H3376 H 0.60857 0.74151 0.55299 0.0
H3377 H 0.64065 0.75684 0.59154 0.0
H3378 H 0.64706 0.70365 0.56636 0.0
H3379 H 0.61444 0.68794 0.5286 0.0
H3380 H 0.65767 0.71432 0.64048 0.0
H3381 H 0.67649 0.75326 0.51815 0.0
H3382 H 0.67464 0.77503 0.46471 0.0
H3383 H 0.68559 0.82225 0.55054 0.0
H3384 H 0.68715 0.80061 0.60462 0.0
H3385 H 0.76367 0.76348 0.70701 0.0
H3386 H 0.73082 0.74547 0.67003 0.0
H3387 H 0.72187 0.79768 0.68856 0.0
H3388 H 0.75497 0.8158 0.72403 0.0
H3389 H 0.71302 0.78668 0.61618 0.0
H3390 H 0.6929 0.7478 0.73881 0.0
H3391 H 0.69557 0.72674 0.79282 0.0
H3392 H 0.68763 0.68032 0.70751 0.0
H3393 H 0.68516 0.70121 0.65292 0.0
C3394 C 0.61683 0.73307 0.55546 0.0
C3395 C 0.60893 0.71352 0.5373 0.0
C3396 C 0.63534 0.74194 0.57747 0.0
C3397 C 0.64679 0.73173 0.58151 0.0
C3398 C 0.63875 0.71203 0.56376 0.0
C3399 C 0.62009 0.70304 0.54197 0.0
C3400 C 0.66691 0.7415 0.60448 0.0
C3401 C 0.66985 0.73006 0.63468 0.0
C3402 C 0.68287 0.76226 0.598 0.0
C3403 C 0.68171 0.7752 0.56552 0.0
C3404 C 0.6783 0.7682 0.5257 0.0
C3405 C 0.67733 0.78053 0.49528 0.0
C3406 C 0.67993 0.79998 0.50424 0.0
C3407 C 0.68353 0.80716 0.54365 0.0
C3408 C 0.68445 0.79486 0.57419 0.0
C3409 C 0.75444 0.77087 0.70375 0.0
C3410 C 0.76167 0.79088 0.71903 0.0
C3411 C 0.7356 0.76057 0.6826 0.0
C3412 C 0.72344 0.76997 0.67661 0.0
C3413 C 0.73072 0.78992 0.69251 0.0
C3414 C 0.74959 0.80024 0.71319 0.0
C3415 C 0.70368 0.75963 0.65255 0.0
C3416 C 0.70082 0.77095 0.62204 0.0
C3417 C 0.68779 0.73884 0.65892 0.0
C3418 C 0.68903 0.72615 0.69175 0.0
C3419 C 0.69184 0.73315 0.73155 0.0
C3420 C 0.6933 0.72124 0.76226 0.0
C3421 C 0.69182 0.70223 0.75359 0.0
C3422 C 0.68879 0.69505 0.71419 0.0
C3423 C 0.68734 0.70691 0.68335 0.0
H3424 H 0.69297 0.69304 0.7774 0.0
H3425 H 0.6792 0.80951 0.48064 0.0
H3426 H 0.89352 0.32275 0.98896 0.0
H3427 H 0.91189 0.30762 0.95647 0.0
H3428 H 0.94689 0.31578 0.0641 0.0
H3429 H 0.92837 0.33116 0.0974 0.0
H3430 H 0.97161 0.32552 0.99791 0.0
H3431 H 0.90677 0.26981 0.03801 0.0
H3432 H 0.86902 0.24771 0.04465 0.0
H3433 H 0.86367 0.23691 0.91803 0.0
H3434 H 0.90105 0.26009 0.91015 0.0
H3435 H 0.00887 0.25953 0.92364 0.0
H3436 H 0.99322 0.27568 0.96347 0.0
H3437 H 0.95235 0.2678 0.86554 0.0
H3438 H 0.96774 0.25131 0.82592 0.0
H3439 H 0.93125 0.25692 0.93275 0.0
H3440 H 0.99597 0.31639 0.89309 0.0
H3441 H 0.03396 0.33695 0.8875 0.0
H3442 H 0.03948 0.33783 0.01537 0.0
H3443 H 1.00152 0.31705 0.0217 0.0
C3444 C 0.90518 0.32152 1.00605 0.0
C3445 C 0.90927 0.32824 0.04623 0.0
C3446 C 0.91566 0.31268 0.98724 0.0
C3447 C 0.93064 0.31015 1.00777 0.0
C3448 C 0.93534 0.3174 0.04749 0.0
C3449 C 0.9247 0.32622 0.06658 0.0
C3450 C 0.94106 0.29977 0.9875 0.0
C3451 C 0.96274 0.31039 0.98417 0.0
C3452 C 0.92963 0.28006 0.96892 0.0
C3453 C 0.90682 0.26702 0.97342 0.0
C3454 C 0.8975 0.2632 0.0114 0.0
C3455 C 0.87609 0.2505 0.01538 0.0
C3456 C 0.86386 0.24114 0.98172 0.0
C3457 C 0.87301 0.24451 0.94401 0.0
C3458 C 0.89432 0.25752 0.93974 0.0
C3459 C 0.99665 0.26138 0.91043 0.0
C3460 C 0.98967 0.2542 0.87138 0.0
C3461 C 0.98773 0.27073 0.93327 0.0
C3462 C 0.97167 0.27332 0.91762 0.0
C3463 C 0.96471 0.26612 0.87855 0.0
C3464 C 0.9736 0.25674 0.85574 0.0
C3465 C 0.96168 0.28293 0.94207 0.0
C3466 C 0.94007 0.27209 0.9464 0.0
C3467 C 0.97314 0.30234 0.96163 0.0
C3468 C 0.99593 0.315 0.95784 0.0
C3469 C 1.00529 0.32086 0.92 0.0
C3470 C 0.02682 0.33257 0.9167 0.0
C3471 C 0.03913 0.33865 0.95105 0.0
C3472 C 0.02993 0.33309 0.98878 0.0
C3473 C 0.00841 0.32137 0.99225 0.0
H3474 H 0.05579 0.3477 0.94843 0.0
H3475 H 0.84732 0.23114 0.9849 0.0
H3476 H 0.70664 0.59189 0.9869 0.0
H3477 H 0.7216 0.62517 0.95343 0.0
H3478 H 0.72055 0.6543 0.06395 0.0
H3479 H 0.70527 0.62063 0.0982 0.0
H3480 H 0.70871 0.66933 0.99957 0.0
H3481 H 0.76568 0.65881 0.02968 0.0
H3482 H 0.7843 0.63931 0.03069 0.0
H3483 H 0.78332 0.6371 0.9024 0.0
H3484 H 0.76446 0.65637 0.90062 0.0
H3485 H 0.77579 0.77191 0.92794 0.0
H3486 H 0.75957 0.73949 0.96581 0.0
H3487 H 0.76421 0.70721 0.86294 0.0
H3488 H 0.78081 0.73975 0.82521 0.0
H3489 H 0.77477 0.69433 0.92645 0.0
H3490 H 0.71722 0.70296 0.89444 0.0
H3491 H 0.6972 0.72098 0.89069 0.0
H3492 H 0.69777 0.72534 0.01875 0.0
H3493 H 0.71804 0.70757 0.02324 0.0
C3494 C 0.70941 0.60524 1.00441 0.0
C3495 C 0.70476 0.60337 0.04564 0.0
C3496 C 0.71814 0.62441 0.98504 0.0
C3497 C 0.72265 0.64246 1.00612 0.0
C3498 C 0.71738 0.64066 0.04696 0.0
C3499 C 0.70862 0.62136 0.06655 0.0
C3500 C 0.7331 0.66305 0.98529 0.0
C3501 C 0.72334 0.67497 0.9842 0.0
C3502 C 0.75192 0.67025 0.96407 0.0
C3503 C 0.76352 0.65891 0.96504 0.0
C3504 C 0.76933 0.65406 1.00169 0.0
C3505 C 0.77994 0.64307 1.0024 0.0
C3506 C 0.78495 0.63693 0.96663 0.0
C3507 C 0.77942 0.64185 0.93008 0.0
C3508 C 0.7688 0.65284 0.9292 0.0
C3509 C 0.77325 0.75789 0.91328 0.0
C3510 C 0.77952 0.75846 0.87339 0.0
C3511 C 0.76387 0.73927 0.93498 0.0
C3512 C 0.76032 0.72064 0.91732 0.0
C3513 C 0.76667 0.72124 0.87746 0.0
C3514 C 0.7761 0.73988 0.85577 0.0
C3515 C 0.75035 0.70066 0.94047 0.0
C3516 C 0.7602 0.68881 0.94199 0.0
C3517 C 0.7315 0.69343 0.96171 0.0
C3518 C 0.71935 0.70414 0.95915 0.0
C3519 C 0.71323 0.70792 0.92179 0.0
C3520 C 0.70181 0.71806 0.91953 0.0
C3521 C 0.69628 0.72437 0.95446 0.0
C3522 C 0.7021 0.72049 0.99172 0.0
C3523 C 0.71355 0.71036 0.99414 0.0
H3524 H 0.68743 0.73221 0.95265 0.0
H3525 H 0.79314 0.6284 0.96725 0.0
H3526 H 0.26657 0.01852 0.90783 0.0
H3527 H 0.29881 0.03407 0.94645 0.0
H3528 H 0.32109 0.09097 0.88053 0.0
H3529 H 0.28904 0.07534 0.84145 0.0
H3530 H 0.35119 0.08283 0.88809 0.0
H3531 H 0.30246 0.08414 0.98046 0.0
H3532 H 0.27021 0.06886 0.01972 0.0
H3533 H 0.28763 0.02906 0.07989 0.0
H3534 H 0.31988 0.04393 0.0406 0.0
H3535 H 0.43583 0.15089 1.00568 0.0
H3536 H 0.40266 0.13269 0.97197 0.0
H3537 H 0.38414 0.0801 0.04943 0.0
H3538 H 0.41742 0.09904 0.08522 0.0
H3539 H 0.35196 0.08359 0.03633 0.0
H3540 H 0.40232 0.0845 0.94655 0.0
H3541 H 0.4342 0.0997 0.90617 0.0
H3542 H 0.41319 0.13455 0.83862 0.0
H3543 H 0.38161 0.12026 0.87959 0.0
C3544 C 0.27837 0.03433 0.90145 0.0
C3545 C 0.27515 0.04562 0.87136 0.0
C3546 C 0.29681 0.04331 0.92385 0.0
C3547 C 0.31252 0.06391 0.91707 0.0
C3548 C 0.30937 0.0751 0.88665 0.0
C3549 C 0.29095 0.06612 0.86423 0.0
C3550 C 0.33234 0.07377 0.94096 0.0
C3551 C 0.35131 0.0832 0.92051 0.0
C3552 C 0.33275 0.0738 0.98342 0.0
C3553 C 0.31348 0.065 1.0073 0.0
C3554 C 0.29935 0.07203 1.00187 0.0
C3555 C 0.28108 0.06346 0.02416 0.0
C3556 C 0.27685 0.04796 0.0522 0.0
C3557 C 0.29091 0.04105 0.05812 0.0
C3558 C 0.3092 0.04955 0.03588 0.0
C3559 C 0.4248 0.1354 0.01569 0.0
C3560 C 0.4296 0.12635 0.04791 0.0
C3561 C 0.40572 0.12488 0.99602 0.0
C3562 C 0.39087 0.10456 1.0068 0.0
C3563 C 0.39529 0.09562 0.03989 0.0
C3564 C 0.41438 0.10645 0.06039 0.0
C3565 C 0.37092 0.09296 0.98342 0.0
C3566 C 0.35191 0.08317 1.00392 0.0
C3567 C 0.37046 0.09259 0.94086 0.0
C3568 C 0.38964 0.10141 0.91647 0.0
C3569 C 0.40462 0.09561 0.92343 0.0
C3570 C 0.42268 0.10412 0.90049 0.0
C3571 C 0.42582 0.11824 0.87007 0.0
C3572 C 0.41088 0.12382 0.86249 0.0
C3573 C 0.39291 0.11554 0.88561 0.0
H3574 H 0.43977 0.12476 0.85225 0.0
H3575 H 0.26269 0.04133 0.06941 0.0
H3576 H 0.79371 0.06673 0.26079 0.0
H3577 H 0.77638 0.08219 0.29816 0.0
H3578 H 0.75238 0.03138 0.38149 0.0
H3579 H 0.77048 0.01644 0.34537 0.0
H3580 H 0.72301 0.04702 0.34614 0.0
H3581 H 0.78672 0.06625 0.41755 0.0
H3582 H 0.82448 0.08101 0.42198 0.0
H3583 H 0.83401 0.13948 0.37981 0.0
H3584 H 0.79628 0.12491 0.3742 0.0
H3585 H 0.6854 0.08667 0.49852 0.0
H3586 H 0.70075 0.06936 0.46124 0.0
H3587 H 0.74853 0.12853 0.41729 0.0
H3588 H 0.73382 0.1458 0.45593 0.0
H3589 H 0.76599 0.108 0.43191 0.0
H3590 H 0.70414 0.09073 0.35921 0.0
H3591 H 0.6668 0.07708 0.34929 0.0
H3592 H 0.65401 0.01691 0.38779 0.0
H3593 H 0.69127 0.03028 0.39839 0.0
C3594 C 0.7844 0.05868 0.28663 0.0
C3595 C 0.78324 0.04024 0.2999 0.0
C3596 C 0.77462 0.06759 0.30812 0.0
C3597 C 0.76308 0.05797 0.34271 0.0
C3598 C 0.76116 0.03908 0.35492 0.0
C3599 C 0.77144 0.03052 0.33419 0.0
C3600 C 0.75374 0.06801 0.3671 0.0
C3601 C 0.73233 0.06021 0.36528 0.0
C3602 C 0.76597 0.08556 0.39128 0.0
C3603 C 0.78866 0.09438 0.39485 0.0
C3604 C 0.79686 0.08217 0.40868 0.0
C3605 C 0.81826 0.09052 0.41151 0.0
C3606 C 0.83163 0.11114 0.40103 0.0
C3607 C 0.82363 0.12348 0.38779 0.0
C3608 C 0.80223 0.11518 0.38476 0.0
C3609 C 0.6992 0.09595 0.48095 0.0
C3610 C 0.70833 0.11762 0.48025 0.0
C3611 C 0.70794 0.08603 0.4593 0.0
C3612 C 0.72575 0.09748 0.43553 0.0
C3613 C 0.73488 0.11917 0.43518 0.0
C3614 C 0.72637 0.12908 0.4573 0.0
C3615 C 0.73498 0.08707 0.41121 0.0
C3616 C 0.75649 0.09482 0.41289 0.0
C3617 C 0.72286 0.06964 0.38637 0.0
C3618 C 0.70046 0.06156 0.38 0.0
C3619 C 0.69335 0.07463 0.36583 0.0
C3620 C 0.6722 0.06693 0.36004 0.0
C3621 C 0.65804 0.04616 0.36802 0.0
C3622 C 0.665 0.03301 0.38169 0.0
C3623 C 0.68613 0.04063 0.38756 0.0
H3624 H 0.64167 0.04023 0.36352 0.0
H3625 H 0.8482 0.11758 0.40329 0.0
H3626 H 0.00862 0.75766 0.27395 0.0
H3627 H 0.99488 0.72461 0.30978 0.0
H3628 H 0.9536 0.73849 0.37562 0.0
H3629 H 0.96836 0.77184 0.34234 0.0
H3630 H 0.96533 0.72273 0.42457 0.0
H3631 H 0.93999 0.70005 0.29037 0.0
H3632 H 0.94326 0.69747 0.21747 0.0
H3633 H 0.98188 0.67083 0.23654 0.0
H3634 H 0.97901 0.67344 0.30956 0.0
H3635 H 0.89474 0.62257 0.4995 0.0
H3636 H 0.91118 0.65486 0.46135 0.0
H3637 H 0.95635 0.6401 0.4164 0.0
H3638 H 0.93954 0.60742 0.45394 0.0
H3639 H 0.94472 0.65594 0.35754 0.0
H3640 H 0.96711 0.67723 0.49365 0.0
H3641 H 0.9621 0.67957 0.56597 0.0
H3642 H 0.92614 0.70866 0.54158 0.0
H3643 H 0.93073 0.70627 0.46912 0.0
C3644 C 0.99662 0.75359 0.29612 0.0
C3645 C 0.98973 0.76753 0.30536 0.0
C3646 C 0.98856 0.73452 0.31648 0.0
C3647 C 0.97278 0.72851 0.34546 0.0
C3648 C 0.96578 0.74245 0.35395 0.0
C3649 C 0.97425 0.76165 0.33464 0.0
C3650 C 0.96375 0.70819 0.36793 0.0
C3651 C 0.96058 0.70816 0.40948 0.0
C3652 C 0.95791 0.68891 0.34923 0.0
C3653 C 0.95944 0.68712 0.30539 0.0
C3654 C 0.94926 0.69373 0.279 0.0
C3655 C 0.95103 0.69225 0.23767 0.0
C3656 C 0.96282 0.68405 0.22239 0.0
C3657 C 0.97278 0.67721 0.24841 0.0
C3658 C 0.97107 0.67866 0.28977 0.0
C3659 C 0.90824 0.62621 0.48167 0.0
C3660 C 0.9159 0.6124 0.48021 0.0
C3661 C 0.91773 0.64481 0.45985 0.0
C3662 C 0.93537 0.65035 0.43625 0.0
C3663 C 0.94287 0.63641 0.43436 0.0
C3664 C 0.9333 0.61772 0.45606 0.0
C3665 C 0.94589 0.67058 0.4137 0.0
C3666 C 0.94944 0.67057 0.37235 0.0
C3667 C 0.95174 0.68982 0.43237 0.0
C3668 C 0.94914 0.69142 0.47596 0.0
C3669 C 0.95804 0.68402 0.50372 0.0
C3670 C 0.95529 0.68537 0.54473 0.0
C3671 C 0.94378 0.69422 0.55835 0.0
C3672 C 0.93504 0.70179 0.53099 0.0
C3673 C 0.93774 0.70047 0.48996 0.0
H3674 H 0.94165 0.69524 0.59011 0.0
H3675 H 0.9642 0.68295 0.19039 0.0
H3676 H 0.43385 0.34197 0.42079 0.0
H3677 H 0.40154 0.32545 0.3827 0.0
H3678 H 0.36769 0.29639 0.49043 0.0
H3679 H 0.40014 0.31258 0.5285 0.0
H3680 H 0.35309 0.2693 0.43251 0.0
H3681 H 0.36769 0.33932 0.44463 0.0
H3682 H 0.38855 0.37732 0.43906 0.0
H3683 H 0.39282 0.3722 0.31198 0.0
H3684 H 0.37219 0.33413 0.31686 0.0
H3685 H 0.25267 0.23751 0.36366 0.0
H3686 H 0.28578 0.25589 0.39774 0.0
H3687 H 0.31645 0.28016 0.28511 0.0
H3688 H 0.28295 0.26188 0.25036 0.0
H3689 H 0.33317 0.3094 0.34293 0.0
H3690 H 0.31709 0.23873 0.33183 0.0
H3691 H 0.29489 0.20091 0.33872 0.0
H3692 H 0.29239 0.20745 0.4658 0.0
H3693 H 0.3144 0.24535 0.45963 0.0
C3694 C 0.41952 0.33217 0.43646 0.0
C3695 C 0.41963 0.32876 0.47784 0.0
C3696 C 0.40096 0.32275 0.4146 0.0
C3697 C 0.38191 0.3098 0.43352 0.0
C3698 C 0.38204 0.3063 0.47489 0.0
C3699 C 0.40064 0.31567 0.49676 0.0
C3700 C 0.36197 0.2997 0.4102 0.0
C3701 C 0.34869 0.27818 0.41335 0.0
C3702 C 0.35619 0.311 0.38421 0.0
C3703 C 0.36858 0.33387 0.38117 0.0
C3704 C 0.37321 0.34629 0.41554 0.0
C3705 C 0.38497 0.36784 0.4125 0.0
C3706 C 0.39206 0.37717 0.37521 0.0
C3707 C 0.38735 0.36496 0.34085 0.0
C3708 C 0.37561 0.34339 0.34373 0.0
C3709 C 0.26636 0.24681 0.34583 0.0
C3710 C 0.26496 0.24796 0.30392 0.0
C3711 C 0.28542 0.25728 0.36555 0.0
C3712 C 0.30385 0.26909 0.34412 0.0
C3713 C 0.30254 0.27102 0.30245 0.0
C3714 C 0.28332 0.26056 0.28255 0.0
C3715 C 0.32432 0.27909 0.36548 0.0
C3716 C 0.33767 0.30056 0.36196 0.0
C3717 C 0.33011 0.26775 0.39131 0.0
C3718 C 0.31728 0.24491 0.39522 0.0
C3719 C 0.31174 0.23211 0.36123 0.0
C3720 C 0.29919 0.21066 0.36501 0.0
C3721 C 0.29219 0.20179 0.40266 0.0
C3722 C 0.29782 0.21435 0.43665 0.0
C3723 C 0.31036 0.23582 0.43303 0.0
H3724 H 0.28243 0.18518 0.40551 0.0
H3725 H 0.40116 0.39386 0.37292 0.0
H3726 H 0.02851 0.78701 0.08768 0.0
H3727 H 0.04505 0.77119 0.04981 0.0
H3728 H 0.06954 0.76149 0.15926 0.0
H3729 H 0.05331 0.77774 0.19719 0.0
H3730 H 0.09838 0.77466 0.10405 0.0
H3731 H 0.02716 0.72112 0.10754 0.0
H3732 H 0.98958 0.70597 0.09814 0.0
H3733 H 0.99871 0.71892 0.97236 0.0
H3734 H 0.0364 0.73439 0.98111 0.0
H3735 H 0.12828 0.70499 0.03201 0.0
H3736 H 0.1102 0.71999 0.06623 0.0
H3737 H 0.08897 0.72999 0.95309 0.0
H3738 H 0.10687 0.71445 0.91823 0.0
H3739 H 0.05883 0.71751 1.00797 0.0
H3740 H 0.13047 0.77009 1.00507 0.0
H3741 H 0.16784 0.78406 0.01534 0.0
H3742 H 0.1578 0.77216 0.14128 0.0
H3743 H 0.12032 0.75785 0.1317 0.0
C3744 C 0.03731 0.7814 0.10377 0.0
C3745 C 0.03941 0.78352 0.1456 0.0
C3746 C 0.04675 0.77225 0.08202 0.0
C3747 C 0.05841 0.76475 0.10148 0.0
C3748 C 0.06064 0.76703 0.1433 0.0
C3749 C 0.05124 0.77625 0.16507 0.0
C3750 C 0.06838 0.75475 0.07828 0.0
C3751 C 0.08961 0.76199 0.08345 0.0
C3752 C 0.05725 0.7385 0.05044 0.0
C3753 C 0.03461 0.7291 0.04505 0.0
C3754 C 0.02116 0.72087 0.07792 0.0
C3755 C 0.99984 0.7122 0.0727 0.0
C3756 C 0.99177 0.71154 0.03469 0.0
C3757 C 1.00499 0.71947 1.0018 0.0
C3758 C 0.02633 0.72817 1.00686 0.0
C3759 C 0.1197 0.71023 0.01411 0.0
C3760 C 0.11929 0.70858 0.97205 0.0
C3761 C 0.10941 0.71899 0.03391 0.0
C3762 C 0.09855 0.72671 0.01243 0.0
C3763 C 0.09736 0.72437 0.97052 0.0
C3764 C 0.10761 0.71543 0.95054 0.0
C3765 C 0.08876 0.73734 0.03395 0.0
C3766 C 0.06759 0.73024 0.02845 0.0
C3767 C 0.09994 0.75368 0.06161 0.0
C3768 C 0.12255 0.76274 0.0676 0.0
C3769 C 0.13621 0.77036 0.03493 0.0
C3770 C 0.15742 0.77834 0.04063 0.0
C3771 C 0.16518 0.77894 0.07892 0.0
C3772 C 0.15176 0.77166 0.11163 0.0
C3773 C 0.13054 0.76364 0.10609 0.0
H3774 H 0.1816 0.78507 0.08325 0.0
H3775 H 0.97526 0.70483 0.03072 0.0
H3776 H 0.3464 0.42795 0.94566 0.0
H3777 H 0.33268 0.39505 0.98223 0.0
H3778 H 0.2821 0.40213 0.0254 0.0
H3779 H 0.29661 0.43537 0.99162 0.0
H3780 H 0.29272 0.3897 0.08286 0.0
H3781 H 0.28004 0.36488 0.94632 0.0
H3782 H 0.28981 0.36264 0.87682 0.0
H3783 H 0.33149 0.34291 0.91884 0.0
H3784 H 0.32212 0.34523 0.98862 0.0
H3785 H 0.22444 0.28817 0.15293 0.0
H3786 H 0.2412 0.32014 0.11393 0.0
H3787 H 0.29322 0.3114 0.09239 0.0
H3788 H 0.27613 0.27895 0.13067 0.0
H3789 H 0.28443 0.32469 0.02582 0.0
H3790 H 0.29421 0.34771 0.16312 0.0
H3791 H 0.28297 0.34953 0.2316 0.0
H3792 H 0.24439 0.37228 0.18582 0.0
H3793 H 0.25521 0.37036 0.11703 0.0
C3794 C 0.33228 0.42232 0.96276 0.0
C3795 C 0.32263 0.4343 0.96576 0.0
C3796 C 0.3243 0.40338 0.98359 0.0
C3797 C 0.30604 0.39563 1.00669 0.0
C3798 C 0.29623 0.40752 1.00844 0.0
C3799 C 0.3045 0.42658 0.98878 0.0
C3800 C 0.2973 0.37572 0.03032 0.0
C3801 C 0.29068 0.37548 0.06987 0.0
C3802 C 0.29504 0.35701 0.01457 0.0
C3803 C 0.30052 0.35542 0.97266 0.0
C3804 C 0.29136 0.36016 0.94072 0.0
C3805 C 0.29682 0.35887 0.90129 0.0
C3806 C 0.3113 0.35269 0.89343 0.0
C3807 C 0.3203 0.34772 0.92498 0.0
C3808 C 0.3149 0.349 0.96446 0.0
C3809 C 0.2395 0.29307 0.14008 0.0
C3810 C 0.24899 0.28103 0.14534 0.0
C3811 C 0.24916 0.31149 0.11779 0.0
C3812 C 0.26878 0.31862 0.10056 0.0
C3813 C 0.27818 0.30644 0.10537 0.0
C3814 C 0.26842 0.28789 0.12748 0.0
C3815 C 0.27938 0.3387 0.07764 0.0
C3816 C 0.28645 0.33897 0.03851 0.0
C3817 C 0.28177 0.35741 0.09349 0.0
C3818 C 0.27542 0.35875 0.13491 0.0
C3819 C 0.28325 0.35299 0.16765 0.0
C3820 C 0.27696 0.35406 0.20652 0.0
C3821 C 0.26294 0.36098 0.21305 0.0
C3822 C 0.25523 0.36691 0.18072 0.0
C3823 C 0.26146 0.36586 0.1418 0.0
H3824 H 0.25808 0.36177 0.24315 0.0
H3825 H 0.31553 0.35172 0.86289 0.0
H3826 H 0.61684 0.91272 0.9186 0.0
H3827 H 0.64992 0.93009 0.95512 0.0
H3828 H 0.61953 0.93935 0.05583 0.0
H3829 H 0.58641 0.92136 0.02021 0.0
H3830 H 0.66011 0.97565 0.03155 0.0
H3831 H 0.62736 0.90395 0.06774 0.0
H3832 H 0.61046 0.86637 0.05582 0.0
H3833 H 0.66481 0.87454 0.99571 0.0
H3834 H 0.68189 0.91228 1.00647 0.0
H3835 H 0.73729 1.00269 0.18325 0.0
H3836 H 0.70461 0.98699 0.14573 0.0
H3837 H 0.73015 0.96321 0.05905 0.0
H3838 H 0.76264 0.97872 0.09645 0.0
H3839 H 0.69169 0.93422 0.07562 0.0
H3840 H 0.72462 0.00597 0.03967 0.0
H3841 H 0.74145 0.04358 0.05143 0.0
H3842 H 0.68692 0.03539 0.11084 0.0
H3843 H 0.66985 0.99767 0.0999 0.0
C3844 C 0.6173 0.91878 0.94824 0.0
C3845 C 0.59899 0.91576 0.96636 0.0
C3846 C 0.63619 0.92858 0.96922 0.0
C3847 C 0.63725 0.936 1.00837 0.0
C3848 C 0.61916 0.9338 0.02574 0.0
C3849 C 0.60023 0.92354 1.00527 0.0
C3850 C 0.657 0.94541 0.03181 0.0
C3851 C 0.66692 0.96655 0.04152 0.0
C3852 C 0.66611 0.93366 0.04441 0.0
C3853 C 0.65579 0.91101 0.03736 0.0
C3854 C 0.63561 0.89779 0.05144 0.0
C3855 C 0.62602 0.87644 0.04502 0.0
C3856 C 0.63653 0.86807 0.02492 0.0
C3857 C 0.65667 0.88105 0.01119 0.0
C3858 C 0.6663 0.90243 0.01741 0.0
C3859 C 0.73593 0.99413 0.15618 0.0
C3860 C 0.75267 0.99207 0.14286 0.0
C3861 C 0.71723 0.9852 0.13458 0.0
C3862 C 0.7148 0.97399 0.09908 0.0
C3863 C 0.73146 0.97173 0.08617 0.0
C3864 C 0.75014 0.98071 0.1076 0.0
C3865 C 0.69501 0.96462 0.07535 0.0
C3866 C 0.68501 0.94342 0.06558 0.0
C3867 C 0.68583 0.97633 0.06265 0.0
C3868 C 0.69605 0.99898 0.06936 0.0
C3869 C 0.71628 0.01217 0.05555 0.0
C3870 C 0.72585 0.03351 0.06201 0.0
C3871 C 0.71528 0.04187 0.08198 0.0
C3872 C 0.6951 0.0289 0.09544 0.0
C3873 C 0.68547 0.00754 0.0891 0.0
H3874 H 0.72272 0.0584 0.08693 0.0
H3875 H 0.6291 0.85153 0.02011 0.0
H3876 H 0.62798 0.57429 0.17164 0.0
H3877 H 0.61217 0.59056 0.21042 0.0
H3878 H 0.66668 0.62094 0.28441 0.0
H3879 H 0.68238 0.60429 0.24607 0.0
H3880 H 0.63318 0.60712 0.33027 0.0
H3881 H 0.65539 0.64693 0.20815 0.0
H3882 H 0.65742 0.65182 0.135 0.0
H3883 H 0.59141 0.62438 0.1289 0.0
H3884 H 0.58897 0.61911 0.20194 0.0
H3885 H 0.60053 0.67352 0.42339 0.0
H3886 H 0.6199 0.65941 0.38893 0.0
H3887 H 0.57206 0.6324 0.2992 0.0
H3888 H 0.55348 0.64711 0.33193 0.0
H3889 H 0.60492 0.64658 0.26215 0.0
H3890 H 0.58115 0.60435 0.3807 0.0
H3891 H 0.57726 0.59743 0.45322 0.0
H3892 H 0.64319 0.62668 0.46587 0.0
H3893 H 0.64748 0.63397 0.39346 0.0
C3894 C 0.63668 0.58452 0.19603 0.0
C3895 C 0.65658 0.5881 0.20538 0.0
C3896 C 0.62762 0.59392 0.21823 0.0
C3897 C 0.63826 0.60738 0.25024 0.0
C3898 C 0.65806 0.61076 0.25992 0.0
C3899 C 0.66711 0.60129 0.23776 0.0
C3900 C 0.62877 0.61789 0.27343 0.0
C3901 C 0.62725 0.61598 0.31536 0.0
C3902 C 0.62051 0.62914 0.25435 0.0
C3903 C 0.622 0.63249 0.21047 0.0
C3904 C 0.6413 0.64184 0.19117 0.0
C3905 C 0.64253 0.64469 0.14973 0.0
C3906 C 0.62455 0.63838 0.12731 0.0
C3907 C 0.60532 0.62925 0.1463 0.0
C3908 C 0.60401 0.62636 0.18771 0.0
C3909 C 0.59422 0.66461 0.39628 0.0
C3910 C 0.57546 0.66171 0.38048 0.0
C3911 C 0.60524 0.65636 0.37661 0.0
C3912 C 0.59753 0.64453 0.34123 0.0
C3913 C 0.57869 0.64153 0.326 0.0
C3914 C 0.56796 0.65002 0.34503 0.0
C3915 C 0.60886 0.6355 0.31914 0.0
C3916 C 0.61083 0.63775 0.27727 0.0
C3917 C 0.61719 0.62429 0.33828 0.0
C3918 C 0.61464 0.61991 0.38176 0.0
C3919 C 0.59482 0.60943 0.399 0.0
C3920 C 0.59254 0.60542 0.44007 0.0
C3921 C 0.60997 0.61167 0.46415 0.0
C3922 C 0.62971 0.62188 0.44719 0.0
C3923 C 0.63207 0.62594 0.40614 0.0
H3924 H 0.60818 0.60855 0.49594 0.0
H3925 H 0.62553 0.64058 0.09524 0.0
H3926 H 0.47012 0.08401 0.19259 0.0
H3927 H 0.45314 0.05196 0.23147 0.0
H3928 H 0.40383 0.06374 0.26132 0.0
H3929 H 0.42107 0.09613 0.22293 0.0
H3930 H 0.41399 0.04944 0.32589 0.0
H3931 H 0.39847 0.02708 0.18824 0.0
H3932 H 0.40713 0.02491 0.11789 0.0
H3933 H 0.44411 0.99864 0.15487 0.0
H3934 H 0.43587 1.00088 0.22546 0.0
H3935 H 0.34961 0.94696 0.40727 0.0
H3936 H 0.36397 0.98009 0.3713 0.0
H3937 H 0.40987 0.96874 0.31733 0.0
H3938 H 0.3946 0.93533 0.35052 0.0
H3939 H 0.39924 0.98315 0.26375 0.0
H3940 H 0.41786 0.00698 0.39997 0.0
H3941 H 0.41113 0.0096 0.47134 0.0
H3942 H 0.37135 0.03348 0.43964 0.0
H3943 H 0.37769 0.03081 0.36806 0.0
C3944 C 0.45561 0.07976 0.20724 0.0
C3945 C 0.44689 0.09262 0.20419 0.0
C3946 C 0.44582 0.06132 0.2295 0.0
C3947 C 0.4269 0.05503 0.24908 0.0
C3948 C 0.41832 0.06804 0.24653 0.0
C3949 C 0.42816 0.08656 0.22433 0.0
C3950 C 0.41609 0.03491 0.27189 0.0
C3951 C 0.41056 0.0349 0.31214 0.0
C3952 C 0.4119 0.01583 0.25463 0.0
C3953 C 0.41667 0.01429 0.21214 0.0
C3954 C 0.40854 0.02094 0.18137 0.0
C3955 C 0.41336 0.01969 0.14145 0.0
C3956 C 0.42619 0.01168 0.13193 0.0
C3957 C 0.43418 1.00485 0.16229 0.0
C3958 C 0.42942 0.00608 0.20224 0.0
C3959 C 0.3628 0.95166 0.38779 0.0
C3960 C 0.37086 0.93842 0.38164 0.0
C3961 C 0.37119 0.97075 0.36733 0.0
C3962 C 0.38836 0.97742 0.34147 0.0
C3963 C 0.39659 0.96424 0.33645 0.0
C3964 C 0.38786 0.94504 0.35574 0.0
C3965 C 0.39758 0.99758 0.31844 0.0
C3966 C 0.4027 0.99762 0.27786 0.0
C3967 C 0.40174 0.0167 0.3357 0.0
C3968 C 0.3981 0.01851 0.37869 0.0
C3969 C 0.4076 0.0127 0.40824 0.0
C3970 C 0.40387 0.0142 0.44871 0.0
C3971 C 0.39078 0.02165 0.46001 0.0
C3972 C 0.38146 0.02769 0.43085 0.0
C3973 C 0.38514 0.02621 0.39033 0.0
H3974 H 0.3879 0.0228 0.49135 0.0
H3975 H 0.42992 0.01073 0.10102 0.0
H3976 H 0.10915 0.45911 0.32346 0.0
H3977 H 0.07605 0.44106 0.2889 0.0
H3978 H 0.04423 0.43356 0.40062 0.0
H3979 H 0.0776 0.45095 0.43584 0.0
H3980 H 0.02248 0.40064 0.35861 0.0
H3981 H 0.05282 0.47252 0.32693 0.0
H3982 H 0.08019 0.50677 0.30363 0.0
H3983 H 0.07916 0.48135 0.18795 0.0
H3984 H 0.052 0.44688 0.21069 0.0
H3985 H 0.92715 0.3769 0.26476 0.0
H3986 H 0.95947 0.39345 0.30281 0.0
H3987 H 0.99353 0.39853 0.19529 0.0
H3988 H 0.96115 0.38233 0.15691 0.0
H3989 H 0.01357 0.43331 0.23684 0.0
H3990 H 0.98308 0.36096 0.27087 0.0
H3991 H 0.95541 0.32723 0.29561 0.0
H3992 H 0.9561 0.35472 0.4088 0.0
H3993 H 0.9836 0.38868 0.38456 0.0
C3994 C 0.09513 0.45347 0.3409 0.0
C3995 C 0.09616 0.45667 0.38255 0.0
C3996 C 0.07609 0.44327 0.32091 0.0
C3997 C 0.05741 0.43642 0.34166 0.0
C3998 C 0.05831 0.43881 0.38358 0.0
C3999 C 0.07745 0.44874 0.40382 0.0
C4000 C 0.03713 0.42702 0.31943 0.0
C4001 C 0.02051 0.40801 0.33235 0.0
C4002 C 0.03434 0.43628 0.2846 0.0
C4003 C 0.05047 0.45707 0.27063 0.0
C4004 C 0.0585 0.47421 0.29658 0.0
C4005 C 0.07398 0.49366 0.28348 0.0
C4006 C 0.08143 0.49622 0.24437 0.0
C4007 C 0.07338 0.47934 0.21824 0.0
C4008 C 0.05793 0.45985 0.23121 0.0
C4009 C 0.9415 0.38143 0.2492 0.0
C4010 C 0.94147 0.37808 0.20775 0.0
C4011 C 0.96005 0.39086 0.2711 0.0
C4012 C 0.97913 0.39703 0.25232 0.0
C4013 C 0.97913 0.3939 0.21076 0.0
C4014 C 0.96056 0.38454 0.18878 0.0
C4015 C 0.99903 0.40685 0.2758 0.0
C4016 C 0.01556 0.42599 0.26314 0.0
C4017 C 1.00165 0.39782 0.31107 0.0
C4018 C 0.98526 0.37738 0.32578 0.0
C4019 C 0.97724 0.35983 0.30095 0.0
C4020 C 0.9616 0.34067 0.3149 0.0
C4021 C 0.95397 0.33885 0.35371 0.0
C4022 C 0.96201 0.35616 0.37872 0.0
C4023 C 0.97764 0.37536 0.36492 0.0
H4024 H 0.94185 0.32401 0.36444 0.0
H4025 H 0.09339 0.51128 0.23428 0.0
H4026 H 0.46844 0.38277 0.69481 0.0
H4027 H 0.45041 0.39804 0.7276 0.0
H4028 H 0.41474 0.38965 0.62078 0.0
H4029 H 0.43348 0.37472 0.58668 0.0
H4030 H 0.42626 0.42678 0.65354 0.0
H4031 H 0.39394 0.35744 0.70622 0.0
H4032 H 0.39357 0.32732 0.73747 0.0
H4033 H 0.42413 0.36378 0.84125 0.0
H4034 H 0.4249 0.39418 0.81044 0.0
H4035 H 0.35603 0.44971 0.75572 0.0
H4036 H 0.37153 0.43295 0.7174 0.0
H4037 H 0.40867 0.43713 0.81958 0.0
H4038 H 0.39285 0.45349 0.85822 0.0
H4039 H 0.39459 0.40089 0.78671 0.0
H4040 H 0.42852 0.47007 0.7358 0.0
H4041 H 0.43065 0.50133 0.70613 0.0
H4042 H 0.39924 0.46682 0.60103 0.0
H4043 H 0.39664 0.43526 0.63034 0.0
C4044 C 0.45667 0.38391 0.67799 0.0
C4045 C 0.45237 0.37716 0.63789 0.0
C4046 C 0.44624 0.39269 0.69709 0.0
C4047 C 0.43077 0.39469 0.67724 0.0
C4048 C 0.42647 0.38818 0.63704 0.0
C4049 C 0.43714 0.37952 0.61758 0.0
C4050 C 0.41941 0.40371 0.69877 0.0
C4051 C 0.41899 0.42084 0.68229 0.0
C4052 C 0.41039 0.3965 0.73701 0.0
C4053 C 0.40956 0.37811 0.75592 0.0
C4054 C 0.40064 0.35905 0.73564 0.0
C4055 C 0.40036 0.34193 0.75328 0.0
C4056 C 0.40884 0.34365 0.7913 0.0
C4057 C 0.41756 0.36247 0.81182 0.0
C4058 C 0.41788 0.37964 0.79431 0.0
C4059 C 0.36746 0.447 0.77008 0.0
C4060 C 0.37318 0.45297 0.8101 0.0
C4061 C 0.37646 0.43753 0.74799 0.0
C4062 C 0.39159 0.43394 0.76517 0.0
C4063 C 0.39711 0.43968 0.80537 0.0
C4064 C 0.38806 0.4491 0.8275 0.0
C4065 C 0.40149 0.42403 0.74162 0.0
C4066 C 0.40168 0.40674 0.75778 0.0
C4067 C 0.41046 0.43123 0.70333 0.0
C4068 C 0.41218 0.45024 0.68546 0.0
C4069 C 0.42193 0.46911 0.70648 0.0
C4070 C 0.42324 0.48689 0.68972 0.0
C4071 C 0.41504 0.48605 0.65177 0.0
C4072 C 0.40556 0.46744 0.63046 0.0
C4073 C 0.40417 0.4496 0.64712 0.0
H4074 H 0.41607 0.49983 0.63885 0.0
H4075 H 0.40864 0.33039 0.80487 0.0
H4076 H 0.65063 0.1131 0.69389 0.0
H4077 H 0.63564 0.07982 0.72732 0.0
H4078 H 0.64372 0.05219 0.62074 0.0
H4079 H 0.65851 0.08575 0.58625 0.0
H4080 H 0.60642 0.02668 0.65402 0.0
H4081 H 0.67604 0.06364 0.70468 0.0
H4082 H 0.70648 0.09331 0.73538 0.0
H4083 H 0.67104 0.08751 0.84056 0.0
H4084 H 0.64031 0.05795 0.8103 0.0
H4085 H 0.58471 0.93319 0.75355 0.0
H4086 H 0.60106 0.96571 0.71593 0.0
H4087 H 0.5975 0.99803 0.81981 0.0
H4088 H 0.58153 0.96556 0.85773 0.0
H4089 H 0.63339 0.0208 0.78594 0.0
H4090 H 0.56394 0.98519 0.73705 0.0
H4091 H 0.53257 0.95591 0.70795 0.0
H4092 H 0.56619 0.95962 0.60125 0.0
H4093 H 0.59786 0.98871 0.62999 0.0
C4094 C 0.64942 0.10008 0.67727 0.0
C4095 C 0.65605 0.10241 0.63712 0.0
C4096 C 0.64082 0.08091 0.69672 0.0
C4097 C 0.63876 0.06334 0.67706 0.0
C4098 C 0.64518 0.06545 0.63685 0.0
C4099 C 0.65378 0.08474 0.61716 0.0
C4100 C 0.62981 0.04293 0.69871 0.0
C4101 C 0.61258 0.02533 0.68251 0.0
C4102 C 0.6373 0.04108 0.73662 0.0
C4103 C 0.65584 0.05866 0.75511 0.0
C4104 C 0.67472 0.06875 0.73428 0.0
C4105 C 0.69202 0.08555 0.75161 0.0
C4106 C 0.69069 0.09231 0.78987 0.0
C4107 C 0.67205 0.08225 0.81093 0.0
C4108 C 0.6547 0.06546 0.79373 0.0
C4109 C 0.58747 0.94723 0.76845 0.0
C4110 C 0.58178 0.94669 0.80875 0.0
C4111 C 0.59672 0.96588 0.74676 0.0
C4112 C 0.60036 0.98451 0.76459 0.0
C4113 C 0.59492 0.984 0.80507 0.0
C4114 C 0.58572 0.96536 0.8268 0.0
C4115 C 0.60996 1.0045 0.74135 0.0
C4116 C 0.62729 0.02205 0.75731 0.0
C4117 C 0.60242 0.00633 0.70344 0.0
C4118 C 0.58334 0.989 0.68586 0.0
C4119 C 0.56468 0.97967 0.7075 0.0
C4120 C 0.54684 0.96312 0.69106 0.0
C4121 C 0.5474 0.95588 0.65283 0.0
C4122 C 0.56579 0.96523 0.6309 0.0
C4123 C 0.58369 0.98175 0.64724 0.0
H4124 H 0.53357 0.94305 0.64016 0.0
H4125 H 0.7041 0.10533 0.80321 0.0
H4126 H 0.91941 0.56945 0.69764 0.0
H4127 H 0.95265 0.5884 0.73164 0.0
H4128 H 0.98366 0.60769 0.61795 0.0
H4129 H 0.95016 0.58863 0.58335 0.0
H4130 H 1.0033 0.59358 0.67026 0.0
H4131 H 0.97901 0.64213 0.67534 0.0
H4132 H 0.95366 0.65333 0.689 0.0
H4133 H 0.95258 0.6381 0.81309 0.0
H4134 H 0.97776 0.62657 0.80008 0.0
H4135 H 0.10126 0.66636 0.75237 0.0
H4136 H 0.06882 0.6496 0.71472 0.0
H4137 H 0.03447 0.63462 0.82506 0.0
H4138 H 0.06702 0.65169 0.86288 0.0
H4139 H 0.01676 0.64707 0.77247 0.0
H4140 H 0.03967 0.59783 0.76931 0.0
H4141 H 0.06397 0.58509 0.75773 0.0
H4142 H 0.06654 0.59952 0.63288 0.0
H4143 H 0.04247 0.61264 0.64381 0.0
C4144 C 0.93322 0.5778 0.67962 0.0
C4145 C 0.93193 0.57745 0.63752 0.0
C4146 C 0.95232 0.58873 0.69927 0.0
C4147 C 0.97082 0.59965 0.67758 0.0
C4148 C 0.96967 0.59943 0.63552 0.0
C4149 C 0.95045 0.58862 0.61572 0.0
C4150 C 0.9912 0.61104 0.69911 0.0
C4151 C 1.00639 0.60555 0.69207 0.0
C4152 C 0.99512 0.62621 0.72866 0.0
C4153 C 0.98016 0.63334 0.73667 0.0
C4154 C 0.97327 0.64105 0.7055 0.0
C4155 C 0.95895 0.64748 0.71313 0.0
C4156 C 0.95149 0.64639 0.75187 0.0
C4157 C 0.95838 0.63893 0.78309 0.0
C4158 C 0.97269 0.63247 0.77562 0.0
C4159 C 0.08681 0.65958 0.76868 0.0
C4160 C 0.08681 0.66041 0.81075 0.0
C4161 C 0.06818 0.64982 0.74705 0.0
C4162 C 0.04897 0.64047 0.76681 0.0
C4163 C 0.04896 0.64161 0.80887 0.0
C4164 C 0.06762 0.65137 0.83056 0.0
C4165 C 0.02898 0.62967 0.74366 0.0
C4166 C 0.0138 0.63521 0.7505 0.0
C4167 C 0.025 0.61438 0.71423 0.0
C4168 C 0.03945 0.60645 0.70747 0.0
C4169 C 0.04555 0.59846 0.73943 0.0
C4170 C 0.05926 0.59114 0.73298 0.0
C4171 C 0.06686 0.59157 0.69462 0.0
C4172 C 0.06068 0.59925 0.6626 0.0
C4173 C 0.047 0.60662 0.6689 0.0
H4174 H 0.07747 0.5859 0.68968 0.0
H4175 H 0.94039 0.65136 0.75772 0.0
loop_
_geom_bond_atom_site_label_1
_geom_bond_atom_site_label_2
_geom_bond_distance
_geom_bond_site_symmetry_2
_ccdc_geom_bond_type
Co0 H3 2.400 1_545 S
Co0 O4 2.009 . S
Co0 O12 2.115 . S
Co0 O13 2.315 1_545 S
Co0 O24 2.053 1_545 S
Co0 O27 2.094 . S
Co0 O30 2.122 . S
Co1 O4 2.126 . S
Co1 H5 2.388 . S
Co1 O6 2.053 . S
Co1 O9 2.047 . S
Co1 O15 2.113 . S
Co1 O26 2.063 . S
Co2 H3 2.388 . S
Co2 O4 2.053 1_565 S
Co2 O6 2.126 1_565 S
Co2 O11 2.063 . S
Co2 O25 2.047 . S
Co2 O31 2.113 1_565 S
H3 Co0 2.400 1_565 S
H3 Co2 2.388 . S
H3 O4 0.760 1_565 S
O4 Co0 2.009 . S
O4 Co1 2.126 . S
O4 Co2 2.053 1_545 S
O4 H3 0.760 1_545 S
H5 Co1 2.388 . S
H5 O6 0.760 . S
H5 Co7 2.400 . S
O6 Co1 2.053 . S
O6 Co2 2.126 1_545 S
O6 H5 0.760 . S
O6 Co7 2.009 . S
Co7 H5 2.400 . S
Co7 O6 2.009 . S
Co7 O8 2.053 . S
Co7 O10 2.041 1_545 S
Co7 O14 2.122 1_545 S
Co7 O28 2.115 . S
Co7 O29 2.315 . S
O8 Co7 2.053 . S
O8 C20 1.259 . S
O9 Co1 2.047 . S
O9 C20 1.257 . S
O10 Co7 2.041 1_565 S
O10 C21 1.265 . S
O11 Co2 2.063 . S
O11 C21 1.268 . S
O12 Co0 2.115 . S
O12 C22 1.281 1_545 S
O13 Co0 2.315 1_565 S
O13 C22 1.252 . S
O14 Co7 2.122 1_565 S
O14 C23 1.272 . S
O15 Co1 2.113 . S
O15 C23 1.245 1_545 S
C16 O24 1.259 . S
C16 O25 1.257 . S
C17 O26 1.268 . S
C17 O27 1.253 . S
C18 O28 1.281 . S
C18 O29 1.252 . S
C19 O30 1.272 . S
C19 O31 1.245 . S
C20 O8 1.259 . S
C20 O9 1.257 . S
C21 O10 1.265 . S
C21 O11 1.268 . S
C22 O12 1.281 1_565 S
C22 O13 1.252 . S
C23 O14 1.272 . S
C23 O15 1.245 1_565 S
O24 Co0 2.053 1_565 S
O24 C16 1.259 . S
O25 Co2 2.047 . S
O25 C16 1.257 . S
O26 Co1 2.063 . S
O26 C17 1.268 . S
O27 Co0 2.094 . S
O27 C17 1.253 . S
O28 Co7 2.115 . S
O28 C18 1.281 . S
O29 Co7 2.315 . S
O29 C18 1.252 . S
O30 Co0 2.122 . S
O30 C19 1.272 . S
O31 Co2 2.113 1_545 S
O31 C19 1.245 . S
Co32 H35 2.400 . S
Co32 O36 2.009 . S
Co32 O44 2.115 . S
Co32 O45 2.315 . S
Co32 O56 2.053 . S
Co32 O59 2.094 1_455 S
Co32 O62 2.122 1_455 S
Co33 O36 2.126 1_655 S
Co33 H37 2.388 . S
Co33 O38 2.046 . S
Co33 O41 2.047 . S
Co33 O47 2.113 1_655 S
Co33 O58 2.063 . S
Co34 H35 2.388 . S
Co34 O36 2.053 . S
Co34 O38 2.114 1_455 S
Co34 O43 2.063 . S
Co34 O57 2.047 . S
Co34 O63 2.109 1_455 S
H35 Co32 2.400 . S
H35 Co34 2.388 . S
H35 O36 0.760 . S
O36 Co32 2.009 . S
O36 Co33 2.126 1_455 S
O36 Co34 2.053 . S
O36 H35 0.760 . S
H37 Co33 2.388 . S
H37 O38 0.774 . S
H37 Co39 2.400 1_655 S
O38 Co33 2.046 . S
O38 Co34 2.114 1_655 S
O38 H37 0.774 . S
O38 Co39 2.013 1_655 S
Co39 H37 2.400 1_455 S
Co39 O38 2.013 1_455 S
Co39 O40 2.053 1_455 S
Co39 O42 2.094 . S
Co39 O46 2.122 . S
Co39 O60 2.115 . S
Co39 O61 2.315 1_455 S
O40 Co39 2.053 1_655 S
O40 C52 1.259 . S
O41 Co33 2.047 . S
O41 C52 1.257 . S
O42 Co39 2.094 . S
O42 C53 1.253 . S
O43 Co34 2.063 . S
O43 C53 1.268 . S
O44 Co32 2.115 . S
O44 C54 1.281 . S
O45 Co32 2.315 . S
O45 C54 1.252 . S
O46 Co39 2.122 . S
O46 C55 1.272 . S
O47 Co33 2.113 1_455 S
O47 C55 1.245 . S
C48 O56 1.259 . S
C48 O57 1.257 . S
C49 O58 1.268 . S
C49 O59 1.253 . S
C50 O60 1.281 1_655 S
C50 O61 1.252 . S
C51 O62 1.272 . S
C51 O63 1.246 . S
C52 O40 1.259 . S
C52 O41 1.257 . S
C53 O42 1.253 . S
C53 O43 1.268 . S
C54 O44 1.281 . S
C54 O45 1.252 . S
C55 O46 1.272 . S
C55 O47 1.245 . S
O56 Co32 2.053 . S
O56 C48 1.259 . S
O57 Co34 2.047 . S
O57 C48 1.257 . S
O58 Co33 2.063 . S
O58 C49 1.268 . S
O59 Co32 2.094 1_655 S
O59 C49 1.253 . S
O60 Co39 2.115 . S
O60 C50 1.281 1_455 S
O61 Co39 2.315 1_655 S
O61 C50 1.252 . S
O62 Co32 2.122 1_655 S
O62 C51 1.272 . S
O63 Co34 2.109 1_655 S
O63 C51 1.246 . S
Co64 H67 2.400 . S
Co64 O68 2.009 . S
Co64 O76 2.115 . S
Co64 O77 2.315 . S
Co64 O88 2.053 . S
Co64 O91 2.094 . S
Co64 O94 2.122 . S
Co65 O68 2.126 . S
Co65 H69 2.388 . S
Co65 O70 2.053 . S
Co65 O73 2.047 . S
Co65 O79 2.113 . S
Co65 O90 2.063 . S
Co66 H67 2.388 . S
Co66 O68 2.053 . S
Co66 O70 2.126 . S
Co66 O75 2.063 . S
Co66 O89 2.047 . S
Co66 O95 2.113 . S
H67 Co64 2.400 . S
H67 Co66 2.388 . S
H67 O68 0.760 . S
O68 Co64 2.009 . S
O68 Co65 2.126 . S
O68 Co66 2.053 . S
O68 H67 0.760 . S
H69 Co65 2.388 . S
H69 O70 0.760 . S
H69 Co71 2.400 . S
O70 Co65 2.053 . S
O70 Co66 2.126 . S
O70 H69 0.760 . S
O70 Co71 2.009 . S
Co71 H69 2.400 . S
Co71 O70 2.009 . S
Co71 O72 2.053 . S
Co71 O74 2.094 . S
Co71 O78 2.122 . S
Co71 O92 2.115 . S
Co71 O93 2.315 . S
O72 Co71 2.053 . S
O72 C84 1.259 . S
O73 Co65 2.047 . S
O73 C84 1.257 . S
O74 Co71 2.094 . S
O74 C85 1.253 . S
O75 Co66 2.063 . S
O75 C85 1.268 . S
O76 Co64 2.115 . S
O76 C86 1.281 . S
O77 Co64 2.315 . S
O77 C86 1.252 . S
O78 Co71 2.122 . S
O78 C87 1.272 . S
O79 Co65 2.113 . S
O79 C87 1.245 . S
C80 O88 1.259 . S
C80 O89 1.257 . S
C81 O90 1.268 . S
C81 O91 1.253 . S
C82 O92 1.281 . S
C82 O93 1.252 . S
C83 O94 1.272 . S
C83 O95 1.245 . S
C84 O72 1.259 . S
C84 O73 1.257 . S
C85 O74 1.253 . S
C85 O75 1.268 . S
C86 O76 1.281 . S
C86 O77 1.252 . S
C87 O78 1.272 . S
C87 O79 1.245 . S
O88 Co64 2.053 . S
O88 C80 1.259 . S
O89 Co66 2.047 . S
O89 C80 1.257 . S
O90 Co65 2.063 . S
O90 C81 1.268 . S
O91 Co64 2.094 . S
O91 C81 1.253 . S
O92 Co71 2.115 . S
O92 C82 1.281 . S
O93 Co71 2.315 . S
O93 C82 1.252 . S
O94 Co64 2.122 . S
O94 C83 1.272 . S
O95 Co66 2.113 . S
O95 C83 1.245 . S
Co96 H99 2.400 1_545 S
Co96 O100 2.009 . S
Co96 O108 2.115 . S
Co96 O109 2.315 1_545 S
Co96 O120 2.053 1_545 S
Co96 O123 2.094 . S
Co96 O126 2.122 . S
Co97 O100 2.126 . S
Co97 H101 2.388 . S
Co97 O102 2.053 . S
Co97 O105 2.047 . S
Co97 O111 2.113 . S
Co97 O122 2.063 . S
Co98 H99 2.388 1_545 S
Co98 O100 2.053 . S
Co98 O102 2.126 . S
Co98 O107 2.063 . S
Co98 O121 2.047 1_545 S
Co98 O127 2.113 . S
H99 Co96 2.400 1_565 S
H99 Co98 2.388 1_565 S
H99 O100 0.760 1_565 S
O100 Co96 2.009 . S
O100 Co97 2.126 . S
O100 Co98 2.053 . S
O100 H99 0.760 1_545 S
H101 Co97 2.388 . S
H101 O102 0.760 . S
H101 Co103 2.400 . S
O102 Co97 2.053 . S
O102 Co98 2.126 . S
O102 H101 0.760 . S
O102 Co103 2.009 . S
Co103 H101 2.400 . S
Co103 O102 2.009 . S
Co103 O104 2.053 . S
Co103 O106 2.094 . S
Co103 O110 2.122 1_545 S
Co103 O124 2.115 . S
Co103 O125 2.315 . S
O104 Co103 2.053 . S
O104 C116 1.259 . S
O105 Co97 2.047 . S
O105 C116 1.257 . S
O106 Co103 2.094 . S
O106 C117 1.253 . S
O107 Co98 2.063 . S
O107 C117 1.268 . S
O108 Co96 2.115 . S
O108 C118 1.281 1_545 S
O109 Co96 2.315 1_565 S
O109 C118 1.252 . S
O110 Co103 2.122 1_565 S
O110 C119 1.272 . S
O111 Co97 2.113 . S
O111 C119 1.245 1_545 S
C112 O120 1.259 . S
C112 O121 1.257 . S
C113 O122 1.268 . S
C113 O123 1.253 . S
C114 O124 1.281 . S
C114 O125 1.252 . S
C115 O126 1.272 . S
C115 O127 1.245 . S
C116 O104 1.259 . S
C116 O105 1.257 . S
C117 O106 1.253 . S
C117 O107 1.268 . S
C118 O108 1.281 1_565 S
C118 O109 1.252 . S
C119 O110 1.272 . S
C119 O111 1.245 1_565 S
O120 Co96 2.053 1_565 S
O120 C112 1.259 . S
O121 Co98 2.047 1_565 S
O121 C112 1.257 . S
O122 Co97 2.063 . S
O122 C113 1.268 . S
O123 Co96 2.094 . S
O123 C113 1.253 . S
O124 Co103 2.115 . S
O124 C114 1.281 . S
O125 Co103 2.315 . S
O125 C114 1.252 . S
O126 Co96 2.122 . S
O126 C115 1.272 . S
O127 Co98 2.113 . S
O127 C115 1.245 . S
Co128 H131 2.400 . S
Co128 O132 2.009 . S
Co128 O140 2.115 . S
Co128 O141 2.315 . S
Co128 O152 2.053 . S
Co128 O155 2.094 1_455 S
Co128 O158 2.122 1_455 S
Co129 O132 2.126 1_655 S
Co129 H133 2.388 . S
Co129 O134 2.053 . S
Co129 O137 2.047 . S
Co129 O143 2.113 1_655 S
Co129 O154 2.063 . S
Co130 H131 2.388 . S
Co130 O132 2.053 . S
Co130 O134 2.126 1_455 S
Co130 O139 2.063 . S
Co130 O153 2.047 . S
Co130 O159 2.113 1_455 S
H131 Co128 2.400 . S
H131 Co130 2.388 . S
H131 O132 0.760 . S
O132 Co128 2.009 . S
O132 Co129 2.126 1_455 S
O132 Co130 2.053 . S
O132 H131 0.760 . S
H133 Co129 2.388 . S
H133 O134 0.760 . S
H133 Co135 2.400 . S
O134 Co129 2.053 . S
O134 Co130 2.126 1_655 S
O134 H133 0.760 . S
O134 Co135 2.009 . S
Co135 H133 2.400 . S
Co135 O134 2.009 . S
Co135 O136 2.053 . S
Co135 O138 2.094 1_655 S
Co135 O142 2.122 1_655 S
Co135 O156 2.115 . S
Co135 O157 2.315 . S
O136 Co135 2.053 . S
O136 C148 1.259 . S
O137 Co129 2.047 . S
O137 C148 1.257 . S
O138 Co135 2.094 1_455 S
O138 C149 1.253 . S
O139 Co130 2.063 . S
O139 C149 1.268 . S
O140 Co128 2.115 . S
O140 C150 1.281 . S
O141 Co128 2.315 . S
O141 C150 1.252 . S
O142 Co135 2.122 1_455 S
O142 C151 1.272 . S
O143 Co129 2.113 1_455 S
O143 C151 1.245 . S
C144 O152 1.259 . S
C144 O153 1.257 . S
C145 O154 1.268 . S
C145 O155 1.253 . S
C146 O156 1.281 . S
C146 O157 1.252 . S
C147 O158 1.272 . S
C147 O159 1.245 . S
C148 O136 1.259 . S
C148 O137 1.257 . S
C149 O138 1.253 . S
C149 O139 1.268 . S
C150 O140 1.281 . S
C150 O141 1.252 . S
C151 O142 1.272 . S
C151 O143 1.245 . S
O152 Co128 2.053 . S
O152 C144 1.259 . S
O153 Co130 2.047 . S
O153 C144 1.257 . S
O154 Co129 2.063 . S
O154 C145 1.268 . S
O155 Co128 2.094 1_655 S
O155 C145 1.253 . S
O156 Co135 2.115 . S
O156 C146 1.281 . S
O157 Co135 2.315 . S
O157 C146 1.252 . S
O158 Co128 2.122 1_655 S
O158 C147 1.272 . S
O159 Co130 2.113 1_655 S
O159 C147 1.245 . S
Co160 H163 2.400 . S
Co160 O164 2.009 . S
Co160 O172 2.115 . S
Co160 O173 2.315 . S
Co160 O184 2.053 . S
Co160 O187 2.094 . S
Co160 O190 2.122 . S
Co161 O164 2.126 . S
Co161 H165 2.388 . S
Co161 O166 2.053 . S
Co161 O169 2.047 . S
Co161 O175 2.113 . S
Co161 O186 2.063 . S
Co162 H163 2.388 . S
Co162 O164 2.053 . S
Co162 O166 2.126 . S
Co162 O171 2.063 . S
Co162 O185 2.047 . S
Co162 O191 2.113 . S
H163 Co160 2.400 . S
H163 Co162 2.388 . S
H163 O164 0.760 . S
O164 Co160 2.009 . S
O164 Co161 2.126 . S
O164 Co162 2.053 . S
O164 H163 0.760 . S
H165 Co161 2.388 . S
H165 O166 0.760 . S
H165 Co167 2.400 . S
O166 Co161 2.053 . S
O166 Co162 2.126 . S
O166 H165 0.760 . S
O166 Co167 2.009 . S
Co167 H165 2.400 . S
Co167 O166 2.009 . S
Co167 O168 2.053 . S
Co167 O170 2.094 . S
Co167 O174 2.122 . S
Co167 O188 2.115 . S
Co167 O189 2.315 . S
O168 Co167 2.053 . S
O168 C180 1.259 . S
O169 Co161 2.047 . S
O169 C180 1.257 . S
O170 Co167 2.094 . S
O170 C181 1.253 . S
O171 Co162 2.063 . S
O171 C181 1.268 . S
O172 Co160 2.115 . S
O172 C182 1.281 . S
O173 Co160 2.315 . S
O173 C182 1.252 . S
O174 Co167 2.122 . S
O174 C183 1.272 . S
O175 Co161 2.113 . S
O175 C183 1.245 . S
C176 O184 1.259 . S
C176 O185 1.257 . S
C177 O186 1.268 . S
C177 O187 1.253 . S
C178 O188 1.281 . S
C178 O189 1.252 . S
C179 O190 1.272 . S
C179 O191 1.245 . S
C180 O168 1.259 . S
C180 O169 1.257 . S
C181 O170 1.253 . S
C181 O171 1.268 . S
C182 O172 1.281 . S
C182 O173 1.252 . S
C183 O174 1.272 . S
C183 O175 1.245 . S
O184 Co160 2.053 . S
O184 C176 1.259 . S
O185 Co162 2.047 . S
O185 C176 1.257 . S
O186 Co161 2.063 . S
O186 C177 1.268 . S
O187 Co160 2.094 . S
O187 C177 1.253 . S
O188 Co167 2.115 . S
O188 C178 1.281 . S
O189 Co167 2.315 . S
O189 C178 1.252 . S
O190 Co160 2.122 . S
O190 C179 1.272 . S
O191 Co162 2.113 . S
O191 C179 1.245 . S
Co192 H195 2.400 . S
Co192 O196 2.009 . S
Co192 O204 2.115 1_554 S
Co192 O205 2.315 . S
Co192 O216 2.053 1_554 S
Co192 O219 2.094 . S
Co192 O222 2.119 1_554 S
Co193 O196 2.126 . S
Co193 H197 2.388 . S
Co193 O198 2.053 . S
Co193 O201 2.047 . S
Co193 O207 2.113 . S
Co193 O218 2.063 . S
Co194 H195 2.388 . S
Co194 O196 2.053 . S
Co194 O198 2.126 . S
Co194 O203 2.063 . S
Co194 O217 2.047 . S
Co194 O223 2.113 . S
H195 Co192 2.400 . S
H195 Co194 2.388 . S
H195 O196 0.760 . S
O196 Co192 2.009 . S
O196 Co193 2.126 . S
O196 Co194 2.053 . S
O196 H195 0.760 . S
H197 Co193 2.388 . S
H197 O198 0.760 . S
H197 Co199 2.400 . S
O198 Co193 2.053 . S
O198 Co194 2.126 . S
O198 H197 0.760 . S
O198 Co199 2.009 . S
Co199 H197 2.400 . S
Co199 O198 2.009 . S
Co199 O200 2.053 . S
Co199 O202 2.094 . S
Co199 O206 2.122 . S
Co199 O220 2.115 . S
Co199 O221 2.315 . S
O200 Co199 2.053 . S
O200 C212 1.259 . S
O201 Co193 2.047 . S
O201 C212 1.257 . S
O202 Co199 2.094 . S
O202 C213 1.253 . S
O203 Co194 2.063 . S
O203 C213 1.268 . S
O204 Co192 2.115 1_556 S
O204 C214 1.281 1_556 S
O205 Co192 2.315 . S
O205 C214 1.252 . S
O206 Co199 2.122 . S
O206 C215 1.272 . S
O207 Co193 2.113 . S
O207 C215 1.245 . S
C208 O216 1.259 . S
C208 O217 1.257 1_556 S
C209 O218 1.268 . S
C209 O219 1.253 . S
C210 O220 1.281 . S
C210 O221 1.252 . S
C211 O222 1.273 . S
C211 O223 1.245 1_556 S
C212 O200 1.259 . S
C212 O201 1.257 . S
C213 O202 1.253 . S
C213 O203 1.268 . S
C214 O204 1.281 1_554 S
C214 O205 1.252 . S
C215 O206 1.272 . S
C215 O207 1.245 . S
O216 Co192 2.053 1_556 S
O216 C208 1.259 . S
O217 Co194 2.047 . S
O217 C208 1.257 1_554 S
O218 Co193 2.063 . S
O218 C209 1.268 . S
O219 Co192 2.094 . S
O219 C209 1.253 . S
O220 Co199 2.115 . S
O220 C210 1.281 . S
O221 Co199 2.315 . S
O221 C210 1.252 . S
O222 Co192 2.119 1_556 S
O222 C211 1.273 . S
O223 Co194 2.113 . S
O223 C211 1.245 1_554 S
Co224 H227 2.400 . S
Co224 O228 2.009 . S
Co224 O236 2.115 1_554 S
Co224 O237 2.315 . S
Co224 O248 2.053 1_554 S
Co224 O251 2.094 . S
Co224 O254 2.119 1_554 S
Co225 O228 2.126 . S
Co225 H229 2.388 . S
Co225 O230 2.053 . S
Co225 O233 2.047 . S
Co225 O239 2.113 . S
Co225 O250 2.063 . S
Co226 H227 2.388 . S
Co226 O228 2.053 . S
Co226 O230 2.126 . S
Co226 O235 2.063 . S
Co226 O249 2.047 . S
Co226 O255 2.113 . S
H227 Co224 2.400 . S
H227 Co226 2.388 . S
H227 O228 0.760 . S
O228 Co224 2.009 . S
O228 Co225 2.126 . S
O228 Co226 2.053 . S
O228 H227 0.760 . S
H229 Co225 2.388 . S
H229 O230 0.760 . S
H229 Co231 2.400 . S
O230 Co225 2.053 . S
O230 Co226 2.126 . S
O230 H229 0.760 . S
O230 Co231 2.009 . S
Co231 H229 2.400 . S
Co231 O230 2.009 . S
Co231 O232 2.053 . S
Co231 O234 2.094 . S
Co231 O238 2.122 . S
Co231 O252 2.115 . S
Co231 O253 2.315 . S
O232 Co231 2.053 . S
O232 C244 1.259 . S
O233 Co225 2.047 . S
O233 C244 1.257 . S
O234 Co231 2.094 . S
O234 C245 1.253 . S
O235 Co226 2.063 . S
O235 C245 1.268 . S
O236 Co224 2.115 1_556 S
O236 C246 1.281 1_556 S
O237 Co224 2.315 . S
O237 C246 1.252 . S
O238 Co231 2.122 . S
O238 C247 1.272 . S
O239 Co225 2.113 . S
O239 C247 1.245 . S
C240 O248 1.259 . S
C240 O249 1.257 1_556 S
C241 O250 1.268 . S
C241 O251 1.253 . S
C242 O252 1.281 . S
C242 O253 1.252 . S
C243 O254 1.273 . S
C243 O255 1.245 1_556 S
C244 O232 1.259 . S
C244 O233 1.257 . S
C245 O234 1.253 . S
C245 O235 1.268 . S
C246 O236 1.281 1_554 S
C246 O237 1.252 . S
C247 O238 1.272 . S
C247 O239 1.245 . S
O248 Co224 2.053 1_556 S
O248 C240 1.259 . S
O249 Co226 2.047 . S
O249 C240 1.257 1_554 S
O250 Co225 2.063 . S
O250 C241 1.268 . S
O251 Co224 2.094 . S
O251 C241 1.253 . S
O252 Co231 2.115 . S
O252 C242 1.281 . S
O253 Co231 2.315 . S
O253 C242 1.252 . S
O254 Co224 2.119 1_556 S
O254 C243 1.273 . S
O255 Co226 2.113 . S
O255 C243 1.245 1_554 S
Co256 H259 2.400 . S
Co256 O260 2.009 . S
Co256 O268 2.115 1_554 S
Co256 O269 2.315 . S
Co256 O280 2.053 1_554 S
Co256 O283 2.094 . S
Co256 O286 2.119 1_554 S
Co257 O260 2.126 . S
Co257 H261 2.388 . S
Co257 O262 2.053 . S
Co257 O265 2.047 . S
Co257 O271 2.113 . S
Co257 O282 2.063 . S
Co258 H259 2.388 . S
Co258 O260 2.053 . S
Co258 O262 2.126 . S
Co258 O267 2.063 . S
Co258 O281 2.047 . S
Co258 O287 2.113 . S
H259 Co256 2.400 . S
H259 Co258 2.388 . S
H259 O260 0.760 . S
O260 Co256 2.009 . S
O260 Co257 2.126 . S
O260 Co258 2.053 . S
O260 H259 0.760 . S
H261 Co257 2.388 . S
H261 O262 0.760 . S
H261 Co263 2.400 . S
O262 Co257 2.053 . S
O262 Co258 2.126 . S
O262 H261 0.760 . S
O262 Co263 2.009 . S
Co263 H261 2.400 . S
Co263 O262 2.009 . S
Co263 O264 2.053 . S
Co263 O266 2.094 . S
Co263 O270 2.122 . S
Co263 O284 2.115 . S
Co263 O285 2.315 . S
O264 Co263 2.053 . S
O264 C276 1.259 . S
O265 Co257 2.047 . S
O265 C276 1.257 . S
O266 Co263 2.094 . S
O266 C277 1.253 . S
O267 Co258 2.063 . S
O267 C277 1.268 . S
O268 Co256 2.115 1_556 S
O268 C278 1.281 1_556 S
O269 Co256 2.315 . S
O269 C278 1.252 . S
O270 Co263 2.122 . S
O270 C279 1.272 . S
O271 Co257 2.113 . S
O271 C279 1.245 . S
C272 O280 1.259 . S
C272 O281 1.257 1_556 S
C273 O282 1.268 . S
C273 O283 1.253 . S
C274 O284 1.281 . S
C274 O285 1.252 . S
C275 O286 1.273 . S
C275 O287 1.245 1_556 S
C276 O264 1.259 . S
C276 O265 1.257 . S
C277 O266 1.253 . S
C277 O267 1.268 . S
C278 O268 1.281 1_554 S
C278 O269 1.252 . S
C279 O270 1.272 . S
C279 O271 1.245 . S
O280 Co256 2.053 1_556 S
O280 C272 1.259 . S
O281 Co258 2.047 . S
O281 C272 1.257 1_554 S
O282 Co257 2.063 . S
O282 C273 1.268 . S
O283 Co256 2.094 . S
O283 C273 1.253 . S
O284 Co263 2.115 . S
O284 C274 1.281 . S
O285 Co263 2.315 . S
O285 C274 1.252 . S
O286 Co256 2.119 1_556 S
O286 C275 1.273 . S
O287 Co258 2.113 . S
O287 C275 1.245 1_554 S
Co288 H291 2.400 . S
Co288 O292 2.009 . S
Co288 O300 2.115 . S
Co288 O301 2.315 . S
Co288 O312 2.053 . S
Co288 O315 2.094 . S
Co288 O318 2.122 . S
Co289 O292 2.126 . S
Co289 H293 2.388 . S
Co289 O294 2.053 . S
Co289 O297 2.047 . S
Co289 O303 2.113 . S
Co289 O314 2.063 . S
Co290 H291 2.388 . S
Co290 O292 2.053 . S
Co290 O294 2.126 . S
Co290 O299 2.063 . S
Co290 O313 2.047 . S
Co290 O319 2.113 . S
H291 Co288 2.400 . S
H291 Co290 2.388 . S
H291 O292 0.760 . S
O292 Co288 2.009 . S
O292 Co289 2.126 . S
O292 Co290 2.053 . S
O292 H291 0.760 . S
H293 Co289 2.388 . S
H293 O294 0.760 . S
H293 Co295 2.400 . S
O294 Co289 2.053 . S
O294 Co290 2.126 . S
O294 H293 0.760 . S
O294 Co295 2.009 . S
Co295 H293 2.400 . S
Co295 O294 2.009 . S
Co295 O296 2.053 . S
Co295 O298 2.094 . S
Co295 O302 2.122 . S
Co295 O316 2.115 . S
Co295 O317 2.315 . S
O296 Co295 2.053 . S
O296 C308 1.259 . S
O297 Co289 2.047 . S
O297 C308 1.257 . S
O298 Co295 2.094 . S
O298 C309 1.253 . S
O299 Co290 2.063 . S
O299 C309 1.268 . S
O300 Co288 2.115 . S
O300 C310 1.281 . S
O301 Co288 2.315 . S
O301 C310 1.252 . S
O302 Co295 2.122 . S
O302 C311 1.272 . S
O303 Co289 2.113 . S
O303 C311 1.245 . S
C304 O312 1.259 . S
C304 O313 1.257 . S
C305 O314 1.268 . S
C305 O315 1.253 . S
C306 O316 1.281 . S
C306 O317 1.252 . S
C307 O318 1.272 . S
C307 O319 1.245 . S
C308 O296 1.259 . S
C308 O297 1.257 . S
C309 O298 1.253 . S
C309 O299 1.268 . S
C310 O300 1.281 . S
C310 O301 1.252 . S
C311 O302 1.272 . S
C311 O303 1.245 . S
O312 Co288 2.053 . S
O312 C304 1.259 . S
O313 Co290 2.047 . S
O313 C304 1.257 . S
O314 Co289 2.063 . S
O314 C305 1.268 . S
O315 Co288 2.094 . S
O315 C305 1.253 . S
O316 Co295 2.115 . S
O316 C306 1.281 . S
O317 Co295 2.315 . S
O317 C306 1.252 . S
O318 Co288 2.122 . S
O318 C307 1.272 . S
O319 Co290 2.113 . S
O319 C307 1.245 . S
Co320 H323 2.400 . S
Co320 O324 2.009 . S
Co320 O332 2.115 . S
Co320 O333 2.315 . S
Co320 O344 2.053 . S
Co320 O347 2.094 . S
Co320 O350 2.122 . S
Co321 O324 2.126 . S
Co321 H325 2.388 . S
Co321 O326 2.053 . S
Co321 O329 2.047 . S
Co321 O335 2.113 . S
Co321 O346 2.063 . S
Co322 H323 2.388 . S
Co322 O324 2.053 . S
Co322 O326 2.126 . S
Co322 O331 2.063 . S
Co322 O345 2.047 . S
Co322 O351 2.113 . S
H323 Co320 2.400 . S
H323 Co322 2.388 . S
H323 O324 0.760 . S
O324 Co320 2.009 . S
O324 Co321 2.126 . S
O324 Co322 2.053 . S
O324 H323 0.760 . S
H325 Co321 2.388 . S
H325 O326 0.760 . S
H325 Co327 2.400 . S
O326 Co321 2.053 . S
O326 Co322 2.126 . S
O326 H325 0.760 . S
O326 Co327 2.009 . S
Co327 H325 2.400 . S
Co327 O326 2.009 . S
Co327 O328 2.053 . S
Co327 O330 2.094 . S
Co327 O334 2.122 . S
Co327 O348 2.115 . S
Co327 O349 2.315 . S
O328 Co327 2.053 . S
O328 C340 1.259 . S
O329 Co321 2.047 . S
O329 C340 1.257 . S
O330 Co327 2.094 . S
O330 C341 1.253 . S
O331 Co322 2.063 . S
O331 C341 1.268 . S
O332 Co320 2.115 . S
O332 C342 1.281 . S
O333 Co320 2.315 . S
O333 C342 1.252 . S
O334 Co327 2.122 . S
O334 C343 1.272 . S
O335 Co321 2.113 . S
O335 C343 1.245 . S
C336 O344 1.259 . S
C336 O345 1.257 . S
C337 O346 1.268 . S
C337 O347 1.253 . S
C338 O348 1.281 . S
C338 O349 1.252 . S
C339 O350 1.272 . S
C339 O351 1.245 . S
C340 O328 1.259 . S
C340 O329 1.257 . S
C341 O330 1.253 . S
C341 O331 1.268 . S
C342 O332 1.281 . S
C342 O333 1.252 . S
C343 O334 1.272 . S
C343 O335 1.245 . S
O344 Co320 2.053 . S
O344 C336 1.259 . S
O345 Co322 2.047 . S
O345 C336 1.257 . S
O346 Co321 2.063 . S
O346 C337 1.268 . S
O347 Co320 2.094 . S
O347 C337 1.253 . S
O348 Co327 2.115 . S
O348 C338 1.281 . S
O349 Co327 2.315 . S
O349 C338 1.252 . S
O350 Co320 2.122 . S
O350 C339 1.272 . S
O351 Co322 2.113 . S
O351 C339 1.245 . S
Co352 H355 2.400 . S
Co352 O356 2.009 . S
Co352 O364 2.115 . S
Co352 O365 2.315 . S
Co352 O376 2.053 . S
Co352 O379 2.094 . S
Co352 O382 2.122 . S
Co353 O356 2.126 . S
Co353 H357 2.388 . S
Co353 O358 2.053 . S
Co353 O361 2.047 . S
Co353 O367 2.113 . S
Co353 O378 2.063 . S
Co354 H355 2.388 . S
Co354 O356 2.053 . S
Co354 O358 2.126 . S
Co354 O363 2.063 . S
Co354 O377 2.047 . S
Co354 O383 2.113 . S
H355 Co352 2.400 . S
H355 Co354 2.388 . S
H355 O356 0.760 . S
O356 Co352 2.009 . S
O356 Co353 2.126 . S
O356 Co354 2.053 . S
O356 H355 0.760 . S
H357 Co353 2.388 . S
H357 O358 0.760 . S
H357 Co359 2.400 . S
O358 Co353 2.053 . S
O358 Co354 2.126 . S
O358 H357 0.760 . S
O358 Co359 2.009 . S
Co359 H357 2.400 . S
Co359 O358 2.009 . S
Co359 O360 2.053 . S
Co359 O362 2.094 . S
Co359 O366 2.122 . S
Co359 O380 2.115 . S
Co359 O381 2.315 . S
O360 Co359 2.053 . S
O360 C372 1.259 . S
O361 Co353 2.047 . S
O361 C372 1.257 . S
O362 Co359 2.094 . S
O362 C373 1.253 . S
O363 Co354 2.063 . S
O363 C373 1.268 . S
O364 Co352 2.115 . S
O364 C374 1.281 . S
O365 Co352 2.315 . S
O365 C374 1.252 . S
O366 Co359 2.122 . S
O366 C375 1.272 . S
O367 Co353 2.113 . S
O367 C375 1.245 . S
C368 O376 1.259 . S
C368 O377 1.257 . S
C369 O378 1.268 . S
C369 O379 1.253 . S
C370 O380 1.281 . S
C370 O381 1.252 . S
C371 O382 1.272 . S
C371 O383 1.245 . S
C372 O360 1.259 . S
C372 O361 1.257 . S
C373 O362 1.253 . S
C373 O363 1.268 . S
C374 O364 1.281 . S
C374 O365 1.252 . S
C375 O366 1.272 . S
C375 O367 1.245 . S
O376 Co352 2.053 . S
O376 C368 1.259 . S
O377 Co354 2.047 . S
O377 C368 1.257 . S
O378 Co353 2.063 . S
O378 C369 1.268 . S
O379 Co352 2.094 . S
O379 C369 1.253 . S
O380 Co359 2.115 . S
O380 C370 1.281 . S
O381 Co359 2.315 . S
O381 C370 1.252 . S
O382 Co352 2.122 . S
O382 C371 1.272 . S
O383 Co354 2.113 . S
O383 C371 1.245 . S
Co384 H387 2.400 . S
Co384 O388 2.009 . S
Co384 O396 2.115 . S
Co384 O397 2.315 . S
Co384 O408 2.053 . S
Co384 O411 2.094 . S
Co384 O414 2.122 . S
Co385 O388 2.126 . S
Co385 H389 2.388 . S
Co385 O390 2.053 . S
Co385 O393 2.047 . S
Co385 O399 2.113 . S
Co385 O410 2.063 . S
Co386 H387 2.388 . S
Co386 O388 2.053 . S
Co386 O390 2.126 . S
Co386 O395 2.063 . S
Co386 O409 2.047 . S
Co386 O415 2.113 . S
H387 Co384 2.400 . S
H387 Co386 2.388 . S
H387 O388 0.760 . S
O388 Co384 2.009 . S
O388 Co385 2.126 . S
O388 Co386 2.053 . S
O388 H387 0.760 . S
H389 Co385 2.388 . S
H389 O390 0.760 . S
H389 Co391 2.400 . S
O390 Co385 2.053 . S
O390 Co386 2.126 . S
O390 H389 0.760 . S
O390 Co391 2.009 . S
Co391 H389 2.400 . S
Co391 O390 2.009 . S
Co391 O392 2.053 . S
Co391 O394 2.094 . S
Co391 O398 2.122 . S
Co391 O412 2.115 . S
Co391 O413 2.315 . S
O392 Co391 2.053 . S
O392 C404 1.259 . S
O393 Co385 2.047 . S
O393 C404 1.257 . S
O394 Co391 2.094 . S
O394 C405 1.253 . S
O395 Co386 2.063 . S
O395 C405 1.268 . S
O396 Co384 2.115 . S
O396 C406 1.281 . S
O397 Co384 2.315 . S
O397 C406 1.252 . S
O398 Co391 2.122 . S
O398 C407 1.272 . S
O399 Co385 2.113 . S
O399 C407 1.245 . S
C400 O408 1.259 . S
C400 O409 1.257 . S
C401 O410 1.268 . S
C401 O411 1.253 . S
C402 O412 1.281 . S
C402 O413 1.252 . S
C403 O414 1.272 . S
C403 O415 1.245 . S
C404 O392 1.259 . S
C404 O393 1.257 . S
C405 O394 1.253 . S
C405 O395 1.268 . S
C406 O396 1.281 . S
C406 O397 1.252 . S
C407 O398 1.272 . S
C407 O399 1.245 . S
O408 Co384 2.053 . S
O408 C400 1.259 . S
O409 Co386 2.047 . S
O409 C400 1.257 . S
O410 Co385 2.063 . S
O410 C401 1.268 . S
O411 Co384 2.094 . S
O411 C401 1.253 . S
O412 Co391 2.115 . S
O412 C402 1.281 . S
O413 Co391 2.315 . S
O413 C402 1.252 . S
O414 Co384 2.122 . S
O414 C403 1.272 . S
O415 Co386 2.113 . S
O415 C403 1.245 . S
Co416 H419 2.400 . S
Co416 O420 2.009 . S
Co416 O428 2.115 . S
Co416 O429 2.315 . S
Co416 O440 2.053 . S
Co416 O443 2.094 . S
Co416 O446 2.122 . S
Co417 O420 2.126 . S
Co417 H421 2.388 . S
Co417 O422 2.053 . S
Co417 O425 2.047 . S
Co417 O431 2.113 . S
Co417 O442 2.063 . S
Co418 H419 2.388 . S
Co418 O420 2.053 . S
Co418 O422 2.126 . S
Co418 O427 2.063 . S
Co418 O441 2.047 . S
Co418 O447 2.113 . S
H419 Co416 2.400 . S
H419 Co418 2.388 . S
H419 O420 0.760 . S
O420 Co416 2.009 . S
O420 Co417 2.126 . S
O420 Co418 2.053 . S
O420 H419 0.760 . S
H421 Co417 2.388 . S
H421 O422 0.760 . S
H421 Co423 2.400 . S
O422 Co417 2.053 . S
O422 Co418 2.126 . S
O422 H421 0.760 . S
O422 Co423 2.009 . S
Co423 H421 2.400 . S
Co423 O422 2.009 . S
Co423 O424 2.053 . S
Co423 O426 2.094 . S
Co423 O430 2.122 . S
Co423 O444 2.115 . S
Co423 O445 2.315 . S
O424 Co423 2.053 . S
O424 C436 1.259 . S
O425 Co417 2.047 . S
O425 C436 1.257 . S
O426 Co423 2.094 . S
O426 C437 1.253 . S
O427 Co418 2.063 . S
O427 C437 1.268 . S
O428 Co416 2.115 . S
O428 C438 1.281 . S
O429 Co416 2.315 . S
O429 C438 1.252 . S
O430 Co423 2.122 . S
O430 C439 1.272 . S
O431 Co417 2.113 . S
O431 C439 1.245 . S
C432 O440 1.259 . S
C432 O441 1.257 . S
C433 O442 1.268 . S
C433 O443 1.253 . S
C434 O444 1.281 . S
C434 O445 1.252 . S
C435 O446 1.272 . S
C435 O447 1.245 . S
C436 O424 1.259 . S
C436 O425 1.257 . S
C437 O426 1.253 . S
C437 O427 1.268 . S
C438 O428 1.281 . S
C438 O429 1.252 . S
C439 O430 1.272 . S
C439 O431 1.245 . S
O440 Co416 2.053 . S
O440 C432 1.259 . S
O441 Co418 2.047 . S
O441 C432 1.257 . S
O442 Co417 2.063 . S
O442 C433 1.268 . S
O443 Co416 2.094 . S
O443 C433 1.253 . S
O444 Co423 2.115 . S
O444 C434 1.281 . S
O445 Co423 2.315 . S
O445 C434 1.252 . S
O446 Co416 2.122 . S
O446 C435 1.272 . S
O447 Co418 2.113 . S
O447 C435 1.245 . S
Co448 H451 2.400 . S
Co448 O452 2.009 . S
Co448 O460 2.115 . S
Co448 O461 2.315 . S
Co448 O472 2.053 . S
Co448 O475 2.094 . S
Co448 O478 2.122 . S
Co449 O452 2.126 . S
Co449 H453 2.388 . S
Co449 O454 2.053 . S
Co449 O457 2.047 . S
Co449 O463 2.113 . S
Co449 O474 2.063 . S
Co450 H451 2.388 . S
Co450 O452 2.053 . S
Co450 O454 2.126 . S
Co450 O459 2.063 . S
Co450 O473 2.047 . S
Co450 O479 2.113 . S
H451 Co448 2.400 . S
H451 Co450 2.388 . S
H451 O452 0.760 . S
O452 Co448 2.009 . S
O452 Co449 2.126 . S
O452 Co450 2.053 . S
O452 H451 0.760 . S
H453 Co449 2.388 . S
H453 O454 0.760 . S
H453 Co455 2.400 . S
O454 Co449 2.053 . S
O454 Co450 2.126 . S
O454 H453 0.760 . S
O454 Co455 2.009 . S
Co455 H453 2.400 . S
Co455 O454 2.009 . S
Co455 O456 2.053 . S
Co455 O458 2.094 . S
Co455 O462 2.122 . S
Co455 O476 2.115 . S
Co455 O477 2.315 . S
O456 Co455 2.053 . S
O456 C468 1.259 . S
O457 Co449 2.047 . S
O457 C468 1.257 . S
O458 Co455 2.094 . S
O458 C469 1.253 . S
O459 Co450 2.063 . S
O459 C469 1.268 . S
O460 Co448 2.115 . S
O460 C470 1.281 . S
O461 Co448 2.315 . S
O461 C470 1.252 . S
O462 Co455 2.122 . S
O462 C471 1.272 . S
O463 Co449 2.113 . S
O463 C471 1.245 . S
C464 O472 1.259 . S
C464 O473 1.257 . S
C465 O474 1.268 . S
C465 O475 1.253 . S
C466 O476 1.281 . S
C466 O477 1.252 . S
C467 O478 1.272 . S
C467 O479 1.245 . S
C468 O456 1.259 . S
C468 O457 1.257 . S
C469 O458 1.253 . S
C469 O459 1.268 . S
C470 O460 1.281 . S
C470 O461 1.252 . S
C471 O462 1.272 . S
C471 O463 1.245 . S
O472 Co448 2.053 . S
O472 C464 1.259 . S
O473 Co450 2.047 . S
O473 C464 1.257 . S
O474 Co449 2.063 . S
O474 C465 1.268 . S
O475 Co448 2.094 . S
O475 C465 1.253 . S
O476 Co455 2.115 . S
O476 C466 1.281 . S
O477 Co455 2.315 . S
O477 C466 1.252 . S
O478 Co448 2.122 . S
O478 C467 1.272 . S
O479 Co450 2.113 . S
O479 C467 1.245 . S
Co480 H483 2.400 . S
Co480 O484 2.009 . S
Co480 O492 2.115 . S
Co480 O493 2.315 . S
Co480 O504 2.053 . S
Co480 O507 2.094 . S
Co480 O510 2.122 . S
Co481 O484 2.126 . S
Co481 H485 2.388 . S
Co481 O486 2.053 . S
Co481 O489 2.047 . S
Co481 O495 2.113 . S
Co481 O506 2.063 . S
Co482 H483 2.388 . S
Co482 O484 2.053 . S
Co482 O486 2.126 . S
Co482 O491 2.063 . S
Co482 O505 2.047 . S
Co482 O511 2.113 . S
H483 Co480 2.400 . S
H483 Co482 2.388 . S
H483 O484 0.760 . S
O484 Co480 2.009 . S
O484 Co481 2.126 . S
O484 Co482 2.053 . S
O484 H483 0.760 . S
H485 Co481 2.388 . S
H485 O486 0.760 . S
H485 Co487 2.400 . S
O486 Co481 2.053 . S
O486 Co482 2.126 . S
O486 H485 0.760 . S
O486 Co487 2.009 . S
Co487 H485 2.400 . S
Co487 O486 2.009 . S
Co487 O488 2.053 1_556 S
Co487 O490 2.094 . S
Co487 O494 2.119 1_556 S
Co487 O508 2.115 1_556 S
Co487 O509 2.315 . S
O488 Co487 2.053 1_554 S
O488 C500 1.259 . S
O489 Co481 2.047 . S
O489 C500 1.257 1_556 S
O490 Co487 2.094 . S
O490 C501 1.253 . S
O491 Co482 2.063 . S
O491 C501 1.268 . S
O492 Co480 2.115 . S
O492 C502 1.281 . S
O493 Co480 2.315 . S
O493 C502 1.252 . S
O494 Co487 2.119 1_554 S
O494 C503 1.273 . S
O495 Co481 2.113 . S
O495 C503 1.245 1_556 S
C496 O504 1.259 . S
C496 O505 1.257 . S
C497 O506 1.268 . S
C497 O507 1.253 . S
C498 O508 1.281 1_556 S
C498 O509 1.252 . S
C499 O510 1.272 . S
C499 O511 1.245 . S
C500 O488 1.259 . S
C500 O489 1.257 1_554 S
C501 O490 1.253 . S
C501 O491 1.268 . S
C502 O492 1.281 . S
C502 O493 1.252 . S
C503 O494 1.273 . S
C503 O495 1.245 1_554 S
O504 Co480 2.053 . S
O504 C496 1.259 . S
O505 Co482 2.047 . S
O505 C496 1.257 . S
O506 Co481 2.063 . S
O506 C497 1.268 . S
O507 Co480 2.094 . S
O507 C497 1.253 . S
O508 Co487 2.115 1_554 S
O508 C498 1.281 1_554 S
O509 Co487 2.315 . S
O509 C498 1.252 . S
O510 Co480 2.122 . S
O510 C499 1.272 . S
O511 Co482 2.113 . S
O511 C499 1.245 . S
Co512 H515 2.400 . S
Co512 O516 2.009 . S
Co512 O524 2.115 . S
Co512 O525 2.315 . S
Co512 O536 2.053 . S
Co512 O539 2.094 . S
Co512 O542 2.122 . S
Co513 O516 2.126 . S
Co513 H517 2.388 . S
Co513 O518 2.053 . S
Co513 O521 2.047 . S
Co513 O527 2.113 . S
Co513 O538 2.063 . S
Co514 H515 2.388 . S
Co514 O516 2.053 . S
Co514 O518 2.126 . S
Co514 O523 2.063 . S
Co514 O537 2.047 . S
Co514 O543 2.113 . S
H515 Co512 2.400 . S
H515 Co514 2.388 . S
H515 O516 0.760 . S
O516 Co512 2.009 . S
O516 Co513 2.126 . S
O516 Co514 2.053 . S
O516 H515 0.760 . S
H517 Co513 2.388 . S
H517 O518 0.760 . S
H517 Co519 2.400 . S
O518 Co513 2.053 . S
O518 Co514 2.126 . S
O518 H517 0.760 . S
O518 Co519 2.009 . S
Co519 H517 2.400 . S
Co519 O518 2.009 . S
Co519 O520 2.053 1_556 S
Co519 O522 2.094 . S
Co519 O526 2.119 1_556 S
Co519 O540 2.115 1_556 S
Co519 O541 2.315 . S
O520 Co519 2.053 1_554 S
O520 C532 1.259 . S
O521 Co513 2.047 . S
O521 C532 1.257 1_556 S
O522 Co519 2.094 . S
O522 C533 1.253 . S
O523 Co514 2.063 . S
O523 C533 1.268 . S
O524 Co512 2.115 . S
O524 C534 1.281 . S
O525 Co512 2.315 . S
O525 C534 1.252 . S
O526 Co519 2.119 1_554 S
O526 C535 1.273 . S
O527 Co513 2.113 . S
O527 C535 1.245 1_556 S
C528 O536 1.259 . S
C528 O537 1.257 . S
C529 O538 1.268 . S
C529 O539 1.253 . S
C530 O540 1.281 1_556 S
C530 O541 1.252 . S
C531 O542 1.272 . S
C531 O543 1.245 . S
C532 O520 1.259 . S
C532 O521 1.257 1_554 S
C533 O522 1.253 . S
C533 O523 1.268 . S
C534 O524 1.281 . S
C534 O525 1.252 . S
C535 O526 1.273 . S
C535 O527 1.245 1_554 S
O536 Co512 2.053 . S
O536 C528 1.259 . S
O537 Co514 2.047 . S
O537 C528 1.257 . S
O538 Co513 2.063 . S
O538 C529 1.268 . S
O539 Co512 2.094 . S
O539 C529 1.253 . S
O540 Co519 2.115 1_554 S
O540 C530 1.281 1_554 S
O541 Co519 2.315 . S
O541 C530 1.252 . S
O542 Co512 2.122 . S
O542 C531 1.272 . S
O543 Co514 2.113 . S
O543 C531 1.245 . S
Co544 H547 2.400 . S
Co544 O548 2.009 . S
Co544 O556 2.115 . S
Co544 O557 2.315 . S
Co544 O568 2.053 . S
Co544 O571 2.094 . S
Co544 O574 2.122 . S
Co545 O548 2.126 . S
Co545 H549 2.388 . S
Co545 O550 2.053 . S
Co545 O553 2.047 . S
Co545 O559 2.113 . S
Co545 O570 2.063 . S
Co546 H547 2.388 . S
Co546 O548 2.053 . S
Co546 O550 2.126 . S
Co546 O555 2.063 . S
Co546 O569 2.047 . S
Co546 O575 2.113 . S
H547 Co544 2.400 . S
H547 Co546 2.388 . S
H547 O548 0.760 . S
O548 Co544 2.009 . S
O548 Co545 2.126 . S
O548 Co546 2.053 . S
O548 H547 0.760 . S
H549 Co545 2.388 . S
H549 O550 0.760 . S
H549 Co551 2.400 . S
O550 Co545 2.053 . S
O550 Co546 2.126 . S
O550 H549 0.760 . S
O550 Co551 2.009 . S
Co551 H549 2.400 . S
Co551 O550 2.009 . S
Co551 O552 2.053 1_556 S
Co551 O554 2.094 . S
Co551 O558 2.119 1_556 S
Co551 O572 2.115 1_556 S
Co551 O573 2.315 . S
O552 Co551 2.053 1_554 S
O552 C564 1.259 . S
O553 Co545 2.047 . S
O553 C564 1.257 1_556 S
O554 Co551 2.094 . S
O554 C565 1.253 . S
O555 Co546 2.063 . S
O555 C565 1.268 . S
O556 Co544 2.115 . S
O556 C566 1.281 . S
O557 Co544 2.315 . S
O557 C566 1.252 . S
O558 Co551 2.119 1_554 S
O558 C567 1.273 . S
O559 Co545 2.113 . S
O559 C567 1.245 1_556 S
C560 O568 1.259 . S
C560 O569 1.257 . S
C561 O570 1.268 . S
C561 O571 1.253 . S
C562 O572 1.281 1_556 S
C562 O573 1.252 . S
C563 O574 1.272 . S
C563 O575 1.245 . S
C564 O552 1.259 . S
C564 O553 1.257 1_554 S
C565 O554 1.253 . S
C565 O555 1.268 . S
C566 O556 1.281 . S
C566 O557 1.252 . S
C567 O558 1.273 . S
C567 O559 1.245 1_554 S
O568 Co544 2.053 . S
O568 C560 1.259 . S
O569 Co546 2.047 . S
O569 C560 1.257 . S
O570 Co545 2.063 . S
O570 C561 1.268 . S
O571 Co544 2.094 . S
O571 C561 1.253 . S
O572 Co551 2.115 1_554 S
O572 C562 1.281 1_554 S
O573 Co551 2.315 . S
O573 C562 1.252 . S
O574 Co544 2.122 . S
O574 C563 1.272 . S
O575 Co546 2.113 . S
O575 C563 1.245 . S
H576 C594 0.951 . S
H577 C596 0.951 . S
H578 C598 0.950 . S
H579 C599 0.950 . S
H580 C601 0.950 . S
H581 C604 0.950 . S
H582 C605 0.950 . S
H583 C607 0.950 1_655 S
H584 C608 0.950 . S
H585 C609 0.951 . S
H586 C611 0.951 . S
H587 C613 0.950 . S
H588 C614 0.950 . S
H589 C616 0.950 . S
H590 C619 0.950 . S
H591 C620 0.950 . S
H592 C622 0.950 . S
H593 C623 0.950 . S
C594 H576 0.951 . S
C594 C595 1.366 . S
C594 C596 1.388 . S
C595 C594 1.366 . S
C595 C599 1.385 . S
C596 H577 0.951 . S
C596 C594 1.388 . S
C596 C597 1.366 . S
C597 C596 1.366 . S
C597 C598 1.414 . S
C597 C600 1.499 . S
C598 H578 0.950 . S
C598 C597 1.414 . S
C598 C599 1.374 . S
C599 H579 0.950 . S
C599 C595 1.385 . S
C599 C598 1.374 . S
C600 C597 1.499 . S
C600 C601 1.373 . S
C600 C602 1.389 . S
C601 H580 0.950 . S
C601 C600 1.373 . S
C601 C617 1.377 . S
C602 C600 1.389 . S
C602 C603 1.524 . S
C602 C616 1.377 . S
C603 C602 1.524 . S
C603 C604 1.397 . S
C603 C608 1.363 . S
C604 H581 0.950 . S
C604 C603 1.397 . S
C604 C605 1.334 . S
C605 H582 0.950 . S
C605 C604 1.334 . S
C605 C606 1.287 . S
C606 C605 1.287 . S
C606 C607 1.524 . S
C606 H625 0.913 . S
C607 H583 0.950 1_455 S
C607 C606 1.524 . S
C607 C608 1.415 . S
C608 H584 0.950 . S
C608 C603 1.363 . S
C608 C607 1.415 . S
C609 H585 0.951 . S
C609 C610 1.366 . S
C609 C611 1.388 . S
C610 C609 1.366 . S
C610 C614 1.385 . S
C611 H586 0.951 . S
C611 C609 1.388 . S
C611 C612 1.366 . S
C612 C611 1.366 . S
C612 C613 1.414 . S
C612 C615 1.499 . S
C613 H587 0.950 . S
C613 C612 1.414 . S
C613 C614 1.374 . S
C614 H588 0.950 . S
C614 C610 1.385 . S
C614 C613 1.374 . S
C615 C612 1.499 . S
C615 C616 1.373 . S
C615 C617 1.389 . S
C616 H589 0.950 . S
C616 C602 1.377 . S
C616 C615 1.373 . S
C617 C601 1.377 . S
C617 C615 1.389 . S
C617 C618 1.524 . S
C618 C617 1.524 . S
C618 C619 1.397 . S
C618 C623 1.363 . S
C619 H590 0.950 . S
C619 C618 1.397 . S
C619 C620 1.334 . S
C620 H591 0.950 . S
C620 C619 1.334 . S
C620 C621 1.287 . S
C621 C620 1.287 . S
C621 C622 1.524 . S
C621 H624 0.999 . S
C622 H592 0.950 . S
C622 C621 1.524 . S
C622 C623 1.415 . S
C623 H593 0.950 . S
C623 C618 1.363 . S
C623 C622 1.415 . S
H624 C621 0.999 . S
H625 C606 0.913 . S
H626 C644 0.951 . S
H627 C646 0.951 . S
H628 C648 0.950 . S
H629 C649 0.950 . S
H630 C651 0.950 . S
H631 C654 0.950 . S
H632 C655 0.950 . S
H633 C657 0.950 1_455 S
H634 C658 0.950 . S
H635 C659 0.951 . S
H636 C661 0.951 . S
H637 C663 0.950 . S
H638 C664 0.950 . S
H639 C666 0.950 . S
H640 C669 0.950 . S
H641 C670 0.950 . S
H642 C672 0.950 . S
H643 C673 0.950 1_545 S
C644 H626 0.951 . S
C644 C645 1.366 1_455 S
C644 C646 1.388 1_455 S
C645 C644 1.366 1_655 S
C645 C649 1.385 . S
C646 H627 0.951 . S
C646 C644 1.388 1_655 S
C646 C647 1.366 . S
C647 C646 1.366 . S
C647 C648 1.414 . S
C647 C650 1.499 . S
C648 H628 0.950 . S
C648 C647 1.414 . S
C648 C649 1.374 . S
C649 H629 0.950 . S
C649 C645 1.385 . S
C649 C648 1.374 . S
C650 C647 1.499 . S
C650 C651 1.373 . S
C650 C652 1.389 . S
C651 H630 0.950 . S
C651 C650 1.373 . S
C651 C667 1.377 . S
C652 C650 1.389 . S
C652 C653 1.524 . S
C652 C666 1.377 . S
C653 C652 1.524 . S
C653 C654 1.397 . S
C653 C658 1.363 . S
C654 H631 0.950 . S
C654 C653 1.397 . S
C654 C655 1.334 . S
C655 H632 0.950 . S
C655 C654 1.334 . S
C655 C656 1.287 . S
C656 C655 1.287 . S
C656 C657 1.524 . S
C656 H675 0.913 . S
C657 H633 0.950 1_655 S
C657 C656 1.524 . S
C657 C658 1.415 . S
C658 H634 0.950 . S
C658 C653 1.363 . S
C658 C657 1.415 . S
C659 H635 0.951 . S
C659 C660 1.366 . S
C659 C661 1.388 . S
C660 C659 1.366 . S
C660 C664 1.385 . S
C661 H636 0.951 . S
C661 C659 1.388 . S
C661 C662 1.366 . S
C662 C661 1.366 . S
C662 C663 1.414 . S
C662 C665 1.499 1_565 S
C663 H637 0.950 . S
C663 C662 1.414 . S
C663 C664 1.374 . S
C664 H638 0.950 . S
C664 C660 1.385 . S
C664 C663 1.374 . S
C665 C662 1.499 1_545 S
C665 C666 1.373 . S
C665 C667 1.389 . S
C666 H639 0.950 . S
C666 C652 1.377 . S
C666 C665 1.373 . S
C667 C651 1.377 . S
C667 C665 1.389 . S
C667 C668 1.524 1_545 S
C668 C667 1.524 1_565 S
C668 C669 1.397 . S
C668 C673 1.363 . S
C669 H640 0.950 . S
C669 C668 1.397 . S
C669 C670 1.334 . S
C670 H641 0.950 . S
C670 C669 1.334 . S
C670 C671 1.287 . S
C671 C670 1.287 . S
C671 C672 1.524 . S
C671 H674 0.999 . S
C672 H642 0.950 . S
C672 C671 1.524 . S
C672 C673 1.415 . S
C673 H643 0.950 1_565 S
C673 C668 1.363 . S
C673 C672 1.415 . S
H674 C671 0.999 . S
H675 C656 0.913 . S
H676 C694 0.951 . S
H677 C696 0.951 . S
H678 C698 0.950 . S
H679 C699 0.950 . S
H680 C701 0.950 . S
H681 C704 0.950 . S
H682 C705 0.950 . S
H683 C707 0.950 . S
H684 C708 0.950 . S
H685 C709 0.951 1_545 S
H686 C711 0.951 . S
H687 C713 0.950 . S
H688 C714 0.950 . S
H689 C716 0.950 . S
H690 C719 0.950 . S
H691 C720 0.950 . S
H692 C722 0.950 . S
H693 C723 0.950 . S
C694 H676 0.951 . S
C694 C695 1.366 . S
C694 C696 1.388 . S
C695 C694 1.366 . S
C695 C699 1.385 . S
C696 H677 0.951 . S
C696 C694 1.388 . S
C696 C697 1.366 . S
C697 C696 1.366 . S
C697 C698 1.414 . S
C697 C700 1.499 . S
C698 H678 0.950 . S
C698 C697 1.414 . S
C698 C699 1.374 . S
C699 H679 0.950 . S
C699 C695 1.385 . S
C699 C698 1.374 . S
C700 C697 1.499 . S
C700 C701 1.373 . S
C700 C702 1.389 . S
C701 H680 0.950 . S
C701 C700 1.373 . S
C701 C717 1.377 1_655 S
C702 C700 1.389 . S
C702 C703 1.524 . S
C702 C716 1.377 1_655 S
C703 C702 1.524 . S
C703 C704 1.397 . S
C703 C708 1.363 . S
C704 H681 0.950 . S
C704 C703 1.397 . S
C704 C705 1.334 . S
C705 H682 0.950 . S
C705 C704 1.334 . S
C705 C706 1.287 . S
C706 C705 1.287 . S
C706 C707 1.524 . S
C706 H725 0.913 . S
C707 H683 0.950 . S
C707 C706 1.524 . S
C707 C708 1.415 . S
C708 H684 0.950 . S
C708 C703 1.363 . S
C708 C707 1.415 . S
C709 H685 0.951 1_565 S
C709 C710 1.366 . S
C709 C711 1.388 . S
C710 C709 1.366 . S
C710 C714 1.385 . S
C711 H686 0.951 . S
C711 C709 1.388 . S
C711 C712 1.366 . S
C712 C711 1.366 . S
C712 C713 1.414 . S
C712 C715 1.499 . S
C713 H687 0.950 . S
C713 C712 1.414 . S
C713 C714 1.374 . S
C714 H688 0.950 . S
C714 C710 1.385 . S
C714 C713 1.374 . S
C715 C712 1.499 . S
C715 C716 1.373 . S
C715 C717 1.389 . S
C716 H689 0.950 . S
C716 C702 1.377 1_455 S
C716 C715 1.373 . S
C717 C701 1.377 1_455 S
C717 C715 1.389 . S
C717 C718 1.524 . S
C718 C717 1.524 . S
C718 C719 1.397 . S
C718 C723 1.363 . S
C719 H690 0.950 . S
C719 C718 1.397 . S
C719 C720 1.334 . S
C720 H691 0.950 . S
C720 C719 1.334 . S
C720 C721 1.287 1_565 S
C721 C720 1.287 1_545 S
C721 C722 1.524 . S
C721 H724 0.999 . S
C722 H692 0.950 . S
C722 C721 1.524 . S
C722 C723 1.415 1_545 S
C723 H693 0.950 . S
C723 C718 1.363 . S
C723 C722 1.415 1_565 S
H724 C721 0.999 . S
H725 C706 0.913 . S
H726 C744 0.951 1_455 S
H727 C746 0.951 . S
H728 C748 0.950 . S
H729 C749 0.950 . S
H730 C751 0.950 . S
H731 C754 0.950 . S
H732 C755 0.950 . S
H733 C757 0.929 1_455 S
H734 C758 0.950 1_545 S
H735 C759 0.951 . S
H736 C761 0.951 . S
H737 C763 0.950 1_545 S
H738 C764 0.950 . S
H739 C766 0.950 . S
H740 C769 0.950 . S
H741 C770 0.950 . S
H742 C772 0.950 . S
H743 C773 0.950 . S
C744 H726 0.951 1_655 S
C744 C745 1.366 . S
C744 C746 1.388 . S
C745 C744 1.366 . S
C745 C749 1.385 . S
C746 H727 0.951 . S
C746 C744 1.388 . S
C746 C747 1.366 . S
C747 C746 1.366 . S
C747 C748 1.414 . S
C747 C750 1.499 . S
C748 H728 0.950 . S
C748 C747 1.414 . S
C748 C749 1.374 . S
C749 H729 0.950 . S
C749 C745 1.385 . S
C749 C748 1.374 . S
C750 C747 1.499 . S
C750 C751 1.373 . S
C750 C752 1.389 . S
C751 H730 0.950 . S
C751 C750 1.373 . S
C751 C767 1.377 . S
C752 C750 1.389 . S
C752 C753 1.524 . S
C752 C766 1.377 . S
C753 C752 1.524 . S
C753 C754 1.397 . S
C753 C758 1.363 . S
C754 H731 0.950 . S
C754 C753 1.397 . S
C754 C755 1.334 . S
C755 H732 0.950 . S
C755 C754 1.334 . S
C755 C756 1.287 . S
C756 C755 1.287 . S
C756 C757 1.521 1_565 S
C756 H775 0.913 1_655 S
C757 H733 0.929 1_655 S
C757 C756 1.521 1_545 S
C757 C758 1.446 1_545 S
C758 H734 0.950 1_565 S
C758 C753 1.363 . S
C758 C757 1.446 1_565 S
C759 H735 0.951 . S
C759 C760 1.366 . S
C759 C761 1.388 . S
C760 C759 1.366 . S
C760 C764 1.385 1_565 S
C761 H736 0.951 . S
C761 C759 1.388 . S
C761 C762 1.366 . S
C762 C761 1.366 . S
C762 C763 1.414 . S
C762 C765 1.499 . S
C763 H737 0.950 1_565 S
C763 C762 1.414 . S
C763 C764 1.374 1_565 S
C764 H738 0.950 . S
C764 C760 1.385 1_545 S
C764 C763 1.374 1_545 S
C765 C762 1.499 . S
C765 C766 1.373 . S
C765 C767 1.389 . S
C766 H739 0.950 . S
C766 C752 1.377 . S
C766 C765 1.373 . S
C767 C751 1.377 . S
C767 C765 1.389 . S
C767 C768 1.524 . S
C768 C767 1.524 . S
C768 C769 1.397 . S
C768 C773 1.363 . S
C769 H740 0.950 . S
C769 C768 1.397 . S
C769 C770 1.334 . S
C770 H741 0.950 . S
C770 C769 1.334 . S
C770 C771 1.287 . S
C771 C770 1.287 . S
C771 C772 1.524 . S
C771 H774 0.999 . S
C772 H742 0.950 . S
C772 C771 1.524 . S
C772 C773 1.415 . S
C773 H743 0.950 . S
C773 C768 1.363 . S
C773 C772 1.415 . S
H774 C771 0.999 . S
H775 C756 0.913 1_455 S
H776 C794 0.951 . S
H777 C796 0.951 . S
H778 C798 0.950 . S
H779 C799 0.950 . S
H780 C801 0.950 . S
H781 C804 0.950 . S
H782 C805 0.950 . S
H783 C807 0.951 . S
H784 C808 0.950 1_565 S
H785 C809 0.951 . S
H786 C811 0.951 . S
H787 C813 0.950 . S
H788 C814 0.950 . S
H789 C816 0.950 . S
H790 C819 0.950 . S
H791 C820 0.950 . S
H792 C822 0.950 . S
H793 C823 0.950 . S
C794 H776 0.951 . S
C794 C795 1.366 . S
C794 C796 1.388 . S
C795 C794 1.366 . S
C795 C799 1.385 . S
C796 H777 0.951 . S
C796 C794 1.388 . S
C796 C797 1.366 . S
C797 C796 1.366 . S
C797 C798 1.414 . S
C797 C800 1.499 . S
C798 H778 0.950 . S
C798 C797 1.414 . S
C798 C799 1.374 . S
C799 H779 0.950 . S
C799 C795 1.385 . S
C799 C798 1.374 . S
C800 C797 1.499 . S
C800 C801 1.373 . S
C800 C802 1.389 . S
C801 H780 0.950 . S
C801 C800 1.373 . S
C801 C817 1.329 1_545 S
C802 C800 1.389 . S
C802 C803 1.524 . S
C802 C816 1.377 1_545 S
C803 C802 1.524 . S
C803 C804 1.397 . S
C803 C808 1.363 . S
C804 H781 0.950 . S
C804 C803 1.397 . S
C804 C805 1.334 . S
C805 H782 0.950 . S
C805 C804 1.334 . S
C805 C806 1.287 . S
C806 C805 1.287 . S
C806 C807 1.524 . S
C806 H825 0.913 . S
C807 H783 0.951 . S
C807 C806 1.524 . S
C807 C808 1.415 . S
C808 H784 0.950 1_545 S
C808 C803 1.363 . S
C808 C807 1.415 . S
C809 H785 0.951 . S
C809 C810 1.366 . S
C809 C811 1.388 . S
C810 C809 1.366 . S
C810 C814 1.385 . S
C811 H786 0.951 . S
C811 C809 1.388 . S
C811 C812 1.366 . S
C812 C811 1.366 . S
C812 C813 1.414 . S
C812 C815 1.499 . S
C813 H787 0.950 . S
C813 C812 1.414 . S
C813 C814 1.374 . S
C814 H788 0.950 . S
C814 C810 1.385 . S
C814 C813 1.374 . S
C815 C812 1.499 . S
C815 C816 1.373 . S
C815 C817 1.435 . S
C816 H789 0.950 . S
C816 C802 1.377 1_565 S
C816 C815 1.373 . S
C817 C801 1.329 1_565 S
C817 C815 1.435 . S
C817 C818 1.524 . S
C818 C817 1.524 . S
C818 C819 1.397 . S
C818 C823 1.363 1_565 S
C819 H790 0.950 . S
C819 C818 1.397 . S
C819 C820 1.334 . S
C820 H791 0.950 . S
C820 C819 1.334 . S
C820 C821 1.287 . S
C821 C820 1.287 . S
C821 C822 1.524 1_565 S
C821 H824 0.999 . S
C822 H792 0.950 . S
C822 C821 1.524 1_545 S
C822 C823 1.415 . S
C823 H793 0.950 . S
C823 C818 1.363 1_545 S
C823 C822 1.415 . S
H824 C821 0.999 . S
H825 C806 0.913 . S
H826 C844 0.951 . S
H827 C846 0.951 . S
H828 C848 0.950 . S
H829 C849 0.950 . S
H830 C851 0.950 . S
H831 C854 0.950 . S
H832 C855 0.950 . S
H833 C857 0.950 . S
H834 C858 0.950 . S
H835 C859 0.951 . S
H836 C861 0.951 . S
H837 C863 0.950 . S
H838 C864 0.950 . S
H839 C866 0.950 . S
H840 C869 0.950 . S
H841 C870 0.950 . S
H842 C872 0.950 1_565 S
H843 C873 0.950 . S
C844 H826 0.951 . S
C844 C845 1.366 . S
C844 C846 1.388 . S
C845 C844 1.366 . S
C845 C849 1.385 . S
C846 H827 0.951 . S
C846 C844 1.388 . S
C846 C847 1.366 . S
C847 C846 1.366 . S
C847 C848 1.414 . S
C847 C850 1.499 . S
C848 H828 0.950 . S
C848 C847 1.414 . S
C848 C849 1.374 . S
C849 H829 0.950 . S
C849 C845 1.385 . S
C849 C848 1.374 . S
C850 C847 1.499 . S
C850 C851 1.373 . S
C850 C852 1.389 . S
C851 H830 0.950 . S
C851 C850 1.373 . S
C851 C867 1.377 . S
C852 C850 1.389 . S
C852 C853 1.524 . S
C852 C866 1.377 . S
C853 C852 1.524 . S
C853 C854 1.397 . S
C853 C858 1.363 . S
C854 H831 0.950 . S
C854 C853 1.397 . S
C854 C855 1.334 . S
C855 H832 0.950 . S
C855 C854 1.334 . S
C855 C856 1.287 . S
C856 C855 1.287 . S
C856 C857 1.524 . S
C856 H875 0.913 . S
C857 H833 0.950 . S
C857 C856 1.524 . S
C857 C858 1.415 . S
C858 H834 0.950 . S
C858 C853 1.363 . S
C858 C857 1.415 . S
C859 H835 0.951 . S
C859 C860 1.366 . S
C859 C861 1.388 . S
C860 C859 1.366 . S
C860 C864 1.385 . S
C861 H836 0.951 . S
C861 C859 1.388 . S
C861 C862 1.366 . S
C862 C861 1.366 . S
C862 C863 1.414 . S
C862 C865 1.499 . S
C863 H837 0.950 . S
C863 C862 1.414 . S
C863 C864 1.374 . S
C864 H838 0.950 . S
C864 C860 1.385 . S
C864 C863 1.374 . S
C865 C862 1.499 . S
C865 C866 1.373 1_655 S
C865 C867 1.389 1_655 S
C866 H839 0.950 . S
C866 C852 1.377 . S
C866 C865 1.373 1_455 S
C867 C851 1.377 . S
C867 C865 1.389 1_455 S
C867 C868 1.524 1_455 S
C868 C867 1.524 1_655 S
C868 C869 1.397 . S
C868 C873 1.363 1_655 S
C869 H840 0.950 . S
C869 C868 1.397 . S
C869 C870 1.334 . S
C870 H841 0.950 . S
C870 C869 1.334 . S
C870 C871 1.287 . S
C871 C870 1.287 . S
C871 C872 1.524 . S
C871 H874 0.999 1_545 S
C872 H842 0.950 1_545 S
C872 C871 1.524 . S
C872 C873 1.415 1_655 S
C873 H843 0.950 . S
C873 C868 1.363 1_455 S
C873 C872 1.415 1_455 S
H874 C871 0.999 1_565 S
H875 C856 0.913 . S
H876 C894 0.951 . S
H877 C896 0.951 . S
H878 C898 0.950 . S
H879 C899 0.950 . S
H880 C901 0.950 . S
H881 C904 0.950 1_554 S
H882 C905 0.950 . S
H883 C907 0.950 . S
H884 C908 0.950 . S
H885 C909 0.951 . S
H886 C911 0.951 . S
H887 C913 0.950 . S
H888 C914 0.950 1_556 S
H889 C916 0.950 . S
H890 C919 0.950 . S
H891 C920 0.950 . S
H892 C922 0.950 . S
H893 C923 0.950 . S
C894 H876 0.951 . S
C894 C895 1.366 . S
C894 C896 1.388 . S
C895 C894 1.366 . S
C895 C899 1.385 . S
C896 H877 0.951 . S
C896 C894 1.388 . S
C896 C897 1.366 . S
C897 C896 1.366 . S
C897 C898 1.414 . S
C897 C900 1.499 . S
C898 H878 0.950 . S
C898 C897 1.414 . S
C898 C899 1.374 . S
C899 H879 0.950 . S
C899 C895 1.385 . S
C899 C898 1.374 . S
C900 C897 1.499 . S
C900 C901 1.373 . S
C900 C902 1.389 . S
C901 H880 0.950 . S
C901 C900 1.373 . S
C901 C917 1.377 . S
C902 C900 1.389 . S
C902 C903 1.524 . S
C902 C916 1.377 . S
C903 C902 1.524 . S
C903 C904 1.397 1_554 S
C903 C908 1.363 1_554 S
C904 H881 0.950 1_556 S
C904 C903 1.397 1_556 S
C904 C905 1.334 . S
C905 H882 0.950 . S
C905 C904 1.334 . S
C905 C906 1.287 . S
C906 C905 1.287 . S
C906 C907 1.524 . S
C906 H925 0.913 . S
C907 H883 0.950 . S
C907 C906 1.524 . S
C907 C908 1.415 . S
C908 H884 0.950 . S
C908 C903 1.363 1_556 S
C908 C907 1.415 . S
C909 H885 0.951 . S
C909 C910 1.366 . S
C909 C911 1.388 . S
C910 C909 1.366 . S
C910 C914 1.385 . S
C911 H886 0.951 . S
C911 C909 1.388 . S
C911 C912 1.366 . S
C912 C911 1.366 . S
C912 C913 1.414 . S
C912 C915 1.499 . S
C913 H887 0.950 . S
C913 C912 1.414 . S
C913 C914 1.374 . S
C914 H888 0.950 1_554 S
C914 C910 1.385 . S
C914 C913 1.374 . S
C915 C912 1.499 . S
C915 C916 1.373 . S
C915 C917 1.389 . S
C916 H889 0.950 . S
C916 C902 1.377 . S
C916 C915 1.373 . S
C917 C901 1.377 . S
C917 C915 1.389 . S
C917 C918 1.524 . S
C918 C917 1.524 . S
C918 C919 1.397 . S
C918 C923 1.363 . S
C919 H890 0.950 . S
C919 C918 1.397 . S
C919 C920 1.334 . S
C920 H891 0.950 . S
C920 C919 1.334 . S
C920 C921 1.287 . S
C921 C920 1.287 . S
C921 C922 1.524 . S
C921 H924 0.999 . S
C922 H892 0.950 . S
C922 C921 1.524 . S
C922 C923 1.415 . S
C923 H893 0.950 . S
C923 C918 1.363 . S
C923 C922 1.415 . S
H924 C921 0.999 . S
H925 C906 0.913 . S
H926 C944 0.951 . S
H927 C946 0.951 . S
H928 C948 0.950 . S
H929 C949 0.950 . S
H930 C951 0.950 . S
H931 C954 0.950 . S
H932 C955 0.950 1_554 S
H933 C957 0.950 . S
H934 C958 0.950 . S
H935 C959 0.951 . S
H936 C961 0.951 . S
H937 C963 0.950 1_556 S
H938 C964 0.950 . S
H939 C966 0.950 . S
H940 C969 0.950 . S
H941 C970 0.950 . S
H942 C972 0.950 . S
H943 C973 0.950 . S
C944 H926 0.951 . S
C944 C945 1.366 . S
C944 C946 1.388 . S
C945 C944 1.366 . S
C945 C949 1.385 . S
C946 H927 0.951 . S
C946 C944 1.388 . S
C946 C947 1.366 . S
C947 C946 1.366 . S
C947 C948 1.414 . S
C947 C950 1.499 . S
C948 H928 0.950 . S
C948 C947 1.414 . S
C948 C949 1.374 . S
C949 H929 0.950 . S
C949 C945 1.385 . S
C949 C948 1.374 . S
C950 C947 1.499 . S
C950 C951 1.373 . S
C950 C952 1.389 . S
C951 H930 0.950 . S
C951 C950 1.373 . S
C951 C967 1.377 . S
C952 C950 1.389 . S
C952 C953 1.524 . S
C952 C966 1.377 . S
C953 C952 1.524 . S
C953 C954 1.397 . S
C953 C958 1.363 1_554 S
C954 H931 0.950 . S
C954 C953 1.397 . S
C954 C955 1.334 1_554 S
C955 H932 0.950 1_556 S
C955 C954 1.334 1_556 S
C955 C956 1.287 . S
C956 C955 1.287 . S
C956 C957 1.524 . S
C956 H975 0.913 . S
C957 H933 0.950 . S
C957 C956 1.524 . S
C957 C958 1.415 . S
C958 H934 0.950 . S
C958 C953 1.363 1_556 S
C958 C957 1.415 . S
C959 H935 0.951 . S
C959 C960 1.366 . S
C959 C961 1.388 . S
C960 C959 1.366 . S
C960 C964 1.385 1_554 S
C961 H936 0.951 . S
C961 C959 1.388 . S
C961 C962 1.366 . S
C962 C961 1.366 . S
C962 C963 1.414 . S
C962 C965 1.499 . S
C963 H937 0.950 1_554 S
C963 C962 1.414 . S
C963 C964 1.374 1_554 S
C964 H938 0.950 . S
C964 C960 1.385 1_556 S
C964 C963 1.374 1_556 S
C965 C962 1.499 . S
C965 C966 1.373 . S
C965 C967 1.389 . S
C966 H939 0.950 . S
C966 C952 1.377 . S
C966 C965 1.373 . S
C967 C951 1.377 . S
C967 C965 1.389 . S
C967 C968 1.524 . S
C968 C967 1.524 . S
C968 C969 1.397 . S
C968 C973 1.363 . S
C969 H940 0.950 . S
C969 C968 1.397 . S
C969 C970 1.334 . S
C970 H941 0.950 . S
C970 C969 1.334 . S
C970 C971 1.287 . S
C971 C970 1.287 . S
C971 C972 1.524 . S
C971 H974 0.999 . S
C972 H942 0.950 . S
C972 C971 1.524 . S
C972 C973 1.415 . S
C973 H943 0.950 . S
C973 C968 1.363 . S
C973 C972 1.415 . S
H974 C971 0.999 . S
H975 C956 0.913 . S
H976 C994 0.951 . S
H977 C996 0.951 . S
H978 C998 0.950 . S
H979 C999 0.950 . S
H980 C1001 0.950 . S
H981 C1004 0.950 . S
H982 C1005 0.950 . S
H983 C1007 0.950 . S
H984 C1008 0.950 . S
H985 C1009 0.951 . S
H986 C1011 0.951 . S
H987 C1013 0.950 . S
H988 C1014 0.950 . S
H989 C1016 0.950 . S
H990 C1019 0.950 . S
H991 C1020 0.950 . S
H992 C1022 0.950 . S
H993 C1023 0.950 . S
C994 H976 0.951 . S
C994 C995 1.366 . S
C994 C996 1.388 . S
C995 C994 1.366 . S
C995 C999 1.385 . S
C996 H977 0.951 . S
C996 C994 1.388 . S
C996 C997 1.366 . S
C997 C996 1.366 . S
C997 C998 1.414 . S
C997 C1000 1.499 . S
C998 H978 0.950 . S
C998 C997 1.414 . S
C998 C999 1.374 . S
C999 H979 0.950 . S
C999 C995 1.385 . S
C999 C998 1.374 . S
C1000 C997 1.499 . S
C1000 C1001 1.373 . S
C1000 C1002 1.389 . S
C1001 H980 0.950 . S
C1001 C1000 1.373 . S
C1001 C1017 1.377 . S
C1002 C1000 1.389 . S
C1002 C1003 1.524 . S
C1002 C1016 1.377 . S
C1003 C1002 1.524 . S
C1003 C1004 1.397 1_554 S
C1003 C1008 1.363 . S
C1004 H981 0.950 . S
C1004 C1003 1.397 1_556 S
C1004 C1005 1.334 . S
C1005 H982 0.950 . S
C1005 C1004 1.334 . S
C1005 C1006 1.287 . S
C1006 C1005 1.287 . S
C1006 C1007 1.524 . S
C1006 H1025 0.913 . S
C1007 H983 0.950 . S
C1007 C1006 1.524 . S
C1007 C1008 1.415 1_556 S
C1008 H984 0.950 . S
C1008 C1003 1.363 . S
C1008 C1007 1.415 1_554 S
C1009 H985 0.951 . S
C1009 C1010 1.366 . S
C1009 C1011 1.388 . S
C1010 C1009 1.366 . S
C1010 C1014 1.385 . S
C1011 H986 0.951 . S
C1011 C1009 1.388 . S
C1011 C1012 1.366 . S
C1012 C1011 1.366 . S
C1012 C1013 1.414 . S
C1012 C1015 1.499 . S
C1013 H987 0.950 . S
C1013 C1012 1.414 . S
C1013 C1014 1.374 . S
C1014 H988 0.950 . S
C1014 C1010 1.385 . S
C1014 C1013 1.374 . S
C1015 C1012 1.499 . S
C1015 C1016 1.373 . S
C1015 C1017 1.389 . S
C1016 H989 0.950 . S
C1016 C1002 1.377 . S
C1016 C1015 1.373 . S
C1017 C1001 1.377 . S
C1017 C1015 1.389 . S
C1017 C1018 1.524 . S
C1018 C1017 1.524 . S
C1018 C1019 1.397 . S
C1018 C1023 1.363 . S
C1019 H990 0.950 . S
C1019 C1018 1.397 . S
C1019 C1020 1.334 . S
C1020 H991 0.950 . S
C1020 C1019 1.334 . S
C1020 C1021 1.287 . S
C1021 C1020 1.287 . S
C1021 C1022 1.524 . S
C1021 H1024 0.999 . S
C1022 H992 0.950 . S
C1022 C1021 1.524 . S
C1022 C1023 1.415 . S
C1023 H993 0.950 . S
C1023 C1018 1.363 . S
C1023 C1022 1.415 . S
H1024 C1021 0.999 . S
H1025 C1006 0.913 . S
H1026 C1044 0.951 . S
H1027 C1046 0.951 . S
H1028 C1048 0.950 . S
H1029 C1049 0.950 . S
H1030 C1051 0.950 . S
H1031 C1054 0.950 . S
H1032 C1055 0.950 . S
H1033 C1057 0.950 . S
H1034 C1058 0.950 . S
H1035 C1059 0.951 . S
H1036 C1061 0.951 . S
H1037 C1063 0.950 . S
H1038 C1064 0.950 . S
H1039 C1066 0.950 . S
H1040 C1069 0.950 . S
H1041 C1070 0.950 . S
H1042 C1072 0.950 . S
H1043 C1073 0.950 . S
C1044 H1026 0.951 . S
C1044 C1045 1.366 . S
C1044 C1046 1.388 . S
C1045 C1044 1.366 . S
C1045 C1049 1.385 . S
C1046 H1027 0.951 . S
C1046 C1044 1.388 . S
C1046 C1047 1.366 . S
C1047 C1046 1.366 . S
C1047 C1048 1.414 . S
C1047 C1050 1.499 . S
C1048 H1028 0.950 . S
C1048 C1047 1.414 . S
C1048 C1049 1.374 . S
C1049 H1029 0.950 . S
C1049 C1045 1.385 . S
C1049 C1048 1.374 . S
C1050 C1047 1.499 . S
C1050 C1051 1.373 . S
C1050 C1052 1.389 . S
C1051 H1030 0.950 . S
C1051 C1050 1.373 . S
C1051 C1067 1.377 . S
C1052 C1050 1.389 . S
C1052 C1053 1.524 . S
C1052 C1066 1.377 . S
C1053 C1052 1.524 . S
C1053 C1054 1.397 . S
C1053 C1058 1.363 . S
C1054 H1031 0.950 . S
C1054 C1053 1.397 . S
C1054 C1055 1.334 . S
C1055 H1032 0.950 . S
C1055 C1054 1.334 . S
C1055 C1056 1.287 . S
C1056 C1055 1.287 . S
C1056 C1057 1.524 . S
C1056 H1075 0.913 . S
C1057 H1033 0.950 . S
C1057 C1056 1.524 . S
C1057 C1058 1.415 . S
C1058 H1034 0.950 . S
C1058 C1053 1.363 . S
C1058 C1057 1.415 . S
C1059 H1035 0.951 . S
C1059 C1060 1.366 . S
C1059 C1061 1.388 . S
C1060 C1059 1.366 . S
C1060 C1064 1.385 . S
C1061 H1036 0.951 . S
C1061 C1059 1.388 . S
C1061 C1062 1.366 . S
C1062 C1061 1.366 . S
C1062 C1063 1.414 . S
C1062 C1065 1.499 . S
C1063 H1037 0.950 . S
C1063 C1062 1.414 . S
C1063 C1064 1.374 . S
C1064 H1038 0.950 . S
C1064 C1060 1.385 . S
C1064 C1063 1.374 . S
C1065 C1062 1.499 . S
C1065 C1066 1.373 . S
C1065 C1067 1.389 . S
C1066 H1039 0.950 . S
C1066 C1052 1.377 . S
C1066 C1065 1.373 . S
C1067 C1051 1.377 . S
C1067 C1065 1.389 . S
C1067 C1068 1.524 . S
C1068 C1067 1.524 . S
C1068 C1069 1.397 . S
C1068 C1073 1.363 . S
C1069 H1040 0.950 . S
C1069 C1068 1.397 . S
C1069 C1070 1.334 . S
C1070 H1041 0.950 . S
C1070 C1069 1.334 . S
C1070 C1071 1.287 . S
C1071 C1070 1.287 . S
C1071 C1072 1.524 . S
C1071 H1074 0.999 . S
C1072 H1042 0.950 . S
C1072 C1071 1.524 . S
C1072 C1073 1.415 . S
C1073 H1043 0.950 . S
C1073 C1068 1.363 . S
C1073 C1072 1.415 . S
H1074 C1071 0.999 . S
H1075 C1056 0.913 . S
H1076 C1094 0.951 . S
H1077 C1096 0.951 . S
H1078 C1098 0.950 . S
H1079 C1099 0.950 . S
H1080 C1101 0.950 . S
H1081 C1104 0.950 . S
H1082 C1105 0.950 . S
H1083 C1107 0.950 . S
H1084 C1108 0.950 . S
H1085 C1109 0.951 . S
H1086 C1111 0.951 . S
H1087 C1113 0.950 . S
H1088 C1114 0.950 . S
H1089 C1116 0.950 . S
H1090 C1119 0.950 . S
H1091 C1120 0.950 . S
H1092 C1122 0.950 . S
H1093 C1123 0.950 . S
C1094 H1076 0.951 . S
C1094 C1095 1.366 . S
C1094 C1096 1.388 . S
C1095 C1094 1.366 . S
C1095 C1099 1.385 . S
C1096 H1077 0.951 . S
C1096 C1094 1.388 . S
C1096 C1097 1.366 . S
C1097 C1096 1.366 . S
C1097 C1098 1.414 . S
C1097 C1100 1.499 . S
C1098 H1078 0.950 . S
C1098 C1097 1.414 . S
C1098 C1099 1.374 . S
C1099 H1079 0.950 . S
C1099 C1095 1.385 . S
C1099 C1098 1.374 . S
C1100 C1097 1.499 . S
C1100 C1101 1.373 . S
C1100 C1102 1.389 . S
C1101 H1080 0.950 . S
C1101 C1100 1.373 . S
C1101 C1117 1.377 . S
C1102 C1100 1.389 . S
C1102 C1103 1.524 . S
C1102 C1116 1.377 . S
C1103 C1102 1.524 . S
C1103 C1104 1.397 . S
C1103 C1108 1.363 . S
C1104 H1081 0.950 . S
C1104 C1103 1.397 . S
C1104 C1105 1.334 . S
C1105 H1082 0.950 . S
C1105 C1104 1.334 . S
C1105 C1106 1.287 . S
C1106 C1105 1.287 . S
C1106 C1107 1.524 . S
C1106 H1125 0.913 . S
C1107 H1083 0.950 . S
C1107 C1106 1.524 . S
C1107 C1108 1.415 . S
C1108 H1084 0.950 . S
C1108 C1103 1.363 . S
C1108 C1107 1.415 . S
C1109 H1085 0.951 . S
C1109 C1110 1.366 . S
C1109 C1111 1.388 . S
C1110 C1109 1.366 . S
C1110 C1114 1.385 . S
C1111 H1086 0.951 . S
C1111 C1109 1.388 . S
C1111 C1112 1.366 . S
C1112 C1111 1.366 . S
C1112 C1113 1.414 . S
C1112 C1115 1.499 . S
C1113 H1087 0.950 . S
C1113 C1112 1.414 . S
C1113 C1114 1.374 . S
C1114 H1088 0.950 . S
C1114 C1110 1.385 . S
C1114 C1113 1.374 . S
C1115 C1112 1.499 . S
C1115 C1116 1.373 . S
C1115 C1117 1.389 . S
C1116 H1089 0.950 . S
C1116 C1102 1.377 . S
C1116 C1115 1.373 . S
C1117 C1101 1.377 . S
C1117 C1115 1.389 . S
C1117 C1118 1.524 . S
C1118 C1117 1.524 . S
C1118 C1119 1.397 . S
C1118 C1123 1.363 . S
C1119 H1090 0.950 . S
C1119 C1118 1.397 . S
C1119 C1120 1.334 . S
C1120 H1091 0.950 . S
C1120 C1119 1.334 . S
C1120 C1121 1.287 . S
C1121 C1120 1.287 . S
C1121 C1122 1.524 . S
C1121 H1124 0.999 . S
C1122 H1092 0.950 . S
C1122 C1121 1.524 . S
C1122 C1123 1.415 . S
C1123 H1093 0.950 . S
C1123 C1118 1.363 . S
C1123 C1122 1.415 . S
H1124 C1121 0.999 . S
H1125 C1106 0.913 . S
H1126 C1144 0.951 . S
H1127 C1146 0.951 . S
H1128 C1148 0.950 . S
H1129 C1149 0.950 . S
H1130 C1151 0.950 . S
H1131 C1154 0.950 . S
H1132 C1155 0.950 . S
H1133 C1157 0.950 . S
H1134 C1158 0.950 . S
H1135 C1159 0.951 . S
H1136 C1161 0.951 . S
H1137 C1163 0.950 . S
H1138 C1164 0.950 . S
H1139 C1166 0.950 . S
H1140 C1169 0.950 . S
H1141 C1170 0.950 . S
H1142 C1172 0.950 . S
H1143 C1173 0.950 . S
C1144 H1126 0.951 . S
C1144 C1145 1.366 . S
C1144 C1146 1.388 . S
C1145 C1144 1.366 . S
C1145 C1149 1.385 . S
C1146 H1127 0.951 . S
C1146 C1144 1.388 . S
C1146 C1147 1.366 . S
C1147 C1146 1.366 . S
C1147 C1148 1.414 . S
C1147 C1150 1.499 . S
C1148 H1128 0.950 . S
C1148 C1147 1.414 . S
C1148 C1149 1.374 . S
C1149 H1129 0.950 . S
C1149 C1145 1.385 . S
C1149 C1148 1.374 . S
C1150 C1147 1.499 . S
C1150 C1151 1.373 . S
C1150 C1152 1.389 . S
C1151 H1130 0.950 . S
C1151 C1150 1.373 . S
C1151 C1167 1.377 . S
C1152 C1150 1.389 . S
C1152 C1153 1.524 . S
C1152 C1166 1.377 . S
C1153 C1152 1.524 . S
C1153 C1154 1.397 . S
C1153 C1158 1.363 . S
C1154 H1131 0.950 . S
C1154 C1153 1.397 . S
C1154 C1155 1.334 . S
C1155 H1132 0.950 . S
C1155 C1154 1.334 . S
C1155 C1156 1.287 . S
C1156 C1155 1.287 . S
C1156 C1157 1.524 . S
C1156 H1175 0.913 . S
C1157 H1133 0.950 . S
C1157 C1156 1.524 . S
C1157 C1158 1.415 . S
C1158 H1134 0.950 . S
C1158 C1153 1.363 . S
C1158 C1157 1.415 . S
C1159 H1135 0.951 . S
C1159 C1160 1.366 . S
C1159 C1161 1.388 . S
C1160 C1159 1.366 . S
C1160 C1164 1.385 . S
C1161 H1136 0.951 . S
C1161 C1159 1.388 . S
C1161 C1162 1.366 . S
C1162 C1161 1.366 . S
C1162 C1163 1.414 . S
C1162 C1165 1.499 . S
C1163 H1137 0.950 . S
C1163 C1162 1.414 . S
C1163 C1164 1.374 . S
C1164 H1138 0.950 . S
C1164 C1160 1.385 . S
C1164 C1163 1.374 . S
C1165 C1162 1.499 . S
C1165 C1166 1.373 . S
C1165 C1167 1.389 . S
C1166 H1139 0.950 . S
C1166 C1152 1.377 . S
C1166 C1165 1.373 . S
C1167 C1151 1.377 . S
C1167 C1165 1.389 . S
C1167 C1168 1.524 . S
C1168 C1167 1.524 . S
C1168 C1169 1.397 . S
C1168 C1173 1.363 . S
C1169 H1140 0.950 . S
C1169 C1168 1.397 . S
C1169 C1170 1.334 . S
C1170 H1141 0.950 . S
C1170 C1169 1.334 . S
C1170 C1171 1.287 . S
C1171 C1170 1.287 . S
C1171 C1172 1.524 . S
C1171 H1174 0.999 . S
C1172 H1142 0.950 . S
C1172 C1171 1.524 . S
C1172 C1173 1.415 . S
C1173 H1143 0.950 . S
C1173 C1168 1.363 . S
C1173 C1172 1.415 . S
H1174 C1171 0.999 . S
H1175 C1156 0.913 . S
H1176 C1194 0.951 . S
H1177 C1196 0.951 . S
H1178 C1198 0.950 . S
H1179 C1199 0.950 . S
H1180 C1201 0.950 . S
H1181 C1204 0.950 . S
H1182 C1205 0.950 . S
H1183 C1207 0.950 . S
H1184 C1208 0.950 . S
H1185 C1209 0.951 . S
H1186 C1211 0.951 . S
H1187 C1213 0.950 . S
H1188 C1214 0.950 . S
H1189 C1216 0.950 . S
H1190 C1219 0.950 . S
H1191 C1220 0.950 . S
H1192 C1222 0.950 . S
H1193 C1223 0.950 . S
C1194 H1176 0.951 . S
C1194 C1195 1.366 . S
C1194 C1196 1.388 . S
C1195 C1194 1.366 . S
C1195 C1199 1.385 . S
C1196 H1177 0.951 . S
C1196 C1194 1.388 . S
C1196 C1197 1.366 . S
C1197 C1196 1.366 . S
C1197 C1198 1.414 . S
C1197 C1200 1.499 . S
C1198 H1178 0.950 . S
C1198 C1197 1.414 . S
C1198 C1199 1.374 . S
C1199 H1179 0.950 . S
C1199 C1195 1.385 . S
C1199 C1198 1.374 . S
C1200 C1197 1.499 . S
C1200 C1201 1.373 . S
C1200 C1202 1.389 . S
C1201 H1180 0.950 . S
C1201 C1200 1.373 . S
C1201 C1217 1.377 . S
C1202 C1200 1.389 . S
C1202 C1203 1.524 . S
C1202 C1216 1.377 . S
C1203 C1202 1.524 . S
C1203 C1204 1.397 . S
C1203 C1208 1.363 . S
C1204 H1181 0.950 . S
C1204 C1203 1.397 . S
C1204 C1205 1.334 . S
C1205 H1182 0.950 . S
C1205 C1204 1.334 . S
C1205 C1206 1.287 . S
C1206 C1205 1.287 . S
C1206 C1207 1.524 . S
C1206 H1225 0.913 . S
C1207 H1183 0.950 . S
C1207 C1206 1.524 . S
C1207 C1208 1.415 . S
C1208 H1184 0.950 . S
C1208 C1203 1.363 . S
C1208 C1207 1.415 . S
C1209 H1185 0.951 . S
C1209 C1210 1.366 . S
C1209 C1211 1.388 . S
C1210 C1209 1.366 . S
C1210 C1214 1.385 . S
C1211 H1186 0.951 . S
C1211 C1209 1.388 . S
C1211 C1212 1.366 . S
C1212 C1211 1.366 . S
C1212 C1213 1.414 . S
C1212 C1215 1.499 . S
C1213 H1187 0.950 . S
C1213 C1212 1.414 . S
C1213 C1214 1.374 . S
C1214 H1188 0.950 . S
C1214 C1210 1.385 . S
C1214 C1213 1.374 . S
C1215 C1212 1.499 . S
C1215 C1216 1.373 . S
C1215 C1217 1.389 . S
C1216 H1189 0.950 . S
C1216 C1202 1.377 . S
C1216 C1215 1.373 . S
C1217 C1201 1.377 . S
C1217 C1215 1.389 . S
C1217 C1218 1.524 . S
C1218 C1217 1.524 . S
C1218 C1219 1.397 . S
C1218 C1223 1.363 . S
C1219 H1190 0.950 . S
C1219 C1218 1.397 . S
C1219 C1220 1.334 . S
C1220 H1191 0.950 . S
C1220 C1219 1.334 . S
C1220 C1221 1.287 . S
C1221 C1220 1.287 . S
C1221 C1222 1.524 . S
C1221 H1224 0.999 . S
C1222 H1192 0.950 . S
C1222 C1221 1.524 . S
C1222 C1223 1.415 . S
C1223 H1193 0.950 . S
C1223 C1218 1.363 . S
C1223 C1222 1.415 . S
H1224 C1221 0.999 . S
H1225 C1206 0.913 . S
H1226 C1244 0.951 . S
H1227 C1246 0.951 . S
H1228 C1248 0.950 . S
H1229 C1249 0.950 . S
H1230 C1251 0.950 . S
H1231 C1254 0.950 . S
H1232 C1255 0.950 . S
H1233 C1257 0.950 . S
H1234 C1258 0.950 . S
H1235 C1259 0.951 . S
H1236 C1261 0.951 . S
H1237 C1263 0.950 . S
H1238 C1264 0.950 . S
H1239 C1266 0.950 . S
H1240 C1269 0.950 . S
H1241 C1270 0.950 . S
H1242 C1272 0.950 . S
H1243 C1273 0.950 . S
C1244 H1226 0.951 . S
C1244 C1245 1.366 . S
C1244 C1246 1.388 . S
C1245 C1244 1.366 . S
C1245 C1249 1.385 . S
C1246 H1227 0.951 . S
C1246 C1244 1.388 . S
C1246 C1247 1.366 . S
C1247 C1246 1.366 . S
C1247 C1248 1.414 . S
C1247 C1250 1.499 . S
C1248 H1228 0.950 . S
C1248 C1247 1.414 . S
C1248 C1249 1.374 . S
C1249 H1229 0.950 . S
C1249 C1245 1.385 . S
C1249 C1248 1.374 . S
C1250 C1247 1.499 . S
C1250 C1251 1.373 . S
C1250 C1252 1.389 . S
C1251 H1230 0.950 . S
C1251 C1250 1.373 . S
C1251 C1267 1.377 . S
C1252 C1250 1.389 . S
C1252 C1253 1.524 . S
C1252 C1266 1.377 . S
C1253 C1252 1.524 . S
C1253 C1254 1.397 . S
C1253 C1258 1.363 . S
C1254 H1231 0.950 . S
C1254 C1253 1.397 . S
C1254 C1255 1.334 . S
C1255 H1232 0.950 . S
C1255 C1254 1.334 . S
C1255 C1256 1.287 . S
C1256 C1255 1.287 . S
C1256 C1257 1.524 . S
C1256 H1275 0.913 . S
C1257 H1233 0.950 . S
C1257 C1256 1.524 . S
C1257 C1258 1.415 . S
C1258 H1234 0.950 . S
C1258 C1253 1.363 . S
C1258 C1257 1.415 . S
C1259 H1235 0.951 . S
C1259 C1260 1.366 . S
C1259 C1261 1.388 . S
C1260 C1259 1.366 . S
C1260 C1264 1.385 . S
C1261 H1236 0.951 . S
C1261 C1259 1.388 . S
C1261 C1262 1.366 . S
C1262 C1261 1.366 . S
C1262 C1263 1.414 . S
C1262 C1265 1.499 . S
C1263 H1237 0.950 . S
C1263 C1262 1.414 . S
C1263 C1264 1.374 . S
C1264 H1238 0.950 . S
C1264 C1260 1.385 . S
C1264 C1263 1.374 . S
C1265 C1262 1.499 . S
C1265 C1266 1.373 . S
C1265 C1267 1.389 . S
C1266 H1239 0.950 . S
C1266 C1252 1.377 . S
C1266 C1265 1.373 . S
C1267 C1251 1.377 . S
C1267 C1265 1.389 . S
C1267 C1268 1.524 . S
C1268 C1267 1.524 . S
C1268 C1269 1.397 . S
C1268 C1273 1.363 . S
C1269 H1240 0.950 . S
C1269 C1268 1.397 . S
C1269 C1270 1.334 . S
C1270 H1241 0.950 . S
C1270 C1269 1.334 . S
C1270 C1271 1.287 . S
C1271 C1270 1.287 . S
C1271 C1272 1.524 . S
C1271 H1274 0.999 . S
C1272 H1242 0.950 . S
C1272 C1271 1.524 . S
C1272 C1273 1.415 . S
C1273 H1243 0.950 . S
C1273 C1268 1.363 . S
C1273 C1272 1.415 . S
H1274 C1271 0.999 . S
H1275 C1256 0.913 . S
H1276 C1294 0.951 . S
H1277 C1296 0.951 . S
H1278 C1298 0.950 . S
H1279 C1299 0.950 . S
H1280 C1301 0.950 . S
H1281 C1304 0.950 . S
H1282 C1305 0.950 . S
H1283 C1307 0.950 . S
H1284 C1308 0.950 . S
H1285 C1309 0.951 . S
H1286 C1311 0.951 . S
H1287 C1313 0.950 . S
H1288 C1314 0.950 . S
H1289 C1316 0.950 . S
H1290 C1319 0.950 . S
H1291 C1320 0.950 . S
H1292 C1322 0.950 . S
H1293 C1323 0.950 . S
C1294 H1276 0.951 . S
C1294 C1295 1.366 . S
C1294 C1296 1.388 . S
C1295 C1294 1.366 . S
C1295 C1299 1.385 . S
C1296 H1277 0.951 . S
C1296 C1294 1.388 . S
C1296 C1297 1.366 . S
C1297 C1296 1.366 . S
C1297 C1298 1.414 . S
C1297 C1300 1.499 . S
C1298 H1278 0.950 . S
C1298 C1297 1.414 . S
C1298 C1299 1.374 . S
C1299 H1279 0.950 . S
C1299 C1295 1.385 . S
C1299 C1298 1.374 . S
C1300 C1297 1.499 . S
C1300 C1301 1.373 . S
C1300 C1302 1.389 . S
C1301 H1280 0.950 . S
C1301 C1300 1.373 . S
C1301 C1317 1.377 . S
C1302 C1300 1.389 . S
C1302 C1303 1.524 . S
C1302 C1316 1.377 . S
C1303 C1302 1.524 . S
C1303 C1304 1.397 . S
C1303 C1308 1.363 . S
C1304 H1281 0.950 . S
C1304 C1303 1.397 . S
C1304 C1305 1.334 . S
C1305 H1282 0.950 . S
C1305 C1304 1.334 . S
C1305 C1306 1.287 . S
C1306 C1305 1.287 . S
C1306 C1307 1.524 . S
C1306 H1325 0.913 . S
C1307 H1283 0.950 . S
C1307 C1306 1.524 . S
C1307 C1308 1.415 . S
C1308 H1284 0.950 . S
C1308 C1303 1.363 . S
C1308 C1307 1.415 . S
C1309 H1285 0.951 . S
C1309 C1310 1.366 . S
C1309 C1311 1.388 . S
C1310 C1309 1.366 . S
C1310 C1314 1.385 . S
C1311 H1286 0.951 . S
C1311 C1309 1.388 . S
C1311 C1312 1.366 . S
C1312 C1311 1.366 . S
C1312 C1313 1.414 . S
C1312 C1315 1.499 . S
C1313 H1287 0.950 . S
C1313 C1312 1.414 . S
C1313 C1314 1.374 . S
C1314 H1288 0.950 . S
C1314 C1310 1.385 . S
C1314 C1313 1.374 . S
C1315 C1312 1.499 . S
C1315 C1316 1.373 . S
C1315 C1317 1.389 . S
C1316 H1289 0.950 . S
C1316 C1302 1.377 . S
C1316 C1315 1.373 . S
C1317 C1301 1.377 . S
C1317 C1315 1.389 . S
C1317 C1318 1.524 . S
C1318 C1317 1.524 . S
C1318 C1319 1.397 . S
C1318 C1323 1.363 . S
C1319 H1290 0.950 . S
C1319 C1318 1.397 . S
C1319 C1320 1.334 . S
C1320 H1291 0.950 . S
C1320 C1319 1.334 . S
C1320 C1321 1.287 . S
C1321 C1320 1.287 . S
C1321 C1322 1.524 . S
C1321 H1324 0.999 . S
C1322 H1292 0.950 . S
C1322 C1321 1.524 . S
C1322 C1323 1.415 . S
C1323 H1293 0.950 . S
C1323 C1318 1.363 . S
C1323 C1322 1.415 . S
H1324 C1321 0.999 . S
H1325 C1306 0.913 . S
H1326 C1344 0.951 . S
H1327 C1346 0.951 . S
H1328 C1348 0.950 . S
H1329 C1349 0.950 . S
H1330 C1351 0.950 . S
H1331 C1354 0.950 . S
H1332 C1355 0.950 . S
H1333 C1357 0.950 . S
H1334 C1358 0.950 . S
H1335 C1359 0.951 . S
H1336 C1361 0.951 . S
H1337 C1363 0.950 . S
H1338 C1364 0.950 . S
H1339 C1366 0.950 . S
H1340 C1369 0.950 1_556 S
H1341 C1370 0.950 . S
H1342 C1372 0.950 . S
H1343 C1373 0.950 . S
C1344 H1326 0.951 . S
C1344 C1345 1.366 . S
C1344 C1346 1.388 . S
C1345 C1344 1.366 . S
C1345 C1349 1.385 . S
C1346 H1327 0.951 . S
C1346 C1344 1.388 . S
C1346 C1347 1.366 . S
C1347 C1346 1.366 . S
C1347 C1348 1.414 . S
C1347 C1350 1.499 . S
C1348 H1328 0.950 . S
C1348 C1347 1.414 . S
C1348 C1349 1.374 . S
C1349 H1329 0.950 . S
C1349 C1345 1.385 . S
C1349 C1348 1.374 . S
C1350 C1347 1.499 . S
C1350 C1351 1.373 . S
C1350 C1352 1.389 . S
C1351 H1330 0.950 . S
C1351 C1350 1.373 . S
C1351 C1367 1.377 . S
C1352 C1350 1.389 . S
C1352 C1353 1.524 . S
C1352 C1366 1.377 . S
C1353 C1352 1.524 . S
C1353 C1354 1.397 . S
C1353 C1358 1.363 . S
C1354 H1331 0.950 . S
C1354 C1353 1.397 . S
C1354 C1355 1.334 . S
C1355 H1332 0.950 . S
C1355 C1354 1.334 . S
C1355 C1356 1.287 . S
C1356 C1355 1.287 . S
C1356 C1357 1.524 . S
C1356 H1375 0.913 . S
C1357 H1333 0.950 . S
C1357 C1356 1.524 . S
C1357 C1358 1.415 . S
C1358 H1334 0.950 . S
C1358 C1353 1.363 . S
C1358 C1357 1.415 . S
C1359 H1335 0.951 . S
C1359 C1360 1.366 . S
C1359 C1361 1.388 . S
C1360 C1359 1.366 . S
C1360 C1364 1.385 . S
C1361 H1336 0.951 . S
C1361 C1359 1.388 . S
C1361 C1362 1.366 . S
C1362 C1361 1.366 . S
C1362 C1363 1.414 . S
C1362 C1365 1.499 . S
C1363 H1337 0.950 . S
C1363 C1362 1.414 . S
C1363 C1364 1.374 . S
C1364 H1338 0.950 . S
C1364 C1360 1.385 . S
C1364 C1363 1.374 . S
C1365 C1362 1.499 . S
C1365 C1366 1.373 . S
C1365 C1367 1.389 . S
C1366 H1339 0.950 . S
C1366 C1352 1.377 . S
C1366 C1365 1.373 . S
C1367 C1351 1.377 . S
C1367 C1365 1.389 . S
C1367 C1368 1.524 . S
C1368 C1367 1.524 . S
C1368 C1369 1.397 1_556 S
C1368 C1373 1.363 1_556 S
C1369 H1340 0.950 1_554 S
C1369 C1368 1.397 1_554 S
C1369 C1370 1.334 . S
C1370 H1341 0.950 . S
C1370 C1369 1.334 . S
C1370 C1371 1.287 . S
C1371 C1370 1.287 . S
C1371 C1372 1.524 . S
C1371 H1374 0.999 . S
C1372 H1342 0.950 . S
C1372 C1371 1.524 . S
C1372 C1373 1.415 . S
C1373 H1343 0.950 . S
C1373 C1368 1.363 1_554 S
C1373 C1372 1.415 . S
H1374 C1371 0.999 . S
H1375 C1356 0.913 . S
H1376 C1394 0.951 . S
H1377 C1396 0.951 . S
H1378 C1398 0.950 . S
H1379 C1399 0.950 . S
H1380 C1401 0.950 . S
H1381 C1404 0.950 . S
H1382 C1405 0.950 . S
H1383 C1407 0.950 1_554 S
H1384 C1408 0.950 . S
H1385 C1409 0.951 . S
H1386 C1411 0.951 . S
H1387 C1413 0.950 1_554 S
H1388 C1414 0.950 . S
H1389 C1416 0.950 . S
H1390 C1419 0.950 . S
H1391 C1420 0.950 . S
H1392 C1422 0.950 . S
H1393 C1423 0.950 . S
C1394 H1376 0.951 . S
C1394 C1395 1.366 . S
C1394 C1396 1.388 . S
C1395 C1394 1.366 . S
C1395 C1399 1.385 . S
C1396 H1377 0.951 . S
C1396 C1394 1.388 . S
C1396 C1397 1.366 . S
C1397 C1396 1.366 . S
C1397 C1398 1.414 . S
C1397 C1400 1.499 . S
C1398 H1378 0.950 . S
C1398 C1397 1.414 . S
C1398 C1399 1.374 . S
C1399 H1379 0.950 . S
C1399 C1395 1.385 . S
C1399 C1398 1.374 . S
C1400 C1397 1.499 . S
C1400 C1401 1.373 . S
C1400 C1402 1.389 . S
C1401 H1380 0.950 . S
C1401 C1400 1.373 . S
C1401 C1417 1.377 . S
C1402 C1400 1.389 . S
C1402 C1403 1.524 . S
C1402 C1416 1.377 . S
C1403 C1402 1.524 . S
C1403 C1404 1.397 . S
C1403 C1408 1.363 . S
C1404 H1381 0.950 . S
C1404 C1403 1.397 . S
C1404 C1405 1.334 . S
C1405 H1382 0.950 . S
C1405 C1404 1.334 . S
C1405 C1406 1.287 . S
C1406 C1405 1.287 . S
C1406 C1407 1.524 . S
C1406 H1425 0.913 . S
C1407 H1383 0.950 1_556 S
C1407 C1406 1.524 . S
C1407 C1408 1.415 . S
C1408 H1384 0.950 . S
C1408 C1403 1.363 . S
C1408 C1407 1.415 . S
C1409 H1385 0.951 . S
C1409 C1410 1.366 . S
C1409 C1411 1.388 . S
C1410 C1409 1.366 . S
C1410 C1414 1.385 1_556 S
C1411 H1386 0.951 . S
C1411 C1409 1.388 . S
C1411 C1412 1.366 . S
C1412 C1411 1.366 . S
C1412 C1413 1.414 . S
C1412 C1415 1.499 . S
C1413 H1387 0.950 1_556 S
C1413 C1412 1.414 . S
C1413 C1414 1.374 1_556 S
C1414 H1388 0.950 . S
C1414 C1410 1.385 1_554 S
C1414 C1413 1.374 1_554 S
C1415 C1412 1.499 . S
C1415 C1416 1.373 . S
C1415 C1417 1.389 . S
C1416 H1389 0.950 . S
C1416 C1402 1.377 . S
C1416 C1415 1.373 . S
C1417 C1401 1.377 . S
C1417 C1415 1.389 . S
C1417 C1418 1.524 . S
C1418 C1417 1.524 . S
C1418 C1419 1.397 . S
C1418 C1423 1.363 . S
C1419 H1390 0.950 . S
C1419 C1418 1.397 . S
C1419 C1420 1.334 . S
C1420 H1391 0.950 . S
C1420 C1419 1.334 . S
C1420 C1421 1.287 . S
C1421 C1420 1.287 . S
C1421 C1422 1.524 . S
C1421 H1424 0.999 . S
C1422 H1392 0.950 . S
C1422 C1421 1.524 . S
C1422 C1423 1.415 . S
C1423 H1393 0.950 . S
C1423 C1418 1.363 . S
C1423 C1422 1.415 . S
H1424 C1421 0.999 . S
H1425 C1406 0.913 . S
H1426 C1444 0.951 . S
H1427 C1446 0.951 . S
H1428 C1448 0.950 . S
H1429 C1449 0.950 . S
H1430 C1451 0.950 . S
H1431 C1454 0.950 . S
H1432 C1455 0.950 . S
H1433 C1457 0.950 . S
H1434 C1458 0.950 . S
H1435 C1459 0.951 . S
H1436 C1461 0.951 . S
H1437 C1463 0.950 . S
H1438 C1464 0.950 1_554 S
H1439 C1466 0.947 1_554 S
H1440 C1469 0.950 . S
H1441 C1470 0.950 . S
H1442 C1472 0.950 . S
H1443 C1473 0.950 . S
C1444 H1426 0.951 . S
C1444 C1445 1.366 . S
C1444 C1446 1.388 . S
C1445 C1444 1.366 . S
C1445 C1449 1.385 . S
C1446 H1427 0.951 . S
C1446 C1444 1.388 . S
C1446 C1447 1.366 . S
C1447 C1446 1.366 . S
C1447 C1448 1.414 . S
C1447 C1450 1.499 . S
C1448 H1428 0.950 . S
C1448 C1447 1.414 . S
C1448 C1449 1.374 . S
C1449 H1429 0.950 . S
C1449 C1445 1.385 . S
C1449 C1448 1.374 . S
C1450 C1447 1.499 . S
C1450 C1451 1.373 . S
C1450 C1452 1.389 . S
C1451 H1430 0.950 . S
C1451 C1450 1.373 . S
C1451 C1467 1.377 . S
C1452 C1450 1.389 . S
C1452 C1453 1.524 . S
C1452 C1466 1.377 . S
C1453 C1452 1.524 . S
C1453 C1454 1.397 . S
C1453 C1458 1.363 1_556 S
C1454 H1431 0.950 . S
C1454 C1453 1.397 . S
C1454 C1455 1.334 1_556 S
C1455 H1432 0.950 . S
C1455 C1454 1.334 1_554 S
C1455 C1456 1.287 . S
C1456 C1455 1.287 . S
C1456 C1457 1.524 . S
C1456 H1475 0.913 . S
C1457 H1433 0.950 . S
C1457 C1456 1.524 . S
C1457 C1458 1.415 . S
C1458 H1434 0.950 . S
C1458 C1453 1.363 1_554 S
C1458 C1457 1.415 . S
C1459 H1435 0.951 . S
C1459 C1460 1.366 . S
C1459 C1461 1.388 . S
C1460 C1459 1.366 . S
C1460 C1464 1.385 . S
C1461 H1436 0.951 . S
C1461 C1459 1.388 . S
C1461 C1462 1.366 . S
C1462 C1461 1.366 . S
C1462 C1463 1.414 . S
C1462 C1465 1.499 . S
C1463 H1437 0.950 . S
C1463 C1462 1.414 . S
C1463 C1464 1.374 . S
C1464 H1438 0.950 1_556 S
C1464 C1460 1.385 . S
C1464 C1463 1.374 . S
C1465 C1462 1.499 . S
C1465 C1466 1.373 . S
C1465 C1467 1.389 . S
C1466 H1439 0.947 1_556 S
C1466 C1452 1.377 . S
C1466 C1465 1.373 . S
C1467 C1451 1.377 . S
C1467 C1465 1.389 . S
C1467 C1468 1.524 . S
C1468 C1467 1.524 . S
C1468 C1469 1.397 . S
C1468 C1473 1.363 . S
C1469 H1440 0.950 . S
C1469 C1468 1.397 . S
C1469 C1470 1.334 . S
C1470 H1441 0.950 . S
C1470 C1469 1.334 . S
C1470 C1471 1.287 . S
C1471 C1470 1.287 . S
C1471 C1472 1.524 . S
C1471 H1474 0.999 . S
C1472 H1442 0.950 . S
C1472 C1471 1.524 . S
C1472 C1473 1.415 . S
C1473 H1443 0.950 . S
C1473 C1468 1.363 . S
C1473 C1472 1.415 . S
H1474 C1471 0.999 . S
H1475 C1456 0.913 . S
H1476 C1494 0.951 . S
H1477 C1496 0.951 . S
H1478 C1498 0.950 . S
H1479 C1499 0.950 . S
H1480 C1501 0.950 . S
H1481 C1504 0.950 . S
H1482 C1505 0.950 . S
H1483 C1507 0.950 . S
H1484 C1508 0.950 . S
H1485 C1509 0.951 . S
H1486 C1511 0.951 . S
H1487 C1513 0.950 . S
H1488 C1514 0.950 . S
H1489 C1516 0.950 . S
H1490 C1519 0.950 . S
H1491 C1520 0.950 . S
H1492 C1522 0.950 . S
H1493 C1523 0.950 . S
C1494 H1476 0.951 . S
C1494 C1495 1.366 . S
C1494 C1496 1.388 . S
C1495 C1494 1.366 . S
C1495 C1499 1.385 . S
C1496 H1477 0.951 . S
C1496 C1494 1.388 . S
C1496 C1497 1.366 . S
C1497 C1496 1.366 . S
C1497 C1498 1.414 . S
C1497 C1500 1.499 . S
C1498 H1478 0.950 . S
C1498 C1497 1.414 . S
C1498 C1499 1.374 . S
C1499 H1479 0.950 . S
C1499 C1495 1.385 . S
C1499 C1498 1.374 . S
C1500 C1497 1.499 . S
C1500 C1501 1.373 . S
C1500 C1502 1.389 . S
C1501 H1480 0.950 . S
C1501 C1500 1.373 . S
C1501 C1517 1.377 . S
C1502 C1500 1.389 . S
C1502 C1503 1.524 . S
C1502 C1516 1.377 . S
C1503 C1502 1.524 . S
C1503 C1504 1.397 . S
C1503 C1508 1.363 . S
C1504 H1481 0.950 . S
C1504 C1503 1.397 . S
C1504 C1505 1.334 . S
C1505 H1482 0.950 . S
C1505 C1504 1.334 . S
C1505 C1506 1.287 . S
C1506 C1505 1.287 . S
C1506 C1507 1.524 . S
C1506 H1525 0.913 . S
C1507 H1483 0.950 . S
C1507 C1506 1.524 . S
C1507 C1508 1.415 . S
C1508 H1484 0.950 . S
C1508 C1503 1.363 . S
C1508 C1507 1.415 . S
C1509 H1485 0.951 . S
C1509 C1510 1.366 . S
C1509 C1511 1.388 . S
C1510 C1509 1.366 . S
C1510 C1514 1.385 . S
C1511 H1486 0.951 . S
C1511 C1509 1.388 . S
C1511 C1512 1.366 . S
C1512 C1511 1.366 . S
C1512 C1513 1.414 . S
C1512 C1515 1.499 . S
C1513 H1487 0.950 . S
C1513 C1512 1.414 . S
C1513 C1514 1.374 . S
C1514 H1488 0.950 . S
C1514 C1510 1.385 . S
C1514 C1513 1.374 . S
C1515 C1512 1.499 . S
C1515 C1516 1.373 . S
C1515 C1517 1.389 . S
C1516 H1489 0.950 . S
C1516 C1502 1.377 . S
C1516 C1515 1.373 . S
C1517 C1501 1.377 . S
C1517 C1515 1.389 . S
C1517 C1518 1.524 . S
C1518 C1517 1.524 . S
C1518 C1519 1.397 . S
C1518 C1523 1.363 . S
C1519 H1490 0.950 . S
C1519 C1518 1.397 . S
C1519 C1520 1.334 . S
C1520 H1491 0.950 . S
C1520 C1519 1.334 . S
C1520 C1521 1.287 . S
C1521 C1520 1.287 . S
C1521 C1522 1.524 . S
C1521 H1524 0.999 . S
C1522 H1492 0.950 . S
C1522 C1521 1.524 . S
C1522 C1523 1.415 . S
C1523 H1493 0.950 . S
C1523 C1518 1.363 . S
C1523 C1522 1.415 . S
H1524 C1521 0.999 . S
H1525 C1506 0.913 . S
H1526 C1544 0.951 . S
H1527 C1546 0.951 . S
H1528 C1548 0.950 . S
H1529 C1549 0.950 . S
H1530 C1551 0.950 . S
H1531 C1554 0.950 . S
H1532 C1555 0.950 . S
H1533 C1557 0.950 . S
H1534 C1558 0.950 . S
H1535 C1559 0.951 . S
H1536 C1561 0.951 . S
H1537 C1563 0.950 . S
H1538 C1564 0.950 . S
H1539 C1566 0.950 . S
H1540 C1569 0.950 . S
H1541 C1570 0.950 . S
H1542 C1572 0.950 . S
H1543 C1573 0.950 . S
C1544 H1526 0.951 . S
C1544 C1545 1.366 . S
C1544 C1546 1.388 . S
C1545 C1544 1.366 . S
C1545 C1549 1.385 . S
C1546 H1527 0.951 . S
C1546 C1544 1.388 . S
C1546 C1547 1.366 . S
C1547 C1546 1.366 . S
C1547 C1548 1.414 . S
C1547 C1550 1.499 . S
C1548 H1528 0.950 . S
C1548 C1547 1.414 . S
C1548 C1549 1.374 . S
C1549 H1529 0.950 . S
C1549 C1545 1.385 . S
C1549 C1548 1.374 . S
C1550 C1547 1.499 . S
C1550 C1551 1.373 . S
C1550 C1552 1.389 . S
C1551 H1530 0.950 . S
C1551 C1550 1.373 . S
C1551 C1567 1.377 . S
C1552 C1550 1.389 . S
C1552 C1553 1.524 . S
C1552 C1566 1.377 . S
C1553 C1552 1.524 . S
C1553 C1554 1.397 . S
C1553 C1558 1.363 . S
C1554 H1531 0.950 . S
C1554 C1553 1.397 . S
C1554 C1555 1.334 . S
C1555 H1532 0.950 . S
C1555 C1554 1.334 . S
C1555 C1556 1.287 . S
C1556 C1555 1.287 . S
C1556 C1557 1.524 . S
C1556 H1575 0.913 . S
C1557 H1533 0.950 . S
C1557 C1556 1.524 . S
C1557 C1558 1.415 . S
C1558 H1534 0.950 . S
C1558 C1553 1.363 . S
C1558 C1557 1.415 . S
C1559 H1535 0.951 . S
C1559 C1560 1.366 . S
C1559 C1561 1.388 . S
C1560 C1559 1.366 . S
C1560 C1564 1.385 . S
C1561 H1536 0.951 . S
C1561 C1559 1.388 . S
C1561 C1562 1.366 . S
C1562 C1561 1.366 . S
C1562 C1563 1.414 . S
C1562 C1565 1.499 . S
C1563 H1537 0.950 . S
C1563 C1562 1.414 . S
C1563 C1564 1.374 . S
C1564 H1538 0.950 . S
C1564 C1560 1.385 . S
C1564 C1563 1.374 . S
C1565 C1562 1.499 . S
C1565 C1566 1.373 . S
C1565 C1567 1.389 . S
C1566 H1539 0.950 . S
C1566 C1552 1.377 . S
C1566 C1565 1.373 . S
C1567 C1551 1.377 . S
C1567 C1565 1.389 . S
C1567 C1568 1.524 . S
C1568 C1567 1.524 . S
C1568 C1569 1.397 . S
C1568 C1573 1.363 . S
C1569 H1540 0.950 . S
C1569 C1568 1.397 . S
C1569 C1570 1.334 . S
C1570 H1541 0.950 . S
C1570 C1569 1.334 . S
C1570 C1571 1.287 . S
C1571 C1570 1.287 . S
C1571 C1572 1.524 . S
C1571 H1574 0.999 . S
C1572 H1542 0.950 . S
C1572 C1571 1.524 . S
C1572 C1573 1.415 . S
C1573 H1543 0.950 . S
C1573 C1568 1.363 . S
C1573 C1572 1.415 . S
H1574 C1571 0.999 . S
H1575 C1556 0.913 . S
H1576 C1594 0.951 . S
H1577 C1596 0.951 . S
H1578 C1598 0.950 . S
H1579 C1599 0.950 . S
H1580 C1601 0.950 . S
H1581 C1604 0.950 . S
H1582 C1605 0.950 . S
H1583 C1607 0.950 . S
H1584 C1608 0.950 . S
H1585 C1609 0.951 . S
H1586 C1611 0.951 . S
H1587 C1613 0.950 . S
H1588 C1614 0.950 . S
H1589 C1616 0.950 . S
H1590 C1619 0.950 . S
H1591 C1620 0.950 . S
H1592 C1622 0.950 . S
H1593 C1623 0.950 . S
C1594 H1576 0.951 . S
C1594 C1595 1.366 . S
C1594 C1596 1.388 . S
C1595 C1594 1.366 . S
C1595 C1599 1.385 . S
C1596 H1577 0.951 . S
C1596 C1594 1.388 . S
C1596 C1597 1.366 . S
C1597 C1596 1.366 . S
C1597 C1598 1.414 . S
C1597 C1600 1.499 . S
C1598 H1578 0.950 . S
C1598 C1597 1.414 . S
C1598 C1599 1.374 . S
C1599 H1579 0.950 . S
C1599 C1595 1.385 . S
C1599 C1598 1.374 . S
C1600 C1597 1.499 . S
C1600 C1601 1.373 . S
C1600 C1602 1.389 . S
C1601 H1580 0.950 . S
C1601 C1600 1.373 . S
C1601 C1617 1.377 . S
C1602 C1600 1.389 . S
C1602 C1603 1.524 . S
C1602 C1616 1.377 . S
C1603 C1602 1.524 . S
C1603 C1604 1.397 . S
C1603 C1608 1.363 . S
C1604 H1581 0.950 . S
C1604 C1603 1.397 . S
C1604 C1605 1.334 . S
C1605 H1582 0.950 . S
C1605 C1604 1.334 . S
C1605 C1606 1.287 . S
C1606 C1605 1.287 . S
C1606 C1607 1.524 . S
C1606 H1625 0.913 . S
C1607 H1583 0.950 . S
C1607 C1606 1.524 . S
C1607 C1608 1.415 . S
C1608 H1584 0.950 . S
C1608 C1603 1.363 . S
C1608 C1607 1.415 . S
C1609 H1585 0.951 . S
C1609 C1610 1.366 . S
C1609 C1611 1.388 . S
C1610 C1609 1.366 . S
C1610 C1614 1.385 . S
C1611 H1586 0.951 . S
C1611 C1609 1.388 . S
C1611 C1612 1.366 . S
C1612 C1611 1.366 . S
C1612 C1613 1.414 . S
C1612 C1615 1.499 . S
C1613 H1587 0.950 . S
C1613 C1612 1.414 . S
C1613 C1614 1.374 . S
C1614 H1588 0.950 . S
C1614 C1610 1.385 . S
C1614 C1613 1.374 . S
C1615 C1612 1.499 . S
C1615 C1616 1.373 . S
C1615 C1617 1.389 . S
C1616 H1589 0.950 . S
C1616 C1602 1.377 . S
C1616 C1615 1.373 . S
C1617 C1601 1.377 . S
C1617 C1615 1.389 . S
C1617 C1618 1.524 . S
C1618 C1617 1.524 . S
C1618 C1619 1.397 . S
C1618 C1623 1.363 . S
C1619 H1590 0.950 . S
C1619 C1618 1.397 . S
C1619 C1620 1.334 . S
C1620 H1591 0.950 . S
C1620 C1619 1.334 . S
C1620 C1621 1.287 . S
C1621 C1620 1.287 . S
C1621 C1622 1.524 . S
C1621 H1624 0.999 . S
C1622 H1592 0.950 . S
C1622 C1621 1.524 . S
C1622 C1623 1.415 . S
C1623 H1593 0.950 . S
C1623 C1618 1.363 . S
C1623 C1622 1.415 . S
H1624 C1621 0.999 . S
H1625 C1606 0.913 . S
H1626 C1644 0.951 . S
H1627 C1646 0.951 . S
H1628 C1648 0.950 . S
H1629 C1649 0.950 . S
H1630 C1651 0.950 . S
H1631 C1654 0.950 . S
H1632 C1655 0.950 . S
H1633 C1657 0.950 . S
H1634 C1658 0.950 . S
H1635 C1659 0.951 . S
H1636 C1661 0.951 . S
H1637 C1663 0.950 . S
H1638 C1664 0.950 . S
H1639 C1666 0.950 . S
H1640 C1669 0.950 . S
H1641 C1670 0.950 . S
H1642 C1672 0.950 . S
H1643 C1673 0.950 . S
C1644 H1626 0.951 . S
C1644 C1645 1.366 . S
C1644 C1646 1.388 . S
C1645 C1644 1.366 . S
C1645 C1649 1.385 . S
C1646 H1627 0.951 . S
C1646 C1644 1.388 . S
C1646 C1647 1.366 . S
C1647 C1646 1.366 . S
C1647 C1648 1.414 . S
C1647 C1650 1.499 . S
C1648 H1628 0.950 . S
C1648 C1647 1.414 . S
C1648 C1649 1.374 . S
C1649 H1629 0.950 . S
C1649 C1645 1.385 . S
C1649 C1648 1.374 . S
C1650 C1647 1.499 . S
C1650 C1651 1.373 . S
C1650 C1652 1.389 . S
C1651 H1630 0.950 . S
C1651 C1650 1.373 . S
C1651 C1667 1.377 . S
C1652 C1650 1.389 . S
C1652 C1653 1.524 . S
C1652 C1666 1.377 1_556 S
C1653 C1652 1.524 . S
C1653 C1654 1.397 . S
C1653 C1658 1.363 1_556 S
C1654 H1631 0.950 . S
C1654 C1653 1.397 . S
C1654 C1655 1.334 . S
C1655 H1632 0.950 . S
C1655 C1654 1.334 . S
C1655 C1656 1.287 . S
C1656 C1655 1.287 . S
C1656 C1657 1.524 1_556 S
C1656 H1675 0.913 . S
C1657 H1633 0.950 . S
C1657 C1656 1.524 1_554 S
C1657 C1658 1.415 . S
C1658 H1634 0.950 . S
C1658 C1653 1.363 1_554 S
C1658 C1657 1.415 . S
C1659 H1635 0.951 . S
C1659 C1660 1.366 . S
C1659 C1661 1.388 . S
C1660 C1659 1.366 . S
C1660 C1664 1.385 . S
C1661 H1636 0.951 . S
C1661 C1659 1.388 . S
C1661 C1662 1.366 . S
C1662 C1661 1.366 . S
C1662 C1663 1.414 . S
C1662 C1665 1.499 . S
C1663 H1637 0.950 . S
C1663 C1662 1.414 . S
C1663 C1664 1.374 . S
C1664 H1638 0.950 . S
C1664 C1660 1.385 . S
C1664 C1663 1.374 . S
C1665 C1662 1.499 . S
C1665 C1666 1.373 . S
C1665 C1667 1.389 1_554 S
C1666 H1639 0.950 . S
C1666 C1652 1.377 1_554 S
C1666 C1665 1.373 . S
C1667 C1651 1.377 . S
C1667 C1665 1.389 1_556 S
C1667 C1668 1.524 . S
C1668 C1667 1.524 . S
C1668 C1669 1.397 1_556 S
C1668 C1673 1.363 . S
C1669 H1640 0.950 . S
C1669 C1668 1.397 1_554 S
C1669 C1670 1.334 . S
C1670 H1641 0.950 . S
C1670 C1669 1.334 . S
C1670 C1671 1.287 1_554 S
C1671 C1670 1.287 1_556 S
C1671 C1672 1.524 . S
C1671 H1674 0.999 . S
C1672 H1642 0.950 . S
C1672 C1671 1.524 . S
C1672 C1673 1.415 . S
C1673 H1643 0.950 . S
C1673 C1668 1.363 . S
C1673 C1672 1.415 . S
H1674 C1671 0.999 . S
H1675 C1656 0.913 . S
H1676 C1694 0.951 . S
H1677 C1696 0.951 . S
H1678 C1698 0.950 . S
H1679 C1699 0.950 . S
H1680 C1701 0.950 . S
H1681 C1704 0.950 . S
H1682 C1705 0.950 . S
H1683 C1707 0.950 . S
H1684 C1708 0.950 . S
H1685 C1709 0.951 . S
H1686 C1711 0.951 . S
H1687 C1713 0.950 . S
H1688 C1714 0.950 . S
H1689 C1716 0.950 . S
H1690 C1719 0.950 . S
H1691 C1720 0.950 . S
H1692 C1722 0.950 . S
H1693 C1723 0.950 . S
C1694 H1676 0.951 . S
C1694 C1695 1.366 . S
C1694 C1696 1.388 . S
C1695 C1694 1.366 . S
C1695 C1699 1.385 . S
C1696 H1677 0.951 . S
C1696 C1694 1.388 . S
C1696 C1697 1.366 . S
C1697 C1696 1.366 . S
C1697 C1698 1.414 . S
C1697 C1700 1.499 . S
C1698 H1678 0.950 . S
C1698 C1697 1.414 . S
C1698 C1699 1.374 . S
C1699 H1679 0.950 . S
C1699 C1695 1.385 . S
C1699 C1698 1.374 . S
C1700 C1697 1.499 . S
C1700 C1701 1.373 1_554 S
C1700 C1702 1.389 . S
C1701 H1680 0.950 . S
C1701 C1700 1.373 1_556 S
C1701 C1717 1.377 . S
C1702 C1700 1.389 . S
C1702 C1703 1.524 . S
C1702 C1716 1.377 1_554 S
C1703 C1702 1.524 . S
C1703 C1704 1.397 . S
C1703 C1708 1.363 . S
C1704 H1681 0.950 . S
C1704 C1703 1.397 . S
C1704 C1705 1.334 . S
C1705 H1682 0.950 . S
C1705 C1704 1.334 . S
C1705 C1706 1.287 . S
C1706 C1705 1.287 . S
C1706 C1707 1.524 . S
C1706 H1725 0.913 . S
C1707 H1683 0.950 . S
C1707 C1706 1.524 . S
C1707 C1708 1.415 . S
C1708 H1684 0.950 . S
C1708 C1703 1.363 . S
C1708 C1707 1.415 . S
C1709 H1685 0.951 . S
C1709 C1710 1.366 . S
C1709 C1711 1.388 . S
C1710 C1709 1.366 . S
C1710 C1714 1.385 . S
C1711 H1686 0.951 . S
C1711 C1709 1.388 . S
C1711 C1712 1.366 . S
C1712 C1711 1.366 . S
C1712 C1713 1.414 . S
C1712 C1715 1.499 . S
C1713 H1687 0.950 . S
C1713 C1712 1.414 . S
C1713 C1714 1.374 . S
C1714 H1688 0.950 . S
C1714 C1710 1.385 . S
C1714 C1713 1.374 . S
C1715 C1712 1.499 . S
C1715 C1716 1.373 . S
C1715 C1717 1.389 . S
C1716 H1689 0.950 . S
C1716 C1702 1.377 1_556 S
C1716 C1715 1.373 . S
C1717 C1701 1.377 . S
C1717 C1715 1.389 . S
C1717 C1718 1.524 . S
C1718 C1717 1.524 . S
C1718 C1719 1.397 . S
C1718 C1723 1.363 . S
C1719 H1690 0.950 . S
C1719 C1718 1.397 . S
C1719 C1720 1.334 . S
C1720 H1691 0.950 . S
C1720 C1719 1.334 . S
C1720 C1721 1.287 . S
C1721 C1720 1.287 . S
C1721 C1722 1.524 . S
C1721 H1724 0.999 . S
C1722 H1692 0.950 . S
C1722 C1721 1.524 . S
C1722 C1723 1.415 . S
C1723 H1693 0.950 . S
C1723 C1718 1.363 . S
C1723 C1722 1.415 . S
H1724 C1721 0.999 . S
H1725 C1706 0.913 . S
H1726 C1744 0.951 . S
H1727 C1746 0.951 . S
H1728 C1748 0.950 . S
H1729 C1749 0.950 . S
H1730 C1751 0.950 . S
H1731 C1754 0.950 . S
H1732 C1755 0.950 . S
H1733 C1757 0.950 . S
H1734 C1758 0.950 1_554 S
H1735 C1759 0.951 . S
H1736 C1761 0.951 . S
H1737 C1763 0.950 . S
H1738 C1764 0.950 . S
H1739 C1766 0.950 . S
H1740 C1769 0.950 . S
H1741 C1770 0.950 . S
H1742 C1772 0.950 . S
H1743 C1773 0.950 1_556 S
C1744 H1726 0.951 . S
C1744 C1745 1.366 . S
C1744 C1746 1.388 . S
C1745 C1744 1.366 . S
C1745 C1749 1.385 . S
C1746 H1727 0.951 . S
C1746 C1744 1.388 . S
C1746 C1747 1.366 . S
C1747 C1746 1.366 . S
C1747 C1748 1.414 . S
C1747 C1750 1.499 . S
C1748 H1728 0.950 . S
C1748 C1747 1.414 . S
C1748 C1749 1.374 . S
C1749 H1729 0.950 . S
C1749 C1745 1.385 . S
C1749 C1748 1.374 . S
C1750 C1747 1.499 . S
C1750 C1751 1.373 . S
C1750 C1752 1.389 . S
C1751 H1730 0.950 . S
C1751 C1750 1.373 . S
C1751 C1767 1.377 1_556 S
C1752 C1750 1.389 . S
C1752 C1753 1.524 . S
C1752 C1766 1.377 1_556 S
C1753 C1752 1.524 . S
C1753 C1754 1.397 . S
C1753 C1758 1.363 . S
C1754 H1731 0.950 . S
C1754 C1753 1.397 . S
C1754 C1755 1.334 . S
C1755 H1732 0.950 . S
C1755 C1754 1.334 . S
C1755 C1756 1.287 . S
C1756 C1755 1.287 . S
C1756 C1757 1.524 . S
C1756 H1775 0.913 . S
C1757 H1733 0.950 . S
C1757 C1756 1.524 . S
C1757 C1758 1.415 . S
C1758 H1734 0.950 1_556 S
C1758 C1753 1.363 . S
C1758 C1757 1.415 . S
C1759 H1735 0.951 . S
C1759 C1760 1.366 . S
C1759 C1761 1.388 . S
C1760 C1759 1.366 . S
C1760 C1764 1.385 . S
C1761 H1736 0.951 . S
C1761 C1759 1.388 . S
C1761 C1762 1.366 . S
C1762 C1761 1.366 . S
C1762 C1763 1.414 . S
C1762 C1765 1.499 . S
C1763 H1737 0.950 . S
C1763 C1762 1.414 . S
C1763 C1764 1.374 . S
C1764 H1738 0.950 . S
C1764 C1760 1.385 . S
C1764 C1763 1.374 . S
C1765 C1762 1.499 . S
C1765 C1766 1.373 . S
C1765 C1767 1.389 . S
C1766 H1739 0.950 . S
C1766 C1752 1.377 1_554 S
C1766 C1765 1.373 . S
C1767 C1751 1.377 1_554 S
C1767 C1765 1.389 . S
C1767 C1768 1.524 . S
C1768 C1767 1.524 . S
C1768 C1769 1.397 . S
C1768 C1773 1.363 . S
C1769 H1740 0.950 . S
C1769 C1768 1.397 . S
C1769 C1770 1.334 . S
C1770 H1741 0.950 . S
C1770 C1769 1.334 . S
C1770 C1771 1.287 . S
C1771 C1770 1.287 . S
C1771 C1772 1.524 . S
C1771 H1774 0.999 . S
C1772 H1742 0.950 . S
C1772 C1771 1.524 . S
C1772 C1773 1.415 . S
C1773 H1743 0.950 1_554 S
C1773 C1768 1.363 . S
C1773 C1772 1.415 . S
H1774 C1771 0.999 . S
H1775 C1756 0.913 . S
H1776 C1794 0.951 . S
H1777 C1796 0.951 . S
H1778 C1798 0.950 . S
H1779 C1799 0.950 . S
H1780 C1801 0.950 . S
H1781 C1804 0.950 . S
H1782 C1805 0.950 . S
H1783 C1807 0.950 . S
H1784 C1808 0.950 . S
H1785 C1809 0.951 . S
H1786 C1811 0.951 . S
H1787 C1813 0.950 . S
H1788 C1814 0.950 . S
H1789 C1816 0.950 . S
H1790 C1819 0.950 . S
H1791 C1820 0.950 1_545 S
H1792 C1822 0.950 . S
H1793 C1823 0.950 . S
C1794 H1776 0.951 . S
C1794 C1795 1.366 . S
C1794 C1796 1.388 . S
C1795 C1794 1.366 . S
C1795 C1799 1.385 . S
C1796 H1777 0.951 . S
C1796 C1794 1.388 . S
C1796 C1797 1.366 . S
C1797 C1796 1.366 . S
C1797 C1798 1.414 . S
C1797 C1800 1.499 . S
C1798 H1778 0.950 . S
C1798 C1797 1.414 . S
C1798 C1799 1.374 . S
C1799 H1779 0.950 . S
C1799 C1795 1.385 . S
C1799 C1798 1.374 . S
C1800 C1797 1.499 . S
C1800 C1801 1.373 . S
C1800 C1802 1.389 . S
C1801 H1780 0.950 . S
C1801 C1800 1.373 . S
C1801 C1817 1.377 . S
C1802 C1800 1.389 . S
C1802 C1803 1.524 . S
C1802 C1816 1.377 . S
C1803 C1802 1.524 . S
C1803 C1804 1.397 . S
C1803 C1808 1.363 . S
C1804 H1781 0.950 . S
C1804 C1803 1.397 . S
C1804 C1805 1.334 . S
C1805 H1782 0.950 . S
C1805 C1804 1.334 . S
C1805 C1806 1.287 . S
C1806 C1805 1.287 . S
C1806 C1807 1.524 . S
C1806 H1825 0.913 . S
C1807 H1783 0.950 . S
C1807 C1806 1.524 . S
C1807 C1808 1.415 . S
C1808 H1784 0.950 . S
C1808 C1803 1.363 . S
C1808 C1807 1.415 . S
C1809 H1785 0.951 . S
C1809 C1810 1.366 . S
C1809 C1811 1.388 . S
C1810 C1809 1.366 . S
C1810 C1814 1.385 . S
C1811 H1786 0.951 . S
C1811 C1809 1.388 . S
C1811 C1812 1.366 . S
C1812 C1811 1.366 . S
C1812 C1813 1.414 . S
C1812 C1815 1.499 . S
C1813 H1787 0.950 . S
C1813 C1812 1.414 . S
C1813 C1814 1.374 . S
C1814 H1788 0.950 . S
C1814 C1810 1.385 . S
C1814 C1813 1.374 . S
C1815 C1812 1.499 . S
C1815 C1816 1.373 . S
C1815 C1817 1.389 . S
C1816 H1789 0.950 . S
C1816 C1802 1.377 . S
C1816 C1815 1.373 . S
C1817 C1801 1.377 . S
C1817 C1815 1.389 . S
C1817 C1818 1.524 . S
C1818 C1817 1.524 . S
C1818 C1819 1.397 . S
C1818 C1823 1.363 . S
C1819 H1790 0.950 . S
C1819 C1818 1.397 . S
C1819 C1820 1.334 . S
C1820 H1791 0.950 1_565 S
C1820 C1819 1.334 . S
C1820 C1821 1.287 . S
C1821 C1820 1.287 . S
C1821 C1822 1.524 . S
C1821 H1824 0.999 . S
C1822 H1792 0.950 . S
C1822 C1821 1.524 . S
C1822 C1823 1.415 . S
C1823 H1793 0.950 . S
C1823 C1818 1.363 . S
C1823 C1822 1.415 . S
H1824 C1821 0.999 . S
H1825 C1806 0.913 . S
H1826 C1844 0.951 . S
H1827 C1846 0.951 . S
H1828 C1848 0.950 . S
H1829 C1849 0.950 . S
H1830 C1851 0.950 . S
H1831 C1854 0.950 . S
H1832 C1855 0.898 1_655 S
H1833 C1857 0.950 . S
H1834 C1858 0.950 . S
H1835 C1859 0.951 . S
H1836 C1861 0.951 . S
H1837 C1863 0.950 . S
H1838 C1864 0.950 . S
H1839 C1866 0.950 . S
H1840 C1869 0.950 . S
H1841 C1870 0.950 . S
H1842 C1872 0.950 . S
H1843 C1873 0.950 . S
C1844 H1826 0.951 . S
C1844 C1845 1.366 . S
C1844 C1846 1.388 . S
C1845 C1844 1.366 . S
C1845 C1849 1.385 . S
C1846 H1827 0.951 . S
C1846 C1844 1.388 . S
C1846 C1847 1.366 . S
C1847 C1846 1.366 . S
C1847 C1848 1.414 . S
C1847 C1850 1.499 . S
C1848 H1828 0.950 . S
C1848 C1847 1.414 . S
C1848 C1849 1.374 . S
C1849 H1829 0.950 . S
C1849 C1845 1.385 . S
C1849 C1848 1.374 . S
C1850 C1847 1.499 . S
C1850 C1851 1.373 . S
C1850 C1852 1.389 . S
C1851 H1830 0.950 . S
C1851 C1850 1.373 . S
C1851 C1867 1.377 . S
C1852 C1850 1.389 . S
C1852 C1853 1.524 . S
C1852 C1866 1.377 . S
C1853 C1852 1.524 . S
C1853 C1854 1.397 . S
C1853 C1858 1.363 . S
C1854 H1831 0.950 . S
C1854 C1853 1.397 . S
C1854 C1855 1.334 . S
C1855 H1832 0.898 1_455 S
C1855 C1854 1.334 . S
C1855 C1856 1.287 . S
C1856 C1855 1.287 . S
C1856 C1857 1.524 . S
C1856 H1875 0.913 1_455 S
C1857 H1833 0.950 . S
C1857 C1856 1.524 . S
C1857 C1858 1.415 . S
C1858 H1834 0.950 . S
C1858 C1853 1.363 . S
C1858 C1857 1.415 . S
C1859 H1835 0.951 . S
C1859 C1860 1.366 . S
C1859 C1861 1.388 . S
C1860 C1859 1.366 . S
C1860 C1864 1.385 . S
C1861 H1836 0.951 . S
C1861 C1859 1.388 . S
C1861 C1862 1.366 . S
C1862 C1861 1.366 . S
C1862 C1863 1.414 . S
C1862 C1865 1.499 . S
C1863 H1837 0.950 . S
C1863 C1862 1.414 . S
C1863 C1864 1.374 . S
C1864 H1838 0.950 . S
C1864 C1860 1.385 . S
C1864 C1863 1.374 . S
C1865 C1862 1.499 . S
C1865 C1866 1.373 . S
C1865 C1867 1.389 . S
C1866 H1839 0.950 . S
C1866 C1852 1.377 . S
C1866 C1865 1.373 . S
C1867 C1851 1.377 . S
C1867 C1865 1.389 . S
C1867 C1868 1.524 . S
C1868 C1867 1.524 . S
C1868 C1869 1.397 . S
C1868 C1873 1.363 . S
C1869 H1840 0.950 . S
C1869 C1868 1.397 . S
C1869 C1870 1.334 . S
C1870 H1841 0.950 . S
C1870 C1869 1.334 . S
C1870 C1871 1.287 . S
C1871 C1870 1.287 . S
C1871 C1872 1.524 . S
C1871 H1874 0.999 . S
C1872 H1842 0.950 . S
C1872 C1871 1.524 . S
C1872 C1873 1.415 . S
C1873 H1843 0.950 . S
C1873 C1868 1.363 . S
C1873 C1872 1.415 . S
H1874 C1871 0.999 . S
H1875 C1856 0.913 1_655 S
H1876 C1894 0.951 . S
H1877 C1896 0.951 . S
H1878 C1898 0.950 . S
H1879 C1899 0.950 . S
H1880 C1901 0.950 . S
H1881 C1904 0.950 . S
H1882 C1905 0.950 . S
H1883 C1907 0.950 . S
H1884 C1908 0.950 . S
H1885 C1909 0.951 . S
H1886 C1911 0.951 . S
H1887 C1913 0.950 . S
H1888 C1914 0.950 . S
H1889 C1916 0.950 . S
H1890 C1919 0.950 . S
H1891 C1920 0.950 . S
H1892 C1922 0.950 . S
H1893 C1923 0.950 . S
C1894 H1876 0.951 . S
C1894 C1895 1.366 . S
C1894 C1896 1.388 . S
C1895 C1894 1.366 . S
C1895 C1899 1.385 . S
C1896 H1877 0.951 . S
C1896 C1894 1.388 . S
C1896 C1897 1.366 . S
C1897 C1896 1.366 . S
C1897 C1898 1.414 . S
C1897 C1900 1.499 . S
C1898 H1878 0.950 . S
C1898 C1897 1.414 . S
C1898 C1899 1.374 . S
C1899 H1879 0.950 . S
C1899 C1895 1.385 . S
C1899 C1898 1.374 . S
C1900 C1897 1.499 . S
C1900 C1901 1.373 . S
C1900 C1902 1.389 . S
C1901 H1880 0.950 . S
C1901 C1900 1.373 . S
C1901 C1917 1.377 . S
C1902 C1900 1.389 . S
C1902 C1903 1.524 . S
C1902 C1916 1.377 . S
C1903 C1902 1.524 . S
C1903 C1904 1.397 . S
C1903 C1908 1.363 . S
C1904 H1881 0.950 . S
C1904 C1903 1.397 . S
C1904 C1905 1.334 . S
C1905 H1882 0.950 . S
C1905 C1904 1.334 . S
C1905 C1906 1.287 . S
C1906 C1905 1.287 . S
C1906 C1907 1.524 . S
C1906 H1925 0.913 . S
C1907 H1883 0.950 . S
C1907 C1906 1.524 . S
C1907 C1908 1.415 . S
C1908 H1884 0.950 . S
C1908 C1903 1.363 . S
C1908 C1907 1.415 . S
C1909 H1885 0.951 . S
C1909 C1910 1.366 . S
C1909 C1911 1.388 . S
C1910 C1909 1.366 . S
C1910 C1914 1.385 . S
C1911 H1886 0.951 . S
C1911 C1909 1.388 . S
C1911 C1912 1.366 . S
C1912 C1911 1.366 . S
C1912 C1913 1.414 . S
C1912 C1915 1.499 . S
C1913 H1887 0.950 . S
C1913 C1912 1.414 . S
C1913 C1914 1.374 . S
C1914 H1888 0.950 . S
C1914 C1910 1.385 . S
C1914 C1913 1.374 . S
C1915 C1912 1.499 . S
C1915 C1916 1.373 . S
C1915 C1917 1.389 . S
C1916 H1889 0.950 . S
C1916 C1902 1.377 . S
C1916 C1915 1.373 . S
C1917 C1901 1.377 . S
C1917 C1915 1.389 . S
C1917 C1918 1.524 . S
C1918 C1917 1.524 . S
C1918 C1919 1.397 . S
C1918 C1923 1.363 . S
C1919 H1890 0.950 . S
C1919 C1918 1.397 . S
C1919 C1920 1.334 . S
C1920 H1891 0.950 . S
C1920 C1919 1.334 . S
C1920 C1921 1.287 . S
C1921 C1920 1.287 . S
C1921 C1922 1.524 . S
C1921 H1924 0.999 . S
C1922 H1892 0.950 . S
C1922 C1921 1.524 . S
C1922 C1923 1.415 . S
C1923 H1893 0.950 . S
C1923 C1918 1.363 . S
C1923 C1922 1.415 . S
H1924 C1921 0.999 . S
H1925 C1906 0.913 . S
H1926 C1944 0.951 . S
H1927 C1946 0.951 . S
H1928 C1948 0.950 . S
H1929 C1949 0.950 . S
H1930 C1951 0.950 . S
H1931 C1954 0.950 . S
H1932 C1955 0.950 . S
H1933 C1957 0.950 . S
H1934 C1958 0.950 . S
H1935 C1959 0.951 . S
H1936 C1961 0.951 . S
H1937 C1963 0.950 . S
H1938 C1964 0.950 . S
H1939 C1966 0.950 . S
H1940 C1969 0.950 . S
H1941 C1970 0.950 . S
H1942 C1972 0.950 . S
H1943 C1973 0.950 . S
C1944 H1926 0.951 . S
C1944 C1945 1.366 . S
C1944 C1946 1.388 . S
C1945 C1944 1.366 . S
C1945 C1949 1.385 . S
C1946 H1927 0.951 . S
C1946 C1944 1.388 . S
C1946 C1947 1.366 . S
C1947 C1946 1.366 . S
C1947 C1948 1.414 . S
C1947 C1950 1.499 . S
C1948 H1928 0.950 . S
C1948 C1947 1.414 . S
C1948 C1949 1.374 . S
C1949 H1929 0.950 . S
C1949 C1945 1.385 . S
C1949 C1948 1.374 . S
C1950 C1947 1.499 . S
C1950 C1951 1.373 . S
C1950 C1952 1.389 . S
C1951 H1930 0.950 . S
C1951 C1950 1.373 . S
C1951 C1967 1.377 1_554 S
C1952 C1950 1.389 . S
C1952 C1953 1.524 . S
C1952 C1966 1.377 1_554 S
C1953 C1952 1.524 . S
C1953 C1954 1.397 . S
C1953 C1958 1.363 . S
C1954 H1931 0.950 . S
C1954 C1953 1.397 . S
C1954 C1955 1.334 . S
C1955 H1932 0.950 . S
C1955 C1954 1.334 . S
C1955 C1956 1.287 . S
C1956 C1955 1.287 . S
C1956 C1957 1.524 . S
C1956 H1975 0.913 . S
C1957 H1933 0.950 . S
C1957 C1956 1.524 . S
C1957 C1958 1.415 . S
C1958 H1934 0.950 . S
C1958 C1953 1.363 . S
C1958 C1957 1.415 . S
C1959 H1935 0.951 . S
C1959 C1960 1.366 . S
C1959 C1961 1.388 . S
C1960 C1959 1.366 . S
C1960 C1964 1.385 . S
C1961 H1936 0.951 . S
C1961 C1959 1.388 . S
C1961 C1962 1.366 . S
C1962 C1961 1.366 . S
C1962 C1963 1.414 . S
C1962 C1965 1.499 . S
C1963 H1937 0.950 . S
C1963 C1962 1.414 . S
C1963 C1964 1.374 . S
C1964 H1938 0.950 . S
C1964 C1960 1.385 . S
C1964 C1963 1.374 . S
C1965 C1962 1.499 . S
C1965 C1966 1.373 . S
C1965 C1967 1.389 . S
C1966 H1939 0.950 . S
C1966 C1952 1.377 1_556 S
C1966 C1965 1.373 . S
C1967 C1951 1.377 1_556 S
C1967 C1965 1.389 . S
C1967 C1968 1.524 . S
C1968 C1967 1.524 . S
C1968 C1969 1.397 . S
C1968 C1973 1.363 . S
C1969 H1940 0.950 . S
C1969 C1968 1.397 . S
C1969 C1970 1.334 . S
C1970 H1941 0.950 . S
C1970 C1969 1.334 . S
C1970 C1971 1.287 . S
C1971 C1970 1.287 . S
C1971 C1972 1.524 . S
C1971 H1974 0.999 . S
C1972 H1942 0.950 . S
C1972 C1971 1.524 . S
C1972 C1973 1.415 . S
C1973 H1943 0.950 . S
C1973 C1968 1.363 . S
C1973 C1972 1.415 . S
H1974 C1971 0.999 . S
H1975 C1956 0.913 . S
H1976 C1994 0.951 . S
H1977 C1996 0.951 . S
H1978 C1998 0.950 . S
H1979 C1999 0.950 . S
H1980 C2001 0.950 . S
H1981 C2004 0.950 . S
H1982 C2005 0.950 . S
H1983 C2007 0.950 . S
H1984 C2008 0.950 1_556 S
H1985 C2009 0.951 . S
H1986 C2011 0.951 . S
H1987 C2013 0.950 . S
H1988 C2014 0.950 . S
H1989 C2016 0.950 . S
H1990 C2019 0.950 . S
H1991 C2020 0.950 . S
H1992 C2022 0.950 . S
H1993 C2023 0.950 1_554 S
C1994 H1976 0.951 . S
C1994 C1995 1.366 . S
C1994 C1996 1.388 . S
C1995 C1994 1.366 . S
C1995 C1999 1.385 . S
C1996 H1977 0.951 . S
C1996 C1994 1.388 . S
C1996 C1997 1.366 . S
C1997 C1996 1.366 . S
C1997 C1998 1.414 . S
C1997 C2000 1.499 . S
C1998 H1978 0.950 . S
C1998 C1997 1.414 . S
C1998 C1999 1.374 . S
C1999 H1979 0.950 . S
C1999 C1995 1.385 . S
C1999 C1998 1.374 . S
C2000 C1997 1.499 . S
C2000 C2001 1.373 . S
C2000 C2002 1.389 . S
C2001 H1980 0.950 . S
C2001 C2000 1.373 . S
C2001 C2017 1.377 1_554 S
C2002 C2000 1.389 . S
C2002 C2003 1.524 . S
C2002 C2016 1.377 1_554 S
C2003 C2002 1.524 . S
C2003 C2004 1.397 . S
C2003 C2008 1.363 . S
C2004 H1981 0.950 . S
C2004 C2003 1.397 . S
C2004 C2005 1.334 . S
C2005 H1982 0.950 . S
C2005 C2004 1.334 . S
C2005 C2006 1.287 . S
C2006 C2005 1.287 . S
C2006 C2007 1.524 . S
C2006 H2025 0.913 . S
C2007 H1983 0.950 . S
C2007 C2006 1.524 . S
C2007 C2008 1.415 . S
C2008 H1984 0.950 1_554 S
C2008 C2003 1.363 . S
C2008 C2007 1.415 . S
C2009 H1985 0.951 . S
C2009 C2010 1.366 . S
C2009 C2011 1.388 . S
C2010 C2009 1.366 . S
C2010 C2014 1.385 . S
C2011 H1986 0.951 . S
C2011 C2009 1.388 . S
C2011 C2012 1.366 . S
C2012 C2011 1.366 . S
C2012 C2013 1.414 . S
C2012 C2015 1.499 . S
C2013 H1987 0.950 . S
C2013 C2012 1.414 . S
C2013 C2014 1.374 . S
C2014 H1988 0.950 . S
C2014 C2010 1.385 . S
C2014 C2013 1.374 . S
C2015 C2012 1.499 . S
C2015 C2016 1.373 . S
C2015 C2017 1.389 . S
C2016 H1989 0.950 . S
C2016 C2002 1.377 1_556 S
C2016 C2015 1.373 . S
C2017 C2001 1.377 1_556 S
C2017 C2015 1.389 . S
C2017 C2018 1.524 . S
C2018 C2017 1.524 . S
C2018 C2019 1.397 . S
C2018 C2023 1.363 . S
C2019 H1990 0.950 . S
C2019 C2018 1.397 . S
C2019 C2020 1.334 . S
C2020 H1991 0.950 . S
C2020 C2019 1.334 . S
C2020 C2021 1.287 . S
C2021 C2020 1.287 . S
C2021 C2022 1.524 . S
C2021 H2024 0.999 . S
C2022 H1992 0.950 . S
C2022 C2021 1.524 . S
C2022 C2023 1.415 . S
C2023 H1993 0.950 1_556 S
C2023 C2018 1.363 . S
C2023 C2022 1.415 . S
H2024 C2021 0.999 . S
H2025 C2006 0.913 . S
H2026 C2044 0.951 . S
H2027 C2046 0.951 . S
H2028 C2048 0.950 . S
H2029 C2049 0.950 . S
H2030 C2051 0.950 . S
H2031 C2054 0.950 . S
H2032 C2055 0.950 . S
H2033 C2057 0.950 . S
H2034 C2058 0.950 . S
H2035 C2059 0.951 . S
H2036 C2061 0.951 . S
H2037 C2063 0.950 . S
H2038 C2064 0.950 . S
H2039 C2066 0.950 . S
H2040 C2069 0.950 . S
H2041 C2070 0.950 . S
H2042 C2072 0.950 . S
H2043 C2073 0.950 . S
C2044 H2026 0.951 . S
C2044 C2045 1.366 . S
C2044 C2046 1.388 . S
C2045 C2044 1.366 . S
C2045 C2049 1.385 . S
C2046 H2027 0.951 . S
C2046 C2044 1.388 . S
C2046 C2047 1.366 . S
C2047 C2046 1.366 . S
C2047 C2048 1.414 . S
C2047 C2050 1.499 . S
C2048 H2028 0.950 . S
C2048 C2047 1.414 . S
C2048 C2049 1.374 . S
C2049 H2029 0.950 . S
C2049 C2045 1.385 . S
C2049 C2048 1.374 . S
C2050 C2047 1.499 . S
C2050 C2051 1.373 . S
C2050 C2052 1.371 1_556 S
C2051 H2030 0.950 . S
C2051 C2050 1.373 . S
C2051 C2067 1.377 1_556 S
C2052 C2050 1.371 1_554 S
C2052 C2053 1.523 1_554 S
C2052 C2066 1.397 . S
C2053 C2052 1.523 1_556 S
C2053 C2054 1.397 . S
C2053 C2058 1.363 1_556 S
C2054 H2031 0.950 . S
C2054 C2053 1.397 . S
C2054 C2055 1.334 . S
C2055 H2032 0.950 . S
C2055 C2054 1.334 . S
C2055 C2056 1.287 . S
C2056 C2055 1.287 . S
C2056 C2057 1.524 1_556 S
C2056 H2075 0.913 1_655 S
C2057 H2033 0.950 . S
C2057 C2056 1.524 1_554 S
C2057 C2058 1.415 . S
C2058 H2034 0.950 . S
C2058 C2053 1.363 1_554 S
C2058 C2057 1.415 . S
C2059 H2035 0.951 . S
C2059 C2060 1.366 . S
C2059 C2061 1.388 . S
C2060 C2059 1.366 . S
C2060 C2064 1.385 . S
C2061 H2036 0.951 . S
C2061 C2059 1.388 . S
C2061 C2062 1.366 . S
C2062 C2061 1.366 . S
C2062 C2063 1.414 . S
C2062 C2065 1.499 . S
C2063 H2037 0.950 . S
C2063 C2062 1.414 . S
C2063 C2064 1.374 . S
C2064 H2038 0.950 . S
C2064 C2060 1.385 . S
C2064 C2063 1.374 . S
C2065 C2062 1.499 . S
C2065 C2066 1.373 . S
C2065 C2067 1.389 . S
C2066 H2039 0.950 . S
C2066 C2052 1.397 . S
C2066 C2065 1.373 . S
C2067 C2051 1.377 1_554 S
C2067 C2065 1.389 . S
C2067 C2068 1.524 . S
C2068 C2067 1.524 . S
C2068 C2069 1.397 . S
C2068 C2073 1.363 1_554 S
C2069 H2040 0.950 . S
C2069 C2068 1.397 . S
C2069 C2070 1.334 . S
C2070 H2041 0.950 . S
C2070 C2069 1.334 . S
C2070 C2071 1.287 . S
C2071 C2070 1.287 . S
C2071 C2072 1.524 1_554 S
C2071 H2074 0.999 . S
C2072 H2042 0.950 . S
C2072 C2071 1.524 1_556 S
C2072 C2073 1.415 . S
C2073 H2043 0.950 . S
C2073 C2068 1.363 1_556 S
C2073 C2072 1.415 . S
H2074 C2071 0.999 . S
H2075 C2056 0.913 1_455 S
H2076 C2094 0.951 . S
H2077 C2096 0.951 . S
H2078 C2098 0.950 . S
H2079 C2099 0.950 . S
H2080 C2101 0.950 . S
H2081 C2104 0.950 . S
H2082 C2105 0.950 . S
H2083 C2107 0.950 . S
H2084 C2108 0.950 . S
H2085 C2109 0.951 . S
H2086 C2111 0.951 . S
H2087 C2113 0.950 . S
H2088 C2114 0.950 . S
H2089 C2116 0.950 . S
H2090 C2119 0.950 . S
H2091 C2120 0.950 . S
H2092 C2122 0.950 . S
H2093 C2123 0.950 . S
C2094 H2076 0.951 . S
C2094 C2095 1.366 . S
C2094 C2096 1.388 . S
C2095 C2094 1.366 . S
C2095 C2099 1.385 . S
C2096 H2077 0.951 . S
C2096 C2094 1.388 . S
C2096 C2097 1.366 . S
C2097 C2096 1.366 . S
C2097 C2098 1.414 . S
C2097 C2100 1.499 . S
C2098 H2078 0.950 . S
C2098 C2097 1.414 . S
C2098 C2099 1.374 . S
C2099 H2079 0.950 . S
C2099 C2095 1.385 . S
C2099 C2098 1.374 . S
C2100 C2097 1.499 . S
C2100 C2101 1.373 . S
C2100 C2102 1.389 . S
C2101 H2080 0.950 . S
C2101 C2100 1.373 . S
C2101 C2117 1.377 . S
C2102 C2100 1.389 . S
C2102 C2103 1.524 . S
C2102 C2116 1.377 . S
C2103 C2102 1.524 . S
C2103 C2104 1.397 . S
C2103 C2108 1.363 . S
C2104 H2081 0.950 . S
C2104 C2103 1.397 . S
C2104 C2105 1.334 . S
C2105 H2082 0.950 . S
C2105 C2104 1.334 . S
C2105 C2106 1.287 . S
C2106 C2105 1.287 . S
C2106 C2107 1.524 . S
C2106 H2125 0.913 1_556 S
C2107 H2083 0.950 . S
C2107 C2106 1.524 . S
C2107 C2108 1.415 . S
C2108 H2084 0.950 . S
C2108 C2103 1.363 . S
C2108 C2107 1.415 . S
C2109 H2085 0.951 . S
C2109 C2110 1.366 . S
C2109 C2111 1.388 . S
C2110 C2109 1.366 . S
C2110 C2114 1.385 . S
C2111 H2086 0.951 . S
C2111 C2109 1.388 . S
C2111 C2112 1.366 . S
C2112 C2111 1.366 . S
C2112 C2113 1.414 . S
C2112 C2115 1.499 . S
C2113 H2087 0.950 . S
C2113 C2112 1.414 . S
C2113 C2114 1.374 . S
C2114 H2088 0.950 . S
C2114 C2110 1.385 . S
C2114 C2113 1.374 . S
C2115 C2112 1.499 . S
C2115 C2116 1.373 . S
C2115 C2117 1.389 . S
C2116 H2089 0.950 . S
C2116 C2102 1.377 . S
C2116 C2115 1.373 . S
C2117 C2101 1.377 . S
C2117 C2115 1.389 . S
C2117 C2118 1.524 . S
C2118 C2117 1.524 . S
C2118 C2119 1.397 . S
C2118 C2123 1.363 . S
C2119 H2090 0.950 . S
C2119 C2118 1.397 . S
C2119 C2120 1.334 . S
C2120 H2091 0.950 . S
C2120 C2119 1.334 . S
C2120 C2121 1.287 . S
C2121 C2120 1.287 . S
C2121 C2122 1.524 . S
C2121 H2124 0.999 . S
C2122 H2092 0.950 . S
C2122 C2121 1.524 . S
C2122 C2123 1.415 . S
C2123 H2093 0.950 . S
C2123 C2118 1.363 . S
C2123 C2122 1.415 . S
H2124 C2121 0.999 . S
H2125 C2106 0.913 1_554 S
H2126 C2144 0.951 . S
H2127 C2146 0.951 . S
H2128 C2148 0.950 . S
H2129 C2149 0.950 . S
H2130 C2151 0.950 . S
H2131 C2154 0.950 . S
H2132 C2155 0.950 . S
H2133 C2157 0.950 . S
H2134 C2158 0.950 . S
H2135 C2159 0.951 . S
H2136 C2161 0.951 . S
H2137 C2163 0.950 . S
H2138 C2164 0.950 . S
H2139 C2166 0.950 . S
H2140 C2169 0.950 . S
H2141 C2170 0.950 . S
H2142 C2172 0.950 . S
H2143 C2173 0.950 . S
C2144 H2126 0.951 . S
C2144 C2145 1.366 . S
C2144 C2146 1.388 . S
C2145 C2144 1.366 . S
C2145 C2149 1.385 . S
C2146 H2127 0.951 . S
C2146 C2144 1.388 . S
C2146 C2147 1.366 . S
C2147 C2146 1.366 . S
C2147 C2148 1.414 . S
C2147 C2150 1.499 . S
C2148 H2128 0.950 . S
C2148 C2147 1.414 . S
C2148 C2149 1.374 . S
C2149 H2129 0.950 . S
C2149 C2145 1.385 . S
C2149 C2148 1.374 . S
C2150 C2147 1.499 . S
C2150 C2151 1.373 . S
C2150 C2152 1.389 . S
C2151 H2130 0.950 . S
C2151 C2150 1.373 . S
C2151 C2167 1.377 . S
C2152 C2150 1.389 . S
C2152 C2153 1.524 . S
C2152 C2166 1.377 . S
C2153 C2152 1.524 . S
C2153 C2154 1.397 . S
C2153 C2158 1.363 . S
C2154 H2131 0.950 . S
C2154 C2153 1.397 . S
C2154 C2155 1.334 . S
C2155 H2132 0.950 . S
C2155 C2154 1.334 . S
C2155 C2156 1.287 . S
C2156 C2155 1.287 . S
C2156 C2157 1.524 . S
C2156 H2175 0.913 . S
C2157 H2133 0.950 . S
C2157 C2156 1.524 . S
C2157 C2158 1.415 . S
C2158 H2134 0.950 . S
C2158 C2153 1.363 . S
C2158 C2157 1.415 . S
C2159 H2135 0.951 . S
C2159 C2160 1.366 . S
C2159 C2161 1.388 . S
C2160 C2159 1.366 . S
C2160 C2164 1.385 . S
C2161 H2136 0.951 . S
C2161 C2159 1.388 . S
C2161 C2162 1.366 . S
C2162 C2161 1.366 . S
C2162 C2163 1.414 . S
C2162 C2165 1.499 . S
C2163 H2137 0.950 . S
C2163 C2162 1.414 . S
C2163 C2164 1.374 . S
C2164 H2138 0.950 . S
C2164 C2160 1.385 . S
C2164 C2163 1.374 . S
C2165 C2162 1.499 . S
C2165 C2166 1.373 . S
C2165 C2167 1.389 . S
C2166 H2139 0.950 . S
C2166 C2152 1.377 . S
C2166 C2165 1.373 . S
C2167 C2151 1.377 . S
C2167 C2165 1.389 . S
C2167 C2168 1.524 . S
C2168 C2167 1.524 . S
C2168 C2169 1.397 . S
C2168 C2173 1.363 . S
C2169 H2140 0.950 . S
C2169 C2168 1.397 . S
C2169 C2170 1.334 . S
C2170 H2141 0.950 . S
C2170 C2169 1.334 . S
C2170 C2171 1.287 . S
C2171 C2170 1.287 . S
C2171 C2172 1.524 . S
C2171 H2174 0.999 . S
C2172 H2142 0.950 . S
C2172 C2171 1.524 . S
C2172 C2173 1.415 . S
C2173 H2143 0.950 . S
C2173 C2168 1.363 . S
C2173 C2172 1.415 . S
H2174 C2171 0.999 . S
H2175 C2156 0.913 . S
H2176 C2194 0.951 . S
H2177 C2196 0.951 . S
H2178 C2198 0.950 . S
H2179 C2199 0.950 . S
H2180 C2201 0.950 . S
H2181 C2204 0.950 . S
H2182 C2205 0.950 . S
H2183 C2207 0.950 . S
H2184 C2208 0.950 . S
H2185 C2209 0.951 . S
H2186 C2211 0.951 . S
H2187 C2213 0.950 . S
H2188 C2214 0.950 . S
H2189 C2216 0.950 . S
H2190 C2219 0.950 . S
H2191 C2220 0.950 . S
H2192 C2222 0.950 . S
H2193 C2223 0.950 . S
C2194 H2176 0.951 . S
C2194 C2195 1.366 . S
C2194 C2196 1.388 . S
C2195 C2194 1.366 . S
C2195 C2199 1.385 . S
C2196 H2177 0.951 . S
C2196 C2194 1.388 . S
C2196 C2197 1.366 . S
C2197 C2196 1.366 . S
C2197 C2198 1.414 . S
C2197 C2200 1.499 . S
C2198 H2178 0.950 . S
C2198 C2197 1.414 . S
C2198 C2199 1.374 . S
C2199 H2179 0.950 . S
C2199 C2195 1.385 . S
C2199 C2198 1.374 . S
C2200 C2197 1.499 . S
C2200 C2201 1.373 . S
C2200 C2202 1.389 . S
C2201 H2180 0.950 . S
C2201 C2200 1.373 . S
C2201 C2217 1.377 . S
C2202 C2200 1.389 . S
C2202 C2203 1.524 . S
C2202 C2216 1.377 . S
C2203 C2202 1.524 . S
C2203 C2204 1.397 . S
C2203 C2208 1.363 . S
C2204 H2181 0.950 . S
C2204 C2203 1.397 . S
C2204 C2205 1.334 . S
C2205 H2182 0.950 . S
C2205 C2204 1.334 . S
C2205 C2206 1.287 . S
C2206 C2205 1.287 . S
C2206 C2207 1.524 . S
C2206 H2225 0.913 . S
C2207 H2183 0.950 . S
C2207 C2206 1.524 . S
C2207 C2208 1.415 . S
C2208 H2184 0.950 . S
C2208 C2203 1.363 . S
C2208 C2207 1.415 . S
C2209 H2185 0.951 . S
C2209 C2210 1.366 . S
C2209 C2211 1.388 . S
C2210 C2209 1.366 . S
C2210 C2214 1.385 . S
C2211 H2186 0.951 . S
C2211 C2209 1.388 . S
C2211 C2212 1.366 . S
C2212 C2211 1.366 . S
C2212 C2213 1.414 . S
C2212 C2215 1.499 . S
C2213 H2187 0.950 . S
C2213 C2212 1.414 . S
C2213 C2214 1.374 . S
C2214 H2188 0.950 . S
C2214 C2210 1.385 . S
C2214 C2213 1.374 . S
C2215 C2212 1.499 . S
C2215 C2216 1.373 . S
C2215 C2217 1.389 . S
C2216 H2189 0.950 . S
C2216 C2202 1.377 . S
C2216 C2215 1.373 . S
C2217 C2201 1.377 . S
C2217 C2215 1.389 . S
C2217 C2218 1.524 . S
C2218 C2217 1.524 . S
C2218 C2219 1.397 . S
C2218 C2223 1.363 . S
C2219 H2190 0.950 . S
C2219 C2218 1.397 . S
C2219 C2220 1.334 . S
C2220 H2191 0.950 . S
C2220 C2219 1.334 . S
C2220 C2221 1.287 . S
C2221 C2220 1.287 . S
C2221 C2222 1.524 . S
C2221 H2224 1.012 . S
C2222 H2192 0.950 . S
C2222 C2221 1.524 . S
C2222 C2223 1.415 . S
C2223 H2193 0.950 . S
C2223 C2218 1.363 . S
C2223 C2222 1.415 . S
H2224 C2221 1.012 . S
H2225 C2206 0.913 . S
H2226 C2244 0.951 . S
H2227 C2246 0.951 . S
H2228 C2248 0.950 . S
H2229 C2249 0.950 . S
H2230 C2251 0.950 . S
H2231 C2254 0.950 . S
H2232 C2255 0.950 . S
H2233 C2257 0.950 . S
H2234 C2258 0.950 . S
H2235 C2259 0.951 . S
H2236 C2261 0.951 . S
H2237 C2263 0.950 . S
H2238 C2264 0.950 . S
H2239 C2266 0.950 . S
H2240 C2269 0.950 . S
H2241 C2270 0.950 . S
H2242 C2272 0.950 . S
H2243 C2273 0.950 . S
C2244 H2226 0.951 . S
C2244 C2245 1.366 . S
C2244 C2246 1.388 . S
C2245 C2244 1.366 . S
C2245 C2249 1.385 . S
C2246 H2227 0.951 . S
C2246 C2244 1.388 . S
C2246 C2247 1.366 . S
C2247 C2246 1.366 . S
C2247 C2248 1.414 . S
C2247 C2250 1.499 . S
C2248 H2228 0.950 . S
C2248 C2247 1.414 . S
C2248 C2249 1.374 . S
C2249 H2229 0.950 . S
C2249 C2245 1.385 . S
C2249 C2248 1.374 . S
C2250 C2247 1.499 . S
C2250 C2251 1.373 . S
C2250 C2252 1.389 . S
C2251 H2230 0.950 . S
C2251 C2250 1.373 . S
C2251 C2267 1.377 . S
C2252 C2250 1.389 . S
C2252 C2253 1.524 . S
C2252 C2266 1.377 . S
C2253 C2252 1.524 . S
C2253 C2254 1.397 . S
C2253 C2258 1.363 . S
C2254 H2231 0.950 . S
C2254 C2253 1.397 . S
C2254 C2255 1.334 . S
C2255 H2232 0.950 . S
C2255 C2254 1.334 . S
C2255 C2256 1.287 . S
C2256 C2255 1.287 . S
C2256 C2257 1.524 . S
C2256 H2275 0.913 . S
C2257 H2233 0.950 . S
C2257 C2256 1.524 . S
C2257 C2258 1.415 . S
C2258 H2234 0.950 . S
C2258 C2253 1.363 . S
C2258 C2257 1.415 . S
C2259 H2235 0.951 . S
C2259 C2260 1.366 . S
C2259 C2261 1.388 . S
C2260 C2259 1.366 . S
C2260 C2264 1.385 . S
C2261 H2236 0.951 . S
C2261 C2259 1.388 . S
C2261 C2262 1.366 . S
C2262 C2261 1.366 . S
C2262 C2263 1.414 . S
C2262 C2265 1.499 . S
C2263 H2237 0.950 . S
C2263 C2262 1.414 . S
C2263 C2264 1.374 . S
C2264 H2238 0.950 . S
C2264 C2260 1.385 . S
C2264 C2263 1.374 . S
C2265 C2262 1.499 . S
C2265 C2266 1.373 . S
C2265 C2267 1.389 . S
C2266 H2239 0.950 . S
C2266 C2252 1.377 . S
C2266 C2265 1.373 . S
C2267 C2251 1.377 . S
C2267 C2265 1.389 . S
C2267 C2268 1.524 . S
C2268 C2267 1.524 . S
C2268 C2269 1.397 . S
C2268 C2273 1.363 . S
C2269 H2240 0.950 . S
C2269 C2268 1.397 . S
C2269 C2270 1.334 . S
C2270 H2241 0.950 . S
C2270 C2269 1.334 . S
C2270 C2271 1.287 . S
C2271 C2270 1.287 . S
C2271 C2272 1.524 . S
C2271 H2274 0.999 . S
C2272 H2242 0.950 . S
C2272 C2271 1.524 . S
C2272 C2273 1.415 . S
C2273 H2243 0.950 . S
C2273 C2268 1.363 . S
C2273 C2272 1.415 . S
H2274 C2271 0.999 . S
H2275 C2256 0.913 . S
H2276 C2294 0.951 . S
H2277 C2296 0.951 . S
H2278 C2298 0.950 . S
H2279 C2299 0.950 . S
H2280 C2301 0.950 . S
H2281 C2304 0.950 . S
H2282 C2305 0.950 . S
H2283 C2307 0.950 . S
H2284 C2308 0.950 . S
H2285 C2309 0.951 . S
H2286 C2311 0.951 . S
H2287 C2313 0.950 . S
H2288 C2314 0.950 . S
H2289 C2316 0.950 . S
H2290 C2319 0.950 . S
H2291 C2320 0.950 . S
H2292 C2322 0.950 . S
H2293 C2323 0.950 . S
C2294 H2276 0.951 . S
C2294 C2295 1.366 . S
C2294 C2296 1.388 . S
C2295 C2294 1.366 . S
C2295 C2299 1.385 . S
C2296 H2277 0.951 . S
C2296 C2294 1.388 . S
C2296 C2297 1.366 . S
C2297 C2296 1.366 . S
C2297 C2298 1.414 . S
C2297 C2300 1.499 . S
C2298 H2278 0.950 . S
C2298 C2297 1.414 . S
C2298 C2299 1.374 . S
C2299 H2279 0.950 . S
C2299 C2295 1.385 . S
C2299 C2298 1.374 . S
C2300 C2297 1.499 . S
C2300 C2301 1.373 . S
C2300 C2302 1.389 . S
C2301 H2280 0.950 . S
C2301 C2300 1.373 . S
C2301 C2317 1.377 . S
C2302 C2300 1.389 . S
C2302 C2303 1.524 . S
C2302 C2316 1.377 . S
C2303 C2302 1.524 . S
C2303 C2304 1.397 . S
C2303 C2308 1.363 . S
C2304 H2281 0.950 . S
C2304 C2303 1.397 . S
C2304 C2305 1.334 . S
C2305 H2282 0.950 . S
C2305 C2304 1.334 . S
C2305 C2306 1.287 . S
C2306 C2305 1.287 . S
C2306 C2307 1.524 . S
C2306 H2325 0.913 . S
C2307 H2283 0.950 . S
C2307 C2306 1.524 . S
C2307 C2308 1.415 . S
C2308 H2284 0.950 . S
C2308 C2303 1.363 . S
C2308 C2307 1.415 . S
C2309 H2285 0.951 . S
C2309 C2310 1.366 . S
C2309 C2311 1.388 . S
C2310 C2309 1.366 . S
C2310 C2314 1.385 . S
C2311 H2286 0.951 . S
C2311 C2309 1.388 . S
C2311 C2312 1.366 . S
C2312 C2311 1.366 . S
C2312 C2313 1.414 . S
C2312 C2315 1.499 . S
C2313 H2287 0.950 . S
C2313 C2312 1.414 . S
C2313 C2314 1.374 . S
C2314 H2288 0.950 . S
C2314 C2310 1.385 . S
C2314 C2313 1.374 . S
C2315 C2312 1.499 . S
C2315 C2316 1.373 . S
C2315 C2317 1.389 . S
C2316 H2289 0.950 . S
C2316 C2302 1.377 . S
C2316 C2315 1.373 . S
C2317 C2301 1.377 . S
C2317 C2315 1.389 . S
C2317 C2318 1.524 . S
C2318 C2317 1.524 . S
C2318 C2319 1.397 . S
C2318 C2323 1.363 . S
C2319 H2290 0.950 . S
C2319 C2318 1.397 . S
C2319 C2320 1.334 . S
C2320 H2291 0.950 . S
C2320 C2319 1.334 . S
C2320 C2321 1.287 . S
C2321 C2320 1.287 . S
C2321 C2322 1.524 . S
C2321 H2324 0.999 . S
C2322 H2292 0.950 . S
C2322 C2321 1.524 . S
C2322 C2323 1.415 . S
C2323 H2293 0.950 . S
C2323 C2318 1.363 . S
C2323 C2322 1.415 . S
H2324 C2321 0.999 . S
H2325 C2306 0.913 . S
H2326 C2344 0.951 . S
H2327 C2346 0.951 . S
H2328 C2348 0.950 . S
H2329 C2349 0.950 . S
H2330 C2351 0.950 . S
H2331 C2354 0.950 . S
H2332 C2355 0.950 . S
H2333 C2357 0.950 . S
H2334 C2358 0.950 . S
H2335 C2359 0.951 . S
H2336 C2361 0.951 . S
H2337 C2363 0.950 . S
H2338 C2364 0.950 . S
H2339 C2366 0.950 . S
H2340 C2369 0.950 . S
H2341 C2370 0.950 . S
H2342 C2372 0.950 . S
H2343 C2373 0.950 . S
C2344 H2326 0.951 . S
C2344 C2345 1.366 . S
C2344 C2346 1.388 . S
C2345 C2344 1.366 . S
C2345 C2349 1.385 . S
C2346 H2327 0.951 . S
C2346 C2344 1.388 . S
C2346 C2347 1.366 . S
C2347 C2346 1.366 . S
C2347 C2348 1.414 . S
C2347 C2350 1.499 . S
C2348 H2328 0.950 . S
C2348 C2347 1.414 . S
C2348 C2349 1.374 . S
C2349 H2329 0.950 . S
C2349 C2345 1.385 . S
C2349 C2348 1.374 . S
C2350 C2347 1.499 . S
C2350 C2351 1.373 . S
C2350 C2352 1.389 . S
C2351 H2330 0.950 . S
C2351 C2350 1.373 . S
C2351 C2367 1.377 . S
C2352 C2350 1.389 . S
C2352 C2353 1.524 . S
C2352 C2366 1.377 . S
C2353 C2352 1.524 . S
C2353 C2354 1.397 . S
C2353 C2358 1.363 . S
C2354 H2331 0.950 . S
C2354 C2353 1.397 . S
C2354 C2355 1.334 . S
C2355 H2332 0.950 . S
C2355 C2354 1.334 . S
C2355 C2356 1.287 . S
C2356 C2355 1.287 . S
C2356 C2357 1.524 . S
C2356 H2375 0.913 . S
C2357 H2333 0.950 . S
C2357 C2356 1.524 . S
C2357 C2358 1.415 . S
C2358 H2334 0.950 . S
C2358 C2353 1.363 . S
C2358 C2357 1.415 . S
C2359 H2335 0.951 . S
C2359 C2360 1.366 . S
C2359 C2361 1.388 . S
C2360 C2359 1.366 . S
C2360 C2364 1.385 . S
C2361 H2336 0.951 . S
C2361 C2359 1.388 . S
C2361 C2362 1.366 . S
C2362 C2361 1.366 . S
C2362 C2363 1.414 . S
C2362 C2365 1.499 . S
C2363 H2337 0.950 . S
C2363 C2362 1.414 . S
C2363 C2364 1.374 . S
C2364 H2338 0.950 . S
C2364 C2360 1.385 . S
C2364 C2363 1.374 . S
C2365 C2362 1.499 . S
C2365 C2366 1.373 . S
C2365 C2367 1.389 . S
C2366 H2339 0.950 . S
C2366 C2352 1.377 . S
C2366 C2365 1.373 . S
C2367 C2351 1.377 . S
C2367 C2365 1.389 . S
C2367 C2368 1.524 . S
C2368 C2367 1.524 . S
C2368 C2369 1.397 . S
C2368 C2373 1.363 . S
C2369 H2340 0.950 . S
C2369 C2368 1.397 . S
C2369 C2370 1.334 . S
C2370 H2341 0.950 . S
C2370 C2369 1.334 . S
C2370 C2371 1.287 . S
C2371 C2370 1.287 . S
C2371 C2372 1.524 . S
C2371 H2374 0.999 . S
C2372 H2342 0.950 . S
C2372 C2371 1.524 . S
C2372 C2373 1.415 . S
C2373 H2343 0.950 . S
C2373 C2368 1.363 . S
C2373 C2372 1.415 . S
H2374 C2371 0.999 . S
H2375 C2356 0.913 . S
H2376 C2394 0.951 . S
H2377 C2396 0.951 . S
H2378 C2398 0.950 . S
H2379 C2399 0.950 . S
H2380 C2401 0.950 . S
H2381 C2404 0.950 . S
H2382 C2405 0.950 . S
H2383 C2407 0.950 . S
H2384 C2408 0.950 . S
H2385 C2409 0.951 . S
H2386 C2411 0.951 . S
H2387 C2413 0.950 . S
H2388 C2414 0.950 . S
H2389 C2416 0.950 . S
H2390 C2419 0.950 . S
H2391 C2420 0.950 . S
H2392 C2422 0.950 . S
H2393 C2423 0.950 . S
C2394 H2376 0.951 . S
C2394 C2395 1.366 . S
C2394 C2396 1.388 . S
C2395 C2394 1.366 . S
C2395 C2399 1.385 . S
C2396 H2377 0.951 . S
C2396 C2394 1.388 . S
C2396 C2397 1.366 . S
C2397 C2396 1.366 . S
C2397 C2398 1.414 . S
C2397 C2400 1.499 . S
C2398 H2378 0.950 . S
C2398 C2397 1.414 . S
C2398 C2399 1.374 . S
C2399 H2379 0.950 . S
C2399 C2395 1.385 . S
C2399 C2398 1.374 . S
C2400 C2397 1.499 . S
C2400 C2401 1.373 . S
C2400 C2402 1.389 . S
C2401 H2380 0.950 . S
C2401 C2400 1.373 . S
C2401 C2417 1.377 . S
C2402 C2400 1.389 . S
C2402 C2403 1.524 . S
C2402 C2416 1.377 . S
C2403 C2402 1.524 . S
C2403 C2404 1.397 . S
C2403 C2408 1.363 . S
C2404 H2381 0.950 . S
C2404 C2403 1.397 . S
C2404 C2405 1.334 . S
C2405 H2382 0.950 . S
C2405 C2404 1.334 . S
C2405 C2406 1.287 . S
C2406 C2405 1.287 . S
C2406 C2407 1.524 . S
C2406 H2425 0.913 . S
C2407 H2383 0.950 . S
C2407 C2406 1.524 . S
C2407 C2408 1.415 . S
C2408 H2384 0.950 . S
C2408 C2403 1.363 . S
C2408 C2407 1.415 . S
C2409 H2385 0.951 . S
C2409 C2410 1.366 . S
C2409 C2411 1.388 . S
C2410 C2409 1.366 . S
C2410 C2414 1.385 . S
C2411 H2386 0.951 . S
C2411 C2409 1.388 . S
C2411 C2412 1.366 . S
C2412 C2411 1.366 . S
C2412 C2413 1.414 . S
C2412 C2415 1.499 . S
C2413 H2387 0.950 . S
C2413 C2412 1.414 . S
C2413 C2414 1.374 . S
C2414 H2388 0.950 . S
C2414 C2410 1.385 . S
C2414 C2413 1.374 . S
C2415 C2412 1.499 . S
C2415 C2416 1.373 . S
C2415 C2417 1.389 . S
C2416 H2389 0.950 . S
C2416 C2402 1.377 . S
C2416 C2415 1.373 . S
C2417 C2401 1.377 . S
C2417 C2415 1.389 . S
C2417 C2418 1.524 . S
C2418 C2417 1.524 . S
C2418 C2419 1.397 . S
C2418 C2423 1.363 . S
C2419 H2390 0.950 . S
C2419 C2418 1.397 . S
C2419 C2420 1.334 . S
C2420 H2391 0.950 . S
C2420 C2419 1.334 . S
C2420 C2421 1.287 . S
C2421 C2420 1.287 . S
C2421 C2422 1.524 . S
C2421 H2424 0.999 . S
C2422 H2392 0.950 . S
C2422 C2421 1.524 . S
C2422 C2423 1.415 . S
C2423 H2393 0.950 . S
C2423 C2418 1.363 . S
C2423 C2422 1.415 . S
H2424 C2421 0.999 . S
H2425 C2406 0.913 . S
H2426 C2444 0.951 . S
H2427 C2446 0.951 . S
H2428 C2448 0.950 . S
H2429 C2449 0.950 . S
H2430 C2451 0.950 . S
H2431 C2454 0.950 . S
H2432 C2455 0.950 . S
H2433 C2457 0.950 . S
H2434 C2458 0.950 . S
H2435 C2459 0.951 . S
H2436 C2461 0.951 . S
H2437 C2463 0.950 . S
H2438 C2464 0.950 . S
H2439 C2466 0.950 . S
H2440 C2469 0.950 . S
H2441 C2470 0.950 . S
H2442 C2472 0.950 . S
H2443 C2473 0.950 . S
C2444 H2426 0.951 . S
C2444 C2445 1.366 . S
C2444 C2446 1.388 . S
C2445 C2444 1.366 . S
C2445 C2449 1.385 . S
C2446 H2427 0.951 . S
C2446 C2444 1.388 . S
C2446 C2447 1.366 . S
C2447 C2446 1.366 . S
C2447 C2448 1.414 . S
C2447 C2450 1.499 . S
C2448 H2428 0.950 . S
C2448 C2447 1.414 . S
C2448 C2449 1.374 . S
C2449 H2429 0.950 . S
C2449 C2445 1.385 . S
C2449 C2448 1.374 . S
C2450 C2447 1.499 . S
C2450 C2451 1.373 . S
C2450 C2452 1.389 . S
C2451 H2430 0.950 . S
C2451 C2450 1.373 . S
C2451 C2467 1.377 . S
C2452 C2450 1.389 . S
C2452 C2453 1.524 . S
C2452 C2466 1.377 . S
C2453 C2452 1.524 . S
C2453 C2454 1.397 . S
C2453 C2458 1.363 . S
C2454 H2431 0.950 . S
C2454 C2453 1.397 . S
C2454 C2455 1.334 . S
C2455 H2432 0.950 . S
C2455 C2454 1.334 . S
C2455 C2456 1.287 . S
C2456 C2455 1.287 . S
C2456 C2457 1.524 . S
C2456 H2475 0.913 . S
C2457 H2433 0.950 . S
C2457 C2456 1.524 . S
C2457 C2458 1.415 . S
C2458 H2434 0.950 . S
C2458 C2453 1.363 . S
C2458 C2457 1.415 . S
C2459 H2435 0.951 . S
C2459 C2460 1.366 . S
C2459 C2461 1.388 . S
C2460 C2459 1.366 . S
C2460 C2464 1.385 . S
C2461 H2436 0.951 . S
C2461 C2459 1.388 . S
C2461 C2462 1.366 . S
C2462 C2461 1.366 . S
C2462 C2463 1.414 . S
C2462 C2465 1.499 . S
C2463 H2437 0.950 . S
C2463 C2462 1.414 . S
C2463 C2464 1.374 . S
C2464 H2438 0.950 . S
C2464 C2460 1.385 . S
C2464 C2463 1.374 . S
C2465 C2462 1.499 . S
C2465 C2466 1.373 . S
C2465 C2467 1.389 . S
C2466 H2439 0.950 . S
C2466 C2452 1.377 . S
C2466 C2465 1.373 . S
C2467 C2451 1.377 . S
C2467 C2465 1.389 . S
C2467 C2468 1.524 . S
C2468 C2467 1.524 . S
C2468 C2469 1.397 . S
C2468 C2473 1.363 . S
C2469 H2440 0.950 . S
C2469 C2468 1.397 . S
C2469 C2470 1.334 . S
C2470 H2441 0.950 . S
C2470 C2469 1.334 . S
C2470 C2471 1.287 . S
C2471 C2470 1.287 . S
C2471 C2472 1.524 . S
C2471 H2474 0.999 . S
C2472 H2442 0.950 . S
C2472 C2471 1.524 . S
C2472 C2473 1.415 . S
C2473 H2443 0.950 . S
C2473 C2468 1.363 . S
C2473 C2472 1.415 . S
H2474 C2471 0.999 . S
H2475 C2456 0.913 . S
H2476 C2494 0.951 . S
H2477 C2496 0.951 . S
H2478 C2498 0.950 . S
H2479 C2499 0.950 . S
H2480 C2501 0.950 . S
H2481 C2504 0.950 . S
H2482 C2505 0.950 . S
H2483 C2507 0.950 . S
H2484 C2508 0.950 . S
H2485 C2509 0.951 . S
H2486 C2511 0.951 . S
H2487 C2513 0.950 . S
H2488 C2514 0.950 . S
H2489 C2516 0.950 . S
H2490 C2519 0.950 . S
H2491 C2520 0.950 . S
H2492 C2522 0.950 . S
H2493 C2523 0.950 . S
C2494 H2476 0.951 . S
C2494 C2495 1.366 . S
C2494 C2496 1.388 . S
C2495 C2494 1.366 . S
C2495 C2499 1.385 . S
C2496 H2477 0.951 . S
C2496 C2494 1.388 . S
C2496 C2497 1.366 . S
C2497 C2496 1.366 . S
C2497 C2498 1.414 . S
C2497 C2500 1.499 . S
C2498 H2478 0.950 . S
C2498 C2497 1.414 . S
C2498 C2499 1.374 . S
C2499 H2479 0.950 . S
C2499 C2495 1.385 . S
C2499 C2498 1.374 . S
C2500 C2497 1.499 . S
C2500 C2501 1.373 . S
C2500 C2502 1.389 . S
C2501 H2480 0.950 . S
C2501 C2500 1.373 . S
C2501 C2517 1.377 . S
C2502 C2500 1.389 . S
C2502 C2503 1.524 . S
C2502 C2516 1.377 . S
C2503 C2502 1.524 . S
C2503 C2504 1.397 . S
C2503 C2508 1.363 . S
C2504 H2481 0.950 . S
C2504 C2503 1.397 . S
C2504 C2505 1.334 . S
C2505 H2482 0.950 . S
C2505 C2504 1.334 . S
C2505 C2506 1.287 . S
C2506 C2505 1.287 . S
C2506 C2507 1.524 . S
C2506 H2525 0.913 . S
C2507 H2483 0.950 . S
C2507 C2506 1.524 . S
C2507 C2508 1.415 . S
C2508 H2484 0.950 . S
C2508 C2503 1.363 . S
C2508 C2507 1.415 . S
C2509 H2485 0.951 . S
C2509 C2510 1.366 . S
C2509 C2511 1.388 . S
C2510 C2509 1.366 . S
C2510 C2514 1.385 . S
C2511 H2486 0.951 . S
C2511 C2509 1.388 . S
C2511 C2512 1.366 . S
C2512 C2511 1.366 . S
C2512 C2513 1.414 . S
C2512 C2515 1.499 . S
C2513 H2487 0.950 . S
C2513 C2512 1.414 . S
C2513 C2514 1.374 . S
C2514 H2488 0.950 . S
C2514 C2510 1.385 . S
C2514 C2513 1.374 . S
C2515 C2512 1.499 . S
C2515 C2516 1.373 . S
C2515 C2517 1.389 . S
C2516 H2489 0.950 . S
C2516 C2502 1.377 . S
C2516 C2515 1.373 . S
C2517 C2501 1.377 . S
C2517 C2515 1.389 . S
C2517 C2518 1.524 . S
C2518 C2517 1.524 . S
C2518 C2519 1.397 . S
C2518 C2523 1.363 . S
C2519 H2490 0.950 . S
C2519 C2518 1.397 . S
C2519 C2520 1.334 . S
C2520 H2491 0.950 . S
C2520 C2519 1.334 . S
C2520 C2521 1.287 . S
C2521 C2520 1.287 . S
C2521 C2522 1.524 . S
C2521 H2524 0.999 . S
C2522 H2492 0.950 . S
C2522 C2521 1.524 . S
C2522 C2523 1.415 . S
C2523 H2493 0.950 . S
C2523 C2518 1.363 . S
C2523 C2522 1.415 . S
H2524 C2521 0.999 . S
H2525 C2506 0.913 . S
H2526 C2544 0.951 . S
H2527 C2546 0.951 . S
H2528 C2548 0.950 . S
H2529 C2549 0.950 . S
H2530 C2551 0.950 . S
H2531 C2554 0.950 . S
H2532 C2555 0.950 . S
H2533 C2557 0.950 . S
H2534 C2558 0.950 . S
H2535 C2559 0.951 . S
H2536 C2561 0.951 . S
H2537 C2563 0.950 . S
H2538 C2564 0.950 . S
H2539 C2566 0.950 . S
H2540 C2569 0.950 . S
H2541 C2570 0.950 . S
H2542 C2572 0.950 . S
H2543 C2573 0.950 . S
C2544 H2526 0.951 . S
C2544 C2545 1.366 . S
C2544 C2546 1.388 . S
C2545 C2544 1.366 . S
C2545 C2549 1.385 . S
C2546 H2527 0.951 . S
C2546 C2544 1.388 . S
C2546 C2547 1.366 . S
C2547 C2546 1.366 . S
C2547 C2548 1.414 . S
C2547 C2550 1.499 . S
C2548 H2528 0.950 . S
C2548 C2547 1.414 . S
C2548 C2549 1.374 . S
C2549 H2529 0.950 . S
C2549 C2545 1.385 . S
C2549 C2548 1.374 . S
C2550 C2547 1.499 . S
C2550 C2551 1.373 . S
C2550 C2552 1.389 . S
C2551 H2530 0.950 . S
C2551 C2550 1.373 . S
C2551 C2567 1.377 . S
C2552 C2550 1.389 . S
C2552 C2553 1.524 . S
C2552 C2566 1.377 . S
C2553 C2552 1.524 . S
C2553 C2554 1.397 . S
C2553 C2558 1.363 . S
C2554 H2531 0.950 . S
C2554 C2553 1.397 . S
C2554 C2555 1.334 . S
C2555 H2532 0.950 . S
C2555 C2554 1.334 . S
C2555 C2556 1.287 . S
C2556 C2555 1.287 . S
C2556 C2557 1.524 . S
C2556 H2575 0.913 . S
C2557 H2533 0.950 . S
C2557 C2556 1.524 . S
C2557 C2558 1.415 . S
C2558 H2534 0.950 . S
C2558 C2553 1.363 . S
C2558 C2557 1.415 . S
C2559 H2535 0.951 . S
C2559 C2560 1.366 . S
C2559 C2561 1.388 . S
C2560 C2559 1.366 . S
C2560 C2564 1.385 . S
C2561 H2536 0.951 . S
C2561 C2559 1.388 . S
C2561 C2562 1.366 . S
C2562 C2561 1.366 . S
C2562 C2563 1.414 . S
C2562 C2565 1.499 . S
C2563 H2537 0.950 . S
C2563 C2562 1.414 . S
C2563 C2564 1.374 . S
C2564 H2538 0.950 . S
C2564 C2560 1.385 . S
C2564 C2563 1.374 . S
C2565 C2562 1.499 . S
C2565 C2566 1.373 . S
C2565 C2567 1.389 . S
C2566 H2539 0.950 . S
C2566 C2552 1.377 . S
C2566 C2565 1.373 . S
C2567 C2551 1.377 . S
C2567 C2565 1.389 . S
C2567 C2568 1.524 . S
C2568 C2567 1.524 . S
C2568 C2569 1.397 . S
C2568 C2573 1.363 . S
C2569 H2540 0.950 . S
C2569 C2568 1.397 . S
C2569 C2570 1.334 . S
C2570 H2541 0.950 . S
C2570 C2569 1.334 . S
C2570 C2571 1.287 . S
C2571 C2570 1.287 . S
C2571 C2572 1.524 . S
C2571 H2574 0.999 . S
C2572 H2542 0.950 . S
C2572 C2571 1.524 . S
C2572 C2573 1.415 . S
C2573 H2543 0.950 . S
C2573 C2568 1.363 . S
C2573 C2572 1.415 . S
H2574 C2571 0.999 . S
H2575 C2556 0.913 . S
H2576 C2594 0.951 . S
H2577 C2596 0.951 . S
H2578 C2598 0.950 . S
H2579 C2599 0.950 . S
H2580 C2601 0.950 . S
H2581 C2604 0.950 . S
H2582 C2605 0.950 . S
H2583 C2607 0.950 . S
H2584 C2608 0.950 . S
H2585 C2609 0.951 . S
H2586 C2611 0.951 . S
H2587 C2613 0.950 . S
H2588 C2614 0.950 . S
H2589 C2616 0.950 . S
H2590 C2619 0.950 . S
H2591 C2620 0.950 . S
H2592 C2622 0.950 . S
H2593 C2623 0.950 . S
C2594 H2576 0.951 . S
C2594 C2595 1.366 . S
C2594 C2596 1.388 . S
C2595 C2594 1.366 . S
C2595 C2599 1.385 . S
C2596 H2577 0.951 . S
C2596 C2594 1.388 . S
C2596 C2597 1.366 . S
C2597 C2596 1.366 . S
C2597 C2598 1.414 . S
C2597 C2600 1.499 . S
C2598 H2578 0.950 . S
C2598 C2597 1.414 . S
C2598 C2599 1.374 . S
C2599 H2579 0.950 . S
C2599 C2595 1.385 . S
C2599 C2598 1.374 . S
C2600 C2597 1.499 . S
C2600 C2601 1.373 . S
C2600 C2602 1.389 . S
C2601 H2580 0.950 . S
C2601 C2600 1.373 . S
C2601 C2617 1.377 . S
C2602 C2600 1.389 . S
C2602 C2603 1.524 . S
C2602 C2616 1.377 . S
C2603 C2602 1.524 . S
C2603 C2604 1.397 . S
C2603 C2608 1.363 . S
C2604 H2581 0.950 . S
C2604 C2603 1.397 . S
C2604 C2605 1.334 . S
C2605 H2582 0.950 . S
C2605 C2604 1.334 . S
C2605 C2606 1.287 . S
C2606 C2605 1.287 . S
C2606 C2607 1.524 . S
C2606 H2625 0.913 . S
C2607 H2583 0.950 . S
C2607 C2606 1.524 . S
C2607 C2608 1.415 . S
C2608 H2584 0.950 . S
C2608 C2603 1.363 . S
C2608 C2607 1.415 . S
C2609 H2585 0.951 . S
C2609 C2610 1.366 . S
C2609 C2611 1.388 . S
C2610 C2609 1.366 . S
C2610 C2614 1.385 . S
C2611 H2586 0.951 . S
C2611 C2609 1.388 . S
C2611 C2612 1.366 . S
C2612 C2611 1.366 . S
C2612 C2613 1.414 . S
C2612 C2615 1.499 . S
C2613 H2587 0.950 . S
C2613 C2612 1.414 . S
C2613 C2614 1.374 . S
C2614 H2588 0.950 . S
C2614 C2610 1.385 . S
C2614 C2613 1.374 . S
C2615 C2612 1.499 . S
C2615 C2616 1.373 . S
C2615 C2617 1.389 . S
C2616 H2589 0.950 . S
C2616 C2602 1.377 . S
C2616 C2615 1.373 . S
C2617 C2601 1.377 . S
C2617 C2615 1.389 . S
C2617 C2618 1.524 . S
C2618 C2617 1.524 . S
C2618 C2619 1.397 . S
C2618 C2623 1.363 . S
C2619 H2590 0.950 . S
C2619 C2618 1.397 . S
C2619 C2620 1.334 . S
C2620 H2591 0.950 . S
C2620 C2619 1.334 . S
C2620 C2621 1.287 . S
C2621 C2620 1.287 . S
C2621 C2622 1.524 . S
C2621 H2624 0.999 . S
C2622 H2592 0.950 . S
C2622 C2621 1.524 . S
C2622 C2623 1.415 . S
C2623 H2593 0.950 . S
C2623 C2618 1.363 . S
C2623 C2622 1.415 . S
H2624 C2621 0.999 . S
H2625 C2606 0.913 . S
H2626 C2644 0.951 . S
H2627 C2646 0.951 . S
H2628 C2648 0.950 . S
H2629 C2649 0.950 . S
H2630 C2651 0.950 . S
H2631 C2654 0.950 . S
H2632 C2655 0.950 . S
H2633 C2657 0.950 . S
H2634 C2658 0.950 . S
H2635 C2659 0.951 . S
H2636 C2661 0.951 . S
H2637 C2663 0.950 . S
H2638 C2664 0.950 . S
H2639 C2666 0.950 . S
H2640 C2669 0.950 . S
H2641 C2670 0.950 . S
H2642 C2672 0.950 . S
H2643 C2673 0.950 . S
C2644 H2626 0.951 . S
C2644 C2645 1.366 . S
C2644 C2646 1.388 . S
C2645 C2644 1.366 . S
C2645 C2649 1.385 . S
C2646 H2627 0.951 . S
C2646 C2644 1.388 . S
C2646 C2647 1.366 . S
C2647 C2646 1.366 . S
C2647 C2648 1.414 . S
C2647 C2650 1.499 . S
C2648 H2628 0.950 . S
C2648 C2647 1.414 . S
C2648 C2649 1.374 . S
C2649 H2629 0.950 . S
C2649 C2645 1.385 . S
C2649 C2648 1.374 . S
C2650 C2647 1.499 . S
C2650 C2651 1.373 . S
C2650 C2652 1.389 . S
C2651 H2630 0.950 . S
C2651 C2650 1.373 . S
C2651 C2667 1.377 . S
C2652 C2650 1.389 . S
C2652 C2653 1.524 . S
C2652 C2666 1.377 . S
C2653 C2652 1.524 . S
C2653 C2654 1.397 . S
C2653 C2658 1.363 . S
C2654 H2631 0.950 . S
C2654 C2653 1.397 . S
C2654 C2655 1.334 . S
C2655 H2632 0.950 . S
C2655 C2654 1.334 . S
C2655 C2656 1.287 . S
C2656 C2655 1.287 . S
C2656 C2657 1.524 . S
C2656 H2675 0.913 . S
C2657 H2633 0.950 . S
C2657 C2656 1.524 . S
C2657 C2658 1.415 . S
C2658 H2634 0.950 . S
C2658 C2653 1.363 . S
C2658 C2657 1.415 . S
C2659 H2635 0.951 . S
C2659 C2660 1.366 . S
C2659 C2661 1.388 . S
C2660 C2659 1.366 . S
C2660 C2664 1.385 . S
C2661 H2636 0.951 . S
C2661 C2659 1.388 . S
C2661 C2662 1.366 . S
C2662 C2661 1.366 . S
C2662 C2663 1.414 . S
C2662 C2665 1.499 . S
C2663 H2637 0.950 . S
C2663 C2662 1.414 . S
C2663 C2664 1.374 . S
C2664 H2638 0.950 . S
C2664 C2660 1.385 . S
C2664 C2663 1.374 . S
C2665 C2662 1.499 . S
C2665 C2666 1.373 . S
C2665 C2667 1.389 . S
C2666 H2639 0.950 . S
C2666 C2652 1.377 . S
C2666 C2665 1.373 . S
C2667 C2651 1.377 . S
C2667 C2665 1.389 . S
C2667 C2668 1.524 . S
C2668 C2667 1.524 . S
C2668 C2669 1.397 . S
C2668 C2673 1.363 . S
C2669 H2640 0.950 . S
C2669 C2668 1.397 . S
C2669 C2670 1.334 . S
C2670 H2641 0.950 . S
C2670 C2669 1.334 . S
C2670 C2671 1.287 . S
C2671 C2670 1.287 . S
C2671 C2672 1.524 . S
C2671 H2674 0.999 . S
C2672 H2642 0.950 . S
C2672 C2671 1.524 . S
C2672 C2673 1.415 . S
C2673 H2643 0.950 . S
C2673 C2668 1.363 . S
C2673 C2672 1.415 . S
H2674 C2671 0.999 . S
H2675 C2656 0.913 . S
H2676 C2694 0.951 . S
H2677 C2696 0.951 . S
H2678 C2698 0.950 . S
H2679 C2699 0.950 . S
H2680 C2701 0.950 . S
H2681 C2704 0.950 . S
H2682 C2705 0.950 . S
H2683 C2707 0.950 . S
H2684 C2708 0.950 . S
H2685 C2709 0.951 . S
H2686 C2711 0.951 . S
H2687 C2713 0.950 . S
H2688 C2714 0.950 . S
H2689 C2716 0.950 . S
H2690 C2719 0.950 . S
H2691 C2720 0.950 . S
H2692 C2722 0.950 . S
H2693 C2723 0.950 . S
C2694 H2676 0.951 . S
C2694 C2695 1.366 . S
C2694 C2696 1.388 . S
C2695 C2694 1.366 . S
C2695 C2699 1.385 . S
C2696 H2677 0.951 . S
C2696 C2694 1.388 . S
C2696 C2697 1.366 . S
C2697 C2696 1.366 . S
C2697 C2698 1.414 . S
C2697 C2700 1.499 . S
C2698 H2678 0.950 . S
C2698 C2697 1.414 . S
C2698 C2699 1.374 . S
C2699 H2679 0.950 . S
C2699 C2695 1.385 . S
C2699 C2698 1.374 . S
C2700 C2697 1.499 . S
C2700 C2701 1.373 . S
C2700 C2702 1.389 . S
C2701 H2680 0.950 . S
C2701 C2700 1.373 . S
C2701 C2717 1.377 . S
C2702 C2700 1.389 . S
C2702 C2703 1.524 . S
C2702 C2716 1.377 . S
C2703 C2702 1.524 . S
C2703 C2704 1.397 . S
C2703 C2708 1.363 . S
C2704 H2681 0.950 . S
C2704 C2703 1.397 . S
C2704 C2705 1.334 . S
C2705 H2682 0.950 . S
C2705 C2704 1.334 . S
C2705 C2706 1.287 . S
C2706 C2705 1.287 . S
C2706 C2707 1.524 . S
C2706 H2725 0.913 . S
C2707 H2683 0.950 . S
C2707 C2706 1.524 . S
C2707 C2708 1.415 . S
C2708 H2684 0.950 . S
C2708 C2703 1.363 . S
C2708 C2707 1.415 . S
C2709 H2685 0.951 . S
C2709 C2710 1.366 . S
C2709 C2711 1.388 . S
C2710 C2709 1.366 . S
C2710 C2714 1.385 . S
C2711 H2686 0.951 . S
C2711 C2709 1.388 . S
C2711 C2712 1.366 . S
C2712 C2711 1.366 . S
C2712 C2713 1.414 . S
C2712 C2715 1.499 . S
C2713 H2687 0.950 . S
C2713 C2712 1.414 . S
C2713 C2714 1.374 . S
C2714 H2688 0.950 . S
C2714 C2710 1.385 . S
C2714 C2713 1.374 . S
C2715 C2712 1.499 . S
C2715 C2716 1.373 . S
C2715 C2717 1.389 . S
C2716 H2689 0.950 . S
C2716 C2702 1.377 . S
C2716 C2715 1.373 . S
C2717 C2701 1.377 . S
C2717 C2715 1.389 . S
C2717 C2718 1.524 . S
C2718 C2717 1.524 . S
C2718 C2719 1.397 . S
C2718 C2723 1.363 . S
C2719 H2690 0.950 . S
C2719 C2718 1.397 . S
C2719 C2720 1.334 . S
C2720 H2691 0.950 . S
C2720 C2719 1.334 . S
C2720 C2721 1.287 . S
C2721 C2720 1.287 . S
C2721 C2722 1.524 . S
C2721 H2724 0.999 . S
C2722 H2692 0.950 . S
C2722 C2721 1.524 . S
C2722 C2723 1.415 . S
C2723 H2693 0.950 . S
C2723 C2718 1.363 . S
C2723 C2722 1.415 . S
H2724 C2721 0.999 . S
H2725 C2706 0.913 . S
H2726 C2744 0.951 . S
H2727 C2746 0.951 . S
H2728 C2748 0.950 . S
H2729 C2749 0.950 . S
H2730 C2751 0.950 . S
H2731 C2754 0.950 . S
H2732 C2755 0.950 . S
H2733 C2757 0.950 . S
H2734 C2758 0.950 . S
H2735 C2759 0.951 . S
H2736 C2761 0.951 . S
H2737 C2763 0.950 . S
H2738 C2764 0.950 . S
H2739 C2766 0.950 . S
H2740 C2769 0.950 . S
H2741 C2770 0.950 . S
H2742 C2772 0.950 . S
H2743 C2773 0.950 . S
C2744 H2726 0.951 . S
C2744 C2745 1.366 . S
C2744 C2746 1.388 . S
C2745 C2744 1.366 . S
C2745 C2749 1.385 . S
C2746 H2727 0.951 . S
C2746 C2744 1.388 . S
C2746 C2747 1.366 . S
C2747 C2746 1.366 . S
C2747 C2748 1.414 . S
C2747 C2750 1.499 . S
C2748 H2728 0.950 . S
C2748 C2747 1.414 . S
C2748 C2749 1.374 . S
C2749 H2729 0.950 . S
C2749 C2745 1.385 . S
C2749 C2748 1.374 . S
C2750 C2747 1.499 . S
C2750 C2751 1.373 . S
C2750 C2752 1.389 . S
C2751 H2730 0.950 . S
C2751 C2750 1.373 . S
C2751 C2767 1.377 . S
C2752 C2750 1.389 . S
C2752 C2753 1.524 . S
C2752 C2766 1.377 . S
C2753 C2752 1.524 . S
C2753 C2754 1.397 . S
C2753 C2758 1.363 . S
C2754 H2731 0.950 . S
C2754 C2753 1.397 . S
C2754 C2755 1.334 . S
C2755 H2732 0.950 . S
C2755 C2754 1.334 . S
C2755 C2756 1.287 . S
C2756 C2755 1.287 . S
C2756 C2757 1.524 . S
C2756 H2775 0.913 . S
C2757 H2733 0.950 . S
C2757 C2756 1.524 . S
C2757 C2758 1.415 . S
C2758 H2734 0.950 . S
C2758 C2753 1.363 . S
C2758 C2757 1.415 . S
C2759 H2735 0.951 . S
C2759 C2760 1.366 . S
C2759 C2761 1.388 . S
C2760 C2759 1.366 . S
C2760 C2764 1.385 . S
C2761 H2736 0.951 . S
C2761 C2759 1.388 . S
C2761 C2762 1.366 . S
C2762 C2761 1.366 . S
C2762 C2763 1.414 . S
C2762 C2765 1.499 . S
C2763 H2737 0.950 . S
C2763 C2762 1.414 . S
C2763 C2764 1.374 . S
C2764 H2738 0.950 . S
C2764 C2760 1.385 . S
C2764 C2763 1.374 . S
C2765 C2762 1.499 . S
C2765 C2766 1.373 . S
C2765 C2767 1.389 . S
C2766 H2739 0.950 . S
C2766 C2752 1.377 . S
C2766 C2765 1.373 . S
C2767 C2751 1.377 . S
C2767 C2765 1.389 . S
C2767 C2768 1.524 . S
C2768 C2767 1.524 . S
C2768 C2769 1.397 . S
C2768 C2773 1.363 . S
C2769 H2740 0.950 . S
C2769 C2768 1.397 . S
C2769 C2770 1.334 . S
C2770 H2741 0.950 . S
C2770 C2769 1.334 . S
C2770 C2771 1.287 . S
C2771 C2770 1.287 . S
C2771 C2772 1.524 . S
C2771 H2774 0.999 . S
C2772 H2742 0.950 . S
C2772 C2771 1.524 . S
C2772 C2773 1.415 . S
C2773 H2743 0.950 . S
C2773 C2768 1.363 . S
C2773 C2772 1.415 . S
H2774 C2771 0.999 . S
H2775 C2756 0.913 . S
H2776 C2794 0.951 . S
H2777 C2796 0.951 . S
H2778 C2798 0.950 . S
H2779 C2799 0.950 . S
H2780 C2801 0.950 . S
H2781 C2804 0.950 . S
H2782 C2805 0.950 . S
H2783 C2807 0.950 . S
H2784 C2808 0.950 . S
H2785 C2809 0.951 . S
H2786 C2811 0.951 . S
H2787 C2813 0.950 . S
H2788 C2814 0.950 . S
H2789 C2816 0.950 . S
H2790 C2819 0.950 . S
H2791 C2820 0.950 . S
H2792 C2822 0.950 . S
H2793 C2823 0.950 . S
C2794 H2776 0.951 . S
C2794 C2795 1.366 . S
C2794 C2796 1.388 . S
C2795 C2794 1.366 . S
C2795 C2799 1.385 . S
C2796 H2777 0.951 . S
C2796 C2794 1.388 . S
C2796 C2797 1.366 . S
C2797 C2796 1.366 . S
C2797 C2798 1.414 . S
C2797 C2800 1.499 . S
C2798 H2778 0.950 . S
C2798 C2797 1.414 . S
C2798 C2799 1.374 . S
C2799 H2779 0.950 . S
C2799 C2795 1.385 . S
C2799 C2798 1.374 . S
C2800 C2797 1.499 . S
C2800 C2801 1.373 . S
C2800 C2802 1.389 . S
C2801 H2780 0.950 . S
C2801 C2800 1.373 . S
C2801 C2817 1.377 . S
C2802 C2800 1.389 . S
C2802 C2803 1.524 . S
C2802 C2816 1.377 . S
C2803 C2802 1.524 . S
C2803 C2804 1.397 . S
C2803 C2808 1.363 . S
C2804 H2781 0.950 . S
C2804 C2803 1.397 . S
C2804 C2805 1.334 . S
C2805 H2782 0.950 . S
C2805 C2804 1.334 . S
C2805 C2806 1.287 . S
C2806 C2805 1.287 . S
C2806 C2807 1.524 . S
C2806 H2825 0.913 . S
C2807 H2783 0.950 . S
C2807 C2806 1.524 . S
C2807 C2808 1.415 . S
C2808 H2784 0.950 . S
C2808 C2803 1.363 . S
C2808 C2807 1.415 . S
C2809 H2785 0.951 . S
C2809 C2810 1.366 . S
C2809 C2811 1.388 . S
C2810 C2809 1.366 . S
C2810 C2814 1.385 . S
C2811 H2786 0.951 . S
C2811 C2809 1.388 . S
C2811 C2812 1.366 . S
C2812 C2811 1.366 . S
C2812 C2813 1.414 . S
C2812 C2815 1.499 . S
C2813 H2787 0.950 . S
C2813 C2812 1.414 . S
C2813 C2814 1.374 . S
C2814 H2788 0.950 . S
C2814 C2810 1.385 . S
C2814 C2813 1.374 . S
C2815 C2812 1.499 . S
C2815 C2816 1.373 . S
C2815 C2817 1.389 . S
C2816 H2789 0.950 . S
C2816 C2802 1.377 . S
C2816 C2815 1.373 . S
C2817 C2801 1.377 . S
C2817 C2815 1.389 . S
C2817 C2818 1.524 . S
C2818 C2817 1.524 . S
C2818 C2819 1.397 . S
C2818 C2823 1.363 . S
C2819 H2790 0.950 . S
C2819 C2818 1.397 . S
C2819 C2820 1.334 . S
C2820 H2791 0.950 . S
C2820 C2819 1.334 . S
C2820 C2821 1.287 . S
C2821 C2820 1.287 . S
C2821 C2822 1.524 . S
C2821 H2824 0.999 . S
C2822 H2792 0.950 . S
C2822 C2821 1.524 . S
C2822 C2823 1.415 . S
C2823 H2793 0.950 . S
C2823 C2818 1.363 . S
C2823 C2822 1.415 . S
H2824 C2821 0.999 . S
H2825 C2806 0.913 . S
H2826 C2844 0.951 . S
H2827 C2846 0.951 . S
H2828 C2848 0.950 . S
H2829 C2849 0.950 . S
H2830 C2851 0.950 . S
H2831 C2854 0.950 . S
H2832 C2855 0.950 . S
H2833 C2857 0.950 . S
H2834 C2858 0.950 . S
H2835 C2859 0.951 . S
H2836 C2861 0.951 . S
H2837 C2863 0.950 . S
H2838 C2864 0.950 . S
H2839 C2866 0.950 . S
H2840 C2869 0.950 . S
H2841 C2870 0.950 . S
H2842 C2872 0.950 . S
H2843 C2873 0.950 . S
C2844 H2826 0.951 . S
C2844 C2845 1.366 . S
C2844 C2846 1.388 . S
C2845 C2844 1.366 . S
C2845 C2849 1.385 . S
C2846 H2827 0.951 . S
C2846 C2844 1.388 . S
C2846 C2847 1.366 . S
C2847 C2846 1.366 . S
C2847 C2848 1.414 . S
C2847 C2850 1.499 . S
C2848 H2828 0.950 . S
C2848 C2847 1.414 . S
C2848 C2849 1.374 . S
C2849 H2829 0.950 . S
C2849 C2845 1.385 . S
C2849 C2848 1.374 . S
C2850 C2847 1.499 . S
C2850 C2851 1.373 . S
C2850 C2852 1.389 . S
C2851 H2830 0.950 . S
C2851 C2850 1.373 . S
C2851 C2867 1.377 . S
C2852 C2850 1.389 . S
C2852 C2853 1.524 . S
C2852 C2866 1.377 . S
C2853 C2852 1.524 . S
C2853 C2854 1.397 . S
C2853 C2858 1.363 . S
C2854 H2831 0.950 . S
C2854 C2853 1.397 . S
C2854 C2855 1.334 . S
C2855 H2832 0.950 . S
C2855 C2854 1.334 . S
C2855 C2856 1.287 . S
C2856 C2855 1.287 . S
C2856 C2857 1.524 . S
C2856 H2875 0.913 . S
C2857 H2833 0.950 . S
C2857 C2856 1.524 . S
C2857 C2858 1.415 . S
C2858 H2834 0.950 . S
C2858 C2853 1.363 . S
C2858 C2857 1.415 . S
C2859 H2835 0.951 . S
C2859 C2860 1.366 . S
C2859 C2861 1.388 . S
C2860 C2859 1.366 . S
C2860 C2864 1.385 . S
C2861 H2836 0.951 . S
C2861 C2859 1.388 . S
C2861 C2862 1.366 . S
C2862 C2861 1.366 . S
C2862 C2863 1.414 . S
C2862 C2865 1.499 . S
C2863 H2837 0.950 . S
C2863 C2862 1.414 . S
C2863 C2864 1.374 . S
C2864 H2838 0.950 . S
C2864 C2860 1.385 . S
C2864 C2863 1.374 . S
C2865 C2862 1.499 . S
C2865 C2866 1.373 . S
C2865 C2867 1.389 . S
C2866 H2839 0.950 . S
C2866 C2852 1.377 . S
C2866 C2865 1.373 . S
C2867 C2851 1.377 . S
C2867 C2865 1.389 . S
C2867 C2868 1.524 . S
C2868 C2867 1.524 . S
C2868 C2869 1.397 . S
C2868 C2873 1.363 . S
C2869 H2840 0.950 . S
C2869 C2868 1.397 . S
C2869 C2870 1.334 . S
C2870 H2841 0.950 . S
C2870 C2869 1.334 . S
C2870 C2871 1.287 . S
C2871 C2870 1.287 . S
C2871 C2872 1.524 . S
C2871 H2874 0.999 . S
C2872 H2842 0.950 . S
C2872 C2871 1.524 . S
C2872 C2873 1.415 . S
C2873 H2843 0.950 . S
C2873 C2868 1.363 . S
C2873 C2872 1.415 . S
H2874 C2871 0.999 . S
H2875 C2856 0.913 . S
H2876 C2894 0.951 . S
H2877 C2896 0.951 . S
H2878 C2898 0.950 . S
H2879 C2899 0.950 . S
H2880 C2901 0.950 . S
H2881 C2904 0.950 . S
H2882 C2905 0.950 . S
H2883 C2907 0.950 . S
H2884 C2908 0.950 . S
H2885 C2909 0.951 . S
H2886 C2911 0.951 . S
H2887 C2913 0.950 . S
H2888 C2914 0.950 . S
H2889 C2916 0.950 . S
H2890 C2919 0.950 . S
H2891 C2920 0.950 . S
H2892 C2922 0.950 . S
H2893 C2923 0.950 . S
C2894 H2876 0.951 . S
C2894 C2895 1.366 . S
C2894 C2896 1.388 . S
C2895 C2894 1.366 . S
C2895 C2899 1.385 . S
C2896 H2877 0.951 . S
C2896 C2894 1.388 . S
C2896 C2897 1.366 . S
C2897 C2896 1.366 . S
C2897 C2898 1.414 . S
C2897 C2900 1.499 . S
C2898 H2878 0.950 . S
C2898 C2897 1.414 . S
C2898 C2899 1.374 . S
C2899 H2879 0.950 . S
C2899 C2895 1.385 . S
C2899 C2898 1.374 . S
C2900 C2897 1.499 . S
C2900 C2901 1.373 . S
C2900 C2902 1.389 . S
C2901 H2880 0.950 . S
C2901 C2900 1.373 . S
C2901 C2917 1.377 . S
C2902 C2900 1.389 . S
C2902 C2903 1.524 . S
C2902 C2916 1.377 . S
C2903 C2902 1.524 . S
C2903 C2904 1.397 . S
C2903 C2908 1.363 . S
C2904 H2881 0.950 . S
C2904 C2903 1.397 . S
C2904 C2905 1.334 . S
C2905 H2882 0.950 . S
C2905 C2904 1.334 . S
C2905 C2906 1.287 . S
C2906 C2905 1.287 . S
C2906 C2907 1.524 . S
C2906 H2925 0.913 . S
C2907 H2883 0.950 . S
C2907 C2906 1.524 . S
C2907 C2908 1.415 . S
C2908 H2884 0.950 . S
C2908 C2903 1.363 . S
C2908 C2907 1.415 . S
C2909 H2885 0.951 . S
C2909 C2910 1.366 . S
C2909 C2911 1.388 . S
C2910 C2909 1.366 . S
C2910 C2914 1.385 . S
C2911 H2886 0.951 . S
C2911 C2909 1.388 . S
C2911 C2912 1.366 . S
C2912 C2911 1.366 . S
C2912 C2913 1.414 . S
C2912 C2915 1.499 . S
C2913 H2887 0.950 . S
C2913 C2912 1.414 . S
C2913 C2914 1.374 . S
C2914 H2888 0.950 . S
C2914 C2910 1.385 . S
C2914 C2913 1.374 . S
C2915 C2912 1.499 . S
C2915 C2916 1.373 . S
C2915 C2917 1.389 . S
C2916 H2889 0.950 . S
C2916 C2902 1.377 . S
C2916 C2915 1.373 . S
C2917 C2901 1.377 . S
C2917 C2915 1.389 . S
C2917 C2918 1.524 . S
C2918 C2917 1.524 . S
C2918 C2919 1.397 . S
C2918 C2923 1.363 . S
C2919 H2890 0.950 . S
C2919 C2918 1.397 . S
C2919 C2920 1.334 . S
C2920 H2891 0.950 . S
C2920 C2919 1.334 . S
C2920 C2921 1.287 . S
C2921 C2920 1.287 . S
C2921 C2922 1.524 . S
C2921 H2924 0.999 . S
C2922 H2892 0.950 . S
C2922 C2921 1.524 . S
C2922 C2923 1.415 . S
C2923 H2893 0.950 . S
C2923 C2918 1.363 . S
C2923 C2922 1.415 . S
H2924 C2921 0.999 . S
H2925 C2906 0.913 . S
H2926 C2944 0.951 . S
H2927 C2946 0.951 . S
H2928 C2948 0.950 . S
H2929 C2949 0.950 . S
H2930 C2951 0.950 . S
H2931 C2954 0.950 . S
H2932 C2955 0.950 . S
H2933 C2957 0.950 . S
H2934 C2958 0.950 . S
H2935 C2959 0.951 . S
H2936 C2961 0.951 . S
H2937 C2963 0.950 . S
H2938 C2964 0.950 . S
H2939 C2966 0.950 . S
H2940 C2969 0.950 . S
H2941 C2970 0.950 . S
H2942 C2972 0.950 . S
H2943 C2973 0.950 . S
C2944 H2926 0.951 . S
C2944 C2945 1.366 . S
C2944 C2946 1.388 . S
C2945 C2944 1.366 . S
C2945 C2949 1.385 . S
C2946 H2927 0.951 . S
C2946 C2944 1.388 . S
C2946 C2947 1.366 . S
C2947 C2946 1.366 . S
C2947 C2948 1.414 . S
C2947 C2950 1.499 . S
C2948 H2928 0.950 . S
C2948 C2947 1.414 . S
C2948 C2949 1.374 . S
C2949 H2929 0.950 . S
C2949 C2945 1.385 . S
C2949 C2948 1.374 . S
C2950 C2947 1.499 . S
C2950 C2951 1.373 . S
C2950 C2952 1.389 . S
C2951 H2930 0.950 . S
C2951 C2950 1.373 . S
C2951 C2967 1.377 . S
C2952 C2950 1.389 . S
C2952 C2953 1.524 . S
C2952 C2966 1.377 . S
C2953 C2952 1.524 . S
C2953 C2954 1.397 . S
C2953 C2958 1.363 . S
C2954 H2931 0.950 . S
C2954 C2953 1.397 . S
C2954 C2955 1.334 . S
C2955 H2932 0.950 . S
C2955 C2954 1.334 . S
C2955 C2956 1.287 . S
C2956 C2955 1.287 . S
C2956 C2957 1.524 . S
C2956 H2975 0.913 . S
C2957 H2933 0.950 . S
C2957 C2956 1.524 . S
C2957 C2958 1.415 . S
C2958 H2934 0.950 . S
C2958 C2953 1.363 . S
C2958 C2957 1.415 . S
C2959 H2935 0.951 . S
C2959 C2960 1.366 . S
C2959 C2961 1.388 . S
C2960 C2959 1.366 . S
C2960 C2964 1.385 . S
C2961 H2936 0.951 . S
C2961 C2959 1.388 . S
C2961 C2962 1.366 . S
C2962 C2961 1.366 . S
C2962 C2963 1.414 . S
C2962 C2965 1.499 . S
C2963 H2937 0.950 . S
C2963 C2962 1.414 . S
C2963 C2964 1.374 . S
C2964 H2938 0.950 . S
C2964 C2960 1.385 . S
C2964 C2963 1.374 . S
C2965 C2962 1.499 . S
C2965 C2966 1.373 . S
C2965 C2967 1.389 . S
C2966 H2939 0.950 . S
C2966 C2952 1.377 . S
C2966 C2965 1.373 . S
C2967 C2951 1.377 . S
C2967 C2965 1.389 . S
C2967 C2968 1.524 . S
C2968 C2967 1.524 . S
C2968 C2969 1.397 . S
C2968 C2973 1.363 . S
C2969 H2940 0.950 . S
C2969 C2968 1.397 . S
C2969 C2970 1.334 . S
C2970 H2941 0.950 . S
C2970 C2969 1.334 . S
C2970 C2971 1.287 . S
C2971 C2970 1.287 . S
C2971 C2972 1.524 . S
C2971 H2974 0.999 . S
C2972 H2942 0.950 . S
C2972 C2971 1.524 . S
C2972 C2973 1.415 . S
C2973 H2943 0.950 . S
C2973 C2968 1.363 . S
C2973 C2972 1.415 . S
H2974 C2971 0.999 . S
H2975 C2956 0.913 . S
H2976 C2994 0.951 . S
H2977 C2996 0.951 . S
H2978 C2998 0.950 . S
H2979 C2999 0.950 . S
H2980 C3001 0.950 . S
H2981 C3004 0.950 . S
H2982 C3005 0.950 . S
H2983 C3007 0.950 . S
H2984 C3008 0.950 . S
H2985 C3009 0.951 . S
H2986 C3011 0.951 . S
H2987 C3013 0.950 . S
H2988 C3014 0.950 . S
H2989 C3016 0.950 . S
H2990 C3019 0.950 . S
H2991 C3020 0.950 . S
H2992 C3022 0.950 . S
H2993 C3023 0.950 . S
C2994 H2976 0.951 . S
C2994 C2995 1.366 . S
C2994 C2996 1.388 . S
C2995 C2994 1.366 . S
C2995 C2999 1.385 . S
C2996 H2977 0.951 . S
C2996 C2994 1.388 . S
C2996 C2997 1.366 . S
C2997 C2996 1.366 . S
C2997 C2998 1.414 . S
C2997 C3000 1.499 . S
C2998 H2978 0.950 . S
C2998 C2997 1.414 . S
C2998 C2999 1.374 . S
C2999 H2979 0.950 . S
C2999 C2995 1.385 . S
C2999 C2998 1.374 . S
C3000 C2997 1.499 . S
C3000 C3001 1.373 . S
C3000 C3002 1.389 . S
C3001 H2980 0.950 . S
C3001 C3000 1.373 . S
C3001 C3017 1.377 . S
C3002 C3000 1.389 . S
C3002 C3003 1.524 . S
C3002 C3016 1.377 . S
C3003 C3002 1.524 . S
C3003 C3004 1.397 . S
C3003 C3008 1.363 . S
C3004 H2981 0.950 . S
C3004 C3003 1.397 . S
C3004 C3005 1.334 . S
C3005 H2982 0.950 . S
C3005 C3004 1.334 . S
C3005 C3006 1.287 . S
C3006 C3005 1.287 . S
C3006 C3007 1.524 . S
C3006 H3025 0.913 . S
C3007 H2983 0.950 . S
C3007 C3006 1.524 . S
C3007 C3008 1.415 . S
C3008 H2984 0.950 . S
C3008 C3003 1.363 . S
C3008 C3007 1.415 . S
C3009 H2985 0.951 . S
C3009 C3010 1.366 . S
C3009 C3011 1.388 . S
C3010 C3009 1.366 . S
C3010 C3014 1.385 . S
C3011 H2986 0.951 . S
C3011 C3009 1.388 . S
C3011 C3012 1.366 . S
C3012 C3011 1.366 . S
C3012 C3013 1.414 . S
C3012 C3015 1.499 . S
C3013 H2987 0.950 . S
C3013 C3012 1.414 . S
C3013 C3014 1.374 . S
C3014 H2988 0.950 . S
C3014 C3010 1.385 . S
C3014 C3013 1.374 . S
C3015 C3012 1.499 . S
C3015 C3016 1.373 . S
C3015 C3017 1.389 . S
C3016 H2989 0.950 . S
C3016 C3002 1.377 . S
C3016 C3015 1.373 . S
C3017 C3001 1.377 . S
C3017 C3015 1.389 . S
C3017 C3018 1.524 . S
C3018 C3017 1.524 . S
C3018 C3019 1.397 . S
C3018 C3023 1.363 . S
C3019 H2990 0.950 . S
C3019 C3018 1.397 . S
C3019 C3020 1.334 . S
C3020 H2991 0.950 . S
C3020 C3019 1.334 . S
C3020 C3021 1.287 . S
C3021 C3020 1.287 . S
C3021 C3022 1.524 . S
C3021 H3024 0.999 . S
C3022 H2992 0.950 . S
C3022 C3021 1.524 . S
C3022 C3023 1.415 . S
C3023 H2993 0.950 . S
C3023 C3018 1.363 . S
C3023 C3022 1.415 . S
H3024 C3021 0.999 . S
H3025 C3006 0.913 . S
H3026 C3044 0.951 . S
H3027 C3046 0.951 . S
H3028 C3048 0.950 . S
H3029 C3049 0.950 . S
H3030 C3051 0.950 . S
H3031 C3054 0.950 . S
H3032 C3055 0.950 . S
H3033 C3057 0.950 . S
H3034 C3058 0.950 . S
H3035 C3059 0.951 . S
H3036 C3061 0.951 . S
H3037 C3063 0.950 . S
H3038 C3064 0.950 . S
H3039 C3066 0.950 . S
H3040 C3069 0.950 . S
H3041 C3070 0.950 . S
H3042 C3072 0.950 . S
H3043 C3073 0.950 . S
C3044 H3026 0.951 . S
C3044 C3045 1.366 . S
C3044 C3046 1.388 . S
C3045 C3044 1.366 . S
C3045 C3049 1.385 . S
C3046 H3027 0.951 . S
C3046 C3044 1.388 . S
C3046 C3047 1.366 . S
C3047 C3046 1.366 . S
C3047 C3048 1.414 . S
C3047 C3050 1.499 . S
C3048 H3028 0.950 . S
C3048 C3047 1.414 . S
C3048 C3049 1.374 . S
C3049 H3029 0.950 . S
C3049 C3045 1.385 . S
C3049 C3048 1.374 . S
C3050 C3047 1.499 . S
C3050 C3051 1.373 . S
C3050 C3052 1.389 . S
C3051 H3030 0.950 . S
C3051 C3050 1.373 . S
C3051 C3067 1.377 . S
C3052 C3050 1.389 . S
C3052 C3053 1.524 . S
C3052 C3066 1.377 . S
C3053 C3052 1.524 . S
C3053 C3054 1.397 . S
C3053 C3058 1.363 . S
C3054 H3031 0.950 . S
C3054 C3053 1.397 . S
C3054 C3055 1.334 . S
C3055 H3032 0.950 . S
C3055 C3054 1.334 . S
C3055 C3056 1.287 . S
C3056 C3055 1.287 . S
C3056 C3057 1.524 . S
C3056 H3075 0.913 . S
C3057 H3033 0.950 . S
C3057 C3056 1.524 . S
C3057 C3058 1.415 . S
C3058 H3034 0.950 . S
C3058 C3053 1.363 . S
C3058 C3057 1.415 . S
C3059 H3035 0.951 . S
C3059 C3060 1.366 . S
C3059 C3061 1.388 . S
C3060 C3059 1.366 . S
C3060 C3064 1.385 . S
C3061 H3036 0.951 . S
C3061 C3059 1.388 . S
C3061 C3062 1.366 . S
C3062 C3061 1.366 . S
C3062 C3063 1.414 . S
C3062 C3065 1.499 . S
C3063 H3037 0.950 . S
C3063 C3062 1.414 . S
C3063 C3064 1.374 . S
C3064 H3038 0.950 . S
C3064 C3060 1.385 . S
C3064 C3063 1.374 . S
C3065 C3062 1.499 . S
C3065 C3066 1.373 . S
C3065 C3067 1.389 . S
C3066 H3039 0.950 . S
C3066 C3052 1.377 . S
C3066 C3065 1.373 . S
C3067 C3051 1.377 . S
C3067 C3065 1.389 . S
C3067 C3068 1.524 . S
C3068 C3067 1.524 . S
C3068 C3069 1.397 . S
C3068 C3073 1.363 . S
C3069 H3040 0.950 . S
C3069 C3068 1.397 . S
C3069 C3070 1.334 . S
C3070 H3041 0.950 . S
C3070 C3069 1.334 . S
C3070 C3071 1.287 . S
C3071 C3070 1.287 . S
C3071 C3072 1.524 . S
C3071 H3074 0.999 . S
C3072 H3042 0.950 . S
C3072 C3071 1.524 . S
C3072 C3073 1.415 . S
C3073 H3043 0.950 . S
C3073 C3068 1.363 . S
C3073 C3072 1.415 . S
H3074 C3071 0.999 . S
H3075 C3056 0.913 . S
H3076 C3094 0.951 . S
H3077 C3096 0.951 . S
H3078 C3098 0.950 . S
H3079 C3099 0.950 . S
H3080 C3101 0.950 . S
H3081 C3104 0.950 . S
H3082 C3105 0.950 . S
H3083 C3107 0.950 . S
H3084 C3108 0.950 . S
H3085 C3109 0.951 . S
H3086 C3111 0.951 . S
H3087 C3113 0.950 . S
H3088 C3114 0.950 . S
H3089 C3116 0.950 . S
H3090 C3119 0.950 . S
H3091 C3120 0.950 . S
H3092 C3122 0.950 . S
H3093 C3123 0.950 . S
C3094 H3076 0.951 . S
C3094 C3095 1.366 . S
C3094 C3096 1.388 . S
C3095 C3094 1.366 . S
C3095 C3099 1.385 . S
C3096 H3077 0.951 . S
C3096 C3094 1.388 . S
C3096 C3097 1.366 . S
C3097 C3096 1.366 . S
C3097 C3098 1.414 . S
C3097 C3100 1.499 . S
C3098 H3078 0.950 . S
C3098 C3097 1.414 . S
C3098 C3099 1.374 . S
C3099 H3079 0.950 . S
C3099 C3095 1.385 . S
C3099 C3098 1.374 . S
C3100 C3097 1.499 . S
C3100 C3101 1.373 . S
C3100 C3102 1.389 . S
C3101 H3080 0.950 . S
C3101 C3100 1.373 . S
C3101 C3117 1.377 . S
C3102 C3100 1.389 . S
C3102 C3103 1.524 . S
C3102 C3116 1.377 . S
C3103 C3102 1.524 . S
C3103 C3104 1.397 . S
C3103 C3108 1.363 . S
C3104 H3081 0.950 . S
C3104 C3103 1.397 . S
C3104 C3105 1.334 . S
C3105 H3082 0.950 . S
C3105 C3104 1.334 . S
C3105 C3106 1.287 . S
C3106 C3105 1.287 . S
C3106 C3107 1.524 . S
C3106 H3125 0.913 . S
C3107 H3083 0.950 . S
C3107 C3106 1.524 . S
C3107 C3108 1.415 . S
C3108 H3084 0.950 . S
C3108 C3103 1.363 . S
C3108 C3107 1.415 . S
C3109 H3085 0.951 . S
C3109 C3110 1.366 . S
C3109 C3111 1.388 . S
C3110 C3109 1.366 . S
C3110 C3114 1.385 . S
C3111 H3086 0.951 . S
C3111 C3109 1.388 . S
C3111 C3112 1.366 . S
C3112 C3111 1.366 . S
C3112 C3113 1.414 . S
C3112 C3115 1.499 . S
C3113 H3087 0.950 . S
C3113 C3112 1.414 . S
C3113 C3114 1.374 . S
C3114 H3088 0.950 . S
C3114 C3110 1.385 . S
C3114 C3113 1.374 . S
C3115 C3112 1.499 . S
C3115 C3116 1.373 . S
C3115 C3117 1.389 . S
C3116 H3089 0.950 . S
C3116 C3102 1.377 . S
C3116 C3115 1.373 . S
C3117 C3101 1.377 . S
C3117 C3115 1.389 . S
C3117 C3118 1.524 . S
C3118 C3117 1.524 . S
C3118 C3119 1.397 . S
C3118 C3123 1.363 . S
C3119 H3090 0.950 . S
C3119 C3118 1.397 . S
C3119 C3120 1.334 . S
C3120 H3091 0.950 . S
C3120 C3119 1.334 . S
C3120 C3121 1.287 . S
C3121 C3120 1.287 . S
C3121 C3122 1.524 . S
C3121 H3124 0.999 . S
C3122 H3092 0.950 . S
C3122 C3121 1.524 . S
C3122 C3123 1.415 . S
C3123 H3093 0.950 . S
C3123 C3118 1.363 . S
C3123 C3122 1.415 . S
H3124 C3121 0.999 . S
H3125 C3106 0.913 . S
H3126 C3144 0.951 . S
H3127 C3146 0.951 . S
H3128 C3148 0.950 . S
H3129 C3149 0.950 . S
H3130 C3151 0.950 . S
H3131 C3154 0.950 . S
H3132 C3155 0.950 . S
H3133 C3157 0.950 . S
H3134 C3158 0.950 . S
H3135 C3159 0.951 . S
H3136 C3161 0.951 . S
H3137 C3163 0.950 . S
H3138 C3164 0.950 . S
H3139 C3166 0.950 . S
H3140 C3169 0.950 . S
H3141 C3170 0.950 . S
H3142 C3172 0.950 . S
H3143 C3173 0.950 . S
C3144 H3126 0.951 . S
C3144 C3145 1.366 . S
C3144 C3146 1.388 . S
C3145 C3144 1.366 . S
C3145 C3149 1.385 . S
C3146 H3127 0.951 . S
C3146 C3144 1.388 . S
C3146 C3147 1.366 . S
C3147 C3146 1.366 . S
C3147 C3148 1.414 . S
C3147 C3150 1.499 . S
C3148 H3128 0.950 . S
C3148 C3147 1.414 . S
C3148 C3149 1.374 . S
C3149 H3129 0.950 . S
C3149 C3145 1.385 . S
C3149 C3148 1.374 . S
C3150 C3147 1.499 . S
C3150 C3151 1.373 . S
C3150 C3152 1.389 . S
C3151 H3130 0.950 . S
C3151 C3150 1.373 . S
C3151 C3167 1.377 . S
C3152 C3150 1.389 . S
C3152 C3153 1.524 . S
C3152 C3166 1.377 . S
C3153 C3152 1.524 . S
C3153 C3154 1.397 . S
C3153 C3158 1.363 . S
C3154 H3131 0.950 . S
C3154 C3153 1.397 . S
C3154 C3155 1.334 . S
C3155 H3132 0.950 . S
C3155 C3154 1.334 . S
C3155 C3156 1.287 . S
C3156 C3155 1.287 . S
C3156 C3157 1.524 . S
C3156 H3175 0.913 . S
C3157 H3133 0.950 . S
C3157 C3156 1.524 . S
C3157 C3158 1.415 . S
C3158 H3134 0.950 . S
C3158 C3153 1.363 . S
C3158 C3157 1.415 . S
C3159 H3135 0.951 . S
C3159 C3160 1.366 . S
C3159 C3161 1.388 . S
C3160 C3159 1.366 . S
C3160 C3164 1.385 . S
C3161 H3136 0.951 . S
C3161 C3159 1.388 . S
C3161 C3162 1.366 . S
C3162 C3161 1.366 . S
C3162 C3163 1.414 . S
C3162 C3165 1.499 . S
C3163 H3137 0.950 . S
C3163 C3162 1.414 . S
C3163 C3164 1.374 . S
C3164 H3138 0.950 . S
C3164 C3160 1.385 . S
C3164 C3163 1.374 . S
C3165 C3162 1.499 . S
C3165 C3166 1.373 . S
C3165 C3167 1.389 . S
C3166 H3139 0.950 . S
C3166 C3152 1.377 . S
C3166 C3165 1.373 . S
C3167 C3151 1.377 . S
C3167 C3165 1.389 . S
C3167 C3168 1.524 . S
C3168 C3167 1.524 . S
C3168 C3169 1.397 . S
C3168 C3173 1.363 . S
C3169 H3140 0.950 . S
C3169 C3168 1.397 . S
C3169 C3170 1.334 . S
C3170 H3141 0.950 . S
C3170 C3169 1.334 . S
C3170 C3171 1.287 . S
C3171 C3170 1.287 . S
C3171 C3172 1.524 . S
C3171 H3174 0.999 . S
C3172 H3142 0.950 . S
C3172 C3171 1.524 . S
C3172 C3173 1.415 . S
C3173 H3143 0.950 . S
C3173 C3168 1.363 . S
C3173 C3172 1.415 . S
H3174 C3171 0.999 . S
H3175 C3156 0.913 . S
H3176 C3194 0.951 . S
H3177 C3196 0.951 . S
H3178 C3198 0.950 . S
H3179 C3199 0.950 . S
H3180 C3201 0.950 . S
H3181 C3204 0.950 . S
H3182 C3205 0.950 . S
H3183 C3207 0.950 . S
H3184 C3208 0.950 . S
H3185 C3209 0.951 . S
H3186 C3211 0.951 . S
H3187 C3213 0.950 . S
H3188 C3214 0.950 . S
H3189 C3216 0.950 . S
H3190 C3219 0.950 . S
H3191 C3220 0.950 . S
H3192 C3222 0.950 . S
H3193 C3223 0.950 . S
C3194 H3176 0.951 . S
C3194 C3195 1.366 . S
C3194 C3196 1.388 . S
C3195 C3194 1.366 . S
C3195 C3199 1.385 . S
C3196 H3177 0.951 . S
C3196 C3194 1.388 . S
C3196 C3197 1.366 . S
C3197 C3196 1.366 . S
C3197 C3198 1.414 . S
C3197 C3200 1.499 . S
C3198 H3178 0.950 . S
C3198 C3197 1.414 . S
C3198 C3199 1.374 . S
C3199 H3179 0.950 . S
C3199 C3195 1.385 . S
C3199 C3198 1.374 . S
C3200 C3197 1.499 . S
C3200 C3201 1.373 . S
C3200 C3202 1.389 . S
C3201 H3180 0.950 . S
C3201 C3200 1.373 . S
C3201 C3217 1.377 . S
C3202 C3200 1.389 . S
C3202 C3203 1.524 . S
C3202 C3216 1.377 . S
C3203 C3202 1.524 . S
C3203 C3204 1.397 . S
C3203 C3208 1.363 . S
C3204 H3181 0.950 . S
C3204 C3203 1.397 . S
C3204 C3205 1.334 . S
C3205 H3182 0.950 . S
C3205 C3204 1.334 . S
C3205 C3206 1.287 . S
C3206 C3205 1.287 . S
C3206 C3207 1.524 . S
C3206 H3225 0.913 . S
C3207 H3183 0.950 . S
C3207 C3206 1.524 . S
C3207 C3208 1.415 . S
C3208 H3184 0.950 . S
C3208 C3203 1.363 . S
C3208 C3207 1.415 . S
C3209 H3185 0.951 . S
C3209 C3210 1.366 . S
C3209 C3211 1.388 . S
C3210 C3209 1.366 . S
C3210 C3214 1.385 . S
C3211 H3186 0.951 . S
C3211 C3209 1.388 . S
C3211 C3212 1.366 . S
C3212 C3211 1.366 . S
C3212 C3213 1.414 . S
C3212 C3215 1.499 . S
C3213 H3187 0.950 . S
C3213 C3212 1.414 . S
C3213 C3214 1.374 . S
C3214 H3188 0.950 . S
C3214 C3210 1.385 . S
C3214 C3213 1.374 . S
C3215 C3212 1.499 . S
C3215 C3216 1.373 . S
C3215 C3217 1.389 . S
C3216 H3189 0.950 . S
C3216 C3202 1.377 . S
C3216 C3215 1.373 . S
C3217 C3201 1.377 . S
C3217 C3215 1.389 . S
C3217 C3218 1.524 . S
C3218 C3217 1.524 . S
C3218 C3219 1.397 . S
C3218 C3223 1.363 . S
C3219 H3190 0.950 . S
C3219 C3218 1.397 . S
C3219 C3220 1.334 . S
C3220 H3191 0.950 . S
C3220 C3219 1.334 . S
C3220 C3221 1.287 . S
C3221 C3220 1.287 . S
C3221 C3222 1.524 . S
C3221 H3224 0.999 . S
C3222 H3192 0.950 . S
C3222 C3221 1.524 . S
C3222 C3223 1.415 . S
C3223 H3193 0.950 . S
C3223 C3218 1.363 . S
C3223 C3222 1.415 . S
H3224 C3221 0.999 . S
H3225 C3206 0.913 . S
H3226 C3244 0.951 . S
H3227 C3246 0.951 . S
H3228 C3248 0.950 . S
H3229 C3249 0.950 . S
H3230 C3251 0.950 . S
H3231 C3254 0.950 . S
H3232 C3255 0.950 . S
H3233 C3257 0.950 . S
H3234 C3258 0.950 . S
H3235 C3259 0.951 . S
H3236 C3261 0.951 . S
H3237 C3263 0.950 . S
H3238 C3264 0.950 . S
H3239 C3266 0.950 . S
H3240 C3269 0.950 . S
H3241 C3270 0.950 . S
H3242 C3272 0.950 . S
H3243 C3273 0.950 . S
C3244 H3226 0.951 . S
C3244 C3245 1.366 . S
C3244 C3246 1.388 . S
C3245 C3244 1.366 . S
C3245 C3249 1.385 . S
C3246 H3227 0.951 . S
C3246 C3244 1.388 . S
C3246 C3247 1.366 . S
C3247 C3246 1.366 . S
C3247 C3248 1.414 . S
C3247 C3250 1.499 . S
C3248 H3228 0.950 . S
C3248 C3247 1.414 . S
C3248 C3249 1.374 . S
C3249 H3229 0.950 . S
C3249 C3245 1.385 . S
C3249 C3248 1.374 . S
C3250 C3247 1.499 . S
C3250 C3251 1.373 . S
C3250 C3252 1.389 . S
C3251 H3230 0.950 . S
C3251 C3250 1.373 . S
C3251 C3267 1.377 . S
C3252 C3250 1.389 . S
C3252 C3253 1.524 . S
C3252 C3266 1.377 . S
C3253 C3252 1.524 . S
C3253 C3254 1.397 . S
C3253 C3258 1.363 . S
C3254 H3231 0.950 . S
C3254 C3253 1.397 . S
C3254 C3255 1.334 . S
C3255 H3232 0.950 . S
C3255 C3254 1.334 . S
C3255 C3256 1.287 . S
C3256 C3255 1.287 . S
C3256 C3257 1.524 . S
C3256 H3275 0.913 . S
C3257 H3233 0.950 . S
C3257 C3256 1.524 . S
C3257 C3258 1.415 . S
C3258 H3234 0.950 . S
C3258 C3253 1.363 . S
C3258 C3257 1.415 . S
C3259 H3235 0.951 . S
C3259 C3260 1.366 . S
C3259 C3261 1.388 . S
C3260 C3259 1.366 . S
C3260 C3264 1.385 . S
C3261 H3236 0.951 . S
C3261 C3259 1.388 . S
C3261 C3262 1.366 . S
C3262 C3261 1.366 . S
C3262 C3263 1.414 . S
C3262 C3265 1.499 . S
C3263 H3237 0.950 . S
C3263 C3262 1.414 . S
C3263 C3264 1.374 . S
C3264 H3238 0.950 . S
C3264 C3260 1.385 . S
C3264 C3263 1.374 . S
C3265 C3262 1.499 . S
C3265 C3266 1.373 . S
C3265 C3267 1.389 . S
C3266 H3239 0.950 . S
C3266 C3252 1.377 . S
C3266 C3265 1.373 . S
C3267 C3251 1.377 . S
C3267 C3265 1.389 . S
C3267 C3268 1.524 . S
C3268 C3267 1.524 . S
C3268 C3269 1.397 . S
C3268 C3273 1.363 . S
C3269 H3240 0.950 . S
C3269 C3268 1.397 . S
C3269 C3270 1.334 . S
C3270 H3241 0.950 . S
C3270 C3269 1.334 . S
C3270 C3271 1.287 . S
C3271 C3270 1.287 . S
C3271 C3272 1.524 . S
C3271 H3274 0.999 . S
C3272 H3242 0.950 . S
C3272 C3271 1.524 . S
C3272 C3273 1.415 . S
C3273 H3243 0.950 . S
C3273 C3268 1.363 . S
C3273 C3272 1.415 . S
H3274 C3271 0.999 . S
H3275 C3256 0.913 . S
H3276 C3294 0.951 . S
H3277 C3296 0.951 . S
H3278 C3298 0.950 . S
H3279 C3299 0.950 . S
H3280 C3301 0.950 . S
H3281 C3304 0.950 . S
H3282 C3305 0.950 . S
H3283 C3307 0.950 . S
H3284 C3308 0.950 . S
H3285 C3309 0.951 . S
H3286 C3311 0.951 . S
H3287 C3313 0.950 . S
H3288 C3314 0.950 . S
H3289 C3316 0.950 . S
H3290 C3319 0.950 . S
H3291 C3320 0.950 . S
H3292 C3322 0.950 . S
H3293 C3323 0.950 . S
C3294 H3276 0.951 . S
C3294 C3295 1.366 . S
C3294 C3296 1.388 . S
C3295 C3294 1.366 . S
C3295 C3299 1.385 . S
C3296 H3277 0.951 . S
C3296 C3294 1.388 . S
C3296 C3297 1.366 . S
C3297 C3296 1.366 . S
C3297 C3298 1.414 . S
C3297 C3300 1.499 . S
C3298 H3278 0.950 . S
C3298 C3297 1.414 . S
C3298 C3299 1.374 . S
C3299 H3279 0.950 . S
C3299 C3295 1.385 . S
C3299 C3298 1.374 . S
C3300 C3297 1.499 . S
C3300 C3301 1.373 . S
C3300 C3302 1.389 . S
C3301 H3280 0.950 . S
C3301 C3300 1.373 . S
C3301 C3317 1.377 . S
C3302 C3300 1.389 . S
C3302 C3303 1.524 . S
C3302 C3316 1.377 . S
C3303 C3302 1.524 . S
C3303 C3304 1.397 . S
C3303 C3308 1.363 . S
C3304 H3281 0.950 . S
C3304 C3303 1.397 . S
C3304 C3305 1.334 . S
C3305 H3282 0.950 . S
C3305 C3304 1.334 . S
C3305 C3306 1.287 . S
C3306 C3305 1.287 . S
C3306 C3307 1.524 . S
C3306 H3325 0.913 . S
C3307 H3283 0.950 . S
C3307 C3306 1.524 . S
C3307 C3308 1.415 . S
C3308 H3284 0.950 . S
C3308 C3303 1.363 . S
C3308 C3307 1.415 . S
C3309 H3285 0.951 . S
C3309 C3310 1.366 . S
C3309 C3311 1.388 . S
C3310 C3309 1.366 . S
C3310 C3314 1.385 . S
C3311 H3286 0.951 . S
C3311 C3309 1.388 . S
C3311 C3312 1.366 . S
C3312 C3311 1.366 . S
C3312 C3313 1.414 . S
C3312 C3315 1.499 . S
C3313 H3287 0.950 . S
C3313 C3312 1.414 . S
C3313 C3314 1.374 . S
C3314 H3288 0.950 . S
C3314 C3310 1.385 . S
C3314 C3313 1.374 . S
C3315 C3312 1.499 . S
C3315 C3316 1.373 . S
C3315 C3317 1.389 . S
C3316 H3289 0.950 . S
C3316 C3302 1.377 . S
C3316 C3315 1.373 . S
C3317 C3301 1.377 . S
C3317 C3315 1.389 . S
C3317 C3318 1.524 . S
C3318 C3317 1.524 . S
C3318 C3319 1.397 . S
C3318 C3323 1.363 . S
C3319 H3290 0.950 . S
C3319 C3318 1.397 . S
C3319 C3320 1.334 . S
C3320 H3291 0.950 . S
C3320 C3319 1.334 . S
C3320 C3321 1.287 . S
C3321 C3320 1.287 . S
C3321 C3322 1.524 . S
C3321 H3324 0.999 1_565 S
C3322 H3292 0.950 . S
C3322 C3321 1.524 . S
C3322 C3323 1.415 . S
C3323 H3293 0.950 . S
C3323 C3318 1.363 . S
C3323 C3322 1.415 . S
H3324 C3321 0.999 1_545 S
H3325 C3306 0.913 . S
H3326 C3344 0.951 . S
H3327 C3346 0.951 . S
H3328 C3348 0.950 . S
H3329 C3349 0.950 . S
H3330 C3351 0.950 . S
H3331 C3354 0.950 . S
H3332 C3355 0.950 . S
H3333 C3357 0.950 . S
H3334 C3358 0.950 . S
H3335 C3359 0.951 . S
H3336 C3361 0.951 . S
H3337 C3363 0.950 . S
H3338 C3364 0.950 . S
H3339 C3366 0.950 . S
H3340 C3369 0.950 . S
H3341 C3370 0.950 . S
H3342 C3372 0.950 . S
H3343 C3373 0.950 . S
C3344 H3326 0.951 . S
C3344 C3345 1.366 . S
C3344 C3346 1.388 . S
C3345 C3344 1.366 . S
C3345 C3349 1.385 . S
C3346 H3327 0.951 . S
C3346 C3344 1.388 . S
C3346 C3347 1.366 . S
C3347 C3346 1.366 . S
C3347 C3348 1.414 . S
C3347 C3350 1.499 . S
C3348 H3328 0.950 . S
C3348 C3347 1.414 . S
C3348 C3349 1.374 . S
C3349 H3329 0.950 . S
C3349 C3345 1.385 . S
C3349 C3348 1.374 . S
C3350 C3347 1.499 . S
C3350 C3351 1.373 . S
C3350 C3352 1.389 . S
C3351 H3330 0.950 . S
C3351 C3350 1.373 . S
C3351 C3367 1.377 . S
C3352 C3350 1.389 . S
C3352 C3353 1.524 . S
C3352 C3366 1.377 . S
C3353 C3352 1.524 . S
C3353 C3354 1.397 . S
C3353 C3358 1.363 . S
C3354 H3331 0.950 . S
C3354 C3353 1.397 . S
C3354 C3355 1.334 . S
C3355 H3332 0.950 . S
C3355 C3354 1.334 . S
C3355 C3356 1.287 . S
C3356 C3355 1.287 . S
C3356 C3357 1.524 . S
C3356 H3375 0.913 . S
C3357 H3333 0.950 . S
C3357 C3356 1.524 . S
C3357 C3358 1.415 . S
C3358 H3334 0.950 . S
C3358 C3353 1.363 . S
C3358 C3357 1.415 . S
C3359 H3335 0.951 . S
C3359 C3360 1.366 . S
C3359 C3361 1.388 . S
C3360 C3359 1.366 . S
C3360 C3364 1.385 . S
C3361 H3336 0.951 . S
C3361 C3359 1.388 . S
C3361 C3362 1.366 . S
C3362 C3361 1.366 . S
C3362 C3363 1.414 . S
C3362 C3365 1.499 . S
C3363 H3337 0.950 . S
C3363 C3362 1.414 . S
C3363 C3364 1.374 . S
C3364 H3338 0.950 . S
C3364 C3360 1.385 . S
C3364 C3363 1.374 . S
C3365 C3362 1.499 . S
C3365 C3366 1.373 . S
C3365 C3367 1.389 . S
C3366 H3339 0.950 . S
C3366 C3352 1.377 . S
C3366 C3365 1.373 . S
C3367 C3351 1.377 . S
C3367 C3365 1.389 . S
C3367 C3368 1.524 . S
C3368 C3367 1.524 . S
C3368 C3369 1.397 . S
C3368 C3373 1.363 . S
C3369 H3340 0.950 . S
C3369 C3368 1.397 . S
C3369 C3370 1.334 . S
C3370 H3341 0.950 . S
C3370 C3369 1.334 . S
C3370 C3371 1.287 . S
C3371 C3370 1.287 . S
C3371 C3372 1.524 . S
C3371 H3374 0.999 . S
C3372 H3342 0.950 . S
C3372 C3371 1.524 . S
C3372 C3373 1.415 . S
C3373 H3343 0.950 . S
C3373 C3368 1.363 . S
C3373 C3372 1.415 . S
H3374 C3371 0.999 . S
H3375 C3356 0.913 . S
H3376 C3394 0.951 . S
H3377 C3396 0.951 . S
H3378 C3398 0.950 . S
H3379 C3399 0.950 . S
H3380 C3401 0.950 . S
H3381 C3404 0.950 . S
H3382 C3405 0.950 . S
H3383 C3407 0.950 . S
H3384 C3408 0.950 . S
H3385 C3409 0.951 . S
H3386 C3411 0.951 . S
H3387 C3413 0.950 . S
H3388 C3414 0.950 . S
H3389 C3416 0.950 . S
H3390 C3419 0.950 . S
H3391 C3420 0.950 . S
H3392 C3422 0.950 . S
H3393 C3423 0.950 . S
C3394 H3376 0.951 . S
C3394 C3395 1.366 . S
C3394 C3396 1.388 . S
C3395 C3394 1.366 . S
C3395 C3399 1.385 . S
C3396 H3377 0.951 . S
C3396 C3394 1.388 . S
C3396 C3397 1.366 . S
C3397 C3396 1.366 . S
C3397 C3398 1.414 . S
C3397 C3400 1.499 . S
C3398 H3378 0.950 . S
C3398 C3397 1.414 . S
C3398 C3399 1.374 . S
C3399 H3379 0.950 . S
C3399 C3395 1.385 . S
C3399 C3398 1.374 . S
C3400 C3397 1.499 . S
C3400 C3401 1.373 . S
C3400 C3402 1.389 . S
C3401 H3380 0.950 . S
C3401 C3400 1.373 . S
C3401 C3417 1.377 . S
C3402 C3400 1.389 . S
C3402 C3403 1.524 . S
C3402 C3416 1.377 . S
C3403 C3402 1.524 . S
C3403 C3404 1.397 . S
C3403 C3408 1.363 . S
C3404 H3381 0.950 . S
C3404 C3403 1.397 . S
C3404 C3405 1.334 . S
C3405 H3382 0.950 . S
C3405 C3404 1.334 . S
C3405 C3406 1.287 . S
C3406 C3405 1.287 . S
C3406 C3407 1.524 . S
C3406 H3425 0.913 . S
C3407 H3383 0.950 . S
C3407 C3406 1.524 . S
C3407 C3408 1.415 . S
C3408 H3384 0.950 . S
C3408 C3403 1.363 . S
C3408 C3407 1.415 . S
C3409 H3385 0.951 . S
C3409 C3410 1.366 . S
C3409 C3411 1.388 . S
C3410 C3409 1.366 . S
C3410 C3414 1.385 . S
C3411 H3386 0.951 . S
C3411 C3409 1.388 . S
C3411 C3412 1.366 . S
C3412 C3411 1.366 . S
C3412 C3413 1.414 . S
C3412 C3415 1.499 . S
C3413 H3387 0.950 . S
C3413 C3412 1.414 . S
C3413 C3414 1.374 . S
C3414 H3388 0.950 . S
C3414 C3410 1.385 . S
C3414 C3413 1.374 . S
C3415 C3412 1.499 . S
C3415 C3416 1.373 . S
C3415 C3417 1.389 . S
C3416 H3389 0.950 . S
C3416 C3402 1.377 . S
C3416 C3415 1.373 . S
C3417 C3401 1.377 . S
C3417 C3415 1.389 . S
C3417 C3418 1.524 . S
C3418 C3417 1.524 . S
C3418 C3419 1.397 . S
C3418 C3423 1.363 . S
C3419 H3390 0.950 . S
C3419 C3418 1.397 . S
C3419 C3420 1.334 . S
C3420 H3391 0.950 . S
C3420 C3419 1.334 . S
C3420 C3421 1.287 . S
C3421 C3420 1.287 . S
C3421 C3422 1.524 . S
C3421 H3424 0.999 . S
C3422 H3392 0.950 . S
C3422 C3421 1.524 . S
C3422 C3423 1.415 . S
C3423 H3393 0.950 . S
C3423 C3418 1.363 . S
C3423 C3422 1.415 . S
H3424 C3421 0.999 . S
H3425 C3406 0.913 . S
H3426 C3444 0.951 . S
H3427 C3446 0.951 . S
H3428 C3448 0.950 . S
H3429 C3449 0.950 . S
H3430 C3451 0.950 . S
H3431 C3454 0.950 . S
H3432 C3455 0.950 . S
H3433 C3457 0.950 . S
H3434 C3458 0.950 . S
H3435 C3459 0.951 . S
H3436 C3461 0.951 . S
H3437 C3463 0.950 . S
H3438 C3464 0.950 . S
H3439 C3466 0.950 . S
H3440 C3469 0.950 . S
H3441 C3470 0.950 . S
H3442 C3472 0.950 1_554 S
H3443 C3473 0.950 . S
C3444 H3426 0.951 . S
C3444 C3445 1.366 1_556 S
C3444 C3446 1.388 . S
C3445 C3444 1.366 1_554 S
C3445 C3449 1.385 . S
C3446 H3427 0.951 . S
C3446 C3444 1.388 . S
C3446 C3447 1.366 . S
C3447 C3446 1.366 . S
C3447 C3448 1.414 1_556 S
C3447 C3450 1.499 . S
C3448 H3428 0.950 . S
C3448 C3447 1.414 1_554 S
C3448 C3449 1.374 . S
C3449 H3429 0.950 . S
C3449 C3445 1.385 . S
C3449 C3448 1.374 . S
C3450 C3447 1.499 . S
C3450 C3451 1.373 . S
C3450 C3452 1.389 . S
C3451 H3430 0.950 . S
C3451 C3450 1.373 . S
C3451 C3467 1.377 . S
C3452 C3450 1.389 . S
C3452 C3453 1.524 . S
C3452 C3466 1.377 . S
C3453 C3452 1.524 . S
C3453 C3454 1.397 . S
C3453 C3458 1.363 . S
C3454 H3431 0.950 . S
C3454 C3453 1.397 . S
C3454 C3455 1.334 . S
C3455 H3432 0.950 . S
C3455 C3454 1.334 . S
C3455 C3456 1.287 . S
C3456 C3455 1.287 . S
C3456 C3457 1.524 . S
C3456 H3475 0.913 . S
C3457 H3433 0.950 . S
C3457 C3456 1.524 . S
C3457 C3458 1.415 . S
C3458 H3434 0.950 . S
C3458 C3453 1.363 . S
C3458 C3457 1.415 . S
C3459 H3435 0.951 . S
C3459 C3460 1.366 . S
C3459 C3461 1.388 . S
C3460 C3459 1.366 . S
C3460 C3464 1.385 . S
C3461 H3436 0.951 . S
C3461 C3459 1.388 . S
C3461 C3462 1.366 . S
C3462 C3461 1.366 . S
C3462 C3463 1.414 . S
C3462 C3465 1.499 . S
C3463 H3437 0.950 . S
C3463 C3462 1.414 . S
C3463 C3464 1.374 . S
C3464 H3438 0.950 . S
C3464 C3460 1.385 . S
C3464 C3463 1.374 . S
C3465 C3462 1.499 . S
C3465 C3466 1.373 . S
C3465 C3467 1.389 . S
C3466 H3439 0.950 . S
C3466 C3452 1.377 . S
C3466 C3465 1.373 . S
C3467 C3451 1.377 . S
C3467 C3465 1.389 . S
C3467 C3468 1.524 . S
C3468 C3467 1.524 . S
C3468 C3469 1.397 . S
C3468 C3473 1.363 . S
C3469 H3440 0.950 . S
C3469 C3468 1.397 . S
C3469 C3470 1.334 1_655 S
C3470 H3441 0.950 . S
C3470 C3469 1.334 1_455 S
C3470 C3471 1.287 . S
C3471 C3470 1.287 . S
C3471 C3472 1.524 . S
C3471 H3474 0.999 . S
C3472 H3442 0.950 1_556 S
C3472 C3471 1.524 . S
C3472 C3473 1.415 1_455 S
C3473 H3443 0.950 . S
C3473 C3468 1.363 . S
C3473 C3472 1.415 1_655 S
H3474 C3471 0.999 . S
H3475 C3456 0.913 . S
H3476 C3494 0.951 . S
H3477 C3496 0.951 . S
H3478 C3498 0.950 . S
H3479 C3499 0.950 . S
H3480 C3501 0.950 . S
H3481 C3504 0.950 . S
H3482 C3505 0.963 . S
H3483 C3507 0.950 . S
H3484 C3508 0.950 . S
H3485 C3509 0.951 . S
H3486 C3511 0.951 . S
H3487 C3513 0.950 . S
H3488 C3514 0.950 . S
H3489 C3516 0.950 . S
H3490 C3519 0.950 . S
H3491 C3520 0.950 . S
H3492 C3522 0.950 . S
H3493 C3523 0.950 . S
C3494 H3476 0.951 . S
C3494 C3495 1.366 1_556 S
C3494 C3496 1.388 . S
C3495 C3494 1.366 1_554 S
C3495 C3499 1.385 . S
C3496 H3477 0.951 . S
C3496 C3494 1.388 . S
C3496 C3497 1.366 . S
C3497 C3496 1.366 . S
C3497 C3498 1.414 1_556 S
C3497 C3500 1.499 . S
C3498 H3478 0.950 . S
C3498 C3497 1.414 1_554 S
C3498 C3499 1.374 . S
C3499 H3479 0.950 . S
C3499 C3495 1.385 . S
C3499 C3498 1.374 . S
C3500 C3497 1.499 . S
C3500 C3501 1.373 . S
C3500 C3502 1.389 . S
C3501 H3480 0.950 . S
C3501 C3500 1.373 . S
C3501 C3517 1.377 . S
C3502 C3500 1.389 . S
C3502 C3503 1.524 . S
C3502 C3516 1.377 . S
C3503 C3502 1.524 . S
C3503 C3504 1.397 . S
C3503 C3508 1.363 . S
C3504 H3481 0.950 . S
C3504 C3503 1.397 . S
C3504 C3505 1.334 . S
C3505 H3482 0.963 . S
C3505 C3504 1.334 . S
C3505 C3506 1.287 . S
C3506 C3505 1.287 . S
C3506 C3507 1.524 . S
C3506 H3525 0.913 . S
C3507 H3483 0.950 . S
C3507 C3506 1.524 . S
C3507 C3508 1.415 . S
C3508 H3484 0.950 . S
C3508 C3503 1.363 . S
C3508 C3507 1.415 . S
C3509 H3485 0.951 . S
C3509 C3510 1.366 . S
C3509 C3511 1.388 . S
C3510 C3509 1.366 . S
C3510 C3514 1.385 . S
C3511 H3486 0.951 . S
C3511 C3509 1.388 . S
C3511 C3512 1.366 . S
C3512 C3511 1.366 . S
C3512 C3513 1.414 . S
C3512 C3515 1.499 . S
C3513 H3487 0.950 . S
C3513 C3512 1.414 . S
C3513 C3514 1.374 . S
C3514 H3488 0.950 . S
C3514 C3510 1.385 . S
C3514 C3513 1.374 . S
C3515 C3512 1.499 . S
C3515 C3516 1.373 . S
C3515 C3517 1.389 . S
C3516 H3489 0.950 . S
C3516 C3502 1.377 . S
C3516 C3515 1.373 . S
C3517 C3501 1.377 . S
C3517 C3515 1.389 . S
C3517 C3518 1.524 . S
C3518 C3517 1.524 . S
C3518 C3519 1.397 . S
C3518 C3523 1.363 . S
C3519 H3490 0.950 . S
C3519 C3518 1.397 . S
C3519 C3520 1.334 . S
C3520 H3491 0.950 . S
C3520 C3519 1.334 . S
C3520 C3521 1.287 . S
C3521 C3520 1.287 . S
C3521 C3522 1.524 . S
C3521 H3524 0.999 . S
C3522 H3492 0.950 . S
C3522 C3521 1.524 . S
C3522 C3523 1.415 . S
C3523 H3493 0.950 . S
C3523 C3518 1.363 . S
C3523 C3522 1.415 . S
H3524 C3521 0.999 . S
H3525 C3506 0.913 . S
H3526 C3544 0.951 . S
H3527 C3546 0.951 . S
H3528 C3548 0.950 . S
H3529 C3549 0.950 . S
H3530 C3551 0.950 . S
H3531 C3554 0.950 . S
H3532 C3555 0.950 . S
H3533 C3557 0.950 . S
H3534 C3558 0.950 . S
H3535 C3559 0.951 . S
H3536 C3561 0.951 . S
H3537 C3563 0.950 . S
H3538 C3564 0.950 . S
H3539 C3566 0.950 1_554 S
H3540 C3569 0.950 . S
H3541 C3570 0.950 . S
H3542 C3572 0.950 . S
H3543 C3573 0.950 . S
C3544 H3526 0.951 . S
C3544 C3545 1.366 . S
C3544 C3546 1.388 . S
C3545 C3544 1.366 . S
C3545 C3549 1.385 . S
C3546 H3527 0.951 . S
C3546 C3544 1.388 . S
C3546 C3547 1.366 . S
C3547 C3546 1.366 . S
C3547 C3548 1.414 . S
C3547 C3550 1.499 . S
C3548 H3528 0.950 . S
C3548 C3547 1.414 . S
C3548 C3549 1.374 . S
C3549 H3529 0.950 . S
C3549 C3545 1.385 . S
C3549 C3548 1.374 . S
C3550 C3547 1.499 . S
C3550 C3551 1.373 . S
C3550 C3552 1.389 . S
C3551 H3530 0.950 . S
C3551 C3550 1.373 . S
C3551 C3567 1.377 . S
C3552 C3550 1.389 . S
C3552 C3553 1.524 . S
C3552 C3566 1.377 . S
C3553 C3552 1.524 . S
C3553 C3554 1.397 . S
C3553 C3558 1.363 1_556 S
C3554 H3531 0.950 . S
C3554 C3553 1.397 . S
C3554 C3555 1.334 . S
C3555 H3532 0.950 . S
C3555 C3554 1.334 . S
C3555 C3556 1.287 1_556 S
C3556 C3555 1.287 1_554 S
C3556 C3557 1.524 . S
C3556 H3575 0.913 . S
C3557 H3533 0.950 . S
C3557 C3556 1.524 . S
C3557 C3558 1.415 . S
C3558 H3534 0.950 . S
C3558 C3553 1.363 1_554 S
C3558 C3557 1.415 . S
C3559 H3535 0.951 . S
C3559 C3560 1.366 . S
C3559 C3561 1.388 1_554 S
C3560 C3559 1.366 . S
C3560 C3564 1.385 . S
C3561 H3536 0.951 . S
C3561 C3559 1.388 1_556 S
C3561 C3562 1.366 . S
C3562 C3561 1.366 . S
C3562 C3563 1.414 1_556 S
C3562 C3565 1.499 . S
C3563 H3537 0.950 . S
C3563 C3562 1.414 1_554 S
C3563 C3564 1.374 . S
C3564 H3538 0.950 . S
C3564 C3560 1.385 . S
C3564 C3563 1.374 . S
C3565 C3562 1.499 . S
C3565 C3566 1.373 . S
C3565 C3567 1.389 . S
C3566 H3539 0.950 1_556 S
C3566 C3552 1.377 . S
C3566 C3565 1.373 . S
C3567 C3551 1.377 . S
C3567 C3565 1.389 . S
C3567 C3568 1.524 . S
C3568 C3567 1.524 . S
C3568 C3569 1.397 . S
C3568 C3573 1.363 . S
C3569 H3540 0.950 . S
C3569 C3568 1.397 . S
C3569 C3570 1.334 . S
C3570 H3541 0.950 . S
C3570 C3569 1.334 . S
C3570 C3571 1.287 . S
C3571 C3570 1.287 . S
C3571 C3572 1.524 . S
C3571 H3574 0.999 . S
C3572 H3542 0.950 . S
C3572 C3571 1.524 . S
C3572 C3573 1.415 . S
C3573 H3543 0.950 . S
C3573 C3568 1.363 . S
C3573 C3572 1.415 . S
H3574 C3571 0.999 . S
H3575 C3556 0.913 . S
H3576 C3594 0.951 . S
H3577 C3596 0.951 . S
H3578 C3598 0.950 . S
H3579 C3599 0.950 . S
H3580 C3601 0.950 . S
H3581 C3604 0.950 . S
H3582 C3605 0.950 . S
H3583 C3607 0.950 . S
H3584 C3608 0.950 . S
H3585 C3609 0.951 . S
H3586 C3611 0.951 . S
H3587 C3613 0.950 . S
H3588 C3614 0.950 . S
H3589 C3616 0.950 . S
H3590 C3619 0.950 . S
H3591 C3620 0.950 . S
H3592 C3622 0.950 . S
H3593 C3623 0.950 . S
C3594 H3576 0.951 . S
C3594 C3595 1.366 . S
C3594 C3596 1.388 . S
C3595 C3594 1.366 . S
C3595 C3599 1.385 . S
C3596 H3577 0.951 . S
C3596 C3594 1.388 . S
C3596 C3597 1.366 . S
C3597 C3596 1.366 . S
C3597 C3598 1.414 . S
C3597 C3600 1.499 . S
C3598 H3578 0.950 . S
C3598 C3597 1.414 . S
C3598 C3599 1.374 . S
C3599 H3579 0.950 . S
C3599 C3595 1.385 . S
C3599 C3598 1.374 . S
C3600 C3597 1.499 . S
C3600 C3601 1.373 . S
C3600 C3602 1.389 . S
C3601 H3580 0.950 . S
C3601 C3600 1.373 . S
C3601 C3617 1.377 . S
C3602 C3600 1.389 . S
C3602 C3603 1.524 . S
C3602 C3616 1.377 . S
C3603 C3602 1.524 . S
C3603 C3604 1.397 . S
C3603 C3608 1.363 . S
C3604 H3581 0.950 . S
C3604 C3603 1.397 . S
C3604 C3605 1.334 . S
C3605 H3582 0.950 . S
C3605 C3604 1.334 . S
C3605 C3606 1.287 . S
C3606 C3605 1.287 . S
C3606 C3607 1.524 . S
C3606 H3625 0.913 . S
C3607 H3583 0.950 . S
C3607 C3606 1.524 . S
C3607 C3608 1.415 . S
C3608 H3584 0.950 . S
C3608 C3603 1.363 . S
C3608 C3607 1.415 . S
C3609 H3585 0.951 . S
C3609 C3610 1.366 . S
C3609 C3611 1.388 . S
C3610 C3609 1.366 . S
C3610 C3614 1.385 . S
C3611 H3586 0.951 . S
C3611 C3609 1.388 . S
C3611 C3612 1.366 . S
C3612 C3611 1.366 . S
C3612 C3613 1.414 . S
C3612 C3615 1.499 . S
C3613 H3587 0.950 . S
C3613 C3612 1.414 . S
C3613 C3614 1.374 . S
C3614 H3588 0.950 . S
C3614 C3610 1.385 . S
C3614 C3613 1.374 . S
C3615 C3612 1.499 . S
C3615 C3616 1.373 . S
C3615 C3617 1.389 . S
C3616 H3589 0.950 . S
C3616 C3602 1.377 . S
C3616 C3615 1.373 . S
C3617 C3601 1.377 . S
C3617 C3615 1.389 . S
C3617 C3618 1.524 . S
C3618 C3617 1.524 . S
C3618 C3619 1.397 . S
C3618 C3623 1.363 . S
C3619 H3590 0.950 . S
C3619 C3618 1.397 . S
C3619 C3620 1.334 . S
C3620 H3591 0.950 . S
C3620 C3619 1.334 . S
C3620 C3621 1.287 . S
C3621 C3620 1.287 . S
C3621 C3622 1.524 . S
C3621 H3624 0.999 . S
C3622 H3592 0.950 . S
C3622 C3621 1.524 . S
C3622 C3623 1.415 . S
C3623 H3593 0.950 . S
C3623 C3618 1.363 . S
C3623 C3622 1.415 . S
H3624 C3621 0.999 . S
H3625 C3606 0.913 . S
H3626 C3644 1.006 . S
H3627 C3646 0.951 . S
H3628 C3648 0.950 . S
H3629 C3649 0.950 . S
H3630 C3651 0.950 . S
H3631 C3654 0.950 . S
H3632 C3655 0.950 . S
H3633 C3657 0.950 . S
H3634 C3658 0.950 . S
H3635 C3659 0.951 . S
H3636 C3661 0.951 . S
H3637 C3663 0.950 . S
H3638 C3664 0.950 . S
H3639 C3666 0.950 . S
H3640 C3669 0.950 . S
H3641 C3670 0.950 . S
H3642 C3672 0.950 . S
H3643 C3673 0.950 . S
C3644 H3626 1.006 . S
C3644 C3645 1.366 . S
C3644 C3646 1.388 . S
C3645 C3644 1.366 . S
C3645 C3649 1.385 . S
C3646 H3627 0.951 . S
C3646 C3644 1.388 . S
C3646 C3647 1.366 . S
C3647 C3646 1.366 . S
C3647 C3648 1.414 . S
C3647 C3650 1.499 . S
C3648 H3628 0.950 . S
C3648 C3647 1.414 . S
C3648 C3649 1.374 . S
C3649 H3629 0.950 . S
C3649 C3645 1.385 . S
C3649 C3648 1.374 . S
C3650 C3647 1.499 . S
C3650 C3651 1.373 . S
C3650 C3652 1.389 . S
C3651 H3630 0.950 . S
C3651 C3650 1.373 . S
C3651 C3667 1.377 . S
C3652 C3650 1.389 . S
C3652 C3653 1.524 . S
C3652 C3666 1.377 . S
C3653 C3652 1.524 . S
C3653 C3654 1.397 . S
C3653 C3658 1.363 . S
C3654 H3631 0.950 . S
C3654 C3653 1.397 . S
C3654 C3655 1.334 . S
C3655 H3632 0.950 . S
C3655 C3654 1.334 . S
C3655 C3656 1.287 . S
C3656 C3655 1.287 . S
C3656 C3657 1.524 . S
C3656 H3675 0.913 . S
C3657 H3633 0.950 . S
C3657 C3656 1.524 . S
C3657 C3658 1.415 . S
C3658 H3634 0.950 . S
C3658 C3653 1.363 . S
C3658 C3657 1.415 . S
C3659 H3635 0.951 . S
C3659 C3660 1.366 . S
C3659 C3661 1.388 . S
C3660 C3659 1.366 . S
C3660 C3664 1.385 . S
C3661 H3636 0.951 . S
C3661 C3659 1.388 . S
C3661 C3662 1.366 . S
C3662 C3661 1.366 . S
C3662 C3663 1.414 . S
C3662 C3665 1.499 . S
C3663 H3637 0.950 . S
C3663 C3662 1.414 . S
C3663 C3664 1.374 . S
C3664 H3638 0.950 . S
C3664 C3660 1.385 . S
C3664 C3663 1.374 . S
C3665 C3662 1.499 . S
C3665 C3666 1.373 . S
C3665 C3667 1.389 . S
C3666 H3639 0.950 . S
C3666 C3652 1.377 . S
C3666 C3665 1.373 . S
C3667 C3651 1.377 . S
C3667 C3665 1.389 . S
C3667 C3668 1.524 . S
C3668 C3667 1.524 . S
C3668 C3669 1.397 . S
C3668 C3673 1.363 . S
C3669 H3640 0.950 . S
C3669 C3668 1.397 . S
C3669 C3670 1.334 . S
C3670 H3641 0.950 . S
C3670 C3669 1.334 . S
C3670 C3671 1.287 . S
C3671 C3670 1.287 . S
C3671 C3672 1.524 . S
C3671 H3674 0.999 . S
C3672 H3642 0.950 . S
C3672 C3671 1.524 . S
C3672 C3673 1.415 . S
C3673 H3643 0.950 . S
C3673 C3668 1.363 . S
C3673 C3672 1.415 . S
H3674 C3671 0.999 . S
H3675 C3656 0.913 . S
H3676 C3694 0.951 . S
H3677 C3696 0.951 . S
H3678 C3698 0.950 . S
H3679 C3699 0.950 . S
H3680 C3701 0.950 . S
H3681 C3704 0.950 . S
H3682 C3705 0.950 . S
H3683 C3707 0.950 . S
H3684 C3708 0.950 . S
H3685 C3709 0.951 . S
H3686 C3711 0.951 . S
H3687 C3713 0.950 . S
H3688 C3714 0.950 . S
H3689 C3716 0.950 . S
H3690 C3719 0.950 . S
H3691 C3720 0.950 . S
H3692 C3722 0.950 . S
H3693 C3723 0.950 . S
C3694 H3676 0.951 . S
C3694 C3695 1.366 . S
C3694 C3696 1.388 . S
C3695 C3694 1.366 . S
C3695 C3699 1.385 . S
C3696 H3677 0.951 . S
C3696 C3694 1.388 . S
C3696 C3697 1.366 . S
C3697 C3696 1.366 . S
C3697 C3698 1.414 . S
C3697 C3700 1.499 . S
C3698 H3678 0.950 . S
C3698 C3697 1.414 . S
C3698 C3699 1.374 . S
C3699 H3679 0.950 . S
C3699 C3695 1.385 . S
C3699 C3698 1.374 . S
C3700 C3697 1.499 . S
C3700 C3701 1.373 . S
C3700 C3702 1.389 . S
C3701 H3680 0.950 . S
C3701 C3700 1.373 . S
C3701 C3717 1.377 . S
C3702 C3700 1.389 . S
C3702 C3703 1.524 . S
C3702 C3716 1.377 . S
C3703 C3702 1.524 . S
C3703 C3704 1.397 . S
C3703 C3708 1.363 . S
C3704 H3681 0.950 . S
C3704 C3703 1.397 . S
C3704 C3705 1.334 . S
C3705 H3682 0.950 . S
C3705 C3704 1.334 . S
C3705 C3706 1.287 . S
C3706 C3705 1.287 . S
C3706 C3707 1.524 . S
C3706 H3725 0.913 . S
C3707 H3683 0.950 . S
C3707 C3706 1.524 . S
C3707 C3708 1.415 . S
C3708 H3684 0.950 . S
C3708 C3703 1.363 . S
C3708 C3707 1.415 . S
C3709 H3685 0.951 . S
C3709 C3710 1.366 . S
C3709 C3711 1.388 . S
C3710 C3709 1.366 . S
C3710 C3714 1.385 . S
C3711 H3686 0.951 . S
C3711 C3709 1.388 . S
C3711 C3712 1.366 . S
C3712 C3711 1.366 . S
C3712 C3713 1.414 . S
C3712 C3715 1.499 . S
C3713 H3687 0.950 . S
C3713 C3712 1.414 . S
C3713 C3714 1.374 . S
C3714 H3688 0.950 . S
C3714 C3710 1.385 . S
C3714 C3713 1.374 . S
C3715 C3712 1.499 . S
C3715 C3716 1.373 . S
C3715 C3717 1.389 . S
C3716 H3689 0.950 . S
C3716 C3702 1.377 . S
C3716 C3715 1.373 . S
C3717 C3701 1.377 . S
C3717 C3715 1.389 . S
C3717 C3718 1.524 . S
C3718 C3717 1.524 . S
C3718 C3719 1.397 . S
C3718 C3723 1.363 . S
C3719 H3690 0.950 . S
C3719 C3718 1.397 . S
C3719 C3720 1.334 . S
C3720 H3691 0.950 . S
C3720 C3719 1.334 . S
C3720 C3721 1.287 . S
C3721 C3720 1.287 . S
C3721 C3722 1.524 . S
C3721 H3724 0.999 . S
C3722 H3692 0.950 . S
C3722 C3721 1.524 . S
C3722 C3723 1.415 . S
C3723 H3693 0.950 . S
C3723 C3718 1.363 . S
C3723 C3722 1.415 . S
H3724 C3721 0.999 . S
H3725 C3706 0.913 . S
H3726 C3744 0.951 . S
H3727 C3746 0.951 . S
H3728 C3748 0.950 . S
H3729 C3749 0.950 . S
H3730 C3751 0.950 . S
H3731 C3754 0.950 . S
H3732 C3755 0.950 1_655 S
H3733 C3757 0.950 1_556 S
H3734 C3758 0.950 1_556 S
H3735 C3759 0.951 . S
H3736 C3761 0.951 . S
H3737 C3763 0.950 . S
H3738 C3764 0.950 . S
H3739 C3766 0.950 . S
H3740 C3769 0.950 . S
H3741 C3770 0.950 . S
H3742 C3772 0.950 . S
H3743 C3773 0.950 . S
C3744 H3726 0.951 . S
C3744 C3745 1.366 . S
C3744 C3746 1.388 . S
C3745 C3744 1.366 . S
C3745 C3749 1.385 . S
C3746 H3727 0.951 . S
C3746 C3744 1.388 . S
C3746 C3747 1.366 . S
C3747 C3746 1.366 . S
C3747 C3748 1.414 . S
C3747 C3750 1.499 . S
C3748 H3728 0.950 . S
C3748 C3747 1.414 . S
C3748 C3749 1.374 . S
C3749 H3729 0.950 . S
C3749 C3745 1.385 . S
C3749 C3748 1.374 . S
C3750 C3747 1.499 . S
C3750 C3751 1.373 . S
C3750 C3752 1.389 . S
C3751 H3730 0.950 . S
C3751 C3750 1.373 . S
C3751 C3767 1.377 . S
C3752 C3750 1.389 . S
C3752 C3753 1.524 . S
C3752 C3766 1.377 . S
C3753 C3752 1.524 . S
C3753 C3754 1.397 . S
C3753 C3758 1.363 . S
C3754 H3731 0.950 . S
C3754 C3753 1.397 . S
C3754 C3755 1.334 . S
C3755 H3732 0.950 1_455 S
C3755 C3754 1.334 . S
C3755 C3756 1.287 1_455 S
C3756 C3755 1.287 1_655 S
C3756 C3757 1.524 1_655 S
C3756 H3775 0.913 . S
C3757 H3733 0.950 1_554 S
C3757 C3756 1.524 1_455 S
C3757 C3758 1.415 . S
C3758 H3734 0.950 1_554 S
C3758 C3753 1.363 . S
C3758 C3757 1.415 . S
C3759 H3735 0.951 . S
C3759 C3760 1.366 1_554 S
C3759 C3761 1.388 . S
C3760 C3759 1.366 1_556 S
C3760 C3764 1.385 . S
C3761 H3736 0.951 . S
C3761 C3759 1.388 . S
C3761 C3762 1.366 . S
C3762 C3761 1.366 . S
C3762 C3763 1.414 1_554 S
C3762 C3765 1.499 . S
C3763 H3737 0.950 . S
C3763 C3762 1.414 1_556 S
C3763 C3764 1.374 . S
C3764 H3738 0.950 . S
C3764 C3760 1.385 . S
C3764 C3763 1.374 . S
C3765 C3762 1.499 . S
C3765 C3766 1.373 . S
C3765 C3767 1.389 . S
C3766 H3739 0.950 . S
C3766 C3752 1.377 . S
C3766 C3765 1.373 . S
C3767 C3751 1.377 . S
C3767 C3765 1.389 . S
C3767 C3768 1.524 . S
C3768 C3767 1.524 . S
C3768 C3769 1.397 . S
C3768 C3773 1.363 . S
C3769 H3740 0.950 . S
C3769 C3768 1.397 . S
C3769 C3770 1.334 . S
C3770 H3741 0.950 . S
C3770 C3769 1.334 . S
C3770 C3771 1.287 . S
C3771 C3770 1.287 . S
C3771 C3772 1.524 . S
C3771 H3774 0.999 . S
C3772 H3742 0.950 . S
C3772 C3771 1.524 . S
C3772 C3773 1.415 . S
C3773 H3743 0.950 . S
C3773 C3768 1.363 . S
C3773 C3772 1.415 . S
H3774 C3771 0.999 . S
H3775 C3756 0.913 . S
H3776 C3794 0.951 . S
H3777 C3796 0.951 . S
H3778 C3798 0.950 . S
H3779 C3799 0.950 . S
H3780 C3801 0.950 . S
H3781 C3804 0.950 . S
H3782 C3805 0.950 . S
H3783 C3807 0.950 . S
H3784 C3808 0.950 1_554 S
H3785 C3809 0.951 . S
H3786 C3811 0.951 . S
H3787 C3813 0.950 . S
H3788 C3814 0.950 . S
H3789 C3816 0.950 . S
H3790 C3819 0.950 . S
H3791 C3820 0.950 . S
H3792 C3822 0.950 . S
H3793 C3823 0.950 . S
C3794 H3776 0.951 . S
C3794 C3795 1.366 . S
C3794 C3796 1.388 1_556 S
C3795 C3794 1.366 . S
C3795 C3799 1.385 . S
C3796 H3777 0.951 . S
C3796 C3794 1.388 1_554 S
C3796 C3797 1.366 . S
C3797 C3796 1.366 . S
C3797 C3798 1.414 . S
C3797 C3800 1.499 . S
C3798 H3778 0.950 . S
C3798 C3797 1.414 . S
C3798 C3799 1.374 1_554 S
C3799 H3779 0.950 . S
C3799 C3795 1.385 . S
C3799 C3798 1.374 1_556 S
C3800 C3797 1.499 . S
C3800 C3801 1.373 . S
C3800 C3802 1.389 . S
C3801 H3780 0.950 . S
C3801 C3800 1.373 . S
C3801 C3817 1.377 . S
C3802 C3800 1.389 . S
C3802 C3803 1.524 1_554 S
C3802 C3816 1.377 . S
C3803 C3802 1.524 1_556 S
C3803 C3804 1.397 . S
C3803 C3808 1.363 . S
C3804 H3781 0.950 . S
C3804 C3803 1.397 . S
C3804 C3805 1.334 . S
C3805 H3782 0.950 . S
C3805 C3804 1.334 . S
C3805 C3806 1.287 . S
C3806 C3805 1.287 . S
C3806 C3807 1.524 . S
C3806 H3825 0.913 . S
C3807 H3783 0.950 . S
C3807 C3806 1.524 . S
C3807 C3808 1.415 . S
C3808 H3784 0.950 1_556 S
C3808 C3803 1.363 . S
C3808 C3807 1.415 . S
C3809 H3785 0.951 . S
C3809 C3810 1.366 . S
C3809 C3811 1.388 . S
C3810 C3809 1.366 . S
C3810 C3814 1.385 . S
C3811 H3786 0.951 . S
C3811 C3809 1.388 . S
C3811 C3812 1.366 . S
C3812 C3811 1.366 . S
C3812 C3813 1.414 . S
C3812 C3815 1.499 . S
C3813 H3787 0.950 . S
C3813 C3812 1.414 . S
C3813 C3814 1.374 . S
C3814 H3788 0.950 . S
C3814 C3810 1.385 . S
C3814 C3813 1.374 . S
C3815 C3812 1.499 . S
C3815 C3816 1.373 . S
C3815 C3817 1.389 . S
C3816 H3789 0.950 . S
C3816 C3802 1.377 . S
C3816 C3815 1.373 . S
C3817 C3801 1.377 . S
C3817 C3815 1.389 . S
C3817 C3818 1.524 . S
C3818 C3817 1.524 . S
C3818 C3819 1.397 . S
C3818 C3823 1.363 . S
C3819 H3790 0.950 . S
C3819 C3818 1.397 . S
C3819 C3820 1.334 . S
C3820 H3791 0.950 . S
C3820 C3819 1.334 . S
C3820 C3821 1.287 . S
C3821 C3820 1.287 . S
C3821 C3822 1.524 . S
C3821 H3824 0.999 . S
C3822 H3792 0.950 . S
C3822 C3821 1.524 . S
C3822 C3823 1.415 . S
C3823 H3793 0.950 . S
C3823 C3818 1.363 . S
C3823 C3822 1.415 . S
H3824 C3821 0.999 . S
H3825 C3806 0.913 . S
H3826 C3844 0.951 . S
H3827 C3846 0.951 . S
H3828 C3848 0.950 . S
H3829 C3849 0.950 . S
H3830 C3851 0.950 . S
H3831 C3854 0.950 . S
H3832 C3855 0.950 . S
H3833 C3857 0.950 . S
H3834 C3858 0.950 . S
H3835 C3859 0.951 . S
H3836 C3861 0.951 . S
H3837 C3863 0.950 . S
H3838 C3864 0.950 . S
H3839 C3866 0.950 . S
H3840 C3869 0.950 . S
H3841 C3870 0.950 . S
H3842 C3872 0.950 . S
H3843 C3873 0.950 . S
C3844 H3826 0.951 . S
C3844 C3845 1.366 . S
C3844 C3846 1.388 . S
C3845 C3844 1.366 . S
C3845 C3849 1.385 1_556 S
C3846 H3827 0.951 . S
C3846 C3844 1.388 . S
C3846 C3847 1.366 1_556 S
C3847 C3846 1.366 1_554 S
C3847 C3848 1.414 . S
C3847 C3850 1.499 . S
C3848 H3828 0.950 . S
C3848 C3847 1.414 . S
C3848 C3849 1.374 . S
C3849 H3829 0.950 . S
C3849 C3845 1.385 1_554 S
C3849 C3848 1.374 . S
C3850 C3847 1.499 . S
C3850 C3851 1.373 . S
C3850 C3852 1.389 . S
C3851 H3830 0.950 . S
C3851 C3850 1.373 . S
C3851 C3867 1.377 . S
C3852 C3850 1.389 . S
C3852 C3853 1.524 . S
C3852 C3866 1.377 . S
C3853 C3852 1.524 . S
C3853 C3854 1.397 . S
C3853 C3858 1.363 . S
C3854 H3831 0.950 . S
C3854 C3853 1.397 . S
C3854 C3855 1.334 . S
C3855 H3832 0.950 . S
C3855 C3854 1.334 . S
C3855 C3856 1.287 . S
C3856 C3855 1.287 . S
C3856 C3857 1.524 . S
C3856 H3875 0.913 . S
C3857 H3833 0.950 . S
C3857 C3856 1.524 . S
C3857 C3858 1.415 . S
C3858 H3834 0.950 . S
C3858 C3853 1.363 . S
C3858 C3857 1.415 . S
C3859 H3835 0.951 . S
C3859 C3860 1.366 . S
C3859 C3861 1.388 . S
C3860 C3859 1.366 . S
C3860 C3864 1.385 . S
C3861 H3836 0.951 . S
C3861 C3859 1.388 . S
C3861 C3862 1.366 . S
C3862 C3861 1.366 . S
C3862 C3863 1.414 . S
C3862 C3865 1.499 . S
C3863 H3837 0.950 . S
C3863 C3862 1.414 . S
C3863 C3864 1.374 . S
C3864 H3838 0.950 . S
C3864 C3860 1.385 . S
C3864 C3863 1.374 . S
C3865 C3862 1.499 . S
C3865 C3866 1.373 . S
C3865 C3867 1.389 . S
C3866 H3839 0.950 . S
C3866 C3852 1.377 . S
C3866 C3865 1.373 . S
C3867 C3851 1.377 . S
C3867 C3865 1.389 . S
C3867 C3868 1.524 . S
C3868 C3867 1.524 . S
C3868 C3869 1.397 . S
C3868 C3873 1.363 . S
C3869 H3840 0.950 . S
C3869 C3868 1.397 . S
C3869 C3870 1.334 1_565 S
C3870 H3841 0.950 . S
C3870 C3869 1.334 1_545 S
C3870 C3871 1.287 . S
C3871 C3870 1.287 . S
C3871 C3872 1.524 . S
C3871 H3874 0.999 . S
C3872 H3842 0.950 . S
C3872 C3871 1.524 . S
C3872 C3873 1.415 1_545 S
C3873 H3843 0.950 . S
C3873 C3868 1.363 . S
C3873 C3872 1.415 1_565 S
H3874 C3871 0.999 . S
H3875 C3856 0.913 . S
H3876 C3894 0.951 . S
H3877 C3896 0.951 . S
H3878 C3898 0.950 . S
H3879 C3899 0.950 . S
H3880 C3901 0.950 . S
H3881 C3904 0.950 . S
H3882 C3905 0.950 . S
H3883 C3907 0.950 . S
H3884 C3908 0.950 . S
H3885 C3909 0.951 . S
H3886 C3911 0.951 . S
H3887 C3913 0.950 . S
H3888 C3914 0.950 . S
H3889 C3916 0.950 . S
H3890 C3919 0.950 . S
H3891 C3920 0.950 . S
H3892 C3922 0.950 . S
H3893 C3923 0.950 . S
C3894 H3876 0.951 . S
C3894 C3895 1.366 . S
C3894 C3896 1.388 . S
C3895 C3894 1.366 . S
C3895 C3899 1.385 . S
C3896 H3877 0.951 . S
C3896 C3894 1.388 . S
C3896 C3897 1.366 . S
C3897 C3896 1.366 . S
C3897 C3898 1.414 . S
C3897 C3900 1.499 . S
C3898 H3878 0.950 . S
C3898 C3897 1.414 . S
C3898 C3899 1.374 . S
C3899 H3879 0.950 . S
C3899 C3895 1.385 . S
C3899 C3898 1.374 . S
C3900 C3897 1.499 . S
C3900 C3901 1.373 . S
C3900 C3902 1.389 . S
C3901 H3880 0.950 . S
C3901 C3900 1.373 . S
C3901 C3917 1.377 . S
C3902 C3900 1.389 . S
C3902 C3903 1.524 . S
C3902 C3916 1.377 . S
C3903 C3902 1.524 . S
C3903 C3904 1.397 . S
C3903 C3908 1.363 . S
C3904 H3881 0.950 . S
C3904 C3903 1.397 . S
C3904 C3905 1.334 . S
C3905 H3882 0.950 . S
C3905 C3904 1.334 . S
C3905 C3906 1.287 . S
C3906 C3905 1.287 . S
C3906 C3907 1.524 . S
C3906 H3925 0.913 . S
C3907 H3883 0.950 . S
C3907 C3906 1.524 . S
C3907 C3908 1.415 . S
C3908 H3884 0.950 . S
C3908 C3903 1.363 . S
C3908 C3907 1.415 . S
C3909 H3885 0.951 . S
C3909 C3910 1.366 . S
C3909 C3911 1.388 . S
C3910 C3909 1.366 . S
C3910 C3914 1.385 . S
C3911 H3886 0.951 . S
C3911 C3909 1.388 . S
C3911 C3912 1.366 . S
C3912 C3911 1.366 . S
C3912 C3913 1.414 . S
C3912 C3915 1.499 . S
C3913 H3887 0.950 . S
C3913 C3912 1.414 . S
C3913 C3914 1.374 . S
C3914 H3888 0.950 . S
C3914 C3910 1.385 . S
C3914 C3913 1.374 . S
C3915 C3912 1.499 . S
C3915 C3916 1.373 . S
C3915 C3917 1.389 . S
C3916 H3889 0.950 . S
C3916 C3902 1.377 . S
C3916 C3915 1.373 . S
C3917 C3901 1.377 . S
C3917 C3915 1.389 . S
C3917 C3918 1.524 . S
C3918 C3917 1.524 . S
C3918 C3919 1.397 . S
C3918 C3923 1.363 . S
C3919 H3890 0.950 . S
C3919 C3918 1.397 . S
C3919 C3920 1.334 . S
C3920 H3891 0.950 . S
C3920 C3919 1.334 . S
C3920 C3921 1.287 . S
C3921 C3920 1.287 . S
C3921 C3922 1.524 . S
C3921 H3924 0.999 . S
C3922 H3892 0.950 . S
C3922 C3921 1.524 . S
C3922 C3923 1.415 . S
C3923 H3893 0.950 . S
C3923 C3918 1.363 . S
C3923 C3922 1.415 . S
H3924 C3921 0.999 . S
H3925 C3906 0.913 . S
H3926 C3944 0.951 . S
H3927 C3946 0.951 . S
H3928 C3948 0.950 . S
H3929 C3949 0.950 . S
H3930 C3951 0.950 . S
H3931 C3954 0.950 . S
H3932 C3955 0.950 . S
H3933 C3957 0.950 . S
H3934 C3958 0.950 . S
H3935 C3959 0.951 . S
H3936 C3961 0.951 . S
H3937 C3963 0.950 . S
H3938 C3964 0.950 . S
H3939 C3966 0.950 . S
H3940 C3969 0.950 . S
H3941 C3970 0.950 . S
H3942 C3972 0.950 . S
H3943 C3973 0.950 . S
C3944 H3926 0.951 . S
C3944 C3945 1.366 . S
C3944 C3946 1.388 . S
C3945 C3944 1.366 . S
C3945 C3949 1.385 . S
C3946 H3927 0.951 . S
C3946 C3944 1.388 . S
C3946 C3947 1.366 . S
C3947 C3946 1.366 . S
C3947 C3948 1.414 . S
C3947 C3950 1.499 . S
C3948 H3928 0.950 . S
C3948 C3947 1.414 . S
C3948 C3949 1.374 . S
C3949 H3929 0.950 . S
C3949 C3945 1.385 . S
C3949 C3948 1.374 . S
C3950 C3947 1.499 . S
C3950 C3951 1.373 . S
C3950 C3952 1.389 . S
C3951 H3930 0.950 . S
C3951 C3950 1.373 . S
C3951 C3967 1.377 . S
C3952 C3950 1.389 . S
C3952 C3953 1.524 . S
C3952 C3966 1.377 1_545 S
C3953 C3952 1.524 . S
C3953 C3954 1.397 . S
C3953 C3958 1.363 1_545 S
C3954 H3931 0.950 . S
C3954 C3953 1.397 . S
C3954 C3955 1.334 . S
C3955 H3932 0.950 . S
C3955 C3954 1.334 . S
C3955 C3956 1.287 1_545 S
C3956 C3955 1.287 1_565 S
C3956 C3957 1.524 . S
C3956 H3975 0.913 . S
C3957 H3933 0.950 . S
C3957 C3956 1.524 . S
C3957 C3958 1.415 . S
C3958 H3934 0.950 . S
C3958 C3953 1.363 1_565 S
C3958 C3957 1.415 . S
C3959 H3935 0.951 . S
C3959 C3960 1.366 . S
C3959 C3961 1.388 . S
C3960 C3959 1.366 . S
C3960 C3964 1.385 . S
C3961 H3936 0.951 . S
C3961 C3959 1.388 . S
C3961 C3962 1.366 . S
C3962 C3961 1.366 . S
C3962 C3963 1.414 . S
C3962 C3965 1.499 . S
C3963 H3937 0.950 . S
C3963 C3962 1.414 . S
C3963 C3964 1.374 . S
C3964 H3938 0.950 . S
C3964 C3960 1.385 . S
C3964 C3963 1.374 . S
C3965 C3962 1.499 . S
C3965 C3966 1.373 . S
C3965 C3967 1.389 1_565 S
C3966 H3939 0.950 . S
C3966 C3952 1.377 1_565 S
C3966 C3965 1.373 . S
C3967 C3951 1.377 . S
C3967 C3965 1.389 1_545 S
C3967 C3968 1.524 . S
C3968 C3967 1.524 . S
C3968 C3969 1.397 . S
C3968 C3973 1.363 . S
C3969 H3940 0.950 . S
C3969 C3968 1.397 . S
C3969 C3970 1.334 . S
C3970 H3941 0.950 . S
C3970 C3969 1.334 . S
C3970 C3971 1.287 . S
C3971 C3970 1.287 . S
C3971 C3972 1.524 . S
C3971 H3974 0.999 . S
C3972 H3942 0.950 . S
C3972 C3971 1.524 . S
C3972 C3973 1.415 . S
C3973 H3943 0.950 . S
C3973 C3968 1.363 . S
C3973 C3972 1.415 . S
H3974 C3971 0.999 . S
H3975 C3956 0.913 . S
H3976 C3994 0.951 . S
H3977 C3996 0.951 . S
H3978 C3998 0.950 . S
H3979 C3999 0.950 . S
H3980 C4001 0.950 . S
H3981 C4004 0.950 . S
H3982 C4005 0.950 . S
H3983 C4007 0.950 . S
H3984 C4008 0.950 . S
H3985 C4009 0.951 . S
H3986 C4011 0.951 . S
H3987 C4013 0.950 . S
H3988 C4014 0.950 . S
H3989 C4016 0.950 . S
H3990 C4019 0.950 . S
H3991 C4020 0.950 . S
H3992 C4022 0.950 . S
H3993 C4023 0.950 . S
C3994 H3976 0.951 . S
C3994 C3995 1.366 . S
C3994 C3996 1.388 . S
C3995 C3994 1.366 . S
C3995 C3999 1.385 . S
C3996 H3977 0.951 . S
C3996 C3994 1.388 . S
C3996 C3997 1.366 . S
C3997 C3996 1.366 . S
C3997 C3998 1.414 . S
C3997 C4000 1.499 . S
C3998 H3978 0.950 . S
C3998 C3997 1.414 . S
C3998 C3999 1.374 . S
C3999 H3979 0.950 . S
C3999 C3995 1.385 . S
C3999 C3998 1.374 . S
C4000 C3997 1.499 . S
C4000 C4001 1.373 . S
C4000 C4002 1.389 . S
C4001 H3980 0.950 . S
C4001 C4000 1.373 . S
C4001 C4017 1.377 1_455 S
C4002 C4000 1.389 . S
C4002 C4003 1.524 . S
C4002 C4016 1.377 . S
C4003 C4002 1.524 . S
C4003 C4004 1.397 . S
C4003 C4008 1.363 . S
C4004 H3981 0.950 . S
C4004 C4003 1.397 . S
C4004 C4005 1.334 . S
C4005 H3982 0.950 . S
C4005 C4004 1.334 . S
C4005 C4006 1.287 . S
C4006 C4005 1.287 . S
C4006 C4007 1.524 . S
C4006 H4025 0.913 . S
C4007 H3983 0.950 . S
C4007 C4006 1.524 . S
C4007 C4008 1.415 . S
C4008 H3984 0.950 . S
C4008 C4003 1.363 . S
C4008 C4007 1.415 . S
C4009 H3985 0.951 . S
C4009 C4010 1.366 . S
C4009 C4011 1.388 . S
C4010 C4009 1.366 . S
C4010 C4014 1.385 . S
C4011 H3986 0.951 . S
C4011 C4009 1.388 . S
C4011 C4012 1.366 . S
C4012 C4011 1.366 . S
C4012 C4013 1.414 . S
C4012 C4015 1.499 . S
C4013 H3987 0.950 . S
C4013 C4012 1.414 . S
C4013 C4014 1.374 . S
C4014 H3988 0.950 . S
C4014 C4010 1.385 . S
C4014 C4013 1.374 . S
C4015 C4012 1.499 . S
C4015 C4016 1.373 1_655 S
C4015 C4017 1.389 . S
C4016 H3989 0.950 . S
C4016 C4002 1.377 . S
C4016 C4015 1.373 1_455 S
C4017 C4001 1.377 1_655 S
C4017 C4015 1.389 . S
C4017 C4018 1.524 . S
C4018 C4017 1.524 . S
C4018 C4019 1.397 . S
C4018 C4023 1.363 . S
C4019 H3990 0.950 . S
C4019 C4018 1.397 . S
C4019 C4020 1.334 . S
C4020 H3991 0.950 . S
C4020 C4019 1.334 . S
C4020 C4021 1.287 . S
C4021 C4020 1.287 . S
C4021 C4022 1.524 . S
C4021 H4024 0.999 . S
C4022 H3992 0.950 . S
C4022 C4021 1.524 . S
C4022 C4023 1.415 . S
C4023 H3993 0.950 . S
C4023 C4018 1.363 . S
C4023 C4022 1.415 . S
H4024 C4021 0.999 . S
H4025 C4006 0.913 . S
H4026 C4044 0.951 . S
H4027 C4046 0.951 . S
H4028 C4048 0.950 . S
H4029 C4049 0.950 . S
H4030 C4051 0.950 . S
H4031 C4054 0.950 . S
H4032 C4055 0.950 . S
H4033 C4057 0.950 . S
H4034 C4058 0.950 . S
H4035 C4059 0.951 . S
H4036 C4061 0.951 . S
H4037 C4063 0.950 . S
H4038 C4064 0.950 . S
H4039 C4066 0.950 . S
H4040 C4069 0.950 . S
H4041 C4070 0.950 . S
H4042 C4072 0.950 . S
H4043 C4073 0.950 . S
C4044 H4026 0.951 . S
C4044 C4045 1.366 . S
C4044 C4046 1.388 . S
C4045 C4044 1.366 . S
C4045 C4049 1.385 . S
C4046 H4027 0.951 . S
C4046 C4044 1.388 . S
C4046 C4047 1.366 . S
C4047 C4046 1.366 . S
C4047 C4048 1.414 . S
C4047 C4050 1.499 . S
C4048 H4028 0.950 . S
C4048 C4047 1.414 . S
C4048 C4049 1.374 . S
C4049 H4029 0.950 . S
C4049 C4045 1.385 . S
C4049 C4048 1.374 . S
C4050 C4047 1.499 . S
C4050 C4051 1.373 . S
C4050 C4052 1.389 . S
C4051 H4030 0.950 . S
C4051 C4050 1.373 . S
C4051 C4067 1.377 . S
C4052 C4050 1.389 . S
C4052 C4053 1.524 . S
C4052 C4066 1.377 . S
C4053 C4052 1.524 . S
C4053 C4054 1.397 . S
C4053 C4058 1.363 . S
C4054 H4031 0.950 . S
C4054 C4053 1.397 . S
C4054 C4055 1.334 . S
C4055 H4032 0.950 . S
C4055 C4054 1.334 . S
C4055 C4056 1.287 . S
C4056 C4055 1.287 . S
C4056 C4057 1.524 . S
C4056 H4075 0.913 . S
C4057 H4033 0.950 . S
C4057 C4056 1.524 . S
C4057 C4058 1.415 . S
C4058 H4034 0.950 . S
C4058 C4053 1.363 . S
C4058 C4057 1.415 . S
C4059 H4035 0.951 . S
C4059 C4060 1.366 . S
C4059 C4061 1.388 . S
C4060 C4059 1.366 . S
C4060 C4064 1.385 . S
C4061 H4036 0.951 . S
C4061 C4059 1.388 . S
C4061 C4062 1.366 . S
C4062 C4061 1.366 . S
C4062 C4063 1.414 . S
C4062 C4065 1.499 . S
C4063 H4037 0.950 . S
C4063 C4062 1.414 . S
C4063 C4064 1.374 . S
C4064 H4038 0.950 . S
C4064 C4060 1.385 . S
C4064 C4063 1.374 . S
C4065 C4062 1.499 . S
C4065 C4066 1.373 . S
C4065 C4067 1.389 . S
C4066 H4039 0.950 . S
C4066 C4052 1.377 . S
C4066 C4065 1.373 . S
C4067 C4051 1.377 . S
C4067 C4065 1.389 . S
C4067 C4068 1.524 . S
C4068 C4067 1.524 . S
C4068 C4069 1.397 . S
C4068 C4073 1.363 . S
C4069 H4040 0.950 . S
C4069 C4068 1.397 . S
C4069 C4070 1.334 . S
C4070 H4041 0.950 . S
C4070 C4069 1.334 . S
C4070 C4071 1.287 . S
C4071 C4070 1.287 . S
C4071 C4072 1.524 . S
C4071 H4074 0.999 . S
C4072 H4042 0.950 . S
C4072 C4071 1.524 . S
C4072 C4073 1.415 . S
C4073 H4043 0.950 . S
C4073 C4068 1.363 . S
C4073 C4072 1.415 . S
H4074 C4071 0.999 . S
H4075 C4056 0.913 . S
H4076 C4094 0.951 . S
H4077 C4096 0.951 . S
H4078 C4098 0.950 . S
H4079 C4099 0.950 . S
H4080 C4101 0.950 . S
H4081 C4104 0.950 . S
H4082 C4105 0.950 . S
H4083 C4107 0.950 . S
H4084 C4108 0.950 . S
H4085 C4109 0.951 . S
H4086 C4111 0.951 . S
H4087 C4113 0.950 . S
H4088 C4114 0.950 . S
H4089 C4116 0.950 . S
H4090 C4119 0.950 . S
H4091 C4120 0.950 . S
H4092 C4122 0.950 . S
H4093 C4123 0.950 . S
C4094 H4076 0.951 . S
C4094 C4095 1.366 . S
C4094 C4096 1.388 . S
C4095 C4094 1.366 . S
C4095 C4099 1.385 . S
C4096 H4077 0.951 . S
C4096 C4094 1.388 . S
C4096 C4097 1.366 . S
C4097 C4096 1.366 . S
C4097 C4098 1.414 . S
C4097 C4100 1.499 . S
C4098 H4078 0.950 . S
C4098 C4097 1.414 . S
C4098 C4099 1.374 . S
C4099 H4079 0.950 . S
C4099 C4095 1.385 . S
C4099 C4098 1.374 . S
C4100 C4097 1.499 . S
C4100 C4101 1.373 . S
C4100 C4102 1.389 . S
C4101 H4080 0.950 . S
C4101 C4100 1.373 . S
C4101 C4117 1.377 . S
C4102 C4100 1.389 . S
C4102 C4103 1.524 . S
C4102 C4116 1.377 . S
C4103 C4102 1.524 . S
C4103 C4104 1.397 . S
C4103 C4108 1.363 . S
C4104 H4081 0.950 . S
C4104 C4103 1.397 . S
C4104 C4105 1.334 . S
C4105 H4082 0.950 . S
C4105 C4104 1.334 . S
C4105 C4106 1.287 . S
C4106 C4105 1.287 . S
C4106 C4107 1.524 . S
C4106 H4125 0.913 . S
C4107 H4083 0.950 . S
C4107 C4106 1.524 . S
C4107 C4108 1.415 . S
C4108 H4084 0.950 . S
C4108 C4103 1.363 . S
C4108 C4107 1.415 . S
C4109 H4085 0.951 . S
C4109 C4110 1.366 . S
C4109 C4111 1.388 . S
C4110 C4109 1.366 . S
C4110 C4114 1.385 . S
C4111 H4086 0.951 . S
C4111 C4109 1.388 . S
C4111 C4112 1.366 . S
C4112 C4111 1.366 . S
C4112 C4113 1.414 . S
C4112 C4115 1.499 1_565 S
C4113 H4087 0.950 . S
C4113 C4112 1.414 . S
C4113 C4114 1.374 . S
C4114 H4088 0.950 . S
C4114 C4110 1.385 . S
C4114 C4113 1.374 . S
C4115 C4112 1.499 1_545 S
C4115 C4116 1.373 . S
C4115 C4117 1.389 . S
C4116 H4089 0.950 . S
C4116 C4102 1.377 . S
C4116 C4115 1.373 . S
C4117 C4101 1.377 . S
C4117 C4115 1.389 . S
C4117 C4118 1.524 1_545 S
C4118 C4117 1.524 1_565 S
C4118 C4119 1.397 . S
C4118 C4123 1.363 . S
C4119 H4090 0.950 . S
C4119 C4118 1.397 . S
C4119 C4120 1.334 . S
C4120 H4091 0.950 . S
C4120 C4119 1.334 . S
C4120 C4121 1.287 . S
C4121 C4120 1.287 . S
C4121 C4122 1.524 . S
C4121 H4124 0.999 . S
C4122 H4092 0.950 . S
C4122 C4121 1.524 . S
C4122 C4123 1.415 . S
C4123 H4093 0.950 . S
C4123 C4118 1.363 . S
C4123 C4122 1.415 . S
H4124 C4121 0.999 . S
H4125 C4106 0.913 . S
H4126 C4144 0.951 . S
H4127 C4146 0.951 . S
H4128 C4148 0.950 . S
H4129 C4149 0.950 . S
H4130 C4151 0.950 . S
H4131 C4154 0.950 . S
H4132 C4155 0.950 . S
H4133 C4157 0.950 . S
H4134 C4158 0.950 . S
H4135 C4159 0.951 . S
H4136 C4161 0.951 . S
H4137 C4163 0.950 . S
H4138 C4164 0.950 . S
H4139 C4166 0.950 . S
H4140 C4169 0.950 . S
H4141 C4170 0.950 . S
H4142 C4172 0.950 . S
H4143 C4173 0.950 . S
C4144 H4126 0.951 . S
C4144 C4145 1.366 . S
C4144 C4146 1.388 . S
C4145 C4144 1.366 . S
C4145 C4149 1.385 . S
C4146 H4127 0.951 . S
C4146 C4144 1.388 . S
C4146 C4147 1.366 . S
C4147 C4146 1.366 . S
C4147 C4148 1.414 . S
C4147 C4150 1.499 . S
C4148 H4128 0.950 . S
C4148 C4147 1.414 . S
C4148 C4149 1.374 . S
C4149 H4129 0.950 . S
C4149 C4145 1.385 . S
C4149 C4148 1.374 . S
C4150 C4147 1.499 . S
C4150 C4151 1.373 . S
C4150 C4152 1.389 . S
C4151 H4130 0.950 . S
C4151 C4150 1.373 . S
C4151 C4167 1.377 1_655 S
C4152 C4150 1.389 . S
C4152 C4153 1.524 . S
C4152 C4166 1.377 1_655 S
C4153 C4152 1.524 . S
C4153 C4154 1.397 . S
C4153 C4158 1.363 . S
C4154 H4131 0.950 . S
C4154 C4153 1.397 . S
C4154 C4155 1.334 . S
C4155 H4132 0.950 . S
C4155 C4154 1.334 . S
C4155 C4156 1.287 . S
C4156 C4155 1.287 . S
C4156 C4157 1.524 . S
C4156 H4175 0.913 . S
C4157 H4133 0.950 . S
C4157 C4156 1.524 . S
C4157 C4158 1.415 . S
C4158 H4134 0.950 . S
C4158 C4153 1.363 . S
C4158 C4157 1.415 . S
C4159 H4135 0.951 . S
C4159 C4160 1.366 . S
C4159 C4161 1.388 . S
C4160 C4159 1.366 . S
C4160 C4164 1.385 . S
C4161 H4136 0.951 . S
C4161 C4159 1.388 . S
C4161 C4162 1.366 . S
C4162 C4161 1.366 . S
C4162 C4163 1.414 . S
C4162 C4165 1.499 . S
C4163 H4137 0.950 . S
C4163 C4162 1.414 . S
C4163 C4164 1.374 . S
C4164 H4138 0.950 . S
C4164 C4160 1.385 . S
C4164 C4163 1.374 . S
C4165 C4162 1.499 . S
C4165 C4166 1.373 . S
C4165 C4167 1.389 . S
C4166 H4139 0.950 . S
C4166 C4152 1.377 1_455 S
C4166 C4165 1.373 . S
C4167 C4151 1.377 1_455 S
C4167 C4165 1.389 . S
C4167 C4168 1.524 . S
C4168 C4167 1.524 . S
C4168 C4169 1.397 . S
C4168 C4173 1.363 . S
C4169 H4140 0.950 . S
C4169 C4168 1.397 . S
C4169 C4170 1.334 . S
C4170 H4141 0.950 . S
C4170 C4169 1.334 . S
C4170 C4171 1.287 . S
C4171 C4170 1.287 . S
C4171 C4172 1.524 . S
C4171 H4174 0.999 . S
C4172 H4142 0.950 . S
C4172 C4171 1.524 . S
C4172 C4173 1.415 . S
C4173 H4143 0.950 . S
C4173 C4168 1.363 . S
C4173 C4172 1.415 . S
H4174 C4171 0.999 . S
H4175 C4156 0.913 . S
C595 C54 0.859 . S
C610 C17 0.849 . S
C645 C49 0.849 . S
C660 C86 0.859 . S
C695 C81 0.847 . S
C710 C22 0.858 . S
C745 C146 0.858 . S
C760 C117 0.847 1_565 S
C795 C178 0.858 . S
C810 C149 0.847 . S
C845 C181 0.849 . S
C860 C114 0.859 . S
C895 C209 0.849 . S
C910 C246 0.859 . S
C945 C241 0.849 . S
C960 C278 0.858 . S
C995 C214 0.858 . S
C1010 C273 0.847 . S
C1045 C309 0.848 . S
C1060 C338 0.859 . S
C1095 C370 0.858 . S
C1110 C341 0.848 . S
C1145 C373 0.847 . S
C1160 C306 0.859 . S
C1195 C401 0.848 . S
C1210 C438 0.859 . S
C1245 C433 0.847 . S
C1260 C470 0.858 . S
C1295 C465 0.849 . S
C1310 C406 0.859 . S
C1345 C530 0.859 . S
C1360 C501 0.849 . S
C1395 C533 0.847 . S
C1410 C562 0.859 . S
C1445 C565 0.849 . S
C1460 C498 0.860 . S
C1495 C19 1.203 . S
C1510 C180 1.228 . S
C1545 C51 1.202 . S
C1560 C116 1.229 . S
C1595 C83 1.203 . S
C1610 C148 1.227 . S
C1645 C55 1.482 . S
C1660 C176 1.467 . S
C1695 C112 1.467 . S
C1710 C87 1.482 . S
C1745 C23 1.482 . S
C1760 C144 1.467 . S
C1795 C80 1.227 . S
C1810 C119 1.203 . S
C1845 C151 1.203 . S
C1860 C16 1.228 . S
C1895 C183 1.203 . S
C1910 C48 1.228 . S
C1945 C147 1.482 . S
C1960 C84 1.467 . S
C1995 C179 1.482 . S
C2010 C20 1.466 . S
C2045 C52 1.467 . S
C2060 C115 1.482 . S
C2095 C211 1.203 . S
C2110 C372 1.228 . S
C2145 C308 1.229 . S
C2160 C243 1.202 . S
C2195 C340 1.229 . S
C2210 C275 1.202 . S
C2245 C247 1.482 . S
C2260 C368 1.467 . S
C2295 C304 1.467 . S
C2310 C279 1.482 . S
C2345 C336 1.467 . S
C2360 C215 1.482 . S
C2395 C311 1.203 . S
C2410 C272 1.227 . S
C2445 C208 1.228 . S
C2460 C343 1.203 . S
C2495 C240 1.228 . S
C2510 C375 1.202 . S
C2545 C276 1.467 . S
C2560 C339 1.482 . S
C2595 C371 1.482 . S
C2610 C212 1.466 . S
C2645 C307 1.482 . S
C2660 C244 1.467 . S
C2695 C403 1.203 . S
C2710 C564 1.227 . S
C2745 C435 1.202 . S
C2760 C500 1.229 . S
C2795 C532 1.229 . S
C2810 C467 1.202 . S
C2845 C439 1.482 . S
C2860 C560 1.467 . S
C2895 C471 1.482 . S
C2910 C496 1.467 . S
C2945 C528 1.467 . S
C2960 C407 1.482 . S
C2995 C503 1.202 . S
C3010 C464 1.228 . S
C3045 C535 1.203 . S
C3060 C400 1.228 . S
C3095 C567 1.202 . S
C3110 C432 1.229 . S
C3145 C531 1.482 . S
C3160 C468 1.467 . S
C3195 C563 1.482 . S
C3210 C404 1.467 . S
C3245 C499 1.482 . S
C3260 C436 1.466 . S
C3295 C21 2.481 . S
C3310 C434 2.410 . S
C3345 C53 2.481 . S
C3360 C466 2.410 . S
C3395 C402 2.410 . S
C3410 C85 2.481 . S
C3445 C213 2.482 . S
C3460 C50 2.410 . S
C3495 C245 2.481 . S
C3510 C82 2.410 . S
C3545 C18 2.411 . S
C3560 C277 2.482 . S
C3595 C113 2.482 . S
C3610 C342 2.411 . S
C3645 C145 2.481 . S
C3660 C374 2.410 . S
C3695 C310 2.411 . S
C3710 C177 2.482 . S
C3745 C150 2.410 . S
C3760 C497 2.481 . S
C3795 C529 2.481 . S
C3810 C182 2.410 . S
C3845 C561 2.482 . S
C3860 C118 2.411 . S
C3895 C242 2.410 . S
C3910 C405 2.481 . S
C3945 C274 2.410 . S
C3960 C437 2.481 . S
C3995 C469 2.482 . S
C4010 C210 2.411 . S
C4045 C305 2.481 . S
C4060 C534 2.411 . S
C4095 C337 2.481 . S
C4110 C566 2.411 . S
C4145 C369 2.482 . S
C4160 C502 2.411 . S
