# Generated by pormake.
# Topology unb, (4)-cn, num edge types: 1
# Building blocks:
#     Node 0, Type 0, BuildingBlock: AZAVOO_clean_sbu_0, # of connection points: 4
#     Node 1, Type 0, BuildingBlock: AZAVOO_clean_sbu_0, # of connection points: 4
#     Node 2, Type 0, BuildingBlock: AZAVOO_clean_sbu_0, # of connection points: 4
#     Node 3, Type 0, BuildingBlock: AZAVOO_clean_sbu_0, # of connection points: 4
#     Node 4, Type 0, BuildingBlock: AZAVOO_clean_sbu_0, # of connection points: 4
#     Node 5, Type 0, BuildingBlock: AZAVOO_clean_sbu_0, # of connection points: 4
#     Node 6, Type 0, BuildingBlock: AZAVOO_clean_sbu_0, # of connection points: 4
#     Node 7, Type 0, BuildingBlock: AZAVOO_clean_sbu_0, # of connection points: 4
#     Node 8, Type 0, BuildingBlock: AZAVOO_clean_sbu_0, # of connection points: 4
#     Node 9, Type 0, BuildingBlock: AZAVOO_clean_sbu_0, # of connection points: 4
#     Node 10, Type 0, BuildingBlock: AZAVOO_clean_sbu_0, # of connection points: 4
#     Node 11, Type 0, BuildingBlock: AZAVOO_clean_sbu_0, # of connection points: 4
#     Node 12, Type 0, BuildingBlock: AZAVOO_clean_sbu_0, # of connection points: 4
#     Node 13, Type 0, BuildingBlock: AZAVOO_clean_sbu_0, # of connection points: 4
#     Node 14, Type 0, BuildingBlock: AZAVOO_clean_sbu_0, # of connection points: 4
#     Node 15, Type 0, BuildingBlock: AZAVOO_clean_sbu_0, # of connection points: 4
#     Node 16, Type 0, BuildingBlock: AZAVOO_clean_sbu_0, # of connection points: 4
#     Node 17, Type 0, BuildingBlock: AZAVOO_clean_sbu_0, # of connection points: 4
#     Edge 18, Type (0, 0), BuildingBlock: OJICUG_clean_linker_0, # of connection points: 2
#     Edge 19, Type (0, 0), BuildingBlock: OJICUG_clean_linker_0, # of connection points: 2
#     Edge 20, Type (0, 0), BuildingBlock: OJICUG_clean_linker_0, # of connection points: 2
#     Edge 21, Type (0, 0), BuildingBlock: OJICUG_clean_linker_0, # of connection points: 2
#     Edge 22, Type (0, 0), BuildingBlock: OJICUG_clean_linker_0, # of connection points: 2
#     Edge 23, Type (0, 0), BuildingBlock: OJICUG_clean_linker_0, # of connection points: 2
#     Edge 24, Type (0, 0), BuildingBlock: OJICUG_clean_linker_0, # of connection points: 2
#     Edge 25, Type (0, 0), BuildingBlock: OJICUG_clean_linker_0, # of connection points: 2
#     Edge 26, Type (0, 0), BuildingBlock: OJICUG_clean_linker_0, # of connection points: 2
#     Edge 27, Type (0, 0), BuildingBlock: OJICUG_clean_linker_0, # of connection points: 2
#     Edge 28, Type (0, 0), BuildingBlock: OJICUG_clean_linker_0, # of connection points: 2
#     Edge 29, Type (0, 0), BuildingBlock: OJICUG_clean_linker_0, # of connection points: 2
#     Edge 30, Type (0, 0), BuildingBlock: OJICUG_clean_linker_0, # of connection points: 2
#     Edge 31, Type (0, 0), BuildingBlock: OJICUG_clean_linker_0, # of connection points: 2
#     Edge 32, Type (0, 0), BuildingBlock: OJICUG_clean_linker_0, # of connection points: 2
#     Edge 33, Type (0, 0), BuildingBlock: OJICUG_clean_linker_0, # of connection points: 2
#     Edge 34, Type (0, 0), BuildingBlock: OJICUG_clean_linker_0, # of connection points: 2
#     Edge 35, Type (0, 0), BuildingBlock: OJICUG_clean_linker_0, # of connection points: 2
#     Edge 36, Type (0, 0), BuildingBlock: OJICUG_clean_linker_0, # of connection points: 2
#     Edge 37, Type (0, 0), BuildingBlock: OJICUG_clean_linker_0, # of connection points: 2
#     Edge 38, Type (0, 0), BuildingBlock: OJICUG_clean_linker_0, # of connection points: 2
#     Edge 39, Type (0, 0), BuildingBlock: OJICUG_clean_linker_0, # of connection points: 2
#     Edge 40, Type (0, 0), BuildingBlock: OJICUG_clean_linker_0, # of connection points: 2
#     Edge 41, Type (0, 0), BuildingBlock: OJICUG_clean_linker_0, # of connection points: 2
#     Edge 42, Type (0, 0), BuildingBlock: OJICUG_clean_linker_0, # of connection points: 2
#     Edge 43, Type (0, 0), BuildingBlock: OJICUG_clean_linker_0, # of connection points: 2
#     Edge 44, Type (0, 0), BuildingBlock: OJICUG_clean_linker_0, # of connection points: 2
#     Edge 45, Type (0, 0), BuildingBlock: OJICUG_clean_linker_0, # of connection points: 2
#     Edge 46, Type (0, 0), BuildingBlock: OJICUG_clean_linker_0, # of connection points: 2
#     Edge 47, Type (0, 0), BuildingBlock: OJICUG_clean_linker_0, # of connection points: 2
#     Edge 48, Type (0, 0), BuildingBlock: OJICUG_clean_linker_0, # of connection points: 2
#     Edge 49, Type (0, 0), BuildingBlock: OJICUG_clean_linker_0, # of connection points: 2
#     Edge 50, Type (0, 0), BuildingBlock: OJICUG_clean_linker_0, # of connection points: 2
#     Edge 51, Type (0, 0), BuildingBlock: OJICUG_clean_linker_0, # of connection points: 2
#     Edge 52, Type (0, 0), BuildingBlock: OJICUG_clean_linker_0, # of connection points: 2
#     Edge 53, Type (0, 0), BuildingBlock: OJICUG_clean_linker_0, # of connection points: 2
# Relax obj value: 0.011
# Max RMSD: 0.021
# Mean RMSD: 0.021
data_MOF--net-unb--node1-AZAVOO_clean_sbu_0--edge1-OJICUG_clean_linker_0
_symmetry_space_group_name_H-M    P1
_symmetry_Int_Tables_number       1
_symmetry_cell_setting            triclinic
loop_
_symmetry_equiv_pos_as_xyz
'x, y, z'
_cell_length_a     50.263787
_cell_length_b     50.306119
_cell_length_c     17.160671
_cell_angle_alpha  90.121858
_cell_angle_beta   90.037674
_cell_angle_gamma 120.02262
loop_
_atom_site_label
_atom_site_type_symbol
_atom_site_fract_x
_atom_site_fract_y
_atom_site_fract_z
_atom_type_partial_charge
Mg0 Mg 0.12286 0.24068 0.07585 0.0
O1 O 0.12614 0.27395 0.97917 0.0
O2 O 0.08691 0.28253 0.99294 0.0
Mg3 Mg 0.06061 0.25771 0.10305 0.0
C4 C 0.11085 0.2866 0.95681 0.0
C5 C 0.18396 0.23897 0.08112 0.0
O6 O 0.17504 0.23188 0.15381 0.0
O7 O 0.14423 0.28057 0.16372 0.0
O8 O 0.10401 0.28796 0.17417 0.0
O9 O 0.08908 0.20066 0.00408 0.0
O10 O 0.07576 0.2241 0.09152 0.0
C11 C 0.13138 0.29481 0.19242 0.0
C12 C 0.06769 0.20336 0.03867 0.0
O13 O 0.16877 0.24661 0.03643 0.0
Mg14 Mg 0.7494 0.87623 0.06833 0.0
O15 O 0.71776 0.85082 0.96234 0.0
O16 O 0.70217 0.80094 0.97737 0.0
Mg17 Mg 0.72119 0.79378 0.09095 0.0
C18 C 0.70262 0.82288 0.93901 0.0
C19 C 0.75933 0.94141 0.08864 0.0
O20 O 0.76196 0.93417 0.16065 0.0
O21 O 0.70719 0.86061 0.14617 0.0
O22 O 0.6933 0.81101 0.15701 0.0
O23 O 0.79108 0.87994 0.00956 0.0
O24 O 0.75923 0.84082 0.0824 0.0
C25 C 0.68953 0.83372 0.17295 0.0
C26 C 0.7831 0.85327 0.0385 0.0
O27 O 0.75145 0.92105 0.03588 0.0
Mg28 Mg 0.12419 0.87872 0.07209 0.0
O29 O 0.15379 0.87193 0.98004 0.0
O30 O 0.20298 0.90451 0.00954 0.0
Mg31 Mg 0.2055 0.93292 0.11682 0.0
C32 C 0.18249 0.8834 0.96665 0.0
C33 C 0.05762 0.82152 0.06983 0.0
O34 O 0.05939 0.82897 0.14386 0.0
O35 O 0.13564 0.85252 0.1639 0.0
O36 O 0.18318 0.8903 0.19324 0.0
O37 O 0.12431 0.9172 0.00408 0.0
O38 O 0.15928 0.92387 0.09135 0.0
C39 C 0.15998 0.86379 0.20574 0.0
C40 C 0.14946 0.93558 0.04056 0.0
O41 O 0.08124 0.83612 0.02721 0.0
Mg42 Mg 0.25231 0.12206 0.95237 0.0
O43 O 0.2883 0.12869 0.04548 0.0
O44 O 0.30308 0.09436 0.02091 0.0
Mg45 Mg 0.27587 0.06465 0.91643 0.0
C46 C 0.30477 0.11657 0.06109 0.0
C47 C 0.24629 0.18111 0.9471 0.0
O48 O 0.24038 0.17278 0.87361 0.0
O49 O 0.29015 0.14561 0.85963 0.0
O50 O 0.29755 0.10599 0.83568 0.0
O51 O 0.21296 0.08563 0.02261 0.0
O52 O 0.24012 0.07611 0.93816 0.0
C53 C 0.30207 0.13272 0.81971 0.0
C54 C 0.21848 0.06593 0.98866 0.0
O55 O 0.25436 0.16631 0.99191 0.0
Mg56 Mg 0.88621 0.11415 0.89469 0.0
O57 O 0.8786 0.14652 0.97468 0.0
O58 O 0.91581 0.1944 0.94986 0.0
Mg59 Mg 0.94658 0.19297 0.85268 0.0
C60 C 0.8919 0.17537 0.98759 0.0
C61 C 0.83294 0.06733 1.00014 0.0
O62 O 0.85149 0.08656 0.0532 0.0
O63 O 0.86626 0.12676 0.78994 0.0
O64 O 0.90682 0.1731 0.76526 0.0
O65 O 0.91937 0.11333 0.98185 0.0
O66 O 0.93301 0.14589 0.88396 0.0
C67 C 0.88022 0.1508 0.74775 0.0
C68 C 0.94079 0.1364 0.94435 0.0
O69 O 0.83975 0.07353 0.92862 0.0
Mg70 Mg 0.87269 0.75758 0.92999 0.0
O71 O 0.84207 0.72042 0.0189 0.0
O72 O 0.79326 0.70637 0.99171 0.0
Mg73 Mg 0.79213 0.73459 0.88833 0.0
C74 C 0.81328 0.7041 0.03258 0.0
C75 C 0.93822 0.76468 0.92788 0.0
O76 O 0.93675 0.77238 0.85556 0.0
O77 O 0.85956 0.72102 0.83354 0.0
O78 O 0.81271 0.71373 0.80724 0.0
O79 O 0.87453 0.79546 0.00482 0.0
O80 O 0.83897 0.76989 0.91613 0.0
C81 C 0.83514 0.70943 0.79196 0.0
C82 C 0.84953 0.79027 0.97019 0.0
O83 O 0.91461 0.75513 0.97087 0.0
Mg84 Mg 0.78317 0.57402 0.4128 0.0
O85 O 0.78662 0.60796 0.31783 0.0
O86 O 0.74904 0.61871 0.33618 0.0
Mg87 Mg 0.72422 0.59498 0.44884 0.0
C88 C 0.77202 0.62157 0.29757 0.0
C89 C 0.84301 0.57005 0.41155 0.0
O90 O 0.83524 0.56389 0.48519 0.0
O91 O 0.80738 0.61359 0.50049 0.0
O92 O 0.7692 0.62391 0.5158 0.0
O93 O 0.74725 0.5349 0.34275 0.0
O94 O 0.73684 0.55954 0.43357 0.0
C95 C 0.79631 0.62917 0.53111 0.0
C96 C 0.72715 0.53875 0.38041 0.0
O97 O 0.82756 0.57783 0.3682 0.0
Mg98 Mg 0.43611 0.22044 0.4398 0.0
O99 O 0.40131 0.1892 0.34571 0.0
O100 O 0.3931 0.14161 0.3617 0.0
Mg101 Mg 0.41868 0.14122 0.47151 0.0
C102 C 0.3886 0.16104 0.32482 0.0
C103 C 0.43153 0.26795 0.33212 0.0
O104 O 0.43246 0.24942 0.27951 0.0
O105 O 0.39739 0.20319 0.53 0.0
O106 O 0.38916 0.15534 0.54212 0.0
O107 O 0.47522 0.22547 0.36588 0.0
O108 O 0.45219 0.1897 0.45549 0.0
C109 C 0.38295 0.17634 0.55969 0.0
C110 C 0.47241 0.20154 0.40146 0.0
O111 O 0.43043 0.26105 0.40375 0.0
Mg112 Mg 0.79721 0.20682 0.38255 0.0
O113 O 0.82448 0.20413 0.27668 0.0
O114 O 0.87401 0.23901 0.29456 0.0
Mg115 Mg 0.8791 0.26283 0.41146 0.0
C116 C 0.85249 0.21779 0.2542 0.0
C117 C 0.73101 0.14939 0.38383 0.0
O118 O 0.73379 0.15679 0.45807 0.0
O119 O 0.81361 0.18 0.45772 0.0
O120 O 0.86263 0.21703 0.47263 0.0
O121 O 0.7926 0.24515 0.32948 0.0
O122 O 0.83137 0.25234 0.40409 0.0
C123 C 0.84052 0.18993 0.48589 0.0
C124 C 0.81858 0.26394 0.36202 0.0
O125 O 0.75405 0.16403 0.33942 0.0
Mg126 Mg 0.9078 0.45037 0.27382 0.0
O127 O 0.946 0.45857 0.36145 0.0
O128 O 0.96175 0.42536 0.33209 0.0
Mg129 Mg 0.93329 0.39496 0.22985 0.0
C130 C 0.96345 0.44729 0.37355 0.0
C131 C 0.90178 0.50958 0.27154 0.0
O132 O 0.89631 0.50212 0.19746 0.0
O133 O 0.94353 0.47463 0.17676 0.0
O134 O 0.95223 0.43611 0.14864 0.0
O135 O 0.87086 0.41328 0.34864 0.0
O136 O 0.8971 0.40499 0.25858 0.0
C137 C 0.95545 0.46244 0.13417 0.0
C138 C 0.87685 0.39428 0.3126 0.0
O139 O 0.90919 0.49404 0.31553 0.0
Mg140 Mg 0.54328 0.45698 0.26446 0.0
O141 O 0.53788 0.48541 0.36337 0.0
O142 O 0.57606 0.53382 0.34965 0.0
Mg143 Mg 0.60335 0.53729 0.23996 0.0
C144 C 0.55249 0.51343 0.38592 0.0
C145 C 0.48574 0.39399 0.2442 0.0
O146 O 0.49686 0.40078 0.17315 0.0
O147 O 0.52091 0.47455 0.17746 0.0
O148 O 0.55985 0.52291 0.16826 0.0
O149 O 0.57802 0.45192 0.33558 0.0
O150 O 0.58983 0.48904 0.25053 0.0
C151 C 0.53286 0.50167 0.14953 0.0
C152 C 0.59872 0.47663 0.30183 0.0
O153 O 0.49811 0.41442 0.29688 0.0
Mg154 Mg 0.54872 0.09713 0.26129 0.0
O155 O 0.51658 0.06062 0.34899 0.0
O156 O 0.4693 0.05293 0.33051 0.0
Mg157 Mg 0.4708 0.08386 0.23026 0.0
C158 C 0.48809 0.04716 0.36646 0.0
C159 C 0.61051 0.09709 0.25184 0.0
O160 O 0.609 0.10605 0.18092 0.0
O161 O 0.53086 0.0613 0.16188 0.0
O162 O 0.48549 0.05879 0.14489 0.0
O163 O 0.55471 0.1348 0.34322 0.0
O164 O 0.51955 0.1154 0.25068 0.0
C165 C 0.5056 0.05168 0.12456 0.0
C166 C 0.53173 0.13422 0.30764 0.0
O167 O 0.58766 0.08878 0.29691 0.0
Mg168 Mg 0.45318 0.9146 0.74639 0.0
O169 O 0.45828 0.94849 0.64856 0.0
O170 O 0.41978 0.95829 0.66189 0.0
Mg171 Mg 0.39219 0.93356 0.77051 0.0
C172 C 0.44358 0.96179 0.62605 0.0
C173 C 0.51138 0.91014 0.76645 0.0
O174 O 0.50023 0.90547 0.83752 0.0
O175 O 0.47467 0.95423 0.83492 0.0
O176 O 0.43515 0.96274 0.84445 0.0
O177 O 0.41944 0.87491 0.67355 0.0
O178 O 0.40635 0.89925 0.75888 0.0
C179 C 0.4622 0.96883 0.86371 0.0
C180 C 0.3982 0.87827 0.70668 0.0
O181 O 0.49883 0.91813 0.71426 0.0
Mg182 Mg 0.09291 0.54385 0.76504 0.0
O183 O 0.06008 0.51683 0.66218 0.0
O184 O 0.04574 0.46735 0.67983 0.0
Mg185 Mg 0.06632 0.46198 0.79286 0.0
C186 C 0.04525 0.48864 0.64063 0.0
C187 C 0.10091 0.60807 0.78515 0.0
O188 O 0.10451 0.60109 0.85666 0.0
O189 O 0.05178 0.52851 0.84632 0.0
O190 O 0.0384 0.47912 0.85947 0.0
O191 O 0.1338 0.54772 0.70202 0.0
O192 O 0.1037 0.50912 0.77873 0.0
C193 C 0.03457 0.50185 0.87477 0.0
C194 C 0.12658 0.52132 0.73152 0.0
O195 O 0.09335 0.58785 0.73215 0.0
Mg196 Mg 0.45166 0.55004 0.75457 0.0
O197 O 0.4815 0.54266 0.66373 0.0
O198 O 0.53021 0.57897 0.68608 0.0
Mg199 Mg 0.53221 0.61006 0.7863 0.0
C200 C 0.51018 0.55564 0.64794 0.0
C201 C 0.40156 0.49823 0.65233 0.0
O202 O 0.42049 0.51683 0.59919 0.0
O203 O 0.46762 0.52932 0.85109 0.0
O204 O 0.5143 0.5701 0.87142 0.0
O205 O 0.44708 0.58411 0.67807 0.0
O206 O 0.48466 0.59656 0.76201 0.0
C207 C 0.49269 0.54335 0.8899 0.0
C208 C 0.47246 0.60501 0.70911 0.0
O209 O 0.40902 0.50418 0.72377 0.0
Mg210 Mg 0.56454 0.78744 0.57479 0.0
O211 O 0.60364 0.79607 0.66077 0.0
O212 O 0.61696 0.76079 0.63371 0.0
Mg213 Mg 0.58666 0.72911 0.53564 0.0
C214 C 0.62025 0.78382 0.6732 0.0
C215 C 0.56781 0.84014 0.67793 0.0
O216 O 0.56971 0.82259 0.73166 0.0
O217 O 0.59925 0.80876 0.47459 0.0
O218 O 0.60606 0.76884 0.44963 0.0
O219 O 0.5279 0.75279 0.65501 0.0
O220 O 0.55224 0.74134 0.56635 0.0
C221 C 0.61006 0.7953 0.43282 0.0
C222 C 0.53268 0.73242 0.62201 0.0
O223 O 0.5674 0.83296 0.60665 0.0
Mg224 Mg 0.21464 0.78407 0.58521 0.0
O225 O 0.20884 0.81409 0.67872 0.0
O226 O 0.24544 0.8628 0.65945 0.0
Mg227 Mg 0.27102 0.8647 0.54771 0.0
C228 C 0.22271 0.84244 0.69821 0.0
C229 C 0.16656 0.73463 0.69619 0.0
O230 O 0.1864 0.75397 0.74704 0.0
O231 O 0.18966 0.79734 0.49542 0.0
O232 O 0.22589 0.8466 0.4798 0.0
O233 O 0.25106 0.78306 0.65819 0.0
O234 O 0.26051 0.81751 0.56668 0.0
C235 C 0.19941 0.82366 0.46444 0.0
C236 C 0.27064 0.80748 0.62123 0.0
O237 O 0.17053 0.74161 0.62433 0.0
Mg238 Mg 0.21101 0.42433 0.58945 0.0
O239 O 0.18165 0.38679 0.67981 0.0
O240 O 0.13286 0.37436 0.65787 0.0
Mg241 Mg 0.1304 0.40341 0.55879 0.0
C242 C 0.15294 0.37105 0.69559 0.0
C243 C 0.27458 0.4305 0.56545 0.0
O244 O 0.26797 0.43582 0.49516 0.0
O245 O 0.19527 0.38805 0.4916 0.0
O246 O 0.14841 0.38175 0.47226 0.0
O247 O 0.2154 0.46214 0.66889 0.0
O248 O 0.17776 0.43745 0.58459 0.0
C249 C 0.17016 0.37689 0.45299 0.0
C250 C 0.18977 0.45747 0.63922 0.0
O251 O 0.25408 0.42186 0.61793 0.0
C252 C 0.14774 0.36142 0.32135 0.0
C253 C 0.1657 0.35914 0.38073 0.0
H254 H 0.12372 0.34347 0.21458 0.0
C255 C 0.17658 0.33844 0.37176 0.0
H256 H 0.13964 0.3777 0.32562 0.0
C257 C 0.1673 0.31849 0.30711 0.0
C258 C 0.14722 0.31932 0.25116 0.0
H259 H 0.19064 0.33643 0.41662 0.0
H260 H 0.1742 0.30129 0.30349 0.0
C261 C 0.13869 0.34185 0.25747 0.0
C262 C 0.6506 0.83934 0.35513 0.0
C263 C 0.6262 0.80893 0.35944 0.0
H264 H 0.69036 0.87157 0.2902 0.0
C265 C 0.61965 0.78938 0.29505 0.0
H266 H 0.65599 0.85476 0.40428 0.0
C267 C 0.63887 0.79887 0.23061 0.0
C268 C 0.66516 0.82809 0.22921 0.0
H269 H 0.60061 0.76598 0.29655 0.0
H270 H 0.63432 0.78252 0.18407 0.0
C271 C 0.67012 0.84892 0.28997 0.0
C272 C 0.18046 0.85631 0.40976 0.0
C273 C 0.18068 0.82861 0.40675 0.0
H274 H 0.17276 0.88857 0.34789 0.0
C275 C 0.16814 0.8093 0.34136 0.0
H276 H 0.18984 0.87146 0.45973 0.0
C277 C 0.1584 0.81926 0.27646 0.0
C278 C 0.16111 0.84843 0.27735 0.0
H279 H 0.16836 0.78791 0.33778 0.0
H280 H 0.15124 0.80543 0.22392 0.0
C281 C 0.17071 0.86608 0.34581 0.0
C282 C 0.36157 0.18886 0.67814 0.0
C283 C 0.35869 0.16843 0.61819 0.0
H284 H 0.34546 0.19351 0.79109 0.0
C285 C 0.33438 0.13805 0.62051 0.0
H286 H 0.38024 0.21243 0.67752 0.0
C287 C 0.31498 0.12741 0.68445 0.0
C288 C 0.31934 0.14687 0.74779 0.0
H289 H 0.33132 0.12195 0.5745 0.0
H290 H 0.29732 0.1034 0.68586 0.0
C291 C 0.34184 0.17808 0.74296 0.0
C292 C 0.87665 0.17607 0.54512 0.0
C293 C 0.84677 0.17152 0.54183 0.0
H294 H 0.91034 0.17272 0.61317 0.0
C295 C 0.82587 0.15481 0.60154 0.0
H296 H 0.89311 0.18858 0.49951 0.0
C297 C 0.83586 0.14561 0.6674 0.0
C298 C 0.86677 0.15326 0.6737 0.0
H299 H 0.80274 0.15119 0.60046 0.0
H300 H 0.82019 0.13479 0.71555 0.0
C301 C 0.88655 0.16715 0.61038 0.0
C302 C 0.81933 0.69851 0.65447 0.0
C303 C 0.83267 0.69269 0.71927 0.0
H304 H 0.79817 0.68322 0.54315 0.0
C305 C 0.83939 0.66875 0.71551 0.0
H306 H 0.81441 0.71718 0.65534 0.0
C307 C 0.83003 0.6491 0.65027 0.0
C308 C 0.814 0.65344 0.58888 0.0
H309 H 0.84971 0.66391 0.76489 0.0
H310 H 0.83314 0.62929 0.65063 0.0
C311 C 0.81012 0.67915 0.59011 0.0
C312 C 0.99663 0.50695 0.05926 0.0
C313 C 0.97136 0.47698 0.06128 0.0
H314 H 0.03702 0.5389 0.99587 0.0
C315 C 0.96407 0.45823 0.99496 0.0
H316 H 0.00264 0.5217 0.11002 0.0
C317 C 0.9834 0.46787 0.93071 0.0
C318 C 0.01042 0.4965 0.93134 0.0
H319 H 0.94444 0.43515 0.99493 0.0
H320 H 0.97832 0.452 0.88265 0.0
C321 C 0.01617 0.51674 0.99413 0.0
C322 C 0.5233 0.54017 0.08648 0.0
C323 C 0.51635 0.50953 0.09114 0.0
H324 H 0.52083 0.57445 0.01963 0.0
C325 C 0.49736 0.48851 0.03377 0.0
H326 H 0.5374 0.55678 0.13049 0.0
C327 C 0.4877 0.49878 0.96927 0.0
C328 C 0.49713 0.5301 0.96198 0.0
H329 H 0.49171 0.46473 0.03613 0.0
H330 H 0.47462 0.48276 0.92322 0.0
C331 C 0.51387 0.55031 0.02277 0.0
C332 C 0.47962 0.03484 0.99678 0.0
C333 C 0.49903 0.03305 0.05282 0.0
H334 H 0.45362 0.0166 0.89278 0.0
C335 C 0.50987 0.01244 0.04072 0.0
H336 H 0.47148 0.05101 0.00315 0.0
C337 C 0.49945 0.99237 0.97625 0.0
C338 C 0.47823 0.99291 0.92351 0.0
H339 H 0.52504 0.01078 0.08279 0.0
H340 H 0.50665 0.97547 0.97005 0.0
C341 C 0.46942 0.01512 0.93315 0.0
C342 C 0.10205 0.31624 0.85274 0.0
C343 C 0.12155 0.3073 0.88814 0.0
H344 H 0.09649 0.34298 0.7646 0.0
C345 C 0.15149 0.31905 0.8586 0.0
H346 H 0.07883 0.30761 0.87366 0.0
C347 C 0.16181 0.33971 0.79606 0.0
C348 C 0.14228 0.34876 0.76104 0.0
H349 H 0.16716 0.31272 0.88465 0.0
H350 H 0.18507 0.34859 0.77522 0.0
C351 C 0.1122 0.33654 0.78986 0.0
C352 C 0.65147 0.8234 0.77601 0.0
C353 C 0.6431 0.79549 0.73777 0.0
H354 H 0.67737 0.85438 0.86894 0.0
C355 C 0.6561 0.77796 0.76355 0.0
H356 H 0.64199 0.83754 0.75749 0.0
C357 C 0.67598 0.78742 0.82742 0.0
C358 C 0.68384 0.8149 0.86684 0.0
H359 H 0.65029 0.75637 0.73571 0.0
H360 H 0.68493 0.7729 0.84656 0.0
C361 C 0.67186 0.83315 0.83956 0.0
C362 C 0.17277 0.84399 0.86284 0.0
C363 C 0.19256 0.87241 0.89853 0.0
H364 H 0.16686 0.81193 0.77236 0.0
C365 C 0.22233 0.89051 0.86833 0.0
H366 H 0.14973 0.82943 0.88487 0.0
C367 C 0.23197 0.88071 0.80351 0.0
C368 C 0.21228 0.85231 0.7678 0.0
H369 H 0.23817 0.91255 0.89414 0.0
H370 H 0.255 0.89541 0.78162 0.0
C371 C 0.18263 0.83391 0.7986 0.0
C372 C 0.35915 0.12171 0.22166 0.0
C373 C 0.36765 0.15024 0.25631 0.0
H374 H 0.33299 0.08891 0.13321 0.0
C375 C 0.35546 0.16785 0.22569 0.0
H376 H 0.36815 0.10757 0.24342 0.0
C377 C 0.33491 0.15693 0.16267 0.0
C378 C 0.32645 0.12837 0.1281 0.0
H379 H 0.36146 0.18989 0.25107 0.0
H380 H 0.32579 0.17095 0.14077 0.0
C381 C 0.339 0.11102 0.15817 0.0
C382 C 0.89876 0.2169 0.08069 0.0
C383 C 0.88036 0.18698 0.05137 0.0
H384 H 0.90444 0.25 0.16732 0.0
C385 C 0.85161 0.16791 0.08628 0.0
H386 H 0.92102 0.23224 0.05543 0.0
C387 C 0.8419 0.17829 0.15018 0.0
C388 C 0.86093 0.20778 0.18135 0.0
H389 H 0.83678 0.14477 0.06503 0.0
H390 H 0.81998 0.16281 0.17682 0.0
C391 C 0.88927 0.22708 0.14512 0.0
C392 C 0.82219 0.67331 0.13416 0.0
C393 C 0.80264 0.68231 0.09905 0.0
H394 H 0.82777 0.64677 0.22356 0.0
C395 C 0.77278 0.6706 0.12881 0.0
H396 H 0.84529 0.6818 0.11256 0.0
C397 C 0.76287 0.65083 0.19285 0.0
C398 C 0.7824 0.64187 0.22816 0.0
H399 H 0.75712 0.67709 0.10343 0.0
H400 H 0.73982 0.64253 0.21465 0.0
C401 C 0.81209 0.65312 0.1976 0.0
C402 C 0.9937 0.4872 0.47621 0.0
C403 C 0.9857 0.45913 0.43932 0.0
H404 H 0.01929 0.51895 0.56804 0.0
C405 C 0.99871 0.44189 0.46702 0.0
H406 H 0.98421 0.50113 0.45607 0.0
C407 C 0.01843 0.4519 0.53128 0.0
C408 C 0.02609 0.47967 0.56902 0.0
H409 H 0.99312 0.42018 0.44021 0.0
H410 H 0.02753 0.43767 0.55177 0.0
C411 C 0.01392 0.4975 0.54003 0.0
C412 C 0.55103 0.5616 0.55428 0.0
C413 C 0.52083 0.54395 0.58234 0.0
H414 H 0.58453 0.5659 0.47107 0.0
C415 C 0.50121 0.51548 0.54653 0.0
H416 H 0.56683 0.58364 0.58017 0.0
C417 C 0.51158 0.50509 0.48391 0.0
C418 C 0.54164 0.52313 0.45509 0.0
H419 H 0.47785 0.50125 0.56677 0.0
H420 H 0.49586 0.48322 0.45711 0.0
C421 C 0.56121 0.55143 0.49138 0.0
C422 C 0.43612 0.99305 0.52364 0.0
C423 C 0.45473 0.98263 0.55755 0.0
H424 H 0.43183 0.0212 0.43707 0.0
C425 C 0.48426 0.99308 0.52676 0.0
H426 H 0.41321 0.98542 0.54551 0.0
C427 C 0.49508 0.01391 0.46462 0.0
C428 C 0.47652 0.02452 0.43124 0.0
H429 H 0.49925 0.98561 0.55149 0.0
H430 H 0.51805 0.02174 0.44291 0.0
C431 C 0.4468 0.01358 0.46115 0.0
C432 C 0.20956 0.23051 0.966 0.0
C433 C 0.20621 0.23098 0.04731 0.0
H434 H 0.22517 0.21456 0.87032 0.0
C435 C 0.22092 0.21958 0.09514 0.0
H436 H 0.19878 0.23936 0.92738 0.0
C437 C 0.2362 0.20547 0.06233 0.0
C438 C 0.23692 0.20231 0.981 0.0
H439 H 0.21911 0.2199 0.15799 0.0
H440 H 0.2457 0.19532 0.10096 0.0
C441 C 0.22468 0.21623 0.93318 0.0
C442 C 0.80364 0.02794 0.10232 0.0
C443 C 0.80849 0.03621 0.02323 0.0
H444 H 0.78382 0.99142 0.18521 0.0
C445 C 0.79262 0.01341 0.96651 0.0
H446 H 0.8152 0.04498 0.14757 0.0
C447 C 0.7746 0.98263 0.98813 0.0
C448 C 0.77208 0.97405 0.0669 0.0
H449 H 0.79556 0.01903 0.90507 0.0
H450 H 0.7642 0.96542 0.94273 0.0
C451 C 0.78561 0.99718 0.12393 0.0
C452 C 0.97149 0.7727 0.04469 0.0
C453 C 0.9684 0.77324 0.96329 0.0
H454 H 0.00218 0.78737 0.14233 0.0
C455 C 0.99501 0.78566 0.91708 0.0
H456 H 0.95147 0.7631 0.08208 0.0
C457 C 0.02412 0.79944 0.9517 0.0
C458 C 0.02724 0.80127 0.03332 0.0
H459 H 0.99346 0.78618 0.8542 0.0
H460 H 0.04415 0.81021 0.91441 0.0
C461 C 0.0006 0.78666 0.07933 0.0
C462 C 0.84877 0.83836 0.00185 0.0
C463 C 0.83298 0.80635 0.99235 0.0
H464 H 0.84502 0.87855 0.02171 0.0
C465 C 0.80086 0.78996 0.99816 0.0
H466 H 0.87357 0.85147 0.99686 0.0
C467 C 0.78467 0.80527 0.01282 0.0
C468 C 0.80027 0.83732 0.0209 0.0
H469 H 0.78819 0.76525 0.99187 0.0
H470 H 0.75992 0.79198 0.01611 0.0
C471 C 0.83247 0.85381 0.01505 0.0
C472 C 0.19895 0.98405 0.02071 0.0
C473 C 0.16679 0.96874 0.02464 0.0
H474 H 0.24054 0.02695 0.00777 0.0
C475 C 0.15163 0.98573 0.01913 0.0
H476 H 0.21116 0.97147 0.02412 0.0
C477 C 0.16856 0.01771 0.01081 0.0
C478 C 0.20075 0.03289 0.00594 0.0
H479 H 0.12682 0.97438 0.0229 0.0
H480 H 0.1565 0.03045 0.00619 0.0
C481 C 0.21576 0.01579 0.01084 0.0
C482 C 0.98093 0.15826 0.04878 0.0
C483 C 0.97309 0.15219 0.96976 0.0
H484 H 0.01748 0.1802 0.13227 0.0
C485 C 0.99651 0.1623 0.91368 0.0
H486 H 0.96322 0.15084 0.09285 0.0
C487 C 0.02738 0.17812 0.93622 0.0
C488 C 0.03526 0.18504 0.01496 0.0
H489 H 0.99092 0.15781 0.85231 0.0
H490 H 0.04504 0.18572 0.89196 0.0
C491 C 0.01185 0.1751 0.07109 0.0
C492 C 0.86668 0.56032 0.29429 0.0
C493 C 0.86422 0.56109 0.37584 0.0
H494 H 0.88076 0.5436 0.19711 0.0
C495 C 0.87885 0.54922 0.42231 0.0
H496 H 0.85593 0.56952 0.2567 0.0
C497 C 0.8932 0.53444 0.38807 0.0
C498 C 0.89309 0.53111 0.30663 0.0
H499 H 0.87772 0.54975 0.48529 0.0
H500 H 0.90272 0.52403 0.42575 0.0
C501 C 0.88091 0.54541 0.26004 0.0
C502 C 0.45865 0.35283 0.34452 0.0
C503 C 0.46501 0.36146 0.26583 0.0
H504 H 0.44264 0.3163 0.42744 0.0
C505 C 0.45518 0.33833 0.20874 0.0
H506 H 0.46564 0.37004 0.38997 0.0
C507 C 0.44207 0.30752 0.23023 0.0
C508 C 0.43842 0.29917 0.30926 0.0
H509 H 0.45936 0.34411 0.14751 0.0
H510 H 0.43648 0.29049 0.18493 0.0
C511 C 0.44545 0.32197 0.36603 0.0
C512 C 0.64451 0.10271 0.36518 0.0
C513 C 0.64058 0.10366 0.28425 0.0
H514 H 0.67629 0.11623 0.4603 0.0
C515 C 0.66655 0.11512 0.2359 0.0
H516 H 0.62499 0.0938 0.40416 0.0
C517 C 0.696 0.12786 0.26815 0.0
C518 C 0.7001 0.12959 0.34948 0.0
H519 H 0.66432 0.11588 0.17328 0.0
H520 H 0.71559 0.13809 0.22935 0.0
C521 C 0.67398 0.11563 0.39747 0.0
C522 C 0.51489 0.15741 0.41166 0.0
C523 C 0.51863 0.15327 0.33249 0.0
H524 H 0.49642 0.17555 0.49538 0.0
C525 C 0.50839 0.16634 0.27604 0.0
H526 H 0.52245 0.14736 0.45604 0.0
C527 C 0.4945 0.18327 0.29839 0.0
C528 C 0.48968 0.1864 0.37746 0.0
H529 H 0.51109 0.1634 0.21453 0.0
H530 H 0.48651 0.19289 0.25391 0.0
C531 C 0.49999 0.1734 0.43395 0.0
C532 C 0.86548 0.31563 0.34983 0.0
C533 C 0.83334 0.29743 0.35078 0.0
H534 H 0.9044 0.36072 0.33854 0.0
C535 C 0.81549 0.31168 0.34362 0.0
H536 H 0.87988 0.30543 0.35438 0.0
C537 C 0.82967 0.34362 0.3355 0.0
C538 C 0.86182 0.36155 0.3326 0.0
H539 H 0.79064 0.29816 0.34487 0.0
H540 H 0.81556 0.35415 0.32869 0.0
C541 C 0.87957 0.34733 0.34025 0.0
C542 C 0.65369 0.50234 0.26337 0.0
C543 C 0.63142 0.49112 0.32254 0.0
H544 H 0.70175 0.52548 0.23552 0.0
C545 C 0.64077 0.49487 0.40068 0.0
H546 H 0.64687 0.49965 0.20264 0.0
C547 C 0.67207 0.51055 0.41938 0.0
C548 C 0.69433 0.52158 0.36015 0.0
H549 H 0.62394 0.48656 0.44711 0.0
H550 H 0.67892 0.51394 0.48012 0.0
C551 C 0.68494 0.51696 0.282 0.0
C552 C 0.557 0.8693 0.77939 0.0
C553 C 0.55996 0.86388 0.70034 0.0
H554 H 0.53981 0.88872 0.86239 0.0
C555 C 0.55163 0.87849 0.64346 0.0
H556 H 0.56357 0.85875 0.82477 0.0
C557 C 0.53801 0.89578 0.66511 0.0
C558 C 0.53242 0.89876 0.74406 0.0
H559 H 0.5539 0.87507 0.58202 0.0
H560 H 0.53009 0.90511 0.61972 0.0
C561 C 0.54338 0.88655 0.80101 0.0
C562 C 0.14146 0.69455 0.79926 0.0
C563 C 0.14415 0.70289 0.72033 0.0
H564 H 0.12521 0.65798 0.88188 0.0
C565 C 0.12821 0.67984 0.66422 0.0
H566 H 0.15314 0.71175 0.84408 0.0
C567 C 0.11223 0.64891 0.6859 0.0
C568 C 0.11179 0.64046 0.76414 0.0
H569 H 0.12957 0.68548 0.60294 0.0
H570 H 0.1017 0.63162 0.64075 0.0
C571 C 0.1254 0.66366 0.82096 0.0
C572 C 0.34687 0.46017 0.68692 0.0
C573 C 0.36972 0.47499 0.62995 0.0
H574 H 0.29868 0.43401 0.71123 0.0
C575 C 0.36105 0.47045 0.55099 0.0
H576 H 0.35276 0.46296 0.74827 0.0
C577 C 0.33006 0.45385 0.52975 0.0
C578 C 0.30703 0.44141 0.58698 0.0
H579 H 0.37808 0.48118 0.5055 0.0
H580 H 0.32415 0.45233 0.46856 0.0
C581 C 0.31582 0.44353 0.66564 0.0
C582 C 0.19056 0.50556 0.67961 0.0
C583 C 0.17413 0.47367 0.66777 0.0
H584 H 0.188 0.54591 0.70714 0.0
C585 C 0.14217 0.45759 0.67787 0.0
H586 H 0.21523 0.51843 0.67145 0.0
C587 C 0.12676 0.47311 0.69892 0.0
C588 C 0.14297 0.50507 0.70913 0.0
H589 H 0.12905 0.43297 0.66985 0.0
H590 H 0.10208 0.46012 0.70511 0.0
C591 C 0.175 0.52124 0.69913 0.0
C592 C 0.51947 0.65408 0.675 0.0
C593 C 0.48749 0.63732 0.68447 0.0
H594 H 0.55886 0.69752 0.64881 0.0
C595 C 0.47039 0.65226 0.67546 0.0
H596 H 0.53313 0.64306 0.68105 0.0
C597 C 0.48525 0.68368 0.65826 0.0
C598 C 0.51723 0.70025 0.64781 0.0
H599 H 0.4457 0.6398 0.68334 0.0
H600 H 0.47172 0.69483 0.65122 0.0
C601 C 0.53417 0.68519 0.65612 0.0
C602 C 0.31191 0.83023 0.72203 0.0
C603 C 0.30325 0.82463 0.64341 0.0
H604 H 0.34916 0.85264 0.80334 0.0
C605 C 0.326 0.83639 0.58544 0.0
H606 H 0.29469 0.82156 0.76753 0.0
C607 C 0.35709 0.85319 0.60587 0.0
C608 C 0.3657 0.85947 0.68441 0.0
H609 H 0.31971 0.83231 0.52437 0.0
H610 H 0.37431 0.86194 0.56038 0.0
C611 C 0.34292 0.84805 0.74232 0.0
loop_
_geom_bond_atom_site_label_1
_geom_bond_atom_site_label_2
_geom_bond_distance
_geom_bond_site_symmetry_2
_ccdc_geom_bond_type
Mg0 O1 2.028 1_554 S
Mg0 O7 1.986 . S
Mg0 O9 2.114 . S
Mg0 O10 2.251 . S
Mg0 O13 2.010 . S
O1 Mg0 2.028 1_556 S
O1 C4 1.250 . S
O2 Mg3 2.028 1_556 S
O2 C4 1.248 . S
Mg3 O2 2.028 1_554 S
Mg3 O8 2.032 . S
Mg3 O10 2.079 . S
C4 O1 1.250 . S
C4 O2 1.248 . S
C5 O6 1.264 . S
C5 O13 1.249 . S
O6 C5 1.264 . S
O7 Mg0 1.986 . S
O7 C11 1.246 . S
O8 Mg3 2.032 . S
O8 C11 1.259 . S
O9 Mg0 2.114 . S
O9 C12 1.252 . S
O10 Mg0 2.251 . S
O10 Mg3 2.079 . S
O10 C12 1.273 . S
C11 O7 1.246 . S
C11 O8 1.259 . S
C12 O9 1.252 . S
C12 O10 1.273 . S
O13 Mg0 2.010 . S
O13 C5 1.249 . S
Mg14 O15 2.028 1_554 S
Mg14 O21 1.986 . S
Mg14 O23 2.114 . S
Mg14 O24 2.251 . S
Mg14 O27 2.010 . S
O15 Mg14 2.028 1_556 S
O15 C18 1.250 . S
O16 Mg17 2.028 1_556 S
O16 C18 1.248 . S
Mg17 O16 2.028 1_554 S
Mg17 O22 2.032 . S
Mg17 O24 2.079 . S
C18 O15 1.250 . S
C18 O16 1.248 . S
C19 O20 1.264 . S
C19 O27 1.249 . S
O20 C19 1.264 . S
O21 Mg14 1.986 . S
O21 C25 1.246 . S
O22 Mg17 2.032 . S
O22 C25 1.259 . S
O23 Mg14 2.114 . S
O23 C26 1.252 . S
O24 Mg14 2.251 . S
O24 Mg17 2.079 . S
O24 C26 1.273 . S
C25 O21 1.246 . S
C25 O22 1.259 . S
C26 O23 1.252 . S
C26 O24 1.273 . S
O27 Mg14 2.010 . S
O27 C19 1.249 . S
Mg28 O29 2.028 1_554 S
Mg28 O35 1.986 . S
Mg28 O37 2.114 . S
Mg28 O38 2.251 . S
Mg28 O41 2.010 . S
O29 Mg28 2.028 1_556 S
O29 C32 1.250 . S
O30 Mg31 2.028 1_556 S
O30 C32 1.248 . S
Mg31 O30 2.028 1_554 S
Mg31 O36 2.032 . S
Mg31 O38 2.079 . S
C32 O29 1.250 . S
C32 O30 1.248 . S
C33 O34 1.264 . S
C33 O41 1.249 . S
O34 C33 1.264 . S
O35 Mg28 1.986 . S
O35 C39 1.246 . S
O36 Mg31 2.032 . S
O36 C39 1.259 . S
O37 Mg28 2.114 . S
O37 C40 1.252 . S
O38 Mg28 2.251 . S
O38 Mg31 2.079 . S
O38 C40 1.273 . S
C39 O35 1.246 . S
C39 O36 1.259 . S
C40 O37 1.252 . S
C40 O38 1.273 . S
O41 Mg28 2.010 . S
O41 C33 1.249 . S
Mg42 O43 2.028 1_556 S
Mg42 O49 1.986 . S
Mg42 O51 2.114 . S
Mg42 O52 2.251 . S
Mg42 O55 2.010 . S
O43 Mg42 2.028 1_554 S
O43 C46 1.250 . S
O44 Mg45 2.028 1_554 S
O44 C46 1.248 . S
Mg45 O44 2.028 1_556 S
Mg45 O50 2.032 . S
Mg45 O52 2.079 . S
C46 O43 1.250 . S
C46 O44 1.248 . S
C47 O48 1.264 . S
C47 O55 1.249 . S
O48 C47 1.264 . S
O49 Mg42 1.986 . S
O49 C53 1.246 . S
O50 Mg45 2.032 . S
O50 C53 1.259 . S
O51 Mg42 2.114 . S
O51 C54 1.252 . S
O52 Mg42 2.251 . S
O52 Mg45 2.079 . S
O52 C54 1.273 . S
C53 O49 1.246 . S
C53 O50 1.259 . S
C54 O51 1.252 . S
C54 O52 1.273 . S
O55 Mg42 2.010 . S
O55 C47 1.249 . S
Mg56 O57 2.028 1_556 S
Mg56 O63 1.986 . S
Mg56 O65 2.114 . S
Mg56 O66 2.251 . S
Mg56 O69 2.010 . S
O57 Mg56 2.028 1_554 S
O57 C60 1.250 . S
O58 Mg59 2.028 1_554 S
O58 C60 1.248 . S
Mg59 O58 2.028 1_556 S
Mg59 O64 2.032 . S
Mg59 O66 2.079 . S
C60 O57 1.250 . S
C60 O58 1.248 . S
C61 O62 1.264 . S
C61 O69 1.249 . S
O62 C61 1.264 . S
O63 Mg56 1.986 . S
O63 C67 1.246 . S
O64 Mg59 2.032 . S
O64 C67 1.259 . S
O65 Mg56 2.114 . S
O65 C68 1.252 . S
O66 Mg56 2.251 . S
O66 Mg59 2.079 . S
O66 C68 1.273 . S
C67 O63 1.246 . S
C67 O64 1.259 . S
C68 O65 1.252 . S
C68 O66 1.273 . S
O69 Mg56 2.010 . S
O69 C61 1.249 . S
Mg70 O71 2.028 1_556 S
Mg70 O77 1.986 . S
Mg70 O79 2.114 . S
Mg70 O80 2.251 . S
Mg70 O83 2.010 . S
O71 Mg70 2.028 1_554 S
O71 C74 1.250 . S
O72 Mg73 2.028 1_554 S
O72 C74 1.248 . S
Mg73 O72 2.028 1_556 S
Mg73 O78 2.032 . S
Mg73 O80 2.079 . S
C74 O71 1.250 . S
C74 O72 1.248 . S
C75 O76 1.264 . S
C75 O83 1.249 . S
O76 C75 1.264 . S
O77 Mg70 1.986 . S
O77 C81 1.246 . S
O78 Mg73 2.032 . S
O78 C81 1.259 . S
O79 Mg70 2.114 . S
O79 C82 1.252 . S
O80 Mg70 2.251 . S
O80 Mg73 2.079 . S
O80 C82 1.273 . S
C81 O77 1.246 . S
C81 O78 1.259 . S
C82 O79 1.252 . S
C82 O80 1.273 . S
O83 Mg70 2.010 . S
O83 C75 1.249 . S
Mg84 O85 2.028 . S
Mg84 O91 1.986 . S
Mg84 O93 2.114 . S
Mg84 O94 2.251 . S
Mg84 O97 2.010 . S
O85 Mg84 2.028 . S
O85 C88 1.250 . S
O86 Mg87 2.028 . S
O86 C88 1.248 . S
Mg87 O86 2.028 . S
Mg87 O92 2.032 . S
Mg87 O94 2.079 . S
C88 O85 1.250 . S
C88 O86 1.248 . S
C89 O90 1.264 . S
C89 O97 1.249 . S
O90 C89 1.264 . S
O91 Mg84 1.986 . S
O91 C95 1.246 . S
O92 Mg87 2.032 . S
O92 C95 1.259 . S
O93 Mg84 2.114 . S
O93 C96 1.252 . S
O94 Mg84 2.251 . S
O94 Mg87 2.079 . S
O94 C96 1.273 . S
C95 O91 1.246 . S
C95 O92 1.259 . S
C96 O93 1.252 . S
C96 O94 1.273 . S
O97 Mg84 2.010 . S
O97 C89 1.249 . S
Mg98 O99 2.028 . S
Mg98 O105 1.986 . S
Mg98 O107 2.114 . S
Mg98 O108 2.251 . S
Mg98 O111 2.010 . S
O99 Mg98 2.028 . S
O99 C102 1.250 . S
O100 Mg101 2.028 . S
O100 C102 1.248 . S
Mg101 O100 2.028 . S
Mg101 O106 2.032 . S
Mg101 O108 2.079 . S
C102 O99 1.250 . S
C102 O100 1.248 . S
C103 O104 1.264 . S
C103 O111 1.249 . S
O104 C103 1.264 . S
O105 Mg98 1.986 . S
O105 C109 1.246 . S
O106 Mg101 2.032 . S
O106 C109 1.259 . S
O107 Mg98 2.114 . S
O107 C110 1.252 . S
O108 Mg98 2.251 . S
O108 Mg101 2.079 . S
O108 C110 1.273 . S
C109 O105 1.246 . S
C109 O106 1.259 . S
C110 O107 1.252 . S
C110 O108 1.273 . S
O111 Mg98 2.010 . S
O111 C103 1.249 . S
Mg112 O113 2.028 . S
Mg112 O119 1.986 . S
Mg112 O121 2.114 . S
Mg112 O122 2.251 . S
Mg112 O125 2.010 . S
O113 Mg112 2.028 . S
O113 C116 1.250 . S
O114 Mg115 2.028 . S
O114 C116 1.248 . S
Mg115 O114 2.028 . S
Mg115 O120 2.032 . S
Mg115 O122 2.079 . S
C116 O113 1.250 . S
C116 O114 1.248 . S
C117 O118 1.264 . S
C117 O125 1.249 . S
O118 C117 1.264 . S
O119 Mg112 1.986 . S
O119 C123 1.246 . S
O120 Mg115 2.032 . S
O120 C123 1.259 . S
O121 Mg112 2.114 . S
O121 C124 1.252 . S
O122 Mg112 2.251 . S
O122 Mg115 2.079 . S
O122 C124 1.273 . S
C123 O119 1.246 . S
C123 O120 1.259 . S
C124 O121 1.252 . S
C124 O122 1.273 . S
O125 Mg112 2.010 . S
O125 C117 1.249 . S
Mg126 O127 2.028 . S
Mg126 O133 1.986 . S
Mg126 O135 2.114 . S
Mg126 O136 2.251 . S
Mg126 O139 2.010 . S
O127 Mg126 2.028 . S
O127 C130 1.250 . S
O128 Mg129 2.028 . S
O128 C130 1.248 . S
Mg129 O128 2.028 . S
Mg129 O134 2.032 . S
Mg129 O136 2.079 . S
C130 O127 1.250 . S
C130 O128 1.248 . S
C131 O132 1.264 . S
C131 O139 1.249 . S
O132 C131 1.264 . S
O133 Mg126 1.986 . S
O133 C137 1.246 . S
O134 Mg129 2.032 . S
O134 C137 1.259 . S
O135 Mg126 2.114 . S
O135 C138 1.252 . S
O136 Mg126 2.251 . S
O136 Mg129 2.079 . S
O136 C138 1.273 . S
C137 O133 1.246 . S
C137 O134 1.259 . S
C138 O135 1.252 . S
C138 O136 1.273 . S
O139 Mg126 2.010 . S
O139 C131 1.249 . S
Mg140 O141 2.028 . S
Mg140 O147 1.986 . S
Mg140 O149 2.114 . S
Mg140 O150 2.251 . S
Mg140 O153 2.010 . S
O141 Mg140 2.028 . S
O141 C144 1.250 . S
O142 Mg143 2.028 . S
O142 C144 1.248 . S
Mg143 O142 2.028 . S
Mg143 O148 2.032 . S
Mg143 O150 2.079 . S
C144 O141 1.250 . S
C144 O142 1.248 . S
C145 O146 1.264 . S
C145 O153 1.249 . S
O146 C145 1.264 . S
O147 Mg140 1.986 . S
O147 C151 1.246 . S
O148 Mg143 2.032 . S
O148 C151 1.259 . S
O149 Mg140 2.114 . S
O149 C152 1.252 . S
O150 Mg140 2.251 . S
O150 Mg143 2.079 . S
O150 C152 1.273 . S
C151 O147 1.246 . S
C151 O148 1.259 . S
C152 O149 1.252 . S
C152 O150 1.273 . S
O153 Mg140 2.010 . S
O153 C145 1.249 . S
Mg154 O155 2.028 . S
Mg154 O161 1.986 . S
Mg154 O163 2.114 . S
Mg154 O164 2.251 . S
Mg154 O167 2.010 . S
O155 Mg154 2.028 . S
O155 C158 1.250 . S
O156 Mg157 2.028 . S
O156 C158 1.248 . S
Mg157 O156 2.028 . S
Mg157 O162 2.032 . S
Mg157 O164 2.079 . S
C158 O155 1.250 . S
C158 O156 1.248 . S
C159 O160 1.264 . S
C159 O167 1.249 . S
O160 C159 1.264 . S
O161 Mg154 1.986 . S
O161 C165 1.246 . S
O162 Mg157 2.032 . S
O162 C165 1.259 . S
O163 Mg154 2.114 . S
O163 C166 1.252 . S
O164 Mg154 2.251 . S
O164 Mg157 2.079 . S
O164 C166 1.273 . S
C165 O161 1.246 . S
C165 O162 1.259 . S
C166 O163 1.252 . S
C166 O164 1.273 . S
O167 Mg154 2.010 . S
O167 C159 1.249 . S
Mg168 O169 2.028 . S
Mg168 O175 1.986 . S
Mg168 O177 2.114 . S
Mg168 O178 2.251 . S
Mg168 O181 2.010 . S
O169 Mg168 2.028 . S
O169 C172 1.250 . S
O170 Mg171 2.028 . S
O170 C172 1.248 . S
Mg171 O170 2.028 . S
Mg171 O176 2.032 . S
Mg171 O178 2.079 . S
C172 O169 1.250 . S
C172 O170 1.248 . S
C173 O174 1.264 . S
C173 O181 1.249 . S
O174 C173 1.264 . S
O175 Mg168 1.986 . S
O175 C179 1.246 . S
O176 Mg171 2.032 . S
O176 C179 1.259 . S
O177 Mg168 2.114 . S
O177 C180 1.252 . S
O178 Mg168 2.251 . S
O178 Mg171 2.079 . S
O178 C180 1.273 . S
C179 O175 1.246 . S
C179 O176 1.259 . S
C180 O177 1.252 . S
C180 O178 1.273 . S
O181 Mg168 2.010 . S
O181 C173 1.249 . S
Mg182 O183 2.028 . S
Mg182 O189 1.986 . S
Mg182 O191 2.114 . S
Mg182 O192 2.251 . S
Mg182 O195 2.010 . S
O183 Mg182 2.028 . S
O183 C186 1.250 . S
O184 Mg185 2.028 . S
O184 C186 1.248 . S
Mg185 O184 2.028 . S
Mg185 O190 2.032 . S
Mg185 O192 2.079 . S
C186 O183 1.250 . S
C186 O184 1.248 . S
C187 O188 1.264 . S
C187 O195 1.249 . S
O188 C187 1.264 . S
O189 Mg182 1.986 . S
O189 C193 1.246 . S
O190 Mg185 2.032 . S
O190 C193 1.259 . S
O191 Mg182 2.114 . S
O191 C194 1.252 . S
O192 Mg182 2.251 . S
O192 Mg185 2.079 . S
O192 C194 1.273 . S
C193 O189 1.246 . S
C193 O190 1.259 . S
C194 O191 1.252 . S
C194 O192 1.273 . S
O195 Mg182 2.010 . S
O195 C187 1.249 . S
Mg196 O197 2.028 . S
Mg196 O203 1.986 . S
Mg196 O205 2.114 . S
Mg196 O206 2.251 . S
Mg196 O209 2.010 . S
O197 Mg196 2.028 . S
O197 C200 1.250 . S
O198 Mg199 2.028 . S
O198 C200 1.248 . S
Mg199 O198 2.028 . S
Mg199 O204 2.032 . S
Mg199 O206 2.079 . S
C200 O197 1.250 . S
C200 O198 1.248 . S
C201 O202 1.264 . S
C201 O209 1.249 . S
O202 C201 1.264 . S
O203 Mg196 1.986 . S
O203 C207 1.246 . S
O204 Mg199 2.032 . S
O204 C207 1.259 . S
O205 Mg196 2.114 . S
O205 C208 1.252 . S
O206 Mg196 2.251 . S
O206 Mg199 2.079 . S
O206 C208 1.273 . S
C207 O203 1.246 . S
C207 O204 1.259 . S
C208 O205 1.252 . S
C208 O206 1.273 . S
O209 Mg196 2.010 . S
O209 C201 1.249 . S
Mg210 O211 2.028 . S
Mg210 O217 1.986 . S
Mg210 O219 2.114 . S
Mg210 O220 2.251 . S
Mg210 O223 2.010 . S
O211 Mg210 2.028 . S
O211 C214 1.250 . S
O212 Mg213 2.028 . S
O212 C214 1.248 . S
Mg213 O212 2.028 . S
Mg213 O218 2.032 . S
Mg213 O220 2.079 . S
C214 O211 1.250 . S
C214 O212 1.248 . S
C215 O216 1.264 . S
C215 O223 1.249 . S
O216 C215 1.264 . S
O217 Mg210 1.986 . S
O217 C221 1.246 . S
O218 Mg213 2.032 . S
O218 C221 1.259 . S
O219 Mg210 2.114 . S
O219 C222 1.252 . S
O220 Mg210 2.251 . S
O220 Mg213 2.079 . S
O220 C222 1.273 . S
C221 O217 1.246 . S
C221 O218 1.259 . S
C222 O219 1.252 . S
C222 O220 1.273 . S
O223 Mg210 2.010 . S
O223 C215 1.249 . S
Mg224 O225 2.028 . S
Mg224 O231 1.986 . S
Mg224 O233 2.114 . S
Mg224 O234 2.251 . S
Mg224 O237 2.010 . S
O225 Mg224 2.028 . S
O225 C228 1.250 . S
O226 Mg227 2.028 . S
O226 C228 1.248 . S
Mg227 O226 2.028 . S
Mg227 O232 2.032 . S
Mg227 O234 2.079 . S
C228 O225 1.250 . S
C228 O226 1.248 . S
C229 O230 1.264 . S
C229 O237 1.249 . S
O230 C229 1.264 . S
O231 Mg224 1.986 . S
O231 C235 1.246 . S
O232 Mg227 2.032 . S
O232 C235 1.259 . S
O233 Mg224 2.114 . S
O233 C236 1.252 . S
O234 Mg224 2.251 . S
O234 Mg227 2.079 . S
O234 C236 1.273 . S
C235 O231 1.246 . S
C235 O232 1.259 . S
C236 O233 1.252 . S
C236 O234 1.273 . S
O237 Mg224 2.010 . S
O237 C229 1.249 . S
Mg238 O239 2.028 . S
Mg238 O245 1.986 . S
Mg238 O247 2.114 . S
Mg238 O248 2.251 . S
Mg238 O251 2.010 . S
O239 Mg238 2.028 . S
O239 C242 1.250 . S
O240 Mg241 2.028 . S
O240 C242 1.248 . S
Mg241 O240 2.028 . S
Mg241 O246 2.032 . S
Mg241 O248 2.079 . S
C242 O239 1.250 . S
C242 O240 1.248 . S
C243 O244 1.264 . S
C243 O251 1.249 . S
O244 C243 1.264 . S
O245 Mg238 1.986 . S
O245 C249 1.246 . S
O246 Mg241 2.032 . S
O246 C249 1.259 . S
O247 Mg238 2.114 . S
O247 C250 1.252 . S
O248 Mg238 2.251 . S
O248 Mg241 2.079 . S
O248 C250 1.273 . S
C249 O245 1.246 . S
C249 O246 1.259 . S
C250 O247 1.252 . S
C250 O248 1.273 . S
O251 Mg238 2.010 . S
O251 C243 1.249 . S
C252 C253 1.387 . S
C252 H256 0.950 . S
C252 C261 1.390 . S
C253 C252 1.387 . S
C253 C255 1.387 . S
H254 C261 0.950 . S
C255 C253 1.387 . S
C255 C257 1.390 . S
C255 H259 0.950 . S
H256 C252 0.950 . S
C257 C255 1.390 . S
C257 C258 1.387 . S
C257 H260 0.950 . S
C258 C257 1.387 . S
C258 C261 1.387 . S
H259 C255 0.950 . S
H260 C257 0.950 . S
C261 C252 1.390 . S
C261 H254 0.950 . S
C261 C258 1.387 . S
C262 C263 1.387 . S
C262 H266 0.950 . S
C262 C271 1.390 . S
C263 C262 1.387 . S
C263 C265 1.387 . S
H264 C271 0.950 . S
C265 C263 1.387 . S
C265 C267 1.390 . S
C265 H269 0.950 . S
H266 C262 0.950 . S
C267 C265 1.390 . S
C267 C268 1.387 . S
C267 H270 0.950 . S
C268 C267 1.387 . S
C268 C271 1.387 . S
H269 C265 0.950 . S
H270 C267 0.950 . S
C271 C262 1.390 . S
C271 H264 0.950 . S
C271 C268 1.387 . S
C272 C273 1.387 . S
C272 H276 0.950 . S
C272 C281 1.390 . S
C273 C272 1.387 . S
C273 C275 1.387 . S
H274 C281 0.950 . S
C275 C273 1.387 . S
C275 C277 1.390 . S
C275 H279 0.950 . S
H276 C272 0.950 . S
C277 C275 1.390 . S
C277 C278 1.387 . S
C277 H280 0.950 . S
C278 C277 1.387 . S
C278 C281 1.387 . S
H279 C275 0.950 . S
H280 C277 0.950 . S
C281 C272 1.390 . S
C281 H274 0.950 . S
C281 C278 1.387 . S
C282 C283 1.387 . S
C282 H286 0.950 . S
C282 C291 1.390 . S
C283 C282 1.387 . S
C283 C285 1.387 . S
H284 C291 0.950 . S
C285 C283 1.387 . S
C285 C287 1.390 . S
C285 H289 0.950 . S
H286 C282 0.950 . S
C287 C285 1.390 . S
C287 C288 1.387 . S
C287 H290 0.950 . S
C288 C287 1.387 . S
C288 C291 1.387 . S
H289 C285 0.950 . S
H290 C287 0.950 . S
C291 C282 1.390 . S
C291 H284 0.950 . S
C291 C288 1.387 . S
C292 C293 1.387 . S
C292 H296 0.950 . S
C292 C301 1.390 . S
C293 C292 1.387 . S
C293 C295 1.387 . S
H294 C301 0.950 . S
C295 C293 1.387 . S
C295 C297 1.390 . S
C295 H299 0.950 . S
H296 C292 0.950 . S
C297 C295 1.390 . S
C297 C298 1.387 . S
C297 H300 0.950 . S
C298 C297 1.387 . S
C298 C301 1.387 . S
H299 C295 0.950 . S
H300 C297 0.950 . S
C301 C292 1.390 . S
C301 H294 0.950 . S
C301 C298 1.387 . S
C302 C303 1.387 . S
C302 H306 0.950 . S
C302 C311 1.390 . S
C303 C302 1.387 . S
C303 C305 1.387 . S
H304 C311 0.950 . S
C305 C303 1.387 . S
C305 C307 1.390 . S
C305 H309 0.950 . S
H306 C302 0.950 . S
C307 C305 1.390 . S
C307 C308 1.387 . S
C307 H310 0.950 . S
C308 C307 1.387 . S
C308 C311 1.387 . S
H309 C305 0.950 . S
H310 C307 0.950 . S
C311 C302 1.390 . S
C311 H304 0.950 . S
C311 C308 1.387 . S
C312 C313 1.387 1_455 S
C312 H316 0.950 . S
C312 C321 1.400 . S
C313 C312 1.387 1_655 S
C313 C315 1.377 1_554 S
H314 C321 0.950 . S
C315 C313 1.377 1_556 S
C315 C317 1.400 . S
C315 H319 0.950 . S
H316 C312 0.950 . S
C317 C315 1.400 . S
C317 C318 1.387 1_655 S
C317 H320 0.950 . S
C318 C317 1.387 1_455 S
C318 C321 1.377 1_556 S
H319 C315 0.950 . S
H320 C317 0.950 . S
C321 C312 1.400 . S
C321 H314 0.950 . S
C321 C318 1.377 1_554 S
C322 C323 1.387 . S
C322 H326 0.950 . S
C322 C331 1.390 . S
C323 C322 1.387 . S
C323 C325 1.387 1_554 S
H324 C331 0.950 . S
C325 C323 1.387 1_556 S
C325 C327 1.390 . S
C325 H329 0.950 . S
H326 C322 0.950 . S
C327 C325 1.390 . S
C327 C328 1.387 . S
C327 H330 0.950 . S
C328 C327 1.387 . S
C328 C331 1.387 1_556 S
H329 C325 0.950 . S
H330 C327 0.950 . S
C331 C322 1.390 . S
C331 H324 0.950 . S
C331 C328 1.387 1_554 S
C332 C333 1.387 . S
C332 H336 0.950 . S
C332 C341 1.390 1_544 S
C333 C332 1.387 . S
C333 C335 1.387 . S
H334 C341 0.950 . S
C335 C333 1.387 . S
C335 C337 1.390 1_544 S
C335 H339 0.950 . S
H336 C332 0.950 . S
C337 C335 1.390 1_566 S
C337 C338 1.387 . S
C337 H340 0.950 . S
C338 C337 1.387 . S
C338 C341 1.387 . S
H339 C335 0.950 . S
H340 C337 0.950 . S
C341 C332 1.390 1_566 S
C341 H334 0.950 . S
C341 C338 1.387 . S
C342 C343 1.387 . S
C342 H346 0.950 . S
C342 C351 1.390 . S
C343 C342 1.387 . S
C343 C345 1.387 . S
H344 C351 0.950 . S
C345 C343 1.387 . S
C345 C347 1.390 . S
C345 H349 0.950 . S
H346 C342 0.950 . S
C347 C345 1.390 . S
C347 C348 1.387 . S
C347 H350 0.950 . S
C348 C347 1.387 . S
C348 C351 1.387 . S
H349 C345 0.950 . S
H350 C347 0.950 . S
C351 C342 1.390 . S
C351 H344 0.950 . S
C351 C348 1.387 . S
C352 C353 1.387 . S
C352 H356 0.950 . S
C352 C361 1.390 . S
C353 C352 1.387 . S
C353 C355 1.387 . S
H354 C361 0.950 . S
C355 C353 1.387 . S
C355 C357 1.390 . S
C355 H359 0.950 . S
H356 C352 0.950 . S
C357 C355 1.390 . S
C357 C358 1.387 . S
C357 H360 0.950 . S
C358 C357 1.387 . S
C358 C361 1.387 . S
H359 C355 0.950 . S
H360 C357 0.950 . S
C361 C352 1.390 . S
C361 H354 0.950 . S
C361 C358 1.387 . S
C362 C363 1.387 . S
C362 H366 0.950 . S
C362 C371 1.390 . S
C363 C362 1.387 . S
C363 C365 1.387 . S
H364 C371 0.950 . S
C365 C363 1.387 . S
C365 C367 1.390 . S
C365 H369 0.950 . S
H366 C362 0.950 . S
C367 C365 1.390 . S
C367 C368 1.387 . S
C367 H370 0.950 . S
C368 C367 1.387 . S
C368 C371 1.387 . S
H369 C365 0.950 . S
H370 C367 0.950 . S
C371 C362 1.390 . S
C371 H364 0.950 . S
C371 C368 1.387 . S
C372 C373 1.387 . S
C372 H376 0.950 . S
C372 C381 1.390 . S
C373 C372 1.387 . S
C373 C375 1.387 . S
H374 C381 0.950 . S
C375 C373 1.387 . S
C375 C377 1.390 . S
C375 H379 0.950 . S
H376 C372 0.950 . S
C377 C375 1.390 . S
C377 C378 1.387 . S
C377 H380 0.950 . S
C378 C377 1.387 . S
C378 C381 1.387 . S
H379 C375 0.950 . S
H380 C377 0.950 . S
C381 C372 1.390 . S
C381 H374 0.950 . S
C381 C378 1.387 . S
C382 C383 1.387 . S
C382 H386 0.950 . S
C382 C391 1.390 . S
C383 C382 1.387 . S
C383 C385 1.387 . S
H384 C391 0.950 . S
C385 C383 1.387 . S
C385 C387 1.390 . S
C385 H389 0.950 . S
H386 C382 0.950 . S
C387 C385 1.390 . S
C387 C388 1.387 . S
C387 H390 0.950 . S
C388 C387 1.387 . S
C388 C391 1.387 . S
H389 C385 0.950 . S
H390 C387 0.950 . S
C391 C382 1.390 . S
C391 H384 0.950 . S
C391 C388 1.387 . S
C392 C393 1.387 . S
C392 H396 0.950 . S
C392 C401 1.390 . S
C393 C392 1.387 . S
C393 C395 1.387 . S
H394 C401 0.950 . S
C395 C393 1.387 . S
C395 C397 1.390 . S
C395 H399 0.950 . S
H396 C392 0.950 . S
C397 C395 1.390 . S
C397 C398 1.387 . S
C397 H400 0.950 . S
C398 C397 1.387 . S
C398 C401 1.387 . S
H399 C395 0.950 . S
H400 C397 0.950 . S
C401 C392 1.390 . S
C401 H394 0.950 . S
C401 C398 1.387 . S
C402 C403 1.387 1_455 S
C402 H406 0.950 . S
C402 C411 1.390 . S
C403 C402 1.387 1_655 S
C403 C405 1.387 . S
H404 C411 0.950 . S
C405 C403 1.387 . S
C405 C407 1.390 . S
C405 H409 0.950 . S
H406 C402 0.950 . S
C407 C405 1.390 . S
C407 C408 1.387 1_655 S
C407 H410 0.950 . S
C408 C407 1.387 1_455 S
C408 C411 1.387 . S
H409 C405 0.950 . S
H410 C407 0.950 . S
C411 C402 1.390 . S
C411 H404 0.950 . S
C411 C408 1.387 . S
C412 C413 1.387 . S
C412 H416 0.950 . S
C412 C421 1.390 . S
C413 C412 1.387 . S
C413 C415 1.387 . S
H414 C421 0.950 . S
C415 C413 1.387 . S
C415 C417 1.390 . S
C415 H419 0.950 . S
H416 C412 0.950 . S
C417 C415 1.390 . S
C417 C418 1.387 . S
C417 H420 0.950 . S
C418 C417 1.387 . S
C418 C421 1.387 . S
H419 C415 0.950 . S
H420 C417 0.950 . S
C421 C412 1.390 . S
C421 H414 0.950 . S
C421 C418 1.387 . S
C422 C423 1.387 . S
C422 H426 0.950 . S
C422 C431 1.390 1_565 S
C423 C422 1.387 . S
C423 C425 1.387 . S
H424 C431 0.950 . S
C425 C423 1.387 . S
C425 C427 1.390 1_565 S
C425 H429 0.950 . S
H426 C422 0.950 . S
C427 C425 1.390 1_545 S
C427 C428 1.387 . S
C427 H430 0.950 . S
C428 C427 1.387 . S
C428 C431 1.387 . S
H429 C425 0.950 . S
H430 C427 0.950 . S
C431 C422 1.390 1_545 S
C431 H424 0.950 . S
C431 C428 1.387 . S
C432 C433 1.387 1_556 S
C432 H436 0.950 . S
C432 C441 1.390 . S
C433 C432 1.387 1_554 S
C433 C435 1.387 . S
H434 C441 0.950 . S
C435 C433 1.387 . S
C435 C437 1.390 . S
C435 H439 0.950 . S
H436 C432 0.950 . S
C437 C435 1.390 . S
C437 C438 1.387 1_554 S
C437 H440 0.950 . S
C438 C437 1.387 1_556 S
C438 C441 1.387 . S
H439 C435 0.950 . S
H440 C437 0.950 . S
C441 C432 1.390 . S
C441 H434 0.950 . S
C441 C438 1.387 . S
C442 C443 1.387 . S
C442 H446 0.950 . S
C442 C451 1.390 1_546 S
C443 C442 1.387 . S
C443 C445 1.387 . S
H444 C451 0.950 . S
C445 C443 1.387 . S
C445 C447 1.390 1_546 S
C445 H449 0.950 . S
H446 C442 0.950 . S
C447 C445 1.390 1_564 S
C447 C448 1.387 . S
C447 H450 0.950 . S
C448 C447 1.387 . S
C448 C451 1.387 . S
H449 C445 0.950 . S
H450 C447 0.950 . S
C451 C442 1.390 1_564 S
C451 H444 0.950 . S
C451 C448 1.387 . S
C452 C453 1.387 1_554 S
C452 H456 0.950 . S
C452 C461 1.390 1_655 S
C453 C452 1.387 1_556 S
C453 C455 1.387 . S
H454 C461 0.950 . S
C455 C453 1.387 . S
C455 C457 1.390 1_655 S
C455 H459 0.950 . S
H456 C452 0.950 . S
C457 C455 1.390 1_455 S
C457 C458 1.387 1_556 S
C457 H460 0.950 . S
C458 C457 1.387 1_554 S
C458 C461 1.387 . S
H459 C455 0.950 . S
H460 C457 0.950 . S
C461 C452 1.390 1_455 S
C461 H454 0.950 . S
C461 C458 1.387 . S
C462 C463 1.387 . S
C462 H466 0.950 . S
C462 C471 1.390 . S
C463 C462 1.387 . S
C463 C465 1.387 1_556 S
H464 C471 0.950 . S
C465 C463 1.387 1_554 S
C465 C467 1.390 . S
C465 H469 0.950 . S
H466 C462 0.950 . S
C467 C465 1.390 . S
C467 C468 1.387 . S
C467 H470 0.950 . S
C468 C467 1.387 . S
C468 C471 1.387 1_554 S
H469 C465 0.950 . S
H470 C467 0.950 . S
C471 C462 1.390 . S
C471 H464 0.950 . S
C471 C468 1.387 1_556 S
C472 C473 1.387 . S
C472 H476 0.950 . S
C472 C481 1.390 1_564 S
C473 C472 1.387 . S
C473 C475 1.387 . S
H474 C481 0.950 . S
C475 C473 1.387 . S
C475 C477 1.390 1_564 S
C475 H479 0.950 . S
H476 C472 0.950 . S
C477 C475 1.390 1_546 S
C477 C478 1.387 . S
C477 H480 0.950 . S
C478 C477 1.387 . S
C478 C481 1.387 . S
H479 C475 0.950 . S
H480 C477 0.950 . S
C481 C472 1.390 1_546 S
C481 H474 0.950 . S
C481 C478 1.387 . S
C482 C483 1.387 1_554 S
C482 H486 0.950 . S
C482 C491 1.390 1_655 S
C483 C482 1.387 1_556 S
C483 C485 1.387 . S
H484 C491 0.950 . S
C485 C483 1.387 . S
C485 C487 1.390 1_655 S
C485 H489 0.950 . S
H486 C482 0.950 . S
C487 C485 1.390 1_455 S
C487 C488 1.387 1_556 S
C487 H490 0.950 . S
C488 C487 1.387 1_554 S
C488 C491 1.387 . S
H489 C485 0.950 . S
H490 C487 0.950 . S
C491 C482 1.390 1_455 S
C491 H484 0.950 . S
C491 C488 1.387 . S
C492 C493 1.387 . S
C492 H496 0.950 . S
C492 C501 1.390 . S
C493 C492 1.387 . S
C493 C495 1.387 . S
H494 C501 0.950 . S
C495 C493 1.387 . S
C495 C497 1.390 . S
C495 H499 0.950 . S
H496 C492 0.950 . S
C497 C495 1.390 . S
C497 C498 1.387 . S
C497 H500 0.950 . S
C498 C497 1.387 . S
C498 C501 1.387 . S
H499 C495 0.950 . S
H500 C497 0.950 . S
C501 C492 1.390 . S
C501 H494 0.950 . S
C501 C498 1.387 . S
C502 C503 1.387 . S
C502 H506 0.950 . S
C502 C511 1.390 . S
C503 C502 1.387 . S
C503 C505 1.387 . S
H504 C511 0.950 . S
C505 C503 1.387 . S
C505 C507 1.390 . S
C505 H509 0.950 . S
H506 C502 0.950 . S
C507 C505 1.390 . S
C507 C508 1.387 . S
C507 H510 0.950 . S
C508 C507 1.387 . S
C508 C511 1.387 . S
H509 C505 0.950 . S
H510 C507 0.950 . S
C511 C502 1.390 . S
C511 H504 0.950 . S
C511 C508 1.387 . S
C512 C513 1.387 . S
C512 H516 0.950 . S
C512 C521 1.390 . S
C513 C512 1.387 . S
C513 C515 1.387 . S
H514 C521 0.950 . S
C515 C513 1.387 . S
C515 C517 1.390 . S
C515 H519 0.950 . S
H516 C512 0.950 . S
C517 C515 1.390 . S
C517 C518 1.387 . S
C517 H520 0.950 . S
C518 C517 1.387 . S
C518 C521 1.387 . S
H519 C515 0.950 . S
H520 C517 0.950 . S
C521 C512 1.390 . S
C521 H514 0.950 . S
C521 C518 1.387 . S
C522 C523 1.387 . S
C522 H526 0.950 . S
C522 C531 1.390 . S
C523 C522 1.387 . S
C523 C525 1.387 . S
H524 C531 0.950 . S
C525 C523 1.387 . S
C525 C527 1.390 . S
C525 H529 0.950 . S
H526 C522 0.950 . S
C527 C525 1.390 . S
C527 C528 1.387 . S
C527 H530 0.950 . S
C528 C527 1.387 . S
C528 C531 1.387 . S
H529 C525 0.950 . S
H530 C527 0.950 . S
C531 C522 1.390 . S
C531 H524 0.950 . S
C531 C528 1.387 . S
C532 C533 1.387 . S
C532 H536 0.950 . S
C532 C541 1.390 . S
C533 C532 1.387 . S
C533 C535 1.387 . S
H534 C541 0.950 . S
C535 C533 1.387 . S
C535 C537 1.390 . S
C535 H539 0.950 . S
H536 C532 0.950 . S
C537 C535 1.390 . S
C537 C538 1.387 . S
C537 H540 0.950 . S
C538 C537 1.387 . S
C538 C541 1.387 . S
H539 C535 0.950 . S
H540 C537 0.950 . S
C541 C532 1.390 . S
C541 H534 0.950 . S
C541 C538 1.387 . S
C542 C543 1.387 . S
C542 H546 0.950 . S
C542 C551 1.390 . S
C543 C542 1.387 . S
C543 C545 1.387 . S
H544 C551 0.950 . S
C545 C543 1.387 . S
C545 C547 1.390 . S
C545 H549 0.950 . S
H546 C542 0.950 . S
C547 C545 1.390 . S
C547 C548 1.387 . S
C547 H550 0.950 . S
C548 C547 1.387 . S
C548 C551 1.387 . S
H549 C545 0.950 . S
H550 C547 0.950 . S
C551 C542 1.390 . S
C551 H544 0.950 . S
C551 C548 1.387 . S
C552 C553 1.387 . S
C552 H556 0.950 . S
C552 C561 1.390 . S
C553 C552 1.387 . S
C553 C555 1.387 . S
H554 C561 0.950 . S
C555 C553 1.387 . S
C555 C557 1.390 . S
C555 H559 0.950 . S
H556 C552 0.950 . S
C557 C555 1.390 . S
C557 C558 1.387 . S
C557 H560 0.950 . S
C558 C557 1.387 . S
C558 C561 1.387 . S
H559 C555 0.950 . S
H560 C557 0.950 . S
C561 C552 1.390 . S
C561 H554 0.950 . S
C561 C558 1.387 . S
C562 C563 1.387 . S
C562 H566 0.950 . S
C562 C571 1.390 . S
C563 C562 1.387 . S
C563 C565 1.387 . S
H564 C571 0.950 . S
C565 C563 1.387 . S
C565 C567 1.390 . S
C565 H569 0.950 . S
H566 C562 0.950 . S
C567 C565 1.390 . S
C567 C568 1.387 . S
C567 H570 0.950 . S
C568 C567 1.387 . S
C568 C571 1.387 . S
H569 C565 0.950 . S
H570 C567 0.950 . S
C571 C562 1.390 . S
C571 H564 0.950 . S
C571 C568 1.387 . S
C572 C573 1.387 . S
C572 H576 0.950 . S
C572 C581 1.390 . S
C573 C572 1.387 . S
C573 C575 1.387 . S
H574 C581 0.950 . S
C575 C573 1.387 . S
C575 C577 1.390 . S
C575 H579 0.950 . S
H576 C572 0.950 . S
C577 C575 1.390 . S
C577 C578 1.387 . S
C577 H580 0.950 . S
C578 C577 1.387 . S
C578 C581 1.387 . S
H579 C575 0.950 . S
H580 C577 0.950 . S
C581 C572 1.390 . S
C581 H574 0.950 . S
C581 C578 1.387 . S
C582 C583 1.387 . S
C582 H586 0.950 . S
C582 C591 1.390 . S
C583 C582 1.387 . S
C583 C585 1.387 . S
H584 C591 0.950 . S
C585 C583 1.387 . S
C585 C587 1.390 . S
C585 H589 0.950 . S
H586 C582 0.950 . S
C587 C585 1.390 . S
C587 C588 1.387 . S
C587 H590 0.950 . S
C588 C587 1.387 . S
C588 C591 1.387 . S
H589 C585 0.950 . S
H590 C587 0.950 . S
C591 C582 1.390 . S
C591 H584 0.950 . S
C591 C588 1.387 . S
C592 C593 1.387 . S
C592 H596 0.950 . S
C592 C601 1.390 . S
C593 C592 1.387 . S
C593 C595 1.387 . S
H594 C601 0.950 . S
C595 C593 1.387 . S
C595 C597 1.390 . S
C595 H599 0.950 . S
H596 C592 0.950 . S
C597 C595 1.390 . S
C597 C598 1.387 . S
C597 H600 0.950 . S
C598 C597 1.387 . S
C598 C601 1.387 . S
H599 C595 0.950 . S
H600 C597 0.950 . S
C601 C592 1.390 . S
C601 H594 0.950 . S
C601 C598 1.387 . S
C602 C603 1.387 . S
C602 H606 0.950 . S
C602 C611 1.390 . S
C603 C602 1.387 . S
C603 C605 1.387 . S
H604 C611 0.950 . S
C605 C603 1.387 . S
C605 C607 1.390 . S
C605 H609 0.950 . S
H606 C602 0.950 . S
C607 C605 1.390 . S
C607 C608 1.387 . S
C607 H610 0.950 . S
C608 C607 1.387 . S
C608 C611 1.387 . S
H609 C605 0.950 . S
H610 C607 0.950 . S
C611 C602 1.390 . S
C611 H604 0.950 . S
C611 C608 1.387 . S
C253 C249 1.559 . S
C258 C11 1.559 . S
C263 C221 1.561 . S
C268 C25 1.560 . S
C273 C235 1.560 . S
C278 C39 1.559 . S
C283 C109 1.560 . S
C288 C53 1.561 . S
C293 C123 1.561 . S
C298 C67 1.559 . S
C303 C81 1.559 . S
C308 C95 1.559 . S
C313 C137 1.561 . S
C318 C193 1.560 . S
C323 C151 1.560 . S
C328 C207 1.559 . S
C333 C165 1.559 . S
C338 C179 1.559 . S
C343 C4 1.323 . S
C348 C242 1.323 . S
C353 C214 1.321 . S
C358 C18 1.323 . S
C363 C32 1.321 . S
C368 C228 1.323 . S
C373 C102 1.322 . S
C378 C46 1.323 . S
C383 C60 1.322 . S
C388 C116 1.324 . S
C393 C74 1.321 . S
C398 C88 1.321 . S
C403 C130 1.320 . S
C408 C186 1.323 . S
C413 C200 1.323 . S
C418 C144 1.323 . S
C423 C172 1.323 . S
C428 C158 1.323 . S
C433 C5 1.299 . S
C438 C47 1.303 . S
C443 C61 1.299 . S
C448 C19 1.299 . S
C453 C75 1.300 . S
C458 C33 1.304 . S
C463 C82 1.462 . S
C468 C26 1.462 . S
C473 C40 1.462 . S
C478 C54 1.462 . S
C483 C68 1.462 . S
C488 C12 1.462 . S
C493 C89 1.301 . S
C498 C131 1.304 . S
C503 C145 1.304 . S
C508 C103 1.304 . S
C513 C159 1.301 . S
C518 C117 1.304 . S
C523 C166 1.462 . S
C528 C110 1.462 . S
C533 C124 1.462 . S
C538 C138 1.462 . S
C543 C152 1.462 . S
C548 C96 1.462 . S
C553 C215 1.299 . S
C558 C173 1.302 . S
C563 C229 1.299 . S
C568 C187 1.299 . S
C573 C201 1.305 . S
C578 C243 1.302 . S
C583 C250 1.462 . S
C588 C194 1.462 . S
C593 C208 1.462 . S
C598 C222 1.462 . S
C603 C236 1.462 . S
C608 C180 1.462 . S
