# Generated by pormake.
# Topology lcy-e, (6)-cn, num edge types: 1
# Building blocks:
#     Node 0, Type 0, BuildingBlock: BETDIP_clean_sbu_0, # of connection points: 6
#     Node 1, Type 0, BuildingBlock: BETDIP_clean_sbu_0, # of connection points: 6
#     Node 2, Type 0, BuildingBlock: BETDIP_clean_sbu_0, # of connection points: 6
#     Node 3, Type 0, BuildingBlock: BETDIP_clean_sbu_0, # of connection points: 6
#     Node 4, Type 0, BuildingBlock: BETDIP_clean_sbu_0, # of connection points: 6
#     Node 5, Type 0, BuildingBlock: BETDIP_clean_sbu_0, # of connection points: 6
#     Node 6, Type 0, BuildingBlock: BETDIP_clean_sbu_0, # of connection points: 6
#     Node 7, Type 0, BuildingBlock: BETDIP_clean_sbu_0, # of connection points: 6
#     Node 8, Type 0, BuildingBlock: BETDIP_clean_sbu_0, # of connection points: 6
#     Node 9, Type 0, BuildingBlock: BETDIP_clean_sbu_0, # of connection points: 6
#     Node 10, Type 0, BuildingBlock: BETDIP_clean_sbu_0, # of connection points: 6
#     Node 11, Type 0, BuildingBlock: BETDIP_clean_sbu_0, # of connection points: 6
#     Edge 12, Type (0, 0), BuildingBlock: XUDNAN_clean_linker_2, # of connection points: 2
#     Edge 13, Type (0, 0), BuildingBlock: XUDNAN_clean_linker_2, # of connection points: 2
#     Edge 14, Type (0, 0), BuildingBlock: XUDNAN_clean_linker_2, # of connection points: 2
#     Edge 15, Type (0, 0), BuildingBlock: XUDNAN_clean_linker_2, # of connection points: 2
#     Edge 16, Type (0, 0), BuildingBlock: XUDNAN_clean_linker_2, # of connection points: 2
#     Edge 17, Type (0, 0), BuildingBlock: XUDNAN_clean_linker_2, # of connection points: 2
#     Edge 18, Type (0, 0), BuildingBlock: XUDNAN_clean_linker_2, # of connection points: 2
#     Edge 19, Type (0, 0), BuildingBlock: XUDNAN_clean_linker_2, # of connection points: 2
#     Edge 20, Type (0, 0), BuildingBlock: XUDNAN_clean_linker_2, # of connection points: 2
#     Edge 21, Type (0, 0), BuildingBlock: XUDNAN_clean_linker_2, # of connection points: 2
#     Edge 22, Type (0, 0), BuildingBlock: XUDNAN_clean_linker_2, # of connection points: 2
#     Edge 23, Type (0, 0), BuildingBlock: XUDNAN_clean_linker_2, # of connection points: 2
#     Edge 24, Type (0, 0), BuildingBlock: XUDNAN_clean_linker_2, # of connection points: 2
#     Edge 25, Type (0, 0), BuildingBlock: XUDNAN_clean_linker_2, # of connection points: 2
#     Edge 26, Type (0, 0), BuildingBlock: XUDNAN_clean_linker_2, # of connection points: 2
#     Edge 27, Type (0, 0), BuildingBlock: XUDNAN_clean_linker_2, # of connection points: 2
#     Edge 28, Type (0, 0), BuildingBlock: XUDNAN_clean_linker_2, # of connection points: 2
#     Edge 29, Type (0, 0), BuildingBlock: XUDNAN_clean_linker_2, # of connection points: 2
#     Edge 30, Type (0, 0), BuildingBlock: XUDNAN_clean_linker_2, # of connection points: 2
#     Edge 31, Type (0, 0), BuildingBlock: XUDNAN_clean_linker_2, # of connection points: 2
#     Edge 32, Type (0, 0), BuildingBlock: XUDNAN_clean_linker_2, # of connection points: 2
#     Edge 33, Type (0, 0), BuildingBlock: XUDNAN_clean_linker_2, # of connection points: 2
#     Edge 34, Type (0, 0), BuildingBlock: XUDNAN_clean_linker_2, # of connection points: 2
#     Edge 35, Type (0, 0), BuildingBlock: XUDNAN_clean_linker_2, # of connection points: 2
#     Edge 36, Type (0, 0), BuildingBlock: XUDNAN_clean_linker_2, # of connection points: 2
#     Edge 37, Type (0, 0), BuildingBlock: XUDNAN_clean_linker_2, # of connection points: 2
#     Edge 38, Type (0, 0), BuildingBlock: XUDNAN_clean_linker_2, # of connection points: 2
#     Edge 39, Type (0, 0), BuildingBlock: XUDNAN_clean_linker_2, # of connection points: 2
#     Edge 40, Type (0, 0), BuildingBlock: XUDNAN_clean_linker_2, # of connection points: 2
#     Edge 41, Type (0, 0), BuildingBlock: XUDNAN_clean_linker_2, # of connection points: 2
#     Edge 42, Type (0, 0), BuildingBlock: XUDNAN_clean_linker_2, # of connection points: 2
#     Edge 43, Type (0, 0), BuildingBlock: XUDNAN_clean_linker_2, # of connection points: 2
#     Edge 44, Type (0, 0), BuildingBlock: XUDNAN_clean_linker_2, # of connection points: 2
#     Edge 45, Type (0, 0), BuildingBlock: XUDNAN_clean_linker_2, # of connection points: 2
#     Edge 46, Type (0, 0), BuildingBlock: XUDNAN_clean_linker_2, # of connection points: 2
#     Edge 47, Type (0, 0), BuildingBlock: XUDNAN_clean_linker_2, # of connection points: 2
# Relax obj value: 0.205
# Max RMSD: 0.300
# Mean RMSD: 0.278
data_MOF--net-lcy-e--node1-BETDIP_clean_sbu_0--edge1-XUDNAN_clean_linker_2
_symmetry_space_group_name_H-M    P1
_symmetry_Int_Tables_number       1
_symmetry_cell_setting            triclinic
loop_
_symmetry_equiv_pos_as_xyz
'x, y, z'
_cell_length_a     41.372861
_cell_length_b     44.827362
_cell_length_c     44.884925
_cell_angle_alpha  91.284195
_cell_angle_beta   90.163256
_cell_angle_gamma 88.62943
loop_
_atom_site_label
_atom_site_type_symbol
_atom_site_fract_x
_atom_site_fract_y
_atom_site_fract_z
_atom_type_partial_charge
Tb0 Tb 0.15199 0.25436 0.5661 0.0
Tb1 Tb 0.12368 0.29955 0.52226 0.0
C2 C 0.15469 0.21961 0.6094 0.0
C3 C 0.14683 0.1884 0.61622 0.0
C4 C 0.12197 0.18319 0.6366 0.0
C5 C 0.11467 0.15415 0.64459 0.0
C6 C 0.13226 0.12954 0.63258 0.0
C7 C 0.15686 0.13471 0.6118 0.0
C8 C 0.16406 0.16382 0.60367 0.0
C9 C 0.18208 0.25367 0.51521 0.0
C10 C 0.08752 0.23924 0.52861 0.0
C11 C 0.11423 0.33189 0.47743 0.0
C12 C 0.13179 0.34363 0.45154 0.0
C13 C 0.15341 0.32549 0.4348 0.0
C14 C 0.16827 0.33618 0.40932 0.0
C15 C 0.16061 0.36491 0.39869 0.0
C16 C 0.13856 0.38295 0.41553 0.0
C17 C 0.12469 0.37255 0.44173 0.0
C18 C 0.10105 0.30353 0.57814 0.0
C19 C 0.18551 0.31618 0.55995 0.0
O20 O 0.12985 0.23717 0.60364 0.0
O21 O 0.17938 0.22434 0.59194 0.0
O22 O 0.1518 0.25841 0.51844 0.0
O23 O 0.19478 0.24459 0.53995 0.0
O24 O 0.11019 0.23092 0.54781 0.0
O25 O 0.08793 0.26521 0.51528 0.0
O26 O 0.11036 0.30301 0.47752 0.0
O27 O 0.12107 0.34266 0.50402 0.0
O28 O 0.12849 0.29621 0.56885 0.0
O29 O 0.08468 0.31265 0.55514 0.0
O30 O 0.17129 0.31774 0.53344 0.0
O31 O 0.17817 0.29475 0.57873 0.0
H32 H 0.10843 0.20173 0.64678 0.0
H33 H 0.09593 0.15108 0.66097 0.0
H34 H 0.17069 0.11622 0.60193 0.0
H35 H 0.1833 0.16704 0.58784 0.0
H36 H 0.15825 0.30266 0.44094 0.0
H37 H 0.18554 0.3215 0.39794 0.0
H38 H 0.13107 0.40487 0.40821 0.0
H39 H 0.10751 0.38681 0.45384 0.0
Tb40 Tb 0.99901 0.90591 0.744 0.0
Tb41 Tb 0.05075 0.91716 0.7908 0.0
C42 C 0.95455 0.90984 0.70571 0.0
C43 C 0.94837 0.92508 0.67712 0.0
C44 C 0.92893 0.95121 0.67657 0.0
C45 C 0.92017 0.96402 0.64948 0.0
C46 C 0.93044 0.95092 0.62222 0.0
C47 C 0.95085 0.9254 0.62281 0.0
C48 C 0.95962 0.91257 0.64992 0.0
C49 C 0.04569 0.86511 0.74583 0.0
C50 C 0.05544 0.95187 0.73169 0.0
C51 C 0.09754 0.91268 0.82665 0.0
C52 C 0.11878 0.89031 0.84144 0.0
C53 C 0.14361 0.8749 0.82565 0.0
C54 C 0.16721 0.85814 0.84075 0.0
C55 C 0.1666 0.85646 0.87199 0.0
C56 C 0.14064 0.87042 0.88753 0.0
C57 C 0.11713 0.88727 0.87245 0.0
C58 C 1.00159 0.95645 0.78996 0.0
C59 C 0.99455 0.87393 0.80474 0.0
O60 O 0.95576 0.92665 0.72989 0.0
O61 O 0.97655 0.88838 0.70572 0.0
O62 O 0.04894 0.89289 0.7493 0.0
O63 O 0.01582 0.85963 0.73946 0.0
O64 O 0.0263 0.94234 0.72438 0.0
O65 O 0.07108 0.94262 0.75551 0.0
O66 O 0.10064 0.91509 0.79783 0.0
O67 O 0.06735 0.91544 0.83522 0.0
O68 O 1.00114 0.92895 0.78522 0.0
O69 O 0.03004 0.96255 0.80026 0.0
O70 O 0.02614 0.87766 0.80678 0.0
O71 O 0.9773 0.88681 0.78337 0.0
H72 H 0.91975 0.96137 0.69708 0.0
H73 H 0.90474 0.98388 0.64987 0.0
H74 H 0.95887 0.91449 0.60227 0.0
H75 H 0.97442 0.89231 0.64944 0.0
H76 H 0.14579 0.87684 0.80174 0.0
H77 H 0.18688 0.84788 0.82804 0.0
H78 H 0.13901 0.86912 0.91154 0.0
H79 H 0.09841 0.89894 0.88525 0.0
Tb80 Tb 0.38098 0.79813 0.05688 0.0
Tb81 Tb 0.40268 0.75462 1.00308 0.0
C82 C 0.38451 0.82651 0.10566 0.0
C83 C 0.38644 0.85783 0.11599 0.0
C84 C 0.40903 0.86497 0.13822 0.0
C85 C 0.41344 0.89461 0.14722 0.0
C86 C 0.39516 0.91776 0.13427 0.0
C87 C 0.37219 0.91057 0.11221 0.0
C88 C 0.36802 0.88083 0.10296 0.0
C89 C 0.34332 0.80515 1.0095 0.0
C90 C 0.43423 0.819 1.01173 0.0
C91 C 0.41288 0.73482 0.95092 0.0
C92 C 0.39631 0.7216 0.92488 0.0
C93 C 0.41198 0.72138 0.89725 0.0
C94 C 0.39731 0.70899 0.87194 0.0
C95 C 0.36654 0.69644 0.87367 0.0
C96 C 0.35067 0.697 0.90147 0.0
C97 C 0.36544 0.70948 0.92688 0.0
C98 C 0.42986 0.74473 0.0557 0.0
C99 C 0.34961 0.73451 0.04616 0.0
O100 O 0.40975 0.81654 0.09063 0.0
O101 O 0.35711 0.8174 0.09416 0.0
O102 O 0.36697 0.78752 1.01302 0.0
O103 O 0.34044 0.82095 0.03404 0.0
O104 O 0.41272 0.82687 0.03251 0.0
O105 O 0.43614 0.79173 0.99941 0.0
O106 O 0.40557 0.76281 0.95738 0.0
O107 O 0.41577 0.7185 0.97473 0.0
O108 O 0.42007 0.76901 0.04512 0.0
O109 O 0.42822 0.72446 0.0346 0.0
O110 O 0.35805 0.73497 0.01766 0.0
O111 O 0.35949 0.75471 0.06619 0.0
H112 H 0.42361 0.84755 0.14841 0.0
H113 H 0.43097 0.89939 0.16454 0.0
H114 H 0.35789 0.92799 0.10175 0.0
H115 H 0.35077 0.87589 0.08544 0.0
H116 H 0.4357 0.73086 0.89523 0.0
H117 H 0.41002 0.70952 0.85091 0.0
H118 H 0.32709 0.68734 0.90372 0.0
H119 H 0.3529 0.70954 0.94804 0.0
Tb120 Tb 0.52706 0.14613 0.24285 0.0
Tb121 Tb 0.47221 0.14296 0.28712 0.0
C122 C 0.5752 0.13441 0.21003 0.0
C123 C 0.58332 0.12696 0.17868 0.0
C124 C 0.56374 0.10879 0.16055 0.0
C125 C 0.57369 0.10035 0.13162 0.0
C126 C 0.60343 0.10981 0.12044 0.0
C127 C 0.62231 0.12877 0.13843 0.0
C128 C 0.61237 0.13717 0.16719 0.0
C129 C 0.48246 0.18824 0.23688 0.0
C130 C 0.46793 0.10258 0.22979 0.0
C131 C 0.42472 0.15065 0.32194 0.0
C132 C 0.40327 0.17148 0.33942 0.0
C133 C 0.38273 0.19252 0.32559 0.0
C134 C 0.35816 0.2076 0.34187 0.0
C135 C 0.35342 0.20177 0.37223 0.0
C136 C 0.37504 0.1818 0.38625 0.0
C137 C 0.39958 0.16685 0.37004 0.0
C138 C 0.52045 0.10254 0.29282 0.0
C139 C 0.52889 0.18446 0.30171 0.0
O140 O 0.55985 0.11432 0.22489 0.0
O141 O 0.56434 0.16157 0.21589 0.0
O142 O 0.47745 0.16163 0.24387 0.0
O143 O 0.51255 0.19085 0.22984 0.0
O144 O 0.49738 0.11091 0.22252 0.0
O145 O 0.45227 0.11395 0.25311 0.0
O146 O 0.42248 0.15059 0.29287 0.0
O147 O 0.45439 0.14573 0.33116 0.0
O148 O 0.5221 0.12923 0.2859 0.0
O149 O 0.49056 0.09802 0.29958 0.0
O150 O 0.49702 0.18388 0.30018 0.0
O151 O 0.54648 0.16679 0.28359 0.0
H152 H 0.54113 0.10065 0.16893 0.0
H153 H 0.55865 0.08566 0.11839 0.0
H154 H 0.64502 0.13696 0.13036 0.0
H155 H 0.62777 0.15127 0.18073 0.0
H156 H 0.38469 0.19644 0.30195 0.0
H157 H 0.34193 0.22274 0.3303 0.0
H158 H 0.37255 0.17718 0.4097 0.0
H159 H 0.41483 0.1506 0.38124 0.0
Tb160 Tb 0.62018 0.25455 0.56458 0.0
Tb161 Tb 0.63742 0.3019 0.52036 0.0
C162 C 0.62227 0.21136 0.5993 0.0
C163 C 0.63649 0.2047 0.6287 0.0
C164 C 0.66868 0.21143 0.63576 0.0
C165 C 0.68198 0.20337 0.66324 0.0
C166 C 0.66332 0.18855 0.68426 0.0
C167 C 0.63082 0.18273 0.67734 0.0
C168 C 0.61764 0.1906 0.64984 0.0
C169 C 0.58138 0.30179 0.56513 0.0
C170 C 0.6744 0.30179 0.58119 0.0
C171 C 0.64014 0.34653 0.48731 0.0
C172 C 0.62156 0.36866 0.47004 0.0
C173 C 0.58913 0.37609 0.47642 0.0
C174 C 0.57398 0.40071 0.46294 0.0
C175 C 0.59112 0.41847 0.44308 0.0
C176 C 0.62326 0.41004 0.43607 0.0
C177 C 0.6382 0.38541 0.44934 0.0
C178 C 0.6733 0.2512 0.51779 0.0
C179 C 0.5848 0.25484 0.50296 0.0
O180 O 0.64249 0.21438 0.5772 0.0
O181 O 0.59856 0.23123 0.59907 0.0
O182 O 0.61164 0.30173 0.56165 0.0
O183 O 0.57237 0.27489 0.57044 0.0
O184 O 0.66013 0.27668 0.58779 0.0
O185 O 0.66808 0.31633 0.55657 0.0
O186 O 0.63678 0.34819 0.51625 0.0
O187 O 0.64227 0.31895 0.47715 0.0
O188 O 0.64395 0.25518 0.52335 0.0
O189 O 0.68354 0.27723 0.51064 0.0
O190 O 0.59283 0.28328 0.50124 0.0
O191 O 0.59613 0.23797 0.52473 0.0
H192 H 0.68375 0.22245 0.61989 0.0
H193 H 0.70713 0.20801 0.66762 0.0
H194 H 0.61549 0.17196 0.69317 0.0
H195 H 0.59271 0.1854 0.64495 0.0
H196 H 0.5759 0.36351 0.49251 0.0
H197 H 0.54907 0.40615 0.46855 0.0
H198 H 0.63754 0.42327 0.42139 0.0
H199 H 0.66338 0.38027 0.44443 0.0
Tb200 Tb 0.97954 0.40375 0.78427 0.0
Tb201 Tb 0.03055 0.39774 0.8322 0.0
C202 C 0.9422 0.39234 0.74142 0.0
C203 C 0.90942 0.38188 0.73476 0.0
C204 C 0.90584 0.35817 0.71417 0.0
C205 C 0.87518 0.35027 0.70409 0.0
C206 C 0.84751 0.36611 0.7143 0.0
C207 C 0.85102 0.38879 0.73618 0.0
C208 C 0.88172 0.3966 0.74636 0.0
C209 C 0.97321 0.44298 0.82849 0.0
C210 C 0.96981 0.35929 0.83821 0.0
C211 C 0.06999 0.40877 0.87374 0.0
C212 C 0.07308 0.41825 0.90549 0.0
C213 C 0.08306 0.44739 0.91225 0.0
C214 C 0.09172 0.45573 0.94129 0.0
C215 C 0.09068 0.43516 0.96438 0.0
C216 C 0.07904 0.40646 0.95807 0.0
C217 C 0.07052 0.39799 0.92883 0.0
C218 C 0.03887 0.36198 0.78407 0.0
C219 C 0.04019 0.44346 0.78007 0.0
O220 O 0.96262 0.37279 0.7525 0.0
O221 O 0.94487 0.41894 0.75374 0.0
O222 O 0.98255 0.41612 0.83081 0.0
O223 O 0.96299 0.44726 0.80159 0.0
O224 O 0.96278 0.36598 0.81028 0.0
O225 O 0.99235 0.37358 0.85336 0.0
O226 O 0.06017 0.38185 0.86703 0.0
O227 O 0.05845 0.42873 0.85552 0.0
O228 O 0.02794 0.38811 0.78543 0.0
O229 O 0.04963 0.356 0.81047 0.0
O230 O 0.04632 0.43652 0.80799 0.0
O231 O 0.01753 0.42985 0.76431 0.0
H232 H 0.92691 0.34656 0.70489 0.0
H233 H 0.87334 0.33293 0.68701 0.0
H234 H 0.83007 0.40116 0.74467 0.0
H235 H 0.88377 0.41484 0.76245 0.0
H236 H 0.08556 0.46347 0.89479 0.0
H237 H 0.10025 0.4781 0.94551 0.0
H238 H 0.07816 0.39008 0.97541 0.0
H239 H 0.0632 0.37529 0.92435 0.0
Tb240 Tb 0.90024 0.79879 0.06514 0.0
Tb241 Tb 0.88351 0.74798 0.02098 0.0
C242 C 0.90628 0.8466 0.09518 0.0
C243 C 0.90519 0.85623 0.12673 0.0
C244 C 0.89816 0.88631 0.13369 0.0
C245 C 0.88967 0.89528 0.16273 0.0
C246 C 0.88806 0.87427 0.18551 0.0
C247 C 0.89704 0.84433 0.17871 0.0
C248 C 0.90528 0.83535 0.14954 0.0
C249 C 0.93311 0.74825 0.07129 0.0
C250 C 0.84751 0.7539 0.08465 0.0
C251 C 0.88014 0.69543 1.00028 0.0
C252 C 0.89928 0.67049 0.9862 0.0
C253 C 0.90353 0.64385 1.0018 0.0
C254 C 0.91797 0.61856 0.98816 0.0
C255 C 0.92853 0.61913 0.95841 0.0
C256 C 0.92512 0.64612 0.94303 0.0
C257 C 0.9106 0.6715 0.95674 0.0
C258 C 0.84928 0.79785 1.01369 0.0
C259 C 0.92728 0.79685 0.99799 0.0
O260 O 0.87875 0.83674 0.0852 0.0
O261 O 0.93094 0.82991 0.08596 0.0
O262 O 0.92464 0.7597 0.04707 0.0
O263 O 0.9253 0.76642 0.09306 0.0
O264 O 0.86319 0.7785 0.09125 0.0
O265 O 0.85167 0.73902 0.05897 0.0
O266 O 0.88682 0.70202 0.02819 0.0
O267 O 0.87332 0.7192 0.98467 0.0
O268 O 0.86037 0.7876 0.03769 0.0
O269 O 0.85338 0.7775 0.99286 0.0
O270 O 0.92239 0.76779 0.99626 0.0
O271 O 0.9182 0.8133 0.02166 0.0
H272 H 0.89738 0.90266 0.11626 0.0
H273 H 0.88252 0.91839 0.16682 0.0
H274 H 0.89668 0.82758 0.19571 0.0
H275 H 0.91019 0.81193 0.14453 0.0
H276 H 0.89468 0.64225 0.02439 0.0
H277 H 0.91962 0.59819 1.00064 0.0
H278 H 0.93336 0.64758 0.92024 0.0
H279 H 0.90761 0.69164 0.94403 0.0
Tb280 Tb 0.50074 0.66515 0.319 0.0
Tb281 Tb 0.54789 0.63434 0.27722 0.0
C282 C 0.45705 0.6769 0.35658 0.0
C283 C 0.44864 0.66395 0.38534 0.0
C284 C 0.41608 0.66089 0.39287 0.0
C285 C 0.40765 0.64716 0.41931 0.0
C286 C 0.43169 0.63615 0.43874 0.0
C287 C 0.46435 0.63936 0.43113 0.0
C288 C 0.47274 0.65315 0.40469 0.0
C289 C 0.55589 0.69205 0.31481 0.0
C290 C 0.53754 0.60387 0.33748 0.0
C291 C 0.59557 0.62303 0.24373 0.0
C292 C 0.61827 0.64023 0.22618 0.0
C293 C 0.61906 0.67143 0.22913 0.0
C294 C 0.64305 0.6872 0.21477 0.0
C295 C 0.66674 0.67205 0.19728 0.0
C296 C 0.66504 0.64087 0.1936 0.0
C297 C 0.64104 0.62513 0.20797 0.0
C298 C 0.48857 0.61267 0.27699 0.0
C299 C 0.50619 0.69001 0.25502 0.0
O300 O 0.45305 0.65941 0.33324 0.0
O301 O 0.48432 0.69105 0.35563 0.0
O302 O 0.55285 0.66389 0.31564 0.0
O303 O 0.52794 0.70532 0.31792 0.0
O304 O 0.5152 0.62483 0.3433 0.0
O305 O 0.55536 0.60396 0.31324 0.0
O306 O 0.59772 0.62699 0.27263 0.0
O307 O 0.56554 0.62273 0.2345 0.0
O308 O 0.49708 0.63907 0.27989 0.0
O309 O 0.5143 0.59648 0.27096 0.0
O310 O 0.53426 0.67514 0.25342 0.0
O311 O 0.4864 0.68696 0.27794 0.0
H312 H 0.39714 0.66879 0.37808 0.0
H313 H 0.38227 0.64465 0.42425 0.0
H314 H 0.48345 0.6314 0.44569 0.0
H315 H 0.49809 0.6551 0.39927 0.0
H316 H 0.60168 0.68348 0.24316 0.0
H317 H 0.64334 0.71124 0.21774 0.0
H318 H 0.68303 0.62846 0.18059 0.0
H319 H 0.64087 0.60102 0.20559 0.0
Tb320 Tb 0.28088 0.49279 0.16845 0.0
Tb321 Tb 0.22312 0.52953 0.18737 0.0
C322 C 0.33219 0.46152 0.16644 0.0
C323 C 0.34189 0.43113 0.17522 0.0
C324 C 0.32112 0.40698 0.17144 0.0
C325 C 0.331 0.37835 0.18006 0.0
C326 C 0.36172 0.37339 0.19286 0.0
C327 C 0.38206 0.39789 0.19717 0.0
C328 C 0.37226 0.42639 0.18834 0.0
C329 C 0.23016 0.48676 0.13381 0.0
C330 C 0.2355 0.47086 0.22163 0.0
C331 C 0.16957 0.55725 0.18972 0.0
C332 C 0.14618 0.57316 0.17075 0.0
C333 C 0.11423 0.57643 0.18066 0.0
C334 C 0.09134 0.59215 0.16394 0.0
C335 C 0.09996 0.60505 0.13691 0.0
C336 C 0.13193 0.60106 0.12655 0.0
C337 C 0.15493 0.58522 0.1434 0.0
C338 C 0.27568 0.53717 0.22074 0.0
C339 C 0.26944 0.55344 0.13805 0.0
O340 O 0.32474 0.48002 0.18836 0.0
O341 O 0.31207 0.4639 0.14404 0.0
O342 O 0.22966 0.48898 0.16193 0.0
O343 O 0.25976 0.48609 0.12454 0.0
O344 O 0.2614 0.46603 0.20469 0.0
O345 O 0.21579 0.49404 0.21817 0.0
O346 O 0.17258 0.52843 0.18489 0.0
O347 O 0.19736 0.56987 0.19471 0.0
O348 O 0.27429 0.53323 0.193 0.0
O349 O 0.24624 0.54068 0.23022 0.0
O350 O 0.23901 0.55095 0.14649 0.0
O351 O 0.2924 0.53532 0.14844 0.0
H352 H 0.29733 0.4102 0.1617 0.0
H353 H 0.3148 0.36004 0.1762 0.0
H354 H 0.40555 0.39512 0.20758 0.0
H355 H 0.38843 0.44482 0.19187 0.0
H356 H 0.107 0.567 0.20158 0.0
H357 H 0.06683 0.59428 0.17228 0.0
H358 H 0.13936 0.61083 0.1059 0.0
H359 H 0.1795 0.58273 0.1353 0.0
Tb360 Tb 0.78683 0.05404 0.9105 0.0
Tb361 Tb 0.73071 1.01762 0.88899 0.0
C362 C 0.83743 0.08409 0.91206 0.0
C363 C 0.84658 0.11524 0.90645 0.0
C364 C 0.86895 0.12094 0.88391 0.0
C365 C 0.8794 0.14998 0.8794 0.0
C366 C 0.86794 0.17389 0.89756 0.0
C367 C 0.84505 0.16825 0.91972 0.0
C368 C 0.83442 0.13928 0.92408 0.0
C369 C 0.73663 0.05748 0.94595 0.0
C370 C 0.73863 0.07945 0.86009 0.0
C371 C 0.67965 0.98831 0.88415 0.0
C372 C 0.65827 0.96992 0.90206 0.0
C373 C 0.65572 0.97402 0.93308 0.0
C374 C 0.63245 0.95875 0.94902 0.0
C375 C 0.61131 0.93909 0.93425 0.0
C376 C 0.61491 0.93427 0.90333 0.0
C377 C 0.63812 0.94956 0.88745 0.0
C378 C 0.78433 1.01305 0.85685 0.0
C379 C 0.77824 0.99175 0.93782 0.0
O380 O 0.82864 0.06801 0.88882 0.0
O381 O 0.81936 0.07963 0.93538 0.0
O382 O 0.73529 0.05628 0.91772 0.0
O383 O 0.76638 0.05996 0.95448 0.0
O384 O 0.76499 0.08293 0.87654 0.0
O385 O 0.72008 0.05611 0.86242 0.0
O386 O 0.68031 1.01672 0.8915 0.0
O387 O 0.70836 0.97718 0.87757 0.0
O388 O 0.78182 1.01478 0.88456 0.0
O389 O 0.75553 1.01173 0.84544 0.0
O390 O 0.74812 0.99301 0.92779 0.0
O391 O 0.79987 1.01138 0.92986 0.0
H392 H 0.87882 0.10281 0.87011 0.0
H393 H 0.89728 0.15354 0.86234 0.0
H394 H 0.83548 0.18625 0.93385 0.0
H395 H 0.81704 0.13573 0.94157 0.0
H396 H 0.67111 0.98961 0.94483 0.0
H397 H 0.63071 0.96267 0.97286 0.0
H398 H 0.5989 0.91961 0.89114 0.0
H399 H 0.63961 0.94621 0.8635 0.0
Tb400 Tb 0.74178 0.98781 0.41635 0.0
Tb401 Tb 0.78922 0.03577 0.39934 0.0
C402 C 0.69721 0.95042 0.41332 0.0
C403 C 0.69162 0.91893 0.405 0.0
C404 C 0.65968 0.90964 0.40201 0.0
C405 C 0.65306 0.88084 0.39156 0.0
C406 C 0.67828 0.86055 0.38379 0.0
C407 C 0.71045 0.86961 0.38759 0.0
C408 C 0.71708 0.89868 0.39794 0.0
C409 C 0.79258 0.99033 0.45079 0.0
C410 C 0.79245 0.97544 0.36281 0.0
C411 C 0.83473 0.0724 0.39972 0.0
C412 C 0.85742 0.08789 0.42035 0.0
C413 C 0.88038 0.07184 0.43721 0.0
C414 C 0.90423 0.08673 0.45357 0.0
C415 C 0.90583 0.11812 0.4537 0.0
C416 C 0.88229 0.13416 0.43741 0.0
C417 C 0.85849 0.11921 0.4209 0.0
C418 C 0.73266 0.03631 0.37002 0.0
C419 C 0.73942 0.04951 0.45037 0.0
O420 O 0.70524 0.9675 0.39141 0.0
O421 O 0.71382 0.95599 0.43765 0.0
O422 O 0.79269 0.99438 0.42288 0.0
O423 O 0.76443 0.98154 0.45913 0.0
O424 O 0.76891 0.96587 0.37984 0.0
O425 O 0.80482 1.00218 0.3665 0.0
O426 O 0.83872 0.04348 0.39614 0.0
O427 O 0.80411 0.08054 0.40048 0.0
O428 O 0.73873 0.02961 0.39626 0.0
O429 O 0.75914 0.04674 0.35924 0.0
O430 O 0.77025 0.0512 0.44288 0.0
O431 O 0.72141 0.02796 0.43869 0.0
H432 H 0.63971 0.92494 0.40725 0.0
H433 H 0.62805 0.87448 0.3894 0.0
H434 H 0.73039 0.85455 0.38171 0.0
H435 H 0.74194 0.90553 0.3999 0.0
H436 H 0.88057 0.04768 0.43715 0.0
H437 H 0.92207 0.07342 0.46537 0.0
H438 H 0.88228 0.1583 0.43726 0.0
H439 H 0.84129 0.13218 0.40797 0.0
Tb440 Tb 0.30103 0.52601 0.67094 0.0
Tb441 Tb 0.25585 0.57293 0.64618 0.0
C442 C 0.33179 0.47959 0.68624 0.0
C443 C 0.36396 0.46733 0.67835 0.0
C444 C 0.38494 0.48376 0.6609 0.0
C445 C 0.41319 0.47038 0.64926 0.0
C446 C 0.42104 0.44032 0.65496 0.0
C447 C 0.40062 0.42444 0.67368 0.0
C448 C 0.37224 0.43779 0.68512 0.0
C449 C 0.30852 0.5805 0.69372 0.0
C450 C 0.3253 0.562 0.61664 0.0
C451 C 0.2304 0.62232 0.63279 0.0
C452 C 0.21508 0.64788 0.6492 0.0
C453 C 0.23032 0.66148 0.67385 0.0
C454 C 0.21591 0.68623 0.6885 0.0
C455 C 0.186 0.69803 0.67875 0.0
C456 C 0.1707 0.6842 0.6542 0.0
C457 C 0.18511 0.6594 0.63961 0.0
C458 C 0.2474 0.51821 0.62387 0.0
C459 C 0.2301 0.53777 0.69755 0.0
O460 O 0.31157 0.48055 0.66392 0.0
O461 O 0.33081 0.50433 0.70226 0.0
O462 O 0.2822 0.56843 0.68703 0.0
O463 O 0.33183 0.56143 0.68797 0.0
O464 O 0.32989 0.53775 0.6325 0.0
O465 O 0.29925 0.57936 0.61993 0.0
O466 O 0.2615 0.61801 0.63701 0.0
O467 O 0.21464 0.59731 0.63221 0.0
O468 O 0.2736 0.53002 0.63131 0.0
O469 O 0.22475 0.53861 0.62555 0.0
O470 O 0.23163 0.56493 0.68727 0.0
O471 O 0.25388 0.51787 0.69256 0.0
H472 H 0.37888 0.50658 0.65533 0.0
H473 H 0.42809 0.48324 0.63474 0.0
H474 H 0.40622 0.40145 0.67904 0.0
H475 H 0.35625 0.42475 0.69845 0.0
H476 H 0.25354 0.65323 0.68167 0.0
H477 H 0.2282 0.69607 0.70751 0.0
H478 H 0.1479 0.69293 0.64579 0.0
H479 H 0.17299 0.64942 0.62055 0.0
H480 H 0.1926 0.3709 0.5337 0.0
H481 H 0.21733 0.32165 0.61317 0.0
H482 H 0.23766 0.36765 0.6368 0.0
H483 H 0.26219 0.42236 0.53769 0.0
H484 H 0.23815 0.45356 0.52475 0.0
H485 H 0.22875 0.41614 0.51265 0.0
H486 H 0.17019 0.42437 0.53177 0.0
H487 H 0.17947 0.46162 0.54434 0.0
H488 H 0.16349 0.43552 0.57014 0.0
H489 H 0.24761 0.41938 0.65459 0.0
H490 H 0.25353 0.47291 0.66349 0.0
H491 H 0.2262 0.49026 0.57222 0.0
C492 C 0.20317 0.36956 0.55573 0.0
C493 C 0.20345 0.34243 0.57149 0.0
C494 C 0.21694 0.34195 0.60053 0.0
C495 C 0.22847 0.36805 0.61421 0.0
C496 C 0.22667 0.39454 0.59855 0.0
C497 C 0.21492 0.3955 0.56977 0.0
C498 C 0.21445 0.42732 0.55856 0.0
C499 C 0.23725 0.43 0.53182 0.0
C500 C 0.17984 0.43781 0.55075 0.0
C501 C 0.22715 0.44412 0.5858 0.0
C502 C 0.23391 0.42462 0.60854 0.0
C503 C 0.24361 0.43472 0.63659 0.0
C504 C 0.24736 0.46539 0.64137 0.0
C505 C 0.24229 0.48586 0.6182 0.0
C506 C 0.23131 0.47506 0.59014 0.0
H507 H 0.84258 0.99782 0.88103 0.0
H508 H 0.79641 0.01919 0.79712 0.0
H509 H 0.84932 1.01265 0.77146 0.0
H510 H 0.9194 0.03277 0.86806 0.0
H511 H 0.94256 1.00357 0.88583 0.0
H512 H 0.90171 1.0121 0.89763 0.0
H513 H 0.8863 0.95699 0.88796 0.0
H514 H 0.92711 0.94823 0.87647 0.0
H515 H 0.8939 0.93989 0.85184 0.0
H516 H 0.90738 1.00175 0.75499 0.0
H517 H 0.96383 0.98303 0.74833 0.0
H518 H 0.97097 0.9671 0.84288 0.0
C519 C 0.84364 1.00143 0.85728 0.0
C520 C 0.81551 1.00925 0.841 0.0
C521 C 0.81774 1.01326 0.80993 0.0
C522 C 0.8477 1.00975 0.79527 0.0
C523 C 0.87505 1.00206 0.81204 0.0
C524 C 0.87314 0.99765 0.84235 0.0
C525 C 0.90541 0.98741 0.85505 0.0
C526 C 0.91801 1.01033 0.878 0.0
C527 C 0.90302 0.95629 0.86862 0.0
C528 C 0.92591 0.98642 0.82713 0.0
C529 C 0.9081 0.99534 0.80259 0.0
C530 C 0.92154 0.995 0.7741 0.0
C531 C 0.95358 0.98444 0.77051 0.0
C532 C 0.97169 0.97423 0.79518 0.0
C533 C 0.95788 0.97573 0.82387 0.0
H534 H 0.36222 0.70107 0.09515 0.0
H535 H 0.29782 0.70851 0.01923 0.0
H536 H 0.27011 0.66286 0.03447 0.0
H537 H 0.37229 0.62161 0.08902 0.0
H538 H 0.3745 0.61612 0.12864 0.0
H539 H 0.38741 0.65067 0.11334 0.0
H540 H 0.34774 0.68029 0.14802 0.0
H541 H 0.3349 0.64587 0.16364 0.0
H542 H 0.3055 0.67128 0.14776 0.0
H543 H 0.24835 0.61725 0.05923 0.0
H544 H 0.23696 0.57291 0.08913 0.0
H545 H 0.31957 0.59179 0.14544 0.0
C546 C 0.34187 0.69334 0.08211 0.0
C547 C 0.33155 0.7086 0.05641 0.0
C548 C 0.30568 0.6973 0.03922 0.0
C549 C 0.28989 0.67141 0.04769 0.0
C550 C 0.30082 0.65666 0.073 0.0
C551 C 0.32648 0.66702 0.08976 0.0
C552 C 0.33482 0.64598 0.11484 0.0
C553 C 0.3693 0.63282 0.11123 0.0
C554 C 0.33047 0.66181 0.14537 0.0
C555 C 0.30966 0.62229 0.10976 0.0
C556 C 0.29 0.62911 0.08576 0.0
C557 C 0.26388 0.61147 0.07776 0.0
C558 C 0.25761 0.58635 0.0948 0.0
C559 C 0.27781 0.57866 0.11907 0.0
C560 C 0.30431 0.59675 0.12645 0.0
H561 H 0.58428 0.10994 0.2791 0.0
H562 H 0.52095 0.05704 0.33244 0.0
H563 H 0.56877 0.03307 0.35595 0.0
H564 H 0.64703 0.05015 0.26693 0.0
H565 H 0.67963 0.0761 0.26863 0.0
H566 H 0.64048 0.08794 0.25495 0.0
H567 H 0.6389 0.13118 0.29413 0.0
H568 H 0.67782 0.11936 0.30823 0.0
H569 H 0.64369 0.12297 0.33304 0.0
H570 H 0.6222 0.02165 0.37915 0.0
H571 H 0.67839 1.01611 0.39533 0.0
H572 H 0.70963 0.06967 0.32203 0.0
C573 C 0.58049 0.0927 0.29512 0.0
C574 C 0.54883 0.08516 0.30382 0.0
C575 C 0.54489 0.06296 0.32528 0.0
C576 C 0.57193 0.04934 0.33881 0.0
C577 C 0.60276 0.05769 0.33013 0.0
C578 C 0.60726 0.07832 0.30829 0.0
C579 C 0.64311 0.08341 0.30338 0.0
C580 C 0.65315 0.07382 0.27158 0.0
C581 C 0.65135 0.11617 0.3101 0.0
C582 C 0.6581 0.0628 0.32635 0.0
C583 C 0.63415 0.04864 0.34175 0.0
C584 C 0.64122 0.0314 0.36633 0.0
C585 C 0.67352 0.028 0.37512 0.0
C586 C 0.69893 0.04059 0.35882 0.0
C587 C 0.69099 0.05853 0.33412 0.0
H588 H 0.7252 0.21237 0.52922 0.0
H589 H 0.64334 0.22729 0.47046 0.0
H590 H 0.64923 0.17593 0.4504 0.0
H591 H 0.77182 0.1666 0.47217 0.0
H592 H 0.7896 0.14255 0.49971 0.0
H593 H 0.77927 0.18083 0.50938 0.0
H594 H 0.74449 0.16275 0.55304 0.0
H595 H 0.75403 0.1244 0.54301 0.0
H596 H 0.71243 0.13709 0.54551 0.0
H597 H 0.65881 0.12205 0.44161 0.0
H598 H 0.68106 0.07128 0.43302 0.0
H599 H 0.76202 0.09121 0.49134 0.0
C600 C 0.7092 0.20495 0.51157 0.0
C601 C 0.68337 0.22348 0.5017 0.0
C602 C 0.6628 0.21311 0.47866 0.0
C603 C 0.66591 0.18399 0.46719 0.0
C604 C 0.69045 0.16569 0.47833 0.0
C605 C 0.71266 0.17594 0.49901 0.0
C606 C 0.73773 0.15158 0.50569 0.0
C607 C 0.77161 0.16095 0.49616 0.0
C608 C 0.73712 0.14349 0.53878 0.0
C609 C 0.72554 0.1261 0.48603 0.0
C610 C 0.69775 0.13473 0.4711 0.0
C611 C 0.68086 0.11508 0.45275 0.0
C612 C 0.69349 0.0861 0.44835 0.0
C613 C 0.72317 0.07722 0.46163 0.0
C614 C 0.73918 0.09739 0.48108 0.0
H615 H 0.10513 0.43957 0.78595 0.0
H616 H 0.02841 0.48772 0.74014 0.0
H617 H 0.06933 0.51888 0.71611 0.0
H618 H 0.15898 0.50038 0.79862 0.0
H619 H 0.19503 0.47817 0.79105 0.0
H620 H 0.15975 0.46096 0.8058 0.0
H621 H 0.15999 0.423 0.76138 0.0
H622 H 0.19536 0.43996 0.74657 0.0
H623 H 0.15961 0.43647 0.72383 0.0
H624 H 0.11812 0.54556 0.69925 0.0
H625 H 0.17165 0.5621 0.68416 0.0
H626 H 0.21745 0.493 0.73715 0.0
C627 C 0.097 0.4569 0.77104 0.0
C628 C 0.06377 0.46186 0.76515 0.0
C629 C 0.05383 0.48396 0.74496 0.0
C630 C 0.07684 0.50171 0.7314 0.0
C631 C 0.10949 0.49641 0.73791 0.0
C632 C 0.1196 0.47417 0.75678 0.0
C633 C 0.15617 0.4717 0.75849 0.0
C634 C 0.16818 0.47819 0.79039 0.0
C635 C 0.1685 0.44096 0.74686 0.0
C636 C 0.16518 0.49623 0.73769 0.0
C637 C 0.13781 0.51051 0.72657 0.0
C638 C 0.13969 0.53446 0.70764 0.0
C639 C 0.1703 0.54378 0.69941 0.0
C640 C 0.19875 0.52887 0.70963 0.0
C641 C 0.19613 0.50477 0.72905 0.0
H642 H 0.75828 0.93402 0.93292 0.0
H643 H 0.82317 0.99191 0.98191 0.0
H644 H 0.84456 0.9486 1.00943 0.0
H645 H 0.7427 0.88113 0.993 0.0
H646 H 0.74367 0.84906 0.96804 0.0
H647 H 0.73036 0.88496 0.9547 0.0
H648 H 0.77348 0.88117 0.91295 0.0
H649 H 0.78698 0.84535 0.9262 0.0
H650 H 0.81536 0.87496 0.92276 0.0
H651 H 0.86201 0.90004 0.02808 0.0
H652 H 0.87663 0.84815 0.03614 0.0
H653 H 0.80152 0.8191 0.97598 0.0
C654 C 0.77644 0.93757 0.94999 0.0
C655 C 0.78884 0.96627 0.95578 0.0
C656 C 0.8133 0.97009 0.97743 0.0
C657 C 0.82547 0.94568 0.99318 0.0
C658 C 0.81315 0.9176 0.98668 0.0
C659 C 0.78936 0.91325 0.96552 0.0
C660 C 0.78271 0.88022 0.96104 0.0
C661 C 0.74778 0.87345 0.96972 0.0
C662 C 0.79008 0.86983 0.92882 0.0
C663 C 0.80679 0.86674 0.98281 0.0
C664 C 0.8236 0.88893 0.99753 0.0
C665 C 0.84819 0.88251 0.01754 0.0
C666 C 0.85582 0.85265 0.02281 0.0
C667 C 0.83908 0.82927 1.00852 0.0
C668 C 0.81431 0.83647 0.9879 0.0
H669 H 0.46277 0.55749 0.26151 0.0
H670 H 0.43674 0.65043 0.27989 0.0
H671 H 0.37957 0.63961 0.27295 0.0
H672 H 0.40559 0.54948 0.20189 0.0
H673 H 0.39581 0.51151 0.20982 0.0
H674 H 0.43501 0.52538 0.2196 0.0
H675 H 0.42622 0.51041 0.27437 0.0
H676 H 0.38694 0.49656 0.26465 0.0
H677 H 0.39084 0.52429 0.29408 0.0
H678 H 0.32521 0.62004 0.26278 0.0
H679 H 0.27726 0.59323 0.24443 0.0
H680 H 0.33683 0.51354 0.22963 0.0
C681 C 0.44492 0.57535 0.26452 0.0
C682 C 0.4543 0.6046 0.27252 0.0
C683 C 0.43027 0.6276 0.27518 0.0
C684 C 0.39756 0.62175 0.27103 0.0
C685 C 0.38898 0.59281 0.26351 0.0
C686 C 0.41184 0.56999 0.25979 0.0
C687 C 0.39586 0.54152 0.24903 0.0
C688 C 0.40884 0.53139 0.21826 0.0
C689 C 0.40023 0.51673 0.27191 0.0
C690 C 0.36076 0.55218 0.24716 0.0
C691 C 0.35737 0.58174 0.25605 0.0
C692 C 0.32748 0.59682 0.25582 0.0
C693 C 0.30038 0.58143 0.24555 0.0
C694 C 0.30346 0.55146 0.23535 0.0
C695 C 0.33391 0.53656 0.23668 0.0
H696 H 0.52275 0.23794 0.33358 0.0
H697 H 0.56457 0.14831 0.33622 0.0
H698 H 0.57812 0.15595 0.38917 0.0
H699 H 0.58635 0.2706 0.38214 0.0
H700 H 0.55868 0.29718 0.3997 0.0
H701 H 0.55173 0.28463 0.36186 0.0
H702 H 0.49442 0.26842 0.37677 0.0
H703 H 0.50153 0.28019 0.41483 0.0
H704 H 0.48994 0.24241 0.40645 0.0
H705 H 0.58033 0.1702 0.44238 0.0
H706 H 0.58795 0.19524 0.49076 0.0
H707 H 0.55348 0.27907 0.45383 0.0
C708 C 0.53544 0.22031 0.34526 0.0
C709 C 0.54276 0.19258 0.3309 0.0
C710 C 0.55916 0.16984 0.34674 0.0
C711 C 0.56656 0.1738 0.37693 0.0
C712 C 0.55818 0.20096 0.39075 0.0
C713 C 0.54431 0.22433 0.37532 0.0
C714 C 0.54023 0.25188 0.39549 0.0
C715 C 0.56046 0.27759 0.38412 0.0
C716 C 0.5044 0.26127 0.39855 0.0
C717 C 0.55358 0.24002 0.42463 0.0
C718 C 0.5627 0.21029 0.42138 0.0
C719 C 0.57399 0.19366 0.44514 0.0
C720 C 0.57789 0.20816 0.47271 0.0
C721 C 0.5718 0.23934 0.47613 0.0
C722 C 0.55858 0.2553 0.4519 0.0
H723 H 0.04908 0.33439 0.60607 0.0
H724 H 0.13932 0.28691 0.62405 0.0
H725 H 0.12945 0.2914 0.67754 0.0
H726 H 0.06398 0.38864 0.66523 0.0
H727 H 0.02204 0.39422 0.6751 0.0
H728 H 0.03289 0.38325 0.63753 0.0
H729 H 0.99599 0.33754 0.64074 0.0
H730 H 0.98528 0.34838 0.67842 0.0
H731 H 1.00204 0.31158 0.67047 0.0
H732 H 0.10986 0.29949 0.72952 0.0
H733 H 0.08749 0.32013 0.77689 0.0
H734 H 0.01646 0.3716 0.72717 0.0
C735 C 0.06631 0.32444 0.62133 0.0
C736 C 0.09385 0.3082 0.61051 0.0
C737 C 0.11682 0.29729 0.63137 0.0
C738 C 0.11168 0.3001 0.66205 0.0
C739 C 0.08411 0.31538 0.67206 0.0
C740 C 0.06233 0.32837 0.65248 0.0
C741 C 0.03731 0.34728 0.66966 0.0
C742 C 0.03918 0.38031 0.66139 0.0
C743 C 1.00312 0.33548 0.66451 0.0
C744 C 0.04844 0.34246 0.70163 0.0
C745 C 0.07497 0.3233 0.70242 0.0
C746 C 0.08919 0.31473 0.72925 0.0
C747 C 0.07628 0.32647 0.75606 0.0
C748 C 0.05002 0.34722 0.75586 0.0
C749 C 0.03605 0.3553 0.72818 0.0
H750 H 0.01119 0.82571 0.83955 0.0
H751 H 0.94106 0.89848 0.8304 0.0
H752 H 0.91788 0.88699 0.87922 0.0
H753 H 0.95338 0.77511 0.87555 0.0
H754 H 0.98403 0.759 0.89931 0.0
H755 H 0.99479 0.7724 0.86319 0.0
H756 H 0.03743 0.80628 0.88804 0.0
H757 H 0.0264 0.79343 0.92428 0.0
H758 H 0.02502 0.83279 0.91683 0.0
H759 H 0.90748 0.87269 0.93121 0.0
H760 H 0.90106 0.84892 0.97942 0.0
H761 H 0.97182 0.78017 0.95385 0.0
C762 C 0.99048 0.8387 0.84763 0.0
C763 C 0.9777 0.86285 0.83114 0.0
C764 C 0.95081 0.87958 0.84241 0.0
C765 C 0.93772 0.87344 0.87028 0.0
C766 C 0.95125 0.84999 0.88631 0.0
C767 C 0.97627 0.83217 0.8751 0.0
C768 C 0.98531 0.80768 0.89678 0.0
C769 C 0.97899 0.77671 0.88288 0.0
C770 C 0.02064 0.81021 0.90709 0.0
C771 C 0.96198 0.81508 0.92217 0.0
C772 C 0.94316 0.84001 0.91572 0.0
C773 C 0.92153 0.85274 0.93625 0.0
C774 C 0.91824 0.83915 0.96377 0.0
C775 C 0.93567 0.81255 0.97042 0.0
C776 C 0.95799 0.80038 0.9493 0.0
H777 H 0.52708 0.68228 0.19726 0.0
H778 H 0.45678 0.73126 0.25222 0.0
H779 H 0.43084 0.75096 0.20693 0.0
H780 H 0.53319 0.73781 0.13803 0.0
H781 H 0.53616 0.70963 0.10882 0.0
H782 H 0.55133 0.70179 0.14558 0.0
H783 H 0.51519 0.65548 0.14729 0.0
H784 H 0.49954 0.6634 0.11076 0.0
H785 H 0.47219 0.65994 0.14161 0.0
H786 H 0.40986 0.76173 0.15682 0.0
H787 H 0.39647 0.76616 0.10431 0.0
H788 H 0.4795 0.71044 0.07971 0.0
C789 C 0.50678 0.69782 0.1998 0.0
C790 C 0.49412 0.70554 0.22834 0.0
C791 C 0.46699 0.72525 0.23066 0.0
C792 C 0.45206 0.73646 0.20505 0.0
C793 C 0.46448 0.72765 0.17731 0.0
C794 C 0.49133 0.70899 0.1744 0.0
C795 C 0.49854 0.70183 0.14176 0.0
C796 C 0.53178 0.71347 0.13303 0.0
C797 C 0.49622 0.66816 0.13497 0.0
C798 C 0.47133 0.71925 0.12681 0.0
C799 C 0.45216 0.73393 0.14792 0.0
C800 C 0.42509 0.75083 0.14009 0.0
C801 C 0.41778 0.75346 0.10988 0.0
C802 C 0.43734 0.73957 0.08756 0.0
C803 C 0.4642 0.72163 0.09623 0.0
H804 H 0.17017 0.42325 0.38043 0.0
H805 H 0.18228 0.33079 0.34992 0.0
H806 H 0.20581 0.34767 0.30343 0.0
H807 H 0.14263 0.44916 0.30928 0.0
H808 H 0.16158 0.4848 0.31348 0.0
H809 H 0.14858 0.46547 0.34591 0.0
H810 H 0.20651 0.4679 0.36777 0.0
H811 H 0.21973 0.4871 0.33532 0.0
H812 H 0.24014 0.45306 0.34619 0.0
H813 H 0.22945 0.37477 0.2597 0.0
H814 H 0.24459 0.41006 0.22059 0.0
H815 H 0.20998 0.48412 0.27654 0.0
C816 C 0.17734 0.40629 0.36411 0.0
C817 C 0.17466 0.37541 0.36986 0.0
C818 C 0.18496 0.35451 0.34729 0.0
C819 C 0.19817 0.36388 0.32036 0.0
C820 C 0.2004 0.39434 0.31566 0.0
C821 C 0.18972 0.41523 0.3367 0.0
C822 C 0.19274 0.44665 0.32531 0.0
C823 C 0.1594 0.46244 0.32338 0.0
C824 C 0.21618 0.46474 0.34482 0.0
C825 C 0.20673 0.44013 0.29459 0.0
C826 C 0.21159 0.40983 0.28964 0.0
C827 C 0.2254 0.39852 0.26323 0.0
C828 C 0.23402 0.41868 0.24119 0.0
C829 C 0.22806 0.4497 0.24541 0.0
C830 C 0.21435 0.46044 0.27254 0.0
H831 H 0.86848 0.96904 0.60999 0.0
H832 H 0.96275 0.95698 0.5689 0.0
H833 H 0.93917 0.9712 0.52025 0.0
H834 H 0.82462 0.93729 0.55269 0.0
H835 H 0.79014 0.96241 0.5565 0.0
H836 H 0.81543 0.95501 0.58822 0.0
H837 H 0.82482 1.0117 0.59565 0.0
H838 H 0.79942 0.0193 0.56389 0.0
H839 H 0.84012 0.03274 0.56519 0.0
H840 H 0.90306 0.98321 0.47468 0.0
H841 H 0.85822 0.98894 0.43793 0.0
H842 H 0.78927 0.99274 0.51047 0.0
C843 C 0.88448 0.97025 0.59102 0.0
C844 C 0.91755 0.96219 0.59341 0.0
C845 C 0.9373 0.96304 0.56765 0.0
C846 C 0.92415 0.97128 0.53996 0.0
C847 C 0.89124 0.9787 0.53837 0.0
C848 C 0.87179 0.97829 0.56338 0.0
C849 C 0.83677 0.98467 0.55576 0.0
C850 C 0.81551 0.95827 0.56375 0.0
C851 C 0.82458 1.01384 0.57103 0.0
C852 C 0.83926 0.98799 0.52244 0.0
C853 C 0.87082 0.98497 0.51262 0.0
C854 C 0.87833 0.98585 0.48225 0.0
C855 C 0.85282 0.98917 0.46153 0.0
C856 C 0.8204 0.99115 0.47144 0.0
C857 C 0.81387 0.99124 0.50225 0.0
H858 H 0.36329 0.5979 0.72299 0.0
H859 H 0.25961 0.61406 0.71962 0.0
H860 H 0.26324 0.64769 0.76389 0.0
H861 H 0.36849 0.59292 0.80063 0.0
H862 H 0.40695 0.61075 0.80408 0.0
H863 H 0.39679 0.59095 0.77014 0.0
H864 H 0.40688 0.63833 0.73979 0.0
H865 H 0.41738 0.65823 0.77364 0.0
H866 H 0.3859 0.6728 0.74982 0.0
H867 H 0.27795 0.6765 0.81125 0.0
H868 H 0.3026 0.69933 0.85626 0.0
H869 H 0.39623 0.66218 0.82954 0.0
C870 C 0.34145 0.60905 0.73115 0.0
C871 C 0.3112 0.60371 0.71759 0.0
C872 C 0.2831 0.61823 0.72934 0.0
C873 C 0.28492 0.63725 0.75459 0.0
C874 C 0.31502 0.6414 0.76794 0.0
C875 C 0.34281 0.62782 0.75649 0.0
C876 C 0.37188 0.63443 0.77594 0.0
C877 C 0.38689 0.60555 0.78843 0.0
C878 C 0.39699 0.652 0.75877 0.0
C879 C 0.3561 0.65355 0.80033 0.0
C880 C 0.32334 0.65747 0.79529 0.0
C881 C 0.30363 0.67369 0.81529 0.0
C882 C 0.31782 0.68637 0.84096 0.0
C883 C 0.35142 0.6827 0.84654 0.0
C884 C 0.37061 0.66595 0.8258 0.0
H885 H 0.66486 0.09094 0.10657 0.0
H886 H 0.57002 0.10465 0.06717 0.0
H887 H 0.59226 0.08945 0.01764 0.0
H888 H 0.70947 0.12084 0.04828 0.0
H889 H 0.74283 0.09451 0.05162 0.0
H890 H 0.71847 0.10425 0.08367 0.0
H891 H 0.70669 0.04832 0.09105 0.0
H892 H 0.73102 0.03841 0.05895 0.0
H893 H 0.6897 0.02672 0.06074 0.0
H894 H 0.62738 0.07558 0.97108 0.0
H895 H 0.67094 0.06469 0.93393 0.0
H896 H 0.74104 0.06045 1.00575 0.0
C897 C 0.64866 0.09078 0.08758 0.0
C898 C 0.61574 0.09922 0.09075 0.0
C899 C 0.59532 0.09813 0.06532 0.0
C900 C 0.60778 0.08961 0.0371 0.0
C901 C 0.64061 0.08193 0.03474 0.0
C902 C 0.66061 0.08232 0.05949 0.0
C903 C 0.69514 0.07418 0.05139 0.0
C904 C 0.7178 0.09998 0.05919 0.0
C905 C 0.70628 0.04518 0.06642 0.0
C906 C 0.69179 0.06966 0.0181 0.0
C907 C 0.66025 0.07399 1.00865 0.0
C908 C 0.65208 0.07195 0.97838 0.0
C909 C 0.67689 0.06572 0.95743 0.0
C910 C 0.70931 0.06177 0.96697 0.0
C911 C 0.71648 0.06335 0.9977 0.0
H912 H 0.65229 0.13619 0.71265 0.0
H913 H 0.70759 0.21712 0.7204 0.0
H914 H 0.73229 0.19884 0.76701 0.0
H915 H 0.63539 0.1299 0.79126 0.0
H916 H 0.6388 0.08973 0.79008 0.0
H917 H 0.62562 0.10943 0.75751 0.0
H918 H 0.67163 0.08354 0.72669 0.0
H919 H 0.68495 0.06377 0.75914 0.0
H920 H 0.71286 0.08636 0.73936 0.0
H921 H 0.75212 0.1704 0.81253 0.0
H922 H 0.76463 0.13483 0.85261 0.0
H923 H 0.69411 0.0742 0.81527 0.0
C924 C 0.66916 0.15042 0.72431 0.0
C925 C 0.67784 0.1782 0.71278 0.0
C926 C 0.70074 0.19562 0.72853 0.0
C927 C 0.71476 0.18551 0.75516 0.0
C928 C 0.70554 0.15801 0.76584 0.0
C929 C 0.68317 0.1408 0.75089 0.0
C930 C 0.67755 0.11192 0.76667 0.0
C931 C 0.64224 0.11016 0.77699 0.0
C932 C 0.68734 0.08481 0.74678 0.0
C933 C 0.70032 0.11544 0.79285 0.0
C934 C 0.71637 0.14209 0.79204 0.0
C935 C 0.73947 0.14959 0.81347 0.0
C936 C 0.74642 0.12924 0.83616 0.0
C937 C 0.73017 0.10181 0.83731 0.0
C938 C 0.70669 0.09512 0.81538 0.0
H939 H 0.22899 0.49108 0.07389 0.0
H940 H 0.16894 0.46914 0.14886 0.0
H941 H 0.12491 0.45498 0.11384 0.0
H942 H 0.1641 0.52223 0.02776 0.0
H943 H 0.18206 0.50754 0.99379 0.0
H944 H 0.20738 0.51732 0.02506 0.0
H945 H 0.23276 0.46386 0.02386 0.0
H946 H 0.20741 0.45385 0.99275 0.0
H947 H 0.20682 0.43224 0.02612 0.0
H948 H 0.0895 0.43876 0.06914 0.0
H949 H 0.06485 0.42625 0.02003 0.0
H950 H 0.14851 0.46088 0.97571 0.0
C951 C 0.20643 0.4836 0.08299 0.0
C952 C 0.2023 0.48102 0.114 0.0
C953 C 0.17246 0.4713 0.12512 0.0
C954 C 0.14743 0.46316 0.10539 0.0
C955 C 0.15261 0.46534 0.07474 0.0
C956 C 0.18129 0.47577 0.06375 0.0
C957 C 0.18142 0.47569 0.03006 0.0
C958 C 0.18387 0.50759 0.01849 0.0
C959 C 0.20871 0.45518 0.01748 0.0
C960 C 0.14856 0.46302 0.02359 0.0
C961 C 0.13218 0.45706 0.04953 0.0
C962 C 0.10198 0.44377 0.04876 0.0
C963 C 0.08823 0.4366 0.02082 0.0
C964 C 0.10456 0.44298 0.99409 0.0
C965 C 0.13508 0.45638 0.99573 0.0
H966 H 0.83776 0.98701 0.31965 0.0
H967 H 0.77656 0.91725 0.35186 0.0
H968 H 0.79688 0.88322 0.31202 0.0
H969 H 0.82652 0.9706 0.24242 0.0
H970 H 0.86747 0.9784 0.23204 0.0
H971 H 0.84952 0.997 0.26412 0.0
H972 H 0.89681 0.97784 0.29707 0.0
H973 H 0.9149 0.95916 0.26507 0.0
H974 H 0.90617 0.93838 0.2979 0.0
H975 H 0.82173 0.85729 0.26747 0.0
H976 H 0.84846 0.84164 0.22061 0.0
H977 H 0.89492 0.92743 0.21748 0.0
C978 C 0.82883 0.9645 0.31852 0.0
C979 C 0.80557 0.95489 0.33909 0.0
C980 C 0.79436 0.92528 0.33652 0.0
C981 C 0.80583 0.90567 0.31396 0.0
C982 C 0.82858 0.91588 0.29404 0.0
C983 C 0.83999 0.94458 0.29604 0.0
C984 C 0.86357 0.95019 0.27106 0.0
C985 C 0.85101 0.97555 0.25124 0.0
C986 C 0.89737 0.95678 0.28353 0.0
C987 C 0.8633 0.92029 0.25453 0.0
C988 C 0.84309 0.9008 0.2683 0.0
C989 C 0.83795 0.87223 0.25668 0.0
C990 C 0.85355 0.86344 0.2301 0.0
C991 C 0.8742 0.88308 0.21525 0.0
C992 C 0.87928 0.91181 0.22804 0.0
H993 H 0.32238 0.61017 0.5806 0.0
H994 H 0.37992 0.53016 0.59814 0.0
H995 H 0.41545 0.54145 0.55568 0.0
H996 H 0.32379 0.60345 0.50261 0.0
H997 H 0.32595 0.64299 0.49673 0.0
H998 H 0.30685 0.62967 0.52968 0.0
H999 H 0.34521 0.66112 0.56284 0.0
H1000 H 0.36433 0.67472 0.52997 0.0
H1001 H 0.38834 0.65666 0.55821 0.0
H1002 H 0.44275 0.56064 0.50901 0.0
H1003 H 0.45928 0.58579 0.46314 0.0
H1004 H 0.38332 0.65296 0.4776 0.0
C1005 C 0.34261 0.59506 0.57585 0.0
C1006 C 0.34833 0.56924 0.59277 0.0
C1007 C 0.37508 0.55012 0.58557 0.0
C1008 C 0.39537 0.55636 0.56148 0.0
C1009 C 0.38861 0.58181 0.54499 0.0
C1010 C 0.36291 0.60088 0.55204 0.0
C1011 C 0.35982 0.62615 0.53039 0.0
C1012 C 0.32717 0.6255 0.51388 0.0
C1013 C 0.36474 0.65645 0.54631 0.0
C1014 C 0.38756 0.61821 0.50967 0.0
C1015 C 0.40407 0.59269 0.51845 0.0
C1016 C 0.43014 0.58078 0.50214 0.0
C1017 C 0.43944 0.59529 0.47619 0.0
C1018 C 0.4226 0.62137 0.46674 0.0
C1019 C 0.3965 0.63293 0.48398 0.0
H1020 H 0.21116 0.20363 0.49228 0.0
H1021 H 0.19781 0.29809 0.47796 0.0
H1022 H 0.23708 0.29477 0.43622 0.0
H1023 H 0.29434 0.20297 0.48403 0.0
H1024 H 0.29773 0.16657 0.46628 0.0
H1025 H 0.26451 0.17531 0.491 0.0
H1026 H 0.22361 0.16145 0.44943 0.0
H1027 H 0.25673 0.15215 0.42467 0.0
H1028 H 0.22601 0.17896 0.41376 0.0
H1029 H 0.28229 0.28125 0.39902 0.0
H1030 H 0.32871 0.25946 0.37061 0.0
H1031 H 0.31392 0.1742 0.41169 0.0
C1032 C 0.21555 0.2233 0.47945 0.0
C1033 C 0.19997 0.2508 0.48688 0.0
C1034 C 0.2078 0.27651 0.47105 0.0
C1035 C 0.23052 0.27484 0.44772 0.0
C1036 C 0.24571 0.24733 0.44101 0.0
C1037 C 0.23842 0.222 0.45646 0.0
C1038 C 0.26022 0.1958 0.44718 0.0
C1039 C 0.28039 0.18452 0.4737 0.0
C1040 C 0.24046 0.17061 0.4329 0.0
C1041 C 0.28131 0.21032 0.42439 0.0
C1042 C 0.27246 0.23996 0.42087 0.0
C1043 C 0.28917 0.258 0.40149 0.0
C1044 C 0.31551 0.24541 0.38539 0.0
C1045 C 0.32518 0.21513 0.38894 0.0
C1046 C 0.30753 0.1975 0.40866 0.0
H1047 H 0.07368 0.10343 0.64345 0.0
H1048 H 0.17739 0.0866 0.64675 0.0
H1049 H 0.16832 0.0374 0.66825 0.0
H1050 H 0.05559 0.07186 0.71223 0.0
H1051 H 0.01815 0.05557 0.70034 0.0
H1052 H 0.0324 0.0883 0.68247 0.0
H1053 H 0.02984 0.06081 0.63117 0.0
H1054 H 0.01555 0.02795 0.64891 0.0
H1055 H 0.05115 0.02555 0.62585 0.0
H1056 H 0.14879 0.99289 0.69424 0.0
H1057 H 0.1198 0.95457 0.72141 0.0
H1058 H 0.02827 0.99854 0.70044 0.0
C1059 C 0.09446 0.08924 0.64841 0.0
C1060 C 0.1263 0.09888 0.6432 0.0
C1061 C 0.1528 0.07959 0.64999 0.0
C1062 C 0.14789 0.05162 0.66235 0.0
C1063 C 0.11631 0.04302 0.66757 0.0
C1064 C 0.08998 0.06108 0.66059 0.0
C1065 C 0.0586 0.04689 0.66969 0.0
C1066 C 0.04011 0.06684 0.69254 0.0
C1067 C 0.03754 0.03989 0.64226 0.0
C1068 C 0.07151 0.01847 0.68368 0.0
C1069 C 0.10489 1.01672 0.68206 0.0
C1070 C 0.12266 0.99374 0.6952 0.0
C1071 C 0.10597 0.97213 0.71067 0.0
C1072 C 0.07182 0.97343 0.71274 0.0
C1073 C 0.05434 0.99666 0.69863 0.0
H1074 H 0.19454 0.87704 0.92353 0.0
H1075 H 0.20201 0.80501 0.85754 0.0
H1076 H 0.2497 0.78419 0.88418 0.0
H1077 H 0.27876 0.88722 0.93389 0.0
H1078 H 0.27532 0.89487 0.97336 0.0
H1079 H 0.24198 0.90371 0.94899 0.0
H1080 H 0.20417 0.87148 0.98034 0.0
H1081 H 0.23731 0.86281 1.005 0.0
H1082 H 0.2154 0.8331 0.98706 0.0
H1083 H 0.29756 0.77139 0.91937 0.0
H1084 H 0.33844 0.76761 0.95996 0.0
H1085 H 0.29767 0.84806 1.00163 0.0
C1086 C 0.20575 0.8566 0.91483 0.0
C1087 C 0.19427 0.84259 0.88849 0.0
C1088 C 0.21041 0.81628 0.87758 0.0
C1089 C 0.23749 0.80425 0.89261 0.0
C1090 C 0.24821 0.81881 0.91848 0.0
C1091 C 0.23263 0.84437 0.92947 0.0
C1092 C 0.24851 0.856 0.9576 0.0
C1093 C 0.26194 0.8873 0.95318 0.0
C1094 C 0.22495 0.85582 0.98406 0.0
C1095 C 0.27544 0.83296 0.96096 0.0
C1096 C 0.27518 0.81166 0.93823 0.0
C1097 C 0.29793 0.78806 0.93718 0.0
C1098 C 0.32117 0.78612 0.96017 0.0
C1099 C 0.32126 0.80763 0.98373 0.0
C1100 C 0.29825 0.83134 0.98382 0.0
H1101 H 0.49537 0.05536 0.19811 0.0
H1102 H 0.40317 0.09778 0.2211 0.0
H1103 H 0.37466 0.0573 0.19471 0.0
H1104 H 0.47112 0.02398 0.12425 0.0
H1105 H 0.49414 0.98984 0.12945 0.0
H1106 H 0.50745 0.02422 0.14652 0.0
H1107 H 0.50776 0.99947 0.19815 0.0
H1108 H 0.49429 0.96514 0.1813 0.0
H1109 H 0.47148 0.98265 0.21134 0.0
H1110 H 0.35594 1.01068 0.16917 0.0
H1111 H 0.34837 0.9598 0.14838 0.0
H1112 H 0.45244 0.94636 0.14356 0.0
C1113 C 0.46922 0.05645 0.19689 0.0
C1114 C 0.45145 0.07981 0.21137 0.0
C1115 C 0.41723 0.0801 0.21007 0.0
C1116 C 0.40082 0.05728 0.19502 0.0
C1117 C 0.41895 0.03419 0.18153 0.0
C1118 C 0.45239 0.03352 0.18235 0.0
C1119 C 0.46594 1.00475 0.16844 0.0
C1120 C 0.48584 1.01108 0.1405 0.0
C1121 C 0.48604 0.98696 0.19117 0.0
C1122 C 0.4349 0.98911 0.16037 0.0
C1123 C 0.4081 1.00673 0.16762 0.0
C1124 C 0.37674 0.99678 0.16312 0.0
C1125 C 0.37266 0.9679 0.15123 0.0
C1126 C 0.39977 0.94916 0.14435 0.0
C1127 C 0.43125 0.96015 0.14872 0.0
H1128 H 0.81924 0.31285 0.6985 0.0
H1129 H 0.80527 0.40901 0.69519 0.0
H1130 H 0.75669 0.40234 0.66424 0.0
H1131 H 0.79898 0.29704 0.62499 0.0
H1132 H 0.77764 0.26324 0.63166 0.0
H1133 H 0.80892 0.27494 0.65697 0.0
H1134 H 0.76875 0.27392 0.70108 0.0
H1135 H 0.73735 0.26195 0.6759 0.0
H1136 H 0.73112 0.29491 0.69911 0.0
H1137 H 0.71539 0.3862 0.6281 0.0
H1138 H 0.6795 0.36102 0.59216 0.0
H1139 H 0.71749 0.27484 0.6197 0.0
C1140 C 0.8055 0.33243 0.69176 0.0
C1141 C 0.81588 0.36147 0.69947 0.0
C1142 C 0.79744 0.38658 0.69009 0.0
C1143 C 0.7699 0.38303 0.67234 0.0
C1144 C 0.76082 0.3542 0.66449 0.0
C1145 C 0.77763 0.32927 0.67426 0.0
C1146 C 0.76348 0.30088 0.66118 0.0
C1147 C 0.78877 0.28298 0.6426 0.0
C1148 C 0.74933 0.28179 0.68579 0.0
C1149 C 0.737 0.31391 0.64162 0.0
C1150 C 0.73595 0.34473 0.64401 0.0
C1151 C 0.71548 0.36207 0.62646 0.0
C1152 C 0.69541 0.34758 0.60595 0.0
C1153 C 0.69572 0.31605 0.60332 0.0
C1154 C 0.7165 0.29897 0.62165 0.0
H1155 H 0.94358 0.49754 0.82596 0.0
H1156 H 0.99795 0.44027 0.88553 0.0
H1157 H 0.99483 0.48001 0.92496 0.0
H1158 H 0.97799 0.56717 0.84918 0.0
H1159 H 0.94036 0.58798 0.84599 0.0
H1160 H 0.94786 0.55538 0.8226 0.0
H1161 H 0.89513 0.53213 0.84143 0.0
H1162 H 0.88735 0.56473 0.8647 0.0
H1163 H 0.88908 0.5283 0.88091 0.0
H1164 H 0.98502 0.52688 0.95785 0.0
H1165 H 0.96775 0.57477 0.98184 0.0
H1166 H 0.91793 0.59981 0.90057 0.0
C1167 C 0.95489 0.49333 0.8473 0.0
C1168 C 0.9711 0.46589 0.85273 0.0
C1169 C 0.98542 0.46117 0.88096 0.0
C1170 C 0.9838 0.48364 0.90341 0.0
C1171 C 0.96758 0.51054 0.89726 0.0
C1172 C 0.95321 0.5153 0.86989 0.0
C1173 C 0.93636 0.54564 0.86896 0.0
C1174 C 0.95156 0.56519 0.84528 0.0
C1175 C 0.89982 0.5425 0.8637 0.0
C1176 C 0.94337 0.55739 0.90012 0.0
C1177 C 0.96155 0.53696 0.9161 0.0
C1178 C 0.97068 0.54292 0.94552 0.0
C1179 C 0.96058 0.57019 0.95901 0.0
C1180 C 0.94134 0.59124 0.94322 0.0
C1181 C 0.933 0.58461 0.91325 0.0
H1182 H 0.80202 0.7101 0.07696 0.0
H1183 H 0.83673 0.77615 0.14099 0.0
H1184 H 0.79426 0.76261 0.17608 0.0
H1185 H 0.7176 0.72228 0.09207 0.0
H1186 H 0.70752 0.6835 0.08808 0.0
H1187 H 0.74122 0.69768 0.06789 0.0
H1188 H 0.77918 0.65756 0.09097 0.0
H1189 H 0.74556 0.64316 0.11112 0.0
H1190 H 0.78132 0.65457 0.13092 0.0
H1191 H 0.74769 0.74294 0.20407 0.0
H1192 H 0.70089 0.7169 0.22394 0.0
H1193 H 0.69531 0.66385 0.142 0.0
C1194 C 0.80086 0.72155 0.09843 0.0
C1195 C 0.82281 0.74424 0.1061 0.0
C1196 C 0.82024 0.75877 0.13443 0.0
C1197 C 0.79616 0.75125 0.1546 0.0
C1198 C 0.77471 0.72912 0.14623 0.0
C1199 C 0.77684 0.71436 0.11892 0.0
C1200 C 0.75043 0.6916 0.1155 0.0
C1201 C 0.72786 0.69923 0.08933 0.0
C1202 C 0.765 0.65984 0.11192 0.0
C1203 C 0.73324 0.69591 0.14516 0.0
C1204 C 0.74764 0.71774 0.16247 0.0
C1205 C 0.73614 0.72583 0.19071 0.0
C1206 C 0.70933 0.71107 0.2017 0.0
C1207 C 0.69421 0.68841 0.18452 0.0
C1208 C 0.70642 0.68089 0.1558 0.0
H1209 H 0.6 0.44264 0.38768 0.0
H1210 H 0.54998 0.45896 0.47164 0.0
H1211 H 0.52966 0.50744 0.45347 0.0
H1212 H 0.62689 0.51668 0.38007 0.0
H1213 H 0.62218 0.5168 0.34014 0.0
H1214 H 0.63049 0.48224 0.35868 0.0
H1215 H 0.57923 0.45947 0.33493 0.0
H1216 H 0.57088 0.4939 0.31614 0.0
H1217 H 0.54066 0.47851 0.3398 0.0
H1218 H 0.51645 0.5555 0.42663 0.0
H1219 H 0.51123 0.59839 0.39323 0.0
H1220 H 0.57244 0.55158 0.32823 0.0
C1221 C 0.58478 0.4563 0.40236 0.0
C1222 C 0.57659 0.44667 0.43116 0.0
C1223 C 0.55618 0.46534 0.4493 0.0
C1224 C 0.54471 0.49312 0.43927 0.0
C1225 C 0.55389 0.50211 0.41105 0.0
C1226 C 0.5734 0.48419 0.39284 0.0
C1227 C 0.58072 0.49941 0.3639 0.0
C1228 C 0.61723 0.50406 0.36051 0.0
C1229 C 0.56705 0.48177 0.33711 0.0
C1230 C 0.56254 0.52884 0.36877 0.0
C1231 C 0.54701 0.52992 0.396 0.0
C1232 C 0.52856 0.55485 0.40527 0.0
C1233 C 0.52578 0.57918 0.38614 0.0
C1234 C 0.54158 0.57859 0.35814 0.0
C1235 C 0.56027 0.55299 0.34956 0.0
H1236 H 0.42264 0.34872 0.18668 0.0
H1237 H 0.32645 0.32871 0.21774 0.0
H1238 H 0.34597 0.27826 0.23155 0.0
H1239 H 0.44338 0.27626 0.15665 0.0
H1240 H 0.48495 0.27785 0.16859 0.0
H1241 H 0.46281 0.31173 0.16028 0.0
H1242 H 0.47596 0.33319 0.21296 0.0
H1243 H 0.49818 0.2994 0.22141 0.0
H1244 H 0.46557 0.31232 0.24531 0.0
H1245 H 0.37714 0.22927 0.24212 0.0
H1246 H 0.41709 0.18779 0.24922 0.0
H1247 H 0.49234 0.24244 0.21382 0.0
C1248 C 0.40562 0.33395 0.19667 0.0
C1249 C 0.37298 0.34284 0.20114 0.0
C1250 C 0.35149 0.32238 0.21371 0.0
C1251 C 0.3624 0.2937 0.22179 0.0
C1252 C 0.39486 0.28585 0.21724 0.0
C1253 C 0.4161 0.30551 0.20503 0.0
C1254 C 0.44989 0.29216 0.20283 0.0
C1255 C 0.46089 0.28933 0.17015 0.0
C1256 C 0.4738 0.31035 0.22176 0.0
C1257 C 0.44452 0.26192 0.21587 0.0
C1258 C 0.41264 0.25842 0.22389 0.0
C1259 C 0.40218 0.2319 0.23603 0.0
C1260 C 0.42499 0.2085 0.2401 0.0
C1261 C 0.45778 0.21205 0.23239 0.0
C1262 C 0.46745 0.2391 0.2201 0.0
H1263 H 0.93679 0.31344 0.81152 0.0
H1264 H 0.96398 0.35031 0.898 0.0
H1265 H 0.93801 0.30837 0.9225 0.0
H1266 H 0.8589 0.28334 0.83377 0.0
H1267 H 0.8639 0.25026 0.81051 0.0
H1268 H 0.88202 0.28459 0.79985 0.0
H1269 H 0.93803 0.25763 0.79686 0.0
H1270 H 0.92016 0.22329 0.80764 0.0
H1271 H 0.95338 0.23817 0.82885 0.0
H1272 H 0.91123 0.26149 0.9376 0.0
H1273 H 0.88726 0.21192 0.94223 0.0
H1274 H 0.87881 0.20439 0.84597 0.0
C1275 C 0.93675 0.31297 0.83564 0.0
C1276 C 0.95216 0.33531 0.85287 0.0
C1277 C 0.95224 0.33352 0.88434 0.0
C1278 C 0.93747 0.30982 0.89847 0.0
C1279 C 0.92291 0.28794 0.88084 0.0
C1280 C 0.92248 0.28923 0.8501 0.0
C1281 C 0.90699 0.26185 0.83631 0.0
C1282 C 0.87612 0.27054 0.8191 0.0
C1283 C 0.93109 0.2442 0.81624 0.0
C1284 C 0.89916 0.2448 0.86408 0.0
C1285 C 0.90819 0.26044 0.88952 0.0
C1286 C 0.90386 0.24912 0.91784 0.0
C1287 C 0.89008 0.221 0.92025 0.0
C1288 C 0.88102 0.20431 0.89449 0.0
C1289 C 0.8856 0.21654 0.86606 0.0
H1290 H 0.05683 0.64609 0.16044 0.0
H1291 H 0.08862 0.60608 0.07631 0.0
H1292 H 0.04753 0.63679 0.04979 0.0
H1293 H 0.97158 0.64971 0.14319 0.0
H1294 H 0.96527 0.68494 0.16269 0.0
H1295 H 0.99675 0.65941 0.17463 0.0
H1296 H 0.03908 0.70071 0.16939 0.0
H1297 H 1.00775 0.72637 0.15757 0.0
H1298 H 0.04272 0.71929 0.13439 0.0
H1299 H 1.0024 0.67288 0.03274 0.0
H1300 H 0.96004 0.71249 0.02686 0.0
H1301 H 0.95857 0.72725 0.12266 0.0
C1302 C 0.05494 0.64343 0.13646 0.0
C1303 C 0.07577 0.62349 0.12047 0.0
C1304 C 0.07301 0.62132 0.08901 0.0
C1305 C 0.04961 0.63851 0.07381 0.0
C1306 C 0.02924 0.65775 0.0904 0.0
C1307 C 0.03187 0.6603 0.12105 0.0
C1308 C 1.00793 0.68308 0.13386 0.0
C1309 C 0.98396 0.6684 0.15483 0.0
C1310 C 0.02542 0.70889 0.14973 0.0
C1311 C 0.99145 0.69322 0.10565 0.0
C1312 C 1.00382 0.67832 0.08074 0.0
C1313 C 0.99257 0.68461 0.05214 0.0
C1314 C 0.96851 0.70707 0.04899 0.0
C1315 C 0.95618 0.72289 0.07432 0.0
C1316 C 0.96753 0.71547 0.10291 0.0
H1317 H 0.63348 0.84757 0.34101 0.0
H1318 H 0.70484 0.80562 0.39828 0.0
H1319 H 0.68702 0.75576 0.38061 0.0
H1320 H 0.5718 0.7997 0.35476 0.0
H1321 H 0.55553 0.79993 0.31746 0.0
H1322 H 0.57745 0.8314 0.33145 0.0
H1323 H 0.61657 0.82632 0.28645 0.0
H1324 H 0.59479 0.79458 0.27244 0.0
H1325 H 0.6377 0.7913 0.27909 0.0
H1326 H 0.65536 0.7101 0.361 0.0
H1327 H 0.61309 0.67532 0.34311 0.0
H1328 H 0.56428 0.74835 0.29864 0.0
C1329 C 0.64571 0.82791 0.34956 0.0
C1330 C 0.67047 0.8305 0.37112 0.0
C1331 C 0.68598 0.80419 0.38157 0.0
C1332 C 0.67598 0.77577 0.37164 0.0
C1333 C 0.65083 0.77404 0.35086 0.0
C1334 C 0.63619 0.79959 0.3398 0.0
C1335 C 0.60809 0.79226 0.31958 0.0
C1336 C 0.57636 0.80666 0.33154 0.0
C1337 C 0.6147 0.80167 0.28749 0.0
C1338 C 0.60819 0.75866 0.32183 0.0
C1339 C 0.63322 0.74826 0.33954 0.0
C1340 C 0.63609 0.71802 0.34664 0.0
C1341 C 0.61215 0.69833 0.33625 0.0
C1342 C 0.58569 0.70918 0.3193 0.0
C1343 C 0.58455 0.73941 0.31123 0.0
H1344 H 0.51732 0.30343 0.57797 0.0
H1345 H 0.60074 0.35973 0.57207 0.0
H1346 H 0.56818 0.40252 0.59262 0.0
H1347 H 0.45589 0.36089 0.55941 0.0
H1348 H 0.42713 0.34652 0.5852 0.0
H1349 H 0.45635 0.32165 0.56738 0.0
H1350 H 0.47571 0.30402 0.61921 0.0
H1351 H 0.44694 0.32912 0.63721 0.0
H1352 H 0.48927 0.33117 0.64642 0.0
H1353 H 0.52731 0.43773 0.61839 0.0
H1354 H 0.4812 0.463 0.64419 0.0
H1355 H 0.42482 0.38319 0.63182 0.0
C1356 C 0.52858 0.32491 0.58047 0.0
C1357 C 0.56147 0.32838 0.57346 0.0
C1358 C 0.57547 0.35673 0.57719 0.0
C1359 C 0.5572 0.38108 0.58892 0.0
C1360 C 0.525 0.37664 0.59651 0.0
C1361 C 0.51075 0.34932 0.59206 0.0
C1362 C 0.47624 0.34985 0.6031 0.0
C1363 C 0.4525 0.34442 0.57723 0.0
C1364 C 0.47181 0.3272 0.62796 0.0
C1365 C 0.47339 0.38157 0.6151 0.0
C1366 C 0.50165 0.39677 0.61104 0.0
C1367 C 0.50494 0.42613 0.62131 0.0
C1368 C 0.47857 0.44032 0.6359 0.0
C1369 C 0.44929 0.42514 0.64013 0.0
C1370 C 0.4469 0.39538 0.62941 0.0
H1371 H 0.12183 0.70914 0.69151 0.0
H1372 H 0.21646 0.7484 0.69911 0.0
H1373 H 0.19143 0.79422 0.72135 0.0
H1374 H 0.08034 0.77414 0.66892 0.0
H1375 H 0.04389 0.76693 0.68917 0.0
H1376 H 0.06967 0.73633 0.67662 0.0
H1377 H 0.07401 0.71754 0.73073 0.0
H1378 H 0.04824 0.74817 0.74346 0.0
H1379 H 0.0876 0.74248 0.75999 0.0
H1380 H 0.15524 0.83753 0.73921 0.0
H1381 H 0.11093 0.8742 0.75052 0.0
H1382 H 0.04055 0.80631 0.731 0.0
C1383 C 0.13736 0.7273 0.69793 0.0
C1384 C 0.17116 0.72506 0.69359 0.0
C1385 C 0.19057 0.74933 0.7026 0.0
C1386 C 0.17656 0.77553 0.71516 0.0
C1387 C 0.14311 0.7771 0.71876 0.0
C1388 C 0.1238 0.75355 0.71049 0.0
C1389 C 0.08838 0.76129 0.7153 0.0
C1390 C 0.06947 0.75958 0.68574 0.0
C1391 C 0.0737 0.74117 0.73877 0.0
C1392 C 0.09066 0.79314 0.72685 0.0
C1393 C 0.12242 0.80185 0.729 0.0
C1394 C 0.13031 0.83082 0.73789 0.0
C1395 C 0.10505 0.85149 0.74432 0.0
C1396 C 0.07242 0.84301 0.74175 0.0
C1397 C 0.0653 0.81335 0.73336 0.0
H1398 H 0.48417 0.81259 0.97104 0.0
H1399 H 0.43926 0.87634 0.03347 0.0
H1400 H 0.48014 0.91311 0.02126 0.0
H1401 H 0.56649 0.83221 0.98665 0.0
H1402 H 0.57958 0.82776 0.9485 0.0
H1403 H 0.54665 0.8062 0.9619 0.0
H1404 H 0.5098 0.82624 0.91972 0.0
H1405 H 0.54264 0.84776 0.90611 0.0
H1406 H 0.50459 0.86597 0.9155 0.0
H1407 H 0.52605 0.94312 1.00272 0.0
H1408 H 0.57253 0.96488 0.97753 0.0
H1409 H 0.58837 0.88185 0.92741 0.0
C1410 C 0.48281 0.8343 0.98209 0.0
C1411 C 0.45833 0.84143 1.00326 0.0
C1412 C 0.45762 0.87018 1.01716 0.0
C1413 C 0.48083 0.89129 1.01043 0.0
C1414 C 0.50471 0.88346 0.9897 0.0
C1415 C 0.50583 0.85573 0.97562 0.0
C1416 C 0.53402 0.85313 0.95408 0.0
C1417 C 0.55811 0.82835 0.96335 0.0
C1418 C 0.52204 0.84797 0.92195 0.0
C1419 C 0.54844 0.88376 0.95818 0.0
C1420 C 0.53123 0.90083 0.97895 0.0
C1421 C 0.53979 0.92992 0.98648 0.0
C1422 C 0.56645 0.94201 0.97221 0.0
C1423 C 0.58434 0.92512 0.95054 0.0
C1424 C 0.57514 0.89549 0.94368 0.0
H1425 H 0.93853 0.16884 0.43792 0.0
H1426 H 0.93342 0.10319 0.5074 0.0
H1427 H 0.97892 0.12685 0.53344 0.0
H1428 H 0.02428 0.17459 0.43665 0.0
H1429 H 0.02397 0.21432 0.43127 0.0
H1430 H 0.99072 0.19249 0.41789 0.0
H1431 H 0.95064 0.22629 0.44828 0.0
H1432 H 0.98375 0.24833 0.46163 0.0
H1433 H 0.95692 0.23173 0.48777 0.0
H1434 H 0.02639 0.15631 0.55123 0.0
H1435 H 0.07055 0.19113 0.56095 0.0
H1436 H 0.04376 0.23973 0.48162 0.0
C1437 C 0.94657 0.15963 0.45883 0.0
C1438 C 0.93228 0.13379 0.47031 0.0
C1439 C 0.94415 0.12245 0.49762 0.0
C1440 C 0.96994 0.1359 0.51277 0.0
C1441 C 0.98363 0.16098 0.50063 0.0
C1442 C 0.97221 0.17295 0.47443 0.0
C1443 C 0.99132 0.20015 0.46629 0.0
C1444 C 1.00859 0.19507 0.43624 0.0
C1445 C 0.96934 0.22829 0.46598 0.0
C1446 C 0.01538 0.20146 0.4919 0.0
C1447 C 1.01056 0.17852 0.51135 0.0
C1448 C 0.03023 0.17446 0.53625 0.0
C1449 C 0.05541 0.19437 0.54151 0.0
C1450 C 0.06075 0.21833 0.52214 0.0
C1451 C 0.04026 0.22184 0.49702 0.0
loop_
_geom_bond_atom_site_label_1
_geom_bond_atom_site_label_2
_geom_bond_distance
_geom_bond_site_symmetry_2
_ccdc_geom_bond_type
Tb0 C2 2.809 . S
Tb0 O20 2.484 . S
Tb0 O21 2.440 . S
Tb0 O22 2.658 . S
Tb0 O23 2.409 . S
Tb0 O24 2.378 . S
Tb0 O28 2.325 . S
Tb0 O31 2.341 . S
Tb1 C11 2.809 . S
Tb1 O22 2.325 . S
Tb1 O25 2.341 . S
Tb1 O26 2.484 . S
Tb1 O27 2.440 . S
Tb1 O28 2.658 . S
Tb1 O29 2.409 . S
Tb1 O30 2.378 . S
C2 Tb0 2.809 . S
C2 C3 1.514 . S
C2 O20 1.248 . S
C2 O21 1.266 . S
C3 C2 1.514 . S
C3 C4 1.359 . S
C3 C8 1.348 . S
C4 C3 1.359 . S
C4 C5 1.380 . S
C4 H32 0.929 . S
C5 C4 1.380 . S
C5 C6 1.347 . S
C5 H33 0.931 . S
C6 C5 1.347 . S
C6 C7 1.369 . S
C7 C6 1.369 . S
C7 C8 1.408 . S
C7 H34 0.930 . S
C8 C3 1.348 . S
C8 C7 1.408 . S
C8 H35 0.930 . S
C9 O22 1.281 . S
C9 O23 1.254 . S
C10 O24 1.236 . S
C10 O25 1.266 . S
C11 Tb1 2.809 . S
C11 C12 1.514 . S
C11 O26 1.248 . S
C11 O27 1.266 . S
C12 C11 1.514 . S
C12 C13 1.359 . S
C12 C17 1.348 . S
C13 C12 1.359 . S
C13 C14 1.380 . S
C13 H36 0.929 . S
C14 C13 1.380 . S
C14 C15 1.347 . S
C14 H37 0.931 . S
C15 C14 1.347 . S
C15 C16 1.369 . S
C16 C15 1.369 . S
C16 C17 1.408 . S
C16 H38 0.930 . S
C17 C12 1.348 . S
C17 C16 1.408 . S
C17 H39 0.930 . S
C18 O28 1.281 . S
C18 O29 1.254 . S
C19 O30 1.236 . S
C19 O31 1.266 . S
O20 Tb0 2.484 . S
O20 C2 1.248 . S
O21 Tb0 2.440 . S
O21 C2 1.266 . S
O22 Tb0 2.658 . S
O22 Tb1 2.325 . S
O22 C9 1.281 . S
O23 Tb0 2.409 . S
O23 C9 1.254 . S
O24 Tb0 2.378 . S
O24 C10 1.236 . S
O25 Tb1 2.341 . S
O25 C10 1.266 . S
O26 Tb1 2.484 . S
O26 C11 1.248 . S
O27 Tb1 2.440 . S
O27 C11 1.266 . S
O28 Tb0 2.325 . S
O28 Tb1 2.658 . S
O28 C18 1.281 . S
O29 Tb1 2.409 . S
O29 C18 1.254 . S
O30 Tb1 2.378 . S
O30 C19 1.236 . S
O31 Tb0 2.341 . S
O31 C19 1.266 . S
H32 C4 0.929 . S
H33 C5 0.931 . S
H34 C7 0.930 . S
H35 C8 0.930 . S
H36 C13 0.929 . S
H37 C14 0.931 . S
H38 C16 0.930 . S
H39 C17 0.930 . S
Tb40 C42 2.809 . S
Tb40 O60 2.484 . S
Tb40 O61 2.440 . S
Tb40 O62 2.658 1_655 S
Tb40 O63 2.409 1_655 S
Tb40 O64 2.378 1_655 S
Tb40 O68 2.325 . S
Tb40 O71 2.341 . S
Tb41 C51 2.809 . S
Tb41 O62 2.325 . S
Tb41 O65 2.341 . S
Tb41 O66 2.484 . S
Tb41 O67 2.440 . S
Tb41 O68 2.658 1_455 S
Tb41 O69 2.409 1_455 S
Tb41 O70 2.378 1_455 S
C42 Tb40 2.809 . S
C42 C43 1.514 . S
C42 O60 1.248 . S
C42 O61 1.266 . S
C43 C42 1.514 . S
C43 C44 1.359 . S
C43 C48 1.348 . S
C44 C43 1.359 . S
C44 C45 1.380 . S
C44 H72 0.929 . S
C45 C44 1.380 . S
C45 C46 1.347 . S
C45 H73 0.931 . S
C46 C45 1.347 . S
C46 C47 1.369 . S
C47 C46 1.369 . S
C47 C48 1.408 . S
C47 H74 0.930 . S
C48 C43 1.348 . S
C48 C47 1.408 . S
C48 H75 0.930 . S
C49 O62 1.281 . S
C49 O63 1.254 . S
C50 O64 1.236 . S
C50 O65 1.266 . S
C51 Tb41 2.809 . S
C51 C52 1.514 . S
C51 O66 1.248 . S
C51 O67 1.266 . S
C52 C51 1.514 . S
C52 C53 1.359 . S
C52 C57 1.348 . S
C53 C52 1.359 . S
C53 C54 1.380 . S
C53 H76 0.929 . S
C54 C53 1.380 . S
C54 C55 1.347 . S
C54 H77 0.931 . S
C55 C54 1.347 . S
C55 C56 1.369 . S
C56 C55 1.369 . S
C56 C57 1.408 . S
C56 H78 0.930 . S
C57 C52 1.348 . S
C57 C56 1.408 . S
C57 H79 0.930 . S
C58 O68 1.281 . S
C58 O69 1.254 . S
C59 O70 1.236 . S
C59 O71 1.266 . S
O60 Tb40 2.484 . S
O60 C42 1.248 . S
O61 Tb40 2.440 . S
O61 C42 1.266 . S
O62 Tb40 2.658 1_455 S
O62 Tb41 2.325 . S
O62 C49 1.281 . S
O63 Tb40 2.409 1_455 S
O63 C49 1.254 . S
O64 Tb40 2.378 1_455 S
O64 C50 1.236 . S
O65 Tb41 2.341 . S
O65 C50 1.266 . S
O66 Tb41 2.484 . S
O66 C51 1.248 . S
O67 Tb41 2.440 . S
O67 C51 1.266 . S
O68 Tb40 2.325 . S
O68 Tb41 2.658 1_655 S
O68 C58 1.281 . S
O69 Tb41 2.409 1_655 S
O69 C58 1.254 . S
O70 Tb41 2.378 1_655 S
O70 C59 1.236 . S
O71 Tb40 2.341 . S
O71 C59 1.266 . S
H72 C44 0.929 . S
H73 C45 0.931 . S
H74 C47 0.930 . S
H75 C48 0.930 . S
H76 C53 0.929 . S
H77 C54 0.931 . S
H78 C56 0.930 . S
H79 C57 0.930 . S
Tb80 C82 2.809 . S
Tb80 O100 2.484 . S
Tb80 O101 2.440 . S
Tb80 O102 2.658 1_554 S
Tb80 O103 2.409 1_554 S
Tb80 O104 2.378 1_554 S
Tb80 O108 2.325 . S
Tb80 O111 2.341 . S
Tb81 C91 2.809 . S
Tb81 O102 2.325 . S
Tb81 O105 2.341 . S
Tb81 O106 2.484 . S
Tb81 O107 2.440 . S
Tb81 O108 2.658 1_556 S
Tb81 O109 2.409 1_556 S
Tb81 O110 2.382 . S
C82 Tb80 2.809 . S
C82 C83 1.514 . S
C82 O100 1.248 . S
C82 O101 1.266 . S
C83 C82 1.514 . S
C83 C84 1.359 . S
C83 C88 1.348 . S
C84 C83 1.359 . S
C84 C85 1.380 . S
C84 H112 0.929 . S
C85 C84 1.380 . S
C85 C86 1.347 . S
C85 H113 0.931 . S
C86 C85 1.347 . S
C86 C87 1.369 . S
C87 C86 1.369 . S
C87 C88 1.408 . S
C87 H114 0.930 . S
C88 C83 1.348 . S
C88 C87 1.408 . S
C88 H115 0.930 . S
C89 O102 1.281 . S
C89 O103 1.254 . S
C90 O104 1.236 . S
C90 O105 1.266 . S
C91 Tb81 2.809 . S
C91 C92 1.514 . S
C91 O106 1.248 . S
C91 O107 1.266 . S
C92 C91 1.514 . S
C92 C93 1.359 . S
C92 C97 1.348 . S
C93 C92 1.359 . S
C93 C94 1.380 . S
C93 H116 0.929 . S
C94 C93 1.380 . S
C94 C95 1.347 . S
C94 H117 0.931 . S
C95 C94 1.347 . S
C95 C96 1.369 . S
C96 C95 1.369 . S
C96 C97 1.408 . S
C96 H118 0.930 . S
C97 C92 1.348 . S
C97 C96 1.408 . S
C97 H119 0.930 . S
C98 O108 1.281 . S
C98 O109 1.254 . S
C99 O110 1.233 1_554 S
C99 O111 1.266 . S
O100 Tb80 2.484 . S
O100 C82 1.248 . S
O101 Tb80 2.440 . S
O101 C82 1.266 . S
O102 Tb80 2.658 1_556 S
O102 Tb81 2.325 . S
O102 C89 1.281 . S
O103 Tb80 2.409 1_556 S
O103 C89 1.254 . S
O104 Tb80 2.378 1_556 S
O104 C90 1.236 . S
O105 Tb81 2.341 . S
O105 C90 1.266 . S
O106 Tb81 2.484 . S
O106 C91 1.248 . S
O107 Tb81 2.440 . S
O107 C91 1.266 . S
O108 Tb80 2.325 . S
O108 Tb81 2.658 1_554 S
O108 C98 1.281 . S
O109 Tb81 2.409 1_554 S
O109 C98 1.254 . S
O110 Tb81 2.382 . S
O110 C99 1.233 1_556 S
O111 Tb80 2.341 . S
O111 C99 1.266 . S
H112 C84 0.929 . S
H113 C85 0.931 . S
H114 C87 0.930 . S
H115 C88 0.930 . S
H116 C93 0.929 . S
H117 C94 0.931 . S
H118 C96 0.930 . S
H119 C97 0.930 . S
Tb120 C122 2.809 . S
Tb120 O140 2.484 . S
Tb120 O141 2.440 . S
Tb120 O142 2.658 . S
Tb120 O143 2.409 . S
Tb120 O144 2.378 . S
Tb120 O148 2.325 . S
Tb120 O151 2.341 . S
Tb121 C131 2.809 . S
Tb121 O142 2.325 . S
Tb121 O145 2.341 . S
Tb121 O146 2.484 . S
Tb121 O147 2.440 . S
Tb121 O148 2.658 . S
Tb121 O149 2.409 . S
Tb121 O150 2.378 . S
C122 Tb120 2.809 . S
C122 C123 1.514 . S
C122 O140 1.248 . S
C122 O141 1.266 . S
C123 C122 1.514 . S
C123 C124 1.359 . S
C123 C128 1.348 . S
C124 C123 1.359 . S
C124 C125 1.380 . S
C124 H152 0.929 . S
C125 C124 1.380 . S
C125 C126 1.347 . S
C125 H153 0.931 . S
C126 C125 1.347 . S
C126 C127 1.369 . S
C127 C126 1.369 . S
C127 C128 1.408 . S
C127 H154 0.930 . S
C128 C123 1.348 . S
C128 C127 1.408 . S
C128 H155 0.930 . S
C129 O142 1.281 . S
C129 O143 1.254 . S
C130 O144 1.236 . S
C130 O145 1.266 . S
C131 Tb121 2.809 . S
C131 C132 1.514 . S
C131 O146 1.248 . S
C131 O147 1.266 . S
C132 C131 1.514 . S
C132 C133 1.359 . S
C132 C137 1.348 . S
C133 C132 1.359 . S
C133 C134 1.380 . S
C133 H156 0.929 . S
C134 C133 1.380 . S
C134 C135 1.347 . S
C134 H157 0.931 . S
C135 C134 1.347 . S
C135 C136 1.369 . S
C136 C135 1.369 . S
C136 C137 1.408 . S
C136 H158 0.930 . S
C137 C132 1.348 . S
C137 C136 1.408 . S
C137 H159 0.930 . S
C138 O148 1.281 . S
C138 O149 1.254 . S
C139 O150 1.236 . S
C139 O151 1.266 . S
O140 Tb120 2.484 . S
O140 C122 1.248 . S
O141 Tb120 2.440 . S
O141 C122 1.266 . S
O142 Tb120 2.658 . S
O142 Tb121 2.325 . S
O142 C129 1.281 . S
O143 Tb120 2.409 . S
O143 C129 1.254 . S
O144 Tb120 2.378 . S
O144 C130 1.236 . S
O145 Tb121 2.341 . S
O145 C130 1.266 . S
O146 Tb121 2.484 . S
O146 C131 1.248 . S
O147 Tb121 2.440 . S
O147 C131 1.266 . S
O148 Tb120 2.325 . S
O148 Tb121 2.658 . S
O148 C138 1.281 . S
O149 Tb121 2.409 . S
O149 C138 1.254 . S
O150 Tb121 2.378 . S
O150 C139 1.236 . S
O151 Tb120 2.341 . S
O151 C139 1.266 . S
H152 C124 0.929 . S
H153 C125 0.931 . S
H154 C127 0.930 . S
H155 C128 0.930 . S
H156 C133 0.929 . S
H157 C134 0.931 . S
H158 C136 0.930 . S
H159 C137 0.930 . S
Tb160 C162 2.809 . S
Tb160 O180 2.484 . S
Tb160 O181 2.440 . S
Tb160 O182 2.658 . S
Tb160 O183 2.409 . S
Tb160 O184 2.378 . S
Tb160 O188 2.325 . S
Tb160 O191 2.341 . S
Tb161 C171 2.809 . S
Tb161 O182 2.325 . S
Tb161 O185 2.341 . S
Tb161 O186 2.484 . S
Tb161 O187 2.440 . S
Tb161 O188 2.658 . S
Tb161 O189 2.409 . S
Tb161 O190 2.378 . S
C162 Tb160 2.809 . S
C162 C163 1.514 . S
C162 O180 1.248 . S
C162 O181 1.266 . S
C163 C162 1.514 . S
C163 C164 1.359 . S
C163 C168 1.348 . S
C164 C163 1.359 . S
C164 C165 1.380 . S
C164 H192 0.929 . S
C165 C164 1.380 . S
C165 C166 1.347 . S
C165 H193 0.931 . S
C166 C165 1.347 . S
C166 C167 1.369 . S
C167 C166 1.369 . S
C167 C168 1.408 . S
C167 H194 0.930 . S
C168 C163 1.348 . S
C168 C167 1.408 . S
C168 H195 0.930 . S
C169 O182 1.281 . S
C169 O183 1.254 . S
C170 O184 1.236 . S
C170 O185 1.266 . S
C171 Tb161 2.809 . S
C171 C172 1.514 . S
C171 O186 1.248 . S
C171 O187 1.266 . S
C172 C171 1.514 . S
C172 C173 1.359 . S
C172 C177 1.348 . S
C173 C172 1.359 . S
C173 C174 1.380 . S
C173 H196 0.929 . S
C174 C173 1.380 . S
C174 C175 1.347 . S
C174 H197 0.931 . S
C175 C174 1.347 . S
C175 C176 1.369 . S
C176 C175 1.369 . S
C176 C177 1.408 . S
C176 H198 0.930 . S
C177 C172 1.348 . S
C177 C176 1.408 . S
C177 H199 0.930 . S
C178 O188 1.281 . S
C178 O189 1.254 . S
C179 O190 1.236 . S
C179 O191 1.266 . S
O180 Tb160 2.484 . S
O180 C162 1.248 . S
O181 Tb160 2.440 . S
O181 C162 1.266 . S
O182 Tb160 2.658 . S
O182 Tb161 2.325 . S
O182 C169 1.281 . S
O183 Tb160 2.409 . S
O183 C169 1.254 . S
O184 Tb160 2.378 . S
O184 C170 1.236 . S
O185 Tb161 2.341 . S
O185 C170 1.266 . S
O186 Tb161 2.484 . S
O186 C171 1.248 . S
O187 Tb161 2.440 . S
O187 C171 1.266 . S
O188 Tb160 2.325 . S
O188 Tb161 2.658 . S
O188 C178 1.281 . S
O189 Tb161 2.409 . S
O189 C178 1.254 . S
O190 Tb161 2.378 . S
O190 C179 1.236 . S
O191 Tb160 2.341 . S
O191 C179 1.266 . S
H192 C164 0.929 . S
H193 C165 0.931 . S
H194 C167 0.930 . S
H195 C168 0.930 . S
H196 C173 0.929 . S
H197 C174 0.931 . S
H198 C176 0.930 . S
H199 C177 0.930 . S
Tb200 C202 2.809 . S
Tb200 O220 2.484 . S
Tb200 O221 2.440 . S
Tb200 O222 2.658 . S
Tb200 O223 2.409 . S
Tb200 O224 2.378 . S
Tb200 O228 2.325 1_655 S
Tb200 O231 2.341 1_655 S
Tb201 C211 2.809 . S
Tb201 O222 2.325 1_455 S
Tb201 O225 2.341 1_455 S
Tb201 O226 2.484 . S
Tb201 O227 2.440 . S
Tb201 O228 2.658 . S
Tb201 O229 2.409 . S
Tb201 O230 2.378 . S
C202 Tb200 2.809 . S
C202 C203 1.514 . S
C202 O220 1.248 . S
C202 O221 1.266 . S
C203 C202 1.514 . S
C203 C204 1.359 . S
C203 C208 1.348 . S
C204 C203 1.359 . S
C204 C205 1.380 . S
C204 H232 0.929 . S
C205 C204 1.380 . S
C205 C206 1.347 . S
C205 H233 0.931 . S
C206 C205 1.347 . S
C206 C207 1.369 . S
C207 C206 1.369 . S
C207 C208 1.408 . S
C207 H234 0.930 . S
C208 C203 1.348 . S
C208 C207 1.408 . S
C208 H235 0.930 . S
C209 O222 1.281 . S
C209 O223 1.254 . S
C210 O224 1.236 . S
C210 O225 1.266 . S
C211 Tb201 2.809 . S
C211 C212 1.514 . S
C211 O226 1.248 . S
C211 O227 1.266 . S
C212 C211 1.514 . S
C212 C213 1.359 . S
C212 C217 1.348 . S
C213 C212 1.359 . S
C213 C214 1.380 . S
C213 H236 0.929 . S
C214 C213 1.380 . S
C214 C215 1.347 . S
C214 H237 0.931 . S
C215 C214 1.347 . S
C215 C216 1.369 . S
C216 C215 1.369 . S
C216 C217 1.408 . S
C216 H238 0.930 . S
C217 C212 1.348 . S
C217 C216 1.408 . S
C217 H239 0.930 . S
C218 O228 1.281 . S
C218 O229 1.254 . S
C219 O230 1.236 . S
C219 O231 1.266 . S
O220 Tb200 2.484 . S
O220 C202 1.248 . S
O221 Tb200 2.440 . S
O221 C202 1.266 . S
O222 Tb200 2.658 . S
O222 Tb201 2.325 1_655 S
O222 C209 1.281 . S
O223 Tb200 2.409 . S
O223 C209 1.254 . S
O224 Tb200 2.378 . S
O224 C210 1.236 . S
O225 Tb201 2.341 1_655 S
O225 C210 1.266 . S
O226 Tb201 2.484 . S
O226 C211 1.248 . S
O227 Tb201 2.440 . S
O227 C211 1.266 . S
O228 Tb200 2.325 1_455 S
O228 Tb201 2.658 . S
O228 C218 1.281 . S
O229 Tb201 2.409 . S
O229 C218 1.254 . S
O230 Tb201 2.378 . S
O230 C219 1.236 . S
O231 Tb200 2.341 1_455 S
O231 C219 1.266 . S
H232 C204 0.929 . S
H233 C205 0.931 . S
H234 C207 0.930 . S
H235 C208 0.930 . S
H236 C213 0.929 . S
H237 C214 0.931 . S
H238 C216 0.930 . S
H239 C217 0.930 . S
Tb240 C242 2.809 . S
Tb240 O260 2.484 . S
Tb240 O261 2.440 . S
Tb240 O262 2.658 . S
Tb240 O263 2.409 . S
Tb240 O264 2.378 . S
Tb240 O268 2.325 . S
Tb240 O271 2.341 1_554 S
Tb241 C251 2.809 . S
Tb241 O262 2.325 1_556 S
Tb241 O265 2.341 1_556 S
Tb241 O266 2.484 . S
Tb241 O267 2.440 . S
Tb241 O268 2.658 1_556 S
Tb241 O269 2.409 . S
Tb241 O270 2.378 . S
C242 Tb240 2.809 . S
C242 C243 1.514 . S
C242 O260 1.248 . S
C242 O261 1.266 . S
C243 C242 1.514 . S
C243 C244 1.359 . S
C243 C248 1.348 . S
C244 C243 1.359 . S
C244 C245 1.380 . S
C244 H272 0.929 . S
C245 C244 1.380 . S
C245 C246 1.347 . S
C245 H273 0.931 . S
C246 C245 1.347 . S
C246 C247 1.369 . S
C247 C246 1.369 . S
C247 C248 1.408 . S
C247 H274 0.930 . S
C248 C243 1.348 . S
C248 C247 1.408 . S
C248 H275 0.930 . S
C249 O262 1.281 . S
C249 O263 1.254 . S
C250 O264 1.236 . S
C250 O265 1.266 . S
C251 Tb241 2.809 . S
C251 C252 1.514 . S
C251 O266 1.248 . S
C251 O267 1.266 . S
C252 C251 1.514 . S
C252 C253 1.359 . S
C252 C257 1.348 . S
C253 C252 1.359 . S
C253 C254 1.380 . S
C253 H276 0.929 . S
C254 C253 1.380 . S
C254 C255 1.347 . S
C254 H277 0.931 . S
C255 C254 1.347 . S
C255 C256 1.369 . S
C256 C255 1.369 . S
C256 C257 1.408 . S
C256 H278 0.930 . S
C257 C252 1.348 . S
C257 C256 1.408 . S
C257 H279 0.930 . S
C258 O268 1.281 1_556 S
C258 O269 1.254 . S
C259 O270 1.236 . S
C259 O271 1.266 . S
O260 Tb240 2.484 . S
O260 C242 1.248 . S
O261 Tb240 2.440 . S
O261 C242 1.266 . S
O262 Tb240 2.658 . S
O262 Tb241 2.325 1_554 S
O262 C249 1.281 . S
O263 Tb240 2.409 . S
O263 C249 1.254 . S
O264 Tb240 2.378 . S
O264 C250 1.236 . S
O265 Tb241 2.341 1_554 S
O265 C250 1.266 . S
O266 Tb241 2.484 . S
O266 C251 1.248 . S
O267 Tb241 2.440 . S
O267 C251 1.266 . S
O268 Tb240 2.325 . S
O268 Tb241 2.658 1_554 S
O268 C258 1.281 1_554 S
O269 Tb241 2.409 . S
O269 C258 1.254 . S
O270 Tb241 2.378 . S
O270 C259 1.236 . S
O271 Tb240 2.341 1_556 S
O271 C259 1.266 . S
H272 C244 0.929 . S
H273 C245 0.931 . S
H274 C247 0.930 . S
H275 C248 0.930 . S
H276 C253 0.929 . S
H277 C254 0.931 . S
H278 C256 0.930 . S
H279 C257 0.930 . S
Tb280 C282 2.809 . S
Tb280 O300 2.484 . S
Tb280 O301 2.440 . S
Tb280 O302 2.658 . S
Tb280 O303 2.409 . S
Tb280 O304 2.378 . S
Tb280 O308 2.325 . S
Tb280 O311 2.341 . S
Tb281 C291 2.809 . S
Tb281 O302 2.325 . S
Tb281 O305 2.341 . S
Tb281 O306 2.484 . S
Tb281 O307 2.440 . S
Tb281 O308 2.658 . S
Tb281 O309 2.409 . S
Tb281 O310 2.378 . S
C282 Tb280 2.809 . S
C282 C283 1.514 . S
C282 O300 1.248 . S
C282 O301 1.266 . S
C283 C282 1.514 . S
C283 C284 1.359 . S
C283 C288 1.348 . S
C284 C283 1.359 . S
C284 C285 1.380 . S
C284 H312 0.929 . S
C285 C284 1.380 . S
C285 C286 1.347 . S
C285 H313 0.931 . S
C286 C285 1.347 . S
C286 C287 1.369 . S
C287 C286 1.369 . S
C287 C288 1.408 . S
C287 H314 0.930 . S
C288 C283 1.348 . S
C288 C287 1.408 . S
C288 H315 0.930 . S
C289 O302 1.281 . S
C289 O303 1.254 . S
C290 O304 1.236 . S
C290 O305 1.266 . S
C291 Tb281 2.809 . S
C291 C292 1.514 . S
C291 O306 1.248 . S
C291 O307 1.266 . S
C292 C291 1.514 . S
C292 C293 1.359 . S
C292 C297 1.348 . S
C293 C292 1.359 . S
C293 C294 1.380 . S
C293 H316 0.929 . S
C294 C293 1.380 . S
C294 C295 1.347 . S
C294 H317 0.931 . S
C295 C294 1.347 . S
C295 C296 1.369 . S
C296 C295 1.369 . S
C296 C297 1.408 . S
C296 H318 0.930 . S
C297 C292 1.348 . S
C297 C296 1.408 . S
C297 H319 0.930 . S
C298 O308 1.281 . S
C298 O309 1.254 . S
C299 O310 1.236 . S
C299 O311 1.266 . S
O300 Tb280 2.484 . S
O300 C282 1.248 . S
O301 Tb280 2.440 . S
O301 C282 1.266 . S
O302 Tb280 2.658 . S
O302 Tb281 2.325 . S
O302 C289 1.281 . S
O303 Tb280 2.409 . S
O303 C289 1.254 . S
O304 Tb280 2.378 . S
O304 C290 1.236 . S
O305 Tb281 2.341 . S
O305 C290 1.266 . S
O306 Tb281 2.484 . S
O306 C291 1.248 . S
O307 Tb281 2.440 . S
O307 C291 1.266 . S
O308 Tb280 2.325 . S
O308 Tb281 2.658 . S
O308 C298 1.281 . S
O309 Tb281 2.409 . S
O309 C298 1.254 . S
O310 Tb281 2.378 . S
O310 C299 1.236 . S
O311 Tb280 2.341 . S
O311 C299 1.266 . S
H312 C284 0.929 . S
H313 C285 0.931 . S
H314 C287 0.930 . S
H315 C288 0.930 . S
H316 C293 0.929 . S
H317 C294 0.931 . S
H318 C296 0.930 . S
H319 C297 0.930 . S
Tb320 C322 2.809 . S
Tb320 O340 2.484 . S
Tb320 O341 2.440 . S
Tb320 O342 2.658 . S
Tb320 O343 2.409 . S
Tb320 O344 2.378 . S
Tb320 O348 2.325 . S
Tb320 O351 2.341 . S
Tb321 C331 2.809 . S
Tb321 O342 2.325 . S
Tb321 O345 2.341 . S
Tb321 O346 2.484 . S
Tb321 O347 2.440 . S
Tb321 O348 2.658 . S
Tb321 O349 2.409 . S
Tb321 O350 2.378 . S
C322 Tb320 2.809 . S
C322 C323 1.514 . S
C322 O340 1.248 . S
C322 O341 1.266 . S
C323 C322 1.514 . S
C323 C324 1.359 . S
C323 C328 1.348 . S
C324 C323 1.359 . S
C324 C325 1.380 . S
C324 H352 0.929 . S
C325 C324 1.380 . S
C325 C326 1.347 . S
C325 H353 0.931 . S
C326 C325 1.347 . S
C326 C327 1.369 . S
C327 C326 1.369 . S
C327 C328 1.408 . S
C327 H354 0.930 . S
C328 C323 1.348 . S
C328 C327 1.408 . S
C328 H355 0.930 . S
C329 O342 1.281 . S
C329 O343 1.254 . S
C330 O344 1.236 . S
C330 O345 1.266 . S
C331 Tb321 2.809 . S
C331 C332 1.514 . S
C331 O346 1.248 . S
C331 O347 1.266 . S
C332 C331 1.514 . S
C332 C333 1.359 . S
C332 C337 1.348 . S
C333 C332 1.359 . S
C333 C334 1.380 . S
C333 H356 0.929 . S
C334 C333 1.380 . S
C334 C335 1.347 . S
C334 H357 0.931 . S
C335 C334 1.347 . S
C335 C336 1.369 . S
C336 C335 1.369 . S
C336 C337 1.408 . S
C336 H358 0.930 . S
C337 C332 1.348 . S
C337 C336 1.408 . S
C337 H359 0.930 . S
C338 O348 1.281 . S
C338 O349 1.254 . S
C339 O350 1.236 . S
C339 O351 1.266 . S
O340 Tb320 2.484 . S
O340 C322 1.248 . S
O341 Tb320 2.440 . S
O341 C322 1.266 . S
O342 Tb320 2.658 . S
O342 Tb321 2.325 . S
O342 C329 1.281 . S
O343 Tb320 2.409 . S
O343 C329 1.254 . S
O344 Tb320 2.378 . S
O344 C330 1.236 . S
O345 Tb321 2.341 . S
O345 C330 1.266 . S
O346 Tb321 2.484 . S
O346 C331 1.248 . S
O347 Tb321 2.440 . S
O347 C331 1.266 . S
O348 Tb320 2.325 . S
O348 Tb321 2.658 . S
O348 C338 1.281 . S
O349 Tb321 2.409 . S
O349 C338 1.254 . S
O350 Tb321 2.378 . S
O350 C339 1.236 . S
O351 Tb320 2.341 . S
O351 C339 1.266 . S
H352 C324 0.929 . S
H353 C325 0.931 . S
H354 C327 0.930 . S
H355 C328 0.930 . S
H356 C333 0.929 . S
H357 C334 0.931 . S
H358 C336 0.930 . S
H359 C337 0.930 . S
Tb360 C362 2.809 . S
Tb360 O380 2.484 . S
Tb360 O381 2.440 . S
Tb360 O382 2.658 . S
Tb360 O383 2.409 . S
Tb360 O384 2.378 . S
Tb360 O388 2.325 . S
Tb360 O391 2.341 . S
Tb361 C371 2.781 1_545 S
Tb361 O382 2.345 . S
Tb361 O385 2.372 . S
Tb361 O386 2.467 1_545 S
Tb361 O387 2.408 1_545 S
Tb361 O388 2.670 . S
Tb361 O389 2.397 1_545 S
Tb361 O390 2.361 1_545 S
C362 Tb360 2.809 . S
C362 C363 1.514 . S
C362 O380 1.248 . S
C362 O381 1.266 . S
C363 C362 1.514 . S
C363 C364 1.359 . S
C363 C368 1.348 . S
C364 C363 1.359 . S
C364 C365 1.380 . S
C364 H392 0.929 . S
C365 C364 1.380 . S
C365 C366 1.347 . S
C365 H393 0.931 . S
C366 C365 1.347 . S
C366 C367 1.369 . S
C367 C366 1.369 . S
C367 C368 1.408 . S
C367 H394 0.930 . S
C368 C363 1.348 . S
C368 C367 1.408 . S
C368 H395 0.930 . S
C369 O382 1.281 . S
C369 O383 1.254 . S
C370 O384 1.236 . S
C370 O385 1.266 . S
C371 Tb361 2.781 1_565 S
C371 C372 1.514 . S
C371 O386 1.248 . S
C371 O387 1.266 . S
C372 C371 1.514 . S
C372 C373 1.359 . S
C372 C377 1.348 . S
C373 C372 1.359 . S
C373 C374 1.380 . S
C373 H396 0.929 . S
C374 C373 1.380 . S
C374 C375 1.347 . S
C374 H397 0.931 . S
C375 C374 1.347 . S
C375 C376 1.369 . S
C376 C375 1.369 . S
C376 C377 1.408 . S
C376 H398 0.930 . S
C377 C372 1.348 . S
C377 C376 1.408 . S
C377 H399 0.930 . S
C378 O388 1.281 1_565 S
C378 O389 1.254 . S
C379 O390 1.236 . S
C379 O391 1.266 1_565 S
O380 Tb360 2.484 . S
O380 C362 1.248 . S
O381 Tb360 2.440 . S
O381 C362 1.266 . S
O382 Tb360 2.658 . S
O382 Tb361 2.345 . S
O382 C369 1.281 . S
O383 Tb360 2.409 . S
O383 C369 1.254 . S
O384 Tb360 2.378 . S
O384 C370 1.236 . S
O385 Tb361 2.372 . S
O385 C370 1.266 . S
O386 Tb361 2.467 1_565 S
O386 C371 1.248 . S
O387 Tb361 2.408 1_565 S
O387 C371 1.266 . S
O388 Tb360 2.325 . S
O388 Tb361 2.670 . S
O388 C378 1.281 1_545 S
O389 Tb361 2.397 1_565 S
O389 C378 1.254 . S
O390 Tb361 2.361 1_565 S
O390 C379 1.236 . S
O391 Tb360 2.341 . S
O391 C379 1.266 1_545 S
H392 C364 0.929 . S
H393 C365 0.931 . S
H394 C367 0.930 . S
H395 C368 0.930 . S
H396 C373 0.929 . S
H397 C374 0.931 . S
H398 C376 0.930 . S
H399 C377 0.930 . S
Tb400 C402 2.809 . S
Tb400 O420 2.484 . S
Tb400 O421 2.440 . S
Tb400 O422 2.658 . S
Tb400 O423 2.409 . S
Tb400 O424 2.378 . S
Tb400 O428 2.325 . S
Tb400 O431 2.341 1_565 S
Tb401 C411 2.809 . S
Tb401 O422 2.325 1_545 S
Tb401 O425 2.341 1_545 S
Tb401 O426 2.484 . S
Tb401 O427 2.440 . S
Tb401 O428 2.658 1_545 S
Tb401 O429 2.409 . S
Tb401 O430 2.378 . S
C402 Tb400 2.809 . S
C402 C403 1.514 . S
C402 O420 1.248 . S
C402 O421 1.266 . S
C403 C402 1.514 . S
C403 C404 1.359 . S
C403 C408 1.348 . S
C404 C403 1.359 . S
C404 C405 1.380 . S
C404 H432 0.929 . S
C405 C404 1.380 . S
C405 C406 1.347 . S
C405 H433 0.931 . S
C406 C405 1.347 . S
C406 C407 1.369 . S
C407 C406 1.369 . S
C407 C408 1.408 . S
C407 H434 0.930 . S
C408 C403 1.348 . S
C408 C407 1.408 . S
C408 H435 0.930 . S
C409 O422 1.281 . S
C409 O423 1.254 . S
C410 O424 1.236 . S
C410 O425 1.266 . S
C411 Tb401 2.809 . S
C411 C412 1.514 . S
C411 O426 1.248 . S
C411 O427 1.266 . S
C412 C411 1.514 . S
C412 C413 1.359 . S
C412 C417 1.348 . S
C413 C412 1.359 . S
C413 C414 1.380 . S
C413 H436 0.929 . S
C414 C413 1.380 . S
C414 C415 1.347 . S
C414 H437 0.931 . S
C415 C414 1.347 . S
C415 C416 1.369 . S
C416 C415 1.369 . S
C416 C417 1.408 . S
C416 H438 0.930 . S
C417 C412 1.348 . S
C417 C416 1.408 . S
C417 H439 0.930 . S
C418 O428 1.281 1_545 S
C418 O429 1.254 . S
C419 O430 1.236 . S
C419 O431 1.266 . S
O420 Tb400 2.484 . S
O420 C402 1.248 . S
O421 Tb400 2.440 . S
O421 C402 1.266 . S
O422 Tb400 2.658 . S
O422 Tb401 2.325 1_565 S
O422 C409 1.281 . S
O423 Tb400 2.409 . S
O423 C409 1.254 . S
O424 Tb400 2.378 . S
O424 C410 1.236 . S
O425 Tb401 2.341 1_565 S
O425 C410 1.266 . S
O426 Tb401 2.484 . S
O426 C411 1.248 . S
O427 Tb401 2.440 . S
O427 C411 1.266 . S
O428 Tb400 2.325 . S
O428 Tb401 2.658 1_565 S
O428 C418 1.281 1_565 S
O429 Tb401 2.409 . S
O429 C418 1.254 . S
O430 Tb401 2.378 . S
O430 C419 1.236 . S
O431 Tb400 2.341 1_545 S
O431 C419 1.266 . S
H432 C404 0.929 . S
H433 C405 0.931 . S
H434 C407 0.930 . S
H435 C408 0.930 . S
H436 C413 0.929 . S
H437 C414 0.931 . S
H438 C416 0.930 . S
H439 C417 0.930 . S
Tb440 C442 2.809 . S
Tb440 O460 2.484 . S
Tb440 O461 2.440 . S
Tb440 O462 2.658 . S
Tb440 O463 2.409 . S
Tb440 O464 2.378 . S
Tb440 O468 2.325 . S
Tb440 O471 2.341 . S
Tb441 C451 2.809 . S
Tb441 O462 2.325 . S
Tb441 O465 2.341 . S
Tb441 O466 2.484 . S
Tb441 O467 2.440 . S
Tb441 O468 2.658 . S
Tb441 O469 2.409 . S
Tb441 O470 2.378 . S
C442 Tb440 2.809 . S
C442 C443 1.514 . S
C442 O460 1.248 . S
C442 O461 1.266 . S
C443 C442 1.514 . S
C443 C444 1.359 . S
C443 C448 1.348 . S
C444 C443 1.359 . S
C444 C445 1.380 . S
C444 H472 0.929 . S
C445 C444 1.380 . S
C445 C446 1.347 . S
C445 H473 0.931 . S
C446 C445 1.347 . S
C446 C447 1.369 . S
C447 C446 1.369 . S
C447 C448 1.408 . S
C447 H474 0.930 . S
C448 C443 1.348 . S
C448 C447 1.408 . S
C448 H475 0.930 . S
C449 O462 1.281 . S
C449 O463 1.254 . S
C450 O464 1.236 . S
C450 O465 1.266 . S
C451 Tb441 2.809 . S
C451 C452 1.514 . S
C451 O466 1.248 . S
C451 O467 1.266 . S
C452 C451 1.514 . S
C452 C453 1.359 . S
C452 C457 1.348 . S
C453 C452 1.359 . S
C453 C454 1.380 . S
C453 H476 0.929 . S
C454 C453 1.380 . S
C454 C455 1.347 . S
C454 H477 0.931 . S
C455 C454 1.347 . S
C455 C456 1.369 . S
C456 C455 1.369 . S
C456 C457 1.408 . S
C456 H478 0.930 . S
C457 C452 1.348 . S
C457 C456 1.408 . S
C457 H479 0.930 . S
C458 O468 1.281 . S
C458 O469 1.254 . S
C459 O470 1.236 . S
C459 O471 1.266 . S
O460 Tb440 2.484 . S
O460 C442 1.248 . S
O461 Tb440 2.440 . S
O461 C442 1.266 . S
O462 Tb440 2.658 . S
O462 Tb441 2.325 . S
O462 C449 1.281 . S
O463 Tb440 2.409 . S
O463 C449 1.254 . S
O464 Tb440 2.378 . S
O464 C450 1.236 . S
O465 Tb441 2.341 . S
O465 C450 1.266 . S
O466 Tb441 2.484 . S
O466 C451 1.248 . S
O467 Tb441 2.440 . S
O467 C451 1.266 . S
O468 Tb440 2.325 . S
O468 Tb441 2.658 . S
O468 C458 1.281 . S
O469 Tb441 2.409 . S
O469 C458 1.254 . S
O470 Tb441 2.378 . S
O470 C459 1.236 . S
O471 Tb440 2.341 . S
O471 C459 1.266 . S
H472 C444 0.929 . S
H473 C445 0.931 . S
H474 C447 0.930 . S
H475 C448 0.930 . S
H476 C453 0.929 . S
H477 C454 0.931 . S
H478 C456 0.930 . S
H479 C457 0.930 . S
H480 C492 0.930 . S
H481 C494 0.930 . S
H482 C495 0.930 . S
H483 C499 0.959 . S
H484 C499 0.959 . S
H485 C499 0.961 . S
H486 C500 0.960 . S
H487 C500 0.961 . S
H488 C500 0.959 . S
H489 C503 0.929 . S
H490 C504 0.931 . S
H491 C506 0.930 . S
C492 H480 0.930 . S
C492 C493 1.399 . S
C492 C497 1.399 . S
C493 C492 1.399 . S
C493 C494 1.376 . S
C494 H481 0.930 . S
C494 C493 1.376 . S
C494 C495 1.388 . S
C495 H482 0.930 . S
C495 C494 1.388 . S
C495 C496 1.390 . S
C496 C495 1.390 . S
C496 C497 1.394 . S
C496 C502 1.465 . S
C497 C492 1.399 . S
C497 C496 1.394 . S
C497 C498 1.516 . S
C498 C497 1.516 . S
C498 C499 1.502 . S
C498 C500 1.561 . S
C498 C501 1.526 . S
C499 H483 0.959 . S
C499 H484 0.959 . S
C499 H485 0.961 . S
C499 C498 1.502 . S
C500 H486 0.960 . S
C500 H487 0.961 . S
C500 H488 0.959 . S
C500 C498 1.561 . S
C501 C498 1.526 . S
C501 C502 1.396 . S
C501 C506 1.390 . S
C502 C496 1.465 . S
C502 C501 1.396 . S
C502 C503 1.399 . S
C503 H489 0.929 . S
C503 C502 1.399 . S
C503 C504 1.385 . S
C504 H490 0.931 . S
C504 C503 1.385 . S
C504 C505 1.389 . S
C505 C504 1.389 . S
C505 C506 1.387 . S
C506 H491 0.930 . S
C506 C501 1.390 . S
C506 C505 1.387 . S
H507 C519 0.930 . S
H508 C521 0.930 . S
H509 C522 0.930 . S
H510 C526 0.959 . S
H511 C526 0.959 . S
H512 C526 0.961 . S
H513 C527 0.960 . S
H514 C527 0.961 . S
H515 C527 0.959 . S
H516 C530 0.929 . S
H517 C531 0.931 . S
H518 C533 0.930 . S
C519 H507 0.930 . S
C519 C520 1.399 . S
C519 C524 1.399 . S
C520 C519 1.399 . S
C520 C521 1.376 . S
C521 H508 0.930 . S
C521 C520 1.376 . S
C521 C522 1.388 . S
C522 H509 0.930 . S
C522 C521 1.388 . S
C522 C523 1.390 . S
C523 C522 1.390 . S
C523 C524 1.394 . S
C523 C529 1.465 . S
C524 C519 1.399 . S
C524 C523 1.394 . S
C524 C525 1.516 . S
C525 C524 1.516 . S
C525 C526 1.502 . S
C525 C527 1.561 . S
C525 C528 1.526 . S
C526 H510 0.959 . S
C526 H511 0.959 . S
C526 H512 0.961 . S
C526 C525 1.502 . S
C527 H513 0.960 . S
C527 H514 0.961 . S
C527 H515 0.959 . S
C527 C525 1.561 . S
C528 C525 1.526 . S
C528 C529 1.396 . S
C528 C533 1.390 . S
C529 C523 1.465 . S
C529 C528 1.396 . S
C529 C530 1.399 . S
C530 H516 0.929 . S
C530 C529 1.399 . S
C530 C531 1.385 . S
C531 H517 0.931 . S
C531 C530 1.385 . S
C531 C532 1.389 . S
C532 C531 1.389 . S
C532 C533 1.387 . S
C533 H518 0.930 . S
C533 C528 1.390 . S
C533 C532 1.387 . S
H534 C546 0.930 . S
H535 C548 0.930 . S
H536 C549 0.930 1_556 S
H537 C553 0.959 . S
H538 C553 0.959 . S
H539 C553 0.961 . S
H540 C554 0.960 . S
H541 C554 0.961 . S
H542 C554 0.959 . S
H543 C557 0.929 . S
H544 C558 0.931 . S
H545 C560 0.930 . S
C546 H534 0.930 . S
C546 C547 1.399 . S
C546 C551 1.399 . S
C547 C546 1.399 . S
C547 C548 1.376 1_554 S
C548 H535 0.930 . S
C548 C547 1.376 1_556 S
C548 C549 1.388 1_556 S
C549 H536 0.930 1_554 S
C549 C548 1.388 1_554 S
C549 C550 1.390 . S
C550 C549 1.390 . S
C550 C551 1.394 . S
C550 C556 1.465 . S
C551 C546 1.399 . S
C551 C550 1.394 . S
C551 C552 1.516 . S
C552 C551 1.516 . S
C552 C553 1.502 . S
C552 C554 1.561 . S
C552 C555 1.526 . S
C553 H537 0.959 . S
C553 H538 0.959 . S
C553 H539 0.961 . S
C553 C552 1.502 . S
C554 H540 0.960 . S
C554 H541 0.961 . S
C554 H542 0.959 . S
C554 C552 1.561 . S
C555 C552 1.526 . S
C555 C556 1.396 . S
C555 C560 1.390 . S
C556 C550 1.465 . S
C556 C555 1.396 . S
C556 C557 1.399 . S
C557 H543 0.929 . S
C557 C556 1.399 . S
C557 C558 1.385 . S
C558 H544 0.931 . S
C558 C557 1.385 . S
C558 C559 1.389 . S
C559 C558 1.389 . S
C559 C560 1.387 . S
C560 H545 0.930 . S
C560 C555 1.390 . S
C560 C559 1.387 . S
H561 C573 0.930 . S
H562 C575 0.930 . S
H563 C576 0.930 . S
H564 C580 0.959 . S
H565 C580 0.959 . S
H566 C580 0.961 . S
H567 C581 0.960 . S
H568 C581 0.961 . S
H569 C581 0.959 . S
H570 C584 0.929 . S
H571 C585 0.931 1_565 S
H572 C587 0.930 . S
C573 H561 0.930 . S
C573 C574 1.399 . S
C573 C578 1.399 . S
C574 C573 1.399 . S
C574 C575 1.376 . S
C575 H562 0.930 . S
C575 C574 1.376 . S
C575 C576 1.388 . S
C576 H563 0.930 . S
C576 C575 1.388 . S
C576 C577 1.390 . S
C577 C576 1.390 . S
C577 C578 1.394 . S
C577 C583 1.465 . S
C578 C573 1.399 . S
C578 C577 1.394 . S
C578 C579 1.516 . S
C579 C578 1.516 . S
C579 C580 1.502 . S
C579 C581 1.561 . S
C579 C582 1.526 . S
C580 H564 0.959 . S
C580 H565 0.959 . S
C580 H566 0.961 . S
C580 C579 1.502 . S
C581 H567 0.960 . S
C581 H568 0.961 . S
C581 H569 0.959 . S
C581 C579 1.561 . S
C582 C579 1.526 . S
C582 C583 1.396 . S
C582 C587 1.390 . S
C583 C577 1.465 . S
C583 C582 1.396 . S
C583 C584 1.399 . S
C584 H570 0.929 . S
C584 C583 1.399 . S
C584 C585 1.385 . S
C585 H571 0.931 1_545 S
C585 C584 1.385 . S
C585 C586 1.389 . S
C586 C585 1.389 . S
C586 C587 1.387 . S
C587 H572 0.930 . S
C587 C582 1.390 . S
C587 C586 1.387 . S
H588 C600 0.930 . S
H589 C602 0.930 . S
H590 C603 0.930 . S
H591 C607 0.959 . S
H592 C607 0.959 . S
H593 C607 0.961 . S
H594 C608 0.960 . S
H595 C608 0.961 . S
H596 C608 0.959 . S
H597 C611 0.929 . S
H598 C612 0.931 . S
H599 C614 0.930 . S
C600 H588 0.930 . S
C600 C601 1.399 . S
C600 C605 1.399 . S
C601 C600 1.399 . S
C601 C602 1.376 . S
C602 H589 0.930 . S
C602 C601 1.376 . S
C602 C603 1.388 . S
C603 H590 0.930 . S
C603 C602 1.388 . S
C603 C604 1.390 . S
C604 C603 1.390 . S
C604 C605 1.394 . S
C604 C610 1.465 . S
C605 C600 1.399 . S
C605 C604 1.394 . S
C605 C606 1.516 . S
C606 C605 1.516 . S
C606 C607 1.502 . S
C606 C608 1.561 . S
C606 C609 1.526 . S
C607 H591 0.959 . S
C607 H592 0.959 . S
C607 H593 0.961 . S
C607 C606 1.502 . S
C608 H594 0.960 . S
C608 H595 0.961 . S
C608 H596 0.959 . S
C608 C606 1.561 . S
C609 C606 1.526 . S
C609 C610 1.396 . S
C609 C614 1.390 . S
C610 C604 1.465 . S
C610 C609 1.396 . S
C610 C611 1.399 . S
C611 H597 0.929 . S
C611 C610 1.399 . S
C611 C612 1.385 . S
C612 H598 0.931 . S
C612 C611 1.385 . S
C612 C613 1.389 . S
C613 C612 1.389 . S
C613 C614 1.387 . S
C614 H599 0.930 . S
C614 C609 1.390 . S
C614 C613 1.387 . S
H615 C627 0.930 . S
H616 C629 0.930 . S
H617 C630 0.930 . S
H618 C634 0.959 . S
H619 C634 0.959 . S
H620 C634 0.961 . S
H621 C635 0.960 . S
H622 C635 0.961 . S
H623 C635 0.959 . S
H624 C638 0.929 . S
H625 C639 0.931 . S
H626 C641 0.930 . S
C627 H615 0.930 . S
C627 C628 1.399 . S
C627 C632 1.399 . S
C628 C627 1.399 . S
C628 C629 1.376 . S
C629 H616 0.930 . S
C629 C628 1.376 . S
C629 C630 1.388 . S
C630 H617 0.930 . S
C630 C629 1.388 . S
C630 C631 1.390 . S
C631 C630 1.390 . S
C631 C632 1.394 . S
C631 C637 1.465 . S
C632 C627 1.399 . S
C632 C631 1.394 . S
C632 C633 1.516 . S
C633 C632 1.516 . S
C633 C634 1.502 . S
C633 C635 1.561 . S
C633 C636 1.526 . S
C634 H618 0.959 . S
C634 H619 0.959 . S
C634 H620 0.961 . S
C634 C633 1.502 . S
C635 H621 0.960 . S
C635 H622 0.961 . S
C635 H623 0.959 . S
C635 C633 1.561 . S
C636 C633 1.526 . S
C636 C637 1.396 . S
C636 C641 1.390 . S
C637 C631 1.465 . S
C637 C636 1.396 . S
C637 C638 1.399 . S
C638 H624 0.929 . S
C638 C637 1.399 . S
C638 C639 1.385 . S
C639 H625 0.931 . S
C639 C638 1.385 . S
C639 C640 1.389 . S
C640 C639 1.389 . S
C640 C641 1.387 . S
C641 H626 0.930 . S
C641 C636 1.390 . S
C641 C640 1.387 . S
H642 C654 0.930 . S
H643 C656 0.930 . S
H644 C657 0.930 1_554 S
H645 C661 0.959 . S
H646 C661 0.959 . S
H647 C661 0.961 . S
H648 C662 0.960 . S
H649 C662 0.961 . S
H650 C662 0.959 . S
H651 C665 0.929 . S
H652 C666 0.931 . S
H653 C668 0.930 . S
C654 H642 0.930 . S
C654 C655 1.399 . S
C654 C659 1.399 . S
C655 C654 1.399 . S
C655 C656 1.376 . S
C656 H643 0.930 . S
C656 C655 1.376 . S
C656 C657 1.388 . S
C657 H644 0.930 1_556 S
C657 C656 1.388 . S
C657 C658 1.390 . S
C658 C657 1.390 . S
C658 C659 1.394 . S
C658 C664 1.465 . S
C659 C654 1.399 . S
C659 C658 1.394 . S
C659 C660 1.516 . S
C660 C659 1.516 . S
C660 C661 1.502 . S
C660 C662 1.561 . S
C660 C663 1.526 . S
C661 H645 0.959 . S
C661 H646 0.959 . S
C661 H647 0.961 . S
C661 C660 1.502 . S
C662 H648 0.960 . S
C662 H649 0.961 . S
C662 H650 0.959 . S
C662 C660 1.561 . S
C663 C660 1.526 . S
C663 C664 1.396 . S
C663 C668 1.390 . S
C664 C658 1.465 . S
C664 C663 1.396 . S
C664 C665 1.399 1_556 S
C665 H651 0.929 . S
C665 C664 1.399 1_554 S
C665 C666 1.385 . S
C666 H652 0.931 . S
C666 C665 1.385 . S
C666 C667 1.389 1_554 S
C667 C666 1.389 1_556 S
C667 C668 1.387 . S
C668 H653 0.930 . S
C668 C663 1.390 . S
C668 C667 1.387 . S
H669 C681 0.930 . S
H670 C683 0.930 . S
H671 C684 0.930 . S
H672 C688 0.959 . S
H673 C688 0.959 . S
H674 C688 0.961 . S
H675 C689 0.960 . S
H676 C689 0.961 . S
H677 C689 0.959 . S
H678 C692 0.929 . S
H679 C693 0.931 . S
H680 C695 0.930 . S
C681 H669 0.930 . S
C681 C682 1.399 . S
C681 C686 1.399 . S
C682 C681 1.399 . S
C682 C683 1.376 . S
C683 H670 0.930 . S
C683 C682 1.376 . S
C683 C684 1.388 . S
C684 H671 0.930 . S
C684 C683 1.388 . S
C684 C685 1.390 . S
C685 C684 1.390 . S
C685 C686 1.394 . S
C685 C691 1.465 . S
C686 C681 1.399 . S
C686 C685 1.394 . S
C686 C687 1.516 . S
C687 C686 1.516 . S
C687 C688 1.502 . S
C687 C689 1.561 . S
C687 C690 1.526 . S
C688 H672 0.959 . S
C688 H673 0.959 . S
C688 H674 0.961 . S
C688 C687 1.502 . S
C689 H675 0.960 . S
C689 H676 0.961 . S
C689 H677 0.959 . S
C689 C687 1.561 . S
C690 C687 1.526 . S
C690 C691 1.396 . S
C690 C695 1.390 . S
C691 C685 1.465 . S
C691 C690 1.396 . S
C691 C692 1.399 . S
C692 H678 0.929 . S
C692 C691 1.399 . S
C692 C693 1.385 . S
C693 H679 0.931 . S
C693 C692 1.385 . S
C693 C694 1.389 . S
C694 C693 1.389 . S
C694 C695 1.387 . S
C695 H680 0.930 . S
C695 C690 1.390 . S
C695 C694 1.387 . S
H696 C708 0.930 . S
H697 C710 0.930 . S
H698 C711 0.930 . S
H699 C715 0.959 . S
H700 C715 0.959 . S
H701 C715 0.961 . S
H702 C716 0.960 . S
H703 C716 0.961 . S
H704 C716 0.959 . S
H705 C719 0.929 . S
H706 C720 0.931 . S
H707 C722 0.930 . S
C708 H696 0.930 . S
C708 C709 1.399 . S
C708 C713 1.399 . S
C709 C708 1.399 . S
C709 C710 1.376 . S
C710 H697 0.930 . S
C710 C709 1.376 . S
C710 C711 1.388 . S
C711 H698 0.930 . S
C711 C710 1.388 . S
C711 C712 1.390 . S
C712 C711 1.390 . S
C712 C713 1.394 . S
C712 C718 1.465 . S
C713 C708 1.399 . S
C713 C712 1.394 . S
C713 C714 1.516 . S
C714 C713 1.516 . S
C714 C715 1.502 . S
C714 C716 1.561 . S
C714 C717 1.526 . S
C715 H699 0.959 . S
C715 H700 0.959 . S
C715 H701 0.961 . S
C715 C714 1.502 . S
C716 H702 0.960 . S
C716 H703 0.961 . S
C716 H704 0.959 . S
C716 C714 1.561 . S
C717 C714 1.526 . S
C717 C718 1.396 . S
C717 C722 1.390 . S
C718 C712 1.465 . S
C718 C717 1.396 . S
C718 C719 1.399 . S
C719 H705 0.929 . S
C719 C718 1.399 . S
C719 C720 1.385 . S
C720 H706 0.931 . S
C720 C719 1.385 . S
C720 C721 1.389 . S
C721 C720 1.389 . S
C721 C722 1.387 . S
C722 H707 0.930 . S
C722 C717 1.390 . S
C722 C721 1.387 . S
H723 C735 0.930 . S
H724 C737 0.930 . S
H725 C738 0.930 . S
H726 C742 0.959 . S
H727 C742 0.959 1_655 S
H728 C742 0.961 . S
H729 C743 0.960 . S
H730 C743 0.961 . S
H731 C743 0.959 . S
H732 C746 0.929 . S
H733 C747 0.931 . S
H734 C749 0.930 . S
C735 H723 0.930 . S
C735 C736 1.399 . S
C735 C740 1.399 . S
C736 C735 1.399 . S
C736 C737 1.376 . S
C737 H724 0.930 . S
C737 C736 1.376 . S
C737 C738 1.388 . S
C738 H725 0.930 . S
C738 C737 1.388 . S
C738 C739 1.390 . S
C739 C738 1.390 . S
C739 C740 1.394 . S
C739 C745 1.465 . S
C740 C735 1.399 . S
C740 C739 1.394 . S
C740 C741 1.516 . S
C741 C740 1.516 . S
C741 C742 1.502 . S
C741 C743 1.561 1_455 S
C741 C744 1.526 . S
C742 H726 0.959 . S
C742 H727 0.959 1_455 S
C742 H728 0.961 . S
C742 C741 1.502 . S
C743 H729 0.960 . S
C743 H730 0.961 . S
C743 H731 0.959 . S
C743 C741 1.561 1_655 S
C744 C741 1.526 . S
C744 C745 1.396 . S
C744 C749 1.390 . S
C745 C739 1.465 . S
C745 C744 1.396 . S
C745 C746 1.399 . S
C746 H732 0.929 . S
C746 C745 1.399 . S
C746 C747 1.385 . S
C747 H733 0.931 . S
C747 C746 1.385 . S
C747 C748 1.389 . S
C748 C747 1.389 . S
C748 C749 1.387 . S
C749 H734 0.930 . S
C749 C744 1.390 . S
C749 C748 1.387 . S
H750 C762 0.930 . S
H751 C764 0.930 . S
H752 C765 0.930 . S
H753 C769 0.959 . S
H754 C769 0.959 . S
H755 C769 0.961 . S
H756 C770 0.960 . S
H757 C770 0.961 . S
H758 C770 0.959 . S
H759 C773 0.929 . S
H760 C774 0.931 . S
H761 C776 0.930 . S
C762 H750 0.930 . S
C762 C763 1.399 . S
C762 C767 1.399 . S
C763 C762 1.399 . S
C763 C764 1.376 . S
C764 H751 0.930 . S
C764 C763 1.376 . S
C764 C765 1.388 . S
C765 H752 0.930 . S
C765 C764 1.388 . S
C765 C766 1.390 . S
C766 C765 1.390 . S
C766 C767 1.394 . S
C766 C772 1.465 . S
C767 C762 1.399 . S
C767 C766 1.394 . S
C767 C768 1.516 . S
C768 C767 1.516 . S
C768 C769 1.502 . S
C768 C770 1.561 . S
C768 C771 1.526 . S
C769 H753 0.959 . S
C769 H754 0.959 . S
C769 H755 0.961 . S
C769 C768 1.502 . S
C770 H756 0.960 . S
C770 H757 0.961 . S
C770 H758 0.959 . S
C770 C768 1.561 . S
C771 C768 1.526 . S
C771 C772 1.396 . S
C771 C776 1.390 . S
C772 C766 1.465 . S
C772 C771 1.396 . S
C772 C773 1.399 . S
C773 H759 0.929 . S
C773 C772 1.399 . S
C773 C774 1.385 . S
C774 H760 0.931 . S
C774 C773 1.385 . S
C774 C775 1.389 . S
C775 C774 1.389 . S
C775 C776 1.387 . S
C776 H761 0.930 . S
C776 C771 1.390 . S
C776 C775 1.387 . S
H777 C789 0.930 . S
H778 C791 0.930 . S
H779 C792 0.930 . S
H780 C796 0.959 . S
H781 C796 0.959 . S
H782 C796 0.961 . S
H783 C797 0.960 . S
H784 C797 0.961 . S
H785 C797 0.959 . S
H786 C800 0.929 . S
H787 C801 0.931 . S
H788 C803 0.930 . S
C789 H777 0.930 . S
C789 C790 1.399 . S
C789 C794 1.399 . S
C790 C789 1.399 . S
C790 C791 1.376 . S
C791 H778 0.930 . S
C791 C790 1.376 . S
C791 C792 1.388 . S
C792 H779 0.930 . S
C792 C791 1.388 . S
C792 C793 1.390 . S
C793 C792 1.390 . S
C793 C794 1.394 . S
C793 C799 1.465 . S
C794 C789 1.399 . S
C794 C793 1.394 . S
C794 C795 1.516 . S
C795 C794 1.516 . S
C795 C796 1.502 . S
C795 C797 1.561 . S
C795 C798 1.526 . S
C796 H780 0.959 . S
C796 H781 0.959 . S
C796 H782 0.961 . S
C796 C795 1.502 . S
C797 H783 0.960 . S
C797 H784 0.961 . S
C797 H785 0.959 . S
C797 C795 1.561 . S
C798 C795 1.526 . S
C798 C799 1.396 . S
C798 C803 1.390 . S
C799 C793 1.465 . S
C799 C798 1.396 . S
C799 C800 1.399 . S
C800 H786 0.929 . S
C800 C799 1.399 . S
C800 C801 1.385 . S
C801 H787 0.931 . S
C801 C800 1.385 . S
C801 C802 1.389 . S
C802 C801 1.389 . S
C802 C803 1.387 . S
C803 H788 0.930 . S
C803 C798 1.390 . S
C803 C802 1.387 . S
H804 C816 0.930 . S
H805 C818 0.930 . S
H806 C819 0.930 . S
H807 C823 0.959 . S
H808 C823 0.959 . S
H809 C823 0.961 . S
H810 C824 0.960 . S
H811 C824 0.961 . S
H812 C824 0.959 . S
H813 C827 0.929 . S
H814 C828 0.931 . S
H815 C830 0.930 . S
C816 H804 0.930 . S
C816 C817 1.399 . S
C816 C821 1.399 . S
C817 C816 1.399 . S
C817 C818 1.376 . S
C818 H805 0.930 . S
C818 C817 1.376 . S
C818 C819 1.388 . S
C819 H806 0.930 . S
C819 C818 1.388 . S
C819 C820 1.390 . S
C820 C819 1.390 . S
C820 C821 1.394 . S
C820 C826 1.465 . S
C821 C816 1.399 . S
C821 C820 1.394 . S
C821 C822 1.516 . S
C822 C821 1.516 . S
C822 C823 1.502 . S
C822 C824 1.561 . S
C822 C825 1.526 . S
C823 H807 0.959 . S
C823 H808 0.959 . S
C823 H809 0.961 . S
C823 C822 1.502 . S
C824 H810 0.960 . S
C824 H811 0.961 . S
C824 H812 0.959 . S
C824 C822 1.561 . S
C825 C822 1.526 . S
C825 C826 1.396 . S
C825 C830 1.390 . S
C826 C820 1.465 . S
C826 C825 1.396 . S
C826 C827 1.399 . S
C827 H813 0.929 . S
C827 C826 1.399 . S
C827 C828 1.385 . S
C828 H814 0.931 . S
C828 C827 1.385 . S
C828 C829 1.389 . S
C829 C828 1.389 . S
C829 C830 1.387 . S
C830 H815 0.930 . S
C830 C825 1.390 . S
C830 C829 1.387 . S
H831 C843 0.930 . S
H832 C845 0.930 . S
H833 C846 0.930 . S
H834 C850 0.959 . S
H835 C850 0.959 . S
H836 C850 0.961 . S
H837 C851 0.960 . S
H838 C851 0.961 1_545 S
H839 C851 0.959 . S
H840 C854 0.929 . S
H841 C855 0.931 . S
H842 C857 0.930 . S
C843 H831 0.930 . S
C843 C844 1.399 . S
C843 C848 1.399 . S
C844 C843 1.399 . S
C844 C845 1.376 . S
C845 H832 0.930 . S
C845 C844 1.376 . S
C845 C846 1.388 . S
C846 H833 0.930 . S
C846 C845 1.388 . S
C846 C847 1.390 . S
C847 C846 1.390 . S
C847 C848 1.394 . S
C847 C853 1.465 . S
C848 C843 1.399 . S
C848 C847 1.394 . S
C848 C849 1.516 . S
C849 C848 1.516 . S
C849 C850 1.502 . S
C849 C851 1.561 . S
C849 C852 1.526 . S
C850 H834 0.959 . S
C850 H835 0.959 . S
C850 H836 0.961 . S
C850 C849 1.502 . S
C851 H837 0.960 . S
C851 H838 0.961 1_565 S
C851 H839 0.959 . S
C851 C849 1.561 . S
C852 C849 1.526 . S
C852 C853 1.396 . S
C852 C857 1.390 . S
C853 C847 1.465 . S
C853 C852 1.396 . S
C853 C854 1.399 . S
C854 H840 0.929 . S
C854 C853 1.399 . S
C854 C855 1.385 . S
C855 H841 0.931 . S
C855 C854 1.385 . S
C855 C856 1.389 . S
C856 C855 1.389 . S
C856 C857 1.387 . S
C857 H842 0.930 . S
C857 C852 1.390 . S
C857 C856 1.387 . S
H858 C870 0.930 . S
H859 C872 0.930 . S
H860 C873 0.930 . S
H861 C877 0.959 . S
H862 C877 0.959 . S
H863 C877 0.961 . S
H864 C878 0.960 . S
H865 C878 0.961 . S
H866 C878 0.959 . S
H867 C881 0.929 . S
H868 C882 0.931 . S
H869 C884 0.930 . S
C870 H858 0.930 . S
C870 C871 1.399 . S
C870 C875 1.399 . S
C871 C870 1.399 . S
C871 C872 1.376 . S
C872 H859 0.930 . S
C872 C871 1.376 . S
C872 C873 1.388 . S
C873 H860 0.930 . S
C873 C872 1.388 . S
C873 C874 1.390 . S
C874 C873 1.390 . S
C874 C875 1.394 . S
C874 C880 1.465 . S
C875 C870 1.399 . S
C875 C874 1.394 . S
C875 C876 1.516 . S
C876 C875 1.516 . S
C876 C877 1.502 . S
C876 C878 1.561 . S
C876 C879 1.526 . S
C877 H861 0.959 . S
C877 H862 0.959 . S
C877 H863 0.961 . S
C877 C876 1.502 . S
C878 H864 0.960 . S
C878 H865 0.961 . S
C878 H866 0.959 . S
C878 C876 1.561 . S
C879 C876 1.526 . S
C879 C880 1.396 . S
C879 C884 1.390 . S
C880 C874 1.465 . S
C880 C879 1.396 . S
C880 C881 1.399 . S
C881 H867 0.929 . S
C881 C880 1.399 . S
C881 C882 1.385 . S
C882 H868 0.931 . S
C882 C881 1.385 . S
C882 C883 1.389 . S
C883 C882 1.389 . S
C883 C884 1.387 . S
C884 H869 0.930 . S
C884 C879 1.390 . S
C884 C883 1.387 . S
H885 C897 0.930 . S
H886 C899 0.930 . S
H887 C900 0.930 . S
H888 C904 0.953 1_556 S
H889 C904 0.945 1_556 S
H890 C904 0.973 . S
H891 C905 0.960 . S
H892 C905 0.961 . S
H893 C905 0.959 . S
H894 C908 0.929 1_554 S
H895 C909 0.931 . S
H896 C911 0.930 . S
C897 H885 0.930 . S
C897 C898 1.399 . S
C897 C902 1.399 . S
C898 C897 1.399 . S
C898 C899 1.376 . S
C899 H886 0.930 . S
C899 C898 1.376 . S
C899 C900 1.388 . S
C900 H887 0.930 . S
C900 C899 1.388 . S
C900 C901 1.390 . S
C901 C900 1.390 . S
C901 C902 1.394 . S
C901 C907 1.465 . S
C902 C897 1.399 . S
C902 C901 1.394 . S
C902 C903 1.516 . S
C903 C902 1.516 . S
C903 C904 1.511 . S
C903 C905 1.561 . S
C903 C906 1.526 1_554 S
C904 H888 0.953 1_554 S
C904 H889 0.945 1_554 S
C904 H890 0.973 . S
C904 C903 1.511 . S
C905 H891 0.960 . S
C905 H892 0.961 . S
C905 H893 0.959 . S
C905 C903 1.561 . S
C906 C903 1.526 1_556 S
C906 C907 1.396 1_556 S
C906 C911 1.390 . S
C907 C901 1.465 . S
C907 C906 1.396 1_554 S
C907 C908 1.399 1_554 S
C908 H894 0.929 1_556 S
C908 C907 1.399 1_556 S
C908 C909 1.385 . S
C909 H895 0.931 . S
C909 C908 1.385 . S
C909 C910 1.389 . S
C910 C909 1.389 . S
C910 C911 1.387 . S
C911 H896 0.930 . S
C911 C906 1.390 . S
C911 C910 1.387 . S
H912 C924 0.930 . S
H913 C926 0.930 . S
H914 C927 0.930 . S
H915 C931 0.959 . S
H916 C931 0.959 . S
H917 C931 0.961 . S
H918 C932 0.960 . S
H919 C932 0.961 . S
H920 C932 0.959 . S
H921 C935 0.929 . S
H922 C936 0.931 . S
H923 C938 0.930 . S
C924 H912 0.930 . S
C924 C925 1.399 . S
C924 C929 1.399 . S
C925 C924 1.399 . S
C925 C926 1.376 . S
C926 H913 0.930 . S
C926 C925 1.376 . S
C926 C927 1.388 . S
C927 H914 0.930 . S
C927 C926 1.388 . S
C927 C928 1.390 . S
C928 C927 1.390 . S
C928 C929 1.394 . S
C928 C934 1.465 . S
C929 C924 1.399 . S
C929 C928 1.394 . S
C929 C930 1.516 . S
C930 C929 1.516 . S
C930 C931 1.502 . S
C930 C932 1.561 . S
C930 C933 1.526 . S
C931 H915 0.959 . S
C931 H916 0.959 . S
C931 H917 0.961 . S
C931 C930 1.502 . S
C932 H918 0.960 . S
C932 H919 0.961 . S
C932 H920 0.959 . S
C932 C930 1.561 . S
C933 C930 1.526 . S
C933 C934 1.396 . S
C933 C938 1.390 . S
C934 C928 1.465 . S
C934 C933 1.396 . S
C934 C935 1.399 . S
C935 H921 0.929 . S
C935 C934 1.399 . S
C935 C936 1.385 . S
C936 H922 0.931 . S
C936 C935 1.385 . S
C936 C937 1.389 . S
C937 C936 1.389 . S
C937 C938 1.387 . S
C938 H923 0.930 . S
C938 C933 1.390 . S
C938 C937 1.387 . S
H939 C951 0.930 . S
H940 C953 0.930 . S
H941 C954 0.930 . S
H942 C958 0.959 . S
H943 C958 0.959 . S
H944 C958 0.961 1_554 S
H945 C959 0.960 . S
H946 C959 0.961 . S
H947 C959 0.959 . S
H948 C962 0.929 . S
H949 C963 0.931 . S
H950 C965 0.930 . S
C951 H939 0.930 . S
C951 C952 1.399 . S
C951 C956 1.399 . S
C952 C951 1.399 . S
C952 C953 1.376 . S
C953 H940 0.930 . S
C953 C952 1.376 . S
C953 C954 1.388 . S
C954 H941 0.930 . S
C954 C953 1.388 . S
C954 C955 1.390 . S
C955 C954 1.390 . S
C955 C956 1.394 . S
C955 C961 1.465 1_554 S
C956 C951 1.399 . S
C956 C955 1.394 . S
C956 C957 1.516 1_554 S
C957 C956 1.516 1_556 S
C957 C958 1.502 . S
C957 C959 1.561 . S
C957 C960 1.526 . S
C958 H942 0.959 . S
C958 H943 0.959 . S
C958 H944 0.961 1_556 S
C958 C957 1.502 . S
C959 H945 0.960 . S
C959 H946 0.961 . S
C959 H947 0.959 . S
C959 C957 1.561 . S
C960 C957 1.526 . S
C960 C961 1.396 . S
C960 C965 1.390 . S
C961 C955 1.465 1_556 S
C961 C960 1.396 . S
C961 C962 1.399 . S
C962 H948 0.929 . S
C962 C961 1.399 . S
C962 C963 1.385 . S
C963 H949 0.931 . S
C963 C962 1.385 . S
C963 C964 1.389 . S
C964 C963 1.389 . S
C964 C965 1.387 . S
C965 H950 0.930 . S
C965 C960 1.390 . S
C965 C964 1.387 . S
H966 C978 0.930 . S
H967 C980 0.930 . S
H968 C981 0.930 . S
H969 C985 0.959 . S
H970 C985 0.959 . S
H971 C985 0.961 . S
H972 C986 0.960 . S
H973 C986 0.961 . S
H974 C986 0.959 . S
H975 C989 0.929 . S
H976 C990 0.931 . S
H977 C992 0.930 . S
C978 H966 0.930 . S
C978 C979 1.399 . S
C978 C983 1.399 . S
C979 C978 1.399 . S
C979 C980 1.376 . S
C980 H967 0.930 . S
C980 C979 1.376 . S
C980 C981 1.388 . S
C981 H968 0.930 . S
C981 C980 1.388 . S
C981 C982 1.390 . S
C982 C981 1.390 . S
C982 C983 1.394 . S
C982 C988 1.465 . S
C983 C978 1.399 . S
C983 C982 1.394 . S
C983 C984 1.516 . S
C984 C983 1.516 . S
C984 C985 1.502 . S
C984 C986 1.561 . S
C984 C987 1.526 . S
C985 H969 0.959 . S
C985 H970 0.959 . S
C985 H971 0.961 . S
C985 C984 1.502 . S
C986 H972 0.960 . S
C986 H973 0.961 . S
C986 H974 0.959 . S
C986 C984 1.561 . S
C987 C984 1.526 . S
C987 C988 1.396 . S
C987 C992 1.390 . S
C988 C982 1.465 . S
C988 C987 1.396 . S
C988 C989 1.399 . S
C989 H975 0.929 . S
C989 C988 1.399 . S
C989 C990 1.385 . S
C990 H976 0.931 . S
C990 C989 1.385 . S
C990 C991 1.389 . S
C991 C990 1.389 . S
C991 C992 1.387 . S
C992 H977 0.930 . S
C992 C987 1.390 . S
C992 C991 1.387 . S
H993 C1005 0.930 . S
H994 C1007 0.930 . S
H995 C1008 0.930 . S
H996 C1012 0.959 . S
H997 C1012 0.959 . S
H998 C1012 0.961 . S
H999 C1013 0.960 . S
H1000 C1013 0.961 . S
H1001 C1013 0.959 . S
H1002 C1016 0.929 . S
H1003 C1017 0.931 . S
H1004 C1019 0.930 . S
C1005 H993 0.930 . S
C1005 C1006 1.399 . S
C1005 C1010 1.399 . S
C1006 C1005 1.399 . S
C1006 C1007 1.376 . S
C1007 H994 0.930 . S
C1007 C1006 1.376 . S
C1007 C1008 1.388 . S
C1008 H995 0.930 . S
C1008 C1007 1.388 . S
C1008 C1009 1.390 . S
C1009 C1008 1.390 . S
C1009 C1010 1.394 . S
C1009 C1015 1.465 . S
C1010 C1005 1.399 . S
C1010 C1009 1.394 . S
C1010 C1011 1.516 . S
C1011 C1010 1.516 . S
C1011 C1012 1.502 . S
C1011 C1013 1.561 . S
C1011 C1014 1.526 . S
C1012 H996 0.959 . S
C1012 H997 0.959 . S
C1012 H998 0.961 . S
C1012 C1011 1.502 . S
C1013 H999 0.960 . S
C1013 H1000 0.961 . S
C1013 H1001 0.959 . S
C1013 C1011 1.561 . S
C1014 C1011 1.526 . S
C1014 C1015 1.396 . S
C1014 C1019 1.390 . S
C1015 C1009 1.465 . S
C1015 C1014 1.396 . S
C1015 C1016 1.399 . S
C1016 H1002 0.929 . S
C1016 C1015 1.399 . S
C1016 C1017 1.385 . S
C1017 H1003 0.931 . S
C1017 C1016 1.385 . S
C1017 C1018 1.389 . S
C1018 C1017 1.389 . S
C1018 C1019 1.387 . S
C1019 H1004 0.930 . S
C1019 C1014 1.390 . S
C1019 C1018 1.387 . S
H1020 C1032 0.930 . S
H1021 C1034 0.930 . S
H1022 C1035 0.930 . S
H1023 C1039 0.959 . S
H1024 C1039 0.959 . S
H1025 C1039 0.961 . S
H1026 C1040 0.960 . S
H1027 C1040 0.961 . S
H1028 C1040 0.959 . S
H1029 C1043 0.929 . S
H1030 C1044 0.931 . S
H1031 C1046 0.930 . S
C1032 H1020 0.930 . S
C1032 C1033 1.399 . S
C1032 C1037 1.399 . S
C1033 C1032 1.399 . S
C1033 C1034 1.376 . S
C1034 H1021 0.930 . S
C1034 C1033 1.376 . S
C1034 C1035 1.388 . S
C1035 H1022 0.930 . S
C1035 C1034 1.388 . S
C1035 C1036 1.390 . S
C1036 C1035 1.390 . S
C1036 C1037 1.394 . S
C1036 C1042 1.465 . S
C1037 C1032 1.399 . S
C1037 C1036 1.394 . S
C1037 C1038 1.516 . S
C1038 C1037 1.516 . S
C1038 C1039 1.502 . S
C1038 C1040 1.561 . S
C1038 C1041 1.526 . S
C1039 H1023 0.959 . S
C1039 H1024 0.959 . S
C1039 H1025 0.961 . S
C1039 C1038 1.502 . S
C1040 H1026 0.960 . S
C1040 H1027 0.961 . S
C1040 H1028 0.959 . S
C1040 C1038 1.561 . S
C1041 C1038 1.526 . S
C1041 C1042 1.396 . S
C1041 C1046 1.390 . S
C1042 C1036 1.465 . S
C1042 C1041 1.396 . S
C1042 C1043 1.399 . S
C1043 H1029 0.929 . S
C1043 C1042 1.399 . S
C1043 C1044 1.385 . S
C1044 H1030 0.931 . S
C1044 C1043 1.385 . S
C1044 C1045 1.389 . S
C1045 C1044 1.389 . S
C1045 C1046 1.387 . S
C1046 H1031 0.930 . S
C1046 C1041 1.390 . S
C1046 C1045 1.387 . S
H1047 C1059 0.930 . S
H1048 C1061 0.930 . S
H1049 C1062 0.930 . S
H1050 C1066 0.959 1_645 S
H1051 C1066 0.971 . S
H1052 C1066 0.960 1_545 S
H1053 C1067 0.960 . S
H1054 C1067 0.961 . S
H1055 C1067 0.959 . S
H1056 C1070 0.929 . S
H1057 C1071 0.931 . S
H1058 C1073 0.930 . S
C1059 H1047 0.930 . S
C1059 C1060 1.399 . S
C1059 C1064 1.399 . S
C1060 C1059 1.399 . S
C1060 C1061 1.376 . S
C1061 H1048 0.930 . S
C1061 C1060 1.376 . S
C1061 C1062 1.388 . S
C1062 H1049 0.930 . S
C1062 C1061 1.388 . S
C1062 C1063 1.390 . S
C1063 C1062 1.390 . S
C1063 C1064 1.394 . S
C1063 C1069 1.465 1_545 S
C1064 C1059 1.399 . S
C1064 C1063 1.394 . S
C1064 C1065 1.516 1_545 S
C1065 C1064 1.516 1_565 S
C1065 C1066 1.502 . S
C1065 C1067 1.561 . S
C1065 C1068 1.526 . S
C1066 H1050 0.959 1_465 S
C1066 H1051 0.971 . S
C1066 H1052 0.960 1_565 S
C1066 C1065 1.502 . S
C1067 H1053 0.960 . S
C1067 H1054 0.961 . S
C1067 H1055 0.959 . S
C1067 C1065 1.561 . S
C1068 C1065 1.526 . S
C1068 C1069 1.396 . S
C1068 C1073 1.390 . S
C1069 C1063 1.465 1_565 S
C1069 C1068 1.396 . S
C1069 C1070 1.399 . S
C1070 H1056 0.929 . S
C1070 C1069 1.399 . S
C1070 C1071 1.385 . S
C1071 H1057 0.931 . S
C1071 C1070 1.385 . S
C1071 C1072 1.389 . S
C1072 C1071 1.389 . S
C1072 C1073 1.387 . S
C1073 H1058 0.930 . S
C1073 C1068 1.390 . S
C1073 C1072 1.387 . S
H1074 C1086 0.930 . S
H1075 C1088 0.930 . S
H1076 C1089 0.930 . S
H1077 C1093 0.959 . S
H1078 C1093 0.959 . S
H1079 C1093 0.961 . S
H1080 C1094 0.960 . S
H1081 C1094 0.961 . S
H1082 C1094 0.959 . S
H1083 C1097 0.929 . S
H1084 C1098 0.931 . S
H1085 C1100 0.930 . S
C1086 H1074 0.930 . S
C1086 C1087 1.399 . S
C1086 C1091 1.399 . S
C1087 C1086 1.399 . S
C1087 C1088 1.376 . S
C1088 H1075 0.930 . S
C1088 C1087 1.376 . S
C1088 C1089 1.388 . S
C1089 H1076 0.930 . S
C1089 C1088 1.388 . S
C1089 C1090 1.390 . S
C1090 C1089 1.390 . S
C1090 C1091 1.394 . S
C1090 C1096 1.465 . S
C1091 C1086 1.399 . S
C1091 C1090 1.394 . S
C1091 C1092 1.516 . S
C1092 C1091 1.516 . S
C1092 C1093 1.502 . S
C1092 C1094 1.561 . S
C1092 C1095 1.526 . S
C1093 H1077 0.959 . S
C1093 H1078 0.959 . S
C1093 H1079 0.961 . S
C1093 C1092 1.502 . S
C1094 H1080 0.960 . S
C1094 H1081 0.961 . S
C1094 H1082 0.959 . S
C1094 C1092 1.561 . S
C1095 C1092 1.526 . S
C1095 C1096 1.396 . S
C1095 C1100 1.390 . S
C1096 C1090 1.465 . S
C1096 C1095 1.396 . S
C1096 C1097 1.399 . S
C1097 H1083 0.929 . S
C1097 C1096 1.399 . S
C1097 C1098 1.385 . S
C1098 H1084 0.931 . S
C1098 C1097 1.385 . S
C1098 C1099 1.389 . S
C1099 C1098 1.389 . S
C1099 C1100 1.387 . S
C1100 H1085 0.930 . S
C1100 C1095 1.390 . S
C1100 C1099 1.387 . S
H1101 C1113 0.930 . S
H1102 C1115 0.930 . S
H1103 C1116 0.930 . S
H1104 C1120 0.959 . S
H1105 C1120 0.959 . S
H1106 C1120 0.961 . S
H1107 C1121 0.960 . S
H1108 C1121 0.961 . S
H1109 C1121 0.959 . S
H1110 C1124 0.929 . S
H1111 C1125 0.931 . S
H1112 C1127 0.930 . S
C1113 H1101 0.930 . S
C1113 C1114 1.399 . S
C1113 C1118 1.399 . S
C1114 C1113 1.399 . S
C1114 C1115 1.376 . S
C1115 H1102 0.930 . S
C1115 C1114 1.376 . S
C1115 C1116 1.388 . S
C1116 H1103 0.930 . S
C1116 C1115 1.388 . S
C1116 C1117 1.390 . S
C1117 C1116 1.390 . S
C1117 C1118 1.394 . S
C1117 C1123 1.465 1_545 S
C1118 C1113 1.399 . S
C1118 C1117 1.394 . S
C1118 C1119 1.516 . S
C1119 C1118 1.516 . S
C1119 C1120 1.502 . S
C1119 C1121 1.561 . S
C1119 C1122 1.526 1_545 S
C1120 H1104 0.959 . S
C1120 H1105 0.959 . S
C1120 H1106 0.961 . S
C1120 C1119 1.502 . S
C1121 H1107 0.960 . S
C1121 H1108 0.961 . S
C1121 H1109 0.959 . S
C1121 C1119 1.561 . S
C1122 C1119 1.526 1_565 S
C1122 C1123 1.396 . S
C1122 C1127 1.390 . S
C1123 C1117 1.465 1_565 S
C1123 C1122 1.396 . S
C1123 C1124 1.399 . S
C1124 H1110 0.929 . S
C1124 C1123 1.399 . S
C1124 C1125 1.385 . S
C1125 H1111 0.931 . S
C1125 C1124 1.385 . S
C1125 C1126 1.389 . S
C1126 C1125 1.389 . S
C1126 C1127 1.387 . S
C1127 H1112 0.930 . S
C1127 C1122 1.390 . S
C1127 C1126 1.387 . S
H1128 C1140 0.930 . S
H1129 C1142 0.930 . S
H1130 C1143 0.930 . S
H1131 C1147 0.959 . S
H1132 C1147 0.959 . S
H1133 C1147 0.961 . S
H1134 C1148 0.960 . S
H1135 C1148 0.961 . S
H1136 C1148 0.959 . S
H1137 C1151 0.929 . S
H1138 C1152 0.931 . S
H1139 C1154 0.930 . S
C1140 H1128 0.930 . S
C1140 C1141 1.399 . S
C1140 C1145 1.399 . S
C1141 C1140 1.399 . S
C1141 C1142 1.376 . S
C1142 H1129 0.930 . S
C1142 C1141 1.376 . S
C1142 C1143 1.388 . S
C1143 H1130 0.930 . S
C1143 C1142 1.388 . S
C1143 C1144 1.390 . S
C1144 C1143 1.390 . S
C1144 C1145 1.394 . S
C1144 C1150 1.465 . S
C1145 C1140 1.399 . S
C1145 C1144 1.394 . S
C1145 C1146 1.516 . S
C1146 C1145 1.516 . S
C1146 C1147 1.502 . S
C1146 C1148 1.561 . S
C1146 C1149 1.526 . S
C1147 H1131 0.959 . S
C1147 H1132 0.959 . S
C1147 H1133 0.961 . S
C1147 C1146 1.502 . S
C1148 H1134 0.960 . S
C1148 H1135 0.961 . S
C1148 H1136 0.959 . S
C1148 C1146 1.561 . S
C1149 C1146 1.526 . S
C1149 C1150 1.396 . S
C1149 C1154 1.390 . S
C1150 C1144 1.465 . S
C1150 C1149 1.396 . S
C1150 C1151 1.399 . S
C1151 H1137 0.929 . S
C1151 C1150 1.399 . S
C1151 C1152 1.385 . S
C1152 H1138 0.931 . S
C1152 C1151 1.385 . S
C1152 C1153 1.389 . S
C1153 C1152 1.389 . S
C1153 C1154 1.387 . S
C1154 H1139 0.930 . S
C1154 C1149 1.390 . S
C1154 C1153 1.387 . S
H1155 C1167 0.930 . S
H1156 C1169 0.930 . S
H1157 C1170 0.930 . S
H1158 C1174 0.959 . S
H1159 C1174 0.959 . S
H1160 C1174 0.961 . S
H1161 C1175 0.960 . S
H1162 C1175 0.961 . S
H1163 C1175 0.959 . S
H1164 C1178 0.929 . S
H1165 C1179 0.931 . S
H1166 C1181 0.930 . S
C1167 H1155 0.930 . S
C1167 C1168 1.399 . S
C1167 C1172 1.399 . S
C1168 C1167 1.399 . S
C1168 C1169 1.376 . S
C1169 H1156 0.930 . S
C1169 C1168 1.376 . S
C1169 C1170 1.388 . S
C1170 H1157 0.930 . S
C1170 C1169 1.388 . S
C1170 C1171 1.390 . S
C1171 C1170 1.390 . S
C1171 C1172 1.394 . S
C1171 C1177 1.465 . S
C1172 C1167 1.399 . S
C1172 C1171 1.394 . S
C1172 C1173 1.516 . S
C1173 C1172 1.516 . S
C1173 C1174 1.502 . S
C1173 C1175 1.561 . S
C1173 C1176 1.526 . S
C1174 H1158 0.959 . S
C1174 H1159 0.959 . S
C1174 H1160 0.961 . S
C1174 C1173 1.502 . S
C1175 H1161 0.960 . S
C1175 H1162 0.961 . S
C1175 H1163 0.959 . S
C1175 C1173 1.561 . S
C1176 C1173 1.526 . S
C1176 C1177 1.396 . S
C1176 C1181 1.390 . S
C1177 C1171 1.465 . S
C1177 C1176 1.396 . S
C1177 C1178 1.399 . S
C1178 H1164 0.929 . S
C1178 C1177 1.399 . S
C1178 C1179 1.385 . S
C1179 H1165 0.931 . S
C1179 C1178 1.385 . S
C1179 C1180 1.389 . S
C1180 C1179 1.389 . S
C1180 C1181 1.387 . S
C1181 H1166 0.930 . S
C1181 C1176 1.390 . S
C1181 C1180 1.387 . S
H1182 C1194 0.930 . S
H1183 C1196 0.930 . S
H1184 C1197 0.930 . S
H1185 C1201 0.959 . S
H1186 C1201 0.959 . S
H1187 C1201 0.961 . S
H1188 C1202 0.960 . S
H1189 C1202 0.961 . S
H1190 C1202 0.959 . S
H1191 C1205 0.929 . S
H1192 C1206 0.931 . S
H1193 C1208 0.930 . S
C1194 H1182 0.930 . S
C1194 C1195 1.399 . S
C1194 C1199 1.399 . S
C1195 C1194 1.399 . S
C1195 C1196 1.376 . S
C1196 H1183 0.930 . S
C1196 C1195 1.376 . S
C1196 C1197 1.388 . S
C1197 H1184 0.930 . S
C1197 C1196 1.388 . S
C1197 C1198 1.390 . S
C1198 C1197 1.390 . S
C1198 C1199 1.394 . S
C1198 C1204 1.465 . S
C1199 C1194 1.399 . S
C1199 C1198 1.394 . S
C1199 C1200 1.516 . S
C1200 C1199 1.516 . S
C1200 C1201 1.502 . S
C1200 C1202 1.561 . S
C1200 C1203 1.526 . S
C1201 H1185 0.959 . S
C1201 H1186 0.959 . S
C1201 H1187 0.961 . S
C1201 C1200 1.502 . S
C1202 H1188 0.960 . S
C1202 H1189 0.961 . S
C1202 H1190 0.959 . S
C1202 C1200 1.561 . S
C1203 C1200 1.526 . S
C1203 C1204 1.396 . S
C1203 C1208 1.390 . S
C1204 C1198 1.465 . S
C1204 C1203 1.396 . S
C1204 C1205 1.399 . S
C1205 H1191 0.929 . S
C1205 C1204 1.399 . S
C1205 C1206 1.385 . S
C1206 H1192 0.931 . S
C1206 C1205 1.385 . S
C1206 C1207 1.389 . S
C1207 C1206 1.389 . S
C1207 C1208 1.387 . S
C1208 H1193 0.930 . S
C1208 C1203 1.390 . S
C1208 C1207 1.387 . S
H1209 C1221 0.930 . S
H1210 C1223 0.930 . S
H1211 C1224 0.930 . S
H1212 C1228 0.959 . S
H1213 C1228 0.959 . S
H1214 C1228 0.961 . S
H1215 C1229 0.960 . S
H1216 C1229 0.961 . S
H1217 C1229 0.959 . S
H1218 C1232 0.929 . S
H1219 C1233 0.931 . S
H1220 C1235 0.930 . S
C1221 H1209 0.930 . S
C1221 C1222 1.399 . S
C1221 C1226 1.399 . S
C1222 C1221 1.399 . S
C1222 C1223 1.376 . S
C1223 H1210 0.930 . S
C1223 C1222 1.376 . S
C1223 C1224 1.388 . S
C1224 H1211 0.930 . S
C1224 C1223 1.388 . S
C1224 C1225 1.390 . S
C1225 C1224 1.390 . S
C1225 C1226 1.394 . S
C1225 C1231 1.465 . S
C1226 C1221 1.399 . S
C1226 C1225 1.394 . S
C1226 C1227 1.516 . S
C1227 C1226 1.516 . S
C1227 C1228 1.502 . S
C1227 C1229 1.561 . S
C1227 C1230 1.526 . S
C1228 H1212 0.959 . S
C1228 H1213 0.959 . S
C1228 H1214 0.961 . S
C1228 C1227 1.502 . S
C1229 H1215 0.960 . S
C1229 H1216 0.961 . S
C1229 H1217 0.959 . S
C1229 C1227 1.561 . S
C1230 C1227 1.526 . S
C1230 C1231 1.396 . S
C1230 C1235 1.390 . S
C1231 C1225 1.465 . S
C1231 C1230 1.396 . S
C1231 C1232 1.399 . S
C1232 H1218 0.929 . S
C1232 C1231 1.399 . S
C1232 C1233 1.385 . S
C1233 H1219 0.931 . S
C1233 C1232 1.385 . S
C1233 C1234 1.389 . S
C1234 C1233 1.389 . S
C1234 C1235 1.387 . S
C1235 H1220 0.930 . S
C1235 C1230 1.390 . S
C1235 C1234 1.387 . S
H1236 C1248 0.930 . S
H1237 C1250 0.930 . S
H1238 C1251 0.930 . S
H1239 C1255 0.959 . S
H1240 C1255 0.959 . S
H1241 C1255 0.961 . S
H1242 C1256 0.960 . S
H1243 C1256 0.961 . S
H1244 C1256 0.959 . S
H1245 C1259 0.929 . S
H1246 C1260 0.931 . S
H1247 C1262 0.930 . S
C1248 H1236 0.930 . S
C1248 C1249 1.399 . S
C1248 C1253 1.399 . S
C1249 C1248 1.399 . S
C1249 C1250 1.376 . S
C1250 H1237 0.930 . S
C1250 C1249 1.376 . S
C1250 C1251 1.388 . S
C1251 H1238 0.930 . S
C1251 C1250 1.388 . S
C1251 C1252 1.390 . S
C1252 C1251 1.390 . S
C1252 C1253 1.394 . S
C1252 C1258 1.465 . S
C1253 C1248 1.399 . S
C1253 C1252 1.394 . S
C1253 C1254 1.516 . S
C1254 C1253 1.516 . S
C1254 C1255 1.502 . S
C1254 C1256 1.561 . S
C1254 C1257 1.526 . S
C1255 H1239 0.959 . S
C1255 H1240 0.959 . S
C1255 H1241 0.961 . S
C1255 C1254 1.502 . S
C1256 H1242 0.960 . S
C1256 H1243 0.961 . S
C1256 H1244 0.959 . S
C1256 C1254 1.561 . S
C1257 C1254 1.526 . S
C1257 C1258 1.396 . S
C1257 C1262 1.390 . S
C1258 C1252 1.465 . S
C1258 C1257 1.396 . S
C1258 C1259 1.399 . S
C1259 H1245 0.929 . S
C1259 C1258 1.399 . S
C1259 C1260 1.385 . S
C1260 H1246 0.931 . S
C1260 C1259 1.385 . S
C1260 C1261 1.389 . S
C1261 C1260 1.389 . S
C1261 C1262 1.387 . S
C1262 H1247 0.930 . S
C1262 C1257 1.390 . S
C1262 C1261 1.387 . S
H1263 C1275 0.930 . S
H1264 C1277 0.930 . S
H1265 C1278 0.930 . S
H1266 C1282 0.959 . S
H1267 C1282 0.959 . S
H1268 C1282 0.961 . S
H1269 C1283 0.960 . S
H1270 C1283 0.961 . S
H1271 C1283 0.959 . S
H1272 C1286 0.929 . S
H1273 C1287 0.931 . S
H1274 C1289 0.930 . S
C1275 H1263 0.930 . S
C1275 C1276 1.399 . S
C1275 C1280 1.399 . S
C1276 C1275 1.399 . S
C1276 C1277 1.376 . S
C1277 H1264 0.930 . S
C1277 C1276 1.376 . S
C1277 C1278 1.388 . S
C1278 H1265 0.930 . S
C1278 C1277 1.388 . S
C1278 C1279 1.390 . S
C1279 C1278 1.390 . S
C1279 C1280 1.394 . S
C1279 C1285 1.465 . S
C1280 C1275 1.399 . S
C1280 C1279 1.394 . S
C1280 C1281 1.516 . S
C1281 C1280 1.516 . S
C1281 C1282 1.502 . S
C1281 C1283 1.561 . S
C1281 C1284 1.526 . S
C1282 H1266 0.959 . S
C1282 H1267 0.959 . S
C1282 H1268 0.961 . S
C1282 C1281 1.502 . S
C1283 H1269 0.960 . S
C1283 H1270 0.961 . S
C1283 H1271 0.959 . S
C1283 C1281 1.561 . S
C1284 C1281 1.526 . S
C1284 C1285 1.396 . S
C1284 C1289 1.390 . S
C1285 C1279 1.465 . S
C1285 C1284 1.396 . S
C1285 C1286 1.399 . S
C1286 H1272 0.929 . S
C1286 C1285 1.399 . S
C1286 C1287 1.385 . S
C1287 H1273 0.931 . S
C1287 C1286 1.385 . S
C1287 C1288 1.389 . S
C1288 C1287 1.389 . S
C1288 C1289 1.387 . S
C1289 H1274 0.930 . S
C1289 C1284 1.390 . S
C1289 C1288 1.387 . S
H1290 C1302 0.930 . S
H1291 C1304 0.930 . S
H1292 C1305 0.930 . S
H1293 C1309 0.959 . S
H1294 C1309 0.954 1_655 S
H1295 C1309 0.961 . S
H1296 C1310 0.960 . S
H1297 C1310 0.961 1_655 S
H1298 C1310 0.959 . S
H1299 C1313 0.929 1_455 S
H1300 C1314 0.931 . S
H1301 C1316 0.930 . S
C1302 H1290 0.930 . S
C1302 C1303 1.399 . S
C1302 C1307 1.399 . S
C1303 C1302 1.399 . S
C1303 C1304 1.376 . S
C1304 H1291 0.930 . S
C1304 C1303 1.376 . S
C1304 C1305 1.388 . S
C1305 H1292 0.930 . S
C1305 C1304 1.388 . S
C1305 C1306 1.390 . S
C1306 C1305 1.390 . S
C1306 C1307 1.394 . S
C1306 C1312 1.465 . S
C1307 C1302 1.399 . S
C1307 C1306 1.394 . S
C1307 C1308 1.516 . S
C1308 C1307 1.516 . S
C1308 C1309 1.502 . S
C1308 C1310 1.561 . S
C1308 C1311 1.526 1_455 S
C1309 H1293 0.959 . S
C1309 H1294 0.954 1_455 S
C1309 H1295 0.961 . S
C1309 C1308 1.502 . S
C1310 H1296 0.960 . S
C1310 H1297 0.961 1_455 S
C1310 H1298 0.959 . S
C1310 C1308 1.561 . S
C1311 C1308 1.526 1_655 S
C1311 C1312 1.396 1_655 S
C1311 C1316 1.390 . S
C1312 C1306 1.465 . S
C1312 C1311 1.396 1_455 S
C1312 C1313 1.399 1_455 S
C1313 H1299 0.929 1_655 S
C1313 C1312 1.399 1_655 S
C1313 C1314 1.385 . S
C1314 H1300 0.931 . S
C1314 C1313 1.385 . S
C1314 C1315 1.389 . S
C1315 C1314 1.389 . S
C1315 C1316 1.387 . S
C1316 H1301 0.930 . S
C1316 C1311 1.390 . S
C1316 C1315 1.387 . S
H1317 C1329 0.930 . S
H1318 C1331 0.930 . S
H1319 C1332 0.930 . S
H1320 C1336 0.959 . S
H1321 C1336 0.959 . S
H1322 C1336 0.961 . S
H1323 C1337 0.960 . S
H1324 C1337 0.961 . S
H1325 C1337 0.959 . S
H1326 C1340 0.929 . S
H1327 C1341 0.931 . S
H1328 C1343 0.930 . S
C1329 H1317 0.930 . S
C1329 C1330 1.399 . S
C1329 C1334 1.399 . S
C1330 C1329 1.399 . S
C1330 C1331 1.376 . S
C1331 H1318 0.930 . S
C1331 C1330 1.376 . S
C1331 C1332 1.388 . S
C1332 H1319 0.930 . S
C1332 C1331 1.388 . S
C1332 C1333 1.390 . S
C1333 C1332 1.390 . S
C1333 C1334 1.394 . S
C1333 C1339 1.465 . S
C1334 C1329 1.399 . S
C1334 C1333 1.394 . S
C1334 C1335 1.516 . S
C1335 C1334 1.516 . S
C1335 C1336 1.502 . S
C1335 C1337 1.561 . S
C1335 C1338 1.526 . S
C1336 H1320 0.959 . S
C1336 H1321 0.959 . S
C1336 H1322 0.961 . S
C1336 C1335 1.502 . S
C1337 H1323 0.960 . S
C1337 H1324 0.961 . S
C1337 H1325 0.959 . S
C1337 C1335 1.561 . S
C1338 C1335 1.526 . S
C1338 C1339 1.396 . S
C1338 C1343 1.390 . S
C1339 C1333 1.465 . S
C1339 C1338 1.396 . S
C1339 C1340 1.399 . S
C1340 H1326 0.929 . S
C1340 C1339 1.399 . S
C1340 C1341 1.385 . S
C1341 H1327 0.931 . S
C1341 C1340 1.385 . S
C1341 C1342 1.389 . S
C1342 C1341 1.389 . S
C1342 C1343 1.387 . S
C1343 H1328 0.930 . S
C1343 C1338 1.390 . S
C1343 C1342 1.387 . S
H1344 C1356 0.930 . S
H1345 C1358 0.930 . S
H1346 C1359 0.930 . S
H1347 C1363 0.959 . S
H1348 C1363 0.959 . S
H1349 C1363 0.961 . S
H1350 C1364 0.960 . S
H1351 C1364 0.961 . S
H1352 C1364 0.959 . S
H1353 C1367 0.929 . S
H1354 C1368 0.931 . S
H1355 C1370 0.930 . S
C1356 H1344 0.930 . S
C1356 C1357 1.399 . S
C1356 C1361 1.399 . S
C1357 C1356 1.399 . S
C1357 C1358 1.376 . S
C1358 H1345 0.930 . S
C1358 C1357 1.376 . S
C1358 C1359 1.388 . S
C1359 H1346 0.930 . S
C1359 C1358 1.388 . S
C1359 C1360 1.390 . S
C1360 C1359 1.390 . S
C1360 C1361 1.394 . S
C1360 C1366 1.465 . S
C1361 C1356 1.399 . S
C1361 C1360 1.394 . S
C1361 C1362 1.516 . S
C1362 C1361 1.516 . S
C1362 C1363 1.502 . S
C1362 C1364 1.561 . S
C1362 C1365 1.526 . S
C1363 H1347 0.959 . S
C1363 H1348 0.959 . S
C1363 H1349 0.961 . S
C1363 C1362 1.502 . S
C1364 H1350 0.960 . S
C1364 H1351 0.961 . S
C1364 H1352 0.959 . S
C1364 C1362 1.561 . S
C1365 C1362 1.526 . S
C1365 C1366 1.396 . S
C1365 C1370 1.390 . S
C1366 C1360 1.465 . S
C1366 C1365 1.396 . S
C1366 C1367 1.399 . S
C1367 H1353 0.929 . S
C1367 C1366 1.399 . S
C1367 C1368 1.385 . S
C1368 H1354 0.931 . S
C1368 C1367 1.385 . S
C1368 C1369 1.389 . S
C1369 C1368 1.389 . S
C1369 C1370 1.387 . S
C1370 H1355 0.930 . S
C1370 C1365 1.390 . S
C1370 C1369 1.387 . S
H1371 C1383 0.930 . S
H1372 C1385 0.930 . S
H1373 C1386 0.930 . S
H1374 C1390 0.959 . S
H1375 C1390 0.959 . S
H1376 C1390 0.961 . S
H1377 C1391 0.960 . S
H1378 C1391 0.961 . S
H1379 C1391 0.959 . S
H1380 C1394 0.929 . S
H1381 C1395 0.931 . S
H1382 C1397 0.930 . S
C1383 H1371 0.930 . S
C1383 C1384 1.399 . S
C1383 C1388 1.399 . S
C1384 C1383 1.399 . S
C1384 C1385 1.376 . S
C1385 H1372 0.930 . S
C1385 C1384 1.376 . S
C1385 C1386 1.388 . S
C1386 H1373 0.930 . S
C1386 C1385 1.388 . S
C1386 C1387 1.390 . S
C1387 C1386 1.390 . S
C1387 C1388 1.394 . S
C1387 C1393 1.465 . S
C1388 C1383 1.399 . S
C1388 C1387 1.394 . S
C1388 C1389 1.516 . S
C1389 C1388 1.516 . S
C1389 C1390 1.502 . S
C1389 C1391 1.561 . S
C1389 C1392 1.526 . S
C1390 H1374 0.959 . S
C1390 H1375 0.959 . S
C1390 H1376 0.961 . S
C1390 C1389 1.502 . S
C1391 H1377 0.960 . S
C1391 H1378 0.961 . S
C1391 H1379 0.959 . S
C1391 C1389 1.561 . S
C1392 C1389 1.526 . S
C1392 C1393 1.396 . S
C1392 C1397 1.390 . S
C1393 C1387 1.465 . S
C1393 C1392 1.396 . S
C1393 C1394 1.399 . S
C1394 H1380 0.929 . S
C1394 C1393 1.399 . S
C1394 C1395 1.385 . S
C1395 H1381 0.931 . S
C1395 C1394 1.385 . S
C1395 C1396 1.389 . S
C1396 C1395 1.389 . S
C1396 C1397 1.387 . S
C1397 H1382 0.930 . S
C1397 C1392 1.390 . S
C1397 C1396 1.387 . S
H1398 C1410 0.930 . S
H1399 C1412 0.930 . S
H1400 C1413 0.930 . S
H1401 C1417 0.959 . S
H1402 C1417 0.959 . S
H1403 C1417 0.961 . S
H1404 C1418 0.960 . S
H1405 C1418 0.961 . S
H1406 C1418 0.959 . S
H1407 C1421 0.929 . S
H1408 C1422 0.931 . S
H1409 C1424 0.930 . S
C1410 H1398 0.930 . S
C1410 C1411 1.399 . S
C1410 C1415 1.399 . S
C1411 C1410 1.399 . S
C1411 C1412 1.376 . S
C1412 H1399 0.930 . S
C1412 C1411 1.376 . S
C1412 C1413 1.388 . S
C1413 H1400 0.930 . S
C1413 C1412 1.388 . S
C1413 C1414 1.390 . S
C1414 C1413 1.390 . S
C1414 C1415 1.394 . S
C1414 C1420 1.465 . S
C1415 C1410 1.399 . S
C1415 C1414 1.394 . S
C1415 C1416 1.516 . S
C1416 C1415 1.516 . S
C1416 C1417 1.502 . S
C1416 C1418 1.561 . S
C1416 C1419 1.526 . S
C1417 H1401 0.959 . S
C1417 H1402 0.959 . S
C1417 H1403 0.961 . S
C1417 C1416 1.502 . S
C1418 H1404 0.960 . S
C1418 H1405 0.961 . S
C1418 H1406 0.959 . S
C1418 C1416 1.561 . S
C1419 C1416 1.526 . S
C1419 C1420 1.396 . S
C1419 C1424 1.390 . S
C1420 C1414 1.465 . S
C1420 C1419 1.396 . S
C1420 C1421 1.399 . S
C1421 H1407 0.929 . S
C1421 C1420 1.399 . S
C1421 C1422 1.385 . S
C1422 H1408 0.931 . S
C1422 C1421 1.385 . S
C1422 C1423 1.389 . S
C1423 C1422 1.389 . S
C1423 C1424 1.387 . S
C1424 H1409 0.930 . S
C1424 C1419 1.390 . S
C1424 C1423 1.387 . S
H1425 C1437 0.930 . S
H1426 C1439 0.930 . S
H1427 C1440 0.930 . S
H1428 C1444 0.959 . S
H1429 C1444 0.959 . S
H1430 C1444 0.961 . S
H1431 C1445 0.960 . S
H1432 C1445 0.961 . S
H1433 C1445 0.959 . S
H1434 C1448 0.929 1_655 S
H1435 C1449 0.931 . S
H1436 C1451 0.930 . S
C1437 H1425 0.930 . S
C1437 C1438 1.399 . S
C1437 C1442 1.399 . S
C1438 C1437 1.399 . S
C1438 C1439 1.376 . S
C1439 H1426 0.930 . S
C1439 C1438 1.376 . S
C1439 C1440 1.388 . S
C1440 H1427 0.930 . S
C1440 C1439 1.388 . S
C1440 C1441 1.390 . S
C1441 C1440 1.390 . S
C1441 C1442 1.394 . S
C1441 C1447 1.465 . S
C1442 C1437 1.399 . S
C1442 C1441 1.394 . S
C1442 C1443 1.516 . S
C1443 C1442 1.516 . S
C1443 C1444 1.502 . S
C1443 C1445 1.561 . S
C1443 C1446 1.526 . S
C1444 H1428 0.959 . S
C1444 H1429 0.959 . S
C1444 H1430 0.961 . S
C1444 C1443 1.502 . S
C1445 H1431 0.960 . S
C1445 H1432 0.961 . S
C1445 H1433 0.959 . S
C1445 C1443 1.561 . S
C1446 C1443 1.526 . S
C1446 C1447 1.396 . S
C1446 C1451 1.390 1_655 S
C1447 C1441 1.465 . S
C1447 C1446 1.396 . S
C1447 C1448 1.399 1_655 S
C1448 H1434 0.929 1_455 S
C1448 C1447 1.399 1_455 S
C1448 C1449 1.385 . S
C1449 H1435 0.931 . S
C1449 C1448 1.385 . S
C1449 C1450 1.389 . S
C1450 C1449 1.389 . S
C1450 C1451 1.387 . S
C1451 H1436 0.930 . S
C1451 C1446 1.390 1_455 S
C1451 C1450 1.387 . S
C493 C19 1.609 . S
C505 C458 1.692 . S
C520 C378 1.657 . S
C532 C58 1.687 . S
C547 C99 1.426 . S
C559 C339 1.433 . S
C574 C138 1.622 . S
C586 C418 1.645 . S
C601 C178 2.042 . S
C613 C419 1.924 . S
C628 C219 1.306 . S
C640 C459 1.296 . S
C655 C379 1.780 . S
C667 C258 1.851 . S
C682 C298 1.345 . S
C694 C338 1.360 . S
C709 C139 1.858 . S
C721 C179 1.845 . S
C736 C18 1.795 . S
C748 C218 1.805 . S
C763 C59 1.429 . S
C775 C259 1.465 . S
C790 C299 1.714 . S
C802 C98 1.763 . S
C817 C15 2.634 . S
C829 C330 2.797 . S
C844 C46 1.090 . S
C856 C409 1.086 . S
C871 C449 1.582 . S
C883 C95 1.742 . S
C898 C126 1.403 . S
C910 C369 1.312 . S
C925 C166 1.496 . S
C937 C370 1.503 . S
C952 C329 1.690 . S
C964 C215 1.793 . S
C979 C410 1.952 . S
C991 C246 1.966 . S
C1006 C450 1.781 . S
C1018 C286 1.795 . S
C1033 C9 1.542 . S
C1045 C135 1.574 . S
C1060 C6 2.227 . S
C1072 C50 2.174 . S
C1087 C55 2.000 . S
C1099 C89 1.930 . S
C1114 C130 1.911 . S
C1126 C86 1.932 . S
C1141 C206 1.042 . S
C1153 C170 0.987 . S
C1168 C209 1.703 . S
C1180 C255 1.814 . S
C1195 C250 1.376 . S
C1207 C295 1.264 . S
C1222 C175 1.710 . S
C1234 C290 1.834 . S
C1249 C326 1.230 . S
C1261 C129 1.093 . S
C1276 C210 1.633 . S
C1288 C366 1.670 . S
C1303 C335 2.010 . S
C1315 C249 1.857 . S
C1330 C406 1.595 . S
C1342 C289 1.514 . S
C1357 C169 0.804 . S
C1369 C446 0.721 . S
C1384 C455 1.511 . S
C1396 C49 1.548 . S
C1411 C90 1.381 . S
C1423 C375 1.279 . S
C1438 C415 1.845 . S
C1450 C10 1.924 . S
