# Generated by pormake.
# Topology uki, (4)-cn, num edge types: 1
# Building blocks:
#     Node 0, Type 0, BuildingBlock: KOZSID_clean_sbu_0, # of connection points: 4
#     Node 1, Type 0, BuildingBlock: KOZSID_clean_sbu_0, # of connection points: 4
#     Node 2, Type 0, BuildingBlock: KOZSID_clean_sbu_0, # of connection points: 4
#     Node 3, Type 0, BuildingBlock: KOZSID_clean_sbu_0, # of connection points: 4
#     Node 4, Type 0, BuildingBlock: KOZSID_clean_sbu_0, # of connection points: 4
#     Node 5, Type 0, BuildingBlock: KOZSID_clean_sbu_0, # of connection points: 4
#     Node 6, Type 0, BuildingBlock: KOZSID_clean_sbu_0, # of connection points: 4
#     Node 7, Type 0, BuildingBlock: KOZSID_clean_sbu_0, # of connection points: 4
#     Node 8, Type 0, BuildingBlock: KOZSID_clean_sbu_0, # of connection points: 4
#     Node 9, Type 0, BuildingBlock: KOZSID_clean_sbu_0, # of connection points: 4
#     Node 10, Type 0, BuildingBlock: KOZSID_clean_sbu_0, # of connection points: 4
#     Node 11, Type 0, BuildingBlock: KOZSID_clean_sbu_0, # of connection points: 4
#     Node 12, Type 0, BuildingBlock: KOZSID_clean_sbu_0, # of connection points: 4
#     Node 13, Type 0, BuildingBlock: KOZSID_clean_sbu_0, # of connection points: 4
#     Node 14, Type 0, BuildingBlock: KOZSID_clean_sbu_0, # of connection points: 4
#     Node 15, Type 0, BuildingBlock: KOZSID_clean_sbu_0, # of connection points: 4
#     Edge 16, Type (0, 0), BuildingBlock: EZIPEK_clean_linker_0, # of connection points: 2
#     Edge 17, Type (0, 0), BuildingBlock: EZIPEK_clean_linker_0, # of connection points: 2
#     Edge 18, Type (0, 0), BuildingBlock: EZIPEK_clean_linker_0, # of connection points: 2
#     Edge 19, Type (0, 0), BuildingBlock: EZIPEK_clean_linker_0, # of connection points: 2
#     Edge 20, Type (0, 0), BuildingBlock: EZIPEK_clean_linker_0, # of connection points: 2
#     Edge 21, Type (0, 0), BuildingBlock: EZIPEK_clean_linker_0, # of connection points: 2
#     Edge 22, Type (0, 0), BuildingBlock: EZIPEK_clean_linker_0, # of connection points: 2
#     Edge 23, Type (0, 0), BuildingBlock: EZIPEK_clean_linker_0, # of connection points: 2
#     Edge 24, Type (0, 0), BuildingBlock: EZIPEK_clean_linker_0, # of connection points: 2
#     Edge 25, Type (0, 0), BuildingBlock: EZIPEK_clean_linker_0, # of connection points: 2
#     Edge 26, Type (0, 0), BuildingBlock: EZIPEK_clean_linker_0, # of connection points: 2
#     Edge 27, Type (0, 0), BuildingBlock: EZIPEK_clean_linker_0, # of connection points: 2
#     Edge 28, Type (0, 0), BuildingBlock: EZIPEK_clean_linker_0, # of connection points: 2
#     Edge 29, Type (0, 0), BuildingBlock: EZIPEK_clean_linker_0, # of connection points: 2
#     Edge 30, Type (0, 0), BuildingBlock: EZIPEK_clean_linker_0, # of connection points: 2
#     Edge 31, Type (0, 0), BuildingBlock: EZIPEK_clean_linker_0, # of connection points: 2
#     Edge 32, Type (0, 0), BuildingBlock: EZIPEK_clean_linker_0, # of connection points: 2
#     Edge 33, Type (0, 0), BuildingBlock: EZIPEK_clean_linker_0, # of connection points: 2
#     Edge 34, Type (0, 0), BuildingBlock: EZIPEK_clean_linker_0, # of connection points: 2
#     Edge 35, Type (0, 0), BuildingBlock: EZIPEK_clean_linker_0, # of connection points: 2
#     Edge 36, Type (0, 0), BuildingBlock: EZIPEK_clean_linker_0, # of connection points: 2
#     Edge 37, Type (0, 0), BuildingBlock: EZIPEK_clean_linker_0, # of connection points: 2
#     Edge 38, Type (0, 0), BuildingBlock: EZIPEK_clean_linker_0, # of connection points: 2
#     Edge 39, Type (0, 0), BuildingBlock: EZIPEK_clean_linker_0, # of connection points: 2
#     Edge 40, Type (0, 0), BuildingBlock: EZIPEK_clean_linker_0, # of connection points: 2
#     Edge 41, Type (0, 0), BuildingBlock: EZIPEK_clean_linker_0, # of connection points: 2
#     Edge 42, Type (0, 0), BuildingBlock: EZIPEK_clean_linker_0, # of connection points: 2
#     Edge 43, Type (0, 0), BuildingBlock: EZIPEK_clean_linker_0, # of connection points: 2
#     Edge 44, Type (0, 0), BuildingBlock: EZIPEK_clean_linker_0, # of connection points: 2
#     Edge 45, Type (0, 0), BuildingBlock: EZIPEK_clean_linker_0, # of connection points: 2
#     Edge 46, Type (0, 0), BuildingBlock: EZIPEK_clean_linker_0, # of connection points: 2
#     Edge 47, Type (0, 0), BuildingBlock: EZIPEK_clean_linker_0, # of connection points: 2
# Relax obj value: 0.126
# Max RMSD: 0.238
# Mean RMSD: 0.238
data_MOF--net-uki--node1-KOZSID_clean_sbu_0--edge1-EZIPEK_clean_linker_0
_symmetry_space_group_name_H-M    P1
_symmetry_Int_Tables_number       1
_symmetry_cell_setting            triclinic
loop_
_symmetry_equiv_pos_as_xyz
'x, y, z'
_cell_length_a     29.459036
_cell_length_b     29.480199
_cell_length_c     66.78773
_cell_angle_alpha  89.972884
_cell_angle_beta   90.089331
_cell_angle_gamma 90.027643
loop_
_atom_site_label
_atom_site_type_symbol
_atom_site_fract_x
_atom_site_fract_y
_atom_site_fract_z
_atom_type_partial_charge
C0 C 0.20295 0.21101 0.33288 0.0
C1 C 0.23665 0.18144 0.32662 0.0
C2 C 0.22145 0.16196 0.30918 0.0
C3 C 0.17958 0.18088 0.30567 0.0
N4 N 0.16767 0.21142 0.31967 0.0
Co5 Co 0.11006 0.24696 0.31989 0.0
N6 N 0.09629 0.23275 0.29128 0.0
C7 C 0.11559 0.19901 0.2807 0.0
C8 C 0.09754 0.19443 0.26185 0.0
C9 C 0.06441 0.22697 0.26051 0.0
C10 C 0.06419 0.24997 0.27864 0.0
N11 N 0.05268 0.28297 0.32024 0.0
C12 C 0.02749 0.29993 0.3049 0.0
C13 C 0.99373 0.3286 0.31203 0.0
C14 C 0.99619 0.32746 0.33244 0.0
C15 C 0.03189 0.2993 0.33669 0.0
N16 N 0.12295 0.26087 0.34855 0.0
C17 C 0.09282 0.27693 0.36192 0.0
C18 C 0.11024 0.28131 0.38087 0.0
C19 C 0.15416 0.26683 0.37947 0.0
C20 C 0.16107 0.25458 0.35963 0.0
N21 N 0.14397 0.30122 0.31124 0.0
C22 C 0.18545 0.37864 0.29473 0.0
C23 C 0.15704 0.38217 0.31154 0.0
C24 C 0.13676 0.34297 0.31962 0.0
C25 C 0.19457 0.33549 0.28715 0.0
C26 C 0.17367 0.29747 0.29557 0.0
N27 N 0.0769 0.19154 0.32793 0.0
C28 C 0.07802 0.11754 0.3436 0.0
C29 C 0.04029 0.10389 0.33232 0.0
C30 C 0.01937 0.13593 0.31992 0.0
C31 C 0.03789 0.17953 0.31812 0.0
C32 C 0.0957 0.16148 0.34123 0.0
H33 H 0.02205 0.20267 0.30789 0.0
H34 H 0.12595 0.1702 0.34945 0.0
H35 H 0.11406 0.34666 0.33216 0.0
H36 H 0.18037 0.26513 0.28877 0.0
C37 C 0.15337 0.17563 0.28828 0.0
C38 C 0.20347 0.23467 0.35231 0.0
C39 C 0.03043 0.28517 0.28383 0.0
C40 C 0.05106 0.29372 0.3556 0.0
H41 H 0.26839 0.17402 0.3341 0.0
H42 H 0.23934 0.13772 0.29993 0.0
H43 H 0.10758 0.17064 0.25035 0.0
H44 H 0.04241 0.23258 0.24777 0.0
H45 H 0.96919 0.3478 0.30345 0.0
H46 H 0.97553 0.34639 0.3429 0.0
H47 H 0.09345 0.2947 0.39401 0.0
H48 H 0.17824 0.26517 0.39171 0.0
H49 H 0.14901 0.41511 0.31777 0.0
H50 H 0.21608 0.33138 0.27414 0.0
H51 H 0.09488 0.0938 0.35351 0.0
H52 H 0.98984 0.1268 0.31112 0.0
C53 C 0.29476 1.00141 0.7237 0.0
C54 C 0.3151 0.04106 0.71695 0.0
C55 C 0.31243 0.04036 0.69647 0.0
C56 C 0.29095 1.00039 0.69186 0.0
N57 N 0.28012 0.97572 0.70812 0.0
Co58 Co 0.25016 0.9152 0.7081 0.0
N59 N 0.26369 0.9057 0.67922 0.0
C60 C 0.27541 0.93837 0.66609 0.0
C61 C 0.28022 0.92274 0.64687 0.0
C62 C 0.27043 0.87742 0.64786 0.0
C63 C 0.26025 0.86793 0.66772 0.0
N64 N 0.2208 0.85425 0.70815 0.0
C65 C 0.22289 0.82005 0.69452 0.0
C66 C 0.19715 0.78318 0.70068 0.0
C67 C 0.17732 0.79523 0.71846 0.0
C68 C 0.19227 0.8385 0.72228 0.0
N69 N 0.2357 0.92551 0.73682 0.0
C70 C 0.20426 0.9029 0.7475 0.0
C71 C 0.20123 0.91782 0.76694 0.0
C72 C 0.23255 0.95209 0.76854 0.0
C73 C 0.25304 0.9561 0.74994 0.0
N74 N 0.19177 0.94326 0.70079 0.0
C75 C 0.10339 0.97683 0.69506 0.0
C76 C 0.1175 0.93666 0.68578 0.0
C77 C 0.162 0.92114 0.68844 0.0
C78 C 0.13534 1.00119 0.70633 0.0
C79 C 0.17891 0.98347 0.70929 0.0
N80 N 0.30805 0.88712 0.71584 0.0
C81 C 0.34996 0.84197 0.73958 0.0
C82 C 0.391 0.85351 0.7304 0.0
C83 C 0.38958 0.88081 0.71319 0.0
C84 C 0.34776 0.89768 0.70628 0.0
C85 C 0.30909 0.85853 0.73197 0.0
H86 H 0.34763 0.91996 0.69346 0.0
H87 H 0.27833 0.84897 0.73953 0.0
H88 H 0.17172 0.89036 0.68101 0.0
H89 H 0.20161 1.00165 0.71903 0.0
C90 C 0.28672 0.98188 0.67271 0.0
C91 C 0.28654 0.99118 0.74492 0.0
C92 C 0.24413 0.8235 0.67465 0.0
C93 C 0.18457 0.86325 0.73986 0.0
H94 H 0.32997 0.06788 0.72586 0.0
H95 H 0.32599 0.06528 0.68618 0.0
H96 H 0.2904 0.9418 0.63377 0.0
H97 H 0.27005 0.85421 0.63531 0.0
H98 H 0.19211 0.75147 0.69283 0.0
H99 H 0.15522 0.7746 0.72765 0.0
H100 H 0.1801 0.90426 0.77876 0.0
H101 H 0.23945 0.97196 0.78183 0.0
H102 H 0.09405 0.91699 0.67679 0.0
H103 H 0.12596 0.03265 0.71361 0.0
H104 H 0.34953 0.82048 0.75275 0.0
H105 H 0.42061 0.88994 0.7055 0.0
C106 C 0.82361 0.79767 0.33712 0.0
C107 C 0.77988 0.8112 0.33216 0.0
C108 C 0.77779 0.81282 0.31173 0.0
C109 C 0.82009 0.80005 0.30533 0.0
N110 N 0.8492 0.79095 0.32039 0.0
Co111 Co 0.91305 0.7685 0.3172 0.0
N112 N 0.9135 0.78198 0.28779 0.0
C113 C 0.87716 0.79372 0.27666 0.0
C114 C 0.88735 0.80176 0.25694 0.0
C115 C 0.9329 0.79378 0.25533 0.0
C116 C 0.94784 0.7808 0.27419 0.0
N117 N 0.97701 0.74622 0.31412 0.0
C118 C 1.0055 0.74693 0.29808 0.0
C119 C 0.04628 0.72538 0.3025 0.0
C120 C 0.04321 0.71033 0.32177 0.0
C121 C 1.0009 0.7232 0.32804 0.0
N122 N 0.91252 0.75484 0.34658 0.0
C123 C 0.94441 0.73133 0.35669 0.0
C124 C 0.9364 0.72854 0.37686 0.0
C125 C 0.89661 0.75125 0.37978 0.0
C126 C 0.88229 0.76624 0.36111 0.0
N127 N 0.88969 0.70686 0.3113 0.0
C128 C 0.84867 0.62639 0.29757 0.0
C129 C 0.89024 0.64088 0.28985 0.0
C130 C 0.9103 0.68058 0.29709 0.0
C131 C 0.82973 0.65095 0.31343 0.0
C132 C 0.85061 0.69113 0.31994 0.0
N133 N 0.93611 0.83031 0.32269 0.0
C134 C 0.99056 0.88092 0.33816 0.0
C135 C 0.97125 0.91832 0.32842 0.0
C136 C 0.93359 0.91097 0.31609 0.0
C137 C 0.91665 0.86697 0.31343 0.0
C138 C 0.97241 0.83732 0.33518 0.0
H139 H 0.88808 0.86283 0.3036 0.0
H140 H 0.98823 0.80936 0.34281 0.0
H141 H 0.94176 0.69046 0.29057 0.0
H142 H 0.83395 0.71029 0.33133 0.0
C143 C 0.83479 0.80012 0.28549 0.0
C144 C 0.83762 0.78693 0.35773 0.0
C145 C 0.99304 0.76139 0.27772 0.0
C146 C 0.98375 0.71672 0.34721 0.0
H147 H 0.75202 0.81814 0.34224 0.0
H148 H 0.74892 0.82247 0.30263 0.0
H149 H 0.8644 0.81219 0.24513 0.0
H150 H 0.95255 0.79527 0.24166 0.0
H151 H 0.07476 0.71947 0.29265 0.0
H152 H 0.0687 0.69193 0.33016 0.0
H153 H 0.95746 0.71267 0.38816 0.0
H154 H 0.87957 0.75546 0.39401 0.0
H155 H 0.90647 0.62241 0.27781 0.0
H156 H 0.79782 0.64046 0.32002 0.0
H157 H 0.01974 0.88532 0.34785 0.0
H158 H 0.91774 0.93906 0.3083 0.0
C159 C 0.72614 0.02868 0.72455 0.0
C160 C 0.70139 0.99036 0.71929 0.0
C161 C 0.69738 0.99086 0.6989 0.0
C162 C 0.71998 0.02914 0.69283 0.0
N163 N 0.73783 0.0531 0.70808 0.0
Co164 Co 0.77486 0.10944 0.70547 0.0
N165 N 0.755 0.11918 0.67723 0.0
C166 C 0.73208 0.08913 0.66584 0.0
C167 C 0.71555 0.10759 0.64848 0.0
C168 C 0.72956 0.15176 0.6487 0.0
C169 C 0.75557 0.1575 0.66591 0.0
N170 N 0.81214 0.16568 0.70273 0.0
C171 C 0.81456 0.19658 0.68757 0.0
C172 C 0.85098 0.22586 0.69047 0.0
C173 C 0.87135 0.21349 0.70808 0.0
C174 C 0.84697 0.17698 0.71485 0.0
N175 N 0.79453 0.09945 0.73375 0.0
C176 C 0.83023 0.11952 0.74269 0.0
C177 C 0.83509 0.10732 0.76242 0.0
C178 C 0.80056 0.07727 0.76609 0.0
C179 C 0.77676 0.07241 0.74827 0.0
N180 N 0.82724 0.07347 0.69634 0.0
C181 C 0.91403 0.03578 0.69168 0.0
C182 C 0.88159 1.01474 0.70388 0.0
C183 C 0.83872 0.03441 0.7062 0.0
C184 C 0.90042 0.07321 0.68022 0.0
C185 C 0.85644 0.0906 0.68231 0.0
N186 N 0.72336 0.1457 0.71505 0.0
C187 C 0.69268 0.19755 0.73945 0.0
C188 C 0.64894 0.19187 0.73163 0.0
C189 C 0.64366 0.16434 0.71465 0.0
C190 C 0.68097 0.1407 0.70694 0.0
C191 C 0.72941 0.17512 0.73068 0.0
H192 H 0.67518 0.11765 0.69472 0.0
H193 H 0.7626 0.18074 0.73696 0.0
H194 H 0.81607 0.01949 0.71696 0.0
H195 H 0.84727 0.11971 0.67348 0.0
C196 C 0.71879 0.04728 0.67359 0.0
C197 C 0.74077 0.03844 0.74514 0.0
C198 C 0.78545 0.19705 0.66946 0.0
C199 C 0.85411 0.15403 0.73293 0.0
H200 H 0.68796 0.96446 0.72912 0.0
H201 H 0.67894 0.96694 0.68967 0.0
H202 H 0.69385 0.09155 0.63746 0.0
H203 H 0.72203 0.1765 0.63722 0.0
H204 H 0.86247 0.25276 0.68071 0.0
H205 H 0.90063 0.22913 0.71505 0.0
H206 H 0.85999 0.1197 0.77303 0.0
H207 H 0.79426 0.06008 0.78014 0.0
H208 H 0.89043 0.98514 0.71268 0.0
H209 H 0.92411 0.08995 0.67027 0.0
H210 H 0.69836 0.2188 0.75245 0.0
H211 H 0.61044 0.15936 0.70803 0.0
C212 C 0.21372 0.3094 0.94353 0.0
C213 C 0.25061 0.33516 0.94967 0.0
C214 C 0.23863 0.35493 0.96747 0.0
C215 C 0.19537 0.33993 0.9713 0.0
N216 N 0.17951 0.3115 0.95715 0.0
Co217 Co 0.11867 0.28178 0.95712 0.0
N218 N 0.10845 0.29624 0.98588 0.0
C219 C 0.13157 0.32715 0.99669 0.0
C220 C 0.11725 0.32966 0.01621 0.0
C221 C 0.08269 0.29871 0.01775 0.0
C222 C 0.0777 0.27916 0.99898 0.0
N223 N 0.05829 0.25144 0.95706 0.0
C224 C 0.03182 0.23804 0.97256 0.0
C225 C 0.99164 0.21875 0.96574 0.0
C226 C 0.99296 0.22047 0.94527 0.0
C227 C 0.03365 0.24063 0.94075 0.0
N228 N 0.12816 0.26838 0.92822 0.0
C229 C 0.09557 0.2565 0.91505 0.0
C230 C 0.11128 0.25168 0.89585 0.0
C231 C 0.15659 0.26155 0.89688 0.0
C232 C 0.16598 0.2718 0.91676 0.0
N233 N 0.14726 0.22402 0.96483 0.0
C234 C 0.1813 0.14119 0.97949 0.0
C235 C 0.15446 0.14256 0.9621 0.0
C236 C 0.13725 0.18427 0.95518 0.0
C237 C 0.19224 0.18232 0.98876 0.0
C238 C 0.1756 0.22309 0.98107 0.0
N239 N 0.08997 0.33993 0.94992 0.0
C240 C 0.03082 0.39502 0.95559 0.0
C241 C 0.05448 0.42759 0.94446 0.0
C242 C 0.09505 0.41455 0.93517 0.0
C243 C 0.11162 0.37034 0.93772 0.0
C244 C 0.04943 0.35189 0.9584 0.0
H245 H 0.14276 0.36136 0.93035 0.0
H246 H 0.03157 0.32886 0.96805 0.0
H247 H 0.11518 0.18427 0.94228 0.0
H248 H 0.18495 0.25384 0.98868 0.0
C249 C 0.17101 0.34708 0.989 0.0
C250 C 0.21042 0.28769 0.92376 0.0
C251 C 0.04126 0.24727 0.99374 0.0
C252 C 0.05212 0.24497 0.92162 0.0
H253 H 0.28237 0.34009 0.94185 0.0
H254 H 0.25938 0.37686 0.97671 0.0
H255 H 0.13133 0.35028 0.0281 0.0
H256 H 0.06309 0.29168 0.03108 0.0
H257 H 0.96387 0.20566 0.97463 0.0
H258 H 0.96765 0.20773 0.93494 0.0
H259 H 0.09228 0.24134 0.88273 0.0
H260 H 0.17989 0.26184 0.88437 0.0
H261 H 0.14585 0.11155 0.95428 0.0
H262 H 0.21342 0.18292 1.00204 0.0
H263 H 0.99916 0.4036 0.96289 0.0
H264 H 0.11421 0.43859 0.92629 0.0
C265 C 0.24049 1.00617 0.04954 0.0
C266 C 0.22205 0.04745 0.05536 0.0
C267 C 0.22273 0.0481 0.07584 0.0
C268 C 0.24149 1.0074 0.08138 0.0
N269 N 0.25251 0.98094 0.0657 0.0
Co270 Co 0.28143 0.92003 0.06727 0.0
N271 N 0.26612 0.91356 0.09623 0.0
C272 C 0.25322 0.94746 0.10849 0.0
C273 C 0.24666 0.93379 0.1279 0.0
C274 C 0.25659 0.88847 0.12803 0.0
C275 C 0.26868 0.87702 0.10859 0.0
N276 N 0.31085 0.85921 0.06895 0.0
C277 C 0.30946 0.82714 0.0836 0.0
C278 C 0.33601 0.78997 0.07862 0.0
C279 C 0.35556 0.79956 0.0605 0.0
C280 C 0.33972 0.84177 0.05535 0.0
N281 N 0.29671 0.92683 0.03831 0.0
C282 C 0.32734 0.90198 0.02818 0.0
C283 C 0.33003 0.91361 1.0083 0.0
C284 C 0.29946 0.94823 1.00578 0.0
C285 C 0.27991 0.95594 0.02435 0.0
N286 N 0.33975 0.94853 0.07444 0.0
C287 C 0.42803 0.98167 0.08102 0.0
C288 C 0.40072 0.99947 0.06574 0.0
C289 C 0.35653 0.98321 0.06301 0.0
C290 C 0.40927 0.94866 0.09364 0.0
C291 C 0.3655 0.93206 0.0899 0.0
N292 N 0.22353 0.89151 0.05961 0.0
C293 C 0.18225 0.8458 0.03584 0.0
C294 C 0.14072 0.85908 0.04411 0.0
C295 C 0.14165 0.88707 0.06113 0.0
C296 C 0.18337 0.90363 0.06841 0.0
C297 C 0.22295 0.86147 0.04401 0.0
H298 H 0.18305 0.92699 0.08082 0.0
H299 H 0.25399 0.85022 0.03719 0.0
H300 H 0.33649 0.99786 0.05121 0.0
H301 H 0.35314 0.90507 0.09922 0.0
C302 C 0.24349 0.99046 0.10087 0.0
C303 C 0.24891 0.99381 0.02859 0.0
C304 C 0.28693 0.83243 0.1031 0.0
C305 C 0.347 0.86367 0.03702 0.0
H306 H 0.20978 0.07447 0.04581 0.0
H307 H 0.20988 0.07456 0.08553 0.0
H308 H 0.23557 0.95422 0.14043 0.0
H309 H 0.2562 0.86663 0.14106 0.0
H310 H 0.34147 0.75957 0.08738 0.0
H311 H 0.37803 0.77795 0.05196 0.0
H312 H 0.3506 0.89782 0.99684 0.0
H313 H 0.2928 0.96621 0.99195 0.0
H314 H 0.41365 0.02546 0.0558 0.0
H315 H 0.42903 0.93445 0.10581 0.0
H316 H 0.18327 0.82354 0.02294 0.0
H317 H 0.11033 0.89732 0.06829 0.0
C318 C 0.8302 0.73371 0.93733 0.0
C319 C 0.79223 0.70841 0.94249 0.0
C320 C 0.80182 0.68796 0.96045 0.0
C321 C 0.84477 0.70219 0.9654 0.0
N322 N 0.86264 0.73082 0.95182 0.0
Co323 Co 0.92337 0.76047 0.95376 0.0
N324 N 0.92967 0.74525 0.9827 0.0
C325 C 0.90511 0.71397 0.99263 0.0
C326 C 0.91646 0.71106 0.01254 0.0
C327 C 0.95055 0.74215 0.01528 0.0
C328 C 0.95832 0.76218 0.9968 0.0
N329 N 0.98355 0.79097 0.95566 0.0
C330 C 1.00773 0.8041 0.97198 0.0
C331 C 0.04874 0.8236 0.9664 0.0
C332 C 0.05033 0.82233 0.94592 0.0
C333 C 1.01041 0.8022 0.94015 0.0
N334 N 0.91786 0.77464 0.92469 0.0
C335 C 0.95236 0.78673 0.91258 0.0
C336 C 0.93961 0.79178 0.89295 0.0
C337 C 0.89426 0.78187 0.89255 0.0
C338 C 0.88181 0.77142 0.91207 0.0
N339 N 0.89361 0.81779 0.96095 0.0
C340 C 0.85841 0.89983 0.97566 0.0
C341 C 0.88654 0.89927 0.95868 0.0
C342 C 0.90447 0.85789 0.95178 0.0
C343 C 0.84655 0.85832 0.98432 0.0
C344 C 0.86359 0.81798 0.97655 0.0
N345 N 0.95316 0.70254 0.94717 0.0
C346 C 0.94966 0.62782 0.93246 0.0
C347 C 0.98871 0.61459 0.94296 0.0
C348 C 1.01103 0.64715 0.95463 0.0
C349 C 0.99239 0.69044 0.95679 0.0
C350 C 0.93311 0.67219 0.93441 0.0
H351 H 1.00899 0.71342 0.96691 0.0
H352 H 0.90313 0.68133 0.92616 0.0
H353 H 0.92782 0.85841 0.93936 0.0
H354 H 0.85333 0.78695 0.98366 0.0
C355 C 0.86674 0.69444 0.9837 0.0
C356 C 0.83626 0.75557 0.91761 0.0
C357 C 0.99544 0.79435 0.99285 0.0
C358 C 0.99471 0.79819 0.92051 0.0
H359 H 0.76126 0.70425 0.93396 0.0
H360 H 0.77964 0.6662 0.96909 0.0
H361 H 0.90065 0.69018 0.02389 0.0
H362 H 0.968 0.74896 0.02923 0.0
H363 H 0.0752 0.83652 0.97611 0.0
H364 H 0.07702 0.83533 0.93639 0.0
H365 H 0.96055 0.80227 0.88048 0.0
H366 H 0.87298 0.78171 0.87933 0.0
H367 H 0.89579 0.93062 0.95128 0.0
H368 H 0.82435 0.85707 0.99723 0.0
H369 H 0.93158 0.60379 0.92313 0.0
H370 H 0.04151 0.63843 0.96287 0.0
C371 C 0.80226 0.02724 0.04788 0.0
C372 C 0.82358 0.98658 0.05256 0.0
C373 C 0.82642 0.98463 0.07299 0.0
C374 C 0.80661 0.02393 0.07965 0.0
N375 N 0.79162 0.05067 0.0647 0.0
Co376 Co 0.7594 0.10945 0.06798 0.0
N377 N 0.77913 0.1154 0.09643 0.0
C378 C 0.79924 0.08282 0.10747 0.0
C379 C 0.81718 0.09889 0.12504 0.0
C380 C 0.807 0.14415 0.12528 0.0
C381 C 0.78165 0.15303 0.10815 0.0
N382 N 0.72601 0.16763 0.07144 0.0
C383 C 0.72478 0.1968 0.08723 0.0
C384 C 0.68956 0.22781 0.08497 0.0
C385 C 0.6689 0.21842 0.06709 0.0
C386 C 0.69184 0.18183 0.05955 0.0
N387 N 0.74039 0.10393 0.03939 0.0
C388 C 0.70654 0.12712 0.03055 0.0
C389 C 0.70199 0.11736 1.01055 0.0
C390 C 0.73479 0.08562 1.00658 0.0
C391 C 0.75728 0.07754 0.0245 0.0
N392 N 0.7042 0.07675 0.07621 0.0
C393 C 0.61672 0.04184 0.08264 0.0
C394 C 0.64369 0.02589 0.06692 0.0
C395 C 0.68752 0.04289 0.06429 0.0
C396 C 0.6359 0.07303 0.09608 0.0
C397 C 0.67947 0.09043 0.09247 0.0
N398 N 0.81422 0.14197 0.05934 0.0
C399 C 0.85075 0.19073 0.03531 0.0
C400 C 0.89365 0.1792 0.04286 0.0
C401 C 0.8957 0.1508 0.05966 0.0
C402 C 0.85582 0.13161 0.06731 0.0
C403 C 0.81158 0.17274 0.04406 0.0
H404 H 0.85897 0.10745 0.07929 0.0
H405 H 0.77917 0.18257 0.03797 0.0
H406 H 0.70707 0.03001 0.05196 0.0
H407 H 0.69226 0.11625 0.1024 0.0
C408 C 0.80895 0.04044 0.09919 0.0
C409 C 0.79056 0.04101 0.02738 0.0
C410 C 0.75477 0.19489 0.105 0.0
C411 C 0.68406 0.1616 0.0409 0.0
H412 H 0.83581 0.96098 0.04229 0.0
H413 H 0.84266 0.95854 0.08188 0.0
H414 H 0.83733 0.08046 0.13589 0.0
H415 H 0.81641 0.16751 0.13705 0.0
H416 H 0.67912 0.25405 0.09529 0.0
H417 H 0.64043 0.23609 0.06044 0.0
H418 H 0.67838 0.13224 0.99999 0.0
H419 H 0.74066 0.06938 0.99229 0.0
H420 H 0.63057 1.00111 0.05643 0.0
H421 H 0.61649 0.08548 0.10869 0.0
H422 H 0.84754 0.2133 0.02258 0.0
H423 H 0.92812 0.14179 0.06622 0.0
C424 C 0.70425 0.72866 0.83457 0.0
C425 C 0.74276 0.70413 0.82951 0.0
C426 C 0.73358 0.68305 0.81164 0.0
C427 C 0.69029 0.69614 0.80664 0.0
N428 N 0.67184 0.72458 0.82013 0.0
Co429 Co 0.61047 0.7525 0.81815 0.0
N430 N 0.60475 0.73745 0.7892 0.0
C431 C 0.63009 0.70695 0.77923 0.0
C432 C 0.61915 0.70446 0.75926 0.0
C433 C 0.58452 0.73501 0.75655 0.0
C434 C 0.57608 0.75435 0.7751 0.0
N435 N 0.54932 0.78065 0.81634 0.0
C436 C 0.5248 0.79324 0.80008 0.0
C437 C 0.48293 0.81077 0.80568 0.0
C438 C 0.48122 0.80882 0.82614 0.0
C439 C 0.5219 0.79027 0.83187 0.0
N440 N 0.61561 0.76708 0.84718 0.0
C441 C 0.5808 0.77777 0.85935 0.0
C442 C 0.59365 0.7839 0.87891 0.0
C443 C 0.63943 0.77619 0.87918 0.0
C444 C 0.652 0.76587 0.85967 0.0
N445 N 0.6386 0.81091 0.81084 0.0
C446 C 0.67239 0.8939 0.79598 0.0
C447 C 0.64382 0.89272 0.81285 0.0
C448 C 0.62657 0.85092 0.8198 0.0
C449 C 0.68513 0.85247 0.78748 0.0
C450 C 0.6689 0.81177 0.79534 0.0
N451 N 0.58246 0.69341 0.82476 0.0
C452 C 0.58492 0.62105 0.84184 0.0
C453 C 0.54925 0.60459 0.82998 0.0
C454 C 0.5293 0.63403 0.81611 0.0
C455 C 0.54612 0.67819 0.81384 0.0
C456 C 0.60097 0.66552 0.83901 0.0
H457 H 0.53047 0.69951 0.80274 0.0
H458 H 0.62917 0.67686 0.84797 0.0
H459 H 0.60295 0.851 0.83213 0.0
H460 H 0.68014 0.78093 0.78838 0.0
C461 C 0.6687 0.68804 0.78825 0.0
C462 C 0.69795 0.7515 0.85405 0.0
C463 C 0.53816 0.78546 0.7792 0.0
C464 C 0.53785 0.78706 0.8515 0.0
H465 H 0.7739 0.70106 0.838 0.0
H466 H 0.75631 0.66181 0.80305 0.0
H467 H 0.63555 0.68424 0.74785 0.0
H468 H 0.56711 0.74188 0.74259 0.0
H469 H 0.45612 0.82305 0.79599 0.0
H470 H 0.45402 0.8206 0.83569 0.0
H471 H 0.57246 0.79366 0.89141 0.0
H472 H 0.66093 0.77727 0.89233 0.0
H473 H 0.63383 0.9239 0.82018 0.0
H474 H 0.70762 0.85149 0.77466 0.0
H475 H 0.60104 0.59932 0.85282 0.0
H476 H 0.50144 0.62265 0.80678 0.0
C477 C 0.78445 0.50382 0.22633 0.0
C478 C 0.80483 0.54527 0.22214 0.0
C479 C 0.80801 0.5483 0.20176 0.0
C480 C 0.78961 0.5087 0.19465 0.0
N481 N 0.77508 0.4808 0.20927 0.0
Co482 Co 0.74639 0.42026 0.20532 0.0
N483 N 0.7678 0.41635 0.17712 0.0
C484 C 0.78853 0.44966 0.16679 0.0
C485 C 0.80889 0.43466 0.14959 0.0
C486 C 0.79999 0.38918 0.14886 0.0
C487 C 0.7729 0.37913 0.1653 0.0
N488 N 0.71503 0.36124 0.20084 0.0
C489 C 0.71581 0.33274 0.18484 0.0
C490 C 0.68175 0.30027 0.18642 0.0
C491 C 0.65992 0.30797 0.20419 0.0
C492 C 0.68104 0.34511 0.2123 0.0
N493 N 0.72692 0.42308 0.2338 0.0
C494 C 0.69433 0.39762 0.24227 0.0
C495 C 0.68857 0.40669 0.26228 0.0
C496 C 0.71936 0.44024 0.26664 0.0
C497 C 0.74207 0.44983 0.24897 0.0
N498 N 0.68952 0.45111 0.19708 0.0
C499 C 0.60042 0.48341 0.19092 0.0
C500 C 0.62753 0.50065 0.20634 0.0
C501 C 0.67184 0.48447 0.20903 0.0
C502 C 0.61984 0.4518 0.17777 0.0
C503 C 0.6645 0.43633 0.18103 0.0
N504 N 0.80288 0.38923 0.21427 0.0
C505 C 0.83937 0.32653 0.23133 0.0
C506 C 0.88041 0.35057 0.23289 0.0
C507 C 0.88233 0.39329 0.22364 0.0
C508 C 0.84411 0.41092 0.21372 0.0
C509 C 0.8009 0.34698 0.22282 0.0
H510 H 0.84809 0.44295 0.20623 0.0
H511 H 0.76939 0.32873 0.2239 0.0
H512 H 0.69105 0.49773 0.22141 0.0
H513 H 0.67801 0.41105 0.17102 0.0
C514 C 0.79526 0.49232 0.17527 0.0
C515 C 0.77371 0.48801 0.24658 0.0
C516 C 0.7474 0.33616 0.16772 0.0
C517 C 0.67289 0.36328 0.23133 0.0
H518 H 0.81699 0.57038 0.23267 0.0
H519 H 0.82441 0.57489 0.19324 0.0
H520 H 0.82968 0.45399 0.13931 0.0
H521 H 0.81154 0.36642 0.13725 0.0
H522 H 0.67319 0.27386 0.17584 0.0
H523 H 0.63224 0.28853 0.21049 0.0
H524 H 0.66518 0.39055 0.27254 0.0
H525 H 0.72373 0.45671 0.281 0.0
H526 H 0.61405 0.52558 0.21665 0.0
H527 H 0.60013 0.43808 0.16549 0.0
H528 H 0.83614 0.29305 0.23787 0.0
H529 H 0.91314 0.41332 0.22422 0.0
C530 C 0.33497 0.29322 0.84053 0.0
C531 C 0.29078 0.30513 0.83554 0.0
C532 C 0.28865 0.30649 0.8151 0.0
C533 C 0.33141 0.29525 0.80873 0.0
N534 N 0.36081 0.28738 0.82382 0.0
Co535 Co 0.42543 0.2673 0.82073 0.0
N536 N 0.42544 0.28051 0.79132 0.0
C537 C 0.38857 0.2898 0.78007 0.0
C538 C 0.39831 0.29668 0.76022 0.0
C539 C 0.44418 0.2906 0.75867 0.0
C540 C 0.45977 0.28007 0.77772 0.0
N541 N 0.49031 0.24794 0.81783 0.0
C542 C 0.51915 0.25117 0.80201 0.0
C543 C 0.56139 0.23294 0.8066 0.0
C544 C 0.55878 0.21697 0.82575 0.0
C545 C 0.51535 0.22633 0.83178 0.0
N546 N 0.42529 0.25344 0.85007 0.0
C547 C 0.45799 0.23111 0.86021 0.0
C548 C 0.44987 0.22776 0.88036 0.0
C549 C 0.40918 0.24883 0.88323 0.0
C550 C 0.39447 0.26343 0.86455 0.0
N551 N 0.40445 0.20478 0.81469 0.0
C552 C 0.36491 0.12625 0.79823 0.0
C553 C 0.40811 0.14034 0.79239 0.0
C554 C 0.42734 0.17909 0.80095 0.0
C555 C 0.34373 0.14947 0.81395 0.0
C556 C 0.36418 0.18847 0.82201 0.0
N557 N 0.4461 0.32998 0.82615 0.0
C558 C 0.49977 0.38247 0.84091 0.0
C559 C 0.48031 0.41877 0.83044 0.0
C560 C 0.44261 0.41004 0.81831 0.0
C561 C 0.4261 0.36566 0.81639 0.0
C562 C 0.48205 0.33847 0.83865 0.0
H563 H 0.39766 0.36034 0.80659 0.0
H564 H 0.49817 0.31134 0.84674 0.0
H565 H 0.45991 0.18905 0.7956 0.0
H566 H 0.34611 0.20642 0.83342 0.0
C567 C 0.346 0.295 0.78887 0.0
C568 C 0.34926 0.2828 0.86113 0.0
C569 C 0.5061 0.26425 0.7816 0.0
C570 C 0.49824 0.21861 0.85087 0.0
H571 H 0.26263 0.31096 0.8456 0.0
H572 H 0.25941 0.31479 0.80598 0.0
H573 H 0.37487 0.30513 0.74829 0.0
H574 H 0.46376 0.292 0.74498 0.0
H575 H 0.59057 0.22996 0.79687 0.0
H576 H 0.58541 0.20055 0.83426 0.0
H577 H 0.47149 0.21278 0.89168 0.0
H578 H 0.39194 0.25235 0.89744 0.0
H579 H 0.42612 0.12263 0.78062 0.0
H580 H 0.31059 0.13897 0.81921 0.0
H581 H 0.5289 0.38797 0.85052 0.0
H582 H 0.42656 0.43726 0.81002 0.0
C583 C 0.23757 0.5141 0.21957 0.0
C584 C 0.21931 0.47329 0.21299 0.0
C585 C 0.20574 0.47996 0.19372 0.0
C586 C 0.21704 0.52401 0.18952 0.0
N587 N 0.2377 0.54585 0.20477 0.0
Co588 Co 0.26346 0.609 0.20387 0.0
N589 N 0.25133 0.61473 0.17434 0.0
C590 C 0.22908 0.58438 0.16283 0.0
C591 C 0.2288 0.5949 0.14286 0.0
C592 C 0.25177 0.63486 0.14147 0.0
C593 C 0.26414 0.64689 0.16083 0.0
N594 N 0.28866 0.67224 0.20267 0.0
C595 C 0.29463 0.70123 0.18688 0.0
C596 C 0.30878 0.7436 0.19344 0.0
C597 C 0.31147 0.74138 0.21388 0.0
C598 C 0.29862 0.69801 0.21874 0.0
N599 N 0.27557 0.60242 0.23337 0.0
C600 C 0.28771 0.63654 0.24567 0.0
C601 C 0.29003 0.62394 0.26543 0.0
C602 C 0.27775 0.57915 0.26579 0.0
C603 C 0.2688 0.56668 0.24615 0.0
N604 N 0.32479 0.58403 0.19825 0.0
C605 C 0.41277 0.54796 0.19244 0.0
C606 C 0.40533 0.5837 0.20575 0.0
C607 C 0.36149 0.60104 0.20844 0.0
C608 C 0.37536 0.5309 0.18182 0.0
C609 C 0.3318 0.54946 0.18487 0.0
N610 N 0.20319 0.63541 0.21029 0.0
C611 C 0.14242 0.64325 0.23433 0.0
C612 C 0.12876 0.68414 0.22574 0.0
C613 C 0.15134 0.69914 0.20856 0.0
C614 C 0.18839 0.67428 0.20116 0.0
C615 C 0.17943 0.61979 0.22642 0.0
H616 H 0.20676 0.68815 0.18893 0.0
H617 H 0.19068 0.59091 0.23437 0.0
H618 H 0.35759 0.62808 0.21903 0.0
H619 H 0.30399 0.53541 0.17649 0.0
C620 C 0.21333 0.54393 0.17079 0.0
C621 C 0.24806 0.52259 0.24071 0.0
C622 C 0.2828 0.69165 0.16576 0.0
C623 C 0.29677 0.67981 0.23806 0.0
H624 H 0.21491 0.44229 0.22146 0.0
H625 H 0.19018 0.45537 0.18382 0.0
H626 H 0.21442 0.57534 0.13069 0.0
H627 H 0.25769 0.65362 0.12779 0.0
H628 H 0.31513 0.77346 0.18445 0.0
H629 H 0.3211 0.76837 0.22401 0.0
H630 H 0.29863 0.64506 0.27813 0.0
H631 H 0.274 0.55855 0.27909 0.0
H632 H 0.43328 0.59785 0.21426 0.0
H633 H 0.37972 0.50324 0.17133 0.0
H634 H 0.12575 0.6304 0.24763 0.0
H635 H 0.1416 0.73064 0.20139 0.0
C636 C 0.7077 0.8154 0.44115 0.0
C637 C 0.74729 0.83777 0.44655 0.0
C638 C 0.74253 0.84975 0.46622 0.0
C639 C 0.70064 0.83376 0.47175 0.0
N640 N 0.67843 0.81221 0.45691 0.0
Co641 Co 0.61588 0.78531 0.45873 0.0
N642 N 0.61244 0.79575 0.48831 0.0
C643 C 0.64307 0.81818 0.49953 0.0
C644 C 0.63235 0.81936 0.51951 0.0
C645 C 0.59227 0.79622 0.5211 0.0
C646 C 0.58085 0.78223 0.50193 0.0
N647 N 0.55199 0.76184 0.46014 0.0
C648 C 0.52428 0.75473 0.47614 0.0
C649 C 0.48192 0.73909 0.47013 0.0
C650 C 0.4827 0.7371 0.44971 0.0
C651 C 0.52539 0.75111 0.44443 0.0
N652 N 0.61974 0.77348 0.42924 0.0
C653 C 0.58545 0.75991 0.41729 0.0
C654 C 0.59758 0.75484 0.39762 0.0
C655 C 0.64247 0.76617 0.39691 0.0
C656 C 0.65515 0.77749 0.4163 0.0
N657 N 0.64156 0.72321 0.46442 0.0
C658 C 0.68072 0.64253 0.48005 0.0
C659 C 0.63395 0.64978 0.48073 0.0
C660 C 0.61514 0.68927 0.47244 0.0
C661 C 0.70699 0.67425 0.46968 0.0
C662 C 0.68712 0.7142 0.46235 0.0
N663 N 0.59078 0.84677 0.45365 0.0
C664 C 0.59135 0.91808 0.43557 0.0
C665 C 0.55859 0.93617 0.44845 0.0
C666 C 0.54155 0.90846 0.46366 0.0
C667 C 0.55784 0.86411 0.46594 0.0
C668 C 0.60695 0.87349 0.43842 0.0
H669 H 0.54389 0.84426 0.47788 0.0
H670 H 0.63254 0.86116 0.42839 0.0
H671 H 0.57916 0.69161 0.47338 0.0
H672 H 0.71001 0.73761 0.45562 0.0
C673 C 0.68255 0.83546 0.49098 0.0
C674 C 0.70023 0.79534 0.42128 0.0
C675 C 0.53813 0.75896 0.49719 0.0
C676 C 0.54271 0.75098 0.42511 0.0
H677 H 0.77677 0.8442 0.43734 0.0
H678 H 0.76717 0.8671 0.4755 0.0
H679 H 0.65159 0.83484 0.53153 0.0
H680 H 0.57322 0.79078 0.53474 0.0
H681 H 0.45366 0.72906 0.47945 0.0
H682 H 0.45579 0.72546 0.43992 0.0
H683 H 0.57628 0.7443 0.38524 0.0
H684 H 0.66323 0.76707 0.38356 0.0
H685 H 0.61195 0.62557 0.48813 0.0
H686 H 0.74332 0.66951 0.4683 0.0
H687 H 0.60526 0.93848 0.42357 0.0
H688 H 0.51598 0.92117 0.47386 0.0
C689 C 0.73519 0.50719 0.55183 0.0
C690 C 0.70943 0.5447 0.55724 0.0
C691 C 0.70527 0.54349 0.5776 0.0
C692 C 0.7283 0.50535 0.58349 0.0
N693 N 0.7466 0.48211 0.56814 0.0
Co694 Co 0.78156 0.42439 0.57029 0.0
N695 N 0.76039 0.41359 0.59825 0.0
C696 C 0.73765 0.44342 0.60977 0.0
C697 C 0.71945 0.42419 0.62662 0.0
C698 C 0.73214 0.3797 0.62593 0.0
C699 C 0.75913 0.3745 0.60902 0.0
N700 N 0.81697 0.36695 0.57267 0.0
C701 C 0.81831 0.33541 0.58761 0.0
C702 C 0.85413 0.30547 0.5847 0.0
C703 C 0.87527 0.31815 0.56733 0.0
C704 C 0.85189 0.35544 0.56069 0.0
N705 N 0.80218 0.43532 0.54225 0.0
C706 C 0.83784 0.41514 0.53341 0.0
C707 C 0.84482 0.42974 0.51413 0.0
C708 C 0.81167 0.46148 0.51065 0.0
C709 C 0.78627 0.46445 0.52807 0.0
N710 N 0.8353 0.45804 0.58016 0.0
C711 C 0.92362 0.49219 0.58595 0.0
C712 C 0.89382 0.51275 0.5724 0.0
C713 C 0.8498 0.4956 0.56995 0.0
C714 C 0.90695 0.45682 0.59791 0.0
C715 C 0.86257 0.44052 0.5949 0.0
N716 N 0.72886 0.3904 0.55983 0.0
C717 C 0.69719 0.34068 0.53463 0.0
C718 C 0.65315 0.34814 0.5418 0.0
C719 C 0.64815 0.37577 0.55878 0.0
C720 C 0.68614 0.39717 0.56729 0.0
C721 C 0.73444 0.36127 0.54405 0.0
H722 H 0.68064 0.41997 0.57963 0.0
H723 H 0.76775 0.3545 0.53815 0.0
H724 H 0.82846 0.51103 0.55887 0.0
H725 H 0.85139 0.41209 0.60373 0.0
C726 C 0.72577 0.48601 0.60245 0.0
C727 C 0.75058 0.49856 0.53128 0.0
C728 C 0.78852 0.33469 0.60546 0.0
C729 C 0.86038 0.37936 0.54296 0.0
H730 H 0.69499 0.5703 0.54752 0.0
H731 H 0.68588 0.56647 0.58688 0.0
H732 H 0.69749 0.44002 0.63756 0.0
H733 H 0.72319 0.35435 0.63694 0.0
H734 H 0.86469 0.27791 0.59433 0.0
H735 H 0.90446 0.30225 0.56046 0.0
H736 H 0.87043 0.41818 0.50372 0.0
H737 H 0.80725 0.48093 0.49704 0.0
H738 H 0.90512 0.54073 0.56314 0.0
H739 H 0.92874 0.44055 0.60884 0.0
H740 H 0.70276 0.31945 0.52163 0.0
H741 H 0.61478 0.38227 0.56492 0.0
C742 C 0.33279 0.23368 0.43516 0.0
C743 C 0.28979 0.21926 0.44078 0.0
C744 C 0.28886 0.21938 0.46127 0.0
C745 C 0.33107 0.23401 0.46706 0.0
N746 N 0.35908 0.24253 0.45157 0.0
Co747 Co 0.42187 0.26844 0.45393 0.0
N748 N 0.42438 0.25842 0.48358 0.0
C749 C 0.38866 0.24785 0.49526 0.0
C750 C 0.39949 0.24471 0.51521 0.0
C751 C 0.44484 0.25459 0.51632 0.0
C752 C 0.45913 0.26334 0.49693 0.0
N753 N 0.48487 0.29396 0.45605 0.0
C754 C 0.51481 0.29446 0.4716 0.0
C755 C 0.5551 0.31577 0.46629 0.0
C756 C 0.55012 0.32984 0.44696 0.0
C757 C 0.50734 0.31632 0.44152 0.0
N758 N 0.41953 0.27906 0.4243 0.0
C759 C 0.45026 0.30246 0.41348 0.0
C760 C 0.44191 0.30209 0.3933 0.0
C761 C 0.40305 0.27743 0.39109 0.0
C762 C 0.38942 0.2647 0.41018 0.0
N763 N 0.39529 0.32914 0.45904 0.0
C764 C 0.347 0.40266 0.47538 0.0
C765 C 0.39143 0.3933 0.48145 0.0
C766 C 0.41501 0.35701 0.47292 0.0
C767 C 0.32882 0.37741 0.45954 0.0
C768 C 0.35358 0.34096 0.45156 0.0
N769 N 0.44761 0.2073 0.4496 0.0
C770 C 0.50362 0.15707 0.43512 0.0
C771 C 0.48645 0.12034 0.4461 0.0
C772 C 0.44907 0.12778 0.45849 0.0
C773 C 0.4303 0.17123 0.46005 0.0
C774 C 0.48363 0.20019 0.43703 0.0
H775 H 0.40208 0.17549 0.47001 0.0
H776 H 0.49783 0.22773 0.42852 0.0
H777 H 0.44838 0.35035 0.47838 0.0
H778 H 0.3377 0.3211 0.44013 0.0
C779 C 0.34639 0.23802 0.4868 0.0
C780 C 0.34511 0.24376 0.4142 0.0
C781 C 0.5047 0.28067 0.49223 0.0
C782 C 0.48926 0.3198 0.42236 0.0
H783 H 0.26149 0.21097 0.43111 0.0
H784 H 0.26061 0.21021 0.47079 0.0
H785 H 0.37713 0.23613 0.52749 0.0
H786 H 0.46489 0.25645 0.52989 0.0
H787 H 0.58466 0.32157 0.4756 0.0
H788 H 0.57498 0.34731 0.43786 0.0
H789 H 0.46221 0.3171 0.38153 0.0
H790 H 0.38608 0.27056 0.37703 0.0
H791 H 0.40734 0.41298 0.49323 0.0
H792 H 0.29501 0.38452 0.45397 0.0
H793 H 0.5325 0.15254 0.42532 0.0
H794 H 0.43483 0.10022 0.46719 0.0
C795 C 0.28293 0.52044 0.54979 0.0
C796 C 0.30455 0.47946 0.55375 0.0
C797 C 0.31971 0.48149 0.57302 0.0
C798 C 0.30692 0.52342 0.57974 0.0
N799 N 0.28381 0.54811 0.56612 0.0
Co800 Co 0.26183 0.612 0.5699 0.0
N801 N 0.27683 0.61129 0.59918 0.0
C802 C 0.30006 0.57861 0.60891 0.0
C803 C 0.30361 0.58567 0.62913 0.0
C804 C 0.28173 0.62568 0.63252 0.0
C805 C 0.26653 0.6411 0.61404 0.0
N806 N 0.23971 0.67576 0.57382 0.0
C807 C 0.23443 0.7009 0.5908 0.0
C808 C 0.2209 0.74485 0.58629 0.0
C809 C 0.21775 0.74753 0.5659 0.0
C810 C 0.22972 0.70536 0.55907 0.0
N811 N 0.24709 0.6127 0.54059 0.0
C812 C 0.23461 0.64941 0.52988 0.0
C813 C 0.22598 0.64009 0.51012 0.0
C814 C 0.2344 0.59475 0.50801 0.0
C815 C 0.24824 0.57906 0.52663 0.0
N816 N 0.20001 0.58897 0.5757 0.0
C817 C 0.1116 0.55489 0.58203 0.0
C818 C 0.11896 0.59276 0.56987 0.0
C819 C 0.16309 0.60912 0.56691 0.0
C820 C 0.14929 0.53472 0.59127 0.0
C821 C 0.19308 0.55232 0.58798 0.0
N822 N 0.32326 0.63567 0.56363 0.0
C823 C 0.3777 0.69715 0.5647 0.0
C824 C 0.40107 0.67889 0.54835 0.0
C825 C 0.38718 0.63679 0.54101 0.0
C826 C 0.34882 0.61566 0.54901 0.0
C827 C 0.33899 0.67501 0.57208 0.0
H828 H 0.33928 0.58391 0.54267 0.0
H829 H 0.3209 0.69097 0.58401 0.0
H830 H 0.16705 0.63794 0.55725 0.0
H831 H 0.22121 0.53587 0.59523 0.0
C832 C 0.31394 0.53959 0.59903 0.0
C833 C 0.26837 0.53396 0.52956 0.0
C834 C 0.24671 0.68627 0.61118 0.0
C835 C 0.22857 0.69138 0.53913 0.0
H836 H 0.31053 0.45153 0.54362 0.0
H837 H 0.33827 0.45562 0.58111 0.0
H838 H 0.31946 0.56387 0.64015 0.0
H839 H 0.27823 0.64212 0.64691 0.0
H840 H 0.21506 0.7725 0.59662 0.0
H841 H 0.20781 0.77675 0.55712 0.0
H842 H 0.21503 0.66349 0.4986 0.0
H843 H 0.23271 0.57577 0.49416 0.0
H844 H 0.09072 0.6093 0.56247 0.0
H845 H 0.14495 0.50535 0.60082 0.0
H846 H 0.38806 0.72928 0.57111 0.0
H847 H 0.40503 0.62094 0.52869 0.0
C848 C 0.24716 0.43242 0.28296 0.0
C849 C 0.20071 0.41953 0.28317 0.0
C850 C 0.18407 0.47906 0.25845 0.0
C851 C 0.23145 0.4889 0.25645 0.0
N852 N 0.30859 0.46909 0.26488 0.0
N853 N 0.12609 0.42552 0.26855 0.0
C854 C 0.26313 0.46416 0.26832 0.0
C855 C 0.16943 0.44185 0.2704 0.0
N856 N 0.27598 0.41451 0.29691 0.0
N857 N 0.15242 0.50482 0.2488 0.0
H858 H 0.11342 0.39859 0.27698 0.0
H859 H 0.10363 0.43606 0.25742 0.0
H860 H 0.16026 0.52785 0.23768 0.0
H861 H 0.11802 0.50432 0.25241 0.0
H862 H 0.3092 0.42569 0.29896 0.0
H863 H 0.26528 0.39117 0.30768 0.0
H864 H 0.33322 0.44854 0.27142 0.0
H865 H 0.32163 0.49133 0.25419 0.0
C866 C 0.50518 0.84822 0.75816 0.0
C867 C 0.50665 0.80137 0.7629 0.0
C868 C 0.44124 0.78866 0.74076 0.0
C869 C 0.4346 0.83621 0.73915 0.0
N870 N 0.45844 0.91196 0.74822 0.0
N871 N 0.47204 0.72723 0.76056 0.0
C872 C 0.46648 0.86632 0.7481 0.0
C873 C 0.47387 0.77147 0.75453 0.0
N874 N 0.54073 0.87546 0.76346 0.0
N875 N 0.41642 0.75992 0.72901 0.0
H876 H 0.49494 0.71316 0.7707 0.0
H877 H 0.4456 0.70542 0.75671 0.0
H878 H 0.39287 0.77155 0.71851 0.0
H879 H 0.42261 0.72517 0.72821 0.0
H880 H 0.56935 0.86307 0.7709 0.0
H881 H 0.54374 0.90901 0.75873 0.0
H882 H 0.47771 0.93486 0.75652 0.0
H883 H 0.43032 0.92675 0.74136 0.0
C884 C 0.76206 0.55866 0.26698 0.0
C885 C 0.78649 0.51787 0.2639 0.0
C886 C 0.84414 0.54361 0.28794 0.0
C887 C 0.82424 0.58756 0.28793 0.0
N888 N 0.76664 0.63841 0.2751 0.0
N889 N 0.85099 0.47068 0.2712 0.0
C890 C 0.78336 0.59537 0.2771 0.0
C891 C 0.82736 0.50983 0.27453 0.0
N892 N 0.71883 0.5626 0.25978 0.0
N893 N 0.87872 0.53417 0.30094 0.0
H894 H 0.83853 0.4446 0.26216 0.0
H895 H 0.8837 0.46498 0.27657 0.0
H896 H 0.89116 0.55803 0.3111 0.0
H897 H 0.89216 0.50182 0.30294 0.0
H898 H 0.69773 0.58993 0.26309 0.0
H899 H 0.7025 0.53627 0.25225 0.0
H900 H 0.74005 0.64666 0.26547 0.0
H901 H 0.78181 0.66682 0.28153 0.0
C902 C 0.53367 0.20524 0.75722 0.0
C903 C 0.53662 0.25014 0.76465 0.0
C904 C 0.60706 0.26027 0.74553 0.0
C905 C 0.60879 0.21267 0.74191 0.0
N906 N 0.57618 0.13856 0.74831 0.0
N907 N 0.57691 0.32102 0.76621 0.0
C908 C 0.5726 0.18476 0.74872 0.0
C909 C 0.57348 0.27802 0.75878 0.0
N910 N 0.49353 0.18228 0.75788 0.0
N911 N 0.63657 0.28857 0.73591 0.0
H912 H 0.55175 0.33551 0.77514 0.0
H913 H 0.60565 0.3412 0.76437 0.0
H914 H 0.66031 0.27691 0.72555 0.0
H915 H 0.63442 0.3238 0.73667 0.0
H916 H 0.48902 0.15046 0.75136 0.0
H917 H 0.46343 0.19769 0.76231 0.0
H918 H 0.55239 0.11724 0.75502 0.0
H919 H 0.60502 0.12159 0.74336 0.0
C920 C 0.18696 0.02635 1.0068 0.0
C921 C 0.2334 0.02585 1.01237 0.0
C922 C 0.24643 0.09197 0.9907 0.0
C923 C 0.19886 0.09767 0.98833 0.0
N924 N 0.12295 0.07155 0.99588 0.0
N925 N 0.30712 0.06157 1.01114 0.0
C926 C 0.1688 0.06481 0.99659 0.0
C927 C 0.26325 0.05933 1.00457 0.0
N928 N 0.1602 0.98996 1.01133 0.0
N929 N 0.27559 0.11752 0.97949 0.0
H930 H 0.32093 0.03838 0.02121 0.0
H931 H 0.32877 0.08845 1.00777 0.0
H932 H 0.26429 0.1409 0.96886 0.0
H933 H 0.31053 0.11209 0.97922 0.0
H934 H 0.12729 0.98618 1.00586 0.0
H935 H 0.17264 0.96147 0.01883 0.0
H936 H 0.09984 0.05154 1.00371 0.0
H937 H 0.108 0.09923 0.98879 0.0
C938 C 0.09096 0.79517 0.03209 0.0
C939 C 0.09734 0.84256 0.03466 0.0
C940 C 0.02779 0.85582 0.01495 0.0
C941 C 0.02711 0.80949 1.00927 0.0
N942 N 0.06236 0.73557 1.01065 0.0
N943 N 0.07292 0.91894 0.02685 0.0
C944 C 0.05963 0.77914 0.01749 0.0
C945 C 0.06563 0.87324 0.0259 0.0
N946 N 0.1146 0.7654 0.04382 0.0
N947 N 0.99224 0.88319 1.0098 0.0
H948 H 0.10012 0.93345 0.03445 0.0
H949 H 0.05392 0.94244 0.01875 0.0
H950 H 0.96426 0.87133 1.00173 0.0
H951 H 0.98847 0.91614 0.01516 0.0
H952 H 0.10843 0.73059 0.04386 0.0
H953 H 0.1368 0.77612 0.05506 0.0
H954 H 0.08873 0.71367 0.01449 0.0
H955 H 0.04047 0.72237 0.99987 0.0
C956 C 0.87022 0.97553 0.9934 0.0
C957 C 0.84053 0.94276 0.98479 0.0
C958 C 0.77615 0.97784 1.00223 0.0
C959 C 0.80557 1.01134 1.01032 0.0
N960 N 0.87742 0.04973 1.0088 0.0
N961 N 0.7638 0.92265 0.97591 0.0
C962 C 0.85154 1.01278 1.00418 0.0
C963 C 0.79295 0.94738 0.9875 0.0
N964 N 0.91618 0.96971 0.9926 0.0
N965 N 0.73295 0.97328 1.00933 0.0
H966 H 0.77516 0.90094 0.96463 0.0
H967 H 0.72876 0.92742 0.97603 0.0
H968 H 0.7193 0.9945 0.02023 0.0
H969 H 0.71193 0.94616 1.00555 0.0
H970 H 0.93892 0.98982 1.00062 0.0
H971 H 0.93165 0.94261 0.98534 0.0
H972 H 0.90985 0.05476 1.003 0.0
H973 H 0.86443 0.07746 0.01664 0.0
C974 C 0.96879 0.16693 0.02475 0.0
C975 C 0.93578 0.19698 0.03296 0.0
C976 C 0.97364 0.2611 0.01646 0.0
C977 C 1.00776 0.23142 1.00915 0.0
N978 N 0.04407 0.15847 1.01049 0.0
N979 N 0.91579 0.2739 0.04153 0.0
C980 C 1.00741 0.18511 0.01476 0.0
C981 C 0.94109 0.24451 0.03035 0.0
N982 N 0.96217 0.12109 0.02532 0.0
N983 N 0.97096 0.30462 1.00954 0.0
H984 H 0.89286 0.26295 0.0524 0.0
H985 H 0.92117 0.30884 0.04156 0.0
H986 H 0.99405 0.31827 0.99939 0.0
H987 H 0.9437 0.32597 0.01265 0.0
H988 H 0.98247 0.09813 0.01758 0.0
H989 H 0.93419 0.10591 0.03203 0.0
H990 H 0.04787 0.12562 0.016 0.0
H991 H 0.07272 0.17085 1.0031 0.0
C992 C 0.66057 0.97043 0.7785 0.0
C993 C 0.69021 0.93724 0.78688 0.0
C994 C 0.7544 0.97269 0.76929 0.0
C995 C 0.7253 1.00708 0.7617 0.0
N996 N 0.65325 0.04515 0.76344 0.0
N997 N 0.76714 0.91706 0.79539 0.0
C998 C 0.67926 1.00817 0.7679 0.0
C999 C 0.73777 0.94194 0.78398 0.0
N1000 N 0.61462 0.96465 0.77938 0.0
N1001 N 0.79708 0.96738 0.76169 0.0
H1002 H 0.75605 0.89529 0.8067 0.0
H1003 H 0.80219 0.92188 0.79509 0.0
H1004 H 0.8104 0.98815 0.75053 0.0
H1005 H 0.81771 0.93979 0.76522 0.0
H1006 H 0.59181 0.98502 0.77154 0.0
H1007 H 0.59921 0.93732 0.78651 0.0
H1008 H 0.62063 0.0499 0.76906 0.0
H1009 H 0.66617 0.07312 0.75573 0.0
C1010 C 0.94669 0.2891 0.27428 0.0
C1011 C 0.9927 0.29809 0.2693 0.0
C1012 C 0.9653 0.33298 0.23797 0.0
C1013 C 0.91968 0.3322 0.24517 0.0
N1014 N 0.8717 0.32134 0.27424 0.0
N1015 N 0.04511 0.33568 0.24705 0.0
C1016 C 0.9116 0.31341 0.26446 0.0
C1017 C 1.00187 0.32214 0.2513 0.0
N1018 N 0.93617 0.25771 0.28854 0.0
N1019 N 0.97385 0.34181 0.21828 0.0
H1020 H 0.07255 0.32871 0.25644 0.0
H1021 H 0.05279 0.35707 0.23509 0.0
H1022 H 0.94808 0.3464 0.20776 0.0
H1023 H 1.00617 0.33919 0.21205 0.0
H1024 H 0.90281 0.24801 0.29157 0.0
H1025 H 0.96079 0.23823 0.29567 0.0
H1026 H 0.86619 0.31093 0.28896 0.0
H1027 H 0.84686 0.34329 0.26877 0.0
C1028 C 0.28175 0.06638 0.76293 0.0
C1029 C 0.30313 0.02355 0.76072 0.0
C1030 C 0.35829 0.04469 0.78678 0.0
C1031 C 0.34111 0.08976 0.78666 0.0
N1032 N 0.29056 0.14528 0.77203 0.0
N1033 N 0.36311 0.97198 0.76972 0.0
C1034 C 0.30363 0.10103 0.77418 0.0
C1035 C 0.34166 1.01258 0.77253 0.0
N1036 N 0.24034 0.0739 0.75431 0.0
N1037 N 0.38982 0.03245 0.8008 0.0
H1038 H 0.39424 0.96385 0.77619 0.0
H1039 H 0.35106 0.94727 0.75987 0.0
H1040 H 0.40215 0.05503 0.81154 0.0
H1041 H 0.40072 0.99921 0.80295 0.0
H1042 H 0.22097 0.10277 0.75708 0.0
H1043 H 0.22335 0.04931 0.74597 0.0
H1044 H 0.26699 0.15595 0.76139 0.0
H1045 H 0.30615 0.17212 0.77951 0.0
C1046 C 0.06631 0.77049 0.25855 0.0
C1047 C 0.02368 0.74848 0.26048 0.0
C1048 C 0.04652 0.69424 0.23429 0.0
C1049 C 0.09155 0.71083 0.23535 0.0
N1050 N 0.14555 0.76393 0.2491 0.0
N1051 N 0.97265 0.68879 0.24973 0.0
C1052 C 0.10169 0.74928 0.24739 0.0
C1053 C 1.01334 0.71059 0.24799 0.0
N1054 N 0.07292 0.81149 0.26762 0.0
N1055 N 0.03539 0.66314 0.21991 0.0
H1056 H 0.94564 0.70148 0.25795 0.0
H1057 H 0.96606 0.65708 0.24351 0.0
H1058 H 0.05898 0.65072 0.20964 0.0
H1059 H 1.00223 0.65296 0.21689 0.0
H1060 H 0.10172 0.83137 0.26543 0.0
H1061 H 0.04755 0.82756 0.27589 0.0
H1062 H 0.15599 0.78823 0.25943 0.0
H1063 H 0.1723 0.74961 0.24108 0.0
C1064 C 0.75775 0.57657 0.51604 0.0
C1065 C 0.73853 0.53253 0.51522 0.0
C1066 C 0.68885 0.55822 0.48783 0.0
C1067 C 0.70222 0.60398 0.4914 0.0
N1068 N 0.74311 0.65667 0.51262 0.0
N1069 N 0.68341 0.4815 0.50105 0.0
C1070 C 0.7353 0.61318 0.5064 0.0
C1071 C 0.70351 0.52326 0.50121 0.0
N1072 N 0.79733 0.58357 0.5262 0.0
N1073 N 0.6633 0.54795 0.47136 0.0
H1074 H 0.65422 0.47423 0.49283 0.0
H1075 H 0.69442 0.45487 0.51014 0.0
H1076 H 0.65337 0.57237 0.46094 0.0
H1077 H 0.65586 0.51483 0.46703 0.0
H1078 H 0.8148 0.61432 0.52592 0.0
H1079 H 0.81523 0.55714 0.53287 0.0
H1080 H 0.76364 0.66446 0.52486 0.0
H1081 H 0.72519 0.68455 0.50718 0.0
C1082 C 0.60809 0.28148 0.52758 0.0
C1083 C 0.61246 0.32904 0.53097 0.0
C1084 C 0.5377 0.33994 0.5154 0.0
C1085 C 0.53756 0.29443 0.50858 0.0
N1086 N 0.57429 0.22165 0.50737 0.0
N1087 N 0.58444 0.40448 0.52372 0.0
C1088 C 0.57322 0.26501 0.51452 0.0
C1089 C 0.57796 0.35858 0.52376 0.0
N1090 N 0.63617 0.25193 0.53732 0.0
N1091 N 0.49907 0.36524 0.5143 0.0
H1092 H 0.61453 0.41979 0.52842 0.0
H1093 H 0.56192 0.42691 0.51686 0.0
H1094 H 0.46812 0.35105 0.51015 0.0
H1095 H 0.49651 0.3978 0.52027 0.0
H1096 H 0.63203 0.21686 0.53681 0.0
H1097 H 0.6608 0.26259 0.54752 0.0
H1098 H 0.60201 0.20013 0.50926 0.0
H1099 H 0.54829 0.20814 0.49856 0.0
C1100 C 0.2609 0.46112 0.50991 0.0
C1101 C 0.28151 0.50439 0.51195 0.0
C1102 C 0.33483 0.48426 0.48497 0.0
C1103 C 0.32022 0.43852 0.486 0.0
N1104 N 0.27103 0.3822 0.50081 0.0
N1105 N 0.3394 0.55737 0.50111 0.0
C1106 C 0.28315 0.42668 0.49859 0.0
C1107 C 0.31845 0.51629 0.4992 0.0
N1108 N 0.22039 0.45286 0.51914 0.0
N1109 N 0.36387 0.49723 0.47008 0.0
H1110 H 0.32682 0.5835 0.50989 0.0
H1111 H 0.37051 0.56498 0.49453 0.0
H1112 H 0.37598 0.47466 0.45931 0.0
H1113 H 0.3723 0.53092 0.46719 0.0
H1114 H 0.20153 0.4234 0.51685 0.0
H1115 H 0.20359 0.47749 0.52756 0.0
H1116 H 0.24785 0.37107 0.5115 0.0
H1117 H 0.28676 0.35579 0.49313 0.0
C1118 C 0.46499 0.76623 0.51661 0.0
C1119 C 0.50661 0.74315 0.51352 0.0
C1120 C 0.48319 0.68556 0.53809 0.0
C1121 C 0.43866 0.70401 0.53814 0.0
N1122 N 0.38563 0.75957 0.52538 0.0
N1123 N 0.55599 0.68039 0.52133 0.0
C1124 C 0.42923 0.74412 0.52707 0.0
C1125 C 0.51613 0.7029 0.52445 0.0
N1126 N 0.45964 0.80927 0.50941 0.0
N1127 N 0.49413 0.65202 0.55138 0.0
H1128 H 0.5819 0.69334 0.51242 0.0
H1129 H 0.56253 0.64793 0.52677 0.0
H1130 H 0.47093 0.63916 0.56172 0.0
H1131 H 0.52703 0.63998 0.55345 0.0
H1132 H 0.43166 0.82948 0.51274 0.0
H1133 H 0.48538 0.82633 0.50179 0.0
H1134 H 0.37618 0.78552 0.51564 0.0
H1135 H 0.35807 0.74399 0.53232 0.0
C1136 C 0.29312 0.19758 0.39127 0.0
C1137 C 0.31002 0.24052 0.3975 0.0
C1138 C 0.26559 0.27651 0.37045 0.0
C1139 C 0.24415 0.23463 0.36613 0.0
N1140 N 0.23169 0.15641 0.37525 0.0
N1141 N 0.30459 0.32227 0.39504 0.0
C1142 C 0.25643 0.19534 0.37726 0.0
C1143 C 0.29409 0.2804 0.38762 0.0
N1144 N 0.31256 0.1588 0.39848 0.0
N1145 N 0.25879 0.31277 0.35804 0.0
H1146 H 0.32514 0.3271 0.4075 0.0
H1147 H 0.28967 0.3521 0.38985 0.0
H1148 H 0.23819 0.31105 0.34533 0.0
H1149 H 0.27699 0.34296 0.35923 0.0
H1150 H 0.30471 0.12666 0.393 0.0
H1151 H 0.3394 0.15908 0.40869 0.0
H1152 H 0.23591 0.12834 0.38455 0.0
H1153 H 0.20436 0.1535 0.36541 0.0
C1154 C 0.2868 0.73577 0.63721 0.0
C1155 C 0.24569 0.71969 0.62841 0.0
C1156 C 0.20268 0.77175 0.65003 0.0
C1157 C 0.24343 0.78459 0.66 0.0
N1158 N 0.32306 0.77185 0.66571 0.0
N1159 N 0.16402 0.71575 0.62956 0.0
C1160 C 0.28507 0.76425 0.65441 0.0
C1161 C 0.20346 0.73562 0.63583 0.0
N1162 N 0.32764 0.72535 0.62875 0.0
N1163 N 0.16355 0.79533 0.65341 0.0
H1164 H 0.16325 0.68928 0.6192 0.0
H1165 H 0.13256 0.72275 0.63595 0.0
H1166 H 0.16147 0.82199 0.66358 0.0
H1167 H 0.13418 0.79089 0.64492 0.0
H1168 H 0.35809 0.74051 0.63304 0.0
H1169 H 0.33088 0.70429 0.61637 0.0
H1170 H 0.35338 0.75431 0.66366 0.0
H1171 H 0.32301 0.79259 0.67837 0.0
C1172 C 0.75212 0.83412 0.39596 0.0
C1173 C 0.73743 0.79388 0.40575 0.0
C1174 C 0.78535 0.74881 0.38315 0.0
C1175 C 0.80346 0.78928 0.37464 0.0
N1176 N 0.80965 0.87074 0.37555 0.0
N1177 N 0.74585 0.71335 0.41079 0.0
C1178 C 0.78849 0.83205 0.38187 0.0
C1179 C 0.75587 0.75141 0.39997 0.0
N1180 N 0.73013 0.87411 0.39949 0.0
N1181 N 0.79496 0.70767 0.37478 0.0
H1182 H 0.72335 0.71336 0.42278 0.0
H1183 H 0.76262 0.68255 0.40893 0.0
H1184 H 0.81749 0.70358 0.363 0.0
H1185 H 0.77802 0.67786 0.37857 0.0
H1186 H 0.73592 0.90352 0.39123 0.0
H1187 H 0.70331 0.87697 0.40957 0.0
H1188 H 0.80356 0.90251 0.3818 0.0
H1189 H 0.83621 0.87053 0.36523 0.0
C1190 C 0.79988 0.21973 0.63291 0.0
C1191 C 0.79214 0.23265 0.65316 0.0
C1192 C 0.80083 0.31142 0.64207 0.0
C1193 C 0.79407 0.29873 0.62171 0.0
N1194 N 0.77891 0.2369 0.59878 0.0
N1195 N 0.77697 0.29489 0.67584 0.0
C1196 C 0.79134 0.25164 0.61735 0.0
C1197 C 0.79032 0.27979 0.65747 0.0
N1198 N 0.81594 0.17758 0.62844 0.0
N1199 N 0.81762 0.35317 0.64679 0.0
H1200 H 0.7662 0.27307 0.68717 0.0
H1201 H 0.77242 0.32928 0.67891 0.0
H1202 H 0.82813 0.37613 0.63585 0.0
H1203 H 0.82533 0.36248 0.66148 0.0
H1204 H 0.82439 0.16805 0.61387 0.0
H1205 H 0.82518 0.15441 0.63954 0.0
H1206 H 0.77367 0.20262 0.59564 0.0
H1207 H 0.76956 0.25898 0.5873 0.0
C1208 C 0.2698 0.24593 0.90394 0.0
C1209 C 0.24953 0.28778 0.90925 0.0
C1210 C 0.29905 0.32692 0.8851 0.0
C1211 C 0.31521 0.28446 0.87806 0.0
N1212 N 0.30917 0.20266 0.87861 0.0
N1213 N 0.23892 0.36739 0.90216 0.0
C1214 C 0.29872 0.24367 0.88691 0.0
C1215 C 0.26261 0.32818 0.89912 0.0
N1216 N 0.2617 0.20826 0.91534 0.0
N1217 N 0.31897 0.36611 0.8786 0.0
H1218 H 0.21193 0.36975 0.91216 0.0
H1219 H 0.24358 0.3965 0.89356 0.0
H1220 H 0.34556 0.36651 0.8683 0.0
H1221 H 0.31181 0.3978 0.88473 0.0
H1222 H 0.27911 0.17781 0.91349 0.0
H1223 H 0.24062 0.20869 0.92789 0.0
H1224 H 0.29392 0.17235 0.88297 0.0
H1225 H 0.33023 0.1992 0.86624 0.0
C1226 C 0.32637 0.74688 0.14336 0.0
C1227 C 0.28413 0.72845 0.14971 0.0
C1228 C 0.24575 0.77286 0.12318 0.0
C1229 C 0.28706 0.79483 0.11848 0.0
N1230 N 0.36561 0.8086 0.12668 0.0
N1231 N 0.20201 0.73059 0.14726 0.0
C1232 C 0.32711 0.78351 0.12932 0.0
C1233 C 0.24338 0.74347 0.14009 0.0
N1234 N 0.366 0.72836 0.15018 0.0
N1235 N 0.20873 0.77913 0.1111 0.0
H1236 H 0.19795 0.70737 0.15874 0.0
H1237 H 0.17159 0.74534 0.14267 0.0
H1238 H 0.20906 0.80046 0.09862 0.0
H1239 H 0.17911 0.76003 0.11229 0.0
H1240 H 0.39772 0.73709 0.14448 0.0
H1241 H 0.36698 0.70133 0.16025 0.0
H1242 H 0.39427 0.80528 0.13571 0.0
H1243 H 0.36763 0.83533 0.1165 0.0
C1244 C 0.78095 0.7951 0.89415 0.0
C1245 C 0.79968 0.75402 0.90166 0.0
C1246 C 0.74947 0.71112 0.87909 0.0
C1247 C 0.73481 0.75204 0.86987 0.0
N1248 N 0.74211 0.83313 0.86675 0.0
N1249 N 0.80955 0.67328 0.89724 0.0
C1250 C 0.75227 0.79412 0.87687 0.0
C1251 C 0.78624 0.71211 0.89294 0.0
N1252 N 0.78986 0.835 0.90379 0.0
N1253 N 0.72728 0.67136 0.87529 0.0
H1254 H 0.83734 0.67254 0.90689 0.0
H1255 H 0.80399 0.64281 0.88972 0.0
H1256 H 0.69951 0.66916 0.86566 0.0
H1257 H 0.73372 0.64155 0.88319 0.0
H1258 H 0.7737 0.86541 0.9003 0.0
H1259 H 0.81051 0.83693 0.91647 0.0
H1260 H 0.75731 0.86424 0.86986 0.0
H1261 H 0.72138 0.83362 0.85407 0.0
C1262 C 0.74373 0.21986 0.14157 0.0
C1263 C 0.75147 0.23125 0.12114 0.0
C1264 C 0.74229 0.31077 0.13097 0.0
C1265 C 0.74777 0.29969 0.15157 0.0
N1266 N 0.76442 0.23989 0.17538 0.0
N1267 N 0.76831 0.29185 0.09778 0.0
C1268 C 0.75201 0.25302 0.15658 0.0
C1269 C 0.75415 0.2781 0.11623 0.0
N1270 N 0.72642 0.17859 0.14672 0.0
N1271 N 0.72384 0.35121 0.12533 0.0
H1272 H 0.77972 0.26916 0.08691 0.0
H1273 H 0.77281 0.32605 0.09425 0.0
H1274 H 0.71098 0.3743 0.13571 0.0
H1275 H 0.717 0.35897 0.11038 0.0
H1276 H 0.71795 0.17051 0.16146 0.0
H1277 H 0.71602 0.15496 0.13603 0.0
H1278 H 0.77006 0.20593 0.17903 0.0
H1279 H 0.77343 0.26305 0.18651 0.0
C1280 C 0.02673 0.97892 0.31756 0.0
C1281 C 0.99101 0.965 0.33046 0.0
C1282 C 0.98748 0.0421 0.34472 0.0
C1283 C 0.02436 0.05552 0.33237 0.0
N1284 N 0.08328 0.03573 0.30893 0.0
N1285 N 0.94146 0.9807 0.35822 0.0
C1286 C 0.04528 0.02352 0.31939 0.0
C1287 C 0.97259 0.99591 0.34461 0.0
N1288 N 0.04181 0.94991 0.30304 0.0
N1289 N 0.96603 0.07387 0.35622 0.0
H1290 H 0.92936 0.94743 0.35834 0.0
H1291 H 0.92994 0.99981 0.37028 0.0
H1292 H 0.97715 0.10739 0.35728 0.0
H1293 H 0.93578 0.06798 0.36381 0.0
H1294 H 0.06377 0.95937 0.29158 0.0
H1295 H 0.03006 0.91668 0.30159 0.0
H1296 H 0.10339 1.01291 0.30105 0.0
H1297 H 0.09675 0.06845 0.30917 0.0
C1298 C 0.98637 0.01977 0.71079 0.0
C1299 C 0.96271 0.02089 0.69223 0.0
C1300 C 0.03342 0.99967 0.67513 0.0
C1301 C 0.05486 0.99206 0.69393 0.0
N1302 N 0.04604 0.98362 0.72976 0.0
N1303 N 0.9622 1.00239 0.657 0.0
C1304 C 0.02968 0.99883 0.71181 0.0
C1305 C 0.9858 1.00812 0.67443 0.0
N1306 N 0.96859 0.04037 0.72734 0.0
N1307 N 0.05863 1.00063 0.65799 0.0
H1308 H 0.92711 1.00652 0.65603 0.0
H1309 H 0.97678 0.98901 0.64408 0.0
H1310 H 0.09378 0.99655 0.65793 0.0
H1311 H 0.04526 1.01024 0.64417 0.0
H1312 H 0.98663 0.0438 0.7407 0.0
H1313 H 0.93828 0.05862 0.72707 0.0
H1314 H 0.02689 0.98427 0.74287 0.0
H1315 H 0.07638 0.96567 0.73113 0.0
C1316 C 0.02818 0.49717 0.92513 0.0
C1317 C 0.03802 0.4757 0.9437 0.0
C1318 C 1.00856 0.54242 0.96135 0.0
C1319 C 1.00476 0.56631 0.94294 0.0
N1320 N 0.0202 0.5685 0.90744 0.0
N1321 N 0.04845 0.48377 0.97946 0.0
C1322 C 0.01716 0.54427 0.92482 0.0
C1323 C 0.03138 0.50005 0.96182 0.0
N1324 N 0.02761 0.47241 0.90785 0.0
N1325 N 0.98888 0.55918 0.97832 0.0
H1326 H 0.06759 0.4541 0.98039 0.0
H1327 H 0.04799 0.50244 0.99271 0.0
H1328 H 0.96968 0.58889 0.97848 0.0
H1329 H 0.98727 0.54087 0.99165 0.0
H1330 H 1.01635 0.4855 0.89423 0.0
H1331 H 0.03392 0.43762 0.90752 0.0
H1332 H 0.03334 0.55498 0.89425 0.0
H1333 H 1.01395 0.60327 0.90669 0.0
C1334 C 0.51256 0.96497 0.08204 0.0
C1335 C 0.4764 0.99681 0.08329 0.0
C1336 C 0.53218 0.05876 0.08344 0.0
C1337 C 0.56825 0.02674 0.08437 0.0
N1338 N 0.59112 0.9492 0.09007 0.0
N1339 N 0.45309 0.07349 0.09071 0.0
C1340 C 0.55788 0.97976 0.08544 0.0
C1341 C 0.48663 0.04358 0.08574 0.0
N1342 N 0.50425 0.92115 0.07646 0.0
N1343 N 0.54084 0.10328 0.07918 0.0
H1344 H 0.41964 0.06342 0.09324 0.0
H1345 H 0.45956 0.10722 0.09442 0.0
H1346 H 0.57328 0.11573 0.07628 0.0
H1347 H 0.51521 0.12683 0.07641 0.0
H1348 H 0.53009 0.89798 0.07349 0.0
H1349 H 0.47207 0.90924 0.07266 0.0
H1350 H 0.58445 0.91502 0.09279 0.0
H1351 H 0.62438 0.95891 0.09334 0.0
C1352 C 0.48106 0.49841 0.84459 0.0
C1353 C 0.50011 0.46563 0.83146 0.0
C1354 C 0.55533 0.52242 0.81956 0.0
C1355 C 0.53369 0.55619 0.83136 0.0
N1356 N 0.47388 0.57785 0.85394 0.0
N1357 N 0.5523 0.4469 0.80499 0.0
C1358 C 0.49603 0.54452 0.84361 0.0
C1359 C 0.53662 0.47773 0.81863 0.0
N1360 N 0.44926 0.48512 0.85828 0.0
N1361 N 0.59417 0.53303 0.80938 0.0
H1362 H 0.54031 0.41365 0.80417 0.0
H1363 H 0.57498 0.45484 0.79358 0.0
H1364 H 0.608 0.5656 0.80914 0.0
H1365 H 0.61461 0.5091 0.80234 0.0
H1366 H 0.43723 0.50587 0.86969 0.0
H1367 H 0.43714 0.45192 0.85918 0.0
H1368 H 0.44314 0.57301 0.86128 0.0
H1369 H 0.48496 0.61147 0.85421 0.0
C1370 C 0.53865 0.53641 0.17837 0.0
C1371 C 0.55132 0.49715 0.1894 0.0
C1372 C 0.47265 0.4898 0.2017 0.0
C1373 C 0.45966 0.52831 0.19021 0.0
N1374 N 0.47802 0.5839 0.16511 0.0
N1375 N 0.52933 0.43205 0.20892 0.0
C1376 C 0.49207 0.55025 0.17777 0.0
C1377 C 0.51787 0.47246 0.20021 0.0
N1378 N 0.57147 0.56126 0.16894 0.0
N1379 N 0.44217 0.4709 0.21469 0.0
H1380 H 0.5622 0.4189 0.2086 0.0
H1381 H 0.50583 0.40979 0.21515 0.0
H1382 H 0.40859 0.48179 0.21583 0.0
H1383 H 0.45069 0.44643 0.22528 0.0
H1384 H 0.56582 0.59302 0.16261 0.0
H1385 H 0.60541 0.55123 0.16844 0.0
H1386 H 0.49855 0.5984 0.15417 0.0
H1387 H 0.44444 0.59507 0.16447 0.0
C1388 C 0.54573 0.06386 0.4575 0.0
C1389 C 0.50775 0.07419 0.44515 0.0
C1390 C 0.50355 0.99418 0.43458 0.0
C1391 C 0.54247 0.9842 0.44639 0.0
N1392 N 0.60512 1.01034 0.46653 0.0
N1393 N 0.45491 0.05154 0.41952 0.0
C1394 C 0.56496 0.01939 0.45703 0.0
C1395 C 0.48801 0.03996 0.43295 0.0
N1396 N 0.56229 0.09615 0.47027 0.0
N1397 N 0.4807 0.95959 0.42537 0.0
H1398 H 0.44251 0.08454 0.41811 0.0
H1399 H 0.44214 0.02953 0.40871 0.0
H1400 H 0.49197 0.92605 0.42564 0.0
H1401 H 0.4492 0.96342 0.4185 0.0
H1402 H 0.58622 0.08956 0.48137 0.0
H1403 H 0.5499 0.12928 0.4707 0.0
H1404 H 0.62592 0.03523 0.4727 0.0
H1405 H 0.61955 0.97805 0.46696 0.0
C1406 C 0.98711 0.54337 0.5982 0.0
C1407 C 0.97276 0.50583 0.58644 0.0
C1408 C 0.04974 0.49955 0.57219 0.0
C1409 C 0.06451 0.5361 0.58446 0.0
N1410 N 0.04975 0.58833 0.61135 0.0
N1411 N 0.99148 0.44375 0.56448 0.0
C1412 C 0.03384 0.55666 0.59814 0.0
C1413 C 1.00452 0.48251 0.57416 0.0
N1414 N 0.95573 0.56701 0.60905 0.0
N1415 N 0.07847 0.48233 0.55803 0.0
H1416 H 0.95841 0.43114 0.56492 0.0
H1417 H 1.01394 0.42217 0.55717 0.0
H1418 H 0.112 0.4931 0.55643 0.0
H1419 H 0.06847 0.45958 0.54696 0.0
H1420 H 0.96246 0.59776 0.6161 0.0
H1421 H 0.9218 0.55714 0.61008 0.0
H1422 H 0.03067 0.60151 0.62308 0.0
H1423 H 0.0835 0.59908 0.61156 0.0
loop_
_geom_bond_atom_site_label_1
_geom_bond_atom_site_label_2
_geom_bond_distance
_geom_bond_site_symmetry_2
_ccdc_geom_bond_type
C0 C1 1.443 . S
C0 N4 1.376 . S
C0 C38 1.389 . S
C1 C0 1.443 . S
C1 C2 1.340 . S
C1 H41 0.951 . S
C2 C1 1.340 . S
C2 C3 1.439 . S
C2 H42 0.950 . S
C3 C2 1.439 . S
C3 N4 1.374 . S
C3 C37 1.395 . S
N4 C0 1.376 . S
N4 C3 1.374 . S
N4 Co5 2.008 . S
Co5 N4 2.008 . S
Co5 N6 1.995 . S
Co5 N11 2.008 . S
Co5 N16 1.995 . S
Co5 N21 2.282 . S
Co5 N27 2.282 . S
N6 Co5 1.995 . S
N6 C7 1.376 . S
N6 C10 1.383 . S
C7 N6 1.376 . S
C7 C8 1.446 . S
C7 C37 1.391 . S
C8 C7 1.446 . S
C8 C9 1.339 . S
C8 H43 0.949 . S
C9 C8 1.339 . S
C9 C10 1.439 . S
C9 H44 0.950 . S
C10 N6 1.383 . S
C10 C9 1.439 . S
C10 C39 1.392 1_455 S
N11 Co5 2.008 . S
N11 C12 1.376 1_455 S
N11 C15 1.374 . S
C12 N11 1.376 1_655 S
C12 C13 1.443 . S
C12 C39 1.389 . S
C13 C12 1.443 . S
C13 C14 1.340 . S
C13 H45 0.951 . S
C14 C13 1.340 . S
C14 C15 1.439 1_655 S
C14 H46 0.950 . S
C15 N11 1.374 . S
C15 C14 1.439 1_455 S
C15 C40 1.395 . S
N16 Co5 1.995 . S
N16 C17 1.376 . S
N16 C20 1.383 . S
C17 N16 1.376 . S
C17 C18 1.446 . S
C17 C40 1.391 . S
C18 C17 1.446 . S
C18 C19 1.339 . S
C18 H47 0.949 . S
C19 C18 1.339 . S
C19 C20 1.439 . S
C19 H48 0.950 . S
C20 N16 1.383 . S
C20 C19 1.439 . S
C20 C38 1.392 . S
N21 Co5 2.282 . S
N21 C24 1.332 . S
N21 C26 1.332 . S
C22 C23 1.386 . S
C22 C25 1.388 . S
C23 C22 1.386 . S
C23 C24 1.382 . S
C23 H49 0.950 . S
C24 N21 1.332 . S
C24 C23 1.382 . S
C24 H35 0.952 . S
C25 C22 1.388 . S
C25 C26 1.382 . S
C25 H50 0.950 . S
C26 N21 1.332 . S
C26 C25 1.382 . S
C26 H36 0.948 . S
N27 Co5 2.282 . S
N27 C31 1.332 . S
N27 C32 1.332 . S
C28 C29 1.388 . S
C28 C32 1.382 . S
C28 H51 0.950 . S
C29 C28 1.388 . S
C29 C30 1.386 . S
C30 C29 1.386 . S
C30 C31 1.382 . S
C30 H52 0.950 . S
C31 N27 1.332 . S
C31 C30 1.382 . S
C31 H33 0.952 . S
C32 N27 1.332 . S
C32 C28 1.382 . S
C32 H34 0.948 . S
H33 C31 0.952 . S
H34 C32 0.948 . S
H35 C24 0.952 . S
H36 C26 0.948 . S
C37 C3 1.395 . S
C37 C7 1.391 . S
C38 C0 1.389 . S
C38 C20 1.392 . S
C39 C10 1.392 1_655 S
C39 C12 1.389 . S
C40 C15 1.395 . S
C40 C17 1.391 . S
H41 C1 0.951 . S
H42 C2 0.950 . S
H43 C8 0.949 . S
H44 C9 0.950 . S
H45 C13 0.951 . S
H46 C14 0.950 . S
H47 C18 0.949 . S
H48 C19 0.950 . S
H49 C23 0.950 . S
H50 C25 0.950 . S
H51 C28 0.950 . S
H52 C30 0.950 . S
C53 C54 1.443 . S
C53 N57 1.376 1_545 S
C53 C91 1.389 . S
C54 C53 1.443 . S
C54 C55 1.340 . S
C54 H94 0.951 . S
C55 C54 1.340 . S
C55 C56 1.439 1_545 S
C55 H95 0.950 . S
C56 C55 1.439 1_565 S
C56 N57 1.374 . S
C56 C90 1.395 . S
N57 C53 1.376 1_565 S
N57 C56 1.374 . S
N57 Co58 2.008 . S
Co58 N57 2.008 . S
Co58 N59 1.995 . S
Co58 N64 2.008 . S
Co58 N69 1.995 . S
Co58 N74 2.282 . S
Co58 N80 2.282 . S
N59 Co58 1.995 . S
N59 C60 1.376 . S
N59 C63 1.383 . S
C60 N59 1.376 . S
C60 C61 1.446 . S
C60 C90 1.391 . S
C61 C60 1.446 . S
C61 C62 1.339 . S
C61 H96 0.949 . S
C62 C61 1.339 . S
C62 C63 1.439 . S
C62 H97 0.950 . S
C63 N59 1.383 . S
C63 C62 1.439 . S
C63 C92 1.392 . S
N64 Co58 2.008 . S
N64 C65 1.376 . S
N64 C68 1.374 . S
C65 N64 1.376 . S
C65 C66 1.443 . S
C65 C92 1.389 . S
C66 C65 1.443 . S
C66 C67 1.340 . S
C66 H98 0.951 . S
C67 C66 1.340 . S
C67 C68 1.439 . S
C67 H99 0.950 . S
C68 N64 1.374 . S
C68 C67 1.439 . S
C68 C93 1.395 . S
N69 Co58 1.995 . S
N69 C70 1.376 . S
N69 C73 1.383 . S
C70 N69 1.376 . S
C70 C71 1.446 . S
C70 C93 1.391 . S
C71 C70 1.446 . S
C71 C72 1.339 . S
C71 H100 0.949 . S
C72 C71 1.339 . S
C72 C73 1.439 . S
C72 H101 0.950 . S
C73 N69 1.383 . S
C73 C72 1.439 . S
C73 C91 1.392 1_565 S
N74 Co58 2.282 . S
N74 C77 1.332 . S
N74 C79 1.332 . S
C75 C76 1.386 . S
C75 C78 1.388 . S
C76 C75 1.386 . S
C76 C77 1.382 . S
C76 H102 0.950 . S
C77 N74 1.332 . S
C77 C76 1.382 . S
C77 H88 0.952 . S
C78 C75 1.388 . S
C78 C79 1.382 . S
C78 H103 0.950 . S
C79 N74 1.332 . S
C79 C78 1.382 . S
C79 H89 0.948 . S
N80 Co58 2.282 . S
N80 C84 1.332 . S
N80 C85 1.332 . S
C81 C82 1.388 . S
C81 C85 1.382 . S
C81 H104 0.950 . S
C82 C81 1.388 . S
C82 C83 1.386 . S
C83 C82 1.386 . S
C83 C84 1.382 . S
C83 H105 0.950 . S
C84 N80 1.332 . S
C84 C83 1.382 . S
C84 H86 0.952 . S
C85 N80 1.332 . S
C85 C81 1.382 . S
C85 H87 0.948 . S
H86 C84 0.952 . S
H87 C85 0.948 . S
H88 C77 0.952 . S
H89 C79 0.948 . S
C90 C56 1.395 . S
C90 C60 1.391 . S
C91 C53 1.389 . S
C91 C73 1.392 1_545 S
C92 C63 1.392 . S
C92 C65 1.389 . S
C93 C68 1.395 . S
C93 C70 1.391 . S
H94 C54 0.951 . S
H95 C55 0.950 . S
H96 C61 0.949 . S
H97 C62 0.950 . S
H98 C66 0.951 . S
H99 C67 0.950 . S
H100 C71 0.949 . S
H101 C72 0.950 . S
H102 C76 0.950 . S
H103 C78 0.950 . S
H104 C81 0.950 . S
H105 C83 0.950 . S
C106 C107 1.443 . S
C106 N110 1.376 . S
C106 C144 1.389 . S
C107 C106 1.443 . S
C107 C108 1.340 . S
C107 H147 0.951 . S
C108 C107 1.340 . S
C108 C109 1.439 . S
C108 H148 0.950 . S
C109 C108 1.439 . S
C109 N110 1.374 . S
C109 C143 1.395 . S
N110 C106 1.376 . S
N110 C109 1.374 . S
N110 Co111 2.008 . S
Co111 N110 2.008 . S
Co111 N112 1.995 . S
Co111 N117 2.008 . S
Co111 N122 1.995 . S
Co111 N127 2.282 . S
Co111 N133 2.282 . S
N112 Co111 1.995 . S
N112 C113 1.376 . S
N112 C116 1.383 . S
C113 N112 1.376 . S
C113 C114 1.446 . S
C113 C143 1.391 . S
C114 C113 1.446 . S
C114 C115 1.339 . S
C114 H149 0.949 . S
C115 C114 1.339 . S
C115 C116 1.439 . S
C115 H150 0.950 . S
C116 N112 1.383 . S
C116 C115 1.439 . S
C116 C145 1.392 1_655 S
N117 Co111 2.008 . S
N117 C118 1.376 1_655 S
N117 C121 1.374 . S
C118 N117 1.376 1_455 S
C118 C119 1.443 . S
C118 C145 1.389 . S
C119 C118 1.443 . S
C119 C120 1.340 . S
C119 H151 0.951 . S
C120 C119 1.340 . S
C120 C121 1.439 1_455 S
C120 H152 0.950 . S
C121 N117 1.374 . S
C121 C120 1.439 1_655 S
C121 C146 1.395 . S
N122 Co111 1.995 . S
N122 C123 1.376 . S
N122 C126 1.383 . S
C123 N122 1.376 . S
C123 C124 1.446 . S
C123 C146 1.391 . S
C124 C123 1.446 . S
C124 C125 1.339 . S
C124 H153 0.949 . S
C125 C124 1.339 . S
C125 C126 1.439 . S
C125 H154 0.950 . S
C126 N122 1.383 . S
C126 C125 1.439 . S
C126 C144 1.392 . S
N127 Co111 2.282 . S
N127 C130 1.332 . S
N127 C132 1.332 . S
C128 C129 1.386 . S
C128 C131 1.388 . S
C129 C128 1.386 . S
C129 C130 1.382 . S
C129 H155 0.950 . S
C130 N127 1.332 . S
C130 C129 1.382 . S
C130 H141 0.952 . S
C131 C128 1.388 . S
C131 C132 1.382 . S
C131 H156 0.950 . S
C132 N127 1.332 . S
C132 C131 1.382 . S
C132 H142 0.948 . S
N133 Co111 2.282 . S
N133 C137 1.332 . S
N133 C138 1.332 . S
C134 C135 1.388 . S
C134 C138 1.382 . S
C134 H157 0.950 . S
C135 C134 1.388 . S
C135 C136 1.386 . S
C136 C135 1.386 . S
C136 C137 1.382 . S
C136 H158 0.950 . S
C137 N133 1.332 . S
C137 C136 1.382 . S
C137 H139 0.952 . S
C138 N133 1.332 . S
C138 C134 1.382 . S
C138 H140 0.948 . S
H139 C137 0.952 . S
H140 C138 0.948 . S
H141 C130 0.952 . S
H142 C132 0.948 . S
C143 C109 1.395 . S
C143 C113 1.391 . S
C144 C106 1.389 . S
C144 C126 1.392 . S
C145 C116 1.392 1_455 S
C145 C118 1.389 . S
C146 C121 1.395 . S
C146 C123 1.391 . S
H147 C107 0.951 . S
H148 C108 0.950 . S
H149 C114 0.949 . S
H150 C115 0.950 . S
H151 C119 0.951 . S
H152 C120 0.950 . S
H153 C124 0.949 . S
H154 C125 0.950 . S
H155 C129 0.950 . S
H156 C131 0.950 . S
H157 C134 0.950 . S
H158 C136 0.950 . S
C159 C160 1.443 . S
C159 N163 1.376 1_565 S
C159 C197 1.389 . S
C160 C159 1.443 . S
C160 C161 1.340 . S
C160 H200 0.951 . S
C161 C160 1.340 . S
C161 C162 1.439 1_565 S
C161 H201 0.950 . S
C162 C161 1.439 1_545 S
C162 N163 1.374 . S
C162 C196 1.395 . S
N163 C159 1.376 1_545 S
N163 C162 1.374 . S
N163 Co164 2.008 . S
Co164 N163 2.008 . S
Co164 N165 1.995 . S
Co164 N170 2.008 . S
Co164 N175 1.995 . S
Co164 N180 2.282 . S
Co164 N186 2.282 . S
N165 Co164 1.995 . S
N165 C166 1.376 . S
N165 C169 1.383 . S
C166 N165 1.376 . S
C166 C167 1.446 . S
C166 C196 1.391 . S
C167 C166 1.446 . S
C167 C168 1.339 . S
C167 H202 0.949 . S
C168 C167 1.339 . S
C168 C169 1.439 . S
C168 H203 0.950 . S
C169 N165 1.383 . S
C169 C168 1.439 . S
C169 C198 1.392 . S
N170 Co164 2.008 . S
N170 C171 1.376 . S
N170 C174 1.374 . S
C171 N170 1.376 . S
C171 C172 1.443 . S
C171 C198 1.389 . S
C172 C171 1.443 . S
C172 C173 1.340 . S
C172 H204 0.951 . S
C173 C172 1.340 . S
C173 C174 1.439 . S
C173 H205 0.950 . S
C174 N170 1.374 . S
C174 C173 1.439 . S
C174 C199 1.395 . S
N175 Co164 1.995 . S
N175 C176 1.376 . S
N175 C179 1.383 . S
C176 N175 1.376 . S
C176 C177 1.446 . S
C176 C199 1.391 . S
C177 C176 1.446 . S
C177 C178 1.339 . S
C177 H206 0.949 . S
C178 C177 1.339 . S
C178 C179 1.439 . S
C178 H207 0.950 . S
C179 N175 1.383 . S
C179 C178 1.439 . S
C179 C197 1.392 1_545 S
N180 Co164 2.282 . S
N180 C183 1.332 . S
N180 C185 1.332 . S
C181 C182 1.386 . S
C181 C184 1.388 . S
C182 C181 1.386 . S
C182 C183 1.382 . S
C182 H208 0.950 . S
C183 N180 1.332 . S
C183 C182 1.382 . S
C183 H194 0.952 . S
C184 C181 1.388 . S
C184 C185 1.382 . S
C184 H209 0.950 . S
C185 N180 1.332 . S
C185 C184 1.382 . S
C185 H195 0.948 . S
N186 Co164 2.282 . S
N186 C190 1.332 . S
N186 C191 1.332 . S
C187 C188 1.388 . S
C187 C191 1.382 . S
C187 H210 0.950 . S
C188 C187 1.388 . S
C188 C189 1.386 . S
C189 C188 1.386 . S
C189 C190 1.382 . S
C189 H211 0.950 . S
C190 N186 1.332 . S
C190 C189 1.382 . S
C190 H192 0.952 . S
C191 N186 1.332 . S
C191 C187 1.382 . S
C191 H193 0.948 . S
H192 C190 0.952 . S
H193 C191 0.948 . S
H194 C183 0.952 . S
H195 C185 0.948 . S
C196 C162 1.395 . S
C196 C166 1.391 . S
C197 C159 1.389 . S
C197 C179 1.392 1_565 S
C198 C169 1.392 . S
C198 C171 1.389 . S
C199 C174 1.395 . S
C199 C176 1.391 . S
H200 C160 0.951 . S
H201 C161 0.950 . S
H202 C167 0.949 . S
H203 C168 0.950 . S
H204 C172 0.951 . S
H205 C173 0.950 . S
H206 C177 0.949 . S
H207 C178 0.950 . S
H208 C182 0.950 . S
H209 C184 0.950 . S
H210 C187 0.950 . S
H211 C189 0.950 . S
C212 C213 1.443 . S
C212 N216 1.376 . S
C212 C250 1.389 . S
C213 C212 1.443 . S
C213 C214 1.340 . S
C213 H253 0.951 . S
C214 C213 1.340 . S
C214 C215 1.439 . S
C214 H254 0.950 . S
C215 C214 1.439 . S
C215 N216 1.374 . S
C215 C249 1.395 . S
N216 C212 1.376 . S
N216 C215 1.374 . S
N216 Co217 2.008 . S
Co217 N216 2.008 . S
Co217 N218 1.995 . S
Co217 N223 2.008 . S
Co217 N228 1.995 . S
Co217 N233 2.282 . S
Co217 N239 2.282 . S
N218 Co217 1.995 . S
N218 C219 1.376 . S
N218 C222 1.383 . S
C219 N218 1.376 . S
C219 C220 1.446 . S
C219 C249 1.391 . S
C220 C219 1.446 . S
C220 C221 1.339 . S
C220 H255 0.949 1_556 S
C221 C220 1.339 . S
C221 C222 1.439 . S
C221 H256 0.950 1_556 S
C222 N218 1.383 . S
C222 C221 1.439 . S
C222 C251 1.392 1_455 S
N223 Co217 2.008 . S
N223 C224 1.376 1_455 S
N223 C227 1.374 . S
C224 N223 1.376 1_655 S
C224 C225 1.443 . S
C224 C251 1.389 . S
C225 C224 1.443 . S
C225 C226 1.340 . S
C225 H257 0.951 . S
C226 C225 1.340 . S
C226 C227 1.439 1_655 S
C226 H258 0.950 . S
C227 N223 1.374 . S
C227 C226 1.439 1_455 S
C227 C252 1.395 . S
N228 Co217 1.995 . S
N228 C229 1.376 . S
N228 C232 1.383 . S
C229 N228 1.376 . S
C229 C230 1.446 . S
C229 C252 1.391 . S
C230 C229 1.446 . S
C230 C231 1.339 . S
C230 H259 0.949 . S
C231 C230 1.339 . S
C231 C232 1.439 . S
C231 H260 0.950 . S
C232 N228 1.383 . S
C232 C231 1.439 . S
C232 C250 1.392 . S
N233 Co217 2.282 . S
N233 C236 1.332 . S
N233 C238 1.332 . S
C234 C235 1.386 . S
C234 C237 1.388 . S
C235 C234 1.386 . S
C235 C236 1.382 . S
C235 H261 0.950 . S
C236 N233 1.332 . S
C236 C235 1.382 . S
C236 H247 0.952 . S
C237 C234 1.388 . S
C237 C238 1.382 . S
C237 H262 0.950 . S
C238 N233 1.332 . S
C238 C237 1.382 . S
C238 H248 0.948 . S
N239 Co217 2.282 . S
N239 C243 1.332 . S
N239 C244 1.332 . S
C240 C241 1.388 . S
C240 C244 1.382 . S
C240 H263 0.950 . S
C241 C240 1.388 . S
C241 C242 1.386 . S
C242 C241 1.386 . S
C242 C243 1.382 . S
C242 H264 0.950 . S
C243 N239 1.332 . S
C243 C242 1.382 . S
C243 H245 0.952 . S
C244 N239 1.332 . S
C244 C240 1.382 . S
C244 H246 0.948 . S
H245 C243 0.952 . S
H246 C244 0.948 . S
H247 C236 0.952 . S
H248 C238 0.948 . S
C249 C215 1.395 . S
C249 C219 1.391 . S
C250 C212 1.389 . S
C250 C232 1.392 . S
C251 C222 1.392 1_655 S
C251 C224 1.389 . S
C252 C227 1.395 . S
C252 C229 1.391 . S
H253 C213 0.951 . S
H254 C214 0.950 . S
H255 C220 0.949 1_554 S
H256 C221 0.950 1_554 S
H257 C225 0.951 . S
H258 C226 0.950 . S
H259 C230 0.949 . S
H260 C231 0.950 . S
H261 C235 0.950 . S
H262 C237 0.950 . S
H263 C240 0.950 . S
H264 C242 0.950 . S
C265 C266 1.443 . S
C265 N269 1.376 1_545 S
C265 C303 1.389 . S
C266 C265 1.443 . S
C266 C267 1.340 . S
C266 H306 0.951 . S
C267 C266 1.340 . S
C267 C268 1.439 1_545 S
C267 H307 0.950 . S
C268 C267 1.439 1_565 S
C268 N269 1.374 . S
C268 C302 1.395 . S
N269 C265 1.376 1_565 S
N269 C268 1.374 . S
N269 Co270 2.008 . S
Co270 N269 2.008 . S
Co270 N271 1.995 . S
Co270 N276 2.008 . S
Co270 N281 1.995 . S
Co270 N286 2.282 . S
Co270 N292 2.282 . S
N271 Co270 1.995 . S
N271 C272 1.376 . S
N271 C275 1.383 . S
C272 N271 1.376 . S
C272 C273 1.446 . S
C272 C302 1.391 . S
C273 C272 1.446 . S
C273 C274 1.339 . S
C273 H308 0.949 . S
C274 C273 1.339 . S
C274 C275 1.439 . S
C274 H309 0.950 . S
C275 N271 1.383 . S
C275 C274 1.439 . S
C275 C304 1.392 . S
N276 Co270 2.008 . S
N276 C277 1.376 . S
N276 C280 1.374 . S
C277 N276 1.376 . S
C277 C278 1.443 . S
C277 C304 1.389 . S
C278 C277 1.443 . S
C278 C279 1.340 . S
C278 H310 0.951 . S
C279 C278 1.340 . S
C279 C280 1.439 . S
C279 H311 0.950 . S
C280 N276 1.374 . S
C280 C279 1.439 . S
C280 C305 1.395 . S
N281 Co270 1.995 . S
N281 C282 1.376 . S
N281 C285 1.383 . S
C282 N281 1.376 . S
C282 C283 1.446 . S
C282 C305 1.391 . S
C283 C282 1.446 . S
C283 C284 1.339 . S
C283 H312 0.949 1_554 S
C284 C283 1.339 . S
C284 C285 1.439 . S
C284 H313 0.950 1_554 S
C285 N281 1.383 . S
C285 C284 1.439 . S
C285 C303 1.392 1_565 S
N286 Co270 2.282 . S
N286 C289 1.332 . S
N286 C291 1.332 . S
C287 C288 1.386 . S
C287 C290 1.388 . S
C288 C287 1.386 . S
C288 C289 1.382 . S
C288 H314 0.950 . S
C289 N286 1.332 . S
C289 C288 1.382 . S
C289 H300 0.952 . S
C290 C287 1.388 . S
C290 C291 1.382 . S
C290 H315 0.950 . S
C291 N286 1.332 . S
C291 C290 1.382 . S
C291 H301 0.948 . S
N292 Co270 2.282 . S
N292 C296 1.332 . S
N292 C297 1.332 . S
C293 C294 1.388 . S
C293 C297 1.382 . S
C293 H316 0.950 . S
C294 C293 1.388 . S
C294 C295 1.386 . S
C295 C294 1.386 . S
C295 C296 1.382 . S
C295 H317 0.950 . S
C296 N292 1.332 . S
C296 C295 1.382 . S
C296 H298 0.952 . S
C297 N292 1.332 . S
C297 C293 1.382 . S
C297 H299 0.948 . S
H298 C296 0.952 . S
H299 C297 0.948 . S
H300 C289 0.952 . S
H301 C291 0.948 . S
C302 C268 1.395 . S
C302 C272 1.391 . S
C303 C265 1.389 . S
C303 C285 1.392 1_545 S
C304 C275 1.392 . S
C304 C277 1.389 . S
C305 C280 1.395 . S
C305 C282 1.391 . S
H306 C266 0.951 . S
H307 C267 0.950 . S
H308 C273 0.949 . S
H309 C274 0.950 . S
H310 C278 0.951 . S
H311 C279 0.950 . S
H312 C283 0.949 1_556 S
H313 C284 0.950 1_556 S
H314 C288 0.950 . S
H315 C290 0.950 . S
H316 C293 0.950 . S
H317 C295 0.950 . S
C318 C319 1.443 . S
C318 N322 1.376 . S
C318 C356 1.389 . S
C319 C318 1.443 . S
C319 C320 1.340 . S
C319 H359 0.951 . S
C320 C319 1.340 . S
C320 C321 1.439 . S
C320 H360 0.950 . S
C321 C320 1.439 . S
C321 N322 1.374 . S
C321 C355 1.395 . S
N322 C318 1.376 . S
N322 C321 1.374 . S
N322 Co323 2.008 . S
Co323 N322 2.008 . S
Co323 N324 1.995 . S
Co323 N329 2.008 . S
Co323 N334 1.995 . S
Co323 N339 2.282 . S
Co323 N345 2.282 . S
N324 Co323 1.995 . S
N324 C325 1.376 . S
N324 C328 1.383 . S
C325 N324 1.376 . S
C325 C326 1.446 . S
C325 C355 1.391 . S
C326 C325 1.446 . S
C326 C327 1.339 . S
C326 H361 0.949 1_556 S
C327 C326 1.339 . S
C327 C328 1.439 . S
C327 H362 0.950 1_556 S
C328 N324 1.383 . S
C328 C327 1.439 . S
C328 C357 1.392 1_655 S
N329 Co323 2.008 . S
N329 C330 1.376 1_655 S
N329 C333 1.374 . S
C330 N329 1.376 1_455 S
C330 C331 1.443 . S
C330 C357 1.389 . S
C331 C330 1.443 . S
C331 C332 1.340 . S
C331 H363 0.951 . S
C332 C331 1.340 . S
C332 C333 1.439 1_455 S
C332 H364 0.950 . S
C333 N329 1.374 . S
C333 C332 1.439 1_655 S
C333 C358 1.395 . S
N334 Co323 1.995 . S
N334 C335 1.376 . S
N334 C338 1.383 . S
C335 N334 1.376 . S
C335 C336 1.446 . S
C335 C358 1.391 . S
C336 C335 1.446 . S
C336 C337 1.339 . S
C336 H365 0.949 . S
C337 C336 1.339 . S
C337 C338 1.439 . S
C337 H366 0.950 . S
C338 N334 1.383 . S
C338 C337 1.439 . S
C338 C356 1.392 . S
N339 Co323 2.282 . S
N339 C342 1.332 . S
N339 C344 1.332 . S
C340 C341 1.386 . S
C340 C343 1.388 . S
C341 C340 1.386 . S
C341 C342 1.382 . S
C341 H367 0.950 . S
C342 N339 1.332 . S
C342 C341 1.382 . S
C342 H353 0.952 . S
C343 C340 1.388 . S
C343 C344 1.382 . S
C343 H368 0.950 . S
C344 N339 1.332 . S
C344 C343 1.382 . S
C344 H354 0.948 . S
N345 Co323 2.282 . S
N345 C349 1.332 . S
N345 C350 1.332 . S
C346 C347 1.388 . S
C346 C350 1.382 . S
C346 H369 0.950 . S
C347 C346 1.388 . S
C347 C348 1.386 . S
C348 C347 1.386 . S
C348 C349 1.382 . S
C348 H370 0.950 . S
C349 N345 1.332 . S
C349 C348 1.382 . S
C349 H351 0.952 . S
C350 N345 1.332 . S
C350 C346 1.382 . S
C350 H352 0.948 . S
H351 C349 0.952 . S
H352 C350 0.948 . S
H353 C342 0.952 . S
H354 C344 0.948 . S
C355 C321 1.395 . S
C355 C325 1.391 . S
C356 C318 1.389 . S
C356 C338 1.392 . S
C357 C328 1.392 1_455 S
C357 C330 1.389 . S
C358 C333 1.395 . S
C358 C335 1.391 . S
H359 C319 0.951 . S
H360 C320 0.950 . S
H361 C326 0.949 1_554 S
H362 C327 0.950 1_554 S
H363 C331 0.951 . S
H364 C332 0.950 . S
H365 C336 0.949 . S
H366 C337 0.950 . S
H367 C341 0.950 . S
H368 C343 0.950 . S
H369 C346 0.950 . S
H370 C348 0.950 . S
C371 C372 1.443 . S
C371 N375 1.376 1_565 S
C371 C409 1.389 . S
C372 C371 1.443 . S
C372 C373 1.340 . S
C372 H412 0.951 . S
C373 C372 1.340 . S
C373 C374 1.439 1_565 S
C373 H413 0.950 . S
C374 C373 1.439 1_545 S
C374 N375 1.374 . S
C374 C408 1.395 . S
N375 C371 1.376 1_545 S
N375 C374 1.374 . S
N375 Co376 2.008 . S
Co376 N375 2.008 . S
Co376 N377 1.995 . S
Co376 N382 2.008 . S
Co376 N387 1.995 . S
Co376 N392 2.282 . S
Co376 N398 2.282 . S
N377 Co376 1.995 . S
N377 C378 1.376 . S
N377 C381 1.383 . S
C378 N377 1.376 . S
C378 C379 1.446 . S
C378 C408 1.391 . S
C379 C378 1.446 . S
C379 C380 1.339 . S
C379 H414 0.949 . S
C380 C379 1.339 . S
C380 C381 1.439 . S
C380 H415 0.950 . S
C381 N377 1.383 . S
C381 C380 1.439 . S
C381 C410 1.392 . S
N382 Co376 2.008 . S
N382 C383 1.376 . S
N382 C386 1.374 . S
C383 N382 1.376 . S
C383 C384 1.443 . S
C383 C410 1.389 . S
C384 C383 1.443 . S
C384 C385 1.340 . S
C384 H416 0.951 . S
C385 C384 1.340 . S
C385 C386 1.439 . S
C385 H417 0.950 . S
C386 N382 1.374 . S
C386 C385 1.439 . S
C386 C411 1.395 . S
N387 Co376 1.995 . S
N387 C388 1.376 . S
N387 C391 1.383 . S
C388 N387 1.376 . S
C388 C389 1.446 . S
C388 C411 1.391 . S
C389 C388 1.446 . S
C389 C390 1.339 . S
C389 H418 0.949 1_554 S
C390 C389 1.339 . S
C390 C391 1.439 . S
C390 H419 0.950 1_554 S
C391 N387 1.383 . S
C391 C390 1.439 . S
C391 C409 1.392 1_545 S
N392 Co376 2.282 . S
N392 C395 1.332 . S
N392 C397 1.332 . S
C393 C394 1.386 . S
C393 C396 1.388 . S
C394 C393 1.386 . S
C394 C395 1.382 . S
C394 H420 0.950 . S
C395 N392 1.332 . S
C395 C394 1.382 . S
C395 H406 0.952 . S
C396 C393 1.388 . S
C396 C397 1.382 . S
C396 H421 0.950 . S
C397 N392 1.332 . S
C397 C396 1.382 . S
C397 H407 0.948 . S
N398 Co376 2.282 . S
N398 C402 1.332 . S
N398 C403 1.332 . S
C399 C400 1.388 . S
C399 C403 1.382 . S
C399 H422 0.950 . S
C400 C399 1.388 . S
C400 C401 1.386 . S
C401 C400 1.386 . S
C401 C402 1.382 . S
C401 H423 0.950 . S
C402 N398 1.332 . S
C402 C401 1.382 . S
C402 H404 0.952 . S
C403 N398 1.332 . S
C403 C399 1.382 . S
C403 H405 0.948 . S
H404 C402 0.952 . S
H405 C403 0.948 . S
H406 C395 0.952 . S
H407 C397 0.948 . S
C408 C374 1.395 . S
C408 C378 1.391 . S
C409 C371 1.389 . S
C409 C391 1.392 1_565 S
C410 C381 1.392 . S
C410 C383 1.389 . S
C411 C386 1.395 . S
C411 C388 1.391 . S
H412 C372 0.951 . S
H413 C373 0.950 . S
H414 C379 0.949 . S
H415 C380 0.950 . S
H416 C384 0.951 . S
H417 C385 0.950 . S
H418 C389 0.949 1_556 S
H419 C390 0.950 1_556 S
H420 C394 0.950 . S
H421 C396 0.950 . S
H422 C399 0.950 . S
H423 C401 0.950 . S
C424 C425 1.443 . S
C424 N428 1.376 . S
C424 C462 1.389 . S
C425 C424 1.443 . S
C425 C426 1.340 . S
C425 H465 0.951 . S
C426 C425 1.340 . S
C426 C427 1.439 . S
C426 H466 0.950 . S
C427 C426 1.439 . S
C427 N428 1.374 . S
C427 C461 1.395 . S
N428 C424 1.376 . S
N428 C427 1.374 . S
N428 Co429 2.008 . S
Co429 N428 2.008 . S
Co429 N430 1.995 . S
Co429 N435 2.008 . S
Co429 N440 1.995 . S
Co429 N445 2.282 . S
Co429 N451 2.282 . S
N430 Co429 1.995 . S
N430 C431 1.376 . S
N430 C434 1.383 . S
C431 N430 1.376 . S
C431 C432 1.446 . S
C431 C461 1.391 . S
C432 C431 1.446 . S
C432 C433 1.339 . S
C432 H467 0.949 . S
C433 C432 1.339 . S
C433 C434 1.439 . S
C433 H468 0.950 . S
C434 N430 1.383 . S
C434 C433 1.439 . S
C434 C463 1.392 . S
N435 Co429 2.008 . S
N435 C436 1.376 . S
N435 C439 1.374 . S
C436 N435 1.376 . S
C436 C437 1.443 . S
C436 C463 1.389 . S
C437 C436 1.443 . S
C437 C438 1.340 . S
C437 H469 0.951 . S
C438 C437 1.340 . S
C438 C439 1.439 . S
C438 H470 0.950 . S
C439 N435 1.374 . S
C439 C438 1.439 . S
C439 C464 1.395 . S
N440 Co429 1.995 . S
N440 C441 1.376 . S
N440 C444 1.383 . S
C441 N440 1.376 . S
C441 C442 1.446 . S
C441 C464 1.391 . S
C442 C441 1.446 . S
C442 C443 1.339 . S
C442 H471 0.949 . S
C443 C442 1.339 . S
C443 C444 1.439 . S
C443 H472 0.950 . S
C444 N440 1.383 . S
C444 C443 1.439 . S
C444 C462 1.392 . S
N445 Co429 2.282 . S
N445 C448 1.332 . S
N445 C450 1.332 . S
C446 C447 1.386 . S
C446 C449 1.388 . S
C447 C446 1.386 . S
C447 C448 1.382 . S
C447 H473 0.950 . S
C448 N445 1.332 . S
C448 C447 1.382 . S
C448 H459 0.952 . S
C449 C446 1.388 . S
C449 C450 1.382 . S
C449 H474 0.950 . S
C450 N445 1.332 . S
C450 C449 1.382 . S
C450 H460 0.948 . S
N451 Co429 2.282 . S
N451 C455 1.332 . S
N451 C456 1.332 . S
C452 C453 1.388 . S
C452 C456 1.382 . S
C452 H475 0.950 . S
C453 C452 1.388 . S
C453 C454 1.386 . S
C454 C453 1.386 . S
C454 C455 1.382 . S
C454 H476 0.950 . S
C455 N451 1.332 . S
C455 C454 1.382 . S
C455 H457 0.952 . S
C456 N451 1.332 . S
C456 C452 1.382 . S
C456 H458 0.948 . S
H457 C455 0.952 . S
H458 C456 0.948 . S
H459 C448 0.952 . S
H460 C450 0.948 . S
C461 C427 1.395 . S
C461 C431 1.391 . S
C462 C424 1.389 . S
C462 C444 1.392 . S
C463 C434 1.392 . S
C463 C436 1.389 . S
C464 C439 1.395 . S
C464 C441 1.391 . S
H465 C425 0.951 . S
H466 C426 0.950 . S
H467 C432 0.949 . S
H468 C433 0.950 . S
H469 C437 0.951 . S
H470 C438 0.950 . S
H471 C442 0.949 . S
H472 C443 0.950 . S
H473 C447 0.950 . S
H474 C449 0.950 . S
H475 C452 0.950 . S
H476 C454 0.950 . S
C477 C478 1.443 . S
C477 N481 1.376 . S
C477 C515 1.389 . S
C478 C477 1.443 . S
C478 C479 1.340 . S
C478 H518 0.951 . S
C479 C478 1.340 . S
C479 C480 1.439 . S
C479 H519 0.950 . S
C480 C479 1.439 . S
C480 N481 1.374 . S
C480 C514 1.395 . S
N481 C477 1.376 . S
N481 C480 1.374 . S
N481 Co482 2.008 . S
Co482 N481 2.008 . S
Co482 N483 1.995 . S
Co482 N488 2.008 . S
Co482 N493 1.995 . S
Co482 N498 2.282 . S
Co482 N504 2.282 . S
N483 Co482 1.995 . S
N483 C484 1.376 . S
N483 C487 1.383 . S
C484 N483 1.376 . S
C484 C485 1.446 . S
C484 C514 1.391 . S
C485 C484 1.446 . S
C485 C486 1.339 . S
C485 H520 0.949 . S
C486 C485 1.339 . S
C486 C487 1.439 . S
C486 H521 0.950 . S
C487 N483 1.383 . S
C487 C486 1.439 . S
C487 C516 1.392 . S
N488 Co482 2.008 . S
N488 C489 1.376 . S
N488 C492 1.374 . S
C489 N488 1.376 . S
C489 C490 1.443 . S
C489 C516 1.389 . S
C490 C489 1.443 . S
C490 C491 1.340 . S
C490 H522 0.951 . S
C491 C490 1.340 . S
C491 C492 1.439 . S
C491 H523 0.950 . S
C492 N488 1.374 . S
C492 C491 1.439 . S
C492 C517 1.395 . S
N493 Co482 1.995 . S
N493 C494 1.376 . S
N493 C497 1.383 . S
C494 N493 1.376 . S
C494 C495 1.446 . S
C494 C517 1.391 . S
C495 C494 1.446 . S
C495 C496 1.339 . S
C495 H524 0.949 . S
C496 C495 1.339 . S
C496 C497 1.439 . S
C496 H525 0.950 . S
C497 N493 1.383 . S
C497 C496 1.439 . S
C497 C515 1.392 . S
N498 Co482 2.282 . S
N498 C501 1.332 . S
N498 C503 1.332 . S
C499 C500 1.386 . S
C499 C502 1.388 . S
C500 C499 1.386 . S
C500 C501 1.382 . S
C500 H526 0.950 . S
C501 N498 1.332 . S
C501 C500 1.382 . S
C501 H512 0.952 . S
C502 C499 1.388 . S
C502 C503 1.382 . S
C502 H527 0.950 . S
C503 N498 1.332 . S
C503 C502 1.382 . S
C503 H513 0.948 . S
N504 Co482 2.282 . S
N504 C508 1.332 . S
N504 C509 1.332 . S
C505 C506 1.388 . S
C505 C509 1.382 . S
C505 H528 0.950 . S
C506 C505 1.388 . S
C506 C507 1.386 . S
C507 C506 1.386 . S
C507 C508 1.382 . S
C507 H529 0.950 . S
C508 N504 1.332 . S
C508 C507 1.382 . S
C508 H510 0.952 . S
C509 N504 1.332 . S
C509 C505 1.382 . S
C509 H511 0.948 . S
H510 C508 0.952 . S
H511 C509 0.948 . S
H512 C501 0.952 . S
H513 C503 0.948 . S
C514 C480 1.395 . S
C514 C484 1.391 . S
C515 C477 1.389 . S
C515 C497 1.392 . S
C516 C487 1.392 . S
C516 C489 1.389 . S
C517 C492 1.395 . S
C517 C494 1.391 . S
H518 C478 0.951 . S
H519 C479 0.950 . S
H520 C485 0.949 . S
H521 C486 0.950 . S
H522 C490 0.951 . S
H523 C491 0.950 . S
H524 C495 0.949 . S
H525 C496 0.950 . S
H526 C500 0.950 . S
H527 C502 0.950 . S
H528 C505 0.950 . S
H529 C507 0.950 . S
C530 C531 1.443 . S
C530 N534 1.376 . S
C530 C568 1.389 . S
C531 C530 1.443 . S
C531 C532 1.340 . S
C531 H571 0.951 . S
C532 C531 1.340 . S
C532 C533 1.439 . S
C532 H572 0.950 . S
C533 C532 1.439 . S
C533 N534 1.374 . S
C533 C567 1.395 . S
N534 C530 1.376 . S
N534 C533 1.374 . S
N534 Co535 2.008 . S
Co535 N534 2.008 . S
Co535 N536 1.995 . S
Co535 N541 2.008 . S
Co535 N546 1.995 . S
Co535 N551 2.282 . S
Co535 N557 2.282 . S
N536 Co535 1.995 . S
N536 C537 1.376 . S
N536 C540 1.383 . S
C537 N536 1.376 . S
C537 C538 1.446 . S
C537 C567 1.391 . S
C538 C537 1.446 . S
C538 C539 1.339 . S
C538 H573 0.949 . S
C539 C538 1.339 . S
C539 C540 1.439 . S
C539 H574 0.950 . S
C540 N536 1.383 . S
C540 C539 1.439 . S
C540 C569 1.392 . S
N541 Co535 2.008 . S
N541 C542 1.376 . S
N541 C545 1.374 . S
C542 N541 1.376 . S
C542 C543 1.443 . S
C542 C569 1.389 . S
C543 C542 1.443 . S
C543 C544 1.340 . S
C543 H575 0.951 . S
C544 C543 1.340 . S
C544 C545 1.439 . S
C544 H576 0.950 . S
C545 N541 1.374 . S
C545 C544 1.439 . S
C545 C570 1.395 . S
N546 Co535 1.995 . S
N546 C547 1.376 . S
N546 C550 1.383 . S
C547 N546 1.376 . S
C547 C548 1.446 . S
C547 C570 1.391 . S
C548 C547 1.446 . S
C548 C549 1.339 . S
C548 H577 0.949 . S
C549 C548 1.339 . S
C549 C550 1.439 . S
C549 H578 0.950 . S
C550 N546 1.383 . S
C550 C549 1.439 . S
C550 C568 1.392 . S
N551 Co535 2.282 . S
N551 C554 1.332 . S
N551 C556 1.332 . S
C552 C553 1.386 . S
C552 C555 1.388 . S
C553 C552 1.386 . S
C553 C554 1.382 . S
C553 H579 0.950 . S
C554 N551 1.332 . S
C554 C553 1.382 . S
C554 H565 0.952 . S
C555 C552 1.388 . S
C555 C556 1.382 . S
C555 H580 0.950 . S
C556 N551 1.332 . S
C556 C555 1.382 . S
C556 H566 0.948 . S
N557 Co535 2.282 . S
N557 C561 1.332 . S
N557 C562 1.332 . S
C558 C559 1.388 . S
C558 C562 1.382 . S
C558 H581 0.950 . S
C559 C558 1.388 . S
C559 C560 1.386 . S
C560 C559 1.386 . S
C560 C561 1.382 . S
C560 H582 0.950 . S
C561 N557 1.332 . S
C561 C560 1.382 . S
C561 H563 0.952 . S
C562 N557 1.332 . S
C562 C558 1.382 . S
C562 H564 0.948 . S
H563 C561 0.952 . S
H564 C562 0.948 . S
H565 C554 0.952 . S
H566 C556 0.948 . S
C567 C533 1.395 . S
C567 C537 1.391 . S
C568 C530 1.389 . S
C568 C550 1.392 . S
C569 C540 1.392 . S
C569 C542 1.389 . S
C570 C545 1.395 . S
C570 C547 1.391 . S
H571 C531 0.951 . S
H572 C532 0.950 . S
H573 C538 0.949 . S
H574 C539 0.950 . S
H575 C543 0.951 . S
H576 C544 0.950 . S
H577 C548 0.949 . S
H578 C549 0.950 . S
H579 C553 0.950 . S
H580 C555 0.950 . S
H581 C558 0.950 . S
H582 C560 0.950 . S
C583 C584 1.443 . S
C583 N587 1.376 . S
C583 C621 1.389 . S
C584 C583 1.443 . S
C584 C585 1.340 . S
C584 H624 0.951 . S
C585 C584 1.340 . S
C585 C586 1.439 . S
C585 H625 0.950 . S
C586 C585 1.439 . S
C586 N587 1.374 . S
C586 C620 1.395 . S
N587 C583 1.376 . S
N587 C586 1.374 . S
N587 Co588 2.008 . S
Co588 N587 2.008 . S
Co588 N589 1.995 . S
Co588 N594 2.008 . S
Co588 N599 1.995 . S
Co588 N604 2.282 . S
Co588 N610 2.282 . S
N589 Co588 1.995 . S
N589 C590 1.376 . S
N589 C593 1.383 . S
C590 N589 1.376 . S
C590 C591 1.446 . S
C590 C620 1.391 . S
C591 C590 1.446 . S
C591 C592 1.339 . S
C591 H626 0.949 . S
C592 C591 1.339 . S
C592 C593 1.439 . S
C592 H627 0.950 . S
C593 N589 1.383 . S
C593 C592 1.439 . S
C593 C622 1.392 . S
N594 Co588 2.008 . S
N594 C595 1.376 . S
N594 C598 1.374 . S
C595 N594 1.376 . S
C595 C596 1.443 . S
C595 C622 1.389 . S
C596 C595 1.443 . S
C596 C597 1.340 . S
C596 H628 0.951 . S
C597 C596 1.340 . S
C597 C598 1.439 . S
C597 H629 0.950 . S
C598 N594 1.374 . S
C598 C597 1.439 . S
C598 C623 1.395 . S
N599 Co588 1.995 . S
N599 C600 1.376 . S
N599 C603 1.383 . S
C600 N599 1.376 . S
C600 C601 1.446 . S
C600 C623 1.391 . S
C601 C600 1.446 . S
C601 C602 1.339 . S
C601 H630 0.949 . S
C602 C601 1.339 . S
C602 C603 1.439 . S
C602 H631 0.950 . S
C603 N599 1.383 . S
C603 C602 1.439 . S
C603 C621 1.392 . S
N604 Co588 2.282 . S
N604 C607 1.332 . S
N604 C609 1.332 . S
C605 C606 1.386 . S
C605 C608 1.388 . S
C606 C605 1.386 . S
C606 C607 1.382 . S
C606 H632 0.950 . S
C607 N604 1.332 . S
C607 C606 1.382 . S
C607 H618 0.952 . S
C608 C605 1.388 . S
C608 C609 1.382 . S
C608 H633 0.950 . S
C609 N604 1.332 . S
C609 C608 1.382 . S
C609 H619 0.948 . S
N610 Co588 2.282 . S
N610 C614 1.332 . S
N610 C615 1.332 . S
C611 C612 1.388 . S
C611 C615 1.382 . S
C611 H634 0.950 . S
C612 C611 1.388 . S
C612 C613 1.386 . S
C613 C612 1.386 . S
C613 C614 1.382 . S
C613 H635 0.950 . S
C614 N610 1.332 . S
C614 C613 1.382 . S
C614 H616 0.952 . S
C615 N610 1.332 . S
C615 C611 1.382 . S
C615 H617 0.948 . S
H616 C614 0.952 . S
H617 C615 0.948 . S
H618 C607 0.952 . S
H619 C609 0.948 . S
C620 C586 1.395 . S
C620 C590 1.391 . S
C621 C583 1.389 . S
C621 C603 1.392 . S
C622 C593 1.392 . S
C622 C595 1.389 . S
C623 C598 1.395 . S
C623 C600 1.391 . S
H624 C584 0.951 . S
H625 C585 0.950 . S
H626 C591 0.949 . S
H627 C592 0.950 . S
H628 C596 0.951 . S
H629 C597 0.950 . S
H630 C601 0.949 . S
H631 C602 0.950 . S
H632 C606 0.950 . S
H633 C608 0.950 . S
H634 C611 0.950 . S
H635 C613 0.950 . S
C636 C637 1.443 . S
C636 N640 1.376 . S
C636 C674 1.389 . S
C637 C636 1.443 . S
C637 C638 1.340 . S
C637 H677 0.951 . S
C638 C637 1.340 . S
C638 C639 1.439 . S
C638 H678 0.950 . S
C639 C638 1.439 . S
C639 N640 1.374 . S
C639 C673 1.395 . S
N640 C636 1.376 . S
N640 C639 1.374 . S
N640 Co641 2.008 . S
Co641 N640 2.008 . S
Co641 N642 1.995 . S
Co641 N647 2.008 . S
Co641 N652 1.995 . S
Co641 N657 2.282 . S
Co641 N663 2.282 . S
N642 Co641 1.995 . S
N642 C643 1.376 . S
N642 C646 1.383 . S
C643 N642 1.376 . S
C643 C644 1.446 . S
C643 C673 1.391 . S
C644 C643 1.446 . S
C644 C645 1.339 . S
C644 H679 0.949 . S
C645 C644 1.339 . S
C645 C646 1.439 . S
C645 H680 0.950 . S
C646 N642 1.383 . S
C646 C645 1.439 . S
C646 C675 1.392 . S
N647 Co641 2.008 . S
N647 C648 1.376 . S
N647 C651 1.374 . S
C648 N647 1.376 . S
C648 C649 1.443 . S
C648 C675 1.389 . S
C649 C648 1.443 . S
C649 C650 1.340 . S
C649 H681 0.951 . S
C650 C649 1.340 . S
C650 C651 1.439 . S
C650 H682 0.950 . S
C651 N647 1.374 . S
C651 C650 1.439 . S
C651 C676 1.395 . S
N652 Co641 1.995 . S
N652 C653 1.376 . S
N652 C656 1.383 . S
C653 N652 1.376 . S
C653 C654 1.446 . S
C653 C676 1.391 . S
C654 C653 1.446 . S
C654 C655 1.339 . S
C654 H683 0.949 . S
C655 C654 1.339 . S
C655 C656 1.439 . S
C655 H684 0.950 . S
C656 N652 1.383 . S
C656 C655 1.439 . S
C656 C674 1.392 . S
N657 Co641 2.282 . S
N657 C660 1.332 . S
N657 C662 1.332 . S
C658 C659 1.386 . S
C658 C661 1.388 . S
C659 C658 1.386 . S
C659 C660 1.382 . S
C659 H685 0.950 . S
C660 N657 1.332 . S
C660 C659 1.382 . S
C660 H671 0.952 . S
C661 C658 1.388 . S
C661 C662 1.382 . S
C661 H686 0.950 . S
C662 N657 1.332 . S
C662 C661 1.382 . S
C662 H672 0.948 . S
N663 Co641 2.282 . S
N663 C667 1.332 . S
N663 C668 1.332 . S
C664 C665 1.388 . S
C664 C668 1.382 . S
C664 H687 0.950 . S
C665 C664 1.388 . S
C665 C666 1.386 . S
C666 C665 1.386 . S
C666 C667 1.382 . S
C666 H688 0.950 . S
C667 N663 1.332 . S
C667 C666 1.382 . S
C667 H669 0.952 . S
C668 N663 1.332 . S
C668 C664 1.382 . S
C668 H670 0.948 . S
H669 C667 0.952 . S
H670 C668 0.948 . S
H671 C660 0.952 . S
H672 C662 0.948 . S
C673 C639 1.395 . S
C673 C643 1.391 . S
C674 C636 1.389 . S
C674 C656 1.392 . S
C675 C646 1.392 . S
C675 C648 1.389 . S
C676 C651 1.395 . S
C676 C653 1.391 . S
H677 C637 0.951 . S
H678 C638 0.950 . S
H679 C644 0.949 . S
H680 C645 0.950 . S
H681 C649 0.951 . S
H682 C650 0.950 . S
H683 C654 0.949 . S
H684 C655 0.950 . S
H685 C659 0.950 . S
H686 C661 0.950 . S
H687 C664 0.950 . S
H688 C666 0.950 . S
C689 C690 1.443 . S
C689 N693 1.376 . S
C689 C727 1.389 . S
C690 C689 1.443 . S
C690 C691 1.340 . S
C690 H730 0.951 . S
C691 C690 1.340 . S
C691 C692 1.439 . S
C691 H731 0.950 . S
C692 C691 1.439 . S
C692 N693 1.374 . S
C692 C726 1.395 . S
N693 C689 1.376 . S
N693 C692 1.374 . S
N693 Co694 2.008 . S
Co694 N693 2.008 . S
Co694 N695 1.995 . S
Co694 N700 2.008 . S
Co694 N705 1.995 . S
Co694 N710 2.282 . S
Co694 N716 2.282 . S
N695 Co694 1.995 . S
N695 C696 1.376 . S
N695 C699 1.383 . S
C696 N695 1.376 . S
C696 C697 1.446 . S
C696 C726 1.391 . S
C697 C696 1.446 . S
C697 C698 1.339 . S
C697 H732 0.949 . S
C698 C697 1.339 . S
C698 C699 1.439 . S
C698 H733 0.950 . S
C699 N695 1.383 . S
C699 C698 1.439 . S
C699 C728 1.392 . S
N700 Co694 2.008 . S
N700 C701 1.376 . S
N700 C704 1.374 . S
C701 N700 1.376 . S
C701 C702 1.443 . S
C701 C728 1.389 . S
C702 C701 1.443 . S
C702 C703 1.340 . S
C702 H734 0.951 . S
C703 C702 1.340 . S
C703 C704 1.439 . S
C703 H735 0.950 . S
C704 N700 1.374 . S
C704 C703 1.439 . S
C704 C729 1.395 . S
N705 Co694 1.995 . S
N705 C706 1.376 . S
N705 C709 1.383 . S
C706 N705 1.376 . S
C706 C707 1.446 . S
C706 C729 1.391 . S
C707 C706 1.446 . S
C707 C708 1.339 . S
C707 H736 0.949 . S
C708 C707 1.339 . S
C708 C709 1.439 . S
C708 H737 0.950 . S
C709 N705 1.383 . S
C709 C708 1.439 . S
C709 C727 1.392 . S
N710 Co694 2.282 . S
N710 C713 1.332 . S
N710 C715 1.332 . S
C711 C712 1.386 . S
C711 C714 1.388 . S
C712 C711 1.386 . S
C712 C713 1.382 . S
C712 H738 0.950 . S
C713 N710 1.332 . S
C713 C712 1.382 . S
C713 H724 0.952 . S
C714 C711 1.388 . S
C714 C715 1.382 . S
C714 H739 0.950 . S
C715 N710 1.332 . S
C715 C714 1.382 . S
C715 H725 0.948 . S
N716 Co694 2.282 . S
N716 C720 1.332 . S
N716 C721 1.332 . S
C717 C718 1.388 . S
C717 C721 1.382 . S
C717 H740 0.950 . S
C718 C717 1.388 . S
C718 C719 1.386 . S
C719 C718 1.386 . S
C719 C720 1.382 . S
C719 H741 0.950 . S
C720 N716 1.332 . S
C720 C719 1.382 . S
C720 H722 0.952 . S
C721 N716 1.332 . S
C721 C717 1.382 . S
C721 H723 0.948 . S
H722 C720 0.952 . S
H723 C721 0.948 . S
H724 C713 0.952 . S
H725 C715 0.948 . S
C726 C692 1.395 . S
C726 C696 1.391 . S
C727 C689 1.389 . S
C727 C709 1.392 . S
C728 C699 1.392 . S
C728 C701 1.389 . S
C729 C704 1.395 . S
C729 C706 1.391 . S
H730 C690 0.951 . S
H731 C691 0.950 . S
H732 C697 0.949 . S
H733 C698 0.950 . S
H734 C702 0.951 . S
H735 C703 0.950 . S
H736 C707 0.949 . S
H737 C708 0.950 . S
H738 C712 0.950 . S
H739 C714 0.950 . S
H740 C717 0.950 . S
H741 C719 0.950 . S
C742 C743 1.443 . S
C742 N746 1.376 . S
C742 C780 1.389 . S
C743 C742 1.443 . S
C743 C744 1.340 . S
C743 H783 0.951 . S
C744 C743 1.340 . S
C744 C745 1.439 . S
C744 H784 0.950 . S
C745 C744 1.439 . S
C745 N746 1.374 . S
C745 C779 1.395 . S
N746 C742 1.376 . S
N746 C745 1.374 . S
N746 Co747 2.008 . S
Co747 N746 2.008 . S
Co747 N748 1.995 . S
Co747 N753 2.008 . S
Co747 N758 1.995 . S
Co747 N763 2.282 . S
Co747 N769 2.282 . S
N748 Co747 1.995 . S
N748 C749 1.376 . S
N748 C752 1.383 . S
C749 N748 1.376 . S
C749 C750 1.446 . S
C749 C779 1.391 . S
C750 C749 1.446 . S
C750 C751 1.339 . S
C750 H785 0.949 . S
C751 C750 1.339 . S
C751 C752 1.439 . S
C751 H786 0.950 . S
C752 N748 1.383 . S
C752 C751 1.439 . S
C752 C781 1.392 . S
N753 Co747 2.008 . S
N753 C754 1.376 . S
N753 C757 1.374 . S
C754 N753 1.376 . S
C754 C755 1.443 . S
C754 C781 1.389 . S
C755 C754 1.443 . S
C755 C756 1.340 . S
C755 H787 0.951 . S
C756 C755 1.340 . S
C756 C757 1.439 . S
C756 H788 0.950 . S
C757 N753 1.374 . S
C757 C756 1.439 . S
C757 C782 1.395 . S
N758 Co747 1.995 . S
N758 C759 1.376 . S
N758 C762 1.383 . S
C759 N758 1.376 . S
C759 C760 1.446 . S
C759 C782 1.391 . S
C760 C759 1.446 . S
C760 C761 1.339 . S
C760 H789 0.949 . S
C761 C760 1.339 . S
C761 C762 1.439 . S
C761 H790 0.950 . S
C762 N758 1.383 . S
C762 C761 1.439 . S
C762 C780 1.392 . S
N763 Co747 2.282 . S
N763 C766 1.332 . S
N763 C768 1.332 . S
C764 C765 1.386 . S
C764 C767 1.388 . S
C765 C764 1.386 . S
C765 C766 1.382 . S
C765 H791 0.950 . S
C766 N763 1.332 . S
C766 C765 1.382 . S
C766 H777 0.952 . S
C767 C764 1.388 . S
C767 C768 1.382 . S
C767 H792 0.950 . S
C768 N763 1.332 . S
C768 C767 1.382 . S
C768 H778 0.948 . S
N769 Co747 2.282 . S
N769 C773 1.332 . S
N769 C774 1.332 . S
C770 C771 1.388 . S
C770 C774 1.382 . S
C770 H793 0.950 . S
C771 C770 1.388 . S
C771 C772 1.386 . S
C772 C771 1.386 . S
C772 C773 1.382 . S
C772 H794 0.950 . S
C773 N769 1.332 . S
C773 C772 1.382 . S
C773 H775 0.952 . S
C774 N769 1.332 . S
C774 C770 1.382 . S
C774 H776 0.948 . S
H775 C773 0.952 . S
H776 C774 0.948 . S
H777 C766 0.952 . S
H778 C768 0.948 . S
C779 C745 1.395 . S
C779 C749 1.391 . S
C780 C742 1.389 . S
C780 C762 1.392 . S
C781 C752 1.392 . S
C781 C754 1.389 . S
C782 C757 1.395 . S
C782 C759 1.391 . S
H783 C743 0.951 . S
H784 C744 0.950 . S
H785 C750 0.949 . S
H786 C751 0.950 . S
H787 C755 0.951 . S
H788 C756 0.950 . S
H789 C760 0.949 . S
H790 C761 0.950 . S
H791 C765 0.950 . S
H792 C767 0.950 . S
H793 C770 0.950 . S
H794 C772 0.950 . S
C795 C796 1.443 . S
C795 N799 1.376 . S
C795 C833 1.389 . S
C796 C795 1.443 . S
C796 C797 1.340 . S
C796 H836 0.951 . S
C797 C796 1.340 . S
C797 C798 1.439 . S
C797 H837 0.950 . S
C798 C797 1.439 . S
C798 N799 1.374 . S
C798 C832 1.395 . S
N799 C795 1.376 . S
N799 C798 1.374 . S
N799 Co800 2.008 . S
Co800 N799 2.008 . S
Co800 N801 1.995 . S
Co800 N806 2.008 . S
Co800 N811 1.995 . S
Co800 N816 2.282 . S
Co800 N822 2.282 . S
N801 Co800 1.995 . S
N801 C802 1.376 . S
N801 C805 1.383 . S
C802 N801 1.376 . S
C802 C803 1.446 . S
C802 C832 1.391 . S
C803 C802 1.446 . S
C803 C804 1.339 . S
C803 H838 0.949 . S
C804 C803 1.339 . S
C804 C805 1.439 . S
C804 H839 0.950 . S
C805 N801 1.383 . S
C805 C804 1.439 . S
C805 C834 1.392 . S
N806 Co800 2.008 . S
N806 C807 1.376 . S
N806 C810 1.374 . S
C807 N806 1.376 . S
C807 C808 1.443 . S
C807 C834 1.389 . S
C808 C807 1.443 . S
C808 C809 1.340 . S
C808 H840 0.951 . S
C809 C808 1.340 . S
C809 C810 1.439 . S
C809 H841 0.950 . S
C810 N806 1.374 . S
C810 C809 1.439 . S
C810 C835 1.395 . S
N811 Co800 1.995 . S
N811 C812 1.376 . S
N811 C815 1.383 . S
C812 N811 1.376 . S
C812 C813 1.446 . S
C812 C835 1.391 . S
C813 C812 1.446 . S
C813 C814 1.339 . S
C813 H842 0.949 . S
C814 C813 1.339 . S
C814 C815 1.439 . S
C814 H843 0.950 . S
C815 N811 1.383 . S
C815 C814 1.439 . S
C815 C833 1.392 . S
N816 Co800 2.282 . S
N816 C819 1.332 . S
N816 C821 1.332 . S
C817 C818 1.386 . S
C817 C820 1.388 . S
C818 C817 1.386 . S
C818 C819 1.382 . S
C818 H844 0.950 . S
C819 N816 1.332 . S
C819 C818 1.382 . S
C819 H830 0.952 . S
C820 C817 1.388 . S
C820 C821 1.382 . S
C820 H845 0.950 . S
C821 N816 1.332 . S
C821 C820 1.382 . S
C821 H831 0.948 . S
N822 Co800 2.282 . S
N822 C826 1.332 . S
N822 C827 1.332 . S
C823 C824 1.388 . S
C823 C827 1.382 . S
C823 H846 0.950 . S
C824 C823 1.388 . S
C824 C825 1.386 . S
C825 C824 1.386 . S
C825 C826 1.382 . S
C825 H847 0.950 . S
C826 N822 1.332 . S
C826 C825 1.382 . S
C826 H828 0.952 . S
C827 N822 1.332 . S
C827 C823 1.382 . S
C827 H829 0.948 . S
H828 C826 0.952 . S
H829 C827 0.948 . S
H830 C819 0.952 . S
H831 C821 0.948 . S
C832 C798 1.395 . S
C832 C802 1.391 . S
C833 C795 1.389 . S
C833 C815 1.392 . S
C834 C805 1.392 . S
C834 C807 1.389 . S
C835 C810 1.395 . S
C835 C812 1.391 . S
H836 C796 0.951 . S
H837 C797 0.950 . S
H838 C803 0.949 . S
H839 C804 0.950 . S
H840 C808 0.951 . S
H841 C809 0.950 . S
H842 C813 0.949 . S
H843 C814 0.950 . S
H844 C818 0.950 . S
H845 C820 0.950 . S
H846 C823 0.950 . S
H847 C825 0.950 . S
C848 C849 1.363 . S
C848 C854 1.379 . S
C848 N856 1.356 . S
C849 C848 1.363 . S
C849 C855 1.363 . S
C850 C851 1.363 . S
C850 C855 1.379 . S
C850 N857 1.356 . S
C851 C850 1.363 . S
C851 C854 1.363 . S
N852 C854 1.356 . S
N852 H864 0.984 . S
N852 H865 0.985 . S
N853 C855 1.356 . S
N853 H858 0.984 . S
N853 H859 0.985 . S
C854 C848 1.379 . S
C854 C851 1.363 . S
C854 N852 1.356 . S
C855 C849 1.363 . S
C855 C850 1.379 . S
C855 N853 1.356 . S
N856 C848 1.356 . S
N856 H862 0.984 . S
N856 H863 0.984 . S
N857 C850 1.356 . S
N857 H860 0.984 . S
N857 H861 0.985 . S
H858 N853 0.984 . S
H859 N853 0.985 . S
H860 N857 0.984 . S
H861 N857 0.985 . S
H862 N856 0.984 . S
H863 N856 0.984 . S
H864 N852 0.984 . S
H865 N852 0.985 . S
C866 C867 1.363 . S
C866 C872 1.379 . S
C866 N874 1.356 . S
C867 C866 1.363 . S
C867 C873 1.363 . S
C868 C869 1.363 . S
C868 C873 1.379 . S
C868 N875 1.356 . S
C869 C868 1.363 . S
C869 C872 1.363 . S
N870 C872 1.356 . S
N870 H882 0.984 . S
N870 H883 0.985 . S
N871 C873 1.356 . S
N871 H876 0.984 . S
N871 H877 0.985 . S
C872 C866 1.379 . S
C872 C869 1.363 . S
C872 N870 1.356 . S
C873 C867 1.363 . S
C873 C868 1.379 . S
C873 N871 1.356 . S
N874 C866 1.356 . S
N874 H880 0.984 . S
N874 H881 0.984 . S
N875 C868 1.356 . S
N875 H878 0.984 . S
N875 H879 0.985 . S
H876 N871 0.984 . S
H877 N871 0.985 . S
H878 N875 0.984 . S
H879 N875 0.985 . S
H880 N874 0.984 . S
H881 N874 0.984 . S
H882 N870 0.984 . S
H883 N870 0.985 . S
C884 C885 1.363 . S
C884 C890 1.379 . S
C884 N892 1.356 . S
C885 C884 1.363 . S
C885 C891 1.363 . S
C886 C887 1.363 . S
C886 C891 1.379 . S
C886 N893 1.356 . S
C887 C886 1.363 . S
C887 C890 1.363 . S
N888 C890 1.356 . S
N888 H900 0.984 . S
N888 H901 0.985 . S
N889 C891 1.356 . S
N889 H894 0.984 . S
N889 H895 0.985 . S
C890 C884 1.379 . S
C890 C887 1.363 . S
C890 N888 1.356 . S
C891 C885 1.363 . S
C891 C886 1.379 . S
C891 N889 1.356 . S
N892 C884 1.356 . S
N892 H898 0.984 . S
N892 H899 0.984 . S
N893 C886 1.356 . S
N893 H896 0.984 . S
N893 H897 0.985 . S
H894 N889 0.984 . S
H895 N889 0.985 . S
H896 N893 0.984 . S
H897 N893 0.985 . S
H898 N892 0.984 . S
H899 N892 0.984 . S
H900 N888 0.984 . S
H901 N888 0.985 . S
C902 C903 1.363 . S
C902 C908 1.379 . S
C902 N910 1.356 . S
C903 C902 1.363 . S
C903 C909 1.363 . S
C904 C905 1.363 . S
C904 C909 1.379 . S
C904 N911 1.356 . S
C905 C904 1.363 . S
C905 C908 1.363 . S
N906 C908 1.356 . S
N906 H918 0.984 . S
N906 H919 0.985 . S
N907 C909 1.356 . S
N907 H912 0.984 . S
N907 H913 0.985 . S
C908 C902 1.379 . S
C908 C905 1.363 . S
C908 N906 1.356 . S
C909 C903 1.363 . S
C909 C904 1.379 . S
C909 N907 1.356 . S
N910 C902 1.356 . S
N910 H916 0.984 . S
N910 H917 0.984 . S
N911 C904 1.356 . S
N911 H914 0.984 . S
N911 H915 0.985 . S
H912 N907 0.984 . S
H913 N907 0.985 . S
H914 N911 0.984 . S
H915 N911 0.985 . S
H916 N910 0.984 . S
H917 N910 0.984 . S
H918 N906 0.984 . S
H919 N906 0.985 . S
C920 C921 1.363 . S
C920 C926 1.379 1_554 S
C920 N928 1.356 1_545 S
C921 C920 1.363 . S
C921 C927 1.363 . S
C922 C923 1.363 . S
C922 C927 1.379 1_556 S
C922 N929 1.356 . S
C923 C922 1.363 . S
C923 C926 1.363 . S
N924 C926 1.356 . S
N924 H936 0.984 1_545 S
N924 H937 0.985 . S
N925 C927 1.356 . S
N925 H930 0.984 . S
N925 H931 0.985 . S
C926 C920 1.379 1_556 S
C926 C923 1.363 . S
C926 N924 1.356 . S
C927 C921 1.363 . S
C927 C922 1.379 1_554 S
C927 N925 1.356 . S
N928 C920 1.356 1_565 S
N928 H934 0.984 . S
N928 H935 0.984 . S
N929 C922 1.356 . S
N929 H932 0.984 . S
N929 H933 0.985 . S
H930 N925 0.984 . S
H931 N925 0.985 . S
H932 N929 0.984 . S
H933 N929 0.985 . S
H934 N928 0.984 . S
H935 N928 0.984 . S
H936 N924 0.984 1_565 S
H937 N924 0.985 . S
C938 C939 1.363 . S
C938 C944 1.379 1_554 S
C938 N946 1.356 . S
C939 C938 1.363 . S
C939 C945 1.363 . S
C940 C941 1.363 . S
C940 C945 1.379 1_556 S
C940 N947 1.356 1_455 S
C941 C940 1.363 . S
C941 C944 1.363 . S
N942 C944 1.356 . S
N942 H954 0.984 . S
N942 H955 0.985 . S
N943 C945 1.356 . S
N943 H948 0.984 . S
N943 H949 0.985 1_455 S
C944 C938 1.379 1_556 S
C944 C941 1.363 . S
C944 N942 1.356 . S
C945 C939 1.363 . S
C945 C940 1.379 1_554 S
C945 N943 1.356 . S
N946 C938 1.356 . S
N946 H952 0.984 . S
N946 H953 0.984 . S
N947 C940 1.356 1_655 S
N947 H950 0.984 . S
N947 H951 0.985 . S
H948 N943 0.984 . S
H949 N943 0.985 1_655 S
H950 N947 0.984 . S
H951 N947 0.985 . S
H952 N946 0.984 . S
H953 N946 0.984 . S
H954 N942 0.984 . S
H955 N942 0.985 . S
C956 C957 1.363 . S
C956 C962 1.391 . S
C956 N964 1.356 . S
C957 C956 1.363 . S
C957 C963 1.363 . S
C958 C959 1.363 . S
C958 C963 1.379 1_554 S
C958 N965 1.356 . S
C959 C958 1.363 . S
C959 C962 1.352 1_554 S
N960 C962 1.350 1_544 S
N960 H972 0.999 . S
N960 H973 0.985 . S
N961 C963 1.356 . S
N961 H966 0.984 . S
N961 H967 0.985 . S
C962 C956 1.391 . S
C962 C959 1.352 1_556 S
C962 N960 1.350 1_566 S
C963 C957 1.363 . S
C963 C958 1.379 1_556 S
C963 N961 1.356 . S
N964 C956 1.356 . S
N964 H970 0.984 1_565 S
N964 H971 0.984 . S
N965 C958 1.356 . S
N965 H968 0.984 . S
N965 H969 0.985 . S
H966 N961 0.984 . S
H967 N961 0.985 . S
H968 N965 0.984 . S
H969 N965 0.985 . S
H970 N964 0.984 1_545 S
H971 N964 0.984 . S
H972 N960 0.999 . S
H973 N960 0.985 . S
C974 C975 1.363 . S
C974 C980 1.379 1_554 S
C974 N982 1.356 . S
C975 C974 1.363 . S
C975 C981 1.363 . S
C976 C977 1.363 1_554 S
C976 C981 1.379 . S
C976 N983 1.356 1_554 S
C977 C976 1.363 1_556 S
C977 C980 1.363 . S
N978 C980 1.356 . S
N978 H990 0.984 . S
N978 H991 0.985 . S
N979 C981 1.356 . S
N979 H984 0.984 . S
N979 H985 0.985 . S
C980 C974 1.379 1_556 S
C980 C977 1.363 . S
C980 N978 1.356 . S
C981 C975 1.363 . S
C981 C976 1.379 . S
C981 N979 1.356 . S
N982 C974 1.356 . S
N982 H988 0.988 1_554 S
N982 H989 0.984 . S
N983 C976 1.356 1_556 S
N983 H986 0.984 . S
N983 H987 0.985 1_556 S
H984 N979 0.984 . S
H985 N979 0.985 . S
H986 N983 0.984 . S
H987 N983 0.985 1_554 S
H988 N982 0.988 1_556 S
H989 N982 0.984 . S
H990 N978 0.984 . S
H991 N978 0.985 . S
C992 C993 1.363 . S
C992 C998 1.379 . S
C992 N1000 1.356 . S
C993 C992 1.363 . S
C993 C999 1.363 . S
C994 C995 1.363 . S
C994 C999 1.379 . S
C994 N1001 1.356 . S
C995 C994 1.363 . S
C995 C998 1.363 . S
N996 C998 1.356 1_545 S
N996 H1008 0.984 . S
N996 H1009 0.985 . S
N997 C999 1.356 . S
N997 H1002 0.984 . S
N997 H1003 0.985 . S
C998 C992 1.379 . S
C998 C995 1.363 . S
C998 N996 1.356 1_565 S
C999 C993 1.363 . S
C999 C994 1.379 . S
C999 N997 1.356 . S
N1000 C992 1.356 . S
N1000 H1006 0.984 1_565 S
N1000 H1007 0.984 . S
N1001 C994 1.356 . S
N1001 H1004 0.984 . S
N1001 H1005 0.985 . S
H1002 N997 0.984 . S
H1003 N997 0.985 . S
H1004 N1001 0.984 . S
H1005 N1001 0.985 . S
H1006 N1000 0.984 1_545 S
H1007 N1000 0.984 . S
H1008 N996 0.984 . S
H1009 N996 0.985 . S
C1010 C1011 1.363 . S
C1010 C1016 1.379 . S
C1010 N1018 1.356 . S
C1011 C1010 1.363 . S
C1011 C1017 1.363 . S
C1012 C1013 1.363 . S
C1012 C1017 1.379 . S
C1012 N1019 1.356 . S
C1013 C1012 1.363 . S
C1013 C1016 1.363 . S
N1014 C1016 1.356 . S
N1014 H1026 0.984 . S
N1014 H1027 0.985 . S
N1015 C1017 1.356 1_455 S
N1015 H1020 0.984 . S
N1015 H1021 0.985 . S
C1016 C1010 1.379 . S
C1016 C1013 1.363 . S
C1016 N1014 1.356 . S
C1017 C1011 1.363 . S
C1017 C1012 1.379 . S
C1017 N1015 1.356 1_655 S
N1018 C1010 1.356 . S
N1018 H1024 0.984 . S
N1018 H1025 0.984 . S
N1019 C1012 1.356 . S
N1019 H1022 0.984 . S
N1019 H1023 0.985 . S
H1020 N1015 0.984 . S
H1021 N1015 0.985 . S
H1022 N1019 0.984 . S
H1023 N1019 0.985 . S
H1024 N1018 0.984 . S
H1025 N1018 0.984 . S
H1026 N1014 0.984 . S
H1027 N1014 0.985 . S
C1028 C1029 1.363 . S
C1028 C1034 1.379 . S
C1028 N1036 1.356 . S
C1029 C1028 1.363 . S
C1029 C1035 1.363 . S
C1030 C1031 1.363 . S
C1030 C1035 1.379 . S
C1030 N1037 1.356 . S
C1031 C1030 1.363 . S
C1031 C1034 1.363 . S
N1032 C1034 1.356 . S
N1032 H1044 0.984 . S
N1032 H1045 0.985 . S
N1033 C1035 1.356 1_565 S
N1033 H1038 0.984 . S
N1033 H1039 0.985 . S
C1034 C1028 1.379 . S
C1034 C1031 1.363 . S
C1034 N1032 1.356 . S
C1035 C1029 1.363 . S
C1035 C1030 1.379 . S
C1035 N1033 1.356 1_545 S
N1036 C1028 1.356 . S
N1036 H1042 0.984 . S
N1036 H1043 0.984 . S
N1037 C1030 1.356 . S
N1037 H1040 0.984 . S
N1037 H1041 0.985 . S
H1038 N1033 0.984 . S
H1039 N1033 0.985 . S
H1040 N1037 0.984 . S
H1041 N1037 0.985 . S
H1042 N1036 0.984 . S
H1043 N1036 0.984 . S
H1044 N1032 0.984 . S
H1045 N1032 0.985 . S
C1046 C1047 1.363 . S
C1046 C1052 1.379 . S
C1046 N1054 1.356 . S
C1047 C1046 1.363 . S
C1047 C1053 1.363 . S
C1048 C1049 1.363 . S
C1048 C1053 1.379 . S
C1048 N1055 1.356 . S
C1049 C1048 1.363 . S
C1049 C1052 1.363 . S
N1050 C1052 1.356 . S
N1050 H1062 0.984 . S
N1050 H1063 0.985 . S
N1051 C1053 1.356 1_655 S
N1051 H1056 0.984 . S
N1051 H1057 0.985 . S
C1052 C1046 1.379 . S
C1052 C1049 1.363 . S
C1052 N1050 1.356 . S
C1053 C1047 1.363 . S
C1053 C1048 1.379 . S
C1053 N1051 1.356 1_455 S
N1054 C1046 1.356 . S
N1054 H1060 0.984 . S
N1054 H1061 0.984 . S
N1055 C1048 1.356 . S
N1055 H1058 0.984 . S
N1055 H1059 0.985 1_455 S
H1056 N1051 0.984 . S
H1057 N1051 0.985 . S
H1058 N1055 0.984 . S
H1059 N1055 0.985 1_655 S
H1060 N1054 0.984 . S
H1061 N1054 0.984 . S
H1062 N1050 0.984 . S
H1063 N1050 0.985 . S
C1064 C1065 1.363 . S
C1064 C1070 1.379 . S
C1064 N1072 1.356 . S
C1065 C1064 1.363 . S
C1065 C1071 1.363 . S
C1066 C1067 1.363 . S
C1066 C1071 1.379 . S
C1066 N1073 1.356 . S
C1067 C1066 1.363 . S
C1067 C1070 1.363 . S
N1068 C1070 1.356 . S
N1068 H1080 0.984 . S
N1068 H1081 0.985 . S
N1069 C1071 1.356 . S
N1069 H1074 0.984 . S
N1069 H1075 0.985 . S
C1070 C1064 1.379 . S
C1070 C1067 1.363 . S
C1070 N1068 1.356 . S
C1071 C1065 1.363 . S
C1071 C1066 1.379 . S
C1071 N1069 1.356 . S
N1072 C1064 1.356 . S
N1072 H1078 0.984 . S
N1072 H1079 0.984 . S
N1073 C1066 1.356 . S
N1073 H1076 0.984 . S
N1073 H1077 0.985 . S
H1074 N1069 0.984 . S
H1075 N1069 0.985 . S
H1076 N1073 0.984 . S
H1077 N1073 0.985 . S
H1078 N1072 0.984 . S
H1079 N1072 0.984 . S
H1080 N1068 0.984 . S
H1081 N1068 0.985 . S
C1082 C1083 1.363 . S
C1082 C1088 1.379 . S
C1082 N1090 1.356 . S
C1083 C1082 1.363 . S
C1083 C1089 1.363 . S
C1084 C1085 1.363 . S
C1084 C1089 1.379 . S
C1084 N1091 1.356 . S
C1085 C1084 1.363 . S
C1085 C1088 1.363 . S
N1086 C1088 1.356 . S
N1086 H1098 0.984 . S
N1086 H1099 0.985 . S
N1087 C1089 1.356 . S
N1087 H1092 0.984 . S
N1087 H1093 0.985 . S
C1088 C1082 1.379 . S
C1088 C1085 1.363 . S
C1088 N1086 1.356 . S
C1089 C1083 1.363 . S
C1089 C1084 1.379 . S
C1089 N1087 1.356 . S
N1090 C1082 1.356 . S
N1090 H1096 0.984 . S
N1090 H1097 0.984 . S
N1091 C1084 1.356 . S
N1091 H1094 0.984 . S
N1091 H1095 0.985 . S
H1092 N1087 0.984 . S
H1093 N1087 0.985 . S
H1094 N1091 0.984 . S
H1095 N1091 0.985 . S
H1096 N1090 0.984 . S
H1097 N1090 0.984 . S
H1098 N1086 0.984 . S
H1099 N1086 0.985 . S
C1100 C1101 1.363 . S
C1100 C1106 1.379 . S
C1100 N1108 1.356 . S
C1101 C1100 1.363 . S
C1101 C1107 1.363 . S
C1102 C1103 1.363 . S
C1102 C1107 1.379 . S
C1102 N1109 1.356 . S
C1103 C1102 1.363 . S
C1103 C1106 1.363 . S
N1104 C1106 1.356 . S
N1104 H1116 0.984 . S
N1104 H1117 0.985 . S
N1105 C1107 1.356 . S
N1105 H1110 0.984 . S
N1105 H1111 0.985 . S
C1106 C1100 1.379 . S
C1106 C1103 1.363 . S
C1106 N1104 1.356 . S
C1107 C1101 1.363 . S
C1107 C1102 1.379 . S
C1107 N1105 1.356 . S
N1108 C1100 1.356 . S
N1108 H1114 0.984 . S
N1108 H1115 0.984 . S
N1109 C1102 1.356 . S
N1109 H1112 0.984 . S
N1109 H1113 0.985 . S
H1110 N1105 0.984 . S
H1111 N1105 0.985 . S
H1112 N1109 0.984 . S
H1113 N1109 0.985 . S
H1114 N1108 0.984 . S
H1115 N1108 0.984 . S
H1116 N1104 0.984 . S
H1117 N1104 0.985 . S
C1118 C1119 1.363 . S
C1118 C1124 1.379 . S
C1118 N1126 1.356 . S
C1119 C1118 1.363 . S
C1119 C1125 1.363 . S
C1120 C1121 1.363 . S
C1120 C1125 1.379 . S
C1120 N1127 1.356 . S
C1121 C1120 1.363 . S
C1121 C1124 1.363 . S
N1122 C1124 1.356 . S
N1122 H1134 0.984 . S
N1122 H1135 0.985 . S
N1123 C1125 1.356 . S
N1123 H1128 0.984 . S
N1123 H1129 0.985 . S
C1124 C1118 1.379 . S
C1124 C1121 1.363 . S
C1124 N1122 1.356 . S
C1125 C1119 1.363 . S
C1125 C1120 1.379 . S
C1125 N1123 1.356 . S
N1126 C1118 1.356 . S
N1126 H1132 0.984 . S
N1126 H1133 0.984 . S
N1127 C1120 1.356 . S
N1127 H1130 0.984 . S
N1127 H1131 0.985 . S
H1128 N1123 0.984 . S
H1129 N1123 0.985 . S
H1130 N1127 0.984 . S
H1131 N1127 0.985 . S
H1132 N1126 0.984 . S
H1133 N1126 0.984 . S
H1134 N1122 0.984 . S
H1135 N1122 0.985 . S
C1136 C1137 1.363 . S
C1136 C1142 1.379 . S
C1136 N1144 1.356 . S
C1137 C1136 1.363 . S
C1137 C1143 1.363 . S
C1138 C1139 1.363 . S
C1138 C1143 1.379 . S
C1138 N1145 1.356 . S
C1139 C1138 1.363 . S
C1139 C1142 1.363 . S
N1140 C1142 1.356 . S
N1140 H1152 0.984 . S
N1140 H1153 0.985 . S
N1141 C1143 1.356 . S
N1141 H1146 0.984 . S
N1141 H1147 0.985 . S
C1142 C1136 1.379 . S
C1142 C1139 1.363 . S
C1142 N1140 1.356 . S
C1143 C1137 1.363 . S
C1143 C1138 1.379 . S
C1143 N1141 1.356 . S
N1144 C1136 1.356 . S
N1144 H1150 0.984 . S
N1144 H1151 0.984 . S
N1145 C1138 1.356 . S
N1145 H1148 0.984 . S
N1145 H1149 0.985 . S
H1146 N1141 0.984 . S
H1147 N1141 0.985 . S
H1148 N1145 0.984 . S
H1149 N1145 0.985 . S
H1150 N1144 0.984 . S
H1151 N1144 0.984 . S
H1152 N1140 0.984 . S
H1153 N1140 0.985 . S
C1154 C1155 1.363 . S
C1154 C1160 1.379 . S
C1154 N1162 1.356 . S
C1155 C1154 1.363 . S
C1155 C1161 1.363 . S
C1156 C1157 1.363 . S
C1156 C1161 1.379 . S
C1156 N1163 1.356 . S
C1157 C1156 1.363 . S
C1157 C1160 1.363 . S
N1158 C1160 1.356 . S
N1158 H1170 0.984 . S
N1158 H1171 0.985 . S
N1159 C1161 1.356 . S
N1159 H1164 0.984 . S
N1159 H1165 0.985 . S
C1160 C1154 1.379 . S
C1160 C1157 1.363 . S
C1160 N1158 1.356 . S
C1161 C1155 1.363 . S
C1161 C1156 1.379 . S
C1161 N1159 1.356 . S
N1162 C1154 1.356 . S
N1162 H1168 0.984 . S
N1162 H1169 0.984 . S
N1163 C1156 1.356 . S
N1163 H1166 0.984 . S
N1163 H1167 0.985 . S
H1164 N1159 0.984 . S
H1165 N1159 0.985 . S
H1166 N1163 0.984 . S
H1167 N1163 0.985 . S
H1168 N1162 0.984 . S
H1169 N1162 0.984 . S
H1170 N1158 0.984 . S
H1171 N1158 0.985 . S
C1172 C1173 1.363 . S
C1172 C1178 1.379 . S
C1172 N1180 1.356 . S
C1173 C1172 1.363 . S
C1173 C1179 1.363 . S
C1174 C1175 1.363 . S
C1174 C1179 1.379 . S
C1174 N1181 1.356 . S
C1175 C1174 1.363 . S
C1175 C1178 1.363 . S
N1176 C1178 1.356 . S
N1176 H1188 0.984 . S
N1176 H1189 0.985 . S
N1177 C1179 1.356 . S
N1177 H1182 0.984 . S
N1177 H1183 0.985 . S
C1178 C1172 1.379 . S
C1178 C1175 1.363 . S
C1178 N1176 1.356 . S
C1179 C1173 1.363 . S
C1179 C1174 1.379 . S
C1179 N1177 1.356 . S
N1180 C1172 1.356 . S
N1180 H1186 0.984 . S
N1180 H1187 0.984 . S
N1181 C1174 1.356 . S
N1181 H1184 0.984 . S
N1181 H1185 0.985 . S
H1182 N1177 0.984 . S
H1183 N1177 0.985 . S
H1184 N1181 0.984 . S
H1185 N1181 0.985 . S
H1186 N1180 0.984 . S
H1187 N1180 0.984 . S
H1188 N1176 0.984 . S
H1189 N1176 0.985 . S
C1190 C1191 1.363 . S
C1190 C1196 1.379 . S
C1190 N1198 1.356 . S
C1191 C1190 1.363 . S
C1191 C1197 1.363 . S
C1192 C1193 1.363 . S
C1192 C1197 1.379 . S
C1192 N1199 1.356 . S
C1193 C1192 1.363 . S
C1193 C1196 1.363 . S
N1194 C1196 1.356 . S
N1194 H1206 0.984 . S
N1194 H1207 0.985 . S
N1195 C1197 1.356 . S
N1195 H1200 0.984 . S
N1195 H1201 0.985 . S
C1196 C1190 1.379 . S
C1196 C1193 1.363 . S
C1196 N1194 1.356 . S
C1197 C1191 1.363 . S
C1197 C1192 1.379 . S
C1197 N1195 1.356 . S
N1198 C1190 1.356 . S
N1198 H1204 0.984 . S
N1198 H1205 0.984 . S
N1199 C1192 1.356 . S
N1199 H1202 0.984 . S
N1199 H1203 0.985 . S
H1200 N1195 0.984 . S
H1201 N1195 0.985 . S
H1202 N1199 0.984 . S
H1203 N1199 0.985 . S
H1204 N1198 0.984 . S
H1205 N1198 0.984 . S
H1206 N1194 0.984 . S
H1207 N1194 0.985 . S
C1208 C1209 1.363 . S
C1208 C1214 1.379 . S
C1208 N1216 1.356 . S
C1209 C1208 1.363 . S
C1209 C1215 1.363 . S
C1210 C1211 1.363 . S
C1210 C1215 1.379 . S
C1210 N1217 1.356 . S
C1211 C1210 1.363 . S
C1211 C1214 1.363 . S
N1212 C1214 1.356 . S
N1212 H1224 0.984 . S
N1212 H1225 0.985 . S
N1213 C1215 1.356 . S
N1213 H1218 0.984 . S
N1213 H1219 0.985 . S
C1214 C1208 1.379 . S
C1214 C1211 1.363 . S
C1214 N1212 1.356 . S
C1215 C1209 1.363 . S
C1215 C1210 1.379 . S
C1215 N1213 1.356 . S
N1216 C1208 1.356 . S
N1216 H1222 0.984 . S
N1216 H1223 0.984 . S
N1217 C1210 1.356 . S
N1217 H1220 0.984 . S
N1217 H1221 0.985 . S
H1218 N1213 0.984 . S
H1219 N1213 0.985 . S
H1220 N1217 0.984 . S
H1221 N1217 0.985 . S
H1222 N1216 0.984 . S
H1223 N1216 0.984 . S
H1224 N1212 0.984 . S
H1225 N1212 0.985 . S
C1226 C1227 1.363 . S
C1226 C1232 1.379 . S
C1226 N1234 1.356 . S
C1227 C1226 1.363 . S
C1227 C1233 1.363 . S
C1228 C1229 1.363 . S
C1228 C1233 1.379 . S
C1228 N1235 1.356 . S
C1229 C1228 1.363 . S
C1229 C1232 1.363 . S
N1230 C1232 1.356 . S
N1230 H1242 0.984 . S
N1230 H1243 0.985 . S
N1231 C1233 1.356 . S
N1231 H1236 0.984 . S
N1231 H1237 0.985 . S
C1232 C1226 1.379 . S
C1232 C1229 1.363 . S
C1232 N1230 1.356 . S
C1233 C1227 1.363 . S
C1233 C1228 1.379 . S
C1233 N1231 1.356 . S
N1234 C1226 1.356 . S
N1234 H1240 0.984 . S
N1234 H1241 0.984 . S
N1235 C1228 1.356 . S
N1235 H1238 0.984 . S
N1235 H1239 0.985 . S
H1236 N1231 0.984 . S
H1237 N1231 0.985 . S
H1238 N1235 0.984 . S
H1239 N1235 0.985 . S
H1240 N1234 0.984 . S
H1241 N1234 0.984 . S
H1242 N1230 0.984 . S
H1243 N1230 0.985 . S
C1244 C1245 1.363 . S
C1244 C1250 1.379 . S
C1244 N1252 1.356 . S
C1245 C1244 1.363 . S
C1245 C1251 1.363 . S
C1246 C1247 1.363 . S
C1246 C1251 1.379 . S
C1246 N1253 1.356 . S
C1247 C1246 1.363 . S
C1247 C1250 1.363 . S
N1248 C1250 1.356 . S
N1248 H1260 0.984 . S
N1248 H1261 0.985 . S
N1249 C1251 1.356 . S
N1249 H1254 0.984 . S
N1249 H1255 0.985 . S
C1250 C1244 1.379 . S
C1250 C1247 1.363 . S
C1250 N1248 1.356 . S
C1251 C1245 1.363 . S
C1251 C1246 1.379 . S
C1251 N1249 1.356 . S
N1252 C1244 1.356 . S
N1252 H1258 0.984 . S
N1252 H1259 0.984 . S
N1253 C1246 1.356 . S
N1253 H1256 0.984 . S
N1253 H1257 0.985 . S
H1254 N1249 0.984 . S
H1255 N1249 0.985 . S
H1256 N1253 0.984 . S
H1257 N1253 0.985 . S
H1258 N1252 0.984 . S
H1259 N1252 0.984 . S
H1260 N1248 0.984 . S
H1261 N1248 0.985 . S
C1262 C1263 1.363 . S
C1262 C1268 1.379 . S
C1262 N1270 1.356 . S
C1263 C1262 1.363 . S
C1263 C1269 1.363 . S
C1264 C1265 1.363 . S
C1264 C1269 1.379 . S
C1264 N1271 1.356 . S
C1265 C1264 1.363 . S
C1265 C1268 1.363 . S
N1266 C1268 1.356 . S
N1266 H1278 0.984 . S
N1266 H1279 0.985 . S
N1267 C1269 1.356 . S
N1267 H1272 0.984 . S
N1267 H1273 0.985 . S
C1268 C1262 1.379 . S
C1268 C1265 1.363 . S
C1268 N1266 1.356 . S
C1269 C1263 1.363 . S
C1269 C1264 1.379 . S
C1269 N1267 1.356 . S
N1270 C1262 1.356 . S
N1270 H1276 0.984 . S
N1270 H1277 0.984 . S
N1271 C1264 1.356 . S
N1271 H1274 0.984 . S
N1271 H1275 0.985 . S
H1272 N1267 0.984 . S
H1273 N1267 0.985 . S
H1274 N1271 0.984 . S
H1275 N1271 0.985 . S
H1276 N1270 0.984 . S
H1277 N1270 0.984 . S
H1278 N1266 0.984 . S
H1279 N1266 0.985 . S
C1280 C1281 1.363 1_455 S
C1280 C1286 1.379 1_565 S
C1280 N1288 1.356 . S
C1281 C1280 1.363 1_655 S
C1281 C1287 1.363 . S
C1282 C1283 1.363 1_655 S
C1282 C1287 1.379 1_545 S
C1282 N1289 1.356 . S
C1283 C1282 1.363 1_455 S
C1283 C1286 1.363 . S
N1284 C1286 1.356 . S
N1284 H1296 0.984 . S
N1284 H1297 0.985 . S
N1285 C1287 1.356 . S
N1285 H1290 0.984 . S
N1285 H1291 0.985 . S
C1286 C1280 1.379 1_545 S
C1286 C1283 1.363 . S
C1286 N1284 1.356 . S
C1287 C1281 1.363 . S
C1287 C1282 1.379 1_565 S
C1287 N1285 1.356 . S
N1288 C1280 1.356 . S
N1288 H1294 0.984 . S
N1288 H1295 0.984 . S
N1289 C1282 1.356 . S
N1289 H1292 0.984 . S
N1289 H1293 0.985 . S
H1290 N1285 0.984 . S
H1291 N1285 0.985 . S
H1292 N1289 0.984 . S
H1293 N1289 0.985 . S
H1294 N1288 0.984 . S
H1295 N1288 0.984 . S
H1296 N1284 0.984 . S
H1297 N1284 0.985 . S
C1298 C1299 1.363 . S
C1298 C1304 1.379 1_655 S
C1298 N1306 1.356 . S
C1299 C1298 1.363 . S
C1299 C1305 1.363 1_545 S
C1300 C1301 1.363 . S
C1300 C1305 1.379 1_455 S
C1300 N1307 1.356 . S
C1301 C1300 1.363 . S
C1301 C1304 1.363 1_565 S
N1302 C1304 1.356 . S
N1302 H1314 0.984 . S
N1302 H1315 0.985 . S
N1303 C1305 1.356 . S
N1303 H1308 0.984 . S
N1303 H1309 0.985 . S
C1304 C1298 1.379 1_455 S
C1304 C1301 1.363 1_545 S
C1304 N1302 1.356 . S
C1305 C1299 1.363 1_565 S
C1305 C1300 1.379 1_655 S
C1305 N1303 1.356 . S
N1306 C1298 1.356 . S
N1306 H1312 0.984 . S
N1306 H1313 0.984 . S
N1307 C1300 1.356 . S
N1307 H1310 0.984 . S
N1307 H1311 0.985 . S
H1308 N1303 0.984 . S
H1309 N1303 0.985 . S
H1310 N1307 0.984 . S
H1311 N1307 0.985 . S
H1312 N1306 0.984 . S
H1313 N1306 0.984 . S
H1314 N1302 0.984 . S
H1315 N1302 0.985 . S
C1316 C1317 1.363 . S
C1316 C1322 1.379 . S
C1316 N1324 1.356 . S
C1317 C1316 1.363 . S
C1317 C1323 1.363 1_455 S
C1318 C1319 1.363 . S
C1318 C1323 1.379 . S
C1318 N1325 1.356 . S
C1319 C1318 1.363 . S
C1319 C1322 1.363 1_655 S
N1320 C1322 1.356 . S
N1320 H1332 0.984 . S
N1320 H1333 0.985 . S
N1321 C1323 1.356 . S
N1321 H1326 0.984 . S
N1321 H1327 0.985 . S
C1322 C1316 1.379 . S
C1322 C1319 1.363 1_455 S
C1322 N1320 1.356 . S
C1323 C1317 1.363 1_655 S
C1323 C1318 1.379 . S
C1323 N1321 1.356 . S
N1324 C1316 1.356 . S
N1324 H1330 0.984 . S
N1324 H1331 0.984 . S
N1325 C1318 1.356 . S
N1325 H1328 0.984 . S
N1325 H1329 0.985 . S
H1326 N1321 0.984 . S
H1327 N1321 0.985 . S
H1328 N1325 0.984 . S
H1329 N1325 0.985 . S
H1330 N1324 0.984 . S
H1331 N1324 0.984 . S
H1332 N1320 0.984 . S
H1333 N1320 0.985 . S
C1334 C1335 1.363 . S
C1334 C1340 1.379 . S
C1334 N1342 1.356 . S
C1335 C1334 1.363 . S
C1335 C1341 1.363 1_565 S
C1336 C1337 1.363 . S
C1336 C1341 1.379 . S
C1336 N1343 1.356 . S
C1337 C1336 1.363 . S
C1337 C1340 1.363 1_545 S
N1338 C1340 1.356 . S
N1338 H1350 0.984 . S
N1338 H1351 0.985 . S
N1339 C1341 1.356 . S
N1339 H1344 0.984 . S
N1339 H1345 0.985 . S
C1340 C1334 1.379 . S
C1340 C1337 1.363 1_565 S
C1340 N1338 1.356 . S
C1341 C1335 1.363 1_545 S
C1341 C1336 1.379 . S
C1341 N1339 1.356 . S
N1342 C1334 1.356 . S
N1342 H1348 0.984 . S
N1342 H1349 0.984 . S
N1343 C1336 1.356 . S
N1343 H1346 0.984 . S
N1343 H1347 0.985 . S
H1344 N1339 0.984 . S
H1345 N1339 0.985 . S
H1346 N1343 0.984 . S
H1347 N1343 0.985 . S
H1348 N1342 0.984 . S
H1349 N1342 0.984 . S
H1350 N1338 0.984 . S
H1351 N1338 0.985 . S
C1352 C1353 1.363 . S
C1352 C1358 1.379 . S
C1352 N1360 1.356 . S
C1353 C1352 1.363 . S
C1353 C1359 1.363 . S
C1354 C1355 1.363 . S
C1354 C1359 1.379 . S
C1354 N1361 1.356 . S
C1355 C1354 1.363 . S
C1355 C1358 1.363 . S
N1356 C1358 1.356 . S
N1356 H1368 0.984 . S
N1356 H1369 0.985 . S
N1357 C1359 1.356 . S
N1357 H1362 0.984 . S
N1357 H1363 0.985 . S
C1358 C1352 1.379 . S
C1358 C1355 1.363 . S
C1358 N1356 1.356 . S
C1359 C1353 1.363 . S
C1359 C1354 1.379 . S
C1359 N1357 1.356 . S
N1360 C1352 1.356 . S
N1360 H1366 0.984 . S
N1360 H1367 0.984 . S
N1361 C1354 1.356 . S
N1361 H1364 0.984 . S
N1361 H1365 0.985 . S
H1362 N1357 0.984 . S
H1363 N1357 0.985 . S
H1364 N1361 0.984 . S
H1365 N1361 0.985 . S
H1366 N1360 0.984 . S
H1367 N1360 0.984 . S
H1368 N1356 0.984 . S
H1369 N1356 0.985 . S
C1370 C1371 1.363 . S
C1370 C1376 1.379 . S
C1370 N1378 1.356 . S
C1371 C1370 1.363 . S
C1371 C1377 1.363 . S
C1372 C1373 1.363 . S
C1372 C1377 1.379 . S
C1372 N1379 1.356 . S
C1373 C1372 1.363 . S
C1373 C1376 1.363 . S
N1374 C1376 1.356 . S
N1374 H1386 0.984 . S
N1374 H1387 0.985 . S
N1375 C1377 1.356 . S
N1375 H1380 0.984 . S
N1375 H1381 0.985 . S
C1376 C1370 1.379 . S
C1376 C1373 1.363 . S
C1376 N1374 1.356 . S
C1377 C1371 1.363 . S
C1377 C1372 1.379 . S
C1377 N1375 1.356 . S
N1378 C1370 1.356 . S
N1378 H1384 0.984 . S
N1378 H1385 0.984 . S
N1379 C1372 1.356 . S
N1379 H1382 0.984 . S
N1379 H1383 0.985 . S
H1380 N1375 0.984 . S
H1381 N1375 0.985 . S
H1382 N1379 0.984 . S
H1383 N1379 0.985 . S
H1384 N1378 0.984 . S
H1385 N1378 0.984 . S
H1386 N1374 0.984 . S
H1387 N1374 0.985 . S
C1388 C1389 1.363 . S
C1388 C1394 1.379 1_545 S
C1388 N1396 1.356 . S
C1389 C1388 1.363 . S
C1389 C1395 1.363 . S
C1390 C1391 1.363 . S
C1390 C1395 1.379 1_565 S
C1390 N1397 1.356 . S
C1391 C1390 1.363 . S
C1391 C1394 1.363 . S
N1392 C1394 1.356 . S
N1392 H1404 0.984 . S
N1392 H1405 0.985 . S
N1393 C1395 1.356 . S
N1393 H1398 0.984 . S
N1393 H1399 0.985 . S
C1394 C1388 1.379 1_565 S
C1394 C1391 1.363 . S
C1394 N1392 1.356 . S
C1395 C1389 1.363 . S
C1395 C1390 1.379 1_545 S
C1395 N1393 1.356 . S
N1396 C1388 1.356 . S
N1396 H1402 0.984 . S
N1396 H1403 0.984 . S
N1397 C1390 1.356 . S
N1397 H1400 0.984 . S
N1397 H1401 0.985 . S
H1398 N1393 0.984 . S
H1399 N1393 0.985 . S
H1400 N1397 0.984 . S
H1401 N1397 0.985 . S
H1402 N1396 0.984 . S
H1403 N1396 0.984 . S
H1404 N1392 0.984 . S
H1405 N1392 0.985 . S
C1406 C1407 1.363 . S
C1406 C1412 1.379 1_655 S
C1406 N1414 1.356 . S
C1407 C1406 1.363 . S
C1407 C1413 1.363 . S
C1408 C1409 1.363 . S
C1408 C1413 1.379 1_455 S
C1408 N1415 1.356 . S
C1409 C1408 1.363 . S
C1409 C1412 1.363 . S
N1410 C1412 1.356 . S
N1410 H1422 0.984 . S
N1410 H1423 0.985 . S
N1411 C1413 1.356 . S
N1411 H1416 0.984 . S
N1411 H1417 0.985 . S
C1412 C1406 1.379 1_455 S
C1412 C1409 1.363 . S
C1412 N1410 1.356 . S
C1413 C1407 1.363 . S
C1413 C1408 1.379 1_655 S
C1413 N1411 1.356 . S
N1414 C1406 1.356 . S
N1414 H1420 0.984 . S
N1414 H1421 0.984 . S
N1415 C1408 1.356 . S
N1415 H1418 0.984 . S
N1415 H1419 0.985 . S
H1416 N1411 0.984 . S
H1417 N1411 0.985 . S
H1418 N1415 0.984 . S
H1419 N1415 0.985 . S
H1420 N1414 0.984 . S
H1421 N1414 0.984 . S
H1422 N1410 0.984 . S
H1423 N1410 0.985 . S
C849 C22 1.722 . S
C851 C621 1.807 . S
C867 C463 1.807 . S
C869 C82 1.723 . S
C885 C515 1.807 . S
C887 C128 1.722 . S
C903 C569 1.807 . S
C905 C188 1.723 . S
C921 C303 1.807 . S
C923 C234 1.722 . S
C939 C294 1.722 . S
C941 C357 1.807 . S
C957 C340 1.722 . S
C959 C409 1.807 . S
C975 C400 1.722 . S
C977 C251 1.807 . S
C993 C446 1.723 . S
C995 C197 1.807 . S
C1011 C39 1.807 . S
C1013 C506 1.723 . S
C1029 C91 1.807 . S
C1031 C552 1.723 . S
C1047 C145 1.807 . S
C1049 C612 1.723 . S
C1065 C727 1.807 . S
C1067 C658 1.723 . S
C1083 C718 1.723 . S
C1085 C781 1.807 . S
C1101 C833 1.807 . S
C1103 C764 1.723 . S
C1119 C675 1.807 . S
C1121 C824 1.723 . S
C1137 C780 2.047 . S
C1139 C38 2.047 . S
C1155 C834 2.047 . S
C1157 C92 2.047 . S
C1173 C674 2.047 . S
C1175 C144 2.047 . S
C1191 C198 2.047 . S
C1193 C728 2.047 . S
C1209 C250 2.047 . S
C1211 C568 2.047 . S
C1227 C622 2.047 . S
C1229 C304 2.047 . S
C1245 C356 2.047 . S
C1247 C462 2.047 . S
C1263 C410 2.047 . S
C1265 C516 2.047 . S
C1281 C135 1.978 . S
C1283 C29 1.978 . S
C1299 C181 1.978 . S
C1301 C75 1.978 . S
C1317 C241 1.978 . S
C1319 C347 1.978 . S
C1335 C287 1.978 . S
C1337 C393 1.978 . S
C1353 C559 1.978 . S
C1355 C453 1.978 . S
C1371 C499 1.978 . S
C1373 C605 1.978 . S
C1389 C771 1.978 . S
C1391 C665 1.978 . S
C1407 C711 1.978 . S
C1409 C817 1.978 . S
