# Generated by pormake.
# Topology cha, (4)-cn, num edge types: 1
# Building blocks:
#     Node 0, Type 0, BuildingBlock: QUQFOY_clean_sbu_1, # of connection points: 4
#     Node 1, Type 0, BuildingBlock: QUQFOY_clean_sbu_1, # of connection points: 4
#     Node 2, Type 0, BuildingBlock: QUQFOY_clean_sbu_1, # of connection points: 4
#     Node 3, Type 0, BuildingBlock: QUQFOY_clean_sbu_1, # of connection points: 4
#     Node 4, Type 0, BuildingBlock: QUQFOY_clean_sbu_1, # of connection points: 4
#     Node 5, Type 0, BuildingBlock: QUQFOY_clean_sbu_1, # of connection points: 4
#     Node 6, Type 0, BuildingBlock: QUQFOY_clean_sbu_1, # of connection points: 4
#     Node 7, Type 0, BuildingBlock: QUQFOY_clean_sbu_1, # of connection points: 4
#     Node 8, Type 0, BuildingBlock: QUQFOY_clean_sbu_1, # of connection points: 4
#     Node 9, Type 0, BuildingBlock: QUQFOY_clean_sbu_1, # of connection points: 4
#     Node 10, Type 0, BuildingBlock: QUQFOY_clean_sbu_1, # of connection points: 4
#     Node 11, Type 0, BuildingBlock: QUQFOY_clean_sbu_1, # of connection points: 4
#     Node 12, Type 0, BuildingBlock: QUQFOY_clean_sbu_1, # of connection points: 4
#     Node 13, Type 0, BuildingBlock: QUQFOY_clean_sbu_1, # of connection points: 4
#     Node 14, Type 0, BuildingBlock: QUQFOY_clean_sbu_1, # of connection points: 4
#     Node 15, Type 0, BuildingBlock: QUQFOY_clean_sbu_1, # of connection points: 4
#     Node 16, Type 0, BuildingBlock: QUQFOY_clean_sbu_1, # of connection points: 4
#     Node 17, Type 0, BuildingBlock: QUQFOY_clean_sbu_1, # of connection points: 4
#     Node 18, Type 0, BuildingBlock: QUQFOY_clean_sbu_1, # of connection points: 4
#     Node 19, Type 0, BuildingBlock: QUQFOY_clean_sbu_1, # of connection points: 4
#     Node 20, Type 0, BuildingBlock: QUQFOY_clean_sbu_1, # of connection points: 4
#     Node 21, Type 0, BuildingBlock: QUQFOY_clean_sbu_1, # of connection points: 4
#     Node 22, Type 0, BuildingBlock: QUQFOY_clean_sbu_1, # of connection points: 4
#     Node 23, Type 0, BuildingBlock: QUQFOY_clean_sbu_1, # of connection points: 4
#     Node 24, Type 0, BuildingBlock: QUQFOY_clean_sbu_1, # of connection points: 4
#     Node 25, Type 0, BuildingBlock: QUQFOY_clean_sbu_1, # of connection points: 4
#     Node 26, Type 0, BuildingBlock: QUQFOY_clean_sbu_1, # of connection points: 4
#     Node 27, Type 0, BuildingBlock: QUQFOY_clean_sbu_1, # of connection points: 4
#     Node 28, Type 0, BuildingBlock: QUQFOY_clean_sbu_1, # of connection points: 4
#     Node 29, Type 0, BuildingBlock: QUQFOY_clean_sbu_1, # of connection points: 4
#     Node 30, Type 0, BuildingBlock: QUQFOY_clean_sbu_1, # of connection points: 4
#     Node 31, Type 0, BuildingBlock: QUQFOY_clean_sbu_1, # of connection points: 4
#     Node 32, Type 0, BuildingBlock: QUQFOY_clean_sbu_1, # of connection points: 4
#     Node 33, Type 0, BuildingBlock: QUQFOY_clean_sbu_1, # of connection points: 4
#     Node 34, Type 0, BuildingBlock: QUQFOY_clean_sbu_1, # of connection points: 4
#     Node 35, Type 0, BuildingBlock: QUQFOY_clean_sbu_1, # of connection points: 4
#     Edge 36, Type (0, 0), BuildingBlock: XUDNAN_clean_linker_2, # of connection points: 2
#     Edge 37, Type (0, 0), BuildingBlock: XUDNAN_clean_linker_2, # of connection points: 2
#     Edge 38, Type (0, 0), BuildingBlock: XUDNAN_clean_linker_2, # of connection points: 2
#     Edge 39, Type (0, 0), BuildingBlock: XUDNAN_clean_linker_2, # of connection points: 2
#     Edge 40, Type (0, 0), BuildingBlock: XUDNAN_clean_linker_2, # of connection points: 2
#     Edge 41, Type (0, 0), BuildingBlock: XUDNAN_clean_linker_2, # of connection points: 2
#     Edge 42, Type (0, 0), BuildingBlock: XUDNAN_clean_linker_2, # of connection points: 2
#     Edge 43, Type (0, 0), BuildingBlock: XUDNAN_clean_linker_2, # of connection points: 2
#     Edge 44, Type (0, 0), BuildingBlock: XUDNAN_clean_linker_2, # of connection points: 2
#     Edge 45, Type (0, 0), BuildingBlock: XUDNAN_clean_linker_2, # of connection points: 2
#     Edge 46, Type (0, 0), BuildingBlock: XUDNAN_clean_linker_2, # of connection points: 2
#     Edge 47, Type (0, 0), BuildingBlock: XUDNAN_clean_linker_2, # of connection points: 2
#     Edge 48, Type (0, 0), BuildingBlock: XUDNAN_clean_linker_2, # of connection points: 2
#     Edge 49, Type (0, 0), BuildingBlock: XUDNAN_clean_linker_2, # of connection points: 2
#     Edge 50, Type (0, 0), BuildingBlock: XUDNAN_clean_linker_2, # of connection points: 2
#     Edge 51, Type (0, 0), BuildingBlock: XUDNAN_clean_linker_2, # of connection points: 2
#     Edge 52, Type (0, 0), BuildingBlock: XUDNAN_clean_linker_2, # of connection points: 2
#     Edge 53, Type (0, 0), BuildingBlock: XUDNAN_clean_linker_2, # of connection points: 2
#     Edge 54, Type (0, 0), BuildingBlock: XUDNAN_clean_linker_2, # of connection points: 2
#     Edge 55, Type (0, 0), BuildingBlock: XUDNAN_clean_linker_2, # of connection points: 2
#     Edge 56, Type (0, 0), BuildingBlock: XUDNAN_clean_linker_2, # of connection points: 2
#     Edge 57, Type (0, 0), BuildingBlock: XUDNAN_clean_linker_2, # of connection points: 2
#     Edge 58, Type (0, 0), BuildingBlock: XUDNAN_clean_linker_2, # of connection points: 2
#     Edge 59, Type (0, 0), BuildingBlock: XUDNAN_clean_linker_2, # of connection points: 2
#     Edge 60, Type (0, 0), BuildingBlock: XUDNAN_clean_linker_2, # of connection points: 2
#     Edge 61, Type (0, 0), BuildingBlock: XUDNAN_clean_linker_2, # of connection points: 2
#     Edge 62, Type (0, 0), BuildingBlock: XUDNAN_clean_linker_2, # of connection points: 2
#     Edge 63, Type (0, 0), BuildingBlock: XUDNAN_clean_linker_2, # of connection points: 2
#     Edge 64, Type (0, 0), BuildingBlock: XUDNAN_clean_linker_2, # of connection points: 2
#     Edge 65, Type (0, 0), BuildingBlock: XUDNAN_clean_linker_2, # of connection points: 2
#     Edge 66, Type (0, 0), BuildingBlock: XUDNAN_clean_linker_2, # of connection points: 2
#     Edge 67, Type (0, 0), BuildingBlock: XUDNAN_clean_linker_2, # of connection points: 2
#     Edge 68, Type (0, 0), BuildingBlock: XUDNAN_clean_linker_2, # of connection points: 2
#     Edge 69, Type (0, 0), BuildingBlock: XUDNAN_clean_linker_2, # of connection points: 2
#     Edge 70, Type (0, 0), BuildingBlock: XUDNAN_clean_linker_2, # of connection points: 2
#     Edge 71, Type (0, 0), BuildingBlock: XUDNAN_clean_linker_2, # of connection points: 2
#     Edge 72, Type (0, 0), BuildingBlock: XUDNAN_clean_linker_2, # of connection points: 2
#     Edge 73, Type (0, 0), BuildingBlock: XUDNAN_clean_linker_2, # of connection points: 2
#     Edge 74, Type (0, 0), BuildingBlock: XUDNAN_clean_linker_2, # of connection points: 2
#     Edge 75, Type (0, 0), BuildingBlock: XUDNAN_clean_linker_2, # of connection points: 2
#     Edge 76, Type (0, 0), BuildingBlock: XUDNAN_clean_linker_2, # of connection points: 2
#     Edge 77, Type (0, 0), BuildingBlock: XUDNAN_clean_linker_2, # of connection points: 2
#     Edge 78, Type (0, 0), BuildingBlock: XUDNAN_clean_linker_2, # of connection points: 2
#     Edge 79, Type (0, 0), BuildingBlock: XUDNAN_clean_linker_2, # of connection points: 2
#     Edge 80, Type (0, 0), BuildingBlock: XUDNAN_clean_linker_2, # of connection points: 2
#     Edge 81, Type (0, 0), BuildingBlock: XUDNAN_clean_linker_2, # of connection points: 2
#     Edge 82, Type (0, 0), BuildingBlock: XUDNAN_clean_linker_2, # of connection points: 2
#     Edge 83, Type (0, 0), BuildingBlock: XUDNAN_clean_linker_2, # of connection points: 2
#     Edge 84, Type (0, 0), BuildingBlock: XUDNAN_clean_linker_2, # of connection points: 2
#     Edge 85, Type (0, 0), BuildingBlock: XUDNAN_clean_linker_2, # of connection points: 2
#     Edge 86, Type (0, 0), BuildingBlock: XUDNAN_clean_linker_2, # of connection points: 2
#     Edge 87, Type (0, 0), BuildingBlock: XUDNAN_clean_linker_2, # of connection points: 2
#     Edge 88, Type (0, 0), BuildingBlock: XUDNAN_clean_linker_2, # of connection points: 2
#     Edge 89, Type (0, 0), BuildingBlock: XUDNAN_clean_linker_2, # of connection points: 2
#     Edge 90, Type (0, 0), BuildingBlock: XUDNAN_clean_linker_2, # of connection points: 2
#     Edge 91, Type (0, 0), BuildingBlock: XUDNAN_clean_linker_2, # of connection points: 2
#     Edge 92, Type (0, 0), BuildingBlock: XUDNAN_clean_linker_2, # of connection points: 2
#     Edge 93, Type (0, 0), BuildingBlock: XUDNAN_clean_linker_2, # of connection points: 2
#     Edge 94, Type (0, 0), BuildingBlock: XUDNAN_clean_linker_2, # of connection points: 2
#     Edge 95, Type (0, 0), BuildingBlock: XUDNAN_clean_linker_2, # of connection points: 2
#     Edge 96, Type (0, 0), BuildingBlock: XUDNAN_clean_linker_2, # of connection points: 2
#     Edge 97, Type (0, 0), BuildingBlock: XUDNAN_clean_linker_2, # of connection points: 2
#     Edge 98, Type (0, 0), BuildingBlock: XUDNAN_clean_linker_2, # of connection points: 2
#     Edge 99, Type (0, 0), BuildingBlock: XUDNAN_clean_linker_2, # of connection points: 2
#     Edge 100, Type (0, 0), BuildingBlock: XUDNAN_clean_linker_2, # of connection points: 2
#     Edge 101, Type (0, 0), BuildingBlock: XUDNAN_clean_linker_2, # of connection points: 2
#     Edge 102, Type (0, 0), BuildingBlock: XUDNAN_clean_linker_2, # of connection points: 2
#     Edge 103, Type (0, 0), BuildingBlock: XUDNAN_clean_linker_2, # of connection points: 2
#     Edge 104, Type (0, 0), BuildingBlock: XUDNAN_clean_linker_2, # of connection points: 2
#     Edge 105, Type (0, 0), BuildingBlock: XUDNAN_clean_linker_2, # of connection points: 2
#     Edge 106, Type (0, 0), BuildingBlock: XUDNAN_clean_linker_2, # of connection points: 2
#     Edge 107, Type (0, 0), BuildingBlock: XUDNAN_clean_linker_2, # of connection points: 2
# Relax obj value: 0.046
# Max RMSD: 0.075
# Mean RMSD: 0.075
data_MOF--net-cha--node1-QUQFOY_clean_sbu_1--edge1-XUDNAN_clean_linker_2
_symmetry_space_group_name_H-M    P1
_symmetry_Int_Tables_number       1
_symmetry_cell_setting            triclinic
loop_
_symmetry_equiv_pos_as_xyz
'x, y, z'
_cell_length_a     63.075515
_cell_length_b     63.089171
_cell_length_c     83.649835
_cell_angle_alpha  89.953761
_cell_angle_beta   90.026728
_cell_angle_gamma 119.98035
loop_
_atom_site_label
_atom_site_type_symbol
_atom_site_fract_x
_atom_site_fract_y
_atom_site_fract_z
_atom_type_partial_charge
O0 O 0.03678 0.27482 0.07322 0.0
Cd1 Cd 0.03612 0.26157 0.09589 0.0
Cd2 Cd 0.01826 0.2922 0.10272 0.0
O3 O 0.02903 0.30426 0.07939 0.0
O4 O 0.0579 0.24708 0.09461 0.0
O5 O 0.06604 0.27877 0.10995 0.0
C6 C 0.07249 0.26366 0.10449 0.0
C7 C 0.02494 0.31882 0.12407 0.0
C8 C 0.0343 0.29284 0.06903 0.0
C9 C 0.98423 0.23757 0.10649 0.0
O10 O 0.98673 0.25883 0.10558 0.0
O11 O 1.00241 0.23448 0.10407 0.0
O12 O 0.01017 0.31613 0.1126 0.0
O13 O 0.03719 0.30748 0.12301 0.0
O14 O 0.78272 0.78674 0.07297 0.0
Cd15 Cd 0.79473 0.80048 0.0957 0.0
Cd16 Cd 0.77352 0.75153 0.10118 0.0
O17 O 0.75928 0.74742 0.07827 0.0
O18 O 0.80776 0.83629 0.09259 0.0
O19 O 0.77703 0.81391 0.10882 0.0
C20 C 0.79157 0.83498 0.10251 0.0
C21 C 0.75059 0.73762 0.12461 0.0
C22 C 0.76778 0.76507 0.06835 0.0
C23 C 0.8275 0.78075 0.10546 0.0
O24 O 0.80943 0.7594 0.10318 0.0
O25 O 0.82474 0.79934 0.10442 0.0
O26 O 0.75302 0.72274 0.11518 0.0
O27 O 0.75999 0.7602 0.12015 0.0
O28 O 0.27748 0.03381 0.07311 0.0
Cd29 Cd 0.26448 0.03422 0.09565 0.0
Cd30 Cd 0.3144 0.05159 0.10222 0.0
O31 O 0.31457 0.04066 0.07878 0.0
O32 O 0.22886 0.02012 0.09144 0.0
O33 O 0.243 1.00186 0.10707 0.0
C34 C 0.22453 1.00181 0.10039 0.0
C35 C 0.33401 0.04338 0.1231 0.0
C36 C 0.29766 0.0358 0.06866 0.0
C37 C 0.29481 0.08614 0.10699 0.0
O38 O 0.31348 0.08359 0.10553 0.0
O39 O 0.27343 0.06808 0.10479 0.0
O40 O 0.34624 0.05844 0.11178 0.0
O41 O 0.3104 0.03181 0.12215 0.0
O42 O 0.27714 0.0334 0.94657 0.0
Cd43 Cd 0.26405 0.03441 0.92401 0.0
Cd44 Cd 0.29006 0.0088 0.9183 0.0
O45 O 0.30265 0.0199 0.94135 0.0
O46 O 0.2433 0.04913 0.92915 0.0
O47 O 0.27531 0.06749 0.91329 0.0
C48 C 0.25709 0.06755 0.92026 0.0
C49 C 0.31617 0.01502 0.89682 0.0
C50 C 0.29313 0.02807 0.95121 0.0
C51 C 0.23632 0.98131 0.91291 0.0
O52 O 0.25508 0.97939 0.91574 0.0
O53 O 0.2374 1.00193 0.91403 0.0
O54 O 0.31259 0.99934 0.9079 0.0
O55 O 0.30572 0.02809 0.89826 0.0
O56 O 0.03349 0.27589 0.94696 0.0
Cd57 Cd 0.03345 0.26334 0.92418 0.0
Cd58 Cd 0.05064 0.31089 0.91786 0.0
O59 O 0.04066 0.31305 0.94125 0.0
O60 O 0.01138 0.22707 0.92543 0.0
O61 O 1.00317 0.25103 0.91054 0.0
C62 C 0.9966 0.22939 0.91588 0.0
C63 C 0.03863 0.32288 0.89478 0.0
C64 C 0.0359 0.29624 0.95145 0.0
C65 C 0.08522 0.29139 0.91353 0.0
O66 O 0.08264 0.31004 0.91491 0.0
O67 O 0.06701 0.27001 0.91557 0.0
O68 O 0.05457 0.3389 0.90443 0.0
O69 O 0.02808 0.30012 0.89897 0.0
O70 O 0.78728 0.78438 0.9465 0.0
Cd71 Cd 0.80274 0.79774 0.92429 0.0
Cd72 Cd 0.7524 0.77525 0.91798 0.0
O73 O 0.74806 0.76089 0.94085 0.0
O74 O 0.83792 0.81672 0.9304 0.0
O75 O 0.824 0.78559 0.91379 0.0
C76 C 0.84227 0.80293 0.92134 0.0
C77 C 0.73923 0.75251 0.89445 0.0
C78 C 0.76553 0.76929 0.95091 0.0
C79 C 0.78107 0.82897 0.91355 0.0
O80 O 0.75975 0.81096 0.916 0.0
O81 O 0.79969 0.82629 0.9147 0.0
O82 O 0.724 0.75455 0.90376 0.0
O83 O 0.76177 0.76218 0.89909 0.0
O84 O 0.0326 0.78309 0.94688 0.0
Cd85 Cd 0.03071 0.79498 0.92412 0.0
Cd86 Cd 0.05831 0.77078 0.9193 0.0
O87 O 0.04714 0.75826 0.94242 0.0
O88 O 0.01586 0.81551 0.92941 0.0
O89 O 0.99714 0.78316 0.91391 0.0
C90 C 0.99715 0.80141 0.92085 0.0
C91 C 0.05292 0.74502 0.89777 0.0
C92 C 0.03853 0.76775 0.95196 0.0
C93 C 0.08372 0.82423 0.91309 0.0
O94 O 0.08675 0.80632 0.91661 0.0
O95 O 0.06254 0.82196 0.91372 0.0
O96 O 0.06872 0.74901 0.90885 0.0
O97 O 0.03922 0.75476 0.89929 0.0
O98 O 0.27618 0.27485 0.94845 0.0
Cd99 Cd 0.26236 0.26165 0.92597 0.0
Cd100 Cd 0.29473 0.311 0.9191 0.0
O101 O 0.30641 0.31176 0.94245 0.0
O102 O 0.2411 0.22594 0.93004 0.0
O103 O 0.27339 0.2405 0.91429 0.0
C104 C 0.25508 0.22186 0.92091 0.0
C105 C 0.32136 0.32915 0.89751 0.0
C106 C 0.29448 0.29507 0.95273 0.0
C107 C 0.24078 0.29209 0.91479 0.0
O108 O 0.26208 0.31064 0.91617 0.0
O109 O 0.23734 0.27066 0.91697 0.0
O110 O 0.31966 0.34214 0.90878 0.0
O111 O 0.30903 0.30561 0.89896 0.0
O112 O 0.79169 0.03722 0.94604 0.0
Cd113 Cd 0.80472 0.03835 0.92317 0.0
Cd114 Cd 0.75486 0.01077 0.9179 0.0
O115 O 0.75232 0.02137 0.94096 0.0
O116 O 0.84066 0.06105 0.92578 0.0
O117 O 0.81783 0.06927 0.90986 0.0
C118 C 0.83907 0.07587 0.91593 0.0
C119 C 0.73417 0.01555 0.89629 0.0
C120 C 0.7701 0.0306 0.95077 0.0
C121 C 0.78392 0.98563 0.91339 0.0
O122 O 0.76269 0.98277 0.91553 0.0
O123 O 0.8028 0.00676 0.91457 0.0
O124 O 0.72261 0.99957 0.90731 0.0
O125 O 0.75754 0.02967 0.89783 0.0
O126 O 0.79083 0.03229 0.0725 0.0
Cd127 Cd 0.80332 0.03166 0.09518 0.0
Cd128 Cd 0.77374 0.04963 0.10199 0.0
O129 O 0.7612 0.03978 0.07864 0.0
O130 O 0.81652 0.00882 0.09371 0.0
O131 O 0.78473 1.0014 0.10874 0.0
C132 C 0.7993 0.99428 0.10326 0.0
C133 C 0.74926 0.03861 0.12486 0.0
C134 C 0.77292 0.03492 0.06826 0.0
C135 C 0.8282 0.08314 0.10619 0.0
O136 O 0.80714 0.08108 0.10504 0.0
O137 O 0.83088 0.0647 0.10384 0.0
O138 O 0.75016 0.05485 0.11505 0.0
O139 O 0.76087 0.0273 0.121 0.0
O140 O 0.03554 0.79011 0.07343 0.0
Cd141 Cd 0.03676 0.80557 0.09551 0.0
Cd142 Cd 0.01022 0.75519 0.10221 0.0
O143 O 0.02083 0.75115 0.07949 0.0
O144 O 0.05241 0.84079 0.08952 0.0
O145 O 0.06969 0.82727 0.10643 0.0
C146 C 0.07036 0.84543 0.09888 0.0
C147 C 0.01978 0.74204 0.12578 0.0
C148 C 0.02956 0.76842 0.06928 0.0
C149 C 0.98365 0.7825 0.10608 0.0
O150 O 0.98109 0.76141 0.10392 0.0
O151 O 0.00461 0.80153 0.10479 0.0
O152 O 1.00286 0.72675 0.11631 0.0
O153 O 0.0323 0.76469 0.12132 0.0
O154 O 0.27596 0.2762 0.07469 0.0
Cd155 Cd 0.26326 0.26299 0.09735 0.0
Cd156 Cd 0.31094 0.29404 0.10402 0.0
O157 O 0.31312 0.306 0.08059 0.0
O158 O 0.2269 0.2479 0.09583 0.0
O159 O 0.24985 0.27985 0.11112 0.0
C160 C 0.22846 0.26447 0.10556 0.0
C161 C 0.32434 0.31918 0.12659 0.0
C162 C 0.29637 0.2942 0.07032 0.0
C163 C 0.29193 0.23991 0.10821 0.0
O164 O 0.31037 0.26134 0.10721 0.0
O165 O 0.27049 0.23637 0.10578 0.0
O166 O 0.33969 0.31838 0.11676 0.0
O167 O 0.30135 0.30699 0.12294 0.0
O168 O 0.69976 0.60779 0.40677 0.0
Cd169 Cd 0.70004 0.59605 0.42973 0.0
Cd170 Cd 0.68102 0.62606 0.43587 0.0
O171 O 0.69144 0.63704 0.4123 0.0
O172 O 0.72248 0.58233 0.42868 0.0
O173 O 0.73038 0.61463 0.4433 0.0
C174 C 0.73718 0.59966 0.4381 0.0
C175 C 0.6871 0.65399 0.45631 0.0
C176 C 0.69684 0.62538 0.40221 0.0
C177 C 0.64836 0.57128 0.44077 0.0
O178 O 0.65019 0.59222 0.43946 0.0
O179 O 0.66688 0.56873 0.43843 0.0
O180 O 0.67186 0.64977 0.44484 0.0
O181 O 0.70003 0.64331 0.45579 0.0
O182 O 0.45323 0.12182 0.40663 0.0
Cd183 Cd 0.46685 0.13463 0.42922 0.0
Cd184 Cd 0.43603 0.08683 0.43602 0.0
O185 O 0.42381 0.08454 0.41267 0.0
O186 O 0.48191 0.17098 0.42769 0.0
O187 O 0.45025 0.14806 0.44322 0.0
C188 C 0.46557 0.16945 0.43762 0.0
C189 C 0.41094 0.07293 0.45861 0.0
C190 C 0.4353 0.10131 0.40236 0.0
C191 C 0.49031 0.10621 0.43991 0.0
O192 O 0.4689 0.08769 0.43908 0.0
O193 O 0.4937 0.12758 0.4374 0.0
O194 O 0.41197 0.05782 0.44868 0.0
O195 O 0.42288 0.09596 0.45506 0.0
O196 O 0.94112 0.36121 0.40642 0.0
Cd197 Cd 0.9266 0.36023 0.42879 0.0
Cd198 Cd 0.97913 0.38803 0.43467 0.0
O199 O 0.98054 0.37691 0.41156 0.0
O200 O 0.89127 0.34528 0.42318 0.0
O201 O 0.9046 0.32721 0.43956 0.0
C202 C 0.88647 0.32703 0.43228 0.0
C203 C 1.00141 0.38351 0.45547 0.0
C204 C 0.9627 0.36756 0.40179 0.0
C205 C 0.95048 0.41345 0.43991 0.0
O206 O 0.97165 0.41626 0.43754 0.0
O207 O 0.93147 0.39252 0.4384 0.0
O208 O 0.0121 0.39949 0.4443 0.0
O209 O 0.97795 0.36937 0.45459 0.0
O210 O 0.94423 0.36333 0.27969 0.0
Cd211 Cd 0.93194 0.36568 0.25714 0.0
Cd212 Cd 0.95621 0.33921 0.25143 0.0
O213 O 0.96904 0.34894 0.27461 0.0
O214 O 0.91197 0.38105 0.26272 0.0
O215 O 0.94415 0.39934 0.247 0.0
C216 C 0.92616 0.39966 0.2541 0.0
C217 C 0.98093 0.34978 0.22873 0.0
C218 C 0.95961 0.35725 0.28445 0.0
C219 C 0.90269 0.31307 0.24557 0.0
O220 O 0.92093 0.31032 0.24852 0.0
O221 O 0.9046 0.33405 0.24676 0.0
O222 O 0.97831 0.3323 0.23807 0.0
O223 O 0.97052 0.36218 0.23285 0.0
O224 O 0.69578 0.60582 0.27998 0.0
Cd225 Cd 0.69432 0.59166 0.25738 0.0
Cd226 Cd 0.7205 0.64343 0.25159 0.0
O227 O 0.70953 0.64488 0.27472 0.0
O228 O 0.67932 0.55614 0.26248 0.0
O229 O 0.66113 0.57011 0.24671 0.0
C230 C 0.66095 0.55172 0.2536 0.0
C231 C 0.71514 0.6642 0.23022 0.0
C232 C 0.70137 0.6272 0.28461 0.0
C233 C 0.74733 0.61647 0.24614 0.0
O234 O 0.74955 0.63727 0.24896 0.0
O235 O 0.7266 0.5971 0.2473 0.0
O236 O 0.73077 0.6758 0.24141 0.0
O237 O 0.70161 0.64071 0.23149 0.0
O238 O 0.45333 0.12061 0.2805 0.0
Cd239 Cd 0.46687 0.13467 0.25809 0.0
Cd240 Cd 0.41849 0.10244 0.25118 0.0
O241 O 0.4165 0.09025 0.27451 0.0
O242 O 0.50258 0.15578 0.26234 0.0
O243 O 0.4881 0.12362 0.24651 0.0
C244 C 0.5067 0.14179 0.25326 0.0
C245 C 0.4062 0.07786 0.22838 0.0
C246 C 0.43311 0.1023 0.2848 0.0
C247 C 0.43631 0.15604 0.24689 0.0
O248 O 0.41797 0.13461 0.24821 0.0
O249 O 0.45785 0.15974 0.24909 0.0
O250 O 0.39037 0.07779 0.23819 0.0
O251 O 0.42911 0.09058 0.23219 0.0
O252 O 0.69484 0.11788 0.27899 0.0
Cd253 Cd 0.69356 0.13107 0.25652 0.0
Cd254 Cd 0.72009 0.10537 0.2507 0.0
O255 O 0.70933 0.09314 0.27388 0.0
O256 O 0.67893 0.15182 0.26201 0.0
O257 O 0.66035 0.12006 0.246 0.0
C258 C 0.66041 0.13821 0.25314 0.0
C259 C 0.71473 0.07877 0.22965 0.0
C260 C 0.70074 0.10233 0.28369 0.0
C261 C 0.74667 0.15927 0.24519 0.0
O262 O 0.74893 0.14066 0.24784 0.0
O263 O 0.72594 0.15792 0.24652 0.0
O264 O 0.7306 0.08332 0.24078 0.0
O265 O 0.70105 0.08858 0.23077 0.0
O266 O 0.94458 0.60946 0.28078 0.0
Cd267 Cd 0.9326 0.59533 0.2581 0.0
Cd268 Cd 0.95716 0.64716 0.25261 0.0
O269 O 0.96968 0.64862 0.27573 0.0
O270 O 0.91238 0.55991 0.2634 0.0
O271 O 0.94477 0.57392 0.24787 0.0
C272 C 0.92662 0.55554 0.25479 0.0
C273 C 0.98315 0.6685 0.23134 0.0
C274 C 0.96015 0.63083 0.28553 0.0
C275 C 0.90351 0.61906 0.24668 0.0
O276 O 0.9216 0.64003 0.24987 0.0
O277 O 0.90555 0.60005 0.24765 0.0
O278 O 0.97868 0.67975 0.24255 0.0
O279 O 0.97372 0.64506 0.23254 0.0
O280 O 0.45459 0.36353 0.28101 0.0
Cd281 Cd 0.46693 0.36293 0.25826 0.0
Cd282 Cd 0.4172 0.34617 0.25227 0.0
O283 O 0.4175 0.35699 0.27578 0.0
O284 O 0.50273 0.37705 0.26187 0.0
O285 O 0.48801 0.39523 0.24666 0.0
C286 C 0.50673 0.39533 0.25299 0.0
C287 C 0.39788 0.35488 0.23146 0.0
C288 C 0.43457 0.36167 0.28572 0.0
C289 C 0.43577 0.31095 0.24717 0.0
O290 O 0.41735 0.31384 0.24889 0.0
O291 O 0.45734 0.32885 0.2491 0.0
O292 O 0.38551 0.33999 0.24282 0.0
O293 O 0.42149 0.36605 0.23234 0.0
O294 O 0.45797 0.36275 0.40745 0.0
Cd295 Cd 0.4709 0.36305 0.43015 0.0
Cd296 Cd 0.43984 0.38062 0.43714 0.0
O297 O 0.42851 0.37047 0.41364 0.0
O298 O 0.48533 0.34122 0.42881 0.0
O299 O 0.45338 0.33288 0.44397 0.0
C300 C 0.4685 0.32645 0.4385 0.0
C301 C 0.41187 0.37346 0.45777 0.0
C302 C 0.44001 0.36533 0.40327 0.0
C303 C 0.49455 0.41464 0.44138 0.0
O304 O 0.47322 0.412 0.44061 0.0
O305 O 0.49781 0.39665 0.4386 0.0
O306 O 0.41561 0.3888 0.44645 0.0
O307 O 0.42313 0.3611 0.45703 0.0
O308 O 0.6968 0.12016 0.40541 0.0
Cd309 Cd 0.69649 0.13388 0.42774 0.0
Cd310 Cd 0.67954 0.08519 0.43486 0.0
O311 O 0.68969 0.08312 0.41152 0.0
O312 O 0.7113 0.16953 0.42333 0.0
O313 O 0.72879 0.15498 0.43932 0.0
C314 C 0.72932 0.17359 0.43248 0.0
C315 C 0.69135 0.07194 0.4575 0.0
C316 C 0.69456 0.09977 0.40118 0.0
C317 C 0.64462 0.10422 0.43909 0.0
O318 O 0.64727 0.08559 0.43795 0.0
O319 O 0.66266 0.12555 0.43669 0.0
O320 O 0.67529 0.05654 0.44765 0.0
O321 O 0.70202 0.09494 0.45385 0.0
O322 O 0.94172 0.61159 0.40784 0.0
Cd323 Cd 0.929 0.60018 0.43083 0.0
Cd324 Cd 0.97941 0.6227 0.43592 0.0
O325 O 0.98114 0.63527 0.41275 0.0
O326 O 0.89302 0.58696 0.42841 0.0
O327 O 0.91611 0.61834 0.44398 0.0
C328 C 0.89478 0.60362 0.43808 0.0
C329 C 1.00222 0.6492 0.45669 0.0
C330 C 0.96325 0.62656 0.40302 0.0
C331 C 0.94993 0.56841 0.44091 0.0
O332 O 0.97117 0.58673 0.43869 0.0
O333 O 0.93106 0.57068 0.43967 0.0
O334 O 0.01255 0.64356 0.44548 0.0
O335 O 0.97884 0.64043 0.45587 0.0
O336 O 0.36958 0.94728 0.73983 0.0
Cd337 Cd 0.37202 0.93601 0.76266 0.0
Cd338 Cd 0.34378 0.9564 0.76804 0.0
O339 O 0.35267 0.96984 0.74493 0.0
O340 O 0.39577 0.92416 0.75965 0.0
O341 O 0.40324 0.95498 0.77556 0.0
C342 C 0.41047 0.94095 0.76933 0.0
C343 C 0.35323 0.98001 0.79114 0.0
C344 C 0.36207 0.96154 0.73505 0.0
C345 C 0.31994 0.90255 0.77282 0.0
O346 O 0.31633 0.92043 0.77058 0.0
O347 O 0.34137 0.90557 0.7716 0.0
O348 O 0.33544 0.97693 0.78194 0.0
O349 O 0.36661 0.97087 0.78662 0.0
O350 O 0.11837 0.4483 0.73907 0.0
Cd351 Cd 0.13017 0.46227 0.7618 0.0
Cd352 Cd 0.10496 0.41062 0.76711 0.0
O353 O 0.09345 0.40901 0.74372 0.0
O354 O 0.15098 0.4976 0.75641 0.0
O355 O 0.11853 0.48428 0.77181 0.0
C356 C 0.13691 0.5024 0.76486 0.0
C357 C 0.07802 0.39095 0.78828 0.0
C358 C 0.10313 0.42697 0.73406 0.0
C359 C 0.15842 0.4378 0.77366 0.0
O360 O 0.14012 0.41694 0.77054 0.0
O361 O 0.15682 0.45704 0.77242 0.0
O362 O 0.08227 0.37877 0.77762 0.0
O363 O 0.08829 0.41441 0.78656 0.0
O364 O 0.60884 0.69504 0.73882 0.0
Cd365 Cd 0.59423 0.69298 0.76131 0.0
Cd366 Cd 0.64603 0.72119 0.767 0.0
O367 O 0.64831 0.711 0.74378 0.0
O368 O 0.55887 0.67716 0.75564 0.0
O369 O 0.57295 0.6595 0.77177 0.0
C370 C 0.55458 0.65881 0.7645 0.0
C371 C 0.66712 0.7165 0.78844 0.0
C372 C 0.63045 0.70188 0.73401 0.0
C373 C 0.61687 0.74592 0.77232 0.0
O374 O 0.6381 0.74904 0.76974 0.0
O375 O 0.59805 0.72479 0.77109 0.0
O376 O 0.67846 0.73253 0.7774 0.0
O377 O 0.64376 0.70222 0.78697 0.0
O378 O 0.606 0.69946 0.61259 0.0
Cd379 Cd 0.59096 0.69845 0.59046 0.0
Cd380 Cd 0.6237 0.68268 0.58282 0.0
O381 O 0.63658 0.6936 0.60597 0.0
O382 O 0.56979 0.71294 0.59495 0.0
O383 O 0.60135 0.73035 0.57858 0.0
C384 C 0.58333 0.73081 0.58555 0.0
C385 C 0.64814 0.69372 0.55989 0.0
C386 C 0.62473 0.698 0.61651 0.0
C387 C 0.56976 0.64649 0.57958 0.0
O388 O 0.59138 0.64991 0.5804 0.0
O389 O 0.56583 0.66413 0.58194 0.0
O390 O 0.64802 0.67826 0.57006 0.0
O391 O 0.63565 0.70428 0.56336 0.0
O392 O 0.36588 0.94162 0.61338 0.0
Cd393 Cd 0.36733 0.92869 0.59098 0.0
Cd394 Cd 0.38346 0.9784 0.58411 0.0
O395 O 0.37159 0.97818 0.60731 0.0
O396 O 0.35389 0.89309 0.59511 0.0
O397 O 0.33551 0.9067 0.57913 0.0
C398 C 0.33577 0.88841 0.58586 0.0
C399 C 0.37533 0.99787 0.56309 0.0
C400 C 0.36703 0.96154 0.61758 0.0
C401 C 0.41947 0.96042 0.58019 0.0
O402 O 0.41617 0.97865 0.58143 0.0
O403 O 0.40176 0.93879 0.58226 0.0
O404 O 0.38986 0.01013 0.57462 0.0
O405 O 0.36428 0.97427 0.56385 0.0
O406 O 0.12585 0.45383 0.61273 0.0
Cd407 Cd 0.13907 0.46808 0.59034 0.0
Cd408 Cd 0.09162 0.43772 0.58312 0.0
O409 O 0.08917 0.42388 0.60605 0.0
O410 O 0.17533 0.48264 0.59202 0.0
O411 O 0.15226 0.45149 0.57616 0.0
C412 C 0.17364 0.4664 0.58195 0.0
C413 C 0.0784 0.41464 0.55968 0.0
C414 C 0.10553 0.43529 0.61661 0.0
C415 C 0.11096 0.49207 0.58041 0.0
O416 O 0.09239 0.4707 0.58123 0.0
O417 O 0.13235 0.49529 0.5825 0.0
O418 O 0.06296 0.4145 0.56986 0.0
O419 O 0.10135 0.42645 0.56345 0.0
O420 O 0.36289 0.4512 0.61373 0.0
Cd421 Cd 0.36399 0.46524 0.59124 0.0
Cd422 Cd 0.38163 0.43495 0.5843 0.0
O423 O 0.37088 0.42193 0.60746 0.0
O424 O 0.34263 0.48019 0.59288 0.0
O425 O 0.33416 0.44893 0.57703 0.0
C426 C 0.32799 0.4641 0.58277 0.0
C427 C 0.37113 0.41036 0.5615 0.0
C428 C 0.36532 0.43311 0.61783 0.0
C429 C 0.41607 0.48941 0.58092 0.0
O430 O 0.41353 0.46813 0.58169 0.0
O431 O 0.39783 0.49242 0.58332 0.0
O432 O 0.38709 0.41129 0.57156 0.0
O433 O 0.35988 0.42216 0.56499 0.0
O434 O 0.60955 0.94078 0.61278 0.0
Cd435 Cd 0.59483 0.92774 0.59045 0.0
Cd436 Cd 0.62858 0.97756 0.58349 0.0
O437 O 0.64053 0.97722 0.60662 0.0
O438 O 0.57262 0.89217 0.5947 0.0
O439 O 0.60438 0.90554 0.57858 0.0
C440 C 0.5859 0.88734 0.58542 0.0
C441 C 0.6557 0.99727 0.56227 0.0
C442 C 0.62845 0.96062 0.61692 0.0
C443 C 0.57454 0.95969 0.57989 0.0
O444 O 0.59612 0.97784 0.58112 0.0
O445 O 0.57052 0.938 0.58184 0.0
O446 O 0.65366 0.00941 0.57397 0.0
O447 O 0.64329 0.97366 0.56299 0.0
O448 O 0.12799 0.7014 0.61341 0.0
Cd449 Cd 0.14178 0.69999 0.59129 0.0
Cd450 Cd 0.09319 0.68347 0.58402 0.0
O451 O 0.0913 0.69501 0.60698 0.0
O452 O 0.17745 0.71455 0.59571 0.0
O453 O 0.16319 0.73171 0.5792 0.0
C454 C 0.18171 0.73225 0.58618 0.0
C455 C 0.08031 0.6939 0.56064 0.0
C456 C 0.10781 0.69986 0.61742 0.0
C457 C 0.11128 0.64769 0.58099 0.0
O458 O 0.0929 0.65076 0.58206 0.0
O459 O 0.1328 0.66563 0.58297 0.0
O460 O 0.06473 0.67888 0.57089 0.0
O461 O 0.10329 0.70451 0.56433 0.0
O462 O 0.12225 0.6968 0.73945 0.0
Cd463 Cd 0.13499 0.69412 0.76177 0.0
Cd464 Cd 0.11189 0.72118 0.76803 0.0
O465 O 0.09832 0.71207 0.74496 0.0
O466 O 0.15404 0.67794 0.75574 0.0
O467 O 0.12249 0.66047 0.77202 0.0
C468 C 0.13995 0.6596 0.76459 0.0
C469 C 0.08861 0.71072 0.79135 0.0
C470 C 0.10724 0.70351 0.73492 0.0
C471 C 0.16558 0.7467 0.77294 0.0
O472 O 0.14737 0.74969 0.77046 0.0
O473 O 0.1633 0.72559 0.77166 0.0
O474 O 0.09068 0.72819 0.78222 0.0
O475 O 0.09853 0.69813 0.78662 0.0
O476 O 0.36395 0.44745 0.74005 0.0
Cd477 Cd 0.36616 0.46222 0.76254 0.0
Cd478 Cd 0.3403 0.4116 0.76836 0.0
O479 O 0.34969 0.40828 0.74514 0.0
O480 O 0.38106 0.49745 0.75675 0.0
O481 O 0.39979 0.48419 0.77258 0.0
C482 C 0.39979 0.50226 0.76535 0.0
C483 C 0.3516 0.39845 0.7912 0.0
C484 C 0.3579 0.426 0.73529 0.0
C485 C 0.31351 0.43829 0.77417 0.0
O486 O 0.3111 0.41744 0.77127 0.0
O487 O 0.33433 0.45754 0.77293 0.0
O488 O 0.33412 0.38313 0.78206 0.0
O489 O 0.36365 0.42114 0.78677 0.0
O490 O 0.61258 0.94615 0.73921 0.0
Cd491 Cd 0.59906 0.93495 0.76209 0.0
Cd492 Cd 0.64767 0.9554 0.76739 0.0
O493 O 0.65205 0.96883 0.74426 0.0
O494 O 0.56347 0.92329 0.75928 0.0
O495 O 0.58716 0.95412 0.77508 0.0
C496 C 0.5658 0.94018 0.76895 0.0
C497 C 0.6616 0.97891 0.79055 0.0
C498 C 0.63431 0.96046 0.73441 0.0
C499 C 0.61779 0.90153 0.77217 0.0
O500 O 0.63924 0.91944 0.7699 0.0
O501 O 0.59934 0.90452 0.771 0.0
O502 O 0.67643 0.97602 0.78136 0.0
O503 O 0.63908 0.96965 0.78598 0.0
H504 H 0.09157 0.23601 0.09319 0.0
H505 H 0.10779 0.2967 0.12488 0.0
H506 H 0.1488 0.30199 0.13011 0.0
H507 H 0.12419 0.21141 0.11575 0.0
H508 H 0.13471 0.20351 0.09791 0.0
H509 H 0.10612 0.20346 0.09773 0.0
H510 H 0.1213 0.2335 0.07374 0.0
H511 H 0.14991 0.23369 0.07386 0.0
H512 H 0.14969 0.26208 0.07541 0.0
H513 H 0.1893 0.30218 0.13041 0.0
H514 H 0.22535 0.29726 0.1257 0.0
H515 H 0.18202 0.23643 0.09382 0.0
C516 C 0.10356 0.2502 0.10143 0.0
C517 C 0.09639 0.26587 0.10868 0.0
C518 C 0.11282 0.28439 0.11923 0.0
C519 C 0.13615 0.28752 0.12229 0.0
C520 C 0.14275 0.27194 0.11474 0.0
C521 C 0.12685 0.25359 0.10458 0.0
C522 C 0.13864 0.24001 0.09734 0.0
C523 C 0.12511 0.213 0.1025 0.0
C524 C 0.13997 0.24248 0.07901 0.0
C525 C 0.16383 0.2538 0.10481 0.0
C526 C 0.16586 0.27207 0.1149 0.0
C527 C 0.1878 0.28777 0.12265 0.0
C528 C 0.2082 0.28485 0.1199 0.0
C529 C 0.20653 0.2664 0.10945 0.0
C530 C 0.1839 0.25058 0.10199 0.0
H531 H 0.82517 0.97359 0.09147 0.0
H532 H 0.76488 0.95911 0.12311 0.0
H533 H 0.75725 0.91705 0.12753 0.0
H534 H 0.79672 0.91603 0.07266 0.0
H535 H 0.82431 0.91432 0.07099 0.0
H536 H 0.82606 0.94366 0.07136 0.0
H537 H 0.85577 0.95674 0.0955 0.0
H538 H 0.8542 0.92745 0.09516 0.0
H539 H 0.84684 0.93796 0.11322 0.0
H540 H 0.75503 0.87548 0.12722 0.0
H541 H 0.75862 0.83867 0.12228 0.0
H542 H 0.82019 0.88114 0.09071 0.0
C543 C 0.81056 0.96174 0.09952 0.0
C544 C 0.79569 0.96971 0.10701 0.0
C545 C 0.77659 0.95346 0.1173 0.0
C546 C 0.77212 0.92953 0.11988 0.0
C547 C 0.78693 0.92216 0.1121 0.0
C548 C 0.80582 0.93788 0.10218 0.0
C549 C 0.81849 0.92536 0.09468 0.0
C550 C 0.81625 0.92481 0.07634 0.0
C551 C 0.84542 0.93761 0.09996 0.0
C552 C 0.80364 0.90002 0.10177 0.0
C553 C 0.78558 0.89847 0.11186 0.0
C554 C 0.76923 0.87657 0.11942 0.0
C555 C 0.77139 0.85575 0.11654 0.0
C556 C 0.7897 0.85699 0.10614 0.0
C557 C 0.80604 0.87953 0.09878 0.0
H558 H 0.1179 0.86195 0.10912 0.0
H559 H 0.06858 0.88656 0.09246 0.0
H560 H 0.10205 0.92927 0.09362 0.0
H561 H 0.15509 0.91463 0.13591 0.0
H562 H 0.18339 0.91579 0.13075 0.0
H563 H 0.15503 0.88702 0.13031 0.0
H564 H 0.16317 0.88069 0.10084 0.0
H565 H 0.1915 0.9094 0.10118 0.0
H566 H 0.1687 0.90397 0.08626 0.0
H567 H 0.14055 0.96856 0.09443 0.0
H568 H 0.18288 0.00291 0.09425 0.0
H569 H 0.20877 0.95427 0.11018 0.0
C570 C 0.11413 0.87641 0.10602 0.0
C571 C 0.09059 0.87094 0.10077 0.0
C572 C 0.08644 0.89029 0.0965 0.0
C573 C 0.10531 0.91465 0.0972 0.0
C574 C 0.12835 0.91947 0.10216 0.0
C575 C 0.13296 0.90101 0.10649 0.0
C576 C 0.15995 0.91138 0.11025 0.0
C577 C 0.16357 0.90694 0.12786 0.0
C578 C 0.1715 0.90073 0.09896 0.0
C579 C 0.16973 0.93841 0.107 0.0
C580 C 0.15102 0.94256 0.10252 0.0
C581 C 0.15535 0.96564 0.09809 0.0
C582 C 0.1795 0.98504 0.09798 0.0
C583 C 0.19913 0.98132 0.10227 0.0
C584 C 0.1941 0.95773 0.10709 0.0
H585 H 0.28841 0.11547 0.91088 0.0
H586 H 0.21382 0.06544 0.92598 0.0
H587 H 0.20466 0.09901 0.92523 0.0
H588 H 0.29637 0.1651 0.93452 0.0
H589 H 0.31429 0.1886 0.92012 0.0
H590 H 0.31462 0.16024 0.91999 0.0
H591 H 0.30125 0.15357 0.89029 0.0
H592 H 0.30091 0.18198 0.89032 0.0
H593 H 0.27394 0.154 0.88447 0.0
H594 H 0.20405 0.13767 0.92524 0.0
H595 H 0.21215 0.18004 0.92621 0.0
H596 H 0.28711 0.20642 0.91115 0.0
C597 C 0.27005 0.11155 0.9137 0.0
C598 C 0.25178 0.08779 0.91842 0.0
C599 C 0.2281 0.08347 0.92234 0.0
C600 C 0.22267 0.1024 0.92189 0.0
C601 C 0.2411 0.12566 0.91749 0.0
C602 C 0.26431 0.13042 0.91344 0.0
C603 C 0.28109 0.15757 0.91026 0.0
C604 C 0.30288 0.16852 0.92192 0.0
C605 C 0.28981 0.16204 0.89279 0.0
C606 C 0.26377 0.16727 0.91354 0.0
C607 C 0.24075 0.1484 0.91754 0.0
C608 C 0.2219 0.1526 0.92194 0.0
C609 C 0.22672 0.17677 0.92251 0.0
C610 C 0.2502 0.19653 0.91867 0.0
C611 C 0.26888 0.19165 0.91389 0.0
H612 H 0.97685 0.18269 0.92737 0.0
H613 H 0.96118 0.22793 0.89595 0.0
H614 H 0.91958 0.19289 0.89125 0.0
H615 H 0.94248 0.12551 0.90523 0.0
H616 H 0.93213 0.10731 0.92318 0.0
H617 H 0.96108 0.13544 0.92302 0.0
H618 H 0.94717 0.15112 0.94723 0.0
H619 H 0.91817 0.12312 0.94742 0.0
H620 H 0.91914 0.15209 0.94591 0.0
H621 H 0.87852 0.15305 0.89135 0.0
H622 H 0.84216 0.11229 0.89618 0.0
H623 H 0.8854 0.09396 0.92762 0.0
C624 C 0.96484 0.1852 0.9193 0.0
C625 C 0.97235 0.20806 0.91197 0.0
C626 C 0.9559 0.21056 0.90165 0.0
C627 C 0.93222 0.19076 0.89891 0.0
C628 C 0.9253 0.16856 0.90655 0.0
C629 C 0.94122 0.16571 0.91648 0.0
C630 C 0.92912 0.14041 0.92384 0.0
C631 C 0.94197 0.12634 0.91849 0.0
C632 C 0.92835 0.14178 0.94218 0.0
C633 C 0.90378 0.12951 0.91667 0.0
C634 C 0.90189 0.14591 0.90665 0.0
C635 C 0.87989 0.14002 0.89908 0.0
C636 C 0.85933 0.11684 0.90189 0.0
C637 C 0.86091 0.09988 0.91224 0.0
C638 C 0.88355 0.1064 0.91958 0.0
H639 H 0.85794 0.77106 0.91135 0.0
H640 H 0.88385 0.84505 0.92832 0.0
H641 H 0.92616 0.85307 0.92786 0.0
H642 H 0.89847 0.76041 0.93475 0.0
H643 H 0.90385 0.74302 0.91983 0.0
H644 H 0.87549 0.74338 0.91986 0.0
H645 H 0.883 0.75852 0.89051 0.0
H646 H 0.9114 0.75816 0.89039 0.0
H647 H 0.91115 0.7858 0.8853 0.0
H648 H 0.96482 0.85277 0.92758 0.0
H649 H 0.99864 0.84405 0.92775 0.0
H650 H 0.94932 0.77015 0.91109 0.0
C651 C 0.87261 0.78904 0.91468 0.0
C652 C 0.86759 0.80747 0.91982 0.0
C653 C 0.88721 0.83064 0.92437 0.0
C654 C 0.91136 0.83544 0.92409 0.0
C655 C 0.91572 0.81688 0.91924 0.0
C656 C 0.89702 0.79414 0.9146 0.0
C657 C 0.90695 0.77711 0.9109 0.0
C658 C 0.89551 0.75466 0.922 0.0
C659 C 0.90288 0.76945 0.89322 0.0
C660 C 0.93398 0.79377 0.91451 0.0
C661 C 0.93849 0.81667 0.91916 0.0
C662 C 0.96162 0.835 0.92382 0.0
C663 C 0.98071 0.82981 0.92392 0.0
C664 C 0.97668 0.80645 0.91939 0.0
C665 C 0.95301 0.78827 0.91441 0.0
H666 H 0.75684 0.5724 0.42713 0.0
H667 H 0.77299 0.63447 0.45744 0.0
H668 H 0.81473 0.64124 0.46205 0.0
H669 H 0.79158 0.55044 0.44968 0.0
H670 H 0.8016 0.5419 0.43188 0.0
H671 H 0.77265 0.54111 0.43203 0.0
H672 H 0.78612 0.56975 0.40732 0.0
H673 H 0.8151 0.5707 0.40713 0.0
H674 H 0.81418 0.59877 0.40814 0.0
H675 H 0.85585 0.64238 0.46199 0.0
H676 H 0.89209 0.63771 0.45726 0.0
H677 H 0.84821 0.57501 0.42689 0.0
C678 C 0.76898 0.58723 0.43494 0.0
C679 C 0.76157 0.60284 0.44199 0.0
C680 C 0.7782 0.62219 0.45197 0.0
C681 C 0.80195 0.62618 0.45465 0.0
C682 C 0.80875 0.61062 0.4473 0.0
C683 C 0.79266 0.59147 0.43769 0.0
C684 C 0.8046 0.57797 0.43059 0.0
C685 C 0.79185 0.55128 0.4364 0.0
C686 C 0.80503 0.5794 0.41221 0.0
C687 C 0.83007 0.59265 0.43752 0.0
C688 C 0.83217 0.61134 0.4472 0.0
C689 C 0.85432 0.62768 0.45451 0.0
C690 C 0.87481 0.6249 0.45176 0.0
C691 C 0.87302 0.60597 0.44174 0.0
C692 C 0.85023 0.58961 0.43468 0.0
H693 H 0.49577 0.30715 0.42683 0.0
H694 H 0.43518 0.2909 0.45866 0.0
H695 H 0.42932 0.24956 0.46339 0.0
H696 H 0.46903 0.24948 0.40842 0.0
H697 H 0.4972 0.24885 0.40668 0.0
H698 H 0.49784 0.27768 0.40696 0.0
H699 H 0.52784 0.29188 0.43096 0.0
H700 H 0.52735 0.26308 0.43073 0.0
H701 H 0.51964 0.27334 0.44877 0.0
H702 H 0.42857 0.20879 0.46316 0.0
H703 H 0.43297 0.17255 0.45797 0.0
H704 H 0.49399 0.21605 0.42624 0.0
C705 C 0.48149 0.29508 0.435 0.0
C706 C 0.46601 0.30235 0.44244 0.0
C707 C 0.44735 0.28581 0.45288 0.0
C708 C 0.44389 0.26229 0.45564 0.0
C709 C 0.45928 0.25561 0.44791 0.0
C710 C 0.47777 0.2716 0.43785 0.0
C711 C 0.49107 0.2597 0.43035 0.0
C712 C 0.48862 0.25888 0.41202 0.0
C713 C 0.51808 0.27278 0.43552 0.0
C714 C 0.47698 0.23435 0.43757 0.0
C715 C 0.45881 0.23232 0.44775 0.0
C716 C 0.4429 0.21027 0.45532 0.0
C717 C 0.44552 0.18977 0.4523 0.0
C718 C 0.46388 0.19144 0.44175 0.0
C719 C 0.47989 0.21416 0.43446 0.0
H720 H 0.86948 0.2792 0.4421 0.0
H721 H 0.84557 0.32939 0.4261 0.0
H722 H 0.80275 0.29612 0.42694 0.0
H723 H 0.82746 0.22916 0.41878 0.0
H724 H 0.82167 0.20594 0.43346 0.0
H725 H 0.85051 0.23413 0.43341 0.0
H726 H 0.84393 0.24161 0.46296 0.0
H727 H 0.81503 0.21338 0.46311 0.0
H728 H 0.81636 0.24165 0.46858 0.0
H729 H 0.7633 0.25776 0.42722 0.0
H730 H 0.72873 0.21555 0.42661 0.0
H731 H 0.77671 0.18875 0.44236 0.0
C732 C 0.85515 0.28321 0.43909 0.0
C733 C 0.86087 0.30693 0.4341 0.0
C734 C 0.84167 0.31138 0.42994 0.0
C735 C 0.81724 0.29263 0.43045 0.0
C736 C 0.81219 0.2694 0.43513 0.0
C737 C 0.83048 0.26451 0.4394 0.0
C738 C 0.81986 0.2374 0.44287 0.0
C739 C 0.83051 0.22599 0.43145 0.0
C740 C 0.82404 0.23327 0.46043 0.0
C741 C 0.7929 0.22789 0.43953 0.0
C742 C 0.78899 0.24682 0.43524 0.0
C743 C 0.76603 0.24278 0.43074 0.0
C744 C 0.74651 0.2187 0.43039 0.0
C745 C 0.74997 0.19886 0.43451 0.0
C746 C 0.77344 0.20359 0.43939 0.0
H747 H 0.95806 0.44753 0.24474 0.0
H748 H 0.88363 0.39861 0.26067 0.0
H749 H 0.87537 0.43275 0.26047 0.0
H750 H 0.96775 0.49785 0.26862 0.0
H751 H 0.98545 0.5211 0.25403 0.0
H752 H 0.98528 0.49248 0.25381 0.0
H753 H 0.97096 0.48568 0.2243 0.0
H754 H 0.97114 0.51434 0.22442 0.0
H755 H 0.94372 0.48654 0.2189 0.0
H756 H 0.87549 0.47164 0.26065 0.0
H757 H 0.88397 0.5141 0.26121 0.0
H758 H 0.95835 0.53947 0.24517 0.0
C759 C 0.93994 0.444 0.24789 0.0
C760 C 0.92145 0.42036 0.25267 0.0
C761 C 0.89808 0.41653 0.25699 0.0
C762 C 0.89316 0.4358 0.25686 0.0
C763 C 0.91177 0.4589 0.25238 0.0
C764 C 0.9347 0.46322 0.24794 0.0
C765 C 0.95171 0.49029 0.24459 0.0
C766 C 0.97385 0.50106 0.25594 0.0
C767 C 0.95986 0.49445 0.227 0.0
C768 C 0.93483 0.50042 0.24817 0.0
C769 C 0.91185 0.48183 0.25251 0.0
C770 C 0.89331 0.48637 0.25711 0.0
C771 C 0.89837 0.5106 0.25744 0.0
C772 C 0.92179 0.53012 0.25319 0.0
C773 C 0.94019 0.5249 0.24829 0.0
H774 H 0.613 0.53534 0.24435 0.0
H775 H 0.66306 0.51043 0.25877 0.0
H776 H 0.62955 0.46774 0.25756 0.0
H777 H 0.56326 0.49282 0.26767 0.0
H778 H 0.53981 0.4877 0.25335 0.0
H779 H 0.56814 0.51641 0.25351 0.0
H780 H 0.57496 0.51071 0.22366 0.0
H781 H 0.54659 0.48195 0.2234 0.0
H782 H 0.57464 0.48322 0.21738 0.0
H783 H 0.59096 0.42843 0.25709 0.0
H784 H 0.54861 0.39409 0.2578 0.0
H785 H 0.52211 0.44304 0.2438 0.0
C786 C 0.61692 0.52083 0.24693 0.0
C787 C 0.64069 0.52622 0.25158 0.0
C788 C 0.64503 0.50678 0.25519 0.0
C789 C 0.62613 0.48243 0.25447 0.0
C790 C 0.60288 0.47769 0.25013 0.0
C791 C 0.59808 0.49624 0.24641 0.0
C792 C 0.57093 0.48592 0.24325 0.0
C793 C 0.55989 0.49633 0.25516 0.0
C794 C 0.56652 0.49074 0.22588 0.0
C795 C 0.56128 0.45883 0.24614 0.0
C796 C 0.58017 0.4546 0.24993 0.0
C797 C 0.576 0.43142 0.25396 0.0
C798 C 0.55185 0.41203 0.25437 0.0
C799 C 0.53205 0.41583 0.25077 0.0
C800 C 0.5369 0.43951 0.24635 0.0
H801 H 0.52197 0.1097 0.24332 0.0
H802 H 0.54866 0.18429 0.25927 0.0
H803 H 0.59089 0.19193 0.25871 0.0
H804 H 0.56203 0.09916 0.26685 0.0
H805 H 0.56709 0.08116 0.25225 0.0
H806 H 0.53896 0.08194 0.25205 0.0
H807 H 0.54659 0.09631 0.22255 0.0
H808 H 0.57474 0.09547 0.22263 0.0
H809 H 0.57495 0.1232 0.21712 0.0
H810 H 0.62936 0.19088 0.25892 0.0
H811 H 0.66268 0.18137 0.25958 0.0
H812 H 0.6125 0.10743 0.24341 0.0
C813 C 0.53679 0.12777 0.24634 0.0
C814 C 0.53202 0.14646 0.25126 0.0
C815 C 0.55184 0.16971 0.25545 0.0
C816 C 0.57594 0.17427 0.25513 0.0
C817 C 0.58002 0.1554 0.25058 0.0
C818 C 0.56112 0.13262 0.24618 0.0
C819 C 0.57068 0.1152 0.24281 0.0
C820 C 0.55899 0.09306 0.25417 0.0
C821 C 0.56649 0.10707 0.22523 0.0
C822 C 0.59776 0.13165 0.24636 0.0
C823 C 0.60263 0.15479 0.25069 0.0
C824 C 0.62587 0.17293 0.25536 0.0
C825 C 0.64467 0.16729 0.25575 0.0
C826 C 0.64026 0.1437 0.25148 0.0
C827 C 0.6165 0.12573 0.24652 0.0
H828 H 0.42975 0.91407 0.75724 0.0
H829 H 0.44683 0.97522 0.7887 0.0
H830 H 0.48831 0.98109 0.79304 0.0
H831 H 0.46272 0.89013 0.77916 0.0
H832 H 0.47265 0.88173 0.76126 0.0
H833 H 0.44421 0.88197 0.76133 0.0
H834 H 0.459 0.91158 0.7371 0.0
H835 H 0.48747 0.91147 0.73696 0.0
H836 H 0.48759 0.94003 0.7384 0.0
H837 H 0.52889 0.98088 0.79294 0.0
H838 H 0.56423 0.97463 0.78842 0.0
H839 H 0.51948 0.91361 0.75703 0.0
C840 C 0.44208 0.9286 0.76516 0.0
C841 C 0.435 0.94416 0.77266 0.0
C842 C 0.45182 0.96303 0.78286 0.0
C843 C 0.47542 0.96649 0.78539 0.0
C844 C 0.48184 0.95089 0.77767 0.0
C845 C 0.46556 0.93229 0.76779 0.0
C846 C 0.47693 0.91838 0.76051 0.0
C847 C 0.46332 0.89146 0.76589 0.0
C848 C 0.4778 0.9205 0.74216 0.0
C849 C 0.50228 0.93213 0.76769 0.0
C850 C 0.50485 0.95078 0.77761 0.0
C851 C 0.52699 0.96623 0.78526 0.0
C852 C 0.54696 0.96255 0.78263 0.0
C853 C 0.54464 0.9436 0.7724 0.0
C854 C 0.52189 0.9282 0.76497 0.0
H855 H 0.10599 0.51937 0.77466 0.0
H856 H 0.17965 0.54331 0.7577 0.0
H857 H 0.1887 0.58595 0.75778 0.0
H858 H 0.09647 0.56044 0.75101 0.0
H859 H 0.07962 0.56661 0.76591 0.0
H860 H 0.07915 0.53784 0.76605 0.0
H861 H 0.09452 0.54541 0.79534 0.0
H862 H 0.09499 0.57422 0.7953 0.0
H863 H 0.12226 0.57324 0.80036 0.0
H864 H 0.1894 0.62512 0.7576 0.0
H865 H 0.1818 0.65969 0.75733 0.0
H866 H 0.10779 0.61208 0.77452 0.0
C867 C 0.12412 0.53368 0.77124 0.0
C868 C 0.14214 0.52798 0.76621 0.0
C869 C 0.16553 0.54716 0.76157 0.0
C870 C 0.17091 0.5715 0.76163 0.0
C871 C 0.15274 0.5765 0.76637 0.0
C872 C 0.12983 0.55827 0.77114 0.0
C873 C 0.11337 0.56888 0.7748 0.0
C874 C 0.09082 0.55778 0.76378 0.0
C875 C 0.10584 0.56522 0.7925 0.0
C876 C 0.13053 0.59576 0.77102 0.0
C877 C 0.15317 0.5996 0.76629 0.0
C878 C 0.17185 0.62245 0.76144 0.0
C879 C 0.16729 0.64196 0.76127 0.0
C880 C 0.14424 0.63864 0.76595 0.0
C881 C 0.12569 0.61524 0.77108 0.0
H882 H 0.44765 0.519 0.77515 0.0
H883 H 0.39828 0.54327 0.75796 0.0
H884 H 0.43206 0.58582 0.75792 0.0
H885 H 0.48561 0.573 0.80065 0.0
H886 H 0.51374 0.57371 0.79562 0.0
H887 H 0.48529 0.54502 0.79575 0.0
H888 H 0.49289 0.53709 0.76651 0.0
H889 H 0.5213 0.56574 0.76627 0.0
H890 H 0.49827 0.55961 0.75138 0.0
H891 H 0.47067 0.62486 0.75769 0.0
H892 H 0.51294 0.65921 0.7573 0.0
H893 H 0.53893 0.61132 0.77466 0.0
C894 C 0.44394 0.53336 0.77166 0.0
C895 C 0.42027 0.52779 0.7666 0.0
C896 C 0.41622 0.54703 0.76186 0.0
C897 C 0.43528 0.57132 0.76185 0.0
C898 C 0.45841 0.57621 0.76661 0.0
C899 C 0.46295 0.5579 0.77147 0.0
C900 C 0.49 0.56836 0.77512 0.0
C901 C 0.49388 0.56481 0.79284 0.0
C902 C 0.50127 0.55703 0.76416 0.0
C903 C 0.49987 0.59524 0.77123 0.0
C904 C 0.48116 0.59921 0.76647 0.0
C905 C 0.48548 0.62209 0.76154 0.0
C906 C 0.50961 0.64148 0.76131 0.0
C907 C 0.52925 0.63801 0.76599 0.0
C908 C 0.52426 0.61459 0.77122 0.0
H909 H 0.61494 0.77808 0.57531 0.0
H910 H 0.54057 0.72983 0.59155 0.0
H911 H 0.53242 0.7641 0.59066 0.0
H912 H 0.62499 0.82857 0.59855 0.0
H913 H 0.64287 0.85158 0.58387 0.0
H914 H 0.64233 0.82279 0.5838 0.0
H915 H 0.62794 0.81579 0.5543 0.0
H916 H 0.62851 0.84465 0.55426 0.0
H917 H 0.6009 0.81698 0.54883 0.0
H918 H 0.53304 0.80351 0.59058 0.0
H919 H 0.54246 0.84633 0.59138 0.0
H920 H 0.61646 0.87033 0.57522 0.0
C921 C 0.5968 0.77467 0.5783 0.0
C922 C 0.57832 0.75122 0.5834 0.0
C923 C 0.55499 0.74759 0.58759 0.0
C924 C 0.55014 0.76694 0.58707 0.0
C925 C 0.5688 0.7899 0.58234 0.0
C926 C 0.59167 0.79395 0.57798 0.0
C927 C 0.60892 0.82091 0.57452 0.0
C928 C 0.63108 0.83158 0.58586 0.0
C929 C 0.61704 0.82481 0.55693 0.0
C930 C 0.5923 0.83137 0.57799 0.0
C931 C 0.56919 0.81302 0.58233 0.0
C932 C 0.55096 0.81802 0.587 0.0
C933 C 0.55653 0.84244 0.58746 0.0
C934 C 0.58013 0.86168 0.58327 0.0
C935 C 0.59814 0.85599 0.57823 0.0
H936 H 0.19734 0.77953 0.57598 0.0
H937 H 0.22345 0.73105 0.59179 0.0
H938 H 0.2659 0.76521 0.59072 0.0
H939 H 0.25004 0.81846 0.5493 0.0
H940 H 0.25024 0.84614 0.55489 0.0
H941 H 0.22191 0.81733 0.55496 0.0
H942 H 0.21485 0.82419 0.58455 0.0
H943 H 0.24314 0.85293 0.58459 0.0
H944 H 0.2381 0.82982 0.59917 0.0
H945 H 0.30471 0.80452 0.59058 0.0
H946 H 0.33818 0.8473 0.59148 0.0
H947 H 0.28817 0.87162 0.57582 0.0
C948 C 0.21207 0.77605 0.57884 0.0
C949 C 0.2071 0.75257 0.58387 0.0
C950 C 0.2268 0.74884 0.58789 0.0
C951 C 0.25101 0.76812 0.58726 0.0
C952 C 0.25532 0.79112 0.58259 0.0
C953 C 0.23649 0.79526 0.5784 0.0
C954 C 0.24624 0.82226 0.57504 0.0
C955 C 0.24184 0.82628 0.5575 0.0
C956 C 0.23491 0.83292 0.58652 0.0
C957 C 0.27333 0.83262 0.57839 0.0
C958 C 0.27808 0.8142 0.58256 0.0
C959 C 0.30131 0.8191 0.58713 0.0
C960 C 0.3202 0.84349 0.58765 0.0
C961 C 0.31585 0.8628 0.58363 0.0
C962 C 0.29214 0.85722 0.57869 0.0
H963 H 0.30949 0.492 0.59455 0.0
H964 H 0.29274 0.43223 0.56189 0.0
H965 H 0.25217 0.42795 0.55659 0.0
H966 H 0.25116 0.46623 0.61195 0.0
H967 H 0.2515 0.49484 0.61396 0.0
H968 H 0.27981 0.49444 0.61405 0.0
H969 H 0.29586 0.52536 0.59054 0.0
H970 H 0.26756 0.52589 0.59039 0.0
H971 H 0.27813 0.51837 0.57242 0.0
H972 H 0.21212 0.4286 0.55634 0.0
H973 H 0.17643 0.43407 0.56121 0.0
H974 H 0.21999 0.49342 0.59403 0.0
C975 C 0.29748 0.47822 0.58609 0.0
C976 C 0.30437 0.46251 0.57858 0.0
C977 C 0.28793 0.44455 0.56774 0.0
C978 C 0.26484 0.442 0.56465 0.0
C979 C 0.25851 0.4576 0.57245 0.0
C980 C 0.27444 0.47542 0.5829 0.0
C981 C 0.26292 0.4891 0.59037 0.0
C982 C 0.26125 0.48595 0.60866 0.0
C983 C 0.27696 0.51629 0.58564 0.0
C984 C 0.23785 0.47597 0.5827 0.0
C985 C 0.23565 0.45795 0.57231 0.0
C986 C 0.21375 0.44282 0.56433 0.0
C987 C 0.19356 0.44605 0.56717 0.0
C988 C 0.1954 0.46424 0.57794 0.0
C989 C 0.21799 0.47949 0.58561 0.0
H990 H 0.03084 0.3085 0.15494 0.0
H991 H 0.01814 0.35814 0.12608 0.0
H992 H 0.01159 0.37599 0.15058 0.0
H993 H 0.98355 0.29406 0.18086 0.0
H994 H 0.99839 0.29146 0.19857 0.0
H995 H 0.00733 0.28624 0.17924 0.0
H996 H 0.05229 0.31942 0.18484 0.0
H997 H 0.04351 0.32465 0.2043 0.0
H998 H 0.05926 0.34978 0.19054 0.0
H999 H 1.00115 0.38469 0.17779 0.0
H1000 H 0.98588 0.38232 0.20528 0.0
H1001 H 1.0034 0.32563 0.21647 0.0
C1002 C 0.02769 0.32381 0.15384 0.0
C1003 C 0.02552 0.33235 0.13865 0.0
C1004 C 0.02024 0.35163 0.13763 0.0
C1005 C 0.01654 0.36189 0.15148 0.0
C1006 C 0.01798 0.35254 0.1663 0.0
C1007 C 0.02345 0.33392 0.16758 0.0
C1008 C 0.02066 0.32491 0.18469 0.0
C1009 C 1.00133 0.29756 0.1859 0.0
C1010 C 0.04541 0.33 0.19149 0.0
C1011 C 0.012 0.34078 0.19271 0.0
C1012 C 0.01107 0.35695 0.18197 0.0
C1013 C 1.00215 0.37236 0.18636 0.0
C1014 C 0.9935 0.37088 0.20202 0.0
C1015 C 0.99352 0.35388 0.21309 0.0
C1016 C 1.0034 0.33904 0.20838 0.0
H1017 H 0.72884 0.69122 0.13723 0.0
H1018 H 0.74851 0.76592 0.1487 0.0
H1019 H 0.73636 0.75379 0.17674 0.0
H1020 H 0.67585 0.66083 0.16565 0.0
H1021 H 0.68291 0.63717 0.17041 0.0
H1022 H 0.68975 0.65093 0.15082 0.0
H1023 H 0.73499 0.66204 0.15414 0.0
H1024 H 0.72835 0.64848 0.17372 0.0
H1025 H 0.75215 0.67987 0.17117 0.0
H1026 H 0.72884 0.73527 0.20415 0.0
H1027 H 0.7239 0.71104 0.22854 0.0
H1028 H 0.70683 0.64777 0.19934 0.0
C1029 C 0.72994 0.70489 0.14553 0.0
C1030 C 0.73956 0.72953 0.14072 0.0
C1031 C 0.74104 0.74691 0.15203 0.0
C1032 C 0.73417 0.74018 0.16802 0.0
C1033 C 0.72549 0.71591 0.17248 0.0
C1034 C 0.72297 0.69843 0.16151 0.0
C1035 C 0.71486 0.67402 0.16959 0.0
C1036 C 0.68932 0.65459 0.16377 0.0
C1037 C 0.73372 0.66563 0.167 0.0
C1038 C 0.71419 0.68075 0.18691 0.0
C1039 C 0.72025 0.70498 0.1883 0.0
C1040 C 0.72342 0.71612 0.20319 0.0
C1041 C 0.72063 0.70225 0.21697 0.0
C1042 C 0.71448 0.67744 0.2158 0.0
C1043 C 0.71073 0.66647 0.20057 0.0
H1044 H 0.31698 0.03311 0.15383 0.0
H1045 H 0.3807 0.05153 0.1247 0.0
H1046 H 0.40466 0.05574 0.14905 0.0
H1047 H 0.34771 0.07701 0.18209 0.0
H1048 H 0.3301 0.05949 0.19909 0.0
H1049 H 0.31654 0.05268 0.17952 0.0
H1050 H 0.30638 0.00767 0.18242 0.0
H1051 H 0.31985 0.01434 0.2021 0.0
H1052 H 0.33045 1.00119 0.18718 0.0
H1053 H 0.42322 0.06377 0.17642 0.0
H1054 H 0.43518 0.07648 0.20442 0.0
H1055 H 0.35977 0.0541 0.21591 0.0
C1056 C 0.33569 0.03705 0.15258 0.0
C1057 C 0.34688 0.04156 0.13738 0.0
C1058 C 0.37171 0.04771 0.13623 0.0
C1059 C 0.38544 0.05007 0.15 0.0
C1060 C 0.37413 0.04633 0.16487 0.0
C1061 C 0.34977 0.03988 0.16625 0.0
C1062 C 0.34288 0.04011 0.1836 0.0
C1063 C 0.33379 0.05842 0.18622 0.0
C1064 C 0.32376 0.01428 0.18915 0.0
C1065 C 0.36735 0.04859 0.19167 0.0
C1066 C 0.38502 0.05158 0.18071 0.0
C1067 C 0.40944 0.06108 0.18515 0.0
C1068 C 0.41608 0.06826 0.20111 0.0
C1069 C 0.39842 0.06616 0.21243 0.0
C1070 C 0.37366 0.05559 0.20765 0.0
H1071 H 0.30724 0.02302 0.86609 0.0
H1072 H 0.35519 0.00776 0.89486 0.0
H1073 H 0.37454 0.00345 0.87031 0.0
H1074 H 0.29454 0.97804 0.83838 0.0
H1075 H 0.2929 0.99449 0.82124 0.0
H1076 H 0.2864 1.00147 0.84083 0.0
H1077 H 0.31966 0.04695 0.83711 0.0
H1078 H 0.32621 0.04011 0.81742 0.0
H1079 H 0.35043 0.05463 0.83194 0.0
H1080 H 0.38531 0.99608 0.84285 0.0
H1081 H 0.38477 0.98347 0.81486 0.0
H1082 H 0.32817 1.00124 0.80387 0.0
C1083 C 0.32245 0.01971 0.86718 0.0
C1084 C 0.33014 0.01624 0.88233 0.0
C1085 C 0.34932 0.01081 0.88335 0.0
C1086 C 0.36045 0.00842 0.86947 0.0
C1087 C 0.35201 0.01126 0.85466 0.0
C1088 C 0.33338 0.01672 0.85342 0.0
C1089 C 0.32543 0.01553 0.83617 0.0
C1090 C 0.29822 0.99623 0.83404 0.0
C1091 C 0.33076 0.04081 0.83031 0.0
C1092 C 0.34193 0.00779 0.82799 0.0
C1093 C 0.35751 0.00598 0.83881 0.0
C1094 C 0.37342 0.99775 0.83423 0.0
C1095 C 0.37299 0.99063 0.81828 0.0
C1096 C 0.3565 0.99143 0.80712 0.0
C1097 C 0.34119 1.00066 0.81204 0.0
H1098 H 0.0842 0.40912 0.81866 0.0
H1099 H 0.04036 0.34394 0.79043 0.0
H1100 H 0.02023 0.32091 0.81502 0.0
H1101 H 0.09722 0.37981 0.84831 0.0
H1102 H 0.09673 0.3981 0.86469 0.0
H1103 H 0.10386 0.41075 0.84487 0.0
H1104 H 0.06871 0.42068 0.84649 0.0
H1105 H 0.06148 0.40806 0.8664 0.0
H1106 H 0.03813 0.39665 0.85118 0.0
H1107 H 0.00874 0.3037 0.84266 0.0
H1108 H 0.00875 0.293 0.87103 0.0
H1109 H 0.06139 0.36888 0.88154 0.0
C1110 C 0.06969 0.39025 0.81764 0.0
C1111 C 0.06345 0.37839 0.80264 0.0
C1112 C 0.04515 0.35341 0.8018 0.0
C1113 C 0.03357 0.34022 0.8157 0.0
C1114 C 0.04061 0.35223 0.83039 0.0
C1115 C 0.05829 0.3767 0.83146 0.0
C1116 C 0.06493 0.38438 0.84876 0.0
C1117 C 0.09229 0.3938 0.85183 0.0
C1118 C 0.05788 0.40358 0.85348 0.0
C1119 C 0.04889 0.36024 0.8572 0.0
C1120 C 0.03459 0.34206 0.84641 0.0
C1121 C 0.01958 0.31787 0.85124 0.0
C1122 C 0.01969 0.31195 0.86741 0.0
C1123 C 0.03496 0.33009 0.87857 0.0
C1124 C 0.04922 0.35465 0.87339 0.0
H1125 H 0.65032 0.70755 0.81922 0.0
H1126 H 0.71441 0.72661 0.79033 0.0
H1127 H 0.73855 0.732 0.81483 0.0
H1128 H 0.68098 0.7528 0.8473 0.0
H1129 H 0.66333 0.73545 0.86433 0.0
H1130 H 0.6499 0.7283 0.84471 0.0
H1131 H 0.63996 0.68341 0.84799 0.0
H1132 H 0.65332 0.69042 0.8677 0.0
H1133 H 0.66414 0.67719 0.85298 0.0
H1134 H 0.75676 0.73959 0.84234 0.0
H1135 H 0.76833 0.75159 0.87047 0.0
H1136 H 0.69296 0.72992 0.88157 0.0
C1137 C 0.6692 0.71197 0.81808 0.0
C1138 C 0.68042 0.71615 0.80291 0.0
C1139 C 0.70543 0.723 0.80186 0.0
C1140 C 0.71925 0.72603 0.81571 0.0
C1141 C 0.70785 0.7224 0.83054 0.0
C1142 C 0.68339 0.71561 0.83183 0.0
C1143 C 0.67637 0.71602 0.84912 0.0
C1144 C 0.66711 0.73423 0.85149 0.0
C1145 C 0.65732 0.69022 0.85478 0.0
C1146 C 0.70082 0.72476 0.85729 0.0
C1147 C 0.71861 0.72781 0.84641 0.0
C1148 C 0.74291 0.73699 0.851 0.0
C1149 C 0.74932 0.74374 0.86703 0.0
C1150 C 0.73157 0.74164 0.87828 0.0
C1151 C 0.70693 0.73153 0.87333 0.0
H1152 H 0.04387 0.75343 0.86715 0.0
H1153 H 0.06242 0.70746 0.89547 0.0
H1154 H 0.06747 0.68895 0.87076 0.0
H1155 H 0.01309 0.70988 0.83313 0.0
H1156 H 0.02646 0.73418 0.81858 0.0
H1157 H 0.01953 0.74023 0.83839 0.0
H1158 H 0.06452 0.77488 0.84177 0.0
H1159 H 0.07159 0.7689 0.82205 0.0
H1160 H 0.08888 0.76812 0.83898 0.0
H1161 H 0.07504 0.67884 0.84311 0.0
H1162 H 0.08722 0.67991 0.81496 0.0
H1163 H 0.06597 0.73413 0.80453 0.0
C1164 C 0.04809 0.73881 0.86812 0.0
C1165 C 0.05225 0.73145 0.8832 0.0
C1166 C 0.05883 0.71307 0.88403 0.0
C1167 C 0.06166 0.70242 0.87006 0.0
C1168 C 0.05809 0.71053 0.85532 0.0
C1169 C 0.05151 0.72837 0.85426 0.0
C1170 C 0.05198 0.73617 0.83704 0.0
C1171 C 0.02623 0.72972 0.83146 0.0
C1172 C 0.07034 0.76364 0.83484 0.0
C1173 C 0.06056 0.72049 0.82866 0.0
C1174 C 0.06345 0.70543 0.83937 0.0
C1175 C 0.07254 0.69032 0.83459 0.0
C1176 C 0.0794 0.69104 0.81854 0.0
C1177 C 0.07749 0.70702 0.80748 0.0
C1178 C 0.06742 0.7215 0.81262 0.0
H1179 H 0.3273 0.35252 0.80447 0.0
H1180 H 0.3849 0.42691 0.81404 0.0
H1181 H 0.38758 0.41531 0.84184 0.0
H1182 H 0.29654 0.3435 0.83978 0.0
H1183 H 0.28802 0.31185 0.84239 0.0
H1184 H 0.29344 0.32481 0.82266 0.0
H1185 H 0.32591 0.31183 0.8177 0.0
H1186 H 0.32051 0.29872 0.83747 0.0
H1187 H 0.35103 0.32137 0.83149 0.0
H1188 H 0.37915 0.39761 0.86948 0.0
H1189 H 0.36131 0.37473 0.89451 0.0
H1190 H 0.3104 0.3113 0.86703 0.0
C1191 C 0.34101 0.36621 0.81226 0.0
C1192 C 0.35599 0.39062 0.80701 0.0
C1193 C 0.37335 0.40806 0.81771 0.0
C1194 C 0.37502 0.40162 0.83354 0.0
C1195 C 0.35944 0.37759 0.83847 0.0
C1196 C 0.34297 0.36005 0.82808 0.0
C1197 C 0.32681 0.3361 0.83671 0.0
C1198 C 0.29961 0.32865 0.8353 0.0
C1199 C 0.33135 0.31581 0.83047 0.0
C1200 C 0.33604 0.34319 0.8537 0.0
C1201 C 0.35503 0.36715 0.85443 0.0
C1202 C 0.36475 0.37865 0.869 0.0
C1203 C 0.3545 0.36554 0.88317 0.0
C1204 C 0.33485 0.34111 0.88268 0.0
C1205 C 0.32597 0.32966 0.86773 0.0
H1206 H 0.75091 0.02367 0.86551 0.0
H1207 H 0.68732 0.00669 0.89436 0.0
H1208 H 0.66332 1.0016 0.86984 0.0
H1209 H 0.73806 0.05428 0.8314 0.0
H1210 H 0.74826 0.04026 0.81685 0.0
H1211 H 0.76172 0.04737 0.83652 0.0
H1212 H 0.75064 1.00221 0.84023 0.0
H1213 H 0.73712 0.99496 0.82064 0.0
H1214 H 0.7193 0.97821 0.83779 0.0
H1215 H 0.64507 0.99398 0.84237 0.0
H1216 H 0.63315 0.98143 0.81436 0.0
H1217 H 0.70795 1.00091 0.80328 0.0
C1218 C 0.73219 0.01978 0.86662 0.0
C1219 C 0.72105 0.01609 0.88179 0.0
C1220 C 0.69623 0.00992 0.88283 0.0
C1221 C 0.6825 0.00707 0.86897 0.0
C1222 C 0.6938 0.01019 0.85414 0.0
C1223 C 0.71808 0.01632 0.85287 0.0
C1224 C 0.7249 0.01534 0.83561 0.0
C1225 C 0.74439 0.04084 0.82975 0.0
C1226 C 0.73348 0.99656 0.83345 0.0
C1227 C 0.70052 0.00702 0.82745 0.0
C1228 C 0.68297 0.00471 0.8383 0.0
C1229 C 0.65874 0.99601 0.83374 0.0
C1230 C 0.65213 0.98894 0.81777 0.0
C1231 C 0.6696 0.99024 0.80658 0.0
C1232 C 0.69421 0.99992 0.81148 0.0
H1233 H 0.72559 0.06166 0.13694 0.0
H1234 H 0.74839 0.00921 0.14928 0.0
H1235 H 0.73643 0.00961 0.17731 0.0
H1236 H 0.74889 0.09779 0.16994 0.0
H1237 H 0.72452 0.10454 0.17258 0.0
H1238 H 0.73072 0.09701 0.15307 0.0
H1239 H 0.68583 0.06175 0.15073 0.0
H1240 H 0.67939 0.0693 0.17025 0.0
H1241 H 0.67313 0.03867 0.16611 0.0
H1242 H 0.72923 0.02133 0.20451 0.0
H1243 H 0.72471 0.04145 0.22857 0.0
H1244 H 0.70463 0.08484 0.19872 0.0
C1245 C 0.72732 0.04963 0.14542 0.0
C1246 C 0.73784 0.0353 0.14086 0.0
C1247 C 0.74021 0.02019 0.15242 0.0
C1248 C 0.73346 0.0203 0.1684 0.0
C1249 C 0.72402 0.03534 0.17261 0.0
C1250 C 0.72055 0.04943 0.1614 0.0
C1251 C 0.71204 0.06556 0.16925 0.0
C1252 C 0.73013 0.09283 0.16602 0.0
C1253 C 0.68605 0.05838 0.16376 0.0
C1254 C 0.7123 0.05915 0.18669 0.0
C1255 C 0.71909 0.04154 0.18836 0.0
C1256 C 0.72324 0.03461 0.20335 0.0
C1257 C 0.7207 0.04618 0.21694 0.0
C1258 C 0.71385 0.06431 0.2155 0.0
C1259 C 0.7091 0.07046 0.20019 0.0
H1260 H 0.99644 0.69562 0.13838 0.0
H1261 H 0.0494 0.77098 0.14997 0.0
H1262 H 0.04971 0.75906 0.17804 0.0
H1263 H 0.9613 0.6831 0.17217 0.0
H1264 H 0.95478 0.65204 0.17474 0.0
H1265 H 0.96146 0.66564 0.15516 0.0
H1266 H 0.9967 0.65609 0.15203 0.0
H1267 H 0.99004 0.64231 0.17162 0.0
H1268 H 0.02045 0.66671 0.16697 0.0
H1269 H 0.03906 0.74042 0.20542 0.0
H1270 H 0.02016 0.71589 0.22976 0.0
H1271 H 0.9758 0.65214 0.20045 0.0
C1272 C 0.00864 0.70951 0.14671 0.0
C1273 C 0.02298 0.73425 0.14193 0.0
C1274 C 0.0384 0.7519 0.15328 0.0
C1275 C 0.03869 0.74529 0.16928 0.0
C1276 C 0.02376 0.72088 0.17371 0.0
C1277 C 0.00929 0.70318 0.1627 0.0
C1278 C 0.99358 0.67861 0.17075 0.0
C1279 C 0.96617 0.66932 0.16805 0.0
C1280 C 1.00062 0.65982 0.165 0.0
C1281 C 1.00072 0.68547 0.18809 0.0
C1282 C 0.01826 0.70992 0.18953 0.0
C1283 C 0.02583 0.72112 0.20443 0.0
C1284 C 0.01497 0.70708 0.21818 0.0
C1285 C 0.99694 0.68204 0.21697 0.0
C1286 C 0.99013 0.67103 0.20173 0.0
H1287 H 0.37095 0.34208 0.13878 0.0
H1288 H 0.29628 0.32231 0.15049 0.0
H1289 H 0.30885 0.33565 0.17833 0.0
H1290 H 0.3823 0.31936 0.17262 0.0
H1291 H 0.4138 0.34296 0.17506 0.0
H1292 H 0.40013 0.33631 0.15552 0.0
H1293 H 0.41162 0.38163 0.15208 0.0
H1294 H 0.4255 0.38849 0.17164 0.0
H1295 H 0.40201 0.39581 0.1669 0.0
H1296 H 0.3277 0.34398 0.2056 0.0
H1297 H 0.35172 0.34814 0.22993 0.0
H1298 H 0.41458 0.36392 0.20062 0.0
C1299 C 0.35739 0.34133 0.14705 0.0
C1300 C 0.33263 0.33128 0.14239 0.0
C1301 C 0.31537 0.33011 0.15371 0.0
C1302 C 0.32236 0.33768 0.16957 0.0
C1303 C 0.34674 0.34666 0.17391 0.0
C1304 C 0.36408 0.34884 0.16292 0.0
C1305 C 0.38849 0.35677 0.17095 0.0
C1306 C 0.39664 0.33771 0.16839 0.0
C1307 C 0.40806 0.38219 0.16504 0.0
C1308 C 0.38191 0.35764 0.18827 0.0
C1309 C 0.3578 0.35202 0.1897 0.0
C1310 C 0.34676 0.34904 0.2046 0.0
C1311 C 0.36053 0.3514 0.21836 0.0
C1312 C 0.38512 0.35681 0.21715 0.0
C1313 C 0.39607 0.36057 0.20191 0.0
H1314 H 0.67278 0.67126 0.54851 0.0
H1315 H 0.64895 0.72249 0.53503 0.0
H1316 H 0.66215 0.72233 0.50727 0.0
H1317 H 0.72631 0.69493 0.52031 0.0
H1318 H 0.72075 0.66447 0.51639 0.0
H1319 H 0.7133 0.67181 0.53565 0.0
H1320 H 0.66875 0.63605 0.53268 0.0
H1321 H 0.676 0.6287 0.51343 0.0
H1322 H 0.65116 0.63492 0.51538 0.0
H1323 H 0.67118 0.71118 0.48038 0.0
H1324 H 0.67704 0.69129 0.45669 0.0
H1325 H 0.69656 0.64845 0.48752 0.0
C1326 C 0.67104 0.68306 0.53985 0.0
C1327 C 0.65994 0.69702 0.54401 0.0
C1328 C 0.65757 0.71181 0.5322 0.0
C1329 C 0.66504 0.71184 0.51638 0.0
C1330 C 0.67514 0.69722 0.51256 0.0
C1331 C 0.67847 0.68335 0.52402 0.0
C1332 C 0.6877 0.66755 0.51656 0.0
C1333 C 0.71356 0.67515 0.52258 0.0
C1334 C 0.66983 0.6402 0.5197 0.0
C1335 C 0.68805 0.67389 0.49904 0.0
C1336 C 0.68096 0.69123 0.49701 0.0
C1337 C 0.67738 0.69809 0.48185 0.0
C1338 C 0.6807 0.68667 0.46845 0.0
C1339 C 0.68771 0.6687 0.47027 0.0
C1340 C 0.69198 0.6627 0.48577 0.0
H1341 H 0.38849 0.02618 0.47053 0.0
H1342 H 0.40737 0.10043 0.4827 0.0
H1343 H 0.39404 0.08738 0.51049 0.0
H1344 H 0.33476 0.99423 0.49856 0.0
H1345 H 0.34243 0.97094 0.50312 0.0
H1346 H 0.34921 0.98508 0.48364 0.0
H1347 H 0.39468 0.99705 0.48706 0.0
H1348 H 0.38811 0.98312 0.50652 0.0
H1349 H 0.41145 0.01475 0.50424 0.0
H1350 H 0.38579 0.06817 0.53764 0.0
H1351 H 0.3817 0.04389 0.56181 0.0
H1352 H 0.36682 0.98167 0.53213 0.0
C1353 C 0.38906 0.03955 0.47889 0.0
C1354 C 0.39885 0.06433 0.47438 0.0
C1355 C 0.39977 0.08132 0.48581 0.0
C1356 C 0.3922 0.07406 0.50164 0.0
C1357 C 0.38348 0.04967 0.50584 0.0
C1358 C 0.38155 0.03258 0.49474 0.0
C1359 C 0.37387 0.00812 0.50261 0.0
C1360 C 0.34856 0.98843 0.49663 0.0
C1361 C 0.39318 1.00033 0.49995 0.0
C1362 C 0.37285 0.0144 0.51998 0.0
C1363 C 0.37819 0.0384 0.52156 0.0
C1364 C 0.38095 0.04918 0.53652 0.0
C1365 C 0.37865 0.03528 0.55019 0.0
C1366 C 0.37351 0.01079 0.54884 0.0
C1367 C 0.36998 1.00009 0.53353 0.0
H1368 H 0.98608 0.37186 0.4865 0.0
H1369 H 0.04927 0.39529 0.4558 0.0
H1370 H 0.07473 0.39958 0.47939 0.0
H1371 H 0.01679 0.41493 0.51578 0.0
H1372 H 1.00022 0.39579 0.53252 0.0
H1373 H 0.98597 0.3899 0.51317 0.0
H1374 H 0.97776 0.34537 0.51419 0.0
H1375 H 0.992 0.35113 0.53361 0.0
H1376 H 1.00285 0.33991 0.51761 0.0
H1377 H 0.09429 0.40584 0.50635 0.0
H1378 H 0.10698 0.41629 0.5345 0.0
H1379 H 0.0315 0.39061 0.54788 0.0
C1380 C 0.00507 0.37706 0.48473 0.0
C1381 C 0.01565 0.38282 0.46932 0.0
C1382 C 0.04079 0.39054 0.4675 0.0
C1383 C 0.05536 0.39293 0.48082 0.0
C1384 C 0.04457 0.38772 0.49592 0.0
C1385 C 0.01999 0.38001 0.49796 0.0
C1386 C 0.01362 0.37866 0.51555 0.0
C1387 C 1.00357 0.39585 0.51948 0.0
C1388 C 0.99548 0.35219 0.52053 0.0
C1389 C 0.03855 0.38756 0.52305 0.0
C1390 C 0.05605 0.39216 0.51155 0.0
C1391 C 0.08068 0.40197 0.51549 0.0
C1392 C 0.08773 0.40784 0.53154 0.0
C1393 C 0.07025 0.40418 0.54345 0.0
C1394 C 0.04528 0.39333 0.53912 0.0
H1395 H 0.3949 0.38708 0.55002 0.0
H1396 H 0.34128 0.40797 0.53689 0.0
H1397 H 0.34149 0.39472 0.50916 0.0
H1398 H 0.43044 0.40943 0.51666 0.0
H1399 H 0.43786 0.38542 0.51466 0.0
H1400 H 0.43034 0.39231 0.53396 0.0
H1401 H 0.39583 0.34723 0.53717 0.0
H1402 H 0.40335 0.34013 0.51785 0.0
H1403 H 0.37255 0.33338 0.52199 0.0
H1404 H 0.35288 0.38626 0.48222 0.0
H1405 H 0.37324 0.38147 0.45839 0.0
H1406 H 0.4183 0.36444 0.48888 0.0
C1407 C 0.38259 0.38814 0.54145 0.0
C1408 C 0.36795 0.39845 0.54568 0.0
C1409 C 0.3525 0.39996 0.534 0.0
C1410 C 0.35249 0.39246 0.51819 0.0
C1411 C 0.36778 0.38317 0.51429 0.0
C1412 C 0.38231 0.38065 0.52563 0.0
C1413 C 0.39875 0.37229 0.51806 0.0
C1414 C 0.42595 0.39098 0.52101 0.0
C1415 C 0.39222 0.34674 0.52413 0.0
C1416 C 0.392 0.37154 0.50059 0.0
C1417 C 0.37392 0.37765 0.49869 0.0
C1418 C 0.36655 0.38081 0.48359 0.0
C1419 C 0.37824 0.3781 0.47011 0.0
C1420 C 0.39697 0.37211 0.4718 0.0
C1421 C 0.40347 0.36822 0.48724 0.0
H1422 H 0.64741 0.981 0.53132 0.0
H1423 H 0.69474 0.04364 0.56069 0.0
H1424 H 0.71384 0.06805 0.53638 0.0
H1425 H 0.69131 0.99439 0.49713 0.0
H1426 H 0.6671 0.9846 0.48259 0.0
H1427 H 0.66073 0.97066 0.50213 0.0
H1428 H 0.62668 0.98172 0.50615 0.0
H1429 H 0.633 0.99576 0.48672 0.0
H1430 H 0.63409 0.01315 0.5041 0.0
H1431 H 0.72372 0.08724 0.50917 0.0
H1432 H 0.72253 0.09999 0.48142 0.0
H1433 H 0.66791 0.02528 0.46963 0.0
C1434 C 0.66247 0.99956 0.53261 0.0
C1435 C 0.66992 0.01032 0.54788 0.0
C1436 C 0.68897 0.03497 0.5491 0.0
C1437 C 0.69997 0.04895 0.53535 0.0
C1438 C 0.69166 0.03808 0.52044 0.0
C1439 C 0.67337 0.01389 0.51897 0.0
C1440 C 0.66558 0.00752 0.50167 0.0
C1441 C 0.67155 0.98815 0.49552 0.0
C1442 C 0.63823 0.99905 0.49955 0.0
C1443 C 0.68168 0.03209 0.49373 0.0
C1444 C 0.69695 0.04935 0.50471 0.0
C1445 C 0.71216 0.07378 0.50042 0.0
C1446 C 0.71135 0.08086 0.48461 0.0
C1447 C 0.69526 0.06364 0.47328 0.0
C1448 C 0.68071 0.03884 0.4779 0.0
H1449 H 0.98727 0.64588 0.48779 0.0
H1450 H 0.05037 0.68451 0.45685 0.0
H1451 H 0.07624 0.70531 0.48034 0.0
H1452 H 0.00528 0.6948 0.51884 0.0
H1453 H 0.99419 0.67277 0.53489 0.0
H1454 H 0.97974 0.66449 0.51553 0.0
H1455 H 0.98701 0.62756 0.51447 0.0
H1456 H 1.00145 0.63572 0.53377 0.0
H1457 H 0.01761 0.63268 0.51696 0.0
H1458 H 0.09614 0.71832 0.50724 0.0
H1459 H 0.10898 0.72035 0.53534 0.0
H1460 H 0.03334 0.6719 0.54901 0.0
C1461 C 0.00636 0.65937 0.48595 0.0
C1462 C 0.01677 0.66396 0.4705 0.0
C1463 C 0.04201 0.68096 0.46859 0.0
C1464 C 0.05682 0.69292 0.48185 0.0
C1465 C 0.04617 0.68756 0.497 0.0
C1466 C 0.0215 0.67112 0.49913 0.0
C1467 C 0.01525 0.66622 0.51675 0.0
C1468 C 0.99757 0.67511 0.5218 0.0
C1469 C 0.00472 0.63894 0.52071 0.0
C1470 C 0.04033 0.68187 0.52415 0.0
C1471 C 0.05782 0.69443 0.51258 0.0
C1472 C 0.08255 0.70883 0.51643 0.0
C1473 C 0.08968 0.7099 0.53245 0.0
C1474 C 0.0722 0.6964 0.54443 0.0
C1475 C 0.04714 0.68272 0.5402 0.0
H1476 H 0.03681 0.26678 0.04377 0.0
H1477 H 0.03458 0.33274 0.05516 0.0
H1478 H 0.03471 0.3413 0.02622 0.0
H1479 H 0.07613 0.29009 1.0093 0.0
H1480 H 0.05998 0.26153 0.99862 0.0
H1481 H 0.06079 0.2616 0.02014 0.0
H1482 H 0.01336 0.23705 0.02086 0.0
H1483 H 0.01239 0.23709 0.99936 0.0
H1484 H 0.99629 0.24893 0.01069 0.0
H1485 H 0.0349 0.34212 0.99541 0.0
H1486 H 0.0348 0.33488 0.96625 0.0
H1487 H 0.03518 0.2675 0.97606 0.0
C1488 C 0.03662 0.28321 0.04026 0.0
C1489 C 0.03586 0.29918 0.05179 0.0
C1490 C 0.03528 0.32028 0.04657 0.0
C1491 C 0.03532 0.32527 0.03015 0.0
C1492 C 0.03577 0.30891 0.01912 0.0
C1493 C 0.03639 0.2883 0.02403 0.0
C1494 C 0.03613 0.27314 1.00996 0.0
C1495 C 0.05966 0.27151 1.00948 0.0
C1496 C 0.01317 0.24755 0.01024 0.0
C1497 C 0.03526 0.28837 0.9963 0.0
C1498 C 0.03519 0.30902 1.00171 0.0
C1499 C 0.03487 0.32594 0.99108 0.0
C1500 C 0.03478 0.32168 0.97454 0.0
C1501 C 0.03479 0.30054 0.96882 0.0
C1502 C 0.03489 0.28373 0.97996 0.0
H1503 H 0.79476 0.79493 0.97588 0.0
H1504 H 0.72536 0.73016 0.965 0.0
H1505 H 0.71795 0.72122 0.99403 0.0
H1506 H 0.81156 0.77089 1.00938 0.0
H1507 H 0.82476 0.7993 0.02029 0.0
H1508 H 0.8246 0.79958 0.99877 0.0
H1509 H 0.80221 0.82463 0.99914 0.0
H1510 H 0.80221 0.82435 0.02066 0.0
H1511 H 0.77379 0.81299 1.00992 0.0
H1512 H 0.71923 0.71936 0.02489 0.0
H1513 H 0.72781 0.72619 0.05399 0.0
H1514 H 0.79502 0.79366 0.0436 0.0
C1515 C 0.77807 0.77869 0.97953 0.0
C1516 C 0.76075 0.76307 0.96814 0.0
C1517 C 0.73894 0.74232 0.97351 0.0
C1518 C 0.73461 0.7371 0.98997 0.0
C1519 C 0.75213 0.75301 1.00087 0.0
C1520 C 0.77332 0.77349 0.99579 0.0
C1521 C 0.78895 0.78834 1.00972 0.0
C1522 C 0.81394 0.78959 1.00953 0.0
C1523 C 0.79195 0.81409 1.00986 0.0
C1524 C 0.77335 0.77306 0.02352 0.0
C1525 C 0.75229 0.75258 0.01828 0.0
C1526 C 0.73559 0.73546 0.02907 0.0
C1527 C 0.74059 0.73945 0.04556 0.0
C1528 C 0.76191 0.7606 0.05107 0.0
C1529 C 0.77835 0.77752 0.03982 0.0
H1530 H 0.26879 0.03459 0.976 0.0
H1531 H 0.331 0.0252 0.96557 0.0
H1532 H 0.33956 0.02642 0.99458 0.0
H1533 H 0.29508 0.07555 1.00949 0.0
H1534 H 0.2666 0.06205 0.02035 0.0
H1535 H 0.2664 0.06155 0.99883 0.0
H1536 H 0.23866 0.01435 0.99933 0.0
H1537 H 0.2389 0.01469 0.02085 0.0
H1538 H 0.24849 0.99609 0.01019 0.0
H1539 H 0.34094 0.0287 0.02525 0.0
H1540 H 0.33438 0.03083 0.0543 0.0
H1541 H 0.27016 0.03679 0.0438 0.0
C1542 C 0.28441 0.03305 0.97974 0.0
C1543 C 0.29934 0.02999 0.96847 0.0
C1544 C 0.31935 0.02766 0.97397 0.0
C1545 C 0.32434 0.02833 0.99042 0.0
C1546 C 0.30905 0.03113 1.00121 0.0
C1547 C 0.28945 0.03338 0.99604 0.0
C1548 C 0.27522 0.0354 1.00992 0.0
C1549 C 0.27588 0.06011 1.00963 0.0
C1550 C 0.24876 0.01384 0.01008 0.0
C1551 C 0.28982 0.03393 0.02378 0.0
C1552 C 0.30938 0.03164 0.0186 0.0
C1553 C 0.32561 0.0304 0.0294 0.0
C1554 C 0.32174 0.03161 0.04588 0.0
C1555 C 0.30165 0.03378 0.05137 0.0
C1556 C 0.28555 0.03485 0.04007 0.0
H1557 H 0.03508 0.79492 0.97604 0.0
H1558 H 0.03842 0.72888 0.96726 0.0
H1559 H 0.03626 0.72121 0.99648 0.0
H1560 H 0.07346 0.81381 0.0105 0.0
H1561 H 0.05662 0.82608 0.02049 0.0
H1562 H 0.05733 0.82548 0.99899 0.0
H1563 H 0.00989 0.80115 0.99821 0.0
H1564 H 0.00903 0.80177 0.01971 0.0
H1565 H 0.9936 0.77294 1.00927 0.0
H1566 H 0.03276 0.72079 0.02721 0.0
H1567 H 0.03053 0.72882 0.05604 0.0
H1568 H 0.03211 0.79642 0.04376 0.0
C1569 C 0.03514 0.77868 0.9802 0.0
C1570 C 0.03666 0.76235 0.96934 0.0
C1571 C 0.03715 0.74159 0.97536 0.0
C1572 C 0.03592 0.73709 0.99193 0.0
C1573 C 0.03452 0.7537 1.0023 0.0
C1574 C 0.03432 0.77416 0.99659 0.0
C1575 C 0.03358 0.78975 0.01006 0.0
C1576 C 0.05662 0.81528 0.01 0.0
C1577 C 0.01013 0.79149 1.00926 0.0
C1578 C 0.0333 0.77487 0.02431 0.0
C1579 C 0.03362 0.75401 0.01968 0.0
C1580 C 0.0327 0.73718 0.03093 0.0
C1581 C 0.03142 0.74187 0.04726 0.0
C1582 C 0.03143 0.76337 0.05218 0.0
C1583 C 0.03246 0.78 0.04046 0.0
H1584 H 0.2673 0.2674 0.04546 0.0
H1585 H 0.33572 0.33369 0.05587 0.0
H1586 H 0.34335 0.34147 0.02679 0.0
H1587 H 0.28906 0.24873 0.01221 0.0
H1588 H 0.26074 0.2366 1.00125 0.0
H1589 H 0.26045 0.23705 0.02277 0.0
H1590 H 0.23747 0.26151 0.02222 0.0
H1591 H 0.23751 0.26098 1.00071 0.0
H1592 H 0.25022 0.28977 0.01113 0.0
H1593 H 0.34299 0.34155 0.99598 0.0
H1594 H 0.33479 0.3338 0.96695 0.0
H1595 H 0.26742 0.2666 0.97775 0.0
C1596 C 0.28383 0.28372 0.04171 0.0
C1597 C 0.30084 0.30003 0.053 0.0
C1598 C 0.32236 0.32097 0.04747 0.0
C1599 C 0.32686 0.32551 0.03097 0.0
C1600 C 0.30975 0.30885 0.02019 0.0
C1601 C 0.28868 0.28836 0.02541 0.0
C1602 C 0.27334 0.27288 0.01158 0.0
C1603 C 0.27076 0.24731 0.01198 0.0
C1604 C 0.24815 0.2712 0.0114 0.0
C1605 C 0.28896 0.28781 0.99767 0.0
C1606 C 0.30986 0.30856 1.00278 0.0
C1607 C 0.32672 0.32528 0.9919 0.0
C1608 C 0.32193 0.32072 0.97543 0.0
C1609 C 0.30056 0.29951 0.97002 0.0
C1610 C 0.28407 0.28287 0.9814 0.0
H1611 H 0.80117 0.03749 0.97547 0.0
H1612 H 0.72884 0.02635 0.96527 0.0
H1613 H 0.72139 0.02683 0.99434 0.0
H1614 H 0.78369 0.9982 1.00915 0.0
H1615 H 0.81174 0.01696 0.01991 0.0
H1616 H 0.81169 0.01723 0.9984 0.0
H1617 H 0.83018 0.06432 0.9985 0.0
H1618 H 0.83044 0.06422 0.02003 0.0
H1619 H 0.81496 0.07748 1.00946 0.0
H1620 H 0.72231 0.02854 0.02511 0.0
H1621 H 0.731 0.02986 0.05415 0.0
H1622 H 0.80181 0.03769 0.04323 0.0
C1623 C 0.78384 0.03546 0.97927 0.0
C1624 C 0.76568 0.03212 0.96806 0.0
C1625 C 0.74309 0.02906 0.97364 0.0
C1626 C 0.7387 0.02931 0.99013 0.0
C1627 C 0.75699 0.0324 1.00086 0.0
C1628 C 0.77907 0.03532 0.99559 0.0
C1629 C 0.79544 0.03733 1.0094 0.0
C1630 C 0.80095 0.01617 1.0092 0.0
C1631 C 0.81915 0.06233 1.00934 0.0
C1632 C 0.77919 0.03508 0.02333 0.0
C1633 C 0.75715 0.03246 0.01826 0.0
C1634 C 0.73949 0.03049 0.02917 0.0
C1635 C 0.74456 0.03125 0.04564 0.0
C1636 C 0.76697 0.03365 0.051 0.0
C1637 C 0.78436 0.03553 0.03959 0.0
H1638 H 0.69657 0.59701 0.30948 0.0
H1639 H 0.70349 0.66757 0.29896 0.0
H1640 H 0.70291 0.67514 0.32799 0.0
H1641 H 0.65652 0.58166 0.34353 0.0
H1642 H 0.67111 0.56758 0.35421 0.0
H1643 H 0.67099 0.56761 0.33269 0.0
H1644 H 0.71832 0.58837 0.33258 0.0
H1645 H 0.71861 0.58855 0.3541 0.0
H1646 H 0.73621 0.61673 0.34321 0.0
H1647 H 0.70137 0.67453 0.35866 0.0
H1648 H 0.70017 0.66627 0.38773 0.0
H1649 H 0.69634 0.59704 0.37738 0.0
C1650 C 0.69769 0.61398 0.31322 0.0
C1651 C 0.69985 0.63161 0.30191 0.0
C1652 C 0.70171 0.65373 0.30739 0.0
C1653 C 0.7014 0.65819 0.32386 0.0
C1654 C 0.69947 0.64045 0.33468 0.0
C1655 C 0.69774 0.61883 0.32952 0.0
C1656 C 0.69666 0.603 0.34344 0.0
C1657 C 0.67237 0.57852 0.34347 0.0
C1658 C 0.71877 0.59894 0.34332 0.0
C1659 C 0.698 0.61901 0.35729 0.0
C1660 C 0.69944 0.64048 0.35207 0.0
C1661 C 0.70035 0.65781 0.36285 0.0
C1662 C 0.69967 0.65298 0.37933 0.0
C1663 C 0.69837 0.63112 0.38488 0.0
C1664 C 0.69763 0.61408 0.37361 0.0
H1665 H 0.46167 0.13026 0.37734 0.0
H1666 H 0.39563 0.06183 0.38817 0.0
H1667 H 0.38743 0.05399 0.35915 0.0
H1668 H 0.43878 0.14703 0.34312 0.0
H1669 H 0.46745 0.1597 0.33253 0.0
H1670 H 0.46717 0.15991 0.35405 0.0
H1671 H 0.49172 0.137 0.3545 0.0
H1672 H 0.4919 0.13655 0.33298 0.0
H1673 H 0.47995 0.10832 0.34403 0.0
H1674 H 0.38695 0.05413 0.32831 0.0
H1675 H 0.39442 0.06209 0.29922 0.0
H1676 H 0.46165 0.1296 0.30967 0.0
C1677 C 0.44531 0.11369 0.3737 0.0
C1678 C 0.4292 0.09674 0.38509 0.0
C1679 C 0.4082 0.07516 0.37969 0.0
C1680 C 0.40342 0.07054 0.36322 0.0
C1681 C 0.4199 0.0876 0.35233 0.0
C1682 C 0.44044 0.10872 0.35743 0.0
C1683 C 0.45573 0.12397 0.34351 0.0
C1684 C 0.45736 0.14913 0.34329 0.0
C1685 C 0.48133 0.1266 0.34377 0.0
C1686 C 0.44065 0.10823 0.3297 0.0
C1687 C 0.41997 0.08736 0.33492 0.0
C1688 C 0.40315 0.0704 0.32413 0.0
C1689 C 0.40755 0.07504 0.30763 0.0
C1690 C 0.4287 0.09638 0.30211 0.0
C1691 C 0.44541 0.11298 0.3134 0.0
H1692 H 0.93301 0.36309 0.37677 0.0
H1693 H 1.00228 0.36746 0.38785 0.0
H1694 H 0.00926 0.36467 0.35893 0.0
H1695 H 0.91553 0.32093 0.34389 0.0
H1696 H 0.90248 0.33597 0.3326 0.0
H1697 H 0.90279 0.33718 0.3541 0.0
H1698 H 0.92556 0.38459 0.35296 0.0
H1699 H 0.9254 0.38353 0.33145 0.0
H1700 H 0.95392 0.40073 0.34205 0.0
H1701 H 0.00786 0.36067 0.32827 0.0
H1702 H 0.99935 0.3583 0.29915 0.0
H1703 H 0.93225 0.35914 0.30899 0.0
C1704 C 0.94956 0.36321 0.37318 0.0
C1705 C 0.96699 0.36523 0.3846 0.0
C1706 C 0.98863 0.36582 0.37932 0.0
C1707 C 0.99272 0.36421 0.36293 0.0
C1708 C 0.97514 0.36234 0.35198 0.0
C1709 C 0.95409 0.36204 0.35695 0.0
C1710 C 0.93843 0.36092 0.34293 0.0
C1711 C 0.91333 0.33735 0.34341 0.0
C1712 C 0.93568 0.38381 0.34232 0.0
C1713 C 0.95386 0.36057 0.32922 0.0
C1714 C 0.97486 0.36115 0.3346 0.0
C1715 C 0.99153 0.36037 0.32396 0.0
C1716 C 0.98655 0.359 0.30746 0.0
C1717 C 0.96528 0.35879 0.30177 0.0
C1718 C 0.94886 0.35962 0.3129 0.0
H1719 H 0.69303 0.12661 0.37613 0.0
H1720 H 0.69936 0.06275 0.38709 0.0
H1721 H 0.70115 0.05568 0.35806 0.0
H1722 H 0.65384 0.10104 0.34223 0.0
H1723 H 0.66759 0.12955 0.33139 0.0
H1724 H 0.6675 0.12967 0.35291 0.0
H1725 H 0.71471 0.15738 0.35312 0.0
H1726 H 0.71495 0.15746 0.33161 0.0
H1727 H 0.73331 0.14777 0.34248 0.0
H1728 H 0.70319 0.05664 0.32729 0.0
H1729 H 0.70406 0.06479 0.29823 0.0
H1730 H 0.69434 0.12685 0.30838 0.0
C1731 C 0.69497 0.11119 0.37251 0.0
C1732 C 0.69627 0.09534 0.38392 0.0
C1733 C 0.69842 0.07519 0.37857 0.0
C1734 C 0.69944 0.07104 0.36211 0.0
C1735 C 0.69801 0.08705 0.35119 0.0
C1736 C 0.69569 0.10664 0.35624 0.0
C1737 C 0.69401 0.12097 0.34229 0.0
C1738 C 0.66926 0.12025 0.34221 0.0
C1739 C 0.71553 0.14746 0.34238 0.0
C1740 C 0.69592 0.10656 0.32851 0.0
C1741 C 0.69834 0.0871 0.33379 0.0
C1742 C 0.70113 0.07173 0.32307 0.0
C1743 C 0.7016 0.07649 0.30658 0.0
C1744 C 0.69905 0.09632 0.30098 0.0
C1745 C 0.69601 0.11134 0.31219 0.0
H1746 H 0.93352 0.60049 0.37821 0.0
H1747 H 1.00277 0.66572 0.3887 0.0
H1748 H 0.00982 0.67449 0.35968 0.0
H1749 H 0.95454 0.58263 0.34398 0.0
H1750 H 0.92606 0.57102 0.33329 0.0
H1751 H 0.92614 0.57075 0.35481 0.0
H1752 H 0.90338 0.59543 0.35524 0.0
H1753 H 0.90313 0.59568 0.33372 0.0
H1754 H 0.91614 0.62409 0.34461 0.0
H1755 H 0.00852 0.67617 0.32907 0.0
H1756 H 1.00002 0.66945 0.30001 0.0
H1757 H 0.93289 0.60177 0.31026 0.0
C1758 C 0.95008 0.61679 0.37445 0.0
C1759 C 0.96748 0.63257 0.38574 0.0
C1760 C 0.98913 0.65342 0.38027 0.0
C1761 C 0.99327 0.65854 0.36382 0.0
C1762 C 0.97574 0.64247 0.35301 0.0
C1763 C 0.95466 0.62192 0.35815 0.0
C1764 C 0.93905 0.60697 0.34423 0.0
C1765 C 0.9363 0.58133 0.34407 0.0
C1766 C 0.91394 0.60547 0.34447 0.0
C1767 C 0.95452 0.62233 0.33039 0.0
C1768 C 0.97552 0.64286 0.33562 0.0
C1769 C 0.9922 0.66005 0.32487 0.0
C1770 C 0.98723 0.6561 0.3084 0.0
C1771 C 0.96593 0.63497 0.30284 0.0
C1772 C 0.94952 0.61793 0.31407 0.0
H1773 H 0.46616 0.36314 0.37792 0.0
H1774 H 0.39993 0.36477 0.38954 0.0
H1775 H 0.39105 0.36435 0.36065 0.0
H1776 H 0.48325 0.40326 0.34445 0.0
H1777 H 0.49513 0.38715 0.33317 0.0
H1778 H 0.49556 0.38662 0.35468 0.0
H1779 H 0.4714 0.33917 0.35437 0.0
H1780 H 0.47106 0.33956 0.33285 0.0
H1781 H 0.44271 0.3234 0.34377 0.0
H1782 H 0.38976 0.36371 0.32995 0.0
H1783 H 0.39632 0.36308 0.30078 0.0
H1784 H 0.46421 0.36346 0.31012 0.0
C1785 C 0.44963 0.36318 0.37446 0.0
C1786 C 0.43366 0.36383 0.38605 0.0
C1787 C 0.41241 0.36419 0.38091 0.0
C1788 C 0.40724 0.36398 0.36452 0.0
C1789 C 0.42357 0.3636 0.35343 0.0
C1790 C 0.44435 0.36323 0.35824 0.0
C1791 C 0.45934 0.36337 0.3441 0.0
C1792 C 0.48482 0.38648 0.34411 0.0
C1793 C 0.46122 0.33998 0.34376 0.0
C1794 C 0.44377 0.36381 0.3305 0.0
C1795 C 0.42315 0.36385 0.33604 0.0
C1796 C 0.40591 0.36377 0.32552 0.0
C1797 C 0.4098 0.36345 0.30897 0.0
C1798 C 0.43085 0.36338 0.3031 0.0
C1799 C 0.44803 0.36374 0.31413 0.0
H1800 H 0.36987 0.93766 0.71064 0.0
H1801 H 0.3553 0.99681 0.72012 0.0
H1802 H 0.35497 0.00375 0.69094 0.0
H1803 H 0.40921 0.96444 0.6766 0.0
H1804 H 0.39719 0.93561 0.66631 0.0
H1805 H 0.39723 0.93636 0.68782 0.0
H1806 H 0.35046 0.90604 0.68798 0.0
H1807 H 0.35024 0.90532 0.66647 0.0
H1808 H 0.33046 0.91351 0.67701 0.0
H1809 H 0.35673 0.00403 0.66018 0.0
H1810 H 0.35908 0.99679 0.63126 0.0
H1811 H 0.37031 0.93607 0.6429 0.0
C1812 C 0.36686 0.95228 0.70666 0.0
C1813 C 0.36283 0.96685 0.7177 0.0
C1814 C 0.35854 0.98548 0.71189 0.0
C1815 C 0.35832 0.98954 0.69534 0.0
C1816 C 0.36217 0.97464 0.6848 0.0
C1817 C 0.36625 0.95633 0.69029 0.0
C1818 C 0.36912 0.94223 0.67667 0.0
C1819 C 0.39471 0.94483 0.67687 0.0
C1820 C 0.34886 0.91518 0.67706 0.0
C1821 C 0.36608 0.95545 0.66257 0.0
C1822 C 0.36226 0.97422 0.6674 0.0
C1823 C 0.35957 0.98927 0.65631 0.0
C1824 C 0.36093 0.98503 0.63991 0.0
C1825 C 0.36464 0.96572 0.63478 0.0
C1826 C 0.36711 0.95078 0.64636 0.0
H1827 H 0.12891 0.45864 0.70997 0.0
H1828 H 0.06649 0.38649 0.71864 0.0
H1829 H 0.05981 0.38023 0.6894 0.0
H1830 H 0.10458 0.47446 0.67607 0.0
H1831 H 0.13368 0.49002 0.66595 0.0
H1832 H 0.1326 0.48876 0.68746 0.0
H1833 H 0.16058 0.46955 0.68744 0.0
H1834 H 0.16163 0.4706 0.66593 0.0
H1835 H 0.15157 0.44198 0.67616 0.0
H1836 H 0.06017 0.38254 0.65864 0.0
H1837 H 0.06828 0.39273 0.62981 0.0
H1838 H 0.1316 0.46245 0.64227 0.0
C1839 C 0.11364 0.44157 0.7058 0.0
C1840 C 0.09809 0.42313 0.71664 0.0
C1841 C 0.0786 0.40093 0.71057 0.0
C1842 C 0.07467 0.39722 0.69398 0.0
C1843 C 0.09054 0.41579 0.68364 0.0
C1844 C 0.10968 0.43747 0.68938 0.0
C1845 C 0.12466 0.45436 0.67594 0.0
C1846 C 0.12381 0.47831 0.67638 0.0
C1847 C 0.15117 0.4594 0.6764 0.0
C1848 C 0.11097 0.43889 0.66166 0.0
C1849 C 0.09124 0.41675 0.66624 0.0
C1850 C 0.07567 0.39979 0.65496 0.0
C1851 C 0.08041 0.40571 0.63861 0.0
C1852 C 0.10069 0.42828 0.63374 0.0
C1853 C 0.11611 0.4449 0.64552 0.0
H1854 H 0.59859 0.69416 0.70968 0.0
H1855 H 0.67209 0.70786 0.71893 0.0
H1856 H 0.67909 0.70809 0.68973 0.0
H1857 H 0.58544 0.65483 0.67546 0.0
H1858 H 0.56881 0.66723 0.66532 0.0
H1859 H 0.56962 0.66695 0.68684 0.0
H1860 H 0.58649 0.71379 0.68721 0.0
H1861 H 0.5859 0.71425 0.66571 0.0
H1862 H 0.61399 0.7337 0.67625 0.0
H1863 H 0.67747 0.70668 0.65889 0.0
H1864 H 0.66782 0.70501 0.62999 0.0
H1865 H 0.59624 0.6944 0.642 0.0
C1866 C 0.61611 0.69692 0.70565 0.0
C1867 C 0.63472 0.70077 0.71664 0.0
C1868 C 0.6575 0.70475 0.71075 0.0
C1869 C 0.66163 0.70492 0.69418 0.0
C1870 C 0.64289 0.7013 0.68369 0.0
C1871 C 0.62062 0.69747 0.68927 0.0
C1872 C 0.60366 0.69493 0.6757 0.0
C1873 C 0.58052 0.66947 0.67584 0.0
C1874 C 0.59714 0.71539 0.67626 0.0
C1875 C 0.6198 0.69794 0.66154 0.0
C1876 C 0.6423 0.7014 0.66628 0.0
C1877 C 0.65993 0.70409 0.6551 0.0
C1878 C 0.65431 0.70313 0.63871 0.0
C1879 C 0.63138 0.69982 0.63369 0.0
C1880 C 0.61407 0.69729 0.64536 0.0
H1881 H 0.36336 0.45705 0.71092 0.0
H1882 H 0.35467 0.38546 0.72026 0.0
H1883 H 0.35561 0.37894 0.69108 0.0
H1884 H 0.32447 0.43948 0.67677 0.0
H1885 H 0.34287 0.4681 0.66651 0.0
H1886 H 0.34246 0.46721 0.68802 0.0
H1887 H 0.38973 0.48712 0.68848 0.0
H1888 H 0.39029 0.4882 0.66696 0.0
H1889 H 0.40404 0.4731 0.67743 0.0
H1890 H 0.35817 0.38106 0.66028 0.0
H1891 H 0.36064 0.391 0.63139 0.0
H1892 H 0.36554 0.46026 0.64323 0.0
C1893 C 0.36186 0.44003 0.70691 0.0
C1894 C 0.35916 0.42184 0.71792 0.0
C1895 C 0.35686 0.39971 0.71206 0.0
C1896 C 0.35737 0.39586 0.69551 0.0
C1897 C 0.35994 0.41421 0.685 0.0
C1898 C 0.36201 0.43579 0.69054 0.0
C1899 C 0.36389 0.45246 0.67696 0.0
C1900 C 0.34212 0.45707 0.67708 0.0
C1901 C 0.38845 0.47664 0.67749 0.0
C1902 C 0.36264 0.43699 0.66282 0.0
C1903 C 0.36053 0.41504 0.66759 0.0
C1904 C 0.35968 0.39815 0.65645 0.0
C1905 C 0.36109 0.40394 0.64007 0.0
C1906 C 0.36306 0.4263 0.635 0.0
C1907 C 0.36373 0.44286 0.64663 0.0
H1908 H 0.6025 0.93652 0.71004 0.0
H1909 H 0.6762 0.99579 0.71939 0.0
H1910 H 0.68326 0.00276 0.69021 0.0
H1911 H 0.61764 0.9125 0.67627 0.0
H1912 H 0.58957 0.90426 0.66582 0.0
H1913 H 0.59023 0.90493 0.68734 0.0
H1914 H 0.57365 0.93517 0.68733 0.0
H1915 H 0.57279 0.93446 0.66582 0.0
H1916 H 0.5896 0.96328 0.67613 0.0
H1917 H 0.68156 0.00308 0.65943 0.0
H1918 H 0.67174 0.9959 0.63053 0.0
H1919 H 0.59996 0.93506 0.6423 0.0
C1920 C 0.6201 0.95117 0.70603 0.0
C1921 C 0.63873 0.96576 0.71704 0.0
C1922 C 0.6616 0.98444 0.71119 0.0
C1923 C 0.66576 0.98852 0.69463 0.0
C1924 C 0.64697 0.9736 0.68411 0.0
C1925 C 0.62463 0.95524 0.68965 0.0
C1926 C 0.60758 0.94115 0.67606 0.0
C1927 C 0.60087 0.91412 0.6764 0.0
C1928 C 0.58455 0.94368 0.67636 0.0
C1929 C 0.62372 0.95443 0.66192 0.0
C1930 C 0.64632 0.97321 0.66671 0.0
C1931 C 0.66395 0.98831 0.65559 0.0
C1932 C 0.65823 0.9841 0.6392 0.0
C1933 C 0.63518 0.96478 0.63411 0.0
C1934 C 0.61788 0.94979 0.64572 0.0
H1935 H 0.13275 0.69864 0.71034 0.0
H1936 H 0.07018 0.70766 0.72017 0.0
H1937 H 0.06304 0.70797 0.691 0.0
H1938 H 0.15466 0.73896 0.6769 0.0
H1939 H 0.16487 0.72086 0.66626 0.0
H1940 H 0.16413 0.7204 0.68777 0.0
H1941 H 0.13656 0.67316 0.68746 0.0
H1942 H 0.13735 0.67346 0.66595 0.0
H1943 H 0.10838 0.65945 0.67625 0.0
H1944 H 0.06291 0.70654 0.66006 0.0
H1945 H 0.07058 0.70484 0.63111 0.0
H1946 H 0.13451 0.69899 0.64275 0.0
C1947 C 0.11735 0.70045 0.70644 0.0
C1948 C 0.10186 0.70287 0.71758 0.0
C1949 C 0.08222 0.70565 0.71187 0.0
C1950 C 0.07805 0.70586 0.69532 0.0
C1951 C 0.09385 0.70356 0.68468 0.0
C1952 C 0.11318 0.70104 0.6901 0.0
C1953 C 0.12808 0.6996 0.67645 0.0
C1954 C 0.15449 0.72124 0.67688 0.0
C1955 C 0.12755 0.67495 0.67653 0.0
C1956 C 0.11409 0.70153 0.66239 0.0
C1957 C 0.09431 0.70367 0.66726 0.0
C1958 C 0.07846 0.70503 0.65617 0.0
C1959 C 0.08295 0.70407 0.63976 0.0
C1960 C 0.10327 0.70202 0.63461 0.0
C1961 C 0.11899 0.70089 0.64619 0.0
H1962 H 0.87704 0.09811 0.10211 0.0
H1963 H 0.82779 0.12337 0.11775 0.0
H1964 H 0.86294 0.16484 0.12159 0.0
H1965 H 0.92845 0.13731 0.12897 0.0
H1966 H 0.95121 0.1428 0.11402 0.0
H1967 H 0.92246 0.11442 0.11402 0.0
H1968 H 0.91503 0.12215 0.08466 0.0
H1969 H 0.94367 0.15054 0.08459 0.0
H1970 H 0.91575 0.15028 0.07957 0.0
H1971 H 0.90252 0.20401 0.12166 0.0
H1972 H 0.94429 0.2387 0.11795 0.0
H1973 H 0.96842 0.18857 0.10223 0.0
C1974 C 0.87371 0.11225 0.10665 0.0
C1975 C 0.84964 0.10744 0.1097 0.0
C1976 C 0.84603 0.12658 0.11533 0.0
C1977 C 0.8659 0.1502 0.11761 0.0
C1978 C 0.8893 0.15444 0.11422 0.0
C1979 C 0.89337 0.13603 0.10891 0.0
C1980 C 0.92023 0.14592 0.10516 0.0
C1981 C 0.93124 0.13443 0.11621 0.0
C1982 C 0.92387 0.14199 0.08745 0.0
C1983 C 0.93049 0.17282 0.1089 0.0
C1984 C 0.91233 0.17724 0.11423 0.0
C1985 C 0.91697 0.20077 0.11767 0.0
C1986 C 0.94077 0.22036 0.11547 0.0
C1987 C 0.95969 0.21638 0.10985 0.0
C1988 C 0.95446 0.1922 0.10674 0.0
H1989 H 0.93474 0.74832 0.10255 0.0
H1990 H 0.98408 0.82354 0.11677 0.0
H1991 H 0.94896 0.83001 0.1202 0.0
H1992 H 0.8957 0.76055 0.07945 0.0
H1993 H 0.86784 0.7332 0.08498 0.0
H1994 H 0.89647 0.73342 0.08527 0.0
H1995 H 0.88942 0.71984 0.11495 0.0
H1996 H 0.86067 0.71948 0.11474 0.0
H1997 H 0.88362 0.73752 0.1294 0.0
H1998 H 0.90945 0.82968 0.11989 0.0
H1999 H 0.86763 0.82243 0.11604 0.0
H2000 H 0.84332 0.74742 0.10207 0.0
C2001 C 0.9381 0.76599 0.1067 0.0
C2002 C 0.96218 0.78539 0.10945 0.0
C2003 C 0.96582 0.80838 0.11458 0.0
C2004 C 0.94598 0.81224 0.11662 0.0
C2005 C 0.92255 0.79292 0.11352 0.0
C2006 C 0.91844 0.77021 0.10873 0.0
C2007 C 0.89154 0.75308 0.10522 0.0
C2008 C 0.88767 0.74457 0.08769 0.0
C2009 C 0.88067 0.73118 0.11677 0.0
C2010 C 0.88132 0.76991 0.10844 0.0
C2011 C 0.89954 0.79273 0.11334 0.0
C2012 C 0.89495 0.8118 0.11624 0.0
C2013 C 0.87113 0.80751 0.11397 0.0
C2014 C 0.85214 0.78433 0.10882 0.0
C2015 C 0.85734 0.76523 0.10621 0.0
H2016 H 0.26068 0.10091 0.10444 0.0
H2017 H 0.33657 0.12697 0.11702 0.0
H2018 H 0.34296 0.16853 0.12091 0.0
H2019 H 0.27169 0.15212 0.08172 0.0
H2020 H 0.24438 0.15224 0.08789 0.0
H2021 H 0.24496 0.12402 0.08774 0.0
H2022 H 0.23249 0.11714 0.11762 0.0
H2023 H 0.2318 0.14536 0.11786 0.0
H2024 H 0.25056 0.14056 0.13201 0.0
H2025 H 0.34207 0.20766 0.12141 0.0
H2026 H 0.33415 0.24192 0.11821 0.0
H2027 H 0.25885 0.19068 0.10514 0.0
C2028 C 0.27853 0.11524 0.10831 0.0
C2029 C 0.2981 0.11063 0.11051 0.0
C2030 C 0.32129 0.13002 0.11529 0.0
C2031 C 0.32508 0.15369 0.11758 0.0
C2032 C 0.30552 0.15768 0.11506 0.0
C2033 C 0.28268 0.13901 0.11056 0.0
C2034 C 0.2652 0.14853 0.10761 0.0
C2035 C 0.25603 0.14396 0.09021 0.0
C2036 C 0.24374 0.13722 0.11949 0.0
C2037 C 0.28192 0.17555 0.11084 0.0
C2038 C 0.30503 0.18037 0.11526 0.0
C2039 C 0.32398 0.20409 0.11812 0.0
C2040 C 0.3193 0.22344 0.11623 0.0
C2041 C 0.29585 0.21902 0.11148 0.0
C2042 C 0.27687 0.19466 0.10898 0.0
H2043 H 0.2223 0.93289 0.91792 0.0
H2044 H 0.19642 0.98027 0.89944 0.0
H2045 H 0.15562 0.94437 0.89499 0.0
H2046 H 0.18504 0.87988 0.89132 0.0
H2047 H 0.17927 0.85795 0.90695 0.0
H2048 H 0.20737 0.88698 0.9069 0.0
H2049 H 0.19814 0.89552 0.93561 0.0
H2050 H 0.17005 0.86662 0.93573 0.0
H2051 H 0.16954 0.89446 0.93963 0.0
H2052 H 0.11698 0.90446 0.89488 0.0
H2053 H 0.08251 0.86282 0.89934 0.0
H2054 H 0.13275 0.84067 0.91804 0.0
C2055 C 0.2082 0.93563 0.9126 0.0
C2056 C 0.21261 0.9594 0.90894 0.0
C2057 C 0.19351 0.96226 0.90232 0.0
C2058 C 0.17028 0.94197 0.89968 0.0
C2059 C 0.16639 0.91887 0.90371 0.0
C2060 C 0.18478 0.91553 0.90998 0.0
C2061 C 0.17514 0.88893 0.91443 0.0
C2062 C 0.18744 0.87778 0.90429 0.0
C2063 C 0.17841 0.88624 0.93241 0.0
C2064 C 0.14835 0.87803 0.91006 0.0
C2065 C 0.14383 0.89562 0.90372 0.0
C2066 C 0.12032 0.89044 0.89963 0.0
C2067 C 0.10084 0.86672 0.90227 0.0
C2068 C 0.10491 0.84842 0.90898 0.0
C2069 C 0.12909 0.85414 0.91267 0.0
H2070 H 0.19176 0.25833 0.91732 0.0
H2071 H 0.2422 0.33408 0.90479 0.0
H2072 H 0.20736 0.34098 0.90087 0.0
H2073 H 0.14223 0.24892 0.88966 0.0
H2074 H 0.11855 0.23031 0.90377 0.0
H2075 H 0.14726 0.23059 0.90404 0.0
H2076 H 0.1529 0.24294 0.93394 0.0
H2077 H 0.12428 0.24275 0.93375 0.0
H2078 H 0.15187 0.26984 0.93998 0.0
H2079 H 0.16768 0.34067 0.90039 0.0
H2080 H 0.12571 0.33333 0.9036 0.0
H2081 H 0.10072 0.25777 0.91652 0.0
C2082 C 0.19547 0.27625 0.91346 0.0
C2083 C 0.21974 0.29564 0.91129 0.0
C2084 C 0.22379 0.31894 0.90651 0.0
C2085 C 0.20411 0.32302 0.9042 0.0
C2086 C 0.18047 0.30364 0.90669 0.0
C2087 C 0.17603 0.28069 0.91118 0.0
C2088 C 0.14897 0.26345 0.91409 0.0
C2089 C 0.13865 0.24205 0.90217 0.0
C2090 C 0.14424 0.25421 0.93147 0.0
C2091 C 0.13898 0.28045 0.91085 0.0
C2092 C 0.15746 0.30348 0.90647 0.0
C2093 C 0.15301 0.32266 0.90365 0.0
C2094 C 0.12909 0.3183 0.90555 0.0
C2095 C 0.10987 0.29495 0.91026 0.0
C2096 C 0.11492 0.27572 0.91271 0.0
H2097 H 0.74782 0.845 0.91659 0.0
H2098 H 0.82294 0.86894 0.90305 0.0
H2099 H 0.83066 0.91095 0.89947 0.0
H2100 H 0.739 0.88628 0.88938 0.0
H2101 H 0.72105 0.89177 0.9038 0.0
H2102 H 0.72056 0.86295 0.90374 0.0
H2103 H 0.73348 0.86909 0.93355 0.0
H2104 H 0.73411 0.89792 0.93368 0.0
H2105 H 0.76091 0.89656 0.93954 0.0
H2106 H 0.83153 0.95078 0.89962 0.0
H2107 H 0.82531 0.98606 0.90324 0.0
H2108 H 0.74963 0.93678 0.91657 0.0
C2109 C 0.76574 0.85898 0.91256 0.0
C2110 C 0.78475 0.85361 0.91005 0.0
C2111 C 0.80807 0.87255 0.90505 0.0
C2112 C 0.81264 0.89649 0.90293 0.0
C2113 C 0.79369 0.90126 0.90581 0.0
C2114 C 0.77067 0.88307 0.91044 0.0
C2115 C 0.75401 0.89349 0.9137 0.0
C2116 C 0.73238 0.883 0.90195 0.0
C2117 C 0.74512 0.889 0.93115 0.0
C2118 C 0.77147 0.92042 0.91053 0.0
C2119 C 0.79419 0.92443 0.90587 0.0
C2120 C 0.81373 0.94787 0.90307 0.0
C2121 C 0.81003 0.96781 0.90521 0.0
C2122 C 0.78696 0.96422 0.91012 0.0
C2123 C 0.76738 0.94013 0.91261 0.0
H2124 H 0.54363 0.43078 0.43702 0.0
H2125 H 0.49321 0.45428 0.45319 0.0
H2126 H 0.52772 0.49615 0.4569 0.0
H2127 H 0.59505 0.47096 0.46365 0.0
H2128 H 0.61774 0.47697 0.44854 0.0
H2129 H 0.5894 0.44819 0.44868 0.0
H2130 H 0.58119 0.45549 0.4194 0.0
H2131 H 0.60942 0.48428 0.41919 0.0
H2132 H 0.58104 0.48321 0.41438 0.0
H2133 H 0.56675 0.53597 0.45666 0.0
H2134 H 0.60806 0.57134 0.4526 0.0
H2135 H 0.63369 0.52252 0.43669 0.0
C2136 C 0.53991 0.44462 0.44165 0.0
C2137 C 0.51568 0.43919 0.44488 0.0
C2138 C 0.51157 0.45796 0.45064 0.0
C2139 C 0.53108 0.48181 0.45284 0.0
C2140 C 0.55464 0.48666 0.44927 0.0
C2141 C 0.5592 0.46863 0.44385 0.0
C2142 C 0.5861 0.47913 0.43993 0.0
C2143 C 0.59776 0.46816 0.45085 0.0
C2144 C 0.58963 0.4753 0.42217 0.0
C2145 C 0.5958 0.50595 0.44366 0.0
C2146 C 0.57734 0.50981 0.44914 0.0
C2147 C 0.58144 0.53316 0.45256 0.0
C2148 C 0.60496 0.55315 0.45016 0.0
C2149 C 0.62417 0.54973 0.4444 0.0
C2150 C 0.6195 0.52572 0.44133 0.0
H2151 H 0.6296 0.13812 0.43604 0.0
H2152 H 0.60396 0.0626 0.44943 0.0
H2153 H 0.56232 0.05605 0.4532 0.0
H2154 H 0.58986 0.14853 0.46335 0.0
H2155 H 0.58485 0.16689 0.44898 0.0
H2156 H 0.61317 0.16638 0.44883 0.0
H2157 H 0.60619 0.15327 0.41907 0.0
H2158 H 0.57787 0.15368 0.41913 0.0
H2159 H 0.57814 0.12633 0.41326 0.0
H2160 H 0.52307 0.05668 0.45354 0.0
H2161 H 0.48863 0.06429 0.45023 0.0
H2162 H 0.53947 0.1394 0.4365 0.0
C2163 C 0.61534 0.12032 0.44006 0.0
C2164 C 0.62009 0.1009 0.44252 0.0
C2165 C 0.60079 0.07778 0.44749 0.0
C2166 C 0.57708 0.07389 0.44972 0.0
C2167 C 0.57294 0.0933 0.44694 0.0
C2168 C 0.59151 0.11608 0.44225 0.0
C2169 C 0.58183 0.13338 0.43908 0.0
C2170 C 0.5931 0.15508 0.45076 0.0
C2171 C 0.58627 0.14217 0.4216 0.0
C2172 C 0.55484 0.1166 0.44242 0.0
C2173 C 0.55017 0.09363 0.44706 0.0
C2174 C 0.52651 0.07466 0.45007 0.0
C2175 C 0.50706 0.07917 0.44811 0.0
C2176 C 0.51131 0.10247 0.44315 0.0
C2177 C 0.53561 0.12148 0.44049 0.0
H2178 H 0.98423 0.46258 0.43661 0.0
H2179 H 0.90949 0.41238 0.4514 0.0
H2180 H 0.90259 0.44711 0.45543 0.0
H2181 H 0.99498 0.51326 0.46397 0.0
H2182 H 0.01249 0.53643 0.4493 0.0
H2183 H 0.01257 0.5079 0.4492 0.0
H2184 H 0.99836 0.50097 0.41965 0.0
H2185 H 0.99815 0.52939 0.41967 0.0
H2186 H 0.97089 0.50138 0.41425 0.0
H2187 H 0.9023 0.48634 0.45552 0.0
H2188 H 0.90883 0.52795 0.45187 0.0
H2189 H 0.98377 0.55332 0.43714 0.0
C2190 C 0.96659 0.45895 0.44103 0.0
C2191 C 0.94744 0.43472 0.44374 0.0
C2192 C 0.92447 0.43074 0.44923 0.0
C2193 C 0.92037 0.45037 0.45162 0.0
C2194 C 0.93942 0.47394 0.44852 0.0
C2195 C 0.96213 0.47839 0.44342 0.0
C2196 C 0.9789 0.50538 0.43995 0.0
C2197 C 1.00105 0.51639 0.45128 0.0
C2198 C 0.98704 0.50951 0.42233 0.0
C2199 C 0.96186 0.51525 0.44353 0.0
C2200 C 0.93926 0.49679 0.44859 0.0
C2201 C 0.92003 0.50103 0.45178 0.0
C2202 C 0.9239 0.52473 0.44962 0.0
C2203 C 0.94684 0.54396 0.4443 0.0
C2204 C 0.96614 0.53912 0.44144 0.0
H2205 H 0.79534 0.17381 0.24974 0.0
H2206 H 0.74698 0.1991 0.23221 0.0
H2207 H 0.78248 0.24022 0.22791 0.0
H2208 H 0.83352 0.2263 0.27172 0.0
H2209 H 0.86155 0.22633 0.26747 0.0
H2210 H 0.83285 0.19801 0.26729 0.0
H2211 H 0.84127 0.18958 0.23835 0.0
H2212 H 0.87008 0.21789 0.23845 0.0
H2213 H 0.84789 0.21215 0.22302 0.0
H2214 H 0.82209 0.27921 0.22794 0.0
H2215 H 0.86358 0.31397 0.23241 0.0
H2216 H 0.88693 0.26408 0.24998 0.0
C2217 C 0.7923 0.18786 0.24465 0.0
C2218 C 0.76836 0.18318 0.24123 0.0
C2219 C 0.76511 0.20221 0.23491 0.0
C2220 C 0.78518 0.22562 0.23236 0.0
C2221 C 0.80844 0.22977 0.23617 0.0
C2222 C 0.81217 0.21146 0.24213 0.0
C2223 C 0.83888 0.22135 0.24638 0.0
C2224 C 0.84186 0.21779 0.26428 0.0
C2225 C 0.8502 0.20954 0.23592 0.0
C2226 C 0.84941 0.24818 0.24227 0.0
C2227 C 0.83153 0.25253 0.23623 0.0
C2228 C 0.83634 0.27601 0.23245 0.0
C2229 C 0.85997 0.29566 0.23508 0.0
C2230 C 0.87857 0.29177 0.24147 0.0
C2231 C 0.87323 0.26762 0.24485 0.0
H2232 H 0.8876 0.65212 0.25118 0.0
H2233 H 0.86459 0.57918 0.23329 0.0
H2234 H 0.82309 0.57242 0.22874 0.0
H2235 H 0.83444 0.63616 0.27278 0.0
H2236 H 0.83357 0.66374 0.26856 0.0
H2237 H 0.86236 0.66428 0.26854 0.0
H2238 H 0.87083 0.68145 0.23966 0.0
H2239 H 0.84204 0.68104 0.23961 0.0
H2240 H 0.84864 0.66523 0.22419 0.0
H2241 H 0.78342 0.5717 0.22867 0.0
H2242 H 0.74782 0.57716 0.23299 0.0
H2243 H 0.79593 0.65059 0.25085 0.0
C2244 C 0.87398 0.63496 0.24595 0.0
C2245 C 0.8794 0.61622 0.24252 0.0
C2246 C 0.86091 0.59382 0.23601 0.0
C2247 C 0.83728 0.58982 0.23331 0.0
C2248 C 0.83238 0.60841 0.23714 0.0
C2249 C 0.85018 0.63059 0.24326 0.0
C2250 C 0.83953 0.64676 0.24747 0.0
C2251 C 0.84266 0.65309 0.2654 0.0
C2252 C 0.85094 0.67 0.23711 0.0
C2253 C 0.81287 0.62991 0.24319 0.0
C2254 C 0.80925 0.608 0.2371 0.0
C2255 C 0.78604 0.58891 0.2332 0.0
C2256 C 0.76591 0.59216 0.23577 0.0
C2257 C 0.76907 0.61434 0.24218 0.0
C2258 C 0.79295 0.63358 0.24569 0.0
H2259 H 0.46955 0.29562 0.24889 0.0
H2260 H 0.39317 0.27014 0.23819 0.0
H2261 H 0.3859 0.2282 0.23472 0.0
H2262 H 0.47719 0.25425 0.22135 0.0
H2263 H 0.49658 0.24973 0.23511 0.0
H2264 H 0.49639 0.27821 0.23512 0.0
H2265 H 0.48581 0.27284 0.26532 0.0
H2266 H 0.48589 0.24437 0.2654 0.0
H2267 H 0.45923 0.24527 0.27218 0.0
H2268 H 0.38606 0.1886 0.23462 0.0
H2269 H 0.39361 0.15408 0.23796 0.0
H2270 H 0.46988 0.2052 0.2488 0.0
C2271 C 0.4514 0.28133 0.2455 0.0
C2272 C 0.43195 0.28623 0.24374 0.0
C2273 C 0.40837 0.26688 0.23958 0.0
C2274 C 0.40407 0.24299 0.23754 0.0
C2275 C 0.42353 0.23872 0.23966 0.0
C2276 C 0.44675 0.25735 0.2435 0.0
C2277 C 0.46409 0.24759 0.24614 0.0
C2278 C 0.48478 0.25807 0.23368 0.0
C2279 C 0.47435 0.25283 0.26328 0.0
C2280 C 0.44686 0.22049 0.24351 0.0
C2281 C 0.4236 0.2158 0.23965 0.0
C2282 C 0.40426 0.19206 0.23746 0.0
C2283 C 0.40873 0.17256 0.23943 0.0
C2284 C 0.43236 0.17689 0.24359 0.0
C2285 C 0.45169 0.20126 0.24543 0.0
H2286 H 0.2708 0.8868 0.77018 0.0
H2287 H 0.32184 0.86218 0.78264 0.0
H2288 H 0.28733 0.82024 0.78633 0.0
H2289 H 0.22123 0.84588 0.79762 0.0
H2290 H 0.19757 0.84071 0.78346 0.0
H2291 H 0.22607 0.86935 0.78338 0.0
H2292 H 0.23212 0.86321 0.75344 0.0
H2293 H 0.20371 0.83459 0.75344 0.0
H2294 H 0.23155 0.83557 0.74724 0.0
H2295 H 0.24796 0.78062 0.78657 0.0
H2296 H 0.20627 0.7457 0.78305 0.0
H2297 H 0.18045 0.79571 0.77035 0.0
C2298 C 0.2747 0.8727 0.77398 0.0
C2299 C 0.29905 0.87783 0.7762 0.0
C2300 C 0.30337 0.85873 0.7809 0.0
C2301 C 0.28387 0.83485 0.78308 0.0
C2302 C 0.26014 0.83034 0.78055 0.0
C2303 C 0.25544 0.8487 0.77614 0.0
C2304 C 0.22836 0.83861 0.77315 0.0
C2305 C 0.21768 0.84927 0.78512 0.0
C2306 C 0.22367 0.84327 0.75579 0.0
C2307 C 0.21867 0.81163 0.77622 0.0
C2308 C 0.2373 0.80733 0.78063 0.0
C2309 C 0.23316 0.78377 0.7833 0.0
C2310 C 0.20939 0.76404 0.78123 0.0
C2311 C 0.19002 0.76793 0.77648 0.0
C2312 C 0.19476 0.79213 0.77419 0.0
H2313 H 0.26478 0.40456 0.76955 0.0
H2314 H 0.31354 0.47777 0.78749 0.0
H2315 H 0.27823 0.48368 0.79192 0.0
H2316 H 0.22711 0.41965 0.74773 0.0
H2317 H 0.19892 0.39175 0.75182 0.0
H2318 H 0.22747 0.39181 0.75201 0.0
H2319 H 0.21871 0.37452 0.78085 0.0
H2320 H 0.19004 0.37433 0.78074 0.0
H2321 H 0.21217 0.39038 0.79627 0.0
H2322 H 0.2388 0.4835 0.79187 0.0
H2323 H 0.19753 0.47731 0.78723 0.0
H2324 H 0.17372 0.40424 0.76927 0.0
C2325 C 0.26795 0.4216 0.77477 0.0
C2326 C 0.29193 0.44065 0.77826 0.0
C2327 C 0.29535 0.46289 0.78474 0.0
C2328 C 0.2754 0.4664 0.78737 0.0
C2329 C 0.25208 0.44749 0.78348 0.0
C2330 C 0.24819 0.42548 0.77738 0.0
C2331 C 0.22148 0.40894 0.77302 0.0
C2332 C 0.21859 0.40269 0.75508 0.0
C2333 C 0.20992 0.38566 0.78334 0.0
C2334 C 0.21116 0.42538 0.77722 0.0
C2335 C 0.22911 0.44742 0.78341 0.0
C2336 C 0.22449 0.4662 0.78726 0.0
C2337 C 0.20098 0.46252 0.78452 0.0
C2338 C 0.18233 0.44025 0.77796 0.0
C2339 C 0.18746 0.42131 0.77453 0.0
H2340 H 0.65089 0.79496 0.76976 0.0
H2341 H 0.57515 0.7448 0.78251 0.0
H2342 H 0.56824 0.77964 0.786 0.0
H2343 H 0.66012 0.84512 0.79702 0.0
H2344 H 0.67876 0.8685 0.78275 0.0
H2345 H 0.67857 0.83983 0.7829 0.0
H2346 H 0.6664 0.83357 0.75296 0.0
H2347 H 0.66644 0.86211 0.75273 0.0
H2348 H 0.63945 0.83432 0.74663 0.0
H2349 H 0.56832 0.81919 0.78572 0.0
H2350 H 0.57558 0.86107 0.78199 0.0
H2351 H 0.65128 0.8859 0.76953 0.0
C2352 C 0.63299 0.79134 0.77361 0.0
C2353 C 0.61359 0.76711 0.77591 0.0
C2354 C 0.59032 0.76316 0.78068 0.0
C2355 C 0.58621 0.78285 0.78275 0.0
C2356 C 0.60555 0.80642 0.78006 0.0
C2357 C 0.62853 0.8108 0.77568 0.0
C2358 C 0.64571 0.8378 0.77255 0.0
C2359 C 0.66705 0.84844 0.78452 0.0
C2360 C 0.65503 0.84219 0.75519 0.0
C2361 C 0.62861 0.84778 0.77547 0.0
C2362 C 0.6056 0.82938 0.77992 0.0
C2363 C 0.58634 0.83382 0.78245 0.0
C2364 C 0.59064 0.85768 0.78024 0.0
C2365 C 0.61403 0.87683 0.77554 0.0
C2366 C 0.63329 0.87176 0.77333 0.0
H2367 H 0.52055 0.63008 0.58291 0.0
H2368 H 0.57201 0.60618 0.57004 0.0
H2369 H 0.53782 0.56389 0.56716 0.0
H2370 H 0.48247 0.57909 0.60668 0.0
H2371 H 0.45426 0.57755 0.60073 0.0
H2372 H 0.48244 0.60639 0.60032 0.0
H2373 H 0.47547 0.61176 0.57041 0.0
H2374 H 0.44718 0.58293 0.57074 0.0
H2375 H 0.47054 0.58808 0.55635 0.0
H2376 H 0.49869 0.52388 0.56759 0.0
H2377 H 0.45711 0.48873 0.57121 0.0
H2378 H 0.43081 0.53835 0.58383 0.0
C2379 C 0.52461 0.61604 0.5792 0.0
C2380 C 0.549 0.62151 0.57664 0.0
C2381 C 0.55351 0.60249 0.57206 0.0
C2382 C 0.5342 0.5784 0.57035 0.0
C2383 C 0.51045 0.57358 0.57323 0.0
C2384 C 0.50554 0.59184 0.57751 0.0
C2385 C 0.47849 0.5815 0.58079 0.0
C2386 C 0.47417 0.58642 0.59816 0.0
C2387 C 0.46726 0.59167 0.56886 0.0
C2388 C 0.46905 0.55451 0.57796 0.0
C2389 C 0.48777 0.55039 0.57351 0.0
C2390 C 0.48382 0.52688 0.57092 0.0
C2391 C 0.46012 0.50702 0.57305 0.0
C2392 C 0.44063 0.51074 0.57776 0.0
C2393 C 0.44522 0.53488 0.58006 0.0
H2394 H 0.43496 0.92676 0.5817 0.0
H2395 H 0.46059 0.0035 0.57218 0.0
H2396 H 0.5027 0.011 0.5691 0.0
H2397 H 0.48491 0.93619 0.60534 0.0
H2398 H 0.4859 0.9098 0.59809 0.0
H2399 H 0.45744 0.90993 0.59804 0.0
H2400 H 0.45264 0.90057 0.56768 0.0
H2401 H 0.4811 0.90034 0.56764 0.0
H2402 H 0.47688 0.9203 0.55422 0.0
H2403 H 0.54241 0.0108 0.56902 0.0
H2404 H 0.5768 0.00294 0.57197 0.0
H2405 H 0.52531 0.92632 0.58154 0.0
C2406 C 0.44933 0.94507 0.57869 0.0
C2407 C 0.4444 0.96452 0.57712 0.0
C2408 C 0.46386 0.98828 0.57342 0.0
C2409 C 0.48785 0.99272 0.5716 0.0
C2410 C 0.49212 0.97322 0.57349 0.0
C2411 C 0.47339 0.94985 0.57689 0.0
C2412 C 0.48308 0.93239 0.57922 0.0
C2413 C 0.4775 0.92144 0.59618 0.0
C2414 C 0.47281 0.91221 0.56642 0.0
C2415 C 0.51023 0.94969 0.57688 0.0
C2416 C 0.51503 0.97312 0.57347 0.0
C2417 C 0.53885 0.99248 0.57153 0.0
C2418 C 0.55828 0.98783 0.57326 0.0
C2419 C 0.55381 0.964 0.57693 0.0
C2420 C 0.52938 0.94468 0.57856 0.0
H2421 H 0.14474 0.63203 0.58389 0.0
H2422 H 0.0689 0.60701 0.57172 0.0
H2423 H 0.06154 0.56503 0.56842 0.0
H2424 H 0.1533 0.59115 0.55672 0.0
H2425 H 0.17202 0.58615 0.57079 0.0
H2426 H 0.17195 0.61468 0.57089 0.0
H2427 H 0.16003 0.60852 0.60087 0.0
H2428 H 0.16001 0.57999 0.60086 0.0
H2429 H 0.13312 0.58081 0.60719 0.0
H2430 H 0.06154 0.52551 0.56819 0.0
H2431 H 0.0688 0.4908 0.57116 0.0
H2432 H 0.14464 0.54116 0.58358 0.0
C2433 C 0.12669 0.61781 0.58028 0.0
C2434 C 0.10742 0.62286 0.578 0.0
C2435 C 0.08396 0.60362 0.57352 0.0
C2436 C 0.0796 0.57971 0.57157 0.0
C2437 C 0.09888 0.57531 0.57413 0.0
C2438 C 0.12198 0.59379 0.57835 0.0
C2439 C 0.13912 0.58384 0.58125 0.0
C2440 C 0.16035 0.59459 0.56919 0.0
C2441 C 0.14862 0.58857 0.59857 0.0
C2442 C 0.12193 0.55683 0.57825 0.0
C2443 C 0.09886 0.55237 0.57404 0.0
C2444 C 0.07958 0.52878 0.57133 0.0
C2445 C 0.08389 0.50917 0.57309 0.0
C2446 C 0.10731 0.51322 0.57756 0.0
C2447 C 0.12661 0.53745 0.57998 0.0
loop_
_geom_bond_atom_site_label_1
_geom_bond_atom_site_label_2
_geom_bond_distance
_geom_bond_site_symmetry_2
_ccdc_geom_bond_type
O0 Cd1 2.223 . S
O0 C8 1.315 . S
Cd1 O0 2.223 . S
Cd1 O4 2.297 . S
Cd1 O5 2.439 . S
Cd1 O11 2.211 1_455 S
Cd2 O3 2.240 . S
Cd2 O10 2.223 1_455 S
Cd2 O12 2.297 1_455 S
Cd2 O13 2.439 . S
O3 Cd2 2.240 . S
O3 C8 1.279 . S
O4 Cd1 2.297 . S
O4 C6 1.247 . S
O5 Cd1 2.439 . S
O5 C6 1.208 . S
C6 O4 1.247 . S
C6 O5 1.208 . S
C7 O12 1.247 1_455 S
C7 O13 1.208 . S
C8 O0 1.315 . S
C8 O3 1.279 . S
C9 O10 1.315 . S
C9 O11 1.306 . S
O10 Cd2 2.223 1_655 S
O10 C9 1.315 . S
O11 Cd1 2.211 1_655 S
O11 C9 1.306 . S
O12 Cd2 2.297 1_655 S
O12 C7 1.247 1_655 S
O13 Cd2 2.439 . S
O13 C7 1.208 . S
O14 Cd15 2.223 . S
O14 C22 1.315 . S
Cd15 O14 2.223 . S
Cd15 O18 2.297 . S
Cd15 O19 2.439 . S
Cd15 O25 2.240 . S
Cd16 O17 2.240 . S
Cd16 O24 2.223 . S
Cd16 O26 2.297 . S
Cd16 O27 2.439 . S
O17 Cd16 2.240 . S
O17 C22 1.279 . S
O18 Cd15 2.297 . S
O18 C20 1.247 . S
O19 Cd15 2.439 . S
O19 C20 1.208 . S
C20 O18 1.247 . S
C20 O19 1.208 . S
C21 O26 1.247 . S
C21 O27 1.208 . S
C22 O14 1.315 . S
C22 O17 1.279 . S
C23 O24 1.315 . S
C23 O25 1.279 . S
O24 Cd16 2.223 . S
O24 C23 1.315 . S
O25 Cd15 2.240 . S
O25 C23 1.279 . S
O26 Cd16 2.297 . S
O26 C21 1.247 . S
O27 Cd16 2.439 . S
O27 C21 1.208 . S
O28 Cd29 2.223 . S
O28 C36 1.315 . S
Cd29 O28 2.223 . S
Cd29 O32 2.297 1_545 S
Cd29 O33 2.439 1_545 S
Cd29 O39 2.240 . S
Cd30 O31 2.240 . S
Cd30 O38 2.223 . S
Cd30 O40 2.297 . S
Cd30 O41 2.439 . S
O31 Cd30 2.240 . S
O31 C36 1.279 . S
O32 Cd29 2.297 1_565 S
O32 C34 1.247 . S
O33 Cd29 2.439 1_565 S
O33 C34 1.208 . S
C34 O32 1.247 . S
C34 O33 1.208 . S
C35 O40 1.247 . S
C35 O41 1.208 . S
C36 O28 1.315 . S
C36 O31 1.279 . S
C37 O38 1.315 . S
C37 O39 1.279 . S
O38 Cd30 2.223 . S
O38 C37 1.315 . S
O39 Cd29 2.240 . S
O39 C37 1.279 . S
O40 Cd30 2.297 . S
O40 C35 1.247 . S
O41 Cd30 2.439 . S
O41 C35 1.208 . S
O42 Cd43 2.223 . S
O42 C50 1.315 . S
Cd43 O42 2.223 . S
Cd43 O46 2.297 . S
Cd43 O47 2.439 . S
Cd43 O53 2.211 1_545 S
Cd44 O45 2.240 . S
Cd44 O52 2.223 1_545 S
Cd44 O54 2.297 1_545 S
Cd44 O55 2.439 . S
O45 Cd44 2.240 . S
O45 C50 1.279 . S
O46 Cd43 2.297 . S
O46 C48 1.247 . S
O47 Cd43 2.439 . S
O47 C48 1.208 . S
C48 O46 1.247 . S
C48 O47 1.208 . S
C49 O54 1.247 1_545 S
C49 O55 1.208 . S
C50 O42 1.315 . S
C50 O45 1.279 . S
C51 O52 1.315 . S
C51 O53 1.306 . S
O52 Cd44 2.223 1_565 S
O52 C51 1.315 . S
O53 Cd43 2.211 1_565 S
O53 C51 1.306 . S
O54 Cd44 2.297 1_565 S
O54 C49 1.247 1_565 S
O55 Cd44 2.439 . S
O55 C49 1.208 . S
O56 Cd57 2.223 . S
O56 C64 1.315 . S
Cd57 O56 2.223 . S
Cd57 O60 2.297 1_455 S
Cd57 O61 2.439 1_455 S
Cd57 O67 2.240 . S
Cd58 O59 2.240 . S
Cd58 O66 2.223 . S
Cd58 O68 2.297 . S
Cd58 O69 2.439 . S
O59 Cd58 2.240 . S
O59 C64 1.279 . S
O60 Cd57 2.297 1_655 S
O60 C62 1.247 . S
O61 Cd57 2.439 1_655 S
O61 C62 1.208 . S
C62 O60 1.247 . S
C62 O61 1.208 . S
C63 O68 1.247 . S
C63 O69 1.208 . S
C64 O56 1.315 . S
C64 O59 1.279 . S
C65 O66 1.315 . S
C65 O67 1.279 . S
O66 Cd58 2.223 . S
O66 C65 1.315 . S
O67 Cd57 2.240 . S
O67 C65 1.279 . S
O68 Cd58 2.297 . S
O68 C63 1.247 . S
O69 Cd58 2.439 . S
O69 C63 1.208 . S
O70 Cd71 2.223 . S
O70 C78 1.315 . S
Cd71 O70 2.223 . S
Cd71 O74 2.297 . S
Cd71 O75 2.439 . S
Cd71 O81 2.240 . S
Cd72 O73 2.240 . S
Cd72 O80 2.223 . S
Cd72 O82 2.297 . S
Cd72 O83 2.439 . S
O73 Cd72 2.240 . S
O73 C78 1.279 . S
O74 Cd71 2.297 . S
O74 C76 1.247 . S
O75 Cd71 2.439 . S
O75 C76 1.208 . S
C76 O74 1.247 . S
C76 O75 1.208 . S
C77 O82 1.247 . S
C77 O83 1.208 . S
C78 O70 1.315 . S
C78 O73 1.279 . S
C79 O80 1.315 . S
C79 O81 1.279 . S
O80 Cd72 2.223 . S
O80 C79 1.315 . S
O81 Cd71 2.240 . S
O81 C79 1.279 . S
O82 Cd72 2.297 . S
O82 C77 1.247 . S
O83 Cd72 2.439 . S
O83 C77 1.208 . S
O84 Cd85 2.223 . S
O84 C92 1.315 . S
Cd85 O84 2.223 . S
Cd85 O88 2.297 1_455 S
Cd85 O89 2.439 1_455 S
Cd85 O95 2.240 . S
Cd86 O87 2.240 . S
Cd86 O94 2.223 . S
Cd86 O96 2.297 . S
Cd86 O97 2.439 . S
O87 Cd86 2.240 . S
O87 C92 1.279 . S
O88 Cd85 2.297 1_655 S
O88 C90 1.247 . S
O89 Cd85 2.439 1_655 S
O89 C90 1.208 . S
C90 O88 1.247 . S
C90 O89 1.208 . S
C91 O96 1.247 . S
C91 O97 1.208 . S
C92 O84 1.315 . S
C92 O87 1.279 . S
C93 O94 1.315 . S
C93 O95 1.279 . S
O94 Cd86 2.223 . S
O94 C93 1.315 . S
O95 Cd85 2.240 . S
O95 C93 1.279 . S
O96 Cd86 2.297 . S
O96 C91 1.247 . S
O97 Cd86 2.439 . S
O97 C91 1.208 . S
O98 Cd99 2.223 . S
O98 C106 1.315 . S
Cd99 O98 2.223 . S
Cd99 O102 2.297 . S
Cd99 O103 2.439 . S
Cd99 O109 2.240 . S
Cd100 O101 2.240 . S
Cd100 O108 2.223 . S
Cd100 O110 2.297 . S
Cd100 O111 2.439 . S
O101 Cd100 2.240 . S
O101 C106 1.279 . S
O102 Cd99 2.297 . S
O102 C104 1.247 . S
O103 Cd99 2.439 . S
O103 C104 1.208 . S
C104 O102 1.247 . S
C104 O103 1.208 . S
C105 O110 1.247 . S
C105 O111 1.208 . S
C106 O98 1.315 . S
C106 O101 1.279 . S
C107 O108 1.315 . S
C107 O109 1.279 . S
O108 Cd100 2.223 . S
O108 C107 1.315 . S
O109 Cd99 2.240 . S
O109 C107 1.279 . S
O110 Cd100 2.297 . S
O110 C105 1.247 . S
O111 Cd100 2.439 . S
O111 C105 1.208 . S
O112 Cd113 2.223 . S
O112 C120 1.315 . S
Cd113 O112 2.223 . S
Cd113 O116 2.297 . S
Cd113 O117 2.439 . S
Cd113 O123 2.223 1_545 S
Cd114 O115 2.240 . S
Cd114 O122 2.223 1_545 S
Cd114 O124 2.297 1_545 S
Cd114 O125 2.439 . S
O115 Cd114 2.240 . S
O115 C120 1.279 . S
O116 Cd113 2.297 . S
O116 C118 1.247 . S
O117 Cd113 2.439 . S
O117 C118 1.208 . S
C118 O116 1.247 . S
C118 O117 1.208 . S
C119 O124 1.247 1_545 S
C119 O125 1.208 . S
C120 O112 1.315 . S
C120 O115 1.279 . S
C121 O122 1.315 . S
C121 O123 1.298 . S
O122 Cd114 2.223 1_565 S
O122 C121 1.315 . S
O123 Cd113 2.223 1_565 S
O123 C121 1.298 . S
O124 Cd114 2.297 1_565 S
O124 C119 1.247 1_565 S
O125 Cd114 2.439 . S
O125 C119 1.208 . S
O126 Cd127 2.223 . S
O126 C134 1.315 . S
Cd127 O126 2.223 . S
Cd127 O130 2.297 1_545 S
Cd127 O131 2.439 1_545 S
Cd127 O137 2.240 . S
Cd128 O129 2.240 . S
Cd128 O136 2.223 . S
Cd128 O138 2.297 . S
Cd128 O139 2.439 . S
O129 Cd128 2.240 . S
O129 C134 1.279 . S
O130 Cd127 2.297 1_565 S
O130 C132 1.247 . S
O131 Cd127 2.439 1_565 S
O131 C132 1.208 . S
C132 O130 1.247 . S
C132 O131 1.208 . S
C133 O138 1.247 . S
C133 O139 1.208 . S
C134 O126 1.315 . S
C134 O129 1.279 . S
C135 O136 1.315 . S
C135 O137 1.279 . S
O136 Cd128 2.223 . S
O136 C135 1.315 . S
O137 Cd127 2.240 . S
O137 C135 1.279 . S
O138 Cd128 2.297 . S
O138 C133 1.247 . S
O139 Cd128 2.439 . S
O139 C133 1.208 . S
O140 Cd141 2.223 . S
O140 C148 1.315 . S
Cd141 O140 2.223 . S
Cd141 O144 2.297 . S
Cd141 O145 2.439 . S
Cd141 O151 2.223 1_455 S
Cd142 O143 2.240 . S
Cd142 O150 2.223 1_455 S
Cd142 O152 2.297 1_455 S
Cd142 O153 2.439 . S
O143 Cd142 2.240 . S
O143 C148 1.279 . S
O144 Cd141 2.297 . S
O144 C146 1.247 . S
O145 Cd141 2.439 . S
O145 C146 1.208 . S
C146 O144 1.247 . S
C146 O145 1.208 . S
C147 O152 1.247 1_455 S
C147 O153 1.208 . S
C148 O140 1.315 . S
C148 O143 1.279 . S
C149 O150 1.315 . S
C149 O151 1.298 . S
O150 Cd142 2.223 1_655 S
O150 C149 1.315 . S
O151 Cd141 2.223 1_655 S
O151 C149 1.298 . S
O152 Cd142 2.297 1_655 S
O152 C147 1.247 1_655 S
O153 Cd142 2.439 . S
O153 C147 1.208 . S
O154 Cd155 2.223 . S
O154 C162 1.315 . S
Cd155 O154 2.223 . S
Cd155 O158 2.297 . S
Cd155 O159 2.439 . S
Cd155 O165 2.240 . S
Cd156 O157 2.240 . S
Cd156 O164 2.223 . S
Cd156 O166 2.297 . S
Cd156 O167 2.439 . S
O157 Cd156 2.240 . S
O157 C162 1.279 . S
O158 Cd155 2.297 . S
O158 C160 1.247 . S
O159 Cd155 2.439 . S
O159 C160 1.208 . S
C160 O158 1.247 . S
C160 O159 1.208 . S
C161 O166 1.247 . S
C161 O167 1.208 . S
C162 O154 1.315 . S
C162 O157 1.279 . S
C163 O164 1.315 . S
C163 O165 1.279 . S
O164 Cd156 2.223 . S
O164 C163 1.315 . S
O165 Cd155 2.240 . S
O165 C163 1.279 . S
O166 Cd156 2.297 . S
O166 C161 1.247 . S
O167 Cd156 2.439 . S
O167 C161 1.208 . S
O168 Cd169 2.223 . S
O168 C176 1.315 . S
Cd169 O168 2.223 . S
Cd169 O172 2.297 . S
Cd169 O173 2.439 . S
Cd169 O179 2.240 . S
Cd170 O171 2.240 . S
Cd170 O178 2.223 . S
Cd170 O180 2.297 . S
Cd170 O181 2.439 . S
O171 Cd170 2.240 . S
O171 C176 1.279 . S
O172 Cd169 2.297 . S
O172 C174 1.247 . S
O173 Cd169 2.439 . S
O173 C174 1.208 . S
C174 O172 1.247 . S
C174 O173 1.208 . S
C175 O180 1.247 . S
C175 O181 1.208 . S
C176 O168 1.315 . S
C176 O171 1.279 . S
C177 O178 1.315 . S
C177 O179 1.279 . S
O178 Cd170 2.223 . S
O178 C177 1.315 . S
O179 Cd169 2.240 . S
O179 C177 1.279 . S
O180 Cd170 2.297 . S
O180 C175 1.247 . S
O181 Cd170 2.439 . S
O181 C175 1.208 . S
O182 Cd183 2.223 . S
O182 C190 1.315 . S
Cd183 O182 2.223 . S
Cd183 O186 2.297 . S
Cd183 O187 2.439 . S
Cd183 O193 2.240 . S
Cd184 O185 2.240 . S
Cd184 O192 2.223 . S
Cd184 O194 2.297 . S
Cd184 O195 2.439 . S
O185 Cd184 2.240 . S
O185 C190 1.279 . S
O186 Cd183 2.297 . S
O186 C188 1.247 . S
O187 Cd183 2.439 . S
O187 C188 1.208 . S
C188 O186 1.247 . S
C188 O187 1.208 . S
C189 O194 1.247 . S
C189 O195 1.208 . S
C190 O182 1.315 . S
C190 O185 1.279 . S
C191 O192 1.315 . S
C191 O193 1.279 . S
O192 Cd184 2.223 . S
O192 C191 1.315 . S
O193 Cd183 2.240 . S
O193 C191 1.279 . S
O194 Cd184 2.297 . S
O194 C189 1.247 . S
O195 Cd184 2.439 . S
O195 C189 1.208 . S
O196 Cd197 2.223 . S
O196 C204 1.315 . S
Cd197 O196 2.223 . S
Cd197 O200 2.297 . S
Cd197 O201 2.439 . S
Cd197 O207 2.240 . S
Cd198 O199 2.240 . S
Cd198 O206 2.223 . S
Cd198 O208 2.297 1_655 S
Cd198 O209 2.439 . S
O199 Cd198 2.240 . S
O199 C204 1.279 . S
O200 Cd197 2.297 . S
O200 C202 1.247 . S
O201 Cd197 2.439 . S
O201 C202 1.208 . S
C202 O200 1.247 . S
C202 O201 1.208 . S
C203 O208 1.247 1_655 S
C203 O209 1.208 . S
C204 O196 1.315 . S
C204 O199 1.279 . S
C205 O206 1.315 . S
C205 O207 1.279 . S
O206 Cd198 2.223 . S
O206 C205 1.315 . S
O207 Cd197 2.240 . S
O207 C205 1.279 . S
O208 Cd198 2.297 1_455 S
O208 C203 1.247 1_455 S
O209 Cd198 2.439 . S
O209 C203 1.208 . S
O210 Cd211 2.223 . S
O210 C218 1.315 . S
Cd211 O210 2.223 . S
Cd211 O214 2.297 . S
Cd211 O215 2.439 . S
Cd211 O221 2.240 . S
Cd212 O213 2.240 . S
Cd212 O220 2.223 . S
Cd212 O222 2.297 . S
Cd212 O223 2.439 . S
O213 Cd212 2.240 . S
O213 C218 1.279 . S
O214 Cd211 2.297 . S
O214 C216 1.247 . S
O215 Cd211 2.439 . S
O215 C216 1.208 . S
C216 O214 1.247 . S
C216 O215 1.208 . S
C217 O222 1.247 . S
C217 O223 1.208 . S
C218 O210 1.315 . S
C218 O213 1.279 . S
C219 O220 1.315 . S
C219 O221 1.279 . S
O220 Cd212 2.223 . S
O220 C219 1.315 . S
O221 Cd211 2.240 . S
O221 C219 1.279 . S
O222 Cd212 2.297 . S
O222 C217 1.247 . S
O223 Cd212 2.439 . S
O223 C217 1.208 . S
O224 Cd225 2.223 . S
O224 C232 1.315 . S
Cd225 O224 2.223 . S
Cd225 O228 2.297 . S
Cd225 O229 2.439 . S
Cd225 O235 2.240 . S
Cd226 O227 2.240 . S
Cd226 O234 2.223 . S
Cd226 O236 2.297 . S
Cd226 O237 2.439 . S
O227 Cd226 2.240 . S
O227 C232 1.279 . S
O228 Cd225 2.297 . S
O228 C230 1.247 . S
O229 Cd225 2.439 . S
O229 C230 1.208 . S
C230 O228 1.247 . S
C230 O229 1.208 . S
C231 O236 1.247 . S
C231 O237 1.208 . S
C232 O224 1.315 . S
C232 O227 1.279 . S
C233 O234 1.315 . S
C233 O235 1.279 . S
O234 Cd226 2.223 . S
O234 C233 1.315 . S
O235 Cd225 2.240 . S
O235 C233 1.279 . S
O236 Cd226 2.297 . S
O236 C231 1.247 . S
O237 Cd226 2.439 . S
O237 C231 1.208 . S
O238 Cd239 2.223 . S
O238 C246 1.315 . S
Cd239 O238 2.223 . S
Cd239 O242 2.297 . S
Cd239 O243 2.439 . S
Cd239 O249 2.240 . S
Cd240 O241 2.240 . S
Cd240 O248 2.223 . S
Cd240 O250 2.297 . S
Cd240 O251 2.439 . S
O241 Cd240 2.240 . S
O241 C246 1.279 . S
O242 Cd239 2.297 . S
O242 C244 1.247 . S
O243 Cd239 2.439 . S
O243 C244 1.208 . S
C244 O242 1.247 . S
C244 O243 1.208 . S
C245 O250 1.247 . S
C245 O251 1.208 . S
C246 O238 1.315 . S
C246 O241 1.279 . S
C247 O248 1.315 . S
C247 O249 1.279 . S
O248 Cd240 2.223 . S
O248 C247 1.315 . S
O249 Cd239 2.240 . S
O249 C247 1.279 . S
O250 Cd240 2.297 . S
O250 C245 1.247 . S
O251 Cd240 2.439 . S
O251 C245 1.208 . S
O252 Cd253 2.223 . S
O252 C260 1.315 . S
Cd253 O252 2.223 . S
Cd253 O256 2.297 . S
Cd253 O257 2.439 . S
Cd253 O263 2.240 . S
Cd254 O255 2.240 . S
Cd254 O262 2.223 . S
Cd254 O264 2.297 . S
Cd254 O265 2.439 . S
O255 Cd254 2.240 . S
O255 C260 1.279 . S
O256 Cd253 2.297 . S
O256 C258 1.247 . S
O257 Cd253 2.439 . S
O257 C258 1.208 . S
C258 O256 1.247 . S
C258 O257 1.208 . S
C259 O264 1.247 . S
C259 O265 1.208 . S
C260 O252 1.315 . S
C260 O255 1.279 . S
C261 O262 1.315 . S
C261 O263 1.279 . S
O262 Cd254 2.223 . S
O262 C261 1.315 . S
O263 Cd253 2.240 . S
O263 C261 1.279 . S
O264 Cd254 2.297 . S
O264 C259 1.247 . S
O265 Cd254 2.439 . S
O265 C259 1.208 . S
O266 Cd267 2.223 . S
O266 C274 1.315 . S
Cd267 O266 2.223 . S
Cd267 O270 2.297 . S
Cd267 O271 2.439 . S
Cd267 O277 2.240 . S
Cd268 O269 2.240 . S
Cd268 O276 2.223 . S
Cd268 O278 2.297 . S
Cd268 O279 2.439 . S
O269 Cd268 2.240 . S
O269 C274 1.279 . S
O270 Cd267 2.297 . S
O270 C272 1.247 . S
O271 Cd267 2.439 . S
O271 C272 1.208 . S
C272 O270 1.247 . S
C272 O271 1.208 . S
C273 O278 1.247 . S
C273 O279 1.208 . S
C274 O266 1.315 . S
C274 O269 1.279 . S
C275 O276 1.315 . S
C275 O277 1.279 . S
O276 Cd268 2.223 . S
O276 C275 1.315 . S
O277 Cd267 2.240 . S
O277 C275 1.279 . S
O278 Cd268 2.297 . S
O278 C273 1.247 . S
O279 Cd268 2.439 . S
O279 C273 1.208 . S
O280 Cd281 2.223 . S
O280 C288 1.315 . S
Cd281 O280 2.223 . S
Cd281 O284 2.297 . S
Cd281 O285 2.439 . S
Cd281 O291 2.240 . S
Cd282 O283 2.240 . S
Cd282 O290 2.223 . S
Cd282 O292 2.297 . S
Cd282 O293 2.439 . S
O283 Cd282 2.240 . S
O283 C288 1.279 . S
O284 Cd281 2.297 . S
O284 C286 1.247 . S
O285 Cd281 2.439 . S
O285 C286 1.208 . S
C286 O284 1.247 . S
C286 O285 1.208 . S
C287 O292 1.247 . S
C287 O293 1.208 . S
C288 O280 1.315 . S
C288 O283 1.279 . S
C289 O290 1.315 . S
C289 O291 1.279 . S
O290 Cd282 2.223 . S
O290 C289 1.315 . S
O291 Cd281 2.240 . S
O291 C289 1.279 . S
O292 Cd282 2.297 . S
O292 C287 1.247 . S
O293 Cd282 2.439 . S
O293 C287 1.208 . S
O294 Cd295 2.223 . S
O294 C302 1.315 . S
Cd295 O294 2.223 . S
Cd295 O298 2.297 . S
Cd295 O299 2.439 . S
Cd295 O305 2.240 . S
Cd296 O297 2.240 . S
Cd296 O304 2.223 . S
Cd296 O306 2.297 . S
Cd296 O307 2.439 . S
O297 Cd296 2.240 . S
O297 C302 1.279 . S
O298 Cd295 2.297 . S
O298 C300 1.247 . S
O299 Cd295 2.439 . S
O299 C300 1.208 . S
C300 O298 1.247 . S
C300 O299 1.208 . S
C301 O306 1.247 . S
C301 O307 1.208 . S
C302 O294 1.315 . S
C302 O297 1.279 . S
C303 O304 1.315 . S
C303 O305 1.279 . S
O304 Cd296 2.223 . S
O304 C303 1.315 . S
O305 Cd295 2.240 . S
O305 C303 1.279 . S
O306 Cd296 2.297 . S
O306 C301 1.247 . S
O307 Cd296 2.439 . S
O307 C301 1.208 . S
O308 Cd309 2.223 . S
O308 C316 1.315 . S
Cd309 O308 2.223 . S
Cd309 O312 2.297 . S
Cd309 O313 2.439 . S
Cd309 O319 2.240 . S
Cd310 O311 2.240 . S
Cd310 O318 2.223 . S
Cd310 O320 2.297 . S
Cd310 O321 2.439 . S
O311 Cd310 2.240 . S
O311 C316 1.279 . S
O312 Cd309 2.297 . S
O312 C314 1.247 . S
O313 Cd309 2.439 . S
O313 C314 1.208 . S
C314 O312 1.247 . S
C314 O313 1.208 . S
C315 O320 1.247 . S
C315 O321 1.208 . S
C316 O308 1.315 . S
C316 O311 1.279 . S
C317 O318 1.315 . S
C317 O319 1.279 . S
O318 Cd310 2.223 . S
O318 C317 1.315 . S
O319 Cd309 2.240 . S
O319 C317 1.279 . S
O320 Cd310 2.297 . S
O320 C315 1.247 . S
O321 Cd310 2.439 . S
O321 C315 1.208 . S
O322 Cd323 2.223 . S
O322 C330 1.315 . S
Cd323 O322 2.223 . S
Cd323 O326 2.297 . S
Cd323 O327 2.439 . S
Cd323 O333 2.240 . S
Cd324 O325 2.240 . S
Cd324 O332 2.223 . S
Cd324 O334 2.297 1_655 S
Cd324 O335 2.439 . S
O325 Cd324 2.240 . S
O325 C330 1.279 . S
O326 Cd323 2.297 . S
O326 C328 1.247 . S
O327 Cd323 2.439 . S
O327 C328 1.208 . S
C328 O326 1.247 . S
C328 O327 1.208 . S
C329 O334 1.247 1_655 S
C329 O335 1.208 . S
C330 O322 1.315 . S
C330 O325 1.279 . S
C331 O332 1.315 . S
C331 O333 1.279 . S
O332 Cd324 2.223 . S
O332 C331 1.315 . S
O333 Cd323 2.240 . S
O333 C331 1.279 . S
O334 Cd324 2.297 1_455 S
O334 C329 1.247 1_455 S
O335 Cd324 2.439 . S
O335 C329 1.208 . S
O336 Cd337 2.223 . S
O336 C344 1.315 . S
Cd337 O336 2.223 . S
Cd337 O340 2.297 . S
Cd337 O341 2.439 . S
Cd337 O347 2.240 . S
Cd338 O339 2.240 . S
Cd338 O346 2.223 . S
Cd338 O348 2.297 . S
Cd338 O349 2.439 . S
O339 Cd338 2.240 . S
O339 C344 1.279 . S
O340 Cd337 2.297 . S
O340 C342 1.247 . S
O341 Cd337 2.439 . S
O341 C342 1.208 . S
C342 O340 1.247 . S
C342 O341 1.208 . S
C343 O348 1.247 . S
C343 O349 1.208 . S
C344 O336 1.315 . S
C344 O339 1.279 . S
C345 O346 1.315 . S
C345 O347 1.279 . S
O346 Cd338 2.223 . S
O346 C345 1.315 . S
O347 Cd337 2.240 . S
O347 C345 1.279 . S
O348 Cd338 2.297 . S
O348 C343 1.247 . S
O349 Cd338 2.439 . S
O349 C343 1.208 . S
O350 Cd351 2.223 . S
O350 C358 1.315 . S
Cd351 O350 2.223 . S
Cd351 O354 2.297 . S
Cd351 O355 2.439 . S
Cd351 O361 2.240 . S
Cd352 O353 2.240 . S
Cd352 O360 2.223 . S
Cd352 O362 2.297 . S
Cd352 O363 2.439 . S
O353 Cd352 2.240 . S
O353 C358 1.279 . S
O354 Cd351 2.297 . S
O354 C356 1.247 . S
O355 Cd351 2.439 . S
O355 C356 1.208 . S
C356 O354 1.247 . S
C356 O355 1.208 . S
C357 O362 1.247 . S
C357 O363 1.208 . S
C358 O350 1.315 . S
C358 O353 1.279 . S
C359 O360 1.315 . S
C359 O361 1.279 . S
O360 Cd352 2.223 . S
O360 C359 1.315 . S
O361 Cd351 2.240 . S
O361 C359 1.279 . S
O362 Cd352 2.297 . S
O362 C357 1.247 . S
O363 Cd352 2.439 . S
O363 C357 1.208 . S
O364 Cd365 2.223 . S
O364 C372 1.315 . S
Cd365 O364 2.223 . S
Cd365 O368 2.297 . S
Cd365 O369 2.439 . S
Cd365 O375 2.240 . S
Cd366 O367 2.240 . S
Cd366 O374 2.223 . S
Cd366 O376 2.297 . S
Cd366 O377 2.439 . S
O367 Cd366 2.240 . S
O367 C372 1.279 . S
O368 Cd365 2.297 . S
O368 C370 1.247 . S
O369 Cd365 2.439 . S
O369 C370 1.208 . S
C370 O368 1.247 . S
C370 O369 1.208 . S
C371 O376 1.247 . S
C371 O377 1.208 . S
C372 O364 1.315 . S
C372 O367 1.279 . S
C373 O374 1.315 . S
C373 O375 1.279 . S
O374 Cd366 2.223 . S
O374 C373 1.315 . S
O375 Cd365 2.240 . S
O375 C373 1.279 . S
O376 Cd366 2.297 . S
O376 C371 1.247 . S
O377 Cd366 2.439 . S
O377 C371 1.208 . S
O378 Cd379 2.223 . S
O378 C386 1.315 . S
Cd379 O378 2.223 . S
Cd379 O382 2.297 . S
Cd379 O383 2.439 . S
Cd379 O389 2.240 . S
Cd380 O381 2.240 . S
Cd380 O388 2.223 . S
Cd380 O390 2.297 . S
Cd380 O391 2.439 . S
O381 Cd380 2.240 . S
O381 C386 1.279 . S
O382 Cd379 2.297 . S
O382 C384 1.247 . S
O383 Cd379 2.439 . S
O383 C384 1.208 . S
C384 O382 1.247 . S
C384 O383 1.208 . S
C385 O390 1.247 . S
C385 O391 1.208 . S
C386 O378 1.315 . S
C386 O381 1.279 . S
C387 O388 1.315 . S
C387 O389 1.279 . S
O388 Cd380 2.223 . S
O388 C387 1.315 . S
O389 Cd379 2.240 . S
O389 C387 1.279 . S
O390 Cd380 2.297 . S
O390 C385 1.247 . S
O391 Cd380 2.439 . S
O391 C385 1.208 . S
O392 Cd393 2.223 . S
O392 C400 1.315 . S
Cd393 O392 2.223 . S
Cd393 O396 2.297 . S
Cd393 O397 2.439 . S
Cd393 O403 2.240 . S
Cd394 O395 2.240 . S
Cd394 O402 2.223 . S
Cd394 O404 2.297 1_565 S
Cd394 O405 2.439 . S
O395 Cd394 2.240 . S
O395 C400 1.279 . S
O396 Cd393 2.297 . S
O396 C398 1.247 . S
O397 Cd393 2.439 . S
O397 C398 1.208 . S
C398 O396 1.247 . S
C398 O397 1.208 . S
C399 O404 1.247 1_565 S
C399 O405 1.208 . S
C400 O392 1.315 . S
C400 O395 1.279 . S
C401 O402 1.315 . S
C401 O403 1.279 . S
O402 Cd394 2.223 . S
O402 C401 1.315 . S
O403 Cd393 2.240 . S
O403 C401 1.279 . S
O404 Cd394 2.297 1_545 S
O404 C399 1.247 1_545 S
O405 Cd394 2.439 . S
O405 C399 1.208 . S
O406 Cd407 2.223 . S
O406 C414 1.315 . S
Cd407 O406 2.223 . S
Cd407 O410 2.297 . S
Cd407 O411 2.439 . S
Cd407 O417 2.240 . S
Cd408 O409 2.240 . S
Cd408 O416 2.223 . S
Cd408 O418 2.297 . S
Cd408 O419 2.439 . S
O409 Cd408 2.240 . S
O409 C414 1.279 . S
O410 Cd407 2.297 . S
O410 C412 1.247 . S
O411 Cd407 2.439 . S
O411 C412 1.208 . S
C412 O410 1.247 . S
C412 O411 1.208 . S
C413 O418 1.247 . S
C413 O419 1.208 . S
C414 O406 1.315 . S
C414 O409 1.279 . S
C415 O416 1.315 . S
C415 O417 1.279 . S
O416 Cd408 2.223 . S
O416 C415 1.315 . S
O417 Cd407 2.240 . S
O417 C415 1.279 . S
O418 Cd408 2.297 . S
O418 C413 1.247 . S
O419 Cd408 2.439 . S
O419 C413 1.208 . S
O420 Cd421 2.223 . S
O420 C428 1.315 . S
Cd421 O420 2.223 . S
Cd421 O424 2.297 . S
Cd421 O425 2.439 . S
Cd421 O431 2.240 . S
Cd422 O423 2.240 . S
Cd422 O430 2.223 . S
Cd422 O432 2.297 . S
Cd422 O433 2.439 . S
O423 Cd422 2.240 . S
O423 C428 1.279 . S
O424 Cd421 2.297 . S
O424 C426 1.247 . S
O425 Cd421 2.439 . S
O425 C426 1.208 . S
C426 O424 1.247 . S
C426 O425 1.208 . S
C427 O432 1.247 . S
C427 O433 1.208 . S
C428 O420 1.315 . S
C428 O423 1.279 . S
C429 O430 1.315 . S
C429 O431 1.279 . S
O430 Cd422 2.223 . S
O430 C429 1.315 . S
O431 Cd421 2.240 . S
O431 C429 1.279 . S
O432 Cd422 2.297 . S
O432 C427 1.247 . S
O433 Cd422 2.439 . S
O433 C427 1.208 . S
O434 Cd435 2.223 . S
O434 C442 1.315 . S
Cd435 O434 2.223 . S
Cd435 O438 2.297 . S
Cd435 O439 2.439 . S
Cd435 O445 2.240 . S
Cd436 O437 2.240 . S
Cd436 O444 2.223 . S
Cd436 O446 2.297 1_565 S
Cd436 O447 2.439 . S
O437 Cd436 2.240 . S
O437 C442 1.279 . S
O438 Cd435 2.297 . S
O438 C440 1.247 . S
O439 Cd435 2.439 . S
O439 C440 1.208 . S
C440 O438 1.247 . S
C440 O439 1.208 . S
C441 O446 1.247 1_565 S
C441 O447 1.208 . S
C442 O434 1.315 . S
C442 O437 1.279 . S
C443 O444 1.315 . S
C443 O445 1.279 . S
O444 Cd436 2.223 . S
O444 C443 1.315 . S
O445 Cd435 2.240 . S
O445 C443 1.279 . S
O446 Cd436 2.297 1_545 S
O446 C441 1.247 1_545 S
O447 Cd436 2.439 . S
O447 C441 1.208 . S
O448 Cd449 2.223 . S
O448 C456 1.315 . S
Cd449 O448 2.223 . S
Cd449 O452 2.297 . S
Cd449 O453 2.439 . S
Cd449 O459 2.240 . S
Cd450 O451 2.240 . S
Cd450 O458 2.223 . S
Cd450 O460 2.297 . S
Cd450 O461 2.439 . S
O451 Cd450 2.240 . S
O451 C456 1.279 . S
O452 Cd449 2.297 . S
O452 C454 1.247 . S
O453 Cd449 2.439 . S
O453 C454 1.208 . S
C454 O452 1.247 . S
C454 O453 1.208 . S
C455 O460 1.247 . S
C455 O461 1.208 . S
C456 O448 1.315 . S
C456 O451 1.279 . S
C457 O458 1.315 . S
C457 O459 1.279 . S
O458 Cd450 2.223 . S
O458 C457 1.315 . S
O459 Cd449 2.240 . S
O459 C457 1.279 . S
O460 Cd450 2.297 . S
O460 C455 1.247 . S
O461 Cd450 2.439 . S
O461 C455 1.208 . S
O462 Cd463 2.223 . S
O462 C470 1.315 . S
Cd463 O462 2.223 . S
Cd463 O466 2.297 . S
Cd463 O467 2.439 . S
Cd463 O473 2.240 . S
Cd464 O465 2.240 . S
Cd464 O472 2.223 . S
Cd464 O474 2.297 . S
Cd464 O475 2.439 . S
O465 Cd464 2.240 . S
O465 C470 1.279 . S
O466 Cd463 2.297 . S
O466 C468 1.247 . S
O467 Cd463 2.439 . S
O467 C468 1.208 . S
C468 O466 1.247 . S
C468 O467 1.208 . S
C469 O474 1.247 . S
C469 O475 1.208 . S
C470 O462 1.315 . S
C470 O465 1.279 . S
C471 O472 1.315 . S
C471 O473 1.279 . S
O472 Cd464 2.223 . S
O472 C471 1.315 . S
O473 Cd463 2.240 . S
O473 C471 1.279 . S
O474 Cd464 2.297 . S
O474 C469 1.247 . S
O475 Cd464 2.439 . S
O475 C469 1.208 . S
O476 Cd477 2.223 . S
O476 C484 1.315 . S
Cd477 O476 2.223 . S
Cd477 O480 2.297 . S
Cd477 O481 2.439 . S
Cd477 O487 2.240 . S
Cd478 O479 2.240 . S
Cd478 O486 2.223 . S
Cd478 O488 2.297 . S
Cd478 O489 2.439 . S
O479 Cd478 2.240 . S
O479 C484 1.279 . S
O480 Cd477 2.297 . S
O480 C482 1.247 . S
O481 Cd477 2.439 . S
O481 C482 1.208 . S
C482 O480 1.247 . S
C482 O481 1.208 . S
C483 O488 1.247 . S
C483 O489 1.208 . S
C484 O476 1.315 . S
C484 O479 1.279 . S
C485 O486 1.315 . S
C485 O487 1.279 . S
O486 Cd478 2.223 . S
O486 C485 1.315 . S
O487 Cd477 2.240 . S
O487 C485 1.279 . S
O488 Cd478 2.297 . S
O488 C483 1.247 . S
O489 Cd478 2.439 . S
O489 C483 1.208 . S
O490 Cd491 2.223 . S
O490 C498 1.315 . S
Cd491 O490 2.223 . S
Cd491 O494 2.297 . S
Cd491 O495 2.439 . S
Cd491 O501 2.240 . S
Cd492 O493 2.240 . S
Cd492 O500 2.223 . S
Cd492 O502 2.297 . S
Cd492 O503 2.439 . S
O493 Cd492 2.240 . S
O493 C498 1.279 . S
O494 Cd491 2.297 . S
O494 C496 1.247 . S
O495 Cd491 2.439 . S
O495 C496 1.208 . S
C496 O494 1.247 . S
C496 O495 1.208 . S
C497 O502 1.247 . S
C497 O503 1.208 . S
C498 O490 1.315 . S
C498 O493 1.279 . S
C499 O500 1.315 . S
C499 O501 1.279 . S
O500 Cd492 2.223 . S
O500 C499 1.315 . S
O501 Cd491 2.240 . S
O501 C499 1.279 . S
O502 Cd492 2.297 . S
O502 C497 1.247 . S
O503 Cd492 2.439 . S
O503 C497 1.208 . S
H504 C516 0.930 . S
H505 C518 0.930 . S
H506 C519 0.930 . S
H507 C523 0.959 . S
H508 C523 0.959 . S
H509 C523 0.961 . S
H510 C524 0.960 . S
H511 C524 0.961 . S
H512 C524 0.959 . S
H513 C527 0.929 . S
H514 C528 0.931 . S
H515 C530 0.930 . S
C516 H504 0.930 . S
C516 C517 1.399 . S
C516 C521 1.399 . S
C517 C516 1.399 . S
C517 C518 1.376 . S
C518 H505 0.930 . S
C518 C517 1.376 . S
C518 C519 1.388 . S
C519 H506 0.930 . S
C519 C518 1.388 . S
C519 C520 1.390 . S
C520 C519 1.390 . S
C520 C521 1.394 . S
C520 C526 1.465 . S
C521 C516 1.399 . S
C521 C520 1.394 . S
C521 C522 1.516 . S
C522 C521 1.516 . S
C522 C523 1.502 . S
C522 C524 1.561 . S
C522 C525 1.526 . S
C523 H507 0.959 . S
C523 H508 0.959 . S
C523 H509 0.961 . S
C523 C522 1.502 . S
C524 H510 0.960 . S
C524 H511 0.961 . S
C524 H512 0.959 . S
C524 C522 1.561 . S
C525 C522 1.526 . S
C525 C526 1.396 . S
C525 C530 1.390 . S
C526 C520 1.465 . S
C526 C525 1.396 . S
C526 C527 1.399 . S
C527 H513 0.929 . S
C527 C526 1.399 . S
C527 C528 1.385 . S
C528 H514 0.931 . S
C528 C527 1.385 . S
C528 C529 1.389 . S
C529 C528 1.389 . S
C529 C530 1.387 . S
C530 H515 0.930 . S
C530 C525 1.390 . S
C530 C529 1.387 . S
H531 C543 0.930 . S
H532 C545 0.930 . S
H533 C546 0.930 . S
H534 C550 0.959 . S
H535 C550 0.959 . S
H536 C550 0.961 . S
H537 C551 0.960 . S
H538 C551 0.961 . S
H539 C551 0.959 . S
H540 C554 0.929 . S
H541 C555 0.931 . S
H542 C557 0.930 . S
C543 H531 0.930 . S
C543 C544 1.399 . S
C543 C548 1.399 . S
C544 C543 1.399 . S
C544 C545 1.376 . S
C545 H532 0.930 . S
C545 C544 1.376 . S
C545 C546 1.388 . S
C546 H533 0.930 . S
C546 C545 1.388 . S
C546 C547 1.390 . S
C547 C546 1.390 . S
C547 C548 1.394 . S
C547 C553 1.465 . S
C548 C543 1.399 . S
C548 C547 1.394 . S
C548 C549 1.516 . S
C549 C548 1.516 . S
C549 C550 1.502 . S
C549 C551 1.561 . S
C549 C552 1.526 . S
C550 H534 0.959 . S
C550 H535 0.959 . S
C550 H536 0.961 . S
C550 C549 1.502 . S
C551 H537 0.960 . S
C551 H538 0.961 . S
C551 H539 0.959 . S
C551 C549 1.561 . S
C552 C549 1.526 . S
C552 C553 1.396 . S
C552 C557 1.390 . S
C553 C547 1.465 . S
C553 C552 1.396 . S
C553 C554 1.399 . S
C554 H540 0.929 . S
C554 C553 1.399 . S
C554 C555 1.385 . S
C555 H541 0.931 . S
C555 C554 1.385 . S
C555 C556 1.389 . S
C556 C555 1.389 . S
C556 C557 1.387 . S
C557 H542 0.930 . S
C557 C552 1.390 . S
C557 C556 1.387 . S
H558 C570 0.930 . S
H559 C572 0.930 . S
H560 C573 0.930 . S
H561 C577 0.959 . S
H562 C577 0.959 . S
H563 C577 0.961 . S
H564 C578 0.960 . S
H565 C578 0.961 . S
H566 C578 0.959 . S
H567 C581 0.929 . S
H568 C582 0.931 . S
H569 C584 0.930 . S
C570 H558 0.930 . S
C570 C571 1.399 . S
C570 C575 1.399 . S
C571 C570 1.399 . S
C571 C572 1.376 . S
C572 H559 0.930 . S
C572 C571 1.376 . S
C572 C573 1.388 . S
C573 H560 0.930 . S
C573 C572 1.388 . S
C573 C574 1.390 . S
C574 C573 1.390 . S
C574 C575 1.394 . S
C574 C580 1.465 . S
C575 C570 1.399 . S
C575 C574 1.394 . S
C575 C576 1.516 . S
C576 C575 1.516 . S
C576 C577 1.502 . S
C576 C578 1.561 . S
C576 C579 1.526 . S
C577 H561 0.959 . S
C577 H562 0.959 . S
C577 H563 0.961 . S
C577 C576 1.502 . S
C578 H564 0.960 . S
C578 H565 0.961 . S
C578 H566 0.959 . S
C578 C576 1.561 . S
C579 C576 1.526 . S
C579 C580 1.396 . S
C579 C584 1.390 . S
C580 C574 1.465 . S
C580 C579 1.396 . S
C580 C581 1.399 . S
C581 H567 0.929 . S
C581 C580 1.399 . S
C581 C582 1.385 . S
C582 H568 0.931 . S
C582 C581 1.385 . S
C582 C583 1.389 . S
C583 C582 1.389 . S
C583 C584 1.387 . S
C584 H569 0.930 . S
C584 C579 1.390 . S
C584 C583 1.387 . S
H585 C597 0.930 . S
H586 C599 0.930 . S
H587 C600 0.930 . S
H588 C604 0.959 . S
H589 C604 0.959 . S
H590 C604 0.961 . S
H591 C605 0.960 . S
H592 C605 0.961 . S
H593 C605 0.959 . S
H594 C608 0.929 . S
H595 C609 0.931 . S
H596 C611 0.930 . S
C597 H585 0.930 . S
C597 C598 1.399 . S
C597 C602 1.399 . S
C598 C597 1.399 . S
C598 C599 1.376 . S
C599 H586 0.930 . S
C599 C598 1.376 . S
C599 C600 1.388 . S
C600 H587 0.930 . S
C600 C599 1.388 . S
C600 C601 1.390 . S
C601 C600 1.390 . S
C601 C602 1.394 . S
C601 C607 1.465 . S
C602 C597 1.399 . S
C602 C601 1.394 . S
C602 C603 1.516 . S
C603 C602 1.516 . S
C603 C604 1.502 . S
C603 C605 1.561 . S
C603 C606 1.526 . S
C604 H588 0.959 . S
C604 H589 0.959 . S
C604 H590 0.961 . S
C604 C603 1.502 . S
C605 H591 0.960 . S
C605 H592 0.961 . S
C605 H593 0.959 . S
C605 C603 1.561 . S
C606 C603 1.526 . S
C606 C607 1.396 . S
C606 C611 1.390 . S
C607 C601 1.465 . S
C607 C606 1.396 . S
C607 C608 1.399 . S
C608 H594 0.929 . S
C608 C607 1.399 . S
C608 C609 1.385 . S
C609 H595 0.931 . S
C609 C608 1.385 . S
C609 C610 1.389 . S
C610 C609 1.389 . S
C610 C611 1.387 . S
C611 H596 0.930 . S
C611 C606 1.390 . S
C611 C610 1.387 . S
H612 C624 0.930 . S
H613 C626 0.930 . S
H614 C627 0.930 . S
H615 C631 0.959 . S
H616 C631 0.959 . S
H617 C631 0.961 . S
H618 C632 0.960 . S
H619 C632 0.961 . S
H620 C632 0.959 . S
H621 C635 0.929 . S
H622 C636 0.931 . S
H623 C638 0.930 . S
C624 H612 0.930 . S
C624 C625 1.399 . S
C624 C629 1.399 . S
C625 C624 1.399 . S
C625 C626 1.376 . S
C626 H613 0.930 . S
C626 C625 1.376 . S
C626 C627 1.388 . S
C627 H614 0.930 . S
C627 C626 1.388 . S
C627 C628 1.390 . S
C628 C627 1.390 . S
C628 C629 1.394 . S
C628 C634 1.465 . S
C629 C624 1.399 . S
C629 C628 1.394 . S
C629 C630 1.516 . S
C630 C629 1.516 . S
C630 C631 1.502 . S
C630 C632 1.561 . S
C630 C633 1.526 . S
C631 H615 0.959 . S
C631 H616 0.959 . S
C631 H617 0.961 . S
C631 C630 1.502 . S
C632 H618 0.960 . S
C632 H619 0.961 . S
C632 H620 0.959 . S
C632 C630 1.561 . S
C633 C630 1.526 . S
C633 C634 1.396 . S
C633 C638 1.390 . S
C634 C628 1.465 . S
C634 C633 1.396 . S
C634 C635 1.399 . S
C635 H621 0.929 . S
C635 C634 1.399 . S
C635 C636 1.385 . S
C636 H622 0.931 . S
C636 C635 1.385 . S
C636 C637 1.389 . S
C637 C636 1.389 . S
C637 C638 1.387 . S
C638 H623 0.930 . S
C638 C633 1.390 . S
C638 C637 1.387 . S
H639 C651 0.930 . S
H640 C653 0.930 . S
H641 C654 0.930 . S
H642 C658 0.959 . S
H643 C658 0.959 . S
H644 C658 0.961 . S
H645 C659 0.960 . S
H646 C659 0.961 . S
H647 C659 0.959 . S
H648 C662 0.929 . S
H649 C663 0.931 . S
H650 C665 0.930 . S
C651 H639 0.930 . S
C651 C652 1.399 . S
C651 C656 1.399 . S
C652 C651 1.399 . S
C652 C653 1.376 . S
C653 H640 0.930 . S
C653 C652 1.376 . S
C653 C654 1.388 . S
C654 H641 0.930 . S
C654 C653 1.388 . S
C654 C655 1.390 . S
C655 C654 1.390 . S
C655 C656 1.394 . S
C655 C661 1.465 . S
C656 C651 1.399 . S
C656 C655 1.394 . S
C656 C657 1.516 . S
C657 C656 1.516 . S
C657 C658 1.502 . S
C657 C659 1.561 . S
C657 C660 1.526 . S
C658 H642 0.959 . S
C658 H643 0.959 . S
C658 H644 0.961 . S
C658 C657 1.502 . S
C659 H645 0.960 . S
C659 H646 0.961 . S
C659 H647 0.959 . S
C659 C657 1.561 . S
C660 C657 1.526 . S
C660 C661 1.396 . S
C660 C665 1.390 . S
C661 C655 1.465 . S
C661 C660 1.396 . S
C661 C662 1.399 . S
C662 H648 0.929 . S
C662 C661 1.399 . S
C662 C663 1.385 . S
C663 H649 0.931 . S
C663 C662 1.385 . S
C663 C664 1.389 . S
C664 C663 1.389 . S
C664 C665 1.387 . S
C665 H650 0.930 . S
C665 C660 1.390 . S
C665 C664 1.387 . S
H666 C678 0.930 . S
H667 C680 0.930 . S
H668 C681 0.930 . S
H669 C685 0.959 . S
H670 C685 0.959 . S
H671 C685 0.961 . S
H672 C686 0.960 . S
H673 C686 0.961 . S
H674 C686 0.959 . S
H675 C689 0.929 . S
H676 C690 0.931 . S
H677 C692 0.930 . S
C678 H666 0.930 . S
C678 C679 1.399 . S
C678 C683 1.399 . S
C679 C678 1.399 . S
C679 C680 1.376 . S
C680 H667 0.930 . S
C680 C679 1.376 . S
C680 C681 1.388 . S
C681 H668 0.930 . S
C681 C680 1.388 . S
C681 C682 1.390 . S
C682 C681 1.390 . S
C682 C683 1.394 . S
C682 C688 1.465 . S
C683 C678 1.399 . S
C683 C682 1.394 . S
C683 C684 1.516 . S
C684 C683 1.516 . S
C684 C685 1.502 . S
C684 C686 1.561 . S
C684 C687 1.526 . S
C685 H669 0.959 . S
C685 H670 0.959 . S
C685 H671 0.961 . S
C685 C684 1.502 . S
C686 H672 0.960 . S
C686 H673 0.961 . S
C686 H674 0.959 . S
C686 C684 1.561 . S
C687 C684 1.526 . S
C687 C688 1.396 . S
C687 C692 1.390 . S
C688 C682 1.465 . S
C688 C687 1.396 . S
C688 C689 1.399 . S
C689 H675 0.929 . S
C689 C688 1.399 . S
C689 C690 1.385 . S
C690 H676 0.931 . S
C690 C689 1.385 . S
C690 C691 1.389 . S
C691 C690 1.389 . S
C691 C692 1.387 . S
C692 H677 0.930 . S
C692 C687 1.390 . S
C692 C691 1.387 . S
H693 C705 0.930 . S
H694 C707 0.930 . S
H695 C708 0.930 . S
H696 C712 0.959 . S
H697 C712 0.959 . S
H698 C712 0.961 . S
H699 C713 0.960 . S
H700 C713 0.961 . S
H701 C713 0.959 . S
H702 C716 0.929 . S
H703 C717 0.931 . S
H704 C719 0.930 . S
C705 H693 0.930 . S
C705 C706 1.399 . S
C705 C710 1.399 . S
C706 C705 1.399 . S
C706 C707 1.376 . S
C707 H694 0.930 . S
C707 C706 1.376 . S
C707 C708 1.388 . S
C708 H695 0.930 . S
C708 C707 1.388 . S
C708 C709 1.390 . S
C709 C708 1.390 . S
C709 C710 1.394 . S
C709 C715 1.465 . S
C710 C705 1.399 . S
C710 C709 1.394 . S
C710 C711 1.516 . S
C711 C710 1.516 . S
C711 C712 1.502 . S
C711 C713 1.561 . S
C711 C714 1.526 . S
C712 H696 0.959 . S
C712 H697 0.959 . S
C712 H698 0.961 . S
C712 C711 1.502 . S
C713 H699 0.960 . S
C713 H700 0.961 . S
C713 H701 0.959 . S
C713 C711 1.561 . S
C714 C711 1.526 . S
C714 C715 1.396 . S
C714 C719 1.390 . S
C715 C709 1.465 . S
C715 C714 1.396 . S
C715 C716 1.399 . S
C716 H702 0.929 . S
C716 C715 1.399 . S
C716 C717 1.385 . S
C717 H703 0.931 . S
C717 C716 1.385 . S
C717 C718 1.389 . S
C718 C717 1.389 . S
C718 C719 1.387 . S
C719 H704 0.930 . S
C719 C714 1.390 . S
C719 C718 1.387 . S
H720 C732 0.930 . S
H721 C734 0.930 . S
H722 C735 0.930 . S
H723 C739 0.959 . S
H724 C739 0.959 . S
H725 C739 0.961 . S
H726 C740 0.960 . S
H727 C740 0.961 . S
H728 C740 0.959 . S
H729 C743 0.929 . S
H730 C744 0.931 . S
H731 C746 0.930 . S
C732 H720 0.930 . S
C732 C733 1.399 . S
C732 C737 1.399 . S
C733 C732 1.399 . S
C733 C734 1.376 . S
C734 H721 0.930 . S
C734 C733 1.376 . S
C734 C735 1.388 . S
C735 H722 0.930 . S
C735 C734 1.388 . S
C735 C736 1.390 . S
C736 C735 1.390 . S
C736 C737 1.394 . S
C736 C742 1.465 . S
C737 C732 1.399 . S
C737 C736 1.394 . S
C737 C738 1.516 . S
C738 C737 1.516 . S
C738 C739 1.502 . S
C738 C740 1.561 . S
C738 C741 1.526 . S
C739 H723 0.959 . S
C739 H724 0.959 . S
C739 H725 0.961 . S
C739 C738 1.502 . S
C740 H726 0.960 . S
C740 H727 0.961 . S
C740 H728 0.959 . S
C740 C738 1.561 . S
C741 C738 1.526 . S
C741 C742 1.396 . S
C741 C746 1.390 . S
C742 C736 1.465 . S
C742 C741 1.396 . S
C742 C743 1.399 . S
C743 H729 0.929 . S
C743 C742 1.399 . S
C743 C744 1.385 . S
C744 H730 0.931 . S
C744 C743 1.385 . S
C744 C745 1.389 . S
C745 C744 1.389 . S
C745 C746 1.387 . S
C746 H731 0.930 . S
C746 C741 1.390 . S
C746 C745 1.387 . S
H747 C759 0.930 . S
H748 C761 0.930 . S
H749 C762 0.930 . S
H750 C766 0.959 . S
H751 C766 0.959 . S
H752 C766 0.961 . S
H753 C767 0.960 . S
H754 C767 0.961 . S
H755 C767 0.959 . S
H756 C770 0.929 . S
H757 C771 0.931 . S
H758 C773 0.930 . S
C759 H747 0.930 . S
C759 C760 1.399 . S
C759 C764 1.399 . S
C760 C759 1.399 . S
C760 C761 1.376 . S
C761 H748 0.930 . S
C761 C760 1.376 . S
C761 C762 1.388 . S
C762 H749 0.930 . S
C762 C761 1.388 . S
C762 C763 1.390 . S
C763 C762 1.390 . S
C763 C764 1.394 . S
C763 C769 1.465 . S
C764 C759 1.399 . S
C764 C763 1.394 . S
C764 C765 1.516 . S
C765 C764 1.516 . S
C765 C766 1.502 . S
C765 C767 1.561 . S
C765 C768 1.526 . S
C766 H750 0.959 . S
C766 H751 0.959 . S
C766 H752 0.961 . S
C766 C765 1.502 . S
C767 H753 0.960 . S
C767 H754 0.961 . S
C767 H755 0.959 . S
C767 C765 1.561 . S
C768 C765 1.526 . S
C768 C769 1.396 . S
C768 C773 1.390 . S
C769 C763 1.465 . S
C769 C768 1.396 . S
C769 C770 1.399 . S
C770 H756 0.929 . S
C770 C769 1.399 . S
C770 C771 1.385 . S
C771 H757 0.931 . S
C771 C770 1.385 . S
C771 C772 1.389 . S
C772 C771 1.389 . S
C772 C773 1.387 . S
C773 H758 0.930 . S
C773 C768 1.390 . S
C773 C772 1.387 . S
H774 C786 0.930 . S
H775 C788 0.930 . S
H776 C789 0.930 . S
H777 C793 0.959 . S
H778 C793 0.959 . S
H779 C793 0.961 . S
H780 C794 0.960 . S
H781 C794 0.961 . S
H782 C794 0.959 . S
H783 C797 0.929 . S
H784 C798 0.931 . S
H785 C800 0.930 . S
C786 H774 0.930 . S
C786 C787 1.399 . S
C786 C791 1.399 . S
C787 C786 1.399 . S
C787 C788 1.376 . S
C788 H775 0.930 . S
C788 C787 1.376 . S
C788 C789 1.388 . S
C789 H776 0.930 . S
C789 C788 1.388 . S
C789 C790 1.390 . S
C790 C789 1.390 . S
C790 C791 1.394 . S
C790 C796 1.465 . S
C791 C786 1.399 . S
C791 C790 1.394 . S
C791 C792 1.516 . S
C792 C791 1.516 . S
C792 C793 1.502 . S
C792 C794 1.561 . S
C792 C795 1.526 . S
C793 H777 0.959 . S
C793 H778 0.959 . S
C793 H779 0.961 . S
C793 C792 1.502 . S
C794 H780 0.960 . S
C794 H781 0.961 . S
C794 H782 0.959 . S
C794 C792 1.561 . S
C795 C792 1.526 . S
C795 C796 1.396 . S
C795 C800 1.390 . S
C796 C790 1.465 . S
C796 C795 1.396 . S
C796 C797 1.399 . S
C797 H783 0.929 . S
C797 C796 1.399 . S
C797 C798 1.385 . S
C798 H784 0.931 . S
C798 C797 1.385 . S
C798 C799 1.389 . S
C799 C798 1.389 . S
C799 C800 1.387 . S
C800 H785 0.930 . S
C800 C795 1.390 . S
C800 C799 1.387 . S
H801 C813 0.930 . S
H802 C815 0.930 . S
H803 C816 0.930 . S
H804 C820 0.959 . S
H805 C820 0.959 . S
H806 C820 0.961 . S
H807 C821 0.960 . S
H808 C821 0.961 . S
H809 C821 0.959 . S
H810 C824 0.929 . S
H811 C825 0.931 . S
H812 C827 0.930 . S
C813 H801 0.930 . S
C813 C814 1.399 . S
C813 C818 1.399 . S
C814 C813 1.399 . S
C814 C815 1.376 . S
C815 H802 0.930 . S
C815 C814 1.376 . S
C815 C816 1.388 . S
C816 H803 0.930 . S
C816 C815 1.388 . S
C816 C817 1.390 . S
C817 C816 1.390 . S
C817 C818 1.394 . S
C817 C823 1.465 . S
C818 C813 1.399 . S
C818 C817 1.394 . S
C818 C819 1.516 . S
C819 C818 1.516 . S
C819 C820 1.502 . S
C819 C821 1.561 . S
C819 C822 1.526 . S
C820 H804 0.959 . S
C820 H805 0.959 . S
C820 H806 0.961 . S
C820 C819 1.502 . S
C821 H807 0.960 . S
C821 H808 0.961 . S
C821 H809 0.959 . S
C821 C819 1.561 . S
C822 C819 1.526 . S
C822 C823 1.396 . S
C822 C827 1.390 . S
C823 C817 1.465 . S
C823 C822 1.396 . S
C823 C824 1.399 . S
C824 H810 0.929 . S
C824 C823 1.399 . S
C824 C825 1.385 . S
C825 H811 0.931 . S
C825 C824 1.385 . S
C825 C826 1.389 . S
C826 C825 1.389 . S
C826 C827 1.387 . S
C827 H812 0.930 . S
C827 C822 1.390 . S
C827 C826 1.387 . S
H828 C840 0.930 . S
H829 C842 0.930 . S
H830 C843 0.898 1_545 S
H831 C847 0.959 . S
H832 C847 0.959 . S
H833 C847 0.961 . S
H834 C848 0.960 . S
H835 C848 0.961 . S
H836 C848 0.959 . S
H837 C851 0.929 1_545 S
H838 C852 0.931 . S
H839 C854 0.930 . S
C840 H828 0.930 . S
C840 C841 1.399 . S
C840 C845 1.399 . S
C841 C840 1.399 . S
C841 C842 1.376 . S
C842 H829 0.930 . S
C842 C841 1.376 . S
C842 C843 1.388 . S
C843 H830 0.898 1_565 S
C843 C842 1.388 . S
C843 C844 1.390 . S
C844 C843 1.390 . S
C844 C845 1.394 . S
C844 C850 1.465 . S
C845 C840 1.399 . S
C845 C844 1.394 . S
C845 C846 1.516 . S
C846 C845 1.516 . S
C846 C847 1.502 . S
C846 C848 1.561 . S
C846 C849 1.526 . S
C847 H831 0.959 . S
C847 H832 0.959 . S
C847 H833 0.961 . S
C847 C846 1.502 . S
C848 H834 0.960 . S
C848 H835 0.961 . S
C848 H836 0.959 . S
C848 C846 1.561 . S
C849 C846 1.526 . S
C849 C850 1.396 . S
C849 C854 1.390 . S
C850 C844 1.465 . S
C850 C849 1.396 . S
C850 C851 1.399 . S
C851 H837 0.929 1_565 S
C851 C850 1.399 . S
C851 C852 1.385 . S
C852 H838 0.931 . S
C852 C851 1.385 . S
C852 C853 1.389 . S
C853 C852 1.389 . S
C853 C854 1.387 . S
C854 H839 0.930 . S
C854 C849 1.390 . S
C854 C853 1.387 . S
H855 C867 0.930 . S
H856 C869 0.930 . S
H857 C870 0.930 . S
H858 C874 0.959 . S
H859 C874 0.959 . S
H860 C874 0.961 . S
H861 C875 0.960 . S
H862 C875 0.961 . S
H863 C875 0.959 . S
H864 C878 0.929 . S
H865 C879 0.931 . S
H866 C881 0.930 . S
C867 H855 0.930 . S
C867 C868 1.399 . S
C867 C872 1.399 . S
C868 C867 1.399 . S
C868 C869 1.376 . S
C869 H856 0.930 . S
C869 C868 1.376 . S
C869 C870 1.388 . S
C870 H857 0.930 . S
C870 C869 1.388 . S
C870 C871 1.390 . S
C871 C870 1.390 . S
C871 C872 1.394 . S
C871 C877 1.465 . S
C872 C867 1.399 . S
C872 C871 1.394 . S
C872 C873 1.516 . S
C873 C872 1.516 . S
C873 C874 1.502 . S
C873 C875 1.561 . S
C873 C876 1.526 . S
C874 H858 0.959 . S
C874 H859 0.959 . S
C874 H860 0.961 . S
C874 C873 1.502 . S
C875 H861 0.960 . S
C875 H862 0.961 . S
C875 H863 0.959 . S
C875 C873 1.561 . S
C876 C873 1.526 . S
C876 C877 1.396 . S
C876 C881 1.390 . S
C877 C871 1.465 . S
C877 C876 1.396 . S
C877 C878 1.399 . S
C878 H864 0.929 . S
C878 C877 1.399 . S
C878 C879 1.385 . S
C879 H865 0.931 . S
C879 C878 1.385 . S
C879 C880 1.389 . S
C880 C879 1.389 . S
C880 C881 1.387 . S
C881 H866 0.930 . S
C881 C876 1.390 . S
C881 C880 1.387 . S
H882 C894 0.930 . S
H883 C896 0.930 . S
H884 C897 0.930 . S
H885 C901 0.959 . S
H886 C901 0.959 . S
H887 C901 0.961 . S
H888 C902 0.960 . S
H889 C902 0.961 . S
H890 C902 0.959 . S
H891 C905 0.929 . S
H892 C906 0.931 . S
H893 C908 0.930 . S
C894 H882 0.930 . S
C894 C895 1.399 . S
C894 C899 1.399 . S
C895 C894 1.399 . S
C895 C896 1.376 . S
C896 H883 0.930 . S
C896 C895 1.376 . S
C896 C897 1.388 . S
C897 H884 0.930 . S
C897 C896 1.388 . S
C897 C898 1.390 . S
C898 C897 1.390 . S
C898 C899 1.394 . S
C898 C904 1.465 . S
C899 C894 1.399 . S
C899 C898 1.394 . S
C899 C900 1.516 . S
C900 C899 1.516 . S
C900 C901 1.502 . S
C900 C902 1.561 . S
C900 C903 1.526 . S
C901 H885 0.959 . S
C901 H886 0.959 . S
C901 H887 0.961 . S
C901 C900 1.502 . S
C902 H888 0.960 . S
C902 H889 0.961 . S
C902 H890 0.959 . S
C902 C900 1.561 . S
C903 C900 1.526 . S
C903 C904 1.396 . S
C903 C908 1.390 . S
C904 C898 1.465 . S
C904 C903 1.396 . S
C904 C905 1.399 . S
C905 H891 0.929 . S
C905 C904 1.399 . S
C905 C906 1.385 . S
C906 H892 0.931 . S
C906 C905 1.385 . S
C906 C907 1.389 . S
C907 C906 1.389 . S
C907 C908 1.387 . S
C908 H893 0.930 . S
C908 C903 1.390 . S
C908 C907 1.387 . S
H909 C921 0.930 . S
H910 C923 0.930 . S
H911 C924 0.930 . S
H912 C928 0.959 . S
H913 C928 0.959 . S
H914 C928 0.961 . S
H915 C929 0.960 . S
H916 C929 0.961 . S
H917 C929 0.959 . S
H918 C932 0.929 . S
H919 C933 0.931 . S
H920 C935 0.930 . S
C921 H909 0.930 . S
C921 C922 1.399 . S
C921 C926 1.399 . S
C922 C921 1.399 . S
C922 C923 1.376 . S
C923 H910 0.930 . S
C923 C922 1.376 . S
C923 C924 1.388 . S
C924 H911 0.930 . S
C924 C923 1.388 . S
C924 C925 1.390 . S
C925 C924 1.390 . S
C925 C926 1.394 . S
C925 C931 1.465 . S
C926 C921 1.399 . S
C926 C925 1.394 . S
C926 C927 1.516 . S
C927 C926 1.516 . S
C927 C928 1.502 . S
C927 C929 1.561 . S
C927 C930 1.526 . S
C928 H912 0.959 . S
C928 H913 0.959 . S
C928 H914 0.961 . S
C928 C927 1.502 . S
C929 H915 0.960 . S
C929 H916 0.961 . S
C929 H917 0.959 . S
C929 C927 1.561 . S
C930 C927 1.526 . S
C930 C931 1.396 . S
C930 C935 1.390 . S
C931 C925 1.465 . S
C931 C930 1.396 . S
C931 C932 1.399 . S
C932 H918 0.929 . S
C932 C931 1.399 . S
C932 C933 1.385 . S
C933 H919 0.931 . S
C933 C932 1.385 . S
C933 C934 1.389 . S
C934 C933 1.389 . S
C934 C935 1.387 . S
C935 H920 0.930 . S
C935 C930 1.390 . S
C935 C934 1.387 . S
H936 C948 0.930 . S
H937 C950 0.930 . S
H938 C951 0.930 . S
H939 C955 0.959 . S
H940 C955 0.959 . S
H941 C955 0.961 . S
H942 C956 0.960 . S
H943 C956 0.961 . S
H944 C956 0.959 . S
H945 C959 0.929 . S
H946 C960 0.931 . S
H947 C962 0.930 . S
C948 H936 0.930 . S
C948 C949 1.399 . S
C948 C953 1.399 . S
C949 C948 1.399 . S
C949 C950 1.376 . S
C950 H937 0.930 . S
C950 C949 1.376 . S
C950 C951 1.388 . S
C951 H938 0.930 . S
C951 C950 1.388 . S
C951 C952 1.390 . S
C952 C951 1.390 . S
C952 C953 1.394 . S
C952 C958 1.465 . S
C953 C948 1.399 . S
C953 C952 1.394 . S
C953 C954 1.516 . S
C954 C953 1.516 . S
C954 C955 1.502 . S
C954 C956 1.561 . S
C954 C957 1.526 . S
C955 H939 0.959 . S
C955 H940 0.959 . S
C955 H941 0.961 . S
C955 C954 1.502 . S
C956 H942 0.960 . S
C956 H943 0.961 . S
C956 H944 0.959 . S
C956 C954 1.561 . S
C957 C954 1.526 . S
C957 C958 1.396 . S
C957 C962 1.390 . S
C958 C952 1.465 . S
C958 C957 1.396 . S
C958 C959 1.399 . S
C959 H945 0.929 . S
C959 C958 1.399 . S
C959 C960 1.385 . S
C960 H946 0.931 . S
C960 C959 1.385 . S
C960 C961 1.389 . S
C961 C960 1.389 . S
C961 C962 1.387 . S
C962 H947 0.930 . S
C962 C957 1.390 . S
C962 C961 1.387 . S
H963 C975 0.930 . S
H964 C977 0.930 . S
H965 C978 0.930 . S
H966 C982 0.959 . S
H967 C982 0.959 . S
H968 C982 0.961 . S
H969 C983 0.960 . S
H970 C983 0.961 . S
H971 C983 0.959 . S
H972 C986 0.929 . S
H973 C987 0.931 . S
H974 C989 0.930 . S
C975 H963 0.930 . S
C975 C976 1.399 . S
C975 C980 1.399 . S
C976 C975 1.399 . S
C976 C977 1.376 . S
C977 H964 0.930 . S
C977 C976 1.376 . S
C977 C978 1.388 . S
C978 H965 0.930 . S
C978 C977 1.388 . S
C978 C979 1.390 . S
C979 C978 1.390 . S
C979 C980 1.394 . S
C979 C985 1.465 . S
C980 C975 1.399 . S
C980 C979 1.394 . S
C980 C981 1.516 . S
C981 C980 1.516 . S
C981 C982 1.502 . S
C981 C983 1.561 . S
C981 C984 1.526 . S
C982 H966 0.959 . S
C982 H967 0.959 . S
C982 H968 0.961 . S
C982 C981 1.502 . S
C983 H969 0.960 . S
C983 H970 0.961 . S
C983 H971 0.959 . S
C983 C981 1.561 . S
C984 C981 1.526 . S
C984 C985 1.396 . S
C984 C989 1.390 . S
C985 C979 1.465 . S
C985 C984 1.396 . S
C985 C986 1.399 . S
C986 H972 0.929 . S
C986 C985 1.399 . S
C986 C987 1.385 . S
C987 H973 0.931 . S
C987 C986 1.385 . S
C987 C988 1.389 . S
C988 C987 1.389 . S
C988 C989 1.387 . S
C989 H974 0.930 . S
C989 C984 1.390 . S
C989 C988 1.387 . S
H990 C1002 0.930 . S
H991 C1004 0.930 . S
H992 C1005 0.930 . S
H993 C1009 0.959 . S
H994 C1009 0.959 . S
H995 C1009 0.961 . S
H996 C1010 0.960 . S
H997 C1010 0.961 . S
H998 C1010 0.959 . S
H999 C1013 0.929 . S
H1000 C1014 0.931 . S
H1001 C1016 0.930 . S
C1002 H990 0.930 . S
C1002 C1003 1.399 1_655 S
C1002 C1007 1.399 . S
C1003 C1002 1.399 1_455 S
C1003 C1004 1.376 . S
C1004 H991 0.930 . S
C1004 C1003 1.376 . S
C1004 C1005 1.388 . S
C1005 H992 0.930 . S
C1005 C1004 1.388 . S
C1005 C1006 1.390 . S
C1006 C1005 1.390 . S
C1006 C1007 1.394 1_455 S
C1006 C1012 1.472 . S
C1007 C1002 1.399 . S
C1007 C1006 1.394 1_655 S
C1007 C1008 1.516 . S
C1008 C1007 1.516 . S
C1008 C1009 1.502 . S
C1008 C1010 1.561 . S
C1008 C1011 1.526 . S
C1009 H993 0.959 . S
C1009 H994 0.959 . S
C1009 H995 0.961 . S
C1009 C1008 1.502 . S
C1010 H996 0.960 . S
C1010 H997 0.961 . S
C1010 H998 0.959 . S
C1010 C1008 1.561 . S
C1011 C1008 1.526 . S
C1011 C1012 1.386 1_655 S
C1011 C1016 1.390 . S
C1012 C1006 1.472 . S
C1012 C1011 1.386 1_455 S
C1012 C1013 1.400 . S
C1013 H999 0.929 . S
C1013 C1012 1.400 . S
C1013 C1014 1.385 . S
C1014 H1000 0.931 . S
C1014 C1013 1.385 . S
C1014 C1015 1.389 1_455 S
C1015 C1014 1.389 1_655 S
C1015 C1016 1.387 . S
C1016 H1001 0.930 . S
C1016 C1011 1.390 . S
C1016 C1015 1.387 . S
H1017 C1029 0.930 . S
H1018 C1031 0.930 . S
H1019 C1032 0.930 . S
H1020 C1036 0.959 . S
H1021 C1036 0.959 . S
H1022 C1036 0.961 . S
H1023 C1037 0.960 . S
H1024 C1037 0.961 . S
H1025 C1037 0.959 . S
H1026 C1040 0.929 . S
H1027 C1041 0.931 . S
H1028 C1043 0.930 . S
C1029 H1017 0.930 . S
C1029 C1030 1.399 . S
C1029 C1034 1.399 . S
C1030 C1029 1.399 . S
C1030 C1031 1.376 . S
C1031 H1018 0.930 . S
C1031 C1030 1.376 . S
C1031 C1032 1.388 . S
C1032 H1019 0.930 . S
C1032 C1031 1.388 . S
C1032 C1033 1.390 . S
C1033 C1032 1.390 . S
C1033 C1034 1.394 . S
C1033 C1039 1.465 . S
C1034 C1029 1.399 . S
C1034 C1033 1.394 . S
C1034 C1035 1.516 . S
C1035 C1034 1.516 . S
C1035 C1036 1.502 . S
C1035 C1037 1.561 . S
C1035 C1038 1.526 . S
C1036 H1020 0.959 . S
C1036 H1021 0.959 . S
C1036 H1022 0.961 . S
C1036 C1035 1.502 . S
C1037 H1023 0.960 . S
C1037 H1024 0.961 . S
C1037 H1025 0.959 . S
C1037 C1035 1.561 . S
C1038 C1035 1.526 . S
C1038 C1039 1.396 . S
C1038 C1043 1.390 . S
C1039 C1033 1.465 . S
C1039 C1038 1.396 . S
C1039 C1040 1.399 . S
C1040 H1026 0.929 . S
C1040 C1039 1.399 . S
C1040 C1041 1.385 . S
C1041 H1027 0.931 . S
C1041 C1040 1.385 . S
C1041 C1042 1.389 . S
C1042 C1041 1.389 . S
C1042 C1043 1.387 . S
C1043 H1028 0.930 . S
C1043 C1038 1.390 . S
C1043 C1042 1.387 . S
H1044 C1056 0.930 . S
H1045 C1058 0.930 . S
H1046 C1059 0.930 . S
H1047 C1063 0.959 . S
H1048 C1063 0.959 . S
H1049 C1063 0.961 . S
H1050 C1064 0.960 . S
H1051 C1064 0.961 . S
H1052 C1064 0.959 . S
H1053 C1067 0.929 . S
H1054 C1068 0.931 . S
H1055 C1070 0.930 . S
C1056 H1044 0.930 . S
C1056 C1057 1.399 . S
C1056 C1061 1.399 . S
C1057 C1056 1.399 . S
C1057 C1058 1.376 . S
C1058 H1045 0.930 . S
C1058 C1057 1.376 . S
C1058 C1059 1.388 . S
C1059 H1046 0.930 . S
C1059 C1058 1.388 . S
C1059 C1060 1.390 . S
C1060 C1059 1.390 . S
C1060 C1061 1.394 . S
C1060 C1066 1.465 . S
C1061 C1056 1.399 . S
C1061 C1060 1.394 . S
C1061 C1062 1.516 . S
C1062 C1061 1.516 . S
C1062 C1063 1.502 . S
C1062 C1064 1.561 . S
C1062 C1065 1.526 . S
C1063 H1047 0.959 . S
C1063 H1048 0.959 . S
C1063 H1049 0.961 . S
C1063 C1062 1.502 . S
C1064 H1050 0.960 . S
C1064 H1051 0.961 . S
C1064 H1052 0.959 . S
C1064 C1062 1.561 . S
C1065 C1062 1.526 . S
C1065 C1066 1.396 . S
C1065 C1070 1.390 . S
C1066 C1060 1.465 . S
C1066 C1065 1.396 . S
C1066 C1067 1.399 . S
C1067 H1053 0.929 . S
C1067 C1066 1.399 . S
C1067 C1068 1.385 . S
C1068 H1054 0.931 . S
C1068 C1067 1.385 . S
C1068 C1069 1.389 . S
C1069 C1068 1.389 . S
C1069 C1070 1.387 . S
C1070 H1055 0.930 . S
C1070 C1065 1.390 . S
C1070 C1069 1.387 . S
H1071 C1083 0.930 . S
H1072 C1085 0.930 . S
H1073 C1086 0.930 . S
H1074 C1090 0.959 . S
H1075 C1090 0.959 . S
H1076 C1090 0.961 . S
H1077 C1091 0.960 . S
H1078 C1091 0.961 . S
H1079 C1091 0.959 . S
H1080 C1094 0.929 . S
H1081 C1095 0.931 . S
H1082 C1097 0.930 1_545 S
C1083 H1071 0.930 . S
C1083 C1084 1.399 . S
C1083 C1088 1.399 . S
C1084 C1083 1.399 . S
C1084 C1085 1.376 1_545 S
C1085 H1072 0.930 . S
C1085 C1084 1.376 1_565 S
C1085 C1086 1.388 . S
C1086 H1073 0.930 . S
C1086 C1085 1.388 . S
C1086 C1087 1.390 . S
C1087 C1086 1.390 . S
C1087 C1088 1.394 1_565 S
C1087 C1093 1.465 . S
C1088 C1083 1.399 . S
C1088 C1087 1.394 1_545 S
C1088 C1089 1.516 . S
C1089 C1088 1.516 . S
C1089 C1090 1.502 . S
C1089 C1091 1.561 . S
C1089 C1092 1.526 1_545 S
C1090 H1074 0.959 . S
C1090 H1075 0.959 . S
C1090 H1076 0.961 . S
C1090 C1089 1.502 . S
C1091 H1077 0.960 . S
C1091 H1078 0.961 . S
C1091 H1079 0.959 . S
C1091 C1089 1.561 . S
C1092 C1089 1.526 1_565 S
C1092 C1093 1.396 . S
C1092 C1097 1.390 . S
C1093 C1087 1.465 . S
C1093 C1092 1.396 . S
C1093 C1094 1.399 . S
C1094 H1080 0.929 . S
C1094 C1093 1.399 . S
C1094 C1095 1.385 . S
C1095 H1081 0.931 . S
C1095 C1094 1.385 . S
C1095 C1096 1.389 . S
C1096 C1095 1.389 . S
C1096 C1097 1.387 . S
C1097 H1082 0.930 1_565 S
C1097 C1092 1.390 . S
C1097 C1096 1.387 . S
H1098 C1110 0.930 . S
H1099 C1112 0.930 . S
H1100 C1113 0.930 . S
H1101 C1117 0.959 . S
H1102 C1117 0.959 . S
H1103 C1117 0.961 . S
H1104 C1118 0.960 . S
H1105 C1118 0.961 . S
H1106 C1118 0.959 . S
H1107 C1121 0.929 . S
H1108 C1122 0.931 . S
H1109 C1124 0.930 . S
C1110 H1098 0.930 . S
C1110 C1111 1.399 . S
C1110 C1115 1.399 . S
C1111 C1110 1.399 . S
C1111 C1112 1.376 . S
C1112 H1099 0.930 . S
C1112 C1111 1.376 . S
C1112 C1113 1.388 . S
C1113 H1100 0.930 . S
C1113 C1112 1.388 . S
C1113 C1114 1.390 . S
C1114 C1113 1.390 . S
C1114 C1115 1.394 . S
C1114 C1120 1.465 . S
C1115 C1110 1.399 . S
C1115 C1114 1.394 . S
C1115 C1116 1.516 . S
C1116 C1115 1.516 . S
C1116 C1117 1.502 . S
C1116 C1118 1.561 . S
C1116 C1119 1.526 . S
C1117 H1101 0.959 . S
C1117 H1102 0.959 . S
C1117 H1103 0.961 . S
C1117 C1116 1.502 . S
C1118 H1104 0.960 . S
C1118 H1105 0.961 . S
C1118 H1106 0.959 . S
C1118 C1116 1.561 . S
C1119 C1116 1.526 . S
C1119 C1120 1.396 . S
C1119 C1124 1.390 . S
C1120 C1114 1.465 . S
C1120 C1119 1.396 . S
C1120 C1121 1.399 . S
C1121 H1107 0.929 . S
C1121 C1120 1.399 . S
C1121 C1122 1.385 . S
C1122 H1108 0.931 . S
C1122 C1121 1.385 . S
C1122 C1123 1.389 . S
C1123 C1122 1.389 . S
C1123 C1124 1.387 . S
C1124 H1109 0.930 . S
C1124 C1119 1.390 . S
C1124 C1123 1.387 . S
H1125 C1137 0.930 . S
H1126 C1139 0.930 . S
H1127 C1140 0.930 . S
H1128 C1144 0.959 . S
H1129 C1144 0.959 . S
H1130 C1144 0.961 . S
H1131 C1145 0.960 . S
H1132 C1145 0.961 . S
H1133 C1145 0.959 . S
H1134 C1148 0.929 . S
H1135 C1149 0.931 . S
H1136 C1151 0.930 . S
C1137 H1125 0.930 . S
C1137 C1138 1.399 . S
C1137 C1142 1.399 . S
C1138 C1137 1.399 . S
C1138 C1139 1.376 . S
C1139 H1126 0.930 . S
C1139 C1138 1.376 . S
C1139 C1140 1.388 . S
C1140 H1127 0.930 . S
C1140 C1139 1.388 . S
C1140 C1141 1.390 . S
C1141 C1140 1.390 . S
C1141 C1142 1.394 . S
C1141 C1147 1.465 . S
C1142 C1137 1.399 . S
C1142 C1141 1.394 . S
C1142 C1143 1.516 . S
C1143 C1142 1.516 . S
C1143 C1144 1.502 . S
C1143 C1145 1.561 . S
C1143 C1146 1.526 . S
C1144 H1128 0.959 . S
C1144 H1129 0.959 . S
C1144 H1130 0.961 . S
C1144 C1143 1.502 . S
C1145 H1131 0.960 . S
C1145 H1132 0.961 . S
C1145 H1133 0.959 . S
C1145 C1143 1.561 . S
C1146 C1143 1.526 . S
C1146 C1147 1.396 . S
C1146 C1151 1.390 . S
C1147 C1141 1.465 . S
C1147 C1146 1.396 . S
C1147 C1148 1.399 . S
C1148 H1134 0.929 . S
C1148 C1147 1.399 . S
C1148 C1149 1.385 . S
C1149 H1135 0.931 . S
C1149 C1148 1.385 . S
C1149 C1150 1.389 . S
C1150 C1149 1.389 . S
C1150 C1151 1.387 . S
C1151 H1136 0.930 . S
C1151 C1146 1.390 . S
C1151 C1150 1.387 . S
H1152 C1164 0.930 . S
H1153 C1166 0.930 . S
H1154 C1167 0.930 . S
H1155 C1171 0.959 . S
H1156 C1171 0.959 . S
H1157 C1171 0.961 . S
H1158 C1172 0.960 . S
H1159 C1172 0.961 . S
H1160 C1172 0.959 . S
H1161 C1175 0.929 . S
H1162 C1176 0.931 . S
H1163 C1178 0.930 . S
C1164 H1152 0.930 . S
C1164 C1165 1.399 . S
C1164 C1169 1.399 . S
C1165 C1164 1.399 . S
C1165 C1166 1.376 . S
C1166 H1153 0.930 . S
C1166 C1165 1.376 . S
C1166 C1167 1.388 . S
C1167 H1154 0.930 . S
C1167 C1166 1.388 . S
C1167 C1168 1.390 . S
C1168 C1167 1.390 . S
C1168 C1169 1.394 . S
C1168 C1174 1.465 . S
C1169 C1164 1.399 . S
C1169 C1168 1.394 . S
C1169 C1170 1.516 . S
C1170 C1169 1.516 . S
C1170 C1171 1.502 . S
C1170 C1172 1.561 . S
C1170 C1173 1.526 . S
C1171 H1155 0.959 . S
C1171 H1156 0.959 . S
C1171 H1157 0.961 . S
C1171 C1170 1.502 . S
C1172 H1158 0.960 . S
C1172 H1159 0.961 . S
C1172 H1160 0.959 . S
C1172 C1170 1.561 . S
C1173 C1170 1.526 . S
C1173 C1174 1.396 . S
C1173 C1178 1.390 . S
C1174 C1168 1.465 . S
C1174 C1173 1.396 . S
C1174 C1175 1.399 . S
C1175 H1161 0.929 . S
C1175 C1174 1.399 . S
C1175 C1176 1.385 . S
C1176 H1162 0.931 . S
C1176 C1175 1.385 . S
C1176 C1177 1.389 . S
C1177 C1176 1.389 . S
C1177 C1178 1.387 . S
C1178 H1163 0.930 . S
C1178 C1173 1.390 . S
C1178 C1177 1.387 . S
H1179 C1191 0.930 . S
H1180 C1193 0.930 . S
H1181 C1194 0.930 . S
H1182 C1198 0.959 . S
H1183 C1198 0.959 . S
H1184 C1198 0.961 . S
H1185 C1199 0.960 . S
H1186 C1199 0.961 . S
H1187 C1199 0.959 . S
H1188 C1202 0.929 . S
H1189 C1203 0.931 . S
H1190 C1205 0.930 . S
C1191 H1179 0.930 . S
C1191 C1192 1.399 . S
C1191 C1196 1.399 . S
C1192 C1191 1.399 . S
C1192 C1193 1.376 . S
C1193 H1180 0.930 . S
C1193 C1192 1.376 . S
C1193 C1194 1.388 . S
C1194 H1181 0.930 . S
C1194 C1193 1.388 . S
C1194 C1195 1.390 . S
C1195 C1194 1.390 . S
C1195 C1196 1.394 . S
C1195 C1201 1.465 . S
C1196 C1191 1.399 . S
C1196 C1195 1.394 . S
C1196 C1197 1.516 . S
C1197 C1196 1.516 . S
C1197 C1198 1.502 . S
C1197 C1199 1.561 . S
C1197 C1200 1.526 . S
C1198 H1182 0.959 . S
C1198 H1183 0.959 . S
C1198 H1184 0.961 . S
C1198 C1197 1.502 . S
C1199 H1185 0.960 . S
C1199 H1186 0.961 . S
C1199 H1187 0.959 . S
C1199 C1197 1.561 . S
C1200 C1197 1.526 . S
C1200 C1201 1.396 . S
C1200 C1205 1.390 . S
C1201 C1195 1.465 . S
C1201 C1200 1.396 . S
C1201 C1202 1.399 . S
C1202 H1188 0.929 . S
C1202 C1201 1.399 . S
C1202 C1203 1.385 . S
C1203 H1189 0.931 . S
C1203 C1202 1.385 . S
C1203 C1204 1.389 . S
C1204 C1203 1.389 . S
C1204 C1205 1.387 . S
C1205 H1190 0.930 . S
C1205 C1200 1.390 . S
C1205 C1204 1.387 . S
H1206 C1218 0.930 . S
H1207 C1220 0.930 . S
H1208 C1221 0.930 . S
H1209 C1225 0.959 . S
H1210 C1225 0.959 . S
H1211 C1225 0.961 . S
H1212 C1226 0.960 . S
H1213 C1226 0.961 . S
H1214 C1226 0.959 . S
H1215 C1229 0.929 . S
H1216 C1230 0.931 . S
H1217 C1232 0.930 1_545 S
C1218 H1206 0.930 . S
C1218 C1219 1.399 . S
C1218 C1223 1.399 . S
C1219 C1218 1.399 . S
C1219 C1220 1.376 1_545 S
C1220 H1207 0.930 . S
C1220 C1219 1.376 1_565 S
C1220 C1221 1.388 . S
C1221 H1208 0.930 . S
C1221 C1220 1.388 . S
C1221 C1222 1.390 . S
C1222 C1221 1.390 . S
C1222 C1223 1.394 1_565 S
C1222 C1228 1.465 . S
C1223 C1218 1.399 . S
C1223 C1222 1.394 1_545 S
C1223 C1224 1.516 . S
C1224 C1223 1.516 . S
C1224 C1225 1.502 . S
C1224 C1226 1.561 . S
C1224 C1227 1.526 1_545 S
C1225 H1209 0.959 . S
C1225 H1210 0.959 . S
C1225 H1211 0.961 . S
C1225 C1224 1.502 . S
C1226 H1212 0.960 . S
C1226 H1213 0.961 . S
C1226 H1214 0.959 . S
C1226 C1224 1.561 . S
C1227 C1224 1.526 1_565 S
C1227 C1228 1.396 . S
C1227 C1232 1.390 . S
C1228 C1222 1.465 . S
C1228 C1227 1.396 . S
C1228 C1229 1.399 . S
C1229 H1215 0.929 . S
C1229 C1228 1.399 . S
C1229 C1230 1.385 . S
C1230 H1216 0.931 . S
C1230 C1229 1.385 . S
C1230 C1231 1.389 . S
C1231 C1230 1.389 . S
C1231 C1232 1.387 . S
C1232 H1217 0.930 1_565 S
C1232 C1227 1.390 . S
C1232 C1231 1.387 . S
H1233 C1245 0.930 . S
H1234 C1247 0.930 . S
H1235 C1248 0.930 . S
H1236 C1252 0.959 . S
H1237 C1252 0.959 . S
H1238 C1252 0.961 . S
H1239 C1253 0.960 . S
H1240 C1253 0.961 . S
H1241 C1253 0.959 . S
H1242 C1256 0.929 . S
H1243 C1257 0.931 . S
H1244 C1259 0.930 . S
C1245 H1233 0.930 . S
C1245 C1246 1.399 . S
C1245 C1250 1.399 . S
C1246 C1245 1.399 . S
C1246 C1247 1.376 . S
C1247 H1234 0.930 . S
C1247 C1246 1.376 . S
C1247 C1248 1.388 . S
C1248 H1235 0.930 . S
C1248 C1247 1.388 . S
C1248 C1249 1.390 . S
C1249 C1248 1.390 . S
C1249 C1250 1.394 . S
C1249 C1255 1.465 . S
C1250 C1245 1.399 . S
C1250 C1249 1.394 . S
C1250 C1251 1.516 . S
C1251 C1250 1.516 . S
C1251 C1252 1.502 . S
C1251 C1253 1.561 . S
C1251 C1254 1.526 . S
C1252 H1236 0.959 . S
C1252 H1237 0.959 . S
C1252 H1238 0.961 . S
C1252 C1251 1.502 . S
C1253 H1239 0.960 . S
C1253 H1240 0.961 . S
C1253 H1241 0.959 . S
C1253 C1251 1.561 . S
C1254 C1251 1.526 . S
C1254 C1255 1.396 . S
C1254 C1259 1.390 . S
C1255 C1249 1.465 . S
C1255 C1254 1.396 . S
C1255 C1256 1.399 . S
C1256 H1242 0.929 . S
C1256 C1255 1.399 . S
C1256 C1257 1.385 . S
C1257 H1243 0.931 . S
C1257 C1256 1.385 . S
C1257 C1258 1.389 . S
C1258 C1257 1.389 . S
C1258 C1259 1.387 . S
C1259 H1244 0.930 . S
C1259 C1254 1.390 . S
C1259 C1258 1.387 . S
H1260 C1272 0.930 . S
H1261 C1274 0.930 . S
H1262 C1275 0.930 . S
H1263 C1279 0.959 . S
H1264 C1279 0.959 . S
H1265 C1279 0.961 . S
H1266 C1280 0.960 . S
H1267 C1280 0.961 . S
H1268 C1280 0.959 . S
H1269 C1283 0.929 . S
H1270 C1284 0.931 . S
H1271 C1286 0.930 . S
C1272 H1260 0.930 . S
C1272 C1273 1.399 1_655 S
C1272 C1277 1.399 . S
C1273 C1272 1.399 1_455 S
C1273 C1274 1.376 . S
C1274 H1261 0.930 . S
C1274 C1273 1.376 . S
C1274 C1275 1.388 . S
C1275 H1262 0.930 . S
C1275 C1274 1.388 . S
C1275 C1276 1.390 . S
C1276 C1275 1.390 . S
C1276 C1277 1.394 1_455 S
C1276 C1282 1.466 . S
C1277 C1272 1.399 . S
C1277 C1276 1.394 1_655 S
C1277 C1278 1.516 . S
C1278 C1277 1.516 . S
C1278 C1279 1.502 . S
C1278 C1280 1.561 . S
C1278 C1281 1.526 . S
C1279 H1263 0.959 . S
C1279 H1264 0.959 . S
C1279 H1265 0.961 . S
C1279 C1278 1.502 . S
C1280 H1266 0.960 . S
C1280 H1267 0.961 . S
C1280 H1268 0.959 . S
C1280 C1278 1.561 . S
C1281 C1278 1.526 . S
C1281 C1282 1.367 1_655 S
C1281 C1286 1.390 . S
C1282 C1276 1.466 . S
C1282 C1281 1.367 1_455 S
C1282 C1283 1.422 . S
C1283 H1269 0.929 . S
C1283 C1282 1.422 . S
C1283 C1284 1.385 . S
C1284 H1270 0.931 . S
C1284 C1283 1.385 . S
C1284 C1285 1.389 1_455 S
C1285 C1284 1.389 1_655 S
C1285 C1286 1.387 . S
C1286 H1271 0.930 . S
C1286 C1281 1.390 . S
C1286 C1285 1.387 . S
H1287 C1299 0.930 . S
H1288 C1301 0.930 . S
H1289 C1302 0.930 . S
H1290 C1306 0.959 . S
H1291 C1306 0.959 . S
H1292 C1306 0.961 . S
H1293 C1307 0.960 . S
H1294 C1307 0.961 . S
H1295 C1307 0.959 . S
H1296 C1310 0.929 . S
H1297 C1311 0.931 . S
H1298 C1313 0.930 . S
C1299 H1287 0.930 . S
C1299 C1300 1.399 . S
C1299 C1304 1.399 . S
C1300 C1299 1.399 . S
C1300 C1301 1.376 . S
C1301 H1288 0.930 . S
C1301 C1300 1.376 . S
C1301 C1302 1.388 . S
C1302 H1289 0.930 . S
C1302 C1301 1.388 . S
C1302 C1303 1.390 . S
C1303 C1302 1.390 . S
C1303 C1304 1.394 . S
C1303 C1309 1.465 . S
C1304 C1299 1.399 . S
C1304 C1303 1.394 . S
C1304 C1305 1.516 . S
C1305 C1304 1.516 . S
C1305 C1306 1.502 . S
C1305 C1307 1.561 . S
C1305 C1308 1.526 . S
C1306 H1290 0.959 . S
C1306 H1291 0.959 . S
C1306 H1292 0.961 . S
C1306 C1305 1.502 . S
C1307 H1293 0.960 . S
C1307 H1294 0.961 . S
C1307 H1295 0.959 . S
C1307 C1305 1.561 . S
C1308 C1305 1.526 . S
C1308 C1309 1.396 . S
C1308 C1313 1.390 . S
C1309 C1303 1.465 . S
C1309 C1308 1.396 . S
C1309 C1310 1.399 . S
C1310 H1296 0.929 . S
C1310 C1309 1.399 . S
C1310 C1311 1.385 . S
C1311 H1297 0.931 . S
C1311 C1310 1.385 . S
C1311 C1312 1.389 . S
C1312 C1311 1.389 . S
C1312 C1313 1.387 . S
C1313 H1298 0.930 . S
C1313 C1308 1.390 . S
C1313 C1312 1.387 . S
H1314 C1326 0.930 . S
H1315 C1328 0.930 . S
H1316 C1329 0.930 . S
H1317 C1333 0.959 . S
H1318 C1333 0.959 . S
H1319 C1333 0.961 . S
H1320 C1334 0.960 . S
H1321 C1334 0.961 . S
H1322 C1334 0.959 . S
H1323 C1337 0.929 . S
H1324 C1338 0.931 . S
H1325 C1340 0.930 . S
C1326 H1314 0.930 . S
C1326 C1327 1.399 . S
C1326 C1331 1.399 . S
C1327 C1326 1.399 . S
C1327 C1328 1.376 . S
C1328 H1315 0.930 . S
C1328 C1327 1.376 . S
C1328 C1329 1.388 . S
C1329 H1316 0.930 . S
C1329 C1328 1.388 . S
C1329 C1330 1.390 . S
C1330 C1329 1.390 . S
C1330 C1331 1.394 . S
C1330 C1336 1.465 . S
C1331 C1326 1.399 . S
C1331 C1330 1.394 . S
C1331 C1332 1.516 . S
C1332 C1331 1.516 . S
C1332 C1333 1.502 . S
C1332 C1334 1.561 . S
C1332 C1335 1.526 . S
C1333 H1317 0.959 . S
C1333 H1318 0.959 . S
C1333 H1319 0.961 . S
C1333 C1332 1.502 . S
C1334 H1320 0.960 . S
C1334 H1321 0.961 . S
C1334 H1322 0.959 . S
C1334 C1332 1.561 . S
C1335 C1332 1.526 . S
C1335 C1336 1.396 . S
C1335 C1340 1.390 . S
C1336 C1330 1.465 . S
C1336 C1335 1.396 . S
C1336 C1337 1.399 . S
C1337 H1323 0.929 . S
C1337 C1336 1.399 . S
C1337 C1338 1.385 . S
C1338 H1324 0.931 . S
C1338 C1337 1.385 . S
C1338 C1339 1.389 . S
C1339 C1338 1.389 . S
C1339 C1340 1.387 . S
C1340 H1325 0.930 . S
C1340 C1335 1.390 . S
C1340 C1339 1.387 . S
H1341 C1353 0.930 . S
H1342 C1355 0.930 . S
H1343 C1356 0.930 . S
H1344 C1360 0.961 . S
H1345 C1360 0.959 . S
H1346 C1360 0.961 . S
H1347 C1361 0.960 . S
H1348 C1361 0.961 . S
H1349 C1361 0.959 . S
H1350 C1364 0.929 . S
H1351 C1365 0.931 . S
H1352 C1367 0.930 . S
C1353 H1341 0.930 . S
C1353 C1354 1.399 . S
C1353 C1358 1.399 . S
C1354 C1353 1.399 . S
C1354 C1355 1.376 . S
C1355 H1342 0.930 . S
C1355 C1354 1.376 . S
C1355 C1356 1.388 . S
C1356 H1343 0.930 . S
C1356 C1355 1.388 . S
C1356 C1357 1.390 . S
C1357 C1356 1.390 . S
C1357 C1358 1.394 . S
C1357 C1363 1.465 . S
C1358 C1353 1.399 . S
C1358 C1357 1.394 . S
C1358 C1359 1.516 . S
C1359 C1358 1.516 . S
C1359 C1360 1.502 1_545 S
C1359 C1361 1.561 1_545 S
C1359 C1362 1.526 . S
C1360 H1344 0.961 . S
C1360 H1345 0.959 . S
C1360 H1346 0.961 . S
C1360 C1359 1.502 1_565 S
C1361 H1347 0.960 . S
C1361 H1348 0.961 . S
C1361 H1349 0.959 . S
C1361 C1359 1.561 1_565 S
C1362 C1359 1.526 . S
C1362 C1363 1.396 . S
C1362 C1367 1.390 1_545 S
C1363 C1357 1.465 . S
C1363 C1362 1.396 . S
C1363 C1364 1.399 . S
C1364 H1350 0.929 . S
C1364 C1363 1.399 . S
C1364 C1365 1.385 . S
C1365 H1351 0.931 . S
C1365 C1364 1.385 . S
C1365 C1366 1.389 . S
C1366 C1365 1.389 . S
C1366 C1367 1.387 1_545 S
C1367 H1352 0.930 . S
C1367 C1362 1.390 1_565 S
C1367 C1366 1.387 1_565 S
H1368 C1380 0.930 1_655 S
H1369 C1382 0.930 . S
H1370 C1383 0.930 . S
H1371 C1387 0.959 . S
H1372 C1387 0.959 . S
H1373 C1387 0.961 . S
H1374 C1388 0.960 . S
H1375 C1388 0.961 . S
H1376 C1388 0.959 . S
H1377 C1391 0.929 . S
H1378 C1392 0.931 . S
H1379 C1394 0.930 . S
C1380 H1368 0.930 1_455 S
C1380 C1381 1.399 . S
C1380 C1385 1.399 . S
C1381 C1380 1.399 . S
C1381 C1382 1.376 . S
C1382 H1369 0.930 . S
C1382 C1381 1.376 . S
C1382 C1383 1.388 . S
C1383 H1370 0.930 . S
C1383 C1382 1.388 . S
C1383 C1384 1.390 . S
C1384 C1383 1.390 . S
C1384 C1385 1.394 . S
C1384 C1390 1.465 . S
C1385 C1380 1.399 . S
C1385 C1384 1.394 . S
C1385 C1386 1.516 . S
C1386 C1385 1.516 . S
C1386 C1387 1.502 1_455 S
C1386 C1388 1.561 . S
C1386 C1389 1.526 . S
C1387 H1371 0.959 . S
C1387 H1372 0.959 . S
C1387 H1373 0.961 . S
C1387 C1386 1.502 1_655 S
C1388 H1374 0.960 . S
C1388 H1375 0.961 . S
C1388 H1376 0.959 . S
C1388 C1386 1.561 . S
C1389 C1386 1.526 . S
C1389 C1390 1.396 . S
C1389 C1394 1.390 . S
C1390 C1384 1.465 . S
C1390 C1389 1.396 . S
C1390 C1391 1.399 . S
C1391 H1377 0.929 . S
C1391 C1390 1.399 . S
C1391 C1392 1.385 . S
C1392 H1378 0.931 . S
C1392 C1391 1.385 . S
C1392 C1393 1.389 . S
C1393 C1392 1.389 . S
C1393 C1394 1.387 . S
C1394 H1379 0.930 . S
C1394 C1389 1.390 . S
C1394 C1393 1.387 . S
H1395 C1407 0.930 . S
H1396 C1409 0.930 . S
H1397 C1410 0.930 . S
H1398 C1414 0.959 . S
H1399 C1414 0.959 . S
H1400 C1414 0.961 . S
H1401 C1415 0.960 . S
H1402 C1415 0.961 . S
H1403 C1415 0.959 . S
H1404 C1418 0.929 . S
H1405 C1419 0.931 . S
H1406 C1421 0.930 . S
C1407 H1395 0.930 . S
C1407 C1408 1.399 . S
C1407 C1412 1.399 . S
C1408 C1407 1.399 . S
C1408 C1409 1.376 . S
C1409 H1396 0.930 . S
C1409 C1408 1.376 . S
C1409 C1410 1.388 . S
C1410 H1397 0.930 . S
C1410 C1409 1.388 . S
C1410 C1411 1.390 . S
C1411 C1410 1.390 . S
C1411 C1412 1.394 . S
C1411 C1417 1.465 . S
C1412 C1407 1.399 . S
C1412 C1411 1.394 . S
C1412 C1413 1.516 . S
C1413 C1412 1.516 . S
C1413 C1414 1.502 . S
C1413 C1415 1.561 . S
C1413 C1416 1.526 . S
C1414 H1398 0.959 . S
C1414 H1399 0.959 . S
C1414 H1400 0.961 . S
C1414 C1413 1.502 . S
C1415 H1401 0.960 . S
C1415 H1402 0.961 . S
C1415 H1403 0.959 . S
C1415 C1413 1.561 . S
C1416 C1413 1.526 . S
C1416 C1417 1.396 . S
C1416 C1421 1.390 . S
C1417 C1411 1.465 . S
C1417 C1416 1.396 . S
C1417 C1418 1.399 . S
C1418 H1404 0.929 . S
C1418 C1417 1.399 . S
C1418 C1419 1.385 . S
C1419 H1405 0.931 . S
C1419 C1418 1.385 . S
C1419 C1420 1.389 . S
C1420 C1419 1.389 . S
C1420 C1421 1.387 . S
C1421 H1406 0.930 . S
C1421 C1416 1.390 . S
C1421 C1420 1.387 . S
H1422 C1434 0.930 . S
H1423 C1436 0.930 . S
H1424 C1437 0.930 . S
H1425 C1441 0.959 1_545 S
H1426 C1441 0.959 . S
H1427 C1441 0.961 . S
H1428 C1442 0.960 . S
H1429 C1442 0.961 . S
H1430 C1442 0.959 . S
H1431 C1445 0.929 . S
H1432 C1446 0.931 . S
H1433 C1448 0.930 . S
C1434 H1422 0.930 . S
C1434 C1435 1.399 1_565 S
C1434 C1439 1.399 1_565 S
C1435 C1434 1.399 1_545 S
C1435 C1436 1.376 . S
C1436 H1423 0.930 . S
C1436 C1435 1.376 . S
C1436 C1437 1.388 . S
C1437 H1424 0.930 . S
C1437 C1436 1.388 . S
C1437 C1438 1.390 . S
C1438 C1437 1.390 . S
C1438 C1439 1.394 . S
C1438 C1444 1.465 . S
C1439 C1434 1.399 1_545 S
C1439 C1438 1.394 . S
C1439 C1440 1.516 . S
C1440 C1439 1.516 . S
C1440 C1441 1.502 1_545 S
C1440 C1442 1.561 1_545 S
C1440 C1443 1.526 . S
C1441 H1425 0.959 1_565 S
C1441 H1426 0.959 . S
C1441 H1427 0.961 . S
C1441 C1440 1.502 1_565 S
C1442 H1428 0.960 . S
C1442 H1429 0.961 . S
C1442 H1430 0.959 . S
C1442 C1440 1.561 1_565 S
C1443 C1440 1.526 . S
C1443 C1444 1.396 . S
C1443 C1448 1.390 . S
C1444 C1438 1.465 . S
C1444 C1443 1.396 . S
C1444 C1445 1.399 . S
C1445 H1431 0.929 . S
C1445 C1444 1.399 . S
C1445 C1446 1.385 . S
C1446 H1432 0.931 . S
C1446 C1445 1.385 . S
C1446 C1447 1.389 . S
C1447 C1446 1.389 . S
C1447 C1448 1.387 . S
C1448 H1433 0.930 . S
C1448 C1443 1.390 . S
C1448 C1447 1.387 . S
H1449 C1461 0.930 . S
H1450 C1463 0.930 . S
H1451 C1464 0.930 . S
H1452 C1468 0.959 . S
H1453 C1468 0.959 . S
H1454 C1468 0.961 . S
H1455 C1469 0.960 1_655 S
H1456 C1469 0.961 . S
H1457 C1469 0.959 . S
H1458 C1472 0.929 . S
H1459 C1473 0.931 . S
H1460 C1475 0.930 . S
C1461 H1449 0.930 . S
C1461 C1462 1.399 1_655 S
C1461 C1466 1.399 1_655 S
C1462 C1461 1.399 1_455 S
C1462 C1463 1.376 . S
C1463 H1450 0.930 . S
C1463 C1462 1.376 . S
C1463 C1464 1.388 . S
C1464 H1451 0.930 . S
C1464 C1463 1.388 . S
C1464 C1465 1.390 . S
C1465 C1464 1.390 . S
C1465 C1466 1.394 . S
C1465 C1471 1.465 . S
C1466 C1461 1.399 1_455 S
C1466 C1465 1.394 . S
C1466 C1467 1.516 . S
C1467 C1466 1.516 . S
C1467 C1468 1.502 1_455 S
C1467 C1469 1.561 . S
C1467 C1470 1.526 . S
C1468 H1452 0.959 . S
C1468 H1453 0.959 . S
C1468 H1454 0.961 . S
C1468 C1467 1.502 1_655 S
C1469 H1455 0.960 1_455 S
C1469 H1456 0.961 . S
C1469 H1457 0.959 . S
C1469 C1467 1.561 . S
C1470 C1467 1.526 . S
C1470 C1471 1.396 . S
C1470 C1475 1.390 . S
C1471 C1465 1.465 . S
C1471 C1470 1.396 . S
C1471 C1472 1.399 . S
C1472 H1458 0.929 . S
C1472 C1471 1.399 . S
C1472 C1473 1.385 . S
C1473 H1459 0.931 . S
C1473 C1472 1.385 . S
C1473 C1474 1.389 . S
C1474 C1473 1.389 . S
C1474 C1475 1.387 . S
C1475 H1460 0.930 . S
C1475 C1470 1.390 . S
C1475 C1474 1.387 . S
H1476 C1488 0.930 . S
H1477 C1490 0.930 . S
H1478 C1491 0.930 . S
H1479 C1495 0.969 . S
H1480 C1495 0.998 . S
H1481 C1495 0.918 1_554 S
H1482 C1496 0.960 . S
H1483 C1496 0.961 1_556 S
H1484 C1496 0.959 . S
H1485 C1499 0.929 . S
H1486 C1500 0.931 . S
H1487 C1502 0.930 . S
C1488 H1476 0.930 . S
C1488 C1489 1.399 . S
C1488 C1493 1.399 . S
C1489 C1488 1.399 . S
C1489 C1490 1.376 . S
C1490 H1477 0.930 . S
C1490 C1489 1.376 . S
C1490 C1491 1.388 . S
C1491 H1478 0.930 . S
C1491 C1490 1.388 . S
C1491 C1492 1.390 . S
C1492 C1491 1.390 . S
C1492 C1493 1.394 . S
C1492 C1498 1.465 1_554 S
C1493 C1488 1.399 . S
C1493 C1492 1.394 . S
C1493 C1494 1.538 . S
C1494 C1493 1.538 . S
C1494 C1495 1.499 1_554 S
C1494 C1496 1.564 . S
C1494 C1497 1.503 1_554 S
C1495 H1479 0.969 . S
C1495 H1480 0.998 . S
C1495 H1481 0.918 1_556 S
C1495 C1494 1.499 1_556 S
C1496 H1482 0.960 . S
C1496 H1483 0.961 1_554 S
C1496 H1484 0.959 . S
C1496 C1494 1.564 . S
C1497 C1494 1.503 1_556 S
C1497 C1498 1.396 . S
C1497 C1502 1.390 . S
C1498 C1492 1.465 1_556 S
C1498 C1497 1.396 . S
C1498 C1499 1.399 . S
C1499 H1485 0.929 . S
C1499 C1498 1.399 . S
C1499 C1500 1.385 . S
C1500 H1486 0.931 . S
C1500 C1499 1.385 . S
C1500 C1501 1.389 . S
C1501 C1500 1.389 . S
C1501 C1502 1.387 . S
C1502 H1487 0.930 . S
C1502 C1497 1.390 . S
C1502 C1501 1.387 . S
H1503 C1515 0.930 . S
H1504 C1517 0.930 . S
H1505 C1518 0.930 . S
H1506 C1522 0.972 . S
H1507 C1522 1.008 . S
H1508 C1522 0.907 1_556 S
H1509 C1523 0.960 . S
H1510 C1523 0.961 1_554 S
H1511 C1523 0.959 . S
H1512 C1526 0.929 . S
H1513 C1527 0.931 . S
H1514 C1529 0.930 . S
C1515 H1503 0.930 . S
C1515 C1516 1.399 . S
C1515 C1520 1.399 . S
C1516 C1515 1.399 . S
C1516 C1517 1.376 . S
C1517 H1504 0.930 . S
C1517 C1516 1.376 . S
C1517 C1518 1.388 . S
C1518 H1505 0.930 . S
C1518 C1517 1.388 . S
C1518 C1519 1.390 . S
C1519 C1518 1.390 . S
C1519 C1520 1.394 . S
C1519 C1525 1.465 1_556 S
C1520 C1515 1.399 . S
C1520 C1519 1.394 . S
C1520 C1521 1.533 . S
C1521 C1520 1.533 . S
C1521 C1522 1.498 1_556 S
C1521 C1523 1.563 . S
C1521 C1524 1.509 1_556 S
C1522 H1506 0.972 . S
C1522 H1507 1.008 . S
C1522 H1508 0.907 1_554 S
C1522 C1521 1.498 1_554 S
C1523 H1509 0.960 . S
C1523 H1510 0.961 1_556 S
C1523 H1511 0.959 . S
C1523 C1521 1.563 . S
C1524 C1521 1.509 1_554 S
C1524 C1525 1.396 . S
C1524 C1529 1.390 . S
C1525 C1519 1.465 1_554 S
C1525 C1524 1.396 . S
C1525 C1526 1.399 . S
C1526 H1512 0.929 . S
C1526 C1525 1.399 . S
C1526 C1527 1.385 . S
C1527 H1513 0.931 . S
C1527 C1526 1.385 . S
C1527 C1528 1.389 . S
C1528 C1527 1.389 . S
C1528 C1529 1.387 . S
C1529 H1514 0.930 . S
C1529 C1524 1.390 . S
C1529 C1528 1.387 . S
H1530 C1542 0.930 . S
H1531 C1544 0.930 . S
H1532 C1545 0.930 . S
H1533 C1549 0.969 . S
H1534 C1549 0.959 1_554 S
H1535 C1549 0.961 . S
H1536 C1550 0.960 . S
H1537 C1550 0.961 1_554 S
H1538 C1550 0.967 . S
H1539 C1553 0.940 . S
H1540 C1554 0.931 1_565 S
H1541 C1556 0.930 . S
C1542 H1530 0.930 . S
C1542 C1543 1.399 . S
C1542 C1547 1.399 . S
C1543 C1542 1.399 . S
C1543 C1544 1.376 1_545 S
C1544 H1531 0.930 . S
C1544 C1543 1.376 1_565 S
C1544 C1545 1.388 . S
C1545 H1532 0.930 . S
C1545 C1544 1.388 . S
C1545 C1546 1.390 1_565 S
C1546 C1545 1.390 1_545 S
C1546 C1547 1.394 . S
C1546 C1552 1.465 1_556 S
C1547 C1542 1.399 . S
C1547 C1546 1.394 . S
C1547 C1548 1.516 . S
C1548 C1547 1.516 . S
C1548 C1549 1.502 . S
C1548 C1550 1.561 . S
C1548 C1551 1.526 1_556 S
C1549 H1533 0.969 . S
C1549 H1534 0.959 1_556 S
C1549 H1535 0.961 . S
C1549 C1548 1.502 . S
C1550 H1536 0.960 . S
C1550 H1537 0.961 1_556 S
C1550 H1538 0.967 . S
C1550 C1548 1.561 . S
C1551 C1548 1.526 1_554 S
C1551 C1552 1.396 . S
C1551 C1556 1.390 . S
C1552 C1546 1.465 1_554 S
C1552 C1551 1.396 . S
C1552 C1553 1.391 1_545 S
C1553 H1539 0.940 . S
C1553 C1552 1.391 1_565 S
C1553 C1554 1.382 1_565 S
C1554 H1540 0.931 1_545 S
C1554 C1553 1.382 1_545 S
C1554 C1555 1.389 . S
C1555 C1554 1.389 . S
C1555 C1556 1.387 . S
C1556 H1541 0.930 . S
C1556 C1551 1.390 . S
C1556 C1555 1.387 . S
H1557 C1569 0.930 . S
H1558 C1571 0.930 . S
H1559 C1572 0.930 . S
H1560 C1576 0.959 . S
H1561 C1576 0.959 1_554 S
H1562 C1576 0.961 . S
H1563 C1577 0.960 . S
H1564 C1577 0.961 1_554 S
H1565 C1577 0.959 1_454 S
H1566 C1580 0.929 . S
H1567 C1581 0.931 . S
H1568 C1583 0.930 1_655 S
C1569 H1557 0.930 . S
C1569 C1570 1.399 . S
C1569 C1574 1.399 . S
C1570 C1569 1.399 . S
C1570 C1571 1.376 . S
C1571 H1558 0.930 . S
C1571 C1570 1.376 . S
C1571 C1572 1.388 . S
C1572 H1559 0.930 . S
C1572 C1571 1.388 . S
C1572 C1573 1.390 . S
C1573 C1572 1.390 . S
C1573 C1574 1.394 . S
C1573 C1579 1.465 1_556 S
C1574 C1569 1.399 . S
C1574 C1573 1.394 . S
C1574 C1575 1.516 . S
C1575 C1574 1.516 . S
C1575 C1576 1.502 1_455 S
C1575 C1577 1.561 1_455 S
C1575 C1578 1.526 1_556 S
C1576 H1560 0.959 . S
C1576 H1561 0.959 1_556 S
C1576 H1562 0.961 . S
C1576 C1575 1.502 1_655 S
C1577 H1563 0.960 . S
C1577 H1564 0.961 1_556 S
C1577 H1565 0.959 1_656 S
C1577 C1575 1.561 1_655 S
C1578 C1575 1.526 1_554 S
C1578 C1579 1.396 . S
C1578 C1583 1.390 . S
C1579 C1573 1.465 1_554 S
C1579 C1578 1.396 . S
C1579 C1580 1.399 . S
C1580 H1566 0.929 . S
C1580 C1579 1.399 . S
C1580 C1581 1.385 . S
C1581 H1567 0.931 . S
C1581 C1580 1.385 . S
C1581 C1582 1.389 . S
C1582 C1581 1.389 . S
C1582 C1583 1.387 . S
C1583 H1568 0.930 1_455 S
C1583 C1578 1.390 . S
C1583 C1582 1.387 . S
H1584 C1596 0.930 . S
H1585 C1598 0.930 . S
H1586 C1599 0.930 . S
H1587 C1603 0.959 . S
H1588 C1603 0.959 1_556 S
H1589 C1603 0.961 . S
H1590 C1604 0.960 . S
H1591 C1604 0.961 1_556 S
H1592 C1604 0.957 1_556 S
H1593 C1607 0.929 . S
H1594 C1608 0.931 . S
H1595 C1610 0.930 . S
C1596 H1584 0.930 . S
C1596 C1597 1.399 . S
C1596 C1601 1.399 . S
C1597 C1596 1.399 . S
C1597 C1598 1.376 . S
C1598 H1585 0.930 . S
C1598 C1597 1.376 . S
C1598 C1599 1.388 . S
C1599 H1586 0.930 . S
C1599 C1598 1.388 . S
C1599 C1600 1.390 . S
C1600 C1599 1.390 . S
C1600 C1601 1.394 . S
C1600 C1606 1.465 1_554 S
C1601 C1596 1.399 . S
C1601 C1600 1.394 . S
C1601 C1602 1.516 . S
C1602 C1601 1.516 . S
C1602 C1603 1.502 . S
C1602 C1604 1.561 . S
C1602 C1605 1.526 1_554 S
C1603 H1587 0.959 . S
C1603 H1588 0.959 1_554 S
C1603 H1589 0.961 . S
C1603 C1602 1.502 . S
C1604 H1590 0.960 . S
C1604 H1591 0.961 1_554 S
C1604 H1592 0.957 1_554 S
C1604 C1602 1.561 . S
C1605 C1602 1.526 1_556 S
C1605 C1606 1.396 . S
C1605 C1610 1.390 . S
C1606 C1600 1.465 1_556 S
C1606 C1605 1.396 . S
C1606 C1607 1.399 . S
C1607 H1593 0.929 . S
C1607 C1606 1.399 . S
C1607 C1608 1.385 . S
C1608 H1594 0.931 . S
C1608 C1607 1.385 . S
C1608 C1609 1.389 . S
C1609 C1608 1.389 . S
C1609 C1610 1.387 . S
C1610 H1595 0.930 . S
C1610 C1605 1.390 . S
C1610 C1609 1.387 . S
H1611 C1623 0.930 1_565 S
H1612 C1625 0.930 . S
H1613 C1626 0.930 . S
H1614 C1630 0.959 . S
H1615 C1630 0.959 . S
H1616 C1630 0.961 1_556 S
H1617 C1631 0.960 1_556 S
H1618 C1631 0.961 . S
H1619 C1631 0.959 . S
H1620 C1634 0.929 . S
H1621 C1635 0.931 . S
H1622 C1637 0.930 . S
C1623 H1611 0.930 1_545 S
C1623 C1624 1.399 . S
C1623 C1628 1.399 . S
C1624 C1623 1.399 . S
C1624 C1625 1.376 . S
C1625 H1612 0.930 . S
C1625 C1624 1.376 . S
C1625 C1626 1.388 . S
C1626 H1613 0.930 . S
C1626 C1625 1.388 . S
C1626 C1627 1.390 . S
C1627 C1626 1.390 . S
C1627 C1628 1.394 . S
C1627 C1633 1.465 1_556 S
C1628 C1623 1.399 . S
C1628 C1627 1.394 . S
C1628 C1629 1.514 1_546 S
C1629 C1628 1.514 1_564 S
C1629 C1630 1.502 . S
C1629 C1631 1.567 . S
C1629 C1632 1.522 1_565 S
C1630 H1614 0.959 . S
C1630 H1615 0.959 . S
C1630 H1616 0.961 1_554 S
C1630 C1629 1.502 . S
C1631 H1617 0.960 1_554 S
C1631 H1618 0.961 . S
C1631 H1619 0.959 . S
C1631 C1629 1.567 . S
C1632 C1629 1.522 1_545 S
C1632 C1633 1.396 . S
C1632 C1637 1.390 . S
C1633 C1627 1.465 1_554 S
C1633 C1632 1.396 . S
C1633 C1634 1.399 . S
C1634 H1620 0.929 . S
C1634 C1633 1.399 . S
C1634 C1635 1.385 . S
C1635 H1621 0.931 . S
C1635 C1634 1.385 . S
C1635 C1636 1.389 . S
C1636 C1635 1.389 . S
C1636 C1637 1.387 . S
C1637 H1622 0.930 . S
C1637 C1632 1.390 . S
C1637 C1636 1.387 . S
H1638 C1650 0.930 . S
H1639 C1652 0.930 . S
H1640 C1653 0.930 . S
H1641 C1657 0.959 . S
H1642 C1657 0.959 . S
H1643 C1657 0.961 . S
H1644 C1658 0.960 . S
H1645 C1658 0.961 . S
H1646 C1658 0.959 . S
H1647 C1661 0.929 . S
H1648 C1662 0.931 . S
H1649 C1664 0.930 . S
C1650 H1638 0.930 . S
C1650 C1651 1.399 . S
C1650 C1655 1.399 . S
C1651 C1650 1.399 . S
C1651 C1652 1.376 . S
C1652 H1639 0.930 . S
C1652 C1651 1.376 . S
C1652 C1653 1.388 . S
C1653 H1640 0.930 . S
C1653 C1652 1.388 . S
C1653 C1654 1.390 . S
C1654 C1653 1.390 . S
C1654 C1655 1.394 . S
C1654 C1660 1.465 . S
C1655 C1650 1.399 . S
C1655 C1654 1.394 . S
C1655 C1656 1.516 . S
C1656 C1655 1.516 . S
C1656 C1657 1.502 . S
C1656 C1658 1.561 . S
C1656 C1659 1.526 . S
C1657 H1641 0.959 . S
C1657 H1642 0.959 . S
C1657 H1643 0.961 . S
C1657 C1656 1.502 . S
C1658 H1644 0.960 . S
C1658 H1645 0.961 . S
C1658 H1646 0.959 . S
C1658 C1656 1.561 . S
C1659 C1656 1.526 . S
C1659 C1660 1.396 . S
C1659 C1664 1.390 . S
C1660 C1654 1.465 . S
C1660 C1659 1.396 . S
C1660 C1661 1.399 . S
C1661 H1647 0.929 . S
C1661 C1660 1.399 . S
C1661 C1662 1.385 . S
C1662 H1648 0.931 . S
C1662 C1661 1.385 . S
C1662 C1663 1.389 . S
C1663 C1662 1.389 . S
C1663 C1664 1.387 . S
C1664 H1649 0.930 . S
C1664 C1659 1.390 . S
C1664 C1663 1.387 . S
H1665 C1677 0.930 . S
H1666 C1679 0.930 . S
H1667 C1680 0.930 . S
H1668 C1684 0.959 . S
H1669 C1684 0.959 . S
H1670 C1684 0.961 . S
H1671 C1685 0.960 . S
H1672 C1685 0.961 . S
H1673 C1685 0.959 . S
H1674 C1688 0.929 . S
H1675 C1689 0.931 . S
H1676 C1691 0.930 . S
C1677 H1665 0.930 . S
C1677 C1678 1.399 . S
C1677 C1682 1.399 . S
C1678 C1677 1.399 . S
C1678 C1679 1.376 . S
C1679 H1666 0.930 . S
C1679 C1678 1.376 . S
C1679 C1680 1.388 . S
C1680 H1667 0.930 . S
C1680 C1679 1.388 . S
C1680 C1681 1.390 . S
C1681 C1680 1.390 . S
C1681 C1682 1.394 . S
C1681 C1687 1.465 . S
C1682 C1677 1.399 . S
C1682 C1681 1.394 . S
C1682 C1683 1.516 . S
C1683 C1682 1.516 . S
C1683 C1684 1.502 . S
C1683 C1685 1.561 . S
C1683 C1686 1.526 . S
C1684 H1668 0.959 . S
C1684 H1669 0.959 . S
C1684 H1670 0.961 . S
C1684 C1683 1.502 . S
C1685 H1671 0.960 . S
C1685 H1672 0.961 . S
C1685 H1673 0.959 . S
C1685 C1683 1.561 . S
C1686 C1683 1.526 . S
C1686 C1687 1.396 . S
C1686 C1691 1.390 . S
C1687 C1681 1.465 . S
C1687 C1686 1.396 . S
C1687 C1688 1.399 . S
C1688 H1674 0.929 . S
C1688 C1687 1.399 . S
C1688 C1689 1.385 . S
C1689 H1675 0.931 . S
C1689 C1688 1.385 . S
C1689 C1690 1.389 . S
C1690 C1689 1.389 . S
C1690 C1691 1.387 . S
C1691 H1676 0.930 . S
C1691 C1686 1.390 . S
C1691 C1690 1.387 . S
H1692 C1704 0.930 . S
H1693 C1706 0.930 . S
H1694 C1707 0.930 . S
H1695 C1711 0.959 . S
H1696 C1711 0.959 . S
H1697 C1711 0.961 . S
H1698 C1712 0.960 . S
H1699 C1712 0.961 . S
H1700 C1712 0.959 . S
H1701 C1715 0.929 . S
H1702 C1716 0.931 . S
H1703 C1718 0.930 . S
C1704 H1692 0.930 . S
C1704 C1705 1.399 . S
C1704 C1709 1.399 . S
C1705 C1704 1.399 . S
C1705 C1706 1.376 . S
C1706 H1693 0.930 . S
C1706 C1705 1.376 . S
C1706 C1707 1.388 . S
C1707 H1694 0.930 . S
C1707 C1706 1.388 . S
C1707 C1708 1.390 . S
C1708 C1707 1.390 . S
C1708 C1709 1.394 . S
C1708 C1714 1.465 . S
C1709 C1704 1.399 . S
C1709 C1708 1.394 . S
C1709 C1710 1.516 . S
C1710 C1709 1.516 . S
C1710 C1711 1.502 . S
C1710 C1712 1.561 . S
C1710 C1713 1.526 . S
C1711 H1695 0.959 . S
C1711 H1696 0.959 . S
C1711 H1697 0.961 . S
C1711 C1710 1.502 . S
C1712 H1698 0.960 . S
C1712 H1699 0.961 . S
C1712 H1700 0.959 . S
C1712 C1710 1.561 . S
C1713 C1710 1.526 . S
C1713 C1714 1.396 . S
C1713 C1718 1.390 . S
C1714 C1708 1.465 . S
C1714 C1713 1.396 . S
C1714 C1715 1.399 . S
C1715 H1701 0.929 . S
C1715 C1714 1.399 . S
C1715 C1716 1.385 . S
C1716 H1702 0.931 . S
C1716 C1715 1.385 . S
C1716 C1717 1.389 . S
C1717 C1716 1.389 . S
C1717 C1718 1.387 . S
C1718 H1703 0.930 . S
C1718 C1713 1.390 . S
C1718 C1717 1.387 . S
H1719 C1731 0.930 . S
H1720 C1733 0.930 . S
H1721 C1734 0.930 . S
H1722 C1738 0.959 . S
H1723 C1738 0.959 . S
H1724 C1738 0.961 . S
H1725 C1739 0.960 . S
H1726 C1739 0.961 . S
H1727 C1739 0.959 . S
H1728 C1742 0.929 . S
H1729 C1743 0.931 . S
H1730 C1745 0.930 . S
C1731 H1719 0.930 . S
C1731 C1732 1.399 . S
C1731 C1736 1.399 . S
C1732 C1731 1.399 . S
C1732 C1733 1.376 . S
C1733 H1720 0.930 . S
C1733 C1732 1.376 . S
C1733 C1734 1.388 . S
C1734 H1721 0.930 . S
C1734 C1733 1.388 . S
C1734 C1735 1.390 . S
C1735 C1734 1.390 . S
C1735 C1736 1.394 . S
C1735 C1741 1.465 . S
C1736 C1731 1.399 . S
C1736 C1735 1.394 . S
C1736 C1737 1.516 . S
C1737 C1736 1.516 . S
C1737 C1738 1.502 . S
C1737 C1739 1.561 . S
C1737 C1740 1.526 . S
C1738 H1722 0.959 . S
C1738 H1723 0.959 . S
C1738 H1724 0.961 . S
C1738 C1737 1.502 . S
C1739 H1725 0.960 . S
C1739 H1726 0.961 . S
C1739 H1727 0.959 . S
C1739 C1737 1.561 . S
C1740 C1737 1.526 . S
C1740 C1741 1.396 . S
C1740 C1745 1.390 . S
C1741 C1735 1.465 . S
C1741 C1740 1.396 . S
C1741 C1742 1.399 . S
C1742 H1728 0.929 . S
C1742 C1741 1.399 . S
C1742 C1743 1.385 . S
C1743 H1729 0.931 . S
C1743 C1742 1.385 . S
C1743 C1744 1.389 . S
C1744 C1743 1.389 . S
C1744 C1745 1.387 . S
C1745 H1730 0.930 . S
C1745 C1740 1.390 . S
C1745 C1744 1.387 . S
H1746 C1758 0.930 . S
H1747 C1760 0.930 . S
H1748 C1761 0.930 . S
H1749 C1765 0.959 . S
H1750 C1765 0.959 . S
H1751 C1765 0.961 . S
H1752 C1766 0.960 . S
H1753 C1766 0.961 . S
H1754 C1766 0.959 . S
H1755 C1769 0.929 . S
H1756 C1770 0.931 . S
H1757 C1772 0.930 . S
C1758 H1746 0.930 . S
C1758 C1759 1.399 . S
C1758 C1763 1.399 . S
C1759 C1758 1.399 . S
C1759 C1760 1.376 . S
C1760 H1747 0.930 . S
C1760 C1759 1.376 . S
C1760 C1761 1.388 . S
C1761 H1748 0.930 . S
C1761 C1760 1.388 . S
C1761 C1762 1.390 . S
C1762 C1761 1.390 . S
C1762 C1763 1.394 . S
C1762 C1768 1.465 . S
C1763 C1758 1.399 . S
C1763 C1762 1.394 . S
C1763 C1764 1.516 . S
C1764 C1763 1.516 . S
C1764 C1765 1.502 . S
C1764 C1766 1.561 . S
C1764 C1767 1.526 . S
C1765 H1749 0.959 . S
C1765 H1750 0.959 . S
C1765 H1751 0.961 . S
C1765 C1764 1.502 . S
C1766 H1752 0.960 . S
C1766 H1753 0.961 . S
C1766 H1754 0.959 . S
C1766 C1764 1.561 . S
C1767 C1764 1.526 . S
C1767 C1768 1.396 . S
C1767 C1772 1.390 . S
C1768 C1762 1.465 . S
C1768 C1767 1.396 . S
C1768 C1769 1.399 . S
C1769 H1755 0.929 . S
C1769 C1768 1.399 . S
C1769 C1770 1.385 . S
C1770 H1756 0.931 . S
C1770 C1769 1.385 . S
C1770 C1771 1.389 . S
C1771 C1770 1.389 . S
C1771 C1772 1.387 . S
C1772 H1757 0.930 . S
C1772 C1767 1.390 . S
C1772 C1771 1.387 . S
H1773 C1785 0.930 . S
H1774 C1787 0.930 . S
H1775 C1788 0.930 . S
H1776 C1792 0.959 . S
H1777 C1792 0.959 . S
H1778 C1792 0.961 . S
H1779 C1793 0.960 . S
H1780 C1793 0.961 . S
H1781 C1793 0.959 . S
H1782 C1796 0.929 . S
H1783 C1797 0.931 . S
H1784 C1799 0.930 . S
C1785 H1773 0.930 . S
C1785 C1786 1.399 . S
C1785 C1790 1.399 . S
C1786 C1785 1.399 . S
C1786 C1787 1.376 . S
C1787 H1774 0.930 . S
C1787 C1786 1.376 . S
C1787 C1788 1.388 . S
C1788 H1775 0.930 . S
C1788 C1787 1.388 . S
C1788 C1789 1.390 . S
C1789 C1788 1.390 . S
C1789 C1790 1.394 . S
C1789 C1795 1.465 . S
C1790 C1785 1.399 . S
C1790 C1789 1.394 . S
C1790 C1791 1.516 . S
C1791 C1790 1.516 . S
C1791 C1792 1.502 . S
C1791 C1793 1.561 . S
C1791 C1794 1.526 . S
C1792 H1776 0.959 . S
C1792 H1777 0.959 . S
C1792 H1778 0.961 . S
C1792 C1791 1.502 . S
C1793 H1779 0.960 . S
C1793 H1780 0.961 . S
C1793 H1781 0.959 . S
C1793 C1791 1.561 . S
C1794 C1791 1.526 . S
C1794 C1795 1.396 . S
C1794 C1799 1.390 . S
C1795 C1789 1.465 . S
C1795 C1794 1.396 . S
C1795 C1796 1.399 . S
C1796 H1782 0.929 . S
C1796 C1795 1.399 . S
C1796 C1797 1.385 . S
C1797 H1783 0.931 . S
C1797 C1796 1.385 . S
C1797 C1798 1.389 . S
C1798 C1797 1.389 . S
C1798 C1799 1.387 . S
C1799 H1784 0.930 . S
C1799 C1794 1.390 . S
C1799 C1798 1.387 . S
H1800 C1812 0.930 . S
H1801 C1814 0.930 . S
H1802 C1815 0.930 . S
H1803 C1819 0.959 . S
H1804 C1819 0.959 1_545 S
H1805 C1819 0.961 1_545 S
H1806 C1820 0.960 . S
H1807 C1820 0.961 . S
H1808 C1820 0.959 1_565 S
H1809 C1823 0.929 . S
H1810 C1824 0.931 . S
H1811 C1826 0.930 . S
C1812 H1800 0.930 . S
C1812 C1813 1.399 . S
C1812 C1817 1.399 . S
C1813 C1812 1.399 . S
C1813 C1814 1.376 . S
C1814 H1801 0.930 . S
C1814 C1813 1.376 . S
C1814 C1815 1.388 . S
C1815 H1802 0.930 . S
C1815 C1814 1.388 . S
C1815 C1816 1.390 . S
C1816 C1815 1.390 . S
C1816 C1817 1.394 . S
C1816 C1822 1.465 . S
C1817 C1812 1.399 . S
C1817 C1816 1.394 . S
C1817 C1818 1.516 . S
C1818 C1817 1.516 . S
C1818 C1819 1.502 . S
C1818 C1820 1.561 1_565 S
C1818 C1821 1.526 . S
C1819 H1803 0.959 . S
C1819 H1804 0.959 1_565 S
C1819 H1805 0.961 1_565 S
C1819 C1818 1.502 . S
C1820 H1806 0.960 . S
C1820 H1807 0.961 . S
C1820 H1808 0.959 1_545 S
C1820 C1818 1.561 1_545 S
C1821 C1818 1.526 . S
C1821 C1822 1.396 . S
C1821 C1826 1.390 . S
C1822 C1816 1.465 . S
C1822 C1821 1.396 . S
C1822 C1823 1.399 . S
C1823 H1809 0.929 . S
C1823 C1822 1.399 . S
C1823 C1824 1.385 . S
C1824 H1810 0.931 . S
C1824 C1823 1.385 . S
C1824 C1825 1.389 . S
C1825 C1824 1.389 . S
C1825 C1826 1.387 . S
C1826 H1811 0.930 . S
C1826 C1821 1.390 . S
C1826 C1825 1.387 . S
H1827 C1839 0.930 . S
H1828 C1841 0.930 . S
H1829 C1842 0.930 . S
H1830 C1846 0.959 . S
H1831 C1846 0.959 . S
H1832 C1846 0.961 . S
H1833 C1847 0.960 . S
H1834 C1847 0.961 . S
H1835 C1847 0.959 . S
H1836 C1850 0.929 . S
H1837 C1851 0.931 . S
H1838 C1853 0.930 . S
C1839 H1827 0.930 . S
C1839 C1840 1.399 . S
C1839 C1844 1.399 . S
C1840 C1839 1.399 . S
C1840 C1841 1.376 . S
C1841 H1828 0.930 . S
C1841 C1840 1.376 . S
C1841 C1842 1.388 . S
C1842 H1829 0.930 . S
C1842 C1841 1.388 . S
C1842 C1843 1.390 . S
C1843 C1842 1.390 . S
C1843 C1844 1.394 . S
C1843 C1849 1.465 . S
C1844 C1839 1.399 . S
C1844 C1843 1.394 . S
C1844 C1845 1.516 . S
C1845 C1844 1.516 . S
C1845 C1846 1.502 . S
C1845 C1847 1.561 . S
C1845 C1848 1.526 . S
C1846 H1830 0.959 . S
C1846 H1831 0.959 . S
C1846 H1832 0.961 . S
C1846 C1845 1.502 . S
C1847 H1833 0.960 . S
C1847 H1834 0.961 . S
C1847 H1835 0.959 . S
C1847 C1845 1.561 . S
C1848 C1845 1.526 . S
C1848 C1849 1.396 . S
C1848 C1853 1.390 . S
C1849 C1843 1.465 . S
C1849 C1848 1.396 . S
C1849 C1850 1.399 . S
C1850 H1836 0.929 . S
C1850 C1849 1.399 . S
C1850 C1851 1.385 . S
C1851 H1837 0.931 . S
C1851 C1850 1.385 . S
C1851 C1852 1.389 . S
C1852 C1851 1.389 . S
C1852 C1853 1.387 . S
C1853 H1838 0.930 . S
C1853 C1848 1.390 . S
C1853 C1852 1.387 . S
H1854 C1866 0.930 . S
H1855 C1868 0.930 . S
H1856 C1869 0.930 . S
H1857 C1873 0.959 . S
H1858 C1873 0.959 . S
H1859 C1873 0.961 . S
H1860 C1874 0.960 . S
H1861 C1874 0.961 . S
H1862 C1874 0.959 . S
H1863 C1877 0.929 . S
H1864 C1878 0.931 . S
H1865 C1880 0.930 . S
C1866 H1854 0.930 . S
C1866 C1867 1.399 . S
C1866 C1871 1.399 . S
C1867 C1866 1.399 . S
C1867 C1868 1.376 . S
C1868 H1855 0.930 . S
C1868 C1867 1.376 . S
C1868 C1869 1.388 . S
C1869 H1856 0.930 . S
C1869 C1868 1.388 . S
C1869 C1870 1.390 . S
C1870 C1869 1.390 . S
C1870 C1871 1.394 . S
C1870 C1876 1.465 . S
C1871 C1866 1.399 . S
C1871 C1870 1.394 . S
C1871 C1872 1.516 . S
C1872 C1871 1.516 . S
C1872 C1873 1.502 . S
C1872 C1874 1.561 . S
C1872 C1875 1.526 . S
C1873 H1857 0.959 . S
C1873 H1858 0.959 . S
C1873 H1859 0.961 . S
C1873 C1872 1.502 . S
C1874 H1860 0.960 . S
C1874 H1861 0.961 . S
C1874 H1862 0.959 . S
C1874 C1872 1.561 . S
C1875 C1872 1.526 . S
C1875 C1876 1.396 . S
C1875 C1880 1.390 . S
C1876 C1870 1.465 . S
C1876 C1875 1.396 . S
C1876 C1877 1.399 . S
C1877 H1863 0.929 . S
C1877 C1876 1.399 . S
C1877 C1878 1.385 . S
C1878 H1864 0.931 . S
C1878 C1877 1.385 . S
C1878 C1879 1.389 . S
C1879 C1878 1.389 . S
C1879 C1880 1.387 . S
C1880 H1865 0.930 . S
C1880 C1875 1.390 . S
C1880 C1879 1.387 . S
H1881 C1893 0.930 . S
H1882 C1895 0.930 . S
H1883 C1896 0.930 . S
H1884 C1900 0.959 . S
H1885 C1900 0.959 . S
H1886 C1900 0.961 . S
H1887 C1901 0.960 . S
H1888 C1901 0.961 . S
H1889 C1901 0.959 . S
H1890 C1904 0.929 . S
H1891 C1905 0.931 . S
H1892 C1907 0.930 . S
C1893 H1881 0.930 . S
C1893 C1894 1.399 . S
C1893 C1898 1.399 . S
C1894 C1893 1.399 . S
C1894 C1895 1.376 . S
C1895 H1882 0.930 . S
C1895 C1894 1.376 . S
C1895 C1896 1.388 . S
C1896 H1883 0.930 . S
C1896 C1895 1.388 . S
C1896 C1897 1.390 . S
C1897 C1896 1.390 . S
C1897 C1898 1.394 . S
C1897 C1903 1.465 . S
C1898 C1893 1.399 . S
C1898 C1897 1.394 . S
C1898 C1899 1.516 . S
C1899 C1898 1.516 . S
C1899 C1900 1.502 . S
C1899 C1901 1.561 . S
C1899 C1902 1.526 . S
C1900 H1884 0.959 . S
C1900 H1885 0.959 . S
C1900 H1886 0.961 . S
C1900 C1899 1.502 . S
C1901 H1887 0.960 . S
C1901 H1888 0.961 . S
C1901 H1889 0.959 . S
C1901 C1899 1.561 . S
C1902 C1899 1.526 . S
C1902 C1903 1.396 . S
C1902 C1907 1.390 . S
C1903 C1897 1.465 . S
C1903 C1902 1.396 . S
C1903 C1904 1.399 . S
C1904 H1890 0.929 . S
C1904 C1903 1.399 . S
C1904 C1905 1.385 . S
C1905 H1891 0.931 . S
C1905 C1904 1.385 . S
C1905 C1906 1.389 . S
C1906 C1905 1.389 . S
C1906 C1907 1.387 . S
C1907 H1892 0.930 . S
C1907 C1902 1.390 . S
C1907 C1906 1.387 . S
H1908 C1920 0.930 . S
H1909 C1922 0.930 . S
H1910 C1923 0.930 . S
H1911 C1927 0.959 . S
H1912 C1927 0.959 1_545 S
H1913 C1927 0.965 . S
H1914 C1928 0.960 . S
H1915 C1928 0.961 . S
H1916 C1928 0.959 . S
H1917 C1931 0.929 . S
H1918 C1932 0.931 . S
H1919 C1934 0.930 . S
C1920 H1908 0.930 . S
C1920 C1921 1.399 . S
C1920 C1925 1.399 . S
C1921 C1920 1.399 . S
C1921 C1922 1.376 . S
C1922 H1909 0.930 . S
C1922 C1921 1.376 . S
C1922 C1923 1.388 . S
C1923 H1910 0.930 . S
C1923 C1922 1.388 . S
C1923 C1924 1.390 . S
C1924 C1923 1.390 . S
C1924 C1925 1.394 . S
C1924 C1930 1.465 . S
C1925 C1920 1.399 . S
C1925 C1924 1.394 . S
C1925 C1926 1.516 . S
C1926 C1925 1.516 . S
C1926 C1927 1.502 . S
C1926 C1928 1.561 1_565 S
C1926 C1929 1.526 . S
C1927 H1911 0.959 . S
C1927 H1912 0.959 1_565 S
C1927 H1913 0.965 . S
C1927 C1926 1.502 . S
C1928 H1914 0.960 . S
C1928 H1915 0.961 . S
C1928 H1916 0.959 . S
C1928 C1926 1.561 1_545 S
C1929 C1926 1.526 . S
C1929 C1930 1.396 . S
C1929 C1934 1.390 . S
C1930 C1924 1.465 . S
C1930 C1929 1.396 . S
C1930 C1931 1.399 . S
C1931 H1917 0.929 . S
C1931 C1930 1.399 . S
C1931 C1932 1.385 . S
C1932 H1918 0.931 . S
C1932 C1931 1.385 . S
C1932 C1933 1.389 . S
C1933 C1932 1.389 . S
C1933 C1934 1.387 . S
C1934 H1919 0.930 . S
C1934 C1929 1.390 . S
C1934 C1933 1.387 . S
H1935 C1947 0.930 . S
H1936 C1949 0.930 . S
H1937 C1950 0.930 . S
H1938 C1954 0.959 . S
H1939 C1954 0.959 . S
H1940 C1954 0.961 . S
H1941 C1955 0.960 . S
H1942 C1955 0.961 . S
H1943 C1955 0.959 . S
H1944 C1958 0.929 . S
H1945 C1959 0.931 . S
H1946 C1961 0.930 . S
C1947 H1935 0.930 . S
C1947 C1948 1.399 . S
C1947 C1952 1.399 . S
C1948 C1947 1.399 . S
C1948 C1949 1.376 . S
C1949 H1936 0.930 . S
C1949 C1948 1.376 . S
C1949 C1950 1.388 . S
C1950 H1937 0.930 . S
C1950 C1949 1.388 . S
C1950 C1951 1.390 . S
C1951 C1950 1.390 . S
C1951 C1952 1.394 . S
C1951 C1957 1.465 . S
C1952 C1947 1.399 . S
C1952 C1951 1.394 . S
C1952 C1953 1.516 . S
C1953 C1952 1.516 . S
C1953 C1954 1.502 . S
C1953 C1955 1.561 . S
C1953 C1956 1.526 . S
C1954 H1938 0.959 . S
C1954 H1939 0.959 . S
C1954 H1940 0.961 . S
C1954 C1953 1.502 . S
C1955 H1941 0.960 . S
C1955 H1942 0.961 . S
C1955 H1943 0.959 . S
C1955 C1953 1.561 . S
C1956 C1953 1.526 . S
C1956 C1957 1.396 . S
C1956 C1961 1.390 . S
C1957 C1951 1.465 . S
C1957 C1956 1.396 . S
C1957 C1958 1.399 . S
C1958 H1944 0.929 . S
C1958 C1957 1.399 . S
C1958 C1959 1.385 . S
C1959 H1945 0.931 . S
C1959 C1958 1.385 . S
C1959 C1960 1.389 . S
C1960 C1959 1.389 . S
C1960 C1961 1.387 . S
C1961 H1946 0.930 . S
C1961 C1956 1.390 . S
C1961 C1960 1.387 . S
H1962 C1974 0.930 . S
H1963 C1976 0.930 . S
H1964 C1977 0.930 . S
H1965 C1981 0.959 . S
H1966 C1981 0.959 . S
H1967 C1981 0.961 . S
H1968 C1982 0.960 . S
H1969 C1982 0.961 . S
H1970 C1982 0.959 . S
H1971 C1985 0.929 . S
H1972 C1986 0.931 . S
H1973 C1988 0.930 . S
C1974 H1962 0.930 . S
C1974 C1975 1.399 . S
C1974 C1979 1.399 . S
C1975 C1974 1.399 . S
C1975 C1976 1.376 . S
C1976 H1963 0.930 . S
C1976 C1975 1.376 . S
C1976 C1977 1.388 . S
C1977 H1964 0.930 . S
C1977 C1976 1.388 . S
C1977 C1978 1.390 . S
C1978 C1977 1.390 . S
C1978 C1979 1.394 . S
C1978 C1984 1.465 . S
C1979 C1974 1.399 . S
C1979 C1978 1.394 . S
C1979 C1980 1.516 . S
C1980 C1979 1.516 . S
C1980 C1981 1.502 . S
C1980 C1982 1.561 . S
C1980 C1983 1.526 . S
C1981 H1965 0.959 . S
C1981 H1966 0.959 . S
C1981 H1967 0.961 . S
C1981 C1980 1.502 . S
C1982 H1968 0.960 . S
C1982 H1969 0.961 . S
C1982 H1970 0.959 . S
C1982 C1980 1.561 . S
C1983 C1980 1.526 . S
C1983 C1984 1.396 . S
C1983 C1988 1.390 . S
C1984 C1978 1.465 . S
C1984 C1983 1.396 . S
C1984 C1985 1.399 . S
C1985 H1971 0.929 . S
C1985 C1984 1.399 . S
C1985 C1986 1.385 . S
C1986 H1972 0.931 . S
C1986 C1985 1.385 . S
C1986 C1987 1.389 . S
C1987 C1986 1.389 . S
C1987 C1988 1.387 . S
C1988 H1973 0.930 . S
C1988 C1983 1.390 . S
C1988 C1987 1.387 . S
H1989 C2001 0.930 . S
H1990 C2003 0.930 . S
H1991 C2004 0.930 . S
H1992 C2008 0.959 . S
H1993 C2008 0.959 . S
H1994 C2008 0.961 . S
H1995 C2009 0.960 . S
H1996 C2009 0.961 . S
H1997 C2009 0.959 . S
H1998 C2012 0.929 . S
H1999 C2013 0.931 . S
H2000 C2015 0.930 . S
C2001 H1989 0.930 . S
C2001 C2002 1.399 . S
C2001 C2006 1.399 . S
C2002 C2001 1.399 . S
C2002 C2003 1.376 . S
C2003 H1990 0.930 . S
C2003 C2002 1.376 . S
C2003 C2004 1.388 . S
C2004 H1991 0.930 . S
C2004 C2003 1.388 . S
C2004 C2005 1.390 . S
C2005 C2004 1.390 . S
C2005 C2006 1.394 . S
C2005 C2011 1.465 . S
C2006 C2001 1.399 . S
C2006 C2005 1.394 . S
C2006 C2007 1.516 . S
C2007 C2006 1.516 . S
C2007 C2008 1.502 . S
C2007 C2009 1.561 . S
C2007 C2010 1.526 . S
C2008 H1992 0.959 . S
C2008 H1993 0.959 . S
C2008 H1994 0.961 . S
C2008 C2007 1.502 . S
C2009 H1995 0.960 . S
C2009 H1996 0.961 . S
C2009 H1997 0.959 . S
C2009 C2007 1.561 . S
C2010 C2007 1.526 . S
C2010 C2011 1.396 . S
C2010 C2015 1.390 . S
C2011 C2005 1.465 . S
C2011 C2010 1.396 . S
C2011 C2012 1.399 . S
C2012 H1998 0.929 . S
C2012 C2011 1.399 . S
C2012 C2013 1.385 . S
C2013 H1999 0.931 . S
C2013 C2012 1.385 . S
C2013 C2014 1.389 . S
C2014 C2013 1.389 . S
C2014 C2015 1.387 . S
C2015 H2000 0.930 . S
C2015 C2010 1.390 . S
C2015 C2014 1.387 . S
H2016 C2028 0.930 . S
H2017 C2030 0.930 . S
H2018 C2031 0.930 . S
H2019 C2035 0.959 . S
H2020 C2035 0.959 . S
H2021 C2035 0.961 . S
H2022 C2036 0.960 . S
H2023 C2036 0.961 . S
H2024 C2036 0.959 . S
H2025 C2039 0.929 . S
H2026 C2040 0.931 . S
H2027 C2042 0.930 . S
C2028 H2016 0.930 . S
C2028 C2029 1.399 . S
C2028 C2033 1.399 . S
C2029 C2028 1.399 . S
C2029 C2030 1.376 . S
C2030 H2017 0.930 . S
C2030 C2029 1.376 . S
C2030 C2031 1.388 . S
C2031 H2018 0.930 . S
C2031 C2030 1.388 . S
C2031 C2032 1.390 . S
C2032 C2031 1.390 . S
C2032 C2033 1.394 . S
C2032 C2038 1.465 . S
C2033 C2028 1.399 . S
C2033 C2032 1.394 . S
C2033 C2034 1.516 . S
C2034 C2033 1.516 . S
C2034 C2035 1.502 . S
C2034 C2036 1.561 . S
C2034 C2037 1.526 . S
C2035 H2019 0.959 . S
C2035 H2020 0.959 . S
C2035 H2021 0.961 . S
C2035 C2034 1.502 . S
C2036 H2022 0.960 . S
C2036 H2023 0.961 . S
C2036 H2024 0.959 . S
C2036 C2034 1.561 . S
C2037 C2034 1.526 . S
C2037 C2038 1.396 . S
C2037 C2042 1.390 . S
C2038 C2032 1.465 . S
C2038 C2037 1.396 . S
C2038 C2039 1.399 . S
C2039 H2025 0.929 . S
C2039 C2038 1.399 . S
C2039 C2040 1.385 . S
C2040 H2026 0.931 . S
C2040 C2039 1.385 . S
C2040 C2041 1.389 . S
C2041 C2040 1.389 . S
C2041 C2042 1.387 . S
C2042 H2027 0.930 . S
C2042 C2037 1.390 . S
C2042 C2041 1.387 . S
H2043 C2055 0.930 . S
H2044 C2057 0.930 . S
H2045 C2058 0.930 . S
H2046 C2062 0.959 . S
H2047 C2062 0.959 . S
H2048 C2062 0.961 . S
H2049 C2063 0.960 . S
H2050 C2063 0.961 . S
H2051 C2063 0.959 . S
H2052 C2066 0.929 . S
H2053 C2067 0.931 . S
H2054 C2069 0.930 . S
C2055 H2043 0.930 . S
C2055 C2056 1.399 . S
C2055 C2060 1.399 . S
C2056 C2055 1.399 . S
C2056 C2057 1.376 . S
C2057 H2044 0.930 . S
C2057 C2056 1.376 . S
C2057 C2058 1.388 . S
C2058 H2045 0.930 . S
C2058 C2057 1.388 . S
C2058 C2059 1.390 . S
C2059 C2058 1.390 . S
C2059 C2060 1.394 . S
C2059 C2065 1.465 . S
C2060 C2055 1.399 . S
C2060 C2059 1.394 . S
C2060 C2061 1.516 . S
C2061 C2060 1.516 . S
C2061 C2062 1.502 . S
C2061 C2063 1.561 . S
C2061 C2064 1.526 . S
C2062 H2046 0.959 . S
C2062 H2047 0.959 . S
C2062 H2048 0.961 . S
C2062 C2061 1.502 . S
C2063 H2049 0.960 . S
C2063 H2050 0.961 . S
C2063 H2051 0.959 . S
C2063 C2061 1.561 . S
C2064 C2061 1.526 . S
C2064 C2065 1.396 . S
C2064 C2069 1.390 . S
C2065 C2059 1.465 . S
C2065 C2064 1.396 . S
C2065 C2066 1.399 . S
C2066 H2052 0.929 . S
C2066 C2065 1.399 . S
C2066 C2067 1.385 . S
C2067 H2053 0.931 . S
C2067 C2066 1.385 . S
C2067 C2068 1.389 . S
C2068 C2067 1.389 . S
C2068 C2069 1.387 . S
C2069 H2054 0.930 . S
C2069 C2064 1.390 . S
C2069 C2068 1.387 . S
H2070 C2082 0.930 . S
H2071 C2084 0.930 . S
H2072 C2085 0.930 . S
H2073 C2089 0.959 . S
H2074 C2089 0.959 . S
H2075 C2089 0.961 . S
H2076 C2090 0.960 . S
H2077 C2090 0.961 . S
H2078 C2090 0.959 . S
H2079 C2093 0.929 . S
H2080 C2094 0.931 . S
H2081 C2096 0.930 . S
C2082 H2070 0.930 . S
C2082 C2083 1.399 . S
C2082 C2087 1.399 . S
C2083 C2082 1.399 . S
C2083 C2084 1.376 . S
C2084 H2071 0.930 . S
C2084 C2083 1.376 . S
C2084 C2085 1.388 . S
C2085 H2072 0.930 . S
C2085 C2084 1.388 . S
C2085 C2086 1.390 . S
C2086 C2085 1.390 . S
C2086 C2087 1.394 . S
C2086 C2092 1.465 . S
C2087 C2082 1.399 . S
C2087 C2086 1.394 . S
C2087 C2088 1.516 . S
C2088 C2087 1.516 . S
C2088 C2089 1.502 . S
C2088 C2090 1.561 . S
C2088 C2091 1.526 . S
C2089 H2073 0.959 . S
C2089 H2074 0.959 . S
C2089 H2075 0.961 . S
C2089 C2088 1.502 . S
C2090 H2076 0.960 . S
C2090 H2077 0.961 . S
C2090 H2078 0.959 . S
C2090 C2088 1.561 . S
C2091 C2088 1.526 . S
C2091 C2092 1.396 . S
C2091 C2096 1.390 . S
C2092 C2086 1.465 . S
C2092 C2091 1.396 . S
C2092 C2093 1.399 . S
C2093 H2079 0.929 . S
C2093 C2092 1.399 . S
C2093 C2094 1.385 . S
C2094 H2080 0.931 . S
C2094 C2093 1.385 . S
C2094 C2095 1.389 . S
C2095 C2094 1.389 . S
C2095 C2096 1.387 . S
C2096 H2081 0.930 . S
C2096 C2091 1.390 . S
C2096 C2095 1.387 . S
H2097 C2109 0.930 . S
H2098 C2111 0.930 . S
H2099 C2112 0.930 . S
H2100 C2116 0.959 . S
H2101 C2116 0.959 . S
H2102 C2116 0.961 . S
H2103 C2117 0.960 . S
H2104 C2117 0.961 . S
H2105 C2117 0.959 . S
H2106 C2120 0.929 . S
H2107 C2121 0.931 . S
H2108 C2123 0.930 . S
C2109 H2097 0.930 . S
C2109 C2110 1.399 . S
C2109 C2114 1.399 . S
C2110 C2109 1.399 . S
C2110 C2111 1.376 . S
C2111 H2098 0.930 . S
C2111 C2110 1.376 . S
C2111 C2112 1.388 . S
C2112 H2099 0.930 . S
C2112 C2111 1.388 . S
C2112 C2113 1.390 . S
C2113 C2112 1.390 . S
C2113 C2114 1.394 . S
C2113 C2119 1.465 . S
C2114 C2109 1.399 . S
C2114 C2113 1.394 . S
C2114 C2115 1.516 . S
C2115 C2114 1.516 . S
C2115 C2116 1.502 . S
C2115 C2117 1.561 . S
C2115 C2118 1.526 . S
C2116 H2100 0.959 . S
C2116 H2101 0.959 . S
C2116 H2102 0.961 . S
C2116 C2115 1.502 . S
C2117 H2103 0.960 . S
C2117 H2104 0.961 . S
C2117 H2105 0.959 . S
C2117 C2115 1.561 . S
C2118 C2115 1.526 . S
C2118 C2119 1.396 . S
C2118 C2123 1.390 . S
C2119 C2113 1.465 . S
C2119 C2118 1.396 . S
C2119 C2120 1.399 . S
C2120 H2106 0.929 . S
C2120 C2119 1.399 . S
C2120 C2121 1.385 . S
C2121 H2107 0.931 . S
C2121 C2120 1.385 . S
C2121 C2122 1.389 . S
C2122 C2121 1.389 . S
C2122 C2123 1.387 . S
C2123 H2108 0.930 . S
C2123 C2118 1.390 . S
C2123 C2122 1.387 . S
H2124 C2136 0.930 . S
H2125 C2138 0.930 . S
H2126 C2139 0.930 . S
H2127 C2143 0.959 . S
H2128 C2143 0.959 . S
H2129 C2143 0.961 . S
H2130 C2144 0.960 . S
H2131 C2144 0.961 . S
H2132 C2144 0.959 . S
H2133 C2147 0.929 . S
H2134 C2148 0.931 . S
H2135 C2150 0.930 . S
C2136 H2124 0.930 . S
C2136 C2137 1.399 . S
C2136 C2141 1.399 . S
C2137 C2136 1.399 . S
C2137 C2138 1.376 . S
C2138 H2125 0.930 . S
C2138 C2137 1.376 . S
C2138 C2139 1.388 . S
C2139 H2126 0.930 . S
C2139 C2138 1.388 . S
C2139 C2140 1.390 . S
C2140 C2139 1.390 . S
C2140 C2141 1.394 . S
C2140 C2146 1.465 . S
C2141 C2136 1.399 . S
C2141 C2140 1.394 . S
C2141 C2142 1.516 . S
C2142 C2141 1.516 . S
C2142 C2143 1.502 . S
C2142 C2144 1.561 . S
C2142 C2145 1.526 . S
C2143 H2127 0.959 . S
C2143 H2128 0.959 . S
C2143 H2129 0.961 . S
C2143 C2142 1.502 . S
C2144 H2130 0.960 . S
C2144 H2131 0.961 . S
C2144 H2132 0.959 . S
C2144 C2142 1.561 . S
C2145 C2142 1.526 . S
C2145 C2146 1.396 . S
C2145 C2150 1.390 . S
C2146 C2140 1.465 . S
C2146 C2145 1.396 . S
C2146 C2147 1.399 . S
C2147 H2133 0.929 . S
C2147 C2146 1.399 . S
C2147 C2148 1.385 . S
C2148 H2134 0.931 . S
C2148 C2147 1.385 . S
C2148 C2149 1.389 . S
C2149 C2148 1.389 . S
C2149 C2150 1.387 . S
C2150 H2135 0.930 . S
C2150 C2145 1.390 . S
C2150 C2149 1.387 . S
H2151 C2163 0.930 . S
H2152 C2165 0.930 . S
H2153 C2166 0.930 . S
H2154 C2170 0.959 . S
H2155 C2170 0.959 . S
H2156 C2170 0.961 . S
H2157 C2171 0.960 . S
H2158 C2171 0.961 . S
H2159 C2171 0.959 . S
H2160 C2174 0.929 . S
H2161 C2175 0.931 . S
H2162 C2177 0.930 . S
C2163 H2151 0.930 . S
C2163 C2164 1.399 . S
C2163 C2168 1.399 . S
C2164 C2163 1.399 . S
C2164 C2165 1.376 . S
C2165 H2152 0.930 . S
C2165 C2164 1.376 . S
C2165 C2166 1.388 . S
C2166 H2153 0.930 . S
C2166 C2165 1.388 . S
C2166 C2167 1.390 . S
C2167 C2166 1.390 . S
C2167 C2168 1.394 . S
C2167 C2173 1.465 . S
C2168 C2163 1.399 . S
C2168 C2167 1.394 . S
C2168 C2169 1.516 . S
C2169 C2168 1.516 . S
C2169 C2170 1.502 . S
C2169 C2171 1.561 . S
C2169 C2172 1.526 . S
C2170 H2154 0.959 . S
C2170 H2155 0.959 . S
C2170 H2156 0.961 . S
C2170 C2169 1.502 . S
C2171 H2157 0.960 . S
C2171 H2158 0.961 . S
C2171 H2159 0.959 . S
C2171 C2169 1.561 . S
C2172 C2169 1.526 . S
C2172 C2173 1.396 . S
C2172 C2177 1.390 . S
C2173 C2167 1.465 . S
C2173 C2172 1.396 . S
C2173 C2174 1.399 . S
C2174 H2160 0.929 . S
C2174 C2173 1.399 . S
C2174 C2175 1.385 . S
C2175 H2161 0.931 . S
C2175 C2174 1.385 . S
C2175 C2176 1.389 . S
C2176 C2175 1.389 . S
C2176 C2177 1.387 . S
C2177 H2162 0.930 . S
C2177 C2172 1.390 . S
C2177 C2176 1.387 . S
H2178 C2190 0.930 . S
H2179 C2192 0.930 . S
H2180 C2193 0.930 . S
H2181 C2197 0.959 1_455 S
H2182 C2197 0.959 . S
H2183 C2197 0.961 . S
H2184 C2198 0.960 . S
H2185 C2198 0.961 . S
H2186 C2198 0.959 . S
H2187 C2201 0.929 . S
H2188 C2202 0.931 . S
H2189 C2204 0.930 . S
C2190 H2178 0.930 . S
C2190 C2191 1.399 . S
C2190 C2195 1.399 . S
C2191 C2190 1.399 . S
C2191 C2192 1.376 . S
C2192 H2179 0.930 . S
C2192 C2191 1.376 . S
C2192 C2193 1.388 . S
C2193 H2180 0.930 . S
C2193 C2192 1.388 . S
C2193 C2194 1.390 . S
C2194 C2193 1.390 . S
C2194 C2195 1.394 . S
C2194 C2200 1.465 . S
C2195 C2190 1.399 . S
C2195 C2194 1.394 . S
C2195 C2196 1.516 . S
C2196 C2195 1.516 . S
C2196 C2197 1.502 . S
C2196 C2198 1.561 . S
C2196 C2199 1.526 . S
C2197 H2181 0.959 1_655 S
C2197 H2182 0.959 . S
C2197 H2183 0.961 . S
C2197 C2196 1.502 . S
C2198 H2184 0.960 . S
C2198 H2185 0.961 . S
C2198 H2186 0.959 . S
C2198 C2196 1.561 . S
C2199 C2196 1.526 . S
C2199 C2200 1.396 . S
C2199 C2204 1.390 . S
C2200 C2194 1.465 . S
C2200 C2199 1.396 . S
C2200 C2201 1.399 . S
C2201 H2187 0.929 . S
C2201 C2200 1.399 . S
C2201 C2202 1.385 . S
C2202 H2188 0.931 . S
C2202 C2201 1.385 . S
C2202 C2203 1.389 . S
C2203 C2202 1.389 . S
C2203 C2204 1.387 . S
C2204 H2189 0.930 . S
C2204 C2199 1.390 . S
C2204 C2203 1.387 . S
H2205 C2217 0.930 . S
H2206 C2219 0.930 . S
H2207 C2220 0.930 . S
H2208 C2224 0.959 . S
H2209 C2224 0.959 . S
H2210 C2224 0.961 . S
H2211 C2225 0.960 . S
H2212 C2225 0.961 . S
H2213 C2225 0.959 . S
H2214 C2228 0.929 . S
H2215 C2229 0.931 . S
H2216 C2231 0.930 . S
C2217 H2205 0.930 . S
C2217 C2218 1.399 . S
C2217 C2222 1.399 . S
C2218 C2217 1.399 . S
C2218 C2219 1.376 . S
C2219 H2206 0.930 . S
C2219 C2218 1.376 . S
C2219 C2220 1.388 . S
C2220 H2207 0.930 . S
C2220 C2219 1.388 . S
C2220 C2221 1.390 . S
C2221 C2220 1.390 . S
C2221 C2222 1.394 . S
C2221 C2227 1.465 . S
C2222 C2217 1.399 . S
C2222 C2221 1.394 . S
C2222 C2223 1.516 . S
C2223 C2222 1.516 . S
C2223 C2224 1.502 . S
C2223 C2225 1.561 . S
C2223 C2226 1.526 . S
C2224 H2208 0.959 . S
C2224 H2209 0.959 . S
C2224 H2210 0.961 . S
C2224 C2223 1.502 . S
C2225 H2211 0.960 . S
C2225 H2212 0.961 . S
C2225 H2213 0.959 . S
C2225 C2223 1.561 . S
C2226 C2223 1.526 . S
C2226 C2227 1.396 . S
C2226 C2231 1.390 . S
C2227 C2221 1.465 . S
C2227 C2226 1.396 . S
C2227 C2228 1.399 . S
C2228 H2214 0.929 . S
C2228 C2227 1.399 . S
C2228 C2229 1.385 . S
C2229 H2215 0.931 . S
C2229 C2228 1.385 . S
C2229 C2230 1.389 . S
C2230 C2229 1.389 . S
C2230 C2231 1.387 . S
C2231 H2216 0.930 . S
C2231 C2226 1.390 . S
C2231 C2230 1.387 . S
H2232 C2244 0.930 . S
H2233 C2246 0.930 . S
H2234 C2247 0.930 . S
H2235 C2251 0.959 . S
H2236 C2251 0.959 . S
H2237 C2251 0.961 . S
H2238 C2252 0.960 . S
H2239 C2252 0.961 . S
H2240 C2252 0.959 . S
H2241 C2255 0.929 . S
H2242 C2256 0.931 . S
H2243 C2258 0.930 . S
C2244 H2232 0.930 . S
C2244 C2245 1.399 . S
C2244 C2249 1.399 . S
C2245 C2244 1.399 . S
C2245 C2246 1.376 . S
C2246 H2233 0.930 . S
C2246 C2245 1.376 . S
C2246 C2247 1.388 . S
C2247 H2234 0.930 . S
C2247 C2246 1.388 . S
C2247 C2248 1.390 . S
C2248 C2247 1.390 . S
C2248 C2249 1.394 . S
C2248 C2254 1.465 . S
C2249 C2244 1.399 . S
C2249 C2248 1.394 . S
C2249 C2250 1.516 . S
C2250 C2249 1.516 . S
C2250 C2251 1.502 . S
C2250 C2252 1.561 . S
C2250 C2253 1.526 . S
C2251 H2235 0.959 . S
C2251 H2236 0.959 . S
C2251 H2237 0.961 . S
C2251 C2250 1.502 . S
C2252 H2238 0.960 . S
C2252 H2239 0.961 . S
C2252 H2240 0.959 . S
C2252 C2250 1.561 . S
C2253 C2250 1.526 . S
C2253 C2254 1.396 . S
C2253 C2258 1.390 . S
C2254 C2248 1.465 . S
C2254 C2253 1.396 . S
C2254 C2255 1.399 . S
C2255 H2241 0.929 . S
C2255 C2254 1.399 . S
C2255 C2256 1.385 . S
C2256 H2242 0.931 . S
C2256 C2255 1.385 . S
C2256 C2257 1.389 . S
C2257 C2256 1.389 . S
C2257 C2258 1.387 . S
C2258 H2243 0.930 . S
C2258 C2253 1.390 . S
C2258 C2257 1.387 . S
H2259 C2271 0.930 . S
H2260 C2273 0.930 . S
H2261 C2274 0.930 . S
H2262 C2278 0.959 . S
H2263 C2278 0.959 . S
H2264 C2278 0.961 . S
H2265 C2279 0.960 . S
H2266 C2279 0.961 . S
H2267 C2279 0.959 . S
H2268 C2282 0.929 . S
H2269 C2283 0.931 . S
H2270 C2285 0.930 . S
C2271 H2259 0.930 . S
C2271 C2272 1.399 . S
C2271 C2276 1.399 . S
C2272 C2271 1.399 . S
C2272 C2273 1.376 . S
C2273 H2260 0.930 . S
C2273 C2272 1.376 . S
C2273 C2274 1.388 . S
C2274 H2261 0.930 . S
C2274 C2273 1.388 . S
C2274 C2275 1.390 . S
C2275 C2274 1.390 . S
C2275 C2276 1.394 . S
C2275 C2281 1.465 . S
C2276 C2271 1.399 . S
C2276 C2275 1.394 . S
C2276 C2277 1.516 . S
C2277 C2276 1.516 . S
C2277 C2278 1.502 . S
C2277 C2279 1.561 . S
C2277 C2280 1.526 . S
C2278 H2262 0.959 . S
C2278 H2263 0.959 . S
C2278 H2264 0.961 . S
C2278 C2277 1.502 . S
C2279 H2265 0.960 . S
C2279 H2266 0.961 . S
C2279 H2267 0.959 . S
C2279 C2277 1.561 . S
C2280 C2277 1.526 . S
C2280 C2281 1.396 . S
C2280 C2285 1.390 . S
C2281 C2275 1.465 . S
C2281 C2280 1.396 . S
C2281 C2282 1.399 . S
C2282 H2268 0.929 . S
C2282 C2281 1.399 . S
C2282 C2283 1.385 . S
C2283 H2269 0.931 . S
C2283 C2282 1.385 . S
C2283 C2284 1.389 . S
C2284 C2283 1.389 . S
C2284 C2285 1.387 . S
C2285 H2270 0.930 . S
C2285 C2280 1.390 . S
C2285 C2284 1.387 . S
H2286 C2298 0.930 . S
H2287 C2300 0.930 . S
H2288 C2301 0.930 . S
H2289 C2305 0.959 . S
H2290 C2305 0.959 . S
H2291 C2305 0.961 . S
H2292 C2306 0.960 . S
H2293 C2306 0.961 . S
H2294 C2306 0.959 . S
H2295 C2309 0.929 . S
H2296 C2310 0.931 . S
H2297 C2312 0.930 . S
C2298 H2286 0.930 . S
C2298 C2299 1.399 . S
C2298 C2303 1.399 . S
C2299 C2298 1.399 . S
C2299 C2300 1.376 . S
C2300 H2287 0.930 . S
C2300 C2299 1.376 . S
C2300 C2301 1.388 . S
C2301 H2288 0.930 . S
C2301 C2300 1.388 . S
C2301 C2302 1.390 . S
C2302 C2301 1.390 . S
C2302 C2303 1.394 . S
C2302 C2308 1.465 . S
C2303 C2298 1.399 . S
C2303 C2302 1.394 . S
C2303 C2304 1.516 . S
C2304 C2303 1.516 . S
C2304 C2305 1.502 . S
C2304 C2306 1.561 . S
C2304 C2307 1.526 . S
C2305 H2289 0.959 . S
C2305 H2290 0.959 . S
C2305 H2291 0.961 . S
C2305 C2304 1.502 . S
C2306 H2292 0.960 . S
C2306 H2293 0.961 . S
C2306 H2294 0.959 . S
C2306 C2304 1.561 . S
C2307 C2304 1.526 . S
C2307 C2308 1.396 . S
C2307 C2312 1.390 . S
C2308 C2302 1.465 . S
C2308 C2307 1.396 . S
C2308 C2309 1.399 . S
C2309 H2295 0.929 . S
C2309 C2308 1.399 . S
C2309 C2310 1.385 . S
C2310 H2296 0.931 . S
C2310 C2309 1.385 . S
C2310 C2311 1.389 . S
C2311 C2310 1.389 . S
C2311 C2312 1.387 . S
C2312 H2297 0.930 . S
C2312 C2307 1.390 . S
C2312 C2311 1.387 . S
H2313 C2325 0.930 . S
H2314 C2327 0.930 . S
H2315 C2328 0.930 . S
H2316 C2332 0.959 . S
H2317 C2332 0.959 . S
H2318 C2332 0.961 . S
H2319 C2333 0.960 . S
H2320 C2333 0.961 . S
H2321 C2333 0.959 . S
H2322 C2336 0.929 . S
H2323 C2337 0.931 . S
H2324 C2339 0.930 . S
C2325 H2313 0.930 . S
C2325 C2326 1.399 . S
C2325 C2330 1.399 . S
C2326 C2325 1.399 . S
C2326 C2327 1.376 . S
C2327 H2314 0.930 . S
C2327 C2326 1.376 . S
C2327 C2328 1.388 . S
C2328 H2315 0.930 . S
C2328 C2327 1.388 . S
C2328 C2329 1.390 . S
C2329 C2328 1.390 . S
C2329 C2330 1.394 . S
C2329 C2335 1.465 . S
C2330 C2325 1.399 . S
C2330 C2329 1.394 . S
C2330 C2331 1.516 . S
C2331 C2330 1.516 . S
C2331 C2332 1.502 . S
C2331 C2333 1.561 . S
C2331 C2334 1.526 . S
C2332 H2316 0.959 . S
C2332 H2317 0.959 . S
C2332 H2318 0.961 . S
C2332 C2331 1.502 . S
C2333 H2319 0.960 . S
C2333 H2320 0.961 . S
C2333 H2321 0.959 . S
C2333 C2331 1.561 . S
C2334 C2331 1.526 . S
C2334 C2335 1.396 . S
C2334 C2339 1.390 . S
C2335 C2329 1.465 . S
C2335 C2334 1.396 . S
C2335 C2336 1.399 . S
C2336 H2322 0.929 . S
C2336 C2335 1.399 . S
C2336 C2337 1.385 . S
C2337 H2323 0.931 . S
C2337 C2336 1.385 . S
C2337 C2338 1.389 . S
C2338 C2337 1.389 . S
C2338 C2339 1.387 . S
C2339 H2324 0.930 . S
C2339 C2334 1.390 . S
C2339 C2338 1.387 . S
H2340 C2352 0.930 . S
H2341 C2354 0.930 . S
H2342 C2355 0.930 . S
H2343 C2359 0.959 . S
H2344 C2359 0.959 . S
H2345 C2359 0.961 . S
H2346 C2360 0.960 . S
H2347 C2360 0.961 . S
H2348 C2360 0.959 . S
H2349 C2363 0.929 . S
H2350 C2364 0.931 . S
H2351 C2366 0.930 . S
C2352 H2340 0.930 . S
C2352 C2353 1.399 . S
C2352 C2357 1.399 . S
C2353 C2352 1.399 . S
C2353 C2354 1.376 . S
C2354 H2341 0.930 . S
C2354 C2353 1.376 . S
C2354 C2355 1.388 . S
C2355 H2342 0.930 . S
C2355 C2354 1.388 . S
C2355 C2356 1.390 . S
C2356 C2355 1.390 . S
C2356 C2357 1.394 . S
C2356 C2362 1.465 . S
C2357 C2352 1.399 . S
C2357 C2356 1.394 . S
C2357 C2358 1.516 . S
C2358 C2357 1.516 . S
C2358 C2359 1.502 . S
C2358 C2360 1.561 . S
C2358 C2361 1.526 . S
C2359 H2343 0.959 . S
C2359 H2344 0.959 . S
C2359 H2345 0.961 . S
C2359 C2358 1.502 . S
C2360 H2346 0.960 . S
C2360 H2347 0.961 . S
C2360 H2348 0.959 . S
C2360 C2358 1.561 . S
C2361 C2358 1.526 . S
C2361 C2362 1.396 . S
C2361 C2366 1.390 . S
C2362 C2356 1.465 . S
C2362 C2361 1.396 . S
C2362 C2363 1.399 . S
C2363 H2349 0.929 . S
C2363 C2362 1.399 . S
C2363 C2364 1.385 . S
C2364 H2350 0.931 . S
C2364 C2363 1.385 . S
C2364 C2365 1.389 . S
C2365 C2364 1.389 . S
C2365 C2366 1.387 . S
C2366 H2351 0.930 . S
C2366 C2361 1.390 . S
C2366 C2365 1.387 . S
H2367 C2379 0.930 . S
H2368 C2381 0.930 . S
H2369 C2382 0.930 . S
H2370 C2386 0.959 . S
H2371 C2386 0.959 . S
H2372 C2386 0.961 . S
H2373 C2387 0.960 . S
H2374 C2387 0.961 . S
H2375 C2387 0.959 . S
H2376 C2390 0.929 . S
H2377 C2391 0.931 . S
H2378 C2393 0.930 . S
C2379 H2367 0.930 . S
C2379 C2380 1.399 . S
C2379 C2384 1.399 . S
C2380 C2379 1.399 . S
C2380 C2381 1.376 . S
C2381 H2368 0.930 . S
C2381 C2380 1.376 . S
C2381 C2382 1.388 . S
C2382 H2369 0.930 . S
C2382 C2381 1.388 . S
C2382 C2383 1.390 . S
C2383 C2382 1.390 . S
C2383 C2384 1.394 . S
C2383 C2389 1.465 . S
C2384 C2379 1.399 . S
C2384 C2383 1.394 . S
C2384 C2385 1.516 . S
C2385 C2384 1.516 . S
C2385 C2386 1.502 . S
C2385 C2387 1.561 . S
C2385 C2388 1.526 . S
C2386 H2370 0.959 . S
C2386 H2371 0.959 . S
C2386 H2372 0.961 . S
C2386 C2385 1.502 . S
C2387 H2373 0.960 . S
C2387 H2374 0.961 . S
C2387 H2375 0.959 . S
C2387 C2385 1.561 . S
C2388 C2385 1.526 . S
C2388 C2389 1.396 . S
C2388 C2393 1.390 . S
C2389 C2383 1.465 . S
C2389 C2388 1.396 . S
C2389 C2390 1.399 . S
C2390 H2376 0.929 . S
C2390 C2389 1.399 . S
C2390 C2391 1.385 . S
C2391 H2377 0.931 . S
C2391 C2390 1.385 . S
C2391 C2392 1.389 . S
C2392 C2391 1.389 . S
C2392 C2393 1.387 . S
C2393 H2378 0.930 . S
C2393 C2388 1.390 . S
C2393 C2392 1.387 . S
H2394 C2406 0.930 . S
H2395 C2408 0.930 . S
H2396 C2409 0.930 1_545 S
H2397 C2413 0.959 . S
H2398 C2413 0.959 . S
H2399 C2413 0.961 . S
H2400 C2414 0.960 . S
H2401 C2414 0.961 . S
H2402 C2414 0.959 . S
H2403 C2417 0.929 1_545 S
H2404 C2418 0.931 . S
H2405 C2420 0.930 . S
C2406 H2394 0.930 . S
C2406 C2407 1.399 . S
C2406 C2411 1.399 . S
C2407 C2406 1.399 . S
C2407 C2408 1.376 . S
C2408 H2395 0.930 . S
C2408 C2407 1.376 . S
C2408 C2409 1.388 . S
C2409 H2396 0.930 1_565 S
C2409 C2408 1.388 . S
C2409 C2410 1.390 . S
C2410 C2409 1.390 . S
C2410 C2411 1.394 . S
C2410 C2416 1.465 . S
C2411 C2406 1.399 . S
C2411 C2410 1.394 . S
C2411 C2412 1.516 . S
C2412 C2411 1.516 . S
C2412 C2413 1.502 . S
C2412 C2414 1.561 . S
C2412 C2415 1.526 . S
C2413 H2397 0.959 . S
C2413 H2398 0.959 . S
C2413 H2399 0.961 . S
C2413 C2412 1.502 . S
C2414 H2400 0.960 . S
C2414 H2401 0.961 . S
C2414 H2402 0.959 . S
C2414 C2412 1.561 . S
C2415 C2412 1.526 . S
C2415 C2416 1.396 . S
C2415 C2420 1.390 . S
C2416 C2410 1.465 . S
C2416 C2415 1.396 . S
C2416 C2417 1.399 . S
C2417 H2403 0.929 1_565 S
C2417 C2416 1.399 . S
C2417 C2418 1.385 . S
C2418 H2404 0.931 . S
C2418 C2417 1.385 . S
C2418 C2419 1.389 . S
C2419 C2418 1.389 . S
C2419 C2420 1.387 . S
C2420 H2405 0.930 . S
C2420 C2415 1.390 . S
C2420 C2419 1.387 . S
H2421 C2433 0.930 . S
H2422 C2435 0.930 . S
H2423 C2436 0.930 . S
H2424 C2440 0.959 . S
H2425 C2440 0.959 . S
H2426 C2440 0.961 . S
H2427 C2441 0.960 . S
H2428 C2441 0.961 . S
H2429 C2441 0.959 . S
H2430 C2444 0.929 . S
H2431 C2445 0.931 . S
H2432 C2447 0.930 . S
C2433 H2421 0.930 . S
C2433 C2434 1.399 . S
C2433 C2438 1.399 . S
C2434 C2433 1.399 . S
C2434 C2435 1.376 . S
C2435 H2422 0.930 . S
C2435 C2434 1.376 . S
C2435 C2436 1.388 . S
C2436 H2423 0.930 . S
C2436 C2435 1.388 . S
C2436 C2437 1.390 . S
C2437 C2436 1.390 . S
C2437 C2438 1.394 . S
C2437 C2443 1.465 . S
C2438 C2433 1.399 . S
C2438 C2437 1.394 . S
C2438 C2439 1.516 . S
C2439 C2438 1.516 . S
C2439 C2440 1.502 . S
C2439 C2441 1.561 . S
C2439 C2442 1.526 . S
C2440 H2424 0.959 . S
C2440 H2425 0.959 . S
C2440 H2426 0.961 . S
C2440 C2439 1.502 . S
C2441 H2427 0.960 . S
C2441 H2428 0.961 . S
C2441 H2429 0.959 . S
C2441 C2439 1.561 . S
C2442 C2439 1.526 . S
C2442 C2443 1.396 . S
C2442 C2447 1.390 . S
C2443 C2437 1.465 . S
C2443 C2442 1.396 . S
C2443 C2444 1.399 . S
C2444 H2430 0.929 . S
C2444 C2443 1.399 . S
C2444 C2445 1.385 . S
C2445 H2431 0.931 . S
C2445 C2444 1.385 . S
C2445 C2446 1.389 . S
C2446 C2445 1.389 . S
C2446 C2447 1.387 . S
C2447 H2432 0.930 . S
C2447 C2442 1.390 . S
C2447 C2446 1.387 . S
C517 C6 1.444 . S
C529 C160 1.452 . S
C544 C132 1.410 . S
C556 C20 1.422 . S
C571 C146 1.435 . S
C583 C34 1.424 . S
C598 C48 1.383 . S
C610 C104 1.387 . S
C625 C62 1.433 . S
C637 C118 1.443 . S
C652 C76 1.401 . S
C664 C90 1.412 . S
C679 C174 1.437 . S
C691 C328 1.447 . S
C706 C300 1.453 . S
C718 C188 1.445 . S
C733 C202 1.386 . S
C745 C314 1.393 . S
C760 C216 1.391 . S
C772 C272 1.400 . S
C787 C230 1.392 . S
C799 C286 1.402 . S
C814 C244 1.407 . S
C826 C258 1.397 . S
C841 C342 1.436 . S
C853 C496 1.446 . S
C868 C356 1.384 . S
C880 C468 1.390 . S
C895 C482 1.440 . S
C907 C370 1.429 . S
C922 C384 1.387 . S
C934 C440 1.394 . S
C949 C454 1.439 . S
C961 C398 1.427 . S
C976 C426 1.459 . S
C988 C412 1.460 . S
C1003 C7 1.365 . S
C1015 C217 1.359 . S
C1030 C21 1.349 . S
C1042 C231 1.328 . S
C1057 C35 1.363 . S
C1069 C245 1.362 . S
C1084 C49 1.328 . S
C1096 C343 1.352 . S
C1111 C357 1.348 . S
C1123 C63 1.368 . S
C1138 C371 1.333 . S
C1150 C77 1.363 . S
C1165 C91 1.335 . S
C1177 C469 1.369 . S
C1192 C483 1.367 . S
C1204 C105 1.342 . S
C1219 C119 1.342 . S
C1231 C497 1.338 . S
C1246 C133 1.369 . S
C1258 C259 1.337 . S
C1273 C147 1.366 . S
C1285 C273 1.345 . S
C1300 C161 1.368 . S
C1312 C287 1.332 . S
C1327 C385 1.366 . S
C1339 C175 1.338 . S
C1354 C189 1.354 . S
C1366 C399 1.329 1_545 S
C1381 C203 1.327 1_455 S
C1393 C413 1.350 . S
C1408 C427 1.368 . S
C1420 C301 1.333 . S
C1435 C441 1.328 1_545 S
C1447 C315 1.357 . S
C1462 C329 1.331 1_455 S
C1474 C455 1.368 . S
C1489 C8 1.243 . S
C1501 C64 1.247 . S
C1516 C78 1.243 . S
C1528 C22 1.248 . S
C1543 C50 1.286 . S
C1555 C36 1.259 . S
C1570 C92 1.311 . S
C1582 C148 1.260 . S
C1597 C162 1.310 . S
C1609 C106 1.258 . S
C1624 C120 1.245 . S
C1636 C134 1.291 . S
C1651 C232 1.250 . S
C1663 C176 1.274 . S
C1678 C190 1.315 . S
C1690 C246 1.290 . S
C1705 C204 1.316 . S
C1717 C218 1.327 . S
C1732 C316 1.320 . S
C1744 C260 1.318 . S
C1759 C330 1.279 . S
C1771 C274 1.323 . S
C1786 C302 1.243 . S
C1798 C288 1.283 . S
C1813 C344 1.244 . S
C1825 C400 1.246 . S
C1840 C358 1.314 . S
C1852 C414 1.288 . S
C1867 C372 1.261 . S
C1879 C386 1.245 . S
C1894 C484 1.311 . S
C1906 C428 1.324 . S
C1921 C498 1.300 . S
C1933 C442 1.251 . S
C1948 C470 1.248 . S
C1960 C456 1.255 . S
C1975 C135 1.976 . S
C1987 C9 1.972 . S
C2002 C149 1.974 . S
C2014 C23 1.978 . S
C2029 C37 1.965 . S
C2041 C163 1.969 . S
C2056 C51 1.971 . S
C2068 C93 1.967 . S
C2083 C107 1.965 . S
C2095 C65 1.961 . S
C2110 C79 1.966 . S
C2122 C121 1.962 . S
C2137 C303 1.954 . S
C2149 C177 1.956 . S
C2164 C317 1.977 . S
C2176 C191 1.973 . S
C2191 C205 1.971 . S
C2203 C331 1.967 . S
C2218 C261 1.982 . S
C2230 C219 1.982 . S
C2245 C275 1.973 . S
C2257 C233 1.977 . S
C2272 C289 1.954 . S
C2284 C247 1.957 . S
C2299 C345 1.968 . S
C2311 C471 1.964 . S
C2326 C485 1.969 . S
C2338 C359 1.973 . S
C2353 C373 1.972 . S
C2365 C499 1.968 . S
C2380 C387 1.963 . S
C2392 C429 1.968 . S
C2407 C401 1.954 . S
C2419 C443 1.955 . S
C2434 C457 1.954 . S
C2446 C415 1.955 . S
