# Generated by pormake.
# Topology etf, (3)-cn, num edge types: 1
# Building blocks:
#     Node 0, Type 0, BuildingBlock: OLANEW_clean_sbu_2, # of connection points: 3
#     Node 1, Type 0, BuildingBlock: OLANEW_clean_sbu_2, # of connection points: 3
#     Node 2, Type 0, BuildingBlock: OLANEW_clean_sbu_2, # of connection points: 3
#     Node 3, Type 0, BuildingBlock: OLANEW_clean_sbu_2, # of connection points: 3
#     Node 4, Type 0, BuildingBlock: OLANEW_clean_sbu_2, # of connection points: 3
#     Node 5, Type 0, BuildingBlock: OLANEW_clean_sbu_2, # of connection points: 3
#     Node 6, Type 0, BuildingBlock: OLANEW_clean_sbu_2, # of connection points: 3
#     Node 7, Type 0, BuildingBlock: OLANEW_clean_sbu_2, # of connection points: 3
#     Node 8, Type 0, BuildingBlock: OLANEW_clean_sbu_2, # of connection points: 3
#     Node 9, Type 0, BuildingBlock: OLANEW_clean_sbu_2, # of connection points: 3
#     Node 10, Type 0, BuildingBlock: OLANEW_clean_sbu_2, # of connection points: 3
#     Node 11, Type 0, BuildingBlock: OLANEW_clean_sbu_2, # of connection points: 3
#     Node 12, Type 0, BuildingBlock: OLANEW_clean_sbu_2, # of connection points: 3
#     Node 13, Type 0, BuildingBlock: OLANEW_clean_sbu_2, # of connection points: 3
#     Node 14, Type 0, BuildingBlock: OLANEW_clean_sbu_2, # of connection points: 3
#     Node 15, Type 0, BuildingBlock: OLANEW_clean_sbu_2, # of connection points: 3
#     Node 16, Type 0, BuildingBlock: OLANEW_clean_sbu_2, # of connection points: 3
#     Node 17, Type 0, BuildingBlock: OLANEW_clean_sbu_2, # of connection points: 3
#     Node 18, Type 0, BuildingBlock: OLANEW_clean_sbu_2, # of connection points: 3
#     Node 19, Type 0, BuildingBlock: OLANEW_clean_sbu_2, # of connection points: 3
#     Node 20, Type 0, BuildingBlock: OLANEW_clean_sbu_2, # of connection points: 3
#     Node 21, Type 0, BuildingBlock: OLANEW_clean_sbu_2, # of connection points: 3
#     Node 22, Type 0, BuildingBlock: OLANEW_clean_sbu_2, # of connection points: 3
#     Node 23, Type 0, BuildingBlock: OLANEW_clean_sbu_2, # of connection points: 3
#     Node 24, Type 0, BuildingBlock: OLANEW_clean_sbu_2, # of connection points: 3
#     Node 25, Type 0, BuildingBlock: OLANEW_clean_sbu_2, # of connection points: 3
#     Node 26, Type 0, BuildingBlock: OLANEW_clean_sbu_2, # of connection points: 3
#     Node 27, Type 0, BuildingBlock: OLANEW_clean_sbu_2, # of connection points: 3
#     Node 28, Type 0, BuildingBlock: OLANEW_clean_sbu_2, # of connection points: 3
#     Node 29, Type 0, BuildingBlock: OLANEW_clean_sbu_2, # of connection points: 3
#     Node 30, Type 0, BuildingBlock: OLANEW_clean_sbu_2, # of connection points: 3
#     Node 31, Type 0, BuildingBlock: OLANEW_clean_sbu_2, # of connection points: 3
#     Node 32, Type 0, BuildingBlock: OLANEW_clean_sbu_2, # of connection points: 3
#     Node 33, Type 0, BuildingBlock: OLANEW_clean_sbu_2, # of connection points: 3
#     Node 34, Type 0, BuildingBlock: OLANEW_clean_sbu_2, # of connection points: 3
#     Node 35, Type 0, BuildingBlock: OLANEW_clean_sbu_2, # of connection points: 3
#     Edge 36, Type (0, 0), BuildingBlock: AJUNOK_clean_linker_0, # of connection points: 2
#     Edge 37, Type (0, 0), BuildingBlock: AJUNOK_clean_linker_0, # of connection points: 2
#     Edge 38, Type (0, 0), BuildingBlock: AJUNOK_clean_linker_0, # of connection points: 2
#     Edge 39, Type (0, 0), BuildingBlock: AJUNOK_clean_linker_0, # of connection points: 2
#     Edge 40, Type (0, 0), BuildingBlock: AJUNOK_clean_linker_0, # of connection points: 2
#     Edge 41, Type (0, 0), BuildingBlock: AJUNOK_clean_linker_0, # of connection points: 2
#     Edge 42, Type (0, 0), BuildingBlock: AJUNOK_clean_linker_0, # of connection points: 2
#     Edge 43, Type (0, 0), BuildingBlock: AJUNOK_clean_linker_0, # of connection points: 2
#     Edge 44, Type (0, 0), BuildingBlock: AJUNOK_clean_linker_0, # of connection points: 2
#     Edge 45, Type (0, 0), BuildingBlock: AJUNOK_clean_linker_0, # of connection points: 2
#     Edge 46, Type (0, 0), BuildingBlock: AJUNOK_clean_linker_0, # of connection points: 2
#     Edge 47, Type (0, 0), BuildingBlock: AJUNOK_clean_linker_0, # of connection points: 2
#     Edge 48, Type (0, 0), BuildingBlock: AJUNOK_clean_linker_0, # of connection points: 2
#     Edge 49, Type (0, 0), BuildingBlock: AJUNOK_clean_linker_0, # of connection points: 2
#     Edge 50, Type (0, 0), BuildingBlock: AJUNOK_clean_linker_0, # of connection points: 2
#     Edge 51, Type (0, 0), BuildingBlock: AJUNOK_clean_linker_0, # of connection points: 2
#     Edge 52, Type (0, 0), BuildingBlock: AJUNOK_clean_linker_0, # of connection points: 2
#     Edge 53, Type (0, 0), BuildingBlock: AJUNOK_clean_linker_0, # of connection points: 2
#     Edge 54, Type (0, 0), BuildingBlock: AJUNOK_clean_linker_0, # of connection points: 2
#     Edge 55, Type (0, 0), BuildingBlock: AJUNOK_clean_linker_0, # of connection points: 2
#     Edge 56, Type (0, 0), BuildingBlock: AJUNOK_clean_linker_0, # of connection points: 2
#     Edge 57, Type (0, 0), BuildingBlock: AJUNOK_clean_linker_0, # of connection points: 2
#     Edge 58, Type (0, 0), BuildingBlock: AJUNOK_clean_linker_0, # of connection points: 2
#     Edge 59, Type (0, 0), BuildingBlock: AJUNOK_clean_linker_0, # of connection points: 2
#     Edge 60, Type (0, 0), BuildingBlock: AJUNOK_clean_linker_0, # of connection points: 2
#     Edge 61, Type (0, 0), BuildingBlock: AJUNOK_clean_linker_0, # of connection points: 2
#     Edge 62, Type (0, 0), BuildingBlock: AJUNOK_clean_linker_0, # of connection points: 2
#     Edge 63, Type (0, 0), BuildingBlock: AJUNOK_clean_linker_0, # of connection points: 2
#     Edge 64, Type (0, 0), BuildingBlock: AJUNOK_clean_linker_0, # of connection points: 2
#     Edge 65, Type (0, 0), BuildingBlock: AJUNOK_clean_linker_0, # of connection points: 2
#     Edge 66, Type (0, 0), BuildingBlock: AJUNOK_clean_linker_0, # of connection points: 2
#     Edge 67, Type (0, 0), BuildingBlock: AJUNOK_clean_linker_0, # of connection points: 2
#     Edge 68, Type (0, 0), BuildingBlock: AJUNOK_clean_linker_0, # of connection points: 2
#     Edge 69, Type (0, 0), BuildingBlock: AJUNOK_clean_linker_0, # of connection points: 2
#     Edge 70, Type (0, 0), BuildingBlock: AJUNOK_clean_linker_0, # of connection points: 2
#     Edge 71, Type (0, 0), BuildingBlock: AJUNOK_clean_linker_0, # of connection points: 2
#     Edge 72, Type (0, 0), BuildingBlock: AJUNOK_clean_linker_0, # of connection points: 2
#     Edge 73, Type (0, 0), BuildingBlock: AJUNOK_clean_linker_0, # of connection points: 2
#     Edge 74, Type (0, 0), BuildingBlock: AJUNOK_clean_linker_0, # of connection points: 2
#     Edge 75, Type (0, 0), BuildingBlock: AJUNOK_clean_linker_0, # of connection points: 2
#     Edge 76, Type (0, 0), BuildingBlock: AJUNOK_clean_linker_0, # of connection points: 2
#     Edge 77, Type (0, 0), BuildingBlock: AJUNOK_clean_linker_0, # of connection points: 2
#     Edge 78, Type (0, 0), BuildingBlock: AJUNOK_clean_linker_0, # of connection points: 2
#     Edge 79, Type (0, 0), BuildingBlock: AJUNOK_clean_linker_0, # of connection points: 2
#     Edge 80, Type (0, 0), BuildingBlock: AJUNOK_clean_linker_0, # of connection points: 2
#     Edge 81, Type (0, 0), BuildingBlock: AJUNOK_clean_linker_0, # of connection points: 2
#     Edge 82, Type (0, 0), BuildingBlock: AJUNOK_clean_linker_0, # of connection points: 2
#     Edge 83, Type (0, 0), BuildingBlock: AJUNOK_clean_linker_0, # of connection points: 2
#     Edge 84, Type (0, 0), BuildingBlock: AJUNOK_clean_linker_0, # of connection points: 2
#     Edge 85, Type (0, 0), BuildingBlock: AJUNOK_clean_linker_0, # of connection points: 2
#     Edge 86, Type (0, 0), BuildingBlock: AJUNOK_clean_linker_0, # of connection points: 2
#     Edge 87, Type (0, 0), BuildingBlock: AJUNOK_clean_linker_0, # of connection points: 2
#     Edge 88, Type (0, 0), BuildingBlock: AJUNOK_clean_linker_0, # of connection points: 2
#     Edge 89, Type (0, 0), BuildingBlock: AJUNOK_clean_linker_0, # of connection points: 2
# Relax obj value: 0.001
# Max RMSD: 0.037
# Mean RMSD: 0.037
data_MOF--net-etf--node1-OLANEW_clean_sbu_2--edge1-AJUNOK_clean_linker_0
_symmetry_space_group_name_H-M    P1
_symmetry_Int_Tables_number       1
_symmetry_cell_setting            triclinic
loop_
_symmetry_equiv_pos_as_xyz
'x, y, z'
_cell_length_a     80.355319
_cell_length_b     80.354019
_cell_length_c     33.788012
_cell_angle_alpha  89.929853
_cell_angle_beta   90.014702
_cell_angle_gamma 120.01596
loop_
_atom_site_label
_atom_site_type_symbol
_atom_site_fract_x
_atom_site_fract_y
_atom_site_fract_z
_atom_type_partial_charge
O0 O 0.08866 0.3037 0.16411 0.0
Cd1 Cd 0.07566 0.29119 0.22996 0.0
O2 O 0.09573 0.33313 0.17907 0.0
Cd3 Cd 0.0776 0.32262 0.23141 0.0
O4 O 0.04711 0.30474 0.24517 0.0
C5 C 0.03641 0.29732 0.21505 0.0
O6 O 0.04452 0.30092 0.17994 0.0
C7 C 0.09628 0.32136 0.15469 0.0
C8 C 0.10334 0.29158 0.2804 0.0
O9 O 0.10179 0.30658 0.27581 0.0
O10 O 0.09174 0.27638 0.26122 0.0
O11 O 0.65838 0.77161 0.18217 0.0
Cd12 Cd 0.66642 0.76862 0.25067 0.0
O13 O 0.68804 0.78431 0.16046 0.0
Cd14 Cd 0.69904 0.77882 0.21472 0.0
O15 O 0.71302 0.76354 0.23766 0.0
C16 C 0.71441 0.75232 0.21307 0.0
O17 O 0.70719 0.75076 0.17747 0.0
C18 C 0.67047 0.7789 0.15409 0.0
C19 C 0.67865 0.80227 0.29418 0.0
O20 O 0.69078 0.79867 0.27727 0.0
O21 O 0.66074 0.78995 0.29045 0.0
O22 O 0.2254 0.89632 0.18766 0.0
Cd23 Cd 0.22874 0.90851 0.25519 0.0
O24 O 0.21028 0.91085 0.16534 0.0
Cd25 Cd 0.21712 0.92919 0.21713 0.0
O26 O 0.23577 0.95959 0.23047 0.0
C27 C 0.24585 0.96951 0.20125 0.0
O28 O 0.24414 0.96072 0.16747 0.0
C29 C 0.21671 0.89946 0.15972 0.0
C30 C 0.19626 0.88564 0.30106 0.0
O31 O 0.19824 0.90059 0.28314 0.0
O32 O 0.20963 0.88148 0.29713 0.0
O33 O 0.30991 0.10161 0.28441 0.0
Cd34 Cd 0.297 0.09572 0.217 0.0
O35 O 0.33807 0.10599 0.26619 0.0
Cd36 Cd 0.32618 0.09281 0.20935 0.0
O37 O 0.30654 0.06321 0.19177 0.0
C38 C 0.29757 0.05196 0.22038 0.0
O39 O 0.30049 0.05912 0.25632 0.0
C40 C 0.32706 0.10607 0.2931 0.0
C41 C 0.30539 0.12949 0.17687 0.0
O42 O 0.28984 0.12008 0.19685 0.0
O43 O 0.31705 0.12298 0.17618 0.0
O44 O 0.89783 0.19831 0.29799 0.0
Cd45 Cd 0.90347 0.19215 0.22976 0.0
O46 O 0.89631 0.22385 0.28047 0.0
Cd47 Cd 0.91152 0.22673 0.22537 0.0
O48 O 0.94168 0.24227 0.2077 0.0
C49 C 0.9534 0.2501 0.2362 0.0
O50 O 0.94645 0.24788 0.27226 0.0
C51 C 0.89437 0.21167 0.30674 0.0
C52 C 0.86877 0.16914 0.19023 0.0
O53 O 0.87759 0.16171 0.20801 0.0
O54 O 0.87645 0.18747 0.19095 0.0
O55 O 0.77961 0.6605 0.31518 0.0
Cd56 Cd 0.77272 0.65841 0.24427 0.0
O57 O 0.7879 0.69098 0.31886 0.0
Cd58 Cd 0.77825 0.69321 0.26006 0.0
O59 O 0.76151 0.70493 0.23381 0.0
C60 C 0.7564 0.71347 0.25843 0.0
O61 O 0.76157 0.71435 0.29563 0.0
C62 C 0.78596 0.67588 0.33524 0.0
C63 C 0.80585 0.67242 0.19801 0.0
O64 O 0.7991 0.68327 0.208 0.0
O65 O 0.79691 0.65493 0.20994 0.0
O66 O 0.86074 0.62307 0.84399 0.0
Cd67 Cd 0.84985 0.6036 0.78397 0.0
O68 O 0.88899 0.63941 0.81603 0.0
Cd69 Cd 0.91857 0.66282 0.80774 0.0
O70 O 0.9477 0.68172 0.78566 0.0
C71 C 0.96149 0.67989 0.79894 0.0
O72 O 0.95788 0.66708 0.82678 0.0
C73 C 0.87808 0.63664 0.84555 0.0
C74 C 0.828 0.61407 0.73698 0.0
O75 O 0.81997 0.60025 0.76193 0.0
O76 O 0.84637 0.62289 0.73424 0.0
O77 O 0.33341 0.20246 0.76458 0.0
Cd78 Cd 0.33451 0.19926 0.69309 0.0
O79 O 0.3194 0.21879 0.74849 0.0
Cd80 Cd 0.30514 0.23571 0.7557 0.0
O81 O 0.29287 0.25428 0.74651 0.0
C82 C 0.30043 0.27079 0.76244 0.0
O83 O 0.31544 0.27627 0.78552 0.0
C84 C 0.32578 0.21227 0.77523 0.0
C85 C 0.34657 0.17395 0.66842 0.0
O86 O 0.35871 0.19176 0.67434 0.0
O87 O 0.32878 0.16812 0.67508 0.0
O88 O 0.77433 0.1435 0.80366 0.0
Cd89 Cd 0.77294 0.14906 0.73299 0.0
O90 O 0.76887 0.11493 0.78735 0.0
Cd91 Cd 0.76373 0.08543 0.78939 0.0
O92 O 0.75039 0.05465 0.77704 0.0
C93 C 0.73224 0.04459 0.7808 0.0
O94 O 0.72273 0.05308 0.79233 0.0
C95 C 0.7714 0.12707 0.81426 0.0
C96 C 0.80886 0.17208 0.69839 0.0
O97 O 0.79909 0.17942 0.7121 0.0
O98 O 0.80168 0.15385 0.70149 0.0
O99 O 0.63988 0.86953 0.66151 0.0
Cd100 Cd 0.62412 0.86304 0.72613 0.0
O101 O 0.65772 0.8989 0.6831 0.0
Cd102 Cd 0.68098 0.92889 0.68498 0.0
O103 O 0.69831 0.95889 0.70349 0.0
C104 C 0.69116 0.96444 0.73045 0.0
O105 O 0.67427 0.95196 0.745 0.0
C106 C 0.65325 0.88668 0.65538 0.0
C107 C 0.62358 0.83261 0.7672 0.0
O108 O 0.6093 0.82996 0.74572 0.0
O109 O 0.63818 0.84961 0.76888 0.0
O110 O 0.13423 0.76792 0.66799 0.0
Cd111 Cd 0.14008 0.75804 0.73253 0.0
O112 O 0.10391 0.75293 0.68471 0.0
Cd113 Cd 0.07318 0.74322 0.68179 0.0
O114 O 0.04323 0.72995 0.70109 0.0
C115 C 0.03928 0.72161 0.73459 0.0
O116 O 0.0532 0.72153 0.75484 0.0
C117 C 0.11693 0.76286 0.65954 0.0
C118 C 0.16778 0.78875 0.77677 0.0
O119 O 0.17231 0.77841 0.75551 0.0
O120 O 0.15016 0.78459 0.77699 0.0
O121 O 0.22464 0.37292 0.65466 0.0
Cd122 Cd 0.23439 0.39049 0.71725 0.0
O123 O 0.2396 0.35817 0.67559 0.0
Cd124 Cd 0.24899 0.33688 0.67574 0.0
O125 O 0.25995 0.31765 0.69066 0.0
C126 C 0.27102 0.3218 0.72041 0.0
O127 O 0.27543 0.33746 0.74051 0.0
C128 C 0.22984 0.36056 0.64888 0.0
C129 C 0.20353 0.38646 0.76253 0.0
O130 O 0.21254 0.40074 0.73893 0.0
O131 O 0.20897 0.37396 0.76428 0.0
O132 O 0.77489 0.65625 0.52428 0.0
Cd133 Cd 0.76509 0.65254 0.59363 0.0
O134 O 0.77493 0.68358 0.5198 0.0
Cd135 Cd 0.75758 0.6782 0.57291 0.0
O136 O 0.72883 0.66731 0.59746 0.0
C137 C 0.7187 0.64961 0.60616 0.0
O138 O 0.7263 0.63851 0.60284 0.0
C139 C 0.77865 0.67129 0.50481 0.0
C140 C 0.78469 0.63929 0.64023 0.0
O141 O 0.76822 0.62759 0.62538 0.0
O142 O 0.79189 0.65724 0.63284 0.0
O143 O 0.36417 0.10619 0.46624 0.0
Cd144 Cd 0.37329 0.10078 0.5321 0.0
O145 O 0.33313 0.08771 0.47625 0.0
Cd146 Cd 0.33843 0.07506 0.52817 0.0
O147 O 0.35235 0.0611 0.55735 0.0
C148 C 0.36154 0.05595 0.53457 0.0
O149 O 0.36151 0.05905 0.49639 0.0
C150 C 0.34694 0.09963 0.45461 0.0
C151 C 0.36686 0.12319 0.58607 0.0
O152 O 0.38322 0.12963 0.56917 0.0
O153 O 0.35375 0.10594 0.57825 0.0
O154 O 0.90385 0.22988 0.49455 0.0
Cd155 Cd 0.91108 0.24226 0.56217 0.0
O156 O 0.89183 0.24809 0.47743 0.0
Cd157 Cd 0.90222 0.26604 0.53006 0.0
O158 O 0.92066 0.2944 0.55553 0.0
C159 C 0.93272 0.30697 0.53186 0.0
O160 O 0.93328 0.30187 0.49519 0.0
C161 C 0.89546 0.23481 0.46912 0.0
C162 C 0.8795 0.22003 0.61072 0.0
O163 O 0.88168 0.23533 0.594 0.0
O164 O 0.89249 0.21549 0.60499 0.0
O165 O 0.98143 0.43402 0.65365 0.0
Cd166 Cd 0.97492 0.42386 0.58433 0.0
O167 O 0.01179 0.44185 0.64994 0.0
Cd168 Cd 0.00699 0.42761 0.59294 0.0
O169 O 0.99172 0.39961 0.56422 0.0
C170 C 0.98043 0.38587 0.58674 0.0
O171 O 0.97902 0.38972 0.62398 0.0
C172 C 0.99791 0.441 0.6697 0.0
C173 C 0.96596 0.44693 0.53752 0.0
O174 O 0.95271 0.43157 0.55378 0.0
O175 O 0.98346 0.45151 0.54387 0.0
O176 O 0.5844 0.56503 0.70408 0.0
Cd177 Cd 0.59979 0.5716 0.63908 0.0
O178 O 0.57548 0.58662 0.69676 0.0
Cd179 Cd 0.59612 0.60034 0.64899 0.0
O180 O 0.62588 0.61603 0.6287 0.0
C181 C 0.6378 0.61328 0.64831 0.0
O182 O 0.63149 0.60117 0.67818 0.0
C183 C 0.57493 0.57281 0.71629 0.0
C184 C 0.57332 0.54557 0.58536 0.0
O185 O 0.57428 0.56172 0.59214 0.0
O186 O 0.58531 0.54205 0.60321 0.0
O187 O 0.44051 0.98263 0.66535 0.0
Cd188 Cd 0.43489 0.98392 0.59449 0.0
O189 O 0.44693 0.01216 0.67693 0.0
Cd190 Cd 0.43811 0.01638 0.61878 0.0
O191 O 0.42028 0.02425 0.58403 0.0
C192 C 0.40815 0.02653 0.60393 0.0
O193 O 0.40731 0.02375 0.6424 0.0
C194 C 0.4456 0.99659 0.68918 0.0
C195 C 0.46896 0.00293 0.551 0.0
O196 O 0.46125 0.98498 0.55905 0.0
O197 O 0.46058 0.01188 0.56371 0.0
O198 O 0.54145 0.97287 0.19008 0.0
Cd199 Cd 0.53636 0.95692 0.12605 0.0
O200 O 0.57215 0.98892 0.17626 0.0
Cd201 Cd 0.60229 0.01128 0.18321 0.0
O202 O 0.63226 0.03163 0.16836 0.0
C203 C 0.63881 0.0275 0.13798 0.0
O204 O 0.62741 0.01152 0.11896 0.0
C205 C 0.55844 0.98546 0.1998 0.0
C206 C 0.50762 0.95825 0.08204 0.0
O207 O 0.5038 0.94371 0.10391 0.0
O208 O 0.52504 0.97211 0.08097 0.0
O209 O 0.03289 0.56477 0.17667 0.0
Cd210 Cd 0.04928 0.57296 0.11256 0.0
O211 O 0.01268 0.5721 0.14961 0.0
Cd212 Cd 0.98909 0.57825 0.14649 0.0
O213 O 0.97139 0.59044 0.12761 0.0
C214 C 0.97871 0.60856 0.12964 0.0
O215 O 0.99609 0.61883 0.14437 0.0
C216 C 0.01814 0.56661 0.17978 0.0
C217 C 0.04554 0.5415 0.06991 0.0
O218 O 0.05996 0.55119 0.09275 0.0
O219 O 0.0327 0.54649 0.06785 0.0
O220 O 0.43092 0.44411 0.19889 0.0
Cd221 Cd 0.42333 0.43951 0.12815 0.0
O222 O 0.44414 0.4259 0.19745 0.0
Cd223 Cd 0.43358 0.41456 0.13856 0.0
O224 O 0.41633 0.39084 0.09849 0.0
C225 C 0.40565 0.37466 0.11488 0.0
O226 O 0.40574 0.3736 0.15369 0.0
C227 C 0.44001 0.43704 0.2163 0.0
C228 C 0.45037 0.47098 0.08409 0.0
O229 O 0.43495 0.47016 0.09677 0.0
O230 O 0.45291 0.45681 0.09204 0.0
O231 O 0.32942 0.22247 0.96889 0.0
Cd232 Cd 0.3335 0.23085 0.03921 0.0
O233 O 0.32967 0.24871 0.94935 0.0
Cd234 Cd 0.33608 0.26256 0.00708 0.0
O235 O 0.35099 0.28809 0.04404 0.0
C236 C 0.35972 0.30401 0.02559 0.0
O237 O 0.35884 0.30379 0.98676 0.0
C238 C 0.3282 0.23259 0.94127 0.0
C239 C 0.32393 0.19854 0.08611 0.0
O240 O 0.31138 0.20331 0.0772 0.0
O241 O 0.34106 0.20914 0.07296 0.0
O242 O 0.76381 0.09871 0.00029 0.0
Cd243 Cd 0.76149 0.09392 0.07222 0.0
O244 O 0.76392 0.12612 0.0044 0.0
Cd245 Cd 0.75128 0.11842 0.06341 0.0
O246 O 0.72553 0.09816 0.09606 0.0
C247 C 0.71488 0.08266 0.07742 0.0
O248 O 0.72055 0.08041 0.04236 0.0
C249 C 0.76572 0.11384 0.98392 0.0
C250 C 0.79624 0.11893 0.10999 0.0
O251 O 0.79239 0.1021 0.09908 0.0
O252 O 0.78362 0.12386 0.10319 0.0
O253 O 0.89764 0.69939 0.98525 0.0
Cd254 Cd 0.90524 0.71826 0.04597 0.0
O255 O 0.9096 0.68321 0.01374 0.0
Cd256 Cd 0.91614 0.66005 0.02177 0.0
O257 O 0.92725 0.64179 0.04313 0.0
C258 C 0.9415 0.64943 0.0666 0.0
O259 O 0.94867 0.66761 0.07605 0.0
C260 C 0.90173 0.68604 0.9838 0.0
C261 C 0.87352 0.70309 0.09653 0.0
O262 O 0.87674 0.71661 0.07212 0.0
O263 O 0.88543 0.6969 0.09723 0.0
O264 O 0.42941 0.96552 0.87044 0.0
Cd265 Cd 0.41814 0.95661 0.93859 0.0
O266 O 0.43562 0.99521 0.87858 0.0
Cd267 Cd 0.418 0.98729 0.93171 0.0
O268 O 0.38781 0.97337 0.94878 0.0
C269 C 0.37605 0.96688 0.92002 0.0
O270 O 0.38296 0.96898 0.88396 0.0
C271 C 0.43638 0.98257 0.85727 0.0
C272 C 0.44713 0.95793 0.98631 0.0
O273 O 0.43449 0.94217 0.97031 0.0
O274 O 0.44591 0.97302 0.98007 0.0
O275 O 0.02562 0.45301 0.85334 0.0
Cd276 Cd 0.03263 0.44849 0.92183 0.0
O277 O 0.99481 0.43203 0.85891 0.0
Cd278 Cd 0.00027 0.42057 0.91258 0.0
O279 O 0.01451 0.40436 0.92782 0.0
C280 C 0.02 0.39865 0.89808 0.0
O281 O 0.01652 0.4028 0.86251 0.0
C282 C 0.00876 0.44473 0.83872 0.0
C283 C 0.03739 0.47836 0.97132 0.0
O284 O 0.05185 0.47856 0.95484 0.0
O285 O 0.02064 0.46406 0.9642 0.0
O286 O 0.5374 0.56891 0.8904 0.0
Cd287 Cd 0.53276 0.5734 0.96038 0.0
O288 O 0.56011 0.56203 0.90273 0.0
Cd289 Cd 0.56456 0.57528 0.96068 0.0
O290 O 0.57926 0.60604 0.97318 0.0
C291 C 0.58424 0.61647 0.94223 0.0
O292 O 0.58 0.60796 0.90753 0.0
C293 C 0.54893 0.56353 0.87818 0.0
C294 C 0.5063 0.53925 0.99793 0.0
O295 O 0.52412 0.54424 0.99561 0.0
O296 O 0.50101 0.55041 0.98228 0.0
O297 O 0.62659 0.75502 0.98285 0.0
Cd298 Cd 0.61473 0.74177 0.91695 0.0
O299 O 0.65572 0.76089 0.96889 0.0
Cd300 Cd 0.6449 0.74077 0.91975 0.0
O301 O 0.62941 0.70961 0.91301 0.0
C302 C 0.62565 0.70033 0.94542 0.0
O303 O 0.63126 0.71009 0.97863 0.0
C304 C 0.64419 0.7624 0.99242 0.0
C305 C 0.6183 0.77059 0.86554 0.0
O306 O 0.60248 0.75976 0.88373 0.0
O307 O 0.63235 0.76761 0.87128 0.0
O308 O 0.23972 0.87665 0.99093 0.0
Cd309 Cd 0.25319 0.8771 0.92571 0.0
O310 O 0.23242 0.89862 0.97402 0.0
Cd311 Cd 0.25129 0.90668 0.92281 0.0
O312 O 0.28197 0.92134 0.90967 0.0
C313 C 0.29277 0.92775 0.93994 0.0
O314 O 0.28466 0.92502 0.97492 0.0
C315 C 0.2318 0.88652 0.99917 0.0
C316 C 0.22553 0.84927 0.87611 0.0
O317 O 0.22708 0.86587 0.87965 0.0
O318 O 0.23718 0.84591 0.89577 0.0
O319 O 0.11372 0.36131 0.97979 0.0
Cd320 Cd 0.11056 0.3715 0.91321 0.0
O321 O 0.09435 0.33071 0.96709 0.0
Cd322 Cd 0.08434 0.33793 0.91348 0.0
O323 O 0.06815 0.3517 0.89476 0.0
C324 C 0.06256 0.35823 0.92288 0.0
O325 O 0.06692 0.35613 0.95935 0.0
C326 C 0.10578 0.34381 0.99063 0.0
C327 C 0.14056 0.37698 0.86333 0.0
O328 O 0.12585 0.36025 0.8683 0.0
O329 O 0.14111 0.39109 0.88215 0.0
O330 O 0.19284 0.30404 0.49508 0.0
Cd331 Cd 0.18707 0.28703 0.43213 0.0
O332 O 0.22292 0.31995 0.47665 0.0
Cd333 Cd 0.25332 0.34204 0.47877 0.0
O334 O 0.28381 0.36117 0.46631 0.0
C335 C 0.29541 0.35489 0.47077 0.0
O336 O 0.28871 0.33731 0.48408 0.0
C337 C 0.21008 0.3169 0.50223 0.0
C338 C 0.16002 0.28966 0.38479 0.0
O339 O 0.15511 0.27516 0.40755 0.0
O340 O 0.17771 0.30295 0.38457 0.0
O341 O 0.70557 0.89912 0.49906 0.0
Cd342 Cd 0.72078 0.9052 0.43394 0.0
O343 O 0.68919 0.91196 0.47569 0.0
Cd344 Cd 0.66719 0.92042 0.47333 0.0
O345 O 0.64952 0.93314 0.45804 0.0
C346 C 0.65136 0.94021 0.42356 0.0
O347 O 0.66354 0.9393 0.39896 0.0
C348 C 0.69312 0.90424 0.50436 0.0
C349 C 0.70632 0.87175 0.38875 0.0
O350 O 0.72157 0.87759 0.4096 0.0
O351 O 0.69795 0.88177 0.38923 0.0
O352 O 0.10365 0.80236 0.50207 0.0
Cd353 Cd 0.09566 0.81046 0.43775 0.0
O354 O 0.08931 0.77251 0.4821 0.0
Cd355 Cd 0.07991 0.74181 0.48274 0.0
O356 O 0.06779 0.71191 0.46388 0.0
C357 C 0.06043 0.70764 0.42948 0.0
O358 O 0.06055 0.72126 0.40771 0.0
C359 C 0.09851 0.78488 0.50884 0.0
C360 C 0.12833 0.83554 0.39443 0.0
O361 O 0.11972 0.84189 0.41637 0.0
O362 O 0.12153 0.81733 0.39321 0.0
O363 O 0.96023 0.52961 0.32897 0.0
Cd364 Cd 0.94236 0.52071 0.39132 0.0
O365 O 0.98034 0.55661 0.35806 0.0
Cd366 Cd 0.00419 0.58616 0.36353 0.0
O367 O 0.0226 0.61563 0.38426 0.0
C368 C 0.02164 0.62932 0.36771 0.0
O369 O 0.01011 0.62543 0.33722 0.0
C370 C 0.97543 0.54595 0.32751 0.0
C371 C 0.94948 0.49617 0.43779 0.0
O372 O 0.93519 0.48952 0.41389 0.0
O373 O 0.96052 0.51445 0.43938 0.0
O374 O 0.47575 0.45221 0.39502 0.0
Cd375 Cd 0.47994 0.45069 0.46609 0.0
O376 O 0.44586 0.44269 0.41003 0.0
Cd377 Cd 0.415 0.43044 0.4004 0.0
O378 O 0.38392 0.41502 0.40961 0.0
C379 C 0.37688 0.39998 0.43094 0.0
O380 O 0.38852 0.39439 0.44517 0.0
C381 C 0.45884 0.44739 0.38387 0.0
C382 C 0.51131 0.48347 0.49697 0.0
O383 O 0.51292 0.46916 0.4853 0.0
O384 O 0.49488 0.4823 0.49348 0.0
O385 O 0.56793 0.0401 0.35129 0.0
Cd386 Cd 0.5736 0.05668 0.41458 0.0
O387 O 0.58106 0.02433 0.37656 0.0
Cd388 Cd 0.58971 0.00251 0.37939 0.0
O389 O 0.60099 0.98376 0.39623 0.0
C390 C 0.61262 0.98183 0.37393 0.0
O391 O 0.61739 0.9909 0.33979 0.0
C392 C 0.57293 0.02748 0.34754 0.0
C393 C 0.54 0.0404 0.45966 0.0
O394 O 0.54445 0.05483 0.43701 0.0
O395 O 0.55154 0.03375 0.46108 0.0
C396 C 0.0965 0.31378 0.08313 0.0
C397 C 0.1029 0.32758 0.11352 0.0
C398 C 0.09872 0.31924 0.04324 0.0
C399 C 0.10757 0.33872 0.03209 0.0
H400 H 0.08857 0.29858 0.09005 0.0
H401 H 0.09252 0.30801 0.02111 0.0
S402 S 0.13035 0.38054 0.10026 0.0
N403 N 0.121 0.36161 0.12975 0.0
N404 N 0.12535 0.37192 0.05479 0.0
C405 C 0.1157 0.3527 0.06212 0.0
C406 C 0.1133 0.34712 0.10282 0.0
C407 C 0.67686 0.78261 0.08136 0.0
C408 C 0.6639 0.77857 0.11284 0.0
C409 C 0.67049 0.77855 0.04216 0.0
C410 C 0.65089 0.77038 0.03267 0.0
H411 H 0.69197 0.78793 0.08705 0.0
H412 H 0.68096 0.78098 0.01938 0.0
S413 S 0.61157 0.76055 0.10329 0.0
N414 N 0.63091 0.7685 0.13128 0.0
N415 N 0.61891 0.76095 0.05749 0.0
C416 C 0.63801 0.76793 0.06341 0.0
C417 C 0.64451 0.772 0.10349 0.0
C418 C 0.21206 0.90042 0.08684 0.0
C419 C 0.21666 0.89236 0.11912 0.0
C420 C 0.21579 0.89734 0.04789 0.0
C421 C 0.22418 0.886 0.0395 0.0
H422 H 0.20659 0.91013 0.0916 0.0
H423 H 0.21296 0.90476 0.02436 0.0
S424 S 0.23537 0.85853 0.11292 0.0
N425 N 0.22743 0.87027 0.13977 0.0
N426 N 0.23437 0.8644 0.0665 0.0
C427 C 0.22718 0.87639 0.07123 0.0
C428 C 0.22345 0.87961 0.11103 0.0
C429 C 0.31899 0.10045 0.36496 0.0
C430 C 0.33309 0.10819 0.33512 0.0
C431 C 0.32376 0.09858 0.40392 0.0
C432 C 0.34285 0.10454 0.41476 0.0
H433 H 0.30395 0.09476 0.35785 0.0
H434 H 0.31224 0.09173 0.42532 0.0
S435 S 0.38557 0.12866 0.34906 0.0
N436 N 0.36723 0.12394 0.31997 0.0
N437 N 0.37627 0.12062 0.39329 0.0
C438 C 0.3573 0.11369 0.38588 0.0
C439 C 0.3524 0.11545 0.34605 0.0
C440 C 0.89735 0.21303 0.41858 0.0
C441 C 0.8917 0.22649 0.42863 0.0
C442 C 0.89689 0.20726 0.37928 0.0
C443 C 0.89088 0.2148 0.34842 0.0
H444 H 0.903 0.20751 0.44091 0.0
H445 H 0.90234 0.19765 0.37289 0.0
S446 S 0.87147 0.24786 0.35953 0.0
N447 N 0.87748 0.24525 0.40487 0.0
N448 N 0.8768 0.23449 0.3311 0.0
C449 C 0.88383 0.22714 0.35836 0.0
C450 C 0.88418 0.23294 0.39841 0.0
C451 C 0.78143 0.65794 0.39872 0.0
C452 C 0.78843 0.6756 0.37876 0.0
C453 C 0.77967 0.65683 0.44006 0.0
C454 C 0.78476 0.67332 0.46291 0.0
H455 H 0.77616 0.64468 0.38227 0.0
H456 H 0.77308 0.64278 0.45384 0.0
S457 S 0.80769 0.7235 0.42603 0.0
N458 N 0.80344 0.71035 0.38579 0.0
N459 N 0.79988 0.70815 0.46332 0.0
C460 C 0.7934 0.69125 0.44372 0.0
C461 C 0.79533 0.69242 0.4017 0.0
C462 C 0.87263 0.65533 0.89744 0.0
C463 C 0.8848 0.64944 0.88037 0.0
C464 C 0.87838 0.66733 0.93068 0.0
C465 C 0.89631 0.6735 0.94863 0.0
H466 H 0.85862 0.65078 0.88474 0.0
H467 H 0.86858 0.67159 0.94277 0.0
S468 S 0.93338 0.66195 0.91569 0.0
N469 N 0.91547 0.6504 0.88419 0.0
N470 N 0.9264 0.67324 0.94645 0.0
C471 C 0.90862 0.66771 0.93195 0.0
C472 C 0.90283 0.65561 0.89781 0.0
C473 C 0.32669 0.23403 0.82902 0.0
C474 C 0.325 0.21646 0.81762 0.0
C475 C 0.32718 0.23883 0.86898 0.0
C476 C 0.32616 0.22629 0.89933 0.0
H477 H 0.32843 0.24459 0.80697 0.0
H478 H 0.32887 0.25272 0.876 0.0
S479 S 0.32085 0.17803 0.88493 0.0
N480 N 0.32169 0.18614 0.83962 0.0
N481 N 0.32274 0.19512 0.91487 0.0
C482 C 0.32415 0.20848 0.88828 0.0
C483 C 0.32361 0.20359 0.84746 0.0
C484 C 0.78178 0.13779 0.88368 0.0
C485 C 0.77085 0.12269 0.85709 0.0
C486 C 0.78043 0.13474 0.9247 0.0
C487 C 0.76834 0.11642 0.94067 0.0
H488 H 0.79125 0.1522 0.87273 0.0
H489 H 0.78879 0.14685 0.94408 0.0
S490 S 0.73537 0.07243 0.88472 0.0
N491 N 0.74628 0.08907 0.85038 0.0
N492 N 0.74468 0.08311 0.92728 0.0
C493 C 0.75749 0.10114 0.91461 0.0
C494 C 0.75851 0.10433 0.87285 0.0
C495 C 0.67752 0.88293 0.56245 0.0
C496 C 0.68296 0.90032 0.5427 0.0
C497 C 0.66785 0.87866 0.59882 0.0
C498 C 0.66364 0.89181 0.61719 0.0
H499 H 0.68054 0.8724 0.54945 0.0
H500 H 0.66381 0.86503 0.61285 0.0
S501 S 0.67507 0.93952 0.57801 0.0
N502 N 0.68393 0.93103 0.54468 0.0
N503 N 0.6652 0.92276 0.61247 0.0
C504 C 0.66904 0.90929 0.59785 0.0
C505 C 0.67884 0.91361 0.5607 0.0
C506 C 0.09505 0.75646 0.60157 0.0
C507 C 0.11231 0.76874 0.62145 0.0
C508 C 0.09075 0.76164 0.56487 0.0
C509 C 0.10349 0.77934 0.54693 0.0
H510 H 0.08494 0.7426 0.61404 0.0
H511 H 0.0772 0.75185 0.55087 0.0
S512 S 0.15051 0.81665 0.58695 0.0
N513 N 0.14219 0.79937 0.62048 0.0
N514 N 0.13405 0.80914 0.55181 0.0
C515 C 0.12073 0.79177 0.56662 0.0
C516 C 0.12519 0.78643 0.60371 0.0
C517 C 0.23718 0.3442 0.59418 0.0
C518 C 0.22444 0.34919 0.61188 0.0
C519 C 0.23252 0.33387 0.55855 0.0
C520 C 0.21492 0.32811 0.53939 0.0
H521 H 0.25103 0.3486 0.60751 0.0
H522 H 0.24265 0.3301 0.54635 0.0
S523 S 0.17652 0.33752 0.57361 0.0
N524 N 0.19347 0.34758 0.6076 0.0
N525 N 0.18467 0.32811 0.5408 0.0
C526 C 0.20201 0.33293 0.55689 0.0
C527 C 0.20682 0.34356 0.59296 0.0
C528 C 0.019 0.45409 0.72929 0.0
C529 C 0.0005 0.44571 0.71258 0.0
C530 C 0.02165 0.4551 0.77037 0.0
C531 C 0.00588 0.44761 0.79644 0.0
H532 H 0.03155 0.45905 0.71055 0.0
H533 H 0.03611 0.46068 0.78157 0.0
S534 S 0.95472 0.42744 0.76817 0.0
N535 N 0.96632 0.43228 0.7256 0.0
N536 N 0.97133 0.43403 0.8028 0.0
C537 C 0.98744 0.44071 0.78027 0.0
C538 C 0.98474 0.43982 0.73837 0.0
C539 C 0.57049 0.55787 0.78315 0.0
C540 C 0.56508 0.56727 0.75518 0.0
C541 C 0.56406 0.55547 0.82237 0.0
C542 C 0.55181 0.56221 0.83514 0.0
H543 H 0.58066 0.55328 0.77538 0.0
H544 H 0.56952 0.54911 0.84325 0.0
S545 S 0.5307 0.5847 0.7716 0.0
N546 N 0.54479 0.5811 0.74157 0.0
N547 N 0.53254 0.57646 0.81518 0.0
C548 C 0.54496 0.57013 0.80661 0.0
C549 C 0.55167 0.57273 0.76669 0.0
C550 C 0.43999 0.97526 0.74762 0.0
C551 C 0.44738 0.99392 0.73214 0.0
C552 C 0.43775 0.97187 0.78848 0.0
C553 C 0.44279 0.98699 0.81548 0.0
H554 H 0.43482 0.963 0.72805 0.0
H555 H 0.43094 0.95711 0.7987 0.0
S556 S 0.46656 0.03893 0.79062 0.0
N557 N 0.46254 0.02804 0.74738 0.0
N558 N 0.45828 0.02165 0.82411 0.0
C559 C 0.45182 0.00589 0.8006 0.0
C560 C 0.45412 0.00935 0.75898 0.0
C561 C 0.58209 0.01138 0.2954 0.0
C562 C 0.56892 0.01652 0.31023 0.0
C563 C 0.57869 0.00143 0.25949 0.0
C564 C 0.56196 0.99618 0.23731 0.0
H565 H 0.59529 0.01539 0.31119 0.0
H566 H 0.5891 0.99757 0.24939 0.0
S567 S 0.52292 0.00609 0.26348 0.0
N568 N 0.5385 0.01555 0.30011 0.0
N569 N 0.53207 0.99677 0.23285 0.0
C570 C 0.54863 0.00111 0.252 0.0
C571 C 0.55217 0.01138 0.2883 0.0
C572 C 0.9875 0.55363 0.21817 0.0
C573 C 0.00766 0.56244 0.21783 0.0
C574 C 0.97721 0.54852 0.25388 0.0
C575 C 0.98673 0.55235 0.29053 0.0
H576 H 0.97955 0.55007 0.19065 0.0
H577 H 0.96167 0.54146 0.2528 0.0
S578 S 0.0393 0.57486 0.30584 0.0
N579 N 0.03675 0.57463 0.25731 0.0
N580 N 0.01738 0.56504 0.32437 0.0
C581 C 0.00687 0.56127 0.29067 0.0
C582 C 0.01733 0.56626 0.25431 0.0
C583 C 0.46265 0.43828 0.31562 0.0
C584 C 0.45427 0.44576 0.34124 0.0
C585 C 0.45813 0.43581 0.27527 0.0
C586 C 0.44526 0.44099 0.25877 0.0
H587 H 0.47247 0.43387 0.327 0.0
H588 H 0.46473 0.42964 0.25696 0.0
S589 S 0.42093 0.46306 0.31303 0.0
N590 N 0.43364 0.45968 0.34721 0.0
N591 N 0.42498 0.455 0.27128 0.0
C592 C 0.43727 0.44912 0.28398 0.0
C593 C 0.44178 0.45149 0.32524 0.0
C594 C 0.00682 0.2812 0.25717 0.0
C595 C 0.01523 0.28504 0.21932 0.0
C596 C 0.98689 0.26984 0.26215 0.0
C597 C 0.97448 0.26181 0.22953 0.0
H598 H 0.01566 0.28703 0.28333 0.0
H599 H 0.98123 0.26741 0.292 0.0
S600 S 0.98915 0.26744 0.12392 0.0
N601 N 0.0095 0.27982 0.14841 0.0
N602 N 0.9721 0.2585 0.15787 0.0
C603 C 0.98267 0.26546 0.19145 0.0
C604 C 0.003 0.27706 0.18635 0.0
C605 C 0.7423 0.73436 0.27292 0.0
C606 C 0.74524 0.72273 0.24593 0.0
C607 C 0.7322 0.74368 0.26212 0.0
C608 C 0.72453 0.74175 0.22388 0.0
H609 H 0.748 0.73649 0.30269 0.0
H610 H 0.73053 0.75258 0.284 0.0
S611 S 0.72748 0.71227 0.14239 0.0
N612 N 0.73915 0.70935 0.17946 0.0
N613 N 0.72012 0.7268 0.1591 0.0
C614 C 0.72708 0.72991 0.19668 0.0
C615 C 0.73745 0.72044 0.20769 0.0
C616 C 0.27324 0.01954 0.24593 0.0
C617 C 0.28437 0.03108 0.21412 0.0
C618 C 0.26087 0.99973 0.24147 0.0
C619 C 0.25911 0.99056 0.20501 0.0
H620 H 0.27403 0.02582 0.27471 0.0
H621 H 0.25263 0.99157 0.26695 0.0
S622 S 0.28532 0.01418 0.11235 0.0
N623 N 0.29295 0.03182 0.14483 0.0
N624 N 0.26976 0.99462 0.13636 0.0
C625 C 0.27019 0.00191 0.17287 0.0
C626 C 0.28278 0.02214 0.17743 0.0
C627 C 0.01516 0.70047 0.78507 0.0
C628 C 0.01936 0.71169 0.75053 0.0
C629 C 0.99651 0.69048 0.80057 0.0
C630 C 0.9812 0.69134 0.78239 0.0
H631 H 0.02633 0.69915 0.80022 0.0
H632 H 0.99411 0.68193 0.82701 0.0
S633 S 0.98453 0.71917 0.69188 0.0
N634 N 0.00665 0.72341 0.69897 0.0
N635 N 0.97159 0.70471 0.72819 0.0
C636 C 0.98521 0.70276 0.74814 0.0
C637 C 0.00425 0.71288 0.73219 0.0
C638 C 0.27906 0.27904 0.72334 0.0
C639 C 0.29293 0.28393 0.75328 0.0
C640 C 0.27212 0.29135 0.713 0.0
C641 C 0.27866 0.30907 0.73229 0.0
H642 H 0.27359 0.26564 0.70732 0.0
H643 H 0.26152 0.28688 0.68961 0.0
S644 S 0.31462 0.32855 0.81352 0.0
N645 N 0.31276 0.30768 0.80262 0.0
N646 N 0.2997 0.33078 0.78332 0.0
C647 C 0.2924 0.31409 0.76261 0.0
C648 C 0.29954 0.30155 0.77305 0.0
C649 C 0.72059 0.9972 0.73276 0.0
C650 C 0.70153 0.98463 0.74485 0.0
C651 C 0.73057 0.01642 0.74527 0.0
C652 C 0.72183 0.02392 0.77001 0.0
H653 H 0.7279 0.99221 0.71332 0.0
H654 H 0.74512 0.02555 0.73474 0.0
S655 S 0.6725 0.99691 0.81162 0.0
N656 N 0.67455 0.98102 0.7843 0.0
N657 N 0.69324 0.01709 0.80744 0.0
C658 C 0.7029 0.01146 0.78284 0.0
C659 C 0.69278 0.99185 0.77038 0.0
C660 C 0.68911 0.62367 0.63845 0.0
C661 C 0.69828 0.64121 0.61775 0.0
C662 C 0.66962 0.61491 0.6485 0.0
C663 C 0.65842 0.62314 0.63759 0.0
H664 H 0.69705 0.61662 0.64707 0.0
H665 H 0.66322 0.60139 0.66441 0.0
S666 S 0.67551 0.66905 0.58336 0.0
N667 N 0.69471 0.66669 0.58711 0.0
N668 N 0.65796 0.65 0.60542 0.0
C669 C 0.66737 0.6407 0.61693 0.0
C670 C 0.68734 0.64981 0.60724 0.0
C671 C 0.37334 0.04514 0.59214 0.0
C672 C 0.37284 0.04753 0.55099 0.0
C673 C 0.38454 0.03806 0.60874 0.0
C674 C 0.39579 0.03311 0.58495 0.0
H675 H 0.36519 0.04898 0.61192 0.0
H676 H 0.38456 0.03676 0.64066 0.0
S677 S 0.39879 0.03562 0.47524 0.0
N678 N 0.38403 0.04359 0.48655 0.0
N679 N 0.40512 0.03035 0.51784 0.0
C680 C 0.39514 0.03503 0.54365 0.0
C681 C 0.38367 0.04221 0.52668 0.0
C682 C 0.95558 0.35139 0.59715 0.0
C683 C 0.96881 0.3659 0.57177 0.0
C684 C 0.94414 0.33243 0.58408 0.0
C685 C 0.94545 0.32711 0.54504 0.0
H686 H 0.95387 0.35466 0.62745 0.0
H687 H 0.93411 0.3219 0.60482 0.0
S688 S 0.97828 0.35952 0.46691 0.0
N689 N 0.98285 0.37354 0.50582 0.0
N690 N 0.96142 0.33794 0.4812 0.0
C691 C 0.95879 0.34143 0.51938 0.0
C692 C 0.97044 0.36079 0.53273 0.0
C693 C 0.67027 0.05845 0.14255 0.0
C694 C 0.65855 0.04085 0.12318 0.0
C695 C 0.68859 0.07169 0.12808 0.0
C696 C 0.69595 0.06792 0.09357 0.0
H697 H 0.66518 0.0622 0.16888 0.0
H698 H 0.69688 0.08514 0.14377 0.0
S699 S 0.67154 0.02347 0.03288 0.0
N700 N 0.65606 0.02005 0.06842 0.0
N701 N 0.69035 0.04484 0.04133 0.0
C702 C 0.68457 0.05018 0.07441 0.0
C703 C 0.66594 0.03669 0.08916 0.0
C704 C 0.97631 0.63813 0.11983 0.0
C705 C 0.96836 0.61823 0.11423 0.0
C706 C 0.96743 0.64795 0.10458 0.0
C707 C 0.95022 0.63834 0.08284 0.0
H708 H 0.98963 0.64633 0.13603 0.0
H709 H 0.97429 0.66329 0.10966 0.0
S710 S 0.92312 0.58609 0.0604 0.0
N711 N 0.94196 0.58911 0.08591 0.0
N712 N 0.92529 0.60759 0.05711 0.0
C713 C 0.94195 0.61837 0.07726 0.0
C714 C 0.95099 0.60832 0.09301 0.0
C715 C 0.37222 0.32222 0.08894 0.0
C716 C 0.37112 0.32237 0.04739 0.0
C717 C 0.38325 0.3392 0.11031 0.0
C718 C 0.3937 0.35709 0.09111 0.0
H719 H 0.3646 0.30885 0.10525 0.0
H720 H 0.38367 0.33819 0.14223 0.0
S721 S 0.39525 0.36554 0.98274 0.0
N722 N 0.38114 0.34211 0.98779 0.0
N723 N 0.40188 0.37398 0.028 0.0
C724 C 0.39257 0.35753 0.04958 0.0
C725 C 0.38129 0.3402 0.02775 0.0
C726 C 0.34244 0.94948 0.89374 0.0
C727 C 0.35493 0.9571 0.92638 0.0
C728 C 0.32245 0.94011 0.89843 0.0
C729 C 0.31404 0.93794 0.93597 0.0
H730 H 0.3481 0.95068 0.86413 0.0
H731 H 0.31355 0.93448 0.87229 0.0
S732 S 0.3403 0.95561 0.03117 0.0
N733 N 0.35738 0.96204 0.99766 0.0
N734 N 0.31985 0.94446 0.00655 0.0
C735 C 0.32634 0.94558 0.96894 0.0
C736 C 0.34675 0.95514 0.96414 0.0
C737 C 0.03559 0.38509 0.94153 0.0
C738 C 0.03049 0.38794 0.90333 0.0
C739 C 0.04586 0.37543 0.94738 0.0
C740 C 0.05147 0.36816 0.91531 0.0
H741 H 0.03176 0.39048 0.96727 0.0
H742 H 0.04947 0.37376 0.97744 0.0
S743 S 0.04126 0.37128 0.8092 0.0
N744 N 0.03155 0.38231 0.83277 0.0
N745 N 0.05082 0.36418 0.84385 0.0
C746 C 0.04632 0.37072 0.87692 0.0
C747 C 0.03585 0.38059 0.87092 0.0
C748 C 0.59886 0.64864 0.90936 0.0
C749 C 0.59474 0.63779 0.94446 0.0
C750 C 0.60882 0.66876 0.91002 0.0
C751 C 0.61514 0.67897 0.94581 0.0
H752 H 0.59434 0.64157 0.88092 0.0
H753 H 0.61156 0.67635 0.88211 0.0
S754 S 0.60829 0.65746 0.04619 0.0
N755 N 0.59793 0.63881 0.01614 0.0
N756 N 0.61666 0.67662 0.01749 0.0
C757 C 0.61117 0.66832 0.98123 0.0
C758 C 0.60098 0.64777 0.98053 0.0
C759 C 0.3485 0.37133 0.46066 0.0
C760 C 0.35602 0.38894 0.44033 0.0
C761 C 0.32896 0.36054 0.47037 0.0
C762 C 0.31608 0.36693 0.4604 0.0
H763 H 0.35774 0.36571 0.46916 0.0
H764 H 0.32398 0.34708 0.48596 0.0
S765 S 0.32838 0.41212 0.40705 0.0
N766 N 0.34896 0.4123 0.41046 0.0
N767 N 0.31226 0.39208 0.42884 0.0
C768 C 0.32338 0.38455 0.44013 0.0
C769 C 0.34331 0.39552 0.43003 0.0
C770 C 0.64423 0.95906 0.37423 0.0
C771 C 0.64059 0.94997 0.41143 0.0
C772 C 0.63491 0.96902 0.36227 0.0
C773 C 0.62151 0.97034 0.38693 0.0
H774 H 0.65456 0.95872 0.35416 0.0
H775 H 0.63847 0.97592 0.33352 0.0
S776 S 0.60609 0.94832 0.48668 0.0
N777 N 0.62209 0.9424 0.47246 0.0
N778 N 0.60457 0.96108 0.45001 0.0
C779 C 0.61741 0.96099 0.42396 0.0
C780 C 0.62694 0.95085 0.43619 0.0
C781 C 0.03187 0.66423 0.36334 0.0
C782 C 0.03246 0.64922 0.3836 0.0
C783 C 0.04114 0.68301 0.37823 0.0
C784 C 0.05134 0.68763 0.41419 0.0
H785 H 0.02406 0.66149 0.33575 0.0
H786 H 0.04004 0.69392 0.36149 0.0
S787 S 0.0579 0.65378 0.47836 0.0
N788 N 0.0446 0.6404 0.44123 0.0
N789 N 0.06194 0.67568 0.46926 0.0
C790 C 0.05231 0.67284 0.43458 0.0
C791 C 0.04292 0.65368 0.41928 0.0
C792 C 0.12876 0.27377 0.34837 0.0
C793 C 0.14572 0.29072 0.35878 0.0
C794 C 0.11524 0.27421 0.32283 0.0
C795 C 0.11795 0.29165 0.3073 0.0
H796 H 0.12602 0.25998 0.35952 0.0
H797 H 0.10247 0.26075 0.31549 0.0
S798 S 0.15973 0.34015 0.32608 0.0
N799 N 0.16442 0.32549 0.35181 0.0
N800 N 0.13882 0.32635 0.30444 0.0
C801 C 0.13472 0.30875 0.31788 0.0
C802 C 0.14865 0.30827 0.34341 0.0
C803 C 0.71086 0.8466 0.35507 0.0
C804 C 0.6988 0.85405 0.36452 0.0
C805 C 0.70426 0.83001 0.33196 0.0
C806 C 0.68524 0.81999 0.31789 0.0
H807 H 0.72562 0.85374 0.36529 0.0
H808 H 0.71412 0.82488 0.32549 0.0
S809 S 0.64778 0.83341 0.33447 0.0
N810 N 0.66687 0.85013 0.35788 0.0
N811 N 0.6544 0.81878 0.31497 0.0
C812 C 0.67297 0.82722 0.32725 0.0
C813 C 0.67977 0.84428 0.35038 0.0
C814 C 0.15765 0.8422 0.35607 0.0
C815 C 0.14563 0.84876 0.37113 0.0
C816 C 0.17407 0.85429 0.33385 0.0
C817 C 0.17898 0.87335 0.32524 0.0
H818 H 0.15445 0.82761 0.36166 0.0
H819 H 0.18285 0.84854 0.32293 0.0
S820 S 0.15235 0.89764 0.3578 0.0
N821 N 0.13989 0.87569 0.37612 0.0
N822 N 0.17059 0.89831 0.33389 0.0
C823 C 0.16708 0.88011 0.34005 0.0
C824 C 0.15048 0.86787 0.36314 0.0
C825 C 0.32784 0.15834 0.13675 0.0
C826 C 0.30975 0.14725 0.1548 0.0
C827 C 0.33231 0.17495 0.11506 0.0
C828 C 0.31886 0.18115 0.11025 0.0
H829 H 0.3387 0.15417 0.13926 0.0
H830 H 0.34642 0.18287 0.10163 0.0
S831 S 0.26946 0.15741 0.15202 0.0
N832 N 0.27832 0.14383 0.16681 0.0
N833 N 0.28669 0.17496 0.12596 0.0
C834 C 0.30073 0.17028 0.12837 0.0
C835 C 0.29621 0.15338 0.15065 0.0
C836 C 0.82666 0.12522 0.14351 0.0
C837 C 0.81467 0.13216 0.13009 0.0
C838 C 0.84403 0.13725 0.16294 0.0
C839 C 0.85027 0.15681 0.16947 0.0
H840 H 0.82255 0.11028 0.13926 0.0
H841 H 0.85267 0.13115 0.17274 0.0
S842 S 0.82431 0.18227 0.13986 0.0
N843 N 0.81035 0.15997 0.12462 0.0
N844 N 0.84302 0.1826 0.16085 0.0
C845 C 0.83849 0.164 0.15602 0.0
C846 C 0.8207 0.15169 0.13646 0.0
C847 C 0.83002 0.69742 0.15259 0.0
C848 C 0.82328 0.6799 0.17287 0.0
C849 C 0.84621 0.70473 0.128 0.0
C850 C 0.8565 0.69496 0.12302 0.0
H851 H 0.82261 0.70551 0.15532 0.0
H852 H 0.85072 0.71825 0.11291 0.0
S853 S 0.84506 0.64861 0.17001 0.0
N854 N 0.8283 0.65298 0.18655 0.0
N855 N 0.85883 0.66682 0.14067 0.0
C856 C 0.85005 0.67749 0.1434 0.0
C857 C 0.83343 0.66994 0.16818 0.0
C858 C 0.81514 0.64423 0.6709 0.0
C859 C 0.79525 0.63236 0.66494 0.0
C860 C 0.82558 0.63809 0.69388 0.0
C861 C 0.81653 0.61995 0.71235 0.0
H862 H 0.82279 0.65834 0.65743 0.0
H863 H 0.84088 0.64778 0.6975 0.0
S864 S 0.76464 0.58345 0.7065 0.0
N865 N 0.76684 0.60158 0.67947 0.0
N866 N 0.78642 0.59015 0.72311 0.0
C867 C 0.79661 0.60796 0.70685 0.0
C868 C 0.786 0.61413 0.683 0.0
C869 C 0.3435 0.12951 0.62228 0.0
C870 C 0.36262 0.13567 0.61142 0.0
C871 C 0.3386 0.14176 0.64203 0.0
C872 C 0.35262 0.1607 0.65187 0.0
H873 H 0.33202 0.1153 0.61426 0.0
H874 H 0.32358 0.13648 0.64848 0.0
S875 S 0.40516 0.18308 0.63462 0.0
N876 N 0.39594 0.1614 0.61522 0.0
N877 N 0.38676 0.18444 0.65246 0.0
C878 C 0.37196 0.16672 0.64312 0.0
C879 C 0.37695 0.15422 0.62288 0.0
C880 C 0.84969 0.21459 0.64541 0.0
C881 C 0.8622 0.20781 0.63504 0.0
C882 C 0.83275 0.2031 0.66668 0.0
C883 C 0.82751 0.18426 0.67815 0.0
H884 H 0.85287 0.22888 0.63677 0.0
H885 H 0.82351 0.20894 0.67342 0.0
S886 S 0.85566 0.15984 0.65985 0.0
N887 N 0.86848 0.18119 0.63912 0.0
N888 N 0.83659 0.15955 0.67881 0.0
C889 C 0.84006 0.17738 0.66865 0.0
C890 C 0.85741 0.18916 0.64722 0.0
C891 C 0.60365 0.78566 0.82391 0.0
C892 C 0.62022 0.78621 0.83912 0.0
C893 C 0.60494 0.80049 0.79987 0.0
C894 C 0.62283 0.81664 0.79065 0.0
H895 H 0.58953 0.77368 0.83063 0.0
H896 H 0.59174 0.79947 0.78921 0.0
S897 S 0.67062 0.82489 0.82231 0.0
N898 N 0.65516 0.80405 0.8424 0.0
N899 N 0.65754 0.83206 0.79779 0.0
C900 C 0.63954 0.8173 0.80532 0.0
C901 C 0.63825 0.80205 0.82935 0.0
C902 C 0.19938 0.80475 0.81194 0.0
C903 C 0.18242 0.80467 0.8012 0.0
C904 C 0.21318 0.8192 0.83622 0.0
C905 C 0.21075 0.83435 0.85011 0.0
H906 H 0.2019 0.79337 0.80211 0.0
H907 H 0.22591 0.81852 0.84396 0.0
S908 S 0.16913 0.84113 0.82958 0.0
N909 N 0.16407 0.82118 0.8059 0.0
N910 N 0.19017 0.84853 0.85092 0.0
C911 C 0.194 0.83463 0.83907 0.0
C912 C 0.1798 0.81974 0.81482 0.0
C913 C 0.17433 0.36647 0.80386 0.0
C914 C 0.1874 0.38445 0.78736 0.0
C915 C 0.1591 0.36416 0.8279 0.0
C916 C 0.15652 0.37981 0.837 0.0
H917 H 0.1758 0.35402 0.79803 0.0
H918 H 0.14945 0.35004 0.83993 0.0
S919 S 0.18665 0.42992 0.80109 0.0
N920 N 0.19659 0.41817 0.78145 0.0
N921 N 0.16816 0.41388 0.82716 0.0
C922 C 0.16946 0.39788 0.8207 0.0
C923 C 0.18482 0.40017 0.79572 0.0
C924 C 0.9714 0.49012 0.48034 0.0
C925 C 0.95321 0.48323 0.46291 0.0
C926 C 0.97539 0.47825 0.50418 0.0
C927 C 0.96127 0.45909 0.51209 0.0
H928 H 0.98276 0.50478 0.47529 0.0
H929 H 0.98964 0.48422 0.51679 0.0
S930 S 0.91125 0.43404 0.47383 0.0
N931 N 0.92091 0.45593 0.4552 0.0
N932 N 0.92833 0.43373 0.50042 0.0
C933 C 0.94297 0.45203 0.49504 0.0
C934 C 0.93897 0.46405 0.47032 0.0
C935 C 0.54377 0.49914 0.52857 0.0
C936 C 0.52769 0.50032 0.51602 0.0
C937 C 0.55867 0.51408 0.54994 0.0
C938 C 0.55823 0.5309 0.55939 0.0
H939 H 0.54462 0.48633 0.52293 0.0
H940 H 0.57047 0.51221 0.55979 0.0
S941 S 0.52018 0.54192 0.53026 0.0
N942 N 0.51279 0.52022 0.51235 0.0
N943 N 0.54086 0.54836 0.5523 0.0
C944 C 0.54263 0.53264 0.54555 0.0
C945 C 0.52735 0.51734 0.52397 0.0
C946 C 0.4982 0.00414 0.52214 0.0
C947 C 0.48703 0.01295 0.5278 0.0
C948 C 0.51536 0.01322 0.50043 0.0
C949 C 0.52195 0.03139 0.48308 0.0
H950 H 0.49375 0.99013 0.53476 0.0
H951 H 0.5234 0.00579 0.49695 0.0
S952 S 0.49796 0.06061 0.48885 0.0
N953 N 0.4838 0.04096 0.51423 0.0
N954 N 0.51593 0.05793 0.47314 0.0
C955 C 0.5109 0.04037 0.4884 0.0
C956 C 0.4935 0.03119 0.51085 0.0
C957 C 0.4752 0.94156 0.05012 0.0
C958 C 0.49237 0.95874 0.05819 0.0
C959 C 0.46071 0.94146 0.02683 0.0
C960 C 0.46267 0.95859 0.01117 0.0
H961 H 0.47299 0.92797 0.0614 0.0
H962 H 0.44783 0.92783 0.02124 0.0
S963 S 0.50466 0.00757 0.02432 0.0
N964 N 0.51043 0.99343 0.04899 0.0
N965 N 0.48311 0.99329 0.00572 0.0
C966 C 0.47967 0.97593 0.01943 0.0
C967 C 0.49454 0.976 0.04275 0.0
C968 C 0.02408 0.49687 0.00521 0.0
C969 C 0.03985 0.49429 0.99737 0.0
C970 C 0.02606 0.51211 0.02879 0.0
C971 C 0.04382 0.52522 0.046 0.0
H972 H 0.01012 0.48723 0.99254 0.0
H973 H 0.01352 0.51357 0.03356 0.0
S974 S 0.08945 0.52445 0.03579 0.0
N975 N 0.07377 0.50594 0.00936 0.0
N976 N 0.07744 0.5344 0.05406 0.0
C977 C 0.05964 0.52262 0.03897 0.0
C978 C 0.05767 0.50723 0.01454 0.0
C979 C 0.4605 0.5021 0.04909 0.0
C980 C 0.46481 0.48791 0.06126 0.0
C981 C 0.47389 0.51844 0.02821 0.0
C982 C 0.49226 0.52141 0.01887 0.0
H983 H 0.44664 0.50064 0.05577 0.0
H984 H 0.46985 0.52895 0.01983 0.0
S985 S 0.51067 0.48843 0.04302 0.0
N986 N 0.48873 0.47777 0.06163 0.0
N987 N 0.51392 0.50853 0.02266 0.0
C988 C 0.49674 0.50728 0.03053 0.0
C989 C 0.48303 0.49054 0.0516 0.0
loop_
_geom_bond_atom_site_label_1
_geom_bond_atom_site_label_2
_geom_bond_distance
_geom_bond_site_symmetry_2
_ccdc_geom_bond_type
O0 Cd1 2.300 . S
O0 C7 1.275 . S
Cd1 O0 2.300 . S
Cd1 O9 2.381 . S
Cd1 O10 2.378 . S
O2 Cd3 2.385 . S
O2 C7 1.255 . S
Cd3 O2 2.385 . S
Cd3 O4 2.317 . S
O4 Cd3 2.317 . S
O4 C5 1.232 . S
C5 O4 1.232 . S
C5 O6 1.218 . S
O6 C5 1.218 . S
C7 O0 1.275 . S
C7 O2 1.255 . S
C8 O9 1.258 . S
C8 O10 1.256 . S
O9 Cd1 2.381 . S
O9 C8 1.258 . S
O10 Cd1 2.378 . S
O10 C8 1.256 . S
O11 Cd12 2.300 . S
O11 C18 1.275 . S
Cd12 O11 2.300 . S
Cd12 O20 2.381 . S
Cd12 O21 2.378 . S
O13 Cd14 2.385 . S
O13 C18 1.255 . S
Cd14 O13 2.385 . S
Cd14 O15 2.317 . S
O15 Cd14 2.317 . S
O15 C16 1.232 . S
C16 O15 1.232 . S
C16 O17 1.218 . S
O17 C16 1.218 . S
C18 O11 1.275 . S
C18 O13 1.255 . S
C19 O20 1.258 . S
C19 O21 1.256 . S
O20 Cd12 2.381 . S
O20 C19 1.258 . S
O21 Cd12 2.378 . S
O21 C19 1.256 . S
O22 Cd23 2.300 . S
O22 C29 1.275 . S
Cd23 O22 2.300 . S
Cd23 O31 2.381 . S
Cd23 O32 2.378 . S
O24 Cd25 2.385 . S
O24 C29 1.255 . S
Cd25 O24 2.385 . S
Cd25 O26 2.317 . S
O26 Cd25 2.317 . S
O26 C27 1.232 . S
C27 O26 1.232 . S
C27 O28 1.218 . S
O28 C27 1.218 . S
C29 O22 1.275 . S
C29 O24 1.255 . S
C30 O31 1.258 . S
C30 O32 1.256 . S
O31 Cd23 2.381 . S
O31 C30 1.258 . S
O32 Cd23 2.378 . S
O32 C30 1.256 . S
O33 Cd34 2.300 . S
O33 C40 1.275 . S
Cd34 O33 2.300 . S
Cd34 O42 2.381 . S
Cd34 O43 2.378 . S
O35 Cd36 2.385 . S
O35 C40 1.255 . S
Cd36 O35 2.385 . S
Cd36 O37 2.317 . S
O37 Cd36 2.317 . S
O37 C38 1.232 . S
C38 O37 1.232 . S
C38 O39 1.218 . S
O39 C38 1.218 . S
C40 O33 1.275 . S
C40 O35 1.255 . S
C41 O42 1.258 . S
C41 O43 1.256 . S
O42 Cd34 2.381 . S
O42 C41 1.258 . S
O43 Cd34 2.378 . S
O43 C41 1.256 . S
O44 Cd45 2.300 . S
O44 C51 1.275 . S
Cd45 O44 2.300 . S
Cd45 O53 2.381 . S
Cd45 O54 2.378 . S
O46 Cd47 2.385 . S
O46 C51 1.255 . S
Cd47 O46 2.385 . S
Cd47 O48 2.317 . S
O48 Cd47 2.317 . S
O48 C49 1.232 . S
C49 O48 1.232 . S
C49 O50 1.218 . S
O50 C49 1.218 . S
C51 O44 1.275 . S
C51 O46 1.255 . S
C52 O53 1.258 . S
C52 O54 1.256 . S
O53 Cd45 2.381 . S
O53 C52 1.258 . S
O54 Cd45 2.378 . S
O54 C52 1.256 . S
O55 Cd56 2.300 . S
O55 C62 1.275 . S
Cd56 O55 2.300 . S
Cd56 O64 2.381 . S
Cd56 O65 2.378 . S
O57 Cd58 2.385 . S
O57 C62 1.255 . S
Cd58 O57 2.385 . S
Cd58 O59 2.317 . S
O59 Cd58 2.317 . S
O59 C60 1.232 . S
C60 O59 1.232 . S
C60 O61 1.218 . S
O61 C60 1.218 . S
C62 O55 1.275 . S
C62 O57 1.255 . S
C63 O64 1.258 . S
C63 O65 1.256 . S
O64 Cd56 2.381 . S
O64 C63 1.258 . S
O65 Cd56 2.378 . S
O65 C63 1.256 . S
O66 Cd67 2.300 . S
O66 C73 1.275 . S
Cd67 O66 2.300 . S
Cd67 O75 2.381 . S
Cd67 O76 2.378 . S
O68 Cd69 2.385 . S
O68 C73 1.255 . S
Cd69 O68 2.385 . S
Cd69 O70 2.317 . S
O70 Cd69 2.317 . S
O70 C71 1.232 . S
C71 O70 1.232 . S
C71 O72 1.218 . S
O72 C71 1.218 . S
C73 O66 1.275 . S
C73 O68 1.255 . S
C74 O75 1.258 . S
C74 O76 1.256 . S
O75 Cd67 2.381 . S
O75 C74 1.258 . S
O76 Cd67 2.378 . S
O76 C74 1.256 . S
O77 Cd78 2.300 . S
O77 C84 1.275 . S
Cd78 O77 2.300 . S
Cd78 O86 2.381 . S
Cd78 O87 2.378 . S
O79 Cd80 2.385 . S
O79 C84 1.255 . S
Cd80 O79 2.385 . S
Cd80 O81 2.317 . S
O81 Cd80 2.317 . S
O81 C82 1.232 . S
C82 O81 1.232 . S
C82 O83 1.218 . S
O83 C82 1.218 . S
C84 O77 1.275 . S
C84 O79 1.255 . S
C85 O86 1.258 . S
C85 O87 1.256 . S
O86 Cd78 2.381 . S
O86 C85 1.258 . S
O87 Cd78 2.378 . S
O87 C85 1.256 . S
O88 Cd89 2.300 . S
O88 C95 1.275 . S
Cd89 O88 2.300 . S
Cd89 O97 2.381 . S
Cd89 O98 2.378 . S
O90 Cd91 2.385 . S
O90 C95 1.255 . S
Cd91 O90 2.385 . S
Cd91 O92 2.317 . S
O92 Cd91 2.317 . S
O92 C93 1.232 . S
C93 O92 1.232 . S
C93 O94 1.218 . S
O94 C93 1.218 . S
C95 O88 1.275 . S
C95 O90 1.255 . S
C96 O97 1.258 . S
C96 O98 1.256 . S
O97 Cd89 2.381 . S
O97 C96 1.258 . S
O98 Cd89 2.378 . S
O98 C96 1.256 . S
O99 Cd100 2.300 . S
O99 C106 1.275 . S
Cd100 O99 2.300 . S
Cd100 O108 2.381 . S
Cd100 O109 2.378 . S
O101 Cd102 2.385 . S
O101 C106 1.255 . S
Cd102 O101 2.385 . S
Cd102 O103 2.317 . S
O103 Cd102 2.317 . S
O103 C104 1.232 . S
C104 O103 1.232 . S
C104 O105 1.218 . S
O105 C104 1.218 . S
C106 O99 1.275 . S
C106 O101 1.255 . S
C107 O108 1.258 . S
C107 O109 1.256 . S
O108 Cd100 2.381 . S
O108 C107 1.258 . S
O109 Cd100 2.378 . S
O109 C107 1.256 . S
O110 Cd111 2.300 . S
O110 C117 1.275 . S
Cd111 O110 2.300 . S
Cd111 O119 2.381 . S
Cd111 O120 2.378 . S
O112 Cd113 2.385 . S
O112 C117 1.255 . S
Cd113 O112 2.385 . S
Cd113 O114 2.317 . S
O114 Cd113 2.317 . S
O114 C115 1.232 . S
C115 O114 1.232 . S
C115 O116 1.218 . S
O116 C115 1.218 . S
C117 O110 1.275 . S
C117 O112 1.255 . S
C118 O119 1.258 . S
C118 O120 1.256 . S
O119 Cd111 2.381 . S
O119 C118 1.258 . S
O120 Cd111 2.378 . S
O120 C118 1.256 . S
O121 Cd122 2.300 . S
O121 C128 1.275 . S
Cd122 O121 2.300 . S
Cd122 O130 2.381 . S
Cd122 O131 2.378 . S
O123 Cd124 2.385 . S
O123 C128 1.255 . S
Cd124 O123 2.385 . S
Cd124 O125 2.317 . S
O125 Cd124 2.317 . S
O125 C126 1.232 . S
C126 O125 1.232 . S
C126 O127 1.218 . S
O127 C126 1.218 . S
C128 O121 1.275 . S
C128 O123 1.255 . S
C129 O130 1.258 . S
C129 O131 1.256 . S
O130 Cd122 2.381 . S
O130 C129 1.258 . S
O131 Cd122 2.378 . S
O131 C129 1.256 . S
O132 Cd133 2.300 . S
O132 C139 1.275 . S
Cd133 O132 2.300 . S
Cd133 O141 2.381 . S
Cd133 O142 2.378 . S
O134 Cd135 2.385 . S
O134 C139 1.255 . S
Cd135 O134 2.385 . S
Cd135 O136 2.317 . S
O136 Cd135 2.317 . S
O136 C137 1.232 . S
C137 O136 1.232 . S
C137 O138 1.218 . S
O138 C137 1.218 . S
C139 O132 1.275 . S
C139 O134 1.255 . S
C140 O141 1.258 . S
C140 O142 1.256 . S
O141 Cd133 2.381 . S
O141 C140 1.258 . S
O142 Cd133 2.378 . S
O142 C140 1.256 . S
O143 Cd144 2.300 . S
O143 C150 1.275 . S
Cd144 O143 2.300 . S
Cd144 O152 2.381 . S
Cd144 O153 2.378 . S
O145 Cd146 2.385 . S
O145 C150 1.255 . S
Cd146 O145 2.385 . S
Cd146 O147 2.317 . S
O147 Cd146 2.317 . S
O147 C148 1.232 . S
C148 O147 1.232 . S
C148 O149 1.218 . S
O149 C148 1.218 . S
C150 O143 1.275 . S
C150 O145 1.255 . S
C151 O152 1.258 . S
C151 O153 1.256 . S
O152 Cd144 2.381 . S
O152 C151 1.258 . S
O153 Cd144 2.378 . S
O153 C151 1.256 . S
O154 Cd155 2.300 . S
O154 C161 1.275 . S
Cd155 O154 2.300 . S
Cd155 O163 2.381 . S
Cd155 O164 2.378 . S
O156 Cd157 2.385 . S
O156 C161 1.255 . S
Cd157 O156 2.385 . S
Cd157 O158 2.317 . S
O158 Cd157 2.317 . S
O158 C159 1.232 . S
C159 O158 1.232 . S
C159 O160 1.218 . S
O160 C159 1.218 . S
C161 O154 1.275 . S
C161 O156 1.255 . S
C162 O163 1.258 . S
C162 O164 1.256 . S
O163 Cd155 2.381 . S
O163 C162 1.258 . S
O164 Cd155 2.378 . S
O164 C162 1.256 . S
O165 Cd166 2.300 . S
O165 C172 1.275 . S
Cd166 O165 2.300 . S
Cd166 O174 2.334 1_455 S
Cd166 O175 2.378 . S
O167 Cd168 2.385 . S
O167 C172 1.255 . S
Cd168 O167 2.385 . S
Cd168 O169 2.317 1_455 S
O169 Cd168 2.317 1_655 S
O169 C170 1.232 . S
C170 O169 1.232 . S
C170 O171 1.218 . S
O171 C170 1.218 . S
C172 O165 1.275 . S
C172 O167 1.255 . S
C173 O174 1.241 1_455 S
C173 O175 1.256 . S
O174 Cd166 2.334 1_655 S
O174 C173 1.241 1_655 S
O175 Cd166 2.378 . S
O175 C173 1.256 . S
O176 Cd177 2.300 . S
O176 C183 1.275 . S
Cd177 O176 2.300 . S
Cd177 O185 2.381 . S
Cd177 O186 2.378 . S
O178 Cd179 2.385 . S
O178 C183 1.255 . S
Cd179 O178 2.385 . S
Cd179 O180 2.317 . S
O180 Cd179 2.317 . S
O180 C181 1.232 . S
C181 O180 1.232 . S
C181 O182 1.218 . S
O182 C181 1.218 . S
C183 O176 1.275 . S
C183 O178 1.255 . S
C184 O185 1.258 . S
C184 O186 1.256 . S
O185 Cd177 2.381 . S
O185 C184 1.258 . S
O186 Cd177 2.378 . S
O186 C184 1.256 . S
O187 Cd188 2.300 . S
O187 C194 1.275 . S
Cd188 O187 2.300 . S
Cd188 O196 2.398 1_565 S
Cd188 O197 2.378 . S
O189 Cd190 2.385 . S
O189 C194 1.255 . S
Cd190 O189 2.385 . S
Cd190 O191 2.317 1_565 S
O191 Cd190 2.317 1_545 S
O191 C192 1.232 . S
C192 O191 1.232 . S
C192 O193 1.218 . S
O193 C192 1.218 . S
C194 O187 1.275 . S
C194 O189 1.255 . S
C195 O196 1.240 1_565 S
C195 O197 1.256 . S
O196 Cd188 2.398 1_545 S
O196 C195 1.240 1_545 S
O197 Cd188 2.378 . S
O197 C195 1.256 . S
O198 Cd199 2.300 1_565 S
O198 C205 1.275 1_565 S
Cd199 O198 2.300 1_545 S
Cd199 O207 2.381 1_545 S
Cd199 O208 2.378 . S
O200 Cd201 2.385 . S
O200 C205 1.255 . S
Cd201 O200 2.385 . S
Cd201 O202 2.317 . S
O202 Cd201 2.317 . S
O202 C203 1.232 . S
C203 O202 1.232 . S
C203 O204 1.218 . S
O204 C203 1.218 . S
C205 O198 1.275 1_545 S
C205 O200 1.255 . S
C206 O207 1.297 . S
C206 O208 1.222 1_565 S
O207 Cd199 2.381 1_565 S
O207 C206 1.297 . S
O208 Cd199 2.378 . S
O208 C206 1.222 1_545 S
O209 Cd210 2.300 1_455 S
O209 C216 1.275 1_455 S
Cd210 O209 2.300 1_655 S
Cd210 O218 2.381 1_655 S
Cd210 O219 2.378 . S
O211 Cd212 2.385 . S
O211 C216 1.255 . S
Cd212 O211 2.385 . S
Cd212 O213 2.317 . S
O213 Cd212 2.317 . S
O213 C214 1.232 . S
C214 O213 1.232 . S
C214 O215 1.218 . S
O215 C214 1.218 . S
C216 O209 1.275 1_655 S
C216 O211 1.255 . S
C217 O218 1.277 . S
C217 O219 1.204 1_455 S
O218 Cd210 2.381 1_455 S
O218 C217 1.277 . S
O219 Cd210 2.378 . S
O219 C217 1.204 1_655 S
O220 Cd221 2.300 . S
O220 C227 1.275 . S
Cd221 O220 2.300 . S
Cd221 O229 2.381 . S
Cd221 O230 2.378 . S
O222 Cd223 2.385 . S
O222 C227 1.255 . S
Cd223 O222 2.385 . S
Cd223 O224 2.317 . S
O224 Cd223 2.317 . S
O224 C225 1.232 . S
C225 O224 1.232 . S
C225 O226 1.218 . S
O226 C225 1.218 . S
C227 O220 1.275 . S
C227 O222 1.255 . S
C228 O229 1.258 . S
C228 O230 1.256 . S
O229 Cd221 2.381 . S
O229 C228 1.258 . S
O230 Cd221 2.378 . S
O230 C228 1.256 . S
O231 Cd232 2.300 . S
O231 C238 1.275 . S
Cd232 O231 2.300 . S
Cd232 O240 2.381 . S
Cd232 O241 2.378 . S
O233 Cd234 2.385 . S
O233 C238 1.255 . S
Cd234 O233 2.385 . S
Cd234 O235 2.317 . S
O235 Cd234 2.317 . S
O235 C236 1.232 . S
C236 O235 1.232 . S
C236 O237 1.218 . S
O237 C236 1.218 . S
C238 O231 1.275 . S
C238 O233 1.255 . S
C239 O240 1.258 . S
C239 O241 1.256 . S
O240 Cd232 2.381 . S
O240 C239 1.258 . S
O241 Cd232 2.378 . S
O241 C239 1.256 . S
O242 Cd243 2.300 . S
O242 C249 1.275 . S
Cd243 O242 2.300 . S
Cd243 O251 2.381 . S
Cd243 O252 2.378 . S
O244 Cd245 2.385 . S
O244 C249 1.255 . S
Cd245 O244 2.385 . S
Cd245 O246 2.317 . S
O246 Cd245 2.317 . S
O246 C247 1.232 . S
C247 O246 1.232 . S
C247 O248 1.218 . S
O248 C247 1.218 . S
C249 O242 1.275 . S
C249 O244 1.255 . S
C250 O251 1.258 . S
C250 O252 1.256 . S
O251 Cd243 2.381 . S
O251 C250 1.258 . S
O252 Cd243 2.378 . S
O252 C250 1.256 . S
O253 Cd254 2.300 . S
O253 C260 1.275 . S
Cd254 O253 2.300 . S
Cd254 O262 2.381 . S
Cd254 O263 2.378 . S
O255 Cd256 2.385 . S
O255 C260 1.255 . S
Cd256 O255 2.385 . S
Cd256 O257 2.317 . S
O257 Cd256 2.317 . S
O257 C258 1.232 . S
C258 O257 1.232 . S
C258 O259 1.218 . S
O259 C258 1.218 . S
C260 O253 1.275 . S
C260 O255 1.255 . S
C261 O262 1.258 . S
C261 O263 1.256 . S
O262 Cd254 2.381 . S
O262 C261 1.258 . S
O263 Cd254 2.378 . S
O263 C261 1.256 . S
O264 Cd265 2.300 . S
O264 C271 1.275 . S
Cd265 O264 2.300 . S
Cd265 O273 2.333 1_545 S
Cd265 O274 2.378 . S
O266 Cd267 2.385 . S
O266 C271 1.255 . S
Cd267 O266 2.385 . S
Cd267 O268 2.317 1_545 S
O268 Cd267 2.317 1_565 S
O268 C269 1.232 . S
C269 O268 1.232 . S
C269 O270 1.218 . S
O270 C269 1.218 . S
C271 O264 1.275 . S
C271 O266 1.255 . S
C272 O273 1.241 1_545 S
C272 O274 1.256 . S
O273 Cd265 2.333 1_565 S
O273 C272 1.241 1_565 S
O274 Cd265 2.378 . S
O274 C272 1.256 . S
O275 Cd276 2.300 . S
O275 C282 1.275 . S
Cd276 O275 2.300 . S
Cd276 O284 2.398 1_655 S
Cd276 O285 2.378 . S
O277 Cd278 2.385 . S
O277 C282 1.255 . S
Cd278 O277 2.385 . S
Cd278 O279 2.317 1_655 S
O279 Cd278 2.317 1_455 S
O279 C280 1.232 . S
C280 O279 1.232 . S
C280 O281 1.218 . S
O281 C280 1.218 . S
C282 O275 1.275 . S
C282 O277 1.255 . S
C283 O284 1.240 1_655 S
C283 O285 1.256 . S
O284 Cd276 2.398 1_455 S
O284 C283 1.240 1_455 S
O285 Cd276 2.378 . S
O285 C283 1.256 . S
O286 Cd287 2.300 . S
O286 C293 1.275 . S
Cd287 O286 2.300 . S
Cd287 O295 2.381 . S
Cd287 O296 2.378 . S
O288 Cd289 2.385 . S
O288 C293 1.255 . S
Cd289 O288 2.385 . S
Cd289 O290 2.317 . S
O290 Cd289 2.317 . S
O290 C291 1.232 . S
C291 O290 1.232 . S
C291 O292 1.218 . S
O292 C291 1.218 . S
C293 O286 1.275 . S
C293 O288 1.255 . S
C294 O295 1.258 . S
C294 O296 1.256 . S
O295 Cd287 2.381 . S
O295 C294 1.258 . S
O296 Cd287 2.378 . S
O296 C294 1.256 . S
O297 Cd298 2.300 . S
O297 C304 1.275 . S
Cd298 O297 2.300 . S
Cd298 O306 2.381 . S
Cd298 O307 2.378 . S
O299 Cd300 2.385 . S
O299 C304 1.255 . S
Cd300 O299 2.385 . S
Cd300 O301 2.317 . S
O301 Cd300 2.317 . S
O301 C302 1.232 . S
C302 O301 1.232 . S
C302 O303 1.218 . S
O303 C302 1.218 . S
C304 O297 1.275 . S
C304 O299 1.255 . S
C305 O306 1.258 . S
C305 O307 1.256 . S
O306 Cd298 2.381 . S
O306 C305 1.258 . S
O307 Cd298 2.378 . S
O307 C305 1.256 . S
O308 Cd309 2.300 . S
O308 C315 1.275 . S
Cd309 O308 2.300 . S
Cd309 O317 2.381 . S
Cd309 O318 2.378 . S
O310 Cd311 2.385 . S
O310 C315 1.255 . S
Cd311 O310 2.385 . S
Cd311 O312 2.317 . S
O312 Cd311 2.317 . S
O312 C313 1.232 . S
C313 O312 1.232 . S
C313 O314 1.218 . S
O314 C313 1.218 . S
C315 O308 1.275 . S
C315 O310 1.255 . S
C316 O317 1.258 . S
C316 O318 1.256 . S
O317 Cd309 2.381 . S
O317 C316 1.258 . S
O318 Cd309 2.378 . S
O318 C316 1.256 . S
O319 Cd320 2.300 . S
O319 C326 1.275 . S
Cd320 O319 2.300 . S
Cd320 O328 2.381 . S
Cd320 O329 2.378 . S
O321 Cd322 2.385 . S
O321 C326 1.255 . S
Cd322 O321 2.385 . S
Cd322 O323 2.317 . S
O323 Cd322 2.317 . S
O323 C324 1.232 . S
C324 O323 1.232 . S
C324 O325 1.218 . S
O325 C324 1.218 . S
C326 O319 1.275 . S
C326 O321 1.255 . S
C327 O328 1.258 . S
C327 O329 1.256 . S
O328 Cd320 2.381 . S
O328 C327 1.258 . S
O329 Cd320 2.378 . S
O329 C327 1.256 . S
O330 Cd331 2.300 . S
O330 C337 1.275 . S
Cd331 O330 2.300 . S
Cd331 O339 2.381 . S
Cd331 O340 2.378 . S
O332 Cd333 2.385 . S
O332 C337 1.255 . S
Cd333 O332 2.385 . S
Cd333 O334 2.317 . S
O334 Cd333 2.317 . S
O334 C335 1.232 . S
C335 O334 1.232 . S
C335 O336 1.218 . S
O336 C335 1.218 . S
C337 O330 1.275 . S
C337 O332 1.255 . S
C338 O339 1.258 . S
C338 O340 1.256 . S
O339 Cd331 2.381 . S
O339 C338 1.258 . S
O340 Cd331 2.378 . S
O340 C338 1.256 . S
O341 Cd342 2.300 . S
O341 C348 1.275 . S
Cd342 O341 2.300 . S
Cd342 O350 2.381 . S
Cd342 O351 2.378 . S
O343 Cd344 2.385 . S
O343 C348 1.255 . S
Cd344 O343 2.385 . S
Cd344 O345 2.317 . S
O345 Cd344 2.317 . S
O345 C346 1.232 . S
C346 O345 1.232 . S
C346 O347 1.218 . S
O347 C346 1.218 . S
C348 O341 1.275 . S
C348 O343 1.255 . S
C349 O350 1.258 . S
C349 O351 1.256 . S
O350 Cd342 2.381 . S
O350 C349 1.258 . S
O351 Cd342 2.378 . S
O351 C349 1.256 . S
O352 Cd353 2.300 . S
O352 C359 1.275 . S
Cd353 O352 2.300 . S
Cd353 O361 2.381 . S
Cd353 O362 2.378 . S
O354 Cd355 2.385 . S
O354 C359 1.255 . S
Cd355 O354 2.385 . S
Cd355 O356 2.317 . S
O356 Cd355 2.317 . S
O356 C357 1.232 . S
C357 O356 1.232 . S
C357 O358 1.218 . S
O358 C357 1.218 . S
C359 O352 1.275 . S
C359 O354 1.255 . S
C360 O361 1.258 . S
C360 O362 1.256 . S
O361 Cd353 2.381 . S
O361 C360 1.258 . S
O362 Cd353 2.378 . S
O362 C360 1.256 . S
O363 Cd364 2.300 1_655 S
O363 C370 1.275 1_655 S
Cd364 O363 2.300 1_455 S
Cd364 O372 2.381 1_455 S
Cd364 O373 2.378 . S
O365 Cd366 2.385 . S
O365 C370 1.255 . S
Cd366 O365 2.385 . S
Cd366 O367 2.317 . S
O367 Cd366 2.317 . S
O367 C368 1.232 . S
C368 O367 1.232 . S
C368 O369 1.218 . S
O369 C368 1.218 . S
C370 O363 1.275 1_455 S
C370 O365 1.255 . S
C371 O372 1.296 . S
C371 O373 1.222 1_655 S
O372 Cd364 2.381 1_655 S
O372 C371 1.296 . S
O373 Cd364 2.378 . S
O373 C371 1.222 1_455 S
O374 Cd375 2.300 . S
O374 C381 1.275 . S
Cd375 O374 2.300 . S
Cd375 O383 2.381 . S
Cd375 O384 2.378 . S
O376 Cd377 2.385 . S
O376 C381 1.255 . S
Cd377 O376 2.385 . S
Cd377 O378 2.317 . S
O378 Cd377 2.317 . S
O378 C379 1.232 . S
C379 O378 1.232 . S
C379 O380 1.218 . S
O380 C379 1.218 . S
C381 O374 1.275 . S
C381 O376 1.255 . S
C382 O383 1.258 . S
C382 O384 1.256 . S
O383 Cd375 2.381 . S
O383 C382 1.258 . S
O384 Cd375 2.378 . S
O384 C382 1.256 . S
O385 Cd386 2.300 1_545 S
O385 C392 1.275 1_545 S
Cd386 O385 2.300 1_565 S
Cd386 O394 2.381 1_565 S
Cd386 O395 2.378 . S
O387 Cd388 2.385 . S
O387 C392 1.255 . S
Cd388 O387 2.385 . S
Cd388 O389 2.317 . S
O389 Cd388 2.317 . S
O389 C390 1.232 . S
C390 O389 1.232 . S
C390 O391 1.218 . S
O391 C390 1.218 . S
C392 O385 1.275 1_565 S
C392 O387 1.255 . S
C393 O394 1.278 . S
C393 O395 1.202 1_545 S
O394 Cd386 2.381 1_545 S
O394 C393 1.278 . S
O395 Cd386 2.378 . S
O395 C393 1.202 1_565 S
C396 C397 1.369 . S
C396 C398 1.419 . S
C396 H400 0.930 . S
C397 C396 1.369 . S
C397 C406 1.429 . S
C398 C396 1.419 . S
C398 C399 1.363 . S
C398 H401 0.929 . S
C399 C398 1.363 . S
C399 C405 1.428 . S
H400 C396 0.930 . S
H401 C398 0.929 . S
S402 N403 1.613 . S
S402 N404 1.610 . S
N403 S402 1.613 . S
N403 C406 1.350 . S
N404 S402 1.610 . S
N404 C405 1.351 . S
C405 C399 1.428 . S
C405 N404 1.351 . S
C405 C406 1.434 . S
C406 C397 1.429 . S
C406 N403 1.350 . S
C406 C405 1.434 . S
C407 C408 1.369 . S
C407 C409 1.419 . S
C407 H411 0.930 . S
C408 C407 1.369 . S
C408 C417 1.429 . S
C409 C407 1.419 . S
C409 C410 1.363 . S
C409 H412 0.929 . S
C410 C409 1.363 . S
C410 C416 1.428 . S
H411 C407 0.930 . S
H412 C409 0.929 . S
S413 N414 1.613 . S
S413 N415 1.610 . S
N414 S413 1.613 . S
N414 C417 1.350 . S
N415 S413 1.610 . S
N415 C416 1.351 . S
C416 C410 1.428 . S
C416 N415 1.351 . S
C416 C417 1.434 . S
C417 C408 1.429 . S
C417 N414 1.350 . S
C417 C416 1.434 . S
C418 C419 1.369 . S
C418 C420 1.419 . S
C418 H422 0.930 . S
C419 C418 1.369 . S
C419 C428 1.429 . S
C420 C418 1.419 . S
C420 C421 1.363 . S
C420 H423 0.929 . S
C421 C420 1.363 . S
C421 C427 1.428 . S
H422 C418 0.930 . S
H423 C420 0.929 . S
S424 N425 1.613 . S
S424 N426 1.610 . S
N425 S424 1.613 . S
N425 C428 1.350 . S
N426 S424 1.610 . S
N426 C427 1.351 . S
C427 C421 1.428 . S
C427 N426 1.351 . S
C427 C428 1.434 . S
C428 C419 1.429 . S
C428 N425 1.350 . S
C428 C427 1.434 . S
C429 C430 1.369 . S
C429 C431 1.419 . S
C429 H433 0.930 . S
C430 C429 1.369 . S
C430 C439 1.429 . S
C431 C429 1.419 . S
C431 C432 1.363 . S
C431 H434 0.929 . S
C432 C431 1.363 . S
C432 C438 1.428 . S
H433 C429 0.930 . S
H434 C431 0.929 . S
S435 N436 1.613 . S
S435 N437 1.610 . S
N436 S435 1.613 . S
N436 C439 1.350 . S
N437 S435 1.610 . S
N437 C438 1.351 . S
C438 C432 1.428 . S
C438 N437 1.351 . S
C438 C439 1.434 . S
C439 C430 1.429 . S
C439 N436 1.350 . S
C439 C438 1.434 . S
C440 C441 1.369 . S
C440 C442 1.419 . S
C440 H444 0.930 . S
C441 C440 1.369 . S
C441 C450 1.429 . S
C442 C440 1.419 . S
C442 C443 1.363 . S
C442 H445 0.929 . S
C443 C442 1.363 . S
C443 C449 1.428 . S
H444 C440 0.930 . S
H445 C442 0.929 . S
S446 N447 1.613 . S
S446 N448 1.610 . S
N447 S446 1.613 . S
N447 C450 1.350 . S
N448 S446 1.610 . S
N448 C449 1.351 . S
C449 C443 1.428 . S
C449 N448 1.351 . S
C449 C450 1.434 . S
C450 C441 1.429 . S
C450 N447 1.350 . S
C450 C449 1.434 . S
C451 C452 1.369 . S
C451 C453 1.419 . S
C451 H455 0.930 . S
C452 C451 1.369 . S
C452 C461 1.429 . S
C453 C451 1.419 . S
C453 C454 1.363 . S
C453 H456 0.929 . S
C454 C453 1.363 . S
C454 C460 1.428 . S
H455 C451 0.930 . S
H456 C453 0.929 . S
S457 N458 1.613 . S
S457 N459 1.610 . S
N458 S457 1.613 . S
N458 C461 1.350 . S
N459 S457 1.610 . S
N459 C460 1.351 . S
C460 C454 1.428 . S
C460 N459 1.351 . S
C460 C461 1.434 . S
C461 C452 1.429 . S
C461 N458 1.350 . S
C461 C460 1.434 . S
C462 C463 1.369 . S
C462 C464 1.419 . S
C462 H466 0.930 . S
C463 C462 1.369 . S
C463 C472 1.429 . S
C464 C462 1.419 . S
C464 C465 1.363 . S
C464 H467 0.929 . S
C465 C464 1.363 . S
C465 C471 1.428 . S
H466 C462 0.930 . S
H467 C464 0.929 . S
S468 N469 1.613 . S
S468 N470 1.610 . S
N469 S468 1.613 . S
N469 C472 1.350 . S
N470 S468 1.610 . S
N470 C471 1.351 . S
C471 C465 1.428 . S
C471 N470 1.351 . S
C471 C472 1.434 . S
C472 C463 1.429 . S
C472 N469 1.350 . S
C472 C471 1.434 . S
C473 C474 1.369 . S
C473 C475 1.419 . S
C473 H477 0.930 . S
C474 C473 1.369 . S
C474 C483 1.429 . S
C475 C473 1.419 . S
C475 C476 1.363 . S
C475 H478 0.929 . S
C476 C475 1.363 . S
C476 C482 1.428 . S
H477 C473 0.930 . S
H478 C475 0.929 . S
S479 N480 1.613 . S
S479 N481 1.610 . S
N480 S479 1.613 . S
N480 C483 1.350 . S
N481 S479 1.610 . S
N481 C482 1.351 . S
C482 C476 1.428 . S
C482 N481 1.351 . S
C482 C483 1.434 . S
C483 C474 1.429 . S
C483 N480 1.350 . S
C483 C482 1.434 . S
C484 C485 1.369 . S
C484 C486 1.419 . S
C484 H488 0.930 . S
C485 C484 1.369 . S
C485 C494 1.429 . S
C486 C484 1.419 . S
C486 C487 1.363 . S
C486 H489 0.929 . S
C487 C486 1.363 . S
C487 C493 1.428 . S
H488 C484 0.930 . S
H489 C486 0.929 . S
S490 N491 1.613 . S
S490 N492 1.610 . S
N491 S490 1.613 . S
N491 C494 1.350 . S
N492 S490 1.610 . S
N492 C493 1.351 . S
C493 C487 1.428 . S
C493 N492 1.351 . S
C493 C494 1.434 . S
C494 C485 1.429 . S
C494 N491 1.350 . S
C494 C493 1.434 . S
C495 C496 1.369 . S
C495 C497 1.419 . S
C495 H499 0.930 . S
C496 C495 1.369 . S
C496 C505 1.429 . S
C497 C495 1.419 . S
C497 C498 1.363 . S
C497 H500 0.929 . S
C498 C497 1.363 . S
C498 C504 1.428 . S
H499 C495 0.930 . S
H500 C497 0.929 . S
S501 N502 1.613 . S
S501 N503 1.610 . S
N502 S501 1.613 . S
N502 C505 1.350 . S
N503 S501 1.610 . S
N503 C504 1.351 . S
C504 C498 1.428 . S
C504 N503 1.351 . S
C504 C505 1.434 . S
C505 C496 1.429 . S
C505 N502 1.350 . S
C505 C504 1.434 . S
C506 C507 1.369 . S
C506 C508 1.419 . S
C506 H510 0.930 . S
C507 C506 1.369 . S
C507 C516 1.429 . S
C508 C506 1.419 . S
C508 C509 1.363 . S
C508 H511 0.929 . S
C509 C508 1.363 . S
C509 C515 1.428 . S
H510 C506 0.930 . S
H511 C508 0.929 . S
S512 N513 1.613 . S
S512 N514 1.610 . S
N513 S512 1.613 . S
N513 C516 1.350 . S
N514 S512 1.610 . S
N514 C515 1.351 . S
C515 C509 1.428 . S
C515 N514 1.351 . S
C515 C516 1.434 . S
C516 C507 1.429 . S
C516 N513 1.350 . S
C516 C515 1.434 . S
C517 C518 1.369 . S
C517 C519 1.419 . S
C517 H521 0.930 . S
C518 C517 1.369 . S
C518 C527 1.429 . S
C519 C517 1.419 . S
C519 C520 1.363 . S
C519 H522 0.929 . S
C520 C519 1.363 . S
C520 C526 1.428 . S
H521 C517 0.930 . S
H522 C519 0.929 . S
S523 N524 1.613 . S
S523 N525 1.610 . S
N524 S523 1.613 . S
N524 C527 1.350 . S
N525 S523 1.610 . S
N525 C526 1.351 . S
C526 C520 1.428 . S
C526 N525 1.351 . S
C526 C527 1.434 . S
C527 C518 1.429 . S
C527 N524 1.350 . S
C527 C526 1.434 . S
C528 C529 1.369 . S
C528 C530 1.419 . S
C528 H532 0.930 . S
C529 C528 1.369 . S
C529 C538 1.429 1_455 S
C530 C528 1.419 . S
C530 C531 1.363 1_455 S
C530 H533 0.929 . S
C531 C530 1.363 1_655 S
C531 C537 1.428 . S
H532 C528 0.930 . S
H533 C530 0.929 . S
S534 N535 1.613 . S
S534 N536 1.610 . S
N535 S534 1.613 . S
N535 C538 1.350 . S
N536 S534 1.610 . S
N536 C537 1.351 . S
C537 C531 1.428 . S
C537 N536 1.351 . S
C537 C538 1.434 . S
C538 C529 1.429 1_655 S
C538 N535 1.350 . S
C538 C537 1.434 . S
C539 C540 1.369 . S
C539 C541 1.419 . S
C539 H543 0.930 . S
C540 C539 1.369 . S
C540 C549 1.429 . S
C541 C539 1.419 . S
C541 C542 1.363 . S
C541 H544 0.929 . S
C542 C541 1.363 . S
C542 C548 1.428 . S
H543 C539 0.930 . S
H544 C541 0.929 . S
S545 N546 1.613 . S
S545 N547 1.610 . S
N546 S545 1.613 . S
N546 C549 1.350 . S
N547 S545 1.610 . S
N547 C548 1.351 . S
C548 C542 1.428 . S
C548 N547 1.351 . S
C548 C549 1.434 . S
C549 C540 1.429 . S
C549 N546 1.350 . S
C549 C548 1.434 . S
C550 C551 1.369 . S
C550 C552 1.419 . S
C550 H554 0.930 . S
C551 C550 1.369 . S
C551 C560 1.429 1_565 S
C552 C550 1.419 . S
C552 C553 1.363 1_565 S
C552 H555 0.929 . S
C553 C552 1.363 1_545 S
C553 C559 1.428 . S
H554 C550 0.930 . S
H555 C552 0.929 . S
S556 N557 1.613 . S
S556 N558 1.610 . S
N557 S556 1.613 . S
N557 C560 1.350 . S
N558 S556 1.610 . S
N558 C559 1.351 . S
C559 C553 1.428 . S
C559 N558 1.351 . S
C559 C560 1.434 . S
C560 C551 1.429 1_545 S
C560 N557 1.350 . S
C560 C559 1.434 . S
C561 C562 1.369 1_565 S
C561 C563 1.419 . S
C561 H565 0.930 . S
C562 C561 1.369 1_545 S
C562 C571 1.429 . S
C563 C561 1.419 . S
C563 C564 1.363 . S
C563 H566 0.929 . S
C564 C563 1.363 . S
C564 C570 1.428 1_565 S
H565 C561 0.930 . S
H566 C563 0.929 . S
S567 N568 1.613 . S
S567 N569 1.610 . S
N568 S567 1.613 . S
N568 C571 1.350 . S
N569 S567 1.610 . S
N569 C570 1.351 . S
C570 C564 1.428 1_545 S
C570 N569 1.351 . S
C570 C571 1.434 . S
C571 C562 1.429 . S
C571 N568 1.350 . S
C571 C570 1.434 . S
C572 C573 1.369 1_655 S
C572 C574 1.419 . S
C572 H576 0.930 . S
C573 C572 1.369 1_455 S
C573 C582 1.429 . S
C574 C572 1.419 . S
C574 C575 1.363 . S
C574 H577 0.929 . S
C575 C574 1.363 . S
C575 C581 1.428 1_655 S
H576 C572 0.930 . S
H577 C574 0.929 . S
S578 N579 1.613 . S
S578 N580 1.610 . S
N579 S578 1.613 . S
N579 C582 1.350 . S
N580 S578 1.610 . S
N580 C581 1.351 . S
C581 C575 1.428 1_455 S
C581 N580 1.351 . S
C581 C582 1.434 . S
C582 C573 1.429 . S
C582 N579 1.350 . S
C582 C581 1.434 . S
C583 C584 1.369 . S
C583 C585 1.419 . S
C583 H587 0.930 . S
C584 C583 1.369 . S
C584 C593 1.429 . S
C585 C583 1.419 . S
C585 C586 1.363 . S
C585 H588 0.929 . S
C586 C585 1.363 . S
C586 C592 1.428 . S
H587 C583 0.930 . S
H588 C585 0.929 . S
S589 N590 1.613 . S
S589 N591 1.610 . S
N590 S589 1.613 . S
N590 C593 1.350 . S
N591 S589 1.610 . S
N591 C592 1.351 . S
C592 C586 1.428 . S
C592 N591 1.351 . S
C592 C593 1.434 . S
C593 C584 1.429 . S
C593 N590 1.350 . S
C593 C592 1.434 . S
C594 C595 1.369 . S
C594 C596 1.419 1_455 S
C594 H598 0.930 . S
C595 C594 1.369 . S
C595 C604 1.429 . S
C596 C594 1.419 1_655 S
C596 C597 1.363 . S
C596 H599 0.929 . S
C597 C596 1.363 . S
C597 C603 1.428 . S
H598 C594 0.930 . S
H599 C596 0.929 . S
S600 N601 1.613 1_655 S
S600 N602 1.610 . S
N601 S600 1.613 1_455 S
N601 C604 1.350 . S
N602 S600 1.610 . S
N602 C603 1.351 . S
C603 C597 1.428 . S
C603 N602 1.351 . S
C603 C604 1.434 1_655 S
C604 C595 1.429 . S
C604 N601 1.350 . S
C604 C603 1.434 1_455 S
C605 C606 1.369 . S
C605 C607 1.419 . S
C605 H609 0.930 . S
C606 C605 1.369 . S
C606 C615 1.429 . S
C607 C605 1.419 . S
C607 C608 1.363 . S
C607 H610 0.929 . S
C608 C607 1.363 . S
C608 C614 1.428 . S
H609 C605 0.930 . S
H610 C607 0.929 . S
S611 N612 1.613 . S
S611 N613 1.610 . S
N612 S611 1.613 . S
N612 C615 1.350 . S
N613 S611 1.610 . S
N613 C614 1.351 . S
C614 C608 1.428 . S
C614 N613 1.351 . S
C614 C615 1.434 . S
C615 C606 1.429 . S
C615 N612 1.350 . S
C615 C614 1.434 . S
C616 C617 1.369 . S
C616 C618 1.419 1_545 S
C616 H620 0.930 . S
C617 C616 1.369 . S
C617 C626 1.429 . S
C618 C616 1.419 1_565 S
C618 C619 1.363 . S
C618 H621 0.929 . S
C619 C618 1.363 . S
C619 C625 1.428 . S
H620 C616 0.930 . S
H621 C618 0.929 . S
S622 N623 1.613 . S
S622 N624 1.610 1_545 S
N623 S622 1.613 . S
N623 C626 1.350 . S
N624 S622 1.610 1_565 S
N624 C625 1.351 . S
C625 C619 1.428 . S
C625 N624 1.351 . S
C625 C626 1.434 1_565 S
C626 C617 1.429 . S
C626 N623 1.350 . S
C626 C625 1.434 1_545 S
C627 C628 1.369 . S
C627 C629 1.419 1_455 S
C627 H631 0.930 . S
C628 C627 1.369 . S
C628 C637 1.429 . S
C629 C627 1.419 1_655 S
C629 C630 1.363 . S
C629 H632 0.929 . S
C630 C629 1.363 . S
C630 C636 1.428 . S
H631 C627 0.930 . S
H632 C629 0.929 . S
S633 N634 1.613 1_655 S
S633 N635 1.610 . S
N634 S633 1.613 1_455 S
N634 C637 1.350 . S
N635 S633 1.610 . S
N635 C636 1.351 . S
C636 C630 1.428 . S
C636 N635 1.351 . S
C636 C637 1.434 1_655 S
C637 C628 1.429 . S
C637 N634 1.350 . S
C637 C636 1.434 1_455 S
C638 C639 1.369 . S
C638 C640 1.419 . S
C638 H642 0.930 . S
C639 C638 1.369 . S
C639 C648 1.429 . S
C640 C638 1.419 . S
C640 C641 1.363 . S
C640 H643 0.929 . S
C641 C640 1.363 . S
C641 C647 1.428 . S
H642 C638 0.930 . S
H643 C640 0.929 . S
S644 N645 1.613 . S
S644 N646 1.610 . S
N645 S644 1.613 . S
N645 C648 1.350 . S
N646 S644 1.610 . S
N646 C647 1.351 . S
C647 C641 1.428 . S
C647 N646 1.351 . S
C647 C648 1.434 . S
C648 C639 1.429 . S
C648 N645 1.350 . S
C648 C647 1.434 . S
C649 C650 1.369 . S
C649 C651 1.419 1_565 S
C649 H653 0.930 . S
C650 C649 1.369 . S
C650 C659 1.429 . S
C651 C649 1.419 1_545 S
C651 C652 1.363 . S
C651 H654 0.929 . S
C652 C651 1.363 . S
C652 C658 1.428 . S
H653 C649 0.930 . S
H654 C651 0.929 . S
S655 N656 1.613 . S
S655 N657 1.610 1_565 S
N656 S655 1.613 . S
N656 C659 1.350 . S
N657 S655 1.610 1_545 S
N657 C658 1.351 . S
C658 C652 1.428 . S
C658 N657 1.351 . S
C658 C659 1.434 1_545 S
C659 C650 1.429 . S
C659 N656 1.350 . S
C659 C658 1.434 1_565 S
C660 C661 1.369 . S
C660 C662 1.419 . S
C660 H664 0.930 . S
C661 C660 1.369 . S
C661 C670 1.429 . S
C662 C660 1.419 . S
C662 C663 1.363 . S
C662 H665 0.929 . S
C663 C662 1.363 . S
C663 C669 1.428 . S
H664 C660 0.930 . S
H665 C662 0.929 . S
S666 N667 1.613 . S
S666 N668 1.610 . S
N667 S666 1.613 . S
N667 C670 1.350 . S
N668 S666 1.610 . S
N668 C669 1.351 . S
C669 C663 1.428 . S
C669 N668 1.351 . S
C669 C670 1.434 . S
C670 C661 1.429 . S
C670 N667 1.350 . S
C670 C669 1.434 . S
C671 C672 1.369 . S
C671 C673 1.419 . S
C671 H675 0.930 . S
C672 C671 1.369 . S
C672 C681 1.429 . S
C673 C671 1.419 . S
C673 C674 1.363 . S
C673 H676 0.929 . S
C674 C673 1.363 . S
C674 C680 1.428 . S
H675 C671 0.930 . S
H676 C673 0.929 . S
S677 N678 1.613 . S
S677 N679 1.610 . S
N678 S677 1.613 . S
N678 C681 1.350 . S
N679 S677 1.610 . S
N679 C680 1.351 . S
C680 C674 1.428 . S
C680 N679 1.351 . S
C680 C681 1.434 . S
C681 C672 1.429 . S
C681 N678 1.350 . S
C681 C680 1.434 . S
C682 C683 1.369 . S
C682 C684 1.419 . S
C682 H686 0.930 . S
C683 C682 1.369 . S
C683 C692 1.429 . S
C684 C682 1.419 . S
C684 C685 1.363 . S
C684 H687 0.929 . S
C685 C684 1.363 . S
C685 C691 1.428 . S
H686 C682 0.930 . S
H687 C684 0.929 . S
S688 N689 1.613 . S
S688 N690 1.610 . S
N689 S688 1.613 . S
N689 C692 1.350 . S
N690 S688 1.610 . S
N690 C691 1.351 . S
C691 C685 1.428 . S
C691 N690 1.351 . S
C691 C692 1.434 . S
C692 C683 1.429 . S
C692 N689 1.350 . S
C692 C691 1.434 . S
C693 C694 1.369 . S
C693 C695 1.419 . S
C693 H697 0.930 . S
C694 C693 1.369 . S
C694 C703 1.429 . S
C695 C693 1.419 . S
C695 C696 1.363 . S
C695 H698 0.929 . S
C696 C695 1.363 . S
C696 C702 1.428 . S
H697 C693 0.930 . S
H698 C695 0.929 . S
S699 N700 1.613 1_556 S
S699 N701 1.610 1_556 S
N700 S699 1.613 1_554 S
N700 C703 1.350 . S
N701 S699 1.610 1_554 S
N701 C702 1.351 . S
C702 C696 1.428 . S
C702 N701 1.351 . S
C702 C703 1.434 . S
C703 C694 1.429 . S
C703 N700 1.350 . S
C703 C702 1.434 . S
C704 C705 1.369 . S
C704 C706 1.419 . S
C704 H708 0.930 . S
C705 C704 1.369 . S
C705 C714 1.429 . S
C706 C704 1.419 . S
C706 C707 1.363 . S
C706 H709 0.929 . S
C707 C706 1.363 . S
C707 C713 1.428 . S
H708 C704 0.930 . S
H709 C706 0.929 . S
S710 N711 1.613 . S
S710 N712 1.610 . S
N711 S710 1.613 . S
N711 C714 1.350 . S
N712 S710 1.610 . S
N712 C713 1.351 . S
C713 C707 1.428 . S
C713 N712 1.351 . S
C713 C714 1.434 . S
C714 C705 1.429 . S
C714 N711 1.350 . S
C714 C713 1.434 . S
C715 C716 1.369 . S
C715 C717 1.419 . S
C715 H719 0.930 . S
C716 C715 1.369 . S
C716 C725 1.429 . S
C717 C715 1.419 . S
C717 C718 1.363 . S
C717 H720 0.929 . S
C718 C717 1.363 . S
C718 C724 1.428 . S
H719 C715 0.930 . S
H720 C717 0.929 . S
S721 N722 1.613 1_556 S
S721 N723 1.610 1_556 S
N722 S721 1.613 1_554 S
N722 C725 1.350 . S
N723 S721 1.610 1_554 S
N723 C724 1.351 . S
C724 C718 1.428 . S
C724 N723 1.351 . S
C724 C725 1.434 . S
C725 C716 1.429 . S
C725 N722 1.350 . S
C725 C724 1.434 . S
C726 C727 1.369 . S
C726 C728 1.419 . S
C726 H730 0.930 . S
C727 C726 1.369 . S
C727 C736 1.429 . S
C728 C726 1.419 . S
C728 C729 1.363 . S
C728 H731 0.929 . S
C729 C728 1.363 . S
C729 C735 1.428 . S
H730 C726 0.930 . S
H731 C728 0.929 . S
S732 N733 1.613 . S
S732 N734 1.610 . S
N733 S732 1.613 . S
N733 C736 1.350 . S
N734 S732 1.610 . S
N734 C735 1.351 . S
C735 C729 1.428 . S
C735 N734 1.351 . S
C735 C736 1.434 . S
C736 C727 1.429 . S
C736 N733 1.350 . S
C736 C735 1.434 . S
C737 C738 1.369 . S
C737 C739 1.419 . S
C737 H741 0.930 . S
C738 C737 1.369 . S
C738 C747 1.429 . S
C739 C737 1.419 . S
C739 C740 1.363 . S
C739 H742 0.929 . S
C740 C739 1.363 . S
C740 C746 1.428 . S
H741 C737 0.930 . S
H742 C739 0.929 . S
S743 N744 1.613 . S
S743 N745 1.610 . S
N744 S743 1.613 . S
N744 C747 1.350 . S
N745 S743 1.610 . S
N745 C746 1.351 . S
C746 C740 1.428 . S
C746 N745 1.351 . S
C746 C747 1.434 . S
C747 C738 1.429 . S
C747 N744 1.350 . S
C747 C746 1.434 . S
C748 C749 1.369 . S
C748 C750 1.419 . S
C748 H752 0.930 . S
C749 C748 1.369 . S
C749 C758 1.429 . S
C750 C748 1.419 . S
C750 C751 1.363 . S
C750 H753 0.929 . S
C751 C750 1.363 . S
C751 C757 1.428 . S
H752 C748 0.930 . S
H753 C750 0.929 . S
S754 N755 1.613 . S
S754 N756 1.610 . S
N755 S754 1.613 . S
N755 C758 1.350 . S
N756 S754 1.610 . S
N756 C757 1.351 . S
C757 C751 1.428 . S
C757 N756 1.351 . S
C757 C758 1.434 . S
C758 C749 1.429 . S
C758 N755 1.350 . S
C758 C757 1.434 . S
C759 C760 1.369 . S
C759 C761 1.419 . S
C759 H763 0.930 . S
C760 C759 1.369 . S
C760 C769 1.429 . S
C761 C759 1.419 . S
C761 C762 1.363 . S
C761 H764 0.929 . S
C762 C761 1.363 . S
C762 C768 1.428 . S
H763 C759 0.930 . S
H764 C761 0.929 . S
S765 N766 1.613 . S
S765 N767 1.610 . S
N766 S765 1.613 . S
N766 C769 1.350 . S
N767 S765 1.610 . S
N767 C768 1.351 . S
C768 C762 1.428 . S
C768 N767 1.351 . S
C768 C769 1.434 . S
C769 C760 1.429 . S
C769 N766 1.350 . S
C769 C768 1.434 . S
C770 C771 1.369 . S
C770 C772 1.419 . S
C770 H774 0.930 . S
C771 C770 1.369 . S
C771 C780 1.429 . S
C772 C770 1.419 . S
C772 C773 1.363 . S
C772 H775 0.929 . S
C773 C772 1.363 . S
C773 C779 1.428 . S
H774 C770 0.930 . S
H775 C772 0.929 . S
S776 N777 1.613 . S
S776 N778 1.610 . S
N777 S776 1.613 . S
N777 C780 1.350 . S
N778 S776 1.610 . S
N778 C779 1.351 . S
C779 C773 1.428 . S
C779 N778 1.351 . S
C779 C780 1.434 . S
C780 C771 1.429 . S
C780 N777 1.350 . S
C780 C779 1.434 . S
C781 C782 1.369 . S
C781 C783 1.419 . S
C781 H785 0.930 . S
C782 C781 1.369 . S
C782 C791 1.429 . S
C783 C781 1.419 . S
C783 C784 1.363 . S
C783 H786 0.929 . S
C784 C783 1.363 . S
C784 C790 1.428 . S
H785 C781 0.930 . S
H786 C783 0.929 . S
S787 N788 1.613 . S
S787 N789 1.610 . S
N788 S787 1.613 . S
N788 C791 1.350 . S
N789 S787 1.610 . S
N789 C790 1.351 . S
C790 C784 1.428 . S
C790 N789 1.351 . S
C790 C791 1.434 . S
C791 C782 1.429 . S
C791 N788 1.350 . S
C791 C790 1.434 . S
C792 C793 1.369 . S
C792 C794 1.419 . S
C792 H796 0.930 . S
C793 C792 1.369 . S
C793 C802 1.429 . S
C794 C792 1.419 . S
C794 C795 1.363 . S
C794 H797 0.929 . S
C795 C794 1.363 . S
C795 C801 1.428 . S
H796 C792 0.930 . S
H797 C794 0.929 . S
S798 N799 1.613 . S
S798 N800 1.610 . S
N799 S798 1.613 . S
N799 C802 1.350 . S
N800 S798 1.610 . S
N800 C801 1.351 . S
C801 C795 1.428 . S
C801 N800 1.351 . S
C801 C802 1.434 . S
C802 C793 1.429 . S
C802 N799 1.350 . S
C802 C801 1.434 . S
C803 C804 1.369 . S
C803 C805 1.419 . S
C803 H807 0.930 . S
C804 C803 1.369 . S
C804 C813 1.429 . S
C805 C803 1.419 . S
C805 C806 1.363 . S
C805 H808 0.929 . S
C806 C805 1.363 . S
C806 C812 1.428 . S
H807 C803 0.930 . S
H808 C805 0.929 . S
S809 N810 1.613 . S
S809 N811 1.610 . S
N810 S809 1.613 . S
N810 C813 1.350 . S
N811 S809 1.610 . S
N811 C812 1.351 . S
C812 C806 1.428 . S
C812 N811 1.351 . S
C812 C813 1.434 . S
C813 C804 1.429 . S
C813 N810 1.350 . S
C813 C812 1.434 . S
C814 C815 1.369 . S
C814 C816 1.419 . S
C814 H818 0.930 . S
C815 C814 1.369 . S
C815 C824 1.429 . S
C816 C814 1.419 . S
C816 C817 1.363 . S
C816 H819 0.929 . S
C817 C816 1.363 . S
C817 C823 1.428 . S
H818 C814 0.930 . S
H819 C816 0.929 . S
S820 N821 1.613 . S
S820 N822 1.610 . S
N821 S820 1.613 . S
N821 C824 1.350 . S
N822 S820 1.610 . S
N822 C823 1.351 . S
C823 C817 1.428 . S
C823 N822 1.351 . S
C823 C824 1.434 . S
C824 C815 1.429 . S
C824 N821 1.350 . S
C824 C823 1.434 . S
C825 C826 1.369 . S
C825 C827 1.419 . S
C825 H829 0.930 . S
C826 C825 1.369 . S
C826 C835 1.429 . S
C827 C825 1.419 . S
C827 C828 1.363 . S
C827 H830 0.929 . S
C828 C827 1.363 . S
C828 C834 1.428 . S
H829 C825 0.930 . S
H830 C827 0.929 . S
S831 N832 1.613 . S
S831 N833 1.610 . S
N832 S831 1.613 . S
N832 C835 1.350 . S
N833 S831 1.610 . S
N833 C834 1.351 . S
C834 C828 1.428 . S
C834 N833 1.351 . S
C834 C835 1.434 . S
C835 C826 1.429 . S
C835 N832 1.350 . S
C835 C834 1.434 . S
C836 C837 1.369 . S
C836 C838 1.419 . S
C836 H840 0.930 . S
C837 C836 1.369 . S
C837 C846 1.429 . S
C838 C836 1.419 . S
C838 C839 1.363 . S
C838 H841 0.929 . S
C839 C838 1.363 . S
C839 C845 1.428 . S
H840 C836 0.930 . S
H841 C838 0.929 . S
S842 N843 1.613 . S
S842 N844 1.610 . S
N843 S842 1.613 . S
N843 C846 1.350 . S
N844 S842 1.610 . S
N844 C845 1.351 . S
C845 C839 1.428 . S
C845 N844 1.351 . S
C845 C846 1.434 . S
C846 C837 1.429 . S
C846 N843 1.350 . S
C846 C845 1.434 . S
C847 C848 1.369 . S
C847 C849 1.419 . S
C847 H851 0.930 . S
C848 C847 1.369 . S
C848 C857 1.429 . S
C849 C847 1.419 . S
C849 C850 1.363 . S
C849 H852 0.929 . S
C850 C849 1.363 . S
C850 C856 1.428 . S
H851 C847 0.930 . S
H852 C849 0.929 . S
S853 N854 1.613 . S
S853 N855 1.610 . S
N854 S853 1.613 . S
N854 C857 1.350 . S
N855 S853 1.610 . S
N855 C856 1.351 . S
C856 C850 1.428 . S
C856 N855 1.351 . S
C856 C857 1.434 . S
C857 C848 1.429 . S
C857 N854 1.350 . S
C857 C856 1.434 . S
C858 C859 1.369 . S
C858 C860 1.419 . S
C858 H862 0.930 . S
C859 C858 1.369 . S
C859 C868 1.429 . S
C860 C858 1.419 . S
C860 C861 1.363 . S
C860 H863 0.929 . S
C861 C860 1.363 . S
C861 C867 1.428 . S
H862 C858 0.930 . S
H863 C860 0.929 . S
S864 N865 1.613 . S
S864 N866 1.610 . S
N865 S864 1.613 . S
N865 C868 1.350 . S
N866 S864 1.610 . S
N866 C867 1.351 . S
C867 C861 1.428 . S
C867 N866 1.351 . S
C867 C868 1.434 . S
C868 C859 1.429 . S
C868 N865 1.350 . S
C868 C867 1.434 . S
C869 C870 1.369 . S
C869 C871 1.419 . S
C869 H873 0.930 . S
C870 C869 1.369 . S
C870 C879 1.429 . S
C871 C869 1.419 . S
C871 C872 1.363 . S
C871 H874 0.929 . S
C872 C871 1.363 . S
C872 C878 1.428 . S
H873 C869 0.930 . S
H874 C871 0.929 . S
S875 N876 1.613 . S
S875 N877 1.610 . S
N876 S875 1.613 . S
N876 C879 1.350 . S
N877 S875 1.610 . S
N877 C878 1.351 . S
C878 C872 1.428 . S
C878 N877 1.351 . S
C878 C879 1.434 . S
C879 C870 1.429 . S
C879 N876 1.350 . S
C879 C878 1.434 . S
C880 C881 1.369 . S
C880 C882 1.419 . S
C880 H884 0.930 . S
C881 C880 1.369 . S
C881 C890 1.429 . S
C882 C880 1.419 . S
C882 C883 1.363 . S
C882 H885 0.929 . S
C883 C882 1.363 . S
C883 C889 1.428 . S
H884 C880 0.930 . S
H885 C882 0.929 . S
S886 N887 1.613 . S
S886 N888 1.610 . S
N887 S886 1.613 . S
N887 C890 1.350 . S
N888 S886 1.610 . S
N888 C889 1.351 . S
C889 C883 1.428 . S
C889 N888 1.351 . S
C889 C890 1.434 . S
C890 C881 1.429 . S
C890 N887 1.350 . S
C890 C889 1.434 . S
C891 C892 1.369 . S
C891 C893 1.419 . S
C891 H895 0.930 . S
C892 C891 1.369 . S
C892 C901 1.429 . S
C893 C891 1.419 . S
C893 C894 1.363 . S
C893 H896 0.929 . S
C894 C893 1.363 . S
C894 C900 1.428 . S
H895 C891 0.930 . S
H896 C893 0.929 . S
S897 N898 1.613 . S
S897 N899 1.610 . S
N898 S897 1.613 . S
N898 C901 1.350 . S
N899 S897 1.610 . S
N899 C900 1.351 . S
C900 C894 1.428 . S
C900 N899 1.351 . S
C900 C901 1.434 . S
C901 C892 1.429 . S
C901 N898 1.350 . S
C901 C900 1.434 . S
C902 C903 1.369 . S
C902 C904 1.419 . S
C902 H906 0.930 . S
C903 C902 1.369 . S
C903 C912 1.429 . S
C904 C902 1.419 . S
C904 C905 1.363 . S
C904 H907 0.929 . S
C905 C904 1.363 . S
C905 C911 1.428 . S
H906 C902 0.930 . S
H907 C904 0.929 . S
S908 N909 1.613 . S
S908 N910 1.610 . S
N909 S908 1.613 . S
N909 C912 1.350 . S
N910 S908 1.610 . S
N910 C911 1.351 . S
C911 C905 1.428 . S
C911 N910 1.351 . S
C911 C912 1.434 . S
C912 C903 1.429 . S
C912 N909 1.350 . S
C912 C911 1.434 . S
C913 C914 1.369 . S
C913 C915 1.419 . S
C913 H917 0.930 . S
C914 C913 1.369 . S
C914 C923 1.429 . S
C915 C913 1.419 . S
C915 C916 1.363 . S
C915 H918 0.929 . S
C916 C915 1.363 . S
C916 C922 1.428 . S
H917 C913 0.930 . S
H918 C915 0.929 . S
S919 N920 1.613 . S
S919 N921 1.610 . S
N920 S919 1.613 . S
N920 C923 1.350 . S
N921 S919 1.610 . S
N921 C922 1.351 . S
C922 C916 1.428 . S
C922 N921 1.351 . S
C922 C923 1.434 . S
C923 C914 1.429 . S
C923 N920 1.350 . S
C923 C922 1.434 . S
C924 C925 1.369 1_455 S
C924 C926 1.419 . S
C924 H928 0.930 . S
C925 C924 1.369 1_655 S
C925 C934 1.429 . S
C926 C924 1.419 . S
C926 C927 1.363 . S
C926 H929 0.929 . S
C927 C926 1.363 . S
C927 C933 1.428 1_455 S
H928 C924 0.930 . S
H929 C926 0.929 . S
S930 N931 1.613 . S
S930 N932 1.610 . S
N931 S930 1.613 . S
N931 C934 1.350 . S
N932 S930 1.610 . S
N932 C933 1.351 . S
C933 C927 1.428 1_655 S
C933 N932 1.351 . S
C933 C934 1.434 . S
C934 C925 1.429 . S
C934 N931 1.350 . S
C934 C933 1.434 . S
C935 C936 1.369 . S
C935 C937 1.419 . S
C935 H939 0.930 . S
C936 C935 1.369 . S
C936 C945 1.429 . S
C937 C935 1.419 . S
C937 C938 1.363 . S
C937 H940 0.929 . S
C938 C937 1.363 . S
C938 C944 1.428 . S
H939 C935 0.930 . S
H940 C937 0.929 . S
S941 N942 1.613 . S
S941 N943 1.610 . S
N942 S941 1.613 . S
N942 C945 1.350 . S
N943 S941 1.610 . S
N943 C944 1.351 . S
C944 C938 1.428 . S
C944 N943 1.351 . S
C944 C945 1.434 . S
C945 C936 1.429 . S
C945 N942 1.350 . S
C945 C944 1.434 . S
C946 C947 1.369 . S
C946 C948 1.419 . S
C946 H950 0.930 . S
C947 C946 1.369 . S
C947 C956 1.429 1_565 S
C948 C946 1.419 . S
C948 C949 1.363 1_565 S
C948 H951 0.929 . S
C949 C948 1.363 1_545 S
C949 C955 1.428 . S
H950 C946 0.930 . S
H951 C948 0.929 . S
S952 N953 1.613 . S
S952 N954 1.610 . S
N953 S952 1.613 . S
N953 C956 1.350 . S
N954 S952 1.610 . S
N954 C955 1.351 . S
C955 C949 1.428 . S
C955 N954 1.351 . S
C955 C956 1.434 . S
C956 C947 1.429 1_545 S
C956 N953 1.350 . S
C956 C955 1.434 . S
C957 C958 1.369 1_556 S
C957 C959 1.419 . S
C957 H961 0.930 . S
C958 C957 1.369 1_554 S
C958 C967 1.429 1_565 S
C959 C957 1.419 . S
C959 C960 1.363 1_565 S
C959 H962 0.929 . S
C960 C959 1.363 1_545 S
C960 C966 1.428 1_556 S
H961 C957 0.930 . S
H962 C959 0.929 . S
S963 N964 1.613 . S
S963 N965 1.610 . S
N964 S963 1.613 . S
N964 C967 1.350 . S
N965 S963 1.610 . S
N965 C966 1.351 . S
C966 C960 1.428 1_554 S
C966 N965 1.351 . S
C966 C967 1.434 . S
C967 C958 1.429 1_545 S
C967 N964 1.350 . S
C967 C966 1.434 . S
C968 C969 1.374 . S
C968 C970 1.414 1_556 S
C968 H972 0.930 . S
C969 C968 1.374 . S
C969 C978 1.429 1_655 S
C970 C968 1.414 1_554 S
C970 C971 1.363 1_655 S
C970 H973 0.929 . S
C971 C970 1.363 1_455 S
C971 C977 1.433 . S
H972 C968 0.930 . S
H973 C970 0.929 . S
S974 N975 1.613 . S
S974 N976 1.611 . S
N975 S974 1.613 . S
N975 C978 1.350 . S
N976 S974 1.611 . S
N976 C977 1.351 1_556 S
C977 C971 1.433 . S
C977 N976 1.351 1_554 S
C977 C978 1.429 1_554 S
C978 C969 1.429 1_455 S
C978 N975 1.350 . S
C978 C977 1.429 1_556 S
C979 C980 1.369 . S
C979 C981 1.419 . S
C979 H983 0.930 . S
C980 C979 1.369 . S
C980 C989 1.429 1_554 S
C981 C979 1.419 . S
C981 C982 1.363 1_554 S
C981 H984 0.929 . S
C982 C981 1.363 1_556 S
C982 C988 1.428 . S
H983 C979 0.930 . S
H984 C981 0.929 . S
S985 N986 1.613 . S
S985 N987 1.610 . S
N986 S985 1.613 . S
N986 C989 1.350 . S
N987 S985 1.610 . S
N987 C988 1.351 . S
C988 C982 1.428 . S
C988 N987 1.351 . S
C988 C989 1.434 . S
C989 C980 1.429 1_556 S
C989 N986 1.350 . S
C989 C988 1.434 . S
C397 C7 1.607 . S
C399 C326 1.608 1_554 S
C408 C18 1.605 . S
C410 C304 1.607 1_554 S
C419 C29 1.605 . S
C421 C315 1.606 1_554 S
C430 C40 1.607 . S
C432 C150 1.608 . S
C441 C161 1.609 . S
C443 C51 1.608 . S
C452 C62 1.609 . S
C454 C139 1.607 . S
C463 C73 1.528 . S
C465 C260 1.522 1_556 S
C474 C84 1.518 . S
C476 C238 1.521 1_556 S
C485 C95 1.528 . S
C487 C249 1.525 1_556 S
C496 C348 1.528 . S
C498 C106 1.522 . S
C507 C117 1.518 . S
C509 C359 1.520 . S
C518 C128 1.518 . S
C520 C337 1.520 . S
C529 C172 1.606 . S
C531 C282 1.605 . S
C540 C183 1.606 . S
C542 C293 1.607 . S
C551 C194 1.608 . S
C553 C271 1.606 . S
C562 C392 1.518 1_545 S
C564 C205 1.520 1_565 S
C573 C216 1.528 1_455 S
C575 C370 1.522 1_655 S
C584 C381 1.517 . S
C586 C227 1.522 . S
C595 C5 1.396 . S
C597 C49 1.399 . S
C606 C60 1.400 . S
C608 C16 1.399 . S
C617 C38 1.400 . S
C619 C27 1.398 . S
C628 C115 1.291 . S
C630 C71 1.296 . S
C639 C82 1.302 . S
C641 C126 1.307 . S
C650 C104 1.308 . S
C652 C93 1.303 . S
C661 C137 1.395 . S
C663 C181 1.395 . S
C672 C148 1.403 . S
C674 C192 1.404 . S
C683 C170 1.404 . S
C685 C159 1.401 . S
C694 C203 1.306 . S
C696 C247 1.296 . S
C705 C214 1.296 . S
C707 C258 1.293 . S
C716 C236 1.292 . S
C718 C225 1.302 . S
C727 C269 1.408 . S
C729 C313 1.406 . S
C738 C280 1.403 . S
C740 C324 1.404 . S
C749 C291 1.408 . S
C751 C302 1.406 . S
C760 C379 1.290 . S
C762 C335 1.297 . S
C771 C346 1.290 . S
C773 C390 1.298 . S
C782 C368 1.303 . S
C784 C357 1.294 . S
C793 C338 1.557 . S
C795 C8 1.619 . S
C804 C349 1.555 . S
C806 C19 1.619 . S
C815 C360 1.563 . S
C817 C30 1.618 . S
C826 C41 1.617 . S
C828 C239 1.562 . S
C837 C250 1.556 . S
C839 C52 1.619 . S
C848 C63 1.618 . S
C850 C261 1.559 . S
C859 C140 1.620 . S
C861 C74 1.558 . S
C870 C151 1.619 . S
C872 C85 1.561 . S
C881 C162 1.618 . S
C883 C96 1.559 . S
C892 C305 1.620 . S
C894 C107 1.556 . S
C903 C118 1.558 . S
C905 C316 1.618 . S
C914 C129 1.562 . S
C916 C327 1.618 . S
C925 C371 1.546 . S
C927 C173 1.617 . S
C936 C382 1.558 . S
C938 C184 1.618 . S
C947 C195 1.619 . S
C949 C393 1.587 . S
C958 C206 1.539 . S
C960 C272 1.619 . S
C969 C283 1.618 . S
C971 C217 1.590 . S
C980 C228 1.559 . S
C982 C294 1.618 . S
