# Generated by pormake.
# Topology lcx, (8)-cn, num edge types: 1
# Building blocks:
#     Node 0, Type 0, BuildingBlock: OLANAS_clean_sbu_2, # of connection points: 8
#     Node 1, Type 0, BuildingBlock: OLANAS_clean_sbu_2, # of connection points: 8
#     Node 2, Type 0, BuildingBlock: OLANAS_clean_sbu_2, # of connection points: 8
#     Node 3, Type 0, BuildingBlock: OLANAS_clean_sbu_2, # of connection points: 8
#     Node 4, Type 0, BuildingBlock: OLANAS_clean_sbu_2, # of connection points: 8
#     Node 5, Type 0, BuildingBlock: OLANAS_clean_sbu_2, # of connection points: 8
#     Edge 6, Type (0, 0), BuildingBlock: TEMPAE_clean_linker_10, # of connection points: 2
#     Edge 7, Type (0, 0), BuildingBlock: TEMPAE_clean_linker_10, # of connection points: 2
#     Edge 8, Type (0, 0), BuildingBlock: TEMPAE_clean_linker_10, # of connection points: 2
#     Edge 9, Type (0, 0), BuildingBlock: TEMPAE_clean_linker_10, # of connection points: 2
#     Edge 10, Type (0, 0), BuildingBlock: TEMPAE_clean_linker_10, # of connection points: 2
#     Edge 11, Type (0, 0), BuildingBlock: TEMPAE_clean_linker_10, # of connection points: 2
#     Edge 12, Type (0, 0), BuildingBlock: TEMPAE_clean_linker_10, # of connection points: 2
#     Edge 13, Type (0, 0), BuildingBlock: TEMPAE_clean_linker_10, # of connection points: 2
#     Edge 14, Type (0, 0), BuildingBlock: TEMPAE_clean_linker_10, # of connection points: 2
#     Edge 15, Type (0, 0), BuildingBlock: TEMPAE_clean_linker_10, # of connection points: 2
#     Edge 16, Type (0, 0), BuildingBlock: TEMPAE_clean_linker_10, # of connection points: 2
#     Edge 17, Type (0, 0), BuildingBlock: TEMPAE_clean_linker_10, # of connection points: 2
#     Edge 18, Type (0, 0), BuildingBlock: TEMPAE_clean_linker_10, # of connection points: 2
#     Edge 19, Type (0, 0), BuildingBlock: TEMPAE_clean_linker_10, # of connection points: 2
#     Edge 20, Type (0, 0), BuildingBlock: TEMPAE_clean_linker_10, # of connection points: 2
#     Edge 21, Type (0, 0), BuildingBlock: TEMPAE_clean_linker_10, # of connection points: 2
#     Edge 22, Type (0, 0), BuildingBlock: TEMPAE_clean_linker_10, # of connection points: 2
#     Edge 23, Type (0, 0), BuildingBlock: TEMPAE_clean_linker_10, # of connection points: 2
#     Edge 24, Type (0, 0), BuildingBlock: TEMPAE_clean_linker_10, # of connection points: 2
#     Edge 25, Type (0, 0), BuildingBlock: TEMPAE_clean_linker_10, # of connection points: 2
#     Edge 26, Type (0, 0), BuildingBlock: TEMPAE_clean_linker_10, # of connection points: 2
#     Edge 27, Type (0, 0), BuildingBlock: TEMPAE_clean_linker_10, # of connection points: 2
#     Edge 28, Type (0, 0), BuildingBlock: TEMPAE_clean_linker_10, # of connection points: 2
#     Edge 29, Type (0, 0), BuildingBlock: TEMPAE_clean_linker_10, # of connection points: 2
# Relax obj value: 0.048
# Max RMSD: 0.138
# Mean RMSD: 0.137
data_MOF--net-lcx--node1-OLANAS_clean_sbu_2--edge1-TEMPAE_clean_linker_10
_symmetry_space_group_name_H-M    P1
_symmetry_Int_Tables_number       1
_symmetry_cell_setting            triclinic
loop_
_symmetry_equiv_pos_as_xyz
'x, y, z'
_cell_length_a     31.558678
_cell_length_b     31.519974
_cell_length_c     31.548981
_cell_angle_alpha  90.186324
_cell_angle_beta   89.77283
_cell_angle_gamma 89.87105
loop_
_atom_site_label
_atom_site_type_symbol
_atom_site_fract_x
_atom_site_fract_y
_atom_site_fract_z
_atom_type_partial_charge
C0 C 0.94546 0.31305 0.50171 0.0
O1 O 0.90751 0.33008 0.50502 0.0
C2 C 0.98395 0.33883 0.49821 0.0
C3 C 0.9882 0.383 0.4994 0.0
C4 C 0.02959 0.4001 0.49723 0.0
C5 C 0.06543 0.37314 0.49436 0.0
C6 C 0.05853 0.32932 0.49345 0.0
N7 N 0.01879 0.31517 0.4947 0.0
N8 N 0.00533 0.25035 0.43544 0.0
Co9 Co 0.01171 0.2572 0.49632 0.0
N10 N 0.00503 0.19918 0.49834 0.0
C11 C 0.99639 0.1349 0.46157 0.0
C12 C -0.00083 0.11375 0.50097 0.0
C13 C 0.0055 0.13685 0.53895 0.0
C14 C 0.0087 0.18102 0.53622 0.0
C15 C -0.00029 0.17917 0.46153 0.0
N16 N 0.01716 0.2536 0.55732 0.0
N17 N 0.95182 0.27004 0.5019 0.0
N18 N 0.07262 0.25469 0.49069 0.0
C19 C -0.00052 0.2084 0.42551 0.0
O20 O 0.99549 0.19504 0.38619 0.0
C21 C 0.08956 0.29462 0.49142 0.0
O22 O 0.13058 0.30138 0.48869 0.0
C23 C 0.09826 0.21767 0.48738 0.0
C24 C 0.14296 0.17224 0.44385 0.0
C25 C 0.11143 0.20341 0.44723 0.0
C26 C 0.11748 0.20192 0.52398 0.0
C27 C 0.14901 0.17101 0.52069 0.0
C28 C 0.16043 0.15511 0.48083 0.0
C29 C 0.0156 0.21215 0.57011 0.0
O30 O 0.01709 0.20131 0.6103 0.0
C31 C 0.01617 0.28753 0.58723 0.0
C32 C 0.05418 0.30062 0.60595 0.0
C33 C 0.05314 0.32608 0.64229 0.0
C34 C 0.01418 0.33908 0.65925 0.0
C35 C 0.97618 0.32435 0.64206 0.0
C36 C 0.97722 0.29912 0.60558 0.0
C37 C 0.91746 0.24076 0.50155 0.0
C38 C 0.90789 0.21735 0.53799 0.0
C39 C 0.87157 0.19215 0.53913 0.0
C40 C 0.84549 0.18995 0.50344 0.0
C41 C 0.85308 0.21548 0.46775 0.0
C42 C 0.88958 0.24058 0.46704 0.0
C43 C 0.00555 0.28246 0.40363 0.0
C44 C 0.00821 0.33665 0.33405 0.0
C45 C 0.97064 0.31452 0.34296 0.0
C46 C 0.96936 0.2882 0.37855 0.0
C47 C 0.04375 0.30183 0.39202 0.0
C48 C 0.04517 0.3292 0.35727 0.0
H49 H 0.96079 0.40352 0.50228 0.0
H50 H 0.0339 0.43414 0.49815 0.0
H51 H 0.09713 0.38611 0.49315 0.0
H52 H 0.99211 0.11728 0.43241 0.0
H53 H 0.99673 0.07953 0.50203 0.0
H54 H 0.00798 0.12075 0.56909 0.0
H55 H 0.09929 0.21853 0.41897 0.0
H56 H 0.11021 0.2161 0.55451 0.0
H57 H 0.18684 0.13306 0.4784 0.0
H58 H 0.0841 0.2882 0.59427 0.0
H59 H 0.01356 0.35664 0.68893 0.0
H60 H 0.94807 0.28588 0.59349 0.0
H61 H 0.9275 0.21999 0.56587 0.0
H62 H 0.81795 0.16951 0.50454 0.0
H63 H 0.89555 0.26157 0.4407 0.0
H64 H 0.00962 0.35788 0.30712 0.0
H65 H 0.94129 0.26981 0.38525 0.0
H66 H 0.07269 0.29395 0.40838 0.0
C67 C 0.2984 0.49095 0.92493 0.0
O68 O 0.30268 0.48783 0.88356 0.0
C69 C 0.33474 0.48938 0.95381 0.0
C70 C 0.37794 0.48581 0.94432 0.0
C71 C 0.40693 0.4867 0.97845 0.0
C72 C 0.39242 0.49135 0.02076 0.0
C73 C 0.34871 0.49475 0.02765 0.0
N74 N 0.32307 0.49314 0.99427 0.0
N75 N 0.25484 0.44001 0.01142 0.0
Co76 Co 0.26622 0.50043 0.00479 0.0
N77 N 0.20944 0.50787 0.01552 0.0
C78 C 0.14416 0.47758 0.03415 0.0
C79 C 0.12681 0.51905 0.0349 0.0
C80 C 0.15241 0.55475 0.02582 0.0
C81 C 0.1951 0.54765 0.01595 0.0
C82 C 0.18717 0.47311 0.02412 0.0
N83 N 0.26796 0.56162 -0.00049 0.0
N84 N 0.25967 0.49578 0.94414 0.0
N85 N 0.28241 0.50487 0.06407 0.0
C86 C 0.21297 0.4343 0.02166 0.0
O87 O 0.19642 0.3964 0.02682 0.0
C88 C 0.32551 0.50112 0.06765 0.0
O89 O 0.34479 0.50275 0.10449 0.0
C90 C 0.25564 0.50828 0.10072 0.0
C91 C 0.22943 0.47469 0.16489 0.0
C92 C 0.24647 0.47147 0.12401 0.0
C93 C 0.24611 0.54849 0.11811 0.0
C94 C 0.22871 0.55157 0.15904 0.0
C95 C 0.22054 0.51465 0.18198 0.0
C96 C 0.22858 0.57857 0.00659 0.0
O97 O 0.22145 0.61968 0.0058 0.0
C98 C 0.30457 0.58728 0.99281 0.0
C99 C 0.32119 0.61003 0.02708 0.0
C100 C 0.35384 0.63945 0.02089 0.0
C101 C 0.37169 0.64291 0.98018 0.0
C102 C 0.35245 0.6239 0.94499 0.0
C103 C 0.31889 0.59562 0.95148 0.0
C104 C 0.22143 0.49884 0.92047 0.0
C105 C 0.21214 0.53664 0.89896 0.0
C106 C 0.18135 0.53709 0.86709 0.0
C107 C 0.15975 0.49949 0.85737 0.0
C108 C 0.17031 0.46128 0.87739 0.0
C109 C 0.20002 0.46148 0.91006 0.0
C110 C 0.28219 0.40437 0.00339 0.0
C111 C 0.31732 0.32395 0.98867 0.0
C112 C 0.30617 0.34935 0.9543 0.0
C113 C 0.28833 0.38952 0.96156 0.0
C114 C 0.2941 0.37846 0.0376 0.0
C115 C 0.31072 0.33783 0.03025 0.0
H116 H 0.38897 0.48281 0.91192 0.0
H117 H 0.44056 0.48415 0.97212 0.0
H118 H 0.41455 0.49256 0.04684 0.0
H119 H 0.12472 0.45028 0.04134 0.0
H120 H 0.09368 0.52353 0.04271 0.0
H121 H 0.13932 0.58651 0.02677 0.0
H122 H 0.25455 0.44064 0.11119 0.0
H123 H 0.25376 0.577 0.10075 0.0
H124 H 0.20669 0.51706 0.21348 0.0
H125 H 0.30639 0.60657 0.05779 0.0
H126 H 0.39804 0.66421 0.97488 0.0
H127 H 0.30271 0.58193 0.92456 0.0
H128 H 0.23088 0.56474 0.90497 0.0
H129 H 0.13853 0.49889 0.83038 0.0
H130 H 0.20951 0.4318 0.92433 0.0
H131 H 0.33044 0.29255 0.98294 0.0
H132 H 0.27752 0.40789 0.93491 0.0
H133 H 0.28774 0.38874 0.06975 0.0
C134 C 0.0849 0.71417 0.49548 0.0
O135 O 0.12631 0.71007 0.49293 0.0
C136 C 0.05629 0.67751 0.49659 0.0
C137 C 0.06609 0.63421 0.49592 0.0
C138 C 0.03219 0.60502 0.49908 0.0
C139 C 0.98983 0.61944 0.50309 0.0
C140 C 0.98263 0.66326 0.50351 0.0
N141 N 0.01578 0.68907 0.49985 0.0
N142 N 0.99759 0.75391 0.44294 0.0
Co143 Co 0.00492 0.74626 0.50377 0.0
N144 N 0.99386 0.80338 0.50787 0.0
C145 C 0.97452 0.86661 0.4739 0.0
C146 C 0.9735 0.88636 0.51427 0.0
C147 C 0.98279 0.86299 0.55136 0.0
C148 C 0.99313 0.82004 0.54674 0.0
C149 C 0.98509 0.82351 0.4719 0.0
N150 N 0.0108 0.74835 0.56485 0.0
N151 N 0.06542 0.75299 0.49777 0.0
N152 N 0.94588 0.72983 0.50993 0.0
C153 C 0.98745 0.79539 0.43473 0.0
O154 O 0.98137 0.80941 0.396 0.0
C155 C 0.94255 0.68652 0.50893 0.0
O156 O 0.90593 0.66704 0.51279 0.0
C157 C 0.90924 0.75649 0.51388 0.0
C158 C 0.84435 0.78224 0.48158 0.0
C159 C 0.88525 0.76539 0.4776 0.0
C160 C 0.89269 0.76626 0.55429 0.0
C161 C 0.85169 0.78303 0.55825 0.0
C162 C 0.82786 0.79081 0.52189 0.0
C163 C 0.00286 0.78853 0.57953 0.0
O164 O 0.00354 0.79808 0.62012 0.0
C165 C 0.018 0.71335 0.59251 0.0
C166 C 0.98387 0.69707 0.61565 0.0
C167 C 0.99004 0.6655 0.6462 0.0
C168 C 0.03108 0.64878 0.65093 0.0
C169 C 0.06607 0.66756 0.63096 0.0
C170 C 0.05941 0.69994 0.60144 0.0
C171 C 0.08876 0.79155 0.49927 0.0
C172 C 0.10368 0.80642 0.53839 0.0
C173 C 0.13439 0.83838 0.53982 0.0
C174 C 0.14909 0.85596 0.50173 0.0
C175 C 0.13585 0.83979 0.46257 0.0
C176 C 0.10498 0.80811 0.46146 0.0
C177 C 0.00279 0.7234 0.40942 0.0
C178 C 0.01318 0.67546 0.33523 0.0
C179 C 0.04883 0.68686 0.35878 0.0
C180 C 0.04369 0.71146 0.39564 0.0
C181 C 0.96747 0.71246 0.38466 0.0
C182 C 0.97283 0.68922 0.34722 0.0
H183 H 0.09854 0.62328 0.49343 0.0
H184 H 0.03877 0.57131 0.49882 0.0
H185 H 0.96394 0.59719 0.50611 0.0
H186 H 0.96704 0.88431 0.44555 0.0
H187 H 0.96528 0.91962 0.51683 0.0
H188 H 0.98163 0.87791 0.58229 0.0
H189 H 0.89763 0.75748 0.44657 0.0
H190 H 0.91078 0.7595 0.58241 0.0
H191 H 0.79644 0.80462 0.52503 0.0
H192 H 0.95312 0.71112 0.61121 0.0
H193 H 0.03677 0.62323 0.67305 0.0
H194 H 0.0862 0.7157 0.58694 0.0
H195 H 0.09393 0.79088 0.56736 0.0
H196 H 0.17509 0.87845 0.50248 0.0
H197 H 0.09617 0.79388 0.43146 0.0
H198 H 0.01715 0.65814 0.30565 0.0
H199 H 0.07137 0.72282 0.41211 0.0
H200 H 0.93633 0.72416 0.39318 0.0
C201 C 0.70079 0.492 0.92565 0.0
O202 O 0.68765 0.48798 0.88634 0.0
C203 C 0.67163 0.49992 0.96122 0.0
C204 C 0.62747 0.50384 0.96105 0.0
C205 C 0.60665 0.51062 0.00035 0.0
C206 C 0.63 0.51325 0.03851 0.0
C207 C 0.67407 0.50891 0.03606 0.0
N208 N 0.69178 0.50264 0.99816 0.0
N209 N 0.76077 0.55603 0.98735 0.0
Co210 Co 0.74976 0.49641 0.99676 0.0
N211 N 0.8077 0.49016 0.99526 0.0
C212 C 0.87441 0.52148 0.98551 0.0
C213 C 0.89264 0.48084 0.99147 0.0
C214 C 0.86679 0.44501 -0.00071 0.0
C215 C 0.8229 0.45113 0.00106 0.0
C216 C 0.83025 0.52499 0.98756 0.0
N217 N 0.74878 0.43579 0.00594 0.0
N218 N 0.74256 0.48791 0.93648 0.0
N219 N 0.74687 0.50575 0.0573 0.0
C220 C 0.8034 0.56283 0.98288 0.0
O221 O 0.8193 0.60094 0.97732 0.0
C222 C 0.70561 0.51031 0.07015 0.0
O223 O 0.6951 0.51652 0.11007 0.0
C224 C 0.78134 0.5055 0.08631 0.0
C225 C 0.83505 0.54423 0.12484 0.0
C226 C 0.80497 0.54251 0.09257 0.0
C227 C 0.78653 0.47079 0.11344 0.0
C228 C 0.81663 0.47203 0.14593 0.0
C229 C 0.84245 0.50817 0.14953 0.0
C230 C 0.78908 0.41983 0.00761 0.0
O231 O 0.79683 0.37919 0.0129 0.0
C232 C 0.7119 0.41008 0.00935 0.0
C233 C 0.69969 0.39428 0.0488 0.0
C234 C 0.66342 0.36905 0.05246 0.0
C235 C 0.63833 0.36314 0.0161 0.0
C236 C 0.65463 0.37143 0.97528 0.0
C237 C 0.69129 0.39654 0.97264 0.0
C238 C 0.77522 0.48141 0.90585 0.0
C239 C 0.79029 0.44026 0.89757 0.0
C240 C 0.81978 0.43373 0.86503 0.0
C241 C 0.8339 0.46826 0.8412 0.0
C242 C 0.81609 0.50871 0.84655 0.0
C243 C 0.7875 0.51534 0.87996 0.0
C244 C 0.73094 0.59007 0.98882 0.0
C245 C 0.68329 0.66468 0.99132 0.0
C246 C 0.69507 0.64713 0.95226 0.0
C247 C 0.71867 0.60963 0.95093 0.0
C248 C 0.72052 0.60887 0.02796 0.0
C249 C 0.69684 0.6464 0.02922 0.0
H250 H 0.60967 0.5016 0.93188 0.0
H251 H 0.57251 0.51376 0.00125 0.0
H252 H 0.61416 0.51842 0.06858 0.0
H253 H 0.8941 0.54889 0.97951 0.0
H254 H 0.9267 0.47711 0.98995 0.0
H255 H 0.88064 0.41389 0.00359 0.0
H256 H 0.79845 0.57058 0.0741 0.0
H257 H 0.76542 0.44407 0.11047 0.0
H258 H 0.86643 0.5098 0.17395 0.0
H259 H 0.71978 0.40021 0.07573 0.0
H260 H 0.60746 0.34893 0.01974 0.0
H261 H 0.70561 0.40427 0.9426 0.0
H262 H 0.77799 0.41351 0.91514 0.0
H263 H 0.85687 0.46271 0.81613 0.0
H264 H 0.77299 0.54612 0.88468 0.0
H265 H 0.66657 0.69484 0.99211 0.0
H266 H 0.72933 0.59693 0.9208 0.0
H267 H 0.73239 0.59564 0.05714 0.0
C268 C 0.51586 0.06787 0.31326 0.0
O269 O 0.51194 0.10607 0.32975 0.0
C270 C 0.52028 0.03002 0.33968 0.0
C271 C 0.51936 0.02677 0.38391 0.0
C272 C 0.52193 0.98579 0.40189 0.0
C273 C 0.52477 0.94935 0.37572 0.0
C274 C 0.52533 0.95527 0.3318 0.0
N275 N 0.52404 0.9947 0.31674 0.0
N276 N 0.58136 0.00725 0.24989 0.0
Co277 Co 0.52088 0.00039 0.25867 0.0
N278 N 0.51717 0.00548 0.20064 0.0
C279 C 0.55209 0.01229 0.13516 0.0
C280 C 0.51223 0.00787 0.11523 0.0
C281 C 0.47501 0.00161 0.13957 0.0
C282 C 0.47895 0.00015 0.18369 0.0
C283 C 0.55335 0.01072 0.17945 0.0
N284 N 0.4599 0.99422 0.25701 0.0
N285 N 0.51533 0.06077 0.27034 0.0
N286 N 0.52678 0.93922 0.25757 0.0
C287 C 0.59012 0.01239 0.20764 0.0
O288 O 0.629 0.01674 0.19316 0.0
C289 C 0.52681 0.92337 0.29792 0.0
O290 O 0.53079 0.88259 0.30574 0.0
C291 C 0.53221 0.91239 0.22157 0.0
C292 C 0.57982 0.87165 0.17663 0.0
C293 C 0.5733 0.90396 0.20641 0.0
C294 C 0.49826 0.88667 0.20907 0.0
C295 C 0.50499 0.85316 0.18059 0.0
C296 C 0.54519 0.84825 0.16211 0.0
C297 C 0.446 0.99376 0.21596 0.0
O298 O 0.40555 0.99156 0.20636 0.0
C299 C 0.43113 0.99731 0.29177 0.0
C300 C 0.41342 0.96017 0.30836 0.0
C301 C 0.37907 0.96275 0.33638 0.0
C302 C 0.36328 0.00257 0.34842 0.0
C303 C 0.37932 0.03968 0.3302 0.0
C304 C 0.41358 0.03697 0.30212 0.0
C305 C 0.51596 0.09516 0.24096 0.0
C306 C 0.48014 0.10363 0.21614 0.0
C307 C 0.47766 0.14149 0.19328 0.0
C308 C 0.5107 0.17082 0.19573 0.0
C309 C 0.54567 0.16365 0.22192 0.0
C310 C 0.54873 0.12526 0.24363 0.0
C311 C 0.61359 0.00904 0.28136 0.0
C312 C 0.68144 0.01088 0.3374 0.0
C313 C 0.67214 0.04744 0.31357 0.0
C314 C 0.63761 0.04611 0.28582 0.0
C315 C 0.6256 0.97209 0.30252 0.0
C316 C 0.65979 0.97273 0.33047 0.0
H317 H 0.5163 0.05465 0.40382 0.0
H318 H 0.52122 0.98224 0.43599 0.0
H319 H 0.52609 0.91791 0.38935 0.0
H320 H 0.5807 0.01637 0.1166 0.0
H321 H 0.51024 0.00894 0.08102 0.0
H322 H 0.44454 0.99785 0.12441 0.0
H323 H 0.60021 0.92039 0.21984 0.0
H324 H 0.46779 0.89062 0.22455 0.0
H325 H 0.55072 0.82283 0.13947 0.0
H326 H 0.42437 0.92953 0.29704 0.0
H327 H 0.33501 0.00434 0.36811 0.0
H328 H 0.42466 0.06524 0.28619 0.0
H329 H 0.45349 0.08216 0.21635 0.0
H330 H 0.50817 0.20046 0.17849 0.0
H331 H 0.57493 0.12006 0.26499 0.0
H332 H 0.70718 0.01113 0.35998 0.0
H333 H 0.63043 0.07293 0.26586 0.0
H334 H 0.60982 0.94249 0.29575 0.0
C335 C 0.5196 0.92864 0.71341 0.0
O336 O 0.52355 0.8874 0.70821 0.0
C337 C 0.52379 0.95858 0.67811 0.0
C338 C 0.53112 0.95033 0.63511 0.0
C339 C 0.53399 0.98539 0.60731 0.0
C340 C 0.52949 0.02739 0.62279 0.0
C341 C 0.52243 0.03302 0.66627 0.0
N342 N 0.52028 0.99879 0.69078 0.0
N343 N 0.56946 0.01408 0.76216 0.0
Co344 Co 0.50995 0.00783 0.74747 0.0
N345 N 0.49957 0.01679 0.80415 0.0
C346 C 0.52657 0.03036 0.87202 0.0
C347 C 0.48444 0.02881 0.88756 0.0
C348 C 0.45018 0.02072 0.85985 0.0
C349 C 0.45935 0.01445 0.81687 0.0
C350 C 0.53312 0.02396 0.82857 0.0
N351 N 0.44923 0.00242 0.74259 0.0
N352 N 0.51374 0.94679 0.75251 0.0
N353 N 0.50708 0.06771 0.73254 0.0
C354 C 0.57311 0.02278 0.80459 0.0
O355 O 0.6101 0.02751 0.82305 0.0
C356 C 0.51538 0.07251 0.69014 0.0
O357 O 0.51446 0.10977 0.67152 0.0
C358 C 0.49703 0.10338 0.75908 0.0
C359 C 0.51797 0.17307 0.78558 0.0
C360 C 0.5285 0.13406 0.76666 0.0
C361 C 0.45457 0.11214 0.77017 0.0
C362 C 0.44419 0.15066 0.78991 0.0
C363 C 0.47602 0.18005 0.79847 0.0
C364 C 0.43036 0.00574 0.78161 0.0
O365 O 0.38905 0.00367 0.78674 0.0
C366 C 0.42555 0.99699 0.70465 0.0
C367 C 0.41335 0.03301 0.68204 0.0
C368 C 0.38263 0.02999 0.6505 0.0
C369 C 0.36608 0.99017 0.63993 0.0
C370 C 0.37709 0.95402 0.66322 0.0
C371 C 0.40706 0.95753 0.69566 0.0
C372 C 0.51213 0.92202 0.79022 0.0
C373 C 0.47535 0.89877 0.7996 0.0
C374 C 0.47662 0.86612 0.82968 0.0
C375 C 0.51489 0.85723 0.85026 0.0
C376 C 0.55212 0.8787 0.83922 0.0
C377 C 0.55025 0.91216 0.81042 0.0
C378 C 0.60604 0.00941 0.73544 0.0
C379 C 0.68581 -0.00057 0.69771 0.0
C380 C 0.66077 0.96377 0.70531 0.0
C381 C 0.62096 0.96867 0.72451 0.0
C382 C 0.63144 0.04509 0.72719 0.0
C383 C 0.6717 0.03997 0.70902 0.0
H384 H 0.53447 0.9182 0.62335 0.0
H385 H 0.53953 0.98003 0.57385 0.0
H386 H 0.53127 0.05421 0.60154 0.0
H387 H 0.55283 0.03618 0.8932 0.0
H388 H 0.47837 0.03371 0.921 0.0
H389 H 0.41796 0.01943 0.87165 0.0
H390 H 0.56058 0.12815 0.75582 0.0
H391 H 0.42963 0.09026 0.76193 0.0
H392 H 0.46746 0.20927 0.81469 0.0
H393 H 0.42481 0.0639 0.69157 0.0
H394 H 0.34043 0.98819 0.61717 0.0
H395 H 0.41401 0.93045 0.71552 0.0
H396 H 0.4468 0.90412 0.78143 0.0
H397 H 0.51684 0.82976 0.87083 0.0
H398 H 0.57926 0.92742 0.80044 0.0
H399 H 0.71688 0.9955 0.68327 0.0
H400 H 0.60266 0.94084 0.73215 0.0
H401 H 0.62071 0.07634 0.73687 0.0
C402 C 0.11761 0.31714 0.32782 0.0
C403 C 0.08566 0.34554 0.34045 0.0
C404 C 0.15069 0.33049 0.3011 0.0
C405 C 0.15154 0.3731 0.28712 0.0
C406 C 0.1214 0.40261 0.30305 0.0
C407 C 0.08881 0.38838 0.32954 0.0
C408 C 0.1829 0.29849 0.28562 0.0
C409 C 0.12152 0.44859 0.28951 0.0
C410 C 0.23732 0.43377 0.23134 0.0
C411 C 0.2196 0.43721 0.19083 0.0
C412 C 0.21828 0.40835 0.26236 0.0
C413 C 0.18043 0.38662 0.25249 0.0
C414 C 0.16554 0.38601 0.2101 0.0
C415 C 0.18553 0.41138 0.17957 0.0
C416 C 0.23582 0.40909 0.30677 0.0
C417 C 0.12543 0.36295 0.19816 0.0
H418 H 0.11502 0.28391 0.33621 0.0
H419 H 0.06413 0.41023 0.33965 0.0
H420 H 0.17909 0.29337 0.25104 0.0
H421 H 0.21546 0.31061 0.29071 0.0
H422 H 0.1796 0.26744 0.30186 0.0
H423 H 0.09758 0.46783 0.30697 0.0
H424 H 0.15318 0.46284 0.29475 0.0
H425 H 0.11463 0.45071 0.25511 0.0
H426 H 0.26388 0.45382 0.2398 0.0
H427 H 0.17189 0.4143 0.1482 0.0
H428 H 0.23154 0.37805 0.32266 0.0
H429 H 0.21863 0.4334 0.32572 0.0
H430 H 0.27003 0.41735 0.30681 0.0
H431 H 0.12469 0.33086 0.21244 0.0
H432 H 0.12207 0.35981 0.16324 0.0
H433 H 0.09767 0.38084 0.21056 0.0
C434 C 0.21271 0.58606 0.81357 0.0
C435 C 0.17741 0.57307 0.83735 0.0
C436 C 0.2076 0.60994 0.77637 0.0
C437 C 0.16625 0.62085 0.76294 0.0
C438 C 0.13105 0.61167 0.7895 0.0
C439 C 0.1371 0.58772 0.82629 0.0
C440 C 0.24613 0.61975 0.74976 0.0
C441 C 0.08635 0.62348 0.77706 0.0
C442 C 0.126 0.69029 0.67557 0.0
C443 C 0.10813 0.65904 0.64948 0.0
C444 C 0.15099 0.67882 0.71047 0.0
C445 C 0.158 0.63529 0.71886 0.0
C446 C 0.14649 0.60458 0.6881 0.0
C447 C 0.12152 0.6169 0.65361 0.0
C448 C 0.16439 0.71277 0.74136 0.0
C449 C 0.15489 0.55791 0.69483 0.0
H450 H 0.24398 0.57454 0.82197 0.0
H451 H 0.1099 0.57776 0.84484 0.0
H452 H 0.2518 0.59319 0.72727 0.0
H453 H 0.2419 0.6492 0.73106 0.0
H454 H 0.27478 0.62308 0.76986 0.0
H455 H 0.06344 0.6187 0.80343 0.0
H456 H 0.08475 0.65713 0.767 0.0
H457 H 0.07626 0.60359 0.74983 0.0
H458 H 0.11592 0.72303 0.6722 0.0
H459 H 0.10795 0.59285 0.63311 0.0
H460 H 0.1947 0.70443 0.757 0.0
H461 H 0.13977 0.71616 0.76636 0.0
H462 H 0.16795 0.74392 0.72534 0.0
H463 H 0.18744 0.55275 0.70694 0.0
H464 H 0.15089 0.53936 0.66512 0.0
H465 H 0.13232 0.54546 0.71882 0.0
C466 C 0.89524 0.58874 0.14829 0.0
C467 C 0.85185 0.58498 0.14038 0.0
C468 C 0.91002 0.6174 0.17879 0.0
C469 C 0.88046 0.64228 0.20203 0.0
C470 C 0.83738 0.64284 0.18979 0.0
C471 C 0.82353 0.61411 0.15875 0.0
C472 C 0.95656 0.61703 0.18976 0.0
C473 C 0.80507 0.66975 0.21287 0.0
C474 C 0.91656 0.64485 0.31564 0.0
C475 C 0.93821 0.68338 0.31679 0.0
C476 C 0.89379 0.6329 0.27948 0.0
C477 C 0.8935 0.66002 0.24363 0.0
C478 C 0.91211 0.7007 0.24632 0.0
C479 C 0.93446 0.71188 0.28303 0.0
C480 C 0.87367 0.58946 0.27819 0.0
C481 C 0.91233 0.73069 0.20915 0.0
H482 H 0.91702 0.56626 0.1338 0.0
H483 H 0.78987 0.61118 0.15254 0.0
H484 H 0.96841 0.64979 0.19453 0.0
H485 H 0.96123 0.59949 0.21984 0.0
H486 H 0.97595 0.60141 0.16469 0.0
H487 H 0.77586 0.67406 0.19379 0.0
H488 H 0.7962 0.65393 0.243 0.0
H489 H 0.81817 0.70138 0.2209 0.0
H490 H 0.92009 0.62278 0.34171 0.0
H491 H 0.95187 0.7415 0.28399 0.0
H492 H 0.89251 0.5683 0.25712 0.0
H493 H 0.84117 0.59138 0.26506 0.0
H494 H 0.872 0.57474 0.3101 0.0
H495 H 0.939 0.72227 0.18769 0.0
H496 H 0.91676 0.76406 0.21967 0.0
H497 H 0.88258 0.72847 0.19067 0.0
C498 C 0.80321 0.37349 0.81873 0.0
C499 C 0.83068 0.39134 0.84864 0.0
C500 C 0.81932 0.34988 0.78446 0.0
C501 C 0.86363 0.34384 0.78091 0.0
C502 C 0.89018 0.35512 0.8153 0.0
C503 C 0.87329 0.37908 0.84887 0.0
C504 C 0.78972 0.3375 0.74913 0.0
C505 C 0.93747 0.34795 0.81354 0.0
C506 C 0.92237 0.29193 0.68936 0.0
C507 C 0.93762 0.32794 0.66827 0.0
C508 C 0.89541 0.29602 0.72468 0.0
C509 C 0.8833 0.33704 0.73854 0.0
C510 C 0.89533 0.3731 0.71449 0.0
C511 C 0.92276 0.36808 0.67987 0.0
C512 C 0.88351 0.25684 0.7493 0.0
C513 C 0.88257 0.41749 0.72757 0.0
H514 H 0.77019 0.38314 0.81861 0.0
H515 H 0.89443 0.39301 0.87207 0.0
H516 H 0.78975 0.36285 0.72479 0.0
H517 H 0.8 0.30759 0.73357 0.0
H518 H 0.75674 0.33368 0.76095 0.0
H519 H 0.95205 0.35056 0.84544 0.0
H520 H 0.94501 0.31628 0.80004 0.0
H521 H 0.95219 0.3722 0.79275 0.0
H522 H 0.93446 0.26088 0.68056 0.0
H523 H 0.93496 0.39577 0.66359 0.0
H524 H 0.85068 0.25909 0.76178 0.0
H525 H 0.90506 0.25355 0.7768 0.0
H526 H 0.88646 0.22773 0.72954 0.0
H527 H 0.89025 0.44117 0.70272 0.0
H528 H 0.89965 0.42653 0.7569 0.0
H529 H 0.8481 0.41909 0.73443 0.0
C530 C 0.33046 0.09262 0.29884 0.0
C531 C 0.35367 0.07864 0.33397 0.0
C532 C 0.29427 0.11811 0.30436 0.0
C533 C 0.28161 0.12975 0.34588 0.0
C534 C 0.3085 0.12045 0.38061 0.0
C535 C 0.34404 0.09455 0.37423 0.0
C536 C 0.26719 0.12816 0.2664 0.0
C537 C 0.29712 0.13321 0.42541 0.0
C538 C 0.19119 0.19621 0.38677 0.0
C539 C 0.16565 0.16404 0.4037 0.0
C540 C 0.22723 0.18602 0.36246 0.0
C541 C 0.23723 0.14284 0.35505 0.0
C542 C 0.20768 0.11098 0.36646 0.0
C543 C 0.1722 0.12204 0.39091 0.0
C544 C 0.25735 0.22088 0.34976 0.0
C545 C 0.21642 0.06452 0.35832 0.0
H546 H 0.33798 0.08012 0.26763 0.0
H547 H 0.36217 0.08366 0.40126 0.0
H548 H 0.24118 0.10464 0.26421 0.0
H549 H 0.25257 0.16006 0.26932 0.0
H550 H 0.28585 0.1266 0.2365 0.0
H551 H 0.3251 0.13169 0.44658 0.0
H552 H 0.28406 0.16586 0.42666 0.0
H553 H 0.27256 0.11132 0.43786 0.0
H554 H 0.186 0.22879 0.39671 0.0
H555 H 0.15226 0.0973 0.404 0.0
H556 H 0.26834 0.21624 0.31663 0.0
H557 H 0.28573 0.21994 0.37039 0.0
H558 H 0.24255 0.25277 0.35277 0.0
H559 H 0.22952 0.05947 0.32604 0.0
H560 H 0.18732 0.04507 0.36185 0.0
H561 H 0.24023 0.05295 0.3814 0.0
C562 C 0.42761 0.82357 0.87418 0.0
C563 C 0.44192 0.83489 0.83378 0.0
C564 C 0.4052 0.78579 0.88056 0.0
C565 C 0.39735 0.75844 0.84565 0.0
C566 C 0.40816 0.77178 0.8042 0.0
C567 C 0.43041 0.81001 0.79873 0.0
C568 C 0.39352 0.7734 0.92534 0.0
C569 C 0.39986 0.74418 0.76601 0.0
C570 C 0.40332 0.6487 0.89036 0.0
C571 C 0.36114 0.6433 0.9032 0.0
C572 C 0.41518 0.68393 0.86605 0.0
C573 C 0.38394 0.714 0.85427 0.0
C574 C 0.3406 0.70444 0.86074 0.0
C575 C 0.32962 0.66894 0.88525 0.0
C576 C 0.46174 0.69203 0.85853 0.0
C577 C 0.30614 0.73463 0.84716 0.0
H578 H 0.43662 0.84284 0.90121 0.0
H579 H 0.44186 0.81855 0.76745 0.0
H580 H 0.36041 0.76178 0.92685 0.0
H581 H 0.41452 0.74724 0.93596 0.0
H582 H 0.39684 0.80034 0.94787 0.0
H583 H 0.39769 0.76345 0.73666 0.0
H584 H 0.42647 0.72144 0.762 0.0
H585 H 0.37026 0.72561 0.76974 0.0
H586 H 0.42763 0.62858 0.90393 0.0
H587 H 0.29687 0.6647 0.89488 0.0
H588 H 0.47305 0.7163 0.8814 0.0
H589 H 0.46724 0.70445 0.82613 0.0
H590 H 0.48102 0.66282 0.86278 0.0
H591 H 0.30216 0.75964 0.87171 0.0
H592 H 0.27536 0.71797 0.84353 0.0
H593 H 0.31433 0.7504 0.81684 0.0
C594 C 0.68898 0.93166 0.39091 0.0
C595 C 0.67714 0.93306 0.34827 0.0
C596 C 0.71407 0.89849 0.40622 0.0
C597 C 0.72752 0.86593 0.37809 0.0
C598 C 0.71296 0.86547 0.33574 0.0
C599 C 0.68777 0.89917 0.32127 0.0
C600 C 0.72839 0.89986 0.45189 0.0
C601 C 0.72587 0.83076 0.30522 0.0
C602 C 0.83223 0.82504 0.41701 0.0
C603 C 0.81844 0.79319 0.44446 0.0
C604 C 0.80321 0.84636 0.39109 0.0
C605 C 0.75976 0.83506 0.39278 0.0
C606 C 0.74695 0.79916 0.41628 0.0
C607 C 0.77654 0.77873 0.44218 0.0
C608 C 0.81824 0.88425 0.3661 0.0
C609 C 0.70122 0.78542 0.41818 0.0
H610 H 0.68026 0.95768 0.41179 0.0
H611 H 0.67868 0.90034 0.28818 0.0
H612 H 0.72086 0.86952 0.46792 0.0
H613 H 0.76327 0.90408 0.45312 0.0
H614 H 0.71325 0.92614 0.47002 0.0
H615 H 0.71025 0.83412 0.27391 0.0
H616 H 0.76069 0.8313 0.30036 0.0
H617 H 0.71778 0.79927 0.31858 0.0
H618 H 0.8647 0.8361 0.41891 0.0
H619 H 0.76613 0.75371 0.4633 0.0
H620 H 0.80855 0.91376 0.38286 0.0
H621 H 0.80359 0.88478 0.33422 0.0
H622 H 0.85326 0.88447 0.36239 0.0
H623 H 0.68394 0.80556 0.44144 0.0
H624 H 0.69831 0.75185 0.42842 0.0
H625 H 0.68556 0.78917 0.38701 0.0
C626 C 0.61236 0.31202 0.94238 0.0
C627 C 0.63722 0.34871 0.93705 0.0
C628 C 0.59818 0.28822 0.9079 0.0
C629 C 0.61196 0.29869 0.86654 0.0
C630 C 0.63751 0.33498 0.8603 0.0
C631 C 0.64842 0.36038 0.89534 0.0
C632 C 0.56859 0.25136 0.91625 0.0
C633 C 0.65407 0.34749 0.81717 0.0
C634 C 0.59021 0.19812 0.80791 0.0
C635 C 0.54957 0.20727 0.79264 0.0
C636 C 0.61503 0.23033 0.826 0.0
C637 C 0.59765 0.27156 0.83082 0.0
C638 C 0.55966 0.28207 0.80978 0.0
C639 C 0.53669 0.2499 0.78978 0.0
C640 C 0.65779 0.21926 0.84407 0.0
C641 C 0.54053 0.32592 0.81293 0.0
H642 H 0.60433 0.30043 0.97352 0.0
H643 H 0.66646 0.38887 0.88941 0.0
H644 H 0.54156 0.2518 0.89384 0.0
H645 H 0.58583 0.22099 0.91169 0.0
H646 H 0.55561 0.25186 0.94904 0.0
H647 H 0.68832 0.35529 0.81924 0.0
H648 H 0.64989 0.32244 0.79279 0.0
H649 H 0.63753 0.3767 0.80664 0.0
H650 H 0.6013 0.16557 0.80892 0.0
H651 H 0.50651 0.25761 0.77537 0.0
H652 H 0.65439 0.21158 0.8782 0.0
H653 H 0.67992 0.24646 0.84117 0.0
H654 H 0.67175 0.1912 0.82777 0.0
H655 H 0.51164 0.32929 0.79321 0.0
H656 H 0.56395 0.34999 0.80272 0.0
H657 H 0.53192 0.33286 0.84641 0.0
C658 C 0.16975 0.88859 0.58905 0.0
C659 C 0.15902 0.84679 0.57872 0.0
C660 C 0.20507 0.89725 0.61431 0.0
C661 C 0.23007 0.86312 0.62952 0.0
C662 C 0.21579 0.82093 0.62418 0.0
C663 C 0.18029 0.81319 0.59862 0.0
C664 C 0.2184 0.94289 0.62026 0.0
C665 C 0.24047 0.78369 0.64114 0.0
C666 C 0.34279 0.89892 0.61908 0.0
C667 C 0.34944 0.91656 0.65922 0.0
C668 C 0.30563 0.87642 0.61027 0.0
C669 C 0.27443 0.87197 0.64242 0.0
C670 C 0.28373 0.88468 0.68441 0.0
C671 C 0.32137 0.90697 0.69238 0.0
C672 C 0.29759 0.86229 0.56522 0.0
C673 C 0.25196 0.87947 0.71983 0.0
H674 H 0.15292 0.91451 0.57402 0.0
H675 H 0.17198 0.78073 0.59081 0.0
H676 H 0.22776 0.94891 0.65358 0.0
H677 H 0.2463 0.9496 0.59984 0.0
H678 H 0.1927 0.96541 0.61173 0.0
H679 H 0.21949 0.75591 0.64643 0.0
H680 H 0.26506 0.77435 0.61764 0.0
H681 H 0.25662 0.7917 0.67128 0.0
H682 H 0.36465 0.90637 0.59357 0.0
H683 H 0.32649 0.92077 0.72347 0.0
H684 H 0.27465 0.88429 0.55016 0.0
H685 H 0.28361 0.83005 0.56457 0.0
H686 H 0.3271 0.86206 0.54591 0.0
H687 H 0.22953 0.90663 0.7195 0.0
H688 H 0.26782 0.87904 0.75121 0.0
H689 H 0.23332 0.84992 0.71601 0.0
C690 C 0.63809 0.82447 0.19741 0.0
C691 C 0.62203 0.85353 0.16795 0.0
C692 C 0.66226 0.7895 0.18382 0.0
C693 C 0.67095 0.78447 0.14008 0.0
C694 C 0.66121 0.81788 0.11171 0.0
C695 C 0.63635 0.852 0.12599 0.0
C696 C 0.67281 0.75505 0.21516 0.0
C697 C 0.67131 0.81454 0.06499 0.0
C698 C 0.72651 0.69249 0.08564 0.0
C699 C 0.69152 0.6713 0.06846 0.0
C700 C 0.72079 0.72769 0.11254 0.0
C701 C 0.67914 0.74148 0.12227 0.0
C702 C 0.64399 0.71695 0.10876 0.0
C703 C 0.65067 0.68229 0.08169 0.0
C704 C 0.75918 0.75234 0.12657 0.0
C705 C 0.59894 0.72974 0.11919 0.0
H706 H 0.62683 0.82571 0.22993 0.0
H707 H 0.62377 0.87448 0.1033 0.0
H708 H 0.64989 0.72863 0.21156 0.0
H709 H 0.70495 0.74201 0.2091 0.0
H710 H 0.67101 0.76673 0.24837 0.0
H711 H 0.66893 0.8458 0.04899 0.0
H712 H 0.70365 0.80158 0.05997 0.0
H713 H 0.64855 0.79253 0.04969 0.0
H714 H 0.75816 0.68405 0.07498 0.0
H715 H 0.62377 0.66583 0.06812 0.0
H716 H 0.75401 0.76786 0.15777 0.0
H717 H 0.76593 0.77751 0.103 0.0
H718 H 0.78755 0.73149 0.12853 0.0
H719 H 0.59556 0.73698 0.15347 0.0
H720 H 0.5759 0.70456 0.11067 0.0
H721 H 0.59055 0.75885 0.10136 0.0
C722 C 0.69161 0.10425 0.66863 0.0
C723 C 0.70033 0.076 0.70147 0.0
C724 C 0.72396 0.1294 0.65141 0.0
C725 C 0.76564 0.12611 0.66785 0.0
C726 C 0.77313 0.10142 0.7044 0.0
C727 C 0.74034 0.07624 0.72059 0.0
C728 C 0.71455 0.15556 0.61255 0.0
C729 C 0.81672 0.09779 0.72355 0.0
C730 C 0.845 0.12971 0.57843 0.0
C731 C 0.85635 0.17254 0.5787 0.0
C732 C 0.81794 0.11339 0.60954 0.0
C733 C 0.80184 0.14078 0.64154 0.0
C734 C 0.81665 0.18305 0.64435 0.0
C735 C 0.84402 0.19849 0.61276 0.0
C736 C 0.80351 0.06785 0.60573 0.0
C737 C 0.80094 0.21282 0.67854 0.0
H738 H 0.66063 0.10375 0.65386 0.0
H739 H 0.74684 0.05426 0.74615 0.0
H740 H 0.72951 0.18727 0.61493 0.0
H741 H 0.72801 0.13947 0.58416 0.0
H742 H 0.67995 0.15979 0.60767 0.0
H743 H 0.81509 0.08699 0.757 0.0
H744 H 0.83556 0.07421 0.70526 0.0
H745 H 0.83376 0.1285 0.7223 0.0
H746 H 0.85473 0.10982 0.55199 0.0
H747 H 0.85279 0.23175 0.61274 0.0
H748 H 0.76949 0.06705 0.59697 0.0
H749 H 0.80682 0.05131 0.63651 0.0
H750 H 0.82179 0.04997 0.58134 0.0
H751 H 0.76673 0.21939 0.6739 0.0
H752 H 0.81822 0.24349 0.67837 0.0
H753 H 0.80439 0.19795 0.71017 0.0
C754 C 0.40348 0.1675 0.19431 0.0
C755 C 0.43903 0.15456 0.17086 0.0
C756 C 0.37291 0.19427 0.17617 0.0
C757 C 0.3784 0.20792 0.13378 0.0
C758 C 0.41201 0.19114 0.1089 0.0
C759 C 0.44204 0.16469 0.12787 0.0
C760 C 0.3369 0.21068 0.20327 0.0
C761 C 0.41871 0.20435 0.06336 0.0
C762 C 0.30175 0.2677 0.06478 0.0
C763 C 0.32003 0.30821 0.06511 0.0
C764 C 0.31767 0.23526 0.0905 0.0
C765 C 0.35302 0.2436 0.11656 0.0
C766 C 0.3689 0.28558 0.11993 0.0
C767 C 0.35199 0.31758 0.09415 0.0
C768 C 0.29929 0.19128 0.08648 0.0
C769 C 0.40651 0.29583 0.14756 0.0
H770 H 0.40156 0.1598 0.22775 0.0
H771 H 0.46984 0.15475 0.11007 0.0
H772 H 0.34091 0.24521 0.20886 0.0
H773 H 0.30628 0.20632 0.18669 0.0
H774 H 0.33531 0.19451 0.23447 0.0
H775 H 0.44388 0.18536 0.04743 0.0
H776 H 0.38895 0.20092 0.04511 0.0
H777 H 0.42796 0.23829 0.06228 0.0
H778 H 0.27668 0.26072 0.04242 0.0
H779 H 0.36602 0.34896 0.09425 0.0
H780 H 0.29903 0.17473 0.11746 0.0
H781 H 0.31912 0.1723 0.0643 0.0
H782 H 0.26649 0.19217 0.07385 0.0
H783 H 0.40249 0.28187 0.17954 0.0
H784 H 0.41135 0.33057 0.15096 0.0
H785 H 0.43556 0.28177 0.13332 0.0
C786 C 0.96531 0.63815 0.71675 0.0
C787 C 0.95528 0.65294 0.67601 0.0
C788 C 0.9342 0.62217 0.74385 0.0
C789 C 0.89109 0.62471 0.7319 0.0
C790 C 0.88004 0.64444 0.69323 0.0
C791 C 0.91224 0.65674 0.66502 0.0
C792 C 0.94813 0.60087 0.78444 0.0
C793 C 0.83457 0.65191 0.68052 0.0
C794 C 0.83152 0.53065 0.77232 0.0
C795 C 0.82555 0.54221 0.81493 0.0
C796 C 0.84957 0.55876 0.7434 0.0
C797 C 0.8595 0.60042 0.75678 0.0
C798 C 0.84679 0.61442 0.79765 0.0
C799 C 0.83094 0.58477 0.82681 0.0
C800 C 0.86158 0.54239 0.69988 0.0
C801 C 0.85219 0.65984 0.81173 0.0
H802 H 0.99775 0.63807 0.72768 0.0
H803 H 0.90316 0.66864 0.63422 0.0
H804 H 0.93922 0.62097 0.81194 0.0
H805 H 0.93241 0.56964 0.78825 0.0
H806 H 0.98295 0.59571 0.78545 0.0
H807 H 0.83052 0.6854 0.67039 0.0
H808 H 0.82683 0.63181 0.65267 0.0
H809 H 0.81166 0.64534 0.70642 0.0
H810 H 0.82446 0.4986 0.76205 0.0
H811 H 0.8249 0.59461 0.85924 0.0
H812 H 0.89643 0.54437 0.69538 0.0
H813 H 0.84646 0.56206 0.67516 0.0
H814 H 0.85163 0.509 0.69479 0.0
H815 H 0.88025 0.66239 0.83263 0.0
H816 H 0.82424 0.67017 0.83068 0.0
H817 H 0.85618 0.68176 0.78454 0.0
C818 C 0.94248 0.32211 0.26971 0.0
C819 C 0.93435 0.31744 0.31317 0.0
C820 C 0.91085 0.33584 0.24217 0.0
C821 C 0.86932 0.34241 0.25806 0.0
C822 C 0.85918 0.3293 0.29975 0.0
C823 C 0.89213 0.31819 0.32748 0.0
C824 C 0.92327 0.34764 0.19739 0.0
C825 C 0.81419 0.32997 0.31596 0.0
C826 C 0.83193 0.44797 0.21965 0.0
C827 C 0.81965 0.43769 0.17819 0.0
C828 C 0.84502 0.41665 0.24786 0.0
C829 C 0.84199 0.37342 0.23576 0.0
C830 C 0.82198 0.36262 0.19711 0.0
C831 C 0.8123 0.39488 0.168 0.0
C832 C 0.86612 0.4305 0.28863 0.0
C833 C 0.81318 0.31719 0.18492 0.0
H834 H 0.97444 0.31804 0.25765 0.0
H835 H 0.88493 0.31254 0.36059 0.0
H836 H 0.9047 0.32862 0.17449 0.0
H837 H 0.91632 0.38165 0.19151 0.0
H838 H 0.95745 0.34203 0.19084 0.0
H839 H 0.80909 0.30426 0.33941 0.0
H840 H 0.80768 0.36045 0.33234 0.0
H841 H 0.79115 0.32624 0.28969 0.0
H842 H 0.83402 0.48088 0.2294 0.0
H843 H 0.80099 0.38615 0.1368 0.0
H844 H 0.89844 0.41674 0.29085 0.0
H845 H 0.84758 0.41921 0.31621 0.0
H846 H 0.8689 0.46555 0.29124 0.0
H847 H 0.83462 0.30746 0.15867 0.0
H848 H 0.7803 0.31443 0.17279 0.0
H849 H 0.81708 0.29499 0.21188 0.0
C850 C 0.0987 0.29958 0.69939 0.0
C851 C 0.09049 0.33114 0.66933 0.0
C852 C 0.12007 0.30936 0.73702 0.0
C853 C 0.13367 0.3515 0.74397 0.0
C854 C 0.13068 0.38173 0.71087 0.0
C855 C 0.10841 0.37129 0.67399 0.0
C856 C 0.1229 0.27609 0.77116 0.0
C857 C 0.14622 0.4267 0.71647 0.0
C858 C 0.11744 0.41368 0.84403 0.0
C859 C 0.15943 0.42139 0.85556 0.0
C860 C 0.10818 0.38616 0.81045 0.0
C861 C 0.14196 0.36692 0.78757 0.0
C862 C 0.1839 0.37021 0.80278 0.0
C863 C 0.19216 0.39742 0.83698 0.0
C864 C 0.06267 0.3818 0.79642 0.0
C865 C 0.22069 0.34941 0.78011 0.0
H866 H 0.08424 0.26859 0.69571 0.0
H867 H 0.10161 0.3956 0.65072 0.0
H868 H 0.15149 0.28032 0.79103 0.0
H869 H 0.09469 0.27874 0.79213 0.0
H870 H 0.1233 0.24364 0.7573 0.0
H871 H 0.14804 0.44383 0.68579 0.0
H872 H 0.12414 0.44429 0.73768 0.0
H873 H 0.17798 0.42701 0.73142 0.0
H874 H 0.09224 0.43205 0.85876 0.0
H875 H 0.22475 0.40339 0.84599 0.0
H876 H 0.05535 0.34834 0.78834 0.0
H877 H 0.05749 0.40114 0.76755 0.0
H878 H 0.04007 0.39275 0.82126 0.0
H879 H 0.21162 0.31843 0.76611 0.0
H880 H 0.24788 0.34449 0.80183 0.0
H881 H 0.23135 0.37031 0.75393 0.0
C882 C 0.1008 0.63384 0.33287 0.0
C883 C 0.0908 0.67643 0.34057 0.0
C884 C 0.1323 0.62257 0.30348 0.0
C885 C 0.15413 0.65482 0.28103 0.0
C886 C 0.14702 0.69794 0.29185 0.0
C887 C 0.11519 0.70829 0.32155 0.0
C888 C 0.13942 0.57608 0.29382 0.0
C889 C 0.17012 0.73333 0.26959 0.0
C890 C 0.24104 0.60404 0.21612 0.0
C891 C 0.21821 0.59222 0.17992 0.0
C892 C 0.2223 0.62936 0.24779 0.0
C893 C 0.17974 0.64265 0.24305 0.0
C894 C 0.15881 0.63552 0.20394 0.0
C895 C 0.17836 0.6102 0.17276 0.0
C896 C 0.24623 0.63718 0.28834 0.0
C897 C 0.11374 0.65 0.19711 0.0
H898 H 0.08167 0.60933 0.3475 0.0
H899 H 0.10708 0.74128 0.32722 0.0
H900 H 0.12731 0.56865 0.26166 0.0
H901 H 0.17375 0.56846 0.29406 0.0
H902 H 0.12309 0.55513 0.31692 0.0
H903 H 0.17075 0.76257 0.28936 0.0
H904 H 0.20314 0.72415 0.2615 0.0
H905 H 0.15347 0.74084 0.23961 0.0
H906 H 0.27182 0.58978 0.22172 0.0
H907 H 0.16061 0.60065 0.14495 0.0
H908 H 0.23664 0.61322 0.3122 0.0
H909 H 0.23889 0.66902 0.30159 0.0
H910 H 0.28101 0.63447 0.28335 0.0
H911 H 0.09195 0.6296 0.21573 0.0
H912 H 0.10451 0.64808 0.16321 0.0
H913 H 0.10942 0.68313 0.20831 0.0
C914 C 0.69969 0.89789 0.7245 0.0
C915 C 0.67848 0.92198 0.69392 0.0
C916 C 0.72846 0.8659 0.7123 0.0
C917 C 0.73609 0.85844 0.66862 0.0
C918 C 0.71166 0.88025 0.63791 0.0
C919 C 0.68323 0.91188 0.65102 0.0
C920 C 0.75308 0.84275 0.74599 0.0
C921 C 0.71821 0.87297 0.59094 0.0
C922 C 0.841 0.83371 0.61719 0.0
C923 C 0.83229 0.79404 0.59941 0.0
C924 C 0.81167 0.85336 0.64449 0.0
C925 C 0.77295 0.83258 0.65402 0.0
C926 C 0.76692 0.79012 0.6407 0.0
C927 C 0.79662 0.77141 0.61312 0.0
C928 C 0.81973 0.89846 0.65848 0.0
C929 C 0.72682 0.76631 0.65109 0.0
H930 H 0.6962 0.90621 0.75772 0.0
H931 H 0.667 0.93099 0.62757 0.0
H932 H 0.75617 0.80856 0.73805 0.0
H933 H 0.78551 0.85609 0.74789 0.0
H934 H 0.73787 0.84594 0.77767 0.0
H935 H 0.69422 0.88982 0.57152 0.0
H936 H 0.75011 0.88439 0.58148 0.0
H937 H 0.71668 0.83862 0.58338 0.0
H938 H 0.86844 0.85124 0.60618 0.0
H939 H 0.7899 0.74071 0.59907 0.0
H940 H 0.81052 0.90303 0.69214 0.0
H941 H 0.80017 0.92036 0.63916 0.0
H942 H 0.85354 0.90744 0.65455 0.0
H943 H 0.71524 0.77414 0.68344 0.0
H944 H 0.73168 0.73147 0.64863 0.0
H945 H 0.70174 0.77548 0.6283 0.0
C946 C 0.66966 0.3556 0.13179 0.0
C947 C 0.65503 0.34339 0.09143 0.0
C948 C 0.664 0.32919 0.16729 0.0
C949 C 0.6411 0.29085 0.16279 0.0
C950 C 0.62639 0.27843 0.12221 0.0
C951 C 0.6349 0.30393 0.08725 0.0
C952 C 0.68243 0.34304 0.20915 0.0
C953 C 0.6008 0.2384 0.11522 0.0
C954 C 0.62018 0.19015 0.21705 0.0
C955 C 0.57746 0.19768 0.22669 0.0
C956 C 0.64629 0.22395 0.20452 0.0
C957 C 0.62816 0.2648 0.19976 0.0
C958 C 0.58824 0.2735 0.21835 0.0
C959 C 0.56332 0.23956 0.23205 0.0
C960 C 0.69088 0.21486 0.18988 0.0
C961 C 0.56874 0.31719 0.21668 0.0
H962 H 0.6856 0.38569 0.13603 0.0
H963 H 0.62571 0.29225 0.05635 0.0
H964 H 0.68412 0.31688 0.23254 0.0
H965 H 0.71481 0.35597 0.20431 0.0
H966 H 0.66282 0.36912 0.22255 0.0
H967 H 0.62072 0.21009 0.12138 0.0
H968 H 0.57328 0.23749 0.13716 0.0
H969 H 0.58854 0.23579 0.08235 0.0
H970 H 0.63185 0.15784 0.21476 0.0
H971 H 0.53082 0.24538 0.2418 0.0
H972 H 0.71156 0.24285 0.19512 0.0
H973 H 0.69083 0.20754 0.15546 0.0
H974 H 0.70429 0.18706 0.20679 0.0
H975 H 0.53993 0.31965 0.23691 0.0
H976 H 0.55976 0.32463 0.18353 0.0
H977 H 0.5919 0.34134 0.22726 0.0
C978 C 0.3386 0.09307 0.66698 0.0
C979 C 0.35938 0.06796 0.63651 0.0
C980 C 0.30481 0.11948 0.65549 0.0
C981 C 0.29214 0.12077 0.61259 0.0
C982 C 0.31649 0.09944 0.5812 0.0
C983 C 0.34976 0.07295 0.59364 0.0
C984 C 0.28007 0.14201 0.68989 0.0
C985 C 0.3048 0.10116 0.53488 0.0
C986 C 0.17982 0.12246 0.57387 0.0
C987 C 0.17788 0.16285 0.55603 0.0
C988 C 0.21547 0.10991 0.59698 0.0
C989 C 0.25022 0.13813 0.60076 0.0
C990 C 0.24659 0.18028 0.58606 0.0
C991 C 0.21008 0.19228 0.56399 0.0
C992 C 0.21767 0.06503 0.61346 0.0
C993 C 0.2829 0.21118 0.5892 0.0
H994 H 0.34593 0.08897 0.70029 0.0
H995 H 0.36609 0.05358 0.57023 0.0
H996 H 0.26756 0.17294 0.67883 0.0
H997 H 0.25264 0.12208 0.6992 0.0
H998 H 0.29982 0.14743 0.71849 0.0
H999 H 0.33026 0.08794 0.51426 0.0
H1000 H 0.27553 0.08248 0.52948 0.0
H1001 H 0.29826 0.13432 0.52517 0.0
H1002 H 0.15487 0.09981 0.56719 0.0
H1003 H 0.20851 0.22339 0.54946 0.0
H1004 H 0.23146 0.06441 0.64575 0.0
H1005 H 0.23849 0.04573 0.59246 0.0
H1006 H 0.18592 0.04989 0.61448 0.0
H1007 H 0.27196 0.24448 0.58546 0.0
H1008 H 0.30618 0.20418 0.56364 0.0
H1009 H 0.29957 0.20816 0.61992 0.0
C1010 C 0.36232 0.66087 0.09801 0.0
C1011 C 0.36574 0.67051 0.05464 0.0
C1012 C 0.37435 0.69047 0.12911 0.0
C1013 C 0.39291 0.72935 0.11648 0.0
C1014 C 0.39498 0.73979 0.07292 0.0
C1015 C 0.37948 0.71122 0.04301 0.0
C1016 C 0.36785 0.67905 0.17508 0.0
C1017 C 0.41536 0.78029 0.05722 0.0
C1018 C 0.42955 0.82907 0.16978 0.0
C1019 C 0.47275 0.81957 0.17404 0.0
C1020 C 0.40082 0.79746 0.15728 0.0
C1021 C 0.41628 0.75648 0.14683 0.0
C1022 C 0.45871 0.74567 0.15618 0.0
C1023 C 0.48606 0.77714 0.17077 0.0
C1024 C 0.35469 0.8089 0.15249 0.0
C1025 C 0.47657 0.70211 0.14675 0.0
H1026 H 0.35092 0.6301 0.10802 0.0
H1027 H 0.37914 0.72093 0.01014 0.0
H1028 H 0.38891 0.65212 0.18343 0.0
H1029 H 0.37392 0.70592 0.19701 0.0
H1030 H 0.33479 0.66799 0.18 0.0
H1031 H 0.42096 0.77974 0.02245 0.0
H1032 H 0.39444 0.80765 0.06453 0.0
H1033 H 0.44626 0.7858 0.07297 0.0
H1034 H 0.41847 0.86138 0.17406 0.0
H1035 H 0.51876 0.76887 0.17722 0.0
H1036 H 0.33406 0.78041 0.15344 0.0
H1037 H 0.34984 0.82537 0.12188 0.0
H1038 H 0.34469 0.83113 0.17806 0.0
H1039 H 0.51014 0.69891 0.15667 0.0
H1040 H 0.47459 0.69544 0.11223 0.0
H1041 H 0.45787 0.67761 0.16351 0.0
C1042 C 0.77922 0.20815 0.44097 0.0
C1043 C 0.82216 0.21559 0.43223 0.0
C1044 C 0.75206 0.19362 0.40934 0.0
C1045 C 0.76751 0.18998 0.36728 0.0
C1046 C 0.80746 0.20737 0.35682 0.0
C1047 C 0.83528 0.21855 0.3897 0.0
C1048 C 0.70912 0.17668 0.42236 0.0
C1049 C 0.82174 0.21065 0.31127 0.0
C1050 C 0.74235 0.08089 0.3282 0.0
C1051 C 0.69967 0.08578 0.31696 0.0
C1052 C 0.76639 0.11541 0.3417 0.0
C1053 C 0.74867 0.15675 0.33992 0.0
C1054 C 0.70852 0.1628 0.32107 0.0
C1055 C 0.68376 0.12711 0.31104 0.0
C1056 C 0.80897 0.10658 0.3619 0.0
C1057 C 0.69135 0.20674 0.31276 0.0
H1058 H 0.76772 0.20969 0.47336 0.0
H1059 H 0.86775 0.22659 0.38204 0.0
H1060 H 0.68375 0.19187 0.40354 0.0
H1061 H 0.70773 0.14198 0.41634 0.0
H1062 H 0.70214 0.1823 0.45647 0.0
H1063 H 0.85158 0.22902 0.30812 0.0
H1064 H 0.82681 0.17865 0.29748 0.0
H1065 H 0.79661 0.22627 0.2923 0.0
H1066 H 0.7565 0.04959 0.3291 0.0
H1067 H 0.65152 0.13187 0.3005 0.0
H1068 H 0.8095 0.11905 0.39484 0.0
H1069 H 0.83455 0.12251 0.3439 0.0
H1070 H 0.81654 0.07216 0.36304 0.0
H1071 H 0.69625 0.22824 0.34017 0.0
H1072 H 0.6571 0.20629 0.30479 0.0
H1073 H 0.70899 0.22064 0.28568 0.0
C1074 C 0.35247 0.32777 0.89491 0.0
C1075 C 0.31151 0.33083 0.91164 0.0
C1076 C 0.36276 0.29624 0.86513 0.0
C1077 C 0.3312 0.26697 0.85211 0.0
C1078 C 0.28862 0.27346 0.86496 0.0
C1079 C 0.27929 0.30528 0.89496 0.0
C1080 C 0.40849 0.29135 0.85151 0.0
C1081 C 0.25362 0.2443 0.85073 0.0
C1082 C 0.38046 0.19236 0.77246 0.0
C1083 C 0.40048 0.16394 0.80007 0.0
C1084 C 0.35254 0.22355 0.78813 0.0
C1085 C 0.34498 0.22615 0.83231 0.0
C1086 C 0.35985 0.19321 0.85901 0.0
C1087 C 0.38759 0.16243 0.84247 0.0
C1088 C 0.33597 0.25681 0.75819 0.0
C1089 C 0.35141 0.19382 0.90614 0.0
H1090 H 0.37735 0.34733 0.90824 0.0
H1091 H 0.24762 0.30749 0.90827 0.0
H1092 H 0.4225 0.26323 0.86731 0.0
H1093 H 0.41075 0.28613 0.81679 0.0
H1094 H 0.42777 0.31958 0.85991 0.0
H1095 H 0.22256 0.261 0.85094 0.0
H1096 H 0.25966 0.23148 0.81847 0.0
H1097 H 0.25143 0.21717 0.87295 0.0
H1098 H 0.39063 0.19363 0.7396 0.0
H1099 H 0.40334 0.14061 0.86381 0.0
H1100 H 0.35844 0.28382 0.75731 0.0
H1101 H 0.30466 0.26914 0.76864 0.0
H1102 H 0.33311 0.24395 0.72548 0.0
H1103 H 0.37087 0.21897 0.92119 0.0
H1104 H 0.35945 0.16302 0.92117 0.0
H1105 H 0.31764 0.2012 0.91275 0.0
C1106 C 0.17081 0.89042 0.41376 0.0
C1107 C 0.16263 0.84846 0.42528 0.0
C1108 C 0.20683 0.9005 0.38982 0.0
C1109 C 0.23554 0.86777 0.37814 0.0
C1110 C 0.22477 0.8249 0.38555 0.0
C1111 C 0.18809 0.8157 0.40898 0.0
C1112 C 0.21637 0.9466 0.38112 0.0
C1113 C 0.25409 0.78901 0.37328 0.0
C1114 C 0.32625 0.91022 0.31295 0.0
C1115 C 0.35241 0.92564 0.34528 0.0
C1116 C 0.28944 0.88735 0.32269 0.0
C1117 C 0.2793 0.87954 0.36565 0.0
C1118 C 0.3086 0.89046 0.39786 0.0
C1119 C 0.34466 0.91403 0.38728 0.0
C1120 C 0.25927 0.87613 0.28743 0.0
C1121 C 0.29964 0.88139 0.44402 0.0
H1122 H 0.15097 0.91561 0.42645 0.0
H1123 H 0.18183 0.78318 0.41822 0.0
H1124 H 0.24194 0.95758 0.40255 0.0
H1125 H 0.22763 0.95083 0.34805 0.0
H1126 H 0.18815 0.96711 0.38635 0.0
H1127 H 0.23648 0.75872 0.36969 0.0
H1128 H 0.27122 0.79575 0.3433 0.0
H1129 H 0.27803 0.78473 0.39859 0.0
H1130 H 0.33217 0.9198 0.28047 0.0
H1131 H 0.36491 0.92633 0.41213 0.0
H1132 H 0.23458 0.90115 0.28521 0.0
H1133 H 0.24304 0.84558 0.29361 0.0
H1134 H 0.2759 0.87412 0.25638 0.0
H1135 H 0.27454 0.90323 0.45577 0.0
H1136 H 0.32822 0.8858 0.46398 0.0
H1137 H 0.28797 0.84846 0.44806 0.0
C1138 C 0.71901 0.70339 0.90405 0.0
C1139 C 0.68828 0.67314 0.91447 0.0
C1140 C 0.70774 0.74047 0.88241 0.0
C1141 C 0.66489 0.74677 0.87108 0.0
C1142 C 0.63526 0.71335 0.87623 0.0
C1143 C 0.6473 0.67694 0.89844 0.0
C1144 C 0.74045 0.77486 0.87693 0.0
C1145 C 0.58946 0.71826 0.86333 0.0
C1146 C 0.60288 0.84655 0.88964 0.0
C1147 C 0.59273 0.8575 0.84804 0.0
C1148 C 0.63118 0.81332 0.89768 0.0
C1149 C 0.64854 0.79009 0.86311 0.0
C1150 C 0.64246 0.80456 0.82121 0.0
C1151 C 0.61472 0.83856 0.81416 0.0
C1152 C 0.63833 0.79993 0.94305 0.0
C1153 C 0.66076 0.7811 0.78357 0.0
H1154 H 0.75068 0.70033 0.91697 0.0
H1155 H 0.62367 0.65349 0.90695 0.0
H1156 H 0.73432 0.79421 0.8483 0.0
H1157 H 0.73933 0.7963 0.90489 0.0
H1158 H 0.77288 0.76122 0.87475 0.0
H1159 H 0.57263 0.68733 0.86289 0.0
H1160 H 0.57296 0.73951 0.8862 0.0
H1161 H 0.58708 0.73286 0.83149 0.0
H1162 H 0.58586 0.86144 0.91568 0.0
H1163 H 0.60668 0.84708 0.78188 0.0
H1164 H 0.67224 0.79248 0.94848 0.0
H1165 H 0.6198 0.7708 0.94973 0.0
H1166 H 0.6283 0.82491 0.96593 0.0
H1167 H 0.69303 0.76896 0.79035 0.0
H1168 H 0.6621 0.80164 0.75503 0.0
H1169 H 0.64037 0.75343 0.77618 0.0
loop_
_geom_bond_atom_site_label_1
_geom_bond_atom_site_label_2
_geom_bond_distance
_geom_bond_site_symmetry_2
_ccdc_geom_bond_type
C0 O1 1.201 . S
C0 C2 1.493 . S
C0 N17 1.318 . S
O1 C0 1.201 . S
C2 C0 1.493 . S
C2 C3 1.381 . S
C2 N7 1.335 1_655 S
C3 C2 1.381 . S
C3 C4 1.411 1_655 S
C3 H49 0.931 . S
C4 C3 1.411 1_455 S
C4 C5 1.384 . S
C4 H50 0.930 . S
C5 C4 1.384 . S
C5 C6 1.376 . S
C5 H51 0.929 . S
C6 C5 1.376 . S
C6 N7 1.330 . S
C6 C21 1.484 . S
N7 C2 1.335 1_455 S
N7 C6 1.330 . S
N7 Co9 1.859 . S
N8 Co9 1.962 . S
N8 C19 1.318 . S
N8 C43 1.421 . S
Co9 N7 1.859 . S
Co9 N8 1.962 . S
Co9 N10 1.859 . S
Co9 N16 1.958 . S
Co9 N17 1.962 1_455 S
Co9 N18 1.958 . S
N10 Co9 1.859 . S
N10 C14 1.330 . S
N10 C15 1.335 . S
C11 C12 1.411 . S
C11 C15 1.381 . S
C11 H52 0.931 . S
C12 C11 1.411 . S
C12 C13 1.384 . S
C12 H53 0.930 . S
C13 C12 1.384 . S
C13 C14 1.376 . S
C13 H54 0.929 . S
C14 N10 1.330 . S
C14 C13 1.376 . S
C14 C29 1.484 . S
C15 N10 1.335 . S
C15 C11 1.381 . S
C15 C19 1.493 . S
N16 Co9 1.958 . S
N16 C29 1.344 . S
N16 C31 1.425 . S
N17 C0 1.318 . S
N17 Co9 1.962 1_655 S
N17 C37 1.421 . S
N18 Co9 1.958 . S
N18 C21 1.344 . S
N18 C23 1.425 . S
C19 N8 1.318 . S
C19 C15 1.493 . S
C19 O20 1.201 . S
O20 C19 1.201 . S
C21 C6 1.484 . S
C21 N18 1.344 . S
C21 O22 1.268 . S
O22 C21 1.268 . S
C23 N18 1.425 . S
C23 C25 1.392 . S
C23 C26 1.368 . S
C24 C25 1.382 . S
C24 C28 1.386 . S
C25 C23 1.392 . S
C25 C24 1.382 . S
C25 H55 0.928 . S
C26 C23 1.368 . S
C26 C27 1.367 . S
C26 H56 0.930 . S
C27 C26 1.367 . S
C27 C28 1.369 . S
C28 C24 1.386 . S
C28 C27 1.369 . S
C28 H57 0.930 . S
C29 C14 1.484 . S
C29 N16 1.344 . S
C29 O30 1.268 . S
O30 C29 1.268 . S
C31 N16 1.425 . S
C31 C32 1.368 . S
C31 C36 1.392 1_455 S
C32 C31 1.368 . S
C32 C33 1.367 . S
C32 H58 0.930 . S
C33 C32 1.367 . S
C33 C34 1.369 . S
C34 C33 1.369 . S
C34 C35 1.386 1_455 S
C34 H59 0.930 . S
C35 C34 1.386 1_655 S
C35 C36 1.382 . S
C36 C31 1.392 1_655 S
C36 C35 1.382 . S
C36 H60 0.928 . S
C37 N17 1.421 . S
C37 C38 1.371 . S
C37 C42 1.385 . S
C38 C37 1.371 . S
C38 C39 1.367 . S
C38 H61 0.931 . S
C39 C38 1.367 . S
C39 C40 1.401 . S
C40 C39 1.401 . S
C40 C41 1.385 . S
C40 H62 0.930 . S
C41 C40 1.385 . S
C41 C42 1.402 . S
C42 C37 1.385 . S
C42 C41 1.402 . S
C42 H63 0.929 . S
C43 N8 1.421 . S
C43 C46 1.385 1_455 S
C43 C47 1.371 . S
C44 C45 1.385 1_455 S
C44 C48 1.401 . S
C44 H64 0.930 . S
C45 C44 1.385 1_655 S
C45 C46 1.402 . S
C46 C43 1.385 1_655 S
C46 C45 1.402 . S
C46 H65 0.929 . S
C47 C43 1.371 . S
C47 C48 1.367 . S
C47 H66 0.931 . S
C48 C44 1.401 . S
C48 C47 1.367 . S
H49 C3 0.931 . S
H50 C4 0.930 . S
H51 C5 0.929 . S
H52 C11 0.931 . S
H53 C12 0.930 . S
H54 C13 0.929 . S
H55 C25 0.928 . S
H56 C26 0.930 . S
H57 C28 0.930 . S
H58 C32 0.930 . S
H59 C34 0.930 . S
H60 C36 0.928 . S
H61 C38 0.931 . S
H62 C40 0.930 . S
H63 C42 0.929 . S
H64 C44 0.930 . S
H65 C46 0.929 . S
H66 C47 0.931 . S
C67 O68 1.201 . S
C67 C69 1.493 . S
C67 N84 1.318 . S
O68 C67 1.201 . S
C69 C67 1.493 . S
C69 C70 1.381 . S
C69 N74 1.335 1_556 S
C70 C69 1.381 . S
C70 C71 1.411 1_556 S
C70 H116 0.931 . S
C71 C70 1.411 1_554 S
C71 C72 1.384 . S
C71 H117 0.930 . S
C72 C71 1.384 . S
C72 C73 1.376 . S
C72 H118 0.929 . S
C73 C72 1.376 . S
C73 N74 1.330 . S
C73 C88 1.484 . S
N74 C69 1.335 1_554 S
N74 C73 1.330 . S
N74 Co76 1.859 . S
N75 Co76 1.962 . S
N75 C86 1.318 . S
N75 C110 1.421 . S
Co76 N74 1.859 . S
Co76 N75 1.962 . S
Co76 N77 1.859 . S
Co76 N83 1.958 . S
Co76 N84 1.962 1_554 S
Co76 N85 1.958 . S
N77 Co76 1.859 . S
N77 C81 1.330 . S
N77 C82 1.335 . S
C78 C79 1.411 . S
C78 C82 1.381 . S
C78 H119 0.931 . S
C79 C78 1.411 . S
C79 C80 1.384 . S
C79 H120 0.930 . S
C80 C79 1.384 . S
C80 C81 1.376 . S
C80 H121 0.929 . S
C81 N77 1.330 . S
C81 C80 1.376 . S
C81 C96 1.484 . S
C82 N77 1.335 . S
C82 C78 1.381 . S
C82 C86 1.493 . S
N83 Co76 1.958 . S
N83 C96 1.344 . S
N83 C98 1.425 . S
N84 C67 1.318 . S
N84 Co76 1.962 1_556 S
N84 C104 1.421 . S
N85 Co76 1.958 . S
N85 C88 1.344 . S
N85 C90 1.425 . S
C86 N75 1.318 . S
C86 C82 1.493 . S
C86 O87 1.201 . S
O87 C86 1.201 . S
C88 C73 1.484 . S
C88 N85 1.344 . S
C88 O89 1.268 . S
O89 C88 1.268 . S
C90 N85 1.425 . S
C90 C92 1.392 . S
C90 C93 1.368 . S
C91 C92 1.382 . S
C91 C95 1.386 . S
C92 C90 1.392 . S
C92 C91 1.382 . S
C92 H122 0.928 . S
C93 C90 1.368 . S
C93 C94 1.367 . S
C93 H123 0.930 . S
C94 C93 1.367 . S
C94 C95 1.369 . S
C95 C91 1.386 . S
C95 C94 1.369 . S
C95 H124 0.930 . S
C96 C81 1.484 . S
C96 N83 1.344 . S
C96 O97 1.268 . S
O97 C96 1.268 . S
C98 N83 1.425 . S
C98 C99 1.368 . S
C98 C103 1.392 1_554 S
C99 C98 1.368 . S
C99 C100 1.367 . S
C99 H125 0.930 . S
C100 C99 1.367 . S
C100 C101 1.369 1_554 S
C101 C100 1.369 1_556 S
C101 C102 1.386 . S
C101 H126 0.930 . S
C102 C101 1.386 . S
C102 C103 1.382 . S
C103 C98 1.392 1_556 S
C103 C102 1.382 . S
C103 H127 0.928 . S
C104 N84 1.421 . S
C104 C105 1.371 . S
C104 C109 1.385 . S
C105 C104 1.371 . S
C105 C106 1.367 . S
C105 H128 0.931 . S
C106 C105 1.367 . S
C106 C107 1.401 . S
C107 C106 1.401 . S
C107 C108 1.385 . S
C107 H129 0.930 . S
C108 C107 1.385 . S
C108 C109 1.402 . S
C109 C104 1.385 . S
C109 C108 1.402 . S
C109 H130 0.929 . S
C110 N75 1.421 . S
C110 C113 1.385 1_554 S
C110 C114 1.371 . S
C111 C112 1.385 1_554 S
C111 C115 1.401 . S
C111 H131 0.930 . S
C112 C111 1.385 1_556 S
C112 C113 1.402 . S
C113 C110 1.385 1_556 S
C113 C112 1.402 . S
C113 H132 0.929 . S
C114 C110 1.371 . S
C114 C115 1.367 . S
C114 H133 0.931 . S
C115 C111 1.401 . S
C115 C114 1.367 . S
H116 C70 0.931 . S
H117 C71 0.930 . S
H118 C72 0.929 . S
H119 C78 0.931 . S
H120 C79 0.930 . S
H121 C80 0.929 . S
H122 C92 0.928 . S
H123 C93 0.930 . S
H124 C95 0.930 . S
H125 C99 0.930 . S
H126 C101 0.930 . S
H127 C103 0.928 . S
H128 C105 0.931 . S
H129 C107 0.930 . S
H130 C109 0.929 . S
H131 C111 0.930 . S
H132 C113 0.929 . S
H133 C114 0.931 . S
C134 O135 1.201 . S
C134 C136 1.493 . S
C134 N151 1.318 . S
O135 C134 1.201 . S
C136 C134 1.493 . S
C136 C137 1.381 . S
C136 N141 1.335 . S
C137 C136 1.381 . S
C137 C138 1.411 1_455 S
C137 H183 0.931 . S
C138 C137 1.411 1_655 S
C138 C139 1.384 . S
C138 H184 0.930 . S
C139 C138 1.384 . S
C139 C140 1.376 . S
C139 H185 0.929 . S
C140 C139 1.376 . S
C140 N141 1.330 1_655 S
C140 C155 1.484 . S
N141 C136 1.335 . S
N141 C140 1.330 1_455 S
N141 Co143 1.859 . S
N142 Co143 1.962 . S
N142 C153 1.318 1_455 S
N142 C177 1.421 . S
Co143 N141 1.859 . S
Co143 N142 1.962 . S
Co143 N144 1.859 . S
Co143 N150 1.958 . S
Co143 N151 1.962 . S
Co143 N152 1.958 1_455 S
N144 Co143 1.859 . S
N144 C148 1.330 1_455 S
N144 C149 1.335 1_455 S
C145 C146 1.411 . S
C145 C149 1.381 . S
C145 H186 0.931 . S
C146 C145 1.411 . S
C146 C147 1.384 . S
C146 H187 0.930 . S
C147 C146 1.384 . S
C147 C148 1.376 . S
C147 H188 0.929 . S
C148 N144 1.330 1_655 S
C148 C147 1.376 . S
C148 C163 1.483 1_655 S
C149 N144 1.335 1_655 S
C149 C145 1.381 . S
C149 C153 1.493 . S
N150 Co143 1.958 . S
N150 C163 1.346 . S
N150 C165 1.425 . S
N151 C134 1.318 . S
N151 Co143 1.962 . S
N151 C171 1.421 . S
N152 Co143 1.958 1_655 S
N152 C155 1.344 . S
N152 C157 1.425 . S
C153 N142 1.318 1_655 S
C153 C149 1.493 . S
C153 O154 1.201 . S
O154 C153 1.201 . S
C155 C140 1.484 . S
C155 N152 1.344 . S
C155 O156 1.268 . S
O156 C155 1.268 . S
C157 N152 1.425 . S
C157 C159 1.392 . S
C157 C160 1.368 . S
C158 C159 1.382 . S
C158 C162 1.386 . S
C159 C157 1.392 . S
C159 C158 1.382 . S
C159 H189 0.928 . S
C160 C157 1.368 . S
C160 C161 1.367 . S
C160 H190 0.930 . S
C161 C160 1.367 . S
C161 C162 1.369 . S
C162 C158 1.386 . S
C162 C161 1.369 . S
C162 H191 0.930 . S
C163 C148 1.483 1_455 S
C163 N150 1.346 . S
C163 O164 1.268 1_455 S
O164 C163 1.268 1_655 S
C165 N150 1.425 . S
C165 C166 1.368 1_455 S
C165 C170 1.392 . S
C166 C165 1.368 1_655 S
C166 C167 1.367 . S
C166 H192 0.930 . S
C167 C166 1.367 . S
C167 C168 1.369 1_655 S
C168 C167 1.369 1_455 S
C168 C169 1.386 . S
C168 H193 0.930 . S
C169 C168 1.386 . S
C169 C170 1.382 . S
C170 C165 1.392 . S
C170 C169 1.382 . S
C170 H194 0.928 . S
C171 N151 1.421 . S
C171 C172 1.371 . S
C171 C176 1.385 . S
C172 C171 1.371 . S
C172 C173 1.367 . S
C172 H195 0.931 . S
C173 C172 1.367 . S
C173 C174 1.401 . S
C174 C173 1.401 . S
C174 C175 1.385 . S
C174 H196 0.930 . S
C175 C174 1.385 . S
C175 C176 1.402 . S
C176 C171 1.385 . S
C176 C175 1.402 . S
C176 H197 0.929 . S
C177 N142 1.421 . S
C177 C180 1.385 . S
C177 C181 1.371 1_455 S
C178 C179 1.385 . S
C178 C182 1.401 1_455 S
C178 H198 0.930 . S
C179 C178 1.385 . S
C179 C180 1.402 . S
C180 C177 1.385 . S
C180 C179 1.402 . S
C180 H199 0.929 . S
C181 C177 1.371 1_655 S
C181 C182 1.367 . S
C181 H200 0.931 . S
C182 C178 1.401 1_655 S
C182 C181 1.367 . S
H183 C137 0.931 . S
H184 C138 0.930 . S
H185 C139 0.929 . S
H186 C145 0.931 . S
H187 C146 0.930 . S
H188 C147 0.929 . S
H189 C159 0.928 . S
H190 C160 0.930 . S
H191 C162 0.930 . S
H192 C166 0.930 . S
H193 C168 0.930 . S
H194 C170 0.928 . S
H195 C172 0.931 . S
H196 C174 0.930 . S
H197 C176 0.929 . S
H198 C178 0.930 . S
H199 C180 0.929 . S
H200 C181 0.931 . S
C201 O202 1.201 . S
C201 C203 1.493 . S
C201 N218 1.318 . S
O202 C201 1.201 . S
C203 C201 1.493 . S
C203 C204 1.381 . S
C203 N208 1.335 1_556 S
C204 C203 1.381 . S
C204 C205 1.411 1_556 S
C204 H250 0.931 . S
C205 C204 1.411 1_554 S
C205 C206 1.384 . S
C205 H251 0.930 . S
C206 C205 1.384 . S
C206 C207 1.376 . S
C206 H252 0.929 . S
C207 C206 1.376 . S
C207 N208 1.330 . S
C207 C222 1.484 . S
N208 C203 1.335 1_554 S
N208 C207 1.330 . S
N208 Co210 1.859 . S
N209 Co210 1.962 . S
N209 C220 1.318 . S
N209 C244 1.421 . S
Co210 N208 1.859 . S
Co210 N209 1.962 . S
Co210 N211 1.859 . S
Co210 N217 1.958 . S
Co210 N218 1.962 1_554 S
Co210 N219 1.958 . S
N211 Co210 1.859 . S
N211 C215 1.330 . S
N211 C216 1.335 . S
C212 C213 1.411 . S
C212 C216 1.381 . S
C212 H253 0.931 . S
C213 C212 1.411 . S
C213 C214 1.384 . S
C213 H254 0.930 . S
C214 C213 1.384 . S
C214 C215 1.376 . S
C214 H255 0.929 . S
C215 N211 1.330 . S
C215 C214 1.376 . S
C215 C230 1.484 . S
C216 N211 1.335 . S
C216 C212 1.381 . S
C216 C220 1.493 . S
N217 Co210 1.958 . S
N217 C230 1.344 . S
N217 C232 1.425 . S
N218 C201 1.318 . S
N218 Co210 1.962 1_556 S
N218 C238 1.421 . S
N219 Co210 1.958 . S
N219 C222 1.344 . S
N219 C224 1.425 . S
C220 N209 1.318 . S
C220 C216 1.493 . S
C220 O221 1.201 . S
O221 C220 1.201 . S
C222 C207 1.484 . S
C222 N219 1.344 . S
C222 O223 1.268 . S
O223 C222 1.268 . S
C224 N219 1.425 . S
C224 C226 1.392 . S
C224 C227 1.368 . S
C225 C226 1.382 . S
C225 C229 1.386 . S
C226 C224 1.392 . S
C226 C225 1.382 . S
C226 H256 0.928 . S
C227 C224 1.368 . S
C227 C228 1.367 . S
C227 H257 0.930 . S
C228 C227 1.367 . S
C228 C229 1.369 . S
C229 C225 1.386 . S
C229 C228 1.369 . S
C229 H258 0.930 . S
C230 C215 1.484 . S
C230 N217 1.344 . S
C230 O231 1.268 . S
O231 C230 1.268 . S
C232 N217 1.425 . S
C232 C233 1.368 . S
C232 C237 1.392 1_554 S
C233 C232 1.368 . S
C233 C234 1.367 . S
C233 H259 0.930 . S
C234 C233 1.367 . S
C234 C235 1.369 1_554 S
C235 C234 1.369 1_556 S
C235 C236 1.386 . S
C235 H260 0.930 . S
C236 C235 1.386 . S
C236 C237 1.382 . S
C237 C232 1.392 1_556 S
C237 C236 1.382 . S
C237 H261 0.928 . S
C238 N218 1.421 . S
C238 C239 1.371 . S
C238 C243 1.385 . S
C239 C238 1.371 . S
C239 C240 1.367 . S
C239 H262 0.931 . S
C240 C239 1.367 . S
C240 C241 1.401 . S
C241 C240 1.401 . S
C241 C242 1.385 . S
C241 H263 0.930 . S
C242 C241 1.385 . S
C242 C243 1.402 . S
C243 C238 1.385 . S
C243 C242 1.402 . S
C243 H264 0.929 . S
C244 N209 1.421 . S
C244 C247 1.385 1_554 S
C244 C248 1.371 . S
C245 C246 1.385 1_554 S
C245 C249 1.401 . S
C245 H265 0.930 . S
C246 C245 1.385 1_556 S
C246 C247 1.402 . S
C247 C244 1.385 1_556 S
C247 C246 1.402 . S
C247 H266 0.929 . S
C248 C244 1.371 . S
C248 C249 1.367 . S
C248 H267 0.931 . S
C249 C245 1.401 . S
C249 C248 1.367 . S
H250 C204 0.931 . S
H251 C205 0.930 . S
H252 C206 0.929 . S
H253 C212 0.931 . S
H254 C213 0.930 . S
H255 C214 0.929 . S
H256 C226 0.928 . S
H257 C227 0.930 . S
H258 C229 0.930 . S
H259 C233 0.930 . S
H260 C235 0.930 . S
H261 C237 0.928 . S
H262 C239 0.931 . S
H263 C241 0.930 . S
H264 C243 0.929 . S
H265 C245 0.930 . S
H266 C247 0.929 . S
H267 C248 0.931 . S
C268 O269 1.201 . S
C268 C270 1.493 . S
C268 N285 1.318 . S
O269 C268 1.201 . S
C270 C268 1.493 . S
C270 C271 1.381 . S
C270 N275 1.335 1_545 S
C271 C270 1.381 . S
C271 C272 1.411 1_545 S
C271 H317 0.931 . S
C272 C271 1.411 1_565 S
C272 C273 1.384 . S
C272 H318 0.930 . S
C273 C272 1.384 . S
C273 C274 1.376 . S
C273 H319 0.929 . S
C274 C273 1.376 . S
C274 N275 1.330 . S
C274 C289 1.484 . S
N275 C270 1.335 1_565 S
N275 C274 1.330 . S
N275 Co277 1.859 . S
N276 Co277 1.962 . S
N276 C287 1.318 . S
N276 C311 1.421 . S
Co277 N275 1.859 . S
Co277 N276 1.962 . S
Co277 N278 1.859 . S
Co277 N284 1.958 . S
Co277 N285 1.962 1_565 S
Co277 N286 1.958 . S
N278 Co277 1.859 . S
N278 C282 1.330 . S
N278 C283 1.335 . S
C279 C280 1.411 . S
C279 C283 1.381 . S
C279 H320 0.931 . S
C280 C279 1.411 . S
C280 C281 1.384 . S
C280 H321 0.930 . S
C281 C280 1.384 . S
C281 C282 1.376 . S
C281 H322 0.929 . S
C282 N278 1.330 . S
C282 C281 1.376 . S
C282 C297 1.484 . S
C283 N278 1.335 . S
C283 C279 1.381 . S
C283 C287 1.493 . S
N284 Co277 1.958 . S
N284 C297 1.344 . S
N284 C299 1.426 . S
N285 C268 1.318 . S
N285 Co277 1.962 1_545 S
N285 C305 1.421 . S
N286 Co277 1.958 . S
N286 C289 1.344 . S
N286 C291 1.425 . S
C287 N276 1.318 . S
C287 C283 1.493 . S
C287 O288 1.201 . S
O288 C287 1.201 . S
C289 C274 1.484 . S
C289 N286 1.344 . S
C289 O290 1.268 . S
O290 C289 1.268 . S
C291 N286 1.425 . S
C291 C293 1.392 . S
C291 C294 1.368 . S
C292 C293 1.382 . S
C292 C296 1.386 . S
C293 C291 1.392 . S
C293 C292 1.382 . S
C293 H323 0.928 . S
C294 C291 1.368 . S
C294 C295 1.367 . S
C294 H324 0.930 . S
C295 C294 1.367 . S
C295 C296 1.369 . S
C296 C292 1.386 . S
C296 C295 1.369 . S
C296 H325 0.930 . S
C297 C282 1.484 . S
C297 N284 1.344 . S
C297 O298 1.268 . S
O298 C297 1.268 . S
C299 N284 1.426 . S
C299 C300 1.380 . S
C299 C304 1.378 1_565 S
C300 C299 1.380 . S
C300 C301 1.367 . S
C300 H326 0.930 . S
C301 C300 1.367 . S
C301 C302 1.369 1_565 S
C302 C301 1.369 1_545 S
C302 C303 1.386 . S
C302 H327 0.930 . S
C303 C302 1.386 . S
C303 C304 1.382 . S
C304 C299 1.378 1_545 S
C304 C303 1.382 . S
C304 H328 0.928 . S
C305 N285 1.421 . S
C305 C306 1.371 . S
C305 C310 1.385 . S
C306 C305 1.371 . S
C306 C307 1.367 . S
C306 H329 0.931 . S
C307 C306 1.367 . S
C307 C308 1.401 . S
C308 C307 1.401 . S
C308 C309 1.385 . S
C308 H330 0.930 . S
C309 C308 1.385 . S
C309 C310 1.402 . S
C310 C305 1.385 . S
C310 C309 1.402 . S
C310 H331 0.929 . S
C311 N276 1.421 . S
C311 C314 1.385 1_565 S
C311 C315 1.371 . S
C312 C313 1.385 1_565 S
C312 C316 1.401 . S
C312 H332 0.930 . S
C313 C312 1.385 1_545 S
C313 C314 1.402 . S
C314 C311 1.385 1_545 S
C314 C313 1.402 . S
C314 H333 0.929 . S
C315 C311 1.371 . S
C315 C316 1.367 . S
C315 H334 0.931 . S
C316 C312 1.401 . S
C316 C315 1.367 . S
H317 C271 0.931 . S
H318 C272 0.930 . S
H319 C273 0.929 . S
H320 C279 0.931 . S
H321 C280 0.930 . S
H322 C281 0.929 . S
H323 C293 0.928 . S
H324 C294 0.930 . S
H325 C296 0.930 . S
H326 C300 0.930 . S
H327 C302 0.930 . S
H328 C304 0.928 . S
H329 C306 0.931 . S
H330 C308 0.930 . S
H331 C310 0.929 . S
H332 C312 0.930 . S
H333 C314 0.929 . S
H334 C315 0.931 . S
C335 O336 1.201 . S
C335 C337 1.493 . S
C335 N352 1.318 . S
O336 C335 1.201 . S
C337 C335 1.493 . S
C337 C338 1.381 . S
C337 N342 1.335 1_565 S
C338 C337 1.381 . S
C338 C339 1.411 1_565 S
C338 H384 0.931 . S
C339 C338 1.411 1_545 S
C339 C340 1.384 . S
C339 H385 0.930 . S
C340 C339 1.384 . S
C340 C341 1.376 . S
C340 H386 0.929 . S
C341 C340 1.376 . S
C341 N342 1.330 . S
C341 C356 1.484 . S
N342 C337 1.335 1_545 S
N342 C341 1.330 . S
N342 Co344 1.859 . S
N343 Co344 1.962 . S
N343 C354 1.318 . S
N343 C378 1.421 . S
Co344 N342 1.859 . S
Co344 N343 1.962 . S
Co344 N345 1.859 . S
Co344 N351 1.958 . S
Co344 N352 1.962 1_545 S
Co344 N353 1.958 . S
N345 Co344 1.859 . S
N345 C349 1.330 . S
N345 C350 1.335 . S
C346 C347 1.411 . S
C346 C350 1.381 . S
C346 H387 0.931 . S
C347 C346 1.411 . S
C347 C348 1.384 . S
C347 H388 0.930 . S
C348 C347 1.384 . S
C348 C349 1.376 . S
C348 H389 0.929 . S
C349 N345 1.330 . S
C349 C348 1.376 . S
C349 C364 1.484 . S
C350 N345 1.335 . S
C350 C346 1.381 . S
C350 C354 1.493 . S
N351 Co344 1.958 . S
N351 C364 1.344 . S
N351 C366 1.425 . S
N352 C335 1.318 . S
N352 Co344 1.962 1_565 S
N352 C372 1.421 . S
N353 Co344 1.958 . S
N353 C356 1.344 . S
N353 C358 1.425 . S
C354 N343 1.318 . S
C354 C350 1.493 . S
C354 O355 1.201 . S
O355 C354 1.201 . S
C356 C341 1.484 . S
C356 N353 1.344 . S
C356 O357 1.268 . S
O357 C356 1.268 . S
C358 N353 1.425 . S
C358 C360 1.392 . S
C358 C361 1.368 . S
C359 C360 1.382 . S
C359 C363 1.386 . S
C360 C358 1.392 . S
C360 C359 1.382 . S
C360 H390 0.928 . S
C361 C358 1.368 . S
C361 C362 1.367 . S
C361 H391 0.930 . S
C362 C361 1.367 . S
C362 C363 1.369 . S
C363 C359 1.386 . S
C363 C362 1.369 . S
C363 H392 0.930 . S
C364 C349 1.484 . S
C364 N351 1.344 . S
C364 O365 1.268 . S
O365 C364 1.268 . S
C366 N351 1.425 . S
C366 C367 1.368 . S
C366 C371 1.392 1_545 S
C367 C366 1.368 . S
C367 C368 1.367 . S
C367 H393 0.930 . S
C368 C367 1.367 . S
C368 C369 1.356 1_545 S
C369 C368 1.356 1_565 S
C369 C370 1.399 . S
C369 H394 0.931 . S
C370 C369 1.399 . S
C370 C371 1.382 . S
C371 C366 1.392 1_565 S
C371 C370 1.382 . S
C371 H395 0.928 . S
C372 N352 1.421 . S
C372 C373 1.371 . S
C372 C377 1.385 . S
C373 C372 1.371 . S
C373 C374 1.367 . S
C373 H396 0.931 . S
C374 C373 1.367 . S
C374 C375 1.401 . S
C375 C374 1.401 . S
C375 C376 1.385 . S
C375 H397 0.930 . S
C376 C375 1.385 . S
C376 C377 1.402 . S
C377 C372 1.385 . S
C377 C376 1.402 . S
C377 H398 0.929 . S
C378 N343 1.421 . S
C378 C381 1.385 1_545 S
C378 C382 1.371 . S
C379 C380 1.385 1_545 S
C379 C383 1.401 . S
C379 H399 0.930 . S
C380 C379 1.385 1_565 S
C380 C381 1.402 . S
C381 C378 1.385 1_565 S
C381 C380 1.402 . S
C381 H400 0.929 . S
C382 C378 1.371 . S
C382 C383 1.367 . S
C382 H401 0.931 . S
C383 C379 1.401 . S
C383 C382 1.367 . S
H384 C338 0.931 . S
H385 C339 0.930 . S
H386 C340 0.929 . S
H387 C346 0.931 . S
H388 C347 0.930 . S
H389 C348 0.929 . S
H390 C360 0.928 . S
H391 C361 0.930 . S
H392 C363 0.930 . S
H393 C367 0.930 . S
H394 C369 0.931 . S
H395 C371 0.928 . S
H396 C373 0.931 . S
H397 C375 0.930 . S
H398 C377 0.929 . S
H399 C379 0.930 . S
H400 C381 0.929 . S
H401 C382 0.931 . S
C402 C403 1.391 . S
C402 C404 1.394 . S
C402 H418 0.931 . S
C403 C402 1.391 . S
C403 C407 1.376 . S
C404 C402 1.394 . S
C404 C405 1.369 . S
C404 C408 1.531 . S
C405 C404 1.369 . S
C405 C406 1.410 . S
C405 C413 1.503 . S
C406 C405 1.410 . S
C406 C407 1.392 . S
C406 C409 1.511 . S
C407 C403 1.376 . S
C407 C406 1.392 . S
C407 H419 0.929 . S
C408 C404 1.531 . S
C408 H420 0.960 . S
C408 H421 0.962 . S
C408 H422 0.960 . S
C409 C406 1.511 . S
C409 H423 0.961 . S
C409 H424 0.961 . S
C409 H425 0.961 . S
C410 C411 1.370 . S
C410 C412 1.363 . S
C410 H426 0.931 . S
C411 C410 1.370 . S
C411 C415 1.408 . S
C412 C410 1.363 . S
C412 C413 1.370 . S
C412 C416 1.524 . S
C413 C405 1.503 . S
C413 C412 1.370 . S
C413 C414 1.403 . S
C414 C413 1.403 . S
C414 C415 1.404 . S
C414 C417 1.539 . S
C415 C411 1.408 . S
C415 C414 1.404 . S
C415 H427 0.930 . S
C416 C412 1.524 . S
C416 H428 0.956 . S
C416 H429 0.961 . S
C416 H430 0.961 . S
C417 C414 1.539 . S
C417 H431 0.958 . S
C417 H432 0.961 . S
C417 H433 0.960 . S
H418 C402 0.931 . S
H419 C407 0.929 . S
H420 C408 0.960 . S
H421 C408 0.962 . S
H422 C408 0.960 . S
H423 C409 0.961 . S
H424 C409 0.961 . S
H425 C409 0.961 . S
H426 C410 0.931 . S
H427 C415 0.930 . S
H428 C416 0.956 . S
H429 C416 0.961 . S
H430 C416 0.961 . S
H431 C417 0.958 . S
H432 C417 0.961 . S
H433 C417 0.960 . S
C434 C435 1.391 . S
C434 C436 1.394 . S
C434 H450 0.931 . S
C435 C434 1.391 . S
C435 C439 1.376 . S
C436 C434 1.394 . S
C436 C437 1.369 . S
C436 C440 1.531 . S
C437 C436 1.369 . S
C437 C438 1.410 . S
C437 C445 1.503 . S
C438 C437 1.410 . S
C438 C439 1.392 . S
C438 C441 1.511 . S
C439 C435 1.376 . S
C439 C438 1.392 . S
C439 H451 0.929 . S
C440 C436 1.531 . S
C440 H452 0.960 . S
C440 H453 0.962 . S
C440 H454 0.960 . S
C441 C438 1.511 . S
C441 H455 0.961 . S
C441 H456 0.961 . S
C441 H457 0.961 . S
C442 C443 1.370 . S
C442 C444 1.363 . S
C442 H458 0.931 . S
C443 C442 1.370 . S
C443 C447 1.408 . S
C444 C442 1.363 . S
C444 C445 1.370 . S
C444 C448 1.524 . S
C445 C437 1.503 . S
C445 C444 1.370 . S
C445 C446 1.403 . S
C446 C445 1.403 . S
C446 C447 1.404 . S
C446 C449 1.539 . S
C447 C443 1.408 . S
C447 C446 1.404 . S
C447 H459 0.930 . S
C448 C444 1.524 . S
C448 H460 0.956 . S
C448 H461 0.961 . S
C448 H462 0.961 . S
C449 C446 1.539 . S
C449 H463 0.958 . S
C449 H464 0.961 . S
C449 H465 0.960 . S
H450 C434 0.931 . S
H451 C439 0.929 . S
H452 C440 0.960 . S
H453 C440 0.962 . S
H454 C440 0.960 . S
H455 C441 0.961 . S
H456 C441 0.961 . S
H457 C441 0.961 . S
H458 C442 0.931 . S
H459 C447 0.930 . S
H460 C448 0.956 . S
H461 C448 0.961 . S
H462 C448 0.961 . S
H463 C449 0.958 . S
H464 C449 0.961 . S
H465 C449 0.960 . S
C466 C467 1.391 . S
C466 C468 1.394 . S
C466 H482 0.931 . S
C467 C466 1.391 . S
C467 C471 1.376 . S
C468 C466 1.394 . S
C468 C469 1.369 . S
C468 C472 1.531 . S
C469 C468 1.369 . S
C469 C470 1.410 . S
C469 C477 1.503 . S
C470 C469 1.410 . S
C470 C471 1.392 . S
C470 C473 1.511 . S
C471 C467 1.376 . S
C471 C470 1.392 . S
C471 H483 0.929 . S
C472 C468 1.531 . S
C472 H484 0.960 . S
C472 H485 0.962 . S
C472 H486 0.960 . S
C473 C470 1.511 . S
C473 H487 0.961 . S
C473 H488 0.961 . S
C473 H489 0.961 . S
C474 C475 1.370 . S
C474 C476 1.363 . S
C474 H490 0.931 . S
C475 C474 1.370 . S
C475 C479 1.408 . S
C476 C474 1.363 . S
C476 C477 1.370 . S
C476 C480 1.524 . S
C477 C469 1.503 . S
C477 C476 1.370 . S
C477 C478 1.403 . S
C478 C477 1.403 . S
C478 C479 1.404 . S
C478 C481 1.539 . S
C479 C475 1.408 . S
C479 C478 1.404 . S
C479 H491 0.930 . S
C480 C476 1.524 . S
C480 H492 0.956 . S
C480 H493 0.961 . S
C480 H494 0.961 . S
C481 C478 1.539 . S
C481 H495 0.958 . S
C481 H496 0.961 . S
C481 H497 0.960 . S
H482 C466 0.931 . S
H483 C471 0.929 . S
H484 C472 0.960 . S
H485 C472 0.962 . S
H486 C472 0.960 . S
H487 C473 0.961 . S
H488 C473 0.961 . S
H489 C473 0.961 . S
H490 C474 0.931 . S
H491 C479 0.930 . S
H492 C480 0.956 . S
H493 C480 0.961 . S
H494 C480 0.961 . S
H495 C481 0.958 . S
H496 C481 0.961 . S
H497 C481 0.960 . S
C498 C499 1.391 . S
C498 C500 1.394 . S
C498 H514 0.931 . S
C499 C498 1.391 . S
C499 C503 1.376 . S
C500 C498 1.394 . S
C500 C501 1.369 . S
C500 C504 1.531 . S
C501 C500 1.369 . S
C501 C502 1.410 . S
C501 C509 1.503 . S
C502 C501 1.410 . S
C502 C503 1.392 . S
C502 C505 1.511 . S
C503 C499 1.376 . S
C503 C502 1.392 . S
C503 H515 0.929 . S
C504 C500 1.531 . S
C504 H516 0.960 . S
C504 H517 0.962 . S
C504 H518 0.960 . S
C505 C502 1.511 . S
C505 H519 0.961 . S
C505 H520 0.961 . S
C505 H521 0.961 . S
C506 C507 1.370 . S
C506 C508 1.363 . S
C506 H522 0.931 . S
C507 C506 1.370 . S
C507 C511 1.408 . S
C508 C506 1.363 . S
C508 C509 1.370 . S
C508 C512 1.524 . S
C509 C501 1.503 . S
C509 C508 1.370 . S
C509 C510 1.403 . S
C510 C509 1.403 . S
C510 C511 1.404 . S
C510 C513 1.539 . S
C511 C507 1.408 . S
C511 C510 1.404 . S
C511 H523 0.930 . S
C512 C508 1.524 . S
C512 H524 0.956 . S
C512 H525 0.961 . S
C512 H526 0.961 . S
C513 C510 1.539 . S
C513 H527 0.958 . S
C513 H528 0.961 . S
C513 H529 0.960 . S
H514 C498 0.931 . S
H515 C503 0.929 . S
H516 C504 0.960 . S
H517 C504 0.962 . S
H518 C504 0.960 . S
H519 C505 0.961 . S
H520 C505 0.961 . S
H521 C505 0.961 . S
H522 C506 0.931 . S
H523 C511 0.930 . S
H524 C512 0.956 . S
H525 C512 0.961 . S
H526 C512 0.961 . S
H527 C513 0.958 . S
H528 C513 0.961 . S
H529 C513 0.960 . S
C530 C531 1.391 . S
C530 C532 1.394 . S
C530 H546 0.931 . S
C531 C530 1.391 . S
C531 C535 1.376 . S
C532 C530 1.394 . S
C532 C533 1.369 . S
C532 C536 1.531 . S
C533 C532 1.369 . S
C533 C534 1.410 . S
C533 C541 1.503 . S
C534 C533 1.410 . S
C534 C535 1.392 . S
C534 C537 1.511 . S
C535 C531 1.376 . S
C535 C534 1.392 . S
C535 H547 0.929 . S
C536 C532 1.531 . S
C536 H548 0.960 . S
C536 H549 0.962 . S
C536 H550 0.960 . S
C537 C534 1.511 . S
C537 H551 0.961 . S
C537 H552 0.961 . S
C537 H553 0.961 . S
C538 C539 1.370 . S
C538 C540 1.363 . S
C538 H554 0.931 . S
C539 C538 1.370 . S
C539 C543 1.408 . S
C540 C538 1.363 . S
C540 C541 1.370 . S
C540 C544 1.524 . S
C541 C533 1.503 . S
C541 C540 1.370 . S
C541 C542 1.403 . S
C542 C541 1.403 . S
C542 C543 1.404 . S
C542 C545 1.539 . S
C543 C539 1.408 . S
C543 C542 1.404 . S
C543 H555 0.930 . S
C544 C540 1.524 . S
C544 H556 0.956 . S
C544 H557 0.961 . S
C544 H558 0.961 . S
C545 C542 1.539 . S
C545 H559 0.958 . S
C545 H560 0.961 . S
C545 H561 0.960 . S
H546 C530 0.931 . S
H547 C535 0.929 . S
H548 C536 0.960 . S
H549 C536 0.962 . S
H550 C536 0.960 . S
H551 C537 0.961 . S
H552 C537 0.961 . S
H553 C537 0.961 . S
H554 C538 0.931 . S
H555 C543 0.930 . S
H556 C544 0.956 . S
H557 C544 0.961 . S
H558 C544 0.961 . S
H559 C545 0.958 . S
H560 C545 0.961 . S
H561 C545 0.960 . S
C562 C563 1.391 . S
C562 C564 1.394 . S
C562 H578 0.931 . S
C563 C562 1.391 . S
C563 C567 1.376 . S
C564 C562 1.394 . S
C564 C565 1.369 . S
C564 C568 1.531 . S
C565 C564 1.369 . S
C565 C566 1.410 . S
C565 C573 1.503 . S
C566 C565 1.410 . S
C566 C567 1.392 . S
C566 C569 1.511 . S
C567 C563 1.376 . S
C567 C566 1.392 . S
C567 H579 0.929 . S
C568 C564 1.531 . S
C568 H580 0.960 . S
C568 H581 0.962 . S
C568 H582 0.960 . S
C569 C566 1.511 . S
C569 H583 0.961 . S
C569 H584 0.961 . S
C569 H585 0.961 . S
C570 C571 1.370 . S
C570 C572 1.363 . S
C570 H586 0.931 . S
C571 C570 1.370 . S
C571 C575 1.408 . S
C572 C570 1.363 . S
C572 C573 1.370 . S
C572 C576 1.524 . S
C573 C565 1.503 . S
C573 C572 1.370 . S
C573 C574 1.403 . S
C574 C573 1.403 . S
C574 C575 1.404 . S
C574 C577 1.539 . S
C575 C571 1.408 . S
C575 C574 1.404 . S
C575 H587 0.930 . S
C576 C572 1.524 . S
C576 H588 0.956 . S
C576 H589 0.961 . S
C576 H590 0.961 . S
C577 C574 1.539 . S
C577 H591 0.958 . S
C577 H592 0.961 . S
C577 H593 0.960 . S
H578 C562 0.931 . S
H579 C567 0.929 . S
H580 C568 0.960 . S
H581 C568 0.962 . S
H582 C568 0.960 . S
H583 C569 0.961 . S
H584 C569 0.961 . S
H585 C569 0.961 . S
H586 C570 0.931 . S
H587 C575 0.930 . S
H588 C576 0.956 . S
H589 C576 0.961 . S
H590 C576 0.961 . S
H591 C577 0.958 . S
H592 C577 0.961 . S
H593 C577 0.960 . S
C594 C595 1.391 . S
C594 C596 1.394 . S
C594 H610 0.931 . S
C595 C594 1.391 . S
C595 C599 1.376 . S
C596 C594 1.394 . S
C596 C597 1.369 . S
C596 C600 1.531 . S
C597 C596 1.369 . S
C597 C598 1.410 . S
C597 C605 1.503 . S
C598 C597 1.410 . S
C598 C599 1.392 . S
C598 C601 1.511 . S
C599 C595 1.376 . S
C599 C598 1.392 . S
C599 H611 0.929 . S
C600 C596 1.531 . S
C600 H612 0.960 . S
C600 H613 0.962 . S
C600 H614 0.960 . S
C601 C598 1.511 . S
C601 H615 0.961 . S
C601 H616 0.961 . S
C601 H617 0.961 . S
C602 C603 1.370 . S
C602 C604 1.363 . S
C602 H618 0.931 . S
C603 C602 1.370 . S
C603 C607 1.408 . S
C604 C602 1.363 . S
C604 C605 1.370 . S
C604 C608 1.524 . S
C605 C597 1.503 . S
C605 C604 1.370 . S
C605 C606 1.403 . S
C606 C605 1.403 . S
C606 C607 1.404 . S
C606 C609 1.539 . S
C607 C603 1.408 . S
C607 C606 1.404 . S
C607 H619 0.930 . S
C608 C604 1.524 . S
C608 H620 0.956 . S
C608 H621 0.961 . S
C608 H622 0.961 . S
C609 C606 1.539 . S
C609 H623 0.958 . S
C609 H624 0.961 . S
C609 H625 0.960 . S
H610 C594 0.931 . S
H611 C599 0.929 . S
H612 C600 0.960 . S
H613 C600 0.962 . S
H614 C600 0.960 . S
H615 C601 0.961 . S
H616 C601 0.961 . S
H617 C601 0.961 . S
H618 C602 0.931 . S
H619 C607 0.930 . S
H620 C608 0.956 . S
H621 C608 0.961 . S
H622 C608 0.961 . S
H623 C609 0.958 . S
H624 C609 0.961 . S
H625 C609 0.960 . S
C626 C627 1.391 . S
C626 C628 1.394 . S
C626 H642 0.931 . S
C627 C626 1.391 . S
C627 C631 1.376 . S
C628 C626 1.394 . S
C628 C629 1.369 . S
C628 C632 1.531 . S
C629 C628 1.369 . S
C629 C630 1.410 . S
C629 C637 1.503 . S
C630 C629 1.410 . S
C630 C631 1.392 . S
C630 C633 1.511 . S
C631 C627 1.376 . S
C631 C630 1.392 . S
C631 H643 0.929 . S
C632 C628 1.531 . S
C632 H644 0.960 . S
C632 H645 0.962 . S
C632 H646 0.960 . S
C633 C630 1.511 . S
C633 H647 0.961 . S
C633 H648 0.961 . S
C633 H649 0.961 . S
C634 C635 1.370 . S
C634 C636 1.363 . S
C634 H650 0.931 . S
C635 C634 1.370 . S
C635 C639 1.408 . S
C636 C634 1.363 . S
C636 C637 1.370 . S
C636 C640 1.524 . S
C637 C629 1.503 . S
C637 C636 1.370 . S
C637 C638 1.403 . S
C638 C637 1.403 . S
C638 C639 1.404 . S
C638 C641 1.539 . S
C639 C635 1.408 . S
C639 C638 1.404 . S
C639 H651 0.930 . S
C640 C636 1.524 . S
C640 H652 0.956 . S
C640 H653 0.961 . S
C640 H654 0.961 . S
C641 C638 1.539 . S
C641 H655 0.958 . S
C641 H656 0.961 . S
C641 H657 0.960 . S
H642 C626 0.931 . S
H643 C631 0.929 . S
H644 C632 0.960 . S
H645 C632 0.962 . S
H646 C632 0.960 . S
H647 C633 0.961 . S
H648 C633 0.961 . S
H649 C633 0.961 . S
H650 C634 0.931 . S
H651 C639 0.930 . S
H652 C640 0.956 . S
H653 C640 0.961 . S
H654 C640 0.961 . S
H655 C641 0.958 . S
H656 C641 0.961 . S
H657 C641 0.960 . S
C658 C659 1.391 . S
C658 C660 1.394 . S
C658 H674 0.931 . S
C659 C658 1.391 . S
C659 C663 1.376 . S
C660 C658 1.394 . S
C660 C661 1.369 . S
C660 C664 1.531 . S
C661 C660 1.369 . S
C661 C662 1.410 . S
C661 C669 1.503 . S
C662 C661 1.410 . S
C662 C663 1.392 . S
C662 C665 1.511 . S
C663 C659 1.376 . S
C663 C662 1.392 . S
C663 H675 0.929 . S
C664 C660 1.531 . S
C664 H676 0.960 . S
C664 H677 0.962 . S
C664 H678 0.960 . S
C665 C662 1.511 . S
C665 H679 0.961 . S
C665 H680 0.961 . S
C665 H681 0.961 . S
C666 C667 1.370 . S
C666 C668 1.363 . S
C666 H682 0.931 . S
C667 C666 1.370 . S
C667 C671 1.408 . S
C668 C666 1.363 . S
C668 C669 1.370 . S
C668 C672 1.524 . S
C669 C661 1.503 . S
C669 C668 1.370 . S
C669 C670 1.403 . S
C670 C669 1.403 . S
C670 C671 1.404 . S
C670 C673 1.539 . S
C671 C667 1.408 . S
C671 C670 1.404 . S
C671 H683 0.930 . S
C672 C668 1.524 . S
C672 H684 0.956 . S
C672 H685 0.961 . S
C672 H686 0.961 . S
C673 C670 1.539 . S
C673 H687 0.958 . S
C673 H688 0.961 1_565 S
C673 H689 0.960 . S
H674 C658 0.931 . S
H675 C663 0.929 . S
H676 C664 0.960 . S
H677 C664 0.962 . S
H678 C664 0.960 . S
H679 C665 0.961 . S
H680 C665 0.961 . S
H681 C665 0.961 . S
H682 C666 0.931 . S
H683 C671 0.930 . S
H684 C672 0.956 . S
H685 C672 0.961 . S
H686 C672 0.961 . S
H687 C673 0.958 . S
H688 C673 0.961 1_545 S
H689 C673 0.960 . S
C690 C691 1.391 . S
C690 C692 1.394 . S
C690 H706 0.931 . S
C691 C690 1.391 . S
C691 C695 1.376 . S
C692 C690 1.394 . S
C692 C693 1.369 . S
C692 C696 1.531 . S
C693 C692 1.369 . S
C693 C694 1.410 . S
C693 C701 1.503 . S
C694 C693 1.410 . S
C694 C695 1.392 . S
C694 C697 1.511 . S
C695 C691 1.376 . S
C695 C694 1.392 . S
C695 H707 0.929 . S
C696 C692 1.531 . S
C696 H708 0.960 . S
C696 H709 0.962 . S
C696 H710 0.960 . S
C697 C694 1.511 . S
C697 H711 0.961 . S
C697 H712 0.961 . S
C697 H713 0.961 . S
C698 C699 1.370 . S
C698 C700 1.363 . S
C698 H714 0.931 . S
C699 C698 1.370 . S
C699 C703 1.408 . S
C700 C698 1.363 . S
C700 C701 1.370 . S
C700 C704 1.524 . S
C701 C693 1.503 . S
C701 C700 1.370 . S
C701 C702 1.403 . S
C702 C701 1.403 . S
C702 C703 1.404 . S
C702 C705 1.539 . S
C703 C699 1.408 . S
C703 C702 1.404 . S
C703 H715 0.930 . S
C704 C700 1.524 . S
C704 H716 0.956 . S
C704 H717 0.961 . S
C704 H718 0.961 . S
C705 C702 1.539 . S
C705 H719 0.958 . S
C705 H720 0.961 . S
C705 H721 0.960 . S
H706 C690 0.931 . S
H707 C695 0.929 . S
H708 C696 0.960 . S
H709 C696 0.962 . S
H710 C696 0.960 . S
H711 C697 0.961 . S
H712 C697 0.961 . S
H713 C697 0.961 . S
H714 C698 0.931 . S
H715 C703 0.930 . S
H716 C704 0.956 . S
H717 C704 0.961 . S
H718 C704 0.961 . S
H719 C705 0.958 . S
H720 C705 0.961 . S
H721 C705 0.960 . S
C722 C723 1.391 . S
C722 C724 1.394 . S
C722 H738 0.931 . S
C723 C722 1.391 . S
C723 C727 1.376 . S
C724 C722 1.394 . S
C724 C725 1.369 . S
C724 C728 1.531 . S
C725 C724 1.369 . S
C725 C726 1.410 . S
C725 C733 1.503 . S
C726 C725 1.410 . S
C726 C727 1.392 . S
C726 C729 1.511 . S
C727 C723 1.376 . S
C727 C726 1.392 . S
C727 H739 0.929 . S
C728 C724 1.531 . S
C728 H740 0.960 . S
C728 H741 0.962 . S
C728 H742 0.960 . S
C729 C726 1.511 . S
C729 H743 0.961 . S
C729 H744 0.961 . S
C729 H745 0.961 . S
C730 C731 1.370 . S
C730 C732 1.363 . S
C730 H746 0.931 . S
C731 C730 1.370 . S
C731 C735 1.408 . S
C732 C730 1.363 . S
C732 C733 1.370 . S
C732 C736 1.524 . S
C733 C725 1.503 . S
C733 C732 1.370 . S
C733 C734 1.403 . S
C734 C733 1.403 . S
C734 C735 1.404 . S
C734 C737 1.539 . S
C735 C731 1.408 . S
C735 C734 1.404 . S
C735 H747 0.930 . S
C736 C732 1.524 . S
C736 H748 0.956 . S
C736 H749 0.961 . S
C736 H750 0.961 . S
C737 C734 1.539 . S
C737 H751 0.958 . S
C737 H752 0.961 . S
C737 H753 0.960 . S
H738 C722 0.931 . S
H739 C727 0.929 . S
H740 C728 0.960 . S
H741 C728 0.962 . S
H742 C728 0.960 . S
H743 C729 0.961 . S
H744 C729 0.961 . S
H745 C729 0.961 . S
H746 C730 0.931 . S
H747 C735 0.930 . S
H748 C736 0.956 . S
H749 C736 0.961 . S
H750 C736 0.961 . S
H751 C737 0.958 . S
H752 C737 0.961 . S
H753 C737 0.960 . S
C754 C755 1.391 . S
C754 C756 1.394 . S
C754 H770 0.931 . S
C755 C754 1.391 . S
C755 C759 1.376 . S
C756 C754 1.394 . S
C756 C757 1.369 . S
C756 C760 1.531 . S
C757 C756 1.369 . S
C757 C758 1.410 . S
C757 C765 1.503 . S
C758 C757 1.410 . S
C758 C759 1.392 . S
C758 C761 1.511 . S
C759 C755 1.376 . S
C759 C758 1.392 . S
C759 H771 0.929 . S
C760 C756 1.531 . S
C760 H772 0.960 . S
C760 H773 0.962 . S
C760 H774 0.960 . S
C761 C758 1.511 . S
C761 H775 0.961 . S
C761 H776 0.961 . S
C761 H777 0.961 . S
C762 C763 1.370 . S
C762 C764 1.363 . S
C762 H778 0.931 . S
C763 C762 1.370 . S
C763 C767 1.408 . S
C764 C762 1.363 . S
C764 C765 1.370 . S
C764 C768 1.524 . S
C765 C757 1.503 . S
C765 C764 1.370 . S
C765 C766 1.403 . S
C766 C765 1.403 . S
C766 C767 1.404 . S
C766 C769 1.539 . S
C767 C763 1.408 . S
C767 C766 1.404 . S
C767 H779 0.930 . S
C768 C764 1.524 . S
C768 H780 0.956 . S
C768 H781 0.961 . S
C768 H782 0.961 . S
C769 C766 1.539 . S
C769 H783 0.958 . S
C769 H784 0.961 . S
C769 H785 0.960 . S
H770 C754 0.931 . S
H771 C759 0.929 . S
H772 C760 0.960 . S
H773 C760 0.962 . S
H774 C760 0.960 . S
H775 C761 0.961 . S
H776 C761 0.961 . S
H777 C761 0.961 . S
H778 C762 0.931 . S
H779 C767 0.930 . S
H780 C768 0.956 . S
H781 C768 0.961 . S
H782 C768 0.961 . S
H783 C769 0.958 . S
H784 C769 0.961 . S
H785 C769 0.960 . S
C786 C787 1.391 . S
C786 C788 1.394 . S
C786 H802 0.931 . S
C787 C786 1.391 . S
C787 C791 1.376 . S
C788 C786 1.394 . S
C788 C789 1.369 . S
C788 C792 1.531 . S
C789 C788 1.369 . S
C789 C790 1.410 . S
C789 C797 1.503 . S
C790 C789 1.410 . S
C790 C791 1.392 . S
C790 C793 1.511 . S
C791 C787 1.376 . S
C791 C790 1.392 . S
C791 H803 0.929 . S
C792 C788 1.531 . S
C792 H804 0.960 . S
C792 H805 0.962 . S
C792 H806 0.960 . S
C793 C790 1.511 . S
C793 H807 0.961 . S
C793 H808 0.961 . S
C793 H809 0.961 . S
C794 C795 1.370 . S
C794 C796 1.363 . S
C794 H810 0.931 . S
C795 C794 1.370 . S
C795 C799 1.408 . S
C796 C794 1.363 . S
C796 C797 1.370 . S
C796 C800 1.524 . S
C797 C789 1.503 . S
C797 C796 1.370 . S
C797 C798 1.403 . S
C798 C797 1.403 . S
C798 C799 1.404 . S
C798 C801 1.539 . S
C799 C795 1.408 . S
C799 C798 1.404 . S
C799 H811 0.930 . S
C800 C796 1.524 . S
C800 H812 0.956 . S
C800 H813 0.961 . S
C800 H814 0.961 . S
C801 C798 1.539 . S
C801 H815 0.958 . S
C801 H816 0.961 . S
C801 H817 0.960 . S
H802 C786 0.931 . S
H803 C791 0.929 . S
H804 C792 0.960 . S
H805 C792 0.962 . S
H806 C792 0.960 . S
H807 C793 0.961 . S
H808 C793 0.961 . S
H809 C793 0.961 . S
H810 C794 0.931 . S
H811 C799 0.930 . S
H812 C800 0.956 . S
H813 C800 0.961 . S
H814 C800 0.961 . S
H815 C801 0.958 . S
H816 C801 0.961 . S
H817 C801 0.960 . S
C818 C819 1.391 . S
C818 C820 1.394 . S
C818 H834 0.931 1_655 S
C819 C818 1.391 . S
C819 C823 1.376 . S
C820 C818 1.394 . S
C820 C821 1.369 . S
C820 C824 1.531 . S
C821 C820 1.369 . S
C821 C822 1.410 . S
C821 C829 1.503 . S
C822 C821 1.410 . S
C822 C823 1.392 . S
C822 C825 1.511 . S
C823 C819 1.376 . S
C823 C822 1.392 . S
C823 H835 0.929 . S
C824 C820 1.531 . S
C824 H836 0.960 . S
C824 H837 0.962 1_655 S
C824 H838 0.960 1_655 S
C825 C822 1.511 . S
C825 H839 0.961 . S
C825 H840 0.961 . S
C825 H841 0.961 . S
C826 C827 1.370 . S
C826 C828 1.363 . S
C826 H842 0.931 . S
C827 C826 1.370 . S
C827 C831 1.408 . S
C828 C826 1.363 . S
C828 C829 1.370 . S
C828 C832 1.524 . S
C829 C821 1.503 . S
C829 C828 1.370 . S
C829 C830 1.403 . S
C830 C829 1.403 . S
C830 C831 1.404 . S
C830 C833 1.539 . S
C831 C827 1.408 . S
C831 C830 1.404 . S
C831 H843 0.930 . S
C832 C828 1.524 . S
C832 H844 0.956 . S
C832 H845 0.961 . S
C832 H846 0.961 . S
C833 C830 1.539 . S
C833 H847 0.958 . S
C833 H848 0.961 . S
C833 H849 0.960 . S
H834 C818 0.931 1_455 S
H835 C823 0.929 . S
H836 C824 0.960 . S
H837 C824 0.962 1_455 S
H838 C824 0.960 1_455 S
H839 C825 0.961 . S
H840 C825 0.961 . S
H841 C825 0.961 . S
H842 C826 0.931 . S
H843 C831 0.930 . S
H844 C832 0.956 . S
H845 C832 0.961 . S
H846 C832 0.961 . S
H847 C833 0.958 . S
H848 C833 0.961 . S
H849 C833 0.960 . S
C850 C851 1.391 . S
C850 C852 1.394 . S
C850 H866 0.931 . S
C851 C850 1.391 . S
C851 C855 1.376 . S
C852 C850 1.394 . S
C852 C853 1.369 . S
C852 C856 1.531 . S
C853 C852 1.369 . S
C853 C854 1.410 . S
C853 C861 1.503 . S
C854 C853 1.410 . S
C854 C855 1.392 . S
C854 C857 1.511 . S
C855 C851 1.376 . S
C855 C854 1.392 . S
C855 H867 0.929 . S
C856 C852 1.531 . S
C856 H868 0.960 . S
C856 H869 0.962 . S
C856 H870 0.960 . S
C857 C854 1.511 . S
C857 H871 0.961 . S
C857 H872 0.961 . S
C857 H873 0.961 . S
C858 C859 1.370 . S
C858 C860 1.363 . S
C858 H874 0.931 . S
C859 C858 1.370 . S
C859 C863 1.408 . S
C860 C858 1.363 . S
C860 C861 1.370 . S
C860 C864 1.524 . S
C861 C853 1.503 . S
C861 C860 1.370 . S
C861 C862 1.403 . S
C862 C861 1.403 . S
C862 C863 1.404 . S
C862 C865 1.539 . S
C863 C859 1.408 . S
C863 C862 1.404 . S
C863 H875 0.930 . S
C864 C860 1.524 . S
C864 H876 0.956 . S
C864 H877 0.961 . S
C864 H878 0.961 . S
C865 C862 1.539 . S
C865 H879 0.958 . S
C865 H880 0.961 . S
C865 H881 0.960 . S
H866 C850 0.931 . S
H867 C855 0.929 . S
H868 C856 0.960 . S
H869 C856 0.962 . S
H870 C856 0.960 . S
H871 C857 0.961 . S
H872 C857 0.961 . S
H873 C857 0.961 . S
H874 C858 0.931 . S
H875 C863 0.930 . S
H876 C864 0.956 . S
H877 C864 0.961 . S
H878 C864 0.961 . S
H879 C865 0.958 . S
H880 C865 0.961 . S
H881 C865 0.960 . S
C882 C883 1.391 . S
C882 C884 1.394 . S
C882 H898 0.931 . S
C883 C882 1.391 . S
C883 C887 1.376 . S
C884 C882 1.394 . S
C884 C885 1.369 . S
C884 C888 1.531 . S
C885 C884 1.369 . S
C885 C886 1.410 . S
C885 C893 1.503 . S
C886 C885 1.410 . S
C886 C887 1.392 . S
C886 C889 1.511 . S
C887 C883 1.376 . S
C887 C886 1.392 . S
C887 H899 0.929 . S
C888 C884 1.531 . S
C888 H900 0.960 . S
C888 H901 0.962 . S
C888 H902 0.960 . S
C889 C886 1.511 . S
C889 H903 0.961 . S
C889 H904 0.961 . S
C889 H905 0.961 . S
C890 C891 1.370 . S
C890 C892 1.363 . S
C890 H906 0.931 . S
C891 C890 1.370 . S
C891 C895 1.408 . S
C892 C890 1.363 . S
C892 C893 1.370 . S
C892 C896 1.524 . S
C893 C885 1.503 . S
C893 C892 1.370 . S
C893 C894 1.403 . S
C894 C893 1.403 . S
C894 C895 1.404 . S
C894 C897 1.539 . S
C895 C891 1.408 . S
C895 C894 1.404 . S
C895 H907 0.930 . S
C896 C892 1.524 . S
C896 H908 0.956 . S
C896 H909 0.961 . S
C896 H910 0.961 . S
C897 C894 1.539 . S
C897 H911 0.958 . S
C897 H912 0.961 . S
C897 H913 0.960 . S
H898 C882 0.931 . S
H899 C887 0.929 . S
H900 C888 0.960 . S
H901 C888 0.962 . S
H902 C888 0.960 . S
H903 C889 0.961 . S
H904 C889 0.961 . S
H905 C889 0.961 . S
H906 C890 0.931 . S
H907 C895 0.930 . S
H908 C896 0.956 . S
H909 C896 0.961 . S
H910 C896 0.961 . S
H911 C897 0.958 . S
H912 C897 0.961 . S
H913 C897 0.960 . S
C914 C915 1.391 . S
C914 C916 1.394 . S
C914 H930 0.931 . S
C915 C914 1.391 . S
C915 C919 1.376 . S
C916 C914 1.394 . S
C916 C917 1.369 . S
C916 C920 1.531 . S
C917 C916 1.369 . S
C917 C918 1.410 . S
C917 C925 1.503 . S
C918 C917 1.410 . S
C918 C919 1.392 . S
C918 C921 1.511 . S
C919 C915 1.376 . S
C919 C918 1.392 . S
C919 H931 0.929 . S
C920 C916 1.531 . S
C920 H932 0.960 . S
C920 H933 0.962 . S
C920 H934 0.960 . S
C921 C918 1.511 . S
C921 H935 0.961 . S
C921 H936 0.961 . S
C921 H937 0.961 . S
C922 C923 1.370 . S
C922 C924 1.363 . S
C922 H938 0.931 . S
C923 C922 1.370 . S
C923 C927 1.408 . S
C924 C922 1.363 . S
C924 C925 1.370 . S
C924 C928 1.524 . S
C925 C917 1.503 . S
C925 C924 1.370 . S
C925 C926 1.403 . S
C926 C925 1.403 . S
C926 C927 1.404 . S
C926 C929 1.539 . S
C927 C923 1.408 . S
C927 C926 1.404 . S
C927 H939 0.930 . S
C928 C924 1.524 . S
C928 H940 0.956 . S
C928 H941 0.961 . S
C928 H942 0.961 . S
C929 C926 1.539 . S
C929 H943 0.958 . S
C929 H944 0.961 . S
C929 H945 0.960 . S
H930 C914 0.931 . S
H931 C919 0.929 . S
H932 C920 0.960 . S
H933 C920 0.962 . S
H934 C920 0.960 . S
H935 C921 0.961 . S
H936 C921 0.961 . S
H937 C921 0.961 . S
H938 C922 0.931 . S
H939 C927 0.930 . S
H940 C928 0.956 . S
H941 C928 0.961 . S
H942 C928 0.961 . S
H943 C929 0.958 . S
H944 C929 0.961 . S
H945 C929 0.960 . S
C946 C947 1.391 . S
C946 C948 1.394 . S
C946 H962 0.931 . S
C947 C946 1.391 . S
C947 C951 1.376 . S
C948 C946 1.394 . S
C948 C949 1.369 . S
C948 C952 1.531 . S
C949 C948 1.369 . S
C949 C950 1.410 . S
C949 C957 1.503 . S
C950 C949 1.410 . S
C950 C951 1.392 . S
C950 C953 1.511 . S
C951 C947 1.376 . S
C951 C950 1.392 . S
C951 H963 0.929 . S
C952 C948 1.531 . S
C952 H964 0.960 . S
C952 H965 0.962 . S
C952 H966 0.960 . S
C953 C950 1.511 . S
C953 H967 0.961 . S
C953 H968 0.961 . S
C953 H969 0.961 . S
C954 C955 1.370 . S
C954 C956 1.363 . S
C954 H970 0.931 . S
C955 C954 1.370 . S
C955 C959 1.408 . S
C956 C954 1.363 . S
C956 C957 1.370 . S
C956 C960 1.524 . S
C957 C949 1.503 . S
C957 C956 1.370 . S
C957 C958 1.403 . S
C958 C957 1.403 . S
C958 C959 1.404 . S
C958 C961 1.539 . S
C959 C955 1.408 . S
C959 C958 1.404 . S
C959 H971 0.930 . S
C960 C956 1.524 . S
C960 H972 0.956 . S
C960 H973 0.961 . S
C960 H974 0.961 . S
C961 C958 1.539 . S
C961 H975 0.958 . S
C961 H976 0.961 . S
C961 H977 0.960 . S
H962 C946 0.931 . S
H963 C951 0.929 . S
H964 C952 0.960 . S
H965 C952 0.962 . S
H966 C952 0.960 . S
H967 C953 0.961 . S
H968 C953 0.961 . S
H969 C953 0.961 . S
H970 C954 0.931 . S
H971 C959 0.930 . S
H972 C960 0.956 . S
H973 C960 0.961 . S
H974 C960 0.961 . S
H975 C961 0.958 . S
H976 C961 0.961 . S
H977 C961 0.960 . S
C978 C979 1.391 . S
C978 C980 1.394 . S
C978 H994 0.931 . S
C979 C978 1.391 . S
C979 C983 1.376 . S
C980 C978 1.394 . S
C980 C981 1.369 . S
C980 C984 1.531 . S
C981 C980 1.369 . S
C981 C982 1.410 . S
C981 C989 1.503 . S
C982 C981 1.410 . S
C982 C983 1.392 . S
C982 C985 1.511 . S
C983 C979 1.376 . S
C983 C982 1.392 . S
C983 H995 0.929 . S
C984 C980 1.531 . S
C984 H996 0.960 . S
C984 H997 0.962 . S
C984 H998 0.960 . S
C985 C982 1.511 . S
C985 H999 0.961 1_545 S
C985 H1000 0.961 . S
C985 H1001 0.961 . S
C986 C987 1.370 . S
C986 C988 1.363 . S
C986 H1002 0.931 . S
C987 C986 1.370 . S
C987 C991 1.408 . S
C988 C986 1.363 . S
C988 C989 1.370 . S
C988 C992 1.524 . S
C989 C981 1.503 . S
C989 C988 1.370 . S
C989 C990 1.403 . S
C990 C989 1.403 . S
C990 C991 1.404 . S
C990 C993 1.539 . S
C991 C987 1.408 . S
C991 C990 1.404 . S
C991 H1003 0.930 . S
C992 C988 1.524 . S
C992 H1004 0.956 . S
C992 H1005 0.961 . S
C992 H1006 0.961 . S
C993 C990 1.539 . S
C993 H1007 0.958 . S
C993 H1008 0.961 . S
C993 H1009 0.960 . S
H994 C978 0.931 . S
H995 C983 0.929 . S
H996 C984 0.960 . S
H997 C984 0.962 . S
H998 C984 0.960 . S
H999 C985 0.961 1_565 S
H1000 C985 0.961 . S
H1001 C985 0.961 . S
H1002 C986 0.931 . S
H1003 C991 0.930 . S
H1004 C992 0.956 . S
H1005 C992 0.961 . S
H1006 C992 0.961 . S
H1007 C993 0.958 . S
H1008 C993 0.961 . S
H1009 C993 0.960 . S
C1010 C1011 1.391 . S
C1010 C1012 1.394 . S
C1010 H1026 0.931 . S
C1011 C1010 1.391 . S
C1011 C1015 1.376 . S
C1012 C1010 1.394 . S
C1012 C1013 1.369 . S
C1012 C1016 1.531 . S
C1013 C1012 1.369 . S
C1013 C1014 1.410 . S
C1013 C1021 1.503 . S
C1014 C1013 1.410 . S
C1014 C1015 1.392 . S
C1014 C1017 1.511 . S
C1015 C1011 1.376 . S
C1015 C1014 1.392 . S
C1015 H1027 0.929 . S
C1016 C1012 1.531 . S
C1016 H1028 0.960 . S
C1016 H1029 0.962 . S
C1016 H1030 0.960 . S
C1017 C1014 1.511 . S
C1017 H1031 0.961 1_554 S
C1017 H1032 0.961 . S
C1017 H1033 0.961 . S
C1018 C1019 1.370 . S
C1018 C1020 1.363 . S
C1018 H1034 0.931 . S
C1019 C1018 1.370 . S
C1019 C1023 1.408 . S
C1020 C1018 1.363 . S
C1020 C1021 1.370 . S
C1020 C1024 1.524 . S
C1021 C1013 1.503 . S
C1021 C1020 1.370 . S
C1021 C1022 1.403 . S
C1022 C1021 1.403 . S
C1022 C1023 1.404 . S
C1022 C1025 1.539 . S
C1023 C1019 1.408 . S
C1023 C1022 1.404 . S
C1023 H1035 0.930 . S
C1024 C1020 1.524 . S
C1024 H1036 0.956 . S
C1024 H1037 0.961 . S
C1024 H1038 0.961 . S
C1025 C1022 1.539 . S
C1025 H1039 0.958 . S
C1025 H1040 0.961 . S
C1025 H1041 0.960 . S
H1026 C1010 0.931 . S
H1027 C1015 0.929 . S
H1028 C1016 0.960 . S
H1029 C1016 0.962 . S
H1030 C1016 0.960 . S
H1031 C1017 0.961 1_556 S
H1032 C1017 0.961 . S
H1033 C1017 0.961 . S
H1034 C1018 0.931 . S
H1035 C1023 0.930 . S
H1036 C1024 0.956 . S
H1037 C1024 0.961 . S
H1038 C1024 0.961 . S
H1039 C1025 0.958 . S
H1040 C1025 0.961 . S
H1041 C1025 0.960 . S
C1042 C1043 1.391 . S
C1042 C1044 1.394 . S
C1042 H1058 0.931 . S
C1043 C1042 1.391 . S
C1043 C1047 1.376 . S
C1044 C1042 1.394 . S
C1044 C1045 1.369 . S
C1044 C1048 1.531 . S
C1045 C1044 1.369 . S
C1045 C1046 1.410 . S
C1045 C1053 1.503 . S
C1046 C1045 1.410 . S
C1046 C1047 1.392 . S
C1046 C1049 1.511 . S
C1047 C1043 1.376 . S
C1047 C1046 1.392 . S
C1047 H1059 0.929 . S
C1048 C1044 1.531 . S
C1048 H1060 0.960 . S
C1048 H1061 0.962 . S
C1048 H1062 0.960 . S
C1049 C1046 1.511 . S
C1049 H1063 0.961 . S
C1049 H1064 0.961 . S
C1049 H1065 0.961 . S
C1050 C1051 1.370 . S
C1050 C1052 1.363 . S
C1050 H1066 0.931 . S
C1051 C1050 1.370 . S
C1051 C1055 1.408 . S
C1052 C1050 1.363 . S
C1052 C1053 1.370 . S
C1052 C1056 1.524 . S
C1053 C1045 1.503 . S
C1053 C1052 1.370 . S
C1053 C1054 1.403 . S
C1054 C1053 1.403 . S
C1054 C1055 1.404 . S
C1054 C1057 1.539 . S
C1055 C1051 1.408 . S
C1055 C1054 1.404 . S
C1055 H1067 0.930 . S
C1056 C1052 1.524 . S
C1056 H1068 0.956 . S
C1056 H1069 0.961 . S
C1056 H1070 0.961 . S
C1057 C1054 1.539 . S
C1057 H1071 0.958 . S
C1057 H1072 0.961 . S
C1057 H1073 0.960 . S
H1058 C1042 0.931 . S
H1059 C1047 0.929 . S
H1060 C1048 0.960 . S
H1061 C1048 0.962 . S
H1062 C1048 0.960 . S
H1063 C1049 0.961 . S
H1064 C1049 0.961 . S
H1065 C1049 0.961 . S
H1066 C1050 0.931 . S
H1067 C1055 0.930 . S
H1068 C1056 0.956 . S
H1069 C1056 0.961 . S
H1070 C1056 0.961 . S
H1071 C1057 0.958 . S
H1072 C1057 0.961 . S
H1073 C1057 0.960 . S
C1074 C1075 1.391 . S
C1074 C1076 1.394 . S
C1074 H1090 0.931 . S
C1075 C1074 1.391 . S
C1075 C1079 1.376 . S
C1076 C1074 1.394 . S
C1076 C1077 1.369 . S
C1076 C1080 1.531 . S
C1077 C1076 1.369 . S
C1077 C1078 1.410 . S
C1077 C1085 1.503 . S
C1078 C1077 1.410 . S
C1078 C1079 1.392 . S
C1078 C1081 1.511 . S
C1079 C1075 1.376 . S
C1079 C1078 1.392 . S
C1079 H1091 0.929 . S
C1080 C1076 1.531 . S
C1080 H1092 0.960 . S
C1080 H1093 0.962 . S
C1080 H1094 0.960 . S
C1081 C1078 1.511 . S
C1081 H1095 0.961 . S
C1081 H1096 0.961 . S
C1081 H1097 0.961 . S
C1082 C1083 1.370 . S
C1082 C1084 1.363 . S
C1082 H1098 0.931 . S
C1083 C1082 1.370 . S
C1083 C1087 1.408 . S
C1084 C1082 1.363 . S
C1084 C1085 1.370 . S
C1084 C1088 1.524 . S
C1085 C1077 1.503 . S
C1085 C1084 1.370 . S
C1085 C1086 1.403 . S
C1086 C1085 1.403 . S
C1086 C1087 1.404 . S
C1086 C1089 1.539 . S
C1087 C1083 1.408 . S
C1087 C1086 1.404 . S
C1087 H1099 0.930 . S
C1088 C1084 1.524 . S
C1088 H1100 0.956 . S
C1088 H1101 0.961 . S
C1088 H1102 0.961 . S
C1089 C1086 1.539 . S
C1089 H1103 0.958 . S
C1089 H1104 0.961 . S
C1089 H1105 0.960 . S
H1090 C1074 0.931 . S
H1091 C1079 0.929 . S
H1092 C1080 0.960 . S
H1093 C1080 0.962 . S
H1094 C1080 0.960 . S
H1095 C1081 0.961 . S
H1096 C1081 0.961 . S
H1097 C1081 0.961 . S
H1098 C1082 0.931 . S
H1099 C1087 0.930 . S
H1100 C1088 0.956 . S
H1101 C1088 0.961 . S
H1102 C1088 0.961 . S
H1103 C1089 0.958 . S
H1104 C1089 0.961 . S
H1105 C1089 0.960 . S
C1106 C1107 1.391 . S
C1106 C1108 1.394 . S
C1106 H1122 0.931 . S
C1107 C1106 1.391 . S
C1107 C1111 1.376 . S
C1108 C1106 1.394 . S
C1108 C1109 1.369 . S
C1108 C1112 1.531 . S
C1109 C1108 1.369 . S
C1109 C1110 1.410 . S
C1109 C1117 1.503 . S
C1110 C1109 1.410 . S
C1110 C1111 1.392 . S
C1110 C1113 1.511 . S
C1111 C1107 1.376 . S
C1111 C1110 1.392 . S
C1111 H1123 0.929 . S
C1112 C1108 1.531 . S
C1112 H1124 0.960 . S
C1112 H1125 0.962 . S
C1112 H1126 0.960 . S
C1113 C1110 1.511 . S
C1113 H1127 0.961 . S
C1113 H1128 0.961 . S
C1113 H1129 0.961 . S
C1114 C1115 1.370 . S
C1114 C1116 1.363 . S
C1114 H1130 0.931 . S
C1115 C1114 1.370 . S
C1115 C1119 1.408 . S
C1116 C1114 1.363 . S
C1116 C1117 1.370 . S
C1116 C1120 1.524 . S
C1117 C1109 1.503 . S
C1117 C1116 1.370 . S
C1117 C1118 1.403 . S
C1118 C1117 1.403 . S
C1118 C1119 1.404 . S
C1118 C1121 1.539 . S
C1119 C1115 1.408 . S
C1119 C1118 1.404 . S
C1119 H1131 0.930 . S
C1120 C1116 1.524 . S
C1120 H1132 0.956 . S
C1120 H1133 0.961 . S
C1120 H1134 0.961 . S
C1121 C1118 1.539 . S
C1121 H1135 0.958 . S
C1121 H1136 0.961 . S
C1121 H1137 0.960 . S
H1122 C1106 0.931 . S
H1123 C1111 0.929 . S
H1124 C1112 0.960 . S
H1125 C1112 0.962 . S
H1126 C1112 0.960 . S
H1127 C1113 0.961 . S
H1128 C1113 0.961 . S
H1129 C1113 0.961 . S
H1130 C1114 0.931 . S
H1131 C1119 0.930 . S
H1132 C1120 0.956 . S
H1133 C1120 0.961 . S
H1134 C1120 0.961 . S
H1135 C1121 0.958 . S
H1136 C1121 0.961 . S
H1137 C1121 0.960 . S
C1138 C1139 1.391 . S
C1138 C1140 1.394 . S
C1138 H1154 0.931 . S
C1139 C1138 1.391 . S
C1139 C1143 1.376 . S
C1140 C1138 1.394 . S
C1140 C1141 1.369 . S
C1140 C1144 1.531 . S
C1141 C1140 1.369 . S
C1141 C1142 1.410 . S
C1141 C1149 1.503 . S
C1142 C1141 1.410 . S
C1142 C1143 1.392 . S
C1142 C1145 1.511 . S
C1143 C1139 1.376 . S
C1143 C1142 1.392 . S
C1143 H1155 0.929 . S
C1144 C1140 1.531 . S
C1144 H1156 0.960 . S
C1144 H1157 0.962 . S
C1144 H1158 0.960 . S
C1145 C1142 1.511 . S
C1145 H1159 0.961 . S
C1145 H1160 0.961 . S
C1145 H1161 0.961 . S
C1146 C1147 1.370 . S
C1146 C1148 1.363 . S
C1146 H1162 0.931 . S
C1147 C1146 1.370 . S
C1147 C1151 1.408 . S
C1148 C1146 1.363 . S
C1148 C1149 1.370 . S
C1148 C1152 1.524 . S
C1149 C1141 1.503 . S
C1149 C1148 1.370 . S
C1149 C1150 1.403 . S
C1150 C1149 1.403 . S
C1150 C1151 1.404 . S
C1150 C1153 1.539 . S
C1151 C1147 1.408 . S
C1151 C1150 1.404 . S
C1151 H1163 0.930 . S
C1152 C1148 1.524 . S
C1152 H1164 0.956 . S
C1152 H1165 0.961 . S
C1152 H1166 0.961 . S
C1153 C1150 1.539 . S
C1153 H1167 0.958 . S
C1153 H1168 0.961 . S
C1153 H1169 0.960 . S
H1154 C1138 0.931 . S
H1155 C1143 0.929 . S
H1156 C1144 0.960 . S
H1157 C1144 0.962 . S
H1158 C1144 0.960 . S
H1159 C1145 0.961 . S
H1160 C1145 0.961 . S
H1161 C1145 0.961 . S
H1162 C1146 0.931 . S
H1163 C1151 0.930 . S
H1164 C1152 0.956 . S
H1165 C1152 0.961 . S
H1166 C1152 0.961 . S
H1167 C1153 0.958 . S
H1168 C1153 0.961 . S
H1169 C1153 0.960 . S
C403 C48 1.161 . S
C411 C91 1.247 . S
C435 C106 1.180 . S
C443 C169 1.223 . S
C467 C225 1.382 . S
C475 C182 1.310 . S
C499 C240 1.280 . S
C507 C35 1.339 . S
C531 C303 1.000 . S
C539 C24 1.035 . S
C563 C374 1.236 . S
C571 C102 1.248 . S
C595 C316 1.272 . S
C603 C158 1.245 . S
C627 C236 1.057 . S
C635 C359 1.053 . S
C659 C173 1.319 . S
C667 C370 1.309 . S
C691 C292 1.301 . S
C699 C249 1.325 . S
C723 C383 1.520 . S
C731 C39 1.514 . S
C755 C307 1.449 . S
C763 C115 1.507 . S
C787 C167 1.257 . S
C795 C242 1.313 . S
C819 C45 1.306 . S
C827 C228 1.300 . S
C851 C33 1.382 . S
C859 C108 1.413 . S
C883 C179 1.359 . S
C891 C94 1.396 . S
C915 C380 1.300 . S
C923 C161 1.240 . S
C947 C234 1.311 . S
C955 C309 1.281 . S
C979 C368 1.262 . S
C987 C27 1.216 . S
C1011 C100 1.228 . S
C1019 C295 1.179 . S
C1043 C41 1.460 . S
C1051 C313 1.471 . S
C1075 C112 1.357 . S
C1083 C362 1.404 . S
C1107 C175 1.395 . S
C1115 C301 1.435 . S
C1139 C246 1.506 . S
C1147 C376 1.493 . S
