# Generated by pormake.
# Topology umq, (4)-cn, num edge types: 1
# Building blocks:
#     Node 0, Type 0, BuildingBlock: AZAVOO_clean_sbu_0, # of connection points: 4
#     Node 1, Type 0, BuildingBlock: AZAVOO_clean_sbu_0, # of connection points: 4
#     Node 2, Type 0, BuildingBlock: AZAVOO_clean_sbu_0, # of connection points: 4
#     Node 3, Type 0, BuildingBlock: AZAVOO_clean_sbu_0, # of connection points: 4
#     Node 4, Type 0, BuildingBlock: AZAVOO_clean_sbu_0, # of connection points: 4
#     Node 5, Type 0, BuildingBlock: AZAVOO_clean_sbu_0, # of connection points: 4
#     Node 6, Type 0, BuildingBlock: AZAVOO_clean_sbu_0, # of connection points: 4
#     Node 7, Type 0, BuildingBlock: AZAVOO_clean_sbu_0, # of connection points: 4
#     Node 8, Type 0, BuildingBlock: AZAVOO_clean_sbu_0, # of connection points: 4
#     Node 9, Type 0, BuildingBlock: AZAVOO_clean_sbu_0, # of connection points: 4
#     Node 10, Type 0, BuildingBlock: AZAVOO_clean_sbu_0, # of connection points: 4
#     Node 11, Type 0, BuildingBlock: AZAVOO_clean_sbu_0, # of connection points: 4
#     Node 12, Type 0, BuildingBlock: AZAVOO_clean_sbu_0, # of connection points: 4
#     Node 13, Type 0, BuildingBlock: AZAVOO_clean_sbu_0, # of connection points: 4
#     Node 14, Type 0, BuildingBlock: AZAVOO_clean_sbu_0, # of connection points: 4
#     Node 15, Type 0, BuildingBlock: AZAVOO_clean_sbu_0, # of connection points: 4
#     Node 16, Type 0, BuildingBlock: AZAVOO_clean_sbu_0, # of connection points: 4
#     Node 17, Type 0, BuildingBlock: AZAVOO_clean_sbu_0, # of connection points: 4
#     Node 18, Type 0, BuildingBlock: AZAVOO_clean_sbu_0, # of connection points: 4
#     Node 19, Type 0, BuildingBlock: AZAVOO_clean_sbu_0, # of connection points: 4
#     Node 20, Type 0, BuildingBlock: AZAVOO_clean_sbu_0, # of connection points: 4
#     Node 21, Type 0, BuildingBlock: AZAVOO_clean_sbu_0, # of connection points: 4
#     Node 22, Type 0, BuildingBlock: AZAVOO_clean_sbu_0, # of connection points: 4
#     Node 23, Type 0, BuildingBlock: AZAVOO_clean_sbu_0, # of connection points: 4
#     Node 24, Type 0, BuildingBlock: AZAVOO_clean_sbu_0, # of connection points: 4
#     Node 25, Type 0, BuildingBlock: AZAVOO_clean_sbu_0, # of connection points: 4
#     Node 26, Type 0, BuildingBlock: AZAVOO_clean_sbu_0, # of connection points: 4
#     Node 27, Type 0, BuildingBlock: AZAVOO_clean_sbu_0, # of connection points: 4
#     Node 28, Type 0, BuildingBlock: AZAVOO_clean_sbu_0, # of connection points: 4
#     Node 29, Type 0, BuildingBlock: AZAVOO_clean_sbu_0, # of connection points: 4
#     Node 30, Type 0, BuildingBlock: AZAVOO_clean_sbu_0, # of connection points: 4
#     Node 31, Type 0, BuildingBlock: AZAVOO_clean_sbu_0, # of connection points: 4
#     Edge 32, Type (0, 0), BuildingBlock: XUDNAN_clean_linker_2, # of connection points: 2
#     Edge 33, Type (0, 0), BuildingBlock: XUDNAN_clean_linker_2, # of connection points: 2
#     Edge 34, Type (0, 0), BuildingBlock: XUDNAN_clean_linker_2, # of connection points: 2
#     Edge 35, Type (0, 0), BuildingBlock: XUDNAN_clean_linker_2, # of connection points: 2
#     Edge 36, Type (0, 0), BuildingBlock: XUDNAN_clean_linker_2, # of connection points: 2
#     Edge 37, Type (0, 0), BuildingBlock: XUDNAN_clean_linker_2, # of connection points: 2
#     Edge 38, Type (0, 0), BuildingBlock: XUDNAN_clean_linker_2, # of connection points: 2
#     Edge 39, Type (0, 0), BuildingBlock: XUDNAN_clean_linker_2, # of connection points: 2
#     Edge 40, Type (0, 0), BuildingBlock: XUDNAN_clean_linker_2, # of connection points: 2
#     Edge 41, Type (0, 0), BuildingBlock: XUDNAN_clean_linker_2, # of connection points: 2
#     Edge 42, Type (0, 0), BuildingBlock: XUDNAN_clean_linker_2, # of connection points: 2
#     Edge 43, Type (0, 0), BuildingBlock: XUDNAN_clean_linker_2, # of connection points: 2
#     Edge 44, Type (0, 0), BuildingBlock: XUDNAN_clean_linker_2, # of connection points: 2
#     Edge 45, Type (0, 0), BuildingBlock: XUDNAN_clean_linker_2, # of connection points: 2
#     Edge 46, Type (0, 0), BuildingBlock: XUDNAN_clean_linker_2, # of connection points: 2
#     Edge 47, Type (0, 0), BuildingBlock: XUDNAN_clean_linker_2, # of connection points: 2
#     Edge 48, Type (0, 0), BuildingBlock: XUDNAN_clean_linker_2, # of connection points: 2
#     Edge 49, Type (0, 0), BuildingBlock: XUDNAN_clean_linker_2, # of connection points: 2
#     Edge 50, Type (0, 0), BuildingBlock: XUDNAN_clean_linker_2, # of connection points: 2
#     Edge 51, Type (0, 0), BuildingBlock: XUDNAN_clean_linker_2, # of connection points: 2
#     Edge 52, Type (0, 0), BuildingBlock: XUDNAN_clean_linker_2, # of connection points: 2
#     Edge 53, Type (0, 0), BuildingBlock: XUDNAN_clean_linker_2, # of connection points: 2
#     Edge 54, Type (0, 0), BuildingBlock: XUDNAN_clean_linker_2, # of connection points: 2
#     Edge 55, Type (0, 0), BuildingBlock: XUDNAN_clean_linker_2, # of connection points: 2
#     Edge 56, Type (0, 0), BuildingBlock: XUDNAN_clean_linker_2, # of connection points: 2
#     Edge 57, Type (0, 0), BuildingBlock: XUDNAN_clean_linker_2, # of connection points: 2
#     Edge 58, Type (0, 0), BuildingBlock: XUDNAN_clean_linker_2, # of connection points: 2
#     Edge 59, Type (0, 0), BuildingBlock: XUDNAN_clean_linker_2, # of connection points: 2
#     Edge 60, Type (0, 0), BuildingBlock: XUDNAN_clean_linker_2, # of connection points: 2
#     Edge 61, Type (0, 0), BuildingBlock: XUDNAN_clean_linker_2, # of connection points: 2
#     Edge 62, Type (0, 0), BuildingBlock: XUDNAN_clean_linker_2, # of connection points: 2
#     Edge 63, Type (0, 0), BuildingBlock: XUDNAN_clean_linker_2, # of connection points: 2
#     Edge 64, Type (0, 0), BuildingBlock: XUDNAN_clean_linker_2, # of connection points: 2
#     Edge 65, Type (0, 0), BuildingBlock: XUDNAN_clean_linker_2, # of connection points: 2
#     Edge 66, Type (0, 0), BuildingBlock: XUDNAN_clean_linker_2, # of connection points: 2
#     Edge 67, Type (0, 0), BuildingBlock: XUDNAN_clean_linker_2, # of connection points: 2
#     Edge 68, Type (0, 0), BuildingBlock: XUDNAN_clean_linker_2, # of connection points: 2
#     Edge 69, Type (0, 0), BuildingBlock: XUDNAN_clean_linker_2, # of connection points: 2
#     Edge 70, Type (0, 0), BuildingBlock: XUDNAN_clean_linker_2, # of connection points: 2
#     Edge 71, Type (0, 0), BuildingBlock: XUDNAN_clean_linker_2, # of connection points: 2
#     Edge 72, Type (0, 0), BuildingBlock: XUDNAN_clean_linker_2, # of connection points: 2
#     Edge 73, Type (0, 0), BuildingBlock: XUDNAN_clean_linker_2, # of connection points: 2
#     Edge 74, Type (0, 0), BuildingBlock: XUDNAN_clean_linker_2, # of connection points: 2
#     Edge 75, Type (0, 0), BuildingBlock: XUDNAN_clean_linker_2, # of connection points: 2
#     Edge 76, Type (0, 0), BuildingBlock: XUDNAN_clean_linker_2, # of connection points: 2
#     Edge 77, Type (0, 0), BuildingBlock: XUDNAN_clean_linker_2, # of connection points: 2
#     Edge 78, Type (0, 0), BuildingBlock: XUDNAN_clean_linker_2, # of connection points: 2
#     Edge 79, Type (0, 0), BuildingBlock: XUDNAN_clean_linker_2, # of connection points: 2
#     Edge 80, Type (0, 0), BuildingBlock: XUDNAN_clean_linker_2, # of connection points: 2
#     Edge 81, Type (0, 0), BuildingBlock: XUDNAN_clean_linker_2, # of connection points: 2
#     Edge 82, Type (0, 0), BuildingBlock: XUDNAN_clean_linker_2, # of connection points: 2
#     Edge 83, Type (0, 0), BuildingBlock: XUDNAN_clean_linker_2, # of connection points: 2
#     Edge 84, Type (0, 0), BuildingBlock: XUDNAN_clean_linker_2, # of connection points: 2
#     Edge 85, Type (0, 0), BuildingBlock: XUDNAN_clean_linker_2, # of connection points: 2
#     Edge 86, Type (0, 0), BuildingBlock: XUDNAN_clean_linker_2, # of connection points: 2
#     Edge 87, Type (0, 0), BuildingBlock: XUDNAN_clean_linker_2, # of connection points: 2
#     Edge 88, Type (0, 0), BuildingBlock: XUDNAN_clean_linker_2, # of connection points: 2
#     Edge 89, Type (0, 0), BuildingBlock: XUDNAN_clean_linker_2, # of connection points: 2
#     Edge 90, Type (0, 0), BuildingBlock: XUDNAN_clean_linker_2, # of connection points: 2
#     Edge 91, Type (0, 0), BuildingBlock: XUDNAN_clean_linker_2, # of connection points: 2
#     Edge 92, Type (0, 0), BuildingBlock: XUDNAN_clean_linker_2, # of connection points: 2
#     Edge 93, Type (0, 0), BuildingBlock: XUDNAN_clean_linker_2, # of connection points: 2
#     Edge 94, Type (0, 0), BuildingBlock: XUDNAN_clean_linker_2, # of connection points: 2
#     Edge 95, Type (0, 0), BuildingBlock: XUDNAN_clean_linker_2, # of connection points: 2
# Relax obj value: 0.100
# Max RMSD: 0.122
# Mean RMSD: 0.122
data_MOF--net-umq--node1-AZAVOO_clean_sbu_0--edge1-XUDNAN_clean_linker_2
_symmetry_space_group_name_H-M    P1
_symmetry_Int_Tables_number       1
_symmetry_cell_setting            triclinic
loop_
_symmetry_equiv_pos_as_xyz
'x, y, z'
_cell_length_a     65.50518
_cell_length_b     65.476065
_cell_length_c     45.550345
_cell_angle_alpha  89.982949
_cell_angle_beta   90.039441
_cell_angle_gamma 89.976793
loop_
_atom_site_label
_atom_site_type_symbol
_atom_site_fract_x
_atom_site_fract_y
_atom_site_fract_z
_atom_type_partial_charge
Mg0 Mg 0.22304 0.08502 0.18985 0.0
O1 O 0.24927 0.1082 0.18957 0.0
O2 O 0.25695 0.11582 0.23603 0.0
Mg3 Mg 0.23576 0.09818 0.26622 0.0
C4 C 0.25995 0.11778 0.20851 0.0
C5 C 0.22942 0.09384 0.12322 0.0
O6 O 0.22657 0.11239 0.13343 0.0
O7 O 0.24518 0.05973 0.20425 0.0
O8 O 0.25074 0.06865 0.251 0.0
O9 O 0.19953 0.11026 0.19177 0.0
O10 O 0.2132 0.09564 0.23064 0.0
C11 C 0.25347 0.05662 0.2293 0.0
C12 C 0.20113 0.10924 0.22007 0.0
O13 O 0.22886 0.07887 0.14102 0.0
Mg14 Mg 0.89458 0.21873 0.15499 0.0
O15 O 0.86977 0.2432 0.16129 0.0
O16 O 0.85989 0.24209 0.2082 0.0
Mg17 Mg 0.87793 0.21753 0.23207 0.0
C18 C 0.8587 0.24964 0.18243 0.0
C19 C 0.91946 0.23437 0.0992 0.0
O20 O 0.93526 0.23096 0.1163 0.0
O21 O 0.91797 0.23901 0.17858 0.0
O22 O 0.90698 0.2363 0.22494 0.0
O23 O 0.87086 0.19531 0.14562 0.0
O24 O 0.88259 0.20177 0.19008 0.0
C25 C 0.91958 0.24313 0.20594 0.0
C26 C 0.86997 0.19198 0.17361 0.0
O27 O 0.90158 0.23164 0.10929 0.0
Mg28 Mg 0.74886 0.89259 0.15849 0.0
O29 O 0.72743 0.86906 0.18054 0.0
O30 O 0.73856 0.8662 0.22685 0.0
Mg31 Mg 0.76555 0.8871 0.23525 0.0
C32 C 0.72626 0.8613 0.20627 0.0
C33 C 0.73845 0.90178 0.0953 0.0
O34 O 0.75698 0.90886 0.09964 0.0
O35 O 0.73189 0.91857 0.18233 0.0
O36 O 0.7442 0.91404 0.22768 0.0
O37 O 0.77042 0.86716 0.14802 0.0
O38 O 0.77192 0.8856 0.18849 0.0
C39 C 0.73305 0.92375 0.2094 0.0
C40 C 0.77819 0.87008 0.17381 0.0
O41 O 0.72892 0.8942 0.11709 0.0
Mg42 Mg 0.08893 0.75679 0.17923 0.0
O43 O 0.10637 0.72721 0.19043 0.0
O44 O 0.10883 0.72665 0.23959 0.0
Mg45 Mg 0.096 0.75585 0.25953 0.0
C46 C 0.11178 0.71859 0.21441 0.0
C47 C 0.08397 0.76011 0.11255 0.0
O48 O 0.0882 0.7788 0.12109 0.0
O49 O 0.05929 0.74223 0.19707 0.0
O50 O 0.06471 0.74489 0.24543 0.0
O51 O 0.11869 0.77416 0.17636 0.0
O52 O 0.10075 0.77005 0.21691 0.0
C53 C 0.05339 0.74011 0.22371 0.0
C54 C 0.11718 0.77633 0.2045 0.0
O55 O 0.08277 0.74615 0.13195 0.0
Mg56 Mg 0.22626 0.8924 0.343 0.0
O57 O 0.25365 0.8708 0.33962 0.0
O58 O 0.25614 0.86111 0.2927 0.0
Mg59 Mg 0.23049 0.87593 0.26614 0.0
C60 C 0.26246 0.86073 0.31924 0.0
C61 C 0.23155 0.91978 0.39846 0.0
O62 O 0.22329 0.93286 0.38007 0.0
O63 O 0.245 0.91755 0.32115 0.0
O64 O 0.24478 0.9074 0.27417 0.0
O65 O 0.20578 0.86562 0.35015 0.0
O66 O 0.21277 0.8787 0.3066 0.0
C67 C 0.2495 0.92028 0.29412 0.0
C68 C 0.20415 0.86462 0.32185 0.0
O69 O 0.23573 0.90189 0.38941 0.0
Mg70 Mg 0.07988 0.22527 0.34136 0.0
O71 O 0.10281 0.25096 0.33175 0.0
O72 O 0.1118 0.24807 0.28459 0.0
Mg73 Mg 0.09521 0.221 0.26408 0.0
C74 C 0.113 0.25698 0.30946 0.0
C75 C 0.06975 0.22624 0.40613 0.0
O76 O 0.07068 0.20682 0.399 0.0
O77 O 0.05502 0.24274 0.31663 0.0
O78 O 0.06448 0.23742 0.27008 0.0
O79 O 0.10533 0.20436 0.35277 0.0
O80 O 0.09285 0.20742 0.30796 0.0
C81 C 0.05201 0.2446 0.28901 0.0
C82 C 0.10639 0.19968 0.32522 0.0
O83 O 0.07203 0.23948 0.38593 0.0
Mg84 Mg 0.75482 0.08327 0.32196 0.0
O85 O 0.73077 0.10881 0.31778 0.0
O86 O 0.72561 0.11534 0.27025 0.0
Mg87 Mg 0.74489 0.09344 0.24342 0.0
C88 C 0.72206 0.11887 0.29729 0.0
C89 C 0.74219 0.09473 0.38754 0.0
O90 O 0.73947 0.11274 0.37553 0.0
O91 O 0.73088 0.0591 0.30909 0.0
O92 O 0.72691 0.06649 0.26143 0.0
O93 O 0.78052 0.10632 0.31768 0.0
O94 O 0.76613 0.09048 0.28045 0.0
C95 C 0.72273 0.0557 0.28398 0.0
C96 C 0.77916 0.10362 0.28958 0.0
O97 O 0.74831 0.07991 0.3717 0.0
Mg98 Mg 0.88806 0.76255 0.32979 0.0
O99 O 0.8632 0.73766 0.3296 0.0
O100 O 0.85539 0.73178 0.28239 0.0
Mg101 Mg 0.87467 0.75176 0.25247 0.0
C102 C 0.85299 0.72842 0.30974 0.0
C103 C 0.91284 0.7562 0.38853 0.0
O104 O 0.92795 0.75902 0.37001 0.0
O105 O 0.91261 0.73977 0.3143 0.0
O106 O 0.90359 0.73573 0.26732 0.0
O107 O 0.86342 0.78682 0.32882 0.0
O108 O 0.87725 0.77299 0.28938 0.0
C109 C 0.91556 0.73213 0.28878 0.0
C110 C 0.86363 0.78473 0.30056 0.0
O111 O 0.89462 0.75642 0.3788 0.0
Mg112 Mg 0.74574 0.90437 0.82132 0.0
O113 O 0.72238 0.87959 0.80702 0.0
O114 O 0.72266 0.88024 0.75793 0.0
Mg115 Mg 0.74446 0.90402 0.74045 0.0
C116 C 0.71609 0.873 0.78215 0.0
C117 C 0.71985 0.89535 0.88152 0.0
O118 O 0.70614 0.88637 0.8649 0.0
O119 O 0.72313 0.93019 0.80977 0.0
O120 O 0.72438 0.92857 0.76071 0.0
O121 O 0.77126 0.88128 0.81777 0.0
O122 O 0.76128 0.90121 0.78159 0.0
C123 C 0.71763 0.9365 0.78436 0.0
C124 C 0.77277 0.88658 0.79048 0.0
O125 O 0.73562 0.90323 0.86976 0.0
Mg126 Mg 0.0823 0.75396 0.82922 0.0
O127 O 0.10186 0.7251 0.82466 0.0
O128 O 0.10764 0.7202 0.77681 0.0
Mg129 Mg 0.09222 0.74558 0.75049 0.0
C130 C 0.10987 0.71498 0.80364 0.0
C131 C 0.07891 0.76002 0.89661 0.0
O132 O 0.08436 0.77828 0.88755 0.0
O133 O 0.05372 0.73692 0.81278 0.0
O134 O 0.06071 0.73495 0.76484 0.0
O135 O 0.11082 0.77328 0.83019 0.0
O136 O 0.09437 0.76478 0.78971 0.0
C137 C 0.04868 0.73217 0.78649 0.0
C138 C 0.10994 0.77322 0.80182 0.0
O139 O 0.07611 0.74606 0.87759 0.0
Mg140 Mg 0.21722 0.09527 0.84444 0.0
O141 O 0.24669 0.11191 0.83074 0.0
O142 O 0.24415 0.11624 0.78203 0.0
Mg143 Mg 0.21316 0.10542 0.76536 0.0
C144 C 0.25396 0.11788 0.80616 0.0
C145 C 0.23294 0.10064 0.90838 0.0
O146 O 0.22955 0.11968 0.90073 0.0
O147 O 0.22904 0.06607 0.82259 0.0
O148 O 0.22377 0.07275 0.77497 0.0
O149 O 0.20181 0.12521 0.85222 0.0
O150 O 0.20139 0.10882 0.80993 0.0
C151 C 0.2294 0.06075 0.79556 0.0
C152 C 0.19676 0.12486 0.82476 0.0
O153 O 0.23062 0.08666 0.88927 0.0
Mg154 Mg 0.89564 0.2277 0.82546 0.0
O155 O 0.86653 0.24731 0.81933 0.0
O156 O 0.8603 0.24736 0.77094 0.0
Mg157 Mg 0.88544 0.23105 0.74606 0.0
C158 C 0.8556 0.25226 0.79718 0.0
C159 C 0.91628 0.23959 0.88404 0.0
O160 O 0.93182 0.23781 0.86601 0.0
O161 O 0.91581 0.25426 0.81002 0.0
O162 O 0.90902 0.25424 0.76189 0.0
O163 O 0.8764 0.19892 0.82438 0.0
O164 O 0.89068 0.21301 0.78562 0.0
C165 C 0.91853 0.26134 0.78413 0.0
C166 C 0.87909 0.19909 0.79622 0.0
O167 O 0.89833 0.23699 0.87398 0.0
Mg168 Mg 0.75515 0.09053 0.66677 0.0
O169 O 0.73435 0.11825 0.67277 0.0
O170 O 0.73575 0.12829 0.71955 0.0
Mg171 Mg 0.75852 0.10766 0.74347 0.0
C172 C 0.72882 0.13014 0.69348 0.0
C173 C 0.75117 0.07783 0.60065 0.0
O174 O 0.76964 0.07104 0.60628 0.0
O175 O 0.73197 0.07043 0.69101 0.0
O176 O 0.73722 0.08019 0.73751 0.0
O177 O 0.78155 0.11076 0.6568 0.0
O178 O 0.77368 0.10055 0.70156 0.0
C179 C 0.72859 0.06867 0.71857 0.0
C180 C 0.78507 0.11149 0.68475 0.0
O181 O 0.74069 0.08542 0.6215 0.0
Mg182 Mg 0.88887 0.76966 0.66046 0.0
O183 O 0.86419 0.74493 0.66575 0.0
O184 O 0.85345 0.74608 0.71229 0.0
Mg185 Mg 0.87025 0.77127 0.73669 0.0
C186 C 0.85293 0.73834 0.68659 0.0
C187 C 0.91517 0.75832 0.60433 0.0
O188 O 0.92996 0.76531 0.62102 0.0
O189 O 0.91177 0.74946 0.68574 0.0
O190 O 0.89962 0.75291 0.73137 0.0
O191 O 0.86537 0.79326 0.64964 0.0
O192 O 0.87575 0.78663 0.6947 0.0
C193 C 0.91275 0.74582 0.71334 0.0
C194 C 0.86375 0.79662 0.67753 0.0
O195 O 0.89725 0.75703 0.61492 0.0
Mg196 Mg 0.21705 0.89424 0.66835 0.0
O197 O 0.2458 0.87455 0.67464 0.0
O198 O 0.24632 0.86449 0.72153 0.0
Mg199 Mg 0.21859 0.87734 0.74531 0.0
C200 C 0.25411 0.86486 0.69585 0.0
C201 C 0.22462 0.92184 0.61287 0.0
O202 O 0.21518 0.93515 0.62964 0.0
O203 O 0.23226 0.92106 0.69241 0.0
O204 O 0.23151 0.9094 0.73863 0.0
O205 O 0.19887 0.86597 0.65924 0.0
O206 O 0.20267 0.87957 0.70323 0.0
C207 C 0.23587 0.92322 0.71986 0.0
C208 C 0.19572 0.86498 0.68727 0.0
O209 O 0.22845 0.90416 0.62305 0.0
Mg210 Mg 0.08391 0.24003 0.68731 0.0
O211 O 0.10666 0.26647 0.69028 0.0
O212 O 0.11398 0.27148 0.73772 0.0
Mg213 Mg 0.09623 0.24836 0.76524 0.0
C214 C 0.11617 0.27596 0.71061 0.0
C215 C 0.07491 0.23322 0.62126 0.0
O216 O 0.07584 0.21443 0.63132 0.0
O217 O 0.05833 0.2609 0.70399 0.0
O218 O 0.06603 0.26307 0.75172 0.0
O219 O 0.10988 0.21759 0.68545 0.0
O220 O 0.09564 0.22849 0.72651 0.0
C221 C 0.05433 0.26701 0.73002 0.0
C222 C 0.10988 0.21824 0.71385 0.0
O223 O 0.07725 0.24793 0.63918 0.0
Mg224 Mg 0.73417 0.57979 0.6774 0.0
O225 O 0.75647 0.60668 0.67965 0.0
O226 O 0.76207 0.61395 0.72685 0.0
Mg227 Mg 0.74384 0.59185 0.75524 0.0
C228 C 0.765 0.61737 0.6996 0.0
C229 C 0.72692 0.5747 0.60948 0.0
O230 O 0.70798 0.57418 0.61895 0.0
O231 O 0.75956 0.55716 0.69092 0.0
O232 O 0.76238 0.56483 0.7386 0.0
O233 O 0.70745 0.60185 0.68126 0.0
O234 O 0.72257 0.58702 0.71876 0.0
C235 C 0.76719 0.55393 0.71642 0.0
C236 C 0.70909 0.59963 0.70941 0.0
O237 O 0.74129 0.5766 0.62811 0.0
Mg238 Mg 0.40087 0.73317 0.6901 0.0
O239 O 0.37923 0.76095 0.68955 0.0
O240 O 0.37284 0.76875 0.73638 0.0
Mg241 Mg 0.38935 0.74675 0.7667 0.0
C242 C 0.37046 0.77196 0.70896 0.0
C243 C 0.42552 0.73525 0.63084 0.0
O244 O 0.44039 0.73067 0.64906 0.0
O245 O 0.42813 0.75292 0.70453 0.0
O246 O 0.42019 0.7587 0.75152 0.0
O247 O 0.374 0.7118 0.69166 0.0
O248 O 0.38926 0.72416 0.73096 0.0
C249 C 0.43232 0.76041 0.72977 0.0
C250 C 0.37472 0.71339 0.71998 0.0
O251 O 0.40761 0.73773 0.641 0.0
Mg252 Mg 0.26889 0.39499 0.65646 0.0
O253 O 0.24123 0.37587 0.66923 0.0
O254 O 0.24266 0.36844 0.71703 0.0
Mg255 Mg 0.27147 0.38353 0.73531 0.0
C256 C 0.23386 0.36734 0.69206 0.0
C257 C 0.26287 0.40877 0.59049 0.0
O258 O 0.28185 0.41482 0.59384 0.0
O259 O 0.25417 0.42274 0.67806 0.0
O260 O 0.25756 0.41504 0.72568 0.0
O261 O 0.2864 0.36635 0.64886 0.0
O262 O 0.28542 0.38249 0.69144 0.0
C263 C 0.25191 0.42715 0.70521 0.0
C264 C 0.29094 0.36673 0.67653 0.0
O265 O 0.25349 0.40112 0.6123 0.0
Mg266 Mg 0.58742 0.2679 0.66826 0.0
O267 O 0.61376 0.24519 0.67322 0.0
O268 O 0.62364 0.24543 0.72018 0.0
Mg269 Mg 0.60476 0.26926 0.74494 0.0
C270 C 0.62516 0.23868 0.69397 0.0
C271 C 0.5751 0.26794 0.60331 0.0
O272 O 0.57362 0.2872 0.61115 0.0
O273 O 0.56615 0.24582 0.69208 0.0
O274 O 0.57575 0.24996 0.7389 0.0
O275 O 0.60912 0.2931 0.65849 0.0
O276 O 0.59895 0.2852 0.70326 0.0
C277 C 0.56392 0.24229 0.7195 0.0
C278 C 0.61035 0.29619 0.68651 0.0
O279 O 0.57999 0.25484 0.62272 0.0
Mg280 Mg 0.73359 0.40119 0.82326 0.0
O281 O 0.75125 0.371 0.81654 0.0
O282 O 0.74919 0.36392 0.76852 0.0
Mg283 Mg 0.73352 0.38971 0.74402 0.0
C284 C 0.75475 0.35939 0.79456 0.0
C285 C 0.73746 0.39087 0.89028 0.0
O286 O 0.72498 0.37636 0.88166 0.0
O287 O 0.76069 0.41997 0.80537 0.0
O288 O 0.7583 0.41219 0.75767 0.0
O289 O 0.7037 0.38351 0.82422 0.0
O290 O 0.71734 0.39686 0.7845 0.0
C291 C 0.76681 0.42179 0.77877 0.0
C292 C 0.70312 0.38616 0.79607 0.0
O293 O 0.74454 0.4032 0.8712 0.0
Mg294 Mg 0.60226 0.72271 0.84423 0.0
O295 O 0.62357 0.74708 0.82388 0.0
O296 O 0.62468 0.7392 0.77604 0.0
Mg297 Mg 0.60681 0.71034 0.76568 0.0
C298 C 0.62952 0.75068 0.79762 0.0
C299 C 0.58283 0.74389 0.90067 0.0
O300 O 0.56568 0.74008 0.88674 0.0
O301 O 0.57494 0.73906 0.82278 0.0
O302 O 0.57803 0.72854 0.77627 0.0
O303 O 0.62845 0.70152 0.85269 0.0
O304 O 0.61079 0.70196 0.81153 0.0
C305 C 0.5685 0.73833 0.79626 0.0
C306 C 0.62593 0.69477 0.82626 0.0
O307 O 0.59972 0.74002 0.88804 0.0
Mg308 Mg 0.26122 0.58961 0.83819 0.0
O309 O 0.23298 0.61003 0.83202 0.0
O310 O 0.23355 0.62165 0.78589 0.0
Mg311 Mg 0.26164 0.60924 0.76255 0.0
C312 C 0.22522 0.62051 0.81116 0.0
C313 C 0.24584 0.59134 0.90233 0.0
O314 O 0.24832 0.61076 0.89601 0.0
O315 O 0.24596 0.56415 0.81159 0.0
O316 O 0.24808 0.57712 0.7662 0.0
O317 O 0.27999 0.61669 0.85063 0.0
O318 O 0.27664 0.60552 0.8052 0.0
C319 C 0.24301 0.56285 0.78388 0.0
C320 C 0.28378 0.61902 0.82295 0.0
O321 O 0.24888 0.57813 0.88229 0.0
Mg322 Mg 0.39406 0.24942 0.82454 0.0
O323 O 0.37417 0.22059 0.8172 0.0
O324 O 0.37134 0.21745 0.76832 0.0
Mg325 Mg 0.38668 0.24382 0.74471 0.0
C326 C 0.36786 0.21111 0.79435 0.0
C327 C 0.41796 0.2433 0.88296 0.0
O328 O 0.43252 0.24935 0.86513 0.0
O329 O 0.4226 0.23205 0.80868 0.0
O330 O 0.41703 0.23082 0.76023 0.0
O331 O 0.36608 0.2696 0.82503 0.0
O332 O 0.38334 0.26128 0.78521 0.0
C333 C 0.42803 0.22702 0.7827 0.0
C334 C 0.3678 0.27014 0.79674 0.0
O335 O 0.39998 0.24112 0.87284 0.0
Mg336 Mg 0.25912 0.38995 0.31817 0.0
O337 O 0.2309 0.36938 0.3135 0.0
O338 O 0.22931 0.35789 0.26741 0.0
Mg339 Mg 0.25581 0.37183 0.24181 0.0
C340 C 0.22232 0.35873 0.29354 0.0
C341 C 0.24037 0.38838 0.3818 0.0
O342 O 0.2359 0.36981 0.37307 0.0
O343 O 0.24223 0.41561 0.29433 0.0
O344 O 0.24208 0.40369 0.24826 0.0
O345 O 0.27859 0.36261 0.32709 0.0
O346 O 0.27284 0.37528 0.28289 0.0
C347 C 0.23783 0.41752 0.26708 0.0
C348 C 0.28097 0.36133 0.29893 0.0
O349 O 0.2492 0.40056 0.36413 0.0
Mg350 Mg 0.58905 0.26462 0.32483 0.0
O351 O 0.61474 0.24082 0.32165 0.0
O352 O 0.62718 0.24229 0.27604 0.0
Mg353 Mg 0.61031 0.26675 0.25017 0.0
C354 C 0.62705 0.23464 0.30181 0.0
C355 C 0.5747 0.26513 0.38834 0.0
O356 O 0.57396 0.28428 0.37977 0.0
O357 O 0.56792 0.24371 0.29814 0.0
O358 O 0.58126 0.2475 0.25324 0.0
O359 O 0.61142 0.28881 0.33713 0.0
O360 O 0.60252 0.28203 0.29146 0.0
C361 C 0.56783 0.24005 0.27052 0.0
C362 C 0.61374 0.29227 0.30936 0.0
O363 O 0.57957 0.25158 0.36957 0.0
Mg364 Mg 0.73044 0.57813 0.32533 0.0
O365 O 0.74946 0.60747 0.32306 0.0
O366 O 0.7509 0.6174 0.27605 0.0
Mg367 Mg 0.7354 0.5934 0.24768 0.0
C368 C 0.75499 0.61997 0.30315 0.0
C369 C 0.72539 0.57306 0.39318 0.0
O370 O 0.70629 0.57259 0.3844 0.0
O371 O 0.75772 0.55909 0.30876 0.0
O372 O 0.75846 0.56927 0.26188 0.0
O373 O 0.70158 0.59726 0.32477 0.0
O374 O 0.71646 0.58491 0.28526 0.0
C375 C 0.76533 0.55831 0.28287 0.0
C376 C 0.70232 0.59597 0.29643 0.0
O377 O 0.73942 0.57481 0.374 0.0
Mg378 Mg 0.39803 0.71968 0.3585 0.0
O379 O 0.37781 0.74784 0.35079 0.0
O380 O 0.37034 0.74864 0.30289 0.0
Mg381 Mg 0.38558 0.72181 0.27979 0.0
C382 C 0.36894 0.75605 0.32875 0.0
C383 C 0.42372 0.72805 0.4153 0.0
O384 O 0.4379 0.72058 0.39797 0.0
O385 O 0.42524 0.73636 0.33793 0.0
O386 O 0.41699 0.73529 0.29028 0.0
O387 O 0.3699 0.70076 0.36423 0.0
O388 O 0.38533 0.70552 0.32172 0.0
C389 C 0.4293 0.74 0.31096 0.0
C390 C 0.37004 0.69831 0.33603 0.0
O391 O 0.40577 0.73047 0.40518 0.0
Mg392 Mg 0.25833 0.59802 0.17686 0.0
O393 O 0.22839 0.61431 0.18944 0.0
O394 O 0.22695 0.61327 0.23862 0.0
Mg395 Mg 0.25593 0.5994 0.25768 0.0
C396 C 0.21925 0.61788 0.21371 0.0
C397 C 0.24914 0.57733 0.11605 0.0
O398 O 0.25547 0.56139 0.13104 0.0
O399 O 0.24386 0.56745 0.19007 0.0
O400 O 0.24538 0.56896 0.23906 0.0
O401 O 0.27584 0.62776 0.17886 0.0
O402 O 0.27092 0.60709 0.21646 0.0
C403 C 0.24114 0.55945 0.21538 0.0
C404 C 0.27768 0.62417 0.20668 0.0
O405 O 0.24811 0.5946 0.1288 0.0
Mg406 Mg 0.39857 0.2539 0.1576 0.0
O407 O 0.37824 0.22575 0.16509 0.0
O408 O 0.3744 0.22288 0.21375 0.0
Mg409 Mg 0.39129 0.24841 0.2374 0.0
C410 C 0.37086 0.21673 0.18762 0.0
C411 C 0.42159 0.24624 0.09835 0.0
O412 O 0.43686 0.25184 0.11523 0.0
O413 O 0.42687 0.23611 0.17324 0.0
O414 O 0.42157 0.23556 0.22164 0.0
O415 O 0.37054 0.2738 0.15685 0.0
O416 O 0.38786 0.26605 0.19695 0.0
C417 C 0.43257 0.23155 0.19929 0.0
C418 C 0.37201 0.27425 0.18518 0.0
O419 O 0.40381 0.24503 0.10941 0.0
Mg420 Mg 0.7336 0.40344 0.17349 0.0
O421 O 0.75536 0.37609 0.17532 0.0
O422 O 0.76003 0.36784 0.22239 0.0
Mg423 Mg 0.74134 0.38931 0.25107 0.0
C424 C 0.76346 0.36495 0.19514 0.0
C425 C 0.73597 0.39414 0.10623 0.0
O426 O 0.72606 0.37802 0.11583 0.0
O427 O 0.75919 0.4251 0.18917 0.0
O428 O 0.76063 0.41636 0.23661 0.0
O429 O 0.70619 0.38222 0.17507 0.0
O430 O 0.72102 0.3955 0.21395 0.0
C431 C 0.76622 0.42762 0.21519 0.0
C432 C 0.70727 0.3837 0.20337 0.0
O433 O 0.74154 0.40767 0.12463 0.0
Mg434 Mg 0.59166 0.72403 0.17901 0.0
O435 O 0.61585 0.74749 0.19457 0.0
O436 O 0.62223 0.73952 0.2415 0.0
Mg437 Mg 0.60375 0.71212 0.2561 0.0
C438 C 0.62512 0.75069 0.2189 0.0
C439 C 0.59673 0.73943 0.1137 0.0
O440 O 0.58432 0.74317 0.13556 0.0
O441 O 0.56683 0.74093 0.2053 0.0
O442 O 0.57532 0.73181 0.25107 0.0
O443 O 0.61605 0.70179 0.16589 0.0
O444 O 0.60232 0.70297 0.21001 0.0
C445 C 0.56382 0.74131 0.23305 0.0
C446 C 0.61565 0.69512 0.19264 0.0
O447 O 0.585 0.74262 0.13562 0.0
H448 H 0.3521 0.19464 0.23061 0.0
H449 H 0.35611 0.20062 0.13582 0.0
H450 H 0.32886 0.17472 0.13031 0.0
H451 H 0.34157 0.13998 0.23285 0.0
H452 H 0.32421 0.14266 0.26329 0.0
H453 H 0.3452 0.16019 0.25921 0.0
H454 H 0.31981 0.19059 0.26032 0.0
H455 H 0.29874 0.17318 0.26408 0.0
H456 H 0.29905 0.19133 0.23433 0.0
H457 H 0.29928 0.14968 0.1358 0.0
H458 H 0.271 0.12721 0.1517 0.0
H459 H 0.2869 0.13886 0.24276 0.0
C460 C 0.34757 0.19034 0.2086 0.0
C461 C 0.35631 0.19967 0.18365 0.0
C462 C 0.34972 0.19362 0.15529 0.0
C463 C 0.33423 0.17895 0.15194 0.0
C464 C 0.3256 0.17048 0.17714 0.0
C465 C 0.33218 0.17589 0.20489 0.0
C466 C 0.31993 0.16541 0.22856 0.0
C467 C 0.33354 0.15121 0.24706 0.0
C468 C 0.30872 0.18106 0.24795 0.0
C469 C 0.30518 0.15341 0.20987 0.0
C470 C 0.30867 0.15638 0.18026 0.0
C471 C 0.29652 0.14714 0.15893 0.0
C472 C 0.28047 0.13445 0.16818 0.0
C473 C 0.2767 0.13125 0.1985 0.0
C474 C 0.28931 0.14091 0.21943 0.0
H475 H 0.83515 0.2691 0.22328 0.0
H476 H 0.84973 0.26901 0.13026 0.0
H477 H 0.82619 0.29811 0.12278 0.0
H478 H 0.78182 0.28179 0.21596 0.0
H479 H 0.78176 0.29772 0.24823 0.0
H480 H 0.79917 0.27649 0.24575 0.0
H481 H 0.82965 0.30089 0.25523 0.0
H482 H 0.81235 0.32219 0.25768 0.0
H483 H 0.83316 0.32282 0.23183 0.0
H484 H 0.80127 0.32785 0.12604 0.0
H485 H 0.77772 0.35577 0.13984 0.0
H486 H 0.78044 0.33593 0.23077 0.0
C487 C 0.83336 0.27504 0.20123 0.0
C488 C 0.84428 0.2667 0.17734 0.0
C489 C 0.84152 0.27511 0.14892 0.0
C490 C 0.82817 0.29163 0.14445 0.0
C491 C 0.81775 0.29952 0.16861 0.0
C492 C 0.82023 0.29146 0.19642 0.0
C493 C 0.80775 0.30292 0.21892 0.0
C494 C 0.79167 0.28889 0.23303 0.0
C495 C 0.82156 0.31279 0.24228 0.0
C496 C 0.79792 0.31882 0.1995 0.0
C497 C 0.80373 0.3166 0.17052 0.0
C498 C 0.7966 0.3297 0.14867 0.0
C499 C 0.78324 0.34551 0.15673 0.0
C500 C 0.77726 0.34811 0.18642 0.0
C501 C 0.78472 0.33447 0.20791 0.0
H502 H 0.64242 0.77448 0.17504 0.0
H503 H 0.64026 0.76629 0.26973 0.0
H504 H 0.66449 0.79445 0.27603 0.0
H505 H 0.69588 0.78531 0.17126 0.0
H506 H 0.69366 0.80435 0.14285 0.0
H507 H 0.67517 0.78407 0.14523 0.0
H508 H 0.646 0.81071 0.14809 0.0
H509 H 0.66442 0.83109 0.14572 0.0
H510 H 0.64677 0.83019 0.17604 0.0
H511 H 0.68942 0.82212 0.27295 0.0
H512 H 0.71467 0.84835 0.26048 0.0
H513 H 0.70172 0.83961 0.16769 0.0
C514 C 0.64693 0.77874 0.19707 0.0
C515 C 0.6394 0.7681 0.22186 0.0
C516 C 0.64583 0.77406 0.25033 0.0
C517 C 0.65956 0.79013 0.25422 0.0
C518 C 0.6668 0.80016 0.22946 0.0
C519 C 0.66081 0.7948 0.20142 0.0
C520 C 0.67166 0.80785 0.17869 0.0
C521 C 0.68488 0.7946 0.15831 0.0
C522 C 0.65629 0.82073 0.1611 0.0
C523 C 0.68474 0.82118 0.19847 0.0
C524 C 0.68153 0.81643 0.22764 0.0
C525 C 0.69205 0.82608 0.2502 0.0
C526 C 0.70643 0.84095 0.24282 0.0
C527 C 0.71023 0.84608 0.21308 0.0
C528 C 0.69906 0.83615 0.19062 0.0
H529 H 0.20423 0.64592 0.17426 0.0
H530 H 0.18897 0.61244 0.25347 0.0
H531 H 0.15659 0.63132 0.25717 0.0
H532 H 0.18804 0.69263 0.19912 0.0
H533 H 0.17777 0.7018 0.16483 0.0
H534 H 0.19784 0.68307 0.16478 0.0
H535 H 0.17545 0.65886 0.13337 0.0
H536 H 0.15526 0.67759 0.13326 0.0
H537 H 0.15029 0.65201 0.14601 0.0
H538 H 0.12918 0.65671 0.25717 0.0
H539 H 0.10806 0.68775 0.25363 0.0
H540 H 0.14011 0.70543 0.17431 0.0
C541 C 0.19373 0.64217 0.1918 0.0
C542 C 0.19899 0.62767 0.2135 0.0
C543 C 0.1852 0.62352 0.23665 0.0
C544 C 0.16671 0.63405 0.23881 0.0
C545 C 0.16219 0.64867 0.21762 0.0
C546 C 0.17521 0.65275 0.19446 0.0
C547 C 0.16776 0.67094 0.17679 0.0
C548 C 0.18381 0.68812 0.17638 0.0
C549 C 0.16184 0.66446 0.1455 0.0
C550 C 0.14909 0.67695 0.19447 0.0
C551 C 0.14601 0.66363 0.2176 0.0
C552 C 0.1311 0.66701 0.23879 0.0
C553 C 0.11926 0.68471 0.23669 0.0
C554 C 0.12237 0.69877 0.21355 0.0
C555 C 0.13711 0.6946 0.19176 0.0
H556 H 0.28511 0.83721 0.28171 0.0
H557 H 0.27991 0.85448 0.37348 0.0
H558 H 0.30841 0.83124 0.3857 0.0
H559 H 0.29436 0.78519 0.29363 0.0
H560 H 0.31221 0.78254 0.26377 0.0
H561 H 0.29259 0.80174 0.26208 0.0
H562 H 0.32008 0.8297 0.25419 0.0
H563 H 0.33982 0.81055 0.25584 0.0
H564 H 0.34066 0.8322 0.28024 0.0
H565 H 0.33611 0.80429 0.38816 0.0
H566 H 0.36039 0.77586 0.38063 0.0
H567 H 0.34705 0.77686 0.28721 0.0
C568 C 0.29006 0.83635 0.30437 0.0
C569 C 0.28024 0.84771 0.32661 0.0
C570 C 0.2872 0.84597 0.356 0.0
C571 C 0.3034 0.83284 0.36317 0.0
C572 C 0.31255 0.82168 0.34069 0.0
C573 C 0.30615 0.82339 0.31188 0.0
C574 C 0.31782 0.80909 0.29195 0.0
C575 C 0.30339 0.79373 0.277 0.0
C576 C 0.33034 0.82111 0.26922 0.0
C577 C 0.33151 0.79873 0.31414 0.0
C578 C 0.3284 0.80627 0.3421 0.0
C579 C 0.3388 0.7984 0.36631 0.0
C580 C 0.35255 0.78224 0.36181 0.0
C581 C 0.35569 0.7741 0.33332 0.0
C582 C 0.34515 0.78274 0.30925 0.0
H583 H 0.20248 0.33099 0.25868 0.0
H584 H 0.20102 0.35823 0.34559 0.0
H585 H 0.17196 0.33608 0.35879 0.0
H586 H 0.14759 0.32546 0.25006 0.0
H587 H 0.14987 0.30141 0.23109 0.0
H588 H 0.16991 0.32013 0.22822 0.0
H589 H 0.1962 0.29338 0.24652 0.0
H590 H 0.17626 0.2746 0.24951 0.0
H591 H 0.19189 0.28051 0.28096 0.0
H592 H 0.14396 0.30959 0.36312 0.0
H593 H 0.1192 0.28132 0.35794 0.0
H594 H 0.13921 0.27209 0.26801 0.0
C595 C 0.19597 0.33251 0.28042 0.0
C596 C 0.20414 0.34635 0.30112 0.0
C597 C 0.19516 0.34769 0.32937 0.0
C598 C 0.17858 0.33521 0.33706 0.0
C599 C 0.17111 0.32155 0.31621 0.0
C600 C 0.17947 0.32022 0.28843 0.0
C601 C 0.16907 0.30392 0.2703 0.0
C602 C 0.15848 0.3133 0.24333 0.0
C603 C 0.18426 0.28711 0.26131 0.0
C604 C 0.15369 0.2961 0.29231 0.0
C605 C 0.15501 0.30648 0.31864 0.0
C606 C 0.14268 0.30146 0.34251 0.0
C607 C 0.12869 0.28536 0.33937 0.0
C608 C 0.12718 0.27448 0.31255 0.0
C609 C 0.13983 0.28012 0.28876 0.0
H610 H 0.70742 0.14851 0.26078 0.0
H611 H 0.70418 0.12694 0.35081 0.0
H612 H 0.68022 0.15496 0.36267 0.0
H613 H 0.70585 0.2022 0.27736 0.0
H614 H 0.69055 0.20828 0.24563 0.0
H615 H 0.70767 0.18677 0.2447 0.0
H616 H 0.67759 0.16298 0.23052 0.0
H617 H 0.6604 0.18441 0.23134 0.0
H618 H 0.6552 0.1622 0.25348 0.0
H619 H 0.65559 0.18511 0.36388 0.0
H620 H 0.63283 0.21457 0.3544 0.0
H621 H 0.65317 0.21582 0.26367 0.0
C622 C 0.7017 0.14959 0.28303 0.0
C623 C 0.70771 0.13551 0.30487 0.0
C624 C 0.69992 0.13763 0.33374 0.0
C625 C 0.68627 0.15347 0.34067 0.0
C626 C 0.68068 0.16708 0.31852 0.0
C627 C 0.68823 0.16528 0.29032 0.0
C628 C 0.67983 0.18166 0.27033 0.0
C629 C 0.697 0.19555 0.25884 0.0
C630 C 0.66752 0.17224 0.24493 0.0
C631 C 0.66616 0.19289 0.29157 0.0
C632 C 0.66682 0.18434 0.31929 0.0
C633 C 0.65503 0.19198 0.34228 0.0
C634 C 0.64215 0.20871 0.33668 0.0
C635 C 0.64121 0.21758 0.3083 0.0
C636 C 0.65354 0.20954 0.28566 0.0
H637 H 0.79411 0.62373 0.32274 0.0
H638 H 0.73978 0.65816 0.30067 0.0
H639 H 0.75839 0.69046 0.30928 0.0
H640 H 0.81586 0.66094 0.37821 0.0
H641 H 0.84155 0.65662 0.36551 0.0
H642 H 0.82301 0.63629 0.36388 0.0
H643 H 0.82985 0.63215 0.30817 0.0
H644 H 0.84834 0.65239 0.30963 0.0
H645 H 0.82721 0.654 0.28435 0.0
H646 H 0.7834 0.71831 0.31302 0.0
H647 H 0.8139 0.74028 0.30878 0.0
H648 H 0.85287 0.68835 0.32687 0.0
C649 C 0.78609 0.63814 0.32077 0.0
C650 C 0.76554 0.63874 0.31167 0.0
C651 C 0.7555 0.65764 0.30807 0.0
C652 C 0.7659 0.67597 0.31307 0.0
C653 C 0.78635 0.67502 0.32146 0.0
C654 C 0.7964 0.65661 0.32524 0.0
C655 C 0.81905 0.65989 0.3303 0.0
C656 C 0.82523 0.65303 0.36132 0.0
C657 C 0.83185 0.64897 0.3067 0.0
C658 C 0.8203 0.68291 0.32728 0.0
C659 C 0.80114 0.69133 0.323 0.0
C660 C 0.79842 0.71201 0.31705 0.0
C661 C 0.81575 0.72435 0.3147 0.0
C662 C 0.83545 0.71594 0.31818 0.0
C663 C 0.83782 0.6951 0.32508 0.0
H664 H 0.70197 0.84779 0.82691 0.0
H665 H 0.69622 0.85982 0.73333 0.0
H666 H 0.67323 0.8306 0.72835 0.0
H667 H 0.70249 0.79356 0.82148 0.0
H668 H 0.68738 0.78903 0.8539 0.0
H669 H 0.7028 0.81172 0.85122 0.0
H670 H 0.67095 0.8342 0.86069 0.0
H671 H 0.65544 0.81156 0.8636 0.0
H672 H 0.64875 0.83125 0.83766 0.0
H673 H 0.65303 0.79952 0.73178 0.0
H674 H 0.63427 0.76834 0.74418 0.0
H675 H 0.65133 0.77554 0.83588 0.0
C676 C 0.69565 0.84441 0.80548 0.0
C677 C 0.70105 0.85614 0.78052 0.0
C678 C 0.69252 0.8511 0.75282 0.0
C679 C 0.67937 0.8345 0.74969 0.0
C680 C 0.67469 0.82307 0.77445 0.0
C681 C 0.68233 0.82778 0.80189 0.0
C682 C 0.67493 0.81246 0.8246 0.0
C683 C 0.69298 0.80102 0.83862 0.0
C684 C 0.66173 0.823 0.84802 0.0
C685 C 0.66222 0.79836 0.80539 0.0
C686 C 0.66243 0.80489 0.77657 0.0
C687 C 0.65256 0.79428 0.7543 0.0
C688 C 0.64204 0.77648 0.76161 0.0
C689 C 0.6413 0.76943 0.79102 0.0
C690 C 0.6515 0.7806 0.81325 0.0
H691 H 0.13437 0.69403 0.76555 0.0
H692 H 0.11746 0.69754 0.85758 0.0
H693 H 0.14365 0.6716 0.8694 0.0
H694 H 0.14641 0.63915 0.76378 0.0
H695 H 0.1676 0.64301 0.73918 0.0
H696 H 0.14592 0.65993 0.73781 0.0
H697 H 0.16995 0.69094 0.74542 0.0
H698 H 0.19165 0.67415 0.74707 0.0
H699 H 0.18663 0.6915 0.77692 0.0
H700 H 0.1738 0.64724 0.87145 0.0
H701 H 0.20505 0.62675 0.86346 0.0
H702 H 0.20199 0.6403 0.77021 0.0
C703 C 0.13579 0.68907 0.78814 0.0
C704 C 0.12375 0.69778 0.8106 0.0
C705 C 0.12643 0.69104 0.83994 0.0
C706 C 0.14126 0.6763 0.84688 0.0
C707 C 0.15321 0.66843 0.82423 0.0
C708 C 0.15053 0.67454 0.79544 0.0
C709 C 0.1662 0.66496 0.77537 0.0
C710 C 0.15591 0.65092 0.7527 0.0
C711 C 0.17938 0.68137 0.76033 0.0
C712 C 0.17842 0.65281 0.79743 0.0
C713 C 0.17062 0.65478 0.82546 0.0
C714 C 0.17991 0.64544 0.84954 0.0
C715 C 0.19767 0.63386 0.84478 0.0
C716 C 0.20602 0.63192 0.81621 0.0
C717 C 0.19606 0.64144 0.79234 0.0
H718 H 0.33915 0.20157 0.83635 0.0
H719 H 0.36895 0.17849 0.75808 0.0
H720 H 0.34561 0.14907 0.75741 0.0
H721 H 0.32583 0.14991 0.86907 0.0
H722 H 0.30145 0.15902 0.88193 0.0
H723 H 0.3229 0.17622 0.87992 0.0
H724 H 0.30166 0.20077 0.84742 0.0
H725 H 0.28026 0.18363 0.84911 0.0
H726 H 0.29034 0.19132 0.81399 0.0
H727 H 0.31627 0.1261 0.75946 0.0
H728 H 0.28275 0.10956 0.76552 0.0
H729 H 0.27132 0.14614 0.84313 0.0
C730 C 0.34116 0.18989 0.81978 0.0
C731 C 0.3559 0.19216 0.79737 0.0
C732 C 0.35775 0.17697 0.77544 0.0
C733 C 0.34464 0.16016 0.77496 0.0
C734 C 0.32976 0.15869 0.79663 0.0
C735 C 0.32799 0.17298 0.81884 0.0
C736 C 0.30918 0.16887 0.8374 0.0
C737 C 0.31521 0.16316 0.86895 0.0
C738 C 0.2945 0.18724 0.83693 0.0
C739 C 0.30024 0.15067 0.82125 0.0
C740 C 0.31258 0.14495 0.79804 0.0
C741 C 0.30671 0.13004 0.77797 0.0
C742 C 0.28762 0.12083 0.78147 0.0
C743 C 0.27469 0.12645 0.80495 0.0
C744 C 0.28123 0.14125 0.82545 0.0
H745 H 0.84856 0.28668 0.83032 0.0
H746 H 0.81956 0.24314 0.77202 0.0
H747 H 0.78815 0.26382 0.77204 0.0
H748 H 0.80054 0.30263 0.87144 0.0
H749 H 0.8086 0.32894 0.87273 0.0
H750 H 0.82733 0.30875 0.87345 0.0
H751 H 0.84532 0.32478 0.82839 0.0
H752 H 0.82664 0.34488 0.8274 0.0
H753 H 0.83087 0.32933 0.79532 0.0
H754 H 0.76278 0.29105 0.77095 0.0
H755 H 0.74413 0.3237 0.76933 0.0
H756 H 0.78847 0.35068 0.82845 0.0
C757 C 0.83527 0.28123 0.81854 0.0
C758 C 0.83625 0.26326 0.80144 0.0
C759 C 0.81895 0.25683 0.78536 0.0
C760 C 0.80104 0.26841 0.78537 0.0
C761 C 0.80069 0.28643 0.80154 0.0
C762 C 0.81724 0.29284 0.81801 0.0
C763 C 0.8136 0.3141 0.8303 0.0
C764 C 0.81245 0.31356 0.86399 0.0
C765 C 0.83008 0.32915 0.8197 0.0
C766 C 0.79292 0.31894 0.81694 0.0
C767 C 0.78567 0.30255 0.80088 0.0
C768 C 0.768 0.30384 0.78399 0.0
C769 C 0.75759 0.32245 0.78306 0.0
C770 C 0.76481 0.33952 0.79898 0.0
C771 C 0.78243 0.33764 0.81669 0.0
H772 H 0.6519 0.22054 0.73245 0.0
H773 H 0.63314 0.22041 0.64092 0.0
H774 H 0.65827 0.19327 0.63054 0.0
H775 H 0.70568 0.21196 0.71945 0.0
H776 H 0.70867 0.1957 0.7511 0.0
H777 H 0.68958 0.21552 0.75113 0.0
H778 H 0.66167 0.18869 0.76293 0.0
H779 H 0.68065 0.16881 0.76293 0.0
H780 H 0.65867 0.16682 0.73928 0.0
H781 H 0.68487 0.16552 0.63041 0.0
H782 H 0.71089 0.13919 0.64055 0.0
H783 H 0.71212 0.15766 0.73216 0.0
C784 C 0.65309 0.21491 0.71016 0.0
C785 C 0.64051 0.22266 0.68751 0.0
C786 C 0.64259 0.21476 0.65868 0.0
C787 C 0.65683 0.19935 0.65254 0.0
C788 C 0.66891 0.19202 0.67542 0.0
C789 C 0.6672 0.19956 0.70364 0.0
C790 C 0.68171 0.18883 0.72441 0.0
C791 C 0.69734 0.2039 0.73727 0.0
C792 C 0.66997 0.17762 0.74882 0.0
C793 C 0.69175 0.17394 0.70351 0.0
C794 C 0.68421 0.17606 0.67535 0.0
C795 C 0.69094 0.16376 0.65237 0.0
C796 C 0.70573 0.14884 0.65838 0.0
C797 C 0.71361 0.14632 0.68717 0.0
C798 C 0.70651 0.15918 0.7099 0.0
H799 H 0.78067 0.64705 0.73532 0.0
H800 H 0.77915 0.62706 0.64444 0.0
H801 H 0.80093 0.65635 0.63056 0.0
H802 H 0.77815 0.70081 0.72036 0.0
H803 H 0.79503 0.70747 0.75012 0.0
H804 H 0.77939 0.68493 0.75266 0.0
H805 H 0.81163 0.66287 0.76206 0.0
H806 H 0.82736 0.68534 0.75967 0.0
H807 H 0.83246 0.66375 0.73624 0.0
H808 H 0.82366 0.68778 0.62711 0.0
H809 H 0.84506 0.7185 0.63441 0.0
H810 H 0.8305 0.71758 0.72743 0.0
C811 C 0.78492 0.64872 0.71248 0.0
C812 C 0.77824 0.63468 0.691 0.0
C813 C 0.78408 0.63761 0.66132 0.0
C814 C 0.79643 0.6542 0.65321 0.0
C815 C 0.80269 0.66777 0.67501 0.0
C816 C 0.79707 0.66519 0.70401 0.0
C817 C 0.80571 0.68184 0.72331 0.0
C818 C 0.78855 0.69451 0.73744 0.0
C819 C 0.82015 0.67291 0.74669 0.0
C820 C 0.81726 0.69414 0.70071 0.0
C821 C 0.81538 0.68585 0.67296 0.0
C822 C 0.82515 0.69445 0.64874 0.0
C823 C 0.83727 0.71189 0.6531 0.0
C824 C 0.83944 0.72054 0.68147 0.0
C825 C 0.82911 0.71151 0.70541 0.0
H826 H 0.27999 0.84952 0.73727 0.0
H827 H 0.27138 0.85392 0.64298 0.0
H828 H 0.30218 0.83263 0.63536 0.0
H829 H 0.33583 0.8509 0.73643 0.0
H830 H 0.33779 0.83303 0.76641 0.0
H831 H 0.3161 0.84987 0.76396 0.0
H832 H 0.29173 0.81868 0.76573 0.0
H833 H 0.3133 0.80177 0.76817 0.0
H834 H 0.29479 0.79843 0.73928 0.0
H835 H 0.33251 0.80814 0.63873 0.0
H836 H 0.35948 0.78348 0.65277 0.0
H837 H 0.34781 0.79653 0.74472 0.0
C838 C 0.28463 0.84621 0.71496 0.0
C839 C 0.27323 0.85334 0.69073 0.0
C840 C 0.27993 0.84868 0.66191 0.0
C841 C 0.2974 0.83661 0.65736 0.0
C842 C 0.3081 0.82958 0.68185 0.0
C843 C 0.30201 0.8344 0.71006 0.0
C844 C 0.31549 0.8244 0.7328 0.0
C845 C 0.32699 0.84052 0.75096 0.0
C846 C 0.30309 0.80996 0.75264 0.0
C847 C 0.32984 0.81271 0.71307 0.0
C848 C 0.32552 0.81592 0.68374 0.0
C849 C 0.33619 0.80574 0.66164 0.0
C850 C 0.35148 0.79175 0.66982 0.0
C851 C 0.35587 0.78808 0.69985 0.0
C852 C 0.34504 0.79903 0.72155 0.0
H853 H 0.14436 0.29435 0.74628 0.0
H854 H 0.12231 0.29314 0.65632 0.0
H855 H 0.14911 0.31777 0.64223 0.0
H856 H 0.15842 0.3483 0.74822 0.0
H857 H 0.18083 0.34361 0.7702 0.0
H858 H 0.15893 0.32713 0.77354 0.0
H859 H 0.1817 0.29572 0.76217 0.0
H860 H 0.20363 0.31208 0.75864 0.0
H861 H 0.1966 0.29534 0.72891 0.0
H862 H 0.17942 0.34105 0.63749 0.0
H863 H 0.21096 0.3613 0.64236 0.0
H864 H 0.21325 0.34675 0.7354 0.0
C865 C 0.1449 0.29948 0.72369 0.0
C866 C 0.13115 0.29187 0.70243 0.0
C867 C 0.13264 0.29878 0.67302 0.0
C868 C 0.14779 0.31279 0.6648 0.0
C869 C 0.16129 0.31971 0.68625 0.0
C870 C 0.15995 0.31333 0.71509 0.0
C871 C 0.17691 0.32227 0.73361 0.0
C872 C 0.16825 0.33616 0.75782 0.0
C873 C 0.19051 0.30535 0.74658 0.0
C874 C 0.18817 0.33451 0.7106 0.0
C875 C 0.17885 0.33294 0.68347 0.0
C876 C 0.18678 0.3425 0.65867 0.0
C877 C 0.20473 0.35394 0.66168 0.0
C878 C 0.21462 0.35565 0.68929 0.0
C879 C 0.20608 0.34584 0.71401 0.0
H880 H 0.23073 0.12281 0.07988 0.0
H881 H 0.23542 0.05744 0.09437 0.0
H882 H 0.23965 0.05213 0.04096 0.0
H883 H 0.20131 0.12018 0.01535 0.0
H884 H 0.21356 0.14161 0.99785 0.0
H885 H 0.21245 0.14023 0.03726 0.0
H886 H 0.25184 0.14359 0.03991 0.0
H887 H 0.25307 0.14493 1.00044 0.0
H888 H 0.26762 0.12585 0.01988 0.0
H889 H 0.24125 0.05394 0.98535 0.0
H890 H 0.23933 0.06266 0.93258 0.0
H891 H 0.23389 0.12684 0.95517 0.0
C892 C 0.23285 0.10737 0.07193 0.0
C893 C 0.23276 0.09054 0.09137 0.0
C894 C 0.23546 0.07059 0.07994 0.0
C895 C 0.23793 0.06742 0.04963 0.0
C896 C 0.23778 0.08437 0.03107 0.0
C897 C 0.23535 0.10395 0.04184 0.0
C898 C 0.23479 0.11951 0.01726 0.0
C899 C 0.21431 0.13105 0.01692 0.0
C900 C 0.25291 0.13434 0.01951 0.0
C901 C 0.23688 0.10561 0.9909 0.0
C902 C 0.23876 0.08541 0.99925 0.0
C903 C 0.23998 0.06974 0.97859 0.0
C904 C 0.23889 0.07484 0.94865 0.0
C905 C 0.23653 0.09544 0.93967 0.0
C906 C 0.23589 0.11096 0.96121 0.0
H907 H 0.88859 0.2374 0.92961 0.0
H908 H 0.95251 0.24881 0.91054 0.0
H909 H 0.95971 0.25145 0.96351 0.0
H910 H 0.88514 0.27134 0.99433 0.0
H911 H 0.86846 0.25414 0.01378 0.0
H912 H 0.86789 0.25506 0.97424 0.0
H913 H 0.87475 0.21611 0.97214 0.0
H914 H 0.87539 0.21508 0.0116 0.0
H915 H 0.89679 0.20578 0.99065 0.0
H916 H 0.96067 0.24994 0.01848 0.0
H917 H 0.95513 0.24467 0.07156 0.0
H918 H 0.89061 0.23457 0.05529 0.0
C919 C 0.90403 0.24084 0.93655 0.0
C920 C 0.91997 0.24296 0.91583 0.0
C921 C 0.94002 0.24714 0.92591 0.0
C922 C 0.94427 0.24872 0.956 0.0
C923 C 0.92831 0.24618 0.97585 0.0
C924 C 0.90856 0.24244 0.96658 0.0
C925 C 0.89444 0.23918 0.99254 0.0
C926 C 0.87801 0.25593 0.99379 0.0
C927 C 0.88479 0.21777 0.99167 0.0
C928 C 0.90943 0.24121 0.01776 0.0
C929 C 0.92886 0.2454 0.00766 0.0
C930 C 0.94547 0.24691 0.02669 0.0
C931 C 0.94218 0.24385 0.05683 0.0
C932 C 0.92244 0.23932 0.06769 0.0
C933 C 0.90585 0.23827 0.04779 0.0
H934 H 0.74525 0.91333 0.9218 0.0
H935 H 0.6894 0.87801 0.91489 0.0
H936 H 0.68661 0.87755 0.96907 0.0
H937 H 0.76552 0.88761 0.98318 0.0
H938 H 0.77646 0.91018 0.99949 0.0
H939 H 0.77316 0.90876 0.96033 0.0
H940 H 0.75204 0.94224 0.96135 0.0
H941 H 0.75525 0.94375 1.00058 0.0
H942 H 0.72999 0.944 0.98488 0.0
H943 H 0.69111 0.87964 0.02479 0.0
H944 H 0.70284 0.88358 0.07622 0.0
H945 H 0.75553 0.91758 0.04556 0.0
C946 C 0.7323 0.90564 0.93157 0.0
C947 C 0.71752 0.89574 0.91399 0.0
C948 C 0.70089 0.88577 0.92783 0.0
C949 C 0.69916 0.88545 0.95862 0.0
C950 C 0.71412 0.89525 0.97529 0.0
C951 C 0.73033 0.9052 0.96216 0.0
C952 C 0.7448 0.91394 0.98481 0.0
C953 C 0.76624 0.90455 0.98177 0.0
C954 C 0.74556 0.93737 0.98278 0.0
C955 C 0.73445 0.90704 0.01279 0.0
C956 C 0.71668 0.89643 0.00698 0.0
C957 C 0.70493 0.88807 0.02955 0.0
C958 C 0.71168 0.89041 0.05871 0.0
C959 C 0.73008 0.90092 0.06501 0.0
C960 C 0.74136 0.90953 0.04162 0.0
H961 H 0.08381 0.787 0.94195 0.0
H962 H 0.0704 0.72335 0.92368 0.0
H963 H 0.06925 0.71631 0.97708 0.0
H964 H 0.11672 0.77843 0.00247 0.0
H965 H 0.10803 0.8004 0.02278 0.0
H966 H 0.10687 0.80043 0.9833 0.0
H967 H 0.06812 0.80833 0.98542 0.0
H968 H 0.06917 0.80838 0.02494 0.0
H969 H 0.0515 0.7918 0.00617 0.0
H970 H 0.07092 0.71622 0.03322 0.0
H971 H 0.07479 0.72324 0.08639 0.0
H972 H 0.08695 0.78695 0.06675 0.0
C973 C 0.08048 0.77158 0.94907 0.0
C974 C 0.07718 0.75573 0.92855 0.0
C975 C 0.07293 0.73577 0.93895 0.0
C976 C 0.07226 0.73162 0.96926 0.0
C977 C 0.07579 0.7476 0.98888 0.0
C978 C 0.07973 0.7672 0.97912 0.0
C979 C 0.08341 0.78166 0.00449 0.0
C980 C 0.10504 0.79075 0.00317 0.0
C981 C 0.06707 0.79853 0.0053 0.0
C982 C 0.08113 0.76714 0.03013 0.0
C983 C 0.07669 0.74756 0.0208 0.0
C984 C 0.0743 0.73153 0.04072 0.0
C985 C 0.07654 0.73565 0.07089 0.0
C986 C 0.08114 0.75564 0.08083 0.0
C987 C 0.08337 0.7715 0.06001 0.0
H988 H 0.24155 0.89432 0.44432 0.0
H989 H 0.22555 0.95711 0.42406 0.0
H990 H 0.22526 0.96523 0.47695 0.0
H991 H 0.20948 0.88918 0.50471 0.0
H992 H 0.22663 0.87359 0.52609 0.0
H993 H 0.22809 0.87324 0.48666 0.0
H994 H 0.26636 0.88307 0.48919 0.0
H995 H 0.26505 0.88337 0.52871 0.0
H996 H 0.27396 0.90559 0.50917 0.0
H997 H 0.22335 0.96576 0.532 0.0
H998 H 0.22012 0.95865 0.58502 0.0
H999 H 0.23746 0.89555 0.56957 0.0
C1000 C 0.23844 0.90989 0.45095 0.0
C1001 C 0.23367 0.9251 0.42997 0.0
C1002 C 0.22933 0.94521 0.43966 0.0
C1003 C 0.22917 0.94999 0.46968 0.0
C1004 C 0.23348 0.93454 0.4898 0.0
C1005 C 0.23817 0.91492 0.48085 0.0
C1006 C 0.24086 0.90081 0.50696 0.0
C1007 C 0.22534 0.88317 0.50604 0.0
C1008 C 0.26287 0.89274 0.5086 0.0
C1009 C 0.23638 0.91541 0.53194 0.0
C1010 C 0.23238 0.93485 0.5216 0.0
C1011 C 0.22674 0.95067 0.54039 0.0
C1012 C 0.22491 0.94647 0.57049 0.0
C1013 C 0.22864 0.92658 0.58154 0.0
C1014 C 0.23476 0.91098 0.56193 0.0
H1015 H 0.07005 0.20473 0.5779 0.0
H1016 H 0.07378 0.27014 0.59229 0.0
H1017 H 0.07081 0.2759 0.53874 0.0
H1018 H 0.10011 0.2034 0.51381 0.0
H1019 H 0.08528 0.18372 0.49621 0.0
H1020 H 0.08636 0.18502 0.53563 0.0
H1021 H 0.04686 0.18682 0.53786 0.0
H1022 H 0.04565 0.18553 0.49839 0.0
H1023 H 0.03361 0.20639 0.51752 0.0
H1024 H 0.06927 0.27415 0.48273 0.0
H1025 H 0.0695 0.26499 0.42995 0.0
H1026 H 0.06657 0.20081 0.45341 0.0
C1027 C 0.07004 0.2203 0.56992 0.0
C1028 C 0.07211 0.23698 0.58937 0.0
C1029 C 0.07215 0.25711 0.57785 0.0
C1030 C 0.07045 0.26053 0.54746 0.0
C1031 C 0.06863 0.24369 0.52888 0.0
C1032 C 0.06835 0.22398 0.53976 0.0
C1033 C 0.067 0.20842 0.51529 0.0
C1034 C 0.08581 0.19432 0.51524 0.0
C1035 C 0.04709 0.19606 0.5174 0.0
C1036 C 0.06687 0.2224 0.48885 0.0
C1037 C 0.0677 0.2427 0.49701 0.0
C1038 C 0.06845 0.2583 0.47613 0.0
C1039 C 0.06856 0.25295 0.4462 0.0
C1040 C 0.06798 0.23219 0.43747 0.0
C1041 C 0.06689 0.21684 0.45924 0.0
H1042 H 0.7682 0.0605 0.55141 0.0
H1043 H 0.71824 0.09928 0.57996 0.0
H1044 H 0.70897 0.10568 0.52827 0.0
H1045 H 0.78359 0.09003 0.4919 0.0
H1046 H 0.78944 0.06896 0.46787 0.0
H1047 H 0.79098 0.06567 0.50702 0.0
H1048 H 0.76583 0.03522 0.50413 0.0
H1049 H 0.76431 0.03831 0.46486 0.0
H1050 H 0.74136 0.03864 0.48666 0.0
H1051 H 0.70804 0.11161 0.47393 0.0
H1052 H 0.71353 0.11414 0.42038 0.0
H1053 H 0.76263 0.0699 0.42642 0.0
C1054 C 0.75505 0.07001 0.54682 0.0
C1055 C 0.74395 0.07938 0.56982 0.0
C1056 C 0.72692 0.09182 0.56281 0.0
C1057 C 0.72155 0.09559 0.53347 0.0
C1058 C 0.73313 0.08654 0.51134 0.0
C1059 C 0.74932 0.07372 0.51763 0.0
C1060 C 0.75974 0.06655 0.48972 0.0
C1061 C 0.78227 0.07321 0.4891 0.0
C1062 C 0.75768 0.0433 0.48613 0.0
C1063 C 0.74728 0.07785 0.4668 0.0
C1064 C 0.73203 0.08931 0.47979 0.0
C1065 C 0.71963 0.10237 0.46346 0.0
C1066 C 0.72292 0.10378 0.4331 0.0
C1067 C 0.73829 0.09201 0.41928 0.0
C1068 C 0.75045 0.0787 0.43635 0.0
H1069 H 0.88667 0.7542 0.56022 0.0
H1070 H 0.95197 0.75451 0.57648 0.0
H1071 H 0.95831 0.75164 0.52322 0.0
H1072 H 0.88736 0.7187 0.49726 0.0
H1073 H 0.8676 0.73245 0.47804 0.0
H1074 H 0.86815 0.73243 0.5176 0.0
H1075 H 0.8685 0.77199 0.5176 0.0
H1076 H 0.86806 0.77214 0.47809 0.0
H1077 H 0.8881 0.78532 0.4975 0.0
H1078 H 0.95767 0.75128 0.46813 0.0
H1079 H 0.95016 0.75341 0.41517 0.0
H1080 H 0.88522 0.75383 0.43425 0.0
C1081 C 0.90231 0.75322 0.55265 0.0
C1082 C 0.91884 0.75443 0.57263 0.0
C1083 C 0.93906 0.75353 0.56168 0.0
C1084 C 0.94282 0.75188 0.53144 0.0
C1085 C 0.92621 0.75115 0.51232 0.0
C1086 C 0.90634 0.75172 0.52247 0.0
C1087 C 0.89125 0.75197 0.49715 0.0
C1088 C 0.8778 0.73274 0.49754 0.0
C1089 C 0.87822 0.77152 0.49762 0.0
C1090 C 0.90575 0.75181 0.47119 0.0
C1091 C 0.92583 0.75116 0.48046 0.0
C1092 C 0.942 0.75161 0.46061 0.0
C1093 C 0.93756 0.75287 0.43052 0.0
C1094 C 0.9171 0.75376 0.42042 0.0
C1095 C 0.90102 0.75303 0.44116 0.0
H1096 H 0.69944 0.57031 0.5644 0.0
H1097 H 0.76424 0.57692 0.582 0.0
H1098 H 0.77119 0.5762 0.52864 0.0
H1099 H 0.70447 0.53592 0.50238 0.0
H1100 H 0.6834 0.54718 0.48271 0.0
H1101 H 0.68372 0.54758 0.52225 0.0
H1102 H 0.67969 0.58695 0.52159 0.0
H1103 H 0.67938 0.58668 0.48207 0.0
H1104 H 0.69773 0.60222 0.50131 0.0
H1105 H 0.77083 0.5757 0.47275 0.0
H1106 H 0.76314 0.57556 0.41955 0.0
H1107 H 0.69861 0.56926 0.43912 0.0
C1108 C 0.71513 0.5715 0.55712 0.0
C1109 C 0.73129 0.57366 0.57749 0.0
C1110 C 0.75158 0.57521 0.56689 0.0
C1111 C 0.75569 0.57481 0.53659 0.0
C1112 C 0.73936 0.57278 0.51713 0.0
C1113 C 0.71949 0.5711 0.52702 0.0
C1114 C 0.70461 0.56943 0.50166 0.0
C1115 C 0.69339 0.5488 0.5023 0.0
C1116 C 0.68947 0.58739 0.50167 0.0
C1117 C 0.71916 0.57067 0.47589 0.0
C1118 C 0.73915 0.5725 0.48521 0.0
C1119 C 0.75522 0.57419 0.46525 0.0
C1120 C 0.75071 0.57409 0.43505 0.0
C1121 C 0.73028 0.57238 0.42505 0.0
C1122 C 0.71439 0.57055 0.44592 0.0
H1123 H 0.39651 0.7357 0.46013 0.0
H1124 H 0.46112 0.72816 0.44192 0.0
H1125 H 0.46869 0.73132 0.49478 0.0
H1126 H 0.40219 0.77233 0.52092 0.0
H1127 H 0.38145 0.76136 0.54158 0.0
H1128 H 0.38123 0.76024 0.50204 0.0
H1129 H 0.37735 0.7209 0.50438 0.0
H1130 H 0.37764 0.72188 0.54386 0.0
H1131 H 0.39577 0.70606 0.52466 0.0
H1132 H 0.46913 0.73296 0.54974 0.0
H1133 H 0.46245 0.73312 0.60302 0.0
H1134 H 0.39752 0.73947 0.58596 0.0
C1135 C 0.41229 0.73508 0.46719 0.0
C1136 C 0.42824 0.73177 0.44679 0.0
C1137 C 0.44864 0.73072 0.45705 0.0
C1138 C 0.4531 0.73254 0.48707 0.0
C1139 C 0.43702 0.73542 0.50662 0.0
C1140 C 0.41702 0.73677 0.49714 0.0
C1141 C 0.40249 0.73886 0.5229 0.0
C1142 C 0.39117 0.75942 0.52179 0.0
C1143 C 0.38743 0.72085 0.52401 0.0
C1144 C 0.41742 0.73814 0.54834 0.0
C1145 C 0.43727 0.73629 0.53843 0.0
C1146 C 0.45367 0.73459 0.55776 0.0
C1147 C 0.4497 0.73465 0.58803 0.0
C1148 C 0.42947 0.73637 0.59877 0.0
C1149 C 0.41318 0.73831 0.57852 0.0
H1150 H 0.26464 0.41271 0.41597 0.0
H1151 H 0.21001 0.37541 0.418 0.0
H1152 H 0.20729 0.38079 0.47156 0.0
H1153 H 0.28586 0.39215 0.47864 0.0
H1154 H 0.29736 0.4154 0.4919 0.0
H1155 H 0.2929 0.41207 0.45325 0.0
H1156 H 0.27184 0.44557 0.45198 0.0
H1157 H 0.27633 0.44906 0.49071 0.0
H1158 H 0.25059 0.44868 0.4767 0.0
H1159 H 0.21243 0.38713 0.52511 0.0
H1160 H 0.22608 0.39207 0.57503 0.0
H1161 H 0.27857 0.42371 0.53878 0.0
C1162 C 0.25173 0.40629 0.4276 0.0
C1163 C 0.2373 0.39396 0.41289 0.0
C1164 C 0.22107 0.38509 0.42891 0.0
C1165 C 0.21937 0.38813 0.45928 0.0
C1166 C 0.23415 0.39993 0.47334 0.0
C1167 C 0.25006 0.40884 0.45806 0.0
C1168 C 0.26529 0.41862 0.47883 0.0
C1169 C 0.2866 0.40897 0.47545 0.0
C1170 C 0.26605 0.44187 0.47428 0.0
C1171 C 0.25579 0.41326 0.50817 0.0
C1172 C 0.2376 0.40288 0.50447 0.0
C1173 C 0.22653 0.39544 0.52829 0.0
C1174 C 0.23444 0.39832 0.5566 0.0
C1175 C 0.25342 0.40828 0.56089 0.0
C1176 C 0.26397 0.41616 0.53629 0.0
H1177 H 0.5658 0.29312 0.55738 0.0
H1178 H 0.57961 0.22991 0.57808 0.0
H1179 H 0.5783 0.2214 0.52513 0.0
H1180 H 0.53121 0.28315 0.49574 0.0
H1181 H 0.5404 0.30485 0.47529 0.0
H1182 H 0.54063 0.30534 0.51484 0.0
H1183 H 0.57939 0.31331 0.51427 0.0
H1184 H 0.57928 0.31282 0.47479 0.0
H1185 H 0.59648 0.29647 0.49488 0.0
H1186 H 0.57799 0.22061 0.46894 0.0
H1187 H 0.57895 0.22769 0.41552 0.0
H1188 H 0.56528 0.29141 0.43285 0.0
C1189 C 0.56825 0.27739 0.55093 0.0
C1190 C 0.57274 0.26217 0.57196 0.0
C1191 C 0.57604 0.24183 0.56241 0.0
C1192 C 0.57531 0.23685 0.53237 0.0
C1193 C 0.57115 0.25235 0.51218 0.0
C1194 C 0.56759 0.2722 0.52117 0.0
C1195 C 0.56455 0.28634 0.49526 0.0
C1196 C 0.54291 0.29545 0.49529 0.0
C1197 C 0.5809 0.30322 0.49478 0.0
C1198 C 0.56737 0.27149 0.47017 0.0
C1199 C 0.571 0.25191 0.48023 0.0
C1200 C 0.57494 0.23585 0.46087 0.0
C1201 C 0.57545 0.24001 0.43055 0.0
C1202 C 0.57213 0.26009 0.41991 0.0
C1203 C 0.56775 0.27586 0.44014 0.0
H1204 H 0.72392 0.36744 0.93621 0.0
H1205 H 0.76017 0.42119 0.91644 0.0
H1206 H 0.76489 0.42733 0.96959 0.0
H1207 H 0.69776 0.38802 0.99711 0.0
H1208 H 0.69774 0.36459 0.01788 0.0
H1209 H 0.69832 0.36376 0.9784 0.0
H1210 H 0.73124 0.34182 0.98014 0.0
H1211 H 0.73071 0.34249 0.01967 0.0
H1212 H 0.75312 0.35098 1.00024 0.0
H1213 H 0.76389 0.42861 0.02541 0.0
H1214 H 0.75807 0.42433 0.07874 0.0
H1215 H 0.72273 0.36959 0.06135 0.0
C1216 C 0.73306 0.38039 0.94297 0.0
C1217 C 0.7417 0.39381 0.92206 0.0
C1218 C 0.75345 0.41064 0.93198 0.0
C1219 C 0.7562 0.41426 0.96215 0.0
C1220 C 0.7472 0.40089 0.98216 0.0
C1221 C 0.73598 0.38421 0.97292 0.0
C1222 C 0.7274 0.37243 0.99875 0.0
C1223 C 0.70392 0.3722 0.99798 0.0
C1224 C 0.73615 0.35064 0.99975 0.0
C1225 C 0.73531 0.38522 0.024 0.0
C1226 C 0.74674 0.40155 0.01405 0.0
C1227 C 0.7551 0.41578 0.03342 0.0
C1228 C 0.75168 0.41325 0.06369 0.0
C1229 C 0.74 0.3966 0.07432 0.0
C1230 C 0.73184 0.38241 0.05405 0.0
H1231 H 0.62063 0.73533 0.06613 0.0
H1232 H 0.56114 0.75765 0.09284 0.0
H1233 H 0.55247 0.76456 0.04093 0.0
H1234 H 0.62806 0.7716 0.00423 0.0
H1235 H 0.64043 0.75255 0.98189 0.0
H1236 H 0.64269 0.75151 0.02131 0.0
H1237 H 0.62875 0.71448 0.02097 0.0
H1238 H 0.62641 0.71542 0.98166 0.0
H1239 H 0.60448 0.70928 0.00384 0.0
H1240 H 0.54887 0.76512 0.98562 0.0
H1241 H 0.55103 0.76025 0.93187 0.0
H1242 H 0.61333 0.73873 0.94131 0.0
C1243 C 0.60596 0.74212 0.06105 0.0
C1244 C 0.59167 0.74608 0.08348 0.0
C1245 C 0.57245 0.75465 0.07605 0.0
C1246 C 0.56738 0.75862 0.0466 0.0
C1247 C 0.58174 0.75416 0.02489 0.0
C1248 C 0.60073 0.74629 0.03182 0.0
C1249 C 0.61297 0.7417 0.00437 0.0
C1250 C 0.63217 0.75515 0.00287 0.0
C1251 C 0.61846 0.71887 0.00262 0.0
C1252 C 0.5977 0.74763 0.98086 0.0
C1253 C 0.57981 0.75489 0.99311 0.0
C1254 C 0.56294 0.75982 0.97579 0.0
C1255 C 0.5643 0.75698 0.94527 0.0
C1256 C 0.58242 0.74936 0.9323 0.0
C1257 C 0.59942 0.74502 0.95043 0.0
H1258 H 0.24451 0.60804 0.07536 0.0
H1259 H 0.24461 0.54206 0.08458 0.0
H1260 H 0.24036 0.53845 0.03099 0.0
H1261 H 0.20755 0.61083 0.01405 0.0
H1262 H 0.22111 0.63142 0.99648 0.0
H1263 H 0.22181 0.62884 0.03586 0.0
H1264 H 0.26136 0.62817 0.03441 0.0
H1265 H 0.26078 0.63072 0.9951 0.0
H1266 H 0.27414 0.60959 0.0117 0.0
H1267 H 0.23905 0.54196 0.97596 0.0
H1268 H 0.24146 0.55238 0.92392 0.0
H1269 H 0.24243 0.61601 0.95065 0.0
C1270 C 0.24321 0.59283 0.0662 0.0
C1271 C 0.24479 0.57533 0.08422 0.0
C1272 C 0.24341 0.5557 0.07125 0.0
C1273 C 0.24092 0.55349 0.04081 0.0
C1274 C 0.2398 0.57105 0.0236 0.0
C1275 C 0.24085 0.59035 0.03582 0.0
C1276 C 0.24076 0.6067 0.01228 0.0
C1277 C 0.22167 0.62024 0.01483 0.0
C1278 C 0.26043 0.61954 0.01345 0.0
C1279 C 0.23999 0.59357 0.98492 0.0
C1280 C 0.2392 0.57306 0.99189 0.0
C1281 C 0.23943 0.558 0.97024 0.0
C1282 C 0.24081 0.56406 0.94072 0.0
C1283 C 0.24207 0.58501 0.93313 0.0
C1284 C 0.2413 0.59988 0.95563 0.0
H1285 H 0.39055 0.24007 0.9287 0.0
H1286 H 0.45539 0.24092 0.90902 0.0
H1287 H 0.4632 0.23919 0.96191 0.0
H1288 H 0.39324 0.27228 0.99041 0.0
H1289 H 0.37397 0.25909 0.01133 0.0
H1290 H 0.37331 0.25836 0.97184 0.0
H1291 H 0.37355 0.2188 0.97316 0.0
H1292 H 0.37416 0.21941 0.01271 0.0
H1293 H 0.39355 0.20567 0.99278 0.0
H1294 H 0.46414 0.23997 0.01668 0.0
H1295 H 0.45815 0.24321 0.0699 0.0
H1296 H 0.39271 0.24194 0.05469 0.0
C1297 C 0.40639 0.2395 0.9355 0.0
C1298 C 0.42237 0.24054 0.91466 0.0
C1299 C 0.44289 0.24012 0.92452 0.0
C1300 C 0.44749 0.23909 0.95454 0.0
C1301 C 0.43142 0.23845 0.97452 0.0
C1302 C 0.41127 0.23858 0.96547 0.0
C1303 C 0.39692 0.23898 0.99161 0.0
C1304 C 0.38358 0.25833 0.99127 0.0
C1305 C 0.38377 0.21956 0.99262 0.0
C1306 C 0.41216 0.23943 0.0167 0.0
C1307 C 0.43197 0.23896 0.0063 0.0
C1308 C 0.4487 0.24014 0.02511 0.0
C1309 C 0.44513 0.24203 0.05533 0.0
C1310 C 0.42497 0.24276 0.06654 0.0
C1311 C 0.4083 0.24119 0.04688 0.0
H1312 H 0.2488 0.02016 0.20079 0.0
H1313 H 0.28067 0.04897 0.27321 0.0
H1314 H 0.2894 0.01521 0.29321 0.0
H1315 H 0.22462 0.98592 0.23908 0.0
H1316 H 0.22613 0.96458 0.21418 0.0
H1317 H 0.22778 0.99013 0.20021 0.0
H1318 H 0.26259 0.98205 0.17597 0.0
H1319 H 0.2609 0.95618 0.18936 0.0
H1320 H 0.28299 0.9715 0.19781 0.0
H1321 H 0.2857 0.98027 0.31275 0.0
H1322 H 0.27357 0.9459 0.32689 0.0
H1323 H 0.24564 0.93894 0.24114 0.0
C1324 C 0.25859 0.01932 0.21991 0.0
C1325 C 0.26401 0.03714 0.23546 0.0
C1326 C 0.27632 0.03548 0.26095 0.0
C1327 C 0.28142 0.01634 0.27246 0.0
C1328 C 0.27446 -0.00101 0.25793 0.0
C1329 C 0.2638 0.00025 0.23171 0.0
C1330 C 0.25552 0.97957 0.22278 0.0
C1331 C 0.23214 0.9801 0.21887 0.0
C1332 C 0.26615 0.97187 0.19482 0.0
C1333 C 0.26169 0.96697 0.24921 0.0
C1334 C 0.27292 0.97833 0.26902 0.0
C1335 C 0.27762 0.97093 0.29697 0.0
C1336 C 0.27052 0.95149 0.30493 0.0
C1337 C 0.25896 0.9397 0.28494 0.0
C1338 C 0.25498 0.94739 0.25654 0.0
H1339 H 0.95804 0.24288 0.18279 0.0
H1340 H 0.92239 0.266 0.25568 0.0
H1341 H 0.954 0.27574 0.28142 0.0
H1342 H 0.99214 0.21838 0.22268 0.0
H1343 H 0.01446 0.22335 0.20069 0.0
H1344 H 0.98966 0.22384 0.18403 0.0
H1345 H -0.00409 0.26068 0.16543 0.0
H1346 H 0.02101 0.26025 0.18174 0.0
H1347 H 0.00331 0.28031 0.19106 0.0
H1348 H 0.98836 0.27503 0.30408 0.0
H1349 H 0.02291 0.26536 0.32072 0.0
H1350 H 0.03667 0.24296 0.23326 0.0
C1351 C 0.95692 0.25099 0.20344 0.0
C1352 C 0.93782 0.25385 0.21715 0.0
C1353 C 0.93691 0.26378 0.24473 0.0
C1354 C 0.95479 0.26943 0.25949 0.0
C1355 C 0.97349 0.26522 0.24628 0.0
C1356 C 0.9747 0.25654 0.2186 0.0
C1357 C -0.00352 0.25068 0.21127 0.0
C1358 C -0.00173 0.22771 0.20429 0.0
C1359 C 0.00466 0.26377 0.18587 0.0
C1360 C 0.00699 0.25602 0.23988 0.0
C1361 C -0.00641 0.26485 0.25955 0.0
C1362 C -0.00082 0.26871 0.2886 0.0
C1363 C 0.01881 0.26305 0.29793 0.0
C1364 C 0.03258 0.25352 0.27829 0.0
C1365 C 0.02669 0.25059 0.24871 0.0
H1366 H 0.72819 0.0191 0.31118 0.0
H1367 H 0.6938 0.04889 0.24217 0.0
H1368 H 0.68611 0.01549 0.22007 0.0
H1369 H 0.75355 0.98869 0.26988 0.0
H1370 H 0.75399 0.9661 0.29251 0.0
H1371 H 0.75066 0.99065 0.30916 0.0
H1372 H 0.71685 0.97895 0.33324 0.0
H1373 H 0.72031 0.95398 0.31729 0.0
H1374 H 0.697 0.96793 0.31086 0.0
H1375 H 0.6915 0.98142 0.19742 0.0
H1376 H 0.70596 0.94876 0.17977 0.0
H1377 H 0.73622 0.94071 0.26379 0.0
C1378 C 0.71791 0.01844 0.29258 0.0
C1379 C 0.71154 0.03651 0.27844 0.0
C1380 C 0.69874 0.03518 0.25343 0.0
C1381 C 0.6943 0.01623 0.24069 0.0
C1382 C 0.70246 -0.00127 0.25351 0.0
C1383 C 0.71349 -0.00041 0.27949 0.0
C1384 C 0.72343 0.97923 0.28615 0.0
C1385 C 0.74677 0.98132 0.28959 0.0
C1386 C 0.71381 0.96944 0.3135 0.0
C1387 C 0.71784 0.96749 0.25869 0.0
C1388 C 0.70535 0.97875 0.24039 0.0
C1389 C 0.70066 0.97213 0.212 0.0
C1390 C 0.70908 0.95364 0.20204 0.0
C1391 C 0.72215 0.94208 0.22038 0.0
C1392 C 0.72603 0.94896 0.24929 0.0
H1393 H 0.03286 0.74449 0.27509 0.0
H1394 H 0.0271 0.71853 0.18783 0.0
H1395 H -0.00769 0.70647 0.2004 0.0
H1396 H 0.002 0.70586 0.31548 0.0
H1397 H 0.99095 0.72515 0.3388 0.0
H1398 H 0.01651 0.72831 0.32488 0.0
H1399 H 0.00651 0.76333 0.30238 0.0
H1400 H 0.98115 0.76038 0.31665 0.0
H1401 H 0.98489 0.76478 0.27795 0.0
H1402 H 0.95722 0.70077 0.22059 0.0
H1403 H 0.92349 0.7066 0.24289 0.0
H1404 H 0.9522 0.73713 0.31659 0.0
C1405 C 0.02453 0.73583 0.25876 0.0
C1406 C 0.03277 0.73224 0.23055 0.0
C1407 C 0.0211 0.72138 0.2096 0.0
C1408 C 0.00145 0.71429 0.21669 0.0
C1409 C -0.0062 0.71818 0.24478 0.0
C1410 C 0.00497 0.72888 0.26536 0.0
C1411 C -0.00756 0.73368 0.29241 0.0
C1412 C 0.00099 0.72258 0.3195 0.0
C1413 C 0.99116 0.7569 0.29762 0.0
C1414 C 0.97207 0.72486 0.28334 0.0
C1415 C 0.97334 0.7154 0.2562 0.0
C1416 C 0.95611 0.70787 0.24199 0.0
C1417 C 0.93701 0.71122 0.2549 0.0
C1418 C 0.93525 0.72234 0.2815 0.0
C1419 C 0.95309 0.7282 0.29663 0.0
H1420 H 0.72244 0.97173 0.81503 0.0
H1421 H 0.68848 0.94442 0.74368 0.0
H1422 H 0.67991 0.97856 0.72478 0.0
H1423 H 0.69032 0.02282 0.81887 0.0
H1424 H 0.71347 0.03675 0.82636 0.0
H1425 H 0.71024 0.01123 0.84052 0.0
H1426 H 0.74418 0.00063 0.8158 0.0
H1427 H 0.74733 0.02576 0.80103 0.0
H1428 H 0.74714 0.00403 0.77673 0.0
H1429 H 0.68521 0.01296 0.70463 0.0
H1430 H 0.70056 0.04549 0.68834 0.0
H1431 H 0.7302 0.05167 0.773 0.0
C1432 C 0.712 0.97308 0.7967 0.0
C1433 C 0.70591 0.95557 0.78098 0.0
C1434 C 0.69305 0.95773 0.7562 0.0
C1435 C 0.68813 0.97709 0.74528 0.0
C1436 C 0.69597 -0.00583 0.75962 0.0
C1437 C 0.70714 0.99242 0.78538 0.0
C1438 C 0.71689 0.01263 0.7935 0.0
C1439 C 0.70714 0.02138 0.82147 0.0
C1440 C 0.74025 0.01062 0.79692 0.0
C1441 C 0.71123 0.02531 0.76688 0.0
C1442 C 0.69871 0.0146 0.74794 0.0
C1443 C 0.69431 0.02185 0.71978 0.0
C1444 C 0.70322 0.04027 0.71058 0.0
C1445 C 0.71636 0.05124 0.72951 0.0
C1446 C 0.71975 0.04394 0.75832 0.0
H1447 H 0.9505 0.73968 0.68854 0.0
H1448 H 0.91533 0.72828 0.76754 0.0
H1449 H 0.94651 0.7173 0.79316 0.0
H1450 H 0.98977 0.69716 0.70109 0.0
H1451 H 0.00986 0.71304 0.68662 0.0
H1452 H 0.98425 0.71537 0.67247 0.0
H1453 H 0.98471 0.75408 0.68426 0.0
H1454 H 0.01013 0.75187 0.69864 0.0
H1455 H 0.99011 0.76233 0.72123 0.0
H1456 H 0.98185 0.71525 0.81332 0.0
H1457 H 0.01842 0.72014 0.82495 0.0
H1458 H 0.03061 0.73121 0.73264 0.0
C1459 C 0.94924 0.73402 0.7108 0.0
C1460 C 0.93049 0.73487 0.72598 0.0
C1461 C 0.92955 0.72782 0.75541 0.0
C1462 C 0.94718 0.72145 0.77018 0.0
C1463 C 0.96565 0.72186 0.75514 0.0
C1464 C 0.96676 0.72757 0.7259 0.0
C1465 C 0.98872 0.72903 0.71585 0.0
C1466 C -0.00657 0.71267 0.69263 0.0
C1467 C -0.00631 0.7506 0.70435 0.0
C1468 C -0.00029 0.72455 0.74442 0.0
C1469 C 0.98619 0.72013 0.76676 0.0
C1470 C -0.00733 0.71806 0.79584 0.0
C1471 C 0.01346 0.72094 0.80229 0.0
C1472 C 0.02747 0.72583 0.77973 0.0
C1473 C 0.02045 0.72702 0.75038 0.0
H1474 H 0.23023 0.96135 0.69636 0.0
H1475 H 0.25694 0.92951 0.77056 0.0
H1476 H 0.26226 0.96232 0.79585 0.0
H1477 H 0.2624 0.00951 0.70275 0.0
H1478 H 0.24095 0.02528 0.69271 0.0
H1479 H 0.2433 -0.00014 0.67786 0.0
H1480 H 0.20721 0.9912 0.69742 0.0
H1481 H 0.20485 0.01637 0.71275 0.0
H1482 H 0.20181 -0.00571 0.73599 0.0
H1483 H 0.25878 -0.00272 0.8168 0.0
H1484 H 0.24902 0.03251 0.83028 0.0
H1485 H 0.22479 0.04176 0.7425 0.0
C1486 C 0.23801 0.9614 0.71735 0.0
C1487 C 0.24328 0.94293 0.73143 0.0
C1488 C 0.25283 0.94352 0.75935 0.0
C1489 C 0.25597 0.96209 0.77388 0.0
C1490 C 0.24961 0.97997 0.76012 0.0
C1491 C 0.24114 0.97985 0.73226 0.0
C1492 C 0.23355 0.00088 0.72379 0.0
C1493 C 0.24579 0.00939 0.69773 0.0
C1494 C 0.2105 0.00066 0.71712 0.0
C1495 C 0.23817 0.01254 0.75173 0.0
C1496 C 0.24767 0.00029 0.77228 0.0
C1497 C 0.25178 0.00719 0.80065 0.0
C1498 C 0.24604 0.02716 0.80819 0.0
C1499 C 0.23625 0.03996 0.78744 0.0
C1500 C 0.23254 0.03251 0.75877 0.0
H1501 H 0.95307 0.26622 0.81687 0.0
H1502 H 0.92379 0.28595 0.7364 0.0
H1503 H 0.95682 0.2979 0.71749 0.0
H1504 H -0.00291 0.30704 0.81542 0.0
H1505 H 0.01449 0.28814 0.82967 0.0
H1506 H 0.98812 0.28809 0.84107 0.0
H1507 H 0.98511 0.25036 0.82481 0.0
H1508 H 0.01112 0.25032 0.8128 0.0
H1509 H 0.99111 0.24356 0.78742 0.0
H1510 H -0.00737 0.29655 0.70109 0.0
H1511 H 0.0282 0.28599 0.6913 0.0
H1512 H 0.03496 0.26865 0.78268 0.0
C1513 C 0.95344 0.27423 0.79608 0.0
C1514 C 0.93592 0.2751 0.7781 0.0
C1515 C 0.93705 0.28512 0.75057 0.0
C1516 C 0.95579 0.29201 0.73964 0.0
C1517 C 0.9732 0.28916 0.75672 0.0
C1518 C 0.97212 0.28109 0.78482 0.0
C1519 C -0.00677 0.27643 0.79667 0.0
C1520 C -0.00145 0.29079 0.82222 0.0
C1521 C -0.00477 0.25384 0.80592 0.0
C1522 C 0.00605 0.28119 0.76989 0.0
C1523 C -0.00567 0.28899 0.74728 0.0
C1524 C 0.00217 0.29126 0.71895 0.0
C1525 C 0.02234 0.28507 0.71349 0.0
C1526 C 0.03442 0.27675 0.73629 0.0
C1527 C 0.02631 0.27551 0.76497 0.0
H1528 H 0.77547 0.53725 0.76967 0.0
H1529 H 0.78444 0.52727 0.67647 0.0
H1530 H 0.79684 0.4924 0.68704 0.0
H1531 H 0.81666 0.49994 0.79855 0.0
H1532 H 0.79972 0.49225 0.82769 0.0
H1533 H 0.79935 0.51823 0.81451 0.0
H1534 H 0.76051 0.51523 0.80457 0.0
H1535 H 0.76079 0.48949 0.81764 0.0
H1536 H 0.75127 0.49494 0.78132 0.0
H1537 H 0.79999 0.45716 0.70572 0.0
H1538 H 0.7889 0.42495 0.72825 0.0
H1539 H 0.77506 0.45687 0.80911 0.0
C1540 C 0.78095 0.52812 0.7515 0.0
C1541 C 0.77915 0.5351 0.72221 0.0
C1542 C 0.78587 0.52237 0.69909 0.0
C1543 C 0.79308 0.50256 0.70497 0.0
C1544 C 0.79344 0.49571 0.73406 0.0
C1545 C 0.78755 0.50821 0.75699 0.0
C1546 C 0.7847 0.4962 0.78517 0.0
C1547 C 0.80109 0.502 0.80782 0.0
C1548 C 0.76305 0.49913 0.79785 0.0
C1549 C 0.78801 0.4747 0.77397 0.0
C1550 C 0.79414 0.47485 0.74484 0.0
C1551 C 0.79561 0.45689 0.72862 0.0
C1552 C 0.78923 0.43861 0.74166 0.0
C1553 C 0.78094 0.43847 0.77041 0.0
C1554 C 0.78167 0.45648 0.78735 0.0
H1555 H 0.54742 0.734 0.74498 0.0
H1556 H 0.54577 0.76574 0.82861 0.0
H1557 H 0.51273 0.7813 0.81464 0.0
H1558 H 0.52104 0.77394 0.70006 0.0
H1559 H 0.50749 0.75487 0.67919 0.0
H1560 H 0.53265 0.74942 0.69328 0.0
H1561 H 0.51873 0.71728 0.71985 0.0
H1562 H 0.49374 0.7225 0.70556 0.0
H1563 H 0.49742 0.71986 0.7446 0.0
H1564 H 0.47819 0.78956 0.79456 0.0
H1565 H 0.44374 0.78663 0.77325 0.0
H1566 H 0.46785 0.74919 0.70286 0.0
C1567 C 0.54043 0.74463 0.76015 0.0
C1568 C 0.54929 0.74877 0.78784 0.0
C1569 C 0.53932 0.76239 0.80724 0.0
C1570 C 0.52065 0.77145 0.79936 0.0
C1571 C 0.51225 0.76681 0.77197 0.0
C1572 C 0.52182 0.75363 0.75272 0.0
C1573 C 0.50848 0.74889 0.72643 0.0
C1574 C 0.51799 0.75729 0.69806 0.0
C1575 C 0.50434 0.72578 0.724 0.0
C1576 C 0.4894 0.76062 0.73456 0.0
C1577 C 0.4921 0.77134 0.76048 0.0
C1578 C 0.47602 0.78155 0.77401 0.0
C1579 C 0.45649 0.77982 0.7617 0.0
C1580 C 0.45316 0.76776 0.7363 0.0
C1581 C 0.47002 0.75894 0.7218 0.0
H1582 H 0.25195 0.4446 0.75972 0.0
H1583 H 0.23358 0.45563 0.6695 0.0
H1584 H 0.22301 0.49059 0.68298 0.0
H1585 H 0.21213 0.47748 0.79581 0.0
H1586 H 0.23005 0.48604 0.82322 0.0
H1587 H 0.23231 0.46074 0.80792 0.0
H1588 H 0.2697 0.46842 0.79291 0.0
H1589 H 0.26756 0.49362 0.80814 0.0
H1590 H 0.27504 0.49041 0.77034 0.0
H1591 H 0.21945 0.5254 0.70417 0.0
H1592 H 0.22478 0.5578 0.73054 0.0
H1593 H 0.24571 0.52432 0.80706 0.0
C1594 C 0.24515 0.45413 0.74292 0.0
C1595 C 0.24349 0.44732 0.71355 0.0
C1596 C 0.23495 0.46047 0.69214 0.0
C1597 C 0.22877 0.48031 0.69965 0.0
C1598 C 0.23111 0.4867 0.72867 0.0
C1599 C 0.23905 0.47396 0.75 0.0
C1600 C 0.24243 0.48524 0.77863 0.0
C1601 C 0.22839 0.47688 0.80282 0.0
C1602 C 0.26502 0.48437 0.78802 0.0
C1603 C 0.23616 0.50659 0.76966 0.0
C1604 C 0.2292 0.50699 0.74097 0.0
C1605 C 0.22447 0.52523 0.72681 0.0
C1606 C 0.22761 0.54357 0.74196 0.0
C1607 C 0.23557 0.54355 0.77091 0.0
C1608 C 0.23917 0.52478 0.78523 0.0
H1609 H 0.46352 0.2361 0.81139 0.0
H1610 H 0.43865 0.20027 0.73988 0.0
H1611 H 0.47334 0.19398 0.72123 0.0
H1612 H 0.49612 0.26231 0.77188 0.0
H1613 H 0.51707 0.26352 0.79751 0.0
H1614 H 0.49155 0.26002 0.81078 0.0
H1615 H 0.50238 0.22692 0.83771 0.0
H1616 H 0.52818 0.23046 0.82487 0.0
H1617 H 0.51499 0.20684 0.81762 0.0
H1618 H 0.50825 0.19945 0.70295 0.0
H1619 H 0.54151 0.21416 0.68868 0.0
H1620 H 0.54471 0.24571 0.77226 0.0
C1621 C 0.46555 0.22599 0.79281 0.0
C1622 C 0.44852 0.21852 0.7772 0.0
C1623 C 0.45157 0.20602 0.75223 0.0
C1624 C 0.47124 0.20231 0.74152 0.0
C1625 C 0.48772 0.21104 0.75618 0.0
C1626 C 0.48516 0.22229 0.78168 0.0
C1627 C 0.50492 0.23265 0.79053 0.0
C1628 C 0.50224 0.25599 0.79277 0.0
C1629 C 0.5131 0.22367 0.8194 0.0
C1630 C 0.51842 0.22679 0.76487 0.0
C1631 C 0.50836 0.21395 0.74561 0.0
C1632 C 0.51659 0.2089 0.71831 0.0
C1633 C 0.53542 0.21743 0.71028 0.0
C1634 C 0.54579 0.23082 0.72952 0.0
C1635 C 0.53741 0.23502 0.75746 0.0
H1636 H 0.23749 0.53705 0.26552 0.0
H1637 H 0.22891 0.53342 0.17112 0.0
H1638 H 0.22043 0.49677 0.17598 0.0
H1639 H 0.26377 0.49289 0.27246 0.0
H1640 H 0.25331 0.4856 0.30752 0.0
H1641 H 0.25431 0.51207 0.2974 0.0
H1642 H 0.21531 0.51528 0.30587 0.0
H1643 H 0.21418 0.48869 0.31605 0.0
H1644 H 0.19812 0.49826 0.28698 0.0
H1645 H 0.21798 0.45997 0.19023 0.0
H1646 H 0.22389 0.42598 0.21169 0.0
H1647 H 0.23486 0.45383 0.29674 0.0
C1648 C 0.23328 0.52877 0.24586 0.0
C1649 C 0.23379 0.53816 0.21792 0.0
C1650 C 0.22855 0.52659 0.19277 0.0
C1651 C 0.22358 0.5058 0.19536 0.0
C1652 C 0.22378 0.49693 0.22323 0.0
C1653 C 0.22846 0.5081 0.24804 0.0
C1654 C 0.23033 0.49461 0.27489 0.0
C1655 C 0.25169 0.4964 0.28885 0.0
C1656 C 0.21347 0.4995 0.29727 0.0
C1657 C 0.22704 0.4739 0.26108 0.0
C1658 C 0.22274 0.47559 0.23143 0.0
C1659 C 0.22098 0.45847 0.2135 0.0
C1660 C 0.22444 0.43921 0.22593 0.0
C1661 C 0.2299 0.43722 0.25595 0.0
C1662 C 0.23043 0.45478 0.27387 0.0
H1663 H 0.53084 0.23091 0.29545 0.0
H1664 H 0.56519 0.2254 0.21443 0.0
H1665 H 0.53396 0.21514 0.18838 0.0
H1666 H 0.49177 0.18852 0.27788 0.0
H1667 H 0.47181 0.2032 0.29508 0.0
H1668 H 0.49757 0.20457 0.30894 0.0
H1669 H 0.49684 0.24392 0.30307 0.0
H1670 H 0.47131 0.2427 0.289 0.0
H1671 H 0.49106 0.25481 0.26765 0.0
H1672 H 0.49849 0.21431 0.1689 0.0
H1673 H 0.46203 0.22099 0.15872 0.0
H1674 H 0.4507 0.22544 0.2524 0.0
C1675 C 0.53197 0.22663 0.27255 0.0
C1676 C 0.55044 0.22904 0.25703 0.0
C1677 C 0.55119 0.22373 0.22686 0.0
C1678 C 0.53352 0.21777 0.21183 0.0
C1679 C 0.51525 0.21678 0.22735 0.0
C1680 C 0.51443 0.22062 0.25723 0.0
C1681 C 0.49259 0.2213 0.26795 0.0
C1682 C 0.48818 0.20332 0.28869 0.0
C1683 C 0.48768 0.2419 0.28275 0.0
C1684 C 0.48132 0.21886 0.23914 0.0
C1685 C 0.49459 0.21581 0.21601 0.0
C1686 C 0.48786 0.21601 0.1869 0.0
C1687 C 0.46712 0.2199 0.18129 0.0
C1688 C 0.45344 0.22365 0.20472 0.0
C1689 C 0.46063 0.22232 0.23395 0.0
H1690 H 0.77225 0.52248 0.31215 0.0
H1691 H 0.78892 0.55586 0.23362 0.0
H1692 H 0.80046 0.52402 0.21056 0.0
H1693 H 0.81397 0.47902 0.30226 0.0
H1694 H 0.79597 0.46074 0.31656 0.0
H1695 H 0.79639 0.48646 0.33076 0.0
H1696 H 0.7579 0.48995 0.31899 0.0
H1697 H 0.75737 0.46462 0.30437 0.0
H1698 H 0.74916 0.48576 0.2819 0.0
H1699 H 0.79748 0.48927 0.19021 0.0
H1700 H 0.78494 0.45482 0.17741 0.0
H1701 H 0.77328 0.443 0.26957 0.0
C1702 C 0.77955 0.52324 0.29087 0.0
C1703 C 0.77944 0.54157 0.27461 0.0
C1704 C 0.7887 0.54194 0.24649 0.0
C1705 C 0.79538 0.52388 0.23317 0.0
C1706 C 0.79331 0.50563 0.24856 0.0
C1707 C 0.78637 0.50525 0.27732 0.0
C1708 C 0.78244 0.48354 0.28731 0.0
C1709 C 0.79814 0.47706 0.3106 0.0
C1710 C 0.76042 0.48084 0.29875 0.0
C1711 C 0.78587 0.47217 0.25878 0.0
C1712 C 0.79266 0.48503 0.23682 0.0
C1713 C 0.79306 0.4788 0.20745 0.0
C1714 C 0.7858 0.45922 0.20029 0.0
C1715 C 0.77829 0.4461 0.22245 0.0
C1716 C 0.77936 0.45242 0.25212 0.0
H1717 H 0.44604 0.74165 0.25615 0.0
H1718 H 0.45864 0.75635 0.34729 0.0
H1719 H 0.49388 0.76587 0.33379 0.0
H1720 H 0.48988 0.71645 0.2437 0.0
H1721 H 0.49348 0.72467 0.20628 0.0
H1722 H 0.46826 0.72387 0.2216 0.0
H1723 H 0.46311 0.76208 0.20865 0.0
H1724 H 0.48845 0.763 0.19326 0.0
H1725 H 0.4812 0.78075 0.22165 0.0
H1726 H 0.52865 0.76772 0.31253 0.0
H1727 H 0.5605 0.75973 0.2862 0.0
H1728 H 0.5257 0.74346 0.20873 0.0
C1729 C 0.45596 0.74754 0.27317 0.0
C1730 C 0.4495 0.74841 0.30278 0.0
C1731 C 0.46318 0.75567 0.32446 0.0
C1732 C 0.48319 0.76125 0.31693 0.0
C1733 C 0.48923 0.75959 0.28764 0.0
C1734 C 0.47597 0.75296 0.26607 0.0
C1735 C 0.48693 0.74955 0.23718 0.0
C1736 C 0.4845 0.72732 0.22661 0.0
C1737 C 0.47948 0.76476 0.21381 0.0
C1738 C 0.50867 0.75412 0.24627 0.0
C1739 C 0.50957 0.76045 0.27526 0.0
C1740 C 0.5281 0.76326 0.28966 0.0
C1741 C 0.54612 0.75865 0.27454 0.0
C1742 C 0.54549 0.75119 0.24537 0.0
C1743 C 0.52659 0.74973 0.2307 0.0
H1744 H 0.1716 0.13778 0.20584 0.0
H1745 H 0.2041 0.11134 0.2798 0.0
H1746 H 0.18516 0.13328 0.31356 0.0
H1747 H 0.16646 0.18968 0.23539 0.0
H1748 H 0.1408 0.19289 0.22182 0.0
H1749 H 0.15846 0.17661 0.20251 0.0
H1750 H 0.13291 0.14653 0.2064 0.0
H1751 H 0.11521 0.1627 0.22572 0.0
H1752 H 0.12349 0.139 0.24198 0.0
H1753 H 0.16232 0.15692 0.33992 0.0
H1754 H 0.13516 0.17981 0.35761 0.0
H1755 H 0.11515 0.1895 0.26772 0.0
C1756 C 0.17496 0.13687 0.22908 0.0
C1757 C 0.18989 0.1232 0.23994 0.0
C1758 C 0.19336 0.12207 0.27063 0.0
C1759 C 0.18253 0.13443 0.29016 0.0
C1760 C 0.16797 0.14769 0.27883 0.0
C1761 C 0.16397 0.14892 0.24908 0.0
C1762 C 0.14638 0.16344 0.24314 0.0
C1763 C 0.15346 0.18174 0.22462 0.0
C1764 C 0.12844 0.15224 0.22845 0.0
C1765 C 0.14111 0.16991 0.27422 0.0
C1766 C 0.15398 0.16082 0.29435 0.0
C1767 C 0.15215 0.16422 0.3244 0.0
C1768 C 0.13666 0.17724 0.33422 0.0
C1769 C 0.12305 0.18655 0.31409 0.0
C1770 C 0.12537 0.1828 0.28368 0.0
H1771 H 0.86066 0.18546 0.23199 0.0
H1772 H 0.84464 0.16637 0.14362 0.0
H1773 H 0.81974 0.142 0.16406 0.0
H1774 H 0.85684 0.13695 0.26645 0.0
H1775 H 0.84556 0.14653 0.29981 0.0
H1776 H 0.86215 0.16265 0.27844 0.0
H1777 H 0.83375 0.1901 0.2751 0.0
H1778 H 0.8171 0.17412 0.2966 0.0
H1779 H 0.80897 0.18315 0.26108 0.0
H1780 H 0.79851 0.11847 0.19359 0.0
H1781 H 0.77967 0.09872 0.23023 0.0
H1782 H 0.80687 0.13479 0.30007 0.0
C1783 C 0.8518 0.17638 0.21686 0.0
C1784 C 0.85458 0.17794 0.18612 0.0
C1785 C 0.84275 0.16552 0.16721 0.0
C1786 C 0.82859 0.15161 0.1786 0.0
C1787 C 0.82627 0.15048 0.20895 0.0
C1788 C 0.83733 0.16266 0.22785 0.0
C1789 C 0.83163 0.1585 0.2596 0.0
C1790 C 0.85015 0.15069 0.2771 0.0
C1791 C 0.82231 0.17761 0.27393 0.0
C1792 C 0.81579 0.14187 0.25555 0.0
C1793 C 0.81311 0.13746 0.22611 0.0
C1794 C 0.8001 0.12208 0.21666 0.0
C1795 C 0.78931 0.11103 0.23778 0.0
C1796 C 0.7912 0.1156 0.2681 0.0
C1797 C 0.80479 0.13117 0.27707 0.0
H1798 H 0.85023 0.82447 0.29952 0.0
H1799 H 0.84145 0.76536 0.25867 0.0
H1800 H 0.81945 0.78091 0.22108 0.0
H1801 H 0.79769 0.84297 0.28596 0.0
H1802 H 0.80594 0.86878 0.27905 0.0
H1803 H 0.82026 0.85273 0.30375 0.0
H1804 H 0.85288 0.85922 0.27298 0.0
H1805 H 0.8386 0.87502 0.24794 0.0
H1806 H 0.85277 0.85341 0.23429 0.0
H1807 H 0.80062 0.80301 0.18579 0.0
H1808 H 0.78243 0.82997 0.15824 0.0
H1809 H 0.80237 0.87482 0.22231 0.0
C1810 C 0.8433 0.81482 0.28298 0.0
C1811 C 0.84787 0.79379 0.28154 0.0
C1812 C 0.8387 0.78159 0.25956 0.0
C1813 C 0.82603 0.79026 0.23823 0.0
C1814 C 0.82251 0.81117 0.23937 0.0
C1815 C 0.83053 0.82329 0.26143 0.0
C1816 C 0.82443 0.84542 0.25722 0.0
C1817 C 0.81129 0.85291 0.28303 0.0
C1818 C 0.8433 0.85907 0.25284 0.0
C1819 C 0.81199 0.84379 0.22924 0.0
C1820 C 0.81117 0.82391 0.21926 0.0
C1821 C 0.80096 0.81864 0.19349 0.0
C1822 C 0.79083 0.83406 0.17786 0.0
C1823 C 0.79091 0.85442 0.18823 0.0
C1824 C 0.80189 0.85933 0.21402 0.0
H1825 H 0.19007 0.86316 0.26545 0.0
H1826 H 0.19455 0.82743 0.34546 0.0
H1827 H 0.17639 0.799 0.32116 0.0
H1828 H 0.14006 0.84888 0.24837 0.0
H1829 H 0.14379 0.84825 0.20917 0.0
H1830 H 0.15932 0.86469 0.23156 0.0
H1831 H 0.19197 0.84781 0.21051 0.0
H1832 H 0.17649 0.83122 0.18809 0.0
H1833 H 0.19506 0.8205 0.21293 0.0
H1834 H 0.156 0.77562 0.2897 0.0
H1835 H 0.13227 0.7597 0.25456 0.0
H1836 H 0.13981 0.8109 0.19525 0.0
C1837 C 0.18756 0.8492 0.27768 0.0
C1838 C 0.19385 0.84737 0.30725 0.0
C1839 C 0.18988 0.82909 0.32277 0.0
C1840 C 0.17972 0.81283 0.30909 0.0
C1841 C 0.17361 0.81517 0.27995 0.0
C1842 C 0.17726 0.83293 0.26445 0.0
C1843 C 0.16745 0.83225 0.23431 0.0
C1844 C 0.15172 0.84954 0.23066 0.0
C1845 C 0.18372 0.83298 0.21002 0.0
C1846 C 0.15723 0.81152 0.23556 0.0
C1847 C 0.16131 0.80182 0.26192 0.0
C1848 C 0.15274 0.78303 0.26898 0.0
C1849 C 0.13912 0.77421 0.24902 0.0
C1850 C 0.13406 0.78425 0.2225 0.0
C1851 C 0.14368 0.80283 0.21526 0.0
H1852 H 0.8491 0.79987 0.73409 0.0
H1853 H 0.84436 0.82696 0.64738 0.0
H1854 H 0.82081 0.85302 0.66712 0.0
H1855 H 0.79594 0.80728 0.75384 0.0
H1856 H 0.80167 0.81246 0.79183 0.0
H1857 H 0.81809 0.79594 0.77079 0.0
H1858 H 0.84909 0.81877 0.78388 0.0
H1859 H 0.83276 0.83545 0.80476 0.0
H1860 H 0.84824 0.84568 0.77555 0.0
H1861 H 0.79992 0.87732 0.69682 0.0
H1862 H 0.77994 0.89643 0.73316 0.0
H1863 H 0.796 0.852 0.80012 0.0
C1864 C 0.8431 0.81114 0.71914 0.0
C1865 C 0.84867 0.81137 0.68916 0.0
C1866 C 0.84027 0.82643 0.6704 0.0
C1867 C 0.82695 0.84134 0.68143 0.0
C1868 C 0.82197 0.84076 0.71116 0.0
C1869 C 0.82953 0.82589 0.72968 0.0
C1870 C 0.82143 0.82848 0.76064 0.0
C1871 C 0.80851 0.80994 0.76981 0.0
C1872 C 0.83892 0.83233 0.78249 0.0
C1873 C 0.80833 0.84735 0.75672 0.0
C1874 C 0.80903 0.85424 0.72804 0.0
C1875 C 0.7989 0.87185 0.71919 0.0
C1876 C 0.78744 0.88253 0.74005 0.0
C1877 C 0.78585 0.87542 0.76937 0.0
C1878 C 0.79666 0.85768 0.77782 0.0
H1879 H 0.18015 0.86286 0.74269 0.0
H1880 H 0.18761 0.82759 0.66277 0.0
H1881 H 0.16953 0.79859 0.68594 0.0
H1882 H 0.18552 0.82045 0.79491 0.0
H1883 H 0.16619 0.83048 0.81911 0.0
H1884 H 0.18144 0.84763 0.79728 0.0
H1885 H 0.14857 0.8634 0.77509 0.0
H1886 H 0.13325 0.84637 0.79687 0.0
H1887 H 0.13016 0.84697 0.75755 0.0
H1888 H 0.1492 0.77435 0.71676 0.0
H1889 H 0.12599 0.75734 0.75152 0.0
H1890 H 0.13084 0.80879 0.81094 0.0
C1891 C 0.17831 0.84891 0.73021 0.0
C1892 C 0.18544 0.84736 0.70102 0.0
C1893 C 0.18231 0.82904 0.68518 0.0
C1894 C 0.17218 0.81248 0.69823 0.0
C1895 C 0.16529 0.81456 0.72705 0.0
C1896 C 0.16813 0.83234 0.7428 0.0
C1897 C 0.15788 0.83127 0.77257 0.0
C1898 C 0.17371 0.83253 0.79744 0.0
C1899 C 0.14149 0.84799 0.77568 0.0
C1900 C 0.14841 0.81022 0.7709 0.0
C1901 C 0.15313 0.80075 0.7446 0.0
C1902 C 0.1454 0.78162 0.73738 0.0
C1903 C 0.13203 0.77218 0.75712 0.0
C1904 C 0.12635 0.78194 0.7836 0.0
C1905 C 0.13512 0.80093 0.79095 0.0
H1906 H 0.12763 0.1809 0.70518 0.0
H1907 H 0.1291 0.23409 0.76176 0.0
H1908 H 0.15334 0.21671 0.79466 0.0
H1909 H 0.12802 0.14439 0.76102 0.0
H1910 H 0.1443 0.12636 0.74242 0.0
H1911 H 0.12873 0.1437 0.72146 0.0
H1912 H 0.16085 0.15696 0.69429 0.0
H1913 H 0.17653 0.13956 0.71509 0.0
H1914 H 0.18217 0.1665 0.71523 0.0
H1915 H 0.17455 0.19258 0.82392 0.0
H1916 H 0.19254 0.16347 0.84677 0.0
H1917 H 0.17804 0.12594 0.77102 0.0
C1918 C 0.13344 0.18898 0.72417 0.0
C1919 C 0.12625 0.20868 0.73128 0.0
C1920 C 0.13393 0.21877 0.75642 0.0
C1921 C 0.14792 0.20911 0.77505 0.0
C1922 C 0.15419 0.1894 0.76808 0.0
C1923 C 0.14738 0.17948 0.74312 0.0
C1924 C 0.1556 0.15786 0.74174 0.0
C1925 C 0.13812 0.14216 0.74167 0.0
C1926 C 0.16962 0.15506 0.715 0.0
C1927 C 0.16762 0.15709 0.77016 0.0
C1928 C 0.16672 0.1755 0.7849 0.0
C1929 C 0.17564 0.17816 0.81242 0.0
C1930 C 0.18573 0.16153 0.82528 0.0
C1931 C 0.18681 0.14252 0.81058 0.0
C1932 C 0.17776 0.14039 0.78257 0.0
H1933 H 0.84645 0.1735 0.80819 0.0
H1934 H 0.88705 0.19321 0.73836 0.0
H1935 H 0.86751 0.17299 0.70276 0.0
H1936 H 0.8401 0.12122 0.78044 0.0
H1937 H 0.81366 0.11977 0.79114 0.0
H1938 H 0.8311 0.13555 0.81165 0.0
H1939 H 0.80747 0.16678 0.80337 0.0
H1940 H 0.79005 0.15114 0.78263 0.0
H1941 H 0.80055 0.17396 0.76647 0.0
H1942 H 0.84259 0.15273 0.67395 0.0
H1943 H 0.81514 0.13091 0.65426 0.0
H1944 H 0.79176 0.12225 0.74258 0.0
C1945 C 0.85131 0.17336 0.78548 0.0
C1946 C 0.86806 0.18527 0.77601 0.0
C1947 C 0.874 0.18463 0.74609 0.0
C1948 C 0.86307 0.17309 0.72564 0.0
C1949 C 0.84636 0.16196 0.73545 0.0
C1950 C 0.84063 0.1617 0.76467 0.0
C1951 C 0.82202 0.1483 0.76914 0.0
C1952 C 0.82703 0.13013 0.78929 0.0
C1953 C 0.80396 0.1608 0.78111 0.0
C1954 C 0.81814 0.14137 0.73785 0.0
C1955 C 0.83231 0.14954 0.7188 0.0
C1956 C 0.83149 0.14604 0.68866 0.0
C1957 C 0.81579 0.13369 0.67768 0.0
C1958 C 0.80123 0.12485 0.69681 0.0
C1959 C 0.80256 0.12873 0.72731 0.0
H1960 H 0.6834 0.6326 0.69905 0.0
H1961 H 0.70752 0.59396 0.76845 0.0
H1962 H 0.69 0.61479 0.80533 0.0
H1963 H 0.6859 0.68025 0.73848 0.0
H1964 H 0.66201 0.68985 0.72446 0.0
H1965 H 0.67689 0.67224 0.70289 0.0
H1966 H 0.64586 0.64783 0.69938 0.0
H1967 H 0.63087 0.66542 0.72082 0.0
H1968 H 0.63357 0.63926 0.73257 0.0
H1969 H 0.6711 0.64018 0.8352 0.0
H1970 H 0.64883 0.66697 0.85592 0.0
H1971 H 0.63507 0.6882 0.76785 0.0
C1972 C 0.68495 0.62854 0.72199 0.0
C1973 C 0.69729 0.61191 0.73081 0.0
C1974 C 0.6987 0.60695 0.76107 0.0
C1975 C 0.68869 0.61864 0.7823 0.0
C1976 C 0.677 0.63512 0.77302 0.0
C1977 C 0.6748 0.63996 0.74363 0.0
C1978 C 0.66073 0.65818 0.73982 0.0
C1979 C 0.67207 0.67619 0.72557 0.0
C1980 C 0.64162 0.65231 0.7221 0.0
C1981 C 0.65548 0.66269 0.77162 0.0
C1982 C 0.66524 0.64932 0.79037 0.0
C1983 C 0.66323 0.65068 0.82076 0.0
C1984 C 0.65063 0.66599 0.83233 0.0
C1985 C 0.64001 0.67953 0.81354 0.0
C1986 C 0.64262 0.67789 0.7828 0.0
H1987 H 0.29559 0.62688 0.76625 0.0
H1988 H 0.29903 0.65084 0.855 0.0
H1989 H 0.32057 0.67919 0.83728 0.0
H1990 H 0.34604 0.63696 0.7464 0.0
H1991 H 0.34047 0.64417 0.70905 0.0
H1992 H 0.32388 0.62674 0.72809 0.0
H1993 H 0.29299 0.6504 0.71772 0.0
H1994 H 0.30949 0.6679 0.6985 0.0
H1995 H 0.29409 0.67684 0.72866 0.0
H1996 H 0.34419 0.70261 0.81122 0.0
H1997 H 0.36763 0.72059 0.7784 0.0
H1998 H 0.34788 0.68271 0.70555 0.0
C1999 C 0.30048 0.6383 0.78189 0.0
C2000 C 0.29549 0.63673 0.81201 0.0
C2001 C 0.30259 0.65178 0.83182 0.0
C2002 C 0.31479 0.66796 0.82195 0.0
C2003 C 0.31958 0.66893 0.79219 0.0
C2004 C 0.31254 0.65462 0.77237 0.0
C2005 C 0.32073 0.65869 0.74179 0.0
C2006 C 0.33354 0.64056 0.7307 0.0
C2007 C 0.30328 0.66376 0.72041 0.0
C2008 C 0.33391 0.67724 0.74769 0.0
C2009 C 0.33293 0.68289 0.77689 0.0
C2010 C 0.3448 0.69861 0.78819 0.0
C2011 C 0.35814 0.70878 0.76922 0.0
C2012 C 0.35945 0.70339 0.73916 0.0
C2013 C 0.34695 0.68751 0.72826 0.0
H2014 H 0.34986 0.30748 0.80431 0.0
H2015 H 0.3516 0.25508 0.74627 0.0
H2016 H 0.33043 0.27353 0.71018 0.0
H2017 H 0.29683 0.32398 0.78558 0.0
H2018 H 0.30343 0.35067 0.78746 0.0
H2019 H 0.31662 0.33243 0.81028 0.0
H2020 H 0.35119 0.34479 0.78917 0.0
H2021 H 0.33813 0.36288 0.76607 0.0
H2022 H 0.3552 0.34439 0.75001 0.0
H2023 H 0.31234 0.2987 0.67834 0.0
H2024 H 0.29675 0.32851 0.65377 0.0
H2025 H 0.30661 0.36476 0.7323 0.0
C2026 C 0.34524 0.29976 0.78436 0.0
C2027 C 0.35242 0.27995 0.77786 0.0
C2028 C 0.34653 0.27039 0.75133 0.0
C2029 C 0.33438 0.28069 0.73083 0.0
C2030 C 0.32818 0.30052 0.73727 0.0
C2031 C 0.3332 0.30992 0.76351 0.0
C2032 C 0.32573 0.33183 0.76405 0.0
C2033 C 0.3097 0.3349 0.78828 0.0
C2034 C 0.34363 0.34685 0.76752 0.0
C2035 C 0.31619 0.33336 0.7338 0.0
C2036 C 0.31766 0.31509 0.71881 0.0
C2037 C 0.31083 0.31303 0.68998 0.0
C2038 C 0.30212 0.33006 0.67615 0.0
C2039 C 0.30033 0.34891 0.69117 0.0
C2040 C 0.30748 0.35049 0.72038 0.0
H2041 H 0.62353 0.30075 0.74379 0.0
H2042 H 0.62896 0.32689 0.65652 0.0
H2043 H 0.65161 0.35364 0.67616 0.0
H2044 H 0.62399 0.34794 0.78458 0.0
H2045 H 0.63939 0.33799 0.81412 0.0
H2046 H 0.62291 0.32116 0.79366 0.0
H2047 H 0.65373 0.29787 0.78138 0.0
H2048 H 0.67026 0.31454 0.80197 0.0
H2049 H 0.67597 0.30878 0.76417 0.0
H2050 H 0.67299 0.37753 0.70464 0.0
H2051 H 0.69487 0.39585 0.73953 0.0
H2052 H 0.67749 0.35355 0.80863 0.0
C2053 C 0.62944 0.31206 0.72879 0.0
C2054 C 0.62441 0.31172 0.69858 0.0
C2055 C 0.63263 0.32679 0.67971 0.0
C2056 C 0.64543 0.34211 0.69068 0.0
C2057 C 0.65001 0.34204 0.72053 0.0
C2058 C 0.6425 0.32731 0.73932 0.0
C2059 C 0.65065 0.3303 0.77025 0.0
C2060 C 0.63319 0.33461 0.79193 0.0
C2061 C 0.66341 0.31177 0.78001 0.0
C2062 C 0.66391 0.34903 0.76583 0.0
C2063 C 0.66306 0.35559 0.73699 0.0
C2064 C 0.67392 0.37248 0.72723 0.0
C2065 C 0.68638 0.38272 0.74726 0.0
C2066 C 0.68813 0.37596 0.77673 0.0
C2067 C 0.67644 0.35908 0.78627 0.0
H2068 H 0.34947 0.30887 0.17602 0.0
H2069 H 0.35713 0.25802 0.23596 0.0
H2070 H 0.33302 0.2738 0.2705 0.0
H2071 H 0.3476 0.34722 0.22897 0.0
H2072 H 0.32826 0.3624 0.21114 0.0
H2073 H 0.34465 0.34621 0.18964 0.0
H2074 H 0.31303 0.32812 0.16741 0.0
H2075 H 0.29651 0.34438 0.18874 0.0
H2076 H 0.29424 0.31701 0.1915 0.0
H2077 H 0.31119 0.29675 0.30091 0.0
H2078 H 0.29121 0.3246 0.32374 0.0
H2079 H 0.29638 0.35991 0.24343 0.0
C2080 C 0.3457 0.30091 0.19615 0.0
C2081 C 0.35553 0.28249 0.20371 0.0
C2082 C 0.35039 0.27252 0.23026 0.0
C2083 C 0.33646 0.28123 0.24986 0.0
C2084 C 0.32759 0.29981 0.24238 0.0
C2085 C 0.33176 0.30943 0.21601 0.0
C2086 C 0.32091 0.32981 0.21407 0.0
C2087 C 0.33628 0.34744 0.21077 0.0
C2088 C 0.30524 0.32982 0.18894 0.0
C2089 C 0.3105 0.3303 0.24374 0.0
C2090 C 0.31447 0.31281 0.25969 0.0
C2091 C 0.30764 0.31038 0.28847 0.0
C2092 C 0.29641 0.32628 0.3013 0.0
C2093 C 0.29211 0.34426 0.28525 0.0
C2094 C 0.29912 0.34616 0.25605 0.0
H2095 H 0.6242 0.30074 0.25205 0.0
H2096 H 0.63793 0.31738 0.34223 0.0
H2097 H 0.66294 0.34267 0.32449 0.0
H2098 H 0.67625 0.30435 0.22561 0.0
H2099 H 0.66887 0.31436 0.1903 0.0
H2100 H 0.65183 0.2977 0.21004 0.0
H2101 H 0.62338 0.32511 0.20703 0.0
H2102 H 0.64035 0.34191 0.18744 0.0
H2103 H 0.62827 0.35046 0.22079 0.0
H2104 H 0.68507 0.36691 0.29736 0.0
H2105 H 0.7052 0.38727 0.26278 0.0
H2106 H 0.67925 0.35345 0.1897 0.0
C2107 C 0.63259 0.30948 0.26814 0.0
C2108 C 0.62917 0.30695 0.2986 0.0
C2109 C 0.64033 0.31898 0.31882 0.0
C2110 C 0.65455 0.33341 0.30896 0.0
C2111 C 0.65753 0.33548 0.27883 0.0
C2112 C 0.64705 0.32374 0.25869 0.0
C2113 C 0.65343 0.32883 0.22751 0.0
C2114 C 0.66318 0.3102 0.21248 0.0
C2115 C 0.63527 0.33707 0.20965 0.0
C2116 C 0.66907 0.34539 0.2333 0.0
C2117 C 0.67102 0.34902 0.26308 0.0
C2118 C 0.68396 0.36398 0.27404 0.0
C2119 C 0.69546 0.37538 0.25411 0.0
C2120 C 0.69427 0.37162 0.22348 0.0
C2121 C 0.68071 0.35652 0.21296 0.0
H2122 H 0.67745 0.62869 0.31057 0.0
H2123 H 0.69731 0.59085 0.2377 0.0
H2124 H 0.67813 0.61253 0.20335 0.0
H2125 H 0.62608 0.63755 0.28264 0.0
H2126 H 0.6251 0.66354 0.29562 0.0
H2127 H 0.6404 0.64494 0.31474 0.0
H2128 H 0.67212 0.66824 0.30887 0.0
H2129 H 0.65695 0.68681 0.28949 0.0
H2130 H 0.67965 0.67653 0.27272 0.0
H2131 H 0.65824 0.63912 0.17632 0.0
H2132 H 0.63599 0.66721 0.15916 0.0
H2133 H 0.62787 0.68689 0.24935 0.0
C2134 C 0.67759 0.62489 0.28744 0.0
C2135 C 0.68914 0.60825 0.27681 0.0
C2136 C 0.68891 0.60375 0.24635 0.0
C2137 C 0.678 0.61594 0.2266 0.0
C2138 C 0.66718 0.6325 0.2376 0.0
C2139 C 0.66663 0.63687 0.26731 0.0
C2140 C 0.65357 0.65552 0.27323 0.0
C2141 C 0.6352 0.65005 0.29271 0.0
C2142 C 0.66634 0.67279 0.28688 0.0
C2143 C 0.64693 0.66083 0.24226 0.0
C2144 C 0.65512 0.64748 0.22202 0.0
C2145 C 0.65158 0.64961 0.19198 0.0
C2146 C 0.63902 0.66565 0.18243 0.0
C2147 C 0.62998 0.67918 0.20288 0.0
C2148 C 0.63419 0.67673 0.23313 0.0
H2149 H 0.31351 0.64515 0.20109 0.0
H2150 H 0.26171 0.6363 0.25878 0.0
H2151 H 0.27885 0.65642 0.29738 0.0
H2152 H 0.35074 0.63857 0.25412 0.0
H2153 H 0.36813 0.65767 0.24048 0.0
H2154 H 0.35073 0.64523 0.21571 0.0
H2155 H 0.33629 0.68032 0.19951 0.0
H2156 H 0.35386 0.69292 0.22401 0.0
H2157 H 0.32686 0.69785 0.22685 0.0
H2158 H 0.30309 0.67386 0.33153 0.0
H2159 H 0.33222 0.68917 0.35811 0.0
H2160 H 0.36845 0.68651 0.27844 0.0
C2161 C 0.30558 0.64806 0.22153 0.0
C2162 C 0.28637 0.6392 0.22714 0.0
C2163 C 0.27657 0.64278 0.25432 0.0
C2164 C 0.28612 0.6543 0.27627 0.0
C2165 C 0.30546 0.66216 0.27061 0.0
C2166 C 0.31502 0.65942 0.24381 0.0
C2167 C 0.33645 0.66811 0.24426 0.0
C2168 C 0.35245 0.6514 0.2383 0.0
C2169 C 0.33848 0.68586 0.22236 0.0
C2170 C 0.33758 0.67563 0.27567 0.0
C2171 C 0.31949 0.67222 0.29042 0.0
C2172 C 0.31724 0.67691 0.32011 0.0
C2173 C 0.3339 0.68547 0.33506 0.0
C2174 C 0.35253 0.68919 0.3203 0.0
C2175 C 0.3543 0.68418 0.29022 0.0
loop_
_geom_bond_atom_site_label_1
_geom_bond_atom_site_label_2
_geom_bond_distance
_geom_bond_site_symmetry_2
_ccdc_geom_bond_type
Mg0 O1 2.028 . S
Mg0 O7 1.986 . S
Mg0 O9 2.114 . S
Mg0 O10 2.251 . S
Mg0 O13 2.010 . S
O1 Mg0 2.028 . S
O1 C4 1.250 . S
O2 Mg3 2.028 . S
O2 C4 1.248 . S
Mg3 O2 2.028 . S
Mg3 O8 2.032 . S
Mg3 O10 2.079 . S
C4 O1 1.250 . S
C4 O2 1.248 . S
C5 O6 1.264 . S
C5 O13 1.249 . S
O6 C5 1.264 . S
O7 Mg0 1.986 . S
O7 C11 1.246 . S
O8 Mg3 2.032 . S
O8 C11 1.259 . S
O9 Mg0 2.114 . S
O9 C12 1.252 . S
O10 Mg0 2.251 . S
O10 Mg3 2.079 . S
O10 C12 1.273 . S
C11 O7 1.246 . S
C11 O8 1.259 . S
C12 O9 1.252 . S
C12 O10 1.273 . S
O13 Mg0 2.010 . S
O13 C5 1.249 . S
Mg14 O15 2.028 . S
Mg14 O21 1.986 . S
Mg14 O23 2.114 . S
Mg14 O24 2.251 . S
Mg14 O27 2.010 . S
O15 Mg14 2.028 . S
O15 C18 1.250 . S
O16 Mg17 2.028 . S
O16 C18 1.248 . S
Mg17 O16 2.028 . S
Mg17 O22 2.032 . S
Mg17 O24 2.079 . S
C18 O15 1.250 . S
C18 O16 1.248 . S
C19 O20 1.264 . S
C19 O27 1.249 . S
O20 C19 1.264 . S
O21 Mg14 1.986 . S
O21 C25 1.246 . S
O22 Mg17 2.032 . S
O22 C25 1.259 . S
O23 Mg14 2.114 . S
O23 C26 1.252 . S
O24 Mg14 2.251 . S
O24 Mg17 2.079 . S
O24 C26 1.273 . S
C25 O21 1.246 . S
C25 O22 1.259 . S
C26 O23 1.252 . S
C26 O24 1.273 . S
O27 Mg14 2.010 . S
O27 C19 1.249 . S
Mg28 O29 2.028 . S
Mg28 O35 1.986 . S
Mg28 O37 2.114 . S
Mg28 O38 2.251 . S
Mg28 O41 2.010 . S
O29 Mg28 2.028 . S
O29 C32 1.250 . S
O30 Mg31 2.028 . S
O30 C32 1.248 . S
Mg31 O30 2.028 . S
Mg31 O36 2.032 . S
Mg31 O38 2.079 . S
C32 O29 1.250 . S
C32 O30 1.248 . S
C33 O34 1.264 . S
C33 O41 1.249 . S
O34 C33 1.264 . S
O35 Mg28 1.986 . S
O35 C39 1.246 . S
O36 Mg31 2.032 . S
O36 C39 1.259 . S
O37 Mg28 2.114 . S
O37 C40 1.252 . S
O38 Mg28 2.251 . S
O38 Mg31 2.079 . S
O38 C40 1.273 . S
C39 O35 1.246 . S
C39 O36 1.259 . S
C40 O37 1.252 . S
C40 O38 1.273 . S
O41 Mg28 2.010 . S
O41 C33 1.249 . S
Mg42 O43 2.028 . S
Mg42 O49 1.986 . S
Mg42 O51 2.114 . S
Mg42 O52 2.251 . S
Mg42 O55 2.010 . S
O43 Mg42 2.028 . S
O43 C46 1.250 . S
O44 Mg45 2.028 . S
O44 C46 1.248 . S
Mg45 O44 2.028 . S
Mg45 O50 2.032 . S
Mg45 O52 2.079 . S
C46 O43 1.250 . S
C46 O44 1.248 . S
C47 O48 1.264 . S
C47 O55 1.249 . S
O48 C47 1.264 . S
O49 Mg42 1.986 . S
O49 C53 1.246 . S
O50 Mg45 2.032 . S
O50 C53 1.259 . S
O51 Mg42 2.114 . S
O51 C54 1.252 . S
O52 Mg42 2.251 . S
O52 Mg45 2.079 . S
O52 C54 1.273 . S
C53 O49 1.246 . S
C53 O50 1.259 . S
C54 O51 1.252 . S
C54 O52 1.273 . S
O55 Mg42 2.010 . S
O55 C47 1.249 . S
Mg56 O57 2.028 . S
Mg56 O63 1.986 . S
Mg56 O65 2.114 . S
Mg56 O66 2.251 . S
Mg56 O69 2.010 . S
O57 Mg56 2.028 . S
O57 C60 1.250 . S
O58 Mg59 2.028 . S
O58 C60 1.248 . S
Mg59 O58 2.028 . S
Mg59 O64 2.032 . S
Mg59 O66 2.079 . S
C60 O57 1.250 . S
C60 O58 1.248 . S
C61 O62 1.264 . S
C61 O69 1.249 . S
O62 C61 1.264 . S
O63 Mg56 1.986 . S
O63 C67 1.246 . S
O64 Mg59 2.032 . S
O64 C67 1.259 . S
O65 Mg56 2.114 . S
O65 C68 1.252 . S
O66 Mg56 2.251 . S
O66 Mg59 2.079 . S
O66 C68 1.273 . S
C67 O63 1.246 . S
C67 O64 1.259 . S
C68 O65 1.252 . S
C68 O66 1.273 . S
O69 Mg56 2.010 . S
O69 C61 1.249 . S
Mg70 O71 2.028 . S
Mg70 O77 1.986 . S
Mg70 O79 2.114 . S
Mg70 O80 2.251 . S
Mg70 O83 2.010 . S
O71 Mg70 2.028 . S
O71 C74 1.250 . S
O72 Mg73 2.028 . S
O72 C74 1.248 . S
Mg73 O72 2.028 . S
Mg73 O78 2.032 . S
Mg73 O80 2.079 . S
C74 O71 1.250 . S
C74 O72 1.248 . S
C75 O76 1.264 . S
C75 O83 1.249 . S
O76 C75 1.264 . S
O77 Mg70 1.986 . S
O77 C81 1.246 . S
O78 Mg73 2.032 . S
O78 C81 1.259 . S
O79 Mg70 2.114 . S
O79 C82 1.252 . S
O80 Mg70 2.251 . S
O80 Mg73 2.079 . S
O80 C82 1.273 . S
C81 O77 1.246 . S
C81 O78 1.259 . S
C82 O79 1.252 . S
C82 O80 1.273 . S
O83 Mg70 2.010 . S
O83 C75 1.249 . S
Mg84 O85 2.028 . S
Mg84 O91 1.986 . S
Mg84 O93 2.114 . S
Mg84 O94 2.251 . S
Mg84 O97 2.010 . S
O85 Mg84 2.028 . S
O85 C88 1.250 . S
O86 Mg87 2.028 . S
O86 C88 1.248 . S
Mg87 O86 2.028 . S
Mg87 O92 2.032 . S
Mg87 O94 2.079 . S
C88 O85 1.250 . S
C88 O86 1.248 . S
C89 O90 1.264 . S
C89 O97 1.249 . S
O90 C89 1.264 . S
O91 Mg84 1.986 . S
O91 C95 1.246 . S
O92 Mg87 2.032 . S
O92 C95 1.259 . S
O93 Mg84 2.114 . S
O93 C96 1.252 . S
O94 Mg84 2.251 . S
O94 Mg87 2.079 . S
O94 C96 1.273 . S
C95 O91 1.246 . S
C95 O92 1.259 . S
C96 O93 1.252 . S
C96 O94 1.273 . S
O97 Mg84 2.010 . S
O97 C89 1.249 . S
Mg98 O99 2.028 . S
Mg98 O105 1.986 . S
Mg98 O107 2.114 . S
Mg98 O108 2.251 . S
Mg98 O111 2.010 . S
O99 Mg98 2.028 . S
O99 C102 1.250 . S
O100 Mg101 2.028 . S
O100 C102 1.248 . S
Mg101 O100 2.028 . S
Mg101 O106 2.032 . S
Mg101 O108 2.079 . S
C102 O99 1.250 . S
C102 O100 1.248 . S
C103 O104 1.264 . S
C103 O111 1.249 . S
O104 C103 1.264 . S
O105 Mg98 1.986 . S
O105 C109 1.246 . S
O106 Mg101 2.032 . S
O106 C109 1.259 . S
O107 Mg98 2.114 . S
O107 C110 1.252 . S
O108 Mg98 2.251 . S
O108 Mg101 2.079 . S
O108 C110 1.273 . S
C109 O105 1.246 . S
C109 O106 1.259 . S
C110 O107 1.252 . S
C110 O108 1.273 . S
O111 Mg98 2.010 . S
O111 C103 1.249 . S
Mg112 O113 2.028 . S
Mg112 O119 1.986 . S
Mg112 O121 2.114 . S
Mg112 O122 2.251 . S
Mg112 O125 2.010 . S
O113 Mg112 2.028 . S
O113 C116 1.250 . S
O114 Mg115 2.028 . S
O114 C116 1.248 . S
Mg115 O114 2.028 . S
Mg115 O120 2.032 . S
Mg115 O122 2.079 . S
C116 O113 1.250 . S
C116 O114 1.248 . S
C117 O118 1.264 . S
C117 O125 1.249 . S
O118 C117 1.264 . S
O119 Mg112 1.986 . S
O119 C123 1.246 . S
O120 Mg115 2.032 . S
O120 C123 1.259 . S
O121 Mg112 2.114 . S
O121 C124 1.252 . S
O122 Mg112 2.251 . S
O122 Mg115 2.079 . S
O122 C124 1.273 . S
C123 O119 1.246 . S
C123 O120 1.259 . S
C124 O121 1.252 . S
C124 O122 1.273 . S
O125 Mg112 2.010 . S
O125 C117 1.249 . S
Mg126 O127 2.028 . S
Mg126 O133 1.986 . S
Mg126 O135 2.114 . S
Mg126 O136 2.251 . S
Mg126 O139 2.010 . S
O127 Mg126 2.028 . S
O127 C130 1.250 . S
O128 Mg129 2.028 . S
O128 C130 1.248 . S
Mg129 O128 2.028 . S
Mg129 O134 2.032 . S
Mg129 O136 2.079 . S
C130 O127 1.250 . S
C130 O128 1.248 . S
C131 O132 1.264 . S
C131 O139 1.249 . S
O132 C131 1.264 . S
O133 Mg126 1.986 . S
O133 C137 1.246 . S
O134 Mg129 2.032 . S
O134 C137 1.259 . S
O135 Mg126 2.114 . S
O135 C138 1.252 . S
O136 Mg126 2.251 . S
O136 Mg129 2.079 . S
O136 C138 1.273 . S
C137 O133 1.246 . S
C137 O134 1.259 . S
C138 O135 1.252 . S
C138 O136 1.273 . S
O139 Mg126 2.010 . S
O139 C131 1.249 . S
Mg140 O141 2.028 . S
Mg140 O147 1.986 . S
Mg140 O149 2.114 . S
Mg140 O150 2.251 . S
Mg140 O153 2.010 . S
O141 Mg140 2.028 . S
O141 C144 1.250 . S
O142 Mg143 2.028 . S
O142 C144 1.248 . S
Mg143 O142 2.028 . S
Mg143 O148 2.032 . S
Mg143 O150 2.079 . S
C144 O141 1.250 . S
C144 O142 1.248 . S
C145 O146 1.264 . S
C145 O153 1.249 . S
O146 C145 1.264 . S
O147 Mg140 1.986 . S
O147 C151 1.246 . S
O148 Mg143 2.032 . S
O148 C151 1.259 . S
O149 Mg140 2.114 . S
O149 C152 1.252 . S
O150 Mg140 2.251 . S
O150 Mg143 2.079 . S
O150 C152 1.273 . S
C151 O147 1.246 . S
C151 O148 1.259 . S
C152 O149 1.252 . S
C152 O150 1.273 . S
O153 Mg140 2.010 . S
O153 C145 1.249 . S
Mg154 O155 2.028 . S
Mg154 O161 1.986 . S
Mg154 O163 2.114 . S
Mg154 O164 2.251 . S
Mg154 O167 2.010 . S
O155 Mg154 2.028 . S
O155 C158 1.250 . S
O156 Mg157 2.028 . S
O156 C158 1.248 . S
Mg157 O156 2.028 . S
Mg157 O162 2.032 . S
Mg157 O164 2.079 . S
C158 O155 1.250 . S
C158 O156 1.248 . S
C159 O160 1.264 . S
C159 O167 1.249 . S
O160 C159 1.264 . S
O161 Mg154 1.986 . S
O161 C165 1.246 . S
O162 Mg157 2.032 . S
O162 C165 1.259 . S
O163 Mg154 2.114 . S
O163 C166 1.252 . S
O164 Mg154 2.251 . S
O164 Mg157 2.079 . S
O164 C166 1.273 . S
C165 O161 1.246 . S
C165 O162 1.259 . S
C166 O163 1.252 . S
C166 O164 1.273 . S
O167 Mg154 2.010 . S
O167 C159 1.249 . S
Mg168 O169 2.028 . S
Mg168 O175 1.986 . S
Mg168 O177 2.114 . S
Mg168 O178 2.251 . S
Mg168 O181 2.010 . S
O169 Mg168 2.028 . S
O169 C172 1.250 . S
O170 Mg171 2.028 . S
O170 C172 1.248 . S
Mg171 O170 2.028 . S
Mg171 O176 2.032 . S
Mg171 O178 2.079 . S
C172 O169 1.250 . S
C172 O170 1.248 . S
C173 O174 1.264 . S
C173 O181 1.249 . S
O174 C173 1.264 . S
O175 Mg168 1.986 . S
O175 C179 1.246 . S
O176 Mg171 2.032 . S
O176 C179 1.259 . S
O177 Mg168 2.114 . S
O177 C180 1.252 . S
O178 Mg168 2.251 . S
O178 Mg171 2.079 . S
O178 C180 1.273 . S
C179 O175 1.246 . S
C179 O176 1.259 . S
C180 O177 1.252 . S
C180 O178 1.273 . S
O181 Mg168 2.010 . S
O181 C173 1.249 . S
Mg182 O183 2.028 . S
Mg182 O189 1.986 . S
Mg182 O191 2.114 . S
Mg182 O192 2.251 . S
Mg182 O195 2.010 . S
O183 Mg182 2.028 . S
O183 C186 1.250 . S
O184 Mg185 2.028 . S
O184 C186 1.248 . S
Mg185 O184 2.028 . S
Mg185 O190 2.032 . S
Mg185 O192 2.079 . S
C186 O183 1.250 . S
C186 O184 1.248 . S
C187 O188 1.264 . S
C187 O195 1.249 . S
O188 C187 1.264 . S
O189 Mg182 1.986 . S
O189 C193 1.246 . S
O190 Mg185 2.032 . S
O190 C193 1.259 . S
O191 Mg182 2.114 . S
O191 C194 1.252 . S
O192 Mg182 2.251 . S
O192 Mg185 2.079 . S
O192 C194 1.273 . S
C193 O189 1.246 . S
C193 O190 1.259 . S
C194 O191 1.252 . S
C194 O192 1.273 . S
O195 Mg182 2.010 . S
O195 C187 1.249 . S
Mg196 O197 2.028 . S
Mg196 O203 1.986 . S
Mg196 O205 2.114 . S
Mg196 O206 2.251 . S
Mg196 O209 2.010 . S
O197 Mg196 2.028 . S
O197 C200 1.250 . S
O198 Mg199 2.028 . S
O198 C200 1.248 . S
Mg199 O198 2.028 . S
Mg199 O204 2.032 . S
Mg199 O206 2.079 . S
C200 O197 1.250 . S
C200 O198 1.248 . S
C201 O202 1.264 . S
C201 O209 1.249 . S
O202 C201 1.264 . S
O203 Mg196 1.986 . S
O203 C207 1.246 . S
O204 Mg199 2.032 . S
O204 C207 1.259 . S
O205 Mg196 2.114 . S
O205 C208 1.252 . S
O206 Mg196 2.251 . S
O206 Mg199 2.079 . S
O206 C208 1.273 . S
C207 O203 1.246 . S
C207 O204 1.259 . S
C208 O205 1.252 . S
C208 O206 1.273 . S
O209 Mg196 2.010 . S
O209 C201 1.249 . S
Mg210 O211 2.028 . S
Mg210 O217 1.986 . S
Mg210 O219 2.114 . S
Mg210 O220 2.251 . S
Mg210 O223 2.010 . S
O211 Mg210 2.028 . S
O211 C214 1.250 . S
O212 Mg213 2.028 . S
O212 C214 1.248 . S
Mg213 O212 2.028 . S
Mg213 O218 2.032 . S
Mg213 O220 2.079 . S
C214 O211 1.250 . S
C214 O212 1.248 . S
C215 O216 1.264 . S
C215 O223 1.249 . S
O216 C215 1.264 . S
O217 Mg210 1.986 . S
O217 C221 1.246 . S
O218 Mg213 2.032 . S
O218 C221 1.259 . S
O219 Mg210 2.114 . S
O219 C222 1.252 . S
O220 Mg210 2.251 . S
O220 Mg213 2.079 . S
O220 C222 1.273 . S
C221 O217 1.246 . S
C221 O218 1.259 . S
C222 O219 1.252 . S
C222 O220 1.273 . S
O223 Mg210 2.010 . S
O223 C215 1.249 . S
Mg224 O225 2.028 . S
Mg224 O231 1.986 . S
Mg224 O233 2.114 . S
Mg224 O234 2.251 . S
Mg224 O237 2.010 . S
O225 Mg224 2.028 . S
O225 C228 1.250 . S
O226 Mg227 2.028 . S
O226 C228 1.248 . S
Mg227 O226 2.028 . S
Mg227 O232 2.032 . S
Mg227 O234 2.079 . S
C228 O225 1.250 . S
C228 O226 1.248 . S
C229 O230 1.264 . S
C229 O237 1.249 . S
O230 C229 1.264 . S
O231 Mg224 1.986 . S
O231 C235 1.246 . S
O232 Mg227 2.032 . S
O232 C235 1.259 . S
O233 Mg224 2.114 . S
O233 C236 1.252 . S
O234 Mg224 2.251 . S
O234 Mg227 2.079 . S
O234 C236 1.273 . S
C235 O231 1.246 . S
C235 O232 1.259 . S
C236 O233 1.252 . S
C236 O234 1.273 . S
O237 Mg224 2.010 . S
O237 C229 1.249 . S
Mg238 O239 2.028 . S
Mg238 O245 1.986 . S
Mg238 O247 2.114 . S
Mg238 O248 2.251 . S
Mg238 O251 2.010 . S
O239 Mg238 2.028 . S
O239 C242 1.250 . S
O240 Mg241 2.028 . S
O240 C242 1.248 . S
Mg241 O240 2.028 . S
Mg241 O246 2.032 . S
Mg241 O248 2.079 . S
C242 O239 1.250 . S
C242 O240 1.248 . S
C243 O244 1.264 . S
C243 O251 1.249 . S
O244 C243 1.264 . S
O245 Mg238 1.986 . S
O245 C249 1.246 . S
O246 Mg241 2.032 . S
O246 C249 1.259 . S
O247 Mg238 2.114 . S
O247 C250 1.252 . S
O248 Mg238 2.251 . S
O248 Mg241 2.079 . S
O248 C250 1.273 . S
C249 O245 1.246 . S
C249 O246 1.259 . S
C250 O247 1.252 . S
C250 O248 1.273 . S
O251 Mg238 2.010 . S
O251 C243 1.249 . S
Mg252 O253 2.028 . S
Mg252 O259 1.986 . S
Mg252 O261 2.114 . S
Mg252 O262 2.251 . S
Mg252 O265 2.010 . S
O253 Mg252 2.028 . S
O253 C256 1.250 . S
O254 Mg255 2.028 . S
O254 C256 1.248 . S
Mg255 O254 2.028 . S
Mg255 O260 2.032 . S
Mg255 O262 2.079 . S
C256 O253 1.250 . S
C256 O254 1.248 . S
C257 O258 1.264 . S
C257 O265 1.249 . S
O258 C257 1.264 . S
O259 Mg252 1.986 . S
O259 C263 1.246 . S
O260 Mg255 2.032 . S
O260 C263 1.259 . S
O261 Mg252 2.114 . S
O261 C264 1.252 . S
O262 Mg252 2.251 . S
O262 Mg255 2.079 . S
O262 C264 1.273 . S
C263 O259 1.246 . S
C263 O260 1.259 . S
C264 O261 1.252 . S
C264 O262 1.273 . S
O265 Mg252 2.010 . S
O265 C257 1.249 . S
Mg266 O267 2.028 . S
Mg266 O273 1.986 . S
Mg266 O275 2.114 . S
Mg266 O276 2.251 . S
Mg266 O279 2.010 . S
O267 Mg266 2.028 . S
O267 C270 1.250 . S
O268 Mg269 2.028 . S
O268 C270 1.248 . S
Mg269 O268 2.028 . S
Mg269 O274 2.032 . S
Mg269 O276 2.079 . S
C270 O267 1.250 . S
C270 O268 1.248 . S
C271 O272 1.264 . S
C271 O279 1.249 . S
O272 C271 1.264 . S
O273 Mg266 1.986 . S
O273 C277 1.246 . S
O274 Mg269 2.032 . S
O274 C277 1.259 . S
O275 Mg266 2.114 . S
O275 C278 1.252 . S
O276 Mg266 2.251 . S
O276 Mg269 2.079 . S
O276 C278 1.273 . S
C277 O273 1.246 . S
C277 O274 1.259 . S
C278 O275 1.252 . S
C278 O276 1.273 . S
O279 Mg266 2.010 . S
O279 C271 1.249 . S
Mg280 O281 2.028 . S
Mg280 O287 1.986 . S
Mg280 O289 2.114 . S
Mg280 O290 2.251 . S
Mg280 O293 2.010 . S
O281 Mg280 2.028 . S
O281 C284 1.250 . S
O282 Mg283 2.028 . S
O282 C284 1.248 . S
Mg283 O282 2.028 . S
Mg283 O288 2.032 . S
Mg283 O290 2.079 . S
C284 O281 1.250 . S
C284 O282 1.248 . S
C285 O286 1.264 . S
C285 O293 1.249 . S
O286 C285 1.264 . S
O287 Mg280 1.986 . S
O287 C291 1.246 . S
O288 Mg283 2.032 . S
O288 C291 1.259 . S
O289 Mg280 2.114 . S
O289 C292 1.252 . S
O290 Mg280 2.251 . S
O290 Mg283 2.079 . S
O290 C292 1.273 . S
C291 O287 1.246 . S
C291 O288 1.259 . S
C292 O289 1.252 . S
C292 O290 1.273 . S
O293 Mg280 2.010 . S
O293 C285 1.249 . S
Mg294 O295 2.028 . S
Mg294 O301 1.986 . S
Mg294 O303 2.114 . S
Mg294 O304 2.251 . S
Mg294 O307 2.010 . S
O295 Mg294 2.028 . S
O295 C298 1.250 . S
O296 Mg297 2.028 . S
O296 C298 1.248 . S
Mg297 O296 2.028 . S
Mg297 O302 2.032 . S
Mg297 O304 2.079 . S
C298 O295 1.250 . S
C298 O296 1.248 . S
C299 O300 1.264 . S
C299 O307 1.249 . S
O300 C299 1.264 . S
O301 Mg294 1.986 . S
O301 C305 1.246 . S
O302 Mg297 2.032 . S
O302 C305 1.259 . S
O303 Mg294 2.114 . S
O303 C306 1.252 . S
O304 Mg294 2.251 . S
O304 Mg297 2.079 . S
O304 C306 1.273 . S
C305 O301 1.246 . S
C305 O302 1.259 . S
C306 O303 1.252 . S
C306 O304 1.273 . S
O307 Mg294 2.010 . S
O307 C299 1.249 . S
Mg308 O309 2.028 . S
Mg308 O315 1.986 . S
Mg308 O317 2.114 . S
Mg308 O318 2.251 . S
Mg308 O321 2.010 . S
O309 Mg308 2.028 . S
O309 C312 1.250 . S
O310 Mg311 2.028 . S
O310 C312 1.248 . S
Mg311 O310 2.028 . S
Mg311 O316 2.032 . S
Mg311 O318 2.079 . S
C312 O309 1.250 . S
C312 O310 1.248 . S
C313 O314 1.264 . S
C313 O321 1.249 . S
O314 C313 1.264 . S
O315 Mg308 1.986 . S
O315 C319 1.246 . S
O316 Mg311 2.032 . S
O316 C319 1.259 . S
O317 Mg308 2.114 . S
O317 C320 1.252 . S
O318 Mg308 2.251 . S
O318 Mg311 2.079 . S
O318 C320 1.273 . S
C319 O315 1.246 . S
C319 O316 1.259 . S
C320 O317 1.252 . S
C320 O318 1.273 . S
O321 Mg308 2.010 . S
O321 C313 1.249 . S
Mg322 O323 2.028 . S
Mg322 O329 1.986 . S
Mg322 O331 2.114 . S
Mg322 O332 2.251 . S
Mg322 O335 2.010 . S
O323 Mg322 2.028 . S
O323 C326 1.250 . S
O324 Mg325 2.028 . S
O324 C326 1.248 . S
Mg325 O324 2.028 . S
Mg325 O330 2.032 . S
Mg325 O332 2.079 . S
C326 O323 1.250 . S
C326 O324 1.248 . S
C327 O328 1.264 . S
C327 O335 1.249 . S
O328 C327 1.264 . S
O329 Mg322 1.986 . S
O329 C333 1.246 . S
O330 Mg325 2.032 . S
O330 C333 1.259 . S
O331 Mg322 2.114 . S
O331 C334 1.252 . S
O332 Mg322 2.251 . S
O332 Mg325 2.079 . S
O332 C334 1.273 . S
C333 O329 1.246 . S
C333 O330 1.259 . S
C334 O331 1.252 . S
C334 O332 1.273 . S
O335 Mg322 2.010 . S
O335 C327 1.249 . S
Mg336 O337 2.028 . S
Mg336 O343 1.986 . S
Mg336 O345 2.114 . S
Mg336 O346 2.251 . S
Mg336 O349 2.010 . S
O337 Mg336 2.028 . S
O337 C340 1.250 . S
O338 Mg339 2.028 . S
O338 C340 1.248 . S
Mg339 O338 2.028 . S
Mg339 O344 2.032 . S
Mg339 O346 2.079 . S
C340 O337 1.250 . S
C340 O338 1.248 . S
C341 O342 1.264 . S
C341 O349 1.249 . S
O342 C341 1.264 . S
O343 Mg336 1.986 . S
O343 C347 1.246 . S
O344 Mg339 2.032 . S
O344 C347 1.259 . S
O345 Mg336 2.114 . S
O345 C348 1.252 . S
O346 Mg336 2.251 . S
O346 Mg339 2.079 . S
O346 C348 1.273 . S
C347 O343 1.246 . S
C347 O344 1.259 . S
C348 O345 1.252 . S
C348 O346 1.273 . S
O349 Mg336 2.010 . S
O349 C341 1.249 . S
Mg350 O351 2.028 . S
Mg350 O357 1.986 . S
Mg350 O359 2.114 . S
Mg350 O360 2.251 . S
Mg350 O363 2.010 . S
O351 Mg350 2.028 . S
O351 C354 1.250 . S
O352 Mg353 2.028 . S
O352 C354 1.248 . S
Mg353 O352 2.028 . S
Mg353 O358 2.032 . S
Mg353 O360 2.079 . S
C354 O351 1.250 . S
C354 O352 1.248 . S
C355 O356 1.264 . S
C355 O363 1.249 . S
O356 C355 1.264 . S
O357 Mg350 1.986 . S
O357 C361 1.246 . S
O358 Mg353 2.032 . S
O358 C361 1.259 . S
O359 Mg350 2.114 . S
O359 C362 1.252 . S
O360 Mg350 2.251 . S
O360 Mg353 2.079 . S
O360 C362 1.273 . S
C361 O357 1.246 . S
C361 O358 1.259 . S
C362 O359 1.252 . S
C362 O360 1.273 . S
O363 Mg350 2.010 . S
O363 C355 1.249 . S
Mg364 O365 2.028 . S
Mg364 O371 1.986 . S
Mg364 O373 2.114 . S
Mg364 O374 2.251 . S
Mg364 O377 2.010 . S
O365 Mg364 2.028 . S
O365 C368 1.250 . S
O366 Mg367 2.028 . S
O366 C368 1.248 . S
Mg367 O366 2.028 . S
Mg367 O372 2.032 . S
Mg367 O374 2.079 . S
C368 O365 1.250 . S
C368 O366 1.248 . S
C369 O370 1.264 . S
C369 O377 1.249 . S
O370 C369 1.264 . S
O371 Mg364 1.986 . S
O371 C375 1.246 . S
O372 Mg367 2.032 . S
O372 C375 1.259 . S
O373 Mg364 2.114 . S
O373 C376 1.252 . S
O374 Mg364 2.251 . S
O374 Mg367 2.079 . S
O374 C376 1.273 . S
C375 O371 1.246 . S
C375 O372 1.259 . S
C376 O373 1.252 . S
C376 O374 1.273 . S
O377 Mg364 2.010 . S
O377 C369 1.249 . S
Mg378 O379 2.028 . S
Mg378 O385 1.986 . S
Mg378 O387 2.114 . S
Mg378 O388 2.251 . S
Mg378 O391 2.010 . S
O379 Mg378 2.028 . S
O379 C382 1.250 . S
O380 Mg381 2.028 . S
O380 C382 1.248 . S
Mg381 O380 2.028 . S
Mg381 O386 2.032 . S
Mg381 O388 2.079 . S
C382 O379 1.250 . S
C382 O380 1.248 . S
C383 O384 1.264 . S
C383 O391 1.249 . S
O384 C383 1.264 . S
O385 Mg378 1.986 . S
O385 C389 1.246 . S
O386 Mg381 2.032 . S
O386 C389 1.259 . S
O387 Mg378 2.114 . S
O387 C390 1.252 . S
O388 Mg378 2.251 . S
O388 Mg381 2.079 . S
O388 C390 1.273 . S
C389 O385 1.246 . S
C389 O386 1.259 . S
C390 O387 1.252 . S
C390 O388 1.273 . S
O391 Mg378 2.010 . S
O391 C383 1.249 . S
Mg392 O393 2.028 . S
Mg392 O399 1.986 . S
Mg392 O401 2.114 . S
Mg392 O402 2.251 . S
Mg392 O405 2.010 . S
O393 Mg392 2.028 . S
O393 C396 1.250 . S
O394 Mg395 2.028 . S
O394 C396 1.248 . S
Mg395 O394 2.028 . S
Mg395 O400 2.032 . S
Mg395 O402 2.079 . S
C396 O393 1.250 . S
C396 O394 1.248 . S
C397 O398 1.264 . S
C397 O405 1.249 . S
O398 C397 1.264 . S
O399 Mg392 1.986 . S
O399 C403 1.246 . S
O400 Mg395 2.032 . S
O400 C403 1.259 . S
O401 Mg392 2.114 . S
O401 C404 1.252 . S
O402 Mg392 2.251 . S
O402 Mg395 2.079 . S
O402 C404 1.273 . S
C403 O399 1.246 . S
C403 O400 1.259 . S
C404 O401 1.252 . S
C404 O402 1.273 . S
O405 Mg392 2.010 . S
O405 C397 1.249 . S
Mg406 O407 2.028 . S
Mg406 O413 1.986 . S
Mg406 O415 2.114 . S
Mg406 O416 2.251 . S
Mg406 O419 2.010 . S
O407 Mg406 2.028 . S
O407 C410 1.250 . S
O408 Mg409 2.028 . S
O408 C410 1.248 . S
Mg409 O408 2.028 . S
Mg409 O414 2.032 . S
Mg409 O416 2.079 . S
C410 O407 1.250 . S
C410 O408 1.248 . S
C411 O412 1.264 . S
C411 O419 1.249 . S
O412 C411 1.264 . S
O413 Mg406 1.986 . S
O413 C417 1.246 . S
O414 Mg409 2.032 . S
O414 C417 1.259 . S
O415 Mg406 2.114 . S
O415 C418 1.252 . S
O416 Mg406 2.251 . S
O416 Mg409 2.079 . S
O416 C418 1.273 . S
C417 O413 1.246 . S
C417 O414 1.259 . S
C418 O415 1.252 . S
C418 O416 1.273 . S
O419 Mg406 2.010 . S
O419 C411 1.249 . S
Mg420 O421 2.028 . S
Mg420 O427 1.986 . S
Mg420 O429 2.114 . S
Mg420 O430 2.251 . S
Mg420 O433 2.010 . S
O421 Mg420 2.028 . S
O421 C424 1.250 . S
O422 Mg423 2.028 . S
O422 C424 1.248 . S
Mg423 O422 2.028 . S
Mg423 O428 2.032 . S
Mg423 O430 2.079 . S
C424 O421 1.250 . S
C424 O422 1.248 . S
C425 O426 1.264 . S
C425 O433 1.249 . S
O426 C425 1.264 . S
O427 Mg420 1.986 . S
O427 C431 1.246 . S
O428 Mg423 2.032 . S
O428 C431 1.259 . S
O429 Mg420 2.114 . S
O429 C432 1.252 . S
O430 Mg420 2.251 . S
O430 Mg423 2.079 . S
O430 C432 1.273 . S
C431 O427 1.246 . S
C431 O428 1.259 . S
C432 O429 1.252 . S
C432 O430 1.273 . S
O433 Mg420 2.010 . S
O433 C425 1.249 . S
Mg434 O435 2.028 . S
Mg434 O441 1.986 . S
Mg434 O443 2.114 . S
Mg434 O444 2.251 . S
Mg434 O447 2.010 . S
O435 Mg434 2.028 . S
O435 C438 1.250 . S
O436 Mg437 2.028 . S
O436 C438 1.248 . S
Mg437 O436 2.028 . S
Mg437 O442 2.032 . S
Mg437 O444 2.079 . S
C438 O435 1.250 . S
C438 O436 1.248 . S
C439 O440 1.264 . S
C439 O447 1.249 . S
O440 C439 1.264 . S
O441 Mg434 1.986 . S
O441 C445 1.246 . S
O442 Mg437 2.032 . S
O442 C445 1.259 . S
O443 Mg434 2.114 . S
O443 C446 1.252 . S
O444 Mg434 2.251 . S
O444 Mg437 2.079 . S
O444 C446 1.273 . S
C445 O441 1.246 . S
C445 O442 1.259 . S
C446 O443 1.252 . S
C446 O444 1.273 . S
O447 Mg434 2.010 . S
O447 C439 1.249 . S
H448 C460 0.930 . S
H449 C462 0.930 . S
H450 C463 0.930 . S
H451 C467 0.959 . S
H452 C467 0.959 . S
H453 C467 0.961 . S
H454 C468 0.960 . S
H455 C468 0.961 . S
H456 C468 0.959 . S
H457 C471 0.929 . S
H458 C472 0.931 . S
H459 C474 0.930 . S
C460 H448 0.930 . S
C460 C461 1.399 . S
C460 C465 1.399 . S
C461 C460 1.399 . S
C461 C462 1.376 . S
C462 H449 0.930 . S
C462 C461 1.376 . S
C462 C463 1.388 . S
C463 H450 0.930 . S
C463 C462 1.388 . S
C463 C464 1.390 . S
C464 C463 1.390 . S
C464 C465 1.394 . S
C464 C470 1.465 . S
C465 C460 1.399 . S
C465 C464 1.394 . S
C465 C466 1.516 . S
C466 C465 1.516 . S
C466 C467 1.502 . S
C466 C468 1.561 . S
C466 C469 1.526 . S
C467 H451 0.959 . S
C467 H452 0.959 . S
C467 H453 0.961 . S
C467 C466 1.502 . S
C468 H454 0.960 . S
C468 H455 0.961 . S
C468 H456 0.959 . S
C468 C466 1.561 . S
C469 C466 1.526 . S
C469 C470 1.396 . S
C469 C474 1.390 . S
C470 C464 1.465 . S
C470 C469 1.396 . S
C470 C471 1.399 . S
C471 H457 0.929 . S
C471 C470 1.399 . S
C471 C472 1.385 . S
C472 H458 0.931 . S
C472 C471 1.385 . S
C472 C473 1.389 . S
C473 C472 1.389 . S
C473 C474 1.387 . S
C474 H459 0.930 . S
C474 C469 1.390 . S
C474 C473 1.387 . S
H475 C487 0.930 . S
H476 C489 0.930 . S
H477 C490 0.930 . S
H478 C494 0.959 . S
H479 C494 0.959 . S
H480 C494 0.961 . S
H481 C495 0.960 . S
H482 C495 0.961 . S
H483 C495 0.959 . S
H484 C498 0.929 . S
H485 C499 0.931 . S
H486 C501 0.930 . S
C487 H475 0.930 . S
C487 C488 1.399 . S
C487 C492 1.399 . S
C488 C487 1.399 . S
C488 C489 1.376 . S
C489 H476 0.930 . S
C489 C488 1.376 . S
C489 C490 1.388 . S
C490 H477 0.930 . S
C490 C489 1.388 . S
C490 C491 1.390 . S
C491 C490 1.390 . S
C491 C492 1.394 . S
C491 C497 1.465 . S
C492 C487 1.399 . S
C492 C491 1.394 . S
C492 C493 1.516 . S
C493 C492 1.516 . S
C493 C494 1.502 . S
C493 C495 1.561 . S
C493 C496 1.526 . S
C494 H478 0.959 . S
C494 H479 0.959 . S
C494 H480 0.961 . S
C494 C493 1.502 . S
C495 H481 0.960 . S
C495 H482 0.961 . S
C495 H483 0.959 . S
C495 C493 1.561 . S
C496 C493 1.526 . S
C496 C497 1.396 . S
C496 C501 1.390 . S
C497 C491 1.465 . S
C497 C496 1.396 . S
C497 C498 1.399 . S
C498 H484 0.929 . S
C498 C497 1.399 . S
C498 C499 1.385 . S
C499 H485 0.931 . S
C499 C498 1.385 . S
C499 C500 1.389 . S
C500 C499 1.389 . S
C500 C501 1.387 . S
C501 H486 0.930 . S
C501 C496 1.390 . S
C501 C500 1.387 . S
H502 C514 0.930 . S
H503 C516 0.930 . S
H504 C517 0.930 . S
H505 C521 0.959 . S
H506 C521 0.959 . S
H507 C521 0.961 . S
H508 C522 0.960 . S
H509 C522 0.961 . S
H510 C522 0.959 . S
H511 C525 0.929 . S
H512 C526 0.931 . S
H513 C528 0.930 . S
C514 H502 0.930 . S
C514 C515 1.399 . S
C514 C519 1.399 . S
C515 C514 1.399 . S
C515 C516 1.376 . S
C516 H503 0.930 . S
C516 C515 1.376 . S
C516 C517 1.388 . S
C517 H504 0.930 . S
C517 C516 1.388 . S
C517 C518 1.390 . S
C518 C517 1.390 . S
C518 C519 1.394 . S
C518 C524 1.465 . S
C519 C514 1.399 . S
C519 C518 1.394 . S
C519 C520 1.516 . S
C520 C519 1.516 . S
C520 C521 1.502 . S
C520 C522 1.561 . S
C520 C523 1.526 . S
C521 H505 0.959 . S
C521 H506 0.959 . S
C521 H507 0.961 . S
C521 C520 1.502 . S
C522 H508 0.960 . S
C522 H509 0.961 . S
C522 H510 0.959 . S
C522 C520 1.561 . S
C523 C520 1.526 . S
C523 C524 1.396 . S
C523 C528 1.390 . S
C524 C518 1.465 . S
C524 C523 1.396 . S
C524 C525 1.399 . S
C525 H511 0.929 . S
C525 C524 1.399 . S
C525 C526 1.385 . S
C526 H512 0.931 . S
C526 C525 1.385 . S
C526 C527 1.389 . S
C527 C526 1.389 . S
C527 C528 1.387 . S
C528 H513 0.930 . S
C528 C523 1.390 . S
C528 C527 1.387 . S
H529 C541 0.930 . S
H530 C543 0.930 . S
H531 C544 0.930 . S
H532 C548 0.959 . S
H533 C548 0.959 . S
H534 C548 0.961 . S
H535 C549 0.960 . S
H536 C549 0.961 . S
H537 C549 0.959 . S
H538 C552 0.929 . S
H539 C553 0.931 . S
H540 C555 0.930 . S
C541 H529 0.930 . S
C541 C542 1.399 . S
C541 C546 1.399 . S
C542 C541 1.399 . S
C542 C543 1.376 . S
C543 H530 0.930 . S
C543 C542 1.376 . S
C543 C544 1.388 . S
C544 H531 0.930 . S
C544 C543 1.388 . S
C544 C545 1.390 . S
C545 C544 1.390 . S
C545 C546 1.394 . S
C545 C551 1.465 . S
C546 C541 1.399 . S
C546 C545 1.394 . S
C546 C547 1.516 . S
C547 C546 1.516 . S
C547 C548 1.502 . S
C547 C549 1.561 . S
C547 C550 1.526 . S
C548 H532 0.959 . S
C548 H533 0.959 . S
C548 H534 0.961 . S
C548 C547 1.502 . S
C549 H535 0.960 . S
C549 H536 0.961 . S
C549 H537 0.959 . S
C549 C547 1.561 . S
C550 C547 1.526 . S
C550 C551 1.396 . S
C550 C555 1.390 . S
C551 C545 1.465 . S
C551 C550 1.396 . S
C551 C552 1.399 . S
C552 H538 0.929 . S
C552 C551 1.399 . S
C552 C553 1.385 . S
C553 H539 0.931 . S
C553 C552 1.385 . S
C553 C554 1.389 . S
C554 C553 1.389 . S
C554 C555 1.387 . S
C555 H540 0.930 . S
C555 C550 1.390 . S
C555 C554 1.387 . S
H556 C568 0.930 . S
H557 C570 0.930 . S
H558 C571 0.930 . S
H559 C575 0.959 . S
H560 C575 0.959 . S
H561 C575 0.961 . S
H562 C576 0.960 . S
H563 C576 0.961 . S
H564 C576 0.959 . S
H565 C579 0.929 . S
H566 C580 0.931 . S
H567 C582 0.930 . S
C568 H556 0.930 . S
C568 C569 1.399 . S
C568 C573 1.399 . S
C569 C568 1.399 . S
C569 C570 1.376 . S
C570 H557 0.930 . S
C570 C569 1.376 . S
C570 C571 1.388 . S
C571 H558 0.930 . S
C571 C570 1.388 . S
C571 C572 1.390 . S
C572 C571 1.390 . S
C572 C573 1.394 . S
C572 C578 1.465 . S
C573 C568 1.399 . S
C573 C572 1.394 . S
C573 C574 1.516 . S
C574 C573 1.516 . S
C574 C575 1.502 . S
C574 C576 1.561 . S
C574 C577 1.526 . S
C575 H559 0.959 . S
C575 H560 0.959 . S
C575 H561 0.961 . S
C575 C574 1.502 . S
C576 H562 0.960 . S
C576 H563 0.961 . S
C576 H564 0.959 . S
C576 C574 1.561 . S
C577 C574 1.526 . S
C577 C578 1.396 . S
C577 C582 1.390 . S
C578 C572 1.465 . S
C578 C577 1.396 . S
C578 C579 1.399 . S
C579 H565 0.929 . S
C579 C578 1.399 . S
C579 C580 1.385 . S
C580 H566 0.931 . S
C580 C579 1.385 . S
C580 C581 1.389 . S
C581 C580 1.389 . S
C581 C582 1.387 . S
C582 H567 0.930 . S
C582 C577 1.390 . S
C582 C581 1.387 . S
H583 C595 0.930 . S
H584 C597 0.930 . S
H585 C598 0.930 . S
H586 C602 0.959 . S
H587 C602 0.959 . S
H588 C602 0.961 . S
H589 C603 0.960 . S
H590 C603 0.961 . S
H591 C603 0.959 . S
H592 C606 0.929 . S
H593 C607 0.931 . S
H594 C609 0.930 . S
C595 H583 0.930 . S
C595 C596 1.399 . S
C595 C600 1.399 . S
C596 C595 1.399 . S
C596 C597 1.376 . S
C597 H584 0.930 . S
C597 C596 1.376 . S
C597 C598 1.388 . S
C598 H585 0.930 . S
C598 C597 1.388 . S
C598 C599 1.390 . S
C599 C598 1.390 . S
C599 C600 1.394 . S
C599 C605 1.465 . S
C600 C595 1.399 . S
C600 C599 1.394 . S
C600 C601 1.516 . S
C601 C600 1.516 . S
C601 C602 1.502 . S
C601 C603 1.561 . S
C601 C604 1.526 . S
C602 H586 0.959 . S
C602 H587 0.959 . S
C602 H588 0.961 . S
C602 C601 1.502 . S
C603 H589 0.960 . S
C603 H590 0.961 . S
C603 H591 0.959 . S
C603 C601 1.561 . S
C604 C601 1.526 . S
C604 C605 1.396 . S
C604 C609 1.390 . S
C605 C599 1.465 . S
C605 C604 1.396 . S
C605 C606 1.399 . S
C606 H592 0.929 . S
C606 C605 1.399 . S
C606 C607 1.385 . S
C607 H593 0.931 . S
C607 C606 1.385 . S
C607 C608 1.389 . S
C608 C607 1.389 . S
C608 C609 1.387 . S
C609 H594 0.930 . S
C609 C604 1.390 . S
C609 C608 1.387 . S
H610 C622 0.930 . S
H611 C624 0.930 . S
H612 C625 0.930 . S
H613 C629 0.959 . S
H614 C629 0.959 . S
H615 C629 0.961 . S
H616 C630 0.960 . S
H617 C630 0.961 . S
H618 C630 0.959 . S
H619 C633 0.929 . S
H620 C634 0.931 . S
H621 C636 0.930 . S
C622 H610 0.930 . S
C622 C623 1.399 . S
C622 C627 1.399 . S
C623 C622 1.399 . S
C623 C624 1.376 . S
C624 H611 0.930 . S
C624 C623 1.376 . S
C624 C625 1.388 . S
C625 H612 0.930 . S
C625 C624 1.388 . S
C625 C626 1.390 . S
C626 C625 1.390 . S
C626 C627 1.394 . S
C626 C632 1.465 . S
C627 C622 1.399 . S
C627 C626 1.394 . S
C627 C628 1.516 . S
C628 C627 1.516 . S
C628 C629 1.502 . S
C628 C630 1.561 . S
C628 C631 1.526 . S
C629 H613 0.959 . S
C629 H614 0.959 . S
C629 H615 0.961 . S
C629 C628 1.502 . S
C630 H616 0.960 . S
C630 H617 0.961 . S
C630 H618 0.959 . S
C630 C628 1.561 . S
C631 C628 1.526 . S
C631 C632 1.396 . S
C631 C636 1.390 . S
C632 C626 1.465 . S
C632 C631 1.396 . S
C632 C633 1.399 . S
C633 H619 0.929 . S
C633 C632 1.399 . S
C633 C634 1.385 . S
C634 H620 0.931 . S
C634 C633 1.385 . S
C634 C635 1.389 . S
C635 C634 1.389 . S
C635 C636 1.387 . S
C636 H621 0.930 . S
C636 C631 1.390 . S
C636 C635 1.387 . S
H637 C649 0.930 . S
H638 C651 0.930 . S
H639 C652 0.930 . S
H640 C656 0.959 . S
H641 C656 0.959 . S
H642 C656 0.961 . S
H643 C657 0.960 . S
H644 C657 0.961 . S
H645 C657 0.959 . S
H646 C660 0.929 . S
H647 C661 0.931 . S
H648 C663 0.930 . S
C649 H637 0.930 . S
C649 C650 1.399 . S
C649 C654 1.399 . S
C650 C649 1.399 . S
C650 C651 1.376 . S
C651 H638 0.930 . S
C651 C650 1.376 . S
C651 C652 1.388 . S
C652 H639 0.930 . S
C652 C651 1.388 . S
C652 C653 1.390 . S
C653 C652 1.390 . S
C653 C654 1.394 . S
C653 C659 1.465 . S
C654 C649 1.399 . S
C654 C653 1.394 . S
C654 C655 1.516 . S
C655 C654 1.516 . S
C655 C656 1.502 . S
C655 C657 1.561 . S
C655 C658 1.526 . S
C656 H640 0.959 . S
C656 H641 0.959 . S
C656 H642 0.961 . S
C656 C655 1.502 . S
C657 H643 0.960 . S
C657 H644 0.961 . S
C657 H645 0.959 . S
C657 C655 1.561 . S
C658 C655 1.526 . S
C658 C659 1.396 . S
C658 C663 1.390 . S
C659 C653 1.465 . S
C659 C658 1.396 . S
C659 C660 1.399 . S
C660 H646 0.929 . S
C660 C659 1.399 . S
C660 C661 1.385 . S
C661 H647 0.931 . S
C661 C660 1.385 . S
C661 C662 1.389 . S
C662 C661 1.389 . S
C662 C663 1.387 . S
C663 H648 0.930 . S
C663 C658 1.390 . S
C663 C662 1.387 . S
H664 C676 0.930 . S
H665 C678 0.930 . S
H666 C679 0.930 . S
H667 C683 0.959 . S
H668 C683 0.959 . S
H669 C683 0.961 . S
H670 C684 0.960 . S
H671 C684 0.961 . S
H672 C684 0.959 . S
H673 C687 0.929 . S
H674 C688 0.931 . S
H675 C690 0.930 . S
C676 H664 0.930 . S
C676 C677 1.399 . S
C676 C681 1.399 . S
C677 C676 1.399 . S
C677 C678 1.376 . S
C678 H665 0.930 . S
C678 C677 1.376 . S
C678 C679 1.388 . S
C679 H666 0.930 . S
C679 C678 1.388 . S
C679 C680 1.390 . S
C680 C679 1.390 . S
C680 C681 1.394 . S
C680 C686 1.465 . S
C681 C676 1.399 . S
C681 C680 1.394 . S
C681 C682 1.516 . S
C682 C681 1.516 . S
C682 C683 1.502 . S
C682 C684 1.561 . S
C682 C685 1.526 . S
C683 H667 0.959 . S
C683 H668 0.959 . S
C683 H669 0.961 . S
C683 C682 1.502 . S
C684 H670 0.960 . S
C684 H671 0.961 . S
C684 H672 0.959 . S
C684 C682 1.561 . S
C685 C682 1.526 . S
C685 C686 1.396 . S
C685 C690 1.390 . S
C686 C680 1.465 . S
C686 C685 1.396 . S
C686 C687 1.399 . S
C687 H673 0.929 . S
C687 C686 1.399 . S
C687 C688 1.385 . S
C688 H674 0.931 . S
C688 C687 1.385 . S
C688 C689 1.389 . S
C689 C688 1.389 . S
C689 C690 1.387 . S
C690 H675 0.930 . S
C690 C685 1.390 . S
C690 C689 1.387 . S
H691 C703 0.930 . S
H692 C705 0.930 . S
H693 C706 0.930 . S
H694 C710 0.959 . S
H695 C710 0.959 . S
H696 C710 0.961 . S
H697 C711 0.960 . S
H698 C711 0.961 . S
H699 C711 0.959 . S
H700 C714 0.929 . S
H701 C715 0.931 . S
H702 C717 0.930 . S
C703 H691 0.930 . S
C703 C704 1.399 . S
C703 C708 1.399 . S
C704 C703 1.399 . S
C704 C705 1.376 . S
C705 H692 0.930 . S
C705 C704 1.376 . S
C705 C706 1.388 . S
C706 H693 0.930 . S
C706 C705 1.388 . S
C706 C707 1.390 . S
C707 C706 1.390 . S
C707 C708 1.394 . S
C707 C713 1.465 . S
C708 C703 1.399 . S
C708 C707 1.394 . S
C708 C709 1.516 . S
C709 C708 1.516 . S
C709 C710 1.502 . S
C709 C711 1.561 . S
C709 C712 1.526 . S
C710 H694 0.959 . S
C710 H695 0.959 . S
C710 H696 0.961 . S
C710 C709 1.502 . S
C711 H697 0.960 . S
C711 H698 0.961 . S
C711 H699 0.959 . S
C711 C709 1.561 . S
C712 C709 1.526 . S
C712 C713 1.396 . S
C712 C717 1.390 . S
C713 C707 1.465 . S
C713 C712 1.396 . S
C713 C714 1.399 . S
C714 H700 0.929 . S
C714 C713 1.399 . S
C714 C715 1.385 . S
C715 H701 0.931 . S
C715 C714 1.385 . S
C715 C716 1.389 . S
C716 C715 1.389 . S
C716 C717 1.387 . S
C717 H702 0.930 . S
C717 C712 1.390 . S
C717 C716 1.387 . S
H718 C730 0.930 . S
H719 C732 0.930 . S
H720 C733 0.930 . S
H721 C737 0.959 . S
H722 C737 0.959 . S
H723 C737 0.961 . S
H724 C738 0.960 . S
H725 C738 0.961 . S
H726 C738 0.959 . S
H727 C741 0.929 . S
H728 C742 0.931 . S
H729 C744 0.930 . S
C730 H718 0.930 . S
C730 C731 1.399 . S
C730 C735 1.399 . S
C731 C730 1.399 . S
C731 C732 1.376 . S
C732 H719 0.930 . S
C732 C731 1.376 . S
C732 C733 1.388 . S
C733 H720 0.930 . S
C733 C732 1.388 . S
C733 C734 1.390 . S
C734 C733 1.390 . S
C734 C735 1.394 . S
C734 C740 1.465 . S
C735 C730 1.399 . S
C735 C734 1.394 . S
C735 C736 1.516 . S
C736 C735 1.516 . S
C736 C737 1.502 . S
C736 C738 1.561 . S
C736 C739 1.526 . S
C737 H721 0.959 . S
C737 H722 0.959 . S
C737 H723 0.961 . S
C737 C736 1.502 . S
C738 H724 0.960 . S
C738 H725 0.961 . S
C738 H726 0.959 . S
C738 C736 1.561 . S
C739 C736 1.526 . S
C739 C740 1.396 . S
C739 C744 1.390 . S
C740 C734 1.465 . S
C740 C739 1.396 . S
C740 C741 1.399 . S
C741 H727 0.929 . S
C741 C740 1.399 . S
C741 C742 1.385 . S
C742 H728 0.931 . S
C742 C741 1.385 . S
C742 C743 1.389 . S
C743 C742 1.389 . S
C743 C744 1.387 . S
C744 H729 0.930 . S
C744 C739 1.390 . S
C744 C743 1.387 . S
H745 C757 0.930 . S
H746 C759 0.930 . S
H747 C760 0.930 . S
H748 C764 0.959 . S
H749 C764 0.959 . S
H750 C764 0.961 . S
H751 C765 0.960 . S
H752 C765 0.961 . S
H753 C765 0.959 . S
H754 C768 0.929 . S
H755 C769 0.931 . S
H756 C771 0.930 . S
C757 H745 0.930 . S
C757 C758 1.399 . S
C757 C762 1.399 . S
C758 C757 1.399 . S
C758 C759 1.376 . S
C759 H746 0.930 . S
C759 C758 1.376 . S
C759 C760 1.388 . S
C760 H747 0.930 . S
C760 C759 1.388 . S
C760 C761 1.390 . S
C761 C760 1.390 . S
C761 C762 1.394 . S
C761 C767 1.465 . S
C762 C757 1.399 . S
C762 C761 1.394 . S
C762 C763 1.516 . S
C763 C762 1.516 . S
C763 C764 1.502 . S
C763 C765 1.561 . S
C763 C766 1.526 . S
C764 H748 0.959 . S
C764 H749 0.959 . S
C764 H750 0.961 . S
C764 C763 1.502 . S
C765 H751 0.960 . S
C765 H752 0.961 . S
C765 H753 0.959 . S
C765 C763 1.561 . S
C766 C763 1.526 . S
C766 C767 1.396 . S
C766 C771 1.390 . S
C767 C761 1.465 . S
C767 C766 1.396 . S
C767 C768 1.399 . S
C768 H754 0.929 . S
C768 C767 1.399 . S
C768 C769 1.385 . S
C769 H755 0.931 . S
C769 C768 1.385 . S
C769 C770 1.389 . S
C770 C769 1.389 . S
C770 C771 1.387 . S
C771 H756 0.930 . S
C771 C766 1.390 . S
C771 C770 1.387 . S
H772 C784 0.930 . S
H773 C786 0.930 . S
H774 C787 0.930 . S
H775 C791 0.959 . S
H776 C791 0.959 . S
H777 C791 0.961 . S
H778 C792 0.960 . S
H779 C792 0.961 . S
H780 C792 0.959 . S
H781 C795 0.929 . S
H782 C796 0.931 . S
H783 C798 0.930 . S
C784 H772 0.930 . S
C784 C785 1.399 . S
C784 C789 1.399 . S
C785 C784 1.399 . S
C785 C786 1.376 . S
C786 H773 0.930 . S
C786 C785 1.376 . S
C786 C787 1.388 . S
C787 H774 0.930 . S
C787 C786 1.388 . S
C787 C788 1.390 . S
C788 C787 1.390 . S
C788 C789 1.394 . S
C788 C794 1.465 . S
C789 C784 1.399 . S
C789 C788 1.394 . S
C789 C790 1.516 . S
C790 C789 1.516 . S
C790 C791 1.502 . S
C790 C792 1.561 . S
C790 C793 1.526 . S
C791 H775 0.959 . S
C791 H776 0.959 . S
C791 H777 0.961 . S
C791 C790 1.502 . S
C792 H778 0.960 . S
C792 H779 0.961 . S
C792 H780 0.959 . S
C792 C790 1.561 . S
C793 C790 1.526 . S
C793 C794 1.396 . S
C793 C798 1.390 . S
C794 C788 1.465 . S
C794 C793 1.396 . S
C794 C795 1.399 . S
C795 H781 0.929 . S
C795 C794 1.399 . S
C795 C796 1.385 . S
C796 H782 0.931 . S
C796 C795 1.385 . S
C796 C797 1.389 . S
C797 C796 1.389 . S
C797 C798 1.387 . S
C798 H783 0.930 . S
C798 C793 1.390 . S
C798 C797 1.387 . S
H799 C811 0.930 . S
H800 C813 0.930 . S
H801 C814 0.930 . S
H802 C818 0.959 . S
H803 C818 0.959 . S
H804 C818 0.961 . S
H805 C819 0.960 . S
H806 C819 0.961 . S
H807 C819 0.959 . S
H808 C822 0.929 . S
H809 C823 0.931 . S
H810 C825 0.930 . S
C811 H799 0.930 . S
C811 C812 1.399 . S
C811 C816 1.399 . S
C812 C811 1.399 . S
C812 C813 1.376 . S
C813 H800 0.930 . S
C813 C812 1.376 . S
C813 C814 1.388 . S
C814 H801 0.930 . S
C814 C813 1.388 . S
C814 C815 1.390 . S
C815 C814 1.390 . S
C815 C816 1.394 . S
C815 C821 1.465 . S
C816 C811 1.399 . S
C816 C815 1.394 . S
C816 C817 1.516 . S
C817 C816 1.516 . S
C817 C818 1.502 . S
C817 C819 1.561 . S
C817 C820 1.526 . S
C818 H802 0.959 . S
C818 H803 0.959 . S
C818 H804 0.961 . S
C818 C817 1.502 . S
C819 H805 0.960 . S
C819 H806 0.961 . S
C819 H807 0.959 . S
C819 C817 1.561 . S
C820 C817 1.526 . S
C820 C821 1.396 . S
C820 C825 1.390 . S
C821 C815 1.465 . S
C821 C820 1.396 . S
C821 C822 1.399 . S
C822 H808 0.929 . S
C822 C821 1.399 . S
C822 C823 1.385 . S
C823 H809 0.931 . S
C823 C822 1.385 . S
C823 C824 1.389 . S
C824 C823 1.389 . S
C824 C825 1.387 . S
C825 H810 0.930 . S
C825 C820 1.390 . S
C825 C824 1.387 . S
H826 C838 0.930 . S
H827 C840 0.930 . S
H828 C841 0.930 . S
H829 C845 0.959 . S
H830 C845 0.959 . S
H831 C845 0.961 . S
H832 C846 0.960 . S
H833 C846 0.961 . S
H834 C846 0.959 . S
H835 C849 0.929 . S
H836 C850 0.931 . S
H837 C852 0.930 . S
C838 H826 0.930 . S
C838 C839 1.399 . S
C838 C843 1.399 . S
C839 C838 1.399 . S
C839 C840 1.376 . S
C840 H827 0.930 . S
C840 C839 1.376 . S
C840 C841 1.388 . S
C841 H828 0.930 . S
C841 C840 1.388 . S
C841 C842 1.390 . S
C842 C841 1.390 . S
C842 C843 1.394 . S
C842 C848 1.465 . S
C843 C838 1.399 . S
C843 C842 1.394 . S
C843 C844 1.516 . S
C844 C843 1.516 . S
C844 C845 1.502 . S
C844 C846 1.561 . S
C844 C847 1.526 . S
C845 H829 0.959 . S
C845 H830 0.959 . S
C845 H831 0.961 . S
C845 C844 1.502 . S
C846 H832 0.960 . S
C846 H833 0.961 . S
C846 H834 0.959 . S
C846 C844 1.561 . S
C847 C844 1.526 . S
C847 C848 1.396 . S
C847 C852 1.390 . S
C848 C842 1.465 . S
C848 C847 1.396 . S
C848 C849 1.399 . S
C849 H835 0.929 . S
C849 C848 1.399 . S
C849 C850 1.385 . S
C850 H836 0.931 . S
C850 C849 1.385 . S
C850 C851 1.389 . S
C851 C850 1.389 . S
C851 C852 1.387 . S
C852 H837 0.930 . S
C852 C847 1.390 . S
C852 C851 1.387 . S
H853 C865 0.930 . S
H854 C867 0.930 . S
H855 C868 0.930 . S
H856 C872 0.959 . S
H857 C872 0.959 . S
H858 C872 0.961 . S
H859 C873 0.960 . S
H860 C873 0.961 . S
H861 C873 0.959 . S
H862 C876 0.929 . S
H863 C877 0.931 . S
H864 C879 0.930 . S
C865 H853 0.930 . S
C865 C866 1.399 . S
C865 C870 1.399 . S
C866 C865 1.399 . S
C866 C867 1.376 . S
C867 H854 0.930 . S
C867 C866 1.376 . S
C867 C868 1.388 . S
C868 H855 0.930 . S
C868 C867 1.388 . S
C868 C869 1.390 . S
C869 C868 1.390 . S
C869 C870 1.394 . S
C869 C875 1.465 . S
C870 C865 1.399 . S
C870 C869 1.394 . S
C870 C871 1.516 . S
C871 C870 1.516 . S
C871 C872 1.502 . S
C871 C873 1.561 . S
C871 C874 1.526 . S
C872 H856 0.959 . S
C872 H857 0.959 . S
C872 H858 0.961 . S
C872 C871 1.502 . S
C873 H859 0.960 . S
C873 H860 0.961 . S
C873 H861 0.959 . S
C873 C871 1.561 . S
C874 C871 1.526 . S
C874 C875 1.396 . S
C874 C879 1.390 . S
C875 C869 1.465 . S
C875 C874 1.396 . S
C875 C876 1.399 . S
C876 H862 0.929 . S
C876 C875 1.399 . S
C876 C877 1.385 . S
C877 H863 0.931 . S
C877 C876 1.385 . S
C877 C878 1.389 . S
C878 C877 1.389 . S
C878 C879 1.387 . S
C879 H864 0.930 . S
C879 C874 1.390 . S
C879 C878 1.387 . S
H880 C892 0.930 . S
H881 C894 0.930 . S
H882 C895 0.930 . S
H883 C899 0.962 . S
H884 C899 0.980 . S
H885 C899 0.939 1_554 S
H886 C900 0.957 1_554 S
H887 C900 0.964 . S
H888 C900 0.959 . S
H889 C903 0.929 . S
H890 C904 0.931 . S
H891 C906 0.930 . S
C892 H880 0.930 . S
C892 C893 1.399 . S
C892 C897 1.399 . S
C893 C892 1.399 . S
C893 C894 1.376 . S
C894 H881 0.930 . S
C894 C893 1.376 . S
C894 C895 1.388 . S
C895 H882 0.930 . S
C895 C894 1.388 . S
C895 C896 1.390 . S
C896 C895 1.390 . S
C896 C897 1.394 . S
C896 C902 1.465 1_554 S
C897 C892 1.399 . S
C897 C896 1.394 . S
C897 C898 1.516 1_554 S
C898 C897 1.516 1_556 S
C898 C899 1.502 . S
C898 C900 1.561 . S
C898 C901 1.526 . S
C899 H883 0.962 . S
C899 H884 0.980 . S
C899 H885 0.939 1_556 S
C899 C898 1.502 . S
C900 H886 0.957 1_556 S
C900 H887 0.964 . S
C900 H888 0.959 . S
C900 C898 1.561 . S
C901 C898 1.526 . S
C901 C902 1.396 . S
C901 C906 1.390 . S
C902 C896 1.465 1_556 S
C902 C901 1.396 . S
C902 C903 1.399 . S
C903 H889 0.929 . S
C903 C902 1.399 . S
C903 C904 1.385 . S
C904 H890 0.931 . S
C904 C903 1.385 . S
C904 C905 1.389 . S
C905 C904 1.389 . S
C905 C906 1.387 . S
C906 H891 0.930 . S
C906 C901 1.390 . S
C906 C905 1.387 . S
H907 C919 0.930 . S
H908 C921 0.930 . S
H909 C922 0.930 . S
H910 C926 0.962 . S
H911 C926 0.980 . S
H912 C926 0.939 1_556 S
H913 C927 0.957 1_556 S
H914 C927 0.964 . S
H915 C927 0.959 . S
H916 C930 0.929 . S
H917 C931 0.931 . S
H918 C933 0.930 . S
C919 H907 0.930 . S
C919 C920 1.399 . S
C919 C924 1.399 . S
C920 C919 1.399 . S
C920 C921 1.376 . S
C921 H908 0.930 . S
C921 C920 1.376 . S
C921 C922 1.388 . S
C922 H909 0.930 . S
C922 C921 1.388 . S
C922 C923 1.390 . S
C923 C922 1.390 . S
C923 C924 1.394 . S
C923 C929 1.465 1_556 S
C924 C919 1.399 . S
C924 C923 1.394 . S
C924 C925 1.516 1_556 S
C925 C924 1.516 1_554 S
C925 C926 1.502 . S
C925 C927 1.561 . S
C925 C928 1.526 . S
C926 H910 0.962 . S
C926 H911 0.980 . S
C926 H912 0.939 1_554 S
C926 C925 1.502 . S
C927 H913 0.957 1_554 S
C927 H914 0.964 . S
C927 H915 0.959 . S
C927 C925 1.561 . S
C928 C925 1.526 . S
C928 C929 1.396 . S
C928 C933 1.390 . S
C929 C923 1.465 1_554 S
C929 C928 1.396 . S
C929 C930 1.399 . S
C930 H916 0.929 . S
C930 C929 1.399 . S
C930 C931 1.385 . S
C931 H917 0.931 . S
C931 C930 1.385 . S
C931 C932 1.389 . S
C932 C931 1.389 . S
C932 C933 1.387 . S
C933 H918 0.930 . S
C933 C928 1.390 . S
C933 C932 1.387 . S
H934 C946 0.930 . S
H935 C948 0.930 . S
H936 C949 0.930 . S
H937 C953 0.962 . S
H938 C953 0.980 . S
H939 C953 0.939 1_556 S
H940 C954 0.957 1_556 S
H941 C954 0.964 . S
H942 C954 0.959 . S
H943 C957 0.929 . S
H944 C958 0.931 . S
H945 C960 0.930 . S
C946 H934 0.930 . S
C946 C947 1.399 . S
C946 C951 1.399 . S
C947 C946 1.399 . S
C947 C948 1.376 . S
C948 H935 0.930 . S
C948 C947 1.376 . S
C948 C949 1.388 . S
C949 H936 0.930 . S
C949 C948 1.388 . S
C949 C950 1.390 . S
C950 C949 1.390 . S
C950 C951 1.394 . S
C950 C956 1.465 1_556 S
C951 C946 1.399 . S
C951 C950 1.394 . S
C951 C952 1.516 1_556 S
C952 C951 1.516 1_554 S
C952 C953 1.502 . S
C952 C954 1.561 . S
C952 C955 1.526 . S
C953 H937 0.962 . S
C953 H938 0.980 . S
C953 H939 0.939 1_554 S
C953 C952 1.502 . S
C954 H940 0.957 1_554 S
C954 H941 0.964 . S
C954 H942 0.959 . S
C954 C952 1.561 . S
C955 C952 1.526 . S
C955 C956 1.396 . S
C955 C960 1.390 . S
C956 C950 1.465 1_554 S
C956 C955 1.396 . S
C956 C957 1.399 . S
C957 H943 0.929 . S
C957 C956 1.399 . S
C957 C958 1.385 . S
C958 H944 0.931 . S
C958 C957 1.385 . S
C958 C959 1.389 . S
C959 C958 1.389 . S
C959 C960 1.387 . S
C960 H945 0.930 . S
C960 C955 1.390 . S
C960 C959 1.387 . S
H961 C973 0.930 . S
H962 C975 0.930 . S
H963 C976 0.930 . S
H964 C980 0.962 . S
H965 C980 0.980 . S
H966 C980 0.939 1_556 S
H967 C981 0.957 1_556 S
H968 C981 0.964 . S
H969 C981 0.959 . S
H970 C984 0.929 . S
H971 C985 0.931 . S
H972 C987 0.930 . S
C973 H961 0.930 . S
C973 C974 1.399 . S
C973 C978 1.399 . S
C974 C973 1.399 . S
C974 C975 1.376 . S
C975 H962 0.930 . S
C975 C974 1.376 . S
C975 C976 1.388 . S
C976 H963 0.930 . S
C976 C975 1.388 . S
C976 C977 1.390 . S
C977 C976 1.390 . S
C977 C978 1.394 . S
C977 C983 1.465 1_556 S
C978 C973 1.399 . S
C978 C977 1.394 . S
C978 C979 1.516 1_556 S
C979 C978 1.516 1_554 S
C979 C980 1.502 . S
C979 C981 1.561 . S
C979 C982 1.526 . S
C980 H964 0.962 . S
C980 H965 0.980 . S
C980 H966 0.939 1_554 S
C980 C979 1.502 . S
C981 H967 0.957 1_554 S
C981 H968 0.964 . S
C981 H969 0.959 . S
C981 C979 1.561 . S
C982 C979 1.526 . S
C982 C983 1.396 . S
C982 C987 1.390 . S
C983 C977 1.465 1_554 S
C983 C982 1.396 . S
C983 C984 1.399 . S
C984 H970 0.929 . S
C984 C983 1.399 . S
C984 C985 1.385 . S
C985 H971 0.931 . S
C985 C984 1.385 . S
C985 C986 1.389 . S
C986 C985 1.389 . S
C986 C987 1.387 . S
C987 H972 0.930 . S
C987 C982 1.390 . S
C987 C986 1.387 . S
H988 C1000 0.930 . S
H989 C1002 0.930 . S
H990 C1003 0.930 . S
H991 C1007 0.959 . S
H992 C1007 0.959 . S
H993 C1007 0.961 . S
H994 C1008 0.960 . S
H995 C1008 0.961 . S
H996 C1008 0.959 . S
H997 C1011 0.929 . S
H998 C1012 0.931 . S
H999 C1014 0.930 . S
C1000 H988 0.930 . S
C1000 C1001 1.399 . S
C1000 C1005 1.399 . S
C1001 C1000 1.399 . S
C1001 C1002 1.376 . S
C1002 H989 0.930 . S
C1002 C1001 1.376 . S
C1002 C1003 1.388 . S
C1003 H990 0.930 . S
C1003 C1002 1.388 . S
C1003 C1004 1.390 . S
C1004 C1003 1.390 . S
C1004 C1005 1.394 . S
C1004 C1010 1.465 . S
C1005 C1000 1.399 . S
C1005 C1004 1.394 . S
C1005 C1006 1.516 . S
C1006 C1005 1.516 . S
C1006 C1007 1.502 . S
C1006 C1008 1.561 . S
C1006 C1009 1.526 . S
C1007 H991 0.959 . S
C1007 H992 0.959 . S
C1007 H993 0.961 . S
C1007 C1006 1.502 . S
C1008 H994 0.960 . S
C1008 H995 0.961 . S
C1008 H996 0.959 . S
C1008 C1006 1.561 . S
C1009 C1006 1.526 . S
C1009 C1010 1.396 . S
C1009 C1014 1.390 . S
C1010 C1004 1.465 . S
C1010 C1009 1.396 . S
C1010 C1011 1.399 . S
C1011 H997 0.929 . S
C1011 C1010 1.399 . S
C1011 C1012 1.385 . S
C1012 H998 0.931 . S
C1012 C1011 1.385 . S
C1012 C1013 1.389 . S
C1013 C1012 1.389 . S
C1013 C1014 1.387 . S
C1014 H999 0.930 . S
C1014 C1009 1.390 . S
C1014 C1013 1.387 . S
H1015 C1027 0.930 . S
H1016 C1029 0.930 . S
H1017 C1030 0.930 . S
H1018 C1034 0.959 . S
H1019 C1034 0.959 . S
H1020 C1034 0.961 . S
H1021 C1035 0.960 . S
H1022 C1035 0.961 . S
H1023 C1035 0.959 . S
H1024 C1038 0.929 . S
H1025 C1039 0.931 . S
H1026 C1041 0.930 . S
C1027 H1015 0.930 . S
C1027 C1028 1.399 . S
C1027 C1032 1.399 . S
C1028 C1027 1.399 . S
C1028 C1029 1.376 . S
C1029 H1016 0.930 . S
C1029 C1028 1.376 . S
C1029 C1030 1.388 . S
C1030 H1017 0.930 . S
C1030 C1029 1.388 . S
C1030 C1031 1.390 . S
C1031 C1030 1.390 . S
C1031 C1032 1.394 . S
C1031 C1037 1.465 . S
C1032 C1027 1.399 . S
C1032 C1031 1.394 . S
C1032 C1033 1.516 . S
C1033 C1032 1.516 . S
C1033 C1034 1.502 . S
C1033 C1035 1.561 . S
C1033 C1036 1.526 . S
C1034 H1018 0.959 . S
C1034 H1019 0.959 . S
C1034 H1020 0.961 . S
C1034 C1033 1.502 . S
C1035 H1021 0.960 . S
C1035 H1022 0.961 . S
C1035 H1023 0.959 . S
C1035 C1033 1.561 . S
C1036 C1033 1.526 . S
C1036 C1037 1.396 . S
C1036 C1041 1.390 . S
C1037 C1031 1.465 . S
C1037 C1036 1.396 . S
C1037 C1038 1.399 . S
C1038 H1024 0.929 . S
C1038 C1037 1.399 . S
C1038 C1039 1.385 . S
C1039 H1025 0.931 . S
C1039 C1038 1.385 . S
C1039 C1040 1.389 . S
C1040 C1039 1.389 . S
C1040 C1041 1.387 . S
C1041 H1026 0.930 . S
C1041 C1036 1.390 . S
C1041 C1040 1.387 . S
H1042 C1054 0.930 . S
H1043 C1056 0.930 . S
H1044 C1057 0.930 . S
H1045 C1061 0.959 . S
H1046 C1061 0.959 . S
H1047 C1061 0.961 . S
H1048 C1062 0.960 . S
H1049 C1062 0.961 . S
H1050 C1062 0.959 . S
H1051 C1065 0.929 . S
H1052 C1066 0.931 . S
H1053 C1068 0.930 . S
C1054 H1042 0.930 . S
C1054 C1055 1.399 . S
C1054 C1059 1.399 . S
C1055 C1054 1.399 . S
C1055 C1056 1.376 . S
C1056 H1043 0.930 . S
C1056 C1055 1.376 . S
C1056 C1057 1.388 . S
C1057 H1044 0.930 . S
C1057 C1056 1.388 . S
C1057 C1058 1.390 . S
C1058 C1057 1.390 . S
C1058 C1059 1.394 . S
C1058 C1064 1.465 . S
C1059 C1054 1.399 . S
C1059 C1058 1.394 . S
C1059 C1060 1.516 . S
C1060 C1059 1.516 . S
C1060 C1061 1.502 . S
C1060 C1062 1.561 . S
C1060 C1063 1.526 . S
C1061 H1045 0.959 . S
C1061 H1046 0.959 . S
C1061 H1047 0.961 . S
C1061 C1060 1.502 . S
C1062 H1048 0.960 . S
C1062 H1049 0.961 . S
C1062 H1050 0.959 . S
C1062 C1060 1.561 . S
C1063 C1060 1.526 . S
C1063 C1064 1.396 . S
C1063 C1068 1.390 . S
C1064 C1058 1.465 . S
C1064 C1063 1.396 . S
C1064 C1065 1.399 . S
C1065 H1051 0.929 . S
C1065 C1064 1.399 . S
C1065 C1066 1.385 . S
C1066 H1052 0.931 . S
C1066 C1065 1.385 . S
C1066 C1067 1.389 . S
C1067 C1066 1.389 . S
C1067 C1068 1.387 . S
C1068 H1053 0.930 . S
C1068 C1063 1.390 . S
C1068 C1067 1.387 . S
H1069 C1081 0.930 . S
H1070 C1083 0.930 . S
H1071 C1084 0.930 . S
H1072 C1088 0.959 . S
H1073 C1088 0.959 . S
H1074 C1088 0.961 . S
H1075 C1089 0.960 . S
H1076 C1089 0.961 . S
H1077 C1089 0.959 . S
H1078 C1092 0.929 . S
H1079 C1093 0.931 . S
H1080 C1095 0.930 . S
C1081 H1069 0.930 . S
C1081 C1082 1.399 . S
C1081 C1086 1.399 . S
C1082 C1081 1.399 . S
C1082 C1083 1.376 . S
C1083 H1070 0.930 . S
C1083 C1082 1.376 . S
C1083 C1084 1.388 . S
C1084 H1071 0.930 . S
C1084 C1083 1.388 . S
C1084 C1085 1.390 . S
C1085 C1084 1.390 . S
C1085 C1086 1.394 . S
C1085 C1091 1.465 . S
C1086 C1081 1.399 . S
C1086 C1085 1.394 . S
C1086 C1087 1.516 . S
C1087 C1086 1.516 . S
C1087 C1088 1.502 . S
C1087 C1089 1.561 . S
C1087 C1090 1.526 . S
C1088 H1072 0.959 . S
C1088 H1073 0.959 . S
C1088 H1074 0.961 . S
C1088 C1087 1.502 . S
C1089 H1075 0.960 . S
C1089 H1076 0.961 . S
C1089 H1077 0.959 . S
C1089 C1087 1.561 . S
C1090 C1087 1.526 . S
C1090 C1091 1.396 . S
C1090 C1095 1.390 . S
C1091 C1085 1.465 . S
C1091 C1090 1.396 . S
C1091 C1092 1.399 . S
C1092 H1078 0.929 . S
C1092 C1091 1.399 . S
C1092 C1093 1.385 . S
C1093 H1079 0.931 . S
C1093 C1092 1.385 . S
C1093 C1094 1.389 . S
C1094 C1093 1.389 . S
C1094 C1095 1.387 . S
C1095 H1080 0.930 . S
C1095 C1090 1.390 . S
C1095 C1094 1.387 . S
H1096 C1108 0.930 . S
H1097 C1110 0.930 . S
H1098 C1111 0.930 . S
H1099 C1115 0.959 . S
H1100 C1115 0.959 . S
H1101 C1115 0.961 . S
H1102 C1116 0.960 . S
H1103 C1116 0.961 . S
H1104 C1116 0.959 . S
H1105 C1119 0.929 . S
H1106 C1120 0.931 . S
H1107 C1122 0.930 . S
C1108 H1096 0.930 . S
C1108 C1109 1.399 . S
C1108 C1113 1.399 . S
C1109 C1108 1.399 . S
C1109 C1110 1.376 . S
C1110 H1097 0.930 . S
C1110 C1109 1.376 . S
C1110 C1111 1.388 . S
C1111 H1098 0.930 . S
C1111 C1110 1.388 . S
C1111 C1112 1.390 . S
C1112 C1111 1.390 . S
C1112 C1113 1.394 . S
C1112 C1118 1.465 . S
C1113 C1108 1.399 . S
C1113 C1112 1.394 . S
C1113 C1114 1.516 . S
C1114 C1113 1.516 . S
C1114 C1115 1.502 . S
C1114 C1116 1.561 . S
C1114 C1117 1.526 . S
C1115 H1099 0.959 . S
C1115 H1100 0.959 . S
C1115 H1101 0.961 . S
C1115 C1114 1.502 . S
C1116 H1102 0.960 . S
C1116 H1103 0.961 . S
C1116 H1104 0.959 . S
C1116 C1114 1.561 . S
C1117 C1114 1.526 . S
C1117 C1118 1.396 . S
C1117 C1122 1.390 . S
C1118 C1112 1.465 . S
C1118 C1117 1.396 . S
C1118 C1119 1.399 . S
C1119 H1105 0.929 . S
C1119 C1118 1.399 . S
C1119 C1120 1.385 . S
C1120 H1106 0.931 . S
C1120 C1119 1.385 . S
C1120 C1121 1.389 . S
C1121 C1120 1.389 . S
C1121 C1122 1.387 . S
C1122 H1107 0.930 . S
C1122 C1117 1.390 . S
C1122 C1121 1.387 . S
H1123 C1135 0.930 . S
H1124 C1137 0.930 . S
H1125 C1138 0.930 . S
H1126 C1142 0.959 . S
H1127 C1142 0.959 . S
H1128 C1142 0.961 . S
H1129 C1143 0.960 . S
H1130 C1143 0.961 . S
H1131 C1143 0.959 . S
H1132 C1146 0.929 . S
H1133 C1147 0.931 . S
H1134 C1149 0.930 . S
C1135 H1123 0.930 . S
C1135 C1136 1.399 . S
C1135 C1140 1.399 . S
C1136 C1135 1.399 . S
C1136 C1137 1.376 . S
C1137 H1124 0.930 . S
C1137 C1136 1.376 . S
C1137 C1138 1.388 . S
C1138 H1125 0.930 . S
C1138 C1137 1.388 . S
C1138 C1139 1.390 . S
C1139 C1138 1.390 . S
C1139 C1140 1.394 . S
C1139 C1145 1.465 . S
C1140 C1135 1.399 . S
C1140 C1139 1.394 . S
C1140 C1141 1.516 . S
C1141 C1140 1.516 . S
C1141 C1142 1.502 . S
C1141 C1143 1.561 . S
C1141 C1144 1.526 . S
C1142 H1126 0.959 . S
C1142 H1127 0.959 . S
C1142 H1128 0.961 . S
C1142 C1141 1.502 . S
C1143 H1129 0.960 . S
C1143 H1130 0.961 . S
C1143 H1131 0.959 . S
C1143 C1141 1.561 . S
C1144 C1141 1.526 . S
C1144 C1145 1.396 . S
C1144 C1149 1.390 . S
C1145 C1139 1.465 . S
C1145 C1144 1.396 . S
C1145 C1146 1.399 . S
C1146 H1132 0.929 . S
C1146 C1145 1.399 . S
C1146 C1147 1.385 . S
C1147 H1133 0.931 . S
C1147 C1146 1.385 . S
C1147 C1148 1.389 . S
C1148 C1147 1.389 . S
C1148 C1149 1.387 . S
C1149 H1134 0.930 . S
C1149 C1144 1.390 . S
C1149 C1148 1.387 . S
H1150 C1162 0.930 . S
H1151 C1164 0.930 . S
H1152 C1165 0.930 . S
H1153 C1169 0.959 . S
H1154 C1169 0.959 . S
H1155 C1169 0.961 . S
H1156 C1170 0.960 . S
H1157 C1170 0.961 . S
H1158 C1170 0.959 . S
H1159 C1173 0.929 . S
H1160 C1174 0.931 . S
H1161 C1176 0.930 . S
C1162 H1150 0.930 . S
C1162 C1163 1.399 . S
C1162 C1167 1.399 . S
C1163 C1162 1.399 . S
C1163 C1164 1.376 . S
C1164 H1151 0.930 . S
C1164 C1163 1.376 . S
C1164 C1165 1.388 . S
C1165 H1152 0.930 . S
C1165 C1164 1.388 . S
C1165 C1166 1.390 . S
C1166 C1165 1.390 . S
C1166 C1167 1.394 . S
C1166 C1172 1.465 . S
C1167 C1162 1.399 . S
C1167 C1166 1.394 . S
C1167 C1168 1.516 . S
C1168 C1167 1.516 . S
C1168 C1169 1.502 . S
C1168 C1170 1.561 . S
C1168 C1171 1.526 . S
C1169 H1153 0.959 . S
C1169 H1154 0.959 . S
C1169 H1155 0.961 . S
C1169 C1168 1.502 . S
C1170 H1156 0.960 . S
C1170 H1157 0.961 . S
C1170 H1158 0.959 . S
C1170 C1168 1.561 . S
C1171 C1168 1.526 . S
C1171 C1172 1.396 . S
C1171 C1176 1.390 . S
C1172 C1166 1.465 . S
C1172 C1171 1.396 . S
C1172 C1173 1.399 . S
C1173 H1159 0.929 . S
C1173 C1172 1.399 . S
C1173 C1174 1.385 . S
C1174 H1160 0.931 . S
C1174 C1173 1.385 . S
C1174 C1175 1.389 . S
C1175 C1174 1.389 . S
C1175 C1176 1.387 . S
C1176 H1161 0.930 . S
C1176 C1171 1.390 . S
C1176 C1175 1.387 . S
H1177 C1189 0.930 . S
H1178 C1191 0.930 . S
H1179 C1192 0.930 . S
H1180 C1196 0.959 . S
H1181 C1196 0.959 . S
H1182 C1196 0.961 . S
H1183 C1197 0.960 . S
H1184 C1197 0.961 . S
H1185 C1197 0.959 . S
H1186 C1200 0.929 . S
H1187 C1201 0.931 . S
H1188 C1203 0.930 . S
C1189 H1177 0.930 . S
C1189 C1190 1.399 . S
C1189 C1194 1.399 . S
C1190 C1189 1.399 . S
C1190 C1191 1.376 . S
C1191 H1178 0.930 . S
C1191 C1190 1.376 . S
C1191 C1192 1.388 . S
C1192 H1179 0.930 . S
C1192 C1191 1.388 . S
C1192 C1193 1.390 . S
C1193 C1192 1.390 . S
C1193 C1194 1.394 . S
C1193 C1199 1.465 . S
C1194 C1189 1.399 . S
C1194 C1193 1.394 . S
C1194 C1195 1.516 . S
C1195 C1194 1.516 . S
C1195 C1196 1.502 . S
C1195 C1197 1.561 . S
C1195 C1198 1.526 . S
C1196 H1180 0.959 . S
C1196 H1181 0.959 . S
C1196 H1182 0.961 . S
C1196 C1195 1.502 . S
C1197 H1183 0.960 . S
C1197 H1184 0.961 . S
C1197 H1185 0.959 . S
C1197 C1195 1.561 . S
C1198 C1195 1.526 . S
C1198 C1199 1.396 . S
C1198 C1203 1.390 . S
C1199 C1193 1.465 . S
C1199 C1198 1.396 . S
C1199 C1200 1.399 . S
C1200 H1186 0.929 . S
C1200 C1199 1.399 . S
C1200 C1201 1.385 . S
C1201 H1187 0.931 . S
C1201 C1200 1.385 . S
C1201 C1202 1.389 . S
C1202 C1201 1.389 . S
C1202 C1203 1.387 . S
C1203 H1188 0.930 . S
C1203 C1198 1.390 . S
C1203 C1202 1.387 . S
H1204 C1216 0.930 . S
H1205 C1218 0.930 . S
H1206 C1219 0.930 . S
H1207 C1223 0.962 . S
H1208 C1223 0.980 . S
H1209 C1223 0.939 1_556 S
H1210 C1224 0.957 1_556 S
H1211 C1224 0.964 . S
H1212 C1224 0.959 . S
H1213 C1227 0.929 . S
H1214 C1228 0.931 . S
H1215 C1230 0.930 . S
C1216 H1204 0.930 . S
C1216 C1217 1.399 . S
C1216 C1221 1.399 . S
C1217 C1216 1.399 . S
C1217 C1218 1.376 . S
C1218 H1205 0.930 . S
C1218 C1217 1.376 . S
C1218 C1219 1.388 . S
C1219 H1206 0.930 . S
C1219 C1218 1.388 . S
C1219 C1220 1.390 . S
C1220 C1219 1.390 . S
C1220 C1221 1.394 . S
C1220 C1226 1.465 1_556 S
C1221 C1216 1.399 . S
C1221 C1220 1.394 . S
C1221 C1222 1.516 1_556 S
C1222 C1221 1.516 1_554 S
C1222 C1223 1.502 . S
C1222 C1224 1.561 . S
C1222 C1225 1.526 . S
C1223 H1207 0.962 . S
C1223 H1208 0.980 . S
C1223 H1209 0.939 1_554 S
C1223 C1222 1.502 . S
C1224 H1210 0.957 1_554 S
C1224 H1211 0.964 . S
C1224 H1212 0.959 . S
C1224 C1222 1.561 . S
C1225 C1222 1.526 . S
C1225 C1226 1.396 . S
C1225 C1230 1.390 . S
C1226 C1220 1.465 1_554 S
C1226 C1225 1.396 . S
C1226 C1227 1.399 . S
C1227 H1213 0.929 . S
C1227 C1226 1.399 . S
C1227 C1228 1.385 . S
C1228 H1214 0.931 . S
C1228 C1227 1.385 . S
C1228 C1229 1.389 . S
C1229 C1228 1.389 . S
C1229 C1230 1.387 . S
C1230 H1215 0.930 . S
C1230 C1225 1.390 . S
C1230 C1229 1.387 . S
H1231 C1243 0.930 . S
H1232 C1245 0.930 . S
H1233 C1246 0.930 . S
H1234 C1250 0.962 . S
H1235 C1250 0.980 . S
H1236 C1250 0.939 1_554 S
H1237 C1251 0.957 1_554 S
H1238 C1251 0.964 . S
H1239 C1251 0.959 . S
H1240 C1254 0.929 . S
H1241 C1255 0.931 . S
H1242 C1257 0.930 . S
C1243 H1231 0.930 . S
C1243 C1244 1.399 . S
C1243 C1248 1.399 . S
C1244 C1243 1.399 . S
C1244 C1245 1.376 . S
C1245 H1232 0.930 . S
C1245 C1244 1.376 . S
C1245 C1246 1.388 . S
C1246 H1233 0.930 . S
C1246 C1245 1.388 . S
C1246 C1247 1.390 . S
C1247 C1246 1.390 . S
C1247 C1248 1.394 . S
C1247 C1253 1.465 1_554 S
C1248 C1243 1.399 . S
C1248 C1247 1.394 . S
C1248 C1249 1.516 1_554 S
C1249 C1248 1.516 1_556 S
C1249 C1250 1.502 . S
C1249 C1251 1.561 . S
C1249 C1252 1.526 . S
C1250 H1234 0.962 . S
C1250 H1235 0.980 . S
C1250 H1236 0.939 1_556 S
C1250 C1249 1.502 . S
C1251 H1237 0.957 1_556 S
C1251 H1238 0.964 . S
C1251 H1239 0.959 . S
C1251 C1249 1.561 . S
C1252 C1249 1.526 . S
C1252 C1253 1.396 . S
C1252 C1257 1.390 . S
C1253 C1247 1.465 1_556 S
C1253 C1252 1.396 . S
C1253 C1254 1.399 . S
C1254 H1240 0.929 . S
C1254 C1253 1.399 . S
C1254 C1255 1.385 . S
C1255 H1241 0.931 . S
C1255 C1254 1.385 . S
C1255 C1256 1.389 . S
C1256 C1255 1.389 . S
C1256 C1257 1.387 . S
C1257 H1242 0.930 . S
C1257 C1252 1.390 . S
C1257 C1256 1.387 . S
H1258 C1270 0.930 . S
H1259 C1272 0.930 . S
H1260 C1273 0.930 . S
H1261 C1277 0.962 . S
H1262 C1277 0.980 . S
H1263 C1277 0.939 1_554 S
H1264 C1278 0.957 1_554 S
H1265 C1278 0.964 . S
H1266 C1278 0.959 . S
H1267 C1281 0.929 . S
H1268 C1282 0.931 . S
H1269 C1284 0.930 . S
C1270 H1258 0.930 . S
C1270 C1271 1.399 . S
C1270 C1275 1.399 . S
C1271 C1270 1.399 . S
C1271 C1272 1.376 . S
C1272 H1259 0.930 . S
C1272 C1271 1.376 . S
C1272 C1273 1.388 . S
C1273 H1260 0.930 . S
C1273 C1272 1.388 . S
C1273 C1274 1.390 . S
C1274 C1273 1.390 . S
C1274 C1275 1.394 . S
C1274 C1280 1.465 1_554 S
C1275 C1270 1.399 . S
C1275 C1274 1.394 . S
C1275 C1276 1.516 1_554 S
C1276 C1275 1.516 1_556 S
C1276 C1277 1.502 . S
C1276 C1278 1.561 . S
C1276 C1279 1.526 . S
C1277 H1261 0.962 . S
C1277 H1262 0.980 . S
C1277 H1263 0.939 1_556 S
C1277 C1276 1.502 . S
C1278 H1264 0.957 1_556 S
C1278 H1265 0.964 . S
C1278 H1266 0.959 . S
C1278 C1276 1.561 . S
C1279 C1276 1.526 . S
C1279 C1280 1.396 . S
C1279 C1284 1.390 . S
C1280 C1274 1.465 1_556 S
C1280 C1279 1.396 . S
C1280 C1281 1.399 . S
C1281 H1267 0.929 . S
C1281 C1280 1.399 . S
C1281 C1282 1.385 . S
C1282 H1268 0.931 . S
C1282 C1281 1.385 . S
C1282 C1283 1.389 . S
C1283 C1282 1.389 . S
C1283 C1284 1.387 . S
C1284 H1269 0.930 . S
C1284 C1279 1.390 . S
C1284 C1283 1.387 . S
H1285 C1297 0.930 . S
H1286 C1299 0.930 . S
H1287 C1300 0.930 . S
H1288 C1304 0.962 . S
H1289 C1304 0.980 . S
H1290 C1304 0.939 1_556 S
H1291 C1305 0.957 1_556 S
H1292 C1305 0.964 . S
H1293 C1305 0.959 . S
H1294 C1308 0.929 . S
H1295 C1309 0.931 . S
H1296 C1311 0.930 . S
C1297 H1285 0.930 . S
C1297 C1298 1.399 . S
C1297 C1302 1.399 . S
C1298 C1297 1.399 . S
C1298 C1299 1.376 . S
C1299 H1286 0.930 . S
C1299 C1298 1.376 . S
C1299 C1300 1.388 . S
C1300 H1287 0.930 . S
C1300 C1299 1.388 . S
C1300 C1301 1.390 . S
C1301 C1300 1.390 . S
C1301 C1302 1.394 . S
C1301 C1307 1.465 1_556 S
C1302 C1297 1.399 . S
C1302 C1301 1.394 . S
C1302 C1303 1.516 1_556 S
C1303 C1302 1.516 1_554 S
C1303 C1304 1.502 . S
C1303 C1305 1.561 . S
C1303 C1306 1.526 . S
C1304 H1288 0.962 . S
C1304 H1289 0.980 . S
C1304 H1290 0.939 1_554 S
C1304 C1303 1.502 . S
C1305 H1291 0.957 1_554 S
C1305 H1292 0.964 . S
C1305 H1293 0.959 . S
C1305 C1303 1.561 . S
C1306 C1303 1.526 . S
C1306 C1307 1.396 . S
C1306 C1311 1.390 . S
C1307 C1301 1.465 1_554 S
C1307 C1306 1.396 . S
C1307 C1308 1.399 . S
C1308 H1294 0.929 . S
C1308 C1307 1.399 . S
C1308 C1309 1.385 . S
C1309 H1295 0.931 . S
C1309 C1308 1.385 . S
C1309 C1310 1.389 . S
C1310 C1309 1.389 . S
C1310 C1311 1.387 . S
C1311 H1296 0.930 . S
C1311 C1306 1.390 . S
C1311 C1310 1.387 . S
H1312 C1324 0.930 . S
H1313 C1326 0.930 . S
H1314 C1327 0.930 . S
H1315 C1331 0.959 . S
H1316 C1331 0.959 . S
H1317 C1331 0.961 . S
H1318 C1332 0.960 . S
H1319 C1332 0.961 . S
H1320 C1332 0.959 . S
H1321 C1335 0.931 1_545 S
H1322 C1336 0.931 . S
H1323 C1338 0.930 . S
C1324 H1312 0.930 . S
C1324 C1325 1.399 . S
C1324 C1329 1.399 . S
C1325 C1324 1.399 . S
C1325 C1326 1.376 . S
C1326 H1313 0.930 . S
C1326 C1325 1.376 . S
C1326 C1327 1.388 . S
C1327 H1314 0.930 . S
C1327 C1326 1.388 . S
C1327 C1328 1.390 . S
C1328 C1327 1.390 . S
C1328 C1329 1.394 . S
C1328 C1334 1.465 1_545 S
C1329 C1324 1.399 . S
C1329 C1328 1.394 . S
C1329 C1330 1.516 1_545 S
C1330 C1329 1.516 1_565 S
C1330 C1331 1.502 . S
C1330 C1332 1.561 . S
C1330 C1333 1.526 . S
C1331 H1315 0.959 . S
C1331 H1316 0.959 . S
C1331 H1317 0.961 . S
C1331 C1330 1.502 . S
C1332 H1318 0.960 . S
C1332 H1319 0.961 . S
C1332 H1320 0.959 . S
C1332 C1330 1.561 . S
C1333 C1330 1.526 . S
C1333 C1334 1.396 . S
C1333 C1338 1.390 . S
C1334 C1328 1.465 1_565 S
C1334 C1333 1.396 . S
C1334 C1335 1.399 . S
C1335 H1321 0.931 1_565 S
C1335 C1334 1.399 . S
C1335 C1336 1.385 . S
C1336 H1322 0.931 . S
C1336 C1335 1.385 . S
C1336 C1337 1.389 . S
C1337 C1336 1.389 . S
C1337 C1338 1.387 . S
C1338 H1323 0.930 . S
C1338 C1333 1.390 . S
C1338 C1337 1.387 . S
H1339 C1351 0.930 . S
H1340 C1353 0.930 . S
H1341 C1354 0.930 . S
H1342 C1358 0.959 . S
H1343 C1358 0.959 . S
H1344 C1358 0.961 . S
H1345 C1359 0.960 . S
H1346 C1359 0.961 . S
H1347 C1359 0.959 . S
H1348 C1362 0.951 . S
H1349 C1363 0.931 . S
H1350 C1365 0.930 . S
C1351 H1339 0.930 . S
C1351 C1352 1.399 . S
C1351 C1356 1.399 . S
C1352 C1351 1.399 . S
C1352 C1353 1.376 . S
C1353 H1340 0.930 . S
C1353 C1352 1.376 . S
C1353 C1354 1.388 . S
C1354 H1341 0.930 . S
C1354 C1353 1.388 . S
C1354 C1355 1.390 . S
C1355 C1354 1.390 . S
C1355 C1356 1.394 . S
C1355 C1361 1.465 1_655 S
C1356 C1351 1.399 . S
C1356 C1355 1.394 . S
C1356 C1357 1.516 1_655 S
C1357 C1356 1.516 1_455 S
C1357 C1358 1.502 . S
C1357 C1359 1.561 . S
C1357 C1360 1.526 . S
C1358 H1342 0.959 . S
C1358 H1343 0.959 . S
C1358 H1344 0.961 . S
C1358 C1357 1.502 . S
C1359 H1345 0.960 . S
C1359 H1346 0.961 . S
C1359 H1347 0.959 . S
C1359 C1357 1.561 . S
C1360 C1357 1.526 . S
C1360 C1361 1.396 . S
C1360 C1365 1.390 . S
C1361 C1355 1.465 1_455 S
C1361 C1360 1.396 . S
C1361 C1362 1.399 . S
C1362 H1348 0.951 . S
C1362 C1361 1.399 . S
C1362 C1363 1.385 . S
C1363 H1349 0.931 . S
C1363 C1362 1.385 . S
C1363 C1364 1.389 . S
C1364 C1363 1.389 . S
C1364 C1365 1.387 . S
C1365 H1350 0.930 . S
C1365 C1360 1.390 . S
C1365 C1364 1.387 . S
H1366 C1378 0.930 . S
H1367 C1380 0.930 . S
H1368 C1381 0.930 . S
H1369 C1385 0.959 . S
H1370 C1385 0.959 . S
H1371 C1385 0.961 . S
H1372 C1386 0.960 . S
H1373 C1386 0.961 . S
H1374 C1386 0.959 . S
H1375 C1389 0.929 . S
H1376 C1390 0.931 . S
H1377 C1392 0.930 . S
C1378 H1366 0.930 . S
C1378 C1379 1.399 . S
C1378 C1383 1.399 . S
C1379 C1378 1.399 . S
C1379 C1380 1.376 . S
C1380 H1367 0.930 . S
C1380 C1379 1.376 . S
C1380 C1381 1.388 . S
C1381 H1368 0.930 . S
C1381 C1380 1.388 . S
C1381 C1382 1.390 . S
C1382 C1381 1.390 . S
C1382 C1383 1.394 . S
C1382 C1388 1.465 1_545 S
C1383 C1378 1.399 . S
C1383 C1382 1.394 . S
C1383 C1384 1.516 1_545 S
C1384 C1383 1.516 1_565 S
C1384 C1385 1.502 . S
C1384 C1386 1.561 . S
C1384 C1387 1.526 . S
C1385 H1369 0.959 . S
C1385 H1370 0.959 . S
C1385 H1371 0.961 . S
C1385 C1384 1.502 . S
C1386 H1372 0.960 . S
C1386 H1373 0.961 . S
C1386 H1374 0.959 . S
C1386 C1384 1.561 . S
C1387 C1384 1.526 . S
C1387 C1388 1.396 . S
C1387 C1392 1.390 . S
C1388 C1382 1.465 1_565 S
C1388 C1387 1.396 . S
C1388 C1389 1.399 . S
C1389 H1375 0.929 . S
C1389 C1388 1.399 . S
C1389 C1390 1.385 . S
C1390 H1376 0.931 . S
C1390 C1389 1.385 . S
C1390 C1391 1.389 . S
C1391 C1390 1.389 . S
C1391 C1392 1.387 . S
C1392 H1377 0.930 . S
C1392 C1387 1.390 . S
C1392 C1391 1.387 . S
H1393 C1405 0.930 . S
H1394 C1407 0.930 . S
H1395 C1408 0.947 . S
H1396 C1412 0.959 . S
H1397 C1412 0.959 . S
H1398 C1412 0.961 . S
H1399 C1413 0.960 . S
H1400 C1413 0.961 . S
H1401 C1413 0.959 . S
H1402 C1416 0.929 . S
H1403 C1417 0.931 . S
H1404 C1419 0.930 . S
C1405 H1393 0.930 . S
C1405 C1406 1.399 . S
C1405 C1410 1.399 . S
C1406 C1405 1.399 . S
C1406 C1407 1.376 . S
C1407 H1394 0.930 . S
C1407 C1406 1.376 . S
C1407 C1408 1.388 . S
C1408 H1395 0.947 . S
C1408 C1407 1.388 . S
C1408 C1409 1.390 . S
C1409 C1408 1.390 . S
C1409 C1410 1.394 . S
C1409 C1415 1.465 1_455 S
C1410 C1405 1.399 . S
C1410 C1409 1.394 . S
C1410 C1411 1.516 . S
C1411 C1410 1.516 . S
C1411 C1412 1.502 . S
C1411 C1413 1.561 . S
C1411 C1414 1.526 1_455 S
C1412 H1396 0.959 . S
C1412 H1397 0.959 . S
C1412 H1398 0.961 . S
C1412 C1411 1.502 . S
C1413 H1399 0.960 . S
C1413 H1400 0.961 . S
C1413 H1401 0.959 . S
C1413 C1411 1.561 . S
C1414 C1411 1.526 1_655 S
C1414 C1415 1.396 . S
C1414 C1419 1.390 . S
C1415 C1409 1.465 1_655 S
C1415 C1414 1.396 . S
C1415 C1416 1.399 . S
C1416 H1402 0.929 . S
C1416 C1415 1.399 . S
C1416 C1417 1.385 . S
C1417 H1403 0.931 . S
C1417 C1416 1.385 . S
C1417 C1418 1.389 . S
C1418 C1417 1.389 . S
C1418 C1419 1.387 . S
C1419 H1404 0.930 . S
C1419 C1414 1.390 . S
C1419 C1418 1.387 . S
H1420 C1432 0.930 . S
H1421 C1434 0.930 . S
H1422 C1435 0.930 . S
H1423 C1439 0.959 . S
H1424 C1439 0.959 . S
H1425 C1439 0.961 . S
H1426 C1440 0.960 . S
H1427 C1440 0.961 . S
H1428 C1440 0.959 . S
H1429 C1443 0.926 . S
H1430 C1444 0.931 . S
H1431 C1446 0.930 . S
C1432 H1420 0.930 . S
C1432 C1433 1.399 . S
C1432 C1437 1.399 . S
C1433 C1432 1.399 . S
C1433 C1434 1.376 . S
C1434 H1421 0.930 . S
C1434 C1433 1.376 . S
C1434 C1435 1.388 . S
C1435 H1422 0.930 . S
C1435 C1434 1.388 . S
C1435 C1436 1.390 . S
C1436 C1435 1.390 . S
C1436 C1437 1.394 . S
C1436 C1442 1.465 1_565 S
C1437 C1432 1.399 . S
C1437 C1436 1.394 . S
C1437 C1438 1.516 1_565 S
C1438 C1437 1.516 1_545 S
C1438 C1439 1.502 . S
C1438 C1440 1.561 . S
C1438 C1441 1.526 . S
C1439 H1423 0.959 . S
C1439 H1424 0.959 . S
C1439 H1425 0.961 . S
C1439 C1438 1.502 . S
C1440 H1426 0.960 . S
C1440 H1427 0.961 . S
C1440 H1428 0.959 . S
C1440 C1438 1.561 . S
C1441 C1438 1.526 . S
C1441 C1442 1.396 . S
C1441 C1446 1.390 . S
C1442 C1436 1.465 1_545 S
C1442 C1441 1.396 . S
C1442 C1443 1.399 . S
C1443 H1429 0.926 . S
C1443 C1442 1.399 . S
C1443 C1444 1.385 . S
C1444 H1430 0.931 . S
C1444 C1443 1.385 . S
C1444 C1445 1.389 . S
C1445 C1444 1.389 . S
C1445 C1446 1.387 . S
C1446 H1431 0.930 . S
C1446 C1441 1.390 . S
C1446 C1445 1.387 . S
H1447 C1459 0.930 . S
H1448 C1461 0.930 . S
H1449 C1462 0.930 . S
H1450 C1466 0.959 . S
H1451 C1466 0.959 . S
H1452 C1466 1.001 . S
H1453 C1467 0.960 . S
H1454 C1467 0.961 1_455 S
H1455 C1467 0.959 . S
H1456 C1470 0.929 . S
H1457 C1471 0.931 . S
H1458 C1473 0.930 . S
C1459 H1447 0.930 . S
C1459 C1460 1.399 . S
C1459 C1464 1.399 . S
C1460 C1459 1.399 . S
C1460 C1461 1.376 . S
C1461 H1448 0.930 . S
C1461 C1460 1.376 . S
C1461 C1462 1.388 . S
C1462 H1449 0.930 . S
C1462 C1461 1.388 . S
C1462 C1463 1.390 . S
C1463 C1462 1.390 . S
C1463 C1464 1.394 . S
C1463 C1469 1.465 1_655 S
C1464 C1459 1.399 . S
C1464 C1463 1.394 . S
C1464 C1465 1.516 1_655 S
C1465 C1464 1.516 1_455 S
C1465 C1466 1.502 . S
C1465 C1467 1.561 1_455 S
C1465 C1468 1.526 . S
C1466 H1450 0.959 . S
C1466 H1451 0.959 . S
C1466 H1452 1.001 . S
C1466 C1465 1.502 . S
C1467 H1453 0.960 . S
C1467 H1454 0.961 1_655 S
C1467 H1455 0.959 . S
C1467 C1465 1.561 1_655 S
C1468 C1465 1.526 . S
C1468 C1469 1.396 . S
C1468 C1473 1.390 . S
C1469 C1463 1.465 1_455 S
C1469 C1468 1.396 . S
C1469 C1470 1.399 . S
C1470 H1456 0.929 . S
C1470 C1469 1.399 . S
C1470 C1471 1.385 . S
C1471 H1457 0.931 . S
C1471 C1470 1.385 . S
C1471 C1472 1.389 . S
C1472 C1471 1.389 . S
C1472 C1473 1.387 . S
C1473 H1458 0.930 . S
C1473 C1468 1.390 . S
C1473 C1472 1.387 . S
H1474 C1486 0.930 . S
H1475 C1488 0.930 . S
H1476 C1489 0.930 . S
H1477 C1493 0.959 . S
H1478 C1493 0.959 . S
H1479 C1493 0.961 . S
H1480 C1494 0.960 1_565 S
H1481 C1494 0.961 . S
H1482 C1494 0.959 1_565 S
H1483 C1497 0.929 . S
H1484 C1498 0.931 . S
H1485 C1500 0.930 . S
C1486 H1474 0.930 . S
C1486 C1487 1.399 . S
C1486 C1491 1.399 . S
C1487 C1486 1.399 . S
C1487 C1488 1.376 . S
C1488 H1475 0.930 . S
C1488 C1487 1.376 . S
C1488 C1489 1.388 . S
C1489 H1476 0.930 . S
C1489 C1488 1.388 . S
C1489 C1490 1.390 . S
C1490 C1489 1.390 . S
C1490 C1491 1.394 . S
C1490 C1496 1.465 1_565 S
C1491 C1486 1.399 . S
C1491 C1490 1.394 . S
C1491 C1492 1.516 1_565 S
C1492 C1491 1.516 1_545 S
C1492 C1493 1.502 . S
C1492 C1494 1.561 . S
C1492 C1495 1.526 . S
C1493 H1477 0.959 . S
C1493 H1478 0.959 . S
C1493 H1479 0.961 . S
C1493 C1492 1.502 . S
C1494 H1480 0.960 1_545 S
C1494 H1481 0.961 . S
C1494 H1482 0.959 1_545 S
C1494 C1492 1.561 . S
C1495 C1492 1.526 . S
C1495 C1496 1.396 . S
C1495 C1500 1.390 . S
C1496 C1490 1.465 1_545 S
C1496 C1495 1.396 . S
C1496 C1497 1.399 . S
C1497 H1483 0.929 . S
C1497 C1496 1.399 . S
C1497 C1498 1.385 . S
C1498 H1484 0.931 . S
C1498 C1497 1.385 . S
C1498 C1499 1.389 . S
C1499 C1498 1.389 . S
C1499 C1500 1.387 . S
C1500 H1485 0.930 . S
C1500 C1495 1.390 . S
C1500 C1499 1.387 . S
H1501 C1513 0.930 . S
H1502 C1515 0.930 . S
H1503 C1516 0.930 . S
H1504 C1520 0.959 . S
H1505 C1520 0.959 . S
H1506 C1520 0.965 . S
H1507 C1521 0.960 . S
H1508 C1521 0.961 1_455 S
H1509 C1521 0.959 . S
H1510 C1524 0.929 . S
H1511 C1525 0.931 . S
H1512 C1527 0.930 . S
C1513 H1501 0.930 . S
C1513 C1514 1.399 . S
C1513 C1518 1.399 . S
C1514 C1513 1.399 . S
C1514 C1515 1.376 . S
C1515 H1502 0.930 . S
C1515 C1514 1.376 . S
C1515 C1516 1.388 . S
C1516 H1503 0.930 . S
C1516 C1515 1.388 . S
C1516 C1517 1.390 . S
C1517 C1516 1.390 . S
C1517 C1518 1.394 . S
C1517 C1523 1.465 1_655 S
C1518 C1513 1.399 . S
C1518 C1517 1.394 . S
C1518 C1519 1.516 1_655 S
C1519 C1518 1.516 1_455 S
C1519 C1520 1.502 . S
C1519 C1521 1.561 1_455 S
C1519 C1522 1.526 . S
C1520 H1504 0.959 . S
C1520 H1505 0.959 . S
C1520 H1506 0.965 . S
C1520 C1519 1.502 . S
C1521 H1507 0.960 . S
C1521 H1508 0.961 1_655 S
C1521 H1509 0.959 . S
C1521 C1519 1.561 1_655 S
C1522 C1519 1.526 . S
C1522 C1523 1.396 . S
C1522 C1527 1.390 . S
C1523 C1517 1.465 1_455 S
C1523 C1522 1.396 . S
C1523 C1524 1.399 . S
C1524 H1510 0.929 . S
C1524 C1523 1.399 . S
C1524 C1525 1.385 . S
C1525 H1511 0.931 . S
C1525 C1524 1.385 . S
C1525 C1526 1.389 . S
C1526 C1525 1.389 . S
C1526 C1527 1.387 . S
C1527 H1512 0.930 . S
C1527 C1522 1.390 . S
C1527 C1526 1.387 . S
H1528 C1540 0.930 . S
H1529 C1542 0.930 . S
H1530 C1543 0.930 . S
H1531 C1547 0.959 . S
H1532 C1547 0.959 . S
H1533 C1547 0.961 . S
H1534 C1548 0.960 . S
H1535 C1548 0.961 . S
H1536 C1548 0.959 . S
H1537 C1551 0.929 . S
H1538 C1552 0.931 . S
H1539 C1554 0.930 . S
C1540 H1528 0.930 . S
C1540 C1541 1.399 . S
C1540 C1545 1.399 . S
C1541 C1540 1.399 . S
C1541 C1542 1.376 . S
C1542 H1529 0.930 . S
C1542 C1541 1.376 . S
C1542 C1543 1.388 . S
C1543 H1530 0.930 . S
C1543 C1542 1.388 . S
C1543 C1544 1.390 . S
C1544 C1543 1.390 . S
C1544 C1545 1.394 . S
C1544 C1550 1.465 . S
C1545 C1540 1.399 . S
C1545 C1544 1.394 . S
C1545 C1546 1.516 . S
C1546 C1545 1.516 . S
C1546 C1547 1.502 . S
C1546 C1548 1.561 . S
C1546 C1549 1.526 . S
C1547 H1531 0.959 . S
C1547 H1532 0.959 . S
C1547 H1533 0.961 . S
C1547 C1546 1.502 . S
C1548 H1534 0.960 . S
C1548 H1535 0.961 . S
C1548 H1536 0.959 . S
C1548 C1546 1.561 . S
C1549 C1546 1.526 . S
C1549 C1550 1.396 . S
C1549 C1554 1.390 . S
C1550 C1544 1.465 . S
C1550 C1549 1.396 . S
C1550 C1551 1.399 . S
C1551 H1537 0.929 . S
C1551 C1550 1.399 . S
C1551 C1552 1.385 . S
C1552 H1538 0.931 . S
C1552 C1551 1.385 . S
C1552 C1553 1.389 . S
C1553 C1552 1.389 . S
C1553 C1554 1.387 . S
C1554 H1539 0.930 . S
C1554 C1549 1.390 . S
C1554 C1553 1.387 . S
H1555 C1567 0.930 . S
H1556 C1569 0.930 . S
H1557 C1570 0.930 . S
H1558 C1574 0.959 . S
H1559 C1574 0.959 . S
H1560 C1574 0.961 . S
H1561 C1575 0.960 . S
H1562 C1575 0.961 . S
H1563 C1575 0.959 . S
H1564 C1578 0.929 . S
H1565 C1579 0.931 . S
H1566 C1581 0.930 . S
C1567 H1555 0.930 . S
C1567 C1568 1.399 . S
C1567 C1572 1.399 . S
C1568 C1567 1.399 . S
C1568 C1569 1.376 . S
C1569 H1556 0.930 . S
C1569 C1568 1.376 . S
C1569 C1570 1.388 . S
C1570 H1557 0.930 . S
C1570 C1569 1.388 . S
C1570 C1571 1.390 . S
C1571 C1570 1.390 . S
C1571 C1572 1.394 . S
C1571 C1577 1.465 . S
C1572 C1567 1.399 . S
C1572 C1571 1.394 . S
C1572 C1573 1.516 . S
C1573 C1572 1.516 . S
C1573 C1574 1.502 . S
C1573 C1575 1.561 . S
C1573 C1576 1.526 . S
C1574 H1558 0.959 . S
C1574 H1559 0.959 . S
C1574 H1560 0.961 . S
C1574 C1573 1.502 . S
C1575 H1561 0.960 . S
C1575 H1562 0.961 . S
C1575 H1563 0.959 . S
C1575 C1573 1.561 . S
C1576 C1573 1.526 . S
C1576 C1577 1.396 . S
C1576 C1581 1.390 . S
C1577 C1571 1.465 . S
C1577 C1576 1.396 . S
C1577 C1578 1.399 . S
C1578 H1564 0.929 . S
C1578 C1577 1.399 . S
C1578 C1579 1.385 . S
C1579 H1565 0.931 . S
C1579 C1578 1.385 . S
C1579 C1580 1.389 . S
C1580 C1579 1.389 . S
C1580 C1581 1.387 . S
C1581 H1566 0.930 . S
C1581 C1576 1.390 . S
C1581 C1580 1.387 . S
H1582 C1594 0.930 . S
H1583 C1596 0.930 . S
H1584 C1597 0.930 . S
H1585 C1601 0.959 . S
H1586 C1601 0.959 . S
H1587 C1601 0.961 . S
H1588 C1602 0.960 . S
H1589 C1602 0.961 . S
H1590 C1602 0.959 . S
H1591 C1605 0.929 . S
H1592 C1606 0.931 . S
H1593 C1608 0.930 . S
C1594 H1582 0.930 . S
C1594 C1595 1.399 . S
C1594 C1599 1.399 . S
C1595 C1594 1.399 . S
C1595 C1596 1.376 . S
C1596 H1583 0.930 . S
C1596 C1595 1.376 . S
C1596 C1597 1.388 . S
C1597 H1584 0.930 . S
C1597 C1596 1.388 . S
C1597 C1598 1.390 . S
C1598 C1597 1.390 . S
C1598 C1599 1.394 . S
C1598 C1604 1.465 . S
C1599 C1594 1.399 . S
C1599 C1598 1.394 . S
C1599 C1600 1.516 . S
C1600 C1599 1.516 . S
C1600 C1601 1.502 . S
C1600 C1602 1.561 . S
C1600 C1603 1.526 . S
C1601 H1585 0.959 . S
C1601 H1586 0.959 . S
C1601 H1587 0.961 . S
C1601 C1600 1.502 . S
C1602 H1588 0.960 . S
C1602 H1589 0.961 . S
C1602 H1590 0.959 . S
C1602 C1600 1.561 . S
C1603 C1600 1.526 . S
C1603 C1604 1.396 . S
C1603 C1608 1.390 . S
C1604 C1598 1.465 . S
C1604 C1603 1.396 . S
C1604 C1605 1.399 . S
C1605 H1591 0.929 . S
C1605 C1604 1.399 . S
C1605 C1606 1.385 . S
C1606 H1592 0.931 . S
C1606 C1605 1.385 . S
C1606 C1607 1.389 . S
C1607 C1606 1.389 . S
C1607 C1608 1.387 . S
C1608 H1593 0.930 . S
C1608 C1603 1.390 . S
C1608 C1607 1.387 . S
H1609 C1621 0.930 . S
H1610 C1623 0.930 . S
H1611 C1624 0.930 . S
H1612 C1628 0.959 . S
H1613 C1628 0.959 . S
H1614 C1628 0.961 . S
H1615 C1629 0.960 . S
H1616 C1629 0.961 . S
H1617 C1629 0.959 . S
H1618 C1632 0.929 . S
H1619 C1633 0.931 . S
H1620 C1635 0.930 . S
C1621 H1609 0.930 . S
C1621 C1622 1.399 . S
C1621 C1626 1.399 . S
C1622 C1621 1.399 . S
C1622 C1623 1.376 . S
C1623 H1610 0.930 . S
C1623 C1622 1.376 . S
C1623 C1624 1.388 . S
C1624 H1611 0.930 . S
C1624 C1623 1.388 . S
C1624 C1625 1.390 . S
C1625 C1624 1.390 . S
C1625 C1626 1.394 . S
C1625 C1631 1.465 . S
C1626 C1621 1.399 . S
C1626 C1625 1.394 . S
C1626 C1627 1.516 . S
C1627 C1626 1.516 . S
C1627 C1628 1.502 . S
C1627 C1629 1.561 . S
C1627 C1630 1.526 . S
C1628 H1612 0.959 . S
C1628 H1613 0.959 . S
C1628 H1614 0.961 . S
C1628 C1627 1.502 . S
C1629 H1615 0.960 . S
C1629 H1616 0.961 . S
C1629 H1617 0.959 . S
C1629 C1627 1.561 . S
C1630 C1627 1.526 . S
C1630 C1631 1.396 . S
C1630 C1635 1.390 . S
C1631 C1625 1.465 . S
C1631 C1630 1.396 . S
C1631 C1632 1.399 . S
C1632 H1618 0.929 . S
C1632 C1631 1.399 . S
C1632 C1633 1.385 . S
C1633 H1619 0.931 . S
C1633 C1632 1.385 . S
C1633 C1634 1.389 . S
C1634 C1633 1.389 . S
C1634 C1635 1.387 . S
C1635 H1620 0.930 . S
C1635 C1630 1.390 . S
C1635 C1634 1.387 . S
H1636 C1648 0.930 . S
H1637 C1650 0.930 . S
H1638 C1651 0.930 . S
H1639 C1655 0.959 . S
H1640 C1655 0.959 . S
H1641 C1655 0.961 . S
H1642 C1656 0.960 . S
H1643 C1656 0.961 . S
H1644 C1656 0.959 . S
H1645 C1659 0.929 . S
H1646 C1660 0.931 . S
H1647 C1662 0.930 . S
C1648 H1636 0.930 . S
C1648 C1649 1.399 . S
C1648 C1653 1.399 . S
C1649 C1648 1.399 . S
C1649 C1650 1.376 . S
C1650 H1637 0.930 . S
C1650 C1649 1.376 . S
C1650 C1651 1.388 . S
C1651 H1638 0.930 . S
C1651 C1650 1.388 . S
C1651 C1652 1.390 . S
C1652 C1651 1.390 . S
C1652 C1653 1.394 . S
C1652 C1658 1.465 . S
C1653 C1648 1.399 . S
C1653 C1652 1.394 . S
C1653 C1654 1.516 . S
C1654 C1653 1.516 . S
C1654 C1655 1.502 . S
C1654 C1656 1.561 . S
C1654 C1657 1.526 . S
C1655 H1639 0.959 . S
C1655 H1640 0.959 . S
C1655 H1641 0.961 . S
C1655 C1654 1.502 . S
C1656 H1642 0.960 . S
C1656 H1643 0.961 . S
C1656 H1644 0.959 . S
C1656 C1654 1.561 . S
C1657 C1654 1.526 . S
C1657 C1658 1.396 . S
C1657 C1662 1.390 . S
C1658 C1652 1.465 . S
C1658 C1657 1.396 . S
C1658 C1659 1.399 . S
C1659 H1645 0.929 . S
C1659 C1658 1.399 . S
C1659 C1660 1.385 . S
C1660 H1646 0.931 . S
C1660 C1659 1.385 . S
C1660 C1661 1.389 . S
C1661 C1660 1.389 . S
C1661 C1662 1.387 . S
C1662 H1647 0.930 . S
C1662 C1657 1.390 . S
C1662 C1661 1.387 . S
H1663 C1675 0.930 . S
H1664 C1677 0.930 . S
H1665 C1678 0.930 . S
H1666 C1682 0.959 . S
H1667 C1682 0.959 . S
H1668 C1682 0.961 . S
H1669 C1683 0.960 . S
H1670 C1683 0.961 . S
H1671 C1683 0.959 . S
H1672 C1686 0.929 . S
H1673 C1687 0.931 . S
H1674 C1689 0.930 . S
C1675 H1663 0.930 . S
C1675 C1676 1.399 . S
C1675 C1680 1.399 . S
C1676 C1675 1.399 . S
C1676 C1677 1.376 . S
C1677 H1664 0.930 . S
C1677 C1676 1.376 . S
C1677 C1678 1.388 . S
C1678 H1665 0.930 . S
C1678 C1677 1.388 . S
C1678 C1679 1.390 . S
C1679 C1678 1.390 . S
C1679 C1680 1.394 . S
C1679 C1685 1.465 . S
C1680 C1675 1.399 . S
C1680 C1679 1.394 . S
C1680 C1681 1.516 . S
C1681 C1680 1.516 . S
C1681 C1682 1.502 . S
C1681 C1683 1.561 . S
C1681 C1684 1.526 . S
C1682 H1666 0.959 . S
C1682 H1667 0.959 . S
C1682 H1668 0.961 . S
C1682 C1681 1.502 . S
C1683 H1669 0.960 . S
C1683 H1670 0.961 . S
C1683 H1671 0.959 . S
C1683 C1681 1.561 . S
C1684 C1681 1.526 . S
C1684 C1685 1.396 . S
C1684 C1689 1.390 . S
C1685 C1679 1.465 . S
C1685 C1684 1.396 . S
C1685 C1686 1.399 . S
C1686 H1672 0.929 . S
C1686 C1685 1.399 . S
C1686 C1687 1.385 . S
C1687 H1673 0.931 . S
C1687 C1686 1.385 . S
C1687 C1688 1.389 . S
C1688 C1687 1.389 . S
C1688 C1689 1.387 . S
C1689 H1674 0.930 . S
C1689 C1684 1.390 . S
C1689 C1688 1.387 . S
H1690 C1702 0.930 . S
H1691 C1704 0.930 . S
H1692 C1705 0.930 . S
H1693 C1709 0.959 . S
H1694 C1709 0.959 . S
H1695 C1709 0.961 . S
H1696 C1710 0.960 . S
H1697 C1710 0.961 . S
H1698 C1710 0.959 . S
H1699 C1713 0.929 . S
H1700 C1714 0.931 . S
H1701 C1716 0.930 . S
C1702 H1690 0.930 . S
C1702 C1703 1.399 . S
C1702 C1707 1.399 . S
C1703 C1702 1.399 . S
C1703 C1704 1.376 . S
C1704 H1691 0.930 . S
C1704 C1703 1.376 . S
C1704 C1705 1.388 . S
C1705 H1692 0.930 . S
C1705 C1704 1.388 . S
C1705 C1706 1.390 . S
C1706 C1705 1.390 . S
C1706 C1707 1.394 . S
C1706 C1712 1.465 . S
C1707 C1702 1.399 . S
C1707 C1706 1.394 . S
C1707 C1708 1.516 . S
C1708 C1707 1.516 . S
C1708 C1709 1.502 . S
C1708 C1710 1.561 . S
C1708 C1711 1.526 . S
C1709 H1693 0.959 . S
C1709 H1694 0.959 . S
C1709 H1695 0.961 . S
C1709 C1708 1.502 . S
C1710 H1696 0.960 . S
C1710 H1697 0.961 . S
C1710 H1698 0.959 . S
C1710 C1708 1.561 . S
C1711 C1708 1.526 . S
C1711 C1712 1.396 . S
C1711 C1716 1.390 . S
C1712 C1706 1.465 . S
C1712 C1711 1.396 . S
C1712 C1713 1.399 . S
C1713 H1699 0.929 . S
C1713 C1712 1.399 . S
C1713 C1714 1.385 . S
C1714 H1700 0.931 . S
C1714 C1713 1.385 . S
C1714 C1715 1.389 . S
C1715 C1714 1.389 . S
C1715 C1716 1.387 . S
C1716 H1701 0.930 . S
C1716 C1711 1.390 . S
C1716 C1715 1.387 . S
H1717 C1729 0.930 . S
H1718 C1731 0.930 . S
H1719 C1732 0.930 . S
H1720 C1736 0.959 . S
H1721 C1736 0.959 . S
H1722 C1736 0.961 . S
H1723 C1737 0.960 . S
H1724 C1737 0.961 . S
H1725 C1737 0.959 . S
H1726 C1740 0.929 . S
H1727 C1741 0.931 . S
H1728 C1743 0.930 . S
C1729 H1717 0.930 . S
C1729 C1730 1.399 . S
C1729 C1734 1.399 . S
C1730 C1729 1.399 . S
C1730 C1731 1.376 . S
C1731 H1718 0.930 . S
C1731 C1730 1.376 . S
C1731 C1732 1.388 . S
C1732 H1719 0.930 . S
C1732 C1731 1.388 . S
C1732 C1733 1.390 . S
C1733 C1732 1.390 . S
C1733 C1734 1.394 . S
C1733 C1739 1.465 . S
C1734 C1729 1.399 . S
C1734 C1733 1.394 . S
C1734 C1735 1.516 . S
C1735 C1734 1.516 . S
C1735 C1736 1.502 . S
C1735 C1737 1.561 . S
C1735 C1738 1.526 . S
C1736 H1720 0.959 . S
C1736 H1721 0.959 . S
C1736 H1722 0.961 . S
C1736 C1735 1.502 . S
C1737 H1723 0.960 . S
C1737 H1724 0.961 . S
C1737 H1725 0.959 . S
C1737 C1735 1.561 . S
C1738 C1735 1.526 . S
C1738 C1739 1.396 . S
C1738 C1743 1.390 . S
C1739 C1733 1.465 . S
C1739 C1738 1.396 . S
C1739 C1740 1.399 . S
C1740 H1726 0.929 . S
C1740 C1739 1.399 . S
C1740 C1741 1.385 . S
C1741 H1727 0.931 . S
C1741 C1740 1.385 . S
C1741 C1742 1.389 . S
C1742 C1741 1.389 . S
C1742 C1743 1.387 . S
C1743 H1728 0.930 . S
C1743 C1738 1.390 . S
C1743 C1742 1.387 . S
H1744 C1756 0.930 . S
H1745 C1758 0.930 . S
H1746 C1759 0.930 . S
H1747 C1763 0.959 . S
H1748 C1763 0.959 . S
H1749 C1763 0.961 . S
H1750 C1764 0.960 . S
H1751 C1764 0.961 . S
H1752 C1764 0.959 . S
H1753 C1767 0.929 . S
H1754 C1768 0.931 . S
H1755 C1770 0.930 . S
C1756 H1744 0.930 . S
C1756 C1757 1.399 . S
C1756 C1761 1.399 . S
C1757 C1756 1.399 . S
C1757 C1758 1.376 . S
C1758 H1745 0.930 . S
C1758 C1757 1.376 . S
C1758 C1759 1.388 . S
C1759 H1746 0.930 . S
C1759 C1758 1.388 . S
C1759 C1760 1.390 . S
C1760 C1759 1.390 . S
C1760 C1761 1.394 . S
C1760 C1766 1.465 . S
C1761 C1756 1.399 . S
C1761 C1760 1.394 . S
C1761 C1762 1.516 . S
C1762 C1761 1.516 . S
C1762 C1763 1.502 . S
C1762 C1764 1.561 . S
C1762 C1765 1.526 . S
C1763 H1747 0.959 . S
C1763 H1748 0.959 . S
C1763 H1749 0.961 . S
C1763 C1762 1.502 . S
C1764 H1750 0.960 . S
C1764 H1751 0.961 . S
C1764 H1752 0.959 . S
C1764 C1762 1.561 . S
C1765 C1762 1.526 . S
C1765 C1766 1.396 . S
C1765 C1770 1.390 . S
C1766 C1760 1.465 . S
C1766 C1765 1.396 . S
C1766 C1767 1.399 . S
C1767 H1753 0.929 . S
C1767 C1766 1.399 . S
C1767 C1768 1.385 . S
C1768 H1754 0.931 . S
C1768 C1767 1.385 . S
C1768 C1769 1.389 . S
C1769 C1768 1.389 . S
C1769 C1770 1.387 . S
C1770 H1755 0.930 . S
C1770 C1765 1.390 . S
C1770 C1769 1.387 . S
H1771 C1783 0.930 . S
H1772 C1785 0.930 . S
H1773 C1786 0.930 . S
H1774 C1790 0.959 . S
H1775 C1790 0.959 . S
H1776 C1790 0.961 . S
H1777 C1791 0.960 . S
H1778 C1791 0.961 . S
H1779 C1791 0.959 . S
H1780 C1794 0.929 . S
H1781 C1795 0.931 . S
H1782 C1797 0.930 . S
C1783 H1771 0.930 . S
C1783 C1784 1.399 . S
C1783 C1788 1.399 . S
C1784 C1783 1.399 . S
C1784 C1785 1.376 . S
C1785 H1772 0.930 . S
C1785 C1784 1.376 . S
C1785 C1786 1.388 . S
C1786 H1773 0.930 . S
C1786 C1785 1.388 . S
C1786 C1787 1.390 . S
C1787 C1786 1.390 . S
C1787 C1788 1.394 . S
C1787 C1793 1.465 . S
C1788 C1783 1.399 . S
C1788 C1787 1.394 . S
C1788 C1789 1.516 . S
C1789 C1788 1.516 . S
C1789 C1790 1.502 . S
C1789 C1791 1.561 . S
C1789 C1792 1.526 . S
C1790 H1774 0.959 . S
C1790 H1775 0.959 . S
C1790 H1776 0.961 . S
C1790 C1789 1.502 . S
C1791 H1777 0.960 . S
C1791 H1778 0.961 . S
C1791 H1779 0.959 . S
C1791 C1789 1.561 . S
C1792 C1789 1.526 . S
C1792 C1793 1.396 . S
C1792 C1797 1.390 . S
C1793 C1787 1.465 . S
C1793 C1792 1.396 . S
C1793 C1794 1.399 . S
C1794 H1780 0.929 . S
C1794 C1793 1.399 . S
C1794 C1795 1.385 . S
C1795 H1781 0.931 . S
C1795 C1794 1.385 . S
C1795 C1796 1.389 . S
C1796 C1795 1.389 . S
C1796 C1797 1.387 . S
C1797 H1782 0.930 . S
C1797 C1792 1.390 . S
C1797 C1796 1.387 . S
H1798 C1810 0.930 . S
H1799 C1812 0.930 . S
H1800 C1813 0.930 . S
H1801 C1817 0.959 . S
H1802 C1817 0.959 . S
H1803 C1817 0.961 . S
H1804 C1818 0.960 . S
H1805 C1818 0.961 . S
H1806 C1818 0.959 . S
H1807 C1821 0.929 . S
H1808 C1822 0.931 . S
H1809 C1824 0.930 . S
C1810 H1798 0.930 . S
C1810 C1811 1.399 . S
C1810 C1815 1.399 . S
C1811 C1810 1.399 . S
C1811 C1812 1.376 . S
C1812 H1799 0.930 . S
C1812 C1811 1.376 . S
C1812 C1813 1.388 . S
C1813 H1800 0.930 . S
C1813 C1812 1.388 . S
C1813 C1814 1.390 . S
C1814 C1813 1.390 . S
C1814 C1815 1.394 . S
C1814 C1820 1.465 . S
C1815 C1810 1.399 . S
C1815 C1814 1.394 . S
C1815 C1816 1.516 . S
C1816 C1815 1.516 . S
C1816 C1817 1.502 . S
C1816 C1818 1.561 . S
C1816 C1819 1.526 . S
C1817 H1801 0.959 . S
C1817 H1802 0.959 . S
C1817 H1803 0.961 . S
C1817 C1816 1.502 . S
C1818 H1804 0.960 . S
C1818 H1805 0.961 . S
C1818 H1806 0.959 . S
C1818 C1816 1.561 . S
C1819 C1816 1.526 . S
C1819 C1820 1.396 . S
C1819 C1824 1.390 . S
C1820 C1814 1.465 . S
C1820 C1819 1.396 . S
C1820 C1821 1.399 . S
C1821 H1807 0.929 . S
C1821 C1820 1.399 . S
C1821 C1822 1.385 . S
C1822 H1808 0.931 . S
C1822 C1821 1.385 . S
C1822 C1823 1.389 . S
C1823 C1822 1.389 . S
C1823 C1824 1.387 . S
C1824 H1809 0.930 . S
C1824 C1819 1.390 . S
C1824 C1823 1.387 . S
H1825 C1837 0.930 . S
H1826 C1839 0.930 . S
H1827 C1840 0.930 . S
H1828 C1844 0.959 . S
H1829 C1844 0.959 . S
H1830 C1844 0.961 . S
H1831 C1845 0.960 . S
H1832 C1845 0.961 . S
H1833 C1845 0.959 . S
H1834 C1848 0.929 . S
H1835 C1849 0.931 . S
H1836 C1851 0.930 . S
C1837 H1825 0.930 . S
C1837 C1838 1.399 . S
C1837 C1842 1.399 . S
C1838 C1837 1.399 . S
C1838 C1839 1.376 . S
C1839 H1826 0.930 . S
C1839 C1838 1.376 . S
C1839 C1840 1.388 . S
C1840 H1827 0.930 . S
C1840 C1839 1.388 . S
C1840 C1841 1.390 . S
C1841 C1840 1.390 . S
C1841 C1842 1.394 . S
C1841 C1847 1.465 . S
C1842 C1837 1.399 . S
C1842 C1841 1.394 . S
C1842 C1843 1.516 . S
C1843 C1842 1.516 . S
C1843 C1844 1.502 . S
C1843 C1845 1.561 . S
C1843 C1846 1.526 . S
C1844 H1828 0.959 . S
C1844 H1829 0.959 . S
C1844 H1830 0.961 . S
C1844 C1843 1.502 . S
C1845 H1831 0.960 . S
C1845 H1832 0.961 . S
C1845 H1833 0.959 . S
C1845 C1843 1.561 . S
C1846 C1843 1.526 . S
C1846 C1847 1.396 . S
C1846 C1851 1.390 . S
C1847 C1841 1.465 . S
C1847 C1846 1.396 . S
C1847 C1848 1.399 . S
C1848 H1834 0.929 . S
C1848 C1847 1.399 . S
C1848 C1849 1.385 . S
C1849 H1835 0.931 . S
C1849 C1848 1.385 . S
C1849 C1850 1.389 . S
C1850 C1849 1.389 . S
C1850 C1851 1.387 . S
C1851 H1836 0.930 . S
C1851 C1846 1.390 . S
C1851 C1850 1.387 . S
H1852 C1864 0.930 . S
H1853 C1866 0.930 . S
H1854 C1867 0.930 . S
H1855 C1871 0.959 . S
H1856 C1871 0.959 . S
H1857 C1871 0.961 . S
H1858 C1872 0.960 . S
H1859 C1872 0.961 . S
H1860 C1872 0.959 . S
H1861 C1875 0.929 . S
H1862 C1876 0.931 . S
H1863 C1878 0.930 . S
C1864 H1852 0.930 . S
C1864 C1865 1.399 . S
C1864 C1869 1.399 . S
C1865 C1864 1.399 . S
C1865 C1866 1.376 . S
C1866 H1853 0.930 . S
C1866 C1865 1.376 . S
C1866 C1867 1.388 . S
C1867 H1854 0.930 . S
C1867 C1866 1.388 . S
C1867 C1868 1.390 . S
C1868 C1867 1.390 . S
C1868 C1869 1.394 . S
C1868 C1874 1.465 . S
C1869 C1864 1.399 . S
C1869 C1868 1.394 . S
C1869 C1870 1.516 . S
C1870 C1869 1.516 . S
C1870 C1871 1.502 . S
C1870 C1872 1.561 . S
C1870 C1873 1.526 . S
C1871 H1855 0.959 . S
C1871 H1856 0.959 . S
C1871 H1857 0.961 . S
C1871 C1870 1.502 . S
C1872 H1858 0.960 . S
C1872 H1859 0.961 . S
C1872 H1860 0.959 . S
C1872 C1870 1.561 . S
C1873 C1870 1.526 . S
C1873 C1874 1.396 . S
C1873 C1878 1.390 . S
C1874 C1868 1.465 . S
C1874 C1873 1.396 . S
C1874 C1875 1.399 . S
C1875 H1861 0.929 . S
C1875 C1874 1.399 . S
C1875 C1876 1.385 . S
C1876 H1862 0.931 . S
C1876 C1875 1.385 . S
C1876 C1877 1.389 . S
C1877 C1876 1.389 . S
C1877 C1878 1.387 . S
C1878 H1863 0.930 . S
C1878 C1873 1.390 . S
C1878 C1877 1.387 . S
H1879 C1891 0.930 . S
H1880 C1893 0.930 . S
H1881 C1894 0.930 . S
H1882 C1898 0.959 . S
H1883 C1898 0.959 . S
H1884 C1898 0.961 . S
H1885 C1899 0.960 . S
H1886 C1899 0.961 . S
H1887 C1899 0.959 . S
H1888 C1902 0.929 . S
H1889 C1903 0.931 . S
H1890 C1905 0.930 . S
C1891 H1879 0.930 . S
C1891 C1892 1.399 . S
C1891 C1896 1.399 . S
C1892 C1891 1.399 . S
C1892 C1893 1.376 . S
C1893 H1880 0.930 . S
C1893 C1892 1.376 . S
C1893 C1894 1.388 . S
C1894 H1881 0.930 . S
C1894 C1893 1.388 . S
C1894 C1895 1.390 . S
C1895 C1894 1.390 . S
C1895 C1896 1.394 . S
C1895 C1901 1.465 . S
C1896 C1891 1.399 . S
C1896 C1895 1.394 . S
C1896 C1897 1.516 . S
C1897 C1896 1.516 . S
C1897 C1898 1.502 . S
C1897 C1899 1.561 . S
C1897 C1900 1.526 . S
C1898 H1882 0.959 . S
C1898 H1883 0.959 . S
C1898 H1884 0.961 . S
C1898 C1897 1.502 . S
C1899 H1885 0.960 . S
C1899 H1886 0.961 . S
C1899 H1887 0.959 . S
C1899 C1897 1.561 . S
C1900 C1897 1.526 . S
C1900 C1901 1.396 . S
C1900 C1905 1.390 . S
C1901 C1895 1.465 . S
C1901 C1900 1.396 . S
C1901 C1902 1.399 . S
C1902 H1888 0.929 . S
C1902 C1901 1.399 . S
C1902 C1903 1.385 . S
C1903 H1889 0.931 . S
C1903 C1902 1.385 . S
C1903 C1904 1.389 . S
C1904 C1903 1.389 . S
C1904 C1905 1.387 . S
C1905 H1890 0.930 . S
C1905 C1900 1.390 . S
C1905 C1904 1.387 . S
H1906 C1918 0.930 . S
H1907 C1920 0.930 . S
H1908 C1921 0.930 . S
H1909 C1925 0.959 . S
H1910 C1925 0.959 . S
H1911 C1925 0.961 . S
H1912 C1926 0.960 . S
H1913 C1926 0.961 . S
H1914 C1926 0.959 . S
H1915 C1929 0.929 . S
H1916 C1930 0.931 . S
H1917 C1932 0.930 . S
C1918 H1906 0.930 . S
C1918 C1919 1.399 . S
C1918 C1923 1.399 . S
C1919 C1918 1.399 . S
C1919 C1920 1.376 . S
C1920 H1907 0.930 . S
C1920 C1919 1.376 . S
C1920 C1921 1.388 . S
C1921 H1908 0.930 . S
C1921 C1920 1.388 . S
C1921 C1922 1.390 . S
C1922 C1921 1.390 . S
C1922 C1923 1.394 . S
C1922 C1928 1.465 . S
C1923 C1918 1.399 . S
C1923 C1922 1.394 . S
C1923 C1924 1.516 . S
C1924 C1923 1.516 . S
C1924 C1925 1.502 . S
C1924 C1926 1.561 . S
C1924 C1927 1.526 . S
C1925 H1909 0.959 . S
C1925 H1910 0.959 . S
C1925 H1911 0.961 . S
C1925 C1924 1.502 . S
C1926 H1912 0.960 . S
C1926 H1913 0.961 . S
C1926 H1914 0.959 . S
C1926 C1924 1.561 . S
C1927 C1924 1.526 . S
C1927 C1928 1.396 . S
C1927 C1932 1.390 . S
C1928 C1922 1.465 . S
C1928 C1927 1.396 . S
C1928 C1929 1.399 . S
C1929 H1915 0.929 . S
C1929 C1928 1.399 . S
C1929 C1930 1.385 . S
C1930 H1916 0.931 . S
C1930 C1929 1.385 . S
C1930 C1931 1.389 . S
C1931 C1930 1.389 . S
C1931 C1932 1.387 . S
C1932 H1917 0.930 . S
C1932 C1927 1.390 . S
C1932 C1931 1.387 . S
H1933 C1945 0.930 . S
H1934 C1947 0.930 . S
H1935 C1948 0.930 . S
H1936 C1952 0.959 . S
H1937 C1952 0.959 . S
H1938 C1952 0.961 . S
H1939 C1953 0.960 . S
H1940 C1953 0.961 . S
H1941 C1953 0.959 . S
H1942 C1956 0.929 . S
H1943 C1957 0.931 . S
H1944 C1959 0.930 . S
C1945 H1933 0.930 . S
C1945 C1946 1.399 . S
C1945 C1950 1.399 . S
C1946 C1945 1.399 . S
C1946 C1947 1.376 . S
C1947 H1934 0.930 . S
C1947 C1946 1.376 . S
C1947 C1948 1.388 . S
C1948 H1935 0.930 . S
C1948 C1947 1.388 . S
C1948 C1949 1.390 . S
C1949 C1948 1.390 . S
C1949 C1950 1.394 . S
C1949 C1955 1.465 . S
C1950 C1945 1.399 . S
C1950 C1949 1.394 . S
C1950 C1951 1.516 . S
C1951 C1950 1.516 . S
C1951 C1952 1.502 . S
C1951 C1953 1.561 . S
C1951 C1954 1.526 . S
C1952 H1936 0.959 . S
C1952 H1937 0.959 . S
C1952 H1938 0.961 . S
C1952 C1951 1.502 . S
C1953 H1939 0.960 . S
C1953 H1940 0.961 . S
C1953 H1941 0.959 . S
C1953 C1951 1.561 . S
C1954 C1951 1.526 . S
C1954 C1955 1.396 . S
C1954 C1959 1.390 . S
C1955 C1949 1.465 . S
C1955 C1954 1.396 . S
C1955 C1956 1.399 . S
C1956 H1942 0.929 . S
C1956 C1955 1.399 . S
C1956 C1957 1.385 . S
C1957 H1943 0.931 . S
C1957 C1956 1.385 . S
C1957 C1958 1.389 . S
C1958 C1957 1.389 . S
C1958 C1959 1.387 . S
C1959 H1944 0.930 . S
C1959 C1954 1.390 . S
C1959 C1958 1.387 . S
H1960 C1972 0.930 . S
H1961 C1974 0.930 . S
H1962 C1975 0.930 . S
H1963 C1979 0.959 . S
H1964 C1979 0.959 . S
H1965 C1979 0.961 . S
H1966 C1980 0.960 . S
H1967 C1980 0.961 . S
H1968 C1980 0.959 . S
H1969 C1983 0.929 . S
H1970 C1984 0.931 . S
H1971 C1986 0.930 . S
C1972 H1960 0.930 . S
C1972 C1973 1.399 . S
C1972 C1977 1.399 . S
C1973 C1972 1.399 . S
C1973 C1974 1.376 . S
C1974 H1961 0.930 . S
C1974 C1973 1.376 . S
C1974 C1975 1.388 . S
C1975 H1962 0.930 . S
C1975 C1974 1.388 . S
C1975 C1976 1.390 . S
C1976 C1975 1.390 . S
C1976 C1977 1.394 . S
C1976 C1982 1.465 . S
C1977 C1972 1.399 . S
C1977 C1976 1.394 . S
C1977 C1978 1.516 . S
C1978 C1977 1.516 . S
C1978 C1979 1.502 . S
C1978 C1980 1.561 . S
C1978 C1981 1.526 . S
C1979 H1963 0.959 . S
C1979 H1964 0.959 . S
C1979 H1965 0.961 . S
C1979 C1978 1.502 . S
C1980 H1966 0.960 . S
C1980 H1967 0.961 . S
C1980 H1968 0.959 . S
C1980 C1978 1.561 . S
C1981 C1978 1.526 . S
C1981 C1982 1.396 . S
C1981 C1986 1.390 . S
C1982 C1976 1.465 . S
C1982 C1981 1.396 . S
C1982 C1983 1.399 . S
C1983 H1969 0.929 . S
C1983 C1982 1.399 . S
C1983 C1984 1.385 . S
C1984 H1970 0.931 . S
C1984 C1983 1.385 . S
C1984 C1985 1.389 . S
C1985 C1984 1.389 . S
C1985 C1986 1.387 . S
C1986 H1971 0.930 . S
C1986 C1981 1.390 . S
C1986 C1985 1.387 . S
H1987 C1999 0.930 . S
H1988 C2001 0.930 . S
H1989 C2002 0.930 . S
H1990 C2006 0.959 . S
H1991 C2006 0.959 . S
H1992 C2006 0.961 . S
H1993 C2007 0.960 . S
H1994 C2007 0.961 . S
H1995 C2007 0.959 . S
H1996 C2010 0.929 . S
H1997 C2011 0.931 . S
H1998 C2013 0.930 . S
C1999 H1987 0.930 . S
C1999 C2000 1.399 . S
C1999 C2004 1.399 . S
C2000 C1999 1.399 . S
C2000 C2001 1.376 . S
C2001 H1988 0.930 . S
C2001 C2000 1.376 . S
C2001 C2002 1.388 . S
C2002 H1989 0.930 . S
C2002 C2001 1.388 . S
C2002 C2003 1.390 . S
C2003 C2002 1.390 . S
C2003 C2004 1.394 . S
C2003 C2009 1.465 . S
C2004 C1999 1.399 . S
C2004 C2003 1.394 . S
C2004 C2005 1.516 . S
C2005 C2004 1.516 . S
C2005 C2006 1.502 . S
C2005 C2007 1.561 . S
C2005 C2008 1.526 . S
C2006 H1990 0.959 . S
C2006 H1991 0.959 . S
C2006 H1992 0.961 . S
C2006 C2005 1.502 . S
C2007 H1993 0.960 . S
C2007 H1994 0.961 . S
C2007 H1995 0.959 . S
C2007 C2005 1.561 . S
C2008 C2005 1.526 . S
C2008 C2009 1.396 . S
C2008 C2013 1.390 . S
C2009 C2003 1.465 . S
C2009 C2008 1.396 . S
C2009 C2010 1.399 . S
C2010 H1996 0.929 . S
C2010 C2009 1.399 . S
C2010 C2011 1.385 . S
C2011 H1997 0.931 . S
C2011 C2010 1.385 . S
C2011 C2012 1.389 . S
C2012 C2011 1.389 . S
C2012 C2013 1.387 . S
C2013 H1998 0.930 . S
C2013 C2008 1.390 . S
C2013 C2012 1.387 . S
H2014 C2026 0.930 . S
H2015 C2028 0.930 . S
H2016 C2029 0.930 . S
H2017 C2033 0.959 . S
H2018 C2033 0.959 . S
H2019 C2033 0.961 . S
H2020 C2034 0.960 . S
H2021 C2034 0.961 . S
H2022 C2034 0.959 . S
H2023 C2037 0.929 . S
H2024 C2038 0.931 . S
H2025 C2040 0.930 . S
C2026 H2014 0.930 . S
C2026 C2027 1.399 . S
C2026 C2031 1.399 . S
C2027 C2026 1.399 . S
C2027 C2028 1.376 . S
C2028 H2015 0.930 . S
C2028 C2027 1.376 . S
C2028 C2029 1.388 . S
C2029 H2016 0.930 . S
C2029 C2028 1.388 . S
C2029 C2030 1.390 . S
C2030 C2029 1.390 . S
C2030 C2031 1.394 . S
C2030 C2036 1.465 . S
C2031 C2026 1.399 . S
C2031 C2030 1.394 . S
C2031 C2032 1.516 . S
C2032 C2031 1.516 . S
C2032 C2033 1.502 . S
C2032 C2034 1.561 . S
C2032 C2035 1.526 . S
C2033 H2017 0.959 . S
C2033 H2018 0.959 . S
C2033 H2019 0.961 . S
C2033 C2032 1.502 . S
C2034 H2020 0.960 . S
C2034 H2021 0.961 . S
C2034 H2022 0.959 . S
C2034 C2032 1.561 . S
C2035 C2032 1.526 . S
C2035 C2036 1.396 . S
C2035 C2040 1.390 . S
C2036 C2030 1.465 . S
C2036 C2035 1.396 . S
C2036 C2037 1.399 . S
C2037 H2023 0.929 . S
C2037 C2036 1.399 . S
C2037 C2038 1.385 . S
C2038 H2024 0.931 . S
C2038 C2037 1.385 . S
C2038 C2039 1.389 . S
C2039 C2038 1.389 . S
C2039 C2040 1.387 . S
C2040 H2025 0.930 . S
C2040 C2035 1.390 . S
C2040 C2039 1.387 . S
H2041 C2053 0.930 . S
H2042 C2055 0.930 . S
H2043 C2056 0.930 . S
H2044 C2060 0.959 . S
H2045 C2060 0.959 . S
H2046 C2060 0.961 . S
H2047 C2061 0.960 . S
H2048 C2061 0.961 . S
H2049 C2061 0.959 . S
H2050 C2064 0.929 . S
H2051 C2065 0.931 . S
H2052 C2067 0.930 . S
C2053 H2041 0.930 . S
C2053 C2054 1.399 . S
C2053 C2058 1.399 . S
C2054 C2053 1.399 . S
C2054 C2055 1.376 . S
C2055 H2042 0.930 . S
C2055 C2054 1.376 . S
C2055 C2056 1.388 . S
C2056 H2043 0.930 . S
C2056 C2055 1.388 . S
C2056 C2057 1.390 . S
C2057 C2056 1.390 . S
C2057 C2058 1.394 . S
C2057 C2063 1.465 . S
C2058 C2053 1.399 . S
C2058 C2057 1.394 . S
C2058 C2059 1.516 . S
C2059 C2058 1.516 . S
C2059 C2060 1.502 . S
C2059 C2061 1.561 . S
C2059 C2062 1.526 . S
C2060 H2044 0.959 . S
C2060 H2045 0.959 . S
C2060 H2046 0.961 . S
C2060 C2059 1.502 . S
C2061 H2047 0.960 . S
C2061 H2048 0.961 . S
C2061 H2049 0.959 . S
C2061 C2059 1.561 . S
C2062 C2059 1.526 . S
C2062 C2063 1.396 . S
C2062 C2067 1.390 . S
C2063 C2057 1.465 . S
C2063 C2062 1.396 . S
C2063 C2064 1.399 . S
C2064 H2050 0.929 . S
C2064 C2063 1.399 . S
C2064 C2065 1.385 . S
C2065 H2051 0.931 . S
C2065 C2064 1.385 . S
C2065 C2066 1.389 . S
C2066 C2065 1.389 . S
C2066 C2067 1.387 . S
C2067 H2052 0.930 . S
C2067 C2062 1.390 . S
C2067 C2066 1.387 . S
H2068 C2080 0.930 . S
H2069 C2082 0.930 . S
H2070 C2083 0.930 . S
H2071 C2087 0.959 . S
H2072 C2087 0.959 . S
H2073 C2087 0.961 . S
H2074 C2088 0.960 . S
H2075 C2088 0.961 . S
H2076 C2088 0.959 . S
H2077 C2091 0.929 . S
H2078 C2092 0.931 . S
H2079 C2094 0.930 . S
C2080 H2068 0.930 . S
C2080 C2081 1.399 . S
C2080 C2085 1.399 . S
C2081 C2080 1.399 . S
C2081 C2082 1.376 . S
C2082 H2069 0.930 . S
C2082 C2081 1.376 . S
C2082 C2083 1.388 . S
C2083 H2070 0.930 . S
C2083 C2082 1.388 . S
C2083 C2084 1.390 . S
C2084 C2083 1.390 . S
C2084 C2085 1.394 . S
C2084 C2090 1.465 . S
C2085 C2080 1.399 . S
C2085 C2084 1.394 . S
C2085 C2086 1.516 . S
C2086 C2085 1.516 . S
C2086 C2087 1.502 . S
C2086 C2088 1.561 . S
C2086 C2089 1.526 . S
C2087 H2071 0.959 . S
C2087 H2072 0.959 . S
C2087 H2073 0.961 . S
C2087 C2086 1.502 . S
C2088 H2074 0.960 . S
C2088 H2075 0.961 . S
C2088 H2076 0.959 . S
C2088 C2086 1.561 . S
C2089 C2086 1.526 . S
C2089 C2090 1.396 . S
C2089 C2094 1.390 . S
C2090 C2084 1.465 . S
C2090 C2089 1.396 . S
C2090 C2091 1.399 . S
C2091 H2077 0.929 . S
C2091 C2090 1.399 . S
C2091 C2092 1.385 . S
C2092 H2078 0.931 . S
C2092 C2091 1.385 . S
C2092 C2093 1.389 . S
C2093 C2092 1.389 . S
C2093 C2094 1.387 . S
C2094 H2079 0.930 . S
C2094 C2089 1.390 . S
C2094 C2093 1.387 . S
H2095 C2107 0.930 . S
H2096 C2109 0.930 . S
H2097 C2110 0.930 . S
H2098 C2114 0.959 . S
H2099 C2114 0.959 . S
H2100 C2114 0.961 . S
H2101 C2115 0.960 . S
H2102 C2115 0.961 . S
H2103 C2115 0.959 . S
H2104 C2118 0.929 . S
H2105 C2119 0.931 . S
H2106 C2121 0.930 . S
C2107 H2095 0.930 . S
C2107 C2108 1.399 . S
C2107 C2112 1.399 . S
C2108 C2107 1.399 . S
C2108 C2109 1.376 . S
C2109 H2096 0.930 . S
C2109 C2108 1.376 . S
C2109 C2110 1.388 . S
C2110 H2097 0.930 . S
C2110 C2109 1.388 . S
C2110 C2111 1.390 . S
C2111 C2110 1.390 . S
C2111 C2112 1.394 . S
C2111 C2117 1.465 . S
C2112 C2107 1.399 . S
C2112 C2111 1.394 . S
C2112 C2113 1.516 . S
C2113 C2112 1.516 . S
C2113 C2114 1.502 . S
C2113 C2115 1.561 . S
C2113 C2116 1.526 . S
C2114 H2098 0.959 . S
C2114 H2099 0.959 . S
C2114 H2100 0.961 . S
C2114 C2113 1.502 . S
C2115 H2101 0.960 . S
C2115 H2102 0.961 . S
C2115 H2103 0.959 . S
C2115 C2113 1.561 . S
C2116 C2113 1.526 . S
C2116 C2117 1.396 . S
C2116 C2121 1.390 . S
C2117 C2111 1.465 . S
C2117 C2116 1.396 . S
C2117 C2118 1.399 . S
C2118 H2104 0.929 . S
C2118 C2117 1.399 . S
C2118 C2119 1.385 . S
C2119 H2105 0.931 . S
C2119 C2118 1.385 . S
C2119 C2120 1.389 . S
C2120 C2119 1.389 . S
C2120 C2121 1.387 . S
C2121 H2106 0.930 . S
C2121 C2116 1.390 . S
C2121 C2120 1.387 . S
H2122 C2134 0.930 . S
H2123 C2136 0.930 . S
H2124 C2137 0.930 . S
H2125 C2141 0.959 . S
H2126 C2141 0.959 . S
H2127 C2141 0.961 . S
H2128 C2142 0.960 . S
H2129 C2142 0.961 . S
H2130 C2142 0.959 . S
H2131 C2145 0.929 . S
H2132 C2146 0.931 . S
H2133 C2148 0.930 . S
C2134 H2122 0.930 . S
C2134 C2135 1.399 . S
C2134 C2139 1.399 . S
C2135 C2134 1.399 . S
C2135 C2136 1.376 . S
C2136 H2123 0.930 . S
C2136 C2135 1.376 . S
C2136 C2137 1.388 . S
C2137 H2124 0.930 . S
C2137 C2136 1.388 . S
C2137 C2138 1.390 . S
C2138 C2137 1.390 . S
C2138 C2139 1.394 . S
C2138 C2144 1.465 . S
C2139 C2134 1.399 . S
C2139 C2138 1.394 . S
C2139 C2140 1.516 . S
C2140 C2139 1.516 . S
C2140 C2141 1.502 . S
C2140 C2142 1.561 . S
C2140 C2143 1.526 . S
C2141 H2125 0.959 . S
C2141 H2126 0.959 . S
C2141 H2127 0.961 . S
C2141 C2140 1.502 . S
C2142 H2128 0.960 . S
C2142 H2129 0.961 . S
C2142 H2130 0.959 . S
C2142 C2140 1.561 . S
C2143 C2140 1.526 . S
C2143 C2144 1.396 . S
C2143 C2148 1.390 . S
C2144 C2138 1.465 . S
C2144 C2143 1.396 . S
C2144 C2145 1.399 . S
C2145 H2131 0.929 . S
C2145 C2144 1.399 . S
C2145 C2146 1.385 . S
C2146 H2132 0.931 . S
C2146 C2145 1.385 . S
C2146 C2147 1.389 . S
C2147 C2146 1.389 . S
C2147 C2148 1.387 . S
C2148 H2133 0.930 . S
C2148 C2143 1.390 . S
C2148 C2147 1.387 . S
H2149 C2161 0.930 . S
H2150 C2163 0.930 . S
H2151 C2164 0.930 . S
H2152 C2168 0.959 . S
H2153 C2168 0.959 . S
H2154 C2168 0.961 . S
H2155 C2169 0.960 . S
H2156 C2169 0.961 . S
H2157 C2169 0.959 . S
H2158 C2172 0.929 . S
H2159 C2173 0.931 . S
H2160 C2175 0.930 . S
C2161 H2149 0.930 . S
C2161 C2162 1.399 . S
C2161 C2166 1.399 . S
C2162 C2161 1.399 . S
C2162 C2163 1.376 . S
C2163 H2150 0.930 . S
C2163 C2162 1.376 . S
C2163 C2164 1.388 . S
C2164 H2151 0.930 . S
C2164 C2163 1.388 . S
C2164 C2165 1.390 . S
C2165 C2164 1.390 . S
C2165 C2166 1.394 . S
C2165 C2171 1.465 . S
C2166 C2161 1.399 . S
C2166 C2165 1.394 . S
C2166 C2167 1.516 . S
C2167 C2166 1.516 . S
C2167 C2168 1.502 . S
C2167 C2169 1.561 . S
C2167 C2170 1.526 . S
C2168 H2152 0.959 . S
C2168 H2153 0.959 . S
C2168 H2154 0.961 . S
C2168 C2167 1.502 . S
C2169 H2155 0.960 . S
C2169 H2156 0.961 . S
C2169 H2157 0.959 . S
C2169 C2167 1.561 . S
C2170 C2167 1.526 . S
C2170 C2171 1.396 . S
C2170 C2175 1.390 . S
C2171 C2165 1.465 . S
C2171 C2170 1.396 . S
C2171 C2172 1.399 . S
C2172 H2158 0.929 . S
C2172 C2171 1.399 . S
C2172 C2173 1.385 . S
C2173 H2159 0.931 . S
C2173 C2172 1.385 . S
C2173 C2174 1.389 . S
C2174 C2173 1.389 . S
C2174 C2175 1.387 . S
C2175 H2160 0.930 . S
C2175 C2170 1.390 . S
C2175 C2174 1.387 . S
C461 C410 1.219 . S
C473 C4 1.229 . S
C488 C18 1.226 . S
C500 C424 1.235 . S
C515 C438 1.194 . S
C527 C32 1.186 . S
C542 C396 1.204 . S
C554 C46 1.194 . S
C569 C60 1.246 . S
C581 C382 1.243 . S
C596 C340 1.214 . S
C608 C74 1.225 . S
C623 C88 1.201 . S
C635 C354 1.192 . S
C650 C368 1.181 . S
C662 C102 1.177 . S
C677 C116 1.204 . S
C689 C298 1.194 . S
C704 C130 1.233 . S
C716 C312 1.240 . S
C731 C326 1.175 . S
C743 C144 1.177 . S
C758 C158 1.198 . S
C770 C284 1.189 . S
C785 C270 1.246 . S
C797 C172 1.245 . S
C812 C228 1.246 . S
C824 C186 1.245 . S
C839 C200 1.219 . S
C851 C242 1.229 . S
C866 C214 1.232 . S
C878 C256 1.239 . S
C893 C5 1.308 . S
C905 C145 1.287 . S
C920 C159 1.276 . S
C932 C19 1.255 . S
C947 C117 1.299 . S
C959 C33 1.277 . S
C974 C131 1.303 . S
C986 C47 1.323 . S
C1001 C61 1.256 . S
C1013 C201 1.278 . S
C1028 C215 1.327 . S
C1040 C75 1.342 . S
C1055 C173 1.353 . S
C1067 C89 1.341 . S
C1082 C187 1.262 . S
C1094 C103 1.243 . S
C1109 C229 1.294 . S
C1121 C369 1.315 . S
C1136 C383 1.266 . S
C1148 C243 1.246 . S
C1163 C341 1.353 . S
C1175 C257 1.342 . S
C1190 C271 1.352 . S
C1202 C355 1.356 . S
C1217 C285 1.315 . S
C1229 C425 1.294 . S
C1244 C439 1.219 . S
C1256 C299 1.215 . S
C1271 C397 1.213 . S
C1283 C313 1.222 . S
C1298 C327 1.219 . S
C1310 C411 1.215 . S
C1325 C11 1.139 . S
C1337 C67 1.193 . S
C1352 C25 1.135 . S
C1364 C81 1.191 . S
C1379 C95 1.150 . S
C1391 C39 1.190 . S
C1406 C53 1.192 . S
C1418 C109 1.136 . S
C1433 C123 1.135 . S
C1445 C179 1.191 . S
C1460 C193 1.149 . S
C1472 C137 1.179 . S
C1487 C207 1.137 . S
C1499 C151 1.190 . S
C1514 C165 1.150 . S
C1526 C221 1.178 . S
C1541 C235 1.181 . S
C1553 C291 1.136 . S
C1568 C305 1.188 . S
C1580 C249 1.155 . S
C1595 C263 1.171 . S
C1607 C319 1.142 . S
C1622 C333 1.175 . S
C1634 C277 1.172 . S
C1649 C403 1.194 . S
C1661 C347 1.135 . S
C1676 C361 1.150 . S
C1688 C417 1.179 . S
C1703 C375 1.143 . S
C1715 C431 1.184 . S
C1730 C389 1.181 . S
C1742 C445 1.147 . S
C1757 C12 1.531 . S
C1769 C82 1.530 . S
C1784 C26 1.519 . S
C1796 C96 1.520 . S
C1811 C110 1.524 . S
C1823 C40 1.524 . S
C1838 C68 1.517 . S
C1850 C54 1.518 . S
C1865 C194 1.529 . S
C1877 C124 1.525 . S
C1892 C208 1.524 . S
C1904 C138 1.520 . S
C1919 C222 1.518 . S
C1931 C152 1.521 . S
C1946 C166 1.530 . S
C1958 C180 1.532 . S
C1973 C236 1.530 . S
C1985 C306 1.530 . S
C2000 C320 1.517 . S
C2012 C250 1.517 . S
C2027 C334 1.523 . S
C2039 C264 1.522 . S
C2054 C278 1.530 . S
C2066 C292 1.531 . S
C2081 C418 1.517 . S
C2093 C348 1.520 . S
C2108 C362 1.531 . S
C2120 C432 1.532 . S
C2135 C376 1.526 . S
C2147 C446 1.530 . S
C2162 C404 1.520 . S
C2174 C390 1.525 . S
