# Generated by pormake.
# Topology umv, (4)-cn, num edge types: 1
# Building blocks:
#     Node 0, Type 0, BuildingBlock: NAHDIM_clean_sbu_0, # of connection points: 4
#     Node 1, Type 0, BuildingBlock: NAHDIM_clean_sbu_0, # of connection points: 4
#     Node 2, Type 0, BuildingBlock: NAHDIM_clean_sbu_0, # of connection points: 4
#     Node 3, Type 0, BuildingBlock: NAHDIM_clean_sbu_0, # of connection points: 4
#     Node 4, Type 0, BuildingBlock: NAHDIM_clean_sbu_0, # of connection points: 4
#     Node 5, Type 0, BuildingBlock: NAHDIM_clean_sbu_0, # of connection points: 4
#     Node 6, Type 0, BuildingBlock: NAHDIM_clean_sbu_0, # of connection points: 4
#     Node 7, Type 0, BuildingBlock: NAHDIM_clean_sbu_0, # of connection points: 4
#     Node 8, Type 0, BuildingBlock: NAHDIM_clean_sbu_0, # of connection points: 4
#     Node 9, Type 0, BuildingBlock: NAHDIM_clean_sbu_0, # of connection points: 4
#     Node 10, Type 0, BuildingBlock: NAHDIM_clean_sbu_0, # of connection points: 4
#     Node 11, Type 0, BuildingBlock: NAHDIM_clean_sbu_0, # of connection points: 4
#     Node 12, Type 0, BuildingBlock: NAHDIM_clean_sbu_0, # of connection points: 4
#     Node 13, Type 0, BuildingBlock: NAHDIM_clean_sbu_0, # of connection points: 4
#     Node 14, Type 0, BuildingBlock: NAHDIM_clean_sbu_0, # of connection points: 4
#     Node 15, Type 0, BuildingBlock: NAHDIM_clean_sbu_0, # of connection points: 4
#     Node 16, Type 0, BuildingBlock: NAHDIM_clean_sbu_0, # of connection points: 4
#     Node 17, Type 0, BuildingBlock: NAHDIM_clean_sbu_0, # of connection points: 4
#     Node 18, Type 0, BuildingBlock: NAHDIM_clean_sbu_0, # of connection points: 4
#     Node 19, Type 0, BuildingBlock: NAHDIM_clean_sbu_0, # of connection points: 4
#     Node 20, Type 0, BuildingBlock: NAHDIM_clean_sbu_0, # of connection points: 4
#     Node 21, Type 0, BuildingBlock: NAHDIM_clean_sbu_0, # of connection points: 4
#     Node 22, Type 0, BuildingBlock: NAHDIM_clean_sbu_0, # of connection points: 4
#     Node 23, Type 0, BuildingBlock: NAHDIM_clean_sbu_0, # of connection points: 4
#     Node 24, Type 0, BuildingBlock: NAHDIM_clean_sbu_0, # of connection points: 4
#     Node 25, Type 0, BuildingBlock: NAHDIM_clean_sbu_0, # of connection points: 4
#     Node 26, Type 0, BuildingBlock: NAHDIM_clean_sbu_0, # of connection points: 4
#     Node 27, Type 0, BuildingBlock: NAHDIM_clean_sbu_0, # of connection points: 4
#     Node 28, Type 0, BuildingBlock: NAHDIM_clean_sbu_0, # of connection points: 4
#     Node 29, Type 0, BuildingBlock: NAHDIM_clean_sbu_0, # of connection points: 4
#     Node 30, Type 0, BuildingBlock: NAHDIM_clean_sbu_0, # of connection points: 4
#     Node 31, Type 0, BuildingBlock: NAHDIM_clean_sbu_0, # of connection points: 4
#     Edge 32, Type (0, 0), BuildingBlock: OJICUG_clean_linker_0, # of connection points: 2
#     Edge 33, Type (0, 0), BuildingBlock: OJICUG_clean_linker_0, # of connection points: 2
#     Edge 34, Type (0, 0), BuildingBlock: OJICUG_clean_linker_0, # of connection points: 2
#     Edge 35, Type (0, 0), BuildingBlock: OJICUG_clean_linker_0, # of connection points: 2
#     Edge 36, Type (0, 0), BuildingBlock: OJICUG_clean_linker_0, # of connection points: 2
#     Edge 37, Type (0, 0), BuildingBlock: OJICUG_clean_linker_0, # of connection points: 2
#     Edge 38, Type (0, 0), BuildingBlock: OJICUG_clean_linker_0, # of connection points: 2
#     Edge 39, Type (0, 0), BuildingBlock: OJICUG_clean_linker_0, # of connection points: 2
#     Edge 40, Type (0, 0), BuildingBlock: OJICUG_clean_linker_0, # of connection points: 2
#     Edge 41, Type (0, 0), BuildingBlock: OJICUG_clean_linker_0, # of connection points: 2
#     Edge 42, Type (0, 0), BuildingBlock: OJICUG_clean_linker_0, # of connection points: 2
#     Edge 43, Type (0, 0), BuildingBlock: OJICUG_clean_linker_0, # of connection points: 2
#     Edge 44, Type (0, 0), BuildingBlock: OJICUG_clean_linker_0, # of connection points: 2
#     Edge 45, Type (0, 0), BuildingBlock: OJICUG_clean_linker_0, # of connection points: 2
#     Edge 46, Type (0, 0), BuildingBlock: OJICUG_clean_linker_0, # of connection points: 2
#     Edge 47, Type (0, 0), BuildingBlock: OJICUG_clean_linker_0, # of connection points: 2
#     Edge 48, Type (0, 0), BuildingBlock: OJICUG_clean_linker_0, # of connection points: 2
#     Edge 49, Type (0, 0), BuildingBlock: OJICUG_clean_linker_0, # of connection points: 2
#     Edge 50, Type (0, 0), BuildingBlock: OJICUG_clean_linker_0, # of connection points: 2
#     Edge 51, Type (0, 0), BuildingBlock: OJICUG_clean_linker_0, # of connection points: 2
#     Edge 52, Type (0, 0), BuildingBlock: OJICUG_clean_linker_0, # of connection points: 2
#     Edge 53, Type (0, 0), BuildingBlock: OJICUG_clean_linker_0, # of connection points: 2
#     Edge 54, Type (0, 0), BuildingBlock: OJICUG_clean_linker_0, # of connection points: 2
#     Edge 55, Type (0, 0), BuildingBlock: OJICUG_clean_linker_0, # of connection points: 2
#     Edge 56, Type (0, 0), BuildingBlock: OJICUG_clean_linker_0, # of connection points: 2
#     Edge 57, Type (0, 0), BuildingBlock: OJICUG_clean_linker_0, # of connection points: 2
#     Edge 58, Type (0, 0), BuildingBlock: OJICUG_clean_linker_0, # of connection points: 2
#     Edge 59, Type (0, 0), BuildingBlock: OJICUG_clean_linker_0, # of connection points: 2
#     Edge 60, Type (0, 0), BuildingBlock: OJICUG_clean_linker_0, # of connection points: 2
#     Edge 61, Type (0, 0), BuildingBlock: OJICUG_clean_linker_0, # of connection points: 2
#     Edge 62, Type (0, 0), BuildingBlock: OJICUG_clean_linker_0, # of connection points: 2
#     Edge 63, Type (0, 0), BuildingBlock: OJICUG_clean_linker_0, # of connection points: 2
#     Edge 64, Type (0, 0), BuildingBlock: OJICUG_clean_linker_0, # of connection points: 2
#     Edge 65, Type (0, 0), BuildingBlock: OJICUG_clean_linker_0, # of connection points: 2
#     Edge 66, Type (0, 0), BuildingBlock: OJICUG_clean_linker_0, # of connection points: 2
#     Edge 67, Type (0, 0), BuildingBlock: OJICUG_clean_linker_0, # of connection points: 2
#     Edge 68, Type (0, 0), BuildingBlock: OJICUG_clean_linker_0, # of connection points: 2
#     Edge 69, Type (0, 0), BuildingBlock: OJICUG_clean_linker_0, # of connection points: 2
#     Edge 70, Type (0, 0), BuildingBlock: OJICUG_clean_linker_0, # of connection points: 2
#     Edge 71, Type (0, 0), BuildingBlock: OJICUG_clean_linker_0, # of connection points: 2
#     Edge 72, Type (0, 0), BuildingBlock: OJICUG_clean_linker_0, # of connection points: 2
#     Edge 73, Type (0, 0), BuildingBlock: OJICUG_clean_linker_0, # of connection points: 2
#     Edge 74, Type (0, 0), BuildingBlock: OJICUG_clean_linker_0, # of connection points: 2
#     Edge 75, Type (0, 0), BuildingBlock: OJICUG_clean_linker_0, # of connection points: 2
#     Edge 76, Type (0, 0), BuildingBlock: OJICUG_clean_linker_0, # of connection points: 2
#     Edge 77, Type (0, 0), BuildingBlock: OJICUG_clean_linker_0, # of connection points: 2
#     Edge 78, Type (0, 0), BuildingBlock: OJICUG_clean_linker_0, # of connection points: 2
#     Edge 79, Type (0, 0), BuildingBlock: OJICUG_clean_linker_0, # of connection points: 2
#     Edge 80, Type (0, 0), BuildingBlock: OJICUG_clean_linker_0, # of connection points: 2
#     Edge 81, Type (0, 0), BuildingBlock: OJICUG_clean_linker_0, # of connection points: 2
#     Edge 82, Type (0, 0), BuildingBlock: OJICUG_clean_linker_0, # of connection points: 2
#     Edge 83, Type (0, 0), BuildingBlock: OJICUG_clean_linker_0, # of connection points: 2
#     Edge 84, Type (0, 0), BuildingBlock: OJICUG_clean_linker_0, # of connection points: 2
#     Edge 85, Type (0, 0), BuildingBlock: OJICUG_clean_linker_0, # of connection points: 2
#     Edge 86, Type (0, 0), BuildingBlock: OJICUG_clean_linker_0, # of connection points: 2
#     Edge 87, Type (0, 0), BuildingBlock: OJICUG_clean_linker_0, # of connection points: 2
#     Edge 88, Type (0, 0), BuildingBlock: OJICUG_clean_linker_0, # of connection points: 2
#     Edge 89, Type (0, 0), BuildingBlock: OJICUG_clean_linker_0, # of connection points: 2
#     Edge 90, Type (0, 0), BuildingBlock: OJICUG_clean_linker_0, # of connection points: 2
#     Edge 91, Type (0, 0), BuildingBlock: OJICUG_clean_linker_0, # of connection points: 2
#     Edge 92, Type (0, 0), BuildingBlock: OJICUG_clean_linker_0, # of connection points: 2
#     Edge 93, Type (0, 0), BuildingBlock: OJICUG_clean_linker_0, # of connection points: 2
#     Edge 94, Type (0, 0), BuildingBlock: OJICUG_clean_linker_0, # of connection points: 2
#     Edge 95, Type (0, 0), BuildingBlock: OJICUG_clean_linker_0, # of connection points: 2
# Relax obj value: 0.136
# Max RMSD: 0.096
# Mean RMSD: 0.096
data_MOF--net-umv--node1-NAHDIM_clean_sbu_0--edge1-OJICUG_clean_linker_0
_symmetry_space_group_name_H-M    P1
_symmetry_Int_Tables_number       1
_symmetry_cell_setting            triclinic
loop_
_symmetry_equiv_pos_as_xyz
'x, y, z'
_cell_length_a     70.878607
_cell_length_b     17.278889
_cell_length_c     57.965077
_cell_angle_alpha  90.020572
_cell_angle_beta   89.961682
_cell_angle_gamma 90.025983
loop_
_atom_site_label
_atom_site_type_symbol
_atom_site_fract_x
_atom_site_fract_y
_atom_site_fract_z
_atom_type_partial_charge
C0 C 0.01631 0.1944 0.28894 0.0
O1 O 0.00947 0.21279 0.30929 0.0
O2 O 0.03981 0.05405 0.33712 0.0
Zn3 Zn 0.04664 0.14546 0.31727 0.0
O4 O 0.04216 0.24101 0.3359 0.0
C5 C 0.08482 0.15902 0.3283 0.0
O6 O 0.07657 0.17124 0.34828 0.0
O7 O 0.03186 0.15783 0.28785 0.0
C8 C 0.04697 0.30601 0.32755 0.0
O9 O 0.05434 0.30871 0.30675 0.0
C10 C 0.02479 0.01392 0.33757 0.0
O11 O 0.01123 0.02826 0.32274 0.0
O12 O 0.07463 0.14296 0.3109 0.0
C13 C 0.23224 0.07098 0.28748 0.0
O14 O 0.23879 0.05648 0.30823 0.0
O15 O 0.21217 0.25029 0.32695 0.0
Zn16 Zn 0.20387 0.14705 0.31421 0.0
O17 O 0.20783 0.06506 0.33817 0.0
C18 C 0.16591 0.18908 0.32318 0.0
O19 O 0.17465 0.2289 0.33924 0.0
O20 O 0.21763 0.11323 0.28539 0.0
C21 C 0.20477 0.07409 0.35959 0.0
O22 O 0.1991 0.14164 0.36732 0.0
C23 C 0.22578 0.2595 0.34096 0.0
O24 O 0.23707 0.201 0.3453 0.0
O25 O 0.17566 0.15033 0.30883 0.0
C26 C 0.01213 0.09346 0.95731 0.0
O27 O 0.00427 0.08242 0.93705 0.0
O28 O 0.03622 0.23763 0.91136 0.0
Zn29 Zn 0.04246 0.13911 0.92828 0.0
O30 O 0.03665 0.04858 0.90798 0.0
C31 C 0.07991 0.13605 0.9143 0.0
O32 O 0.07064 0.13663 0.89468 0.0
O33 O 0.02849 0.12364 0.95823 0.0
C34 C 0.03822 0.98103 0.91638 0.0
O35 O 0.04326 0.973 0.93806 0.0
C36 C 0.02415 0.24179 0.89518 0.0
O37 O 0.01355 0.1814 0.89053 0.0
O38 O 0.07059 0.13758 0.93304 0.0
C39 C 0.22883 0.19767 0.95404 0.0
O40 O 0.23556 0.22083 0.93408 0.0
O41 O 0.20752 0.05597 0.90471 0.0
Zn42 Zn 0.19927 0.1449 0.92476 0.0
O43 O 0.20254 0.24142 0.90635 0.0
C44 C 0.1615 0.1329 0.91229 0.0
O45 O 0.17015 0.13538 0.89224 0.0
O46 O 0.21365 0.15837 0.95444 0.0
C47 C 0.19681 0.30558 0.9144 0.0
O48 O 0.18898 0.30743 0.93495 0.0
C49 C 0.22192 0.0124 0.90585 0.0
O50 O 0.23406 0.02125 0.92276 0.0
O51 O 0.17138 0.13461 0.93057 0.0
C52 C 0.97989 0.80796 0.70287 0.0
O53 O 0.98589 0.78495 0.68255 0.0
O54 O 0.95747 0.95195 0.65473 0.0
Zn55 Zn 0.94973 0.86296 0.67505 0.0
O56 O 0.95222 0.7666 0.65635 0.0
C57 C 0.91206 0.8759 0.66354 0.0
O58 O 0.92063 0.87323 0.64344 0.0
O59 O 0.9649 0.84822 0.70409 0.0
C60 C 0.94449 0.70451 0.66326 0.0
O61 O 0.93523 0.70444 0.68291 0.0
C62 C 0.97021 0.00302 0.65705 0.0
O63 O 0.981 0.00248 0.67547 0.0
O64 O 0.92202 0.87413 0.68176 0.0
C65 C 0.76359 0.94136 0.70694 0.0
O66 O 0.75654 0.95631 0.68647 0.0
O67 O 0.78598 0.78465 0.66213 0.0
Zn68 Zn 0.79317 0.88265 0.67886 0.0
O69 O 0.78948 0.97418 0.65828 0.0
C70 C 0.83053 0.87525 0.66567 0.0
O71 O 0.82129 0.87396 0.64602 0.0
O72 O 0.779 0.90397 0.70834 0.0
C73 C 0.79553 0.03837 0.66599 0.0
O74 O 0.80313 0.04067 0.68666 0.0
C75 C 0.77363 0.77962 0.6463 0.0
O76 O 0.76296 0.83974 0.64163 0.0
O77 O 0.82116 0.87761 0.68437 0.0
C78 C 0.97867 0.95694 0.03875 0.0
O79 O 0.985 0.97549 0.05932 0.0
O80 O 0.96126 0.79809 0.0842 0.0
Zn81 Zn 0.95011 0.88653 0.0662 0.0
O82 O 0.95124 0.97858 0.08691 0.0
C83 C 0.91313 0.82356 0.07315 0.0
O84 O 0.92209 0.78578 0.08947 0.0
O85 O 0.96412 0.91413 0.03713 0.0
C86 C 0.9469 0.97254 0.10808 0.0
O87 O 0.94152 0.90513 0.11624 0.0
C88 C 0.96837 0.73509 0.07706 0.0
O89 O 0.9699 0.72271 0.05478 0.0
O90 O 0.92246 0.86785 0.05985 0.0
C91 C 0.7627 0.83732 0.0377 0.0
O92 O 0.75497 0.82796 0.05812 0.0
O93 O 0.78919 0.97579 0.08354 0.0
Zn94 Zn 0.79393 0.877 0.066 0.0
O95 O 0.78702 0.78685 0.08591 0.0
C96 C 0.83191 0.84306 0.07662 0.0
O97 O 0.82362 0.82632 0.09627 0.0
O98 O 0.77928 0.86523 0.03642 0.0
C99 C 0.78814 0.71952 0.07723 0.0
O100 O 0.79312 0.71193 0.0555 0.0
C101 C 0.77624 0.98358 0.09857 0.0
O102 O 0.76403 0.92735 0.10168 0.0
O103 O 0.82195 0.86843 0.06001 0.0
C104 C 0.01574 0.69295 0.78567 0.0
O105 O 0.00899 0.71241 0.80597 0.0
O106 O 0.04179 0.53723 0.82969 0.0
Zn107 Zn 0.04611 0.63953 0.81389 0.0
O108 O 0.03911 0.72483 0.83589 0.0
C109 C 0.08436 0.67455 0.82393 0.0
O110 O 0.07654 0.68799 0.84407 0.0
O111 O 0.03123 0.65584 0.78461 0.0
C112 C 0.03577 0.7143 0.8572 0.0
O113 O 0.03633 0.64393 0.86572 0.0
C114 C 0.02623 0.50176 0.83238 0.0
O115 O 0.01088 0.52867 0.82255 0.0
O116 O 0.07409 0.65069 0.8074 0.0
C117 C 0.23071 0.57214 0.78658 0.0
O118 O 0.23632 0.55493 0.80756 0.0
O119 O 0.2124 0.75365 0.82607 0.0
Zn120 Zn 0.20276 0.65386 0.8123 0.0
O121 O 0.20474 0.5698 0.83591 0.0
C122 C 0.16516 0.70975 0.81791 0.0
O123 O 0.17383 0.75407 0.83297 0.0
O124 O 0.21688 0.61824 0.78398 0.0
C125 C 0.19865 0.57624 0.85642 0.0
O126 O 0.19103 0.64174 0.86315 0.0
C127 C 0.22471 0.75636 0.84202 0.0
O128 O 0.2336 0.69268 0.84791 0.0
O129 O 0.17488 0.66374 0.80559 0.0
C130 C 0.01583 0.57542 0.45671 0.0
O131 O 0.00988 0.55884 0.43583 0.0
O132 O 0.0352 0.75313 0.41677 0.0
Zn133 Zn 0.04425 0.65225 0.43041 0.0
O134 O 0.04123 0.56836 0.40687 0.0
C135 C 0.08209 0.7028 0.42332 0.0
O136 O 0.07338 0.74652 0.40818 0.0
O137 O 0.03018 0.61903 0.45907 0.0
C138 C 0.04629 0.57556 0.38596 0.0
O139 O 0.05345 0.6415 0.37887 0.0
C140 C 0.02234 0.75796 0.40155 0.0
O141 O 0.01242 0.6961 0.39638 0.0
O142 O 0.07235 0.65901 0.43634 0.0
C143 C 0.23179 0.6849 0.45638 0.0
O144 O 0.23887 0.70641 0.43643 0.0
O145 O 0.20709 0.55104 0.40711 0.0
Zn146 Zn 0.20122 0.64325 0.42714 0.0
O147 O 0.20701 0.73864 0.40896 0.0
C148 C 0.16301 0.6694 0.41691 0.0
O149 O 0.17112 0.68627 0.39715 0.0
O150 O 0.21597 0.65018 0.45677 0.0
C151 C 0.2034 0.80435 0.41773 0.0
O152 O 0.19649 0.80794 0.43874 0.0
C153 C 0.22279 0.51641 0.40469 0.0
O154 O 0.23735 0.5377 0.41719 0.0
O155 O 0.17319 0.64581 0.43353 0.0
C156 C 0.98384 0.32997 0.20688 0.0
O157 O 0.99017 0.30999 0.18642 0.0
O158 O 0.96531 0.49079 0.16116 0.0
Zn159 Zn 0.95545 0.39848 0.17895 0.0
O160 O 0.95661 0.30449 0.15902 0.0
C161 C 0.9181 0.41977 0.1666 0.0
O162 O 0.927 0.42107 0.1467 0.0
O163 O 0.96943 0.37364 0.20823 0.0
C164 C 0.9496 0.24189 0.16662 0.0
O165 O 0.94226 0.24054 0.18743 0.0
C166 C 0.97318 0.48245 0.14156 0.0
O167 O 0.97685 0.41234 0.13405 0.0
O168 O 0.92775 0.41368 0.18498 0.0
C169 C 0.76942 0.43836 0.2082 0.0
O170 O 0.76232 0.45496 0.18787 0.0
O171 O 0.79424 0.2768 0.16495 0.0
Zn172 Zn 0.79907 0.38039 0.17976 0.0
O173 O 0.79215 0.46395 0.15733 0.0
C174 C 0.83687 0.39199 0.16642 0.0
O175 O 0.82821 0.38432 0.14653 0.0
O176 O 0.78487 0.40099 0.20929 0.0
C177 C 0.78817 0.45285 0.13623 0.0
O178 O 0.78822 0.38222 0.12785 0.0
C179 C 0.77843 0.24464 0.16106 0.0
O180 O 0.76288 0.27656 0.16892 0.0
O181 O 0.82711 0.39061 0.18483 0.0
C182 C 0.98025 0.43158 0.53573 0.0
O183 O 0.98535 0.45159 0.55668 0.0
O184 O 0.9581 0.25809 0.57632 0.0
Zn185 Zn 0.95037 0.3578 0.56081 0.0
O186 O 0.95256 0.44268 0.58393 0.0
C187 C 0.91293 0.29342 0.55147 0.0
O188 O 0.92108 0.22616 0.55495 0.0
O189 O 0.96607 0.38721 0.53311 0.0
C190 C 0.94361 0.43964 0.60287 0.0
O191 O 0.93299 0.37911 0.60735 0.0
C192 C 0.97038 0.25722 0.59234 0.0
O193 O 0.97958 0.32117 0.59723 0.0
O194 O 0.92281 0.35473 0.55234 0.0
C195 C 0.76547 0.32166 0.53794 0.0
O196 O 0.76 0.30184 0.55877 0.0
O197 O 0.79112 0.48609 0.57998 0.0
Zn198 Zn 0.79631 0.38552 0.56351 0.0
O199 O 0.79219 0.30037 0.58618 0.0
C200 C 0.83163 0.31613 0.55156 0.0
O201 O 0.82122 0.25325 0.55245 0.0
O202 O 0.78019 0.36317 0.53561 0.0
C203 C 0.79844 0.30539 0.60662 0.0
O204 O 0.80744 0.36833 0.61302 0.0
C205 C 0.77527 0.51747 0.58417 0.0
O206 O 0.75979 0.48696 0.57566 0.0
O207 O 0.82384 0.38149 0.55493 0.0
C208 C 0.51309 0.18432 0.78906 0.0
O209 O 0.5055 0.19709 0.80939 0.0
O210 O 0.5364 0.03856 0.83479 0.0
Zn211 Zn 0.5434 0.136 0.81774 0.0
O212 O 0.5382 0.22695 0.83811 0.0
C213 C 0.58122 0.13587 0.83085 0.0
O214 O 0.57237 0.1362 0.85078 0.0
O215 O 0.52926 0.15255 0.78799 0.0
C216 C 0.53992 0.29454 0.82977 0.0
O217 O 0.54493 0.30266 0.80808 0.0
C218 C 0.52292 0.03362 0.84921 0.0
O219 O 0.51152 0.09278 0.85204 0.0
O220 O 0.57149 0.13474 0.81243 0.0
C221 C 0.73043 0.08226 0.78794 0.0
O222 O 0.73806 0.07067 0.8083 0.0
O223 O 0.70795 0.23332 0.83306 0.0
Zn224 Zn 0.70045 0.13564 0.81645 0.0
O225 O 0.70491 0.04498 0.83712 0.0
C226 C 0.66284 0.14291 0.82991 0.0
O227 O 0.67194 0.14546 0.84965 0.0
O228 O 0.71445 0.1155 0.78676 0.0
C229 C 0.70239 0.97775 0.82882 0.0
O230 O 0.69722 0.97048 0.80716 0.0
C231 C 0.72039 0.23637 0.84885 0.0
O232 O 0.73057 0.1747 0.85337 0.0
O233 O 0.67235 0.13947 0.81133 0.0
C234 C 0.51476 0.06208 0.45517 0.0
O235 O 0.50799 0.04367 0.4348 0.0
O236 O 0.53918 0.20114 0.40712 0.0
Zn237 Zn 0.54547 0.10951 0.4271 0.0
O238 O 0.54097 0.01401 0.40849 0.0
C239 C 0.58365 0.09485 0.41642 0.0
O240 O 0.57549 0.08376 0.39634 0.0
O241 O 0.5304 0.09803 0.45633 0.0
C242 C 0.5456 0.94912 0.41705 0.0
O243 O 0.55262 0.94672 0.43801 0.0
C244 C 0.52413 0.24087 0.40593 0.0
O245 O 0.51006 0.22589 0.42001 0.0
O246 O 0.5734 0.11071 0.43379 0.0
C247 C 0.73065 0.17833 0.4584 0.0
O248 O 0.73697 0.19422 0.43763 0.0
O249 O 0.71092 -0.00169 0.41887 0.0
Zn250 Zn 0.70253 0.10129 0.43167 0.0
O251 O 0.70662 0.18334 0.40778 0.0
C252 C 0.66463 0.06148 0.42207 0.0
O253 O 0.67343 0.02349 0.40567 0.0
O254 O 0.71624 0.13489 0.46053 0.0
C255 C 0.70436 0.17422 0.38622 0.0
O256 O 0.69933 0.10625 0.37815 0.0
C257 C 0.72505 0.98912 0.40562 0.0
O258 O 0.73662 0.04737 0.40213 0.0
O259 O 0.67433 0.09818 0.43693 0.0
C260 C 0.48235 0.81081 0.20647 0.0
O261 O 0.48885 0.79366 0.18586 0.0
O262 O 0.45725 0.94663 0.15895 0.0
Zn263 Zn 0.45104 0.85524 0.17914 0.0
O264 O 0.45562 0.75953 0.16063 0.0
C265 C 0.41296 0.83969 0.16838 0.0
O266 O 0.4213 0.82917 0.14837 0.0
O267 O 0.46646 0.84465 0.20817 0.0
C268 C 0.45112 0.69458 0.16927 0.0
O269 O 0.44419 0.69214 0.19029 0.0
C270 C 0.47221 0.98709 0.158 0.0
O271 O 0.48608 0.9731 0.17242 0.0
O272 O 0.42306 0.85572 0.18587 0.0
C273 C 0.26518 0.91826 0.2082 0.0
O274 O 0.25865 0.93291 0.18745 0.0
O275 O 0.28563 0.74006 0.16853 0.0
Zn276 Zn 0.29377 0.84329 0.18149 0.0
O277 O 0.28962 0.92535 0.15761 0.0
C278 C 0.33194 0.80391 0.17262 0.0
O279 O 0.32344 0.76463 0.15625 0.0
O280 O 0.27984 0.8763 0.21028 0.0
C281 C 0.29235 0.91621 0.13612 0.0
O282 O 0.2979 0.84863 0.1283 0.0
C283 C 0.27159 0.7307 0.15517 0.0
O284 O 0.26 0.7888 0.15161 0.0
O285 O 0.32196 0.84122 0.18708 0.0
C286 C 0.48148 0.92929 0.53721 0.0
O287 O 0.48849 0.94601 0.55758 0.0
O288 O 0.45992 0.77118 0.58226 0.0
Zn289 Zn 0.4524 0.86882 0.56566 0.0
O290 O 0.45598 0.96059 0.58617 0.0
C291 C 0.41517 0.85925 0.57922 0.0
O292 O 0.42453 0.85801 0.59879 0.0
O293 O 0.46628 0.89027 0.53603 0.0
C294 C 0.44978 0.02446 0.57843 0.0
O295 O 0.44212 0.02627 0.5578 0.0
C296 C 0.47146 0.76816 0.59903 0.0
O297 O 0.48104 0.83036 0.60474 0.0
O298 O 0.42442 0.86248 0.56045 0.0
C299 C 0.2664 0.79094 0.54097 0.0
O300 O 0.2601 0.76604 0.56096 0.0
O301 O 0.28799 0.93353 0.59019 0.0
Zn302 Zn 0.29599 0.84517 0.56982 0.0
O303 O 0.29321 0.74816 0.58811 0.0
C304 C 0.33368 0.85725 0.58178 0.0
O305 O 0.32512 0.8532 0.60186 0.0
O306 O 0.28132 0.83186 0.54043 0.0
C307 C 0.30093 0.68613 0.58114 0.0
O308 O 0.31044 0.68651 0.56167 0.0
C309 C 0.27483 0.98278 0.58797 0.0
O310 O 0.26389 0.98043 0.5697 0.0
O311 O 0.32373 0.85666 0.56355 0.0
C312 C 0.51802 0.67885 0.28707 0.0
O313 O 0.51156 0.69512 0.30776 0.0
O314 O 0.53699 0.50236 0.32747 0.0
Zn315 Zn 0.54621 0.60333 0.31407 0.0
O316 O 0.54266 0.68713 0.3375 0.0
C317 C 0.58395 0.55404 0.32216 0.0
O318 O 0.57504 0.512 0.33758 0.0
O319 O 0.53257 0.63618 0.28515 0.0
C320 C 0.54681 0.6796 0.35869 0.0
O321 O 0.55347 0.61334 0.36618 0.0
C322 C 0.52357 0.49704 0.34197 0.0
O323 O 0.51329 0.55844 0.34652 0.0
O324 O 0.57438 0.59666 0.30865 0.0
C325 C 0.73447 0.56143 0.29057 0.0
O326 O 0.74122 0.54262 0.31091 0.0
O327 O 0.70887 0.69751 0.33856 0.0
Zn328 Zn 0.70328 0.60501 0.31855 0.0
O329 O 0.70839 0.5099 0.33709 0.0
C330 C 0.66498 0.58302 0.32842 0.0
O331 O 0.67295 0.56853 0.34842 0.0
O332 O 0.71862 0.59578 0.28942 0.0
C333 C 0.7048 0.44433 0.32822 0.0
O334 O 0.69841 0.44098 0.30697 0.0
C335 C 0.72445 0.73237 0.34171 0.0
O336 O 0.73945 0.71113 0.32999 0.0
O337 O 0.67535 0.60345 0.31158 0.0
C338 C 0.51159 0.57626 0.95937 0.0
O339 O 0.50527 0.55938 0.93867 0.0
O340 O 0.53602 0.74067 0.91679 0.0
Zn341 Zn 0.54153 0.63919 0.93244 0.0
O342 O 0.53699 0.55268 0.90999 0.0
C343 C 0.57935 0.64533 0.92058 0.0
O344 O 0.57065 0.65745 0.90091 0.0
O345 O 0.52662 0.61608 0.96128 0.0
C346 C 0.53404 0.5619 0.88856 0.0
O347 O 0.53317 0.63213 0.87997 0.0
C348 C 0.52051 0.77376 0.91204 0.0
O349 O 0.50456 0.7441 0.91948 0.0
O350 O 0.5695 0.63682 0.93875 0.0
C351 C 0.7284 0.69485 0.95776 0.0
O352 O 0.73488 0.71052 0.93704 0.0
O353 O 0.70489 0.53076 0.91495 0.0
Zn354 Zn 0.69856 0.63077 0.93102 0.0
O355 O 0.70264 0.71818 0.90882 0.0
C356 C 0.66062 0.61994 0.91968 0.0
O357 O 0.66914 0.60822 0.89985 0.0
O358 O 0.71336 0.65518 0.95974 0.0
C359 C 0.70562 0.70921 0.88738 0.0
O360 O 0.70657 0.63908 0.87871 0.0
C361 C 0.72044 0.49561 0.91198 0.0
O362 O 0.73584 0.52151 0.92194 0.0
O363 O 0.67064 0.63001 0.93761 0.0
C364 C 0.47823 0.31183 0.70731 0.0
O365 O 0.48431 0.29122 0.68679 0.0
O366 O 0.4531 0.47266 0.66392 0.0
Zn367 Zn 0.44776 0.3726 0.68049 0.0
O368 O 0.45251 0.28708 0.65814 0.0
C369 C 0.41253 0.30177 0.69169 0.0
O370 O 0.42313 0.23945 0.69098 0.0
O371 O 0.4633 0.35231 0.70891 0.0
C372 C 0.44634 0.29171 0.63766 0.0
O373 O 0.43715 0.35409 0.63123 0.0
C374 C 0.46883 0.50685 0.66127 0.0
O375 O 0.48394 0.48006 0.67165 0.0
O376 O 0.42014 0.36754 0.68842 0.0
C377 C 0.26443 0.41746 0.70821 0.0
O378 O 0.25937 0.4368 0.68719 0.0
O379 O 0.28582 0.23947 0.66837 0.0
Zn380 Zn 0.29374 0.33981 0.68332 0.0
O381 O 0.29166 0.42342 0.65982 0.0
C382 C 0.3313 0.27573 0.69179 0.0
O383 O 0.3233 0.2086 0.68759 0.0
O384 O 0.2783 0.37162 0.71096 0.0
C385 C 0.30075 0.42013 0.64098 0.0
O386 O 0.31147 0.35975 0.63672 0.0
C387 C 0.27362 0.23795 0.65227 0.0
O388 O 0.26454 0.3018 0.647 0.0
O389 O 0.32129 0.33669 0.69167 0.0
C390 C 0.47842 0.42833 0.03925 0.0
O391 O 0.4848 0.44452 0.05997 0.0
O392 O 0.45995 0.24813 0.07926 0.0
Zn393 Zn 0.45064 0.34926 0.06608 0.0
O394 O 0.45395 0.43261 0.08972 0.0
C395 C 0.41294 0.29903 0.07406 0.0
O396 O 0.4218 0.25778 0.08968 0.0
O397 O 0.46418 0.38395 0.03722 0.0
C398 C 0.44988 0.42494 0.11093 0.0
O399 O 0.44335 0.35847 0.11848 0.0
C400 C 0.47323 0.24297 0.09392 0.0
O401 O 0.48337 0.3046 0.09868 0.0
O402 O 0.42252 0.34164 0.06053 0.0
C403 C 0.26308 0.30399 0.03886 0.0
O404 O 0.25602 0.28201 0.05877 0.0
O405 O 0.28795 0.43875 0.08825 0.0
Zn406 Zn 0.29361 0.3464 0.06819 0.0
O407 O 0.28805 0.25093 0.08644 0.0
C408 C 0.33176 0.32387 0.07885 0.0
O409 O 0.32353 0.30866 0.09866 0.0
O410 O 0.27885 0.33922 0.03855 0.0
C411 C 0.29197 0.18543 0.07773 0.0
O412 O 0.2989 0.18221 0.05672 0.0
C413 C 0.27234 0.47326 0.09147 0.0
O414 O 0.25734 0.4516 0.07983 0.0
O415 O 0.32163 0.34464 0.06186 0.0
C416 C 0.11537 0.13998 0.30688 0.0
C417 C 0.1055 0.16766 0.32625 0.0
H418 H 0.14237 0.12458 0.29069 0.0
C419 C 0.11557 0.20444 0.34398 0.0
H420 H 0.10796 0.11151 0.29293 0.0
C421 C 0.13508 0.21285 0.34257 0.0
C422 C 0.14508 0.18385 0.32351 0.0
H423 H 0.10839 0.22704 0.35905 0.0
H424 H 0.14235 0.24099 0.35671 0.0
C425 C 0.13504 0.14751 0.3056 0.0
C426 C 0.1302 0.12979 0.89265 0.0
C427 C 0.14064 0.13141 0.91324 0.0
H428 H 0.10301 0.13 0.87689 0.0
C429 C 0.13093 0.13343 0.9344 0.0
H430 H 0.1372 0.12813 0.87604 0.0
C431 C 0.11117 0.13457 0.93489 0.0
C432 C 0.10078 0.13374 0.91423 0.0
H433 H 0.13858 0.13477 0.95057 0.0
H434 H 0.10405 0.13656 0.95142 0.0
C435 C 0.11054 0.13095 0.89314 0.0
C436 C 0.88077 0.87737 0.64399 0.0
C437 C 0.89122 0.8774 0.66456 0.0
H438 H 0.85359 0.87643 0.62825 0.0
C439 C 0.88154 0.87711 0.68575 0.0
H440 H 0.88775 0.87759 0.62736 0.0
C441 C 0.86177 0.87642 0.68627 0.0
C442 C 0.85139 0.87587 0.66561 0.0
H443 H 0.88921 0.87702 0.70191 0.0
H444 H 0.85466 0.87609 0.70281 0.0
C445 C 0.86113 0.87656 0.6445 0.0
C446 C 0.8821 0.78535 0.09004 0.0
C447 C 0.89227 0.82255 0.07243 0.0
H448 H 0.85517 0.763 0.10516 0.0
C449 C 0.88229 0.86301 0.05527 0.0
H450 H 0.88931 0.75356 0.10351 0.0
C451 C 0.86258 0.86806 0.05615 0.0
C452 C 0.85255 0.83347 0.07435 0.0
H453 H 0.88972 0.89217 0.04144 0.0
H454 H 0.85528 0.90091 0.04299 0.0
C455 C 0.8625 0.79108 0.09105 0.0
C456 C 0.1146 0.7328 0.83713 0.0
C457 C 0.10483 0.68744 0.82097 0.0
H458 H 0.14114 0.77655 0.84855 0.0
C459 C 0.11489 0.6534 0.8027 0.0
H460 H 0.10723 0.76045 0.85128 0.0
C461 C 0.13451 0.66211 0.80122 0.0
C462 C 0.14431 0.70596 0.8178 0.0
H463 H 0.1077 0.61824 0.78997 0.0
H464 H 0.14203 0.63343 0.78737 0.0
C465 C 0.13407 0.74238 0.83548 0.0
C466 C 0.11285 0.65468 0.4396 0.0
C467 C 0.10293 0.69804 0.42303 0.0
H468 H 0.13977 0.61191 0.4508 0.0
C469 C 0.11305 0.73375 0.40511 0.0
H470 H 0.10544 0.6265 0.45362 0.0
C471 C 0.13252 0.72453 0.40334 0.0
C472 C 0.14244 0.68016 0.41959 0.0
H473 H 0.10589 0.76751 0.39203 0.0
H474 H 0.1398 0.75209 0.3891 0.0
C475 C 0.13248 0.64627 0.43798 0.0
C476 C 0.88729 0.40989 0.18798 0.0
C477 C 0.89724 0.41774 0.16711 0.0
H478 H 0.86029 0.39556 0.20421 0.0
C479 C 0.88711 0.41959 0.14631 0.0
H480 H 0.8947 0.40821 0.2043 0.0
C481 C 0.86755 0.41187 0.14625 0.0
C482 C 0.85757 0.40243 0.167 0.0
H483 H 0.89431 0.42572 0.12991 0.0
H484 H 0.86027 0.41275 0.12983 0.0
C485 C 0.8676 0.40247 0.18793 0.0
C486 C 0.88094 0.23186 0.54895 0.0
C487 C 0.89217 0.2989 0.54905 0.0
H488 H 0.85303 0.18466 0.54946 0.0
C489 C 0.88327 0.37162 0.54827 0.0
H490 H 0.88733 0.17496 0.54947 0.0
C491 C 0.8636 0.37722 0.54834 0.0
C492 C 0.85238 0.31023 0.54911 0.0
H493 H 0.89149 0.4245 0.54826 0.0
H494 H 0.85722 0.43416 0.54836 0.0
C495 C 0.86126 0.23746 0.54893 0.0
C496 C 0.63199 0.14373 0.85066 0.0
C497 C 0.64196 0.14201 0.82971 0.0
H498 H 0.60517 0.14297 0.86741 0.0
C499 C 0.63177 0.13842 0.80892 0.0
H500 H 0.63936 0.14644 0.86701 0.0
C501 C 0.61201 0.13643 0.80916 0.0
C502 C 0.60209 0.13786 0.83018 0.0
H503 H 0.63905 0.13696 0.79249 0.0
H504 H 0.60452 0.13363 0.7929 0.0
C505 C 0.61233 0.14162 0.85089 0.0
C506 C 0.63372 0.10258 0.43966 0.0
C507 C 0.64381 0.06734 0.42159 0.0
H508 H 0.60663 0.13862 0.45234 0.0
C509 C 0.63389 0.04025 0.40224 0.0
H510 H 0.64099 0.12404 0.4548 0.0
C511 C 0.61441 0.04949 0.4007 0.0
C512 C 0.60429 0.08525 0.4186 0.0
H513 H 0.64119 0.01299 0.38797 0.0
H514 H 0.60728 0.02838 0.38542 0.0
C515 C 0.61408 0.11098 0.43825 0.0
C516 C 0.36302 0.78248 0.15355 0.0
C517 C 0.35277 0.81031 0.17257 0.0
H518 H 0.38988 0.77058 0.13732 0.0
C519 C 0.36255 0.84673 0.19069 0.0
H520 H 0.35596 0.75427 0.13927 0.0
C521 C 0.3822 0.85563 0.18963 0.0
C522 C 0.39231 0.82926 0.17029 0.0
H523 H 0.35503 0.86875 0.20557 0.0
H524 H 0.38941 0.88423 0.20373 0.0
C525 C 0.3825 0.79225 0.15237 0.0
C526 C 0.36502 0.85805 0.60123 0.0
C527 C 0.35451 0.85917 0.58071 0.0
H528 H 0.39227 0.85694 0.61681 0.0
C529 C 0.36411 0.86051 0.55947 0.0
H530 H 0.35809 0.85697 0.61789 0.0
C531 C 0.38386 0.86045 0.55884 0.0
C532 C 0.39432 0.85893 0.57944 0.0
H533 H 0.35639 0.86128 0.54336 0.0
H534 H 0.39091 0.86145 0.54226 0.0
C535 C 0.38467 0.85789 0.60061 0.0
C536 C 0.63424 0.53186 0.34254 0.0
C537 C 0.64438 0.57336 0.3258 0.0
H538 H 0.6074 0.4922 0.35428 0.0
C539 C 0.6346 0.60562 0.30703 0.0
H540 H 0.64137 0.50563 0.3571 0.0
C541 C 0.61493 0.5984 0.30548 0.0
C542 C 0.6048 0.55785 0.32251 0.0
H543 H 0.64206 0.63779 0.29384 0.0
H544 H 0.60767 0.62524 0.29113 0.0
C545 C 0.61473 0.52379 0.34084 0.0
C546 C 0.63 0.62995 0.94154 0.0
C547 C 0.63982 0.62527 0.92049 0.0
H548 H 0.60302 0.63956 0.95818 0.0
C549 C 0.62959 0.62706 0.89977 0.0
H550 H 0.63752 0.62869 0.95779 0.0
C551 C 0.61002 0.634 0.89999 0.0
C552 C 0.60013 0.63862 0.92094 0.0
H553 H 0.63668 0.62382 0.88324 0.0
H554 H 0.60266 0.63532 0.88362 0.0
C555 C 0.61028 0.63615 0.94177 0.0
C556 C 0.36078 0.35484 0.6954 0.0
C557 C 0.35205 0.28183 0.69414 0.0
H558 H 0.38669 0.41844 0.69567 0.0
C559 C 0.36342 0.21525 0.6937 0.0
H560 H 0.35245 0.40736 0.69582 0.0
C561 C 0.38309 0.22166 0.6937 0.0
C562 C 0.3918 0.2948 0.69402 0.0
H563 H 0.35715 0.15815 0.69279 0.0
H564 H 0.39144 0.16927 0.69277 0.0
C565 C 0.38043 0.36125 0.69528 0.0
C566 C 0.36246 0.27449 0.09362 0.0
C567 C 0.35242 0.31517 0.07663 0.0
H568 H 0.38927 0.23652 0.10589 0.0
C569 C 0.36235 0.34768 0.058 0.0
H570 H 0.35522 0.24812 0.10808 0.0
C571 C 0.38205 0.3415 0.05681 0.0
C572 C 0.39207 0.30178 0.07407 0.0
H573 H 0.35497 0.37925 0.04463 0.0
H574 H 0.38941 0.36848 0.04255 0.0
C575 C 0.38202 0.26748 0.09229 0.0
C576 C 0.01544 0.21153 0.246 0.0
C577 C 0.00747 0.22574 0.2678 0.0
H578 H 0.01435 0.23388 0.20973 0.0
C579 C 0.9917 0.27479 0.26939 0.0
H580 H 0.02765 0.17435 0.24418 0.0
C581 C 0.98418 0.30951 0.24967 0.0
C582 C 0.99223 0.29577 0.2279 0.0
H583 H 0.98526 0.28732 0.28593 0.0
H584 H 0.97202 0.34696 0.25152 0.0
C585 C 0.00788 0.2461 0.22627 0.0
C586 C 0.25641 0.98342 0.26976 0.0
C587 C 0.24086 0.03317 0.26711 0.0
H588 H 0.27618 0.90758 0.25336 0.0
C589 C 0.23322 0.04378 0.24498 0.0
H590 H 0.26261 0.97366 0.28658 0.0
C591 C 0.24095 0.00551 0.22594 0.0
C592 C 0.25651 0.95581 0.22859 0.0
H593 H 0.22119 0.08138 0.24234 0.0
H594 H 0.23476 0.01529 0.20911 0.0
C595 C 0.26415 0.94516 0.25072 0.0
C596 C 0.98677 0.01611 0.97659 0.0
C597 C 0.00321 0.06135 0.97832 0.0
H598 H 0.9663 0.9468 0.99418 0.0
C599 C 0.01159 0.07142 8e-05 0.0
H600 H 0.98002 0.00672 0.96007 0.0
C601 C 0.00372 0.03686 0.01966 0.0
C602 C 0.98737 0.99115 0.01788 0.0
H603 H 0.02431 0.10561 0.00199 0.0
H604 H 0.0105 0.04594 0.03618 0.0
C605 C 0.97897 0.98121 0.99613 0.0
C606 C 0.2541 0.26993 0.97522 0.0
C607 C 0.23777 0.22374 0.97576 0.0
H608 H 0.2748 0.33227 0.99465 0.0
C609 C 0.22958 0.2059 0.99719 0.0
H610 H 0.26071 0.2851 0.95898 0.0
C611 C 0.23759 0.23348 0.01763 0.0
C612 C 0.25397 0.27937 0.0171 0.0
H613 H 0.21693 0.17089 -0.00178 0.0
H614 H 0.23099 0.21814 0.03386 0.0
C615 C 0.26212 0.29741 0.99566 0.0
C616 C 0.0055 0.73326 0.72262 0.0
C617 C 0.98936 0.78037 0.72408 0.0
H618 H 0.02639 0.66807 0.74086 0.0
C619 C 0.98184 0.79739 0.74593 0.0
H620 H 0.01161 0.71871 0.70605 0.0
C621 C 0.99024 0.76784 0.76586 0.0
C622 C 0.00638 0.72076 0.76442 0.0
H623 H 0.96936 0.8331 0.74766 0.0
H624 H 0.98411 0.78238 0.78243 0.0
C625 C 0.01392 0.70382 0.74257 0.0
C626 C 0.75578 0.00404 0.76889 0.0
C627 C 0.73918 0.04817 0.76708 0.0
H628 H 0.77637 0.93485 0.75144 0.0
C629 C 0.7305 0.05559 0.74541 0.0
H630 H 0.76277 -0.00328 0.78535 0.0
C631 C 0.73826 0.01971 0.72598 0.0
C632 C 0.75485 0.97552 0.72779 0.0
H633 H 0.71764 0.08878 0.74344 0.0
H634 H 0.73126 0.027 0.70952 0.0
C635 C 0.76352 0.96804 0.74947 0.0
C636 C 0.72881 0.72433 9e-05 0.0
C637 C 0.73735 0.73024 0.97828 0.0
H638 H 0.7299 0.75467 0.03582 0.0
C639 C 0.75401 0.77382 0.97603 0.0
H640 H 0.71589 0.69173 0.00239 0.0
C641 C 0.76203 0.81024 0.99521 0.0
C642 C 0.75351 0.80413 0.01703 0.0
H643 H 0.76089 0.7799 0.95944 0.0
H644 H 0.77499 0.84261 0.99294 0.0
C645 C 0.73677 0.76104 0.01923 0.0
C646 C 0.23291 0.54786 0.744 0.0
C647 C 0.23943 0.53333 0.76646 0.0
H648 H 0.23552 0.52211 0.70804 0.0
C649 C 0.25395 0.47892 0.76966 0.0
H650 H 0.22168 0.5891 0.74094 0.0
C651 C 0.26182 0.44014 0.75081 0.0
C652 C 0.25536 0.45495 0.72833 0.0
H653 H 0.25925 0.46603 0.78675 0.0
H654 H 0.27308 0.39905 0.75387 0.0
C655 C 0.24079 0.5091 0.72514 0.0
C656 C 0.01329 0.55407 0.49943 0.0
C657 C 0.0067 0.5392 0.47701 0.0
H658 H 0.01023 0.53124 0.53552 0.0
C659 C 0.99163 0.48718 0.47402 0.0
H660 H 0.02493 0.59352 0.50233 0.0
C661 C 0.98327 0.45109 0.49303 0.0
C662 C 0.98977 0.4663 0.51547 0.0
H663 H 0.98626 0.47409 0.45697 0.0
H664 H 0.9716 0.41181 0.49012 0.0
C665 C 0.00491 0.51803 0.51846 0.0
C666 C 0.25723 0.75614 0.47745 0.0
C667 C 0.24098 0.70951 0.47808 0.0
H668 H 0.27786 0.81928 0.49673 0.0
C669 C 0.23303 0.69067 0.49957 0.0
H670 H 0.26366 0.77212 0.46118 0.0
C671 C 0.24114 0.71806 0.51997 0.0
C672 C 0.25734 0.765 0.51932 0.0
H673 H 0.22045 0.65521 0.50065 0.0
H674 H 0.2347 0.70225 0.53626 0.0
C675 C 0.26531 0.78369 0.49784 0.0
C676 C 0.76867 0.45724 0.25108 0.0
C677 C 0.76044 0.46921 0.22933 0.0
H678 H 0.76709 0.4779 0.28741 0.0
C679 C 0.74392 0.51401 0.22782 0.0
H680 H 0.78146 0.42347 0.25284 0.0
C681 C 0.73574 0.54568 0.24762 0.0
C682 C 0.74389 0.53323 0.26939 0.0
H683 H 0.73727 0.52477 0.21131 0.0
H684 H 0.72291 0.57916 0.24586 0.0
C685 C 0.76049 0.48894 0.27089 0.0
C686 C 0.76294 0.30215 0.4952 0.0
C687 C 0.75597 0.28816 0.5175 0.0
H688 H 0.76055 0.27796 0.45914 0.0
C689 C 0.74051 0.23786 0.52022 0.0
H690 H 0.77487 0.3403 0.49249 0.0
C691 C 0.73235 0.2017 0.50109 0.0
C692 C 0.73946 0.21506 0.47881 0.0
H693 H 0.73482 0.22559 0.53718 0.0
H694 H 0.72049 0.1632 0.50378 0.0
C695 C 0.75479 0.26599 0.47608 0.0
C696 C 0.50395 0.23613 0.72652 0.0
C697 C 0.48748 0.28112 0.72827 0.0
H698 H 0.52489 0.16967 0.74428 0.0
C699 C 0.47938 0.29289 0.75012 0.0
H700 H 0.51051 0.22568 0.70992 0.0
C701 C 0.48752 0.26013 0.76976 0.0
C702 C 0.50399 0.21518 0.76803 0.0
H703 H 0.46664 0.32682 0.75207 0.0
H704 H 0.48094 0.27064 0.78634 0.0
C705 C 0.51214 0.20363 0.74619 0.0
C706 C 0.48174 0.95094 0.49445 0.0
C707 C 0.49007 0.96255 0.51616 0.0
H708 H 0.48282 0.97422 0.45824 0.0
C709 C 0.50624 0.00944 0.51774 0.0
H710 H 0.46919 0.91564 0.49265 0.0
C711 C 0.51399 0.04351 0.49804 0.0
C712 C 0.50574 0.03142 0.4763 0.0
H713 H 0.51295 0.02001 0.53423 0.0
H714 H 0.52658 0.07856 0.49983 0.0
C715 C 0.48948 0.98504 0.47474 0.0
C716 C 0.48454 0.79378 0.24935 0.0
C717 C 0.4921 0.78127 0.22725 0.0
H718 H 0.4867 0.77085 0.28551 0.0
C719 C 0.5084 0.73548 0.22502 0.0
H720 H 0.47196 0.8285 0.25167 0.0
C721 C 0.51677 0.70188 0.2444 0.0
C722 C 0.50906 0.71351 0.26646 0.0
H723 H 0.51456 0.72442 0.20824 0.0
H724 H 0.52926 0.66662 0.24205 0.0
C725 C 0.49294 0.76033 0.26874 0.0
C726 C 0.4793 0.4541 0.99668 0.0
C727 C 0.48689 0.46602 0.01877 0.0
H728 H 0.48095 0.48032 0.96068 0.0
C729 C 0.50232 0.51659 0.02127 0.0
H730 H 0.46734 0.41594 0.99417 0.0
C731 C 0.51008 0.55385 0.00208 0.0
C732 C 0.50258 0.54141 0.97996 0.0
H733 H 0.50846 0.52743 0.03807 0.0
H734 H 0.52209 0.59172 0.00458 0.0
C735 C 0.48704 0.49144 0.97749 0.0
C736 C 0.03768 0.43801 0.37817 0.0
C737 C 0.04516 0.50851 0.37028 0.0
H738 H 0.03231 0.31894 0.37083 0.0
C739 C 0.05225 0.5131 0.34768 0.0
H740 H 0.032 0.43267 0.39546 0.0
C741 C 0.05241 0.44769 0.33352 0.0
C742 C 0.0455 0.37661 0.34172 0.0
H743 H 0.05804 0.56672 0.34109 0.0
H744 H 0.05833 0.45251 0.31635 0.0
C745 C 0.03785 0.37276 0.36405 0.0
C746 C 0.19988 0.94733 0.41242 0.0
C747 C 0.20544 0.87498 0.40368 0.0
H748 H 0.19539 0.06747 0.40533 0.0
C749 C 0.21206 0.86996 0.38089 0.0
H750 H 0.1948 0.95307 0.42997 0.0
C751 C 0.21239 0.9353 0.36682 0.0
C752 C 0.20613 0.00707 0.37524 0.0
H753 H 0.21657 0.81514 0.37368 0.0
H754 H 0.21716 0.92904 0.34915 0.0
C755 C 0.20024 0.01286 0.39832 0.0
C756 C 0.03317 0.9213 0.87766 0.0
C757 C 0.03561 0.91252 0.90156 0.0
H758 H 0.03118 0.86527 0.84489 0.0
C759 C 0.03641 0.83769 0.91098 0.0
H760 H 0.03238 0.97822 0.8699 0.0
C761 C 0.0356 0.77284 0.89664 0.0
C762 C 0.0341 0.78179 0.87262 0.0
H763 H 0.03813 0.82913 0.92937 0.0
H764 H 0.03683 0.71592 0.90431 0.0
C765 C 0.03248 0.85656 0.86333 0.0
C766 C 0.19122 0.51251 0.89415 0.0
C767 C 0.19923 0.50882 0.872 0.0
H768 H 0.18419 0.45095 0.92503 0.0
C769 C 0.20721 0.43888 0.86441 0.0
H770 H 0.18501 0.56569 0.9005 0.0
C771 C 0.20672 0.37338 0.8784 0.0
C772 C 0.19826 0.37637 0.9003 0.0
H773 H 0.21358 0.43419 0.84748 0.0
H774 H 0.21274 0.3201 0.87187 0.0
C775 C 0.19074 0.44681 0.90819 0.0
C776 C 0.95569 0.63469 0.6282 0.0
C777 C 0.94507 0.63469 0.64865 0.0
H778 H 0.96364 0.57303 0.59781 0.0
C779 C 0.93456 0.56856 0.6545 0.0
H780 H 0.96402 0.6846 0.62326 0.0
C781 C 0.9343 0.50438 0.63983 0.0
C782 C 0.94459 0.50524 0.61911 0.0
H783 H 0.92626 0.56684 0.67019 0.0
H784 H 0.92583 0.45467 0.64457 0.0
C785 C 0.95548 0.57065 0.6136 0.0
C786 C 0.8033 0.17765 0.65923 0.0
C787 C 0.79514 0.10829 0.65143 0.0
H788 H 0.81073 0.29462 0.65119 0.0
C789 C 0.78724 0.10554 0.62924 0.0
H790 H 0.80945 0.18163 0.67629 0.0
C791 C 0.78795 0.17024 0.61489 0.0
C792 C 0.7966 0.23896 0.62243 0.0
H793 H 0.78078 0.05303 0.62276 0.0
H794 H 0.78201 0.16582 0.59773 0.0
C795 C 0.80404 0.24239 0.64485 0.0
C796 C 0.95576 0.17622 0.12904 0.0
C797 C 0.94928 0.17233 0.15191 0.0
H798 H 0.96005 0.1162 0.09726 0.0
C799 C 0.94222 0.10191 0.16041 0.0
H800 H 0.96128 0.22969 0.12198 0.0
C801 C 0.94155 0.03666 0.14621 0.0
C802 C 0.94786 0.04085 0.12327 0.0
H803 H 0.93715 0.09716 0.17798 0.0
H804 H 0.93596 0.9832 0.15319 0.0
C805 C 0.95502 0.11118 0.11485 0.0
C806 C 0.78384 0.59452 0.13025 0.0
C807 C 0.78576 0.51998 0.12086 0.0
H808 H 0.78287 0.71608 0.12378 0.0
C809 C 0.78674 0.51114 0.09681 0.0
H810 H 0.78287 0.60308 0.14873 0.0
C811 C 0.78684 0.57607 0.08248 0.0
C812 C 0.78582 0.65077 0.09198 0.0
H813 H 0.78817 0.45435 0.08909 0.0
H814 H 0.78825 0.56774 0.06404 0.0
C815 C 0.7838 0.65928 0.11594 0.0
C816 C 0.53725 0.43776 0.83502 0.0
C817 C 0.53697 0.36298 0.84452 0.0
H818 H 0.5363 0.55963 0.8415 0.0
C819 C 0.53441 0.3542 0.86841 0.0
H820 H 0.53907 0.4463 0.81664 0.0
C821 C 0.53288 0.41899 0.88262 0.0
C822 C 0.53376 0.49383 0.87323 0.0
H823 H 0.53404 0.2973 0.87624 0.0
H824 H 0.53137 0.41034 0.90104 0.0
C825 C 0.53558 0.50265 0.84924 0.0
C826 C 0.70472 0.76909 0.84815 0.0
C827 C 0.70632 0.77746 0.87217 0.0
H828 H 0.70213 0.82615 0.81556 0.0
C829 C 0.7076 0.85207 0.88168 0.0
H830 H 0.70371 0.7123 0.84034 0.0
C831 C 0.7068 0.91715 0.86751 0.0
C832 C 0.70453 0.90889 0.84357 0.0
H833 H 0.70896 0.86033 0.90014 0.0
H834 H 0.70751 0.97391 0.87541 0.0
C835 C 0.70375 0.83428 0.83398 0.0
C836 C 0.55148 0.74201 0.39723 0.0
C837 C 0.54513 0.74657 0.37432 0.0
H838 H 0.55656 0.80267 0.42881 0.0
C839 C 0.53785 0.81695 0.3661 0.0
H840 H 0.55711 0.68846 0.40408 0.0
C841 C 0.53753 0.88217 0.38023 0.0
C842 C 0.54448 0.87841 0.40288 0.0
H843 H 0.53272 0.82223 0.34857 0.0
H844 H 0.53218 0.93593 0.3732 0.0
C845 C 0.55117 0.80741 0.41139 0.0
C846 C 0.71207 0.31318 0.37945 0.0
C847 C 0.70609 0.24141 0.37069 0.0
H848 H 0.71647 0.43336 0.37285 0.0
C849 C 0.70093 0.23574 0.34736 0.0
H850 H 0.71628 0.31934 0.39732 0.0
C851 C 0.70103 0.30137 0.33329 0.0
C852 C 0.70632 0.37366 0.34232 0.0
H853 H 0.69633 0.18113 0.3401 0.0
H854 H 0.69652 0.29572 0.31552 0.0
C855 C 0.71219 0.37858 0.36541 0.0
C856 C 0.45875 0.56244 0.11828 0.0
C857 C 0.45154 0.49195 0.12655 0.0
H858 H 0.46437 0.6815 0.12532 0.0
C859 C 0.44528 0.48732 0.14951 0.0
H860 H 0.46381 0.5678 0.10071 0.0
C861 C 0.44562 0.55275 0.16367 0.0
C862 C 0.45223 0.62384 0.1551 0.0
H863 H 0.43972 0.43369 0.1564 0.0
H864 H 0.4403 0.54795 0.18113 0.0
C865 C 0.45909 0.62767 0.1324 0.0
C866 C 0.28413 0.05446 0.12892 0.0
C867 C 0.29059 0.98303 0.12045 0.0
H868 H 0.27936 0.17421 0.12201 0.0
C869 C 0.29622 0.97739 0.09727 0.0
H870 H 0.27954 0.06058 0.14666 0.0
C871 C 0.29613 0.04277 0.0831 0.0
C872 C 0.29036 0.11481 0.09187 0.0
H873 H 0.3012 0.92303 0.09023 0.0
H874 H 0.30103 0.03717 0.06548 0.0
C875 C 0.284 0.11963 0.11478 0.0
C876 C 0.45716 0.15699 0.62945 0.0
C877 C 0.44839 0.22534 0.62186 0.0
H878 H 0.46453 0.03994 0.62165 0.0
C879 C 0.44098 0.2284 0.59943 0.0
H880 H 0.46308 0.15289 0.64663 0.0
C881 C 0.44184 0.16358 0.58508 0.0
C882 C 0.4501 0.09453 0.59294 0.0
H883 H 0.43421 0.28035 0.59306 0.0
H884 H 0.4357 0.16723 0.56801 0.0
C885 C 0.45799 0.09221 0.61514 0.0
C886 C 0.28895 0.55095 0.63009 0.0
C887 C 0.29996 0.48574 0.62476 0.0
H888 H 0.28059 0.66507 0.62046 0.0
C889 C 0.3106 0.48532 0.60431 0.0
H890 H 0.2805 0.55299 0.64566 0.0
C891 C 0.31062 0.54984 0.58977 0.0
C892 C 0.30002 0.61584 0.5955 0.0
H893 H 0.31917 0.43577 0.59971 0.0
H894 H 0.31922 0.54853 0.57433 0.0
C895 C 0.289 0.6153 0.61564 0.0
C896 C 0.03473 0.88703 0.38931 0.0
C897 C 0.02126 0.8279 0.38682 0.0
H898 H 0.04644 0.99133 0.37571 0.0
C899 C 0.00808 0.833 0.36873 0.0
H900 H 0.04509 0.88514 0.40302 0.0
C901 C 0.00882 0.89453 0.353 0.0
C902 C 0.02287 0.95157 0.35495 0.0
H903 H 0.99752 0.7884 0.36633 0.0
H904 H -0.00123 0.89607 0.33895 0.0
C905 C 0.03558 0.94781 0.37352 0.0
C906 C 0.21042 0.44386 0.37063 0.0
C907 C 0.2245 0.45357 0.38744 0.0
H908 H 0.20002 0.37654 0.3425 0.0
C909 C 0.23992 0.40241 0.38764 0.0
H910 H 0.19847 0.48281 0.3698 0.0
C911 C 0.24078 0.34079 0.37194 0.0
C912 C 0.22637 0.32984 0.35558 0.0
H913 H 0.25104 0.40865 0.40031 0.0
H914 H 0.2525 0.30074 0.37299 0.0
C915 C 0.2114 0.38311 0.35482 0.0
C916 C 0.00986 0.38434 0.84846 0.0
C917 C 0.02532 0.43533 0.84845 0.0
H918 H 0.99736 0.2826 0.86324 0.0
C919 C 0.03992 0.42368 0.86447 0.0
H920 H -0.00163 0.39206 0.83638 0.0
C921 C 0.03918 0.3623 0.88007 0.0
C922 C 0.02395 0.31023 0.87982 0.0
H923 H 0.05194 0.46237 0.86511 0.0
H924 H 0.05079 0.35479 0.892 0.0
C925 C 0.00927 0.32187 0.86387 0.0
C926 C 0.21298 0.95027 0.86851 0.0
C927 C 0.22435 0.95061 0.88837 0.0
H928 H 0.20446 0.88989 0.83811 0.0
C929 C 0.23731 0.89006 0.89164 0.0
H930 H 0.203 -0.0035 0.86529 0.0
C931 C 0.23812 0.82837 0.87597 0.0
C932 C 0.2261 0.82647 0.85666 0.0
H933 H 0.24633 0.88888 0.90671 0.0
H934 H 0.24771 0.781 0.87941 0.0
C935 C 0.21389 0.88919 0.85281 0.0
C936 C 0.98385 0.19036 0.62711 0.0
C937 C 0.97215 0.18857 0.6075 0.0
H938 H 0.99248 0.13313 0.65819 0.0
C939 C 0.96093 0.12287 0.60358 0.0
H940 H 0.99269 0.24011 0.63063 0.0
C941 C 0.96077 0.06192 0.61937 0.0
C942 C 0.97185 0.06499 0.63948 0.0
H943 H 0.95179 0.11938 0.58863 0.0
H944 H 0.95158 0.01308 0.61602 0.0
C945 C 0.98372 0.12912 0.64294 0.0
C946 C 0.78953 0.59858 0.61524 0.0
C947 C 0.77438 0.58412 0.6002 0.0
H948 H 0.80096 0.67024 0.6418 0.0
C949 C 0.75852 0.63285 0.60105 0.0
H950 H 0.80188 0.5617 0.61521 0.0
C951 C 0.75807 0.69602 0.61624 0.0
C952 C 0.77329 0.71048 0.63119 0.0
H953 H 0.74661 0.62294 0.58972 0.0
H954 H 0.74584 0.73361 0.61624 0.0
C955 C 0.78892 0.66052 0.63066 0.0
C956 C 0.97013 0.62408 0.13328 0.0
C957 C 0.97497 0.54942 0.12576 0.0
H958 H 0.96448 0.74127 0.12389 0.0
C959 C 0.97963 0.5382 0.10239 0.0
H960 H 0.96658 0.63489 0.15117 0.0
C961 C 0.97833 0.59931 0.08663 0.0
C962 C 0.97241 0.6729 0.09395 0.0
H963 H 0.98349 0.48142 0.09602 0.0
H964 H 0.98126 0.58807 0.06859 0.0
C965 C 0.96891 0.68513 0.11758 0.0
C966 C 0.76134 0.13111 0.14366 0.0
C967 C 0.77763 0.17718 0.14534 0.0
H968 H 0.74812 0.03321 0.12758 0.0
C969 C 0.79316 0.16009 0.13114 0.0
H970 H 0.74913 0.14307 0.15432 0.0
C971 C 0.79246 0.09849 0.1156 0.0
C972 C 0.77631 0.05162 0.1141 0.0
H973 H 0.80587 0.19488 0.1318 0.0
H974 H 0.80475 0.08691 0.10502 0.0
C975 C 0.76075 0.0684 0.12833 0.0
C976 C 0.53664 0.85354 0.8821 0.0
C977 C 0.52066 0.84023 0.89594 0.0
H978 H 0.5497 0.92361 0.85632 0.0
C979 C 0.50502 0.88966 0.89374 0.0
H980 H 0.54886 0.81609 0.88316 0.0
C981 C 0.50558 0.95225 0.87835 0.0
C982 C 0.52163 0.96546 0.8646 0.0
H983 H 0.4925 0.88063 0.90411 0.0
H984 H 0.49347 0.9903 0.87725 0.0
C985 C 0.53706 0.91493 0.86653 0.0
C986 C 0.73615 0.37718 0.89544 0.0
C987 C 0.72111 0.43012 0.89553 0.0
H988 H 0.74773 0.27369 0.88059 0.0
C989 C 0.70645 0.42077 0.87944 0.0
H990 H 0.74767 0.38314 0.90758 0.0
C991 C 0.70665 0.35947 0.86382 0.0
C992 C 0.72137 0.3051 0.86407 0.0
H993 H 0.69474 0.46102 0.87885 0.0
H994 H 0.69496 0.35372 0.85191 0.0
C995 C 0.73619 0.31472 0.87997 0.0
C996 C 0.50828 0.42151 0.37402 0.0
C997 C 0.5221 0.42711 0.35665 0.0
H998 H 0.498 0.35798 0.40326 0.0
C999 C 0.53574 0.36844 0.35485 0.0
H1000 H 0.49757 0.46576 0.37587 0.0
C1001 C 0.53612 0.30761 0.37065 0.0
C1002 C 0.52275 0.30334 0.38853 0.0
H1003 H 0.54659 0.37072 0.3417 0.0
H1004 H 0.54712 0.26444 0.36901 0.0
C1005 C 0.50855 0.35993 0.38975 0.0
C1006 C 0.71114 0.86583 0.39083 0.0
C1007 C 0.72615 0.91902 0.39095 0.0
H1008 H 0.69879 0.76616 0.37514 0.0
C1009 C 0.74118 0.90809 0.37542 0.0
H1010 H 0.6993 0.8724 0.40249 0.0
C1011 C 0.74092 0.84649 0.35968 0.0
C1012 C 0.72551 0.79532 0.35901 0.0
H1013 H 0.75295 0.94809 0.37506 0.0
H1014 H 0.75253 0.84022 0.34767 0.0
C1015 C 0.71078 0.80509 0.37499 0.0
C1016 C 0.48825 0.16767 0.12616 0.0
C1017 C 0.47461 0.17303 0.10862 0.0
H1018 H 0.49829 0.10448 0.15557 0.0
C1019 C 0.461 0.1142 0.10669 0.0
H1020 H 0.49893 0.21205 0.12813 0.0
C1021 C 0.4605 0.05345 0.12251 0.0
C1022 C 0.4737 0.04944 0.14056 0.0
H1023 H 0.45027 0.11631 0.0934 0.0
H1024 H 0.44953 0.01015 0.12077 0.0
C1025 C 0.48786 0.1062 0.14193 0.0
C1026 C 0.25552 0.64915 0.12505 0.0
C1027 C 0.27056 0.66049 0.14053 0.0
H1028 H 0.2442 0.58078 0.0974 0.0
C1029 C 0.28561 0.60753 0.14042 0.0
H1030 H 0.24373 0.68896 0.12468 0.0
C1031 C 0.286 0.54659 0.12464 0.0
C1032 C 0.27126 0.53639 0.10871 0.0
H1033 H 0.29745 0.61442 0.15204 0.0
H1034 H 0.29801 0.50784 0.12479 0.0
C1035 C 0.25581 0.58736 0.10938 0.0
C1036 C 0.48532 0.62504 0.6458 0.0
C1037 C 0.47011 0.57286 0.64507 0.0
H1038 H 0.49767 0.72841 0.63183 0.0
C1039 C 0.45596 0.58351 0.62839 0.0
H1040 H 0.49645 0.61808 0.65842 0.0
C1041 C 0.45685 0.6453 0.61296 0.0
C1042 C 0.47175 0.69887 0.61404 0.0
H1043 H 0.44416 0.54388 0.62719 0.0
H1044 H 0.44554 0.65213 0.60057 0.0
C1045 C 0.48603 0.68801 0.63057 0.0
C1046 C 0.28378 0.04248 0.62571 0.0
C1047 C 0.27283 0.04473 0.60549 0.0
H1048 H 0.29241 0.10086 0.65644 0.0
C1049 C 0.26078 0.10811 0.60186 0.0
H1050 H 0.29309 0.99417 0.62919 0.0
C1051 C 0.26039 0.16962 0.6176 0.0
C1052 C 0.272 0.16877 0.6373 0.0
H1053 H 0.2521 0.11143 0.58652 0.0
H1054 H 0.25145 0.21889 0.61393 0.0
C1055 C 0.28335 0.10364 0.64143 0.0
loop_
_geom_bond_atom_site_label_1
_geom_bond_atom_site_label_2
_geom_bond_distance
_geom_bond_site_symmetry_2
_ccdc_geom_bond_type
C0 O1 1.160 . S
C0 O7 1.185 . S
O1 C0 1.160 . S
O2 Zn3 1.899 . S
O2 C10 1.284 . S
Zn3 O2 1.899 . S
Zn3 O4 2.032 . S
Zn3 O7 2.086 . S
Zn3 O12 1.977 . S
O4 Zn3 2.032 . S
O4 C8 1.278 . S
C5 O6 1.203 . S
C5 O12 1.267 . S
O6 C5 1.203 . S
O7 C0 1.185 . S
O7 Zn3 2.086 . S
C8 O4 1.278 . S
C8 O9 1.211 . S
O9 C8 1.211 . S
C10 O2 1.284 . S
C10 O11 1.273 . S
O11 C10 1.273 . S
O12 Zn3 1.977 . S
O12 C5 1.267 . S
C13 O14 1.160 . S
C13 O20 1.185 . S
O14 C13 1.160 . S
O15 Zn16 1.899 . S
O15 C23 1.284 . S
Zn16 O15 1.899 . S
Zn16 O17 2.032 . S
Zn16 O20 2.086 . S
Zn16 O25 1.977 . S
O17 Zn16 2.032 . S
O17 C21 1.278 1_545 S
C18 O19 1.203 . S
C18 O25 1.267 . S
O19 C18 1.203 . S
O20 C13 1.185 . S
O20 Zn16 2.086 . S
C21 O17 1.278 1_565 S
C21 O22 1.211 1_565 S
O22 C21 1.211 1_545 S
C23 O15 1.284 . S
C23 O24 1.273 . S
O24 C23 1.273 . S
O25 Zn16 1.977 . S
O25 C18 1.267 . S
C26 O27 1.160 . S
C26 O33 1.185 . S
O27 C26 1.160 . S
O28 Zn29 1.899 . S
O28 C36 1.284 . S
Zn29 O28 1.899 . S
Zn29 O30 2.032 . S
Zn29 O33 2.086 . S
Zn29 O38 1.977 . S
O30 Zn29 2.032 . S
O30 C34 1.278 1_545 S
C31 O32 1.203 . S
C31 O38 1.267 . S
O32 C31 1.203 . S
O33 C26 1.185 . S
O33 Zn29 2.086 . S
C34 O30 1.278 1_565 S
C34 O35 1.211 1_565 S
O35 C34 1.211 1_545 S
C36 O28 1.284 . S
C36 O37 1.273 . S
O37 C36 1.273 . S
O38 Zn29 1.977 . S
O38 C31 1.267 . S
C39 O40 1.160 . S
C39 O46 1.185 . S
O40 C39 1.160 . S
O41 Zn42 1.899 . S
O41 C49 1.284 . S
Zn42 O41 1.899 . S
Zn42 O43 2.032 . S
Zn42 O46 2.086 . S
Zn42 O51 1.977 . S
O43 Zn42 2.032 . S
O43 C47 1.278 . S
C44 O45 1.203 . S
C44 O51 1.267 . S
O45 C44 1.203 . S
O46 C39 1.185 . S
O46 Zn42 2.086 . S
C47 O43 1.278 . S
C47 O48 1.211 . S
O48 C47 1.211 . S
C49 O41 1.284 . S
C49 O50 1.273 . S
O50 C49 1.273 . S
O51 Zn42 1.977 . S
O51 C44 1.267 . S
C52 O53 1.160 . S
C52 O59 1.185 . S
O53 C52 1.160 . S
O54 Zn55 1.899 . S
O54 C62 1.284 . S
Zn55 O54 1.899 . S
Zn55 O56 2.032 . S
Zn55 O59 2.086 . S
Zn55 O64 1.977 . S
O56 Zn55 2.032 . S
O56 C60 1.278 . S
C57 O58 1.203 . S
C57 O64 1.267 . S
O58 C57 1.203 . S
O59 C52 1.185 . S
O59 Zn55 2.086 . S
C60 O56 1.278 . S
C60 O61 1.211 . S
O61 C60 1.211 . S
C62 O54 1.284 . S
C62 O63 1.273 . S
O63 C62 1.273 . S
O64 Zn55 1.977 . S
O64 C57 1.267 . S
C65 O66 1.160 . S
C65 O72 1.185 . S
O66 C65 1.160 . S
O67 Zn68 1.899 . S
O67 C75 1.284 . S
Zn68 O67 1.899 . S
Zn68 O69 2.032 . S
Zn68 O72 2.086 . S
Zn68 O77 1.977 . S
O69 Zn68 2.032 . S
O69 C73 1.278 1_565 S
C70 O71 1.203 . S
C70 O77 1.267 . S
O71 C70 1.203 . S
O72 C65 1.185 . S
O72 Zn68 2.086 . S
C73 O69 1.278 1_545 S
C73 O74 1.211 1_545 S
O74 C73 1.211 1_565 S
C75 O67 1.284 . S
C75 O76 1.273 . S
O76 C75 1.273 . S
O77 Zn68 1.977 . S
O77 C70 1.267 . S
C78 O79 1.160 . S
C78 O85 1.185 . S
O79 C78 1.160 . S
O80 Zn81 1.899 . S
O80 C88 1.284 . S
Zn81 O80 1.899 . S
Zn81 O82 2.032 . S
Zn81 O85 2.086 . S
Zn81 O90 1.977 . S
O82 Zn81 2.032 . S
O82 C86 1.278 1_565 S
C83 O84 1.203 . S
C83 O90 1.267 . S
O84 C83 1.203 . S
O85 C78 1.185 . S
O85 Zn81 2.086 . S
C86 O82 1.278 1_545 S
C86 O87 1.211 1_545 S
O87 C86 1.211 1_565 S
C88 O80 1.284 . S
C88 O89 1.273 . S
O89 C88 1.273 . S
O90 Zn81 1.977 . S
O90 C83 1.267 . S
C91 O92 1.160 . S
C91 O98 1.185 . S
O92 C91 1.160 . S
O93 Zn94 1.899 . S
O93 C101 1.284 . S
Zn94 O93 1.899 . S
Zn94 O95 2.032 . S
Zn94 O98 2.086 . S
Zn94 O103 1.977 . S
O95 Zn94 2.032 . S
O95 C99 1.278 . S
C96 O97 1.203 . S
C96 O103 1.267 . S
O97 C96 1.203 . S
O98 C91 1.185 . S
O98 Zn94 2.086 . S
C99 O95 1.278 . S
C99 O100 1.211 . S
O100 C99 1.211 . S
C101 O93 1.284 . S
C101 O102 1.273 . S
O102 C101 1.273 . S
O103 Zn94 1.977 . S
O103 C96 1.267 . S
C104 O105 1.160 . S
C104 O111 1.185 . S
O105 C104 1.160 . S
O106 Zn107 1.899 . S
O106 C114 1.284 . S
Zn107 O106 1.899 . S
Zn107 O108 2.032 . S
Zn107 O111 2.086 . S
Zn107 O116 1.977 . S
O108 Zn107 2.032 . S
O108 C112 1.278 . S
C109 O110 1.203 . S
C109 O116 1.267 . S
O110 C109 1.203 . S
O111 C104 1.185 . S
O111 Zn107 2.086 . S
C112 O108 1.278 . S
C112 O113 1.211 . S
O113 C112 1.211 . S
C114 O106 1.284 . S
C114 O115 1.273 . S
O115 C114 1.273 . S
O116 Zn107 1.977 . S
O116 C109 1.267 . S
C117 O118 1.160 . S
C117 O124 1.185 . S
O118 C117 1.160 . S
O119 Zn120 1.899 . S
O119 C127 1.284 . S
Zn120 O119 1.899 . S
Zn120 O121 2.032 . S
Zn120 O124 2.086 . S
Zn120 O129 1.977 . S
O121 Zn120 2.032 . S
O121 C125 1.278 . S
C122 O123 1.203 . S
C122 O129 1.267 . S
O123 C122 1.203 . S
O124 C117 1.185 . S
O124 Zn120 2.086 . S
C125 O121 1.278 . S
C125 O126 1.211 . S
O126 C125 1.211 . S
C127 O119 1.284 . S
C127 O128 1.273 . S
O128 C127 1.273 . S
O129 Zn120 1.977 . S
O129 C122 1.267 . S
C130 O131 1.160 . S
C130 O137 1.185 . S
O131 C130 1.160 . S
O132 Zn133 1.899 . S
O132 C140 1.284 . S
Zn133 O132 1.899 . S
Zn133 O134 2.032 . S
Zn133 O137 2.086 . S
Zn133 O142 1.977 . S
O134 Zn133 2.032 . S
O134 C138 1.278 . S
C135 O136 1.203 . S
C135 O142 1.267 . S
O136 C135 1.203 . S
O137 C130 1.185 . S
O137 Zn133 2.086 . S
C138 O134 1.278 . S
C138 O139 1.211 . S
O139 C138 1.211 . S
C140 O132 1.284 . S
C140 O141 1.273 . S
O141 C140 1.273 . S
O142 Zn133 1.977 . S
O142 C135 1.267 . S
C143 O144 1.160 . S
C143 O150 1.185 . S
O144 C143 1.160 . S
O145 Zn146 1.899 . S
O145 C153 1.284 . S
Zn146 O145 1.899 . S
Zn146 O147 2.032 . S
Zn146 O150 2.086 . S
Zn146 O155 1.977 . S
O147 Zn146 2.032 . S
O147 C151 1.278 . S
C148 O149 1.203 . S
C148 O155 1.267 . S
O149 C148 1.203 . S
O150 C143 1.185 . S
O150 Zn146 2.086 . S
C151 O147 1.278 . S
C151 O152 1.211 . S
O152 C151 1.211 . S
C153 O145 1.284 . S
C153 O154 1.273 . S
O154 C153 1.273 . S
O155 Zn146 1.977 . S
O155 C148 1.267 . S
C156 O157 1.160 . S
C156 O163 1.185 . S
O157 C156 1.160 . S
O158 Zn159 1.899 . S
O158 C166 1.284 . S
Zn159 O158 1.899 . S
Zn159 O160 2.032 . S
Zn159 O163 2.086 . S
Zn159 O168 1.977 . S
O160 Zn159 2.032 . S
O160 C164 1.278 . S
C161 O162 1.203 . S
C161 O168 1.267 . S
O162 C161 1.203 . S
O163 C156 1.185 . S
O163 Zn159 2.086 . S
C164 O160 1.278 . S
C164 O165 1.211 . S
O165 C164 1.211 . S
C166 O158 1.284 . S
C166 O167 1.273 . S
O167 C166 1.273 . S
O168 Zn159 1.977 . S
O168 C161 1.267 . S
C169 O170 1.160 . S
C169 O176 1.185 . S
O170 C169 1.160 . S
O171 Zn172 1.899 . S
O171 C179 1.284 . S
Zn172 O171 1.899 . S
Zn172 O173 2.032 . S
Zn172 O176 2.086 . S
Zn172 O181 1.977 . S
O173 Zn172 2.032 . S
O173 C177 1.278 . S
C174 O175 1.203 . S
C174 O181 1.267 . S
O175 C174 1.203 . S
O176 C169 1.185 . S
O176 Zn172 2.086 . S
C177 O173 1.278 . S
C177 O178 1.211 . S
O178 C177 1.211 . S
C179 O171 1.284 . S
C179 O180 1.273 . S
O180 C179 1.273 . S
O181 Zn172 1.977 . S
O181 C174 1.267 . S
C182 O183 1.160 . S
C182 O189 1.185 . S
O183 C182 1.160 . S
O184 Zn185 1.899 . S
O184 C192 1.284 . S
Zn185 O184 1.899 . S
Zn185 O186 2.032 . S
Zn185 O189 2.086 . S
Zn185 O194 1.977 . S
O186 Zn185 2.032 . S
O186 C190 1.278 . S
C187 O188 1.203 . S
C187 O194 1.267 . S
O188 C187 1.203 . S
O189 C182 1.185 . S
O189 Zn185 2.086 . S
C190 O186 1.278 . S
C190 O191 1.211 . S
O191 C190 1.211 . S
C192 O184 1.284 . S
C192 O193 1.273 . S
O193 C192 1.273 . S
O194 Zn185 1.977 . S
O194 C187 1.267 . S
C195 O196 1.160 . S
C195 O202 1.185 . S
O196 C195 1.160 . S
O197 Zn198 1.899 . S
O197 C205 1.284 . S
Zn198 O197 1.899 . S
Zn198 O199 2.032 . S
Zn198 O202 2.086 . S
Zn198 O207 1.977 . S
O199 Zn198 2.032 . S
O199 C203 1.278 . S
C200 O201 1.203 . S
C200 O207 1.267 . S
O201 C200 1.203 . S
O202 C195 1.185 . S
O202 Zn198 2.086 . S
C203 O199 1.278 . S
C203 O204 1.211 . S
O204 C203 1.211 . S
C205 O197 1.284 . S
C205 O206 1.273 . S
O206 C205 1.273 . S
O207 Zn198 1.977 . S
O207 C200 1.267 . S
C208 O209 1.160 . S
C208 O215 1.185 . S
O209 C208 1.160 . S
O210 Zn211 1.899 . S
O210 C218 1.284 . S
Zn211 O210 1.899 . S
Zn211 O212 2.032 . S
Zn211 O215 2.086 . S
Zn211 O220 1.977 . S
O212 Zn211 2.032 . S
O212 C216 1.278 . S
C213 O214 1.203 . S
C213 O220 1.267 . S
O214 C213 1.203 . S
O215 C208 1.185 . S
O215 Zn211 2.086 . S
C216 O212 1.278 . S
C216 O217 1.211 . S
O217 C216 1.211 . S
C218 O210 1.284 . S
C218 O219 1.273 . S
O219 C218 1.273 . S
O220 Zn211 1.977 . S
O220 C213 1.267 . S
C221 O222 1.160 . S
C221 O228 1.185 . S
O222 C221 1.160 . S
O223 Zn224 1.899 . S
O223 C231 1.284 . S
Zn224 O223 1.899 . S
Zn224 O225 2.032 . S
Zn224 O228 2.086 . S
Zn224 O233 1.977 . S
O225 Zn224 2.032 . S
O225 C229 1.278 1_545 S
C226 O227 1.203 . S
C226 O233 1.267 . S
O227 C226 1.203 . S
O228 C221 1.185 . S
O228 Zn224 2.086 . S
C229 O225 1.278 1_565 S
C229 O230 1.211 1_565 S
O230 C229 1.211 1_545 S
C231 O223 1.284 . S
C231 O232 1.273 . S
O232 C231 1.273 . S
O233 Zn224 1.977 . S
O233 C226 1.267 . S
C234 O235 1.160 . S
C234 O241 1.185 . S
O235 C234 1.160 . S
O236 Zn237 1.899 . S
O236 C244 1.284 . S
Zn237 O236 1.899 . S
Zn237 O238 2.032 . S
Zn237 O241 2.086 . S
Zn237 O246 1.977 . S
O238 Zn237 2.032 . S
O238 C242 1.278 1_545 S
C239 O240 1.203 . S
C239 O246 1.267 . S
O240 C239 1.203 . S
O241 C234 1.185 . S
O241 Zn237 2.086 . S
C242 O238 1.278 1_565 S
C242 O243 1.211 1_565 S
O243 C242 1.211 1_545 S
C244 O236 1.284 . S
C244 O245 1.273 . S
O245 C244 1.273 . S
O246 Zn237 1.977 . S
O246 C239 1.267 . S
C247 O248 1.160 . S
C247 O254 1.185 . S
O248 C247 1.160 . S
O249 Zn250 1.899 . S
O249 C257 1.284 . S
Zn250 O249 1.899 . S
Zn250 O251 2.032 . S
Zn250 O254 2.086 . S
Zn250 O259 1.977 . S
O251 Zn250 2.032 . S
O251 C255 1.278 . S
C252 O253 1.203 . S
C252 O259 1.267 . S
O253 C252 1.203 . S
O254 C247 1.185 . S
O254 Zn250 2.086 . S
C255 O251 1.278 . S
C255 O256 1.211 . S
O256 C255 1.211 . S
C257 O249 1.284 . S
C257 O258 1.273 . S
O258 C257 1.273 . S
O259 Zn250 1.977 . S
O259 C252 1.267 . S
C260 O261 1.160 . S
C260 O267 1.185 . S
O261 C260 1.160 . S
O262 Zn263 1.899 . S
O262 C270 1.284 . S
Zn263 O262 1.899 . S
Zn263 O264 2.032 . S
Zn263 O267 2.086 . S
Zn263 O272 1.977 . S
O264 Zn263 2.032 . S
O264 C268 1.278 . S
C265 O266 1.203 . S
C265 O272 1.267 . S
O266 C265 1.203 . S
O267 C260 1.185 . S
O267 Zn263 2.086 . S
C268 O264 1.278 . S
C268 O269 1.211 . S
O269 C268 1.211 . S
C270 O262 1.284 . S
C270 O271 1.273 . S
O271 C270 1.273 . S
O272 Zn263 1.977 . S
O272 C265 1.267 . S
C273 O274 1.160 . S
C273 O280 1.185 . S
O274 C273 1.160 . S
O275 Zn276 1.899 . S
O275 C283 1.284 . S
Zn276 O275 1.899 . S
Zn276 O277 2.032 . S
Zn276 O280 2.086 . S
Zn276 O285 1.977 . S
O277 Zn276 2.032 . S
O277 C281 1.278 1_565 S
C278 O279 1.203 . S
C278 O285 1.267 . S
O279 C278 1.203 . S
O280 C273 1.185 . S
O280 Zn276 2.086 . S
C281 O277 1.278 1_545 S
C281 O282 1.211 1_545 S
O282 C281 1.211 1_565 S
C283 O275 1.284 . S
C283 O284 1.273 . S
O284 C283 1.273 . S
O285 Zn276 1.977 . S
O285 C278 1.267 . S
C286 O287 1.160 . S
C286 O293 1.185 . S
O287 C286 1.160 . S
O288 Zn289 1.899 . S
O288 C296 1.284 . S
Zn289 O288 1.899 . S
Zn289 O290 2.032 . S
Zn289 O293 2.086 . S
Zn289 O298 1.977 . S
O290 Zn289 2.032 . S
O290 C294 1.278 1_565 S
C291 O292 1.203 . S
C291 O298 1.267 . S
O292 C291 1.203 . S
O293 C286 1.185 . S
O293 Zn289 2.086 . S
C294 O290 1.278 1_545 S
C294 O295 1.211 1_545 S
O295 C294 1.211 1_565 S
C296 O288 1.284 . S
C296 O297 1.273 . S
O297 C296 1.273 . S
O298 Zn289 1.977 . S
O298 C291 1.267 . S
C299 O300 1.160 . S
C299 O306 1.185 . S
O300 C299 1.160 . S
O301 Zn302 1.899 . S
O301 C309 1.284 . S
Zn302 O301 1.899 . S
Zn302 O303 2.032 . S
Zn302 O306 2.086 . S
Zn302 O311 1.977 . S
O303 Zn302 2.032 . S
O303 C307 1.278 . S
C304 O305 1.203 . S
C304 O311 1.267 . S
O305 C304 1.203 . S
O306 C299 1.185 . S
O306 Zn302 2.086 . S
C307 O303 1.278 . S
C307 O308 1.211 . S
O308 C307 1.211 . S
C309 O301 1.284 . S
C309 O310 1.273 . S
O310 C309 1.273 . S
O311 Zn302 1.977 . S
O311 C304 1.267 . S
C312 O313 1.160 . S
C312 O319 1.185 . S
O313 C312 1.160 . S
O314 Zn315 1.899 . S
O314 C322 1.284 . S
Zn315 O314 1.899 . S
Zn315 O316 2.032 . S
Zn315 O319 2.086 . S
Zn315 O324 1.977 . S
O316 Zn315 2.032 . S
O316 C320 1.278 . S
C317 O318 1.203 . S
C317 O324 1.267 . S
O318 C317 1.203 . S
O319 C312 1.185 . S
O319 Zn315 2.086 . S
C320 O316 1.278 . S
C320 O321 1.211 . S
O321 C320 1.211 . S
C322 O314 1.284 . S
C322 O323 1.273 . S
O323 C322 1.273 . S
O324 Zn315 1.977 . S
O324 C317 1.267 . S
C325 O326 1.160 . S
C325 O332 1.185 . S
O326 C325 1.160 . S
O327 Zn328 1.899 . S
O327 C335 1.284 . S
Zn328 O327 1.899 . S
Zn328 O329 2.032 . S
Zn328 O332 2.086 . S
Zn328 O337 1.977 . S
O329 Zn328 2.032 . S
O329 C333 1.278 . S
C330 O331 1.203 . S
C330 O337 1.267 . S
O331 C330 1.203 . S
O332 C325 1.185 . S
O332 Zn328 2.086 . S
C333 O329 1.278 . S
C333 O334 1.211 . S
O334 C333 1.211 . S
C335 O327 1.284 . S
C335 O336 1.273 . S
O336 C335 1.273 . S
O337 Zn328 1.977 . S
O337 C330 1.267 . S
C338 O339 1.160 . S
C338 O345 1.185 . S
O339 C338 1.160 . S
O340 Zn341 1.899 . S
O340 C348 1.284 . S
Zn341 O340 1.899 . S
Zn341 O342 2.032 . S
Zn341 O345 2.086 . S
Zn341 O350 1.977 . S
O342 Zn341 2.032 . S
O342 C346 1.278 . S
C343 O344 1.203 . S
C343 O350 1.267 . S
O344 C343 1.203 . S
O345 C338 1.185 . S
O345 Zn341 2.086 . S
C346 O342 1.278 . S
C346 O347 1.211 . S
O347 C346 1.211 . S
C348 O340 1.284 . S
C348 O349 1.273 . S
O349 C348 1.273 . S
O350 Zn341 1.977 . S
O350 C343 1.267 . S
C351 O352 1.160 . S
C351 O358 1.185 . S
O352 C351 1.160 . S
O353 Zn354 1.899 . S
O353 C361 1.284 . S
Zn354 O353 1.899 . S
Zn354 O355 2.032 . S
Zn354 O358 2.086 . S
Zn354 O363 1.977 . S
O355 Zn354 2.032 . S
O355 C359 1.278 . S
C356 O357 1.203 . S
C356 O363 1.267 . S
O357 C356 1.203 . S
O358 C351 1.185 . S
O358 Zn354 2.086 . S
C359 O355 1.278 . S
C359 O360 1.211 . S
O360 C359 1.211 . S
C361 O353 1.284 . S
C361 O362 1.273 . S
O362 C361 1.273 . S
O363 Zn354 1.977 . S
O363 C356 1.267 . S
C364 O365 1.160 . S
C364 O371 1.185 . S
O365 C364 1.160 . S
O366 Zn367 1.899 . S
O366 C374 1.284 . S
Zn367 O366 1.899 . S
Zn367 O368 2.032 . S
Zn367 O371 2.086 . S
Zn367 O376 1.977 . S
O368 Zn367 2.032 . S
O368 C372 1.278 . S
C369 O370 1.203 . S
C369 O376 1.267 . S
O370 C369 1.203 . S
O371 C364 1.185 . S
O371 Zn367 2.086 . S
C372 O368 1.278 . S
C372 O373 1.211 . S
O373 C372 1.211 . S
C374 O366 1.284 . S
C374 O375 1.273 . S
O375 C374 1.273 . S
O376 Zn367 1.977 . S
O376 C369 1.267 . S
C377 O378 1.160 . S
C377 O384 1.185 . S
O378 C377 1.160 . S
O379 Zn380 1.899 . S
O379 C387 1.284 . S
Zn380 O379 1.899 . S
Zn380 O381 2.032 . S
Zn380 O384 2.086 . S
Zn380 O389 1.977 . S
O381 Zn380 2.032 . S
O381 C385 1.278 . S
C382 O383 1.203 . S
C382 O389 1.267 . S
O383 C382 1.203 . S
O384 C377 1.185 . S
O384 Zn380 2.086 . S
C385 O381 1.278 . S
C385 O386 1.211 . S
O386 C385 1.211 . S
C387 O379 1.284 . S
C387 O388 1.273 . S
O388 C387 1.273 . S
O389 Zn380 1.977 . S
O389 C382 1.267 . S
C390 O391 1.160 . S
C390 O397 1.185 . S
O391 C390 1.160 . S
O392 Zn393 1.899 . S
O392 C400 1.284 . S
Zn393 O392 1.899 . S
Zn393 O394 2.032 . S
Zn393 O397 2.086 . S
Zn393 O402 1.977 . S
O394 Zn393 2.032 . S
O394 C398 1.278 . S
C395 O396 1.203 . S
C395 O402 1.267 . S
O396 C395 1.203 . S
O397 C390 1.185 . S
O397 Zn393 2.086 . S
C398 O394 1.278 . S
C398 O399 1.211 . S
O399 C398 1.211 . S
C400 O392 1.284 . S
C400 O401 1.273 . S
O401 C400 1.273 . S
O402 Zn393 1.977 . S
O402 C395 1.267 . S
C403 O404 1.160 . S
C403 O410 1.185 . S
O404 C403 1.160 . S
O405 Zn406 1.899 . S
O405 C413 1.284 . S
Zn406 O405 1.899 . S
Zn406 O407 2.032 . S
Zn406 O410 2.086 . S
Zn406 O415 1.977 . S
O407 Zn406 2.032 . S
O407 C411 1.278 . S
C408 O409 1.203 . S
C408 O415 1.267 . S
O409 C408 1.203 . S
O410 C403 1.185 . S
O410 Zn406 2.086 . S
C411 O407 1.278 . S
C411 O412 1.211 . S
O412 C411 1.211 . S
C413 O405 1.284 . S
C413 O414 1.273 . S
O414 C413 1.273 . S
O415 Zn406 1.977 . S
O415 C408 1.267 . S
C416 C417 1.387 . S
C416 H420 0.950 . S
C416 C425 1.390 . S
C417 C416 1.387 . S
C417 C419 1.387 . S
H418 C425 0.950 . S
C419 C417 1.387 . S
C419 C421 1.390 . S
C419 H423 0.950 . S
H420 C416 0.950 . S
C421 C419 1.390 . S
C421 C422 1.387 . S
C421 H424 0.950 . S
C422 C421 1.387 . S
C422 C425 1.387 . S
H423 C419 0.950 . S
H424 C421 0.950 . S
C425 C416 1.390 . S
C425 H418 0.950 . S
C425 C422 1.387 . S
C426 C427 1.387 . S
C426 H430 0.950 . S
C426 C435 1.390 . S
C427 C426 1.387 . S
C427 C429 1.387 . S
H428 C435 0.950 . S
C429 C427 1.387 . S
C429 C431 1.390 . S
C429 H433 0.950 . S
H430 C426 0.950 . S
C431 C429 1.390 . S
C431 C432 1.387 . S
C431 H434 0.950 . S
C432 C431 1.387 . S
C432 C435 1.387 . S
H433 C429 0.950 . S
H434 C431 0.950 . S
C435 C426 1.390 . S
C435 H428 0.950 . S
C435 C432 1.387 . S
C436 C437 1.387 . S
C436 H440 0.950 . S
C436 C445 1.390 . S
C437 C436 1.387 . S
C437 C439 1.387 . S
H438 C445 0.950 . S
C439 C437 1.387 . S
C439 C441 1.390 . S
C439 H443 0.950 . S
H440 C436 0.950 . S
C441 C439 1.390 . S
C441 C442 1.387 . S
C441 H444 0.950 . S
C442 C441 1.387 . S
C442 C445 1.387 . S
H443 C439 0.950 . S
H444 C441 0.950 . S
C445 C436 1.390 . S
C445 H438 0.950 . S
C445 C442 1.387 . S
C446 C447 1.387 . S
C446 H450 0.950 . S
C446 C455 1.390 . S
C447 C446 1.387 . S
C447 C449 1.387 . S
H448 C455 0.950 . S
C449 C447 1.387 . S
C449 C451 1.390 . S
C449 H453 0.950 . S
H450 C446 0.950 . S
C451 C449 1.390 . S
C451 C452 1.387 . S
C451 H454 0.950 . S
C452 C451 1.387 . S
C452 C455 1.387 . S
H453 C449 0.950 . S
H454 C451 0.950 . S
C455 C446 1.390 . S
C455 H448 0.950 . S
C455 C452 1.387 . S
C456 C457 1.387 . S
C456 H460 0.950 . S
C456 C465 1.390 . S
C457 C456 1.387 . S
C457 C459 1.387 . S
H458 C465 0.950 . S
C459 C457 1.387 . S
C459 C461 1.390 . S
C459 H463 0.950 . S
H460 C456 0.950 . S
C461 C459 1.390 . S
C461 C462 1.387 . S
C461 H464 0.950 . S
C462 C461 1.387 . S
C462 C465 1.387 . S
H463 C459 0.950 . S
H464 C461 0.950 . S
C465 C456 1.390 . S
C465 H458 0.950 . S
C465 C462 1.387 . S
C466 C467 1.387 . S
C466 H470 0.950 . S
C466 C475 1.390 . S
C467 C466 1.387 . S
C467 C469 1.387 . S
H468 C475 0.950 . S
C469 C467 1.387 . S
C469 C471 1.390 . S
C469 H473 0.950 . S
H470 C466 0.950 . S
C471 C469 1.390 . S
C471 C472 1.387 . S
C471 H474 0.950 . S
C472 C471 1.387 . S
C472 C475 1.387 . S
H473 C469 0.950 . S
H474 C471 0.950 . S
C475 C466 1.390 . S
C475 H468 0.950 . S
C475 C472 1.387 . S
C476 C477 1.387 . S
C476 H480 0.950 . S
C476 C485 1.390 . S
C477 C476 1.387 . S
C477 C479 1.387 . S
H478 C485 0.950 . S
C479 C477 1.387 . S
C479 C481 1.390 . S
C479 H483 0.950 . S
H480 C476 0.950 . S
C481 C479 1.390 . S
C481 C482 1.387 . S
C481 H484 0.950 . S
C482 C481 1.387 . S
C482 C485 1.387 . S
H483 C479 0.950 . S
H484 C481 0.950 . S
C485 C476 1.390 . S
C485 H478 0.950 . S
C485 C482 1.387 . S
C486 C487 1.387 . S
C486 H490 0.950 . S
C486 C495 1.390 . S
C487 C486 1.387 . S
C487 C489 1.387 . S
H488 C495 0.950 . S
C489 C487 1.387 . S
C489 C491 1.390 . S
C489 H493 0.950 . S
H490 C486 0.950 . S
C491 C489 1.390 . S
C491 C492 1.387 . S
C491 H494 0.950 . S
C492 C491 1.387 . S
C492 C495 1.387 . S
H493 C489 0.950 . S
H494 C491 0.950 . S
C495 C486 1.390 . S
C495 H488 0.950 . S
C495 C492 1.387 . S
C496 C497 1.387 . S
C496 H500 0.950 . S
C496 C505 1.390 . S
C497 C496 1.387 . S
C497 C499 1.387 . S
H498 C505 0.950 . S
C499 C497 1.387 . S
C499 C501 1.390 . S
C499 H503 0.950 . S
H500 C496 0.950 . S
C501 C499 1.390 . S
C501 C502 1.387 . S
C501 H504 0.950 . S
C502 C501 1.387 . S
C502 C505 1.387 . S
H503 C499 0.950 . S
H504 C501 0.950 . S
C505 C496 1.390 . S
C505 H498 0.950 . S
C505 C502 1.387 . S
C506 C507 1.387 . S
C506 H510 0.950 . S
C506 C515 1.390 . S
C507 C506 1.387 . S
C507 C509 1.387 . S
H508 C515 0.950 . S
C509 C507 1.387 . S
C509 C511 1.390 . S
C509 H513 0.950 . S
H510 C506 0.950 . S
C511 C509 1.390 . S
C511 C512 1.387 . S
C511 H514 0.950 . S
C512 C511 1.387 . S
C512 C515 1.387 . S
H513 C509 0.950 . S
H514 C511 0.950 . S
C515 C506 1.390 . S
C515 H508 0.950 . S
C515 C512 1.387 . S
C516 C517 1.387 . S
C516 H520 0.950 . S
C516 C525 1.390 . S
C517 C516 1.387 . S
C517 C519 1.387 . S
H518 C525 0.950 . S
C519 C517 1.387 . S
C519 C521 1.390 . S
C519 H523 0.950 . S
H520 C516 0.950 . S
C521 C519 1.390 . S
C521 C522 1.387 . S
C521 H524 0.950 . S
C522 C521 1.387 . S
C522 C525 1.387 . S
H523 C519 0.950 . S
H524 C521 0.950 . S
C525 C516 1.390 . S
C525 H518 0.950 . S
C525 C522 1.387 . S
C526 C527 1.387 . S
C526 H530 0.950 . S
C526 C535 1.390 . S
C527 C526 1.387 . S
C527 C529 1.387 . S
H528 C535 0.950 . S
C529 C527 1.387 . S
C529 C531 1.390 . S
C529 H533 0.950 . S
H530 C526 0.950 . S
C531 C529 1.390 . S
C531 C532 1.387 . S
C531 H534 0.950 . S
C532 C531 1.387 . S
C532 C535 1.387 . S
H533 C529 0.950 . S
H534 C531 0.950 . S
C535 C526 1.390 . S
C535 H528 0.950 . S
C535 C532 1.387 . S
C536 C537 1.387 . S
C536 H540 0.950 . S
C536 C545 1.390 . S
C537 C536 1.387 . S
C537 C539 1.387 . S
H538 C545 0.950 . S
C539 C537 1.387 . S
C539 C541 1.390 . S
C539 H543 0.950 . S
H540 C536 0.950 . S
C541 C539 1.390 . S
C541 C542 1.387 . S
C541 H544 0.950 . S
C542 C541 1.387 . S
C542 C545 1.387 . S
H543 C539 0.950 . S
H544 C541 0.950 . S
C545 C536 1.390 . S
C545 H538 0.950 . S
C545 C542 1.387 . S
C546 C547 1.387 . S
C546 H550 0.950 . S
C546 C555 1.390 . S
C547 C546 1.387 . S
C547 C549 1.387 . S
H548 C555 0.950 . S
C549 C547 1.387 . S
C549 C551 1.390 . S
C549 H553 0.950 . S
H550 C546 0.950 . S
C551 C549 1.390 . S
C551 C552 1.387 . S
C551 H554 0.950 . S
C552 C551 1.387 . S
C552 C555 1.387 . S
H553 C549 0.950 . S
H554 C551 0.950 . S
C555 C546 1.390 . S
C555 H548 0.950 . S
C555 C552 1.387 . S
C556 C557 1.387 . S
C556 H560 0.950 . S
C556 C565 1.390 . S
C557 C556 1.387 . S
C557 C559 1.387 . S
H558 C565 0.950 . S
C559 C557 1.387 . S
C559 C561 1.390 . S
C559 H563 0.950 . S
H560 C556 0.950 . S
C561 C559 1.390 . S
C561 C562 1.387 . S
C561 H564 0.950 . S
C562 C561 1.387 . S
C562 C565 1.387 . S
H563 C559 0.950 . S
H564 C561 0.950 . S
C565 C556 1.390 . S
C565 H558 0.950 . S
C565 C562 1.387 . S
C566 C567 1.387 . S
C566 H570 0.950 . S
C566 C575 1.390 . S
C567 C566 1.387 . S
C567 C569 1.387 . S
H568 C575 0.950 . S
C569 C567 1.387 . S
C569 C571 1.390 . S
C569 H573 0.950 . S
H570 C566 0.950 . S
C571 C569 1.390 . S
C571 C572 1.387 . S
C571 H574 0.950 . S
C572 C571 1.387 . S
C572 C575 1.387 . S
H573 C569 0.950 . S
H574 C571 0.950 . S
C575 C566 1.390 . S
C575 H568 0.950 . S
C575 C572 1.387 . S
C576 C577 1.387 . S
C576 H580 0.950 . S
C576 C585 1.390 . S
C577 C576 1.387 . S
C577 C579 1.387 1_455 S
H578 C585 0.950 . S
C579 C577 1.387 1_655 S
C579 C581 1.390 . S
C579 H583 0.950 . S
H580 C576 0.950 . S
C581 C579 1.390 . S
C581 C582 1.387 . S
C581 H584 0.950 . S
C582 C581 1.387 . S
C582 C585 1.387 1_655 S
H583 C579 0.950 . S
H584 C581 0.950 . S
C585 C576 1.390 . S
C585 H578 0.950 . S
C585 C582 1.387 1_455 S
C586 C587 1.387 . S
C586 H590 0.950 . S
C586 C595 1.390 . S
C587 C586 1.387 . S
C587 C589 1.387 1_545 S
H588 C595 0.950 . S
C589 C587 1.387 1_565 S
C589 C591 1.390 . S
C589 H593 0.950 . S
H590 C586 0.950 . S
C591 C589 1.390 . S
C591 C592 1.387 . S
C591 H594 0.950 . S
C592 C591 1.387 . S
C592 C595 1.387 1_565 S
H593 C589 0.950 . S
H594 C591 0.950 . S
C595 C586 1.390 . S
C595 H588 0.950 . S
C595 C592 1.387 1_545 S
C596 C597 1.387 1_565 S
C596 H600 0.950 . S
C596 C605 1.390 1_455 S
C597 C596 1.387 1_545 S
C597 C599 1.387 1_556 S
H598 C605 0.950 . S
C599 C597 1.387 1_554 S
C599 C601 1.390 1_455 S
C599 H603 0.950 . S
H600 C596 0.950 . S
C601 C599 1.390 1_655 S
C601 C602 1.387 1_545 S
C601 H604 0.950 . S
C602 C601 1.387 1_565 S
C602 C605 1.387 1_554 S
H603 C599 0.950 . S
H604 C601 0.950 . S
C605 C596 1.390 1_655 S
C605 H598 0.950 . S
C605 C602 1.387 1_556 S
C606 C607 1.387 . S
C606 H610 0.950 . S
C606 C615 1.390 . S
C607 C606 1.387 . S
C607 C609 1.387 1_556 S
H608 C615 0.950 . S
C609 C607 1.387 1_554 S
C609 C611 1.390 . S
C609 H613 0.950 . S
H610 C606 0.950 . S
C611 C609 1.390 . S
C611 C612 1.387 . S
C611 H614 0.950 . S
C612 C611 1.387 . S
C612 C615 1.387 1_554 S
H613 C609 0.950 . S
H614 C611 0.950 . S
C615 C606 1.390 . S
C615 H608 0.950 . S
C615 C612 1.387 1_556 S
C616 C617 1.387 1_455 S
C616 H620 0.950 . S
C616 C625 1.390 . S
C617 C616 1.387 1_655 S
C617 C619 1.387 . S
H618 C625 0.950 . S
C619 C617 1.387 . S
C619 C621 1.390 . S
C619 H623 0.950 . S
H620 C616 0.950 . S
C621 C619 1.390 . S
C621 C622 1.387 1_655 S
C621 H624 0.950 . S
C622 C621 1.387 1_455 S
C622 C625 1.387 . S
H623 C619 0.950 . S
H624 C621 0.950 . S
C625 C616 1.390 . S
C625 H618 0.950 . S
C625 C622 1.387 . S
C626 C627 1.387 1_565 S
C626 H630 0.950 . S
C626 C635 1.390 . S
C627 C626 1.387 1_545 S
C627 C629 1.387 . S
H628 C635 0.950 . S
C629 C627 1.387 . S
C629 C631 1.390 . S
C629 H633 0.950 . S
H630 C626 0.950 . S
C631 C629 1.390 . S
C631 C632 1.387 1_545 S
C631 H634 0.950 . S
C632 C631 1.387 1_565 S
C632 C635 1.387 . S
H633 C629 0.950 . S
H634 C631 0.950 . S
C635 C626 1.390 . S
C635 H628 0.950 . S
C635 C632 1.387 . S
C636 C637 1.387 1_554 S
C636 H640 0.950 . S
C636 C645 1.390 . S
C637 C636 1.387 1_556 S
C637 C639 1.387 . S
H638 C645 0.950 . S
C639 C637 1.387 . S
C639 C641 1.390 . S
C639 H643 0.950 . S
H640 C636 0.950 . S
C641 C639 1.390 . S
C641 C642 1.387 1_556 S
C641 H644 0.950 . S
C642 C641 1.387 1_554 S
C642 C645 1.387 . S
H643 C639 0.950 . S
H644 C641 0.950 . S
C645 C636 1.390 . S
C645 H638 0.950 . S
C645 C642 1.387 . S
C646 C647 1.387 . S
C646 H650 0.950 . S
C646 C655 1.390 . S
C647 C646 1.387 . S
C647 C649 1.387 . S
H648 C655 0.950 . S
C649 C647 1.387 . S
C649 C651 1.390 . S
C649 H653 0.950 . S
H650 C646 0.950 . S
C651 C649 1.390 . S
C651 C652 1.387 . S
C651 H654 0.950 . S
C652 C651 1.387 . S
C652 C655 1.387 . S
H653 C649 0.950 . S
H654 C651 0.950 . S
C655 C646 1.390 . S
C655 H648 0.950 . S
C655 C652 1.387 . S
C656 C657 1.387 . S
C656 H660 0.950 . S
C656 C665 1.390 . S
C657 C656 1.387 . S
C657 C659 1.387 1_455 S
H658 C665 0.950 . S
C659 C657 1.387 1_655 S
C659 C661 1.390 . S
C659 H663 0.950 . S
H660 C656 0.950 . S
C661 C659 1.390 . S
C661 C662 1.387 . S
C661 H664 0.950 . S
C662 C661 1.387 . S
C662 C665 1.387 1_655 S
H663 C659 0.950 . S
H664 C661 0.950 . S
C665 C656 1.390 . S
C665 H658 0.950 . S
C665 C662 1.387 1_455 S
C666 C667 1.387 . S
C666 H670 0.950 . S
C666 C675 1.390 . S
C667 C666 1.387 . S
C667 C669 1.387 . S
H668 C675 0.950 . S
C669 C667 1.387 . S
C669 C671 1.390 . S
C669 H673 0.950 . S
H670 C666 0.950 . S
C671 C669 1.390 . S
C671 C672 1.387 . S
C671 H674 0.950 . S
C672 C671 1.387 . S
C672 C675 1.387 . S
H673 C669 0.950 . S
H674 C671 0.950 . S
C675 C666 1.390 . S
C675 H668 0.950 . S
C675 C672 1.387 . S
C676 C677 1.387 . S
C676 H680 0.950 . S
C676 C685 1.390 . S
C677 C676 1.387 . S
C677 C679 1.387 . S
H678 C685 0.950 . S
C679 C677 1.387 . S
C679 C681 1.390 . S
C679 H683 0.950 . S
H680 C676 0.950 . S
C681 C679 1.390 . S
C681 C682 1.387 . S
C681 H684 0.950 . S
C682 C681 1.387 . S
C682 C685 1.387 . S
H683 C679 0.950 . S
H684 C681 0.950 . S
C685 C676 1.390 . S
C685 H678 0.950 . S
C685 C682 1.387 . S
C686 C687 1.387 . S
C686 H690 0.950 . S
C686 C695 1.390 . S
C687 C686 1.387 . S
C687 C689 1.387 . S
H688 C695 0.950 . S
C689 C687 1.387 . S
C689 C691 1.390 . S
C689 H693 0.950 . S
H690 C686 0.950 . S
C691 C689 1.390 . S
C691 C692 1.387 . S
C691 H694 0.950 . S
C692 C691 1.387 . S
C692 C695 1.387 . S
H693 C689 0.950 . S
H694 C691 0.950 . S
C695 C686 1.390 . S
C695 H688 0.950 . S
C695 C692 1.387 . S
C696 C697 1.387 . S
C696 H700 0.950 . S
C696 C705 1.390 . S
C697 C696 1.387 . S
C697 C699 1.387 . S
H698 C705 0.950 . S
C699 C697 1.387 . S
C699 C701 1.390 . S
C699 H703 0.950 . S
H700 C696 0.950 . S
C701 C699 1.390 . S
C701 C702 1.387 . S
C701 H704 0.950 . S
C702 C701 1.387 . S
C702 C705 1.387 . S
H703 C699 0.950 . S
H704 C701 0.950 . S
C705 C696 1.390 . S
C705 H698 0.950 . S
C705 C702 1.387 . S
C706 C707 1.387 . S
C706 H710 0.950 . S
C706 C715 1.390 . S
C707 C706 1.387 . S
C707 C709 1.387 1_565 S
H708 C715 0.950 . S
C709 C707 1.387 1_545 S
C709 C711 1.390 . S
C709 H713 0.950 . S
H710 C706 0.950 . S
C711 C709 1.390 . S
C711 C712 1.387 . S
C711 H714 0.950 . S
C712 C711 1.387 . S
C712 C715 1.387 1_545 S
H713 C709 0.950 . S
H714 C711 0.950 . S
C715 C706 1.390 . S
C715 H708 0.950 . S
C715 C712 1.387 1_565 S
C716 C717 1.387 . S
C716 H720 0.950 . S
C716 C725 1.390 . S
C717 C716 1.387 . S
C717 C719 1.387 . S
H718 C725 0.950 . S
C719 C717 1.387 . S
C719 C721 1.390 . S
C719 H723 0.950 . S
H720 C716 0.950 . S
C721 C719 1.390 . S
C721 C722 1.387 . S
C721 H724 0.950 . S
C722 C721 1.387 . S
C722 C725 1.387 . S
H723 C719 0.950 . S
H724 C721 0.950 . S
C725 C716 1.390 . S
C725 H718 0.950 . S
C725 C722 1.387 . S
C726 C727 1.387 . S
C726 H730 0.950 . S
C726 C735 1.390 1_554 S
C727 C726 1.387 . S
C727 C729 1.387 . S
H728 C735 0.950 . S
C729 C727 1.387 . S
C729 C731 1.390 1_554 S
C729 H733 0.950 . S
H730 C726 0.950 . S
C731 C729 1.390 1_556 S
C731 C732 1.387 . S
C731 H734 0.950 . S
C732 C731 1.387 . S
C732 C735 1.387 . S
H733 C729 0.950 . S
H734 C731 0.950 . S
C735 C726 1.390 1_556 S
C735 H728 0.950 . S
C735 C732 1.387 . S
C736 C737 1.387 . S
C736 H740 0.950 . S
C736 C745 1.390 . S
C737 C736 1.387 . S
C737 C739 1.387 . S
H738 C745 0.950 . S
C739 C737 1.387 . S
C739 C741 1.390 . S
C739 H743 0.950 . S
H740 C736 0.950 . S
C741 C739 1.390 . S
C741 C742 1.387 . S
C741 H744 0.950 . S
C742 C741 1.387 . S
C742 C745 1.387 . S
H743 C739 0.950 . S
H744 C741 0.950 . S
C745 C736 1.390 . S
C745 H738 0.950 . S
C745 C742 1.387 . S
C746 C747 1.387 . S
C746 H750 0.950 . S
C746 C755 1.390 . S
C747 C746 1.387 . S
C747 C749 1.387 . S
H748 C755 0.950 . S
C749 C747 1.387 . S
C749 C751 1.390 . S
C749 H753 0.950 . S
H750 C746 0.950 . S
C751 C749 1.390 . S
C751 C752 1.387 . S
C751 H754 0.950 . S
C752 C751 1.387 . S
C752 C755 1.387 . S
H753 C749 0.950 . S
H754 C751 0.950 . S
C755 C746 1.390 . S
C755 H748 0.950 . S
C755 C752 1.387 . S
C756 C757 1.387 . S
C756 H760 0.950 . S
C756 C765 1.390 . S
C757 C756 1.387 . S
C757 C759 1.387 . S
H758 C765 0.950 . S
C759 C757 1.387 . S
C759 C761 1.390 . S
C759 H763 0.950 . S
H760 C756 0.950 . S
C761 C759 1.390 . S
C761 C762 1.387 . S
C761 H764 0.950 . S
C762 C761 1.387 . S
C762 C765 1.387 . S
H763 C759 0.950 . S
H764 C761 0.950 . S
C765 C756 1.390 . S
C765 H758 0.950 . S
C765 C762 1.387 . S
C766 C767 1.387 . S
C766 H770 0.950 . S
C766 C775 1.390 . S
C767 C766 1.387 . S
C767 C769 1.387 . S
H768 C775 0.950 . S
C769 C767 1.387 . S
C769 C771 1.390 . S
C769 H773 0.950 . S
H770 C766 0.950 . S
C771 C769 1.390 . S
C771 C772 1.387 . S
C771 H774 0.950 . S
C772 C771 1.387 . S
C772 C775 1.387 . S
H773 C769 0.950 . S
H774 C771 0.950 . S
C775 C766 1.390 . S
C775 H768 0.950 . S
C775 C772 1.387 . S
C776 C777 1.387 . S
C776 H780 0.950 . S
C776 C785 1.390 . S
C777 C776 1.387 . S
C777 C779 1.387 . S
H778 C785 0.950 . S
C779 C777 1.387 . S
C779 C781 1.390 . S
C779 H783 0.950 . S
H780 C776 0.950 . S
C781 C779 1.390 . S
C781 C782 1.387 . S
C781 H784 0.950 . S
C782 C781 1.387 . S
C782 C785 1.387 . S
H783 C779 0.950 . S
H784 C781 0.950 . S
C785 C776 1.390 . S
C785 H778 0.950 . S
C785 C782 1.387 . S
C786 C787 1.387 . S
C786 H790 0.950 . S
C786 C795 1.390 . S
C787 C786 1.387 . S
C787 C789 1.387 . S
H788 C795 0.950 . S
C789 C787 1.387 . S
C789 C791 1.390 . S
C789 H793 0.950 . S
H790 C786 0.950 . S
C791 C789 1.390 . S
C791 C792 1.387 . S
C791 H794 0.950 . S
C792 C791 1.387 . S
C792 C795 1.387 . S
H793 C789 0.950 . S
H794 C791 0.950 . S
C795 C786 1.390 . S
C795 H788 0.950 . S
C795 C792 1.387 . S
C796 C797 1.387 . S
C796 H800 0.950 . S
C796 C805 1.390 . S
C797 C796 1.387 . S
C797 C799 1.387 . S
H798 C805 0.950 . S
C799 C797 1.387 . S
C799 C801 1.390 . S
C799 H803 0.950 . S
H800 C796 0.950 . S
C801 C799 1.390 . S
C801 C802 1.387 . S
C801 H804 0.950 . S
C802 C801 1.387 . S
C802 C805 1.387 . S
H803 C799 0.950 . S
H804 C801 0.950 . S
C805 C796 1.390 . S
C805 H798 0.950 . S
C805 C802 1.387 . S
C806 C807 1.387 . S
C806 H810 0.950 . S
C806 C815 1.390 . S
C807 C806 1.387 . S
C807 C809 1.387 . S
H808 C815 0.950 . S
C809 C807 1.387 . S
C809 C811 1.390 . S
C809 H813 0.950 . S
H810 C806 0.950 . S
C811 C809 1.390 . S
C811 C812 1.387 . S
C811 H814 0.950 . S
C812 C811 1.387 . S
C812 C815 1.387 . S
H813 C809 0.950 . S
H814 C811 0.950 . S
C815 C806 1.390 . S
C815 H808 0.950 . S
C815 C812 1.387 . S
C816 C817 1.387 . S
C816 H820 0.950 . S
C816 C825 1.390 . S
C817 C816 1.387 . S
C817 C819 1.387 . S
H818 C825 0.950 . S
C819 C817 1.387 . S
C819 C821 1.390 . S
C819 H823 0.950 . S
H820 C816 0.950 . S
C821 C819 1.390 . S
C821 C822 1.387 . S
C821 H824 0.950 . S
C822 C821 1.387 . S
C822 C825 1.387 . S
H823 C819 0.950 . S
H824 C821 0.950 . S
C825 C816 1.390 . S
C825 H818 0.950 . S
C825 C822 1.387 . S
C826 C827 1.387 . S
C826 H830 0.950 . S
C826 C835 1.390 . S
C827 C826 1.387 . S
C827 C829 1.387 . S
H828 C835 0.950 . S
C829 C827 1.387 . S
C829 C831 1.390 . S
C829 H833 0.950 . S
H830 C826 0.950 . S
C831 C829 1.390 . S
C831 C832 1.387 . S
C831 H834 0.950 . S
C832 C831 1.387 . S
C832 C835 1.387 . S
H833 C829 0.950 . S
H834 C831 0.950 . S
C835 C826 1.390 . S
C835 H828 0.950 . S
C835 C832 1.387 . S
C836 C837 1.387 . S
C836 H840 0.950 . S
C836 C845 1.390 . S
C837 C836 1.387 . S
C837 C839 1.387 . S
H838 C845 0.950 . S
C839 C837 1.387 . S
C839 C841 1.390 . S
C839 H843 0.950 . S
H840 C836 0.950 . S
C841 C839 1.390 . S
C841 C842 1.387 . S
C841 H844 0.950 . S
C842 C841 1.387 . S
C842 C845 1.387 . S
H843 C839 0.950 . S
H844 C841 0.950 . S
C845 C836 1.390 . S
C845 H838 0.950 . S
C845 C842 1.387 . S
C846 C847 1.387 . S
C846 H850 0.950 . S
C846 C855 1.390 . S
C847 C846 1.387 . S
C847 C849 1.387 . S
H848 C855 0.950 . S
C849 C847 1.387 . S
C849 C851 1.390 . S
C849 H853 0.950 . S
H850 C846 0.950 . S
C851 C849 1.390 . S
C851 C852 1.387 . S
C851 H854 0.950 . S
C852 C851 1.387 . S
C852 C855 1.387 . S
H853 C849 0.950 . S
H854 C851 0.950 . S
C855 C846 1.390 . S
C855 H848 0.950 . S
C855 C852 1.387 . S
C856 C857 1.387 . S
C856 H860 0.950 . S
C856 C865 1.390 . S
C857 C856 1.387 . S
C857 C859 1.387 . S
H858 C865 0.950 . S
C859 C857 1.387 . S
C859 C861 1.390 . S
C859 H863 0.950 . S
H860 C856 0.950 . S
C861 C859 1.390 . S
C861 C862 1.387 . S
C861 H864 0.950 . S
C862 C861 1.387 . S
C862 C865 1.387 . S
H863 C859 0.950 . S
H864 C861 0.950 . S
C865 C856 1.390 . S
C865 H858 0.950 . S
C865 C862 1.387 . S
C866 C867 1.387 . S
C866 H870 0.950 . S
C866 C875 1.390 . S
C867 C866 1.387 . S
C867 C869 1.387 . S
H868 C875 0.950 . S
C869 C867 1.387 . S
C869 C871 1.390 . S
C869 H873 0.950 . S
H870 C866 0.950 . S
C871 C869 1.390 . S
C871 C872 1.387 . S
C871 H874 0.950 . S
C872 C871 1.387 . S
C872 C875 1.387 . S
H873 C869 0.950 . S
H874 C871 0.950 . S
C875 C866 1.390 . S
C875 H868 0.950 . S
C875 C872 1.387 . S
C876 C877 1.387 . S
C876 H880 0.950 . S
C876 C885 1.390 . S
C877 C876 1.387 . S
C877 C879 1.387 . S
H878 C885 0.950 . S
C879 C877 1.387 . S
C879 C881 1.390 . S
C879 H883 0.950 . S
H880 C876 0.950 . S
C881 C879 1.390 . S
C881 C882 1.387 . S
C881 H884 0.950 . S
C882 C881 1.387 . S
C882 C885 1.387 . S
H883 C879 0.950 . S
H884 C881 0.950 . S
C885 C876 1.390 . S
C885 H878 0.950 . S
C885 C882 1.387 . S
C886 C887 1.387 . S
C886 H890 0.950 . S
C886 C895 1.390 . S
C887 C886 1.387 . S
C887 C889 1.387 . S
H888 C895 0.950 . S
C889 C887 1.387 . S
C889 C891 1.390 . S
C889 H893 0.950 . S
H890 C886 0.950 . S
C891 C889 1.390 . S
C891 C892 1.387 . S
C891 H894 0.950 . S
C892 C891 1.387 . S
C892 C895 1.387 . S
H893 C889 0.950 . S
H894 C891 0.950 . S
C895 C886 1.390 . S
C895 H888 0.950 . S
C895 C892 1.387 . S
C896 C897 1.387 . S
C896 H900 0.950 . S
C896 C905 1.390 . S
C897 C896 1.387 . S
C897 C899 1.387 . S
H898 C905 0.950 . S
C899 C897 1.387 . S
C899 C901 1.390 . S
C899 H903 0.950 . S
H900 C896 0.950 . S
C901 C899 1.390 . S
C901 C902 1.387 . S
C901 H904 0.950 . S
C902 C901 1.387 . S
C902 C905 1.387 . S
H903 C899 0.950 . S
H904 C901 0.950 . S
C905 C896 1.390 . S
C905 H898 0.950 . S
C905 C902 1.387 . S
C906 C907 1.387 . S
C906 H910 0.950 . S
C906 C915 1.390 . S
C907 C906 1.387 . S
C907 C909 1.387 . S
H908 C915 0.950 . S
C909 C907 1.387 . S
C909 C911 1.390 . S
C909 H913 0.950 . S
H910 C906 0.950 . S
C911 C909 1.390 . S
C911 C912 1.387 . S
C911 H914 0.950 . S
C912 C911 1.387 . S
C912 C915 1.387 . S
H913 C909 0.950 . S
H914 C911 0.950 . S
C915 C906 1.390 . S
C915 H908 0.950 . S
C915 C912 1.387 . S
C916 C917 1.387 . S
C916 H920 0.950 . S
C916 C925 1.390 . S
C917 C916 1.387 . S
C917 C919 1.387 . S
H918 C925 0.950 . S
C919 C917 1.387 . S
C919 C921 1.390 . S
C919 H923 0.950 . S
H920 C916 0.950 . S
C921 C919 1.390 . S
C921 C922 1.387 . S
C921 H924 0.950 . S
C922 C921 1.387 . S
C922 C925 1.387 . S
H923 C919 0.950 . S
H924 C921 0.950 . S
C925 C916 1.390 . S
C925 H918 0.950 . S
C925 C922 1.387 . S
C926 C927 1.387 . S
C926 H930 0.950 . S
C926 C935 1.390 . S
C927 C926 1.387 . S
C927 C929 1.387 . S
H928 C935 0.950 . S
C929 C927 1.387 . S
C929 C931 1.390 . S
C929 H933 0.950 . S
H930 C926 0.950 . S
C931 C929 1.390 . S
C931 C932 1.387 . S
C931 H934 0.950 . S
C932 C931 1.387 . S
C932 C935 1.387 . S
H933 C929 0.950 . S
H934 C931 0.950 . S
C935 C926 1.390 . S
C935 H928 0.950 . S
C935 C932 1.387 . S
C936 C937 1.387 . S
C936 H940 0.950 . S
C936 C945 1.390 . S
C937 C936 1.387 . S
C937 C939 1.387 . S
H938 C945 0.950 . S
C939 C937 1.387 . S
C939 C941 1.390 . S
C939 H943 0.950 . S
H940 C936 0.950 . S
C941 C939 1.390 . S
C941 C942 1.387 . S
C941 H944 0.950 . S
C942 C941 1.387 . S
C942 C945 1.387 . S
H943 C939 0.950 . S
H944 C941 0.950 . S
C945 C936 1.390 . S
C945 H938 0.950 . S
C945 C942 1.387 . S
C946 C947 1.387 . S
C946 H950 0.950 . S
C946 C955 1.390 . S
C947 C946 1.387 . S
C947 C949 1.387 . S
H948 C955 0.950 . S
C949 C947 1.387 . S
C949 C951 1.390 . S
C949 H953 0.950 . S
H950 C946 0.950 . S
C951 C949 1.390 . S
C951 C952 1.387 . S
C951 H954 0.950 . S
C952 C951 1.387 . S
C952 C955 1.387 . S
H953 C949 0.950 . S
H954 C951 0.950 . S
C955 C946 1.390 . S
C955 H948 0.950 . S
C955 C952 1.387 . S
C956 C957 1.387 . S
C956 H960 0.950 . S
C956 C965 1.390 . S
C957 C956 1.387 . S
C957 C959 1.387 . S
H958 C965 0.950 . S
C959 C957 1.387 . S
C959 C961 1.390 . S
C959 H963 0.950 . S
H960 C956 0.950 . S
C961 C959 1.390 . S
C961 C962 1.387 . S
C961 H964 0.950 . S
C962 C961 1.387 . S
C962 C965 1.387 . S
H963 C959 0.950 . S
H964 C961 0.950 . S
C965 C956 1.390 . S
C965 H958 0.950 . S
C965 C962 1.387 . S
C966 C967 1.387 . S
C966 H970 0.950 . S
C966 C975 1.390 . S
C967 C966 1.387 . S
C967 C969 1.387 . S
H968 C975 0.950 . S
C969 C967 1.387 . S
C969 C971 1.390 . S
C969 H973 0.950 . S
H970 C966 0.950 . S
C971 C969 1.390 . S
C971 C972 1.387 . S
C971 H974 0.950 . S
C972 C971 1.387 . S
C972 C975 1.387 . S
H973 C969 0.950 . S
H974 C971 0.950 . S
C975 C966 1.390 . S
C975 H968 0.950 . S
C975 C972 1.387 . S
C976 C977 1.387 . S
C976 H980 0.950 . S
C976 C985 1.390 . S
C977 C976 1.387 . S
C977 C979 1.387 . S
H978 C985 0.950 . S
C979 C977 1.387 . S
C979 C981 1.390 . S
C979 H983 0.950 . S
H980 C976 0.950 . S
C981 C979 1.390 . S
C981 C982 1.387 . S
C981 H984 0.950 . S
C982 C981 1.387 . S
C982 C985 1.387 . S
H983 C979 0.950 . S
H984 C981 0.950 . S
C985 C976 1.390 . S
C985 H978 0.950 . S
C985 C982 1.387 . S
C986 C987 1.387 . S
C986 H990 0.950 . S
C986 C995 1.390 . S
C987 C986 1.387 . S
C987 C989 1.387 . S
H988 C995 0.950 . S
C989 C987 1.387 . S
C989 C991 1.390 . S
C989 H993 0.950 . S
H990 C986 0.950 . S
C991 C989 1.390 . S
C991 C992 1.387 . S
C991 H994 0.950 . S
C992 C991 1.387 . S
C992 C995 1.387 . S
H993 C989 0.950 . S
H994 C991 0.950 . S
C995 C986 1.390 . S
C995 H988 0.950 . S
C995 C992 1.387 . S
C996 C997 1.387 . S
C996 H1000 0.950 . S
C996 C1005 1.390 . S
C997 C996 1.387 . S
C997 C999 1.387 . S
H998 C1005 0.950 . S
C999 C997 1.387 . S
C999 C1001 1.390 . S
C999 H1003 0.950 . S
H1000 C996 0.950 . S
C1001 C999 1.390 . S
C1001 C1002 1.387 . S
C1001 H1004 0.950 . S
C1002 C1001 1.387 . S
C1002 C1005 1.387 . S
H1003 C999 0.950 . S
H1004 C1001 0.950 . S
C1005 C996 1.390 . S
C1005 H998 0.950 . S
C1005 C1002 1.387 . S
C1006 C1007 1.387 . S
C1006 H1010 0.950 . S
C1006 C1015 1.390 . S
C1007 C1006 1.387 . S
C1007 C1009 1.387 . S
H1008 C1015 0.950 . S
C1009 C1007 1.387 . S
C1009 C1011 1.390 . S
C1009 H1013 0.950 . S
H1010 C1006 0.950 . S
C1011 C1009 1.390 . S
C1011 C1012 1.387 . S
C1011 H1014 0.950 . S
C1012 C1011 1.387 . S
C1012 C1015 1.387 . S
H1013 C1009 0.950 . S
H1014 C1011 0.950 . S
C1015 C1006 1.390 . S
C1015 H1008 0.950 . S
C1015 C1012 1.387 . S
C1016 C1017 1.387 . S
C1016 H1020 0.950 . S
C1016 C1025 1.390 . S
C1017 C1016 1.387 . S
C1017 C1019 1.387 . S
H1018 C1025 0.950 . S
C1019 C1017 1.387 . S
C1019 C1021 1.390 . S
C1019 H1023 0.950 . S
H1020 C1016 0.950 . S
C1021 C1019 1.390 . S
C1021 C1022 1.387 . S
C1021 H1024 0.950 . S
C1022 C1021 1.387 . S
C1022 C1025 1.387 . S
H1023 C1019 0.950 . S
H1024 C1021 0.950 . S
C1025 C1016 1.390 . S
C1025 H1018 0.950 . S
C1025 C1022 1.387 . S
C1026 C1027 1.387 . S
C1026 H1030 0.950 . S
C1026 C1035 1.390 . S
C1027 C1026 1.387 . S
C1027 C1029 1.387 . S
H1028 C1035 0.950 . S
C1029 C1027 1.387 . S
C1029 C1031 1.390 . S
C1029 H1033 0.950 . S
H1030 C1026 0.950 . S
C1031 C1029 1.390 . S
C1031 C1032 1.387 . S
C1031 H1034 0.950 . S
C1032 C1031 1.387 . S
C1032 C1035 1.387 . S
H1033 C1029 0.950 . S
H1034 C1031 0.950 . S
C1035 C1026 1.390 . S
C1035 H1028 0.950 . S
C1035 C1032 1.387 . S
C1036 C1037 1.387 . S
C1036 H1040 0.950 . S
C1036 C1045 1.390 . S
C1037 C1036 1.387 . S
C1037 C1039 1.387 . S
H1038 C1045 0.950 . S
C1039 C1037 1.387 . S
C1039 C1041 1.390 . S
C1039 H1043 0.950 . S
H1040 C1036 0.950 . S
C1041 C1039 1.390 . S
C1041 C1042 1.387 . S
C1041 H1044 0.950 . S
C1042 C1041 1.387 . S
C1042 C1045 1.387 . S
H1043 C1039 0.950 . S
H1044 C1041 0.950 . S
C1045 C1036 1.390 . S
C1045 H1038 0.950 . S
C1045 C1042 1.387 . S
C1046 C1047 1.387 . S
C1046 H1050 0.950 . S
C1046 C1055 1.390 . S
C1047 C1046 1.387 . S
C1047 C1049 1.387 . S
H1048 C1055 0.950 . S
C1049 C1047 1.387 . S
C1049 C1051 1.390 . S
C1049 H1053 0.950 . S
H1050 C1046 0.950 . S
C1051 C1049 1.390 . S
C1051 C1052 1.387 . S
C1051 H1054 0.950 . S
C1052 C1051 1.387 . S
C1052 C1055 1.387 . S
H1053 C1049 0.950 . S
H1054 C1051 0.950 . S
C1055 C1046 1.390 . S
C1055 H1048 0.950 . S
C1055 C1052 1.387 . S
C417 C5 1.448 . S
C422 C18 1.448 . S
C427 C44 1.449 . S
C432 C31 1.449 . S
C437 C57 1.448 . S
C442 C70 1.448 . S
C447 C83 1.448 . S
C452 C96 1.448 . S
C457 C109 1.449 . S
C462 C122 1.449 . S
C467 C135 1.448 . S
C472 C148 1.448 . S
C477 C161 1.449 . S
C482 C174 1.449 . S
C487 C187 1.448 . S
C492 C200 1.448 . S
C497 C226 1.449 . S
C502 C213 1.449 . S
C507 C252 1.448 . S
C512 C239 1.448 . S
C517 C278 1.448 . S
C522 C265 1.448 . S
C527 C304 1.448 . S
C532 C291 1.448 . S
C537 C330 1.449 . S
C542 C317 1.449 . S
C547 C356 1.448 . S
C552 C343 1.448 . S
C557 C382 1.449 . S
C562 C369 1.449 . S
C567 C408 1.448 . S
C572 C395 1.448 . S
C577 C0 1.477 . S
C582 C156 1.477 . S
C587 C13 1.478 . S
C592 C273 1.478 . S
C597 C26 1.477 . S
C602 C78 1.477 . S
C607 C39 1.477 . S
C612 C403 1.477 . S
C617 C52 1.477 . S
C622 C104 1.477 . S
C627 C221 1.477 . S
C632 C65 1.477 . S
C637 C351 1.478 . S
C642 C91 1.478 . S
C647 C117 1.477 . S
C652 C377 1.477 . S
C657 C130 1.477 . S
C662 C182 1.477 . S
C667 C143 1.477 . S
C672 C299 1.477 . S
C677 C169 1.477 . S
C682 C325 1.477 . S
C687 C195 1.478 . S
C692 C247 1.478 . S
C697 C364 1.478 . S
C702 C208 1.478 . S
C707 C286 1.477 . S
C712 C234 1.477 . S
C717 C260 1.478 . S
C722 C312 1.478 . S
C727 C390 1.478 . S
C732 C338 1.478 . S
C737 C138 1.089 . S
C742 C8 1.089 . S
C747 C151 1.090 . S
C752 C21 1.090 . S
C757 C34 1.089 . S
C762 C112 1.089 . S
C767 C125 1.090 . S
C772 C47 1.090 . S
C777 C60 1.090 . S
C782 C190 1.090 . S
C787 C73 1.089 . S
C792 C203 1.089 . S
C797 C164 1.090 . S
C802 C86 1.090 . S
C807 C177 1.090 . S
C812 C99 1.090 . S
C817 C216 1.090 . S
C822 C346 1.090 . S
C827 C359 1.090 . S
C832 C229 1.090 . S
C837 C320 1.090 . S
C842 C242 1.090 . S
C847 C255 1.089 . S
C852 C333 1.089 . S
C857 C398 1.090 . S
C862 C268 1.090 . S
C867 C281 1.090 . S
C872 C411 1.090 . S
C877 C372 1.090 . S
C882 C294 1.090 . S
C887 C385 1.090 . S
C892 C307 1.090 . S
C897 C140 1.483 . S
C902 C10 1.483 1_565 S
C907 C153 1.483 . S
C912 C23 1.483 . S
C917 C114 1.480 . S
C922 C36 1.480 . S
C927 C49 1.483 1_565 S
C932 C127 1.483 . S
C937 C192 1.483 . S
C942 C62 1.483 1_545 S
C947 C205 1.480 . S
C952 C75 1.480 . S
C957 C166 1.480 . S
C962 C88 1.480 . S
C967 C179 1.483 . S
C972 C101 1.483 1_545 S
C977 C348 1.483 . S
C982 C218 1.483 1_565 S
C987 C361 1.480 . S
C992 C231 1.480 . S
C997 C322 1.480 . S
C1002 C244 1.480 . S
C1007 C257 1.483 1_565 S
C1012 C335 1.483 . S
C1017 C400 1.483 . S
C1022 C270 1.483 1_545 S
C1027 C283 1.483 . S
C1032 C413 1.483 . S
C1037 C374 1.483 . S
C1042 C296 1.483 . S
C1047 C309 1.480 1_545 S
C1052 C387 1.480 . S
