# Generated by pormake.
# Topology fnz, (5)-cn, num edge types: 1
# Building blocks:
#     Node 0, Type 0, BuildingBlock: XOMCOT_clean_sbu_0, # of connection points: 5
#     Node 1, Type 0, BuildingBlock: XOMCOT_clean_sbu_0, # of connection points: 5
#     Node 2, Type 0, BuildingBlock: XOMCOT_clean_sbu_0, # of connection points: 5
#     Node 3, Type 0, BuildingBlock: XOMCOT_clean_sbu_0, # of connection points: 5
#     Node 4, Type 0, BuildingBlock: XOMCOT_clean_sbu_0, # of connection points: 5
#     Node 5, Type 0, BuildingBlock: XOMCOT_clean_sbu_0, # of connection points: 5
#     Node 6, Type 0, BuildingBlock: XOMCOT_clean_sbu_0, # of connection points: 5
#     Node 7, Type 0, BuildingBlock: XOMCOT_clean_sbu_0, # of connection points: 5
#     Node 8, Type 0, BuildingBlock: XOMCOT_clean_sbu_0, # of connection points: 5
#     Node 9, Type 0, BuildingBlock: XOMCOT_clean_sbu_0, # of connection points: 5
#     Node 10, Type 0, BuildingBlock: XOMCOT_clean_sbu_0, # of connection points: 5
#     Node 11, Type 0, BuildingBlock: XOMCOT_clean_sbu_0, # of connection points: 5
#     Edge 12, Type (0, 0), BuildingBlock: EZIPEK_clean_linker_0, # of connection points: 2
#     Edge 13, Type (0, 0), BuildingBlock: EZIPEK_clean_linker_0, # of connection points: 2
#     Edge 14, Type (0, 0), BuildingBlock: EZIPEK_clean_linker_0, # of connection points: 2
#     Edge 15, Type (0, 0), BuildingBlock: EZIPEK_clean_linker_0, # of connection points: 2
#     Edge 16, Type (0, 0), BuildingBlock: EZIPEK_clean_linker_0, # of connection points: 2
#     Edge 17, Type (0, 0), BuildingBlock: EZIPEK_clean_linker_0, # of connection points: 2
#     Edge 18, Type (0, 0), BuildingBlock: EZIPEK_clean_linker_0, # of connection points: 2
#     Edge 19, Type (0, 0), BuildingBlock: EZIPEK_clean_linker_0, # of connection points: 2
#     Edge 20, Type (0, 0), BuildingBlock: EZIPEK_clean_linker_0, # of connection points: 2
#     Edge 21, Type (0, 0), BuildingBlock: EZIPEK_clean_linker_0, # of connection points: 2
#     Edge 22, Type (0, 0), BuildingBlock: EZIPEK_clean_linker_0, # of connection points: 2
#     Edge 23, Type (0, 0), BuildingBlock: EZIPEK_clean_linker_0, # of connection points: 2
#     Edge 24, Type (0, 0), BuildingBlock: EZIPEK_clean_linker_0, # of connection points: 2
#     Edge 25, Type (0, 0), BuildingBlock: EZIPEK_clean_linker_0, # of connection points: 2
#     Edge 26, Type (0, 0), BuildingBlock: EZIPEK_clean_linker_0, # of connection points: 2
#     Edge 27, Type (0, 0), BuildingBlock: EZIPEK_clean_linker_0, # of connection points: 2
#     Edge 28, Type (0, 0), BuildingBlock: EZIPEK_clean_linker_0, # of connection points: 2
#     Edge 29, Type (0, 0), BuildingBlock: EZIPEK_clean_linker_0, # of connection points: 2
#     Edge 30, Type (0, 0), BuildingBlock: EZIPEK_clean_linker_0, # of connection points: 2
#     Edge 31, Type (0, 0), BuildingBlock: EZIPEK_clean_linker_0, # of connection points: 2
#     Edge 32, Type (0, 0), BuildingBlock: EZIPEK_clean_linker_0, # of connection points: 2
#     Edge 33, Type (0, 0), BuildingBlock: EZIPEK_clean_linker_0, # of connection points: 2
#     Edge 34, Type (0, 0), BuildingBlock: EZIPEK_clean_linker_0, # of connection points: 2
#     Edge 35, Type (0, 0), BuildingBlock: EZIPEK_clean_linker_0, # of connection points: 2
#     Edge 36, Type (0, 0), BuildingBlock: EZIPEK_clean_linker_0, # of connection points: 2
#     Edge 37, Type (0, 0), BuildingBlock: EZIPEK_clean_linker_0, # of connection points: 2
#     Edge 38, Type (0, 0), BuildingBlock: EZIPEK_clean_linker_0, # of connection points: 2
#     Edge 39, Type (0, 0), BuildingBlock: EZIPEK_clean_linker_0, # of connection points: 2
#     Edge 40, Type (0, 0), BuildingBlock: EZIPEK_clean_linker_0, # of connection points: 2
#     Edge 41, Type (0, 0), BuildingBlock: EZIPEK_clean_linker_0, # of connection points: 2
# Relax obj value: 0.173
# Max RMSD: 0.244
# Mean RMSD: 0.244
data_MOF--net-fnz--node1-XOMCOT_clean_sbu_0--edge1-EZIPEK_clean_linker_0
_symmetry_space_group_name_H-M    P1
_symmetry_Int_Tables_number       1
_symmetry_cell_setting            triclinic
loop_
_symmetry_equiv_pos_as_xyz
'x, y, z'
_cell_length_a     34.048225
_cell_length_b     34.116581
_cell_length_c     23.410515
_cell_angle_alpha  90.035537
_cell_angle_beta   89.858476
_cell_angle_gamma 119.90804
loop_
_atom_site_label
_atom_site_type_symbol
_atom_site_fract_x
_atom_site_fract_y
_atom_site_fract_z
_atom_type_partial_charge
Co0 Co 0.4162 0.1417 0.06885 0.0
C1 C 0.375 0.19903 0.05208 0.0
C2 C 0.32998 0.13747 0.09649 0.0
C3 C 0.30862 0.16245 0.09017 0.0
N4 N 0.37142 0.16044 0.07247 0.0
N5 N 0.33698 0.20086 0.06215 0.0
H6 H 0.40487 0.22542 0.03107 0.0
H7 H 0.31652 0.10518 0.11786 0.0
C8 C 0.35821 0.04521 0.02633 0.0
O9 O 0.38766 0.05129 0.98601 0.0
N10 N 0.46195 0.12267 0.06622 0.0
C11 C 0.50704 0.14942 0.05762 0.0
C12 C 0.52768 0.1234 0.05846 0.0
C13 C 0.45661 0.08101 0.07519 0.0
N14 N 0.49573 0.08048 0.06934 0.0
C15 C 0.4605 0.18745 0.96401 0.0
C16 C 0.38379 0.14667 0.89647 0.0
C17 C 0.4242 0.18071 0.87278 0.0
C18 C 0.46297 0.20113 0.90705 0.0
C19 C 0.38276 0.13411 0.95356 0.0
N20 N 0.42102 0.15358 0.98652 0.0
H21 H 0.48974 0.20603 0.99066 0.0
H22 H 0.3504 0.11045 0.97201 0.0
H23 H 0.52443 0.18564 0.0523 0.0
H24 H 0.42519 0.05121 0.08542 0.0
O25 O 0.46134 0.20098 0.09749 0.0
O26 O 0.41776 0.1416 0.15114 0.0
O27 O 0.36496 0.07754 0.05962 0.0
C28 C 0.44779 0.18436 0.14856 0.0
H29 H 0.2754 0.15383 0.10615 0.0
H30 H 0.56329 0.135 0.0518 0.0
H31 H 0.35286 0.13113 0.87165 0.0
H32 H 0.49448 0.22851 0.89046 0.0
Co33 Co 0.28095 0.41757 0.06854 0.0
C34 C 0.18153 0.37322 0.04533 0.0
C35 C 0.19908 0.32663 0.08165 0.0
C36 C 0.15316 0.30406 0.07155 0.0
N37 N 0.21743 0.36984 0.06334 0.0
N38 N 0.14215 0.33392 0.05031 0.0
H39 H 0.18308 0.40401 0.03138 0.0
H40 H 0.21729 0.31229 0.10217 0.0
C41 C 0.28617 0.33598 0.02642 0.0
O42 O 0.25289 0.32513 0.99016 0.0
N43 N 0.34415 0.46421 0.07406 0.0
C44 C 0.36197 0.50913 0.06675 0.0
C45 C 0.40872 0.52947 0.06732 0.0
C46 C 0.3802 0.45788 0.07897 0.0
N47 N 0.41983 0.49699 0.07462 0.0
C48 C 0.25782 0.4505 0.96936 0.0
C49 C 0.29913 0.42376 0.88907 0.0
C50 C 0.26848 0.43734 0.8707 0.0
C51 C 0.24914 0.45247 0.91165 0.0
C52 C 0.30568 0.42096 0.94779 0.0
N53 N 0.28202 0.43074 0.98709 0.0
H54 H 0.24352 0.46353 0.9999 0.0
H55 H 0.32904 0.41014 0.9613 0.0
H56 H 0.34244 0.52573 0.05925 0.0
H57 H 0.37802 0.42535 0.08383 0.0
O58 O 0.26162 0.45846 0.09919 0.0
O59 O 0.27626 0.4133 0.15126 0.0
O60 O 0.30159 0.37203 0.05602 0.0
C61 C 0.26268 0.4428 0.14941 0.0
H62 H 0.12924 0.26934 0.08274 0.0
H63 H 0.43267 0.56496 0.06048 0.0
H64 H 0.31643 0.41382 0.85844 0.0
H65 H 0.22683 0.46508 0.89917 0.0
Co66 Co 0.86925 0.27564 0.06049 0.0
C67 C 0.81527 0.17767 0.03664 0.0
C68 C 0.87819 0.19529 0.07815 0.0
C69 C 0.8548 0.14926 0.06918 0.0
N70 N 0.85335 0.21295 0.05772 0.0
N71 N 0.81552 0.13857 0.04303 0.0
H72 H 0.78731 0.18013 0.01883 0.0
H73 H 0.91053 0.21438 0.09932 0.0
C74 C 0.96908 0.32362 0.02208 0.0
O75 O 0.9659 0.35437 0.99193 0.0
N76 N 0.88534 0.33906 0.06344 0.0
C77 C 0.86044 0.35684 0.04339 0.0
C78 C 0.88538 0.40331 0.04748 0.0
C79 C 0.92435 0.37507 0.08176 0.0
N80 N 0.92577 0.41459 0.07076 0.0
C81 C 0.81119 0.26195 0.96521 0.0
C82 C 0.86821 0.26324 0.88048 0.0
C83 C 0.82338 0.25017 0.86625 0.0
C84 C 0.79477 0.24975 0.90959 0.0
C85 C 0.882 0.27133 0.93743 0.0
N86 N 0.8542 0.27193 0.97921 0.0
H87 H 0.78796 0.26043 0.99764 0.0
H88 H 0.91383 0.27385 0.9473 0.0
H89 H 0.82705 0.33772 0.02509 0.0
H90 H 0.95235 0.373 0.09976 0.0
O91 O 0.81025 0.25833 0.09354 0.0
O92 O 0.8713 0.27356 0.14299 0.0
O93 O 0.93435 0.29166 0.04673 0.0
C94 C 0.82815 0.25984 0.14302 0.0
H95 H 0.86494 0.12523 0.08253 0.0
H96 H 0.87574 0.4271 0.03156 0.0
H97 H 0.89134 0.26342 0.84847 0.0
H98 H 0.7596 0.23904 0.90087 0.0
Co99 Co 0.59993 0.86925 0.05663 0.0
C100 C 0.64374 0.81434 0.03203 0.0
C101 C 0.69234 0.88007 0.06247 0.0
C102 C 0.71392 0.85549 0.05467 0.0
N103 N 0.6483 0.85466 0.04743 0.0
N104 N 0.68326 0.81442 0.03533 0.0
H105 H 0.61201 0.78445 0.02231 0.0
H106 H 0.70775 0.91357 0.0804 0.0
C107 C 0.67817 0.95395 1.00458 0.0
O108 O 0.68961 0.9306 0.97056 0.0
N109 N 0.55212 0.88379 0.066 0.0
C110 C 0.50711 0.85577 0.06087 0.0
C111 C 0.48562 0.88104 0.06466 0.0
C112 C 0.55742 0.92548 0.07313 0.0
N113 N 0.5175 0.92477 0.07203 0.0
C114 C 0.55559 0.80319 0.96849 0.0
C115 C 0.58294 0.86236 0.87728 0.0
C116 C 0.56398 0.81598 0.86658 0.0
C117 C 0.54843 0.78611 0.91288 0.0
C118 C 0.58973 0.87802 0.93378 0.0
N119 N 0.57944 0.84869 0.97852 0.0
H120 H 0.54401 0.77956 1.00359 0.0
H121 H 0.60421 0.91377 0.94091 0.0
H122 H 0.4912 0.81983 0.05289 0.0
H123 H 0.5898 0.95616 0.07732 0.0
O124 O 0.5655 0.81257 0.09899 0.0
O125 O 0.61248 0.87855 0.13749 0.0
O126 O 0.64158 0.93428 0.03352 0.0
C127 C 0.58639 0.83536 0.14455 0.0
H128 H 0.74879 0.86606 0.06493 0.0
H129 H 0.4497 0.86866 0.06008 0.0
H130 H 0.59385 0.88633 0.84231 0.0
H131 H 0.5324 0.74994 0.90615 0.0
Co132 Co 0.73368 0.59504 0.0593 0.0
C133 C 0.83383 0.64342 0.04108 0.0
C134 C 0.81307 0.68253 0.09113 0.0
C135 C 0.85963 0.70588 0.08736 0.0
N136 N 0.79663 0.64366 0.0611 0.0
N137 N 0.87232 0.68116 0.05575 0.0
H138 H 0.83371 0.61561 0.01922 0.0
H139 H 0.79283 0.69273 0.11562 0.0
C140 C 0.73307 0.67759 0.01435 0.0
O141 O 0.77205 0.69142 0.98839 0.0
N142 N 0.67109 0.54727 0.05889 0.0
C143 C 0.65338 0.50472 0.03895 0.0
C144 C 0.60661 0.48433 0.04043 0.0
C145 C 0.63519 0.55208 0.07281 0.0
N146 N 0.59557 0.51431 0.06171 0.0
C147 C 0.76155 0.55651 0.97044 0.0
C148 C 0.73572 0.5893 0.87883 0.0
C149 C 0.76227 0.56911 0.86906 0.0
C150 C 0.77386 0.5512 0.91539 0.0
C151 C 0.72455 0.59436 0.93491 0.0
N152 N 0.74041 0.58102 0.98016 0.0
H153 H 0.77145 0.54295 0.00559 0.0
H154 H 0.70354 0.60932 0.94137 0.0
H155 H 0.67295 0.49014 0.02246 0.0
H156 H 0.63786 0.58316 0.08853 0.0
O157 O 0.75307 0.55765 0.09942 0.0
O158 O 0.72966 0.59999 0.14056 0.0
O159 O 0.71225 0.63865 0.03779 0.0
C160 C 0.7469 0.57388 0.14676 0.0
H161 H 0.88252 0.73749 0.10822 0.0
H162 H 0.58262 0.45079 0.02527 0.0
H163 H 0.72476 0.60203 0.84356 0.0
H164 H 0.79333 0.53429 0.90917 0.0
Co165 Co 0.14295 0.72985 0.06621 0.0
C166 C 0.19921 0.82899 0.04538 0.0
C167 C 0.13859 0.81242 0.09171 0.0
C168 C 0.16338 0.85866 0.08561 0.0
N169 N 0.16034 0.79355 0.06498 0.0
N170 N 0.20161 0.86876 0.05704 0.0
H171 H 0.22674 0.82662 0.02622 0.0
H172 H 0.10753 0.79409 0.11567 0.0
C173 C 0.0593 0.73149 0.02545 0.0
O174 O 0.08411 0.76833 0.99541 0.0
N175 N 0.12531 0.66647 0.06859 0.0
C176 C 0.1512 0.64811 0.05518 0.0
C177 C 0.12467 0.60159 0.05744 0.0
C178 C 0.08356 0.63106 0.07922 0.0
N179 N 0.08232 0.59118 0.07251 0.0
C180 C 0.20381 0.75224 0.97173 0.0
C181 C 0.14085 0.72543 0.88509 0.0
C182 C 0.1871 0.75118 0.87152 0.0
C183 C 0.21868 0.76314 0.91545 0.0
C184 C 0.12738 0.71576 0.94249 0.0
N185 N 0.15882 0.73219 0.9853 0.0
H186 H 0.22908 0.76238 1.00467 0.0
H187 H 0.09176 0.69568 0.952 0.0
H188 H 0.18646 0.66716 0.04268 0.0
H189 H 0.05422 0.6341 0.08967 0.0
O190 O 0.20116 0.74601 0.09995 0.0
O191 O 0.13973 0.73132 0.14872 0.0
O192 O 0.07753 0.7113 0.05037 0.0
C193 C 0.18277 0.74438 0.14917 0.0
H194 H 0.1556 0.88313 0.10399 0.0
H195 H 0.13509 0.57725 0.04668 0.0
H196 H 0.11548 0.71406 0.8518 0.0
H197 H 0.2547 0.78183 0.90645 0.0
Co198 Co 0.8681 0.5921 0.44621 0.0
C199 C 0.81465 0.63806 0.4738 0.0
C200 C 0.87763 0.68275 0.43284 0.0
C201 C 0.8559 0.70658 0.44498 0.0
N202 N 0.85269 0.64004 0.4527 0.0
N203 N 0.81578 0.67804 0.46934 0.0
H204 H 0.7854 0.60777 0.48911 0.0
H205 H 0.90922 0.69586 0.41006 0.0
C206 C 0.95366 0.67316 0.49109 0.0
O207 O 0.93032 0.68403 0.52603 0.0
N208 N 0.88444 0.54534 0.43945 0.0
C209 C 0.85747 0.50059 0.44823 0.0
C210 C 0.88388 0.48024 0.44779 0.0
C211 C 0.92673 0.55154 0.43353 0.0
N212 N 0.92733 0.5125 0.43882 0.0
C213 C 0.80847 0.55423 0.54149 0.0
C214 C 0.87342 0.58297 0.62591 0.0
C215 C 0.82791 0.56598 0.64125 0.0
C216 C 0.79511 0.54969 0.59844 0.0
C217 C 0.88535 0.58727 0.56794 0.0
N218 N 0.85324 0.57647 0.52662 0.0
H219 H 0.78246 0.54178 0.50929 0.0
H220 H 0.9204 0.60016 0.55674 0.0
H221 H 0.82155 0.48425 0.45721 0.0
H222 H 0.95699 0.58406 0.42798 0.0
O223 O 0.80894 0.55252 0.41285 0.0
O224 O 0.87026 0.59892 0.36372 0.0
O225 O 0.93392 0.63685 0.46188 0.0
C226 C 0.8271 0.5697 0.36371 0.0
H227 H 0.86692 0.74114 0.4327 0.0
H228 H 0.87253 0.44499 0.45632 0.0
H229 H 0.89949 0.59418 0.65829 0.0
H230 H 0.75949 0.53492 0.6089 0.0
Co231 Co 0.27881 0.86199 0.44871 0.0
C232 C 0.17904 0.80958 0.4716 0.0
C233 C 0.19811 0.86849 0.42055 0.0
C234 C 0.15181 0.84571 0.42674 0.0
N235 N 0.21552 0.84658 0.44986 0.0
N236 N 0.14009 0.80872 0.45864 0.0
H237 H 0.17999 0.78219 0.49317 0.0
H238 H 0.21747 0.8982 0.39468 0.0
C239 C 0.27978 0.94707 0.48843 0.0
O240 O 0.24222 0.92355 0.51784 0.0
N241 N 0.34189 0.87815 0.44606 0.0
C242 C 0.36 0.85214 0.4597 0.0
C243 C 0.40666 0.87817 0.45606 0.0
C244 C 0.3775 0.91936 0.43391 0.0
N245 N 0.41732 0.92031 0.44001 0.0
C246 C 0.25477 0.8011 0.54306 0.0
C247 C 0.28247 0.8641 0.62977 0.0
C248 C 0.25579 0.81804 0.64327 0.0
C249 C 0.24337 0.78639 0.59931 0.0
C250 C 0.29263 0.87743 0.57242 0.0
N251 N 0.27589 0.84605 0.52956 0.0
H252 H 0.24392 0.77581 0.51005 0.0
H253 H 0.31331 0.91292 0.56298 0.0
H254 H 0.34075 0.81719 0.47306 0.0
H255 H 0.37468 0.94858 0.42249 0.0
O256 O 0.26108 0.80353 0.41483 0.0
O257 O 0.27758 0.86535 0.36632 0.0
O258 O 0.29922 0.92761 0.46461 0.0
C259 C 0.26325 0.82215 0.36571 0.0
H260 H 0.12829 0.85403 0.40664 0.0
H261 H 0.43094 0.86759 0.46647 0.0
H262 H 0.29414 0.88948 0.66308 0.0
H263 H 0.22383 0.75048 0.60825 0.0
Co264 Co 0.41238 0.27119 0.44483 0.0
C265 C 0.37054 0.17279 0.46336 0.0
C266 C 0.32632 0.18973 0.41759 0.0
C267 C 0.30464 0.14351 0.42435 0.0
N268 N 0.36744 0.20791 0.44224 0.0
N269 N 0.33248 0.13321 0.45321 0.0
H270 H 0.40016 0.17599 0.48475 0.0
H271 H 0.31336 0.2087 0.3954 0.0
C272 C 0.35343 0.30901 0.48929 0.0
O273 O 0.37978 0.32813 0.53358 0.0
N274 N 0.45752 0.33558 0.44598 0.0
C275 C 0.50262 0.35487 0.45487 0.0
C276 C 0.52204 0.40126 0.45222 0.0
C277 C 0.45084 0.37078 0.43476 0.0
N278 N 0.48931 0.41097 0.43984 0.0
C279 C 0.45787 0.27078 0.54892 0.0
C280 C 0.3818 0.23429 0.61804 0.0
C281 C 0.42268 0.2413 0.64088 0.0
C282 C 0.46112 0.25989 0.60579 0.0
C283 C 0.38004 0.24554 0.56103 0.0
N284 N 0.41797 0.26475 0.52726 0.0
H285 H 0.48688 0.28142 0.52165 0.0
H286 H 0.34749 0.23652 0.54336 0.0
H287 H 0.52085 0.33694 0.46145 0.0
H288 H 0.41884 0.36747 0.42228 0.0
O289 O 0.4575 0.2567 0.4163 0.0
O290 O 0.41378 0.2722 0.36245 0.0
O291 O 0.36188 0.28564 0.45388 0.0
C292 C 0.44411 0.25971 0.36519 0.0
H293 H 0.27159 0.11916 0.40801 0.0
H294 H 0.55737 0.42598 0.45889 0.0
H295 H 0.35109 0.21865 0.64348 0.0
H296 H 0.49298 0.26441 0.62164 0.0
Co297 Co 0.14254 0.4118 0.45181 0.0
C298 C 0.2017 0.37204 0.44491 0.0
C299 C 0.13238 0.32148 0.43241 0.0
C300 C 0.1589 0.30165 0.42844 0.0
N301 N 0.15939 0.36573 0.44273 0.0
N302 N 0.20323 0.33382 0.4333 0.0
H303 H 0.23051 0.40403 0.45689 0.0
H304 H 0.09587 0.30434 0.42919 0.0
C305 C 0.04438 0.359 0.49506 0.0
O306 O 0.04821 0.39189 0.52796 0.0
N307 N 0.12576 0.45851 0.4604 0.0
C308 C 0.14767 0.49761 0.48996 0.0
C309 C 0.12219 0.5189 0.48885 0.0
C310 C 0.08809 0.45758 0.4401 0.0
N311 N 0.08453 0.49327 0.45809 0.0
C312 C 0.20692 0.45164 0.54217 0.0
C313 C 0.15546 0.39311 0.62831 0.0
C314 C 0.20022 0.42644 0.64011 0.0
C315 C 0.22614 0.45566 0.59603 0.0
C316 C 0.13805 0.38916 0.57315 0.0
N317 N 0.16325 0.41896 0.53101 0.0
H318 H 0.22778 0.47456 0.50901 0.0
H319 H 0.10501 0.361 0.56462 0.0
H320 H 0.17934 0.50963 0.51217 0.0
H321 H 0.06253 0.43042 0.415 0.0
O322 O 0.19909 0.45385 0.41347 0.0
O323 O 0.13401 0.41216 0.37085 0.0
O324 O 0.07868 0.36208 0.46891 0.0
C325 C 0.17727 0.43916 0.36555 0.0
H326 H 0.14523 0.26564 0.4252 0.0
H327 H 0.1297 0.54975 0.51093 0.0
H328 H 0.13462 0.36932 0.66105 0.0
H329 H 0.26107 0.48143 0.60321 0.0
Co330 Co 0.73267 0.13844 0.44179 0.0
C331 C 0.83007 0.19727 0.46317 0.0
C332 C 0.81621 0.13264 0.43104 0.0
C333 C 0.86227 0.15897 0.44008 0.0
N334 N 0.79622 0.15683 0.44554 0.0
N335 N 0.87059 0.19949 0.45995 0.0
H336 H 0.82545 0.22489 0.47725 0.0
H337 H 0.79876 0.09864 0.4141 0.0
C338 C 0.68601 0.03932 0.48046 0.0
O339 O 0.65581 0.04332 0.51102 0.0
N340 N 0.66856 0.12065 0.4384 0.0
C341 C 0.64998 0.14471 0.45901 0.0
C342 C 0.60345 0.11884 0.45599 0.0
C343 C 0.63282 0.08116 0.42059 0.0
N344 N 0.59282 0.07865 0.43277 0.0
C345 C 0.74465 0.19556 0.53787 0.0
C346 C 0.74464 0.13884 0.6217 0.0
C347 C 0.75701 0.18329 0.63661 0.0
C348 C 0.75688 0.2118 0.59363 0.0
C349 C 0.7373 0.12563 0.56453 0.0
N350 N 0.73556 0.15301 0.52325 0.0
H351 H 0.74564 0.21866 0.50575 0.0
H352 H 0.73662 0.09482 0.55401 0.0
H353 H 0.66863 0.17808 0.47734 0.0
H354 H 0.63551 0.0535 0.40262 0.0
O355 O 0.74846 0.19704 0.40903 0.0
O356 O 0.73548 0.13686 0.35927 0.0
O357 O 0.718 0.07363 0.45509 0.0
C358 C 0.74792 0.17962 0.35945 0.0
H359 H 0.88785 0.14983 0.43091 0.0
H360 H 0.57924 0.12763 0.47297 0.0
H361 H 0.74481 0.11572 0.65328 0.0
H362 H 0.76707 0.24673 0.60273 0.0
Co363 Co 0.59614 0.727 0.44854 0.0
C364 C 0.63618 0.82576 0.46285 0.0
C365 C 0.68903 0.81025 0.44923 0.0
C366 C 0.70841 0.85644 0.45469 0.0
N367 N 0.64354 0.79055 0.45598 0.0
N368 N 0.67491 0.86576 0.4631 0.0
H369 H 0.60324 0.82292 0.46508 0.0
H370 H 0.70739 0.79313 0.43855 0.0
C371 C 0.67376 0.72114 0.50481 0.0
O372 O 0.68257 0.75424 0.54054 0.0
N373 N 0.54878 0.66459 0.44092 0.0
C374 C 0.50387 0.64805 0.44718 0.0
C375 C 0.48213 0.60142 0.44424 0.0
C376 C 0.55384 0.62801 0.43392 0.0
N377 N 0.51372 0.58915 0.43603 0.0
C378 C 0.55365 0.75202 0.53626 0.0
C379 C 0.57792 0.71746 0.62754 0.0
C380 C 0.56156 0.74722 0.63814 0.0
C381 C 0.54742 0.76293 0.59184 0.0
C382 C 0.58385 0.7077 0.57106 0.0
N383 N 0.57546 0.7282 0.52632 0.0
H384 H 0.54248 0.76438 0.50113 0.0
H385 H 0.5964 0.68469 0.5638 0.0
H386 H 0.48821 0.66839 0.45531 0.0
H387 H 0.58614 0.62942 0.42921 0.0
O388 O 0.56098 0.74767 0.40468 0.0
O389 O 0.60907 0.72901 0.36792 0.0
O390 O 0.63856 0.70471 0.47334 0.0
C391 C 0.5827 0.74574 0.35978 0.0
H392 H 0.74397 0.88136 0.45042 0.0
H393 H 0.44623 0.57823 0.44973 0.0
H394 H 0.58754 0.70326 0.66253 0.0
H395 H 0.5331 0.78468 0.59852 0.0
C396 C 0.49163 0.01434 0.02027 0.0
C397 C 0.50133 0.04124 0.07006 0.0
C398 C 0.51897 0.98944 0.12206 0.0
C399 C 0.51131 0.9637 0.07156 0.0
N400 N 0.49846 0.95558 0.97027 0.0
N401 N 0.52982 0.05885 0.16573 0.0
C402 C 0.49959 0.97711 0.01999 0.0
C403 C 0.51672 0.03005 0.12024 0.0
N404 N 0.4748 0.02464 0.97331 0.0
N405 N 0.52684 0.97397 0.17207 0.0
H406 H 0.52636 0.08756 0.16635 0.0
H407 H 0.5471 0.05619 0.20074 0.0
H408 H 0.52804 0.94404 0.17443 0.0
H409 H 0.52903 0.98883 0.21163 0.0
H410 H 0.46214 0.00377 0.93768 0.0
H411 H 0.47121 0.05323 0.97129 0.0
H412 H 0.49444 0.96619 0.93013 0.0
H413 H 0.50533 0.92904 0.96859 0.0
C414 C 0.53333 0.52066 0.01682 0.0
C415 C 0.55101 0.50943 0.0648 0.0
C416 C 0.48323 0.49293 0.12046 0.0
C417 C 0.46443 0.50175 0.07148 0.0
N418 N 0.46709 0.51511 0.97033 0.0
N419 N 0.54183 0.47975 0.15969 0.0
C420 C 0.48836 0.51337 0.01886 0.0
C421 C 0.52554 0.49397 0.11594 0.0
N422 N 0.55998 0.53893 0.96962 0.0
N423 N 0.46107 0.48496 0.17154 0.0
H424 H 0.57327 0.48145 0.15759 0.0
H425 H 0.52318 0.4635 0.19604 0.0
H426 H 0.43063 0.48506 0.17601 0.0
H427 H 0.47403 0.48125 0.21003 0.0
H428 H 0.55118 0.55244 0.93539 0.0
H429 H 0.59255 0.54342 0.96648 0.0
H430 H 0.48092 0.51909 0.9296 0.0
H431 H 0.43369 0.50845 0.97019 0.0
C432 C 0.02398 0.52412 0.12472 0.0
C433 C 0.04254 0.54679 0.07244 0.0
C434 C 0.98651 0.48046 0.01935 0.0
C435 C 0.96552 0.45909 0.07157 0.0
N436 N 0.96073 0.4613 0.17363 0.0
N437 N 0.03796 0.5503 0.9704 0.0
C438 C 0.98342 0.48114 0.1243 0.0
C439 C 0.02275 0.52595 0.01981 0.0
N440 N 0.04598 0.54343 0.17447 0.0
N441 N 0.97296 0.45648 0.96956 0.0
H442 H 0.06443 0.58373 0.96958 0.0
H443 H 0.02203 0.53881 0.9311 0.0
H444 H 0.94719 0.42281 0.96789 0.0
H445 H 0.98985 0.4685 0.93083 0.0
H446 H 0.03716 0.52697 0.21373 0.0
H447 H 0.07528 0.57512 0.17561 0.0
H448 H 0.96936 0.47703 0.21332 0.0
H449 H 0.93108 0.42989 0.17409 0.0
C450 C 0.01728 0.49165 0.5017 0.0
C451 C 0.04518 0.49875 0.45324 0.0
C452 C 0.99338 0.51228 0.39437 0.0
C453 C 0.96713 0.50783 0.44356 0.0
N454 N 0.95875 0.50246 0.54566 0.0
N455 N 0.06391 0.5215 0.35545 0.0
C456 C 0.98037 0.49999 0.49773 0.0
C457 C 0.0343 0.51063 0.39999 0.0
N458 N 0.02524 0.47547 0.55105 0.0
N459 N 0.97837 0.51702 0.34223 0.0
H460 H 0.09391 0.52041 0.35884 0.0
H461 H 0.06066 0.53469 0.31686 0.0
H462 H 0.94845 0.51807 0.33727 0.0
H463 H 0.99372 0.51702 0.30382 0.0
H464 H 1.00328 0.46481 0.58592 0.0
H465 H 0.05205 0.4692 0.55552 0.0
H466 H 0.96962 0.50171 0.58696 0.0
H467 H 0.93225 0.50947 0.54416 0.0
C468 C 0.52396 0.02079 0.38312 0.0
C469 C 0.54882 0.03817 0.43425 0.0
C470 C 0.48524 0.97939 0.48941 0.0
C471 C 0.46188 0.9599 0.43791 0.0
N472 N 0.45982 0.95829 0.33548 0.0
N473 N 0.55643 0.03079 0.53529 0.0
C474 C 0.4815 0.97966 0.38458 0.0
C475 C 0.53034 0.01649 0.48724 0.0
N476 N 0.54046 0.04461 0.33364 0.0
N477 N 0.46339 0.96354 0.54041 0.0
H478 H 0.58932 0.05823 0.53543 0.0
H479 H 0.54693 0.01342 0.57398 0.0
H480 H 0.4301 0.93691 0.54324 0.0
H481 H 0.47664 0.97914 0.57945 0.0
H482 H 0.52177 0.03683 0.29611 0.0
H483 H 0.57174 0.07439 0.33155 0.0
H484 H 0.47384 0.96841 0.29491 0.0
H485 H 0.42874 0.92824 0.33575 0.0
C486 C 0.49173 0.47579 0.49006 0.0
C487 C 0.49392 0.45535 0.43836 0.0
C488 C 0.50638 0.52245 0.38468 0.0
C489 C 0.50674 0.54382 0.43672 0.0
N490 N 0.50572 0.54434 0.53925 0.0
N491 N 0.50703 0.45915 0.33738 0.0
C492 C 0.50085 0.52132 0.48958 0.0
C493 C 0.50219 0.4787 0.38579 0.0
N494 N 0.48019 0.4511 0.53938 0.0
N495 N 0.50919 0.54398 0.33439 0.0
H496 H 0.503 0.42675 0.33729 0.0
H497 H 0.51748 0.47569 0.29831 0.0
H498 H 0.51254 0.57608 0.33294 0.0
H499 H 0.50573 0.52943 0.29435 0.0
H500 H 0.4735 0.46198 0.57782 0.0
H501 H 0.47415 0.41798 0.54087 0.0
H502 H 0.50625 0.53179 0.57955 0.0
H503 H 0.51251 0.57773 0.53993 0.0
C504 C 0.30695 0.97909 0.08988 0.0
C505 C 0.31711 1.00001 0.03482 0.0
C506 C 0.25176 0.93244 0.9944 0.0
C507 C 0.24067 0.91289 0.0495 0.0
N508 N 0.25469 0.91707 0.15043 0.0
N509 N 0.29413 1.00008 0.93724 0.0
C510 C 0.2674 0.93618 0.0974 0.0
C511 C 0.28831 0.97748 0.9876 0.0
N512 N 0.33599 0.99897 0.13467 0.0
N513 N 0.2271 0.90766 0.94854 0.0
H514 H 0.31929 0.03357 0.93094 0.0
H515 H 0.2716 0.98726 0.90319 0.0
H516 H 0.19849 0.8757 0.95274 0.0
H517 H 0.23644 0.91736 0.90627 0.0
H518 H 0.33438 0.98232 0.17258 0.0
H519 H 0.36347 0.03157 0.13401 0.0
H520 H 0.26811 0.93451 0.1884 0.0
H521 H 0.22899 0.88383 0.15698 0.0
C522 C 0.32205 0.24848 0.99622 0.0
C523 C 0.32986 0.2384 0.05213 0.0
C524 C 0.31124 0.29333 0.09199 0.0
C525 C 0.30454 0.30487 0.03553 0.0
N526 N 0.31673 0.3024 0.93411 0.0
N527 N 0.34475 0.25926 0.15078 0.0
C528 C 0.31382 0.28506 0.98757 0.0
C529 C 0.32862 0.26356 0.09917 0.0
N530 N 0.32114 0.22218 0.9517 0.0
N531 N 0.29859 0.30816 0.13907 0.0
H532 H 0.35765 0.23754 0.15707 0.0
H533 H 0.34966 0.28041 0.18541 0.0
H534 H 0.28534 0.32972 0.13787 0.0
H535 H 0.29757 0.2958 0.18005 0.0
H536 H 0.31098 0.22475 0.9106 0.0
H537 H 0.32747 0.19546 0.95694 0.0
H538 H 0.3274 0.29196 0.89841 0.0
H539 H 0.31331 0.33066 0.9264 0.0
C540 C 0.03997 0.32868 0.97969 0.0
C541 C 0.01346 0.32538 0.02849 0.0
C542 C 0.06873 0.31976 0.09022 0.0
C543 C 0.09746 0.32799 0.04242 0.0
N544 N 0.1123 0.34232 0.94199 0.0
N545 N 0.00671 0.32515 0.13159 0.0
C546 C 0.08362 0.33326 0.98726 0.0
C547 C 0.02868 0.3224 0.08404 0.0
N548 N 0.02251 0.32488 0.92612 0.0
N549 N 0.07964 0.30963 0.14209 0.0
H550 H 0.97736 0.32732 0.13033 0.0
H551 H 0.01983 0.32948 0.17273 0.0
H552 H 0.11104 0.31313 0.15147 0.0
H553 H 0.05643 0.29562 0.17552 0.0
H554 H 0.03806 0.32218 0.88917 0.0
H555 H 0.99043 0.32041 0.91849 0.0
H556 H 0.1073 0.35253 0.90207 0.0
H557 H 0.14249 0.34161 0.94513 0.0
C558 C 0.76953 0.07603 0.97664 0.0
C559 C 0.77854 0.09376 0.03263 0.0
C560 C 0.72135 0.02076 0.0711 0.0
C561 C 0.71029 1.00303 0.0143 0.0
N562 N 0.71631 0.01791 0.91286 0.0
N563 N 0.75682 0.08748 0.13113 0.0
C564 C 0.73223 0.03191 0.96691 0.0
C565 C 0.75228 0.06747 0.07912 0.0
N566 N 0.79764 0.101 0.93315 0.0
N567 N 0.70509 0.99306 0.11779 0.0
H568 H 0.7801 0.12149 0.13852 0.0
H569 H 0.7348 0.07161 0.16523 0.0
H570 H 0.68286 0.95853 0.11602 0.0
H571 H 0.71697 0.00375 0.15907 0.0
H572 H 0.79586 0.08838 0.89213 0.0
H573 H 0.82515 0.13337 0.93962 0.0
H574 H 0.72845 0.03896 0.87725 0.0
H575 H 0.6877 0.98671 0.90435 0.0
C576 C 0.68748 0.75068 0.07729 0.0
C577 C 0.69009 0.77638 0.02878 0.0
C578 C 0.71027 0.73008 0.96903 0.0
C579 C 0.71411 0.7085 0.01894 0.0
N580 N 0.70949 0.701 0.12235 0.0
N581 N 0.70508 0.79314 0.92908 0.0
C582 C 0.70289 0.71897 0.07356 0.0
C583 C 0.70155 0.7666 0.97467 0.0
N584 N 0.66996 0.75666 0.12698 0.0
N585 N 0.7133 0.71453 0.9163 0.0
H586 H 0.69746 0.81916 0.93212 0.0
H587 H 0.718 0.79125 0.88947 0.0
H588 H 0.71808 0.68687 0.91065 0.0
H589 H 0.70684 0.7261 0.87831 0.0
H590 H 0.66215 0.7356 0.16241 0.0
H591 H 0.65954 0.78056 0.13113 0.0
H592 H 0.70781 0.71221 0.16318 0.0
H593 H 0.71974 0.67701 0.12294 0.0
C594 C 0.93815 0.70272 0.99236 0.0
C595 C 0.91785 0.68997 0.04698 0.0
C596 C 0.98936 0.70302 0.08797 0.0
C597 C 0.00975 0.71415 0.03256 0.0
N598 N 0.99954 0.71269 0.93031 0.0
N599 N 0.91955 0.66604 0.14277 0.0
C600 C 0.98295 0.71058 0.98414 0.0
C601 C 0.94211 0.68637 0.09351 0.0
N602 N 0.91486 0.70841 0.94879 0.0
N603 N 0.01506 0.71066 0.1359 0.0
H604 H 0.88477 0.65318 0.1477 0.0
H605 H 0.93423 0.65785 0.1763 0.0
H606 H 0.0498 0.7232 0.13545 0.0
H607 H 1.00242 0.70826 0.17711 0.0
H608 H 0.92933 0.7222 0.90933 0.0
H609 H 0.88185 0.70241 0.95373 0.0
H610 H 0.98009 0.7062 0.89355 0.0
H611 H 0.03129 0.71617 0.92251 0.0
C612 C 0.07594 0.76196 0.52314 0.0
C613 C 0.09485 0.77182 0.46762 0.0
C614 C 0.02215 0.71615 0.42671 0.0
C615 C 1.00312 0.70462 0.48286 0.0
N616 N 0.01604 0.70803 0.58467 0.0
N617 N 0.09038 0.75062 0.36906 0.0
C618 C 0.03126 0.72507 0.53124 0.0
C619 C 0.06927 0.74639 0.42026 0.0
N620 N 0.10027 0.78884 0.56778 0.0
N621 N 0.99544 0.70072 0.37914 0.0
H622 H 0.12491 0.77271 0.36293 0.0
H623 H 0.07481 0.72912 0.33455 0.0
H624 H 0.96083 0.6783 0.37968 0.0
H625 H 0.00719 0.71325 0.33829 0.0
H626 H 0.08671 0.78641 0.60842 0.0
H627 H 0.13312 0.816 0.56292 0.0
H628 H 0.03649 0.719 0.62084 0.0
H629 H 0.98446 0.67956 0.59205 0.0
C630 C 0.31362 0.06969 0.51916 0.0
C631 C 0.32497 0.0885 0.46372 0.0
C632 C 0.30959 0.01586 0.42428 0.0
C633 C 0.29882 0.99663 0.48027 0.0
N634 N 0.30227 0.00854 0.58227 0.0
N635 N 0.34516 0.08413 0.36678 0.0
C636 C 0.30427 0.02456 0.52821 0.0
C637 C 0.32664 0.06294 0.4174 0.0
N638 N 0.31047 0.09467 0.56267 0.0
N639 N 0.30107 0.98918 0.37708 0.0
H640 H 0.35736 0.11858 0.36053 0.0
H641 H 0.35238 0.06876 0.33308 0.0
H642 H 0.28895 0.95462 0.37848 0.0
H643 H 0.30269 1.0008 0.33553 0.0
H644 H 0.29772 0.08155 0.60298 0.0
H645 H 0.31791 0.12803 0.55712 0.0
H646 H 0.31008 0.02858 0.61869 0.0
H647 H 0.29725 0.97632 0.59047 0.0
C648 C 0.23909 0.28493 0.43427 0.0
C649 C 0.2432 0.32825 0.43465 0.0
C650 C 0.32239 0.36086 0.46538 0.0
C651 C 0.31485 0.31648 0.47605 0.0
N652 N 0.2626 0.23581 0.47683 0.0
N653 N 0.29768 0.4051 0.41137 0.0
C654 C 0.2722 0.27842 0.46224 0.0
C655 C 0.28744 0.36612 0.43957 0.0
N656 N 0.20844 0.25212 0.39916 0.0
N657 N 0.36263 0.39811 0.4794 0.0
H658 H 0.27472 0.40675 0.38339 0.0
H659 H 0.33028 0.43286 0.40853 0.0
H660 H 0.39002 0.39653 0.49621 0.0
H661 H 0.36762 0.43082 0.47834 0.0
H662 H 0.20634 0.22077 0.39402 0.0
H663 H 0.19145 0.25955 0.36772 0.0
H664 H 0.23048 0.2076 0.47171 0.0
H665 H 0.28511 0.2294 0.49937 0.0
C666 C 0.97421 0.29103 0.53391 0.0
C667 C 0.99944 0.3176 0.48626 0.0
C668 C 0.93993 0.26416 0.42116 0.0
C669 C 0.91413 0.23917 0.46888 0.0
N670 N 0.90292 0.22964 0.57006 0.0
N671 N 1.00459 0.3318 0.38426 0.0
C672 C 0.9302 0.25304 0.52512 0.0
C673 C 0.982 0.30458 0.42972 0.0
N674 N 0.99333 0.3006 0.58707 0.0
N675 N 0.92392 0.24888 0.36742 0.0
H676 H 0.03643 0.36035 0.38716 0.0
H677 H 0.99098 0.32774 0.34352 0.0
H678 H 0.89156 0.22175 0.35977 0.0
H679 H 0.94308 0.26145 0.33033 0.0
H680 H 0.97878 0.28004 0.62262 0.0
H681 H 0.02572 0.32748 0.59517 0.0
H682 H 0.90966 0.24047 0.61229 0.0
H683 H 0.87181 0.20021 0.56441 0.0
C684 C 0.68437 0.97662 0.42132 0.0
C685 C 0.68387 0.99469 0.47614 0.0
C686 C 0.67528 0.92587 0.52168 0.0
C687 C 0.67882 0.90959 0.4675 0.0
N688 N 0.6905 0.91948 0.36626 0.0
N689 N 0.68637 0.98958 0.57908 0.0
C690 C 0.68471 0.93516 0.41751 0.0
C691 C 0.68107 0.97002 0.52655 0.0
N692 N 0.68205 0.99767 0.37277 0.0
N693 N 0.66599 0.89867 0.56846 0.0
H694 H 0.69127 0.02192 0.5851 0.0
H695 H 0.68976 0.97538 0.61676 0.0
H696 H 0.66412 0.86723 0.56655 0.0
H697 H 0.65728 0.90576 0.60825 0.0
H698 H 0.67671 0.98345 0.33221 0.0
H699 H 0.68199 0.0281 0.37274 0.0
H700 H 0.7006 0.93862 0.32894 0.0
H701 H 0.68781 0.88784 0.36167 0.0
C702 C 0.72556 0.69401 0.54238 0.0
C703 C 0.70816 0.70678 0.49513 0.0
C704 C 0.7594 0.69627 0.43048 0.0
C705 C 0.77831 0.68598 0.47801 0.0
N706 N 0.78444 0.68042 0.57938 0.0
N707 N 0.70441 0.71386 0.39206 0.0
C708 C 0.76245 0.6859 0.53402 0.0
C709 C 0.72391 0.70619 0.43862 0.0
N710 N 0.7051 0.68718 0.59464 0.0
N711 N 0.77705 0.69861 0.37729 0.0
H712 H 0.68272 0.72691 0.39381 0.0
H713 H 0.70819 0.70552 0.35044 0.0
H714 H 0.79842 0.68585 0.36788 0.0
H715 H 0.77211 0.71472 0.34262 0.0
H716 H 0.71299 0.67355 0.62956 0.0
H717 H 0.67706 0.69115 0.60197 0.0
H718 H 0.77824 0.68482 0.62178 0.0
H719 H 0.81168 0.67478 0.57441 0.0
C720 C 0.46615 0.27341 0.26192 0.0
C721 C 0.45952 0.24709 0.3117 0.0
C722 C 0.46765 0.19205 0.25227 0.0
C723 C 0.46198 0.21209 0.2022 0.0
N724 N 0.45512 0.27352 0.16019 0.0
N725 N 0.45282 0.17878 0.35329 0.0
C726 C 0.46197 0.25376 0.20694 0.0
C727 C 0.4609 0.20613 0.30697 0.0
N728 N 0.47698 0.31758 0.26732 0.0
N729 N 0.47977 0.15956 0.24739 0.0
H730 H 0.44781 0.18677 0.39443 0.0
H731 H 0.44775 0.14611 0.35008 0.0
H732 H 0.4863 0.14971 0.20789 0.0
H733 H 0.48839 0.14645 0.28228 0.0
H734 H 0.48624 0.33977 0.23284 0.0
H735 H 0.48185 0.33328 0.30703 0.0
H736 H 0.44859 0.30022 0.16313 0.0
H737 H 0.45306 0.26203 0.11868 0.0
C738 C 0.19525 0.42994 0.20618 0.0
C739 C 0.24277 0.45216 0.20089 0.0
C740 C 0.2475 0.47815 0.29984 0.0
C741 C 0.20056 0.44585 0.30847 0.0
N742 N 0.13665 0.37802 0.26791 0.0
N743 N 0.31555 0.49596 0.24574 0.0
C744 C 0.17596 0.41816 0.26114 0.0
C745 C 0.2695 0.47564 0.24887 0.0
N746 N 0.1683 0.41936 0.15935 0.0
N747 N 0.27068 0.51233 0.3379 0.0
H748 H 0.3324 0.49662 0.20811 0.0
H749 H 0.33637 0.50967 0.28133 0.0
H750 H 0.25508 0.51914 0.37169 0.0
H751 H 0.30408 0.53776 0.3311 0.0
H752 H 0.13316 0.40463 0.16255 0.0
H753 H 0.18171 0.43231 0.11931 0.0
H754 H 0.11895 0.35782 0.23334 0.0
H755 H 0.12661 0.36057 0.30646 0.0
C756 C 0.75928 0.20281 0.20062 0.0
C757 C 0.80113 0.24445 0.19714 0.0
C758 C 0.80455 0.24868 0.30189 0.0
C759 C 0.76298 0.20676 0.30542 0.0
N760 N 0.69361 0.15403 0.25859 0.0
N761 N 0.85333 0.31407 0.24389 0.0
C762 C 0.73803 0.1872 0.25481 0.0
C763 C 0.8204 0.26961 0.24768 0.0
N764 N 0.74084 0.17641 0.1534 0.0
N765 N 0.83059 0.26768 0.34919 0.0
H766 H 0.86436 0.33093 0.20487 0.0
H767 H 0.86573 0.33541 0.2792 0.0
H768 H 0.82046 0.25564 0.39031 0.0
H769 H 0.86391 0.29428 0.34706 0.0
H770 H 0.71356 0.1435 0.15545 0.0
H771 H 0.75449 0.18527 0.11265 0.0
H772 H 0.67231 0.14138 0.22328 0.0
H773 H 0.67671 0.14301 0.29764 0.0
C774 C 0.62611 0.82314 0.22839 0.0
C775 C 0.58494 0.81269 0.20019 0.0
C776 C 0.54186 0.75737 0.2764 0.0
C777 C 0.58308 0.76796 0.30427 0.0
N778 N 0.66523 0.80633 0.301 0.0
N779 N 0.5035 0.77667 0.20351 0.0
C780 C 0.62522 0.79957 0.27875 0.0
C781 C 0.54274 0.78134 0.22567 0.0
N782 N 0.66677 0.85719 0.20887 0.0
N783 N 0.50198 0.72237 0.29644 0.0
H784 H 0.50278 0.79456 0.16783 0.0
H785 H 0.47202 0.75846 0.22324 0.0
H786 H 0.50008 0.70344 0.33236 0.0
H787 H 0.47129 0.70923 0.2749 0.0
H788 H 0.69596 0.8729 0.23374 0.0
H789 H 0.67174 0.87203 0.16913 0.0
H790 H 0.69547 0.82047 0.27799 0.0
H791 H 0.66878 0.7963 0.34138 0.0
C792 C 0.80377 0.53926 0.26318 0.0
C793 C 0.79924 0.56167 0.31149 0.0
C794 C 0.7643 0.59401 0.25209 0.0
C795 C 0.76329 0.56762 0.20411 0.0
N796 N 0.76856 0.50185 0.17474 0.0
N797 N 0.75564 0.59224 0.35417 0.0
C798 C 0.7791 0.5362 0.21247 0.0
C799 C 0.77255 0.58253 0.30688 0.0
N800 N 0.83059 0.5201 0.26584 0.0
N801 N 0.76194 0.6326 0.24623 0.0
H802 H 0.7583 0.58137 0.39468 0.0
H803 H 0.73334 0.6048 0.35146 0.0
H804 H 0.7684 0.65042 0.20816 0.0
H805 H 0.7625 0.65176 0.28107 0.0
H806 H 0.83847 0.50722 0.22994 0.0
H807 H 0.84694 0.51964 0.3033 0.0
H808 H 0.77751 0.47712 0.18147 0.0
H809 H 0.74523 0.49376 0.14191 0.0
C810 C 0.25142 0.8006 0.20689 0.0
C811 C 0.20941 0.75917 0.2033 0.0
C812 C 0.20578 0.75413 0.30794 0.0
C813 C 0.24762 0.79577 0.31145 0.0
N814 N 0.31742 0.848 0.26454 0.0
N815 N 0.15674 0.68928 0.24939 0.0
C816 C 0.27275 0.81549 0.26092 0.0
C817 C 0.18995 0.73358 0.2536 0.0
N818 N 0.27005 0.82747 0.16001 0.0
N819 N 0.17944 0.7352 0.35526 0.0
H820 H 0.14558 0.67285 0.21018 0.0
H821 H 0.14423 0.66758 0.28441 0.0
H822 H 0.18812 0.74857 0.3961 0.0
H823 H 0.14656 0.70784 0.35325 0.0
H824 H 0.29737 0.86034 0.16245 0.0
H825 H 0.25661 0.81903 0.11923 0.0
H826 H 0.33866 0.86065 0.22904 0.0
H827 H 0.3345 0.85833 0.30344 0.0
C828 C 0.60373 0.79462 0.72322 0.0
C829 C 0.56179 0.76421 0.69701 0.0
C830 C 0.52112 0.77214 0.77912 0.0
C831 C 0.56301 0.79878 0.80762 0.0
N832 N 0.64372 0.82752 0.81136 0.0
N833 N 0.48053 0.71832 0.70348 0.0
C834 C 0.60423 0.80785 0.78093 0.0
C835 C 0.5204 0.75137 0.72596 0.0
N836 N 0.64307 0.8123 0.69236 0.0
N837 N 0.48219 0.76781 0.80203 0.0
H838 H 0.47881 0.70223 0.66488 0.0
H839 H 0.44977 0.70411 0.7253 0.0
H840 H 0.48154 0.78279 0.84062 0.0
H841 H 0.45134 0.75279 0.78056 0.0
H842 H 0.67386 0.83842 0.70732 0.0
H843 H 0.64432 0.80399 0.64977 0.0
H844 H 0.67376 0.83028 0.79603 0.0
H845 H 0.64565 0.83723 0.85398 0.0
C846 C 0.78576 0.52564 0.73031 0.0
C847 C 0.81405 0.56688 0.70133 0.0
C848 C 0.81243 0.60929 0.785 0.0
C849 C 0.77963 0.56823 0.81096 0.0
N850 N 0.72948 0.48762 0.80443 0.0
N851 N 0.84718 0.6481 0.69679 0.0
C852 C 0.76477 0.52639 0.78257 0.0
C853 C 0.82556 0.60882 0.7275 0.0
N854 N 0.77979 0.48588 0.70847 0.0
N855 N 0.83225 0.64856 0.8158 0.0
H856 H 0.85692 0.64944 0.65425 0.0
H857 H 0.8517 0.67881 0.71192 0.0
H858 H 0.82423 0.65034 0.8584 0.0
H859 H 0.85976 0.67842 0.80081 0.0
H860 H 0.76317 0.45528 0.73043 0.0
H861 H 0.79522 0.48425 0.67068 0.0
H862 H 0.71413 0.45694 0.78261 0.0
H863 H 0.71274 0.48697 0.8421 0.0
C864 C 0.20767 0.81254 0.72846 0.0
C865 C 0.23932 0.80234 0.70261 0.0
C866 C 0.23049 0.75267 0.78335 0.0
C867 C 0.20311 0.76707 0.81209 0.0
N868 N 0.17391 0.81867 0.81665 0.0
N869 N 0.28753 0.76951 0.71065 0.0
C870 C 0.19397 0.79926 0.78597 0.0
C871 C 0.25267 0.77433 0.7316 0.0
N872 N 0.18915 0.83325 0.69752 0.0
N873 N 0.2342 0.71735 0.80456 0.0
H874 H 0.30529 0.78573 0.6736 0.0
H875 H 0.30169 0.75315 0.7329 0.0
H876 H 0.21756 0.69997 0.84162 0.0
H877 H 0.25003 0.70249 0.7825 0.0
H878 H 0.16237 0.83702 0.7125 0.0
H879 H 0.19737 0.84273 0.6549 0.0
H880 H 0.17099 0.8458 0.80147 0.0
H881 H 0.16416 0.81075 0.85925 0.0
C882 C 0.42291 0.23691 0.80405 0.0
C883 C 0.42501 0.19684 0.81329 0.0
C884 C 0.42254 0.18437 0.70961 0.0
C885 C 0.42431 0.22637 0.70032 0.0
N886 N 0.43259 0.29587 0.73784 0.0
N887 N 0.43327 0.13562 0.77557 0.0
C888 C 0.42633 0.25359 0.74737 0.0
C889 C 0.42667 0.17146 0.7662 0.0
N890 N 0.41601 0.25816 0.84932 0.0
N891 N 0.41532 0.15607 0.66449 0.0
H892 H 0.43589 0.12489 0.8164 0.0
H893 H 0.43975 0.11874 0.74308 0.0
H894 H 0.41252 0.16444 0.62243 0.0
H895 H 0.40848 0.1229 0.66907 0.0
H896 H 0.40892 0.28436 0.8449 0.0
H897 H 0.41374 0.24726 0.89145 0.0
H898 H 0.4393 0.31933 0.77018 0.0
H899 H 0.43467 0.30894 0.69696 0.0
C900 C 0.2334 0.39319 0.77999 0.0
C901 C 0.25543 0.43524 0.80936 0.0
C902 C 0.2381 0.47076 0.72966 0.0
C903 C 0.22034 0.42992 0.69793 0.0
N904 N 0.21326 0.35615 0.68796 0.0
N905 N 0.28909 0.51637 0.80492 0.0
C906 C 0.22173 0.39228 0.72155 0.0
C907 C 0.26108 0.4748 0.78183 0.0
N908 N 0.22124 0.35372 0.80829 0.0
N909 N 0.23115 0.50492 0.71174 0.0
H910 H 0.30768 0.52069 0.84209 0.0
H911 H 0.29752 0.5465 0.78392 0.0
H912 H 0.21261 0.50263 0.67527 0.0
H913 H 0.23966 0.53353 0.73635 0.0
H914 H 0.20107 0.32203 0.7899 0.0
H915 H 0.22714 0.35227 0.85168 0.0
H916 H 0.21796 0.3298 0.70203 0.0
H917 H 0.20642 0.35491 0.64438 0.0
C918 C 0.77995 0.24869 0.77719 0.0
C919 C 0.80561 0.23307 0.80759 0.0
C920 C 0.80569 0.1917 0.72252 0.0
C921 C 0.77363 0.20073 0.69562 0.0
N922 N 0.72101 0.22851 0.70708 0.0
N923 N 0.82853 0.17634 0.81289 0.0
C924 C 0.75795 0.22655 0.72574 0.0
C925 C 0.81418 0.2005 0.78147 0.0
N926 N 0.77784 0.28553 0.79573 0.0
N927 N 0.82979 0.17669 0.69193 0.0
H928 H 0.83151 0.17874 0.85719 0.0
H929 H 0.83183 0.14995 0.79551 0.0
H930 H 0.82773 0.17327 0.6477 0.0
H931 H 0.85585 0.17316 0.70996 0.0
H932 H 0.76234 0.29995 0.77209 0.0
H933 H 0.79593 0.30463 0.83099 0.0
H934 H 0.70659 0.24418 0.73048 0.0
H935 H 0.70175 0.21003 0.67212 0.0
loop_
_geom_bond_atom_site_label_1
_geom_bond_atom_site_label_2
_geom_bond_distance
_geom_bond_site_symmetry_2
_ccdc_geom_bond_type
Co0 N4 2.148 . S
Co0 N10 2.128 . S
Co0 N20 2.194 1_554 S
Co0 O25 2.351 . S
Co0 O26 2.155 . S
Co0 O27 2.096 . S
C1 N4 1.301 . S
C1 N5 1.328 . S
C1 H6 0.930 . S
C2 C3 1.333 . S
C2 N4 1.317 . S
C2 H7 0.930 . S
C3 C2 1.333 . S
C3 N5 1.350 . S
C3 H29 0.931 . S
N4 Co0 2.148 . S
N4 C1 1.301 . S
N4 C2 1.317 . S
N5 C1 1.328 . S
N5 C3 1.350 . S
H6 C1 0.930 . S
H7 C2 0.930 . S
C8 O9 1.224 1_554 S
C8 O27 1.247 . S
O9 C8 1.224 1_556 S
N10 Co0 2.128 . S
N10 C11 1.355 . S
N10 C13 1.311 . S
C11 N10 1.355 . S
C11 C12 1.363 . S
C11 H23 0.929 . S
C12 C11 1.363 . S
C12 N14 1.375 . S
C12 H30 0.931 . S
C13 N10 1.311 . S
C13 N14 1.347 . S
C13 H24 0.929 . S
N14 C12 1.375 . S
N14 C13 1.347 . S
C15 C18 1.365 . S
C15 N20 1.328 . S
C15 H21 0.929 1_556 S
C16 C17 1.362 . S
C16 C19 1.378 . S
C16 H31 0.929 . S
C17 C16 1.362 . S
C17 C18 1.366 . S
C18 C15 1.365 . S
C18 C17 1.366 . S
C18 H32 0.930 . S
C19 C16 1.378 . S
C19 N20 1.315 . S
C19 H22 0.930 . S
N20 Co0 2.194 1_556 S
N20 C15 1.328 . S
N20 C19 1.315 . S
H21 C15 0.929 1_554 S
H22 C19 0.930 . S
H23 C11 0.929 . S
H24 C13 0.929 . S
O25 Co0 2.351 . S
O25 C28 1.244 . S
O26 Co0 2.155 . S
O26 C28 1.240 . S
O27 Co0 2.096 . S
O27 C8 1.247 . S
C28 O25 1.244 . S
C28 O26 1.240 . S
H29 C3 0.931 . S
H30 C12 0.931 . S
H31 C16 0.929 . S
H32 C18 0.930 . S
Co33 N37 2.148 . S
Co33 N43 2.128 . S
Co33 N53 2.194 1_554 S
Co33 O58 2.351 . S
Co33 O59 2.155 . S
Co33 O60 2.096 . S
C34 N37 1.301 . S
C34 N38 1.328 . S
C34 H39 0.930 . S
C35 C36 1.333 . S
C35 N37 1.317 . S
C35 H40 0.930 . S
C36 C35 1.333 . S
C36 N38 1.350 . S
C36 H62 0.931 . S
N37 Co33 2.148 . S
N37 C34 1.301 . S
N37 C35 1.317 . S
N38 C34 1.328 . S
N38 C36 1.350 . S
H39 C34 0.930 . S
H40 C35 0.930 . S
C41 O42 1.224 1_554 S
C41 O60 1.247 . S
O42 C41 1.224 1_556 S
N43 Co33 2.128 . S
N43 C44 1.355 . S
N43 C46 1.311 . S
C44 N43 1.355 . S
C44 C45 1.363 . S
C44 H56 0.929 . S
C45 C44 1.363 . S
C45 N47 1.375 . S
C45 H63 0.931 . S
C46 N43 1.311 . S
C46 N47 1.347 . S
C46 H57 0.929 . S
N47 C45 1.375 . S
N47 C46 1.347 . S
C48 C51 1.365 . S
C48 N53 1.328 . S
C48 H54 0.929 1_556 S
C49 C50 1.362 . S
C49 C52 1.378 . S
C49 H64 0.929 . S
C50 C49 1.362 . S
C50 C51 1.366 . S
C51 C48 1.365 . S
C51 C50 1.366 . S
C51 H65 0.930 . S
C52 C49 1.378 . S
C52 N53 1.315 . S
C52 H55 0.930 . S
N53 Co33 2.194 1_556 S
N53 C48 1.328 . S
N53 C52 1.315 . S
H54 C48 0.929 1_554 S
H55 C52 0.930 . S
H56 C44 0.929 . S
H57 C46 0.929 . S
O58 Co33 2.351 . S
O58 C61 1.244 . S
O59 Co33 2.155 . S
O59 C61 1.240 . S
O60 Co33 2.096 . S
O60 C41 1.247 . S
C61 O58 1.244 . S
C61 O59 1.240 . S
H62 C36 0.931 . S
H63 C45 0.931 . S
H64 C49 0.929 . S
H65 C51 0.930 . S
Co66 N70 2.148 . S
Co66 N76 2.128 . S
Co66 N86 2.194 1_554 S
Co66 O91 2.351 . S
Co66 O92 2.155 . S
Co66 O93 2.096 . S
C67 N70 1.301 . S
C67 N71 1.328 . S
C67 H72 0.930 . S
C68 C69 1.333 . S
C68 N70 1.317 . S
C68 H73 0.930 . S
C69 C68 1.333 . S
C69 N71 1.350 . S
C69 H95 0.931 . S
N70 Co66 2.148 . S
N70 C67 1.301 . S
N70 C68 1.317 . S
N71 C67 1.328 . S
N71 C69 1.350 . S
H72 C67 0.930 . S
H73 C68 0.930 . S
C74 O75 1.224 1_554 S
C74 O93 1.247 . S
O75 C74 1.224 1_556 S
N76 Co66 2.128 . S
N76 C77 1.355 . S
N76 C79 1.311 . S
C77 N76 1.355 . S
C77 C78 1.363 . S
C77 H89 0.929 . S
C78 C77 1.363 . S
C78 N80 1.375 . S
C78 H96 0.931 . S
C79 N76 1.311 . S
C79 N80 1.347 . S
C79 H90 0.929 . S
N80 C78 1.375 . S
N80 C79 1.347 . S
C81 C84 1.365 . S
C81 N86 1.328 . S
C81 H87 0.929 1_556 S
C82 C83 1.362 . S
C82 C85 1.378 . S
C82 H97 0.929 . S
C83 C82 1.362 . S
C83 C84 1.366 . S
C84 C81 1.365 . S
C84 C83 1.366 . S
C84 H98 0.930 . S
C85 C82 1.378 . S
C85 N86 1.315 . S
C85 H88 0.930 . S
N86 Co66 2.194 1_556 S
N86 C81 1.328 . S
N86 C85 1.315 . S
H87 C81 0.929 1_554 S
H88 C85 0.930 . S
H89 C77 0.929 . S
H90 C79 0.929 . S
O91 Co66 2.351 . S
O91 C94 1.244 . S
O92 Co66 2.155 . S
O92 C94 1.240 . S
O93 Co66 2.096 . S
O93 C74 1.247 . S
C94 O91 1.244 . S
C94 O92 1.240 . S
H95 C69 0.931 . S
H96 C78 0.931 . S
H97 C82 0.929 . S
H98 C84 0.930 . S
Co99 N103 2.148 . S
Co99 N109 2.128 . S
Co99 N119 2.194 1_554 S
Co99 O124 2.351 . S
Co99 O125 2.155 . S
Co99 O126 2.096 . S
C100 N103 1.301 . S
C100 N104 1.328 . S
C100 H105 0.930 . S
C101 C102 1.333 . S
C101 N103 1.317 . S
C101 H106 0.930 . S
C102 C101 1.333 . S
C102 N104 1.350 . S
C102 H128 0.931 . S
N103 Co99 2.148 . S
N103 C100 1.301 . S
N103 C101 1.317 . S
N104 C100 1.328 . S
N104 C102 1.350 . S
H105 C100 0.930 . S
H106 C101 0.930 . S
C107 O108 1.224 1_554 S
C107 O126 1.247 . S
O108 C107 1.224 1_556 S
N109 Co99 2.128 . S
N109 C110 1.355 . S
N109 C112 1.311 . S
C110 N109 1.355 . S
C110 C111 1.363 . S
C110 H122 0.929 . S
C111 C110 1.363 . S
C111 N113 1.375 . S
C111 H129 0.931 . S
C112 N109 1.311 . S
C112 N113 1.347 . S
C112 H123 0.929 . S
N113 C111 1.375 . S
N113 C112 1.347 . S
C114 C117 1.365 . S
C114 N119 1.328 . S
C114 H120 0.929 1_556 S
C115 C116 1.362 . S
C115 C118 1.378 . S
C115 H130 0.929 . S
C116 C115 1.362 . S
C116 C117 1.366 . S
C117 C114 1.365 . S
C117 C116 1.366 . S
C117 H131 0.930 . S
C118 C115 1.378 . S
C118 N119 1.315 . S
C118 H121 0.930 . S
N119 Co99 2.194 1_556 S
N119 C114 1.328 . S
N119 C118 1.315 . S
H120 C114 0.929 1_554 S
H121 C118 0.930 . S
H122 C110 0.929 . S
H123 C112 0.929 . S
O124 Co99 2.351 . S
O124 C127 1.244 . S
O125 Co99 2.155 . S
O125 C127 1.240 . S
O126 Co99 2.096 . S
O126 C107 1.247 . S
C127 O124 1.244 . S
C127 O125 1.240 . S
H128 C102 0.931 . S
H129 C111 0.931 . S
H130 C115 0.929 . S
H131 C117 0.930 . S
Co132 N136 2.148 . S
Co132 N142 2.128 . S
Co132 N152 2.194 1_554 S
Co132 O157 2.351 . S
Co132 O158 2.155 . S
Co132 O159 2.096 . S
C133 N136 1.301 . S
C133 N137 1.328 . S
C133 H138 0.930 . S
C134 C135 1.333 . S
C134 N136 1.317 . S
C134 H139 0.930 . S
C135 C134 1.333 . S
C135 N137 1.350 . S
C135 H161 0.931 . S
N136 Co132 2.148 . S
N136 C133 1.301 . S
N136 C134 1.317 . S
N137 C133 1.328 . S
N137 C135 1.350 . S
H138 C133 0.930 . S
H139 C134 0.930 . S
C140 O141 1.224 1_554 S
C140 O159 1.247 . S
O141 C140 1.224 1_556 S
N142 Co132 2.128 . S
N142 C143 1.355 . S
N142 C145 1.311 . S
C143 N142 1.355 . S
C143 C144 1.363 . S
C143 H155 0.929 . S
C144 C143 1.363 . S
C144 N146 1.375 . S
C144 H162 0.931 . S
C145 N142 1.311 . S
C145 N146 1.347 . S
C145 H156 0.929 . S
N146 C144 1.375 . S
N146 C145 1.347 . S
C147 C150 1.365 . S
C147 N152 1.328 . S
C147 H153 0.929 1_556 S
C148 C149 1.362 . S
C148 C151 1.378 . S
C148 H163 0.929 . S
C149 C148 1.362 . S
C149 C150 1.366 . S
C150 C147 1.365 . S
C150 C149 1.366 . S
C150 H164 0.930 . S
C151 C148 1.378 . S
C151 N152 1.315 . S
C151 H154 0.930 . S
N152 Co132 2.194 1_556 S
N152 C147 1.328 . S
N152 C151 1.315 . S
H153 C147 0.929 1_554 S
H154 C151 0.930 . S
H155 C143 0.929 . S
H156 C145 0.929 . S
O157 Co132 2.351 . S
O157 C160 1.244 . S
O158 Co132 2.155 . S
O158 C160 1.240 . S
O159 Co132 2.096 . S
O159 C140 1.247 . S
C160 O157 1.244 . S
C160 O158 1.240 . S
H161 C135 0.931 . S
H162 C144 0.931 . S
H163 C148 0.929 . S
H164 C150 0.930 . S
Co165 N169 2.148 . S
Co165 N175 2.128 . S
Co165 N185 2.194 1_554 S
Co165 O190 2.351 . S
Co165 O191 2.155 . S
Co165 O192 2.096 . S
C166 N169 1.301 . S
C166 N170 1.328 . S
C166 H171 0.930 . S
C167 C168 1.333 . S
C167 N169 1.317 . S
C167 H172 0.930 . S
C168 C167 1.333 . S
C168 N170 1.350 . S
C168 H194 0.931 . S
N169 Co165 2.148 . S
N169 C166 1.301 . S
N169 C167 1.317 . S
N170 C166 1.328 . S
N170 C168 1.350 . S
H171 C166 0.930 . S
H172 C167 0.930 . S
C173 O174 1.224 1_554 S
C173 O192 1.247 . S
O174 C173 1.224 1_556 S
N175 Co165 2.128 . S
N175 C176 1.355 . S
N175 C178 1.311 . S
C176 N175 1.355 . S
C176 C177 1.363 . S
C176 H188 0.929 . S
C177 C176 1.363 . S
C177 N179 1.375 . S
C177 H195 0.931 . S
C178 N175 1.311 . S
C178 N179 1.347 . S
C178 H189 0.929 . S
N179 C177 1.375 . S
N179 C178 1.347 . S
C180 C183 1.365 . S
C180 N185 1.328 . S
C180 H186 0.929 1_556 S
C181 C182 1.362 . S
C181 C184 1.378 . S
C181 H196 0.929 . S
C182 C181 1.362 . S
C182 C183 1.366 . S
C183 C180 1.365 . S
C183 C182 1.366 . S
C183 H197 0.930 . S
C184 C181 1.378 . S
C184 N185 1.315 . S
C184 H187 0.930 . S
N185 Co165 2.194 1_556 S
N185 C180 1.328 . S
N185 C184 1.315 . S
H186 C180 0.929 1_554 S
H187 C184 0.930 . S
H188 C176 0.929 . S
H189 C178 0.929 . S
O190 Co165 2.351 . S
O190 C193 1.244 . S
O191 Co165 2.155 . S
O191 C193 1.240 . S
O192 Co165 2.096 . S
O192 C173 1.247 . S
C193 O190 1.244 . S
C193 O191 1.240 . S
H194 C168 0.931 . S
H195 C177 0.931 . S
H196 C181 0.929 . S
H197 C183 0.930 . S
Co198 N202 2.148 . S
Co198 N208 2.128 . S
Co198 N218 2.194 . S
Co198 O223 2.351 . S
Co198 O224 2.155 . S
Co198 O225 2.096 . S
C199 N202 1.301 . S
C199 N203 1.328 . S
C199 H204 0.930 . S
C200 C201 1.333 . S
C200 N202 1.317 . S
C200 H205 0.930 . S
C201 C200 1.333 . S
C201 N203 1.350 . S
C201 H227 0.931 . S
N202 Co198 2.148 . S
N202 C199 1.301 . S
N202 C200 1.317 . S
N203 C199 1.328 . S
N203 C201 1.350 . S
H204 C199 0.930 . S
H205 C200 0.930 . S
C206 O207 1.224 . S
C206 O225 1.247 . S
O207 C206 1.224 . S
N208 Co198 2.128 . S
N208 C209 1.355 . S
N208 C211 1.311 . S
C209 N208 1.355 . S
C209 C210 1.363 . S
C209 H221 0.929 . S
C210 C209 1.363 . S
C210 N212 1.375 . S
C210 H228 0.931 . S
C211 N208 1.311 . S
C211 N212 1.347 . S
C211 H222 0.929 . S
N212 C210 1.375 . S
N212 C211 1.347 . S
C213 C216 1.365 . S
C213 N218 1.328 . S
C213 H219 0.929 . S
C214 C215 1.362 . S
C214 C217 1.378 . S
C214 H229 0.929 . S
C215 C214 1.362 . S
C215 C216 1.366 . S
C216 C213 1.365 . S
C216 C215 1.366 . S
C216 H230 0.930 . S
C217 C214 1.378 . S
C217 N218 1.315 . S
C217 H220 0.930 . S
N218 Co198 2.194 . S
N218 C213 1.328 . S
N218 C217 1.315 . S
H219 C213 0.929 . S
H220 C217 0.930 . S
H221 C209 0.929 . S
H222 C211 0.929 . S
O223 Co198 2.351 . S
O223 C226 1.244 . S
O224 Co198 2.155 . S
O224 C226 1.240 . S
O225 Co198 2.096 . S
O225 C206 1.247 . S
C226 O223 1.244 . S
C226 O224 1.240 . S
H227 C201 0.931 . S
H228 C210 0.931 . S
H229 C214 0.929 . S
H230 C216 0.930 . S
Co231 N235 2.148 . S
Co231 N241 2.128 . S
Co231 N251 2.194 . S
Co231 O256 2.351 . S
Co231 O257 2.155 . S
Co231 O258 2.096 . S
C232 N235 1.301 . S
C232 N236 1.328 . S
C232 H237 0.930 . S
C233 C234 1.333 . S
C233 N235 1.317 . S
C233 H238 0.930 . S
C234 C233 1.333 . S
C234 N236 1.350 . S
C234 H260 0.931 . S
N235 Co231 2.148 . S
N235 C232 1.301 . S
N235 C233 1.317 . S
N236 C232 1.328 . S
N236 C234 1.350 . S
H237 C232 0.930 . S
H238 C233 0.930 . S
C239 O240 1.224 . S
C239 O258 1.247 . S
O240 C239 1.224 . S
N241 Co231 2.128 . S
N241 C242 1.355 . S
N241 C244 1.311 . S
C242 N241 1.355 . S
C242 C243 1.363 . S
C242 H254 0.929 . S
C243 C242 1.363 . S
C243 N245 1.375 . S
C243 H261 0.931 . S
C244 N241 1.311 . S
C244 N245 1.347 . S
C244 H255 0.929 . S
N245 C243 1.375 . S
N245 C244 1.347 . S
C246 C249 1.365 . S
C246 N251 1.328 . S
C246 H252 0.929 . S
C247 C248 1.362 . S
C247 C250 1.378 . S
C247 H262 0.929 . S
C248 C247 1.362 . S
C248 C249 1.366 . S
C249 C246 1.365 . S
C249 C248 1.366 . S
C249 H263 0.930 . S
C250 C247 1.378 . S
C250 N251 1.315 . S
C250 H253 0.930 . S
N251 Co231 2.194 . S
N251 C246 1.328 . S
N251 C250 1.315 . S
H252 C246 0.929 . S
H253 C250 0.930 . S
H254 C242 0.929 . S
H255 C244 0.929 . S
O256 Co231 2.351 . S
O256 C259 1.244 . S
O257 Co231 2.155 . S
O257 C259 1.240 . S
O258 Co231 2.096 . S
O258 C239 1.247 . S
C259 O256 1.244 . S
C259 O257 1.240 . S
H260 C234 0.931 . S
H261 C243 0.931 . S
H262 C247 0.929 . S
H263 C249 0.930 . S
Co264 N268 2.148 . S
Co264 N274 2.128 . S
Co264 N284 2.194 . S
Co264 O289 2.351 . S
Co264 O290 2.155 . S
Co264 O291 2.096 . S
C265 N268 1.301 . S
C265 N269 1.328 . S
C265 H270 0.930 . S
C266 C267 1.333 . S
C266 N268 1.317 . S
C266 H271 0.930 . S
C267 C266 1.333 . S
C267 N269 1.350 . S
C267 H293 0.931 . S
N268 Co264 2.148 . S
N268 C265 1.301 . S
N268 C266 1.317 . S
N269 C265 1.328 . S
N269 C267 1.350 . S
H270 C265 0.930 . S
H271 C266 0.930 . S
C272 O273 1.224 . S
C272 O291 1.247 . S
O273 C272 1.224 . S
N274 Co264 2.128 . S
N274 C275 1.355 . S
N274 C277 1.311 . S
C275 N274 1.355 . S
C275 C276 1.363 . S
C275 H287 0.929 . S
C276 C275 1.363 . S
C276 N278 1.375 . S
C276 H294 0.931 . S
C277 N274 1.311 . S
C277 N278 1.347 . S
C277 H288 0.929 . S
N278 C276 1.375 . S
N278 C277 1.347 . S
C279 C282 1.365 . S
C279 N284 1.328 . S
C279 H285 0.929 . S
C280 C281 1.362 . S
C280 C283 1.378 . S
C280 H295 0.929 . S
C281 C280 1.362 . S
C281 C282 1.366 . S
C282 C279 1.365 . S
C282 C281 1.366 . S
C282 H296 0.930 . S
C283 C280 1.378 . S
C283 N284 1.315 . S
C283 H286 0.930 . S
N284 Co264 2.194 . S
N284 C279 1.328 . S
N284 C283 1.315 . S
H285 C279 0.929 . S
H286 C283 0.930 . S
H287 C275 0.929 . S
H288 C277 0.929 . S
O289 Co264 2.351 . S
O289 C292 1.244 . S
O290 Co264 2.155 . S
O290 C292 1.240 . S
O291 Co264 2.096 . S
O291 C272 1.247 . S
C292 O289 1.244 . S
C292 O290 1.240 . S
H293 C267 0.931 . S
H294 C276 0.931 . S
H295 C280 0.929 . S
H296 C282 0.930 . S
Co297 N301 2.148 . S
Co297 N307 2.128 . S
Co297 N317 2.194 . S
Co297 O322 2.351 . S
Co297 O323 2.155 . S
Co297 O324 2.096 . S
C298 N301 1.301 . S
C298 N302 1.328 . S
C298 H303 0.930 . S
C299 C300 1.333 . S
C299 N301 1.317 . S
C299 H304 0.930 . S
C300 C299 1.333 . S
C300 N302 1.350 . S
C300 H326 0.931 . S
N301 Co297 2.148 . S
N301 C298 1.301 . S
N301 C299 1.317 . S
N302 C298 1.328 . S
N302 C300 1.350 . S
H303 C298 0.930 . S
H304 C299 0.930 . S
C305 O306 1.224 . S
C305 O324 1.247 . S
O306 C305 1.224 . S
N307 Co297 2.128 . S
N307 C308 1.355 . S
N307 C310 1.311 . S
C308 N307 1.355 . S
C308 C309 1.363 . S
C308 H320 0.929 . S
C309 C308 1.363 . S
C309 N311 1.375 . S
C309 H327 0.931 . S
C310 N307 1.311 . S
C310 N311 1.347 . S
C310 H321 0.929 . S
N311 C309 1.375 . S
N311 C310 1.347 . S
C312 C315 1.365 . S
C312 N317 1.328 . S
C312 H318 0.929 . S
C313 C314 1.362 . S
C313 C316 1.378 . S
C313 H328 0.929 . S
C314 C313 1.362 . S
C314 C315 1.366 . S
C315 C312 1.365 . S
C315 C314 1.366 . S
C315 H329 0.930 . S
C316 C313 1.378 . S
C316 N317 1.315 . S
C316 H319 0.930 . S
N317 Co297 2.194 . S
N317 C312 1.328 . S
N317 C316 1.315 . S
H318 C312 0.929 . S
H319 C316 0.930 . S
H320 C308 0.929 . S
H321 C310 0.929 . S
O322 Co297 2.351 . S
O322 C325 1.244 . S
O323 Co297 2.155 . S
O323 C325 1.240 . S
O324 Co297 2.096 . S
O324 C305 1.247 . S
C325 O322 1.244 . S
C325 O323 1.240 . S
H326 C300 0.931 . S
H327 C309 0.931 . S
H328 C313 0.929 . S
H329 C315 0.930 . S
Co330 N334 2.148 . S
Co330 N340 2.128 . S
Co330 N350 2.194 . S
Co330 O355 2.351 . S
Co330 O356 2.155 . S
Co330 O357 2.096 . S
C331 N334 1.301 . S
C331 N335 1.328 . S
C331 H336 0.930 . S
C332 C333 1.333 . S
C332 N334 1.317 . S
C332 H337 0.930 . S
C333 C332 1.333 . S
C333 N335 1.350 . S
C333 H359 0.931 . S
N334 Co330 2.148 . S
N334 C331 1.301 . S
N334 C332 1.317 . S
N335 C331 1.328 . S
N335 C333 1.350 . S
H336 C331 0.930 . S
H337 C332 0.930 . S
C338 O339 1.224 . S
C338 O357 1.247 . S
O339 C338 1.224 . S
N340 Co330 2.128 . S
N340 C341 1.355 . S
N340 C343 1.311 . S
C341 N340 1.355 . S
C341 C342 1.363 . S
C341 H353 0.929 . S
C342 C341 1.363 . S
C342 N344 1.375 . S
C342 H360 0.931 . S
C343 N340 1.311 . S
C343 N344 1.347 . S
C343 H354 0.929 . S
N344 C342 1.375 . S
N344 C343 1.347 . S
C345 C348 1.365 . S
C345 N350 1.328 . S
C345 H351 0.929 . S
C346 C347 1.362 . S
C346 C349 1.378 . S
C346 H361 0.929 . S
C347 C346 1.362 . S
C347 C348 1.366 . S
C348 C345 1.365 . S
C348 C347 1.366 . S
C348 H362 0.930 . S
C349 C346 1.378 . S
C349 N350 1.315 . S
C349 H352 0.930 . S
N350 Co330 2.194 . S
N350 C345 1.328 . S
N350 C349 1.315 . S
H351 C345 0.929 . S
H352 C349 0.930 . S
H353 C341 0.929 . S
H354 C343 0.929 . S
O355 Co330 2.351 . S
O355 C358 1.244 . S
O356 Co330 2.155 . S
O356 C358 1.240 . S
O357 Co330 2.096 . S
O357 C338 1.247 . S
C358 O355 1.244 . S
C358 O356 1.240 . S
H359 C333 0.931 . S
H360 C342 0.931 . S
H361 C346 0.929 . S
H362 C348 0.930 . S
Co363 N367 2.148 . S
Co363 N373 2.128 . S
Co363 N383 2.194 . S
Co363 O388 2.351 . S
Co363 O389 2.155 . S
Co363 O390 2.096 . S
C364 N367 1.301 . S
C364 N368 1.328 . S
C364 H369 0.930 . S
C365 C366 1.333 . S
C365 N367 1.317 . S
C365 H370 0.930 . S
C366 C365 1.333 . S
C366 N368 1.350 . S
C366 H392 0.931 . S
N367 Co363 2.148 . S
N367 C364 1.301 . S
N367 C365 1.317 . S
N368 C364 1.328 . S
N368 C366 1.350 . S
H369 C364 0.930 . S
H370 C365 0.930 . S
C371 O372 1.224 . S
C371 O390 1.247 . S
O372 C371 1.224 . S
N373 Co363 2.128 . S
N373 C374 1.355 . S
N373 C376 1.311 . S
C374 N373 1.355 . S
C374 C375 1.363 . S
C374 H386 0.929 . S
C375 C374 1.363 . S
C375 N377 1.375 . S
C375 H393 0.931 . S
C376 N373 1.311 . S
C376 N377 1.347 . S
C376 H387 0.929 . S
N377 C375 1.375 . S
N377 C376 1.347 . S
C378 C381 1.365 . S
C378 N383 1.328 . S
C378 H384 0.929 . S
C379 C380 1.362 . S
C379 C382 1.378 . S
C379 H394 0.929 . S
C380 C379 1.362 . S
C380 C381 1.366 . S
C381 C378 1.365 . S
C381 C380 1.366 . S
C381 H395 0.930 . S
C382 C379 1.378 . S
C382 N383 1.315 . S
C382 H385 0.930 . S
N383 Co363 2.194 . S
N383 C378 1.328 . S
N383 C382 1.315 . S
H384 C378 0.929 . S
H385 C382 0.930 . S
H386 C374 0.929 . S
H387 C376 0.929 . S
O388 Co363 2.351 . S
O388 C391 1.244 . S
O389 Co363 2.155 . S
O389 C391 1.240 . S
O390 Co363 2.096 . S
O390 C371 1.247 . S
C391 O388 1.244 . S
C391 O389 1.240 . S
H392 C366 0.931 . S
H393 C375 0.931 . S
H394 C379 0.929 . S
H395 C381 0.930 . S
C396 C397 1.363 . S
C396 C402 1.379 1_545 S
C396 N404 1.356 1_554 S
C397 C396 1.363 . S
C397 C403 1.363 . S
C398 C399 1.363 . S
C398 C403 1.379 1_565 S
C398 N405 1.356 . S
C399 C398 1.363 . S
C399 C402 1.363 . S
N400 C402 1.356 1_556 S
N400 H412 0.984 . S
N400 H413 0.985 . S
N401 C403 1.356 . S
N401 H406 0.984 . S
N401 H407 0.985 . S
C402 C396 1.379 1_565 S
C402 C399 1.363 . S
C402 N400 1.356 1_554 S
C403 C397 1.363 . S
C403 C398 1.379 1_545 S
C403 N401 1.356 . S
N404 C396 1.356 1_556 S
N404 H410 0.984 1_545 S
N404 H411 0.984 . S
N405 C398 1.356 . S
N405 H408 0.984 . S
N405 H409 0.985 1_565 S
H406 N401 0.984 . S
H407 N401 0.985 . S
H408 N405 0.984 . S
H409 N405 0.985 1_545 S
H410 N404 0.984 1_565 S
H411 N404 0.984 . S
H412 N400 0.984 . S
H413 N400 0.985 . S
C414 C415 1.363 . S
C414 C420 1.379 . S
C414 N422 1.356 1_554 S
C415 C414 1.363 . S
C415 C421 1.363 . S
C416 C417 1.363 . S
C416 C421 1.379 . S
C416 N423 1.356 . S
C417 C416 1.363 . S
C417 C420 1.363 . S
N418 C420 1.356 1_556 S
N418 H430 0.984 . S
N418 H431 0.985 . S
N419 C421 1.356 . S
N419 H424 0.984 . S
N419 H425 0.985 . S
C420 C414 1.379 . S
C420 C417 1.363 . S
C420 N418 1.356 1_554 S
C421 C415 1.363 . S
C421 C416 1.379 . S
C421 N419 1.356 . S
N422 C414 1.356 1_556 S
N422 H428 0.984 . S
N422 H429 0.984 . S
N423 C416 1.356 . S
N423 H426 0.984 . S
N423 H427 0.985 . S
H424 N419 0.984 . S
H425 N419 0.985 . S
H426 N423 0.984 . S
H427 N423 0.985 . S
H428 N422 0.984 . S
H429 N422 0.984 . S
H430 N418 0.984 . S
H431 N418 0.985 . S
C432 C433 1.363 . S
C432 C438 1.379 1_455 S
C432 N440 1.356 . S
C433 C432 1.363 . S
C433 C439 1.363 . S
C434 C435 1.363 . S
C434 C439 1.379 1_655 S
C434 N441 1.356 1_554 S
C435 C434 1.363 . S
C435 C438 1.363 . S
N436 C438 1.356 . S
N436 H448 0.984 1_655 S
N436 H449 0.985 . S
N437 C439 1.356 1_556 S
N437 H442 0.984 . S
N437 H443 0.985 1_455 S
C438 C432 1.379 1_655 S
C438 C435 1.363 . S
C438 N436 1.356 . S
C439 C433 1.363 . S
C439 C434 1.379 1_455 S
C439 N437 1.356 1_554 S
N440 C432 1.356 . S
N440 H446 0.984 . S
N440 H447 0.984 . S
N441 C434 1.356 1_556 S
N441 H444 0.984 . S
N441 H445 0.985 . S
H442 N437 0.984 . S
H443 N437 0.985 1_655 S
H444 N441 0.984 . S
H445 N441 0.985 . S
H446 N440 0.984 . S
H447 N440 0.984 . S
H448 N436 0.984 1_455 S
H449 N436 0.985 . S
C450 C451 1.363 . S
C450 C456 1.379 1_455 S
C450 N458 1.356 . S
C451 C450 1.363 . S
C451 C457 1.363 . S
C452 C453 1.363 . S
C452 C457 1.379 1_655 S
C452 N459 1.356 . S
C453 C452 1.363 . S
C453 C456 1.363 . S
N454 C456 1.356 . S
N454 H466 0.984 . S
N454 H467 0.985 . S
N455 C457 1.356 . S
N455 H460 0.984 . S
N455 H461 0.985 . S
C456 C450 1.379 1_655 S
C456 C453 1.363 . S
C456 N454 1.356 . S
C457 C451 1.363 . S
C457 C452 1.379 1_455 S
C457 N455 1.356 . S
N458 C450 1.356 . S
N458 H464 0.984 1_455 S
N458 H465 0.984 . S
N459 C452 1.356 . S
N459 H462 0.984 . S
N459 H463 0.985 1_655 S
H460 N455 0.984 . S
H461 N455 0.985 . S
H462 N459 0.984 . S
H463 N459 0.985 1_455 S
H464 N458 0.984 1_655 S
H465 N458 0.984 . S
H466 N454 0.984 . S
H467 N454 0.985 . S
C468 C469 1.363 . S
C468 C474 1.379 1_545 S
C468 N476 1.356 . S
C469 C468 1.363 . S
C469 C475 1.363 . S
C470 C471 1.363 . S
C470 C475 1.379 1_565 S
C470 N477 1.356 . S
C471 C470 1.363 . S
C471 C474 1.363 . S
N472 C474 1.356 . S
N472 H484 0.984 1_565 S
N472 H485 0.985 . S
N473 C475 1.356 . S
N473 H478 0.984 . S
N473 H479 0.985 1_545 S
C474 C468 1.379 1_565 S
C474 C471 1.363 . S
C474 N472 1.356 . S
C475 C469 1.363 . S
C475 C470 1.379 1_545 S
C475 N473 1.356 . S
N476 C468 1.356 . S
N476 H482 0.984 . S
N476 H483 0.984 . S
N477 C470 1.356 . S
N477 H480 0.984 . S
N477 H481 0.985 . S
H478 N473 0.984 . S
H479 N473 0.985 1_565 S
H480 N477 0.984 . S
H481 N477 0.985 . S
H482 N476 0.984 . S
H483 N476 0.984 . S
H484 N472 0.984 1_545 S
H485 N472 0.985 . S
C486 C487 1.363 . S
C486 C492 1.379 . S
C486 N494 1.356 . S
C487 C486 1.363 . S
C487 C493 1.363 . S
C488 C489 1.363 . S
C488 C493 1.379 . S
C488 N495 1.356 . S
C489 C488 1.363 . S
C489 C492 1.363 . S
N490 C492 1.356 . S
N490 H502 0.984 . S
N490 H503 0.985 . S
N491 C493 1.356 . S
N491 H496 0.984 . S
N491 H497 0.985 . S
C492 C486 1.379 . S
C492 C489 1.363 . S
C492 N490 1.356 . S
C493 C487 1.363 . S
C493 C488 1.379 . S
C493 N491 1.356 . S
N494 C486 1.356 . S
N494 H500 0.984 . S
N494 H501 0.984 . S
N495 C488 1.356 . S
N495 H498 0.984 . S
N495 H499 0.985 . S
H496 N491 0.984 . S
H497 N491 0.985 . S
H498 N495 0.984 . S
H499 N495 0.985 . S
H500 N494 0.984 . S
H501 N494 0.984 . S
H502 N490 0.984 . S
H503 N490 0.985 . S
C504 C505 1.363 1_565 S
C504 C510 1.379 . S
C504 N512 1.356 . S
C505 C504 1.363 1_545 S
C505 C511 1.363 1_545 S
C506 C507 1.363 . S
C506 C511 1.379 . S
C506 N513 1.356 1_554 S
C507 C506 1.363 . S
C507 C510 1.363 . S
N508 C510 1.356 . S
N508 H520 0.984 . S
N508 H521 0.985 . S
N509 C511 1.356 1_546 S
N509 H514 0.984 . S
N509 H515 0.985 . S
C510 C504 1.379 . S
C510 C507 1.363 . S
C510 N508 1.356 . S
C511 C505 1.363 1_565 S
C511 C506 1.379 . S
C511 N509 1.356 1_564 S
N512 C504 1.356 . S
N512 H518 0.986 . S
N512 H519 0.983 1_565 S
N513 C506 1.356 1_556 S
N513 H516 0.984 1_556 S
N513 H517 0.985 . S
H514 N509 0.984 . S
H515 N509 0.985 . S
H516 N513 0.984 1_554 S
H517 N513 0.985 . S
H518 N512 0.986 . S
H519 N512 0.983 1_545 S
H520 N508 0.984 . S
H521 N508 0.985 . S
C522 C523 1.363 . S
C522 C528 1.379 . S
C522 N530 1.356 1_554 S
C523 C522 1.363 . S
C523 C529 1.363 . S
C524 C525 1.363 . S
C524 C529 1.379 . S
C524 N531 1.356 . S
C525 C524 1.363 . S
C525 C528 1.363 . S
N526 C528 1.356 1_556 S
N526 H538 0.984 . S
N526 H539 0.985 . S
N527 C529 1.356 . S
N527 H532 0.984 . S
N527 H533 0.985 . S
C528 C522 1.379 . S
C528 C525 1.363 . S
C528 N526 1.356 1_554 S
C529 C523 1.363 . S
C529 C524 1.379 . S
C529 N527 1.356 . S
N530 C522 1.356 1_556 S
N530 H536 0.984 . S
N530 H537 0.984 1_556 S
N531 C524 1.356 . S
N531 H534 0.984 . S
N531 H535 0.985 . S
H532 N527 0.984 . S
H533 N527 0.985 . S
H534 N531 0.984 . S
H535 N531 0.985 . S
H536 N530 0.984 . S
H537 N530 0.984 1_554 S
H538 N526 0.984 . S
H539 N526 0.985 . S
C540 C541 1.363 1_455 S
C540 C546 1.379 . S
C540 N548 1.356 1_454 S
C541 C540 1.363 1_655 S
C541 C547 1.363 1_655 S
C542 C543 1.363 . S
C542 C547 1.379 . S
C542 N549 1.356 . S
C543 C542 1.363 . S
C543 C546 1.363 . S
N544 C546 1.356 1_556 S
N544 H556 0.984 . S
N544 H557 0.985 . S
N545 C547 1.356 1_655 S
N545 H550 0.984 . S
N545 H551 0.985 . S
C546 C540 1.379 . S
C546 C543 1.363 . S
C546 N544 1.356 1_554 S
C547 C541 1.363 1_455 S
C547 C542 1.379 . S
C547 N545 1.356 1_455 S
N548 C540 1.356 1_656 S
N548 H554 0.984 . S
N548 H555 0.984 . S
N549 C542 1.356 . S
N549 H552 0.984 . S
N549 H553 0.985 . S
H550 N545 0.984 . S
H551 N545 0.985 . S
H552 N549 0.984 . S
H553 N549 0.985 . S
H554 N548 0.984 . S
H555 N548 0.984 . S
H556 N544 0.984 . S
H557 N544 0.985 . S
C558 C559 1.363 . S
C558 C564 1.379 . S
C558 N566 1.356 1_554 S
C559 C558 1.363 . S
C559 C565 1.363 . S
C560 C561 1.363 1_545 S
C560 C565 1.379 . S
C560 N567 1.356 1_545 S
C561 C560 1.363 1_565 S
C561 C564 1.363 1_565 S
N562 C564 1.356 1_556 S
N562 H574 0.984 . S
N562 H575 0.985 1_545 S
N563 C565 1.356 . S
N563 H568 0.984 . S
N563 H569 0.985 . S
C564 C558 1.379 . S
C564 C561 1.363 1_545 S
C564 N562 1.356 1_554 S
C565 C559 1.363 . S
C565 C560 1.379 . S
C565 N563 1.356 . S
N566 C558 1.356 1_556 S
N566 H572 0.984 . S
N566 H573 0.984 1_556 S
N567 C560 1.356 1_565 S
N567 H570 0.984 . S
N567 H571 0.985 . S
H568 N563 0.984 . S
H569 N563 0.985 . S
H570 N567 0.984 . S
H571 N567 0.985 . S
H572 N566 0.984 . S
H573 N566 0.984 1_554 S
H574 N562 0.984 . S
H575 N562 0.985 1_565 S
C576 C577 1.363 . S
C576 C582 1.379 . S
C576 N584 1.356 . S
C577 C576 1.363 . S
C577 C583 1.363 . S
C578 C579 1.363 . S
C578 C583 1.379 . S
C578 N585 1.356 1_554 S
C579 C578 1.363 . S
C579 C582 1.363 . S
N580 C582 1.356 . S
N580 H592 0.984 . S
N580 H593 0.985 . S
N581 C583 1.356 1_556 S
N581 H586 0.984 1_556 S
N581 H587 0.985 . S
C582 C576 1.379 . S
C582 C579 1.363 . S
C582 N580 1.356 . S
C583 C577 1.363 . S
C583 C578 1.379 . S
C583 N581 1.356 1_554 S
N584 C576 1.356 . S
N584 H590 0.984 . S
N584 H591 0.984 . S
N585 C578 1.356 1_556 S
N585 H588 0.984 . S
N585 H589 0.985 . S
H586 N581 0.984 1_554 S
H587 N581 0.985 . S
H588 N585 0.984 . S
H589 N585 0.985 . S
H590 N584 0.984 . S
H591 N584 0.984 . S
H592 N580 0.984 . S
H593 N580 0.985 . S
C594 C595 1.363 . S
C594 C600 1.379 . S
C594 N602 1.356 . S
C595 C594 1.363 . S
C595 C601 1.363 . S
C596 C597 1.363 1_655 S
C596 C601 1.379 . S
C596 N603 1.356 1_655 S
C597 C596 1.363 1_455 S
C597 C600 1.363 1_455 S
N598 C600 1.356 1_556 S
N598 H610 0.984 . S
N598 H611 0.984 1_655 S
N599 C601 1.356 . S
N599 H604 0.984 . S
N599 H605 0.985 . S
C600 C594 1.379 . S
C600 C597 1.363 1_655 S
C600 N598 1.356 1_554 S
C601 C595 1.363 . S
C601 C596 1.379 . S
C601 N599 1.356 . S
N602 C594 1.356 . S
N602 H608 0.984 1_554 S
N602 H609 0.984 . S
N603 C596 1.356 1_455 S
N603 H606 0.984 . S
N603 H607 0.985 . S
H604 N599 0.984 . S
H605 N599 0.985 . S
H606 N603 0.984 . S
H607 N603 0.985 . S
H608 N602 0.984 1_556 S
H609 N602 0.984 . S
H610 N598 0.984 . S
H611 N598 0.984 1_455 S
C612 C613 1.363 . S
C612 C618 1.379 . S
C612 N620 1.356 . S
C613 C612 1.363 . S
C613 C619 1.363 . S
C614 C615 1.363 1_455 S
C614 C619 1.379 . S
C614 N621 1.356 1_455 S
C615 C614 1.363 1_655 S
C615 C618 1.363 1_655 S
N616 C618 1.356 . S
N616 H628 0.984 . S
N616 H629 0.985 1_455 S
N617 C619 1.356 . S
N617 H622 0.984 . S
N617 H623 0.985 . S
C618 C612 1.379 . S
C618 C615 1.363 1_455 S
C618 N616 1.356 . S
C619 C613 1.363 . S
C619 C614 1.379 . S
C619 N617 1.356 . S
N620 C612 1.356 . S
N620 H626 0.984 . S
N620 H627 0.984 . S
N621 C614 1.356 1_655 S
N621 H624 0.984 . S
N621 H625 0.985 . S
H622 N617 0.984 . S
H623 N617 0.985 . S
H624 N621 0.984 . S
H625 N621 0.985 . S
H626 N620 0.984 . S
H627 N620 0.984 . S
H628 N616 0.984 . S
H629 N616 0.985 1_655 S
C630 C631 1.363 . S
C630 C636 1.379 . S
C630 N638 1.356 . S
C631 C630 1.363 . S
C631 C637 1.363 . S
C632 C633 1.363 1_545 S
C632 C637 1.379 . S
C632 N639 1.356 1_545 S
C633 C632 1.363 1_565 S
C633 C636 1.363 1_565 S
N634 C636 1.356 . S
N634 H646 0.984 . S
N634 H647 0.985 1_545 S
N635 C637 1.356 . S
N635 H640 0.984 . S
N635 H641 0.985 . S
C636 C630 1.379 . S
C636 C633 1.363 1_545 S
C636 N634 1.356 . S
C637 C631 1.363 . S
C637 C632 1.379 . S
C637 N635 1.356 . S
N638 C630 1.356 . S
N638 H644 0.984 . S
N638 H645 0.984 . S
N639 C632 1.356 1_565 S
N639 H642 0.984 . S
N639 H643 0.985 . S
H640 N635 0.984 . S
H641 N635 0.985 . S
H642 N639 0.984 . S
H643 N639 0.985 . S
H644 N638 0.984 . S
H645 N638 0.984 . S
H646 N634 0.984 . S
H647 N634 0.985 1_565 S
C648 C649 1.363 . S
C648 C654 1.379 . S
C648 N656 1.356 . S
C649 C648 1.363 . S
C649 C655 1.363 . S
C650 C651 1.363 . S
C650 C655 1.379 . S
C650 N657 1.356 . S
C651 C650 1.363 . S
C651 C654 1.363 . S
N652 C654 1.356 . S
N652 H664 0.984 . S
N652 H665 0.985 . S
N653 C655 1.356 . S
N653 H658 0.984 . S
N653 H659 0.985 . S
C654 C648 1.379 . S
C654 C651 1.363 . S
C654 N652 1.356 . S
C655 C649 1.363 . S
C655 C650 1.379 . S
C655 N653 1.356 . S
N656 C648 1.356 . S
N656 H662 0.984 . S
N656 H663 0.984 . S
N657 C650 1.356 . S
N657 H660 0.984 . S
N657 H661 0.985 . S
H658 N653 0.984 . S
H659 N653 0.985 . S
H660 N657 0.984 . S
H661 N657 0.985 . S
H662 N656 0.984 . S
H663 N656 0.984 . S
H664 N652 0.984 . S
H665 N652 0.985 . S
C666 C667 1.363 1_655 S
C666 C672 1.379 . S
C666 N674 1.356 1_655 S
C667 C666 1.363 1_455 S
C667 C673 1.363 1_455 S
C668 C669 1.363 . S
C668 C673 1.379 . S
C668 N675 1.356 . S
C669 C668 1.363 . S
C669 C672 1.363 . S
N670 C672 1.356 . S
N670 H682 0.984 . S
N670 H683 0.985 . S
N671 C673 1.356 1_455 S
N671 H676 0.984 . S
N671 H677 0.985 1_455 S
C672 C666 1.379 . S
C672 C669 1.363 . S
C672 N670 1.356 . S
C673 C667 1.363 1_655 S
C673 C668 1.379 . S
C673 N671 1.356 1_655 S
N674 C666 1.356 1_455 S
N674 H680 0.984 . S
N674 H681 0.984 . S
N675 C668 1.356 . S
N675 H678 0.984 . S
N675 H679 0.985 . S
H676 N671 0.984 . S
H677 N671 0.985 1_655 S
H678 N675 0.984 . S
H679 N675 0.985 . S
H680 N674 0.984 . S
H681 N674 0.984 . S
H682 N670 0.984 . S
H683 N670 0.985 . S
C684 C685 1.363 1_565 S
C684 C690 1.379 . S
C684 N692 1.356 1_565 S
C685 C684 1.363 1_545 S
C685 C691 1.363 1_545 S
C686 C687 1.363 . S
C686 C691 1.379 . S
C686 N693 1.356 . S
C687 C686 1.363 . S
C687 C690 1.363 . S
N688 C690 1.356 . S
N688 H700 0.984 . S
N688 H701 0.985 . S
N689 C691 1.356 1_545 S
N689 H694 0.984 . S
N689 H695 0.985 . S
C690 C684 1.379 . S
C690 C687 1.363 . S
C690 N688 1.356 . S
C691 C685 1.363 1_565 S
C691 C686 1.379 . S
C691 N689 1.356 1_565 S
N692 C684 1.356 1_545 S
N692 H698 0.984 1_545 S
N692 H699 0.984 . S
N693 C686 1.356 . S
N693 H696 0.984 . S
N693 H697 0.985 . S
H694 N689 0.984 . S
H695 N689 0.985 . S
H696 N693 0.984 . S
H697 N693 0.985 . S
H698 N692 0.984 1_565 S
H699 N692 0.984 . S
H700 N688 0.984 . S
H701 N688 0.985 . S
C702 C703 1.363 . S
C702 C708 1.379 . S
C702 N710 1.356 . S
C703 C702 1.363 . S
C703 C709 1.363 . S
C704 C705 1.363 . S
C704 C709 1.379 . S
C704 N711 1.356 . S
C705 C704 1.363 . S
C705 C708 1.363 . S
N706 C708 1.356 . S
N706 H718 0.984 . S
N706 H719 0.985 . S
N707 C709 1.356 . S
N707 H712 0.984 . S
N707 H713 0.985 . S
C708 C702 1.379 . S
C708 C705 1.363 . S
C708 N706 1.356 . S
C709 C703 1.363 . S
C709 C704 1.379 . S
C709 N707 1.356 . S
N710 C702 1.356 . S
N710 H716 0.984 . S
N710 H717 0.984 . S
N711 C704 1.356 . S
N711 H714 0.984 . S
N711 H715 0.985 . S
H712 N707 0.984 . S
H713 N707 0.985 . S
H714 N711 0.984 . S
H715 N711 0.985 . S
H716 N710 0.984 . S
H717 N710 0.984 . S
H718 N706 0.984 . S
H719 N706 0.985 . S
C720 C721 1.363 . S
C720 C726 1.379 . S
C720 N728 1.356 . S
C721 C720 1.363 . S
C721 C727 1.363 . S
C722 C723 1.363 . S
C722 C727 1.379 . S
C722 N729 1.356 . S
C723 C722 1.363 . S
C723 C726 1.363 . S
N724 C726 1.356 . S
N724 H736 0.984 . S
N724 H737 0.985 . S
N725 C727 1.356 . S
N725 H730 0.984 . S
N725 H731 0.985 . S
C726 C720 1.379 . S
C726 C723 1.363 . S
C726 N724 1.356 . S
C727 C721 1.363 . S
C727 C722 1.379 . S
C727 N725 1.356 . S
N728 C720 1.356 . S
N728 H734 0.984 . S
N728 H735 0.984 . S
N729 C722 1.356 . S
N729 H732 0.984 . S
N729 H733 0.985 . S
H730 N725 0.984 . S
H731 N725 0.985 . S
H732 N729 0.984 . S
H733 N729 0.985 . S
H734 N728 0.984 . S
H735 N728 0.984 . S
H736 N724 0.984 . S
H737 N724 0.985 . S
C738 C739 1.363 . S
C738 C744 1.379 . S
C738 N746 1.356 . S
C739 C738 1.363 . S
C739 C745 1.363 . S
C740 C741 1.363 . S
C740 C745 1.379 . S
C740 N747 1.356 . S
C741 C740 1.363 . S
C741 C744 1.363 . S
N742 C744 1.356 . S
N742 H754 0.984 . S
N742 H755 0.985 . S
N743 C745 1.356 . S
N743 H748 0.984 . S
N743 H749 0.985 . S
C744 C738 1.379 . S
C744 C741 1.363 . S
C744 N742 1.356 . S
C745 C739 1.363 . S
C745 C740 1.379 . S
C745 N743 1.356 . S
N746 C738 1.356 . S
N746 H752 0.984 . S
N746 H753 0.984 . S
N747 C740 1.356 . S
N747 H750 0.984 . S
N747 H751 0.985 . S
H748 N743 0.984 . S
H749 N743 0.985 . S
H750 N747 0.984 . S
H751 N747 0.985 . S
H752 N746 0.984 . S
H753 N746 0.984 . S
H754 N742 0.984 . S
H755 N742 0.985 . S
C756 C757 1.363 . S
C756 C762 1.379 . S
C756 N764 1.356 . S
C757 C756 1.363 . S
C757 C763 1.363 . S
C758 C759 1.363 . S
C758 C763 1.379 . S
C758 N765 1.356 . S
C759 C758 1.363 . S
C759 C762 1.363 . S
N760 C762 1.356 . S
N760 H772 0.984 . S
N760 H773 0.985 . S
N761 C763 1.356 . S
N761 H766 0.984 . S
N761 H767 0.985 . S
C762 C756 1.379 . S
C762 C759 1.363 . S
C762 N760 1.356 . S
C763 C757 1.363 . S
C763 C758 1.379 . S
C763 N761 1.356 . S
N764 C756 1.356 . S
N764 H770 0.984 . S
N764 H771 0.984 . S
N765 C758 1.356 . S
N765 H768 0.984 . S
N765 H769 0.985 . S
H766 N761 0.984 . S
H767 N761 0.985 . S
H768 N765 0.984 . S
H769 N765 0.985 . S
H770 N764 0.984 . S
H771 N764 0.984 . S
H772 N760 0.984 . S
H773 N760 0.985 . S
C774 C775 1.363 . S
C774 C780 1.379 . S
C774 N782 1.356 . S
C775 C774 1.363 . S
C775 C781 1.363 . S
C776 C777 1.363 . S
C776 C781 1.379 . S
C776 N783 1.356 . S
C777 C776 1.363 . S
C777 C780 1.363 . S
N778 C780 1.356 . S
N778 H790 0.984 . S
N778 H791 0.985 . S
N779 C781 1.356 . S
N779 H784 0.984 . S
N779 H785 0.985 . S
C780 C774 1.379 . S
C780 C777 1.363 . S
C780 N778 1.356 . S
C781 C775 1.363 . S
C781 C776 1.379 . S
C781 N779 1.356 . S
N782 C774 1.356 . S
N782 H788 0.984 . S
N782 H789 0.984 . S
N783 C776 1.356 . S
N783 H786 0.984 . S
N783 H787 0.985 . S
H784 N779 0.984 . S
H785 N779 0.985 . S
H786 N783 0.984 . S
H787 N783 0.985 . S
H788 N782 0.984 . S
H789 N782 0.984 . S
H790 N778 0.984 . S
H791 N778 0.985 . S
C792 C793 1.363 . S
C792 C798 1.379 . S
C792 N800 1.356 . S
C793 C792 1.363 . S
C793 C799 1.363 . S
C794 C795 1.363 . S
C794 C799 1.379 . S
C794 N801 1.356 . S
C795 C794 1.363 . S
C795 C798 1.363 . S
N796 C798 1.356 . S
N796 H808 0.984 . S
N796 H809 0.985 . S
N797 C799 1.356 . S
N797 H802 0.984 . S
N797 H803 0.985 . S
C798 C792 1.379 . S
C798 C795 1.363 . S
C798 N796 1.356 . S
C799 C793 1.363 . S
C799 C794 1.379 . S
C799 N797 1.356 . S
N800 C792 1.356 . S
N800 H806 0.984 . S
N800 H807 0.984 . S
N801 C794 1.356 . S
N801 H804 0.984 . S
N801 H805 0.985 . S
H802 N797 0.984 . S
H803 N797 0.985 . S
H804 N801 0.984 . S
H805 N801 0.985 . S
H806 N800 0.984 . S
H807 N800 0.984 . S
H808 N796 0.984 . S
H809 N796 0.985 . S
C810 C811 1.363 . S
C810 C816 1.379 . S
C810 N818 1.356 . S
C811 C810 1.363 . S
C811 C817 1.363 . S
C812 C813 1.363 . S
C812 C817 1.379 . S
C812 N819 1.356 . S
C813 C812 1.363 . S
C813 C816 1.363 . S
N814 C816 1.356 . S
N814 H826 0.984 . S
N814 H827 0.985 . S
N815 C817 1.356 . S
N815 H820 0.984 . S
N815 H821 0.985 . S
C816 C810 1.379 . S
C816 C813 1.363 . S
C816 N814 1.356 . S
C817 C811 1.363 . S
C817 C812 1.379 . S
C817 N815 1.356 . S
N818 C810 1.356 . S
N818 H824 0.984 . S
N818 H825 0.984 . S
N819 C812 1.356 . S
N819 H822 0.984 . S
N819 H823 0.985 . S
H820 N815 0.984 . S
H821 N815 0.985 . S
H822 N819 0.984 . S
H823 N819 0.985 . S
H824 N818 0.984 . S
H825 N818 0.984 . S
H826 N814 0.984 . S
H827 N814 0.985 . S
C828 C829 1.363 . S
C828 C834 1.379 . S
C828 N836 1.356 . S
C829 C828 1.363 . S
C829 C835 1.363 . S
C830 C831 1.363 . S
C830 C835 1.379 . S
C830 N837 1.356 . S
C831 C830 1.363 . S
C831 C834 1.363 . S
N832 C834 1.356 . S
N832 H844 0.984 . S
N832 H845 0.985 . S
N833 C835 1.356 . S
N833 H838 0.984 . S
N833 H839 0.985 . S
C834 C828 1.379 . S
C834 C831 1.363 . S
C834 N832 1.356 . S
C835 C829 1.363 . S
C835 C830 1.379 . S
C835 N833 1.356 . S
N836 C828 1.356 . S
N836 H842 0.984 . S
N836 H843 0.984 . S
N837 C830 1.356 . S
N837 H840 0.984 . S
N837 H841 0.985 . S
H838 N833 0.984 . S
H839 N833 0.985 . S
H840 N837 0.984 . S
H841 N837 0.985 . S
H842 N836 0.984 . S
H843 N836 0.984 . S
H844 N832 0.984 . S
H845 N832 0.985 . S
C846 C847 1.363 . S
C846 C852 1.379 . S
C846 N854 1.356 . S
C847 C846 1.363 . S
C847 C853 1.363 . S
C848 C849 1.363 . S
C848 C853 1.379 . S
C848 N855 1.356 . S
C849 C848 1.363 . S
C849 C852 1.363 . S
N850 C852 1.356 . S
N850 H862 0.984 . S
N850 H863 0.985 . S
N851 C853 1.356 . S
N851 H856 0.984 . S
N851 H857 0.985 . S
C852 C846 1.379 . S
C852 C849 1.363 . S
C852 N850 1.356 . S
C853 C847 1.363 . S
C853 C848 1.379 . S
C853 N851 1.356 . S
N854 C846 1.356 . S
N854 H860 0.984 . S
N854 H861 0.984 . S
N855 C848 1.356 . S
N855 H858 0.984 . S
N855 H859 0.985 . S
H856 N851 0.984 . S
H857 N851 0.985 . S
H858 N855 0.984 . S
H859 N855 0.985 . S
H860 N854 0.984 . S
H861 N854 0.984 . S
H862 N850 0.984 . S
H863 N850 0.985 . S
C864 C865 1.363 . S
C864 C870 1.379 . S
C864 N872 1.356 . S
C865 C864 1.363 . S
C865 C871 1.363 . S
C866 C867 1.363 . S
C866 C871 1.379 . S
C866 N873 1.356 . S
C867 C866 1.363 . S
C867 C870 1.363 . S
N868 C870 1.356 . S
N868 H880 0.984 . S
N868 H881 0.985 . S
N869 C871 1.356 . S
N869 H874 0.984 . S
N869 H875 0.985 . S
C870 C864 1.379 . S
C870 C867 1.363 . S
C870 N868 1.356 . S
C871 C865 1.363 . S
C871 C866 1.379 . S
C871 N869 1.356 . S
N872 C864 1.356 . S
N872 H878 0.984 . S
N872 H879 0.984 . S
N873 C866 1.356 . S
N873 H876 0.984 . S
N873 H877 0.985 . S
H874 N869 0.984 . S
H875 N869 0.985 . S
H876 N873 0.984 . S
H877 N873 0.985 . S
H878 N872 0.984 . S
H879 N872 0.984 . S
H880 N868 0.984 . S
H881 N868 0.985 . S
C882 C883 1.363 . S
C882 C888 1.379 . S
C882 N890 1.356 . S
C883 C882 1.363 . S
C883 C889 1.363 . S
C884 C885 1.363 . S
C884 C889 1.379 . S
C884 N891 1.356 . S
C885 C884 1.363 . S
C885 C888 1.363 . S
N886 C888 1.356 . S
N886 H898 0.984 . S
N886 H899 0.985 . S
N887 C889 1.356 . S
N887 H892 0.984 . S
N887 H893 0.985 . S
C888 C882 1.379 . S
C888 C885 1.363 . S
C888 N886 1.356 . S
C889 C883 1.363 . S
C889 C884 1.379 . S
C889 N887 1.356 . S
N890 C882 1.356 . S
N890 H896 0.984 . S
N890 H897 0.984 . S
N891 C884 1.356 . S
N891 H894 0.984 . S
N891 H895 0.985 . S
H892 N887 0.984 . S
H893 N887 0.985 . S
H894 N891 0.984 . S
H895 N891 0.985 . S
H896 N890 0.984 . S
H897 N890 0.984 . S
H898 N886 0.984 . S
H899 N886 0.985 . S
C900 C901 1.363 . S
C900 C906 1.379 . S
C900 N908 1.356 . S
C901 C900 1.363 . S
C901 C907 1.363 . S
C902 C903 1.363 . S
C902 C907 1.379 . S
C902 N909 1.356 . S
C903 C902 1.363 . S
C903 C906 1.363 . S
N904 C906 1.356 . S
N904 H916 0.984 . S
N904 H917 0.985 . S
N905 C907 1.356 . S
N905 H910 0.984 . S
N905 H911 0.985 . S
C906 C900 1.379 . S
C906 C903 1.363 . S
C906 N904 1.356 . S
C907 C901 1.363 . S
C907 C902 1.379 . S
C907 N905 1.356 . S
N908 C900 1.356 . S
N908 H914 0.984 . S
N908 H915 0.984 . S
N909 C902 1.356 . S
N909 H912 0.984 . S
N909 H913 0.985 . S
H910 N905 0.984 . S
H911 N905 0.985 . S
H912 N909 0.984 . S
H913 N909 0.985 . S
H914 N908 0.984 . S
H915 N908 0.984 . S
H916 N904 0.984 . S
H917 N904 0.985 . S
C918 C919 1.363 . S
C918 C924 1.379 . S
C918 N926 1.356 . S
C919 C918 1.363 . S
C919 C925 1.363 . S
C920 C921 1.363 . S
C920 C925 1.379 . S
C920 N927 1.356 . S
C921 C920 1.363 . S
C921 C924 1.363 . S
N922 C924 1.356 . S
N922 H934 0.984 . S
N922 H935 0.985 . S
N923 C925 1.356 . S
N923 H928 0.984 . S
N923 H929 0.985 . S
C924 C918 1.379 . S
C924 C921 1.363 . S
C924 N922 1.356 . S
C925 C919 1.363 . S
C925 C920 1.379 . S
C925 N923 1.356 . S
N926 C918 1.356 . S
N926 H932 0.984 . S
N926 H933 0.984 . S
N927 C920 1.356 . S
N927 H930 0.984 . S
N927 H931 0.985 . S
H928 N923 0.984 . S
H929 N923 0.985 . S
H930 N927 0.984 . S
H931 N927 0.985 . S
H932 N926 0.984 . S
H933 N926 0.984 . S
H934 N922 0.984 . S
H935 N922 0.985 . S
C397 N14 1.559 . S
C399 N113 1.559 . S
C415 N146 1.559 . S
C417 N47 1.559 . S
C433 N179 1.559 . S
C435 N80 1.559 . S
C451 N311 1.559 . S
C453 N212 1.559 . S
C469 N344 1.559 . S
C471 N245 1.559 . S
C487 N278 1.559 . S
C489 N377 1.559 . S
C505 C8 1.243 . S
C507 N170 1.242 . S
C523 N5 1.242 . S
C525 C41 1.243 . S
C541 C74 1.243 . S
C543 N38 1.242 . S
C559 N71 1.242 . S
C561 C107 1.243 . S
C577 N104 1.242 . S
C579 C140 1.243 . S
C595 N137 1.242 . S
C597 C173 1.243 . S
C613 N236 1.242 . S
C615 C206 1.243 . S
C631 N269 1.242 . S
C633 C239 1.243 . S
C649 N302 1.242 . S
C651 C272 1.243 . S
C667 C305 1.244 . S
C669 N335 1.242 . S
C685 C338 1.243 . S
C687 N368 1.242 . S
C703 C371 1.243 . S
C705 N203 1.242 . S
C721 C292 1.323 . S
C723 C28 1.323 . S
C739 C61 1.323 . S
C741 C325 1.323 . S
C757 C94 1.323 . S
C759 C358 1.323 . S
C775 C127 1.323 . S
C777 C391 1.323 . S
C793 C226 1.323 . S
C795 C160 1.323 . S
C811 C193 1.323 . S
C813 C259 1.323 . S
C829 C380 1.584 . S
C831 C116 1.584 . S
C847 C215 1.584 . S
C849 C149 1.584 . S
C865 C248 1.584 . S
C867 C182 1.584 . S
C883 C17 1.584 . S
C885 C281 1.584 . S
C901 C50 1.584 . S
C903 C314 1.584 . S
C919 C83 1.584 . S
C921 C347 1.584 . S
