# Generated by pormake.
# Topology ict, (4)-cn, num edge types: 1
# Building blocks:
#     Node 0, Type 0, BuildingBlock: QUQFOY_clean_sbu_3, # of connection points: 4
#     Node 1, Type 0, BuildingBlock: QUQFOY_clean_sbu_3, # of connection points: 4
#     Node 2, Type 0, BuildingBlock: QUQFOY_clean_sbu_3, # of connection points: 4
#     Node 3, Type 0, BuildingBlock: QUQFOY_clean_sbu_3, # of connection points: 4
#     Node 4, Type 0, BuildingBlock: QUQFOY_clean_sbu_3, # of connection points: 4
#     Node 5, Type 0, BuildingBlock: QUQFOY_clean_sbu_3, # of connection points: 4
#     Node 6, Type 0, BuildingBlock: QUQFOY_clean_sbu_3, # of connection points: 4
#     Node 7, Type 0, BuildingBlock: QUQFOY_clean_sbu_3, # of connection points: 4
#     Node 8, Type 0, BuildingBlock: QUQFOY_clean_sbu_3, # of connection points: 4
#     Node 9, Type 0, BuildingBlock: QUQFOY_clean_sbu_3, # of connection points: 4
#     Node 10, Type 0, BuildingBlock: QUQFOY_clean_sbu_3, # of connection points: 4
#     Node 11, Type 0, BuildingBlock: QUQFOY_clean_sbu_3, # of connection points: 4
#     Node 12, Type 0, BuildingBlock: QUQFOY_clean_sbu_3, # of connection points: 4
#     Node 13, Type 0, BuildingBlock: QUQFOY_clean_sbu_3, # of connection points: 4
#     Node 14, Type 0, BuildingBlock: QUQFOY_clean_sbu_3, # of connection points: 4
#     Node 15, Type 0, BuildingBlock: QUQFOY_clean_sbu_3, # of connection points: 4
#     Node 16, Type 0, BuildingBlock: QUQFOY_clean_sbu_3, # of connection points: 4
#     Node 17, Type 0, BuildingBlock: QUQFOY_clean_sbu_3, # of connection points: 4
#     Node 18, Type 0, BuildingBlock: QUQFOY_clean_sbu_3, # of connection points: 4
#     Node 19, Type 0, BuildingBlock: QUQFOY_clean_sbu_3, # of connection points: 4
#     Node 20, Type 0, BuildingBlock: QUQFOY_clean_sbu_3, # of connection points: 4
#     Node 21, Type 0, BuildingBlock: QUQFOY_clean_sbu_3, # of connection points: 4
#     Node 22, Type 0, BuildingBlock: QUQFOY_clean_sbu_3, # of connection points: 4
#     Node 23, Type 0, BuildingBlock: QUQFOY_clean_sbu_3, # of connection points: 4
#     Node 24, Type 0, BuildingBlock: QUQFOY_clean_sbu_3, # of connection points: 4
#     Node 25, Type 0, BuildingBlock: QUQFOY_clean_sbu_3, # of connection points: 4
#     Node 26, Type 0, BuildingBlock: QUQFOY_clean_sbu_3, # of connection points: 4
#     Node 27, Type 0, BuildingBlock: QUQFOY_clean_sbu_3, # of connection points: 4
#     Node 28, Type 0, BuildingBlock: QUQFOY_clean_sbu_3, # of connection points: 4
#     Node 29, Type 0, BuildingBlock: QUQFOY_clean_sbu_3, # of connection points: 4
#     Node 30, Type 0, BuildingBlock: QUQFOY_clean_sbu_3, # of connection points: 4
#     Node 31, Type 0, BuildingBlock: QUQFOY_clean_sbu_3, # of connection points: 4
#     Node 32, Type 0, BuildingBlock: QUQFOY_clean_sbu_3, # of connection points: 4
#     Node 33, Type 0, BuildingBlock: QUQFOY_clean_sbu_3, # of connection points: 4
#     Node 34, Type 0, BuildingBlock: QUQFOY_clean_sbu_3, # of connection points: 4
#     Node 35, Type 0, BuildingBlock: QUQFOY_clean_sbu_3, # of connection points: 4
#     Edge 36, Type (0, 0), BuildingBlock: UVAHIK_clean_linker_0, # of connection points: 2
#     Edge 37, Type (0, 0), BuildingBlock: UVAHIK_clean_linker_0, # of connection points: 2
#     Edge 38, Type (0, 0), BuildingBlock: UVAHIK_clean_linker_0, # of connection points: 2
#     Edge 39, Type (0, 0), BuildingBlock: UVAHIK_clean_linker_0, # of connection points: 2
#     Edge 40, Type (0, 0), BuildingBlock: UVAHIK_clean_linker_0, # of connection points: 2
#     Edge 41, Type (0, 0), BuildingBlock: UVAHIK_clean_linker_0, # of connection points: 2
#     Edge 42, Type (0, 0), BuildingBlock: UVAHIK_clean_linker_0, # of connection points: 2
#     Edge 43, Type (0, 0), BuildingBlock: UVAHIK_clean_linker_0, # of connection points: 2
#     Edge 44, Type (0, 0), BuildingBlock: UVAHIK_clean_linker_0, # of connection points: 2
#     Edge 45, Type (0, 0), BuildingBlock: UVAHIK_clean_linker_0, # of connection points: 2
#     Edge 46, Type (0, 0), BuildingBlock: UVAHIK_clean_linker_0, # of connection points: 2
#     Edge 47, Type (0, 0), BuildingBlock: UVAHIK_clean_linker_0, # of connection points: 2
#     Edge 48, Type (0, 0), BuildingBlock: UVAHIK_clean_linker_0, # of connection points: 2
#     Edge 49, Type (0, 0), BuildingBlock: UVAHIK_clean_linker_0, # of connection points: 2
#     Edge 50, Type (0, 0), BuildingBlock: UVAHIK_clean_linker_0, # of connection points: 2
#     Edge 51, Type (0, 0), BuildingBlock: UVAHIK_clean_linker_0, # of connection points: 2
#     Edge 52, Type (0, 0), BuildingBlock: UVAHIK_clean_linker_0, # of connection points: 2
#     Edge 53, Type (0, 0), BuildingBlock: UVAHIK_clean_linker_0, # of connection points: 2
#     Edge 54, Type (0, 0), BuildingBlock: UVAHIK_clean_linker_0, # of connection points: 2
#     Edge 55, Type (0, 0), BuildingBlock: UVAHIK_clean_linker_0, # of connection points: 2
#     Edge 56, Type (0, 0), BuildingBlock: UVAHIK_clean_linker_0, # of connection points: 2
#     Edge 57, Type (0, 0), BuildingBlock: UVAHIK_clean_linker_0, # of connection points: 2
#     Edge 58, Type (0, 0), BuildingBlock: UVAHIK_clean_linker_0, # of connection points: 2
#     Edge 59, Type (0, 0), BuildingBlock: UVAHIK_clean_linker_0, # of connection points: 2
#     Edge 60, Type (0, 0), BuildingBlock: UVAHIK_clean_linker_0, # of connection points: 2
#     Edge 61, Type (0, 0), BuildingBlock: UVAHIK_clean_linker_0, # of connection points: 2
#     Edge 62, Type (0, 0), BuildingBlock: UVAHIK_clean_linker_0, # of connection points: 2
#     Edge 63, Type (0, 0), BuildingBlock: UVAHIK_clean_linker_0, # of connection points: 2
#     Edge 64, Type (0, 0), BuildingBlock: UVAHIK_clean_linker_0, # of connection points: 2
#     Edge 65, Type (0, 0), BuildingBlock: UVAHIK_clean_linker_0, # of connection points: 2
#     Edge 66, Type (0, 0), BuildingBlock: UVAHIK_clean_linker_0, # of connection points: 2
#     Edge 67, Type (0, 0), BuildingBlock: UVAHIK_clean_linker_0, # of connection points: 2
#     Edge 68, Type (0, 0), BuildingBlock: UVAHIK_clean_linker_0, # of connection points: 2
#     Edge 69, Type (0, 0), BuildingBlock: UVAHIK_clean_linker_0, # of connection points: 2
#     Edge 70, Type (0, 0), BuildingBlock: UVAHIK_clean_linker_0, # of connection points: 2
#     Edge 71, Type (0, 0), BuildingBlock: UVAHIK_clean_linker_0, # of connection points: 2
#     Edge 72, Type (0, 0), BuildingBlock: UVAHIK_clean_linker_0, # of connection points: 2
#     Edge 73, Type (0, 0), BuildingBlock: UVAHIK_clean_linker_0, # of connection points: 2
#     Edge 74, Type (0, 0), BuildingBlock: UVAHIK_clean_linker_0, # of connection points: 2
#     Edge 75, Type (0, 0), BuildingBlock: UVAHIK_clean_linker_0, # of connection points: 2
#     Edge 76, Type (0, 0), BuildingBlock: UVAHIK_clean_linker_0, # of connection points: 2
#     Edge 77, Type (0, 0), BuildingBlock: UVAHIK_clean_linker_0, # of connection points: 2
#     Edge 78, Type (0, 0), BuildingBlock: UVAHIK_clean_linker_0, # of connection points: 2
#     Edge 79, Type (0, 0), BuildingBlock: UVAHIK_clean_linker_0, # of connection points: 2
#     Edge 80, Type (0, 0), BuildingBlock: UVAHIK_clean_linker_0, # of connection points: 2
#     Edge 81, Type (0, 0), BuildingBlock: UVAHIK_clean_linker_0, # of connection points: 2
#     Edge 82, Type (0, 0), BuildingBlock: UVAHIK_clean_linker_0, # of connection points: 2
#     Edge 83, Type (0, 0), BuildingBlock: UVAHIK_clean_linker_0, # of connection points: 2
#     Edge 84, Type (0, 0), BuildingBlock: UVAHIK_clean_linker_0, # of connection points: 2
#     Edge 85, Type (0, 0), BuildingBlock: UVAHIK_clean_linker_0, # of connection points: 2
#     Edge 86, Type (0, 0), BuildingBlock: UVAHIK_clean_linker_0, # of connection points: 2
#     Edge 87, Type (0, 0), BuildingBlock: UVAHIK_clean_linker_0, # of connection points: 2
#     Edge 88, Type (0, 0), BuildingBlock: UVAHIK_clean_linker_0, # of connection points: 2
#     Edge 89, Type (0, 0), BuildingBlock: UVAHIK_clean_linker_0, # of connection points: 2
#     Edge 90, Type (0, 0), BuildingBlock: UVAHIK_clean_linker_0, # of connection points: 2
#     Edge 91, Type (0, 0), BuildingBlock: UVAHIK_clean_linker_0, # of connection points: 2
#     Edge 92, Type (0, 0), BuildingBlock: UVAHIK_clean_linker_0, # of connection points: 2
#     Edge 93, Type (0, 0), BuildingBlock: UVAHIK_clean_linker_0, # of connection points: 2
#     Edge 94, Type (0, 0), BuildingBlock: UVAHIK_clean_linker_0, # of connection points: 2
#     Edge 95, Type (0, 0), BuildingBlock: UVAHIK_clean_linker_0, # of connection points: 2
#     Edge 96, Type (0, 0), BuildingBlock: UVAHIK_clean_linker_0, # of connection points: 2
#     Edge 97, Type (0, 0), BuildingBlock: UVAHIK_clean_linker_0, # of connection points: 2
#     Edge 98, Type (0, 0), BuildingBlock: UVAHIK_clean_linker_0, # of connection points: 2
#     Edge 99, Type (0, 0), BuildingBlock: UVAHIK_clean_linker_0, # of connection points: 2
#     Edge 100, Type (0, 0), BuildingBlock: UVAHIK_clean_linker_0, # of connection points: 2
#     Edge 101, Type (0, 0), BuildingBlock: UVAHIK_clean_linker_0, # of connection points: 2
#     Edge 102, Type (0, 0), BuildingBlock: UVAHIK_clean_linker_0, # of connection points: 2
#     Edge 103, Type (0, 0), BuildingBlock: UVAHIK_clean_linker_0, # of connection points: 2
#     Edge 104, Type (0, 0), BuildingBlock: UVAHIK_clean_linker_0, # of connection points: 2
#     Edge 105, Type (0, 0), BuildingBlock: UVAHIK_clean_linker_0, # of connection points: 2
#     Edge 106, Type (0, 0), BuildingBlock: UVAHIK_clean_linker_0, # of connection points: 2
#     Edge 107, Type (0, 0), BuildingBlock: UVAHIK_clean_linker_0, # of connection points: 2
# Relax obj value: 0.100
# Max RMSD: 0.124
# Mean RMSD: 0.124
data_MOF--net-ict--node1-QUQFOY_clean_sbu_3--edge1-UVAHIK_clean_linker_0
_symmetry_space_group_name_H-M    P1
_symmetry_Int_Tables_number       1
_symmetry_cell_setting            triclinic
loop_
_symmetry_equiv_pos_as_xyz
'x, y, z'
_cell_length_a     85.727101
_cell_length_b     85.606705
_cell_length_c     48.28046
_cell_angle_alpha  89.994786
_cell_angle_beta   89.971176
_cell_angle_gamma 120.05475
loop_
_atom_site_label
_atom_site_type_symbol
_atom_site_fract_x
_atom_site_fract_y
_atom_site_fract_z
_atom_type_partial_charge
C0 C 0.18546 0.21374 0.02849 0.0
O1 O 0.18048 0.19742 0.03416 0.0
Cd2 Cd 0.20025 0.18625 0.04447 0.0
O3 O 0.20215 0.22562 0.02767 0.0
Cd4 Cd 0.2315 0.22658 0.03395 0.0
C5 C 0.22224 0.21286 0.10062 0.0
O6 O 0.22285 0.19876 0.00942 0.0
O7 O 0.24808 0.20977 0.03107 0.0
O8 O 0.24267 0.24767 -0.00453 0.0
C9 C 0.23683 0.19788 0.01473 0.0
O10 O 0.21153 0.19727 0.09082 0.0
C11 C 0.25698 0.25934 0.00743 0.0
O12 O 0.23068 0.22638 0.0846 0.0
O13 O 0.25925 0.25603 0.0323 0.0
C14 C 0.77248 0.96827 0.03426 0.0
O15 O 0.78867 0.97875 0.0417 0.0
Cd16 Cd 0.80106 0.00992 0.05222 0.0
O17 O 0.76163 0.97424 0.03088 0.0
Cd18 Cd 0.76186 0.00345 0.03393 0.0
C19 C 0.77017 0.00471 0.10261 0.0
O20 O 0.79167 0.02144 0.01494 0.0
O21 O 0.78037 0.03688 0.03166 0.0
O22 O 0.74349 0.99342 0.99237 0.0
C23 C 0.7933 0.03677 0.01909 0.0
O24 O 0.78607 0.00863 0.0957 0.0
C25 C 0.7319 -0.00255 0.00066 0.0
O26 O 0.75825 0.00156 0.08433 0.0
O27 O 0.734 0.00397 0.02492 0.0
C28 C 0.01437 0.80375 0.03597 0.0
O29 O 0.00274 0.80783 0.04395 0.0
Cd30 Cd 0.97174 0.78643 0.05169 0.0
O31 O 0.00985 0.78734 0.03142 0.0
Cd32 Cd 0.98196 0.75723 0.0333 0.0
C33 C 0.977 0.76108 0.10186 0.0
O34 O 0.96289 0.76719 0.01221 0.0
O35 O 0.94851 0.74048 0.02946 0.0
O36 O -0.00599 0.75053 0.9923 0.0
C37 C 0.94803 0.75276 0.01546 0.0
O38 O 0.97107 0.77151 0.09496 0.0
C39 C 0.99052 0.73496 0.00011 0.0
O40 O 0.98313 0.75478 0.08368 0.0
O41 O 0.98348 0.72987 0.02394 0.0
C42 C 0.2094 0.18595 0.46828 0.0
O43 O 0.19291 0.18052 0.46339 0.0
Cd44 Cd 0.1816 0.19952 0.44894 0.0
O45 O 0.22114 0.20273 0.46775 0.0
Cd46 Cd 0.22236 0.23236 0.4621 0.0
C47 C 0.21154 0.22162 0.39493 0.0
O48 O 0.19343 0.22279 0.48254 0.0
O49 O 0.20506 0.24861 0.46246 0.0
O50 O 0.2416 0.24152 0.50263 0.0
C51 C 0.19218 0.23648 0.47649 0.0
O52 O 0.19582 0.21031 0.4037 0.0
C53 C 0.25338 0.25674 0.49313 0.0
O54 O 0.22419 0.23132 0.41173 0.0
O55 O 0.25103 0.26053 0.46858 0.0
C56 C 0.79786 0.02 0.4609 0.0
O57 O 0.80245 0.00856 0.45387 0.0
Cd58 Cd 0.78244 0.97737 0.44491 0.0
O59 O 0.78129 0.01523 0.46421 0.0
Cd60 Cd 0.75127 0.98714 0.46158 0.0
C61 C 0.75704 0.9821 0.39342 0.0
O62 O 0.76153 0.9683 0.48191 0.0
O63 O 0.73453 0.95362 0.46615 0.0
O64 O 0.74369 -0.00121 0.50211 0.0
C65 C 0.74739 0.95323 0.47847 0.0
O66 O 0.76818 0.97726 0.40127 0.0
C67 C 0.7284 -0.00446 0.49333 0.0
O68 O 0.74951 0.98738 0.41091 0.0
O69 O 0.72387 0.98877 0.46923 0.0
C70 C 0.97013 0.7799 0.45864 0.0
O71 O 0.98165 0.79574 0.45086 0.0
Cd72 Cd 0.01291 0.80619 0.44357 0.0
O73 O 0.97482 0.76815 0.46307 0.0
Cd74 Cd 0.00293 0.76651 0.46071 0.0
C75 C 0.00884 0.77673 0.39239 0.0
O76 O 0.02193 0.79546 0.48235 0.0
O77 O 0.03628 0.78321 0.46467 0.0
O78 O -0.00745 0.74748 0.50169 0.0
C79 C 0.03678 0.7959 0.47888 0.0
O80 O 0.01453 0.79298 0.39977 0.0
C81 C -0.00542 0.73491 0.49166 0.0
O82 O 0.00254 0.76402 0.41015 0.0
O83 O 0.00011 0.73683 0.46679 0.0
C84 C 0.79979 0.77909 0.96055 0.0
O85 O 0.80512 0.79558 0.95562 0.0
Cd86 Cd 0.78558 0.80725 0.94597 0.0
O87 O 0.78301 0.76748 0.96135 0.0
Cd88 Cd 0.75377 0.76672 0.95621 0.0
C89 C 0.76358 0.78048 0.88967 0.0
O90 O 0.7625 0.79471 0.98034 0.0
O91 O 0.73728 0.78343 0.95838 0.0
O92 O 0.74294 0.74604 -0.00485 0.0
C93 C 0.74846 0.79544 0.97464 0.0
O94 O 0.7744 0.79602 0.89957 0.0
C95 C 0.72866 0.73413 0.98341 0.0
O96 O 0.75481 0.76697 0.9056 0.0
O97 O 0.72622 0.73713 0.95845 0.0
C98 C 0.20965 0.02338 0.95959 0.0
O99 O 0.19317 0.01272 0.95393 0.0
Cd100 Cd 0.18027 0.98112 0.94634 0.0
O101 O 0.22057 0.01746 0.96236 0.0
Cd102 Cd 0.22002 0.98813 0.96047 0.0
C103 C 0.20818 0.98361 0.89291 0.0
O104 O 0.1912 0.97067 0.98307 0.0
O105 O 0.20164 0.95486 0.96483 0.0
O106 O 0.23998 -0.0008 0.00021 0.0
C107 C 0.18942 0.95526 0.97909 0.0
O108 O 0.19263 0.97976 0.90162 0.0
C109 C 0.2512 0.99487 0.99115 0.0
O110 O 0.22118 0.98806 0.90976 0.0
O111 O 0.24819 0.98777 0.9672 0.0
C112 C 0.96856 0.18661 0.95974 0.0
O113 O 0.97977 0.18182 0.95233 0.0
Cd114 Cd 0.0102 0.20185 0.93946 0.0
O115 O 0.97331 0.20328 0.96161 0.0
Cd116 Cd 0.001 0.2335 0.95588 0.0
C117 C 0.00203 0.22488 0.88767 0.0
O118 O 0.02034 0.2237 0.97532 0.0
O119 O 0.03464 0.25044 0.95833 0.0
O120 O 0.98979 0.24122 -0.00328 0.0
C121 C 0.03528 0.23782 0.97104 0.0
O122 O 0.00697 0.21378 0.89537 0.0
C123 C -0.00688 0.25659 0.98814 0.0
O124 O -0.00159 0.23366 0.90536 0.0
O125 O -0.00024 0.26116 0.96396 0.0
C126 C 0.7766 0.80485 0.52204 0.0
O127 O 0.79296 0.8103 0.52801 0.0
Cd128 Cd 0.80493 0.79157 0.54057 0.0
O129 O 0.76501 0.78802 0.52155 0.0
Cd130 Cd 0.76449 0.75883 0.52854 0.0
C131 C 0.77659 0.7697 0.59563 0.0
O132 O 0.79296 0.76859 0.50629 0.0
O133 O 0.78237 0.74313 0.52719 0.0
O134 O 0.74435 0.74739 0.48903 0.0
C135 C 0.79456 0.75506 0.51193 0.0
O136 O 0.79224 0.78086 0.58651 0.0
C137 C 0.73269 0.73288 0.50058 0.0
O138 O 0.76368 0.76028 0.57907 0.0
O139 O 0.73555 0.73059 0.52568 0.0
C140 C 0.18684 0.9708 0.52939 0.0
O141 O 0.18188 0.98228 0.53374 0.0
Cd142 Cd 0.20241 0.01319 0.54362 0.0
O143 O 0.20354 0.97565 0.5288 0.0
Cd144 Cd 0.23331 0.00381 0.53288 0.0
C145 C 0.22372 0.00668 0.59949 0.0
O146 O 0.22512 0.02334 0.50852 0.0
O147 O 0.24967 0.03715 0.53216 0.0
O148 O 0.24201 0.99182 0.49419 0.0
C149 C 0.23904 0.03807 0.51486 0.0
O150 O 0.21313 0.01178 0.58995 0.0
C151 C 0.25721 -0.00451 0.50395 0.0
O152 O 0.2325 0.00217 0.58325 0.0
O153 O 0.26125 0.00275 0.52778 0.0
C154 C 0.01655 0.21176 0.52449 0.0
O155 O 0.00522 0.19562 0.53122 0.0
Cd156 Cd 0.97429 0.18442 0.54178 0.0
O157 O 0.01177 0.22364 0.52246 0.0
Cd158 Cd 0.98367 0.22532 0.52745 0.0
C159 C 0.97961 0.21352 0.5952 0.0
O160 O 0.96453 0.19659 0.50608 0.0
O161 O 0.95011 0.20844 0.52458 0.0
O162 O -0.00668 0.24471 0.48694 0.0
C163 C 0.94956 0.1956 0.51068 0.0
O164 O 0.97478 0.19766 0.58663 0.0
C165 C 0.99137 0.25716 0.49768 0.0
O166 O 0.98447 0.22654 0.57819 0.0
O167 O 0.98622 0.25503 0.52277 0.0
C168 C 0.85018 0.54258 0.35591 0.0
O169 O 0.8452 0.52617 0.36084 0.0
Cd170 Cd 0.86529 0.5156 0.37226 0.0
O171 O 0.86686 0.55454 0.356 0.0
Cd172 Cd 0.89647 0.55607 0.36226 0.0
C173 C 0.88632 0.543 0.42873 0.0
O174 O 0.88837 0.52833 0.33793 0.0
O175 O 0.91273 0.53899 0.36198 0.0
O176 O 0.90563 0.57644 0.32309 0.0
C177 C 0.90217 0.52745 0.34457 0.0
O178 O 0.87585 0.5274 0.41871 0.0
C179 C 0.92083 0.58803 0.33281 0.0
O180 O 0.89512 0.55655 0.41287 0.0
O181 O 0.92464 0.58509 0.357 0.0
C182 C 0.44207 0.30379 0.3628 0.0
O183 O 0.45777 0.31445 0.37209 0.0
Cd184 Cd 0.46806 0.34445 0.38746 0.0
O185 O 0.43057 0.309 0.36006 0.0
Cd186 Cd 0.42838 0.33679 0.36622 0.0
C187 C 0.43422 0.33498 0.43523 0.0
O188 O 0.45863 0.35641 0.35101 0.0
O189 O 0.44545 0.37049 0.36595 0.0
O190 O 0.41169 0.32725 0.32311 0.0
C191 C 0.45942 0.37132 0.35548 0.0
O192 O 0.45048 0.3396 0.42955 0.0
C193 C 0.39909 0.32997 0.33076 0.0
O194 O 0.42299 0.33261 0.41615 0.0
O195 O 0.39991 0.33566 0.35534 0.0
C196 C 0.68429 0.13783 0.35456 0.0
O197 O 0.67325 0.14335 0.35898 0.0
Cd198 Cd 0.64292 0.12403 0.37316 0.0
O199 O 0.67912 0.12104 0.35551 0.0
Cd200 Cd 0.65049 0.09183 0.36166 0.0
C201 C 0.65014 0.10278 0.4285 0.0
O202 O 0.63074 0.10055 0.33951 0.0
O203 O 0.61708 0.07573 0.36257 0.0
O204 O 0.65901 0.08113 0.32109 0.0
C205 C 0.616 0.08684 0.34645 0.0
O206 O 0.64573 0.11398 0.41932 0.0
C207 C 0.65673 0.06666 0.33203 0.0
O208 O 0.65324 0.09306 0.41198 0.0
O209 O 0.65194 0.06402 0.35731 0.0
C210 C 0.87755 0.52344 0.80168 0.0
O211 O 0.86098 0.51818 0.79807 0.0
Cd212 Cd 0.85034 0.53739 0.78205 0.0
O213 O 0.88947 0.54003 0.79871 0.0
Cd214 Cd 0.89026 0.56918 0.78955 0.0
C215 C 0.87731 0.55565 0.72414 0.0
O216 O 0.86278 0.56214 0.81367 0.0
O217 O 0.8726 0.58483 0.78593 0.0
O218 O 0.91084 0.58149 0.82832 0.0
C219 C 0.86154 0.57536 0.80471 0.0
O220 O 0.86183 0.54519 0.73452 0.0
C221 C 0.92245 0.5957 0.81605 0.0
O222 O 0.89064 0.5657 0.73961 0.0
O223 O 0.91937 0.59745 0.79082 0.0
C224 C 0.46534 0.35518 0.7876 0.0
O225 O 0.46986 0.34376 0.78022 0.0
Cd226 Cd 0.4498 0.31224 0.77433 0.0
O227 O 0.44889 0.35024 0.79258 0.0
Cd228 Cd 0.41925 0.3216 0.79247 0.0
C229 C 0.4223 0.31436 0.72429 0.0
O230 O 0.43065 0.30383 0.81373 0.0
O231 O 0.40349 0.28827 0.79881 0.0
O232 O 0.41208 0.3337 0.83296 0.0
C233 C 0.41657 0.28856 0.81152 0.0
O234 O 0.43375 0.30982 0.73158 0.0
C235 C 0.39647 0.32983 0.82488 0.0
O236 O 0.41556 0.32034 0.74201 0.0
O237 O 0.39159 0.32254 0.80116 0.0
C238 C 0.63514 0.11305 0.79492 0.0
O239 O 0.6467 0.12937 0.78972 0.0
Cd240 Cd 0.67751 0.14017 0.7791 0.0
O241 O 0.63971 0.10098 0.79544 0.0
Cd242 Cd 0.66801 0.09974 0.78936 0.0
C243 C 0.67172 0.113 0.72283 0.0
O244 O 0.68772 0.12747 0.81361 0.0
O245 O 0.70137 0.11701 0.78901 0.0
O246 O 0.65881 0.07931 0.82861 0.0
C247 C 0.70241 0.12846 0.80664 0.0
O248 O 0.67697 0.12867 0.73266 0.0
C249 C 0.66135 0.06749 0.81691 0.0
O250 O 0.66659 0.09947 0.73883 0.0
O251 O 0.66647 0.07037 0.7918 0.0
C252 C 0.4661 0.11071 0.29363 0.0
O253 O 0.47149 0.12695 0.28677 0.0
Cd254 Cd 0.45245 0.13886 0.27535 0.0
O255 O 0.44932 0.09928 0.29576 0.0
Cd256 Cd 0.41986 0.09819 0.29074 0.0
C257 C 0.42888 0.10882 0.22274 0.0
O258 O 0.4301 0.12738 0.31057 0.0
O259 O 0.40366 0.11552 0.29262 0.0
O260 O 0.40981 0.07909 0.33156 0.0
C261 C 0.41626 0.1286 0.30569 0.0
O262 O 0.44033 0.12471 0.23068 0.0
C263 C 0.3954 0.06668 0.32077 0.0
O264 O 0.4199 0.09633 0.24021 0.0
O265 O 0.39247 0.06877 0.29562 0.0
C266 C 0.87524 0.35067 0.29765 0.0
O267 O 0.85871 0.33877 0.29553 0.0
Cd268 Cd 0.84885 0.30842 0.28276 0.0
O269 O 0.88748 0.34644 0.29505 0.0
Cd270 Cd 0.88978 0.31872 0.28906 0.0
C271 C 0.87502 0.316 0.22397 0.0
O272 O 0.86311 0.29857 0.31516 0.0
O273 O 0.87333 0.28532 0.28907 0.0
O274 O 0.91135 0.33112 0.3265 0.0
C275 C 0.8623 0.28402 0.30767 0.0
O276 O 0.85968 0.31073 0.23507 0.0
C277 C 0.92281 0.32762 0.31596 0.0
O278 O 0.8889 0.32054 0.23886 0.0
O279 O 0.91918 0.32031 0.29214 0.0
C280 C 0.63384 0.51968 0.29651 0.0
O281 O 0.64445 0.51408 0.2893 0.0
Cd282 Cd 0.67464 0.53269 0.27392 0.0
O283 O 0.63915 0.53653 0.2968 0.0
Cd284 Cd 0.66722 0.56601 0.28825 0.0
C285 C 0.66637 0.55484 0.22071 0.0
O286 O 0.6863 0.55589 0.30766 0.0
O287 O 0.70086 0.58218 0.28914 0.0
O288 O 0.65729 0.57525 0.32885 0.0
C289 C 0.70136 0.56959 0.30222 0.0
O290 O 0.67088 0.54355 0.22916 0.0
C291 C 0.66087 0.59054 0.3195 0.0
O292 O 0.66359 0.56455 0.23777 0.0
O293 O 0.66709 0.59439 0.29499 0.0
C294 C 0.44351 0.13889 0.86367 0.0
O295 O 0.45963 0.14357 0.87014 0.0
Cd296 Cd 0.47066 0.12344 0.87871 0.0
O297 O 0.43169 0.12227 0.86064 0.0
Cd298 Cd 0.42982 0.09228 0.86288 0.0
C299 C 0.44092 0.09822 0.93081 0.0
O300 O 0.45873 0.1025 0.84168 0.0
O301 O 0.44657 0.07561 0.8581 0.0
O302 O 0.41051 0.08493 0.82258 0.0
C303 C 0.4596 0.08833 0.84511 0.0
O304 O 0.45684 0.1094 0.92266 0.0
C305 C 0.3985 0.06952 0.83113 0.0
O306 O 0.42802 0.09052 0.91354 0.0
O307 O 0.40077 0.0648 0.85506 0.0
C308 C 0.85091 0.30617 0.85332 0.0
O309 O 0.84602 0.31783 0.8562 0.0
Cd310 Cd 0.86613 0.34793 0.87065 0.0
O311 O 0.86743 0.3106 0.85587 0.0
Cd312 Cd 0.89728 0.33842 0.8627 0.0
C313 C 0.88494 0.33936 0.92828 0.0
O314 O 0.89049 0.35904 0.83853 0.0
O315 O 0.91399 0.37179 0.86461 0.0
O316 O 0.90644 0.32717 0.82371 0.0
C317 C 0.90413 0.37346 0.84666 0.0
O318 O 0.87471 0.34461 0.91778 0.0
C319 C 0.92143 0.33039 0.83379 0.0
O320 O 0.89454 0.33541 0.91288 0.0
O321 O 0.92515 0.33702 0.85806 0.0
C322 C 0.6848 0.54696 0.85387 0.0
O323 O 0.67352 0.53045 0.85843 0.0
Cd324 Cd 0.64272 0.51889 0.87019 0.0
O325 O 0.6799 0.55879 0.85416 0.0
Cd326 Cd 0.65127 0.55951 0.85958 0.0
C327 C 0.64755 0.5461 0.92625 0.0
O328 O 0.63235 0.53144 0.83593 0.0
O329 O 0.61774 0.54209 0.85732 0.0
O330 O 0.66079 0.57998 0.82037 0.0
C331 C 0.61731 0.53005 0.84153 0.0
O332 O 0.64313 0.5306 0.91648 0.0
C333 C 0.65816 0.59179 0.83189 0.0
O334 O 0.65203 0.5595 0.9102 0.0
O335 O 0.65277 0.58886 0.85688 0.0
C336 C 0.51498 0.87687 0.68738 0.0
O337 O 0.50963 0.86027 0.6914 0.0
Cd338 Cd 0.52832 0.8483 0.70445 0.0
O339 O 0.53168 0.88873 0.68883 0.0
Cd340 Cd 0.56105 0.88978 0.6959 0.0
C341 C 0.54902 0.87507 0.7618 0.0
O342 O 0.55235 0.86199 0.6722 0.0
O343 O 0.5776 0.87275 0.69361 0.0
O344 O 0.57289 0.91121 0.65796 0.0
C345 C 0.56593 0.86055 0.6781 0.0
O346 O 0.53813 0.85969 0.75142 0.0
C347 C 0.58692 0.92281 0.67061 0.0
O348 O 0.55858 0.88861 0.7463 0.0
O349 O 0.58875 0.91926 0.69556 0.0
C350 C 0.11081 0.6417 0.68753 0.0
O351 O 0.12739 0.65341 0.68985 0.0
Cd352 Cd 0.13754 0.6835 0.70507 0.0
O353 O 0.09874 0.64604 0.69114 0.0
Cd354 Cd 0.09643 0.67345 0.69974 0.0
C355 C 0.11139 0.67442 0.76428 0.0
O356 O 0.12346 0.69491 0.67509 0.0
O357 O 0.11207 0.70658 0.70223 0.0
O358 O 0.07498 0.66196 0.66212 0.0
C359 C 0.1238 0.70896 0.68417 0.0
O360 O 0.12671 0.67995 0.75294 0.0
C361 C 0.06332 0.66485 0.67349 0.0
O362 O 0.09748 0.67025 0.74967 0.0
O363 O 0.06682 0.67148 0.69778 0.0
C364 C 0.35164 0.47221 0.69257 0.0
O365 O 0.34114 0.47832 0.69753 0.0
Cd366 Cd 0.30986 0.46061 0.70844 0.0
O367 O 0.34574 0.45526 0.69216 0.0
Cd368 Cd 0.31671 0.42655 0.69835 0.0
C369 C 0.31478 0.43851 0.76476 0.0
O370 O 0.29824 0.43657 0.67603 0.0
O371 O 0.28333 0.41098 0.69666 0.0
O372 O 0.32522 0.41464 0.65927 0.0
C373 C 0.28307 0.42316 0.68206 0.0
O374 O 0.31074 0.4498 0.75473 0.0
C375 C 0.32247 0.4003 0.6713 0.0
O376 O 0.31832 0.42874 0.74898 0.0
O377 O 0.31742 0.39831 0.69645 0.0
C378 C 0.54088 0.85402 0.13217 0.0
O379 O 0.52429 0.84876 0.12878 0.0
Cd380 Cd 0.51341 0.8682 0.11475 0.0
O381 O 0.55276 0.87068 0.13005 0.0
Cd382 Cd 0.55415 0.90025 0.1231 0.0
C383 C 0.54061 0.88788 0.05733 0.0
O384 O 0.5265 0.89228 0.14723 0.0
O385 O 0.53737 0.91694 0.12393 0.0
O386 O 0.57518 0.90995 0.16137 0.0
C387 C 0.52544 0.906 0.14055 0.0
O388 O 0.5252 0.87722 0.06777 0.0
C389 C 0.58654 0.92505 0.15098 0.0
O390 O 0.55406 0.8977 0.07277 0.0
O391 O 0.58314 0.92853 0.12687 0.0
C392 C 0.13476 0.68609 0.13855 0.0
O393 O 0.14071 0.67527 0.13572 0.0
Cd394 Cd 0.12239 0.64527 0.11869 0.0
O395 O 0.11812 0.68075 0.13484 0.0
Cd396 Cd 0.08954 0.65226 0.12551 0.0
C397 C 0.10397 0.6536 0.0605 0.0
O398 O 0.09653 0.63112 0.148 0.0
O399 O 0.07399 0.61935 0.11983 0.0
O400 O 0.07707 0.65934 0.16529 0.0
C401 C 0.08347 0.61702 0.13769 0.0
O402 O 0.11462 0.64894 0.07121 0.0
C403 C 0.06313 0.6575 0.15316 0.0
O404 O 0.09354 0.65654 0.07565 0.0
O405 O 0.06153 0.65354 0.12755 0.0
C406 C 0.29927 0.44281 0.13775 0.0
O407 O 0.30991 0.45965 0.13498 0.0
Cd408 Cd 0.34033 0.4721 0.11984 0.0
O409 O 0.30485 0.43166 0.13434 0.0
Cd410 Cd 0.33382 0.43243 0.12534 0.0
C411 C 0.33421 0.44691 0.06063 0.0
O412 O 0.35339 0.45991 0.15048 0.0
O413 O 0.36697 0.45082 0.12289 0.0
O414 O 0.32576 0.41103 0.16293 0.0
C415 C 0.36811 0.46174 0.14157 0.0
O416 O 0.33848 0.46203 0.07177 0.0
C417 C 0.32866 0.39989 0.14981 0.0
O418 O 0.33088 0.43329 0.07545 0.0
O419 O 0.33367 0.40369 0.12473 0.0
C420 C 0.13311 0.44951 0.63368 0.0
O421 O 0.13777 0.46585 0.62884 0.0
Cd422 Cd 0.11743 0.47594 0.61675 0.0
O423 O 0.11653 0.43726 0.63313 0.0
Cd424 Cd 0.08681 0.43527 0.62568 0.0
C425 C 0.09781 0.449 0.55956 0.0
O426 O 0.09373 0.46259 0.65006 0.0
O427 O 0.07007 0.452 0.62448 0.0
O428 O 0.07589 0.41485 0.66487 0.0
C429 C 0.08007 0.46344 0.64245 0.0
O430 O 0.10789 0.46461 0.56983 0.0
C431 C 0.06177 0.40269 0.65315 0.0
O432 O 0.08902 0.43534 0.5752 0.0
O433 O 0.05942 0.40539 0.62799 0.0
C434 C 0.54116 0.68502 0.6247 0.0
O435 O 0.52492 0.67338 0.61923 0.0
Cd436 Cd 0.51467 0.64251 0.60939 0.0
O437 O 0.55325 0.6805 0.62585 0.0
Cd438 Cd 0.55539 0.65263 0.62104 0.0
C439 C 0.54259 0.64837 0.55408 0.0
O440 O 0.52749 0.6332 0.64494 0.0
O441 O 0.53913 0.61918 0.62437 0.0
O442 O 0.57588 0.66495 0.65996 0.0
C443 C 0.52692 0.61841 0.6401 0.0
O444 O 0.52689 0.64317 0.56363 0.0
C445 C 0.5876 0.66145 0.65053 0.0
O446 O 0.556 0.65353 0.5703 0.0
O447 O 0.58466 0.65427 0.62665 0.0
C448 C 0.29844 0.85666 0.63634 0.0
O449 O 0.3091 0.85051 0.63374 0.0
Cd450 Cd 0.33944 0.86865 0.61838 0.0
O451 O 0.30404 0.87342 0.63295 0.0
Cd452 Cd 0.33303 0.90184 0.62453 0.0
C453 C 0.33285 0.88783 0.55959 0.0
O454 O 0.35262 0.89385 0.64915 0.0
O455 O 0.36619 0.91667 0.62173 0.0
O456 O 0.32504 0.91454 0.66304 0.0
C457 C 0.36733 0.9068 0.64027 0.0
O458 O 0.33702 0.87686 0.57054 0.0
C459 C 0.32781 0.92876 0.65058 0.0
O460 O 0.32989 0.8983 0.57457 0.0
O461 O 0.33271 0.93039 0.62539 0.0
C462 C 0.1087 0.46766 0.18554 0.0
O463 O 0.12535 0.47329 0.18907 0.0
Cd464 Cd 0.13606 0.45435 0.20678 0.0
O465 O 0.09705 0.45106 0.18906 0.0
Cd466 Cd 0.09604 0.42208 0.19913 0.0
C467 C 0.10854 0.43645 0.26436 0.0
O468 O 0.12408 0.42868 0.1769 0.0
O469 O 0.1128 0.40588 0.20467 0.0
O470 O 0.07631 0.40992 0.15948 0.0
C471 C 0.12473 0.41534 0.18688 0.0
O472 O 0.12405 0.44693 0.25407 0.0
C473 C 0.06411 0.396 0.17164 0.0
O474 O 0.09533 0.42611 0.24888 0.0
O475 O 0.06653 0.39428 0.19718 0.0
C476 C 0.51789 0.63903 0.18724 0.0
O477 O 0.51317 0.65075 0.19106 0.0
Cd478 Cd 0.53382 0.68089 0.20451 0.0
O479 O 0.53446 0.64341 0.18833 0.0
Cd480 Cd 0.56451 0.67131 0.19349 0.0
C481 C 0.5542 0.67248 0.2601 0.0
O482 O 0.55689 0.69152 0.17011 0.0
O483 O 0.5811 0.70476 0.19457 0.0
O484 O 0.57312 0.65995 0.15387 0.0
C485 C 0.57074 0.70608 0.17721 0.0
O486 O 0.5436 0.67764 0.25083 0.0
C487 C 0.58824 0.66322 0.16344 0.0
O488 O 0.56338 0.66861 0.24365 0.0
O489 O 0.59228 0.66995 0.18763 0.0
C490 C 0.35033 0.87927 0.18959 0.0
O491 O 0.33926 0.8627 0.1941 0.0
Cd492 Cd 0.30835 0.85091 0.20601 0.0
O493 O 0.34515 0.89086 0.19008 0.0
Cd494 Cd 0.31672 0.8914 0.19738 0.0
C495 C 0.31489 0.87762 0.26333 0.0
O496 O 0.2961 0.86329 0.1743 0.0
O497 O 0.28371 0.87444 0.20046 0.0
O498 O 0.32465 0.91138 0.15782 0.0
C499 C 0.28179 0.86248 0.18312 0.0
O500 O 0.30985 0.86213 0.25292 0.0
C501 C 0.32268 0.92343 0.16995 0.0
O502 O 0.31923 0.89125 0.24783 0.0
O503 O 0.31838 0.92086 0.19544 0.0
C504 C 0.38969 0.33959 0.86989 0.0
C505 C 0.38399 0.33203 0.84342 0.0
C506 C 0.37724 0.33887 0.88926 0.0
C507 C 0.32948 0.32713 0.89926 0.0
H508 H 0.33389 0.30566 0.96736 0.0
C509 C 0.26906 0.27683 0.96364 0.0
C510 C 0.2711 0.275 0.99212 0.0
C511 C 0.28349 0.28965 0.94797 0.0
C512 C 0.33258 0.31208 0.94888 0.0
H513 H 0.36105 0.31907 0.81574 0.0
H514 H 0.33928 0.31755 0.84963 0.0
H515 H 0.35855 0.3181 0.93451 0.0
H516 H 0.28935 0.28623 0.02699 0.0
H517 H 0.3145 0.30887 -0.00034 0.0
H518 H 0.30312 0.32035 0.91328 0.0
C519 C 0.35337 0.32418 0.85541 0.0
C520 C 0.34678 0.31923 0.92995 0.0
C521 C 0.36584 0.32494 0.83602 0.0
C522 C 0.28743 0.28718 0.00501 0.0
C523 C 0.30186 0.3001 0.98933 0.0
C524 C 0.31527 0.32003 0.9183 0.0
C525 C 0.35884 0.33054 0.88255 0.0
C526 C 0.34516 0.32627 0.90452 0.0
C527 C 0.30026 0.30101 0.96045 0.0
C528 C 0.31642 0.31184 0.94289 0.0
H529 H 0.40364 0.34535 0.87612 0.0
H530 H 0.3819 0.34415 0.90986 0.0
H531 H 0.32796 0.33272 0.88 0.0
H532 H 0.25661 0.2677 0.95311 0.0
H533 H 0.28177 0.28981 0.92577 0.0
C534 C 0.65674 0.05083 0.86135 0.0
C535 C 0.66022 0.0522 0.83276 0.0
C536 C 0.65879 0.03844 0.87743 0.0
C537 C 0.68595 0.01652 0.87685 0.0
H538 H 0.66134 -0.00363 0.94638 0.0
C539 C 0.71574 0.98878 0.95529 0.0
C540 C 0.71762 -0.00394 0.98197 0.0
C541 C 0.70418 0.9899 0.93606 0.0
C542 C 0.66829 0.00185 0.92697 0.0
H543 H 0.66703 0.04057 0.79817 0.0
H544 H 0.67032 0.01866 0.82621 0.0
H545 H 0.64846 0.00833 0.91316 0.0
H546 H 0.70795 0.00911 0.01007 0.0
H547 H 0.688 0.01135 0.97639 0.0
H548 H 0.70612 0.01076 0.89096 0.0
C549 C 0.66641 0.02748 0.83631 0.0
C550 C 0.66093 0.00871 0.90795 0.0
C551 C 0.66445 0.03997 0.82022 0.0
C552 C 0.70683 0.00343 0.98963 0.0
C553 C 0.6953 0.0046 0.97036 0.0
C554 C 0.69324 0.00963 0.89577 0.0
C555 C 0.66428 0.02705 0.86525 0.0
C556 C 0.66999 0.01665 0.88306 0.0
C557 C 0.6943 -0.00162 0.94309 0.0
C558 C 0.6848 0.00272 0.9214 0.0
H559 H 0.65338 0.06001 0.87163 0.0
H560 H 0.65719 0.03863 0.89966 0.0
H561 H 0.69347 0.02278 0.85814 0.0
H562 H 0.72372 0.98282 0.94886 0.0
H563 H 0.70347 0.98471 0.91535 0.0
C564 C 0.00017 0.72869 0.95458 0.0
C565 C -0.00711 0.72275 0.98116 0.0
C566 C -0.00039 0.71646 0.93492 0.0
C567 C 0.98912 0.66909 0.92415 0.0
H568 H 0.96685 0.67302 0.85665 0.0
C569 C 0.9398 0.60821 0.85977 0.0
C570 C 0.93783 0.61019 0.83132 0.0
C571 C 0.95234 0.62281 0.87543 0.0
C572 C 0.9735 0.67187 0.87495 0.0
H573 H 0.98057 0.69961 0.00864 0.0
H574 H 0.97935 0.67822 0.97424 0.0
H575 H 0.97882 0.69757 0.88976 0.0
H576 H 0.94848 0.62861 0.7965 0.0
H577 H 0.97062 0.65412 0.82384 0.0
H578 H 0.98304 0.64298 0.90971 0.0
C579 C 0.98564 0.69234 0.96861 0.0
C580 C 0.98037 0.68599 0.89403 0.0
C581 C 0.98622 0.70459 0.9883 0.0
C582 C 0.94956 0.62672 0.81845 0.0
C583 C 0.96219 0.64135 0.83413 0.0
C584 C 0.98229 0.65496 0.90496 0.0
C585 C 0.99173 0.69804 0.94142 0.0
C586 C 0.9877 0.68451 0.91926 0.0
C587 C 0.96326 0.63973 0.86298 0.0
C588 C 0.97382 0.65593 0.8806 0.0
H589 H 0.00558 0.74265 0.94854 0.0
H590 H 0.00468 0.7213 0.91427 0.0
H591 H -0.00505 0.66769 0.94323 0.0
H592 H 0.93102 0.59562 0.87029 0.0
H593 H 0.95263 0.62108 0.89761 0.0
C594 C 0.31957 0.36971 0.66901 0.0
C595 C 0.3235 0.38593 0.6559 0.0
C596 C 0.31786 0.35515 0.65347 0.0
C597 C 0.32384 0.34128 0.58254 0.0
H598 H 0.27942 0.29746 0.6006 0.0
C599 C 0.27856 0.28809 0.50252 0.0
C600 C 0.26803 0.27003 0.51096 0.0
C601 C 0.29013 0.30125 0.52127 0.0
C602 C 0.2921 0.3094 0.59551 0.0
H603 H 0.32997 0.40005 0.61654 0.0
H604 H 0.32657 0.37464 0.58945 0.0
H605 H 0.2914 0.32265 0.63249 0.0
H606 H 0.26256 0.2513 0.54481 0.0
H607 H 0.28289 0.27422 0.57738 0.0
H608 H 0.32387 0.32817 0.54472 0.0
C609 C 0.32504 0.37314 0.61172 0.0
C610 C 0.29901 0.3239 0.6139 0.0
C611 C 0.32684 0.38769 0.62725 0.0
C612 C 0.27033 0.26516 0.5378 0.0
C613 C 0.28193 0.27829 0.55649 0.0
C614 C 0.31686 0.32675 0.56405 0.0
C615 C 0.31995 0.3565 0.6245 0.0
C616 C 0.31467 0.34021 0.60728 0.0
C617 C 0.29141 0.29657 0.54877 0.0
C618 C 0.30063 0.31084 0.57001 0.0
H619 H 0.31711 0.368 0.69111 0.0
H620 H 0.31425 0.34262 0.66402 0.0
H621 H 0.3361 0.35356 0.57704 0.0
H622 H 0.27712 0.29225 0.48194 0.0
H623 H 0.29715 0.31522 0.5147 0.0
C624 C 0.59961 0.94099 0.62756 0.0
C625 C 0.60121 0.93876 0.65604 0.0
C626 C 0.61421 0.95419 0.61261 0.0
C627 C 0.66326 0.97705 0.61543 0.0
H628 H 0.65945 -0.00153 0.54682 0.0
C629 C 0.72125 0.00517 0.53815 0.0
C630 C 0.71582 -0.00217 0.5115 0.0
C631 C 0.70863 0.00443 0.55719 0.0
C632 C 0.66075 0.99267 0.56602 0.0
H633 H 0.61881 0.94961 0.6917 0.0
H634 H 0.64427 0.97289 0.66564 0.0
H635 H 0.63414 0.98554 0.57926 0.0
H636 H 0.69321 0.9853 0.48314 0.0
H637 H 0.67113 0.98371 0.51647 0.0
H638 H 0.68945 0.98338 0.60179 0.0
C639 C 0.63185 0.96416 0.65474 0.0
C640 C 0.64627 0.98526 0.58458 0.0
C641 C 0.61724 0.95088 0.66969 0.0
C642 C 0.69779 0.99099 0.50357 0.0
C643 C 0.68515 0.9902 0.52265 0.0
C644 C 0.67772 0.9845 0.59697 0.0
C645 C 0.63072 0.96551 0.62585 0.0
C646 C 0.64713 0.97676 0.60901 0.0
C647 C 0.69032 -0.00371 0.54998 0.0
C648 C 0.67639 0.99182 0.57161 0.0
H649 H 0.58739 0.93192 0.61646 0.0
H650 H 0.61287 0.95468 0.59038 0.0
H651 H 0.66435 0.97041 0.6338 0.0
H652 H 0.7351 0.01075 0.54476 0.0
H653 H 0.71307 0.00952 0.57794 0.0
C654 C 0.99005 0.72003 0.53777 0.0
C655 C -0.00768 0.7197 0.509 0.0
C656 C 0.991 0.70739 0.55487 0.0
C657 C 0.01329 0.68052 0.55469 0.0
H658 H 0.99168 0.66627 0.6276 0.0
C659 C 0.04302 0.65306 0.63248 0.0
C660 C 0.04749 0.66241 0.65777 0.0
C661 C 0.03054 0.65374 0.61474 0.0
C662 C -0.00225 0.67006 0.60724 0.0
H663 H -0.00434 0.70489 0.4753 0.0
H664 H -0.00312 0.68252 0.5051 0.0
H665 H 0.97952 0.67889 0.59421 0.0
H666 H 0.04129 0.67849 0.68547 0.0
H667 H 0.01981 0.68008 0.65421 0.0
H668 H 0.03196 0.67251 0.56787 0.0
C669 C -0.00511 0.69286 0.51455 0.0
C670 C 0.99081 0.67731 0.58813 0.0
C671 C -0.00588 0.70563 0.49745 0.0
C672 C 0.03815 0.6712 0.66604 0.0
C673 C 0.02575 0.67203 0.64816 0.0
C674 C 0.02014 0.67325 0.57367 0.0
C675 C -0.00592 0.69404 0.54354 0.0
C676 C -0.0011 0.68317 0.56194 0.0
C677 C 0.02241 0.66395 0.62181 0.0
C678 C 0.01283 0.66845 0.60046 0.0
H679 H 0.98857 0.73067 0.54729 0.0
H680 H 0.99048 0.70885 0.57707 0.0
H681 H 0.0201 0.68516 0.53497 0.0
H682 H 0.04981 0.64592 0.62575 0.0
H683 H 0.02795 0.64705 0.59484 0.0
C684 C 0.61924 0.66857 0.15397 0.0
C685 C 0.60113 0.66097 0.14599 0.0
C686 C 0.63205 0.66935 0.13524 0.0
C687 C 0.63911 0.67327 0.06075 0.0
H688 H 0.6835 0.67408 0.07929 0.0
C689 C 0.69864 0.70578 0.98623 0.0
C690 C 0.71478 0.71848 -0.00097 0.0
C691 C 0.68438 0.69279 0.00208 0.0
C692 C 0.67115 0.67385 0.07375 0.0
H693 H 0.5819 0.64667 0.11317 0.0
H694 H 0.60421 0.64785 0.08066 0.0
H695 H 0.6585 0.66159 0.1123 0.0
H696 H 0.72914 0.72668 0.03812 0.0
H697 H 0.70423 0.70447 0.06575 0.0
H698 H 0.65191 0.68643 0.02308 0.0
C699 C 0.6086 0.65356 0.10113 0.0
C700 C 0.65684 0.66669 0.09264 0.0
C701 C 0.59582 0.65286 0.11979 0.0
C702 C 0.71683 0.71714 0.02765 0.0
C703 C 0.70255 0.70426 0.04349 0.0
C704 C 0.65339 0.68048 0.04198 0.0
C705 C 0.62695 0.66247 0.10825 0.0
C706 C 0.64088 0.66684 0.08666 0.0
C707 C 0.68593 0.69235 0.03105 0.0
C708 C 0.6698 0.68142 0.04861 0.0
H709 H 0.62372 0.67488 0.17407 0.0
H710 H 0.6461 0.67642 0.14132 0.0
H711 H 0.62712 0.67386 0.05562 0.0
H712 H 0.69674 0.70635 0.96415 0.0
H713 H 0.67187 0.68357 0.99177 0.0
C714 C 0.31995 0.9512 0.1673 0.0
C715 C 0.32366 0.93873 0.15432 0.0
C716 C 0.31804 0.96386 0.15156 0.0
C717 C 0.32295 0.98269 0.08002 0.0
H718 H 0.27871 0.98207 0.09898 0.0
C719 C 0.27629 0.98865 0.00062 0.0
C720 C 0.26597 -0.00358 0.00885 0.0
C721 C 0.2881 0.98743 0.01927 0.0
C722 C 0.29133 0.9828 0.09363 0.0
H723 H 0.32957 0.9306 0.11496 0.0
H724 H 0.32584 0.95225 0.08756 0.0
H725 H 0.29128 0.96955 0.13106 0.0
H726 H 0.26104 0.01039 0.04222 0.0
H727 H 0.28176 0.00838 0.07463 0.0
H728 H 0.32231 0.99509 0.04178 0.0
C729 C 0.32462 0.95252 0.10986 0.0
C730 C 0.29859 0.97563 0.11211 0.0
C731 C 0.32661 0.93996 0.12558 0.0
C732 C 0.26865 0.00412 0.03537 0.0
C733 C 0.28048 0.00293 0.05397 0.0
C734 C 0.31562 0.98981 0.06143 0.0
C735 C 0.31972 0.96422 0.12253 0.0
C736 C 0.31417 0.97496 0.10519 0.0
C737 C 0.28983 0.99399 0.04647 0.0
C738 C 0.29944 0.98945 0.06772 0.0
H739 H 0.31777 0.95071 0.18946 0.0
H740 H 0.31457 0.9729 0.16201 0.0
H741 H 0.33515 0.98266 0.07426 0.0
H742 H 0.27455 0.98265 0.98029 0.0
H743 H 0.295 0.98034 0.01289 0.0
C744 C 0.03623 0.36555 0.1688 0.0
C745 C 0.04869 0.38183 0.15602 0.0
C746 C 0.02336 0.35119 0.15295 0.0
C747 C 0.00386 0.33819 0.0817 0.0
H748 H 0.0048 0.29433 0.09789 0.0
C749 C -0.00169 0.2874 -0.00077 0.0
C750 C 0.99104 0.26919 0.00661 0.0
C751 C -0.0008 0.29992 0.01865 0.0
C752 C 0.00395 0.30627 0.09332 0.0
H753 H 0.05659 0.39631 0.11696 0.0
H754 H 0.03455 0.37129 0.08938 0.0
H755 H 0.01739 0.3189 0.13092 0.0
H756 H 0.97749 0.24951 0.03925 0.0
H757 H 0.97886 0.27133 0.07299 0.0
H758 H 0.99127 0.32575 0.04326 0.0
C759 C 0.03447 0.36956 0.1116 0.0
C760 C 0.01118 0.32041 0.11236 0.0
C761 C 0.04726 0.38389 0.12743 0.0
C762 C 0.9834 0.2635 0.03306 0.0
C763 C 0.98423 0.276 0.05242 0.0
C764 C -0.00334 0.32403 0.06256 0.0
C765 C 0.02276 0.35284 0.12402 0.0
C766 C 0.01179 0.33677 0.10638 0.0
C767 C -0.00723 0.29445 0.04578 0.0
C768 C -0.00284 0.30814 0.0678 0.0
H769 H 0.03689 0.36362 0.19085 0.0
H770 H 0.01434 0.33857 0.16321 0.0
H771 H 0.00384 0.35051 0.0767 0.0
H772 H 0.00425 0.29217 0.97898 0.0
H773 H 0.00599 0.31405 0.0129 0.0
C774 C 0.66714 0.6219 0.32925 0.0
C775 C 0.65947 0.60378 0.33742 0.0
C776 C 0.66854 0.63494 0.3481 0.0
C777 C 0.67375 0.64261 0.42253 0.0
H778 H 0.67377 0.68672 0.40425 0.0
C779 C 0.70512 0.70226 0.49732 0.0
C780 C 0.71749 0.71863 0.48468 0.0
C781 C 0.69255 0.6878 0.48132 0.0
C782 C 0.67379 0.67445 0.4097 0.0
H783 H 0.64582 0.58483 0.37089 0.0
H784 H 0.64809 0.60754 0.40362 0.0
H785 H 0.66126 0.6616 0.37142 0.0
H786 H 0.72557 0.73315 0.44567 0.0
H787 H 0.70406 0.70792 0.41778 0.0
H788 H 0.68709 0.65561 0.45999 0.0
C789 C 0.65337 0.61174 0.38288 0.0
C790 C 0.66661 0.66008 0.39091 0.0
C791 C 0.65203 0.59874 0.36409 0.0
C792 C 0.71627 0.72067 0.45603 0.0
C793 C 0.7038 0.70621 0.44003 0.0
C794 C 0.68097 0.65696 0.4412 0.0
C795 C 0.66224 0.63007 0.37542 0.0
C796 C 0.66698 0.6442 0.39682 0.0
C797 C 0.6922 0.68941 0.45235 0.0
C798 C 0.68156 0.67325 0.43469 0.0
H799 H 0.67295 0.62618 0.30881 0.0
H800 H 0.67557 0.64896 0.34175 0.0
H801 H 0.67451 0.63069 0.42759 0.0
H802 H 0.70561 0.70035 0.51942 0.0
H803 H 0.68357 0.67515 0.49152 0.0
C804 C 0.26486 0.98417 0.46137 0.0
C805 C 0.27021 0.99312 0.48698 0.0
C806 C 0.27767 0.98482 0.44285 0.0
C807 C 0.32641 -7e-05 0.43376 0.0
H808 H 0.31947 0.01703 0.36304 0.0
C809 C 0.38444 0.05097 0.36618 0.0
C810 C 0.38203 0.05132 0.33746 0.0
C811 C 0.37066 0.03807 0.38274 0.0
C812 C 0.32153 0.01183 0.3823 0.0
H813 H 0.29295 0.00841 0.51429 0.0
H814 H 0.31537 0.00989 0.48174 0.0
H815 H 0.29502 0.00412 0.39614 0.0
H816 H 0.36394 0.03751 0.30323 0.0
H817 H 0.33995 0.01473 0.33211 0.0
H818 H 0.3533 0.00848 0.42017 0.0
C819 C 0.30128 0.00221 0.47603 0.0
C820 C 0.30745 0.0044 0.40138 0.0
C821 C 0.28844 0.00147 0.49464 0.0
C822 C 0.36609 0.03772 0.32537 0.0
C823 C 0.35233 0.02471 0.34192 0.0
C824 C 0.34053 0.00733 0.41456 0.0
C825 C 0.2961 0.99452 0.44949 0.0
C826 C 0.30991 -0.00106 0.42769 0.0
C827 C 0.3542 0.02515 0.37091 0.0
C828 C 0.33844 0.01396 0.389 0.0
H829 H 0.25085 0.97739 0.45506 0.0
H830 H 0.27323 0.97846 0.42277 0.0
H831 H 0.32862 -0.0044 0.45373 0.0
H832 H 0.39661 0.06123 0.37612 0.0
H833 H 0.37254 0.03897 0.40498 0.0
C834 C 0.94808 0.3215 0.32422 0.0
C835 C 0.93848 0.33009 0.3322 0.0
C836 C 0.96034 0.32073 0.34245 0.0
C837 C 0.9651 0.3189 0.41696 0.0
H838 H 0.00659 0.31452 0.39732 0.0
C839 C 0.99103 0.28612 0.49287 0.0
C840 C -0.00662 0.27249 0.48089 0.0
C841 C 0.99012 0.29898 0.47617 0.0
C842 C -0.00495 0.31574 0.40316 0.0
H843 H 0.93554 0.34622 0.36421 0.0
H844 H 0.95711 0.34509 0.39579 0.0
H845 H -0.00551 0.32717 0.36389 0.0
H846 H -0.00206 0.26242 0.4423 0.0
H847 H -0.00417 0.2844 0.41322 0.0
H848 H 0.96484 0.30656 0.45541 0.0
C849 C 0.95485 0.33857 0.37578 0.0
C850 C 0.98816 0.32301 0.38403 0.0
C851 C 0.94254 0.33926 0.35766 0.0
C852 C -0.00398 0.2727 0.45215 0.0
C853 C -0.00503 0.28545 0.43546 0.0
C854 C 0.97191 0.31158 0.43596 0.0
C855 C 0.96326 0.32861 0.3689 0.0
C856 C 0.97277 0.32416 0.39045 0.0
C857 C 0.99138 0.29836 0.44717 0.0
C858 C 0.9866 0.30936 0.42899 0.0
H859 H 0.94527 0.31437 0.30469 0.0
H860 H 0.96651 0.31285 0.33656 0.0
H861 H 0.95306 0.31931 0.42247 0.0
H862 H 0.98917 0.28643 0.51501 0.0
H863 H 0.98771 0.30898 0.48591 0.0
C864 C 0.03269 0.65488 0.15601 0.0
C865 C 0.04884 0.65846 0.16889 0.0
C866 C 0.01827 0.65324 0.17185 0.0
C867 C 0.00498 0.65902 0.24337 0.0
H868 H 0.96065 0.61516 0.22527 0.0
C869 C 0.9522 0.6132 0.32353 0.0
C870 C 0.93407 0.60303 0.3154 0.0
C871 C 0.96527 0.62495 0.3048 0.0
C872 C 0.97275 0.62769 0.23038 0.0
H873 H 0.06299 0.66437 0.20815 0.0
H874 H 0.03786 0.6611 0.23568 0.0
H875 H 0.98557 0.62706 0.19288 0.0
H876 H 0.91517 0.59842 0.28223 0.0
H877 H 0.93795 0.61903 0.24972 0.0
H878 H -0.0077 0.65894 0.28172 0.0
C879 C 0.03628 0.65979 0.2134 0.0
C880 C 0.98709 0.63456 0.21171 0.0
C881 C 0.05068 0.66149 0.1976 0.0
C882 C 0.92907 0.6059 0.28899 0.0
C883 C 0.94212 0.61766 0.27033 0.0
C884 C 0.99062 0.65208 0.26216 0.0
C885 C 0.01971 0.65509 0.20085 0.0
C886 C 0.00358 0.64999 0.21834 0.0
C887 C 0.96044 0.62675 0.27765 0.0
C888 C 0.97454 0.63603 0.25618 0.0
H889 H 0.03092 0.65264 0.13388 0.0
H890 H 0.00578 0.64992 0.16147 0.0
H891 H 0.0174 0.67112 0.2489 0.0
H892 H 0.95645 0.61131 0.34377 0.0
H893 H 0.97929 0.63166 0.31104 0.0
C894 C 0.3729 0.33386 0.31834 0.0
C895 C 0.38499 0.32798 0.31114 0.0
C896 C 0.36142 0.33451 0.29841 0.0
C897 C 0.36149 0.34151 0.22412 0.0
H898 H 0.31481 0.33663 0.23893 0.0
C899 C 0.33306 0.37308 0.1503 0.0
C900 C 0.32781 0.3842 0.16398 0.0
C901 C 0.33504 0.36013 0.16509 0.0
C902 C 0.3278 0.33798 0.23442 0.0
H903 H 0.39355 0.31678 0.27807 0.0
H904 H 0.37342 0.31779 0.24338 0.0
H905 H 0.32768 0.32455 0.27197 0.0
H906 H 0.31915 0.38953 0.20333 0.0
H907 H 0.32296 0.36736 0.22911 0.0
H908 H 0.36222 0.3558 0.18752 0.0
C909 C 0.37303 0.32221 0.26427 0.0
C910 C 0.33516 0.33107 0.25332 0.0
C911 C 0.38453 0.3216 0.28416 0.0
C912 C 0.32335 0.38126 0.19223 0.0
C913 C 0.32537 0.36839 0.20699 0.0
C914 C 0.35419 0.34845 0.20531 0.0
C915 C 0.36181 0.32925 0.27093 0.0
C916 C 0.35236 0.33331 0.24881 0.0
C917 C 0.33185 0.35811 0.19381 0.0
C918 C 0.33756 0.34735 0.21072 0.0
H919 H 0.3729 0.3388 0.339 0.0
H920 H 0.35306 0.34016 0.30418 0.0
H921 H 0.37488 0.34368 0.22015 0.0
H922 H 0.33641 0.37491 0.12847 0.0
H923 H 0.33977 0.35221 0.15425 0.0
C924 C 0.60558 0.93376 0.19353 0.0
C925 C 0.60184 0.93855 0.16758 0.0
C926 C 0.6176 0.947 0.21169 0.0
C927 C 0.65104 -0.00405 0.21906 0.0
H928 H 0.62754 0.98989 0.29008 0.0
C929 C 0.66051 0.05513 0.28651 0.0
C930 C 0.65797 0.05287 0.31529 0.0
C931 C 0.65886 0.04104 0.2699 0.0
C932 C 0.63464 0.99171 0.27072 0.0
H933 H 0.60886 0.9608 0.13934 0.0
H934 H 0.62963 0.984 0.17123 0.0
H935 H 0.61552 0.96509 0.25751 0.0
H936 H 0.65323 0.03464 0.34954 0.0
H937 H 0.65072 0.01011 0.32059 0.0
H938 H 0.66979 0.0229 0.23206 0.0
C939 C 0.62341 0.96999 0.17749 0.0
C940 C 0.6277 0.97743 0.25195 0.0
C941 C 0.61143 0.95671 0.15925 0.0
C942 C 0.65504 0.0367 0.32737 0.0
C943 C 0.65352 0.02262 0.31076 0.0
C944 C 0.65807 0.01026 0.23796 0.0
C945 C 0.62606 0.96533 0.20432 0.0
C946 C 0.63548 0.97954 0.22559 0.0
C947 C 0.65476 0.0244 0.28174 0.0
C948 C 0.64959 0.00847 0.26368 0.0
H949 H 0.59857 0.91983 0.20039 0.0
H950 H 0.61964 0.94296 0.23201 0.0
H951 H 0.65747 -0.00211 0.19904 0.0
H952 H 0.66286 0.06747 0.27656 0.0
H953 H 0.65972 0.04288 0.24765 0.0
C954 C 0.3314 0.95966 0.6524 0.0
C955 C 0.32689 0.94331 0.6656 0.0
C956 C 0.33318 0.97431 0.66778 0.0
C957 C 0.32655 0.9882 0.73838 0.0
H958 H 0.37206 0.03127 0.72216 0.0
C959 C 0.37245 0.03891 0.8204 0.0
C960 C 0.38365 0.05704 0.81281 0.0
C961 C 0.36064 0.02641 0.80111 0.0
C962 C 0.35909 0.01956 0.72671 0.0
H963 H 0.31942 0.92905 0.70486 0.0
H964 H 0.32293 0.95457 0.73165 0.0
H965 H 0.35977 0.00646 0.68955 0.0
H966 H 0.39012 0.07664 0.77993 0.0
H967 H 0.36941 0.05484 0.74638 0.0
H968 H 0.32656 0.00108 0.77646 0.0
C969 C 0.32488 0.95614 0.70945 0.0
C970 C 0.35199 0.00528 0.70792 0.0
C971 C 0.32302 0.94151 0.69408 0.0
C972 C 0.38181 0.0627 0.78629 0.0
C973 C 0.36999 0.05022 0.76704 0.0
C974 C 0.33371 0.00249 0.75729 0.0
C975 C 0.33056 0.9729 0.69665 0.0
C976 C 0.33595 0.98918 0.71394 0.0
C977 C 0.3598 0.03183 0.77391 0.0
C978 C 0.35036 0.01809 0.75203 0.0
H979 H 0.33429 0.96139 0.63041 0.0
H980 H 0.33727 0.98695 0.65721 0.0
H981 H 0.31399 0.97611 0.7434 0.0
H982 H 0.37351 0.03416 0.84071 0.0
H983 H 0.35307 0.01232 0.80701 0.0
C984 C 0.03187 0.37415 0.6564 0.0
C985 C 0.04799 0.38706 0.66899 0.0
C986 C 0.01775 0.36114 0.67246 0.0
C987 C 0.00508 0.34254 0.74446 0.0
H988 H 0.96043 0.34128 0.72639 0.0
C989 C 0.95269 0.33633 0.82469 0.0
C990 C 0.93454 0.32827 0.81669 0.0
C991 C 0.96566 0.33735 0.80604 0.0
C992 C 0.97261 0.34105 0.73152 0.0
H993 H 0.06248 0.39562 0.70795 0.0
H994 H 0.03783 0.3734 0.73591 0.0
H995 H 0.98511 0.35415 0.69365 0.0
H996 H 0.91545 0.31339 0.784 0.0
H997 H 0.93802 0.31498 0.75166 0.0
H998 H -0.00729 0.33035 0.7832 0.0
C999 C 0.03605 0.37303 0.71367 0.0
C1000 C 0.98682 0.34843 0.71263 0.0
C1001 C 0.05018 0.38593 0.69762 0.0
C1002 C 0.92939 0.31993 0.79062 0.0
C1003 C 0.94231 0.32087 0.77206 0.0
C1004 C 0.99084 0.33522 0.76348 0.0
C1005 C 0.01943 0.36088 0.70144 0.0
C1006 C 0.00344 0.34981 0.71921 0.0
C1007 C 0.96068 0.33027 0.77912 0.0
C1008 C 0.97465 0.3349 0.75751 0.0
H1009 H 0.02987 0.37456 0.63432 0.0
H1010 H 0.00525 0.35174 0.6623 0.0
H1011 H 0.01759 0.34309 0.74998 0.0
H1012 H 0.95706 0.34283 0.84468 0.0
H1013 H 0.97971 0.34478 0.81208 0.0
C1014 C 0.65585 0.61977 0.82855 0.0
C1015 C 0.65957 0.6072 0.81599 0.0
C1016 C 0.6543 0.63251 0.81248 0.0
C1017 C 0.6599 0.6511 0.74057 0.0
H1018 H 0.61574 0.65092 0.75844 0.0
C1019 C 0.61329 0.65617 0.66007 0.0
C1020 C 0.60281 0.66383 0.66794 0.0
C1021 C 0.62529 0.65539 0.67886 0.0
C1022 C 0.62835 0.65155 0.75338 0.0
H1023 H 0.66592 0.59896 0.77707 0.0
H1024 H 0.66275 0.62074 0.74906 0.0
H1025 H 0.62801 0.6385 0.79116 0.0
H1026 H 0.5979 0.67821 0.70066 0.0
H1027 H 0.61895 0.67702 0.73328 0.0
H1028 H 0.6595 0.66325 0.70192 0.0
C1029 C 0.66127 0.62104 0.7713 0.0
C1030 C 0.63544 0.64442 0.77224 0.0
C1031 C 0.66294 0.60841 0.78737 0.0
C1032 C 0.60562 0.672 0.69411 0.0
C1033 C 0.61764 0.67127 0.71284 0.0
C1034 C 0.65273 0.65816 0.72157 0.0
C1035 C 0.65631 0.63283 0.78351 0.0
C1036 C 0.65098 0.64357 0.76573 0.0
C1037 C 0.62705 0.66231 0.70582 0.0
C1038 C 0.63658 0.65796 0.72746 0.0
H1039 H 0.65338 0.61929 0.85063 0.0
H1040 H 0.65082 0.64164 0.82261 0.0
H1041 H 0.67208 0.65095 0.73511 0.0
H1042 H 0.61146 0.64981 0.64001 0.0
H1043 H 0.63225 0.64829 0.67285 0.0
C1044 C 0.23311 0.05458 0.97443 0.0
C1045 C 0.21614 0.04287 0.96274 0.0
C1046 C 0.23892 0.07293 0.97777 0.0
C1047 C 0.23114 0.10894 0.95212 0.0
H1048 H 0.24696 0.13035 0.02483 0.0
C1049 C 0.22531 0.16937 0.98784 0.0
C1050 C 0.23849 0.18236 0.00536 0.0
C1051 C 0.22597 0.15402 0.98026 0.0
C1052 C 0.24295 0.12473 0.00424 0.0
H1053 H 0.19214 0.0413 0.94498 0.0
H1054 H 0.20231 0.0732 0.95067 0.0
H1055 H 0.24196 0.10009 0.01591 0.0
H1056 H 0.26305 0.18972 0.02805 0.0
H1057 H 0.26427 0.16277 0.01461 0.0
H1058 H 0.23173 0.13333 0.94052 0.0
C1059 C 0.21114 0.06824 0.95716 0.0
C1060 C 0.24006 0.1074 -0.00083 0.0
C1061 C 0.20525 0.04992 0.95412 0.0
C1062 C 0.25267 0.1799 0.01458 0.0
C1063 C 0.25332 0.16445 0.007 0.0
C1064 C 0.23412 0.12627 0.95711 0.0
C1065 C 0.22798 0.07991 0.9691 0.0
C1066 C 0.2336 0.09915 0.97331 0.0
C1067 C 0.23987 0.15126 0.98996 0.0
C1068 C 0.2395 0.13414 0.98348 0.0
H1069 H 0.2418 0.04954 0.9813 0.0
H1070 H 0.25198 0.08167 0.987 0.0
H1071 H 0.22648 0.10301 0.93183 0.0
H1072 H 0.21421 0.17086 0.98039 0.0
H1073 H 0.21522 0.144 0.96751 0.0
C1074 C 0.93718 0.17708 0.97623 0.0
C1075 C 0.94991 0.17252 0.96673 0.0
C1076 C 0.91976 0.16356 0.98347 0.0
C1077 C 0.89453 0.11569 0.00435 0.0
H1078 H 0.85215 0.11707 0.97987 0.0
C1079 C 0.82511 0.05235 0.00257 0.0
C1080 C 0.81044 0.05348 0.01316 0.0
C1081 C 0.84169 0.0679 -0.00169 0.0
C1082 C 0.86388 0.11664 0.98715 0.0
H1083 H 0.95416 0.15017 0.95689 0.0
H1084 H 0.92393 0.1268 0.96919 0.0
H1085 H 0.88219 0.14265 0.97004 0.0
H1086 H 0.80151 0.07185 0.02688 0.0
H1087 H 0.8307 0.09922 0.01922 0.0
H1088 H 0.87636 0.08961 0.02092 0.0
C1089 C 0.92745 0.14077 0.97154 0.0
C1090 C 0.88105 0.13126 0.98156 0.0
C1091 C 0.94478 0.15421 0.96431 0.0
C1092 C 0.8126 0.07057 0.01875 0.0
C1093 C 0.82925 0.08622 0.01431 0.0
C1094 C 0.87745 0.10112 0.00983 0.0
C1095 C 0.91479 0.14527 0.98144 0.0
C1096 C 0.89655 0.13073 0.98957 0.0
C1097 C 0.84401 0.08497 0.00443 0.0
C1098 C 0.86196 0.10126 0.00076 0.0
H1099 H 0.94071 0.19107 0.97832 0.0
H1100 H 0.91029 0.16742 0.99113 0.0
H1101 H 0.90621 0.11507 0.01139 0.0
H1102 H 0.82388 0.0394 -0.00211 0.0
H1103 H 0.85274 0.06656 0.99019 0.0
C1104 C 0.80812 0.75597 0.97476 0.0
C1105 C 0.81326 0.77333 0.96478 0.0
C1106 C 0.82099 0.75066 0.97849 0.0
C1107 C 0.86596 0.76109 0.95513 0.0
H1108 H 0.86963 0.74141 0.02559 0.0
C1109 C 0.93147 0.76576 0.99133 0.0
C1110 C 0.93098 0.75155 0.00659 0.0
C1111 C 0.91558 0.76542 0.9841 0.0
C1112 C 0.86858 0.74654 0.00559 0.0
H1113 H 0.83591 0.79869 0.95083 0.0
H1114 H 0.85822 0.78939 0.95717 0.0
H1115 H 0.84432 0.74637 0.01708 0.0
H1116 H 0.9134 0.72561 0.02573 0.0
H1117 H 0.88543 0.72498 0.01289 0.0
H1118 H 0.89028 0.76158 0.9437 0.0
C1119 C 0.84426 0.77986 0.96199 0.0
C1120 C 0.85412 0.74941 0.00077 0.0
C1121 C 0.83148 0.78523 0.95856 0.0
C1122 C 0.91419 0.73677 0.01399 0.0
C1123 C 0.8982 0.73645 0.00677 0.0
C1124 C 0.88031 0.75812 0.95987 0.0
C1125 C 0.83915 0.76254 0.97193 0.0
C1126 C 0.85299 0.75721 0.9758 0.0
C1127 C 0.89877 0.75085 0.99188 0.0
C1128 C 0.88209 0.75134 0.98545 0.0
H1129 H 0.79418 0.7465 0.9798 0.0
H1130 H 0.81672 0.73722 0.98616 0.0
H1131 H 0.86521 0.76679 0.93548 0.0
H1132 H 0.94419 0.77736 0.98533 0.0
H1133 H 0.91653 0.77688 0.97307 0.0
C1134 C 0.17343 0.2515 0.47374 0.0
C1135 C 0.17522 0.2366 0.48127 0.0
C1136 C 0.15685 0.25083 0.47681 0.0
C1137 C 0.10862 0.21806 0.4795 0.0
H1138 H 0.10312 0.25497 0.51736 0.0
C1139 C 0.04056 0.20346 0.52146 0.0
C1140 C 0.03535 0.21654 0.51843 0.0
C1141 C 0.05802 0.20752 0.51501 0.0
C1142 C 0.10449 0.2447 0.50633 0.0
H1143 H 0.16123 0.20956 0.49859 0.0
H1144 H 0.13249 0.20842 0.50375 0.0
H1145 H 0.13336 0.25945 0.50948 0.0
H1146 H 0.04457 0.24429 0.5066 0.0
H1147 H 0.07525 0.25135 0.49514 0.0
H1148 H 0.07993 0.2032 0.47647 0.0
C1149 C 0.14379 0.22052 0.49527 0.0
C1150 C 0.12176 0.24726 0.50187 0.0
C1151 C 0.16029 0.22124 0.49246 0.0
C1152 C 0.04815 0.2339 0.50915 0.0
C1153 C 0.06572 0.23797 0.50267 0.0
C1154 C 0.09145 0.21554 0.4838 0.0
C1155 C 0.14182 0.23518 0.48714 0.0
C1156 C 0.12391 0.23371 0.48909 0.0
C1157 C 0.07075 0.22474 0.50527 0.0
C1158 C 0.08915 0.22859 0.49796 0.0
H1159 H 0.18473 0.26353 0.46512 0.0
H1160 H 0.15566 0.26231 0.47042 0.0
H1161 H 0.10994 0.20757 0.46906 0.0
H1162 H 0.03112 0.18999 0.52876 0.0
H1163 H 0.06158 0.19714 0.51783 0.0
C1164 C 0.75323 0.81314 0.5089 0.0
C1165 C 0.77117 0.81836 0.51556 0.0
C1166 C 0.74843 0.82618 0.50272 0.0
C1167 C 0.76861 0.87366 0.48024 0.0
H1168 H 0.72678 0.8721 0.51402 0.0
C1169 C 0.76335 0.93689 0.49225 0.0
C1170 C 0.74743 0.93622 0.48339 0.0
C1171 C 0.76422 0.92113 0.4946 0.0
C1172 C 0.73835 0.87255 0.50416 0.0
H1173 H 0.79805 0.84138 0.52125 0.0
H1174 H 0.78967 0.86387 0.51082 0.0
H1175 H 0.73207 0.84669 0.52033 0.0
H1176 H 0.71966 0.91843 0.47116 0.0
H1177 H 0.72116 0.89064 0.47571 0.0
H1178 H 0.77526 0.89969 0.46488 0.0
C1179 C 0.77935 0.84976 0.50986 0.0
C1180 C 0.74137 0.85803 0.50771 0.0
C1181 C 0.78413 0.83683 0.51604 0.0
C1182 C 0.73213 0.91934 0.47795 0.0
C1183 C 0.73296 0.90347 0.48058 0.0
C1184 C 0.76567 0.88813 0.47686 0.0
C1185 C 0.7615 0.84462 0.50296 0.0
C1186 C 0.75682 0.8587 0.49641 0.0
C1187 C 0.74915 0.90431 0.48836 0.0
C1188 C 0.7508 0.88793 0.48939 0.0
H1189 H 0.74292 0.79902 0.50838 0.0
H1190 H 0.73457 0.82183 0.4974 0.0
H1191 H 0.78039 0.87437 0.4707 0.0
H1192 H 0.77535 0.94965 0.49676 0.0
H1193 H 0.77677 0.92211 0.50112 0.0
C1194 C 0.07064 0.81368 0.48046 0.0
C1195 C 0.05389 0.81183 0.48761 0.0
C1196 C 0.08668 0.82941 0.48742 0.0
C1197 C 0.10485 0.8698 0.53285 0.0
H1198 H 0.14105 0.89276 0.47548 0.0
C1199 C 0.1549 0.94568 0.53169 0.0
C1200 C 0.17306 0.95159 0.52566 0.0
C1201 C 0.14183 0.92754 0.52883 0.0
C1202 C 0.13119 0.88637 0.49184 0.0
H1203 H 0.04083 0.82478 0.50818 0.0
H1204 H 0.06859 0.85209 0.51991 0.0
H1205 H 0.11545 0.86248 0.46783 0.0
H1206 H 0.19171 0.94308 0.51161 0.0
H1207 H 0.16866 0.91127 0.50623 0.0
H1208 H 0.12021 0.89396 0.55639 0.0
C1209 C 0.06946 0.8414 0.50931 0.0
C1210 C 0.11656 0.86903 0.48751 0.0
C1211 C 0.05351 0.82576 0.50237 0.0
C1212 C 0.17783 0.93894 0.51646 0.0
C1213 C 0.16467 0.92077 0.5133 0.0
C1214 C 0.11938 0.88714 0.53708 0.0
C1215 C 0.08623 0.84349 0.50174 0.0
C1216 C 0.10299 0.86075 0.5077 0.0
C1217 C 0.14657 0.91491 0.51966 0.0
C1218 C 0.13244 0.89576 0.51636 0.0
H1219 H 0.07135 0.80315 0.46913 0.0
H1220 H 0.0994 0.83058 0.48149 0.0
H1221 H 0.09484 0.86364 0.54906 0.0
H1222 H 0.15075 0.95504 0.53884 0.0
H1223 H 0.12793 0.92344 0.53348 0.0
C1224 C 0.77686 0.9417 0.03916 0.0
C1225 C 0.76622 0.94891 0.02997 0.0
C1226 C 0.77116 0.92349 0.03532 0.0
C1227 C 0.74374 0.88518 0.9908 0.0
H1228 H 0.75067 0.85831 0.04952 0.0
C1229 C 0.73236 0.81317 0.974 0.0
C1230 C 0.74648 0.81081 0.98386 0.0
C1231 C 0.73132 0.8284 0.98161 0.0
C1232 C 0.74866 0.86563 0.03291 0.0
H1233 H 0.74122 0.94263 0.00949 0.0
H1234 H 0.73136 0.91066 0.00239 0.0
H1235 H 0.75524 0.8883 0.05902 0.0
H1236 H 0.77026 0.82227 0.00997 0.0
H1237 H 0.76853 0.84875 0.023 0.0
H1238 H 0.73788 0.8628 0.96438 0.0
C1239 C 0.74408 0.91921 0.01269 0.0
C1240 C 0.75125 0.88277 0.03836 0.0
C1241 C 0.74971 0.93746 0.01682 0.0
C1242 C 0.75922 0.82369 0.00201 0.0
C1243 C 0.75814 0.83882 0.00966 0.0
C1244 C 0.74121 0.86802 0.98529 0.0
C1245 C 0.75475 0.91206 0.02201 0.0
C1246 C 0.74934 0.89292 0.01717 0.0
C1247 C 0.7443 0.84145 -0.00064 0.0
C1248 C 0.74419 0.85831 0.0061 0.0
H1249 H 0.78963 0.95011 0.04942 0.0
H1250 H 0.7798 0.91842 0.04232 0.0
H1251 H 0.74226 0.89276 0.97405 0.0
H1252 H 0.72232 0.80343 0.96003 0.0
H1253 H 0.72043 0.83001 0.9735 0.0
C1254 C 0.16975 0.92153 0.97955 0.0
C1255 C 0.17259 0.93868 0.98674 0.0
C1256 C 0.15319 0.90603 0.98511 0.0
C1257 C 0.10564 0.89223 -0.00411 0.0
H1258 H 0.10112 0.84848 0.02746 0.0
C1259 C 0.03826 0.83627 0.03748 0.0
C1260 C 0.03316 0.8183 0.03123 0.0
C1261 C 0.05569 0.8502 0.03191 0.0
C1262 C 0.10219 0.86053 0.01832 0.0
H1263 H 0.16061 0.95299 0.00632 0.0
H1264 H 0.1319 0.92606 0.01609 0.0
H1265 H 0.1311 0.87427 0.01805 0.0
H1266 H 0.04254 0.80085 0.01477 0.0
H1267 H 0.07306 0.82535 0.0048 0.0
H1268 H 0.07689 0.87867 -0.00394 0.0
C1269 C 0.14231 0.92457 0.00578 0.0
C1270 C 0.11932 0.87527 0.01296 0.0
C1271 C 0.1588 0.93999 0.00032 0.0
C1272 C 0.04604 0.81456 0.01982 0.0
C1273 C 0.06353 0.82856 0.0142 0.0
C1274 C 0.0886 0.87755 0.00115 0.0
C1275 C 0.13921 0.90746 -0.00217 0.0
C1276 C 0.12119 0.89136 0.00213 0.0
C1277 C 0.06845 0.84656 0.01987 0.0
C1278 C 0.08666 0.86165 0.01285 0.0
H1279 H 0.18015 0.9201 0.96911 0.0
H1280 H 0.15115 0.89301 0.97871 0.0
H1281 H 0.10666 0.9043 0.98692 0.0
H1282 H 0.02876 0.83964 0.04651 0.0
H1283 H 0.05916 0.86389 0.03706 0.0
C1284 C 0.15327 0.20554 0.02345 0.0
C1285 C 0.17162 0.21871 0.02204 0.0
C1286 C 0.14007 0.20975 0.01628 0.0
C1287 C 0.1307 0.24685 0.00807 0.0
H1288 H 0.09022 0.21084 0.96557 0.0
C1289 C 0.06917 0.25356 0.97111 0.0
C1290 C 0.05239 0.23818 0.97671 0.0
C1291 C 0.08516 0.25316 0.97523 0.0
C1292 C 0.10143 0.22101 0.97745 0.0
H1293 H 0.19047 0.2468 0.01253 0.0
H1294 H 0.16722 0.25414 -0.00016 0.0
H1295 H 0.11572 0.20657 0.97505 0.0
H1296 H 0.03922 0.21056 0.99173 0.0
H1297 H 0.06692 0.20991 -0.0013 0.0
H1298 H 0.11609 0.26114 0.01065 0.0
C1299 C 0.16316 0.24056 0.00662 0.0
C1300 C 0.116 0.21856 0.98294 0.0
C1301 C 0.17645 0.23634 0.0138 0.0
C1302 C 0.05191 0.22261 0.98704 0.0
C1303 C 0.06777 0.22218 0.9909 0.0
C1304 C 0.11606 0.24935 0.00245 0.0
C1305 C 0.14485 0.22721 0.00743 0.0
C1306 C 0.13055 0.23116 -0.00101 0.0
C1307 C 0.08453 0.23733 0.98469 0.0
C1308 C 0.10109 0.23616 0.98777 0.0
H1309 H 0.14902 0.19187 0.02993 0.0
H1310 H 0.12606 0.19926 0.01772 0.0
H1311 H 0.14173 0.25677 0.02052 0.0
H1312 H 0.06994 0.26576 0.96322 0.0
H1313 H 0.09794 0.26503 0.97034 0.0
C1314 C 0.94576 0.78775 0.45605 0.0
C1315 C 0.95124 0.77532 0.4632 0.0
C1316 C 0.92823 0.78396 0.46142 0.0
C1317 C 0.88207 0.7473 0.47668 0.0
H1318 H 0.87691 0.78694 0.50466 0.0
C1319 C 0.8143 0.74111 0.51418 0.0
C1320 C 0.81128 0.75494 0.50492 0.0
C1321 C 0.83086 0.74207 0.50915 0.0
C1322 C 0.87813 0.77577 0.4967 0.0
H1323 H 0.94242 0.74892 0.48105 0.0
H1324 H 0.91174 0.74238 0.49077 0.0
H1325 H 0.90684 0.79148 0.49606 0.0
H1326 H 0.82288 0.78019 0.48215 0.0
H1327 H 0.85156 0.78181 0.47345 0.0
H1328 H 0.85316 0.73162 0.47748 0.0
C1329 C 0.92104 0.75501 0.48077 0.0
C1330 C 0.89526 0.77837 0.49171 0.0
C1331 C 0.93863 0.75879 0.47531 0.0
C1332 C 0.82484 0.76939 0.4898 0.0
C1333 C 0.84131 0.77038 0.48491 0.0
C1334 C 0.86483 0.74466 0.48181 0.0
C1335 C 0.91574 0.76767 0.47421 0.0
C1336 C 0.89744 0.76429 0.48113 0.0
C1337 C 0.84463 0.75693 0.49496 0.0
C1338 C 0.86273 0.759 0.49136 0.0
H1339 H 0.95505 0.80053 0.44643 0.0
H1340 H 0.92446 0.79383 0.45554 0.0
H1341 H 0.88332 0.73621 0.46844 0.0
H1342 H 0.80407 0.72979 0.52582 0.0
H1343 H 0.83311 0.73153 0.51712 0.0
C1344 C 0.20203 0.15509 0.48295 0.0
C1345 C 0.21491 0.17247 0.47408 0.0
C1346 C 0.20674 0.14186 0.48682 0.0
C1347 C 0.21614 0.11326 0.47532 0.0
H1348 H 0.26212 0.12301 0.50517 0.0
C1349 C 0.2324 0.05643 0.48219 0.0
C1350 C 0.24071 0.05541 0.50658 0.0
C1351 C 0.23192 0.07207 0.47579 0.0
C1352 C 0.24917 0.12003 0.49695 0.0
H1353 H 0.24297 0.18977 0.46293 0.0
H1354 H 0.25113 0.1664 0.46883 0.0
H1355 H 0.25556 0.14755 0.50083 0.0
H1356 H 0.25572 0.0701 0.54289 0.0
H1357 H 0.25418 0.09718 0.53247 0.0
H1358 H 0.20922 0.08571 0.4728 0.0
C1359 C 0.23744 0.16311 0.47332 0.0
C1360 C 0.2455 0.13416 0.49416 0.0
C1361 C 0.23276 0.17648 0.46983 0.0
C1362 C 0.24926 0.07058 0.52389 0.0
C1363 C 0.24844 0.08613 0.51781 0.0
C1364 C 0.2197 0.09917 0.47842 0.0
C1365 C 0.22439 0.14554 0.48144 0.0
C1366 C 0.22883 0.13088 0.48359 0.0
C1367 C 0.23933 0.08688 0.49403 0.0
C1368 C 0.23622 0.10231 0.48939 0.0
H1369 H 0.18822 0.15166 0.48681 0.0
H1370 H 0.19645 0.12866 0.4939 0.0
H1371 H 0.20331 0.11026 0.46653 0.0
H1372 H 0.22594 0.04498 0.4683 0.0
H1373 H 0.22529 0.07233 0.45686 0.0
C1374 C 0.91574 0.17676 0.51233 0.0
C1375 C 0.93249 0.17886 0.50453 0.0
C1376 C 0.89986 0.16023 0.50831 0.0
C1377 C 0.88483 0.11214 0.50223 0.0
H1378 H 0.84162 0.10699 0.46783 0.0
C1379 C 0.83021 0.04421 0.46105 0.0
C1380 C 0.81207 0.03892 0.46596 0.0
C1381 C 0.84383 0.06175 0.46684 0.0
C1382 C 0.85351 0.10825 0.47783 0.0
H1383 H 0.94567 0.16556 0.48542 0.0
H1384 H 0.91814 0.13692 0.47851 0.0
H1385 H 0.86747 0.13721 0.47599 0.0
H1386 H 0.79399 0.04808 0.48026 0.0
H1387 H 0.81797 0.07886 0.4906 0.0
H1388 H 0.87113 0.08337 0.50405 0.0
C1389 C 0.91725 0.14791 0.48804 0.0
C1390 C 0.86826 0.12552 0.48247 0.0
C1391 C 0.93301 0.16436 0.49188 0.0
C1392 C 0.80784 0.05173 0.47628 0.0
C1393 C 0.82154 0.06936 0.48211 0.0
C1394 C 0.87014 0.09498 0.49773 0.0
C1395 C 0.90057 0.14555 0.49665 0.0
C1396 C 0.88421 0.12756 0.4941 0.0
C1397 C 0.8397 0.07445 0.47778 0.0
C1398 C 0.85448 0.09282 0.48486 0.0
H1399 H 0.91493 0.18774 0.52207 0.0
H1400 H 0.88715 0.15874 0.51511 0.0
H1401 H 0.89681 0.11335 0.51182 0.0
H1402 H 0.83398 0.03478 0.45288 0.0
H1403 H 0.85766 0.06536 0.46269 0.0
C1404 C 0.91271 0.50539 0.35336 0.0
C1405 C 0.9038 0.51175 0.33635 0.0
C1406 C 0.91193 0.48904 0.34731 0.0
C1407 C 0.88291 0.44676 0.30913 0.0
H1408 H 0.92 0.43544 0.32858 0.0
C1409 C 0.89771 0.38385 0.29745 0.0
C1410 C 0.8802 0.36961 0.30291 0.0
C1411 C 0.90194 0.40177 0.30101 0.0
C1412 C 0.90958 0.43843 0.32274 0.0
H1413 H 0.88837 0.50691 0.29863 0.0
H1414 H 0.88773 0.4789 0.28732 0.0
H1415 H 0.926 0.46635 0.33338 0.0
H1416 H 0.85365 0.36292 0.3176 0.0
H1417 H 0.86114 0.39398 0.32467 0.0
H1418 H 0.86669 0.41913 0.29765 0.0
C1419 C 0.89465 0.48602 0.30597 0.0
C1420 C 0.91294 0.45612 0.3258 0.0
C1421 C 0.89512 0.50214 0.3123 0.0
C1422 C 0.8672 0.3736 0.31282 0.0
C1423 C 0.87147 0.39144 0.31671 0.0
C1424 C 0.87964 0.42922 0.30579 0.0
C1425 C 0.90248 0.47892 0.32389 0.0
C1426 C 0.89957 0.46046 0.31924 0.0
C1427 C 0.88879 0.40577 0.31037 0.0
C1428 C 0.89281 0.42474 0.31292 0.0
H1429 H 0.91946 0.51256 0.37208 0.0
H1430 H 0.91801 0.48395 0.36171 0.0
H1431 H 0.87213 0.44944 0.30431 0.0
H1432 H 0.90801 0.38118 0.28973 0.0
H1433 H 0.91537 0.41247 0.29572 0.0
C1434 C 0.60272 0.51176 0.31219 0.0
C1435 C 0.61529 0.50639 0.30527 0.0
C1436 C 0.58531 0.499 0.32085 0.0
C1437 C 0.55977 0.45323 0.35047 0.0
H1438 H 0.51774 0.4513 0.3169 0.0
C1439 C 0.49228 0.38816 0.34534 0.0
C1440 C 0.47651 0.38851 0.35195 0.0
C1441 C 0.50867 0.40414 0.34276 0.0
C1442 C 0.52935 0.45188 0.3268 0.0
H1443 H 0.61933 0.48336 0.30186 0.0
H1444 H 0.58917 0.46129 0.31674 0.0
H1445 H 0.54782 0.47676 0.30673 0.0
H1446 H 0.46546 0.40591 0.36058 0.0
H1447 H 0.49438 0.43412 0.35564 0.0
H1448 H 0.54148 0.42813 0.36976 0.0
C1449 C 0.59279 0.47536 0.31585 0.0
C1450 C 0.54654 0.46642 0.321 0.0
C1451 C 0.61006 0.48802 0.3071 0.0
C1452 C 0.47743 0.40526 0.35553 0.0
C1453 C 0.49392 0.42136 0.35266 0.0
C1454 C 0.54268 0.43875 0.35618 0.0
C1455 C 0.58025 0.48069 0.32297 0.0
C1456 C 0.56194 0.4669 0.33211 0.0
C1457 C 0.50971 0.42089 0.34655 0.0
C1458 C 0.52736 0.43764 0.34373 0.0
H1459 H 0.60632 0.52581 0.31098 0.0
H1460 H 0.5759 0.50347 0.32624 0.0
H1461 H 0.57137 0.45347 0.35983 0.0
H1462 H 0.49204 0.37549 0.34238 0.0
H1463 H 0.52057 0.40338 0.33754 0.0
C1464 C 0.47468 0.08828 0.31073 0.0
C1465 C 0.47956 0.105 0.29837 0.0
C1466 C 0.48757 0.08303 0.31481 0.0
C1467 C 0.53125 0.09132 0.28868 0.0
H1468 H 0.53831 0.07686 0.36158 0.0
C1469 C 0.59835 0.09829 0.32138 0.0
C1470 C 0.59859 0.08524 0.33871 0.0
C1471 C 0.58216 0.09754 0.31493 0.0
C1472 C 0.53629 0.08051 0.34096 0.0
H1473 H 0.50176 0.12925 0.28051 0.0
H1474 H 0.52407 0.12002 0.28742 0.0
H1475 H 0.51264 0.08128 0.35326 0.0
H1476 H 0.58199 0.06094 0.36248 0.0
H1477 H 0.5535 0.05958 0.35101 0.0
H1478 H 0.55497 0.09088 0.27637 0.0
C1479 C 0.5103 0.11097 0.29387 0.0
C1480 C 0.52163 0.08307 0.33624 0.0
C1481 C 0.49753 0.1163 0.29012 0.0
C1482 C 0.58221 0.0712 0.34909 0.0
C1483 C 0.56593 0.07047 0.34264 0.0
C1484 C 0.5458 0.08866 0.29332 0.0
C1485 C 0.50546 0.09429 0.30618 0.0
C1486 C 0.51932 0.08904 0.31028 0.0
C1487 C 0.56577 0.0837 0.32558 0.0
C1488 C 0.54882 0.08378 0.31973 0.0
H1489 H 0.46094 0.0793 0.31736 0.0
H1490 H 0.48352 0.0701 0.32435 0.0
H1491 H 0.52956 0.0956 0.26832 0.0
H1492 H 0.61074 0.10931 0.31308 0.0
H1493 H 0.58257 0.10815 0.30216 0.0
C1494 C 0.83739 0.57059 0.8379 0.0
C1495 C 0.846 0.57736 0.81241 0.0
C1496 C 0.82138 0.5703 0.84416 0.0
C1497 C 0.78192 0.55744 0.8429 0.0
H1498 H 0.76849 0.59181 0.8163 0.0
C1499 C 0.70816 0.53912 0.84065 0.0
C1500 C 0.70378 0.5523 0.84818 0.0
C1501 C 0.72603 0.54375 0.83632 0.0
C1502 C 0.7721 0.58219 0.82414 0.0
H1503 H 0.84515 0.58989 0.7739 0.0
H1504 H 0.81667 0.5887 0.78425 0.0
H1505 H 0.79949 0.59827 0.81067 0.0
H1506 H 0.71469 0.5808 0.8565 0.0
H1507 H 0.74613 0.58886 0.84969 0.0
H1508 H 0.75485 0.5416 0.85707 0.0
C1509 C 0.82249 0.584 0.79977 0.0
C1510 C 0.78982 0.58579 0.82063 0.0
C1511 C 0.83876 0.58462 0.79374 0.0
C1512 C 0.71767 0.57034 0.85072 0.0
C1513 C 0.73566 0.57497 0.84669 0.0
C1514 C 0.76436 0.55395 0.84663 0.0
C1515 C 0.81335 0.57638 0.82477 0.0
C1516 C 0.7949 0.57336 0.82977 0.0
C1517 C 0.74005 0.56166 0.83981 0.0
C1518 C 0.75911 0.56611 0.83692 0.0
H1519 H 0.84286 0.56516 0.85283 0.0
H1520 H 0.81505 0.56486 0.86397 0.0
H1521 H 0.78516 0.54736 0.84979 0.0
H1522 H 0.69776 0.52514 0.83809 0.0
H1523 H 0.72885 0.53323 0.83027 0.0
C1524 C 0.45159 0.17126 0.86333 0.0
C1525 C 0.43867 0.15303 0.85896 0.0
C1526 C 0.44751 0.18479 0.85788 0.0
C1527 C 0.41034 0.1941 0.84883 0.0
H1528 H 0.44756 0.23713 0.8125 0.0
C1529 C 0.40206 0.25476 0.81282 0.0
C1530 C 0.41679 0.27191 0.81877 0.0
C1531 C 0.40317 0.23921 0.81764 0.0
C1532 C 0.43707 0.22524 0.8228 0.0
H1533 H 0.41116 0.13472 0.84598 0.0
H1534 H 0.40408 0.15854 0.83625 0.0
H1535 H 0.45232 0.21179 0.82056 0.0
H1536 H 0.44392 0.28618 0.83555 0.0
H1537 H 0.4458 0.2592 0.84397 0.0
H1538 H 0.39514 0.20779 0.85105 0.0
C1539 C 0.41733 0.16225 0.84406 0.0
C1540 C 0.4398 0.21074 0.82744 0.0
C1541 C 0.42142 0.14864 0.84954 0.0
C1542 C 0.43238 0.27319 0.8305 0.0
C1543 C 0.43351 0.25773 0.83518 0.0
C1544 C 0.40757 0.20867 0.84408 0.0
C1545 C 0.43044 0.18049 0.84785 0.0
C1546 C 0.42665 0.19516 0.84103 0.0
C1547 C 0.41908 0.24062 0.82833 0.0
C1548 C 0.4211 0.22452 0.83155 0.0
H1549 H 0.46496 0.17515 0.87081 0.0
H1550 H 0.45778 0.19869 0.86158 0.0
H1551 H 0.39998 0.18228 0.85941 0.0
H1552 H 0.38985 0.25337 0.80382 0.0
H1553 H 0.39185 0.22617 0.81216 0.0
C1554 C 0.72076 0.15404 0.83841 0.0
C1555 C 0.71973 0.14433 0.81443 0.0
C1556 C 0.73631 0.17036 0.84427 0.0
C1557 C 0.76328 0.20973 0.84021 0.0
H1558 H 0.81182 0.22164 0.82032 0.0
C1559 C 0.82019 0.28318 0.83727 0.0
C1560 C 0.83717 0.28726 0.84734 0.0
C1561 C 0.80679 0.26533 0.83289 0.0
C1562 C 0.79837 0.21849 0.82626 0.0
H1563 H 0.73434 0.14358 0.7783 0.0
H1564 H 0.76133 0.1725 0.78789 0.0
H1565 H 0.78715 0.19058 0.81575 0.0
H1566 H 0.8536 0.27584 0.86019 0.0
H1567 H 0.82995 0.24452 0.85338 0.0
H1568 H 0.77441 0.23735 0.85158 0.0
C1569 C 0.75032 0.16735 0.80258 0.0
C1570 C 0.78419 0.20072 0.82333 0.0
C1571 C 0.73482 0.1508 0.797 0.0
C1572 C 0.84063 0.2731 0.85237 0.0
C1573 C 0.8271 0.25516 0.84834 0.0
C1574 C 0.77741 0.22737 0.84338 0.0
C1575 C 0.75105 0.17755 0.82593 0.0
C1576 C 0.76644 0.19615 0.83014 0.0
C1577 C 0.80994 0.25106 0.83891 0.0
C1578 C 0.79511 0.23205 0.83615 0.0
H1579 H 0.70938 0.1492 0.8524 0.0
H1580 H 0.73658 0.17755 0.86288 0.0
H1581 H 0.74978 0.20687 0.84519 0.0
H1582 H 0.81719 0.29381 0.8328 0.0
H1583 H 0.79391 0.26272 0.82489 0.0
C1584 C 0.4319 0.16056 0.32146 0.0
C1585 C 0.41632 0.14564 0.31082 0.0
C1586 C 0.43272 0.17712 0.3247 0.0
C1587 C 0.40612 0.19916 0.33359 0.0
H1588 H 0.45006 0.24125 0.3084 0.0
C1589 C 0.42003 0.27284 0.34483 0.0
C1590 C 0.43733 0.28525 0.35477 0.0
C1591 C 0.41585 0.25542 0.33701 0.0
C1592 C 0.43774 0.22964 0.31563 0.0
H1593 H 0.38914 0.13618 0.29605 0.0
H1594 H 0.39057 0.16535 0.30206 0.0
H1595 H 0.44545 0.21123 0.29956 0.0
H1596 H 0.46371 0.28897 0.36453 0.0
H1597 H 0.4564 0.25875 0.35116 0.0
H1598 H 0.39868 0.21772 0.35038 0.0
C1599 C 0.40213 0.16412 0.30771 0.0
C1600 C 0.43509 0.21247 0.31054 0.0
C1601 C 0.40134 0.14748 0.30423 0.0
C1602 C 0.45028 0.27983 0.35685 0.0
C1603 C 0.44613 0.26252 0.34899 0.0
C1604 C 0.4088 0.21642 0.3388 0.0
C1605 C 0.41797 0.17915 0.31753 0.0
C1606 C 0.4195 0.19709 0.32011 0.0
C1607 C 0.42893 0.25016 0.33883 0.0
C1608 C 0.42488 0.23184 0.33051 0.0
H1609 H 0.44364 0.15958 0.32689 0.0
H1610 H 0.44498 0.1884 0.33282 0.0
H1611 H 0.39399 0.18749 0.34121 0.0
H1612 H 0.40974 0.27659 0.34299 0.0
H1613 H 0.4025 0.24617 0.32918 0.0
C1614 C 0.83817 0.26509 0.34124 0.0
C1615 C 0.84688 0.26653 0.31599 0.0
C1616 C 0.82205 0.24947 0.34769 0.0
C1617 C 0.79006 0.20225 0.32474 0.0
H1618 H 0.75521 0.21258 0.35862 0.0
C1619 C 0.70824 0.16882 0.34109 0.0
C1620 C 0.70337 0.15116 0.34893 0.0
C1621 C 0.72629 0.18182 0.3373 0.0
C1622 C 0.7647 0.20944 0.34889 0.0
H1623 H 0.84615 0.25254 0.2782 0.0
H1624 H 0.81753 0.22548 0.28882 0.0
H1625 H 0.78591 0.2367 0.3523 0.0
H1626 H 0.71358 0.13315 0.35839 0.0
H1627 H 0.74527 0.15607 0.35253 0.0
H1628 H 0.76836 0.17506 0.32004 0.0
C1629 C 0.82332 0.23619 0.30405 0.0
C1630 C 0.78247 0.22326 0.34574 0.0
C1631 C 0.83969 0.25173 0.29786 0.0
C1632 C 0.71693 0.14666 0.35229 0.0
C1633 C 0.73508 0.15977 0.34882 0.0
C1634 C 0.77214 0.1884 0.32764 0.0
C1635 C 0.81403 0.2351 0.32869 0.0
C1636 C 0.7954 0.2199 0.33349 0.0
C1637 C 0.73997 0.17758 0.34167 0.0
C1638 C 0.75921 0.19191 0.33946 0.0
H1639 H 0.8436 0.27625 0.35574 0.0
H1640 H 0.8156 0.2489 0.36724 0.0
H1641 H 0.79968 0.19912 0.31548 0.0
H1642 H 0.6981 0.17265 0.33796 0.0
H1643 H 0.72951 0.19526 0.33103 0.0
C1644 C 0.84135 0.56538 0.3418 0.0
C1645 C 0.83641 0.54762 0.34939 0.0
C1646 C 0.82815 0.56976 0.33477 0.0
C1647 C 0.78095 0.54832 0.31103 0.0
H1648 H 0.78178 0.591 0.33999 0.0
C1649 C 0.71752 0.55365 0.31697 0.0
C1650 C 0.71829 0.56945 0.30711 0.0
C1651 C 0.73321 0.55281 0.32026 0.0
C1652 C 0.78154 0.57918 0.33145 0.0
H1653 H 0.81373 0.52067 0.35616 0.0
H1654 H 0.7909 0.52834 0.3443 0.0
H1655 H 0.80713 0.58611 0.34924 0.0
H1656 H 0.73616 0.59699 0.29372 0.0
H1657 H 0.76387 0.59555 0.29989 0.0
H1658 H 0.75519 0.54109 0.29399 0.0
C1659 C 0.80493 0.53882 0.34322 0.0
C1660 C 0.79602 0.57638 0.33671 0.0
C1661 C 0.81805 0.53445 0.35021 0.0
C1662 C 0.73518 0.58461 0.30128 0.0
C1663 C 0.75099 0.58382 0.30486 0.0
C1664 C 0.76651 0.55107 0.30593 0.0
C1665 C 0.80982 0.55645 0.33513 0.0
C1666 C 0.79562 0.56066 0.32714 0.0
C1667 C 0.75008 0.56779 0.31395 0.0
C1668 C 0.76645 0.56627 0.31667 0.0
H1669 H 0.85539 0.57585 0.34098 0.0
H1670 H 0.83231 0.58346 0.32855 0.0
H1671 H 0.78046 0.53632 0.30277 0.0
H1672 H 0.70474 0.54175 0.32177 0.0
H1673 H 0.73215 0.54038 0.32775 0.0
C1674 C 0.60324 0.09066 0.80865 0.0
C1675 C 0.6163 0.10825 0.80069 0.0
C1676 C 0.5856 0.08654 0.81475 0.0
C1677 C 0.55995 0.1088 0.83511 0.0
H1678 H 0.51816 0.06577 0.80689 0.0
C1679 C 0.49132 0.10372 0.82832 0.0
C1680 C 0.47638 0.08813 0.83895 0.0
C1681 C 0.50775 0.10439 0.82462 0.0
C1682 C 0.52973 0.07771 0.81517 0.0
H1683 H 0.62092 0.13517 0.79225 0.0
H1684 H 0.59036 0.12796 0.80248 0.0
H1685 H 0.54841 0.07026 0.79902 0.0
H1686 H 0.46674 0.06072 0.85297 0.0
H1687 H 0.49568 0.06188 0.84618 0.0
H1688 H 0.54144 0.11652 0.85062 0.0
C1689 C 0.59376 0.11742 0.8046 0.0
C1690 C 0.547 0.08028 0.81072 0.0
C1691 C 0.61129 0.12152 0.79856 0.0
C1692 C 0.47805 0.07294 0.84483 0.0
C1693 C 0.49455 0.07357 0.8409 0.0
C1694 C 0.54278 0.10629 0.8394 0.0
C1695 C 0.58076 0.09996 0.81306 0.0
C1696 C 0.56231 0.09608 0.82009 0.0
C1697 C 0.50963 0.08946 0.8313 0.0
C1698 C 0.52754 0.09095 0.82893 0.0
H1699 H 0.60667 0.08012 0.81047 0.0
H1700 H 0.57587 0.07298 0.8213 0.0
H1701 H 0.57144 0.12089 0.84322 0.0
H1702 H 0.49047 0.11562 0.8234 0.0
H1703 H 0.51908 0.1167 0.81671 0.0
C1704 C 0.90051 0.51344 0.80391 0.0
C1705 C 0.88288 0.50997 0.80872 0.0
C1706 C 0.90489 0.49992 0.80831 0.0
C1707 C 0.88257 0.45021 0.81247 0.0
H1708 H 0.92863 0.45901 0.84061 0.0
C1709 C 0.91472 0.40586 0.85766 0.0
C1710 C 0.90615 0.39112 0.83951 0.0
C1711 C 0.91417 0.42168 0.85258 0.0
C1712 C 0.91566 0.45632 0.83286 0.0
H1713 H 0.85635 0.49006 0.82357 0.0
H1714 H 0.86408 0.46682 0.83205 0.0
H1715 H 0.92273 0.48406 0.83664 0.0
H1716 H 0.89161 0.38177 0.8008 0.0
H1717 H 0.8913 0.40952 0.79128 0.0
H1718 H 0.87509 0.4225 0.80973 0.0
C1719 C 0.8744 0.47969 0.82393 0.0
C1720 C 0.91236 0.47071 0.83032 0.0
C1721 C 0.86998 0.49306 0.81921 0.0
C1722 C 0.89808 0.39286 0.81534 0.0
C1723 C 0.89781 0.40872 0.81002 0.0
C1724 C 0.8858 0.43589 0.81519 0.0
C1725 C 0.89175 0.48276 0.81785 0.0
C1726 C 0.89569 0.46777 0.82028 0.0
C1727 C 0.90525 0.42308 0.82907 0.0
C1728 C 0.90237 0.43871 0.82541 0.0
H1729 H 0.91073 0.52636 0.79581 0.0
H1730 H 0.91836 0.50271 0.8033 0.0
H1731 H 0.86971 0.44747 0.80414 0.0
H1732 H 0.92102 0.40484 0.87649 0.0
H1733 H 0.91996 0.43241 0.86777 0.0
C1734 C 0.60092 0.50013 0.81825 0.0
C1735 C 0.60032 0.5136 0.83403 0.0
C1736 C 0.58527 0.48381 0.81306 0.0
C1737 C 0.53595 0.46068 0.81078 0.0
H1738 H 0.54028 0.41822 0.82295 0.0
C1739 C 0.47578 0.38676 0.80417 0.0
C1740 C 0.47955 0.37424 0.79141 0.0
C1741 C 0.48966 0.4044 0.80947 0.0
C1742 C 0.53887 0.42993 0.81919 0.0
H1743 H 0.58268 0.52084 0.85573 0.0
H1744 H 0.55511 0.49208 0.84652 0.0
H1745 H 0.56597 0.44798 0.83179 0.0
H1746 H 0.5007 0.37069 0.77306 0.0
H1747 H 0.52467 0.40131 0.78189 0.0
H1748 H 0.5088 0.44247 0.79782 0.0
C1749 C 0.5678 0.49427 0.83826 0.0
C1750 C 0.55358 0.44698 0.8243 0.0
C1751 C 0.58356 0.51067 0.84358 0.0
C1752 C 0.49733 0.37989 0.78323 0.0
C1753 C 0.51112 0.39745 0.78844 0.0
C1754 C 0.52116 0.44353 0.80554 0.0
C1755 C 0.5686 0.48055 0.82346 0.0
C1756 C 0.5524 0.46254 0.81969 0.0
C1757 C 0.50753 0.4098 0.80209 0.0
C1758 C 0.52261 0.42801 0.80921 0.0
H1759 H 0.61359 0.50201 0.81036 0.0
H1760 H 0.58623 0.47361 0.80113 0.0
H1761 H 0.5347 0.47249 0.80704 0.0
H1762 H 0.46222 0.38283 0.8107 0.0
H1763 H 0.4865 0.41362 0.82009 0.0
C1764 C 0.56306 0.71669 0.64003 0.0
C1765 C 0.54586 0.70387 0.6303 0.0
C1766 C 0.56704 0.73427 0.64631 0.0
C1767 C 0.54423 0.75993 0.66356 0.0
H1768 H 0.58919 0.8021 0.64179 0.0
C1769 C 0.55133 0.82958 0.65826 0.0
C1770 C 0.5662 0.84382 0.67162 0.0
C1771 C 0.55055 0.81311 0.65413 0.0
C1772 C 0.57668 0.79041 0.64825 0.0
H1773 H 0.51956 0.69965 0.6187 0.0
H1774 H 0.52655 0.73019 0.62914 0.0
H1775 H 0.58456 0.77185 0.63296 0.0
H1776 H 0.59229 0.85225 0.6901 0.0
H1777 H 0.59096 0.82324 0.68251 0.0
H1778 H 0.53613 0.77837 0.67815 0.0
C1779 C 0.53686 0.72661 0.63259 0.0
C1780 C 0.57403 0.77313 0.64326 0.0
C1781 C 0.53288 0.7091 0.62643 0.0
C1782 C 0.58064 0.84147 0.67983 0.0
C1783 C 0.5799 0.82494 0.67545 0.0
C1784 C 0.54682 0.77711 0.66835 0.0
C1785 C 0.55388 0.73933 0.64294 0.0
C1786 C 0.55759 0.75771 0.65033 0.0
C1787 C 0.56465 0.81051 0.66309 0.0
C1788 C 0.5629 0.7925 0.66022 0.0
H1789 H 0.57336 0.71307 0.64323 0.0
H1790 H 0.58025 0.74376 0.65435 0.0
H1791 H 0.53161 0.74834 0.66994 0.0
H1792 H 0.54004 0.83097 0.65152 0.0
H1793 H 0.53877 0.80229 0.64412 0.0
C1794 C 0.15008 0.72958 0.65477 0.0
C1795 C 0.13906 0.72706 0.67781 0.0
C1796 C 0.1656 0.74621 0.65019 0.0
C1797 C 0.20021 0.78345 0.68841 0.0
H1798 H 0.21564 0.80654 0.61658 0.0
C1799 C 0.27427 0.82754 0.65592 0.0
C1800 C 0.27935 0.84417 0.64319 0.0
C1801 C 0.25619 0.81541 0.66169 0.0
C1802 C 0.2114 0.80036 0.63681 0.0
H1803 H 0.13525 0.74009 0.71363 0.0
H1804 H 0.16274 0.7691 0.70593 0.0
H1805 H 0.18481 0.78134 0.62259 0.0
H1806 H 0.26952 0.8612 0.62662 0.0
H1807 H 0.2377 0.83961 0.63606 0.0
H1808 H 0.22704 0.80186 0.70227 0.0
C1809 C 0.15922 0.75822 0.69136 0.0
C1810 C 0.19386 0.78593 0.6402 0.0
C1811 C 0.1435 0.74166 0.69568 0.0
C1812 C 0.26599 0.8485 0.63652 0.0
C1813 C 0.24783 0.83617 0.64181 0.0
C1814 C 0.21783 0.79766 0.68489 0.0
C1815 C 0.17053 0.76053 0.6688 0.0
C1816 C 0.18822 0.77718 0.66592 0.0
C1817 C 0.24281 0.81953 0.65442 0.0
C1818 C 0.22365 0.80602 0.65896 0.0
H1819 H 0.14693 0.71857 0.64061 0.0
H1820 H 0.17419 0.74761 0.63278 0.0
H1821 H 0.19623 0.77682 0.70837 0.0
H1822 H 0.28427 0.82387 0.6614 0.0
H1823 H 0.25262 0.80257 0.67119 0.0
C1824 C 0.2671 0.4391 0.66609 0.0
C1825 C 0.26625 0.42343 0.67679 0.0
C1826 C 0.25148 0.44012 0.66302 0.0
C1827 C 0.20282 0.41402 0.65459 0.0
H1828 H 0.20484 0.4574 0.6829 0.0
C1829 C 0.14259 0.42721 0.64784 0.0
C1830 C 0.14715 0.44484 0.64011 0.0
C1831 C 0.15608 0.42312 0.65423 0.0
C1832 C 0.20409 0.44527 0.6747 0.0
H1833 H 0.24829 0.39628 0.6917 0.0
H1834 H 0.22077 0.39803 0.68587 0.0
H1835 H 0.23037 0.45278 0.68979 0.0
H1836 H 0.16946 0.4719 0.63256 0.0
H1837 H 0.19278 0.46473 0.64319 0.0
H1838 H 0.1767 0.40678 0.63872 0.0
C1839 C 0.23362 0.40952 0.68011 0.0
C1840 C 0.21868 0.44261 0.67872 0.0
C1841 C 0.24934 0.40855 0.68349 0.0
C1842 C 0.16543 0.45821 0.63866 0.0
C1843 C 0.17884 0.45413 0.64495 0.0
C1844 C 0.1882 0.41674 0.65035 0.0
C1845 C 0.23463 0.42545 0.67032 0.0
C1846 C 0.21836 0.42718 0.6682 0.0
C1847 C 0.17435 0.4366 0.65301 0.0
C1848 C 0.18888 0.43261 0.65983 0.0
H1849 H 0.2799 0.45078 0.66065 0.0
H1850 H 0.25259 0.45246 0.65501 0.0
H1851 H 0.20228 0.40201 0.64625 0.0
H1852 H 0.12863 0.41661 0.64916 0.0
H1853 H 0.15221 0.40951 0.6605 0.0
C1854 C 0.37616 0.87361 0.19184 0.0
C1855 C 0.36955 0.88517 0.18495 0.0
C1856 C 0.39438 0.87925 0.18867 0.0
C1857 C 0.43446 0.90887 0.14954 0.0
H1858 H 0.45902 0.90017 0.20987 0.0
C1859 C 0.50727 0.92162 0.13847 0.0
C1860 C 0.50965 0.90756 0.14857 0.0
C1861 C 0.49161 0.92217 0.14482 0.0
C1862 C 0.45235 0.90264 0.19279 0.0
H1863 H 0.37683 0.91162 0.1688 0.0
H1864 H 0.40882 0.92134 0.16265 0.0
H1865 H 0.42849 0.89464 0.21669 0.0
H1866 H 0.49772 0.8833 0.17377 0.0
H1867 H 0.4705 0.88408 0.18443 0.0
H1868 H 0.45798 0.91602 0.12518 0.0
C1869 C 0.3998 0.90799 0.17078 0.0
C1870 C 0.43491 0.89953 0.19674 0.0
C1871 C 0.38154 0.90243 0.17435 0.0
C1872 C 0.49632 0.89434 0.16568 0.0
C1873 C 0.48074 0.89487 0.17199 0.0
C1874 C 0.4519 0.91183 0.14547 0.0
C1875 C 0.40638 0.89649 0.17822 0.0
C1876 C 0.42564 0.90215 0.17495 0.0
C1877 C 0.4781 0.90868 0.16147 0.0
C1878 C 0.46082 0.90824 0.16684 0.0
H1879 H 0.36731 0.86025 0.20011 0.0
H1880 H 0.39909 0.87004 0.19419 0.0
H1881 H 0.42754 0.91093 0.13241 0.0
H1882 H 0.51734 0.93203 0.12528 0.0
H1883 H 0.49003 0.93306 0.1366 0.0
C1884 C 0.08947 0.59634 0.16627 0.0
C1885 C 0.08134 0.59909 0.14298 0.0
C1886 C 0.08875 0.57984 0.17026 0.0
C1887 C 0.08775 0.54347 0.13157 0.0
H1888 H 0.07706 0.51866 0.2023 0.0
C1889 C 0.11507 0.49726 0.16581 0.0
C1890 C 0.10281 0.48058 0.17778 0.0
C1891 C 0.10977 0.50983 0.15951 0.0
C1892 C 0.07988 0.52534 0.18236 0.0
H1893 H 0.06571 0.58666 0.10591 0.0
H1894 H 0.06488 0.55788 0.11258 0.0
H1895 H 0.07196 0.54417 0.19615 0.0
H1896 H 0.07533 0.46391 0.19232 0.0
H1897 H 0.06623 0.48621 0.18191 0.0
H1898 H 0.09645 0.52518 0.11817 0.0
C1899 C 0.07164 0.56848 0.12781 0.0
C1900 C 0.07706 0.53994 0.17891 0.0
C1901 C 0.07208 0.58489 0.12408 0.0
C1902 C 0.08506 0.47664 0.18303 0.0
C1903 C 0.07986 0.48938 0.17719 0.0
C1904 C 0.09086 0.52907 0.13517 0.0
C1905 C 0.08014 0.5659 0.15079 0.0
C1906 C 0.08121 0.54927 0.1536 0.0
C1907 C 0.0922 0.50609 0.16548 0.0
C1908 C 0.08719 0.52006 0.16072 0.0
H1909 H 0.09665 0.60704 0.18121 0.0
H1910 H 0.09554 0.57822 0.18802 0.0
H1911 H 0.09118 0.55055 0.11193 0.0
H1912 H 0.12881 0.50065 0.16143 0.0
H1913 H 0.11958 0.52271 0.15071 0.0
C1914 C 0.4866 0.61611 0.17344 0.0
C1915 C 0.5039 0.62012 0.18184 0.0
C1916 C 0.47302 0.59827 0.16953 0.0
C1917 C 0.44389 0.56025 0.18033 0.0
H1918 H 0.45276 0.52377 0.1488 0.0
C1919 C 0.38679 0.48703 0.17373 0.0
C1920 C 0.38541 0.47772 0.14912 0.0
C1921 C 0.40242 0.50326 0.17969 0.0
C1922 C 0.45003 0.53382 0.15748 0.0
H1923 H 0.52064 0.60861 0.19228 0.0
H1924 H 0.4967 0.57732 0.18626 0.0
H1925 H 0.47762 0.5547 0.15358 0.0
H1926 H 0.39949 0.47765 0.11189 0.0
H1927 H 0.42658 0.5064 0.12167 0.0
H1928 H 0.41626 0.53982 0.18298 0.0
C1929 C 0.49374 0.588 0.18216 0.0
C1930 C 0.46434 0.55151 0.16053 0.0
C1931 C 0.50743 0.60592 0.18574 0.0
C1932 C 0.40023 0.48455 0.13106 0.0
C1933 C 0.41579 0.501 0.13677 0.0
C1934 C 0.42962 0.54269 0.17701 0.0
C1935 C 0.4763 0.58396 0.17433 0.0
C1936 C 0.46138 0.56498 0.17177 0.0
C1937 C 0.4169 0.51077 0.16087 0.0
C1938 C 0.43245 0.52923 0.16547 0.0
H1939 H 0.48351 0.62676 0.16988 0.0
H1940 H 0.45991 0.59572 0.16275 0.0
H1941 H 0.44114 0.57014 0.18959 0.0
H1942 H 0.37563 0.48192 0.1882 0.0
H1943 H 0.40297 0.51011 0.19883 0.0
C1944 C 0.11839 0.61858 0.67133 0.0
C1945 C 0.10552 0.62279 0.6812 0.0
C1946 C 0.11375 0.60069 0.66675 0.0
C1947 C 0.07503 0.55409 0.6591 0.0
H1948 H 0.11109 0.54164 0.68008 0.0
C1949 C 0.08654 0.48884 0.67408 0.0
C1950 C 0.07842 0.47925 0.64978 0.0
C1951 C 0.08739 0.50525 0.67946 0.0
C1952 C 0.10071 0.54475 0.6745 0.0
H1953 H 0.07756 0.61155 0.69339 0.0
H1954 H 0.06957 0.5802 0.68614 0.0
H1955 H 0.11741 0.57233 0.68593 0.0
H1956 H 0.06403 0.47874 0.61265 0.0
H1957 H 0.06606 0.50779 0.62142 0.0
H1958 H 0.05812 0.52623 0.64847 0.0
C1959 C 0.08318 0.59077 0.68145 0.0
C1960 C 0.10449 0.5625 0.67738 0.0
C1961 C 0.08778 0.60873 0.68575 0.0
C1962 C 0.07032 0.48586 0.63154 0.0
C1963 C 0.07146 0.50249 0.63669 0.0
C1964 C 0.07116 0.53622 0.65643 0.0
C1965 C 0.09619 0.58653 0.67229 0.0
C1966 C 0.09179 0.56746 0.66949 0.0
C1967 C 0.08048 0.51262 0.66032 0.0
C1968 C 0.084 0.53136 0.66404 0.0
H1969 H 0.13212 0.62912 0.66726 0.0
H1970 H 0.12401 0.59796 0.659 0.0
H1971 H 0.06498 0.55747 0.65266 0.0
H1972 H 0.09267 0.48388 0.68869 0.0
H1973 H 0.09392 0.51238 0.69826 0.0
C1974 C 0.38257 0.47928 0.67746 0.0
C1975 C 0.37105 0.48503 0.68832 0.0
C1976 C 0.40097 0.49156 0.674 0.0
C1977 C 0.43715 0.53492 0.69985 0.0
H1978 H 0.45951 0.54074 0.62787 0.0
C1979 C 0.49815 0.6012 0.66619 0.0
C1980 C 0.51134 0.60112 0.64905 0.0
C1981 C 0.48271 0.58511 0.67327 0.0
C1982 C 0.45362 0.53904 0.64828 0.0
H1983 H 0.36982 0.50813 0.7042 0.0
H1984 H 0.40181 0.52937 0.69841 0.0
H1985 H 0.42895 0.51568 0.63576 0.0
H1986 H 0.51897 0.58405 0.62652 0.0
H1987 H 0.49184 0.55574 0.63907 0.0
H1988 H 0.46154 0.5584 0.71233 0.0
C1989 C 0.39664 0.5154 0.69263 0.0
C1990 C 0.43612 0.52473 0.65274 0.0
C1991 C 0.37829 0.50325 0.69571 0.0
C1992 C 0.509 0.58452 0.63973 0.0
C1993 C 0.49345 0.56834 0.64679 0.0
C1994 C 0.45464 0.54911 0.69548 0.0
C1995 C 0.40816 0.50969 0.68181 0.0
C1996 C 0.42754 0.52293 0.67829 0.0
C1997 C 0.48006 0.56851 0.66344 0.0
C1998 C 0.46284 0.55171 0.66936 0.0
H1999 H 0.37737 0.46533 0.67154 0.0
H2000 H 0.40961 0.48686 0.66559 0.0
H2001 H 0.43092 0.53362 0.7199 0.0
H2002 H 0.49955 0.61376 0.67372 0.0
H2003 H 0.47254 0.58578 0.68572 0.0
C2004 C 0.39942 0.91607 0.62968 0.0
C2005 C 0.38462 0.90815 0.64779 0.0
C2006 C 0.41493 0.91512 0.63537 0.0
C2007 C 0.44903 0.9162 0.65612 0.0
H2008 H 0.43936 0.8706 0.68785 0.0
C2009 C 0.50538 0.90016 0.68534 0.0
C2010 C 0.50148 0.8823 0.68128 0.0
C2011 C 0.49202 0.90478 0.68132 0.0
C2012 C 0.44232 0.88335 0.6787 0.0
H2013 H 0.37485 0.8943 0.68699 0.0
H2014 H 0.40209 0.89333 0.69757 0.0
H2015 H 0.41481 0.87647 0.68128 0.0
H2016 H 0.48088 0.85554 0.66838 0.0
H2017 H 0.45789 0.86365 0.66053 0.0
H2018 H 0.47652 0.92259 0.65238 0.0
C2019 C 0.40156 0.89961 0.6784 0.0
C2020 C 0.42825 0.88688 0.6754 0.0
C2021 C 0.38599 0.90027 0.67246 0.0
C2022 C 0.48423 0.86935 0.67212 0.0
C2023 C 0.471 0.87399 0.66778 0.0
C2024 C 0.46315 0.91257 0.65919 0.0
C2025 C 0.41599 0.90646 0.6595 0.0
C2026 C 0.43136 0.90331 0.66401 0.0
C2027 C 0.47458 0.89165 0.67291 0.0
C2028 C 0.4599 0.89601 0.67029 0.0
H2029 H 0.39869 0.92221 0.61047 0.0
H2030 H 0.4257 0.92043 0.62023 0.0
H2031 H 0.45195 0.92907 0.64752 0.0
H2032 H 0.51857 0.91043 0.69242 0.0
H2033 H 0.4952 0.91848 0.6856 0.0
C2034 C 0.14481 0.40302 0.19958 0.0
C2035 C 0.14018 0.41275 0.18113 0.0
C2036 C 0.16055 0.40224 0.19547 0.0
C2037 C 0.19466 0.40823 0.144 0.0
H2038 H 0.22855 0.42678 0.20511 0.0
C2039 C 0.26685 0.41834 0.13895 0.0
C2040 C 0.28023 0.43617 0.14499 0.0
C2041 C 0.24874 0.41244 0.14473 0.0
C2042 C 0.21914 0.4214 0.18801 0.0
H2043 H 0.14779 0.42846 0.14324 0.0
H2044 H 0.17508 0.42678 0.1358 0.0
H2045 H 0.1978 0.421 0.21165 0.0
H2046 H 0.28525 0.4616 0.16257 0.0
H2047 H 0.2537 0.45114 0.17316 0.0
H2048 H 0.21619 0.40907 0.12018 0.0
C2049 C 0.16662 0.41988 0.15348 0.0
C2050 C 0.20156 0.41799 0.19178 0.0
C2051 C 0.15108 0.42094 0.15784 0.0
C2052 C 0.27523 0.44781 0.15756 0.0
C2053 C 0.25722 0.44181 0.1638 0.0
C2054 C 0.21217 0.41136 0.14036 0.0
C2055 C 0.17169 0.41085 0.17256 0.0
C2056 C 0.18932 0.41182 0.1696 0.0
C2057 C 0.24381 0.42415 0.15718 0.0
C2058 C 0.22467 0.41843 0.16213 0.0
H2059 H 0.13665 0.3966 0.21772 0.0
H2060 H 0.16419 0.39517 0.21041 0.0
H2061 H 0.18543 0.40343 0.12663 0.0
H2062 H 0.27032 0.40909 0.12919 0.0
H2063 H 0.2386 0.39875 0.13946 0.0
C2064 C 0.5641 0.84436 0.13361 0.0
C2065 C 0.54633 0.84051 0.13822 0.0
C2066 C 0.56875 0.831 0.13757 0.0
C2067 C 0.54737 0.78128 0.14099 0.0
H2068 H 0.59359 0.79114 0.16998 0.0
C2069 C 0.58087 0.73845 0.18754 0.0
C2070 C 0.5725 0.72356 0.16964 0.0
C2071 C 0.57996 0.75404 0.18212 0.0
C2072 C 0.58058 0.78815 0.162 0.0
H2073 H 0.51977 0.82002 0.15205 0.0
H2074 H 0.52797 0.79704 0.15982 0.0
H2075 H 0.58698 0.81568 0.16576 0.0
H2076 H 0.55798 0.71372 0.13102 0.0
H2077 H 0.55712 0.7411 0.12083 0.0
H2078 H 0.54051 0.75374 0.1384 0.0
C2079 C 0.5382 0.8101 0.15218 0.0
C2080 C 0.57687 0.80226 0.15929 0.0
C2081 C 0.53351 0.82332 0.14789 0.0
C2082 C 0.56431 0.72494 0.14536 0.0
C2083 C 0.5637 0.74058 0.13966 0.0
C2084 C 0.55099 0.76722 0.14393 0.0
C2085 C 0.55576 0.81362 0.14649 0.0
C2086 C 0.56014 0.79893 0.14894 0.0
C2087 C 0.5709 0.75507 0.15848 0.0
C2088 C 0.56762 0.77043 0.15448 0.0
H2089 H 0.57427 0.8575 0.12612 0.0
H2090 H 0.58237 0.83415 0.13282 0.0
H2091 H 0.53448 0.77824 0.13243 0.0
H2092 H 0.58725 0.7377 0.20646 0.0
H2093 H 0.58557 0.76487 0.19716 0.0
C2094 C 0.14318 0.71863 0.13915 0.0
C2095 C 0.14737 0.70514 0.14564 0.0
C2096 C 0.15564 0.73678 0.14432 0.0
C2097 C 0.19457 0.76681 0.18646 0.0
H2098 H 0.21017 0.79954 0.12371 0.0
C2099 C 0.24942 0.84191 0.19545 0.0
C2100 C 0.264 0.84659 0.17744 0.0
C2101 C 0.23317 0.82578 0.19167 0.0
C2102 C 0.20579 0.79057 0.14144 0.0
H2103 H 0.16755 0.69995 0.16349 0.0
H2104 H 0.18912 0.73162 0.17309 0.0
H2105 H 0.18505 0.7686 0.11833 0.0
H2106 H 0.27277 0.83863 0.14064 0.0
H2107 H 0.24422 0.81064 0.13371 0.0
H2108 H 0.2155 0.78865 0.20945 0.0
C2109 C 0.17628 0.72814 0.16381 0.0
C2110 C 0.19142 0.77296 0.13841 0.0
C2111 C 0.16399 0.71006 0.15816 0.0
C2112 C 0.26177 0.83531 0.15488 0.0
C2113 C 0.24543 0.81937 0.15082 0.0
C2114 C 0.20873 0.7845 0.18962 0.0
C2115 C 0.1723 0.74166 0.15661 0.0
C2116 C 0.18598 0.76083 0.16074 0.0
C2117 C 0.23113 0.81429 0.16952 0.0
C2118 C 0.21471 0.7964 0.16697 0.0
H2119 H 0.13049 0.71523 0.1294 0.0
H2120 H 0.15231 0.747 0.13865 0.0
H2121 H 0.19055 0.75768 0.20397 0.0
H2122 H 0.25078 0.85035 0.21305 0.0
H2123 H 0.22229 0.82214 0.20629 0.0
C2124 C 0.21343 0.20071 0.14862 0.0
C2125 C 0.22441 0.21518 0.13102 0.0
C2126 C 0.21492 0.2028 0.17728 0.0
C2127 C 0.23054 0.23728 0.23222 0.0
H2128 H 0.22243 0.19667 0.27808 0.0
C2129 C 0.23078 0.23728 0.35337 0.0
C2130 C 0.21519 0.2227 0.36485 0.0
C2131 C 0.23424 0.23778 0.32493 0.0
C2132 C 0.22476 0.20813 0.2655 0.0
H2133 H 0.24579 0.24318 0.12981 0.0
H2134 H 0.24861 0.24675 0.18011 0.0
H2135 H 0.22498 0.19498 0.22805 0.0
H2136 H 0.19104 0.19726 0.3555 0.0
H2137 H 0.19727 0.19806 0.30621 0.0
H2138 H 0.23027 0.25034 0.27004 0.0
C2139 C 0.23865 0.23385 0.17161 0.0
C2140 C 0.22614 0.20715 0.23686 0.0
C2141 C 0.23709 0.23178 0.1428 0.0
C2142 C 0.20315 0.20871 0.34736 0.0
C2143 C 0.20676 0.20908 0.31915 0.0
C2144 C 0.22937 0.23833 0.26101 0.0
C2145 C 0.22753 0.21938 0.18918 0.0
C2146 C 0.22849 0.22149 0.21979 0.0
C2147 C 0.22235 0.22356 0.3077 0.0
C2148 C 0.22596 0.22355 0.27777 0.0
H2149 H 0.20343 0.18776 0.14031 0.0
H2150 H 0.20586 0.19147 0.19012 0.0
H2151 H 0.23223 0.24852 0.21969 0.0
H2152 H 0.24027 0.24827 0.36632 0.0
H2153 H 0.24636 0.24909 0.3165 0.0
C2154 C 0.74953 0.00181 0.14186 0.0
C2155 C 0.76532 0.00238 0.13232 0.0
C2156 C 0.7447 -0.00146 0.1699 0.0
C2157 C 0.74851 0.97509 0.22901 0.0
H2158 H 0.74766 0.01086 0.27728 0.0
C2159 C 0.76216 0.9766 0.34439 0.0
C2160 C 0.75345 0.98209 0.36342 0.0
C2161 C 0.75969 0.97732 0.31603 0.0
C2162 C 0.7474 0.00053 0.26403 0.0
H2163 H 0.78846 0.0001 0.14472 0.0
H2164 H 0.77979 0.99403 0.1932 0.0
H2165 H 0.75041 0.01581 0.22709 0.0
H2166 H 0.73493 0.99229 0.36747 0.0
H2167 H 0.73045 0.99338 0.31758 0.0
H2168 H 0.74577 0.95987 0.26554 0.0
C2169 C 0.77126 -0.00377 0.17907 0.0
C2170 C 0.74902 0.00341 0.23537 0.0
C2171 C 0.77625 -0.00018 0.15135 0.0
C2172 C 0.74188 0.988 0.35335 0.0
C2173 C 0.73937 0.98869 0.32479 0.0
C2174 C 0.74665 0.9721 0.25749 0.0
C2175 C 0.7554 -0.00458 0.18852 0.0
C2176 C 0.75024 0.991 0.21784 0.0
C2177 C 0.74834 0.98344 0.30583 0.0
C2178 C 0.74683 0.98512 0.27545 0.0
H2179 H 0.74087 0.00377 0.12767 0.0
H2180 H 0.73243 -0.002 0.17689 0.0
H2181 H 0.74923 0.96526 0.21574 0.0
H2182 H 0.77121 0.97202 0.35132 0.0
H2183 H 0.76713 0.97354 0.30207 0.0
C2184 C 0.01802 0.78666 0.34357 0.0
C2185 C 0.00831 0.77263 0.36254 0.0
C2186 C 0.01571 0.78344 0.31516 0.0
C2187 C -0.00361 0.7481 0.26084 0.0
H2188 H 0.99024 0.78447 0.22252 0.0
C2189 C 0.96871 0.76204 0.1511 0.0
C2190 C 0.9781 0.75767 0.13163 0.0
C2191 C 0.9716 0.76141 0.17937 0.0
C2192 C 0.99174 0.77408 0.23292 0.0
H2193 H 0.98939 0.74395 0.36659 0.0
H2194 H 0.98507 0.73839 0.31678 0.0
H2195 H -0.00193 0.78834 0.27122 0.0
H2196 H -0.00293 0.74811 0.1266 0.0
H2197 H 0.00236 0.74729 0.17622 0.0
H2198 H 0.98963 0.7337 0.22226 0.0
C2199 C -0.00539 0.75185 0.32394 0.0
C2200 C -0.00348 0.77645 0.26078 0.0
C2201 C -0.00297 0.75506 0.35247 0.0
C2202 C 0.98966 0.7516 0.14111 0.0
C2203 C -0.00735 0.75108 0.16952 0.0
C2204 C 0.9916 0.74573 0.23277 0.0
C2205 C 0.0035 0.76615 0.30502 0.0
C2206 C -0.00107 0.76353 0.2751 0.0
C2207 C 0.98407 0.75654 0.18887 0.0
C2208 C 0.9891 0.75867 0.2186 0.0
H2209 H 0.02705 0.8003 0.35065 0.0
H2210 H 0.0231 0.79465 0.30109 0.0
H2211 H -0.00179 0.73794 0.27132 0.0
H2212 H 0.95948 0.7665 0.1445 0.0
H2213 H 0.96444 0.76526 0.1938 0.0
C2214 C 0.74902 0.76169 0.84727 0.0
C2215 C 0.76187 0.77814 0.85924 0.0
C2216 C 0.74802 0.75951 0.81847 0.0
C2217 C 0.7629 0.78592 0.75296 0.0
H2218 H 0.75698 0.74159 0.72144 0.0
C2219 C 0.78586 0.78228 0.64327 0.0
C2220 C 0.77327 0.76864 0.62583 0.0
C2221 C 0.78241 0.78216 0.67149 0.0
C2222 C 0.75842 0.75394 0.73001 0.0
H2223 H 0.78374 0.80519 0.85027 0.0
H2224 H 0.78229 0.80128 0.80051 0.0
H2225 H 0.75443 0.74393 0.77157 0.0
H2226 H 0.74742 0.74385 0.62453 0.0
H2227 H 0.74159 0.74348 0.67436 0.0
H2228 H 0.76768 0.79618 0.71152 0.0
C2229 C 0.77266 0.79016 0.81316 0.0
C2230 C 0.75691 0.75529 0.75866 0.0
C2231 C 0.77357 0.79237 0.84181 0.0
C2232 C 0.75735 0.75458 0.63743 0.0
C2233 C 0.75402 0.75432 0.66587 0.0
C2234 C 0.76463 0.78465 0.72447 0.0
C2235 C 0.7599 0.77372 0.80108 0.0
C2236 C 0.75952 0.77145 0.77052 0.0
C2237 C 0.76641 0.76829 0.683 0.0
C2238 C 0.76276 0.76879 0.71281 0.0
H2239 H 0.73977 0.75047 0.86013 0.0
H2240 H 0.73791 0.74673 0.80984 0.0
H2241 H 0.76452 0.7984 0.76127 0.0
H2242 H 0.79825 0.79333 0.63505 0.0
H2243 H 0.79227 0.79297 0.68437 0.0
C2244 C 0.21128 0.00436 0.647 0.0
C2245 C 0.22468 0.00473 0.62977 0.0
C2246 C 0.21113 0.00101 0.67526 0.0
C2247 C 0.23807 0.00423 0.73451 0.0
H2248 H 0.1931 0.96565 0.76406 0.0
C2249 C 0.22782 0.98715 0.85184 0.0
C2250 C 0.21117 0.98375 0.86268 0.0
C2251 C 0.23063 0.98811 0.82316 0.0
C2252 C 0.20572 0.97655 0.75622 0.0
H2253 H 0.24886 0.00258 0.6289 0.0
H2254 H 0.24878 -0.00284 0.67884 0.0
H2255 H 0.19623 0.97136 0.71438 0.0
H2256 H 0.18441 0.97858 0.85182 0.0
H2257 H 0.18942 0.98068 0.80235 0.0
H2258 H 0.24729 0.01005 0.77648 0.0
C2259 C 0.23832 -0.00075 0.67014 0.0
C2260 C 0.20751 0.97974 0.72778 0.0
C2261 C 0.23832 0.00231 0.64164 0.0
C2262 C 0.19737 0.98111 0.84426 0.0
C2263 C 0.20021 0.98218 0.81576 0.0
C2264 C 0.2362 0.00121 0.76313 0.0
C2265 C 0.2245 -0.00176 0.68702 0.0
C2266 C 0.22354 0.99383 0.71676 0.0
C2267 C 0.21687 0.98574 0.8048 0.0
C2268 C 0.21982 0.9876 0.77435 0.0
H2269 H 0.20057 0.00615 0.63856 0.0
H2270 H 0.20045 0.00048 0.68798 0.0
H2271 H 0.25056 0.0152 0.72639 0.0
H2272 H 0.23871 0.9892 0.86548 0.0
H2273 H 0.24357 0.99071 0.81539 0.0
C2274 C 0.98446 0.23376 0.63605 0.0
C2275 C 0.97997 0.21672 0.6254 0.0
C2276 C 0.98518 0.23661 0.66471 0.0
C2277 C 0.97057 0.21155 0.7314 0.0
H2278 H 0.01128 0.25425 0.76268 0.0
C2279 C -0.00233 0.21297 0.8395 0.0
C2280 C -0.00065 0.22651 0.85778 0.0
C2281 C -0.0059 0.21365 0.81154 0.0
C2282 C -0.0003 0.24242 0.75416 0.0
H2283 H 0.97272 0.18932 0.63659 0.0
H2284 H 0.97434 0.19435 0.68605 0.0
H2285 H 0.00681 0.25182 0.7124 0.0
H2286 H -0.00088 0.25168 0.86086 0.0
H2287 H -0.00668 0.25307 0.8113 0.0
H2288 H 0.9641 0.20174 0.77301 0.0
C2289 C 0.9769 0.20545 0.67246 0.0
C2290 C -0.0029 0.24102 0.72544 0.0
C2291 C 0.97611 0.2026 0.64398 0.0
C2292 C -0.00217 0.24102 0.84728 0.0
C2293 C -0.00544 0.24186 0.81902 0.0
C2294 C 0.97331 0.21286 0.75995 0.0
C2295 C 0.98143 0.22246 0.68323 0.0
C2296 C 0.9828 0.2253 0.7137 0.0
C2297 C -0.00761 0.228 0.80109 0.0
C2298 C 0.98815 0.22807 0.77148 0.0
H2299 H 0.98747 0.24492 0.62228 0.0
H2300 H 0.9886 0.24984 0.67235 0.0
H2301 H 0.95915 0.19948 0.72313 0.0
H2302 H -0.00129 0.20158 0.84688 0.0
H2303 H -0.00734 0.20291 0.79801 0.0
C2304 C 0.8757 0.53105 0.47641 0.0
C2305 C 0.8877 0.54527 0.4592 0.0
C2306 C 0.87652 0.53308 0.5051 0.0
C2307 C 0.89316 0.56763 0.56033 0.0
H2308 H 0.88183 0.52628 0.60673 0.0
C2309 C 0.89542 0.56943 0.68096 0.0
C2310 C 0.87988 0.55563 0.69383 0.0
C2311 C 0.89789 0.56907 0.65237 0.0
C2312 C 0.88498 0.53792 0.594 0.0
H2313 H 0.91017 0.57275 0.45875 0.0
H2314 H 0.91187 0.57617 0.5091 0.0
H2315 H 0.88412 0.52406 0.55677 0.0
H2316 H 0.85478 0.53065 0.68677 0.0
H2317 H 0.85925 0.52994 0.63705 0.0
H2318 H 0.89415 0.58147 0.59792 0.0
C2319 C 0.9016 0.56354 0.50027 0.0
C2320 C 0.88623 0.53665 0.56537 0.0
C2321 C 0.90068 0.56156 0.47143 0.0
C2322 C 0.86688 0.5415 0.67752 0.0
C2323 C 0.86948 0.54102 0.64908 0.0
C2324 C 0.89212 0.56895 0.58908 0.0
C2325 C 0.88948 0.54932 0.51745 0.0
C2326 C 0.88993 0.55135 0.54809 0.0
C2327 C 0.88501 0.55476 0.63624 0.0
C2328 C 0.88765 0.55398 0.60609 0.0
H2329 H 0.86543 0.51837 0.46773 0.0
H2330 H 0.8667 0.52197 0.51757 0.0
H2331 H 0.89586 0.57916 0.54766 0.0
H2332 H 0.90566 0.58052 0.69296 0.0
H2333 H 0.91001 0.5798 0.64293 0.0
C2334 C 0.43781 0.32681 0.48332 0.0
C2335 C 0.42824 0.3313 0.46439 0.0
C2336 C 0.43212 0.32274 0.51071 0.0
C2337 C 0.41138 0.33244 0.56645 0.0
H2338 H 0.40544 0.28806 0.59782 0.0
C2339 C 0.40625 0.31969 0.68492 0.0
C2340 C 0.41748 0.31326 0.69463 0.0
C2341 C 0.40283 0.31961 0.65653 0.0
C2342 C 0.40704 0.30051 0.58942 0.0
H2343 H 0.40535 0.33533 0.45938 0.0
H2344 H 0.39573 0.32876 0.50808 0.0
H2345 H 0.4086 0.29271 0.54783 0.0
H2346 H 0.43348 0.30125 0.68213 0.0
H2347 H 0.42784 0.30141 0.63311 0.0
H2348 H 0.41114 0.34084 0.60815 0.0
C2349 C 0.40746 0.32814 0.50128 0.0
C2350 C 0.40872 0.30309 0.56083 0.0
C2351 C 0.41294 0.33186 0.47355 0.0
C2352 C 0.42477 0.30631 0.67546 0.0
C2353 C 0.42138 0.30624 0.64726 0.0
C2354 C 0.40993 0.32996 0.59519 0.0
C2355 C 0.41693 0.32336 0.51993 0.0
C2356 C 0.41151 0.31931 0.54923 0.0
C2357 C 0.41052 0.31302 0.63737 0.0
C2358 C 0.40844 0.31424 0.60703 0.0
H2359 H 0.44958 0.32616 0.47689 0.0
H2360 H 0.43973 0.31927 0.52485 0.0
H2361 H 0.41361 0.34509 0.55787 0.0
H2362 H 0.40037 0.32509 0.69916 0.0
H2363 H 0.39431 0.32482 0.64956 0.0
C2364 C 0.67441 0.12501 0.67486 0.0
C2365 C 0.67115 0.1106 0.69241 0.0
C2366 C 0.67342 0.12283 0.6462 0.0
C2367 C 0.65401 0.08813 0.59153 0.0
H2368 H 0.68589 0.12862 0.54494 0.0
C2369 C 0.65373 0.08743 0.4704 0.0
C2370 C 0.65259 0.10186 0.45865 0.0
C2371 C 0.6567 0.08711 0.49886 0.0
C2372 C 0.67693 0.1172 0.55773 0.0
H2373 H 0.66455 0.0826 0.69353 0.0
H2374 H 0.66316 0.07889 0.64324 0.0
H2375 H 0.69059 0.13058 0.59486 0.0
H2376 H 0.6536 0.12722 0.46756 0.0
H2377 H 0.65907 0.12676 0.51692 0.0
H2378 H 0.64042 0.07482 0.55401 0.0
C2379 C 0.66619 0.09181 0.65177 0.0
C2380 C 0.67954 0.11833 0.58631 0.0
C2381 C 0.66707 0.09397 0.68057 0.0
C2382 C 0.65437 0.11588 0.47592 0.0
C2383 C 0.65762 0.1157 0.50416 0.0
C2384 C 0.65153 0.08693 0.56279 0.0
C2385 C 0.66931 0.10623 0.63425 0.0
C2386 C 0.66781 0.10403 0.60365 0.0
C2387 C 0.65892 0.10139 0.51586 0.0
C2388 C 0.66269 0.10165 0.54578 0.0
H2389 H 0.67746 0.13798 0.68322 0.0
H2390 H 0.67551 0.13412 0.63342 0.0
H2391 H 0.64464 0.07691 0.60426 0.0
H2392 H 0.65235 0.07641 0.45763 0.0
H2393 H 0.65765 0.07594 0.50748 0.0
C2394 C 0.44081 0.11632 0.17456 0.0
C2395 C 0.42711 0.10468 0.1928 0.0
C2396 C 0.44006 0.11201 0.1466 0.0
C2397 C 0.41137 0.0895 0.08906 0.0
H2398 H 0.45334 0.0895 0.05895 0.0
C2399 C 0.42025 0.0827 0.9712 0.0
C2400 C 0.43752 0.09486 0.96089 0.0
C2401 C 0.41718 0.08035 -0.0002 0.0
C2402 C 0.44154 0.08951 0.06697 0.0
H2403 H 0.40154 0.07967 0.19582 0.0
H2404 H 0.40001 0.07241 0.14628 0.0
H2405 H 0.45099 0.09254 0.10873 0.0
H2406 H 0.46513 0.11393 0.97263 0.0
H2407 H 0.45974 0.11016 0.02196 0.0
H2408 H 0.4024 0.08757 0.04715 0.0
C2409 C 0.41141 0.08471 0.15402 0.0
C2410 C 0.44018 0.09114 0.09545 0.0
C2411 C 0.41232 0.08886 0.18226 0.0
C2412 C 0.45166 0.10438 0.97974 0.0
C2413 C 0.44859 0.1021 0.00815 0.0
C2414 C 0.41284 0.0881 0.0604 0.0
C2415 C 0.42546 0.09613 0.13615 0.0
C2416 C 0.42534 0.09164 0.10663 0.0
C2417 C 0.43133 0.09012 0.01859 0.0
C2418 C 0.42824 0.08867 0.049 0.0
H2419 H 0.45241 0.12858 0.18198 0.0
H2420 H 0.45095 0.12109 0.13308 0.0
H2421 H 0.39983 0.0899 0.09733 0.0
H2422 H 0.40907 0.07512 0.95721 0.0
H2423 H 0.40375 0.07093 0.00718 0.0
C2424 C 0.89257 0.32046 0.18013 0.0
C2425 C 0.87676 0.31763 0.19347 0.0
C2426 C 0.89436 0.32274 0.15138 0.0
C2427 C 0.87843 0.33822 0.09336 0.0
H2428 H 0.89335 0.31111 0.04684 0.0
C2429 C 0.87192 0.33786 0.97517 0.0
C2430 C 0.88522 0.33743 0.95871 0.0
C2431 C 0.87184 0.33575 0.00382 0.0
C2432 C 0.88946 0.31902 0.05956 0.0
H2433 H 0.85039 0.31476 0.18702 0.0
H2434 H 0.85367 0.31898 0.13703 0.0
H2435 H 0.89159 0.30672 0.09702 0.0
H2436 H 0.90898 0.3346 0.95949 0.0
H2437 H 0.90914 0.33142 0.00973 0.0
H2438 H 0.87656 0.35078 0.0563 0.0
C2439 C 0.86464 0.31943 0.14882 0.0
C2440 C 0.88839 0.31644 0.08826 0.0
C2441 C 0.86274 0.31692 0.17743 0.0
C2442 C 0.89851 0.33492 0.9716 0.0
C2443 C 0.89853 0.333 0.00038 0.0
C2444 C 0.87971 0.34097 0.06478 0.0
C2445 C 0.8805 0.3225 0.13556 0.0
C2446 C 0.88261 0.32582 0.10534 0.0
C2447 C 0.88518 0.33338 0.01684 0.0
C2448 C 0.88495 0.3312 0.04744 0.0
H2449 H 0.90359 0.32102 0.1919 0.0
H2450 H 0.90675 0.32515 0.14161 0.0
H2451 H 0.87424 0.34586 0.10615 0.0
H2452 H 0.86137 0.33957 0.96591 0.0
H2453 H 0.8611 0.33572 0.0157 0.0
C2454 C 0.66241 0.5704 0.1793 0.0
C2455 C 0.66356 0.55588 0.19069 0.0
C2456 C 0.65944 0.57093 0.15086 0.0
C2457 C 0.63976 0.54128 0.09109 0.0
H2458 H 0.67253 0.58198 0.04565 0.0
C2459 C 0.64466 0.53412 0.97432 0.0
C2460 C 0.64778 0.54846 0.95667 0.0
C2461 C 0.64517 0.53622 0.00299 0.0
C2462 C 0.66303 0.57065 0.05808 0.0
H2463 H 0.66244 0.53054 0.18116 0.0
H2464 H 0.65702 0.53138 0.13194 0.0
H2465 H 0.67595 0.58378 0.09607 0.0
H2466 H 0.65372 0.57625 0.95542 0.0
H2467 H 0.65434 0.57982 0.00572 0.0
H2468 H 0.62684 0.52803 0.05345 0.0
C2469 C 0.65844 0.54234 0.14493 0.0
C2470 C 0.66503 0.57169 0.08691 0.0
C2471 C 0.66167 0.54195 0.17311 0.0
C2472 C 0.6513 0.56495 0.96844 0.0
C2473 C 0.65173 0.56702 -0.00275 0.0
C2474 C 0.63764 0.54029 0.06241 0.0
C2475 C 0.65722 0.55677 0.13354 0.0
C2476 C 0.65372 0.5568 0.10355 0.0
C2477 C 0.64867 0.55266 0.01485 0.0
C2478 C 0.64958 0.55474 0.04547 0.0
H2479 H 0.66386 0.58136 0.19231 0.0
H2480 H 0.65856 0.5822 0.14248 0.0
H2481 H 0.63067 0.52973 0.10355 0.0
H2482 H 0.64203 0.52127 0.96603 0.0
H2483 H 0.64315 0.52499 0.01586 0.0
C2484 C 0.52944 0.8744 0.01058 0.0
C2485 C 0.54294 0.88808 0.02693 0.0
C2486 C 0.53181 0.8739 0.98209 0.0
C2487 C 0.55529 0.90128 0.92204 0.0
H2488 H 0.54472 0.8555 0.88983 0.0
C2489 C 0.56365 0.89311 0.8047 0.0
C2490 C 0.55016 0.87719 0.79228 0.0
C2491 C 0.56442 0.89507 0.83352 0.0
C2492 C 0.54755 0.86834 0.89841 0.0
H2493 H 0.56934 0.91221 0.02605 0.0
H2494 H 0.57332 0.91145 0.97589 0.0
H2495 H 0.54272 0.85799 0.93979 0.0
H2496 H 0.52681 0.85091 0.80041 0.0
H2497 H 0.52786 0.85448 0.85032 0.0
H2498 H 0.55952 0.91151 0.8806 0.0
C2499 C 0.56098 0.90109 0.98536 0.0
C2500 C 0.54647 0.86977 0.92703 0.0
C2501 C 0.55872 0.90148 0.01402 0.0
C2502 C 0.53748 0.8633 0.80927 0.0
C2503 C 0.53816 0.8653 0.83798 0.0
C2504 C 0.55619 0.89981 0.8933 0.0
C2505 C 0.54763 0.88715 0.96924 0.0
C2506 C 0.55008 0.88617 0.93908 0.0
C2507 C 0.55165 0.88119 0.8505 0.0
C2508 C 0.55205 0.88323 0.88112 0.0
H2509 H 0.51713 0.86386 0.01981 0.0
H2510 H 0.52122 0.86314 0.97006 0.0
H2511 H 0.55805 0.91405 0.93086 0.0
H2512 H 0.57367 0.90405 0.79219 0.0
H2513 H 0.57511 0.90739 0.84249 0.0
C2514 C 0.11753 0.65582 0.01379 0.0
C2515 C 0.10387 0.65565 0.03008 0.0
C2516 C 0.1175 0.65763 0.98508 0.0
C2517 C 0.09844 0.67233 0.92867 0.0
H2518 H 0.11441 0.6457 0.88305 0.0
C2519 C 0.09404 0.66939 0.80848 0.0
C2520 C 0.10979 0.6724 0.79475 0.0
C2521 C 0.09256 0.66721 0.83725 0.0
C2522 C 0.11001 0.65329 0.89556 0.0
H2523 H 0.07938 0.6572 0.02895 0.0
H2524 H 0.07906 0.65991 0.97868 0.0
H2525 H 0.11289 0.64181 0.93312 0.0
H2526 H 0.13634 0.67554 0.8005 0.0
H2527 H 0.13363 0.67157 0.85055 0.0
H2528 H 0.09536 0.68359 0.89078 0.0
C2529 C 0.09002 0.65901 0.98818 0.0
C2530 C 0.1092 0.65113 0.92425 0.0
C2531 C 0.09015 0.65736 0.01699 0.0
C2532 C 0.12402 0.67325 0.8104 0.0
C2533 C 0.12245 0.67087 0.83905 0.0
C2534 C 0.09909 0.67435 0.89988 0.0
C2535 C 0.10368 0.65912 0.97187 0.0
C2536 C 0.10364 0.6608 0.94122 0.0
C2537 C 0.1067 0.66778 0.85274 0.0
C2538 C 0.1051 0.66502 0.88311 0.0
H2539 H 0.1284 0.6547 0.02321 0.0
H2540 H 0.12845 0.65805 0.97328 0.0
H2541 H 0.09431 0.68016 0.9411 0.0
H2542 H 0.08286 0.66871 0.79702 0.0
H2543 H 0.08025 0.66476 0.84733 0.0
C2544 C 0.33377 0.45915 0.01378 0.0
C2545 C 0.33297 0.44518 0.0301 0.0
C2546 C 0.33244 0.45755 0.98502 0.0
C2547 C 0.31681 0.42394 0.92841 0.0
H2548 H 0.345 0.46656 0.88336 0.0
C2549 C 0.31872 0.42412 0.80761 0.0
C2550 C 0.31636 0.43766 0.79517 0.0
C2551 C 0.32105 0.42405 0.8363 0.0
C2552 C 0.33702 0.45456 0.89571 0.0
H2553 H 0.3303 0.41861 0.02895 0.0
H2554 H 0.32837 0.41599 0.9786 0.0
H2555 H 0.34906 0.46841 0.9334 0.0
H2556 H 0.31437 0.46157 0.80321 0.0
H2557 H 0.31859 0.46147 0.85295 0.0
H2558 H 0.30489 0.41014 0.89038 0.0
C2559 C 0.32969 0.42804 0.98812 0.0
C2560 C 0.33928 0.45562 0.92437 0.0
C2561 C 0.33089 0.42959 0.01697 0.0
C2562 C 0.31616 0.45094 0.81204 0.0
C2563 C 0.31869 0.45098 0.84054 0.0
C2564 C 0.31468 0.42285 0.89962 0.0
C2565 C 0.33044 0.44201 0.9718 0.0
C2566 C 0.32895 0.44043 0.94114 0.0
C2567 C 0.32132 0.43764 0.85292 0.0
C2568 C 0.32453 0.43825 0.88311 0.0
H2569 H 0.33522 0.47129 0.02322 0.0
H2570 H 0.3327 0.46842 0.97317 0.0
H2571 H 0.30853 0.41202 0.94071 0.0
H2572 H 0.3189 0.41367 0.79519 0.0
H2573 H 0.32307 0.41363 0.84541 0.0
C2574 C 0.10897 0.46113 0.51214 0.0
C2575 C 0.09682 0.44683 0.52909 0.0
C2576 C 0.10848 0.45918 0.48344 0.0
C2577 C 0.09241 0.42476 0.42801 0.0
H2578 H 0.10373 0.4661 0.38159 0.0
C2579 C 0.09034 0.42282 0.30748 0.0
C2580 C 0.10584 0.43665 0.29459 0.0
C2581 C 0.08783 0.42324 0.33605 0.0
C2582 C 0.10059 0.45447 0.39433 0.0
H2583 H 0.07445 0.4193 0.52911 0.0
H2584 H 0.0733 0.41603 0.47877 0.0
H2585 H 0.10127 0.46828 0.43153 0.0
H2586 H 0.13082 0.46178 0.30155 0.0
H2587 H 0.12628 0.46259 0.35123 0.0
H2588 H 0.0916 0.41097 0.39046 0.0
C2589 C 0.08345 0.42865 0.48778 0.0
C2590 C 0.09925 0.45571 0.42294 0.0
C2591 C 0.08405 0.43055 0.51662 0.0
C2592 C 0.11875 0.4509 0.31082 0.0
C2593 C 0.11611 0.45143 0.33924 0.0
C2594 C 0.09356 0.42347 0.39928 0.0
C2595 C 0.0957 0.44295 0.47085 0.0
C2596 C 0.09552 0.441 0.44022 0.0
C2597 C 0.10064 0.43764 0.35212 0.0
C2598 C 0.09799 0.43843 0.38226 0.0
H2599 H 0.11911 0.47381 0.52103 0.0
H2600 H 0.11839 0.47034 0.47116 0.0
H2601 H 0.0897 0.41323 0.44067 0.0
H2602 H 0.08018 0.41163 0.29554 0.0
H2603 H 0.07576 0.41247 0.34551 0.0
C2604 C 0.54126 0.66877 0.30758 0.0
C2605 C 0.55504 0.67004 0.29028 0.0
C2606 C 0.5413 0.66538 0.33581 0.0
C2607 C 0.56948 0.67012 0.3945 0.0
H2608 H 0.52547 0.63101 0.42564 0.0
C2609 C 0.56178 0.65315 0.51191 0.0
C2610 C 0.54515 0.64908 0.52368 0.0
C2611 C 0.56407 0.65433 0.4831 0.0
C2612 C 0.53782 0.64208 0.41736 0.0
H2613 H 0.57996 0.66928 0.28917 0.0
H2614 H 0.5802 0.66377 0.33899 0.0
H2615 H 0.52766 0.63644 0.3759 0.0
H2616 H 0.51792 0.64308 0.51436 0.0
H2617 H 0.52202 0.64558 0.46468 0.0
H2618 H 0.57937 0.67633 0.43609 0.0
C2619 C 0.56932 0.66521 0.33042 0.0
C2620 C 0.53907 0.64511 0.38887 0.0
C2621 C 0.56913 0.66831 0.30198 0.0
C2622 C 0.53088 0.6461 0.50606 0.0
C2623 C 0.53319 0.64741 0.47744 0.0
C2624 C 0.56814 0.66725 0.42316 0.0
C2625 C 0.55525 0.66345 0.34744 0.0
C2626 C 0.55476 0.65935 0.37726 0.0
C2627 C 0.54979 0.65153 0.46554 0.0
C2628 C 0.55213 0.65343 0.43497 0.0
H2629 H 0.5302 0.67 0.29924 0.0
H2630 H 0.53041 0.66427 0.34862 0.0
H2631 H 0.5817 0.68122 0.38596 0.0
H2632 H 0.57303 0.65547 0.52491 0.0
H2633 H 0.57698 0.65736 0.47461 0.0
C2634 C 0.31425 0.86543 0.31057 0.0
C2635 C 0.31602 0.87965 0.29382 0.0
C2636 C 0.31545 0.86718 0.3393 0.0
C2637 C 0.3323 0.90103 0.39552 0.0
H2638 H 0.30205 0.85905 0.44066 0.0
C2639 C 0.32964 0.90191 0.51593 0.0
C2640 C 0.33099 0.88798 0.52914 0.0
C2641 C 0.3275 0.90175 0.4872 0.0
C2642 C 0.31062 0.87086 0.42829 0.0
H2643 H 0.32034 0.90688 0.29419 0.0
H2644 H 0.32206 0.90981 0.3446 0.0
H2645 H 0.29833 0.85726 0.39056 0.0
H2646 H 0.33121 0.86302 0.5225 0.0
H2647 H 0.32729 0.86267 0.4725 0.0
H2648 H 0.34443 0.91461 0.43358 0.0
C2649 C 0.32005 0.8974 0.33539 0.0
C2650 C 0.30855 0.86984 0.39959 0.0
C2651 C 0.31897 0.89569 0.30652 0.0
C2652 C 0.33023 0.87395 0.51301 0.0
C2653 C 0.32787 0.87368 0.48439 0.0
C2654 C 0.33424 0.9021 0.42434 0.0
C2655 C 0.31828 0.88314 0.35211 0.0
C2656 C 0.31959 0.8848 0.38279 0.0
C2657 C 0.32642 0.88752 0.47123 0.0
C2658 C 0.32363 0.88691 0.44091 0.0
H2659 H 0.31213 0.85294 0.30151 0.0
H2660 H 0.31444 0.85607 0.35144 0.0
H2661 H 0.34114 0.91275 0.38321 0.0
H2662 H 0.33023 0.91294 0.52778 0.0
H2663 H 0.32635 0.91254 0.47752 0.0
loop_
_geom_bond_atom_site_label_1
_geom_bond_atom_site_label_2
_geom_bond_distance
_geom_bond_site_symmetry_2
_ccdc_geom_bond_type
C0 O1 1.306 . S
C0 O3 1.160 . S
O1 C0 1.306 . S
O1 Cd2 2.228 . S
Cd2 O1 2.228 . S
Cd2 O6 2.273 . S
Cd2 O10 2.277 . S
O3 C0 1.160 . S
O3 Cd4 2.203 . S
Cd4 O3 2.203 . S
Cd4 O6 2.411 . S
Cd4 O7 2.333 . S
Cd4 O8 2.352 1_554 S
Cd4 O12 2.277 . S
Cd4 O13 2.356 . S
C5 O10 1.209 . S
C5 O12 1.226 . S
O6 Cd2 2.273 . S
O6 Cd4 2.411 . S
O6 C9 1.320 . S
O7 Cd4 2.333 . S
O7 C9 1.214 . S
O8 Cd4 2.352 1_556 S
O8 C11 1.258 1_556 S
C9 O6 1.320 . S
C9 O7 1.214 . S
O10 Cd2 2.277 . S
O10 C5 1.209 . S
C11 O8 1.258 1_554 S
C11 O13 1.282 . S
O12 Cd4 2.277 . S
O12 C5 1.226 . S
O13 Cd4 2.356 . S
O13 C11 1.282 . S
C14 O15 1.306 . S
C14 O17 1.160 . S
O15 C14 1.306 . S
O15 Cd16 2.228 1_565 S
Cd16 O15 2.228 1_545 S
Cd16 O20 2.273 . S
Cd16 O24 2.277 . S
O17 C14 1.160 . S
O17 Cd18 2.203 1_565 S
Cd18 O17 2.203 1_545 S
Cd18 O20 2.411 . S
Cd18 O21 2.333 . S
Cd18 O22 2.352 1_554 S
Cd18 O26 2.277 . S
Cd18 O27 2.356 . S
C19 O24 1.209 . S
C19 O26 1.226 . S
O20 Cd16 2.273 . S
O20 Cd18 2.411 . S
O20 C23 1.320 . S
O21 Cd18 2.333 . S
O21 C23 1.214 . S
O22 Cd18 2.352 1_556 S
O22 C25 1.258 1_556 S
C23 O20 1.320 . S
C23 O21 1.214 . S
O24 Cd16 2.277 . S
O24 C19 1.209 . S
C25 O22 1.258 1_554 S
C25 O27 1.282 . S
O26 Cd18 2.277 . S
O26 C19 1.226 . S
O27 Cd18 2.356 . S
O27 C25 1.282 . S
C28 O29 1.306 . S
C28 O31 1.160 . S
O29 C28 1.306 . S
O29 Cd30 2.228 1_455 S
Cd30 O29 2.228 1_655 S
Cd30 O34 2.273 . S
Cd30 O38 2.277 . S
O31 C28 1.160 . S
O31 Cd32 2.203 1_455 S
Cd32 O31 2.203 1_655 S
Cd32 O34 2.411 . S
Cd32 O35 2.333 . S
Cd32 O36 2.352 1_554 S
Cd32 O40 2.277 . S
Cd32 O41 2.356 . S
C33 O38 1.209 . S
C33 O40 1.226 . S
O34 Cd30 2.273 . S
O34 Cd32 2.411 . S
O34 C37 1.320 . S
O35 Cd32 2.333 . S
O35 C37 1.214 . S
O36 Cd32 2.352 1_556 S
O36 C39 1.258 1_556 S
C37 O34 1.320 . S
C37 O35 1.214 . S
O38 Cd30 2.277 . S
O38 C33 1.209 . S
C39 O36 1.258 1_554 S
C39 O41 1.282 . S
O40 Cd32 2.277 . S
O40 C33 1.226 . S
O41 Cd32 2.356 . S
O41 C39 1.282 . S
C42 O43 1.306 . S
C42 O45 1.160 . S
O43 C42 1.306 . S
O43 Cd44 2.228 . S
Cd44 O43 2.228 . S
Cd44 O48 2.273 . S
Cd44 O52 2.277 . S
O45 C42 1.160 . S
O45 Cd46 2.203 . S
Cd46 O45 2.203 . S
Cd46 O48 2.411 . S
Cd46 O49 2.333 . S
Cd46 O50 2.352 . S
Cd46 O54 2.277 . S
Cd46 O55 2.356 . S
C47 O52 1.209 . S
C47 O54 1.226 . S
O48 Cd44 2.273 . S
O48 Cd46 2.411 . S
O48 C51 1.320 . S
O49 Cd46 2.333 . S
O49 C51 1.214 . S
O50 Cd46 2.352 . S
O50 C53 1.258 . S
C51 O48 1.320 . S
C51 O49 1.214 . S
O52 Cd44 2.277 . S
O52 C47 1.209 . S
C53 O50 1.258 . S
C53 O55 1.282 . S
O54 Cd46 2.277 . S
O54 C47 1.226 . S
O55 Cd46 2.356 . S
O55 C53 1.282 . S
C56 O57 1.306 . S
C56 O59 1.160 . S
O57 C56 1.306 . S
O57 Cd58 2.228 1_545 S
Cd58 O57 2.228 1_565 S
Cd58 O62 2.273 . S
Cd58 O66 2.277 . S
O59 C56 1.160 . S
O59 Cd60 2.203 1_545 S
Cd60 O59 2.203 1_565 S
Cd60 O62 2.411 . S
Cd60 O63 2.333 . S
Cd60 O64 2.352 . S
Cd60 O68 2.277 . S
Cd60 O69 2.356 . S
C61 O66 1.209 . S
C61 O68 1.226 . S
O62 Cd58 2.273 . S
O62 Cd60 2.411 . S
O62 C65 1.320 . S
O63 Cd60 2.333 . S
O63 C65 1.214 . S
O64 Cd60 2.352 . S
O64 C67 1.258 . S
C65 O62 1.320 . S
C65 O63 1.214 . S
O66 Cd58 2.277 . S
O66 C61 1.209 . S
C67 O64 1.258 . S
C67 O69 1.282 . S
O68 Cd60 2.277 . S
O68 C61 1.226 . S
O69 Cd60 2.356 . S
O69 C67 1.282 . S
C70 O71 1.306 . S
C70 O73 1.160 . S
O71 C70 1.306 . S
O71 Cd72 2.228 1_655 S
Cd72 O71 2.228 1_455 S
Cd72 O76 2.273 . S
Cd72 O80 2.277 . S
O73 C70 1.160 . S
O73 Cd74 2.203 1_655 S
Cd74 O73 2.203 1_455 S
Cd74 O76 2.411 . S
Cd74 O77 2.333 . S
Cd74 O78 2.352 . S
Cd74 O82 2.277 . S
Cd74 O83 2.356 . S
C75 O80 1.209 . S
C75 O82 1.226 . S
O76 Cd72 2.273 . S
O76 Cd74 2.411 . S
O76 C79 1.320 . S
O77 Cd74 2.333 . S
O77 C79 1.214 . S
O78 Cd74 2.352 . S
O78 C81 1.258 . S
C79 O76 1.320 . S
C79 O77 1.214 . S
O80 Cd72 2.277 . S
O80 C75 1.209 . S
C81 O78 1.258 . S
C81 O83 1.282 . S
O82 Cd74 2.277 . S
O82 C75 1.226 . S
O83 Cd74 2.356 . S
O83 C81 1.282 . S
C84 O85 1.306 . S
C84 O87 1.160 . S
O85 C84 1.306 . S
O85 Cd86 2.228 . S
Cd86 O85 2.228 . S
Cd86 O90 2.273 . S
Cd86 O94 2.277 . S
O87 C84 1.160 . S
O87 Cd88 2.203 . S
Cd88 O87 2.203 . S
Cd88 O90 2.411 . S
Cd88 O91 2.333 . S
Cd88 O92 2.352 1_556 S
Cd88 O96 2.277 . S
Cd88 O97 2.356 . S
C89 O94 1.209 . S
C89 O96 1.226 . S
O90 Cd86 2.273 . S
O90 Cd88 2.411 . S
O90 C93 1.320 . S
O91 Cd88 2.333 . S
O91 C93 1.214 . S
O92 Cd88 2.352 1_554 S
O92 C95 1.258 1_554 S
C93 O90 1.320 . S
C93 O91 1.214 . S
O94 Cd86 2.277 . S
O94 C89 1.209 . S
C95 O92 1.258 1_556 S
C95 O97 1.282 . S
O96 Cd88 2.277 . S
O96 C89 1.226 . S
O97 Cd88 2.356 . S
O97 C95 1.282 . S
C98 O99 1.306 . S
C98 O101 1.160 . S
O99 C98 1.306 . S
O99 Cd100 2.228 1_545 S
Cd100 O99 2.228 1_565 S
Cd100 O104 2.273 . S
Cd100 O108 2.277 . S
O101 C98 1.160 . S
O101 Cd102 2.203 1_545 S
Cd102 O101 2.203 1_565 S
Cd102 O104 2.411 . S
Cd102 O105 2.333 . S
Cd102 O106 2.352 1_556 S
Cd102 O110 2.277 . S
Cd102 O111 2.356 . S
C103 O108 1.209 . S
C103 O110 1.226 . S
O104 Cd100 2.273 . S
O104 Cd102 2.411 . S
O104 C107 1.320 . S
O105 Cd102 2.333 . S
O105 C107 1.214 . S
O106 Cd102 2.352 1_554 S
O106 C109 1.258 1_554 S
C107 O104 1.320 . S
C107 O105 1.214 . S
O108 Cd100 2.277 . S
O108 C103 1.209 . S
C109 O106 1.258 1_556 S
C109 O111 1.282 . S
O110 Cd102 2.277 . S
O110 C103 1.226 . S
O111 Cd102 2.356 . S
O111 C109 1.282 . S
C112 O113 1.306 . S
C112 O115 1.160 . S
O113 C112 1.306 . S
O113 Cd114 2.228 1_655 S
Cd114 O113 2.228 1_455 S
Cd114 O118 2.273 . S
Cd114 O122 2.277 . S
O115 C112 1.160 . S
O115 Cd116 2.203 1_655 S
Cd116 O115 2.203 1_455 S
Cd116 O118 2.411 . S
Cd116 O119 2.333 . S
Cd116 O120 2.352 1_556 S
Cd116 O124 2.277 . S
Cd116 O125 2.356 . S
C117 O122 1.209 . S
C117 O124 1.226 . S
O118 Cd114 2.273 . S
O118 Cd116 2.411 . S
O118 C121 1.320 . S
O119 Cd116 2.333 . S
O119 C121 1.214 . S
O120 Cd116 2.352 1_554 S
O120 C123 1.258 1_554 S
C121 O118 1.320 . S
C121 O119 1.214 . S
O122 Cd114 2.277 . S
O122 C117 1.209 . S
C123 O120 1.258 1_556 S
C123 O125 1.282 . S
O124 Cd116 2.277 . S
O124 C117 1.226 . S
O125 Cd116 2.356 . S
O125 C123 1.282 . S
C126 O127 1.306 . S
C126 O129 1.160 . S
O127 C126 1.306 . S
O127 Cd128 2.228 . S
Cd128 O127 2.228 . S
Cd128 O132 2.273 . S
Cd128 O136 2.277 . S
O129 C126 1.160 . S
O129 Cd130 2.203 . S
Cd130 O129 2.203 . S
Cd130 O132 2.411 . S
Cd130 O133 2.333 . S
Cd130 O134 2.352 . S
Cd130 O138 2.277 . S
Cd130 O139 2.356 . S
C131 O136 1.209 . S
C131 O138 1.226 . S
O132 Cd128 2.273 . S
O132 Cd130 2.411 . S
O132 C135 1.320 . S
O133 Cd130 2.333 . S
O133 C135 1.214 . S
O134 Cd130 2.352 . S
O134 C137 1.258 . S
C135 O132 1.320 . S
C135 O133 1.214 . S
O136 Cd128 2.277 . S
O136 C131 1.209 . S
C137 O134 1.258 . S
C137 O139 1.282 . S
O138 Cd130 2.277 . S
O138 C131 1.226 . S
O139 Cd130 2.356 . S
O139 C137 1.282 . S
C140 O141 1.306 . S
C140 O143 1.160 . S
O141 C140 1.306 . S
O141 Cd142 2.228 1_565 S
Cd142 O141 2.228 1_545 S
Cd142 O146 2.273 . S
Cd142 O150 2.277 . S
O143 C140 1.160 . S
O143 Cd144 2.203 1_565 S
Cd144 O143 2.203 1_545 S
Cd144 O146 2.411 . S
Cd144 O147 2.333 . S
Cd144 O148 2.352 . S
Cd144 O152 2.277 . S
Cd144 O153 2.356 . S
C145 O150 1.209 . S
C145 O152 1.226 . S
O146 Cd142 2.273 . S
O146 Cd144 2.411 . S
O146 C149 1.320 . S
O147 Cd144 2.333 . S
O147 C149 1.214 . S
O148 Cd144 2.352 . S
O148 C151 1.258 . S
C149 O146 1.320 . S
C149 O147 1.214 . S
O150 Cd142 2.277 . S
O150 C145 1.209 . S
C151 O148 1.258 . S
C151 O153 1.282 . S
O152 Cd144 2.277 . S
O152 C145 1.226 . S
O153 Cd144 2.356 . S
O153 C151 1.282 . S
C154 O155 1.306 . S
C154 O157 1.160 . S
O155 C154 1.306 . S
O155 Cd156 2.228 1_455 S
Cd156 O155 2.228 1_655 S
Cd156 O160 2.273 . S
Cd156 O164 2.277 . S
O157 C154 1.160 . S
O157 Cd158 2.203 1_455 S
Cd158 O157 2.203 1_655 S
Cd158 O160 2.411 . S
Cd158 O161 2.333 . S
Cd158 O162 2.352 . S
Cd158 O166 2.277 . S
Cd158 O167 2.356 . S
C159 O164 1.209 . S
C159 O166 1.226 . S
O160 Cd156 2.273 . S
O160 Cd158 2.411 . S
O160 C163 1.320 . S
O161 Cd158 2.333 . S
O161 C163 1.214 . S
O162 Cd158 2.352 . S
O162 C165 1.258 . S
C163 O160 1.320 . S
C163 O161 1.214 . S
O164 Cd156 2.277 . S
O164 C159 1.209 . S
C165 O162 1.258 . S
C165 O167 1.282 . S
O166 Cd158 2.277 . S
O166 C159 1.226 . S
O167 Cd158 2.356 . S
O167 C165 1.282 . S
C168 O169 1.306 . S
C168 O171 1.160 . S
O169 C168 1.306 . S
O169 Cd170 2.228 . S
Cd170 O169 2.228 . S
Cd170 O174 2.273 . S
Cd170 O178 2.277 . S
O171 C168 1.160 . S
O171 Cd172 2.203 . S
Cd172 O171 2.203 . S
Cd172 O174 2.411 . S
Cd172 O175 2.333 . S
Cd172 O176 2.352 . S
Cd172 O180 2.277 . S
Cd172 O181 2.356 . S
C173 O178 1.209 . S
C173 O180 1.226 . S
O174 Cd170 2.273 . S
O174 Cd172 2.411 . S
O174 C177 1.320 . S
O175 Cd172 2.333 . S
O175 C177 1.214 . S
O176 Cd172 2.352 . S
O176 C179 1.258 . S
C177 O174 1.320 . S
C177 O175 1.214 . S
O178 Cd170 2.277 . S
O178 C173 1.209 . S
C179 O176 1.258 . S
C179 O181 1.282 . S
O180 Cd172 2.277 . S
O180 C173 1.226 . S
O181 Cd172 2.356 . S
O181 C179 1.282 . S
C182 O183 1.306 . S
C182 O185 1.160 . S
O183 C182 1.306 . S
O183 Cd184 2.228 . S
Cd184 O183 2.228 . S
Cd184 O188 2.273 . S
Cd184 O192 2.277 . S
O185 C182 1.160 . S
O185 Cd186 2.203 . S
Cd186 O185 2.203 . S
Cd186 O188 2.411 . S
Cd186 O189 2.333 . S
Cd186 O190 2.352 . S
Cd186 O194 2.277 . S
Cd186 O195 2.356 . S
C187 O192 1.209 . S
C187 O194 1.226 . S
O188 Cd184 2.273 . S
O188 Cd186 2.411 . S
O188 C191 1.320 . S
O189 Cd186 2.333 . S
O189 C191 1.214 . S
O190 Cd186 2.352 . S
O190 C193 1.258 . S
C191 O188 1.320 . S
C191 O189 1.214 . S
O192 Cd184 2.277 . S
O192 C187 1.209 . S
C193 O190 1.258 . S
C193 O195 1.282 . S
O194 Cd186 2.277 . S
O194 C187 1.226 . S
O195 Cd186 2.356 . S
O195 C193 1.282 . S
C196 O197 1.306 . S
C196 O199 1.160 . S
O197 C196 1.306 . S
O197 Cd198 2.228 . S
Cd198 O197 2.228 . S
Cd198 O202 2.273 . S
Cd198 O206 2.277 . S
O199 C196 1.160 . S
O199 Cd200 2.203 . S
Cd200 O199 2.203 . S
Cd200 O202 2.411 . S
Cd200 O203 2.333 . S
Cd200 O204 2.352 . S
Cd200 O208 2.277 . S
Cd200 O209 2.356 . S
C201 O206 1.209 . S
C201 O208 1.226 . S
O202 Cd198 2.273 . S
O202 Cd200 2.411 . S
O202 C205 1.320 . S
O203 Cd200 2.333 . S
O203 C205 1.214 . S
O204 Cd200 2.352 . S
O204 C207 1.258 . S
C205 O202 1.320 . S
C205 O203 1.214 . S
O206 Cd198 2.277 . S
O206 C201 1.209 . S
C207 O204 1.258 . S
C207 O209 1.282 . S
O208 Cd200 2.277 . S
O208 C201 1.226 . S
O209 Cd200 2.356 . S
O209 C207 1.282 . S
C210 O211 1.306 . S
C210 O213 1.160 . S
O211 C210 1.306 . S
O211 Cd212 2.228 . S
Cd212 O211 2.228 . S
Cd212 O216 2.273 . S
Cd212 O220 2.277 . S
O213 C210 1.160 . S
O213 Cd214 2.203 . S
Cd214 O213 2.203 . S
Cd214 O216 2.411 . S
Cd214 O217 2.333 . S
Cd214 O218 2.352 . S
Cd214 O222 2.277 . S
Cd214 O223 2.356 . S
C215 O220 1.209 . S
C215 O222 1.226 . S
O216 Cd212 2.273 . S
O216 Cd214 2.411 . S
O216 C219 1.320 . S
O217 Cd214 2.333 . S
O217 C219 1.214 . S
O218 Cd214 2.352 . S
O218 C221 1.258 . S
C219 O216 1.320 . S
C219 O217 1.214 . S
O220 Cd212 2.277 . S
O220 C215 1.209 . S
C221 O218 1.258 . S
C221 O223 1.282 . S
O222 Cd214 2.277 . S
O222 C215 1.226 . S
O223 Cd214 2.356 . S
O223 C221 1.282 . S
C224 O225 1.306 . S
C224 O227 1.160 . S
O225 C224 1.306 . S
O225 Cd226 2.228 . S
Cd226 O225 2.228 . S
Cd226 O230 2.273 . S
Cd226 O234 2.277 . S
O227 C224 1.160 . S
O227 Cd228 2.203 . S
Cd228 O227 2.203 . S
Cd228 O230 2.411 . S
Cd228 O231 2.333 . S
Cd228 O232 2.352 . S
Cd228 O236 2.277 . S
Cd228 O237 2.356 . S
C229 O234 1.209 . S
C229 O236 1.226 . S
O230 Cd226 2.273 . S
O230 Cd228 2.411 . S
O230 C233 1.320 . S
O231 Cd228 2.333 . S
O231 C233 1.214 . S
O232 Cd228 2.352 . S
O232 C235 1.258 . S
C233 O230 1.320 . S
C233 O231 1.214 . S
O234 Cd226 2.277 . S
O234 C229 1.209 . S
C235 O232 1.258 . S
C235 O237 1.282 . S
O236 Cd228 2.277 . S
O236 C229 1.226 . S
O237 Cd228 2.356 . S
O237 C235 1.282 . S
C238 O239 1.306 . S
C238 O241 1.160 . S
O239 C238 1.306 . S
O239 Cd240 2.228 . S
Cd240 O239 2.228 . S
Cd240 O244 2.273 . S
Cd240 O248 2.277 . S
O241 C238 1.160 . S
O241 Cd242 2.203 . S
Cd242 O241 2.203 . S
Cd242 O244 2.411 . S
Cd242 O245 2.333 . S
Cd242 O246 2.352 . S
Cd242 O250 2.277 . S
Cd242 O251 2.356 . S
C243 O248 1.209 . S
C243 O250 1.226 . S
O244 Cd240 2.273 . S
O244 Cd242 2.411 . S
O244 C247 1.320 . S
O245 Cd242 2.333 . S
O245 C247 1.214 . S
O246 Cd242 2.352 . S
O246 C249 1.258 . S
C247 O244 1.320 . S
C247 O245 1.214 . S
O248 Cd240 2.277 . S
O248 C243 1.209 . S
C249 O246 1.258 . S
C249 O251 1.282 . S
O250 Cd242 2.277 . S
O250 C243 1.226 . S
O251 Cd242 2.356 . S
O251 C249 1.282 . S
C252 O253 1.306 . S
C252 O255 1.160 . S
O253 C252 1.306 . S
O253 Cd254 2.228 . S
Cd254 O253 2.228 . S
Cd254 O258 2.273 . S
Cd254 O262 2.277 . S
O255 C252 1.160 . S
O255 Cd256 2.203 . S
Cd256 O255 2.203 . S
Cd256 O258 2.411 . S
Cd256 O259 2.333 . S
Cd256 O260 2.352 . S
Cd256 O264 2.277 . S
Cd256 O265 2.356 . S
C257 O262 1.209 . S
C257 O264 1.226 . S
O258 Cd254 2.273 . S
O258 Cd256 2.411 . S
O258 C261 1.320 . S
O259 Cd256 2.333 . S
O259 C261 1.214 . S
O260 Cd256 2.352 . S
O260 C263 1.258 . S
C261 O258 1.320 . S
C261 O259 1.214 . S
O262 Cd254 2.277 . S
O262 C257 1.209 . S
C263 O260 1.258 . S
C263 O265 1.282 . S
O264 Cd256 2.277 . S
O264 C257 1.226 . S
O265 Cd256 2.356 . S
O265 C263 1.282 . S
C266 O267 1.306 . S
C266 O269 1.160 . S
O267 C266 1.306 . S
O267 Cd268 2.228 . S
Cd268 O267 2.228 . S
Cd268 O272 2.273 . S
Cd268 O276 2.277 . S
O269 C266 1.160 . S
O269 Cd270 2.203 . S
Cd270 O269 2.203 . S
Cd270 O272 2.411 . S
Cd270 O273 2.333 . S
Cd270 O274 2.352 . S
Cd270 O278 2.277 . S
Cd270 O279 2.356 . S
C271 O276 1.209 . S
C271 O278 1.226 . S
O272 Cd268 2.273 . S
O272 Cd270 2.411 . S
O272 C275 1.320 . S
O273 Cd270 2.333 . S
O273 C275 1.214 . S
O274 Cd270 2.352 . S
O274 C277 1.258 . S
C275 O272 1.320 . S
C275 O273 1.214 . S
O276 Cd268 2.277 . S
O276 C271 1.209 . S
C277 O274 1.258 . S
C277 O279 1.282 . S
O278 Cd270 2.277 . S
O278 C271 1.226 . S
O279 Cd270 2.356 . S
O279 C277 1.282 . S
C280 O281 1.306 . S
C280 O283 1.160 . S
O281 C280 1.306 . S
O281 Cd282 2.228 . S
Cd282 O281 2.228 . S
Cd282 O286 2.273 . S
Cd282 O290 2.277 . S
O283 C280 1.160 . S
O283 Cd284 2.203 . S
Cd284 O283 2.203 . S
Cd284 O286 2.411 . S
Cd284 O287 2.333 . S
Cd284 O288 2.352 . S
Cd284 O292 2.277 . S
Cd284 O293 2.356 . S
C285 O290 1.209 . S
C285 O292 1.226 . S
O286 Cd282 2.273 . S
O286 Cd284 2.411 . S
O286 C289 1.320 . S
O287 Cd284 2.333 . S
O287 C289 1.214 . S
O288 Cd284 2.352 . S
O288 C291 1.258 . S
C289 O286 1.320 . S
C289 O287 1.214 . S
O290 Cd282 2.277 . S
O290 C285 1.209 . S
C291 O288 1.258 . S
C291 O293 1.282 . S
O292 Cd284 2.277 . S
O292 C285 1.226 . S
O293 Cd284 2.356 . S
O293 C291 1.282 . S
C294 O295 1.306 . S
C294 O297 1.160 . S
O295 C294 1.306 . S
O295 Cd296 2.228 . S
Cd296 O295 2.228 . S
Cd296 O300 2.273 . S
Cd296 O304 2.277 . S
O297 C294 1.160 . S
O297 Cd298 2.203 . S
Cd298 O297 2.203 . S
Cd298 O300 2.411 . S
Cd298 O301 2.333 . S
Cd298 O302 2.352 . S
Cd298 O306 2.277 . S
Cd298 O307 2.356 . S
C299 O304 1.209 . S
C299 O306 1.226 . S
O300 Cd296 2.273 . S
O300 Cd298 2.411 . S
O300 C303 1.320 . S
O301 Cd298 2.333 . S
O301 C303 1.214 . S
O302 Cd298 2.352 . S
O302 C305 1.258 . S
C303 O300 1.320 . S
C303 O301 1.214 . S
O304 Cd296 2.277 . S
O304 C299 1.209 . S
C305 O302 1.258 . S
C305 O307 1.282 . S
O306 Cd298 2.277 . S
O306 C299 1.226 . S
O307 Cd298 2.356 . S
O307 C305 1.282 . S
C308 O309 1.306 . S
C308 O311 1.160 . S
O309 C308 1.306 . S
O309 Cd310 2.228 . S
Cd310 O309 2.228 . S
Cd310 O314 2.273 . S
Cd310 O318 2.277 . S
O311 C308 1.160 . S
O311 Cd312 2.203 . S
Cd312 O311 2.203 . S
Cd312 O314 2.411 . S
Cd312 O315 2.333 . S
Cd312 O316 2.352 . S
Cd312 O320 2.277 . S
Cd312 O321 2.356 . S
C313 O318 1.209 . S
C313 O320 1.226 . S
O314 Cd310 2.273 . S
O314 Cd312 2.411 . S
O314 C317 1.320 . S
O315 Cd312 2.333 . S
O315 C317 1.214 . S
O316 Cd312 2.352 . S
O316 C319 1.258 . S
C317 O314 1.320 . S
C317 O315 1.214 . S
O318 Cd310 2.277 . S
O318 C313 1.209 . S
C319 O316 1.258 . S
C319 O321 1.282 . S
O320 Cd312 2.277 . S
O320 C313 1.226 . S
O321 Cd312 2.356 . S
O321 C319 1.282 . S
C322 O323 1.306 . S
C322 O325 1.160 . S
O323 C322 1.306 . S
O323 Cd324 2.228 . S
Cd324 O323 2.228 . S
Cd324 O328 2.273 . S
Cd324 O332 2.277 . S
O325 C322 1.160 . S
O325 Cd326 2.203 . S
Cd326 O325 2.203 . S
Cd326 O328 2.411 . S
Cd326 O329 2.333 . S
Cd326 O330 2.352 . S
Cd326 O334 2.277 . S
Cd326 O335 2.356 . S
C327 O332 1.209 . S
C327 O334 1.226 . S
O328 Cd324 2.273 . S
O328 Cd326 2.411 . S
O328 C331 1.320 . S
O329 Cd326 2.333 . S
O329 C331 1.214 . S
O330 Cd326 2.352 . S
O330 C333 1.258 . S
C331 O328 1.320 . S
C331 O329 1.214 . S
O332 Cd324 2.277 . S
O332 C327 1.209 . S
C333 O330 1.258 . S
C333 O335 1.282 . S
O334 Cd326 2.277 . S
O334 C327 1.226 . S
O335 Cd326 2.356 . S
O335 C333 1.282 . S
C336 O337 1.306 . S
C336 O339 1.160 . S
O337 C336 1.306 . S
O337 Cd338 2.228 . S
Cd338 O337 2.228 . S
Cd338 O342 2.273 . S
Cd338 O346 2.277 . S
O339 C336 1.160 . S
O339 Cd340 2.203 . S
Cd340 O339 2.203 . S
Cd340 O342 2.411 . S
Cd340 O343 2.333 . S
Cd340 O344 2.352 . S
Cd340 O348 2.277 . S
Cd340 O349 2.356 . S
C341 O346 1.209 . S
C341 O348 1.226 . S
O342 Cd338 2.273 . S
O342 Cd340 2.411 . S
O342 C345 1.320 . S
O343 Cd340 2.333 . S
O343 C345 1.214 . S
O344 Cd340 2.352 . S
O344 C347 1.258 . S
C345 O342 1.320 . S
C345 O343 1.214 . S
O346 Cd338 2.277 . S
O346 C341 1.209 . S
C347 O344 1.258 . S
C347 O349 1.282 . S
O348 Cd340 2.277 . S
O348 C341 1.226 . S
O349 Cd340 2.356 . S
O349 C347 1.282 . S
C350 O351 1.306 . S
C350 O353 1.160 . S
O351 C350 1.306 . S
O351 Cd352 2.228 . S
Cd352 O351 2.228 . S
Cd352 O356 2.273 . S
Cd352 O360 2.277 . S
O353 C350 1.160 . S
O353 Cd354 2.203 . S
Cd354 O353 2.203 . S
Cd354 O356 2.411 . S
Cd354 O357 2.333 . S
Cd354 O358 2.352 . S
Cd354 O362 2.277 . S
Cd354 O363 2.356 . S
C355 O360 1.209 . S
C355 O362 1.226 . S
O356 Cd352 2.273 . S
O356 Cd354 2.411 . S
O356 C359 1.320 . S
O357 Cd354 2.333 . S
O357 C359 1.214 . S
O358 Cd354 2.352 . S
O358 C361 1.258 . S
C359 O356 1.320 . S
C359 O357 1.214 . S
O360 Cd352 2.277 . S
O360 C355 1.209 . S
C361 O358 1.258 . S
C361 O363 1.282 . S
O362 Cd354 2.277 . S
O362 C355 1.226 . S
O363 Cd354 2.356 . S
O363 C361 1.282 . S
C364 O365 1.306 . S
C364 O367 1.160 . S
O365 C364 1.306 . S
O365 Cd366 2.228 . S
Cd366 O365 2.228 . S
Cd366 O370 2.273 . S
Cd366 O374 2.277 . S
O367 C364 1.160 . S
O367 Cd368 2.203 . S
Cd368 O367 2.203 . S
Cd368 O370 2.411 . S
Cd368 O371 2.333 . S
Cd368 O372 2.352 . S
Cd368 O376 2.277 . S
Cd368 O377 2.356 . S
C369 O374 1.209 . S
C369 O376 1.226 . S
O370 Cd366 2.273 . S
O370 Cd368 2.411 . S
O370 C373 1.320 . S
O371 Cd368 2.333 . S
O371 C373 1.214 . S
O372 Cd368 2.352 . S
O372 C375 1.258 . S
C373 O370 1.320 . S
C373 O371 1.214 . S
O374 Cd366 2.277 . S
O374 C369 1.209 . S
C375 O372 1.258 . S
C375 O377 1.282 . S
O376 Cd368 2.277 . S
O376 C369 1.226 . S
O377 Cd368 2.356 . S
O377 C375 1.282 . S
C378 O379 1.306 . S
C378 O381 1.160 . S
O379 C378 1.306 . S
O379 Cd380 2.228 . S
Cd380 O379 2.228 . S
Cd380 O384 2.273 . S
Cd380 O388 2.277 . S
O381 C378 1.160 . S
O381 Cd382 2.203 . S
Cd382 O381 2.203 . S
Cd382 O384 2.411 . S
Cd382 O385 2.333 . S
Cd382 O386 2.352 . S
Cd382 O390 2.277 . S
Cd382 O391 2.356 . S
C383 O388 1.209 . S
C383 O390 1.226 . S
O384 Cd380 2.273 . S
O384 Cd382 2.411 . S
O384 C387 1.320 . S
O385 Cd382 2.333 . S
O385 C387 1.214 . S
O386 Cd382 2.352 . S
O386 C389 1.258 . S
C387 O384 1.320 . S
C387 O385 1.214 . S
O388 Cd380 2.277 . S
O388 C383 1.209 . S
C389 O386 1.258 . S
C389 O391 1.282 . S
O390 Cd382 2.277 . S
O390 C383 1.226 . S
O391 Cd382 2.356 . S
O391 C389 1.282 . S
C392 O393 1.306 . S
C392 O395 1.160 . S
O393 C392 1.306 . S
O393 Cd394 2.228 . S
Cd394 O393 2.228 . S
Cd394 O398 2.273 . S
Cd394 O402 2.277 . S
O395 C392 1.160 . S
O395 Cd396 2.203 . S
Cd396 O395 2.203 . S
Cd396 O398 2.411 . S
Cd396 O399 2.333 . S
Cd396 O400 2.352 . S
Cd396 O404 2.277 . S
Cd396 O405 2.356 . S
C397 O402 1.209 . S
C397 O404 1.226 . S
O398 Cd394 2.273 . S
O398 Cd396 2.411 . S
O398 C401 1.320 . S
O399 Cd396 2.333 . S
O399 C401 1.214 . S
O400 Cd396 2.352 . S
O400 C403 1.258 . S
C401 O398 1.320 . S
C401 O399 1.214 . S
O402 Cd394 2.277 . S
O402 C397 1.209 . S
C403 O400 1.258 . S
C403 O405 1.282 . S
O404 Cd396 2.277 . S
O404 C397 1.226 . S
O405 Cd396 2.356 . S
O405 C403 1.282 . S
C406 O407 1.306 . S
C406 O409 1.160 . S
O407 C406 1.306 . S
O407 Cd408 2.228 . S
Cd408 O407 2.228 . S
Cd408 O412 2.273 . S
Cd408 O416 2.277 . S
O409 C406 1.160 . S
O409 Cd410 2.203 . S
Cd410 O409 2.203 . S
Cd410 O412 2.411 . S
Cd410 O413 2.333 . S
Cd410 O414 2.352 . S
Cd410 O418 2.277 . S
Cd410 O419 2.356 . S
C411 O416 1.209 . S
C411 O418 1.226 . S
O412 Cd408 2.273 . S
O412 Cd410 2.411 . S
O412 C415 1.320 . S
O413 Cd410 2.333 . S
O413 C415 1.214 . S
O414 Cd410 2.352 . S
O414 C417 1.258 . S
C415 O412 1.320 . S
C415 O413 1.214 . S
O416 Cd408 2.277 . S
O416 C411 1.209 . S
C417 O414 1.258 . S
C417 O419 1.282 . S
O418 Cd410 2.277 . S
O418 C411 1.226 . S
O419 Cd410 2.356 . S
O419 C417 1.282 . S
C420 O421 1.306 . S
C420 O423 1.160 . S
O421 C420 1.306 . S
O421 Cd422 2.228 . S
Cd422 O421 2.228 . S
Cd422 O426 2.273 . S
Cd422 O430 2.277 . S
O423 C420 1.160 . S
O423 Cd424 2.203 . S
Cd424 O423 2.203 . S
Cd424 O426 2.411 . S
Cd424 O427 2.333 . S
Cd424 O428 2.352 . S
Cd424 O432 2.277 . S
Cd424 O433 2.356 . S
C425 O430 1.209 . S
C425 O432 1.226 . S
O426 Cd422 2.273 . S
O426 Cd424 2.411 . S
O426 C429 1.320 . S
O427 Cd424 2.333 . S
O427 C429 1.214 . S
O428 Cd424 2.352 . S
O428 C431 1.258 . S
C429 O426 1.320 . S
C429 O427 1.214 . S
O430 Cd422 2.277 . S
O430 C425 1.209 . S
C431 O428 1.258 . S
C431 O433 1.282 . S
O432 Cd424 2.277 . S
O432 C425 1.226 . S
O433 Cd424 2.356 . S
O433 C431 1.282 . S
C434 O435 1.306 . S
C434 O437 1.160 . S
O435 C434 1.306 . S
O435 Cd436 2.228 . S
Cd436 O435 2.228 . S
Cd436 O440 2.273 . S
Cd436 O444 2.277 . S
O437 C434 1.160 . S
O437 Cd438 2.203 . S
Cd438 O437 2.203 . S
Cd438 O440 2.411 . S
Cd438 O441 2.333 . S
Cd438 O442 2.352 . S
Cd438 O446 2.277 . S
Cd438 O447 2.356 . S
C439 O444 1.209 . S
C439 O446 1.226 . S
O440 Cd436 2.273 . S
O440 Cd438 2.411 . S
O440 C443 1.320 . S
O441 Cd438 2.333 . S
O441 C443 1.214 . S
O442 Cd438 2.352 . S
O442 C445 1.258 . S
C443 O440 1.320 . S
C443 O441 1.214 . S
O444 Cd436 2.277 . S
O444 C439 1.209 . S
C445 O442 1.258 . S
C445 O447 1.282 . S
O446 Cd438 2.277 . S
O446 C439 1.226 . S
O447 Cd438 2.356 . S
O447 C445 1.282 . S
C448 O449 1.306 . S
C448 O451 1.160 . S
O449 C448 1.306 . S
O449 Cd450 2.228 . S
Cd450 O449 2.228 . S
Cd450 O454 2.273 . S
Cd450 O458 2.277 . S
O451 C448 1.160 . S
O451 Cd452 2.203 . S
Cd452 O451 2.203 . S
Cd452 O454 2.411 . S
Cd452 O455 2.333 . S
Cd452 O456 2.352 . S
Cd452 O460 2.277 . S
Cd452 O461 2.356 . S
C453 O458 1.209 . S
C453 O460 1.226 . S
O454 Cd450 2.273 . S
O454 Cd452 2.411 . S
O454 C457 1.320 . S
O455 Cd452 2.333 . S
O455 C457 1.214 . S
O456 Cd452 2.352 . S
O456 C459 1.258 . S
C457 O454 1.320 . S
C457 O455 1.214 . S
O458 Cd450 2.277 . S
O458 C453 1.209 . S
C459 O456 1.258 . S
C459 O461 1.282 . S
O460 Cd452 2.277 . S
O460 C453 1.226 . S
O461 Cd452 2.356 . S
O461 C459 1.282 . S
C462 O463 1.306 . S
C462 O465 1.160 . S
O463 C462 1.306 . S
O463 Cd464 2.228 . S
Cd464 O463 2.228 . S
Cd464 O468 2.273 . S
Cd464 O472 2.277 . S
O465 C462 1.160 . S
O465 Cd466 2.203 . S
Cd466 O465 2.203 . S
Cd466 O468 2.411 . S
Cd466 O469 2.333 . S
Cd466 O470 2.352 . S
Cd466 O474 2.277 . S
Cd466 O475 2.356 . S
C467 O472 1.209 . S
C467 O474 1.226 . S
O468 Cd464 2.273 . S
O468 Cd466 2.411 . S
O468 C471 1.320 . S
O469 Cd466 2.333 . S
O469 C471 1.214 . S
O470 Cd466 2.352 . S
O470 C473 1.258 . S
C471 O468 1.320 . S
C471 O469 1.214 . S
O472 Cd464 2.277 . S
O472 C467 1.209 . S
C473 O470 1.258 . S
C473 O475 1.282 . S
O474 Cd466 2.277 . S
O474 C467 1.226 . S
O475 Cd466 2.356 . S
O475 C473 1.282 . S
C476 O477 1.306 . S
C476 O479 1.160 . S
O477 C476 1.306 . S
O477 Cd478 2.228 . S
Cd478 O477 2.228 . S
Cd478 O482 2.273 . S
Cd478 O486 2.277 . S
O479 C476 1.160 . S
O479 Cd480 2.203 . S
Cd480 O479 2.203 . S
Cd480 O482 2.411 . S
Cd480 O483 2.333 . S
Cd480 O484 2.352 . S
Cd480 O488 2.277 . S
Cd480 O489 2.356 . S
C481 O486 1.209 . S
C481 O488 1.226 . S
O482 Cd478 2.273 . S
O482 Cd480 2.411 . S
O482 C485 1.320 . S
O483 Cd480 2.333 . S
O483 C485 1.214 . S
O484 Cd480 2.352 . S
O484 C487 1.258 . S
C485 O482 1.320 . S
C485 O483 1.214 . S
O486 Cd478 2.277 . S
O486 C481 1.209 . S
C487 O484 1.258 . S
C487 O489 1.282 . S
O488 Cd480 2.277 . S
O488 C481 1.226 . S
O489 Cd480 2.356 . S
O489 C487 1.282 . S
C490 O491 1.306 . S
C490 O493 1.160 . S
O491 C490 1.306 . S
O491 Cd492 2.228 . S
Cd492 O491 2.228 . S
Cd492 O496 2.273 . S
Cd492 O500 2.277 . S
O493 C490 1.160 . S
O493 Cd494 2.203 . S
Cd494 O493 2.203 . S
Cd494 O496 2.411 . S
Cd494 O497 2.333 . S
Cd494 O498 2.352 . S
Cd494 O502 2.277 . S
Cd494 O503 2.356 . S
C495 O500 1.209 . S
C495 O502 1.226 . S
O496 Cd492 2.273 . S
O496 Cd494 2.411 . S
O496 C499 1.320 . S
O497 Cd494 2.333 . S
O497 C499 1.214 . S
O498 Cd494 2.352 . S
O498 C501 1.258 . S
C499 O496 1.320 . S
C499 O497 1.214 . S
O500 Cd492 2.277 . S
O500 C495 1.209 . S
C501 O498 1.258 . S
C501 O503 1.282 . S
O502 Cd494 2.277 . S
O502 C495 1.226 . S
O503 Cd494 2.356 . S
O503 C501 1.282 . S
C504 C505 1.349 . S
C504 C506 1.327 . S
C504 H529 0.950 . S
C505 C504 1.349 . S
C505 C521 1.349 . S
C506 C504 1.327 . S
C506 C525 1.429 . S
C506 H530 0.950 . S
C507 C524 1.574 . S
C507 C526 1.368 . S
C507 H531 0.949 . S
H508 C512 0.949 . S
C509 C510 1.349 . S
C509 C511 1.327 . S
C509 H532 0.950 . S
C510 C509 1.349 . S
C510 C522 1.349 . S
C511 C509 1.327 . S
C511 C527 1.429 . S
C511 H533 0.950 . S
C512 H508 0.949 . S
C512 C520 1.574 . S
C512 C528 1.368 . S
H513 C521 0.950 . S
H514 C519 0.950 . S
H515 C520 0.949 . S
H516 C522 0.950 . S
H517 C523 0.950 . S
H518 C524 0.949 . S
C519 H514 0.950 . S
C519 C521 1.327 . S
C519 C525 1.429 . S
C520 C512 1.574 . S
C520 H515 0.949 . S
C520 C526 1.368 . S
C521 C505 1.349 . S
C521 H513 0.950 . S
C521 C519 1.327 . S
C522 C510 1.349 . S
C522 H516 0.950 . S
C522 C523 1.327 . S
C523 H517 0.950 . S
C523 C522 1.327 . S
C523 C527 1.429 . S
C524 C507 1.574 . S
C524 H518 0.949 . S
C524 C528 1.368 . S
C525 C506 1.429 . S
C525 C519 1.429 . S
C525 C526 1.523 . S
C526 C507 1.368 . S
C526 C520 1.368 . S
C526 C525 1.523 . S
C527 C511 1.429 . S
C527 C523 1.429 . S
C527 C528 1.523 . S
C528 C512 1.368 . S
C528 C524 1.368 . S
C528 C527 1.523 . S
H529 C504 0.950 . S
H530 C506 0.950 . S
H531 C507 0.949 . S
H532 C509 0.950 . S
H533 C511 0.950 . S
C534 C535 1.349 . S
C534 C536 1.327 . S
C534 H559 0.950 . S
C535 C534 1.349 . S
C535 C551 1.349 . S
C536 C534 1.327 . S
C536 C555 1.429 . S
C536 H560 0.950 . S
C537 C554 1.574 . S
C537 C556 1.368 . S
C537 H561 0.949 . S
H538 C542 0.949 . S
C539 C540 1.349 . S
C539 C541 1.327 . S
C539 H562 0.950 . S
C540 C539 1.349 . S
C540 C552 1.349 . S
C541 C539 1.327 . S
C541 C557 1.429 . S
C541 H563 0.950 . S
C542 H538 0.949 . S
C542 C550 1.574 . S
C542 C558 1.368 . S
H543 C551 0.950 . S
H544 C549 0.950 . S
H545 C550 0.949 . S
H546 C552 0.950 1_554 S
H547 C553 0.950 . S
H548 C554 0.949 . S
C549 H544 0.950 . S
C549 C551 1.327 . S
C549 C555 1.429 . S
C550 C542 1.574 . S
C550 H545 0.949 . S
C550 C556 1.368 . S
C551 C535 1.349 . S
C551 H543 0.950 . S
C551 C549 1.327 . S
C552 C540 1.349 . S
C552 H546 0.950 1_556 S
C552 C553 1.327 . S
C553 H547 0.950 . S
C553 C552 1.327 . S
C553 C557 1.429 . S
C554 C537 1.574 . S
C554 H548 0.949 . S
C554 C558 1.368 . S
C555 C536 1.429 . S
C555 C549 1.429 . S
C555 C556 1.523 . S
C556 C537 1.368 . S
C556 C550 1.368 . S
C556 C555 1.523 . S
C557 C541 1.429 . S
C557 C553 1.429 . S
C557 C558 1.523 . S
C558 C542 1.368 . S
C558 C554 1.368 . S
C558 C557 1.523 . S
H559 C534 0.950 . S
H560 C536 0.950 . S
H561 C537 0.949 . S
H562 C539 0.950 . S
H563 C541 0.950 . S
C564 C565 1.349 . S
C564 C566 1.327 . S
C564 H589 0.950 . S
C565 C564 1.349 . S
C565 C581 1.349 . S
C566 C564 1.327 . S
C566 C585 1.429 . S
C566 H590 0.950 . S
C567 C584 1.574 . S
C567 C586 1.368 . S
C567 H591 0.949 . S
H568 C572 0.949 . S
C569 C570 1.349 . S
C569 C571 1.327 . S
C569 H592 0.950 . S
C570 C569 1.349 . S
C570 C582 1.349 . S
C571 C569 1.327 . S
C571 C587 1.429 . S
C571 H593 0.950 . S
C572 H568 0.949 . S
C572 C580 1.574 . S
C572 C588 1.368 . S
H573 C581 0.950 1_554 S
H574 C579 0.950 . S
H575 C580 0.949 . S
H576 C582 0.950 . S
H577 C583 0.950 . S
H578 C584 0.949 . S
C579 H574 0.950 . S
C579 C581 1.327 . S
C579 C585 1.429 . S
C580 C572 1.574 . S
C580 H575 0.949 . S
C580 C586 1.368 . S
C581 C565 1.349 . S
C581 H573 0.950 1_556 S
C581 C579 1.327 . S
C582 C570 1.349 . S
C582 H576 0.950 . S
C582 C583 1.327 . S
C583 H577 0.950 . S
C583 C582 1.327 . S
C583 C587 1.429 . S
C584 C567 1.574 . S
C584 H578 0.949 . S
C584 C588 1.368 . S
C585 C566 1.429 . S
C585 C579 1.429 . S
C585 C586 1.523 . S
C586 C567 1.368 . S
C586 C580 1.368 . S
C586 C585 1.523 . S
C587 C571 1.429 . S
C587 C583 1.429 . S
C587 C588 1.523 . S
C588 C572 1.368 . S
C588 C584 1.368 . S
C588 C587 1.523 . S
H589 C564 0.950 . S
H590 C566 0.950 . S
H591 C567 0.949 . S
H592 C569 0.950 . S
H593 C571 0.950 . S
C594 C595 1.349 . S
C594 C596 1.327 . S
C594 H619 0.950 . S
C595 C594 1.349 . S
C595 C611 1.349 . S
C596 C594 1.327 . S
C596 C615 1.429 . S
C596 H620 0.950 . S
C597 C614 1.574 . S
C597 C616 1.368 . S
C597 H621 0.949 . S
H598 C602 0.949 . S
C599 C600 1.349 . S
C599 C601 1.327 . S
C599 H622 0.950 . S
C600 C599 1.349 . S
C600 C612 1.349 . S
C601 C599 1.327 . S
C601 C617 1.429 . S
C601 H623 0.950 . S
C602 H598 0.949 . S
C602 C610 1.574 . S
C602 C618 1.368 . S
H603 C611 0.950 . S
H604 C609 0.950 . S
H605 C610 0.949 . S
H606 C612 0.950 . S
H607 C613 0.950 . S
H608 C614 0.949 . S
C609 H604 0.950 . S
C609 C611 1.327 . S
C609 C615 1.429 . S
C610 C602 1.574 . S
C610 H605 0.949 . S
C610 C616 1.368 . S
C611 C595 1.349 . S
C611 H603 0.950 . S
C611 C609 1.327 . S
C612 C600 1.349 . S
C612 H606 0.950 . S
C612 C613 1.327 . S
C613 H607 0.950 . S
C613 C612 1.327 . S
C613 C617 1.429 . S
C614 C597 1.574 . S
C614 H608 0.949 . S
C614 C618 1.368 . S
C615 C596 1.429 . S
C615 C609 1.429 . S
C615 C616 1.523 . S
C616 C597 1.368 . S
C616 C610 1.368 . S
C616 C615 1.523 . S
C617 C601 1.429 . S
C617 C613 1.429 . S
C617 C618 1.523 . S
C618 C602 1.368 . S
C618 C614 1.368 . S
C618 C617 1.523 . S
H619 C594 0.950 . S
H620 C596 0.950 . S
H621 C597 0.949 . S
H622 C599 0.950 . S
H623 C601 0.950 . S
C624 C625 1.349 . S
C624 C626 1.327 . S
C624 H649 0.950 . S
C625 C624 1.349 . S
C625 C641 1.349 . S
C626 C624 1.327 . S
C626 C645 1.429 . S
C626 H650 0.950 . S
C627 C644 1.574 . S
C627 C646 1.368 . S
C627 H651 0.949 . S
H628 C632 0.949 . S
C629 C630 1.349 . S
C629 C631 1.327 . S
C629 H652 0.950 . S
C630 C629 1.349 . S
C630 C642 1.349 . S
C631 C629 1.327 . S
C631 C647 1.429 . S
C631 H653 0.950 . S
C632 H628 0.949 . S
C632 C640 1.574 . S
C632 C648 1.368 . S
H633 C641 0.950 . S
H634 C639 0.950 . S
H635 C640 0.949 . S
H636 C642 0.950 . S
H637 C643 0.950 . S
H638 C644 0.949 . S
C639 H634 0.950 . S
C639 C641 1.327 . S
C639 C645 1.429 . S
C640 C632 1.574 . S
C640 H635 0.949 . S
C640 C646 1.368 . S
C641 C625 1.349 . S
C641 H633 0.950 . S
C641 C639 1.327 . S
C642 C630 1.349 . S
C642 H636 0.950 . S
C642 C643 1.327 . S
C643 H637 0.950 . S
C643 C642 1.327 . S
C643 C647 1.429 . S
C644 C627 1.574 . S
C644 H638 0.949 . S
C644 C648 1.368 . S
C645 C626 1.429 . S
C645 C639 1.429 . S
C645 C646 1.523 . S
C646 C627 1.368 . S
C646 C640 1.368 . S
C646 C645 1.523 . S
C647 C631 1.429 . S
C647 C643 1.429 . S
C647 C648 1.523 . S
C648 C632 1.368 . S
C648 C644 1.368 . S
C648 C647 1.523 . S
H649 C624 0.950 . S
H650 C626 0.950 . S
H651 C627 0.949 . S
H652 C629 0.950 . S
H653 C631 0.950 . S
C654 C655 1.349 . S
C654 C656 1.327 . S
C654 H679 0.950 . S
C655 C654 1.349 . S
C655 C671 1.349 . S
C656 C654 1.327 . S
C656 C675 1.429 . S
C656 H680 0.950 . S
C657 C674 1.574 . S
C657 C676 1.368 . S
C657 H681 0.949 . S
H658 C662 0.949 . S
C659 C660 1.349 . S
C659 C661 1.327 . S
C659 H682 0.950 . S
C660 C659 1.349 . S
C660 C672 1.349 . S
C661 C659 1.327 . S
C661 C677 1.429 . S
C661 H683 0.950 . S
C662 H658 0.949 . S
C662 C670 1.574 . S
C662 C678 1.368 . S
H663 C671 0.950 . S
H664 C669 0.950 . S
H665 C670 0.949 . S
H666 C672 0.950 . S
H667 C673 0.950 . S
H668 C674 0.949 . S
C669 H664 0.950 . S
C669 C671 1.327 . S
C669 C675 1.429 . S
C670 C662 1.574 . S
C670 H665 0.949 . S
C670 C676 1.368 . S
C671 C655 1.349 . S
C671 H663 0.950 . S
C671 C669 1.327 . S
C672 C660 1.349 . S
C672 H666 0.950 . S
C672 C673 1.327 . S
C673 H667 0.950 . S
C673 C672 1.327 . S
C673 C677 1.429 . S
C674 C657 1.574 . S
C674 H668 0.949 . S
C674 C678 1.368 . S
C675 C656 1.429 . S
C675 C669 1.429 . S
C675 C676 1.523 . S
C676 C657 1.368 . S
C676 C670 1.368 . S
C676 C675 1.523 . S
C677 C661 1.429 . S
C677 C673 1.429 . S
C677 C678 1.523 . S
C678 C662 1.368 . S
C678 C674 1.368 . S
C678 C677 1.523 . S
H679 C654 0.950 . S
H680 C656 0.950 . S
H681 C657 0.949 . S
H682 C659 0.950 . S
H683 C661 0.950 . S
C684 C685 1.349 . S
C684 C686 1.327 . S
C684 H709 0.950 . S
C685 C684 1.349 . S
C685 C701 1.349 . S
C686 C684 1.327 . S
C686 C705 1.429 . S
C686 H710 0.950 . S
C687 C704 1.574 . S
C687 C706 1.368 . S
C687 H711 0.949 . S
H688 C692 0.949 . S
C689 C690 1.360 . S
C689 C691 1.345 . S
C689 H712 0.920 1_554 S
C690 C689 1.360 . S
C690 C702 1.349 . S
C691 C689 1.345 . S
C691 C707 1.429 . S
C691 H713 0.950 . S
C692 H688 0.949 . S
C692 C700 1.574 . S
C692 C708 1.368 . S
H693 C701 0.950 . S
H694 C699 0.950 . S
H695 C700 0.949 . S
H696 C702 0.950 . S
H697 C703 0.950 . S
H698 C704 0.949 . S
C699 H694 0.950 . S
C699 C701 1.327 . S
C699 C705 1.429 . S
C700 C692 1.574 . S
C700 H695 0.949 . S
C700 C706 1.368 . S
C701 C685 1.349 . S
C701 H693 0.950 . S
C701 C699 1.327 . S
C702 C690 1.349 . S
C702 H696 0.950 . S
C702 C703 1.327 . S
C703 H697 0.950 . S
C703 C702 1.327 . S
C703 C707 1.429 . S
C704 C687 1.574 . S
C704 H698 0.949 . S
C704 C708 1.368 . S
C705 C686 1.429 . S
C705 C699 1.429 . S
C705 C706 1.523 . S
C706 C687 1.368 . S
C706 C700 1.368 . S
C706 C705 1.523 . S
C707 C691 1.429 . S
C707 C703 1.429 . S
C707 C708 1.523 . S
C708 C692 1.368 . S
C708 C704 1.368 . S
C708 C707 1.523 . S
H709 C684 0.950 . S
H710 C686 0.950 . S
H711 C687 0.949 . S
H712 C689 0.920 1_556 S
H713 C691 0.950 . S
C714 C715 1.349 . S
C714 C716 1.327 . S
C714 H739 0.950 . S
C715 C714 1.349 . S
C715 C731 1.349 . S
C716 C714 1.327 . S
C716 C735 1.429 . S
C716 H740 0.950 . S
C717 C734 1.574 . S
C717 C736 1.368 . S
C717 H741 0.949 . S
H718 C722 0.949 . S
C719 C720 1.349 . S
C719 C721 1.327 . S
C719 H742 0.950 . S
C720 C719 1.349 . S
C720 C732 1.349 . S
C721 C719 1.327 . S
C721 C737 1.429 . S
C721 H743 0.950 . S
C722 H718 0.949 . S
C722 C730 1.574 . S
C722 C738 1.368 . S
H723 C731 0.950 . S
H724 C729 0.950 . S
H725 C730 0.949 . S
H726 C732 0.950 . S
H727 C733 0.950 . S
H728 C734 0.949 . S
C729 H724 0.950 . S
C729 C731 1.327 . S
C729 C735 1.429 . S
C730 C722 1.574 . S
C730 H725 0.949 . S
C730 C736 1.368 . S
C731 C715 1.349 . S
C731 H723 0.950 . S
C731 C729 1.327 . S
C732 C720 1.349 . S
C732 H726 0.950 . S
C732 C733 1.327 . S
C733 H727 0.950 . S
C733 C732 1.327 . S
C733 C737 1.429 . S
C734 C717 1.574 . S
C734 H728 0.949 . S
C734 C738 1.368 . S
C735 C716 1.429 . S
C735 C729 1.429 . S
C735 C736 1.523 . S
C736 C717 1.368 . S
C736 C730 1.368 . S
C736 C735 1.523 . S
C737 C721 1.429 . S
C737 C733 1.429 . S
C737 C738 1.523 . S
C738 C722 1.368 . S
C738 C734 1.368 . S
C738 C737 1.523 . S
H739 C714 0.950 . S
H740 C716 0.950 . S
H741 C717 0.949 . S
H742 C719 0.950 . S
H743 C721 0.950 . S
C744 C745 1.349 . S
C744 C746 1.327 . S
C744 H769 0.950 . S
C745 C744 1.349 . S
C745 C761 1.349 . S
C746 C744 1.327 . S
C746 C765 1.429 . S
C746 H770 0.950 . S
C747 C764 1.574 . S
C747 C766 1.368 . S
C747 H771 0.949 . S
H748 C752 0.949 . S
C749 C750 1.349 . S
C749 C751 1.327 . S
C749 H772 0.950 1_554 S
C750 C749 1.349 . S
C750 C762 1.349 . S
C751 C749 1.327 . S
C751 C767 1.429 . S
C751 H773 0.950 . S
C752 H748 0.949 . S
C752 C760 1.574 . S
C752 C768 1.368 . S
H753 C761 0.950 . S
H754 C759 0.950 . S
H755 C760 0.949 . S
H756 C762 0.950 . S
H757 C763 0.950 . S
H758 C764 0.949 . S
C759 H754 0.950 . S
C759 C761 1.327 . S
C759 C765 1.429 . S
C760 C752 1.574 . S
C760 H755 0.949 . S
C760 C766 1.368 . S
C761 C745 1.349 . S
C761 H753 0.950 . S
C761 C759 1.327 . S
C762 C750 1.349 . S
C762 H756 0.950 . S
C762 C763 1.327 . S
C763 H757 0.950 . S
C763 C762 1.327 . S
C763 C767 1.429 . S
C764 C747 1.574 . S
C764 H758 0.949 . S
C764 C768 1.368 . S
C765 C746 1.429 . S
C765 C759 1.429 . S
C765 C766 1.523 . S
C766 C747 1.368 . S
C766 C760 1.368 . S
C766 C765 1.523 . S
C767 C751 1.429 . S
C767 C763 1.429 . S
C767 C768 1.523 . S
C768 C752 1.368 . S
C768 C764 1.368 . S
C768 C767 1.523 . S
H769 C744 0.950 . S
H770 C746 0.950 . S
H771 C747 0.949 . S
H772 C749 0.950 1_556 S
H773 C751 0.950 . S
C774 C775 1.349 . S
C774 C776 1.327 . S
C774 H799 0.950 . S
C775 C774 1.349 . S
C775 C791 1.349 . S
C776 C774 1.327 . S
C776 C795 1.429 . S
C776 H800 0.950 . S
C777 C794 1.574 . S
C777 C796 1.368 . S
C777 H801 0.949 . S
H778 C782 0.949 . S
C779 C780 1.349 . S
C779 C781 1.327 . S
C779 H802 0.950 . S
C780 C779 1.349 . S
C780 C792 1.349 . S
C781 C779 1.327 . S
C781 C797 1.429 . S
C781 H803 0.950 . S
C782 H778 0.949 . S
C782 C790 1.574 . S
C782 C798 1.368 . S
H783 C791 0.950 . S
H784 C789 0.950 . S
H785 C790 0.949 . S
H786 C792 0.950 . S
H787 C793 0.950 . S
H788 C794 0.949 . S
C789 H784 0.950 . S
C789 C791 1.327 . S
C789 C795 1.429 . S
C790 C782 1.574 . S
C790 H785 0.949 . S
C790 C796 1.368 . S
C791 C775 1.349 . S
C791 H783 0.950 . S
C791 C789 1.327 . S
C792 C780 1.349 . S
C792 H786 0.950 . S
C792 C793 1.327 . S
C793 H787 0.950 . S
C793 C792 1.327 . S
C793 C797 1.429 . S
C794 C777 1.574 . S
C794 H788 0.949 . S
C794 C798 1.368 . S
C795 C776 1.429 . S
C795 C789 1.429 . S
C795 C796 1.523 . S
C796 C777 1.368 . S
C796 C790 1.368 . S
C796 C795 1.523 . S
C797 C781 1.429 . S
C797 C793 1.429 . S
C797 C798 1.523 . S
C798 C782 1.368 . S
C798 C794 1.368 . S
C798 C797 1.523 . S
H799 C774 0.950 . S
H800 C776 0.950 . S
H801 C777 0.949 . S
H802 C779 0.950 . S
H803 C781 0.950 . S
C804 C805 1.349 . S
C804 C806 1.327 . S
C804 H829 0.950 . S
C805 C804 1.349 . S
C805 C821 1.349 . S
C806 C804 1.327 . S
C806 C825 1.429 . S
C806 H830 0.950 . S
C807 C824 1.574 . S
C807 C826 1.368 . S
C807 H831 0.949 . S
H808 C812 0.949 . S
C809 C810 1.349 . S
C809 C811 1.327 . S
C809 H832 0.950 . S
C810 C809 1.349 . S
C810 C822 1.349 . S
C811 C809 1.327 . S
C811 C827 1.429 . S
C811 H833 0.950 . S
C812 H808 0.949 . S
C812 C820 1.574 . S
C812 C828 1.368 . S
H813 C821 0.950 . S
H814 C819 0.950 . S
H815 C820 0.949 . S
H816 C822 0.950 . S
H817 C823 0.950 . S
H818 C824 0.949 . S
C819 H814 0.950 . S
C819 C821 1.327 . S
C819 C825 1.429 . S
C820 C812 1.574 . S
C820 H815 0.949 . S
C820 C826 1.368 . S
C821 C805 1.349 . S
C821 H813 0.950 . S
C821 C819 1.327 . S
C822 C810 1.349 . S
C822 H816 0.950 . S
C822 C823 1.327 . S
C823 H817 0.950 . S
C823 C822 1.327 . S
C823 C827 1.429 . S
C824 C807 1.574 . S
C824 H818 0.949 . S
C824 C828 1.368 . S
C825 C806 1.429 . S
C825 C819 1.429 . S
C825 C826 1.523 . S
C826 C807 1.368 . S
C826 C820 1.368 . S
C826 C825 1.523 . S
C827 C811 1.429 . S
C827 C823 1.429 . S
C827 C828 1.523 . S
C828 C812 1.368 . S
C828 C824 1.368 . S
C828 C827 1.523 . S
H829 C804 0.950 . S
H830 C806 0.950 . S
H831 C807 0.949 . S
H832 C809 0.950 . S
H833 C811 0.950 . S
C834 C835 1.349 . S
C834 C836 1.327 . S
C834 H859 0.950 . S
C835 C834 1.349 . S
C835 C851 1.349 . S
C836 C834 1.327 . S
C836 C855 1.429 . S
C836 H860 0.950 . S
C837 C854 1.574 . S
C837 C856 1.368 . S
C837 H861 0.949 . S
H838 C842 0.949 . S
C839 C840 1.349 . S
C839 C841 1.327 . S
C839 H862 0.950 . S
C840 C839 1.349 . S
C840 C852 1.349 . S
C841 C839 1.327 . S
C841 C857 1.429 . S
C841 H863 0.950 . S
C842 H838 0.949 . S
C842 C850 1.574 . S
C842 C858 1.368 . S
H843 C851 0.950 . S
H844 C849 0.950 . S
H845 C850 0.949 . S
H846 C852 0.950 . S
H847 C853 0.950 . S
H848 C854 0.949 . S
C849 H844 0.950 . S
C849 C851 1.327 . S
C849 C855 1.429 . S
C850 C842 1.574 . S
C850 H845 0.949 . S
C850 C856 1.368 . S
C851 C835 1.349 . S
C851 H843 0.950 . S
C851 C849 1.327 . S
C852 C840 1.349 . S
C852 H846 0.950 . S
C852 C853 1.327 . S
C853 H847 0.950 . S
C853 C852 1.327 . S
C853 C857 1.429 . S
C854 C837 1.574 . S
C854 H848 0.949 . S
C854 C858 1.368 . S
C855 C836 1.429 . S
C855 C849 1.429 . S
C855 C856 1.523 . S
C856 C837 1.368 . S
C856 C850 1.368 . S
C856 C855 1.523 . S
C857 C841 1.429 . S
C857 C853 1.429 . S
C857 C858 1.523 . S
C858 C842 1.368 . S
C858 C854 1.368 . S
C858 C857 1.523 . S
H859 C834 0.950 . S
H860 C836 0.950 . S
H861 C837 0.949 . S
H862 C839 0.950 . S
H863 C841 0.950 . S
C864 C865 1.349 . S
C864 C866 1.327 . S
C864 H889 0.950 . S
C865 C864 1.349 . S
C865 C881 1.349 . S
C866 C864 1.327 . S
C866 C885 1.429 . S
C866 H890 0.950 . S
C867 C884 1.574 1_455 S
C867 C886 1.368 . S
C867 H891 0.949 . S
H868 C872 0.949 . S
C869 C870 1.349 . S
C869 C871 1.327 . S
C869 H892 0.950 . S
C870 C869 1.349 . S
C870 C882 1.349 . S
C871 C869 1.327 . S
C871 C887 1.429 . S
C871 H893 0.950 . S
C872 H868 0.949 . S
C872 C880 1.574 1_655 S
C872 C888 1.368 . S
H873 C881 0.950 . S
H874 C879 0.950 . S
H875 C880 0.949 . S
H876 C882 0.950 . S
H877 C883 0.950 . S
H878 C884 0.949 . S
C879 H874 0.950 . S
C879 C881 1.327 . S
C879 C885 1.429 . S
C880 C872 1.574 1_455 S
C880 H875 0.949 . S
C880 C886 1.368 . S
C881 C865 1.349 . S
C881 H873 0.950 . S
C881 C879 1.327 . S
C882 C870 1.349 . S
C882 H876 0.950 . S
C882 C883 1.327 . S
C883 H877 0.950 . S
C883 C882 1.327 . S
C883 C887 1.429 . S
C884 C867 1.574 1_655 S
C884 H878 0.949 . S
C884 C888 1.368 . S
C885 C866 1.429 . S
C885 C879 1.429 . S
C885 C886 1.523 . S
C886 C867 1.368 . S
C886 C880 1.368 . S
C886 C885 1.523 . S
C887 C871 1.429 . S
C887 C883 1.429 . S
C887 C888 1.523 . S
C888 C872 1.368 . S
C888 C884 1.368 . S
C888 C887 1.523 . S
H889 C864 0.950 . S
H890 C866 0.950 . S
H891 C867 0.949 . S
H892 C869 0.950 . S
H893 C871 0.950 . S
C894 C895 1.349 . S
C894 C896 1.327 . S
C894 H919 0.950 . S
C895 C894 1.349 . S
C895 C911 1.349 . S
C896 C894 1.327 . S
C896 C915 1.429 . S
C896 H920 0.950 . S
C897 C914 1.574 . S
C897 C916 1.368 . S
C897 H921 0.949 . S
H898 C902 0.949 . S
C899 C900 1.349 . S
C899 C901 1.327 . S
C899 H922 0.950 . S
C900 C899 1.349 . S
C900 C912 1.349 . S
C901 C899 1.327 . S
C901 C917 1.429 . S
C901 H923 0.950 . S
C902 H898 0.949 . S
C902 C910 1.574 . S
C902 C918 1.368 . S
H903 C911 0.950 . S
H904 C909 0.950 . S
H905 C910 0.949 . S
H906 C912 0.950 . S
H907 C913 0.950 . S
H908 C914 0.949 . S
C909 H904 0.950 . S
C909 C911 1.327 . S
C909 C915 1.429 . S
C910 C902 1.574 . S
C910 H905 0.949 . S
C910 C916 1.368 . S
C911 C895 1.349 . S
C911 H903 0.950 . S
C911 C909 1.327 . S
C912 C900 1.349 . S
C912 H906 0.950 . S
C912 C913 1.327 . S
C913 H907 0.950 . S
C913 C912 1.327 . S
C913 C917 1.429 . S
C914 C897 1.574 . S
C914 H908 0.949 . S
C914 C918 1.368 . S
C915 C896 1.429 . S
C915 C909 1.429 . S
C915 C916 1.523 . S
C916 C897 1.368 . S
C916 C910 1.368 . S
C916 C915 1.523 . S
C917 C901 1.429 . S
C917 C913 1.429 . S
C917 C918 1.523 . S
C918 C902 1.368 . S
C918 C914 1.368 . S
C918 C917 1.523 . S
H919 C894 0.950 . S
H920 C896 0.950 . S
H921 C897 0.949 . S
H922 C899 0.950 . S
H923 C901 0.950 . S
C924 C925 1.349 . S
C924 C926 1.327 . S
C924 H949 0.950 . S
C925 C924 1.349 . S
C925 C941 1.349 . S
C926 C924 1.327 . S
C926 C945 1.429 . S
C926 H950 0.950 . S
C927 C944 1.574 . S
C927 C946 1.368 1_545 S
C927 H951 0.949 . S
H928 C932 0.949 . S
C929 C930 1.349 . S
C929 C931 1.327 . S
C929 H952 0.950 . S
C930 C929 1.349 . S
C930 C942 1.349 . S
C931 C929 1.327 . S
C931 C947 1.429 . S
C931 H953 0.950 . S
C932 H928 0.949 . S
C932 C940 1.574 . S
C932 C948 1.368 1_565 S
H933 C941 0.950 . S
H934 C939 0.950 . S
H935 C940 0.949 . S
H936 C942 0.950 . S
H937 C943 0.950 . S
H938 C944 0.949 . S
C939 H934 0.950 . S
C939 C941 1.327 . S
C939 C945 1.429 . S
C940 C932 1.574 . S
C940 H935 0.949 . S
C940 C946 1.368 . S
C941 C925 1.349 . S
C941 H933 0.950 . S
C941 C939 1.327 . S
C942 C930 1.349 . S
C942 H936 0.950 . S
C942 C943 1.327 . S
C943 H937 0.950 . S
C943 C942 1.327 . S
C943 C947 1.429 . S
C944 C927 1.574 . S
C944 H938 0.949 . S
C944 C948 1.368 . S
C945 C926 1.429 . S
C945 C939 1.429 . S
C945 C946 1.523 . S
C946 C927 1.368 1_565 S
C946 C940 1.368 . S
C946 C945 1.523 . S
C947 C931 1.429 . S
C947 C943 1.429 . S
C947 C948 1.523 . S
C948 C932 1.368 1_545 S
C948 C944 1.368 . S
C948 C947 1.523 . S
H949 C924 0.950 . S
H950 C926 0.950 . S
H951 C927 0.949 . S
H952 C929 0.950 . S
H953 C931 0.950 . S
C954 C955 1.349 . S
C954 C956 1.327 . S
C954 H979 0.950 . S
C955 C954 1.349 . S
C955 C971 1.349 . S
C956 C954 1.327 . S
C956 C975 1.429 . S
C956 H980 0.950 . S
C957 C974 1.574 1_565 S
C957 C976 1.368 . S
C957 H981 0.949 . S
H958 C962 0.949 . S
C959 C960 1.349 . S
C959 C961 1.327 . S
C959 H982 0.950 . S
C960 C959 1.349 . S
C960 C972 1.349 . S
C961 C959 1.327 . S
C961 C977 1.429 . S
C961 H983 0.950 . S
C962 H958 0.949 . S
C962 C970 1.574 1_545 S
C962 C978 1.368 . S
H963 C971 0.950 . S
H964 C969 0.950 . S
H965 C970 0.949 . S
H966 C972 0.950 . S
H967 C973 0.950 . S
H968 C974 0.949 . S
C969 H964 0.950 . S
C969 C971 1.327 . S
C969 C975 1.429 . S
C970 C962 1.574 1_565 S
C970 H965 0.949 . S
C970 C976 1.368 . S
C971 C955 1.349 . S
C971 H963 0.950 . S
C971 C969 1.327 . S
C972 C960 1.349 . S
C972 H966 0.950 . S
C972 C973 1.327 . S
C973 H967 0.950 . S
C973 C972 1.327 . S
C973 C977 1.429 . S
C974 C957 1.574 1_545 S
C974 H968 0.949 . S
C974 C978 1.368 . S
C975 C956 1.429 . S
C975 C969 1.429 . S
C975 C976 1.523 . S
C976 C957 1.368 . S
C976 C970 1.368 . S
C976 C975 1.523 . S
C977 C961 1.429 . S
C977 C973 1.429 . S
C977 C978 1.523 . S
C978 C962 1.368 . S
C978 C974 1.368 . S
C978 C977 1.523 . S
H979 C954 0.950 . S
H980 C956 0.950 . S
H981 C957 0.949 . S
H982 C959 0.950 . S
H983 C961 0.950 . S
C984 C985 1.349 . S
C984 C986 1.327 . S
C984 H1009 0.950 . S
C985 C984 1.349 . S
C985 C1001 1.349 . S
C986 C984 1.327 . S
C986 C1005 1.429 . S
C986 H1010 0.950 . S
C987 C1004 1.574 1_455 S
C987 C1006 1.368 . S
C987 H1011 0.949 . S
H988 C992 0.949 . S
C989 C990 1.349 . S
C989 C991 1.327 . S
C989 H1012 0.950 . S
C990 C989 1.349 . S
C990 C1002 1.349 . S
C991 C989 1.327 . S
C991 C1007 1.429 . S
C991 H1013 0.950 . S
C992 H988 0.949 . S
C992 C1000 1.574 1_655 S
C992 C1008 1.368 . S
H993 C1001 0.950 . S
H994 C999 0.950 . S
H995 C1000 0.949 . S
H996 C1002 0.950 . S
H997 C1003 0.950 . S
H998 C1004 0.949 . S
C999 H994 0.950 . S
C999 C1001 1.327 . S
C999 C1005 1.429 . S
C1000 C992 1.574 1_455 S
C1000 H995 0.949 . S
C1000 C1006 1.368 . S
C1001 C985 1.349 . S
C1001 H993 0.950 . S
C1001 C999 1.327 . S
C1002 C990 1.349 . S
C1002 H996 0.950 . S
C1002 C1003 1.327 . S
C1003 H997 0.950 . S
C1003 C1002 1.327 . S
C1003 C1007 1.429 . S
C1004 C987 1.574 1_655 S
C1004 H998 0.949 . S
C1004 C1008 1.368 . S
C1005 C986 1.429 . S
C1005 C999 1.429 . S
C1005 C1006 1.523 . S
C1006 C987 1.368 . S
C1006 C1000 1.368 . S
C1006 C1005 1.523 . S
C1007 C991 1.429 . S
C1007 C1003 1.429 . S
C1007 C1008 1.523 . S
C1008 C992 1.368 . S
C1008 C1004 1.368 . S
C1008 C1007 1.523 . S
H1009 C984 0.950 . S
H1010 C986 0.950 . S
H1011 C987 0.949 . S
H1012 C989 0.950 . S
H1013 C991 0.950 . S
C1014 C1015 1.349 . S
C1014 C1016 1.327 . S
C1014 H1039 0.950 . S
C1015 C1014 1.349 . S
C1015 C1031 1.349 . S
C1016 C1014 1.327 . S
C1016 C1035 1.429 . S
C1016 H1040 0.950 . S
C1017 C1034 1.574 . S
C1017 C1036 1.368 . S
C1017 H1041 0.949 . S
H1018 C1022 0.949 . S
C1019 C1020 1.349 . S
C1019 C1021 1.327 . S
C1019 H1042 0.950 . S
C1020 C1019 1.349 . S
C1020 C1032 1.349 . S
C1021 C1019 1.327 . S
C1021 C1037 1.429 . S
C1021 H1043 0.950 . S
C1022 H1018 0.949 . S
C1022 C1030 1.574 . S
C1022 C1038 1.368 . S
H1023 C1031 0.950 . S
H1024 C1029 0.950 . S
H1025 C1030 0.949 . S
H1026 C1032 0.950 . S
H1027 C1033 0.950 . S
H1028 C1034 0.949 . S
C1029 H1024 0.950 . S
C1029 C1031 1.327 . S
C1029 C1035 1.429 . S
C1030 C1022 1.574 . S
C1030 H1025 0.949 . S
C1030 C1036 1.368 . S
C1031 C1015 1.349 . S
C1031 H1023 0.950 . S
C1031 C1029 1.327 . S
C1032 C1020 1.349 . S
C1032 H1026 0.950 . S
C1032 C1033 1.327 . S
C1033 H1027 0.950 . S
C1033 C1032 1.327 . S
C1033 C1037 1.429 . S
C1034 C1017 1.574 . S
C1034 H1028 0.949 . S
C1034 C1038 1.368 . S
C1035 C1016 1.429 . S
C1035 C1029 1.429 . S
C1035 C1036 1.523 . S
C1036 C1017 1.368 . S
C1036 C1030 1.368 . S
C1036 C1035 1.523 . S
C1037 C1021 1.429 . S
C1037 C1033 1.429 . S
C1037 C1038 1.523 . S
C1038 C1022 1.368 . S
C1038 C1034 1.368 . S
C1038 C1037 1.523 . S
H1039 C1014 0.950 . S
H1040 C1016 0.950 . S
H1041 C1017 0.949 . S
H1042 C1019 0.950 . S
H1043 C1021 0.950 . S
C1044 C1045 1.349 . S
C1044 C1046 1.327 . S
C1044 H1069 0.950 . S
C1045 C1044 1.349 . S
C1045 C1061 1.349 . S
C1046 C1044 1.327 . S
C1046 C1065 1.429 . S
C1046 H1070 0.950 . S
C1047 C1064 1.574 . S
C1047 C1066 1.364 1_554 S
C1047 H1071 0.949 . S
H1048 C1052 0.949 . S
C1049 C1050 1.349 . S
C1049 C1051 1.327 . S
C1049 H1072 0.950 . S
C1050 C1049 1.349 . S
C1050 C1062 1.349 . S
C1051 C1049 1.327 . S
C1051 C1067 1.429 . S
C1051 H1073 0.950 . S
C1052 H1048 0.949 . S
C1052 C1060 1.568 1_554 S
C1052 C1068 1.368 . S
H1053 C1061 0.950 . S
H1054 C1059 0.950 . S
H1055 C1060 0.955 . S
H1056 C1062 0.950 . S
H1057 C1063 0.950 . S
H1058 C1064 0.949 . S
C1059 H1054 0.950 . S
C1059 C1061 1.327 . S
C1059 C1065 1.429 . S
C1060 C1052 1.568 1_556 S
C1060 H1055 0.955 . S
C1060 C1066 1.368 . S
C1061 C1045 1.349 . S
C1061 H1053 0.950 . S
C1061 C1059 1.327 . S
C1062 C1050 1.349 . S
C1062 H1056 0.950 . S
C1062 C1063 1.327 . S
C1063 H1057 0.950 . S
C1063 C1062 1.327 . S
C1063 C1067 1.429 . S
C1064 C1047 1.574 . S
C1064 H1058 0.949 . S
C1064 C1068 1.368 . S
C1065 C1046 1.429 . S
C1065 C1059 1.429 . S
C1065 C1066 1.528 . S
C1066 C1047 1.364 1_556 S
C1066 C1060 1.368 . S
C1066 C1065 1.528 . S
C1067 C1051 1.429 . S
C1067 C1063 1.429 . S
C1067 C1068 1.523 . S
C1068 C1052 1.368 . S
C1068 C1064 1.368 . S
C1068 C1067 1.523 . S
H1069 C1044 0.950 . S
H1070 C1046 0.950 . S
H1071 C1047 0.949 . S
H1072 C1049 0.950 . S
H1073 C1051 0.950 . S
C1074 C1075 1.349 . S
C1074 C1076 1.327 1_556 S
C1074 H1099 0.950 1_556 S
C1075 C1074 1.349 . S
C1075 C1091 1.349 . S
C1076 C1074 1.327 1_554 S
C1076 C1095 1.429 1_554 S
C1076 H1100 0.950 . S
C1077 C1094 1.574 . S
C1077 C1096 1.378 . S
C1077 H1101 0.949 . S
H1078 C1082 0.949 . S
C1079 C1080 1.349 . S
C1079 C1081 1.327 . S
C1079 H1102 0.950 . S
C1080 C1079 1.349 . S
C1080 C1092 1.349 . S
C1081 C1079 1.327 . S
C1081 C1097 1.429 . S
C1081 H1103 0.950 1_554 S
C1082 H1078 0.949 . S
C1082 C1090 1.574 . S
C1082 C1098 1.368 . S
H1083 C1091 0.950 . S
H1084 C1089 0.950 . S
H1085 C1090 0.949 . S
H1086 C1092 0.950 . S
H1087 C1093 0.950 . S
H1088 C1094 0.949 . S
C1089 H1084 0.950 . S
C1089 C1091 1.327 . S
C1089 C1095 1.429 . S
C1090 C1082 1.574 . S
C1090 H1085 0.949 . S
C1090 C1096 1.354 1_554 S
C1091 C1075 1.349 . S
C1091 H1083 0.950 . S
C1091 C1089 1.327 . S
C1092 C1080 1.349 . S
C1092 H1086 0.950 . S
C1092 C1093 1.327 . S
C1093 H1087 0.950 . S
C1093 C1092 1.327 . S
C1093 C1097 1.429 . S
C1094 C1077 1.574 . S
C1094 H1088 0.949 . S
C1094 C1098 1.368 1_556 S
C1095 C1076 1.429 1_556 S
C1095 C1089 1.429 . S
C1095 C1096 1.529 . S
C1096 C1077 1.378 . S
C1096 C1090 1.354 1_556 S
C1096 C1095 1.529 . S
C1097 C1081 1.429 . S
C1097 C1093 1.429 . S
C1097 C1098 1.523 . S
C1098 C1082 1.368 . S
C1098 C1094 1.368 1_554 S
C1098 C1097 1.523 . S
H1099 C1074 0.950 1_554 S
H1100 C1076 0.950 . S
H1101 C1077 0.949 . S
H1102 C1079 0.950 . S
H1103 C1081 0.950 1_556 S
C1104 C1105 1.349 . S
C1104 C1106 1.327 . S
C1104 H1129 0.950 . S
C1105 C1104 1.349 . S
C1105 C1121 1.349 . S
C1106 C1104 1.327 . S
C1106 C1125 1.429 . S
C1106 H1130 0.950 . S
C1107 C1124 1.574 . S
C1107 C1126 1.354 1_554 S
C1107 H1131 0.949 . S
H1108 C1112 0.949 . S
C1109 C1110 1.349 . S
C1109 C1111 1.327 . S
C1109 H1132 0.950 . S
C1110 C1109 1.349 . S
C1110 C1122 1.349 . S
C1111 C1109 1.327 . S
C1111 C1127 1.429 . S
C1111 H1133 0.950 . S
C1112 H1108 0.949 . S
C1112 C1120 1.574 . S
C1112 C1128 1.368 1_556 S
H1113 C1121 0.950 1_554 S
H1114 C1119 0.950 . S
H1115 C1120 0.949 . S
H1116 C1122 0.950 . S
H1117 C1123 0.950 1_556 S
H1118 C1124 0.949 . S
C1119 H1114 0.950 . S
C1119 C1121 1.327 1_554 S
C1119 C1125 1.429 1_554 S
C1120 C1112 1.574 . S
C1120 H1115 0.949 . S
C1120 C1126 1.379 . S
C1121 C1105 1.349 . S
C1121 H1113 0.950 1_556 S
C1121 C1119 1.327 1_556 S
C1122 C1110 1.349 . S
C1122 H1116 0.950 . S
C1122 C1123 1.327 . S
C1123 H1117 0.950 1_554 S
C1123 C1122 1.327 . S
C1123 C1127 1.429 . S
C1124 C1107 1.574 . S
C1124 H1118 0.949 . S
C1124 C1128 1.368 . S
C1125 C1106 1.429 . S
C1125 C1119 1.429 1_556 S
C1125 C1126 1.528 . S
C1126 C1107 1.354 1_556 S
C1126 C1120 1.379 . S
C1126 C1125 1.528 . S
C1127 C1111 1.429 . S
C1127 C1123 1.429 . S
C1127 C1128 1.523 . S
C1128 C1112 1.368 1_554 S
C1128 C1124 1.368 . S
C1128 C1127 1.523 . S
H1129 C1104 0.950 . S
H1130 C1106 0.950 . S
H1131 C1107 0.949 . S
H1132 C1109 0.950 . S
H1133 C1111 0.950 . S
C1134 C1135 1.349 . S
C1134 C1136 1.327 . S
C1134 H1159 0.950 . S
C1135 C1134 1.349 . S
C1135 C1151 1.349 . S
C1136 C1134 1.327 . S
C1136 C1155 1.429 . S
C1136 H1160 0.950 . S
C1137 C1154 1.574 . S
C1137 C1156 1.368 . S
C1137 H1161 0.949 . S
H1138 C1142 0.949 . S
C1139 C1140 1.349 . S
C1139 C1141 1.327 . S
C1139 H1162 0.950 . S
C1140 C1139 1.349 . S
C1140 C1152 1.349 . S
C1141 C1139 1.327 . S
C1141 C1157 1.429 . S
C1141 H1163 0.950 . S
C1142 H1138 0.949 . S
C1142 C1150 1.574 . S
C1142 C1158 1.368 . S
H1143 C1151 0.950 . S
H1144 C1149 0.950 . S
H1145 C1150 0.949 . S
H1146 C1152 0.950 . S
H1147 C1153 0.950 . S
H1148 C1154 0.949 . S
C1149 H1144 0.950 . S
C1149 C1151 1.327 . S
C1149 C1155 1.429 . S
C1150 C1142 1.574 . S
C1150 H1145 0.949 . S
C1150 C1156 1.368 . S
C1151 C1135 1.349 . S
C1151 H1143 0.950 . S
C1151 C1149 1.327 . S
C1152 C1140 1.349 . S
C1152 H1146 0.950 . S
C1152 C1153 1.327 . S
C1153 H1147 0.950 . S
C1153 C1152 1.327 . S
C1153 C1157 1.429 . S
C1154 C1137 1.574 . S
C1154 H1148 0.949 . S
C1154 C1158 1.368 . S
C1155 C1136 1.429 . S
C1155 C1149 1.429 . S
C1155 C1156 1.523 . S
C1156 C1137 1.368 . S
C1156 C1150 1.368 . S
C1156 C1155 1.523 . S
C1157 C1141 1.429 . S
C1157 C1153 1.429 . S
C1157 C1158 1.523 . S
C1158 C1142 1.368 . S
C1158 C1154 1.368 . S
C1158 C1157 1.523 . S
H1159 C1134 0.950 . S
H1160 C1136 0.950 . S
H1161 C1137 0.949 . S
H1162 C1139 0.950 . S
H1163 C1141 0.950 . S
C1164 C1165 1.349 . S
C1164 C1166 1.327 . S
C1164 H1189 0.950 . S
C1165 C1164 1.349 . S
C1165 C1181 1.349 . S
C1166 C1164 1.327 . S
C1166 C1185 1.429 . S
C1166 H1190 0.950 . S
C1167 C1184 1.574 . S
C1167 C1186 1.368 . S
C1167 H1191 0.949 . S
H1168 C1172 0.949 . S
C1169 C1170 1.349 . S
C1169 C1171 1.327 . S
C1169 H1192 0.950 . S
C1170 C1169 1.349 . S
C1170 C1182 1.349 . S
C1171 C1169 1.327 . S
C1171 C1187 1.429 . S
C1171 H1193 0.950 . S
C1172 H1168 0.949 . S
C1172 C1180 1.574 . S
C1172 C1188 1.368 . S
H1173 C1181 0.950 . S
H1174 C1179 0.950 . S
H1175 C1180 0.949 . S
H1176 C1182 0.950 . S
H1177 C1183 0.950 . S
H1178 C1184 0.949 . S
C1179 H1174 0.950 . S
C1179 C1181 1.327 . S
C1179 C1185 1.429 . S
C1180 C1172 1.574 . S
C1180 H1175 0.949 . S
C1180 C1186 1.368 . S
C1181 C1165 1.349 . S
C1181 H1173 0.950 . S
C1181 C1179 1.327 . S
C1182 C1170 1.349 . S
C1182 H1176 0.950 . S
C1182 C1183 1.327 . S
C1183 H1177 0.950 . S
C1183 C1182 1.327 . S
C1183 C1187 1.429 . S
C1184 C1167 1.574 . S
C1184 H1178 0.949 . S
C1184 C1188 1.368 . S
C1185 C1166 1.429 . S
C1185 C1179 1.429 . S
C1185 C1186 1.523 . S
C1186 C1167 1.368 . S
C1186 C1180 1.368 . S
C1186 C1185 1.523 . S
C1187 C1171 1.429 . S
C1187 C1183 1.429 . S
C1187 C1188 1.523 . S
C1188 C1172 1.368 . S
C1188 C1184 1.368 . S
C1188 C1187 1.523 . S
H1189 C1164 0.950 . S
H1190 C1166 0.950 . S
H1191 C1167 0.949 . S
H1192 C1169 0.950 . S
H1193 C1171 0.950 . S
C1194 C1195 1.349 . S
C1194 C1196 1.327 . S
C1194 H1219 0.950 . S
C1195 C1194 1.349 . S
C1195 C1211 1.349 . S
C1196 C1194 1.327 . S
C1196 C1215 1.429 . S
C1196 H1220 0.950 . S
C1197 C1214 1.574 . S
C1197 C1216 1.368 . S
C1197 H1221 0.949 . S
H1198 C1202 0.949 . S
C1199 C1200 1.349 . S
C1199 C1201 1.327 . S
C1199 H1222 0.950 . S
C1200 C1199 1.349 . S
C1200 C1212 1.349 . S
C1201 C1199 1.327 . S
C1201 C1217 1.429 . S
C1201 H1223 0.950 . S
C1202 H1198 0.949 . S
C1202 C1210 1.574 . S
C1202 C1218 1.368 . S
H1203 C1211 0.950 . S
H1204 C1209 0.950 . S
H1205 C1210 0.949 . S
H1206 C1212 0.950 . S
H1207 C1213 0.950 . S
H1208 C1214 0.949 . S
C1209 H1204 0.950 . S
C1209 C1211 1.327 . S
C1209 C1215 1.429 . S
C1210 C1202 1.574 . S
C1210 H1205 0.949 . S
C1210 C1216 1.368 . S
C1211 C1195 1.349 . S
C1211 H1203 0.950 . S
C1211 C1209 1.327 . S
C1212 C1200 1.349 . S
C1212 H1206 0.950 . S
C1212 C1213 1.327 . S
C1213 H1207 0.950 . S
C1213 C1212 1.327 . S
C1213 C1217 1.429 . S
C1214 C1197 1.574 . S
C1214 H1208 0.949 . S
C1214 C1218 1.368 . S
C1215 C1196 1.429 . S
C1215 C1209 1.429 . S
C1215 C1216 1.523 . S
C1216 C1197 1.368 . S
C1216 C1210 1.368 . S
C1216 C1215 1.523 . S
C1217 C1201 1.429 . S
C1217 C1213 1.429 . S
C1217 C1218 1.523 . S
C1218 C1202 1.368 . S
C1218 C1214 1.368 . S
C1218 C1217 1.523 . S
H1219 C1194 0.950 . S
H1220 C1196 0.950 . S
H1221 C1197 0.949 . S
H1222 C1199 0.950 . S
H1223 C1201 0.950 . S
C1224 C1225 1.349 . S
C1224 C1226 1.327 . S
C1224 H1249 0.950 . S
C1225 C1224 1.349 . S
C1225 C1241 1.349 1_554 S
C1226 C1224 1.327 . S
C1226 C1245 1.429 . S
C1226 H1250 0.950 . S
C1227 C1244 1.574 . S
C1227 C1246 1.349 1_556 S
C1227 H1251 0.949 . S
H1228 C1232 0.949 . S
C1229 C1230 1.349 . S
C1229 C1231 1.327 . S
C1229 H1252 0.950 . S
C1230 C1229 1.349 . S
C1230 C1242 1.349 . S
C1231 C1229 1.327 . S
C1231 C1247 1.429 . S
C1231 H1253 0.950 . S
C1232 H1228 0.949 . S
C1232 C1240 1.574 . S
C1232 C1248 1.368 1_554 S
H1233 C1241 0.950 . S
H1234 C1239 0.950 . S
H1235 C1240 0.949 . S
H1236 C1242 0.950 1_554 S
H1237 C1243 0.950 1_554 S
H1238 C1244 0.949 . S
C1239 H1234 0.950 . S
C1239 C1241 1.327 . S
C1239 C1245 1.429 1_556 S
C1240 C1232 1.574 . S
C1240 H1235 0.949 . S
C1240 C1246 1.384 . S
C1241 C1225 1.349 1_556 S
C1241 H1233 0.950 . S
C1241 C1239 1.327 . S
C1242 C1230 1.349 . S
C1242 H1236 0.950 1_556 S
C1242 C1243 1.327 . S
C1243 H1237 0.950 1_556 S
C1243 C1242 1.327 . S
C1243 C1247 1.429 . S
C1244 C1227 1.574 . S
C1244 H1238 0.949 . S
C1244 C1248 1.368 . S
C1245 C1226 1.429 . S
C1245 C1239 1.429 1_554 S
C1245 C1246 1.528 . S
C1246 C1227 1.349 1_554 S
C1246 C1240 1.384 . S
C1246 C1245 1.528 . S
C1247 C1231 1.429 . S
C1247 C1243 1.429 . S
C1247 C1248 1.523 . S
C1248 C1232 1.368 1_556 S
C1248 C1244 1.368 . S
C1248 C1247 1.523 . S
H1249 C1224 0.950 . S
H1250 C1226 0.950 . S
H1251 C1227 0.949 . S
H1252 C1229 0.950 . S
H1253 C1231 0.950 . S
C1254 C1255 1.349 . S
C1254 C1256 1.327 . S
C1254 H1279 0.950 . S
C1255 C1254 1.349 . S
C1255 C1271 1.349 . S
C1256 C1254 1.327 . S
C1256 C1275 1.429 . S
C1256 H1280 0.950 . S
C1257 C1274 1.574 . S
C1257 C1276 1.368 1_554 S
C1257 H1281 0.949 . S
H1258 C1262 0.949 . S
C1259 C1260 1.349 . S
C1259 C1261 1.327 . S
C1259 H1282 0.950 . S
C1260 C1259 1.349 . S
C1260 C1272 1.349 . S
C1261 C1259 1.327 . S
C1261 C1277 1.429 . S
C1261 H1283 0.950 . S
C1262 H1258 0.949 . S
C1262 C1270 1.574 . S
C1262 C1278 1.352 1_556 S
H1263 C1271 0.950 . S
H1264 C1269 0.950 1_554 S
H1265 C1270 0.949 . S
H1266 C1272 0.950 1_556 S
H1267 C1273 0.950 . S
H1268 C1274 0.949 . S
C1269 H1264 0.950 1_556 S
C1269 C1271 1.327 . S
C1269 C1275 1.429 . S
C1270 C1262 1.574 . S
C1270 H1265 0.949 . S
C1270 C1276 1.368 . S
C1271 C1255 1.349 . S
C1271 H1263 0.950 . S
C1271 C1269 1.327 . S
C1272 C1260 1.349 . S
C1272 H1266 0.950 1_554 S
C1272 C1273 1.327 1_554 S
C1273 H1267 0.950 . S
C1273 C1272 1.327 1_556 S
C1273 C1277 1.429 1_556 S
C1274 C1257 1.574 . S
C1274 H1268 0.949 . S
C1274 C1278 1.380 . S
C1275 C1256 1.429 . S
C1275 C1269 1.429 . S
C1275 C1276 1.523 . S
C1276 C1257 1.368 1_556 S
C1276 C1270 1.368 . S
C1276 C1275 1.523 . S
C1277 C1261 1.429 . S
C1277 C1273 1.429 1_554 S
C1277 C1278 1.529 . S
C1278 C1262 1.352 1_554 S
C1278 C1274 1.380 . S
C1278 C1277 1.529 . S
H1279 C1254 0.950 . S
H1280 C1256 0.950 . S
H1281 C1257 0.949 . S
H1282 C1259 0.950 . S
H1283 C1261 0.950 . S
C1284 C1285 1.349 . S
C1284 C1286 1.327 . S
C1284 H1309 0.950 . S
C1285 C1284 1.349 . S
C1285 C1301 1.349 . S
C1286 C1284 1.327 . S
C1286 C1305 1.429 . S
C1286 H1310 0.950 . S
C1287 C1304 1.574 . S
C1287 C1306 1.355 1_556 S
C1287 H1311 0.949 . S
H1288 C1292 0.949 . S
C1289 C1290 1.349 . S
C1289 C1291 1.327 . S
C1289 H1312 0.950 . S
C1290 C1289 1.349 . S
C1290 C1302 1.349 . S
C1291 C1289 1.327 . S
C1291 C1307 1.429 . S
C1291 H1313 0.950 . S
C1292 H1288 0.949 . S
C1292 C1300 1.574 . S
C1292 C1308 1.368 1_554 S
H1293 C1301 0.950 1_556 S
H1294 C1299 0.950 . S
H1295 C1300 0.949 . S
H1296 C1302 0.950 . S
H1297 C1303 0.950 1_554 S
H1298 C1304 0.949 . S
C1299 H1294 0.950 . S
C1299 C1301 1.327 1_556 S
C1299 C1305 1.429 1_556 S
C1300 C1292 1.574 . S
C1300 H1295 0.949 . S
C1300 C1306 1.378 . S
C1301 C1285 1.349 . S
C1301 H1293 0.950 1_554 S
C1301 C1299 1.327 1_554 S
C1302 C1290 1.349 . S
C1302 H1296 0.950 . S
C1302 C1303 1.327 . S
C1303 H1297 0.950 1_556 S
C1303 C1302 1.327 . S
C1303 C1307 1.429 . S
C1304 C1287 1.574 . S
C1304 H1298 0.949 . S
C1304 C1308 1.368 . S
C1305 C1286 1.429 . S
C1305 C1299 1.429 1_554 S
C1305 C1306 1.528 . S
C1306 C1287 1.355 1_554 S
C1306 C1300 1.378 . S
C1306 C1305 1.528 . S
C1307 C1291 1.429 . S
C1307 C1303 1.429 . S
C1307 C1308 1.523 . S
C1308 C1292 1.368 1_556 S
C1308 C1304 1.368 . S
C1308 C1307 1.523 . S
H1309 C1284 0.950 . S
H1310 C1286 0.950 . S
H1311 C1287 0.949 . S
H1312 C1289 0.950 . S
H1313 C1291 0.950 . S
C1314 C1315 1.349 . S
C1314 C1316 1.327 . S
C1314 H1339 0.950 . S
C1315 C1314 1.349 . S
C1315 C1331 1.349 . S
C1316 C1314 1.327 . S
C1316 C1335 1.429 . S
C1316 H1340 0.950 . S
C1317 C1334 1.574 . S
C1317 C1336 1.368 . S
C1317 H1341 0.949 . S
H1318 C1322 0.949 . S
C1319 C1320 1.349 . S
C1319 C1321 1.327 . S
C1319 H1342 0.950 . S
C1320 C1319 1.349 . S
C1320 C1332 1.349 . S
C1321 C1319 1.327 . S
C1321 C1337 1.429 . S
C1321 H1343 0.950 . S
C1322 H1318 0.949 . S
C1322 C1330 1.574 . S
C1322 C1338 1.368 . S
H1323 C1331 0.950 . S
H1324 C1329 0.950 . S
H1325 C1330 0.949 . S
H1326 C1332 0.950 . S
H1327 C1333 0.950 . S
H1328 C1334 0.949 . S
C1329 H1324 0.950 . S
C1329 C1331 1.327 . S
C1329 C1335 1.429 . S
C1330 C1322 1.574 . S
C1330 H1325 0.949 . S
C1330 C1336 1.368 . S
C1331 C1315 1.349 . S
C1331 H1323 0.950 . S
C1331 C1329 1.327 . S
C1332 C1320 1.349 . S
C1332 H1326 0.950 . S
C1332 C1333 1.327 . S
C1333 H1327 0.950 . S
C1333 C1332 1.327 . S
C1333 C1337 1.429 . S
C1334 C1317 1.574 . S
C1334 H1328 0.949 . S
C1334 C1338 1.368 . S
C1335 C1316 1.429 . S
C1335 C1329 1.429 . S
C1335 C1336 1.523 . S
C1336 C1317 1.368 . S
C1336 C1330 1.368 . S
C1336 C1335 1.523 . S
C1337 C1321 1.429 . S
C1337 C1333 1.429 . S
C1337 C1338 1.523 . S
C1338 C1322 1.368 . S
C1338 C1334 1.368 . S
C1338 C1337 1.523 . S
H1339 C1314 0.950 . S
H1340 C1316 0.950 . S
H1341 C1317 0.949 . S
H1342 C1319 0.950 . S
H1343 C1321 0.950 . S
C1344 C1345 1.349 . S
C1344 C1346 1.327 . S
C1344 H1369 0.950 . S
C1345 C1344 1.349 . S
C1345 C1361 1.349 . S
C1346 C1344 1.327 . S
C1346 C1365 1.429 . S
C1346 H1370 0.950 . S
C1347 C1364 1.574 . S
C1347 C1366 1.368 . S
C1347 H1371 0.949 . S
H1348 C1352 0.949 . S
C1349 C1350 1.349 . S
C1349 C1351 1.327 . S
C1349 H1372 0.950 . S
C1350 C1349 1.349 . S
C1350 C1362 1.349 . S
C1351 C1349 1.327 . S
C1351 C1367 1.429 . S
C1351 H1373 0.950 . S
C1352 H1348 0.949 . S
C1352 C1360 1.574 . S
C1352 C1368 1.368 . S
H1353 C1361 0.950 . S
H1354 C1359 0.950 . S
H1355 C1360 0.949 . S
H1356 C1362 0.950 . S
H1357 C1363 0.950 . S
H1358 C1364 0.949 . S
C1359 H1354 0.950 . S
C1359 C1361 1.327 . S
C1359 C1365 1.429 . S
C1360 C1352 1.574 . S
C1360 H1355 0.949 . S
C1360 C1366 1.368 . S
C1361 C1345 1.349 . S
C1361 H1353 0.950 . S
C1361 C1359 1.327 . S
C1362 C1350 1.349 . S
C1362 H1356 0.950 . S
C1362 C1363 1.327 . S
C1363 H1357 0.950 . S
C1363 C1362 1.327 . S
C1363 C1367 1.429 . S
C1364 C1347 1.574 . S
C1364 H1358 0.949 . S
C1364 C1368 1.368 . S
C1365 C1346 1.429 . S
C1365 C1359 1.429 . S
C1365 C1366 1.523 . S
C1366 C1347 1.368 . S
C1366 C1360 1.368 . S
C1366 C1365 1.523 . S
C1367 C1351 1.429 . S
C1367 C1363 1.429 . S
C1367 C1368 1.523 . S
C1368 C1352 1.368 . S
C1368 C1364 1.368 . S
C1368 C1367 1.523 . S
H1369 C1344 0.950 . S
H1370 C1346 0.950 . S
H1371 C1347 0.949 . S
H1372 C1349 0.950 . S
H1373 C1351 0.950 . S
C1374 C1375 1.349 . S
C1374 C1376 1.327 . S
C1374 H1399 0.950 . S
C1375 C1374 1.349 . S
C1375 C1391 1.349 . S
C1376 C1374 1.327 . S
C1376 C1395 1.429 . S
C1376 H1400 0.950 . S
C1377 C1394 1.574 . S
C1377 C1396 1.368 . S
C1377 H1401 0.949 . S
H1378 C1382 0.949 . S
C1379 C1380 1.349 . S
C1379 C1381 1.327 . S
C1379 H1402 0.950 . S
C1380 C1379 1.349 . S
C1380 C1392 1.349 . S
C1381 C1379 1.327 . S
C1381 C1397 1.429 . S
C1381 H1403 0.950 . S
C1382 H1378 0.949 . S
C1382 C1390 1.574 . S
C1382 C1398 1.368 . S
H1383 C1391 0.950 . S
H1384 C1389 0.950 . S
H1385 C1390 0.949 . S
H1386 C1392 0.950 . S
H1387 C1393 0.950 . S
H1388 C1394 0.949 . S
C1389 H1384 0.950 . S
C1389 C1391 1.327 . S
C1389 C1395 1.429 . S
C1390 C1382 1.574 . S
C1390 H1385 0.949 . S
C1390 C1396 1.368 . S
C1391 C1375 1.349 . S
C1391 H1383 0.950 . S
C1391 C1389 1.327 . S
C1392 C1380 1.349 . S
C1392 H1386 0.950 . S
C1392 C1393 1.327 . S
C1393 H1387 0.950 . S
C1393 C1392 1.327 . S
C1393 C1397 1.429 . S
C1394 C1377 1.574 . S
C1394 H1388 0.949 . S
C1394 C1398 1.368 . S
C1395 C1376 1.429 . S
C1395 C1389 1.429 . S
C1395 C1396 1.523 . S
C1396 C1377 1.368 . S
C1396 C1390 1.368 . S
C1396 C1395 1.523 . S
C1397 C1381 1.429 . S
C1397 C1393 1.429 . S
C1397 C1398 1.523 . S
C1398 C1382 1.368 . S
C1398 C1394 1.368 . S
C1398 C1397 1.523 . S
H1399 C1374 0.950 . S
H1400 C1376 0.950 . S
H1401 C1377 0.949 . S
H1402 C1379 0.950 . S
H1403 C1381 0.950 . S
C1404 C1405 1.349 . S
C1404 C1406 1.327 . S
C1404 H1429 0.950 . S
C1405 C1404 1.349 . S
C1405 C1421 1.349 . S
C1406 C1404 1.327 . S
C1406 C1425 1.429 . S
C1406 H1430 0.950 . S
C1407 C1424 1.574 . S
C1407 C1426 1.368 . S
C1407 H1431 0.949 . S
H1408 C1412 0.949 . S
C1409 C1410 1.349 . S
C1409 C1411 1.327 . S
C1409 H1432 0.950 . S
C1410 C1409 1.349 . S
C1410 C1422 1.349 . S
C1411 C1409 1.327 . S
C1411 C1427 1.429 . S
C1411 H1433 0.950 . S
C1412 H1408 0.949 . S
C1412 C1420 1.574 . S
C1412 C1428 1.368 . S
H1413 C1421 0.950 . S
H1414 C1419 0.950 . S
H1415 C1420 0.949 . S
H1416 C1422 0.950 . S
H1417 C1423 0.950 . S
H1418 C1424 0.949 . S
C1419 H1414 0.950 . S
C1419 C1421 1.327 . S
C1419 C1425 1.429 . S
C1420 C1412 1.574 . S
C1420 H1415 0.949 . S
C1420 C1426 1.368 . S
C1421 C1405 1.349 . S
C1421 H1413 0.950 . S
C1421 C1419 1.327 . S
C1422 C1410 1.349 . S
C1422 H1416 0.950 . S
C1422 C1423 1.327 . S
C1423 H1417 0.950 . S
C1423 C1422 1.327 . S
C1423 C1427 1.429 . S
C1424 C1407 1.574 . S
C1424 H1418 0.949 . S
C1424 C1428 1.368 . S
C1425 C1406 1.429 . S
C1425 C1419 1.429 . S
C1425 C1426 1.523 . S
C1426 C1407 1.368 . S
C1426 C1420 1.368 . S
C1426 C1425 1.523 . S
C1427 C1411 1.429 . S
C1427 C1423 1.429 . S
C1427 C1428 1.523 . S
C1428 C1412 1.368 . S
C1428 C1424 1.368 . S
C1428 C1427 1.523 . S
H1429 C1404 0.950 . S
H1430 C1406 0.950 . S
H1431 C1407 0.949 . S
H1432 C1409 0.950 . S
H1433 C1411 0.950 . S
C1434 C1435 1.349 . S
C1434 C1436 1.327 . S
C1434 H1459 0.950 . S
C1435 C1434 1.349 . S
C1435 C1451 1.349 . S
C1436 C1434 1.327 . S
C1436 C1455 1.429 . S
C1436 H1460 0.950 . S
C1437 C1454 1.574 . S
C1437 C1456 1.368 . S
C1437 H1461 0.949 . S
H1438 C1442 0.949 . S
C1439 C1440 1.349 . S
C1439 C1441 1.327 . S
C1439 H1462 0.950 . S
C1440 C1439 1.349 . S
C1440 C1452 1.349 . S
C1441 C1439 1.327 . S
C1441 C1457 1.429 . S
C1441 H1463 0.950 . S
C1442 H1438 0.949 . S
C1442 C1450 1.574 . S
C1442 C1458 1.368 . S
H1443 C1451 0.950 . S
H1444 C1449 0.950 . S
H1445 C1450 0.949 . S
H1446 C1452 0.950 . S
H1447 C1453 0.950 . S
H1448 C1454 0.949 . S
C1449 H1444 0.950 . S
C1449 C1451 1.327 . S
C1449 C1455 1.429 . S
C1450 C1442 1.574 . S
C1450 H1445 0.949 . S
C1450 C1456 1.368 . S
C1451 C1435 1.349 . S
C1451 H1443 0.950 . S
C1451 C1449 1.327 . S
C1452 C1440 1.349 . S
C1452 H1446 0.950 . S
C1452 C1453 1.327 . S
C1453 H1447 0.950 . S
C1453 C1452 1.327 . S
C1453 C1457 1.429 . S
C1454 C1437 1.574 . S
C1454 H1448 0.949 . S
C1454 C1458 1.368 . S
C1455 C1436 1.429 . S
C1455 C1449 1.429 . S
C1455 C1456 1.523 . S
C1456 C1437 1.368 . S
C1456 C1450 1.368 . S
C1456 C1455 1.523 . S
C1457 C1441 1.429 . S
C1457 C1453 1.429 . S
C1457 C1458 1.523 . S
C1458 C1442 1.368 . S
C1458 C1454 1.368 . S
C1458 C1457 1.523 . S
H1459 C1434 0.950 . S
H1460 C1436 0.950 . S
H1461 C1437 0.949 . S
H1462 C1439 0.950 . S
H1463 C1441 0.950 . S
C1464 C1465 1.349 . S
C1464 C1466 1.327 . S
C1464 H1489 0.950 . S
C1465 C1464 1.349 . S
C1465 C1481 1.349 . S
C1466 C1464 1.327 . S
C1466 C1485 1.429 . S
C1466 H1490 0.950 . S
C1467 C1484 1.574 . S
C1467 C1486 1.368 . S
C1467 H1491 0.949 . S
H1468 C1472 0.949 . S
C1469 C1470 1.349 . S
C1469 C1471 1.327 . S
C1469 H1492 0.950 . S
C1470 C1469 1.349 . S
C1470 C1482 1.349 . S
C1471 C1469 1.327 . S
C1471 C1487 1.429 . S
C1471 H1493 0.950 . S
C1472 H1468 0.949 . S
C1472 C1480 1.574 . S
C1472 C1488 1.368 . S
H1473 C1481 0.950 . S
H1474 C1479 0.950 . S
H1475 C1480 0.949 . S
H1476 C1482 0.950 . S
H1477 C1483 0.950 . S
H1478 C1484 0.949 . S
C1479 H1474 0.950 . S
C1479 C1481 1.327 . S
C1479 C1485 1.429 . S
C1480 C1472 1.574 . S
C1480 H1475 0.949 . S
C1480 C1486 1.368 . S
C1481 C1465 1.349 . S
C1481 H1473 0.950 . S
C1481 C1479 1.327 . S
C1482 C1470 1.349 . S
C1482 H1476 0.950 . S
C1482 C1483 1.327 . S
C1483 H1477 0.950 . S
C1483 C1482 1.327 . S
C1483 C1487 1.429 . S
C1484 C1467 1.574 . S
C1484 H1478 0.949 . S
C1484 C1488 1.368 . S
C1485 C1466 1.429 . S
C1485 C1479 1.429 . S
C1485 C1486 1.523 . S
C1486 C1467 1.368 . S
C1486 C1480 1.368 . S
C1486 C1485 1.523 . S
C1487 C1471 1.429 . S
C1487 C1483 1.429 . S
C1487 C1488 1.523 . S
C1488 C1472 1.368 . S
C1488 C1484 1.368 . S
C1488 C1487 1.523 . S
H1489 C1464 0.950 . S
H1490 C1466 0.950 . S
H1491 C1467 0.949 . S
H1492 C1469 0.950 . S
H1493 C1471 0.950 . S
C1494 C1495 1.349 . S
C1494 C1496 1.327 . S
C1494 H1519 0.950 . S
C1495 C1494 1.349 . S
C1495 C1511 1.349 . S
C1496 C1494 1.327 . S
C1496 C1515 1.429 . S
C1496 H1520 0.950 . S
C1497 C1514 1.574 . S
C1497 C1516 1.368 . S
C1497 H1521 0.949 . S
H1498 C1502 0.949 . S
C1499 C1500 1.349 . S
C1499 C1501 1.327 . S
C1499 H1522 0.950 . S
C1500 C1499 1.349 . S
C1500 C1512 1.349 . S
C1501 C1499 1.327 . S
C1501 C1517 1.429 . S
C1501 H1523 0.950 . S
C1502 H1498 0.949 . S
C1502 C1510 1.574 . S
C1502 C1518 1.368 . S
H1503 C1511 0.950 . S
H1504 C1509 0.950 . S
H1505 C1510 0.949 . S
H1506 C1512 0.950 . S
H1507 C1513 0.950 . S
H1508 C1514 0.949 . S
C1509 H1504 0.950 . S
C1509 C1511 1.327 . S
C1509 C1515 1.429 . S
C1510 C1502 1.574 . S
C1510 H1505 0.949 . S
C1510 C1516 1.368 . S
C1511 C1495 1.349 . S
C1511 H1503 0.950 . S
C1511 C1509 1.327 . S
C1512 C1500 1.349 . S
C1512 H1506 0.950 . S
C1512 C1513 1.327 . S
C1513 H1507 0.950 . S
C1513 C1512 1.327 . S
C1513 C1517 1.429 . S
C1514 C1497 1.574 . S
C1514 H1508 0.949 . S
C1514 C1518 1.368 . S
C1515 C1496 1.429 . S
C1515 C1509 1.429 . S
C1515 C1516 1.523 . S
C1516 C1497 1.368 . S
C1516 C1510 1.368 . S
C1516 C1515 1.523 . S
C1517 C1501 1.429 . S
C1517 C1513 1.429 . S
C1517 C1518 1.523 . S
C1518 C1502 1.368 . S
C1518 C1514 1.368 . S
C1518 C1517 1.523 . S
H1519 C1494 0.950 . S
H1520 C1496 0.950 . S
H1521 C1497 0.949 . S
H1522 C1499 0.950 . S
H1523 C1501 0.950 . S
C1524 C1525 1.349 . S
C1524 C1526 1.327 . S
C1524 H1549 0.950 . S
C1525 C1524 1.349 . S
C1525 C1541 1.349 . S
C1526 C1524 1.327 . S
C1526 C1545 1.429 . S
C1526 H1550 0.950 . S
C1527 C1544 1.574 . S
C1527 C1546 1.368 . S
C1527 H1551 0.949 . S
H1528 C1532 0.949 . S
C1529 C1530 1.349 . S
C1529 C1531 1.327 . S
C1529 H1552 0.950 . S
C1530 C1529 1.349 . S
C1530 C1542 1.349 . S
C1531 C1529 1.327 . S
C1531 C1547 1.429 . S
C1531 H1553 0.950 . S
C1532 H1528 0.949 . S
C1532 C1540 1.574 . S
C1532 C1548 1.368 . S
H1533 C1541 0.950 . S
H1534 C1539 0.950 . S
H1535 C1540 0.949 . S
H1536 C1542 0.950 . S
H1537 C1543 0.950 . S
H1538 C1544 0.949 . S
C1539 H1534 0.950 . S
C1539 C1541 1.327 . S
C1539 C1545 1.429 . S
C1540 C1532 1.574 . S
C1540 H1535 0.949 . S
C1540 C1546 1.368 . S
C1541 C1525 1.349 . S
C1541 H1533 0.950 . S
C1541 C1539 1.327 . S
C1542 C1530 1.349 . S
C1542 H1536 0.950 . S
C1542 C1543 1.327 . S
C1543 H1537 0.950 . S
C1543 C1542 1.327 . S
C1543 C1547 1.429 . S
C1544 C1527 1.574 . S
C1544 H1538 0.949 . S
C1544 C1548 1.368 . S
C1545 C1526 1.429 . S
C1545 C1539 1.429 . S
C1545 C1546 1.523 . S
C1546 C1527 1.368 . S
C1546 C1540 1.368 . S
C1546 C1545 1.523 . S
C1547 C1531 1.429 . S
C1547 C1543 1.429 . S
C1547 C1548 1.523 . S
C1548 C1532 1.368 . S
C1548 C1544 1.368 . S
C1548 C1547 1.523 . S
H1549 C1524 0.950 . S
H1550 C1526 0.950 . S
H1551 C1527 0.949 . S
H1552 C1529 0.950 . S
H1553 C1531 0.950 . S
C1554 C1555 1.349 . S
C1554 C1556 1.327 . S
C1554 H1579 0.950 . S
C1555 C1554 1.349 . S
C1555 C1571 1.349 . S
C1556 C1554 1.327 . S
C1556 C1575 1.429 . S
C1556 H1580 0.950 . S
C1557 C1574 1.574 . S
C1557 C1576 1.368 . S
C1557 H1581 0.949 . S
H1558 C1562 0.949 . S
C1559 C1560 1.349 . S
C1559 C1561 1.327 . S
C1559 H1582 0.950 . S
C1560 C1559 1.349 . S
C1560 C1572 1.349 . S
C1561 C1559 1.327 . S
C1561 C1577 1.429 . S
C1561 H1583 0.950 . S
C1562 H1558 0.949 . S
C1562 C1570 1.574 . S
C1562 C1578 1.368 . S
H1563 C1571 0.950 . S
H1564 C1569 0.950 . S
H1565 C1570 0.949 . S
H1566 C1572 0.950 . S
H1567 C1573 0.950 . S
H1568 C1574 0.949 . S
C1569 H1564 0.950 . S
C1569 C1571 1.327 . S
C1569 C1575 1.429 . S
C1570 C1562 1.574 . S
C1570 H1565 0.949 . S
C1570 C1576 1.368 . S
C1571 C1555 1.349 . S
C1571 H1563 0.950 . S
C1571 C1569 1.327 . S
C1572 C1560 1.349 . S
C1572 H1566 0.950 . S
C1572 C1573 1.327 . S
C1573 H1567 0.950 . S
C1573 C1572 1.327 . S
C1573 C1577 1.429 . S
C1574 C1557 1.574 . S
C1574 H1568 0.949 . S
C1574 C1578 1.368 . S
C1575 C1556 1.429 . S
C1575 C1569 1.429 . S
C1575 C1576 1.523 . S
C1576 C1557 1.368 . S
C1576 C1570 1.368 . S
C1576 C1575 1.523 . S
C1577 C1561 1.429 . S
C1577 C1573 1.429 . S
C1577 C1578 1.523 . S
C1578 C1562 1.368 . S
C1578 C1574 1.368 . S
C1578 C1577 1.523 . S
H1579 C1554 0.950 . S
H1580 C1556 0.950 . S
H1581 C1557 0.949 . S
H1582 C1559 0.950 . S
H1583 C1561 0.950 . S
C1584 C1585 1.349 . S
C1584 C1586 1.327 . S
C1584 H1609 0.950 . S
C1585 C1584 1.349 . S
C1585 C1601 1.349 . S
C1586 C1584 1.327 . S
C1586 C1605 1.429 . S
C1586 H1610 0.950 . S
C1587 C1604 1.574 . S
C1587 C1606 1.368 . S
C1587 H1611 0.949 . S
H1588 C1592 0.949 . S
C1589 C1590 1.349 . S
C1589 C1591 1.327 . S
C1589 H1612 0.950 . S
C1590 C1589 1.349 . S
C1590 C1602 1.349 . S
C1591 C1589 1.327 . S
C1591 C1607 1.429 . S
C1591 H1613 0.950 . S
C1592 H1588 0.949 . S
C1592 C1600 1.574 . S
C1592 C1608 1.368 . S
H1593 C1601 0.950 . S
H1594 C1599 0.950 . S
H1595 C1600 0.949 . S
H1596 C1602 0.950 . S
H1597 C1603 0.950 . S
H1598 C1604 0.949 . S
C1599 H1594 0.950 . S
C1599 C1601 1.327 . S
C1599 C1605 1.429 . S
C1600 C1592 1.574 . S
C1600 H1595 0.949 . S
C1600 C1606 1.368 . S
C1601 C1585 1.349 . S
C1601 H1593 0.950 . S
C1601 C1599 1.327 . S
C1602 C1590 1.349 . S
C1602 H1596 0.950 . S
C1602 C1603 1.327 . S
C1603 H1597 0.950 . S
C1603 C1602 1.327 . S
C1603 C1607 1.429 . S
C1604 C1587 1.574 . S
C1604 H1598 0.949 . S
C1604 C1608 1.368 . S
C1605 C1586 1.429 . S
C1605 C1599 1.429 . S
C1605 C1606 1.523 . S
C1606 C1587 1.368 . S
C1606 C1600 1.368 . S
C1606 C1605 1.523 . S
C1607 C1591 1.429 . S
C1607 C1603 1.429 . S
C1607 C1608 1.523 . S
C1608 C1592 1.368 . S
C1608 C1604 1.368 . S
C1608 C1607 1.523 . S
H1609 C1584 0.950 . S
H1610 C1586 0.950 . S
H1611 C1587 0.949 . S
H1612 C1589 0.950 . S
H1613 C1591 0.950 . S
C1614 C1615 1.349 . S
C1614 C1616 1.327 . S
C1614 H1639 0.950 . S
C1615 C1614 1.349 . S
C1615 C1631 1.349 . S
C1616 C1614 1.327 . S
C1616 C1635 1.429 . S
C1616 H1640 0.950 . S
C1617 C1634 1.574 . S
C1617 C1636 1.368 . S
C1617 H1641 0.949 . S
H1618 C1622 0.949 . S
C1619 C1620 1.349 . S
C1619 C1621 1.327 . S
C1619 H1642 0.950 . S
C1620 C1619 1.349 . S
C1620 C1632 1.349 . S
C1621 C1619 1.327 . S
C1621 C1637 1.429 . S
C1621 H1643 0.950 . S
C1622 H1618 0.949 . S
C1622 C1630 1.574 . S
C1622 C1638 1.368 . S
H1623 C1631 0.950 . S
H1624 C1629 0.950 . S
H1625 C1630 0.949 . S
H1626 C1632 0.950 . S
H1627 C1633 0.950 . S
H1628 C1634 0.949 . S
C1629 H1624 0.950 . S
C1629 C1631 1.327 . S
C1629 C1635 1.429 . S
C1630 C1622 1.574 . S
C1630 H1625 0.949 . S
C1630 C1636 1.368 . S
C1631 C1615 1.349 . S
C1631 H1623 0.950 . S
C1631 C1629 1.327 . S
C1632 C1620 1.349 . S
C1632 H1626 0.950 . S
C1632 C1633 1.327 . S
C1633 H1627 0.950 . S
C1633 C1632 1.327 . S
C1633 C1637 1.429 . S
C1634 C1617 1.574 . S
C1634 H1628 0.949 . S
C1634 C1638 1.368 . S
C1635 C1616 1.429 . S
C1635 C1629 1.429 . S
C1635 C1636 1.523 . S
C1636 C1617 1.368 . S
C1636 C1630 1.368 . S
C1636 C1635 1.523 . S
C1637 C1621 1.429 . S
C1637 C1633 1.429 . S
C1637 C1638 1.523 . S
C1638 C1622 1.368 . S
C1638 C1634 1.368 . S
C1638 C1637 1.523 . S
H1639 C1614 0.950 . S
H1640 C1616 0.950 . S
H1641 C1617 0.949 . S
H1642 C1619 0.950 . S
H1643 C1621 0.950 . S
C1644 C1645 1.349 . S
C1644 C1646 1.327 . S
C1644 H1669 0.950 . S
C1645 C1644 1.349 . S
C1645 C1661 1.349 . S
C1646 C1644 1.327 . S
C1646 C1665 1.429 . S
C1646 H1670 0.950 . S
C1647 C1664 1.574 . S
C1647 C1666 1.368 . S
C1647 H1671 0.949 . S
H1648 C1652 0.949 . S
C1649 C1650 1.349 . S
C1649 C1651 1.327 . S
C1649 H1672 0.950 . S
C1650 C1649 1.349 . S
C1650 C1662 1.349 . S
C1651 C1649 1.327 . S
C1651 C1667 1.429 . S
C1651 H1673 0.950 . S
C1652 H1648 0.949 . S
C1652 C1660 1.574 . S
C1652 C1668 1.368 . S
H1653 C1661 0.950 . S
H1654 C1659 0.950 . S
H1655 C1660 0.949 . S
H1656 C1662 0.950 . S
H1657 C1663 0.950 . S
H1658 C1664 0.949 . S
C1659 H1654 0.950 . S
C1659 C1661 1.327 . S
C1659 C1665 1.429 . S
C1660 C1652 1.574 . S
C1660 H1655 0.949 . S
C1660 C1666 1.368 . S
C1661 C1645 1.349 . S
C1661 H1653 0.950 . S
C1661 C1659 1.327 . S
C1662 C1650 1.349 . S
C1662 H1656 0.950 . S
C1662 C1663 1.327 . S
C1663 H1657 0.950 . S
C1663 C1662 1.327 . S
C1663 C1667 1.429 . S
C1664 C1647 1.574 . S
C1664 H1658 0.949 . S
C1664 C1668 1.368 . S
C1665 C1646 1.429 . S
C1665 C1659 1.429 . S
C1665 C1666 1.523 . S
C1666 C1647 1.368 . S
C1666 C1660 1.368 . S
C1666 C1665 1.523 . S
C1667 C1651 1.429 . S
C1667 C1663 1.429 . S
C1667 C1668 1.523 . S
C1668 C1652 1.368 . S
C1668 C1664 1.368 . S
C1668 C1667 1.523 . S
H1669 C1644 0.950 . S
H1670 C1646 0.950 . S
H1671 C1647 0.949 . S
H1672 C1649 0.950 . S
H1673 C1651 0.950 . S
C1674 C1675 1.349 . S
C1674 C1676 1.327 . S
C1674 H1699 0.950 . S
C1675 C1674 1.349 . S
C1675 C1691 1.349 . S
C1676 C1674 1.327 . S
C1676 C1695 1.429 . S
C1676 H1700 0.950 . S
C1677 C1694 1.574 . S
C1677 C1696 1.368 . S
C1677 H1701 0.949 . S
H1678 C1682 0.949 . S
C1679 C1680 1.349 . S
C1679 C1681 1.327 . S
C1679 H1702 0.950 . S
C1680 C1679 1.349 . S
C1680 C1692 1.349 . S
C1681 C1679 1.327 . S
C1681 C1697 1.429 . S
C1681 H1703 0.950 . S
C1682 H1678 0.949 . S
C1682 C1690 1.574 . S
C1682 C1698 1.368 . S
H1683 C1691 0.950 . S
H1684 C1689 0.950 . S
H1685 C1690 0.949 . S
H1686 C1692 0.950 . S
H1687 C1693 0.950 . S
H1688 C1694 0.949 . S
C1689 H1684 0.950 . S
C1689 C1691 1.327 . S
C1689 C1695 1.429 . S
C1690 C1682 1.574 . S
C1690 H1685 0.949 . S
C1690 C1696 1.368 . S
C1691 C1675 1.349 . S
C1691 H1683 0.950 . S
C1691 C1689 1.327 . S
C1692 C1680 1.349 . S
C1692 H1686 0.950 . S
C1692 C1693 1.327 . S
C1693 H1687 0.950 . S
C1693 C1692 1.327 . S
C1693 C1697 1.429 . S
C1694 C1677 1.574 . S
C1694 H1688 0.949 . S
C1694 C1698 1.368 . S
C1695 C1676 1.429 . S
C1695 C1689 1.429 . S
C1695 C1696 1.523 . S
C1696 C1677 1.368 . S
C1696 C1690 1.368 . S
C1696 C1695 1.523 . S
C1697 C1681 1.429 . S
C1697 C1693 1.429 . S
C1697 C1698 1.523 . S
C1698 C1682 1.368 . S
C1698 C1694 1.368 . S
C1698 C1697 1.523 . S
H1699 C1674 0.950 . S
H1700 C1676 0.950 . S
H1701 C1677 0.949 . S
H1702 C1679 0.950 . S
H1703 C1681 0.950 . S
C1704 C1705 1.349 . S
C1704 C1706 1.327 . S
C1704 H1729 0.950 . S
C1705 C1704 1.349 . S
C1705 C1721 1.349 . S
C1706 C1704 1.327 . S
C1706 C1725 1.429 . S
C1706 H1730 0.950 . S
C1707 C1724 1.574 . S
C1707 C1726 1.368 . S
C1707 H1731 0.949 . S
H1708 C1712 0.949 . S
C1709 C1710 1.349 . S
C1709 C1711 1.327 . S
C1709 H1732 0.950 . S
C1710 C1709 1.349 . S
C1710 C1722 1.349 . S
C1711 C1709 1.327 . S
C1711 C1727 1.429 . S
C1711 H1733 0.950 . S
C1712 H1708 0.949 . S
C1712 C1720 1.574 . S
C1712 C1728 1.368 . S
H1713 C1721 0.950 . S
H1714 C1719 0.950 . S
H1715 C1720 0.949 . S
H1716 C1722 0.950 . S
H1717 C1723 0.950 . S
H1718 C1724 0.949 . S
C1719 H1714 0.950 . S
C1719 C1721 1.327 . S
C1719 C1725 1.429 . S
C1720 C1712 1.574 . S
C1720 H1715 0.949 . S
C1720 C1726 1.368 . S
C1721 C1705 1.349 . S
C1721 H1713 0.950 . S
C1721 C1719 1.327 . S
C1722 C1710 1.349 . S
C1722 H1716 0.950 . S
C1722 C1723 1.327 . S
C1723 H1717 0.950 . S
C1723 C1722 1.327 . S
C1723 C1727 1.429 . S
C1724 C1707 1.574 . S
C1724 H1718 0.949 . S
C1724 C1728 1.368 . S
C1725 C1706 1.429 . S
C1725 C1719 1.429 . S
C1725 C1726 1.523 . S
C1726 C1707 1.368 . S
C1726 C1720 1.368 . S
C1726 C1725 1.523 . S
C1727 C1711 1.429 . S
C1727 C1723 1.429 . S
C1727 C1728 1.523 . S
C1728 C1712 1.368 . S
C1728 C1724 1.368 . S
C1728 C1727 1.523 . S
H1729 C1704 0.950 . S
H1730 C1706 0.950 . S
H1731 C1707 0.949 . S
H1732 C1709 0.950 . S
H1733 C1711 0.950 . S
C1734 C1735 1.349 . S
C1734 C1736 1.327 . S
C1734 H1759 0.950 . S
C1735 C1734 1.349 . S
C1735 C1751 1.349 . S
C1736 C1734 1.327 . S
C1736 C1755 1.429 . S
C1736 H1760 0.950 . S
C1737 C1754 1.574 . S
C1737 C1756 1.368 . S
C1737 H1761 0.949 . S
H1738 C1742 0.949 . S
C1739 C1740 1.349 . S
C1739 C1741 1.327 . S
C1739 H1762 0.950 . S
C1740 C1739 1.349 . S
C1740 C1752 1.349 . S
C1741 C1739 1.327 . S
C1741 C1757 1.429 . S
C1741 H1763 0.950 . S
C1742 H1738 0.949 . S
C1742 C1750 1.574 . S
C1742 C1758 1.368 . S
H1743 C1751 0.950 . S
H1744 C1749 0.950 . S
H1745 C1750 0.949 . S
H1746 C1752 0.950 . S
H1747 C1753 0.950 . S
H1748 C1754 0.949 . S
C1749 H1744 0.950 . S
C1749 C1751 1.327 . S
C1749 C1755 1.429 . S
C1750 C1742 1.574 . S
C1750 H1745 0.949 . S
C1750 C1756 1.368 . S
C1751 C1735 1.349 . S
C1751 H1743 0.950 . S
C1751 C1749 1.327 . S
C1752 C1740 1.349 . S
C1752 H1746 0.950 . S
C1752 C1753 1.327 . S
C1753 H1747 0.950 . S
C1753 C1752 1.327 . S
C1753 C1757 1.429 . S
C1754 C1737 1.574 . S
C1754 H1748 0.949 . S
C1754 C1758 1.368 . S
C1755 C1736 1.429 . S
C1755 C1749 1.429 . S
C1755 C1756 1.523 . S
C1756 C1737 1.368 . S
C1756 C1750 1.368 . S
C1756 C1755 1.523 . S
C1757 C1741 1.429 . S
C1757 C1753 1.429 . S
C1757 C1758 1.523 . S
C1758 C1742 1.368 . S
C1758 C1754 1.368 . S
C1758 C1757 1.523 . S
H1759 C1734 0.950 . S
H1760 C1736 0.950 . S
H1761 C1737 0.949 . S
H1762 C1739 0.950 . S
H1763 C1741 0.950 . S
C1764 C1765 1.349 . S
C1764 C1766 1.327 . S
C1764 H1789 0.950 . S
C1765 C1764 1.349 . S
C1765 C1781 1.349 . S
C1766 C1764 1.327 . S
C1766 C1785 1.429 . S
C1766 H1790 0.950 . S
C1767 C1784 1.574 . S
C1767 C1786 1.368 . S
C1767 H1791 0.949 . S
H1768 C1772 0.949 . S
C1769 C1770 1.349 . S
C1769 C1771 1.327 . S
C1769 H1792 0.950 . S
C1770 C1769 1.349 . S
C1770 C1782 1.349 . S
C1771 C1769 1.327 . S
C1771 C1787 1.429 . S
C1771 H1793 0.950 . S
C1772 H1768 0.949 . S
C1772 C1780 1.574 . S
C1772 C1788 1.368 . S
H1773 C1781 0.950 . S
H1774 C1779 0.950 . S
H1775 C1780 0.949 . S
H1776 C1782 0.950 . S
H1777 C1783 0.950 . S
H1778 C1784 0.949 . S
C1779 H1774 0.950 . S
C1779 C1781 1.327 . S
C1779 C1785 1.429 . S
C1780 C1772 1.574 . S
C1780 H1775 0.949 . S
C1780 C1786 1.368 . S
C1781 C1765 1.349 . S
C1781 H1773 0.950 . S
C1781 C1779 1.327 . S
C1782 C1770 1.349 . S
C1782 H1776 0.950 . S
C1782 C1783 1.327 . S
C1783 H1777 0.950 . S
C1783 C1782 1.327 . S
C1783 C1787 1.429 . S
C1784 C1767 1.574 . S
C1784 H1778 0.949 . S
C1784 C1788 1.368 . S
C1785 C1766 1.429 . S
C1785 C1779 1.429 . S
C1785 C1786 1.523 . S
C1786 C1767 1.368 . S
C1786 C1780 1.368 . S
C1786 C1785 1.523 . S
C1787 C1771 1.429 . S
C1787 C1783 1.429 . S
C1787 C1788 1.523 . S
C1788 C1772 1.368 . S
C1788 C1784 1.368 . S
C1788 C1787 1.523 . S
H1789 C1764 0.950 . S
H1790 C1766 0.950 . S
H1791 C1767 0.949 . S
H1792 C1769 0.950 . S
H1793 C1771 0.950 . S
C1794 C1795 1.349 . S
C1794 C1796 1.327 . S
C1794 H1819 0.950 . S
C1795 C1794 1.349 . S
C1795 C1811 1.349 . S
C1796 C1794 1.327 . S
C1796 C1815 1.429 . S
C1796 H1820 0.950 . S
C1797 C1814 1.574 . S
C1797 C1816 1.368 . S
C1797 H1821 0.949 . S
H1798 C1802 0.949 . S
C1799 C1800 1.349 . S
C1799 C1801 1.327 . S
C1799 H1822 0.950 . S
C1800 C1799 1.349 . S
C1800 C1812 1.349 . S
C1801 C1799 1.327 . S
C1801 C1817 1.429 . S
C1801 H1823 0.950 . S
C1802 H1798 0.949 . S
C1802 C1810 1.574 . S
C1802 C1818 1.368 . S
H1803 C1811 0.950 . S
H1804 C1809 0.950 . S
H1805 C1810 0.949 . S
H1806 C1812 0.950 . S
H1807 C1813 0.950 . S
H1808 C1814 0.949 . S
C1809 H1804 0.950 . S
C1809 C1811 1.327 . S
C1809 C1815 1.429 . S
C1810 C1802 1.574 . S
C1810 H1805 0.949 . S
C1810 C1816 1.368 . S
C1811 C1795 1.349 . S
C1811 H1803 0.950 . S
C1811 C1809 1.327 . S
C1812 C1800 1.349 . S
C1812 H1806 0.950 . S
C1812 C1813 1.327 . S
C1813 H1807 0.950 . S
C1813 C1812 1.327 . S
C1813 C1817 1.429 . S
C1814 C1797 1.574 . S
C1814 H1808 0.949 . S
C1814 C1818 1.368 . S
C1815 C1796 1.429 . S
C1815 C1809 1.429 . S
C1815 C1816 1.523 . S
C1816 C1797 1.368 . S
C1816 C1810 1.368 . S
C1816 C1815 1.523 . S
C1817 C1801 1.429 . S
C1817 C1813 1.429 . S
C1817 C1818 1.523 . S
C1818 C1802 1.368 . S
C1818 C1814 1.368 . S
C1818 C1817 1.523 . S
H1819 C1794 0.950 . S
H1820 C1796 0.950 . S
H1821 C1797 0.949 . S
H1822 C1799 0.950 . S
H1823 C1801 0.950 . S
C1824 C1825 1.349 . S
C1824 C1826 1.327 . S
C1824 H1849 0.950 . S
C1825 C1824 1.349 . S
C1825 C1841 1.349 . S
C1826 C1824 1.327 . S
C1826 C1845 1.429 . S
C1826 H1850 0.950 . S
C1827 C1844 1.574 . S
C1827 C1846 1.368 . S
C1827 H1851 0.949 . S
H1828 C1832 0.949 . S
C1829 C1830 1.349 . S
C1829 C1831 1.327 . S
C1829 H1852 0.950 . S
C1830 C1829 1.349 . S
C1830 C1842 1.349 . S
C1831 C1829 1.327 . S
C1831 C1847 1.429 . S
C1831 H1853 0.950 . S
C1832 H1828 0.949 . S
C1832 C1840 1.574 . S
C1832 C1848 1.368 . S
H1833 C1841 0.950 . S
H1834 C1839 0.950 . S
H1835 C1840 0.949 . S
H1836 C1842 0.950 . S
H1837 C1843 0.950 . S
H1838 C1844 0.949 . S
C1839 H1834 0.950 . S
C1839 C1841 1.327 . S
C1839 C1845 1.429 . S
C1840 C1832 1.574 . S
C1840 H1835 0.949 . S
C1840 C1846 1.368 . S
C1841 C1825 1.349 . S
C1841 H1833 0.950 . S
C1841 C1839 1.327 . S
C1842 C1830 1.349 . S
C1842 H1836 0.950 . S
C1842 C1843 1.327 . S
C1843 H1837 0.950 . S
C1843 C1842 1.327 . S
C1843 C1847 1.429 . S
C1844 C1827 1.574 . S
C1844 H1838 0.949 . S
C1844 C1848 1.368 . S
C1845 C1826 1.429 . S
C1845 C1839 1.429 . S
C1845 C1846 1.523 . S
C1846 C1827 1.368 . S
C1846 C1840 1.368 . S
C1846 C1845 1.523 . S
C1847 C1831 1.429 . S
C1847 C1843 1.429 . S
C1847 C1848 1.523 . S
C1848 C1832 1.368 . S
C1848 C1844 1.368 . S
C1848 C1847 1.523 . S
H1849 C1824 0.950 . S
H1850 C1826 0.950 . S
H1851 C1827 0.949 . S
H1852 C1829 0.950 . S
H1853 C1831 0.950 . S
C1854 C1855 1.349 . S
C1854 C1856 1.327 . S
C1854 H1879 0.950 . S
C1855 C1854 1.349 . S
C1855 C1871 1.349 . S
C1856 C1854 1.327 . S
C1856 C1875 1.429 . S
C1856 H1880 0.950 . S
C1857 C1874 1.574 . S
C1857 C1876 1.368 . S
C1857 H1881 0.949 . S
H1858 C1862 0.949 . S
C1859 C1860 1.349 . S
C1859 C1861 1.327 . S
C1859 H1882 0.950 . S
C1860 C1859 1.349 . S
C1860 C1872 1.349 . S
C1861 C1859 1.327 . S
C1861 C1877 1.429 . S
C1861 H1883 0.950 . S
C1862 H1858 0.949 . S
C1862 C1870 1.574 . S
C1862 C1878 1.368 . S
H1863 C1871 0.950 . S
H1864 C1869 0.950 . S
H1865 C1870 0.949 . S
H1866 C1872 0.950 . S
H1867 C1873 0.950 . S
H1868 C1874 0.949 . S
C1869 H1864 0.950 . S
C1869 C1871 1.327 . S
C1869 C1875 1.429 . S
C1870 C1862 1.574 . S
C1870 H1865 0.949 . S
C1870 C1876 1.368 . S
C1871 C1855 1.349 . S
C1871 H1863 0.950 . S
C1871 C1869 1.327 . S
C1872 C1860 1.349 . S
C1872 H1866 0.950 . S
C1872 C1873 1.327 . S
C1873 H1867 0.950 . S
C1873 C1872 1.327 . S
C1873 C1877 1.429 . S
C1874 C1857 1.574 . S
C1874 H1868 0.949 . S
C1874 C1878 1.368 . S
C1875 C1856 1.429 . S
C1875 C1869 1.429 . S
C1875 C1876 1.523 . S
C1876 C1857 1.368 . S
C1876 C1870 1.368 . S
C1876 C1875 1.523 . S
C1877 C1861 1.429 . S
C1877 C1873 1.429 . S
C1877 C1878 1.523 . S
C1878 C1862 1.368 . S
C1878 C1874 1.368 . S
C1878 C1877 1.523 . S
H1879 C1854 0.950 . S
H1880 C1856 0.950 . S
H1881 C1857 0.949 . S
H1882 C1859 0.950 . S
H1883 C1861 0.950 . S
C1884 C1885 1.349 . S
C1884 C1886 1.327 . S
C1884 H1909 0.950 . S
C1885 C1884 1.349 . S
C1885 C1901 1.349 . S
C1886 C1884 1.327 . S
C1886 C1905 1.429 . S
C1886 H1910 0.950 . S
C1887 C1904 1.574 . S
C1887 C1906 1.368 . S
C1887 H1911 0.949 . S
H1888 C1892 0.949 . S
C1889 C1890 1.349 . S
C1889 C1891 1.327 . S
C1889 H1912 0.950 . S
C1890 C1889 1.349 . S
C1890 C1902 1.349 . S
C1891 C1889 1.327 . S
C1891 C1907 1.429 . S
C1891 H1913 0.950 . S
C1892 H1888 0.949 . S
C1892 C1900 1.574 . S
C1892 C1908 1.368 . S
H1893 C1901 0.950 . S
H1894 C1899 0.950 . S
H1895 C1900 0.949 . S
H1896 C1902 0.950 . S
H1897 C1903 0.950 . S
H1898 C1904 0.949 . S
C1899 H1894 0.950 . S
C1899 C1901 1.327 . S
C1899 C1905 1.429 . S
C1900 C1892 1.574 . S
C1900 H1895 0.949 . S
C1900 C1906 1.368 . S
C1901 C1885 1.349 . S
C1901 H1893 0.950 . S
C1901 C1899 1.327 . S
C1902 C1890 1.349 . S
C1902 H1896 0.950 . S
C1902 C1903 1.327 . S
C1903 H1897 0.950 . S
C1903 C1902 1.327 . S
C1903 C1907 1.429 . S
C1904 C1887 1.574 . S
C1904 H1898 0.949 . S
C1904 C1908 1.368 . S
C1905 C1886 1.429 . S
C1905 C1899 1.429 . S
C1905 C1906 1.523 . S
C1906 C1887 1.368 . S
C1906 C1900 1.368 . S
C1906 C1905 1.523 . S
C1907 C1891 1.429 . S
C1907 C1903 1.429 . S
C1907 C1908 1.523 . S
C1908 C1892 1.368 . S
C1908 C1904 1.368 . S
C1908 C1907 1.523 . S
H1909 C1884 0.950 . S
H1910 C1886 0.950 . S
H1911 C1887 0.949 . S
H1912 C1889 0.950 . S
H1913 C1891 0.950 . S
C1914 C1915 1.349 . S
C1914 C1916 1.327 . S
C1914 H1939 0.950 . S
C1915 C1914 1.349 . S
C1915 C1931 1.349 . S
C1916 C1914 1.327 . S
C1916 C1935 1.429 . S
C1916 H1940 0.950 . S
C1917 C1934 1.574 . S
C1917 C1936 1.368 . S
C1917 H1941 0.949 . S
H1918 C1922 0.949 . S
C1919 C1920 1.349 . S
C1919 C1921 1.327 . S
C1919 H1942 0.950 . S
C1920 C1919 1.349 . S
C1920 C1932 1.349 . S
C1921 C1919 1.327 . S
C1921 C1937 1.429 . S
C1921 H1943 0.950 . S
C1922 H1918 0.949 . S
C1922 C1930 1.574 . S
C1922 C1938 1.368 . S
H1923 C1931 0.950 . S
H1924 C1929 0.950 . S
H1925 C1930 0.949 . S
H1926 C1932 0.950 . S
H1927 C1933 0.950 . S
H1928 C1934 0.949 . S
C1929 H1924 0.950 . S
C1929 C1931 1.327 . S
C1929 C1935 1.429 . S
C1930 C1922 1.574 . S
C1930 H1925 0.949 . S
C1930 C1936 1.368 . S
C1931 C1915 1.349 . S
C1931 H1923 0.950 . S
C1931 C1929 1.327 . S
C1932 C1920 1.349 . S
C1932 H1926 0.950 . S
C1932 C1933 1.327 . S
C1933 H1927 0.950 . S
C1933 C1932 1.327 . S
C1933 C1937 1.429 . S
C1934 C1917 1.574 . S
C1934 H1928 0.949 . S
C1934 C1938 1.368 . S
C1935 C1916 1.429 . S
C1935 C1929 1.429 . S
C1935 C1936 1.523 . S
C1936 C1917 1.368 . S
C1936 C1930 1.368 . S
C1936 C1935 1.523 . S
C1937 C1921 1.429 . S
C1937 C1933 1.429 . S
C1937 C1938 1.523 . S
C1938 C1922 1.368 . S
C1938 C1934 1.368 . S
C1938 C1937 1.523 . S
H1939 C1914 0.950 . S
H1940 C1916 0.950 . S
H1941 C1917 0.949 . S
H1942 C1919 0.950 . S
H1943 C1921 0.950 . S
C1944 C1945 1.349 . S
C1944 C1946 1.327 . S
C1944 H1969 0.950 . S
C1945 C1944 1.349 . S
C1945 C1961 1.349 . S
C1946 C1944 1.327 . S
C1946 C1965 1.429 . S
C1946 H1970 0.950 . S
C1947 C1964 1.574 . S
C1947 C1966 1.368 . S
C1947 H1971 0.949 . S
H1948 C1952 0.949 . S
C1949 C1950 1.349 . S
C1949 C1951 1.327 . S
C1949 H1972 0.950 . S
C1950 C1949 1.349 . S
C1950 C1962 1.349 . S
C1951 C1949 1.327 . S
C1951 C1967 1.429 . S
C1951 H1973 0.950 . S
C1952 H1948 0.949 . S
C1952 C1960 1.574 . S
C1952 C1968 1.368 . S
H1953 C1961 0.950 . S
H1954 C1959 0.950 . S
H1955 C1960 0.949 . S
H1956 C1962 0.950 . S
H1957 C1963 0.950 . S
H1958 C1964 0.949 . S
C1959 H1954 0.950 . S
C1959 C1961 1.327 . S
C1959 C1965 1.429 . S
C1960 C1952 1.574 . S
C1960 H1955 0.949 . S
C1960 C1966 1.368 . S
C1961 C1945 1.349 . S
C1961 H1953 0.950 . S
C1961 C1959 1.327 . S
C1962 C1950 1.349 . S
C1962 H1956 0.950 . S
C1962 C1963 1.327 . S
C1963 H1957 0.950 . S
C1963 C1962 1.327 . S
C1963 C1967 1.429 . S
C1964 C1947 1.574 . S
C1964 H1958 0.949 . S
C1964 C1968 1.368 . S
C1965 C1946 1.429 . S
C1965 C1959 1.429 . S
C1965 C1966 1.523 . S
C1966 C1947 1.368 . S
C1966 C1960 1.368 . S
C1966 C1965 1.523 . S
C1967 C1951 1.429 . S
C1967 C1963 1.429 . S
C1967 C1968 1.523 . S
C1968 C1952 1.368 . S
C1968 C1964 1.368 . S
C1968 C1967 1.523 . S
H1969 C1944 0.950 . S
H1970 C1946 0.950 . S
H1971 C1947 0.949 . S
H1972 C1949 0.950 . S
H1973 C1951 0.950 . S
C1974 C1975 1.349 . S
C1974 C1976 1.327 . S
C1974 H1999 0.950 . S
C1975 C1974 1.349 . S
C1975 C1991 1.349 . S
C1976 C1974 1.327 . S
C1976 C1995 1.429 . S
C1976 H2000 0.950 . S
C1977 C1994 1.574 . S
C1977 C1996 1.368 . S
C1977 H2001 0.949 . S
H1978 C1982 0.949 . S
C1979 C1980 1.349 . S
C1979 C1981 1.327 . S
C1979 H2002 0.950 . S
C1980 C1979 1.349 . S
C1980 C1992 1.349 . S
C1981 C1979 1.327 . S
C1981 C1997 1.429 . S
C1981 H2003 0.950 . S
C1982 H1978 0.949 . S
C1982 C1990 1.574 . S
C1982 C1998 1.368 . S
H1983 C1991 0.950 . S
H1984 C1989 0.950 . S
H1985 C1990 0.949 . S
H1986 C1992 0.950 . S
H1987 C1993 0.950 . S
H1988 C1994 0.949 . S
C1989 H1984 0.950 . S
C1989 C1991 1.327 . S
C1989 C1995 1.429 . S
C1990 C1982 1.574 . S
C1990 H1985 0.949 . S
C1990 C1996 1.368 . S
C1991 C1975 1.349 . S
C1991 H1983 0.950 . S
C1991 C1989 1.327 . S
C1992 C1980 1.349 . S
C1992 H1986 0.950 . S
C1992 C1993 1.327 . S
C1993 H1987 0.950 . S
C1993 C1992 1.327 . S
C1993 C1997 1.429 . S
C1994 C1977 1.574 . S
C1994 H1988 0.949 . S
C1994 C1998 1.368 . S
C1995 C1976 1.429 . S
C1995 C1989 1.429 . S
C1995 C1996 1.523 . S
C1996 C1977 1.368 . S
C1996 C1990 1.368 . S
C1996 C1995 1.523 . S
C1997 C1981 1.429 . S
C1997 C1993 1.429 . S
C1997 C1998 1.523 . S
C1998 C1982 1.368 . S
C1998 C1994 1.368 . S
C1998 C1997 1.523 . S
H1999 C1974 0.950 . S
H2000 C1976 0.950 . S
H2001 C1977 0.949 . S
H2002 C1979 0.950 . S
H2003 C1981 0.950 . S
C2004 C2005 1.349 . S
C2004 C2006 1.327 . S
C2004 H2029 0.950 . S
C2005 C2004 1.349 . S
C2005 C2021 1.349 . S
C2006 C2004 1.327 . S
C2006 C2025 1.429 . S
C2006 H2030 0.950 . S
C2007 C2024 1.574 . S
C2007 C2026 1.368 . S
C2007 H2031 0.949 . S
H2008 C2012 0.949 . S
C2009 C2010 1.349 . S
C2009 C2011 1.327 . S
C2009 H2032 0.950 . S
C2010 C2009 1.349 . S
C2010 C2022 1.349 . S
C2011 C2009 1.327 . S
C2011 C2027 1.429 . S
C2011 H2033 0.950 . S
C2012 H2008 0.949 . S
C2012 C2020 1.574 . S
C2012 C2028 1.368 . S
H2013 C2021 0.950 . S
H2014 C2019 0.950 . S
H2015 C2020 0.949 . S
H2016 C2022 0.950 . S
H2017 C2023 0.950 . S
H2018 C2024 0.949 . S
C2019 H2014 0.950 . S
C2019 C2021 1.327 . S
C2019 C2025 1.429 . S
C2020 C2012 1.574 . S
C2020 H2015 0.949 . S
C2020 C2026 1.368 . S
C2021 C2005 1.349 . S
C2021 H2013 0.950 . S
C2021 C2019 1.327 . S
C2022 C2010 1.349 . S
C2022 H2016 0.950 . S
C2022 C2023 1.327 . S
C2023 H2017 0.950 . S
C2023 C2022 1.327 . S
C2023 C2027 1.429 . S
C2024 C2007 1.574 . S
C2024 H2018 0.949 . S
C2024 C2028 1.368 . S
C2025 C2006 1.429 . S
C2025 C2019 1.429 . S
C2025 C2026 1.523 . S
C2026 C2007 1.368 . S
C2026 C2020 1.368 . S
C2026 C2025 1.523 . S
C2027 C2011 1.429 . S
C2027 C2023 1.429 . S
C2027 C2028 1.523 . S
C2028 C2012 1.368 . S
C2028 C2024 1.368 . S
C2028 C2027 1.523 . S
H2029 C2004 0.950 . S
H2030 C2006 0.950 . S
H2031 C2007 0.949 . S
H2032 C2009 0.950 . S
H2033 C2011 0.950 . S
C2034 C2035 1.349 . S
C2034 C2036 1.327 . S
C2034 H2059 0.950 . S
C2035 C2034 1.349 . S
C2035 C2051 1.349 . S
C2036 C2034 1.327 . S
C2036 C2055 1.429 . S
C2036 H2060 0.950 . S
C2037 C2054 1.574 . S
C2037 C2056 1.368 . S
C2037 H2061 0.949 . S
H2038 C2042 0.949 . S
C2039 C2040 1.349 . S
C2039 C2041 1.327 . S
C2039 H2062 0.950 . S
C2040 C2039 1.349 . S
C2040 C2052 1.349 . S
C2041 C2039 1.327 . S
C2041 C2057 1.429 . S
C2041 H2063 0.950 . S
C2042 H2038 0.949 . S
C2042 C2050 1.574 . S
C2042 C2058 1.368 . S
H2043 C2051 0.950 . S
H2044 C2049 0.950 . S
H2045 C2050 0.949 . S
H2046 C2052 0.950 . S
H2047 C2053 0.950 . S
H2048 C2054 0.949 . S
C2049 H2044 0.950 . S
C2049 C2051 1.327 . S
C2049 C2055 1.429 . S
C2050 C2042 1.574 . S
C2050 H2045 0.949 . S
C2050 C2056 1.368 . S
C2051 C2035 1.349 . S
C2051 H2043 0.950 . S
C2051 C2049 1.327 . S
C2052 C2040 1.349 . S
C2052 H2046 0.950 . S
C2052 C2053 1.327 . S
C2053 H2047 0.950 . S
C2053 C2052 1.327 . S
C2053 C2057 1.429 . S
C2054 C2037 1.574 . S
C2054 H2048 0.949 . S
C2054 C2058 1.368 . S
C2055 C2036 1.429 . S
C2055 C2049 1.429 . S
C2055 C2056 1.523 . S
C2056 C2037 1.368 . S
C2056 C2050 1.368 . S
C2056 C2055 1.523 . S
C2057 C2041 1.429 . S
C2057 C2053 1.429 . S
C2057 C2058 1.523 . S
C2058 C2042 1.368 . S
C2058 C2054 1.368 . S
C2058 C2057 1.523 . S
H2059 C2034 0.950 . S
H2060 C2036 0.950 . S
H2061 C2037 0.949 . S
H2062 C2039 0.950 . S
H2063 C2041 0.950 . S
C2064 C2065 1.349 . S
C2064 C2066 1.327 . S
C2064 H2089 0.950 . S
C2065 C2064 1.349 . S
C2065 C2081 1.349 . S
C2066 C2064 1.327 . S
C2066 C2085 1.429 . S
C2066 H2090 0.950 . S
C2067 C2084 1.574 . S
C2067 C2086 1.368 . S
C2067 H2091 0.949 . S
H2068 C2072 0.949 . S
C2069 C2070 1.349 . S
C2069 C2071 1.327 . S
C2069 H2092 0.950 . S
C2070 C2069 1.349 . S
C2070 C2082 1.349 . S
C2071 C2069 1.327 . S
C2071 C2087 1.429 . S
C2071 H2093 0.950 . S
C2072 H2068 0.949 . S
C2072 C2080 1.574 . S
C2072 C2088 1.368 . S
H2073 C2081 0.950 . S
H2074 C2079 0.950 . S
H2075 C2080 0.949 . S
H2076 C2082 0.950 . S
H2077 C2083 0.950 . S
H2078 C2084 0.949 . S
C2079 H2074 0.950 . S
C2079 C2081 1.327 . S
C2079 C2085 1.429 . S
C2080 C2072 1.574 . S
C2080 H2075 0.949 . S
C2080 C2086 1.368 . S
C2081 C2065 1.349 . S
C2081 H2073 0.950 . S
C2081 C2079 1.327 . S
C2082 C2070 1.349 . S
C2082 H2076 0.950 . S
C2082 C2083 1.327 . S
C2083 H2077 0.950 . S
C2083 C2082 1.327 . S
C2083 C2087 1.429 . S
C2084 C2067 1.574 . S
C2084 H2078 0.949 . S
C2084 C2088 1.368 . S
C2085 C2066 1.429 . S
C2085 C2079 1.429 . S
C2085 C2086 1.523 . S
C2086 C2067 1.368 . S
C2086 C2080 1.368 . S
C2086 C2085 1.523 . S
C2087 C2071 1.429 . S
C2087 C2083 1.429 . S
C2087 C2088 1.523 . S
C2088 C2072 1.368 . S
C2088 C2084 1.368 . S
C2088 C2087 1.523 . S
H2089 C2064 0.950 . S
H2090 C2066 0.950 . S
H2091 C2067 0.949 . S
H2092 C2069 0.950 . S
H2093 C2071 0.950 . S
C2094 C2095 1.349 . S
C2094 C2096 1.327 . S
C2094 H2119 0.950 . S
C2095 C2094 1.349 . S
C2095 C2111 1.349 . S
C2096 C2094 1.327 . S
C2096 C2115 1.429 . S
C2096 H2120 0.950 . S
C2097 C2114 1.574 . S
C2097 C2116 1.368 . S
C2097 H2121 0.949 . S
H2098 C2102 0.949 . S
C2099 C2100 1.349 . S
C2099 C2101 1.327 . S
C2099 H2122 0.950 . S
C2100 C2099 1.349 . S
C2100 C2112 1.349 . S
C2101 C2099 1.327 . S
C2101 C2117 1.429 . S
C2101 H2123 0.950 . S
C2102 H2098 0.949 . S
C2102 C2110 1.574 . S
C2102 C2118 1.368 . S
H2103 C2111 0.950 . S
H2104 C2109 0.950 . S
H2105 C2110 0.949 . S
H2106 C2112 0.950 . S
H2107 C2113 0.950 . S
H2108 C2114 0.949 . S
C2109 H2104 0.950 . S
C2109 C2111 1.327 . S
C2109 C2115 1.429 . S
C2110 C2102 1.574 . S
C2110 H2105 0.949 . S
C2110 C2116 1.368 . S
C2111 C2095 1.349 . S
C2111 H2103 0.950 . S
C2111 C2109 1.327 . S
C2112 C2100 1.349 . S
C2112 H2106 0.950 . S
C2112 C2113 1.327 . S
C2113 H2107 0.950 . S
C2113 C2112 1.327 . S
C2113 C2117 1.429 . S
C2114 C2097 1.574 . S
C2114 H2108 0.949 . S
C2114 C2118 1.368 . S
C2115 C2096 1.429 . S
C2115 C2109 1.429 . S
C2115 C2116 1.523 . S
C2116 C2097 1.368 . S
C2116 C2110 1.368 . S
C2116 C2115 1.523 . S
C2117 C2101 1.429 . S
C2117 C2113 1.429 . S
C2117 C2118 1.523 . S
C2118 C2102 1.368 . S
C2118 C2114 1.368 . S
C2118 C2117 1.523 . S
H2119 C2094 0.950 . S
H2120 C2096 0.950 . S
H2121 C2097 0.949 . S
H2122 C2099 0.950 . S
H2123 C2101 0.950 . S
C2124 C2125 1.349 . S
C2124 C2126 1.327 . S
C2124 H2149 0.950 . S
C2125 C2124 1.349 . S
C2125 C2141 1.349 . S
C2126 C2124 1.327 . S
C2126 C2145 1.429 . S
C2126 H2150 0.950 . S
C2127 C2144 1.574 . S
C2127 C2146 1.368 . S
C2127 H2151 0.949 . S
H2128 C2132 0.949 . S
C2129 C2130 1.349 . S
C2129 C2131 1.327 . S
C2129 H2152 0.950 . S
C2130 C2129 1.349 . S
C2130 C2142 1.349 . S
C2131 C2129 1.327 . S
C2131 C2147 1.429 . S
C2131 H2153 0.950 . S
C2132 H2128 0.949 . S
C2132 C2140 1.574 . S
C2132 C2148 1.368 . S
H2133 C2141 0.950 . S
H2134 C2139 0.950 . S
H2135 C2140 0.949 . S
H2136 C2142 0.950 . S
H2137 C2143 0.950 . S
H2138 C2144 0.949 . S
C2139 H2134 0.950 . S
C2139 C2141 1.327 . S
C2139 C2145 1.429 . S
C2140 C2132 1.574 . S
C2140 H2135 0.949 . S
C2140 C2146 1.368 . S
C2141 C2125 1.349 . S
C2141 H2133 0.950 . S
C2141 C2139 1.327 . S
C2142 C2130 1.349 . S
C2142 H2136 0.950 . S
C2142 C2143 1.327 . S
C2143 H2137 0.950 . S
C2143 C2142 1.327 . S
C2143 C2147 1.429 . S
C2144 C2127 1.574 . S
C2144 H2138 0.949 . S
C2144 C2148 1.368 . S
C2145 C2126 1.429 . S
C2145 C2139 1.429 . S
C2145 C2146 1.523 . S
C2146 C2127 1.368 . S
C2146 C2140 1.368 . S
C2146 C2145 1.523 . S
C2147 C2131 1.429 . S
C2147 C2143 1.429 . S
C2147 C2148 1.523 . S
C2148 C2132 1.368 . S
C2148 C2144 1.368 . S
C2148 C2147 1.523 . S
H2149 C2124 0.950 . S
H2150 C2126 0.950 . S
H2151 C2127 0.949 . S
H2152 C2129 0.950 . S
H2153 C2131 0.950 . S
C2154 C2155 1.349 . S
C2154 C2156 1.327 . S
C2154 H2179 0.950 . S
C2155 C2154 1.349 . S
C2155 C2171 1.349 1_545 S
C2156 C2154 1.327 . S
C2156 C2175 1.429 . S
C2156 H2180 0.950 . S
C2157 C2174 1.574 . S
C2157 C2176 1.368 1_565 S
C2157 H2181 0.949 . S
H2158 C2162 0.949 . S
C2159 C2160 1.349 . S
C2159 C2161 1.327 . S
C2159 H2182 0.950 . S
C2160 C2159 1.349 . S
C2160 C2172 1.349 1_565 S
C2161 C2159 1.327 . S
C2161 C2177 1.429 . S
C2161 H2183 0.950 . S
C2162 H2158 0.949 . S
C2162 C2170 1.574 . S
C2162 C2178 1.368 1_545 S
H2163 C2171 0.950 . S
H2164 C2169 0.950 . S
H2165 C2170 0.949 . S
H2166 C2172 0.950 . S
H2167 C2173 0.950 . S
H2168 C2174 0.949 . S
C2169 H2164 0.950 . S
C2169 C2171 1.327 . S
C2169 C2175 1.429 1_565 S
C2170 C2162 1.574 . S
C2170 H2165 0.949 . S
C2170 C2176 1.368 . S
C2171 C2155 1.349 1_565 S
C2171 H2163 0.950 . S
C2171 C2169 1.327 . S
C2172 C2160 1.349 1_545 S
C2172 H2166 0.950 . S
C2172 C2173 1.327 . S
C2173 H2167 0.950 . S
C2173 C2172 1.327 . S
C2173 C2177 1.429 1_545 S
C2174 C2157 1.574 . S
C2174 H2168 0.949 . S
C2174 C2178 1.368 . S
C2175 C2156 1.429 . S
C2175 C2169 1.429 1_545 S
C2175 C2176 1.523 . S
C2176 C2157 1.368 1_545 S
C2176 C2170 1.368 . S
C2176 C2175 1.523 . S
C2177 C2161 1.429 . S
C2177 C2173 1.429 1_565 S
C2177 C2178 1.523 . S
C2178 C2162 1.368 1_565 S
C2178 C2174 1.368 . S
C2178 C2177 1.523 . S
H2179 C2154 0.950 . S
H2180 C2156 0.950 . S
H2181 C2157 0.949 . S
H2182 C2159 0.950 . S
H2183 C2161 0.950 . S
C2184 C2185 1.349 . S
C2184 C2186 1.327 . S
C2184 H2209 0.950 . S
C2185 C2184 1.349 . S
C2185 C2201 1.349 1_455 S
C2186 C2184 1.327 . S
C2186 C2205 1.429 . S
C2186 H2210 0.950 . S
C2187 C2204 1.574 . S
C2187 C2206 1.368 1_655 S
C2187 H2211 0.949 . S
H2188 C2192 0.949 . S
C2189 C2190 1.349 . S
C2189 C2191 1.327 . S
C2189 H2212 0.950 . S
C2190 C2189 1.349 . S
C2190 C2202 1.349 1_655 S
C2191 C2189 1.327 . S
C2191 C2207 1.429 . S
C2191 H2213 0.950 . S
C2192 H2188 0.949 . S
C2192 C2200 1.574 . S
C2192 C2208 1.368 1_455 S
H2193 C2201 0.950 . S
H2194 C2199 0.950 . S
H2195 C2200 0.949 . S
H2196 C2202 0.950 . S
H2197 C2203 0.950 . S
H2198 C2204 0.949 . S
C2199 H2194 0.950 . S
C2199 C2201 1.327 . S
C2199 C2205 1.429 1_655 S
C2200 C2192 1.574 . S
C2200 H2195 0.949 . S
C2200 C2206 1.368 . S
C2201 C2185 1.349 1_655 S
C2201 H2193 0.950 . S
C2201 C2199 1.327 . S
C2202 C2190 1.349 1_455 S
C2202 H2196 0.950 . S
C2202 C2203 1.327 . S
C2203 H2197 0.950 . S
C2203 C2202 1.327 . S
C2203 C2207 1.429 1_455 S
C2204 C2187 1.574 . S
C2204 H2198 0.949 . S
C2204 C2208 1.368 . S
C2205 C2186 1.429 . S
C2205 C2199 1.429 1_455 S
C2205 C2206 1.523 . S
C2206 C2187 1.368 1_455 S
C2206 C2200 1.368 . S
C2206 C2205 1.523 . S
C2207 C2191 1.429 . S
C2207 C2203 1.429 1_655 S
C2207 C2208 1.523 . S
C2208 C2192 1.368 1_655 S
C2208 C2204 1.368 . S
C2208 C2207 1.523 . S
H2209 C2184 0.950 . S
H2210 C2186 0.950 . S
H2211 C2187 0.949 . S
H2212 C2189 0.950 . S
H2213 C2191 0.950 . S
C2214 C2215 1.349 . S
C2214 C2216 1.327 . S
C2214 H2239 0.950 . S
C2215 C2214 1.349 . S
C2215 C2231 1.349 . S
C2216 C2214 1.327 . S
C2216 C2235 1.429 . S
C2216 H2240 0.950 . S
C2217 C2234 1.574 . S
C2217 C2236 1.368 . S
C2217 H2241 0.949 . S
H2218 C2222 0.949 . S
C2219 C2220 1.349 . S
C2219 C2221 1.327 . S
C2219 H2242 0.950 . S
C2220 C2219 1.349 . S
C2220 C2232 1.349 . S
C2221 C2219 1.327 . S
C2221 C2237 1.429 . S
C2221 H2243 0.950 . S
C2222 H2218 0.949 . S
C2222 C2230 1.574 . S
C2222 C2238 1.368 . S
H2223 C2231 0.950 . S
H2224 C2229 0.950 . S
H2225 C2230 0.949 . S
H2226 C2232 0.950 . S
H2227 C2233 0.950 . S
H2228 C2234 0.949 . S
C2229 H2224 0.950 . S
C2229 C2231 1.327 . S
C2229 C2235 1.429 . S
C2230 C2222 1.574 . S
C2230 H2225 0.949 . S
C2230 C2236 1.368 . S
C2231 C2215 1.349 . S
C2231 H2223 0.950 . S
C2231 C2229 1.327 . S
C2232 C2220 1.349 . S
C2232 H2226 0.950 . S
C2232 C2233 1.327 . S
C2233 H2227 0.950 . S
C2233 C2232 1.327 . S
C2233 C2237 1.429 . S
C2234 C2217 1.574 . S
C2234 H2228 0.949 . S
C2234 C2238 1.368 . S
C2235 C2216 1.429 . S
C2235 C2229 1.429 . S
C2235 C2236 1.523 . S
C2236 C2217 1.368 . S
C2236 C2230 1.368 . S
C2236 C2235 1.523 . S
C2237 C2221 1.429 . S
C2237 C2233 1.429 . S
C2237 C2238 1.523 . S
C2238 C2222 1.368 . S
C2238 C2234 1.368 . S
C2238 C2237 1.523 . S
H2239 C2214 0.950 . S
H2240 C2216 0.950 . S
H2241 C2217 0.949 . S
H2242 C2219 0.950 . S
H2243 C2221 0.950 . S
C2244 C2245 1.349 . S
C2244 C2246 1.327 . S
C2244 H2269 0.950 . S
C2245 C2244 1.349 . S
C2245 C2261 1.349 1_545 S
C2246 C2244 1.327 . S
C2246 C2265 1.429 . S
C2246 H2270 0.950 . S
C2247 C2264 1.574 . S
C2247 C2266 1.368 1_565 S
C2247 H2271 0.949 . S
H2248 C2252 0.949 . S
C2249 C2250 1.349 . S
C2249 C2251 1.327 . S
C2249 H2272 0.950 . S
C2250 C2249 1.349 . S
C2250 C2262 1.349 1_565 S
C2251 C2249 1.327 . S
C2251 C2267 1.429 . S
C2251 H2273 0.950 . S
C2252 H2248 0.949 . S
C2252 C2260 1.574 . S
C2252 C2268 1.368 1_545 S
H2253 C2261 0.950 . S
H2254 C2259 0.950 . S
H2255 C2260 0.949 . S
H2256 C2262 0.950 . S
H2257 C2263 0.950 . S
H2258 C2264 0.949 . S
C2259 H2254 0.950 . S
C2259 C2261 1.327 . S
C2259 C2265 1.429 1_565 S
C2260 C2252 1.574 . S
C2260 H2255 0.949 . S
C2260 C2266 1.368 . S
C2261 C2245 1.349 1_565 S
C2261 H2253 0.950 . S
C2261 C2259 1.327 . S
C2262 C2250 1.349 1_545 S
C2262 H2256 0.950 . S
C2262 C2263 1.327 . S
C2263 H2257 0.950 . S
C2263 C2262 1.327 . S
C2263 C2267 1.429 1_545 S
C2264 C2247 1.574 . S
C2264 H2258 0.949 . S
C2264 C2268 1.368 . S
C2265 C2246 1.429 . S
C2265 C2259 1.429 1_545 S
C2265 C2266 1.523 . S
C2266 C2247 1.368 1_545 S
C2266 C2260 1.368 . S
C2266 C2265 1.523 . S
C2267 C2251 1.429 . S
C2267 C2263 1.429 1_565 S
C2267 C2268 1.523 . S
C2268 C2252 1.368 1_565 S
C2268 C2264 1.368 . S
C2268 C2267 1.523 . S
H2269 C2244 0.950 . S
H2270 C2246 0.950 . S
H2271 C2247 0.949 . S
H2272 C2249 0.950 . S
H2273 C2251 0.950 . S
C2274 C2275 1.349 . S
C2274 C2276 1.327 . S
C2274 H2299 0.950 . S
C2275 C2274 1.349 . S
C2275 C2291 1.349 . S
C2276 C2274 1.327 . S
C2276 C2295 1.429 . S
C2276 H2300 0.950 . S
C2277 C2294 1.579 . S
C2277 C2296 1.345 1_455 S
C2277 H2301 0.939 . S
H2278 C2282 0.939 . S
C2279 C2280 1.349 . S
C2279 C2281 1.327 . S
C2279 H2302 0.950 . S
C2280 C2279 1.349 . S
C2280 C2292 1.349 . S
C2281 C2279 1.327 . S
C2281 C2297 1.429 . S
C2281 H2303 0.950 . S
C2282 H2278 0.939 . S
C2282 C2290 1.579 . S
C2282 C2298 1.346 1_655 S
H2283 C2291 0.950 . S
H2284 C2289 0.950 . S
H2285 C2290 0.949 . S
H2286 C2292 0.950 . S
H2287 C2293 0.950 . S
H2288 C2294 0.949 . S
C2289 H2284 0.950 . S
C2289 C2291 1.327 . S
C2289 C2295 1.429 . S
C2290 C2282 1.579 . S
C2290 H2285 0.949 . S
C2290 C2296 1.368 . S
C2291 C2275 1.349 . S
C2291 H2283 0.950 . S
C2291 C2289 1.327 . S
C2292 C2280 1.349 . S
C2292 H2286 0.950 . S
C2292 C2293 1.327 . S
C2293 H2287 0.950 . S
C2293 C2292 1.327 . S
C2293 C2297 1.429 . S
C2294 C2277 1.579 . S
C2294 H2288 0.949 . S
C2294 C2298 1.368 . S
C2295 C2276 1.429 . S
C2295 C2289 1.429 . S
C2295 C2296 1.523 . S
C2296 C2277 1.345 1_655 S
C2296 C2290 1.368 . S
C2296 C2295 1.523 . S
C2297 C2281 1.429 . S
C2297 C2293 1.429 . S
C2297 C2298 1.523 . S
C2298 C2282 1.346 1_455 S
C2298 C2294 1.368 . S
C2298 C2297 1.523 . S
H2299 C2274 0.950 . S
H2300 C2276 0.950 . S
H2301 C2277 0.939 . S
H2302 C2279 0.950 . S
H2303 C2281 0.950 . S
C2304 C2305 1.349 . S
C2304 C2306 1.327 . S
C2304 H2329 0.950 . S
C2305 C2304 1.349 . S
C2305 C2321 1.349 . S
C2306 C2304 1.327 . S
C2306 C2325 1.429 . S
C2306 H2330 0.950 . S
C2307 C2324 1.574 . S
C2307 C2326 1.368 . S
C2307 H2331 0.949 . S
H2308 C2312 0.949 . S
C2309 C2310 1.349 . S
C2309 C2311 1.327 . S
C2309 H2332 0.950 . S
C2310 C2309 1.349 . S
C2310 C2322 1.349 . S
C2311 C2309 1.327 . S
C2311 C2327 1.429 . S
C2311 H2333 0.950 . S
C2312 H2308 0.949 . S
C2312 C2320 1.574 . S
C2312 C2328 1.368 . S
H2313 C2321 0.950 . S
H2314 C2319 0.950 . S
H2315 C2320 0.949 . S
H2316 C2322 0.950 . S
H2317 C2323 0.950 . S
H2318 C2324 0.949 . S
C2319 H2314 0.950 . S
C2319 C2321 1.327 . S
C2319 C2325 1.429 . S
C2320 C2312 1.574 . S
C2320 H2315 0.949 . S
C2320 C2326 1.368 . S
C2321 C2305 1.349 . S
C2321 H2313 0.950 . S
C2321 C2319 1.327 . S
C2322 C2310 1.349 . S
C2322 H2316 0.950 . S
C2322 C2323 1.327 . S
C2323 H2317 0.950 . S
C2323 C2322 1.327 . S
C2323 C2327 1.429 . S
C2324 C2307 1.574 . S
C2324 H2318 0.949 . S
C2324 C2328 1.368 . S
C2325 C2306 1.429 . S
C2325 C2319 1.429 . S
C2325 C2326 1.523 . S
C2326 C2307 1.368 . S
C2326 C2320 1.368 . S
C2326 C2325 1.523 . S
C2327 C2311 1.429 . S
C2327 C2323 1.429 . S
C2327 C2328 1.523 . S
C2328 C2312 1.368 . S
C2328 C2324 1.368 . S
C2328 C2327 1.523 . S
H2329 C2304 0.950 . S
H2330 C2306 0.950 . S
H2331 C2307 0.949 . S
H2332 C2309 0.950 . S
H2333 C2311 0.950 . S
C2334 C2335 1.349 . S
C2334 C2336 1.327 . S
C2334 H2359 0.950 . S
C2335 C2334 1.349 . S
C2335 C2351 1.349 . S
C2336 C2334 1.327 . S
C2336 C2355 1.429 . S
C2336 H2360 0.950 . S
C2337 C2354 1.574 . S
C2337 C2356 1.368 . S
C2337 H2361 0.949 . S
H2338 C2342 0.949 . S
C2339 C2340 1.349 . S
C2339 C2341 1.327 . S
C2339 H2362 0.950 . S
C2340 C2339 1.349 . S
C2340 C2352 1.349 . S
C2341 C2339 1.327 . S
C2341 C2357 1.429 . S
C2341 H2363 0.950 . S
C2342 H2338 0.949 . S
C2342 C2350 1.574 . S
C2342 C2358 1.368 . S
H2343 C2351 0.950 . S
H2344 C2349 0.950 . S
H2345 C2350 0.949 . S
H2346 C2352 0.950 . S
H2347 C2353 0.950 . S
H2348 C2354 0.949 . S
C2349 H2344 0.950 . S
C2349 C2351 1.327 . S
C2349 C2355 1.429 . S
C2350 C2342 1.574 . S
C2350 H2345 0.949 . S
C2350 C2356 1.368 . S
C2351 C2335 1.349 . S
C2351 H2343 0.950 . S
C2351 C2349 1.327 . S
C2352 C2340 1.349 . S
C2352 H2346 0.950 . S
C2352 C2353 1.327 . S
C2353 H2347 0.950 . S
C2353 C2352 1.327 . S
C2353 C2357 1.429 . S
C2354 C2337 1.574 . S
C2354 H2348 0.949 . S
C2354 C2358 1.368 . S
C2355 C2336 1.429 . S
C2355 C2349 1.429 . S
C2355 C2356 1.523 . S
C2356 C2337 1.368 . S
C2356 C2350 1.368 . S
C2356 C2355 1.523 . S
C2357 C2341 1.429 . S
C2357 C2353 1.429 . S
C2357 C2358 1.523 . S
C2358 C2342 1.368 . S
C2358 C2354 1.368 . S
C2358 C2357 1.523 . S
H2359 C2334 0.950 . S
H2360 C2336 0.950 . S
H2361 C2337 0.949 . S
H2362 C2339 0.950 . S
H2363 C2341 0.950 . S
C2364 C2365 1.349 . S
C2364 C2366 1.327 . S
C2364 H2389 0.950 . S
C2365 C2364 1.349 . S
C2365 C2381 1.349 . S
C2366 C2364 1.327 . S
C2366 C2385 1.429 . S
C2366 H2390 0.950 . S
C2367 C2384 1.574 . S
C2367 C2386 1.368 . S
C2367 H2391 0.949 . S
H2368 C2372 0.949 . S
C2369 C2370 1.349 . S
C2369 C2371 1.327 . S
C2369 H2392 0.950 . S
C2370 C2369 1.349 . S
C2370 C2382 1.349 . S
C2371 C2369 1.327 . S
C2371 C2387 1.429 . S
C2371 H2393 0.950 . S
C2372 H2368 0.949 . S
C2372 C2380 1.574 . S
C2372 C2388 1.368 . S
H2373 C2381 0.950 . S
H2374 C2379 0.950 . S
H2375 C2380 0.949 . S
H2376 C2382 0.950 . S
H2377 C2383 0.950 . S
H2378 C2384 0.949 . S
C2379 H2374 0.950 . S
C2379 C2381 1.327 . S
C2379 C2385 1.429 . S
C2380 C2372 1.574 . S
C2380 H2375 0.949 . S
C2380 C2386 1.368 . S
C2381 C2365 1.349 . S
C2381 H2373 0.950 . S
C2381 C2379 1.327 . S
C2382 C2370 1.349 . S
C2382 H2376 0.950 . S
C2382 C2383 1.327 . S
C2383 H2377 0.950 . S
C2383 C2382 1.327 . S
C2383 C2387 1.429 . S
C2384 C2367 1.574 . S
C2384 H2378 0.949 . S
C2384 C2388 1.368 . S
C2385 C2366 1.429 . S
C2385 C2379 1.429 . S
C2385 C2386 1.523 . S
C2386 C2367 1.368 . S
C2386 C2380 1.368 . S
C2386 C2385 1.523 . S
C2387 C2371 1.429 . S
C2387 C2383 1.429 . S
C2387 C2388 1.523 . S
C2388 C2372 1.368 . S
C2388 C2384 1.368 . S
C2388 C2387 1.523 . S
H2389 C2364 0.950 . S
H2390 C2366 0.950 . S
H2391 C2367 0.949 . S
H2392 C2369 0.950 . S
H2393 C2371 0.950 . S
C2394 C2395 1.349 . S
C2394 C2396 1.327 . S
C2394 H2419 0.950 . S
C2395 C2394 1.349 . S
C2395 C2411 1.349 . S
C2396 C2394 1.327 . S
C2396 C2415 1.429 . S
C2396 H2420 0.950 . S
C2397 C2414 1.574 . S
C2397 C2416 1.368 . S
C2397 H2421 0.949 . S
H2398 C2402 0.949 . S
C2399 C2400 1.349 . S
C2399 C2401 1.327 1_556 S
C2399 H2422 0.950 . S
C2400 C2399 1.349 . S
C2400 C2412 1.349 . S
C2401 C2399 1.327 1_554 S
C2401 C2417 1.429 . S
C2401 H2423 0.950 . S
C2402 H2398 0.949 . S
C2402 C2410 1.574 . S
C2402 C2418 1.368 . S
H2403 C2411 0.950 . S
H2404 C2409 0.950 . S
H2405 C2410 0.949 . S
H2406 C2412 0.950 . S
H2407 C2413 0.950 . S
H2408 C2414 0.949 . S
C2409 H2404 0.950 . S
C2409 C2411 1.327 . S
C2409 C2415 1.429 . S
C2410 C2402 1.574 . S
C2410 H2405 0.949 . S
C2410 C2416 1.368 . S
C2411 C2395 1.349 . S
C2411 H2403 0.950 . S
C2411 C2409 1.327 . S
C2412 C2400 1.349 . S
C2412 H2406 0.950 . S
C2412 C2413 1.327 1_556 S
C2413 H2407 0.950 . S
C2413 C2412 1.327 1_554 S
C2413 C2417 1.429 . S
C2414 C2397 1.574 . S
C2414 H2408 0.949 . S
C2414 C2418 1.368 . S
C2415 C2396 1.429 . S
C2415 C2409 1.429 . S
C2415 C2416 1.523 . S
C2416 C2397 1.368 . S
C2416 C2410 1.368 . S
C2416 C2415 1.523 . S
C2417 C2401 1.429 . S
C2417 C2413 1.429 . S
C2417 C2418 1.523 . S
C2418 C2402 1.368 . S
C2418 C2414 1.368 . S
C2418 C2417 1.523 . S
H2419 C2394 0.950 . S
H2420 C2396 0.950 . S
H2421 C2397 0.949 . S
H2422 C2399 0.950 . S
H2423 C2401 0.950 . S
C2424 C2425 1.349 . S
C2424 C2426 1.327 . S
C2424 H2449 0.950 . S
C2425 C2424 1.349 . S
C2425 C2441 1.349 . S
C2426 C2424 1.327 . S
C2426 C2445 1.429 . S
C2426 H2450 0.950 . S
C2427 C2444 1.574 . S
C2427 C2446 1.368 . S
C2427 H2451 0.949 . S
H2428 C2432 0.949 . S
C2429 C2430 1.349 . S
C2429 C2431 1.327 1_556 S
C2429 H2452 0.950 . S
C2430 C2429 1.349 . S
C2430 C2442 1.349 . S
C2431 C2429 1.327 1_554 S
C2431 C2447 1.429 . S
C2431 H2453 0.950 . S
C2432 H2428 0.949 . S
C2432 C2440 1.574 . S
C2432 C2448 1.368 . S
H2433 C2441 0.950 . S
H2434 C2439 0.950 . S
H2435 C2440 0.949 . S
H2436 C2442 0.950 . S
H2437 C2443 0.950 . S
H2438 C2444 0.949 . S
C2439 H2434 0.950 . S
C2439 C2441 1.327 . S
C2439 C2445 1.429 . S
C2440 C2432 1.574 . S
C2440 H2435 0.949 . S
C2440 C2446 1.368 . S
C2441 C2425 1.349 . S
C2441 H2433 0.950 . S
C2441 C2439 1.327 . S
C2442 C2430 1.349 . S
C2442 H2436 0.950 . S
C2442 C2443 1.327 1_556 S
C2443 H2437 0.950 . S
C2443 C2442 1.327 1_554 S
C2443 C2447 1.429 . S
C2444 C2427 1.574 . S
C2444 H2438 0.949 . S
C2444 C2448 1.368 . S
C2445 C2426 1.429 . S
C2445 C2439 1.429 . S
C2445 C2446 1.523 . S
C2446 C2427 1.368 . S
C2446 C2440 1.368 . S
C2446 C2445 1.523 . S
C2447 C2431 1.429 . S
C2447 C2443 1.429 . S
C2447 C2448 1.523 . S
C2448 C2432 1.368 . S
C2448 C2444 1.368 . S
C2448 C2447 1.523 . S
H2449 C2424 0.950 . S
H2450 C2426 0.950 . S
H2451 C2427 0.949 . S
H2452 C2429 0.950 . S
H2453 C2431 0.950 . S
C2454 C2455 1.349 . S
C2454 C2456 1.327 . S
C2454 H2479 0.950 . S
C2455 C2454 1.349 . S
C2455 C2471 1.349 . S
C2456 C2454 1.327 . S
C2456 C2475 1.429 . S
C2456 H2480 0.950 . S
C2457 C2474 1.574 . S
C2457 C2476 1.368 . S
C2457 H2481 0.949 . S
H2458 C2462 0.949 . S
C2459 C2460 1.349 . S
C2459 C2461 1.327 1_556 S
C2459 H2482 0.950 . S
C2460 C2459 1.349 . S
C2460 C2472 1.349 . S
C2461 C2459 1.327 1_554 S
C2461 C2477 1.429 . S
C2461 H2483 0.950 . S
C2462 H2458 0.949 . S
C2462 C2470 1.574 . S
C2462 C2478 1.368 . S
H2463 C2471 0.950 . S
H2464 C2469 0.950 . S
H2465 C2470 0.949 . S
H2466 C2472 0.950 . S
H2467 C2473 0.950 . S
H2468 C2474 0.949 . S
C2469 H2464 0.950 . S
C2469 C2471 1.327 . S
C2469 C2475 1.429 . S
C2470 C2462 1.574 . S
C2470 H2465 0.949 . S
C2470 C2476 1.368 . S
C2471 C2455 1.349 . S
C2471 H2463 0.950 . S
C2471 C2469 1.327 . S
C2472 C2460 1.349 . S
C2472 H2466 0.950 . S
C2472 C2473 1.327 1_556 S
C2473 H2467 0.950 . S
C2473 C2472 1.327 1_554 S
C2473 C2477 1.429 . S
C2474 C2457 1.574 . S
C2474 H2468 0.949 . S
C2474 C2478 1.368 . S
C2475 C2456 1.429 . S
C2475 C2469 1.429 . S
C2475 C2476 1.523 . S
C2476 C2457 1.368 . S
C2476 C2470 1.368 . S
C2476 C2475 1.523 . S
C2477 C2461 1.429 . S
C2477 C2473 1.429 . S
C2477 C2478 1.523 . S
C2478 C2462 1.368 . S
C2478 C2474 1.368 . S
C2478 C2477 1.523 . S
H2479 C2454 0.950 . S
H2480 C2456 0.950 . S
H2481 C2457 0.949 . S
H2482 C2459 0.950 . S
H2483 C2461 0.950 . S
C2484 C2485 1.349 . S
C2484 C2486 1.327 1_554 S
C2484 H2509 0.950 . S
C2485 C2484 1.349 . S
C2485 C2501 1.349 . S
C2486 C2484 1.327 1_556 S
C2486 C2505 1.429 . S
C2486 H2510 0.950 . S
C2487 C2504 1.574 . S
C2487 C2506 1.368 . S
C2487 H2511 0.949 . S
H2488 C2492 0.949 . S
C2489 C2490 1.349 . S
C2489 C2491 1.327 . S
C2489 H2512 0.950 . S
C2490 C2489 1.349 . S
C2490 C2502 1.349 . S
C2491 C2489 1.327 . S
C2491 C2507 1.429 . S
C2491 H2513 0.950 . S
C2492 H2488 0.949 . S
C2492 C2500 1.574 . S
C2492 C2508 1.368 . S
H2493 C2501 0.950 . S
H2494 C2499 0.950 . S
H2495 C2500 0.949 . S
H2496 C2502 0.950 . S
H2497 C2503 0.950 . S
H2498 C2504 0.949 . S
C2499 H2494 0.950 . S
C2499 C2501 1.327 1_556 S
C2499 C2505 1.429 . S
C2500 C2492 1.574 . S
C2500 H2495 0.949 . S
C2500 C2506 1.368 . S
C2501 C2485 1.349 . S
C2501 H2493 0.950 . S
C2501 C2499 1.327 1_554 S
C2502 C2490 1.349 . S
C2502 H2496 0.950 . S
C2502 C2503 1.327 . S
C2503 H2497 0.950 . S
C2503 C2502 1.327 . S
C2503 C2507 1.429 . S
C2504 C2487 1.574 . S
C2504 H2498 0.949 . S
C2504 C2508 1.368 . S
C2505 C2486 1.429 . S
C2505 C2499 1.429 . S
C2505 C2506 1.523 . S
C2506 C2487 1.368 . S
C2506 C2500 1.368 . S
C2506 C2505 1.523 . S
C2507 C2491 1.429 . S
C2507 C2503 1.429 . S
C2507 C2508 1.523 . S
C2508 C2492 1.368 . S
C2508 C2504 1.368 . S
C2508 C2507 1.523 . S
H2509 C2484 0.950 . S
H2510 C2486 0.950 . S
H2511 C2487 0.949 . S
H2512 C2489 0.950 . S
H2513 C2491 0.950 . S
C2514 C2515 1.349 . S
C2514 C2516 1.327 1_554 S
C2514 H2539 0.950 . S
C2515 C2514 1.349 . S
C2515 C2531 1.349 . S
C2516 C2514 1.327 1_556 S
C2516 C2535 1.429 . S
C2516 H2540 0.950 . S
C2517 C2534 1.574 . S
C2517 C2536 1.368 . S
C2517 H2541 0.949 . S
H2518 C2522 0.949 . S
C2519 C2520 1.349 . S
C2519 C2521 1.327 . S
C2519 H2542 0.950 . S
C2520 C2519 1.349 . S
C2520 C2532 1.349 . S
C2521 C2519 1.327 . S
C2521 C2537 1.429 . S
C2521 H2543 0.950 . S
C2522 H2518 0.949 . S
C2522 C2530 1.574 . S
C2522 C2538 1.368 . S
H2523 C2531 0.950 . S
H2524 C2529 0.950 . S
H2525 C2530 0.949 . S
H2526 C2532 0.950 . S
H2527 C2533 0.950 . S
H2528 C2534 0.949 . S
C2529 H2524 0.950 . S
C2529 C2531 1.327 1_556 S
C2529 C2535 1.429 . S
C2530 C2522 1.574 . S
C2530 H2525 0.949 . S
C2530 C2536 1.368 . S
C2531 C2515 1.349 . S
C2531 H2523 0.950 . S
C2531 C2529 1.327 1_554 S
C2532 C2520 1.349 . S
C2532 H2526 0.950 . S
C2532 C2533 1.327 . S
C2533 H2527 0.950 . S
C2533 C2532 1.327 . S
C2533 C2537 1.429 . S
C2534 C2517 1.574 . S
C2534 H2528 0.949 . S
C2534 C2538 1.368 . S
C2535 C2516 1.429 . S
C2535 C2529 1.429 . S
C2535 C2536 1.523 . S
C2536 C2517 1.368 . S
C2536 C2530 1.368 . S
C2536 C2535 1.523 . S
C2537 C2521 1.429 . S
C2537 C2533 1.429 . S
C2537 C2538 1.523 . S
C2538 C2522 1.368 . S
C2538 C2534 1.368 . S
C2538 C2537 1.523 . S
H2539 C2514 0.950 . S
H2540 C2516 0.950 . S
H2541 C2517 0.949 . S
H2542 C2519 0.950 . S
H2543 C2521 0.950 . S
C2544 C2545 1.349 . S
C2544 C2546 1.327 1_554 S
C2544 H2569 0.950 . S
C2545 C2544 1.349 . S
C2545 C2561 1.349 . S
C2546 C2544 1.327 1_556 S
C2546 C2565 1.429 . S
C2546 H2570 0.950 . S
C2547 C2564 1.574 . S
C2547 C2566 1.368 . S
C2547 H2571 0.949 . S
H2548 C2552 0.949 . S
C2549 C2550 1.349 . S
C2549 C2551 1.327 . S
C2549 H2572 0.950 . S
C2550 C2549 1.349 . S
C2550 C2562 1.349 . S
C2551 C2549 1.327 . S
C2551 C2567 1.429 . S
C2551 H2573 0.950 . S
C2552 H2548 0.949 . S
C2552 C2560 1.574 . S
C2552 C2568 1.368 . S
H2553 C2561 0.950 . S
H2554 C2559 0.950 . S
H2555 C2560 0.949 . S
H2556 C2562 0.950 . S
H2557 C2563 0.950 . S
H2558 C2564 0.949 . S
C2559 H2554 0.950 . S
C2559 C2561 1.327 1_556 S
C2559 C2565 1.429 . S
C2560 C2552 1.574 . S
C2560 H2555 0.949 . S
C2560 C2566 1.368 . S
C2561 C2545 1.349 . S
C2561 H2553 0.950 . S
C2561 C2559 1.327 1_554 S
C2562 C2550 1.349 . S
C2562 H2556 0.950 . S
C2562 C2563 1.327 . S
C2563 H2557 0.950 . S
C2563 C2562 1.327 . S
C2563 C2567 1.429 . S
C2564 C2547 1.574 . S
C2564 H2558 0.949 . S
C2564 C2568 1.368 . S
C2565 C2546 1.429 . S
C2565 C2559 1.429 . S
C2565 C2566 1.523 . S
C2566 C2547 1.368 . S
C2566 C2560 1.368 . S
C2566 C2565 1.523 . S
C2567 C2551 1.429 . S
C2567 C2563 1.429 . S
C2567 C2568 1.523 . S
C2568 C2552 1.368 . S
C2568 C2564 1.368 . S
C2568 C2567 1.523 . S
H2569 C2544 0.950 . S
H2570 C2546 0.950 . S
H2571 C2547 0.949 . S
H2572 C2549 0.950 . S
H2573 C2551 0.950 . S
C2574 C2575 1.349 . S
C2574 C2576 1.327 . S
C2574 H2599 0.950 . S
C2575 C2574 1.349 . S
C2575 C2591 1.349 . S
C2576 C2574 1.327 . S
C2576 C2595 1.429 . S
C2576 H2600 0.950 . S
C2577 C2594 1.574 . S
C2577 C2596 1.368 . S
C2577 H2601 0.949 . S
H2578 C2582 0.949 . S
C2579 C2580 1.349 . S
C2579 C2581 1.327 . S
C2579 H2602 0.950 . S
C2580 C2579 1.349 . S
C2580 C2592 1.349 . S
C2581 C2579 1.327 . S
C2581 C2597 1.429 . S
C2581 H2603 0.950 . S
C2582 H2578 0.949 . S
C2582 C2590 1.574 . S
C2582 C2598 1.368 . S
H2583 C2591 0.950 . S
H2584 C2589 0.950 . S
H2585 C2590 0.949 . S
H2586 C2592 0.950 . S
H2587 C2593 0.950 . S
H2588 C2594 0.949 . S
C2589 H2584 0.950 . S
C2589 C2591 1.327 . S
C2589 C2595 1.429 . S
C2590 C2582 1.574 . S
C2590 H2585 0.949 . S
C2590 C2596 1.368 . S
C2591 C2575 1.349 . S
C2591 H2583 0.950 . S
C2591 C2589 1.327 . S
C2592 C2580 1.349 . S
C2592 H2586 0.950 . S
C2592 C2593 1.327 . S
C2593 H2587 0.950 . S
C2593 C2592 1.327 . S
C2593 C2597 1.429 . S
C2594 C2577 1.574 . S
C2594 H2588 0.949 . S
C2594 C2598 1.368 . S
C2595 C2576 1.429 . S
C2595 C2589 1.429 . S
C2595 C2596 1.523 . S
C2596 C2577 1.368 . S
C2596 C2590 1.368 . S
C2596 C2595 1.523 . S
C2597 C2581 1.429 . S
C2597 C2593 1.429 . S
C2597 C2598 1.523 . S
C2598 C2582 1.368 . S
C2598 C2594 1.368 . S
C2598 C2597 1.523 . S
H2599 C2574 0.950 . S
H2600 C2576 0.950 . S
H2601 C2577 0.949 . S
H2602 C2579 0.950 . S
H2603 C2581 0.950 . S
C2604 C2605 1.349 . S
C2604 C2606 1.327 . S
C2604 H2629 0.950 . S
C2605 C2604 1.349 . S
C2605 C2621 1.349 . S
C2606 C2604 1.327 . S
C2606 C2625 1.429 . S
C2606 H2630 0.950 . S
C2607 C2624 1.574 . S
C2607 C2626 1.368 . S
C2607 H2631 0.949 . S
H2608 C2612 0.949 . S
C2609 C2610 1.349 . S
C2609 C2611 1.327 . S
C2609 H2632 0.950 . S
C2610 C2609 1.349 . S
C2610 C2622 1.349 . S
C2611 C2609 1.327 . S
C2611 C2627 1.429 . S
C2611 H2633 0.950 . S
C2612 H2608 0.949 . S
C2612 C2620 1.574 . S
C2612 C2628 1.368 . S
H2613 C2621 0.950 . S
H2614 C2619 0.950 . S
H2615 C2620 0.949 . S
H2616 C2622 0.950 . S
H2617 C2623 0.950 . S
H2618 C2624 0.949 . S
C2619 H2614 0.950 . S
C2619 C2621 1.327 . S
C2619 C2625 1.429 . S
C2620 C2612 1.574 . S
C2620 H2615 0.949 . S
C2620 C2626 1.368 . S
C2621 C2605 1.349 . S
C2621 H2613 0.950 . S
C2621 C2619 1.327 . S
C2622 C2610 1.349 . S
C2622 H2616 0.950 . S
C2622 C2623 1.327 . S
C2623 H2617 0.950 . S
C2623 C2622 1.327 . S
C2623 C2627 1.429 . S
C2624 C2607 1.574 . S
C2624 H2618 0.949 . S
C2624 C2628 1.368 . S
C2625 C2606 1.429 . S
C2625 C2619 1.429 . S
C2625 C2626 1.523 . S
C2626 C2607 1.368 . S
C2626 C2620 1.368 . S
C2626 C2625 1.523 . S
C2627 C2611 1.429 . S
C2627 C2623 1.429 . S
C2627 C2628 1.523 . S
C2628 C2612 1.368 . S
C2628 C2624 1.368 . S
C2628 C2627 1.523 . S
H2629 C2604 0.950 . S
H2630 C2606 0.950 . S
H2631 C2607 0.949 . S
H2632 C2609 0.950 . S
H2633 C2611 0.950 . S
C2634 C2635 1.349 . S
C2634 C2636 1.327 . S
C2634 H2659 0.950 . S
C2635 C2634 1.349 . S
C2635 C2651 1.349 . S
C2636 C2634 1.327 . S
C2636 C2655 1.429 . S
C2636 H2660 0.950 . S
C2637 C2654 1.574 . S
C2637 C2656 1.368 . S
C2637 H2661 0.949 . S
H2638 C2642 0.949 . S
C2639 C2640 1.349 . S
C2639 C2641 1.327 . S
C2639 H2662 0.950 . S
C2640 C2639 1.349 . S
C2640 C2652 1.349 . S
C2641 C2639 1.327 . S
C2641 C2657 1.429 . S
C2641 H2663 0.950 . S
C2642 H2638 0.949 . S
C2642 C2650 1.574 . S
C2642 C2658 1.368 . S
H2643 C2651 0.950 . S
H2644 C2649 0.950 . S
H2645 C2650 0.949 . S
H2646 C2652 0.950 . S
H2647 C2653 0.950 . S
H2648 C2654 0.949 . S
C2649 H2644 0.950 . S
C2649 C2651 1.327 . S
C2649 C2655 1.429 . S
C2650 C2642 1.574 . S
C2650 H2645 0.949 . S
C2650 C2656 1.368 . S
C2651 C2635 1.349 . S
C2651 H2643 0.950 . S
C2651 C2649 1.327 . S
C2652 C2640 1.349 . S
C2652 H2646 0.950 . S
C2652 C2653 1.327 . S
C2653 H2647 0.950 . S
C2653 C2652 1.327 . S
C2653 C2657 1.429 . S
C2654 C2637 1.574 . S
C2654 H2648 0.949 . S
C2654 C2658 1.368 . S
C2655 C2636 1.429 . S
C2655 C2649 1.429 . S
C2655 C2656 1.523 . S
C2656 C2637 1.368 . S
C2656 C2650 1.368 . S
C2656 C2655 1.523 . S
C2657 C2641 1.429 . S
C2657 C2653 1.429 . S
C2657 C2658 1.523 . S
C2658 C2642 1.368 . S
C2658 C2654 1.368 . S
C2658 C2657 1.523 . S
H2659 C2634 0.950 . S
H2660 C2636 0.950 . S
H2661 C2637 0.949 . S
H2662 C2639 0.950 . S
H2663 C2641 0.950 . S
C505 C235 0.996 . S
C510 C11 0.996 1_556 S
C535 C249 0.996 . S
C540 C25 0.996 1_556 S
C565 C39 0.996 1_556 S
C570 C221 0.996 . S
C595 C375 0.996 . S
C600 C53 0.996 . S
C625 C347 0.996 . S
C630 C67 0.996 . S
C655 C81 0.996 . S
C660 C361 0.996 . S
C685 C487 0.996 . S
C690 C95 0.996 1_554 S
C715 C501 0.996 . S
C720 C109 0.996 1_554 S
C745 C473 0.996 . S
C750 C123 0.996 1_554 S
C775 C291 0.996 . S
C780 C137 0.996 . S
C805 C151 0.996 . S
C810 C263 0.996 . S
C835 C277 0.996 . S
C840 C165 0.996 . S
C865 C403 0.996 . S
C870 C179 0.996 . S
C895 C193 0.996 . S
C900 C417 0.996 . S
C925 C389 0.996 . S
C930 C207 0.996 . S
C955 C459 0.996 . S
C960 C305 0.996 . S
C985 C431 0.996 . S
C990 C319 0.996 . S
C1015 C333 0.996 . S
C1020 C445 0.996 . S
C1045 C98 1.525 . S
C1050 C9 1.538 . S
C1075 C112 1.525 . S
C1080 C23 1.538 . S
C1105 C84 1.525 . S
C1110 C37 1.538 . S
C1135 C51 1.538 . S
C1140 C154 1.525 . S
C1165 C126 1.525 . S
C1170 C65 1.538 . S
C1195 C79 1.538 . S
C1200 C140 1.525 . S
C1225 C14 1.525 . S
C1230 C93 1.538 . S
C1255 C107 1.538 . S
C1260 C28 1.525 . S
C1285 C0 1.525 . S
C1290 C121 1.538 . S
C1315 C70 1.525 . S
C1320 C135 1.538 . S
C1345 C42 1.525 . S
C1350 C149 1.538 . S
C1375 C163 1.538 . S
C1380 C56 1.525 . S
C1405 C177 1.538 . S
C1410 C266 1.525 . S
C1435 C280 1.525 . S
C1440 C191 1.538 . S
C1465 C252 1.525 . S
C1470 C205 1.538 . S
C1495 C219 1.538 . S
C1500 C322 1.525 . S
C1525 C294 1.525 . S
C1530 C233 1.538 . S
C1555 C247 1.538 . S
C1560 C308 1.525 . S
C1585 C261 1.538 . S
C1590 C182 1.525 . S
C1615 C275 1.538 . S
C1620 C196 1.525 . S
C1645 C168 1.525 . S
C1650 C289 1.538 . S
C1675 C238 1.525 . S
C1680 C303 1.538 . S
C1705 C210 1.525 . S
C1710 C317 1.538 . S
C1735 C331 1.538 . S
C1740 C224 1.525 . S
C1765 C434 1.525 . S
C1770 C345 1.538 . S
C1795 C359 1.538 . S
C1800 C448 1.525 . S
C1825 C373 1.538 . S
C1830 C420 1.525 . S
C1855 C490 1.525 . S
C1860 C387 1.538 . S
C1885 C401 1.538 . S
C1890 C462 1.525 . S
C1915 C476 1.525 . S
C1920 C415 1.538 . S
C1945 C350 1.525 . S
C1950 C429 1.538 . S
C1975 C364 1.525 . S
C1980 C443 1.538 . S
C2005 C457 1.538 . S
C2010 C336 1.525 . S
C2035 C471 1.538 . S
C2040 C406 1.525 . S
C2065 C378 1.525 . S
C2070 C485 1.538 . S
C2095 C392 1.525 . S
C2100 C499 1.538 . S
C2125 C5 1.609 . S
C2130 C47 1.609 . S
C2155 C19 1.608 . S
C2160 C61 1.608 . S
C2185 C75 1.608 . S
C2190 C33 1.608 . S
C2215 C89 1.609 . S
C2220 C131 1.609 . S
C2245 C145 1.608 . S
C2250 C103 1.608 . S
C2275 C159 1.608 . S
C2280 C117 1.608 . S
C2305 C173 1.608 . S
C2310 C215 1.608 . S
C2335 C187 1.608 . S
C2340 C229 1.608 . S
C2365 C243 1.608 . S
C2370 C201 1.608 . S
C2395 C257 1.608 . S
C2400 C299 1.608 . S
C2425 C271 1.608 . S
C2430 C313 1.608 . S
C2455 C285 1.608 . S
C2460 C327 1.608 . S
C2485 C383 1.608 . S
C2490 C341 1.608 . S
C2515 C397 1.608 . S
C2520 C355 1.608 . S
C2545 C411 1.608 . S
C2550 C369 1.608 . S
C2575 C425 1.608 . S
C2580 C467 1.608 . S
C2605 C481 1.608 . S
C2610 C439 1.608 . S
C2635 C495 1.608 . S
C2640 C453 1.608 . S
