# Generated by pormake.
# Topology why, (6)-cn, num edge types: 1
# Building blocks:
#     Node 0, Type 0, BuildingBlock: CUKXOW_clean_sbu_0, # of connection points: 6
#     Node 1, Type 0, BuildingBlock: CUKXOW_clean_sbu_0, # of connection points: 6
#     Node 2, Type 0, BuildingBlock: CUKXOW_clean_sbu_0, # of connection points: 6
#     Node 3, Type 0, BuildingBlock: CUKXOW_clean_sbu_0, # of connection points: 6
#     Node 4, Type 0, BuildingBlock: CUKXOW_clean_sbu_0, # of connection points: 6
#     Node 5, Type 0, BuildingBlock: CUKXOW_clean_sbu_0, # of connection points: 6
#     Node 6, Type 0, BuildingBlock: CUKXOW_clean_sbu_0, # of connection points: 6
#     Node 7, Type 0, BuildingBlock: CUKXOW_clean_sbu_0, # of connection points: 6
#     Node 8, Type 0, BuildingBlock: CUKXOW_clean_sbu_0, # of connection points: 6
#     Node 9, Type 0, BuildingBlock: CUKXOW_clean_sbu_0, # of connection points: 6
#     Node 10, Type 0, BuildingBlock: CUKXOW_clean_sbu_0, # of connection points: 6
#     Node 11, Type 0, BuildingBlock: CUKXOW_clean_sbu_0, # of connection points: 6
#     Node 12, Type 0, BuildingBlock: CUKXOW_clean_sbu_0, # of connection points: 6
#     Node 13, Type 0, BuildingBlock: CUKXOW_clean_sbu_0, # of connection points: 6
#     Node 14, Type 0, BuildingBlock: CUKXOW_clean_sbu_0, # of connection points: 6
#     Node 15, Type 0, BuildingBlock: CUKXOW_clean_sbu_0, # of connection points: 6
#     Edge 16, Type (0, 0), BuildingBlock: XUDNAN_clean_linker_2, # of connection points: 2
#     Edge 17, Type (0, 0), BuildingBlock: XUDNAN_clean_linker_2, # of connection points: 2
#     Edge 18, Type (0, 0), BuildingBlock: XUDNAN_clean_linker_2, # of connection points: 2
#     Edge 19, Type (0, 0), BuildingBlock: XUDNAN_clean_linker_2, # of connection points: 2
#     Edge 20, Type (0, 0), BuildingBlock: XUDNAN_clean_linker_2, # of connection points: 2
#     Edge 21, Type (0, 0), BuildingBlock: XUDNAN_clean_linker_2, # of connection points: 2
#     Edge 22, Type (0, 0), BuildingBlock: XUDNAN_clean_linker_2, # of connection points: 2
#     Edge 23, Type (0, 0), BuildingBlock: XUDNAN_clean_linker_2, # of connection points: 2
#     Edge 24, Type (0, 0), BuildingBlock: XUDNAN_clean_linker_2, # of connection points: 2
#     Edge 25, Type (0, 0), BuildingBlock: XUDNAN_clean_linker_2, # of connection points: 2
#     Edge 26, Type (0, 0), BuildingBlock: XUDNAN_clean_linker_2, # of connection points: 2
#     Edge 27, Type (0, 0), BuildingBlock: XUDNAN_clean_linker_2, # of connection points: 2
#     Edge 28, Type (0, 0), BuildingBlock: XUDNAN_clean_linker_2, # of connection points: 2
#     Edge 29, Type (0, 0), BuildingBlock: XUDNAN_clean_linker_2, # of connection points: 2
#     Edge 30, Type (0, 0), BuildingBlock: XUDNAN_clean_linker_2, # of connection points: 2
#     Edge 31, Type (0, 0), BuildingBlock: XUDNAN_clean_linker_2, # of connection points: 2
#     Edge 32, Type (0, 0), BuildingBlock: XUDNAN_clean_linker_2, # of connection points: 2
#     Edge 33, Type (0, 0), BuildingBlock: XUDNAN_clean_linker_2, # of connection points: 2
#     Edge 34, Type (0, 0), BuildingBlock: XUDNAN_clean_linker_2, # of connection points: 2
#     Edge 35, Type (0, 0), BuildingBlock: XUDNAN_clean_linker_2, # of connection points: 2
#     Edge 36, Type (0, 0), BuildingBlock: XUDNAN_clean_linker_2, # of connection points: 2
#     Edge 37, Type (0, 0), BuildingBlock: XUDNAN_clean_linker_2, # of connection points: 2
#     Edge 38, Type (0, 0), BuildingBlock: XUDNAN_clean_linker_2, # of connection points: 2
#     Edge 39, Type (0, 0), BuildingBlock: XUDNAN_clean_linker_2, # of connection points: 2
#     Edge 40, Type (0, 0), BuildingBlock: XUDNAN_clean_linker_2, # of connection points: 2
#     Edge 41, Type (0, 0), BuildingBlock: XUDNAN_clean_linker_2, # of connection points: 2
#     Edge 42, Type (0, 0), BuildingBlock: XUDNAN_clean_linker_2, # of connection points: 2
#     Edge 43, Type (0, 0), BuildingBlock: XUDNAN_clean_linker_2, # of connection points: 2
#     Edge 44, Type (0, 0), BuildingBlock: XUDNAN_clean_linker_2, # of connection points: 2
#     Edge 45, Type (0, 0), BuildingBlock: XUDNAN_clean_linker_2, # of connection points: 2
#     Edge 46, Type (0, 0), BuildingBlock: XUDNAN_clean_linker_2, # of connection points: 2
#     Edge 47, Type (0, 0), BuildingBlock: XUDNAN_clean_linker_2, # of connection points: 2
#     Edge 48, Type (0, 0), BuildingBlock: XUDNAN_clean_linker_2, # of connection points: 2
#     Edge 49, Type (0, 0), BuildingBlock: XUDNAN_clean_linker_2, # of connection points: 2
#     Edge 50, Type (0, 0), BuildingBlock: XUDNAN_clean_linker_2, # of connection points: 2
#     Edge 51, Type (0, 0), BuildingBlock: XUDNAN_clean_linker_2, # of connection points: 2
#     Edge 52, Type (0, 0), BuildingBlock: XUDNAN_clean_linker_2, # of connection points: 2
#     Edge 53, Type (0, 0), BuildingBlock: XUDNAN_clean_linker_2, # of connection points: 2
#     Edge 54, Type (0, 0), BuildingBlock: XUDNAN_clean_linker_2, # of connection points: 2
#     Edge 55, Type (0, 0), BuildingBlock: XUDNAN_clean_linker_2, # of connection points: 2
#     Edge 56, Type (0, 0), BuildingBlock: XUDNAN_clean_linker_2, # of connection points: 2
#     Edge 57, Type (0, 0), BuildingBlock: XUDNAN_clean_linker_2, # of connection points: 2
#     Edge 58, Type (0, 0), BuildingBlock: XUDNAN_clean_linker_2, # of connection points: 2
#     Edge 59, Type (0, 0), BuildingBlock: XUDNAN_clean_linker_2, # of connection points: 2
#     Edge 60, Type (0, 0), BuildingBlock: XUDNAN_clean_linker_2, # of connection points: 2
#     Edge 61, Type (0, 0), BuildingBlock: XUDNAN_clean_linker_2, # of connection points: 2
#     Edge 62, Type (0, 0), BuildingBlock: XUDNAN_clean_linker_2, # of connection points: 2
#     Edge 63, Type (0, 0), BuildingBlock: XUDNAN_clean_linker_2, # of connection points: 2
# Relax obj value: 0.206
# Max RMSD: 0.190
# Mean RMSD: 0.190
data_MOF--net-why--node1-CUKXOW_clean_sbu_0--edge1-XUDNAN_clean_linker_2
_symmetry_space_group_name_H-M    P1
_symmetry_Int_Tables_number       1
_symmetry_cell_setting            triclinic
loop_
_symmetry_equiv_pos_as_xyz
'x, y, z'
_cell_length_a     50.927764
_cell_length_b     50.75422
_cell_length_c     24.647813
_cell_angle_alpha  89.911079
_cell_angle_beta   90.013566
_cell_angle_gamma 89.8651
loop_
_atom_site_label
_atom_site_type_symbol
_atom_site_fract_x
_atom_site_fract_y
_atom_site_fract_z
_atom_type_partial_charge
Tb0 Tb 0.37126 0.20947 0.09063 0.0
C1 C 0.3493 0.15316 0.11418 0.0
Tb2 Tb 0.32473 0.19446 0.02899 0.0
O3 O 0.35704 0.23402 0.15494 0.0
O4 O 0.32965 0.21788 0.101 0.0
O5 O 0.36848 0.17003 0.12328 0.0
C6 C 0.27722 0.17573 1.00248 0.0
O7 O 0.32994 0.15867 0.07961 0.0
C8 C 0.37006 0.18185 0.9823 0.0
C9 C 0.35136 0.24768 0.99951 0.0
O10 O 0.28619 0.17877 0.05114 0.0
O11 O 0.29465 0.18421 0.96839 0.0
O12 O 0.34913 0.18836 0.95546 0.0
O13 O 0.36389 0.18079 0.03145 0.0
O14 O 0.32817 0.23581 1.00268 0.0
O15 O 0.37193 0.23864 0.02609 0.0
C16 C 0.42087 0.21704 0.11454 0.0
O17 O 0.41048 0.22045 0.06705 0.0
O18 O 0.40335 0.20914 0.14899 0.0
C19 C 0.33237 0.23181 0.14389 0.0
Tb20 Tb 0.56085 0.62516 0.35736 0.0
C21 C 0.61597 0.59973 0.37744 0.0
Tb22 Tb 0.57454 0.57792 0.28861 0.0
O23 O 0.54064 0.6079 0.42555 0.0
O24 O 0.55447 0.58334 0.36454 0.0
O25 O 0.59905 0.61802 0.39314 0.0
C26 C 0.5883 0.529 0.25839 0.0
O27 O 0.61031 0.58207 0.33902 0.0
C28 C 0.58638 0.62402 0.24447 0.0
C29 C 0.52495 0.61082 0.25585 0.0
O30 O 0.59758 0.55064 0.23819 0.0
O31 O 0.57086 0.53492 0.29482 0.0
O32 O 0.58011 0.60329 0.21625 0.0
O33 O 0.58728 0.61723 0.29364 0.0
O34 O 0.5353 0.5867 0.2551 0.0
O35 O 0.53419 0.62947 0.28817 0.0
C36 C 0.5576 0.6747 0.39064 0.0
O37 O 0.53792 0.65876 0.38548 0.0
O38 O 0.57894 0.66276 0.37634 0.0
C39 C 0.5426 0.58358 0.41032 0.0
Tb40 Tb 0.1406 0.80894 0.60976 0.0
C41 C 0.16214 0.86696 0.60624 0.0
Tb42 Tb 0.18769 0.82168 0.53012 0.0
O43 O 0.16283 0.79005 0.67548 0.0
O44 O 0.18192 0.80396 0.60791 0.0
O45 O 0.14601 0.84995 0.62948 0.0
C46 C 0.23767 0.83455 0.51084 0.0
O47 O 0.17977 0.86032 0.56847 0.0
C48 C 0.14204 0.83723 0.48906 0.0
C49 C 0.15394 0.77044 0.51102 0.0
O50 O 0.2264 0.8338 0.558 0.0
O51 O 0.22098 0.82685 0.47405 0.0
O52 O 0.16434 0.83951 0.46338 0.0
O53 O 0.14718 0.82627 0.53387 0.0
O54 O 0.1776 0.78138 0.50359 0.0
O55 O 0.13601 0.7802 0.54482 0.0
C56 C 0.09355 0.80384 0.65295 0.0
O57 O 0.10895 0.78444 0.63998 0.0
O58 O 0.10444 0.82615 0.64077 0.0
C59 C 0.18565 0.79208 0.6527 0.0
Tb60 Tb 0.95932 0.38973 0.82973 0.0
C61 C 0.90528 0.41158 0.8665 0.0
Tb62 Tb 0.94074 0.44139 0.78271 0.0
O63 O 0.98403 0.40317 0.89663 0.0
O64 O 0.96506 0.43053 0.84915 0.0
O65 O 0.91883 0.39011 0.85533 0.0
C66 C 0.93069 0.4918 0.75803 0.0
O67 O 0.91292 0.43527 0.8499 0.0
C68 C 0.91611 0.39964 0.74403 0.0
C69 C 0.99158 0.41284 0.73224 0.0
O70 O 0.92902 0.47213 0.72464 0.0
O71 O 0.93895 0.48315 0.8046 0.0
O72 O 0.90548 0.42277 0.749 0.0
O73 O 0.94004 0.4013 0.75694 0.0
O74 O 0.97758 0.43518 0.73554 0.0
O75 O 0.98685 0.39229 0.76366 0.0
C76 C 0.96832 0.33942 0.85058 0.0
O77 O 0.97879 0.35276 0.8114 0.0
O78 O 0.95249 0.35432 0.87801 0.0
C79 C 0.97996 0.42811 0.89014 0.0
Tb80 Tb 0.685 0.82848 1.00209 0.0
C81 C 0.65763 0.77497 0.03541 0.0
Tb82 Tb 0.63962 0.80561 0.92663 0.0
O83 O 0.65884 0.84537 0.06526 0.0
O84 O 0.64411 0.82702 0.99828 0.0
O85 O 0.67898 0.79 0.04152 0.0
C86 C 0.59707 0.78295 0.88795 0.0
O87 O 0.63944 0.77954 0.9977 0.0
C88 C 0.68647 0.79607 0.88277 0.0
C89 C 0.65654 0.86435 0.9115 0.0
O90 O 0.61768 0.77075 0.90576 0.0
O91 O 0.59999 0.80836 0.89273 0.0
O92 O 0.66419 0.79009 0.86102 0.0
O93 O 0.68131 0.80778 0.92698 0.0
O94 O 0.63761 0.84681 0.90315 0.0
O95 O 0.67823 0.85908 0.94016 0.0
C96 C 0.72974 0.8497 0.03917 0.0
O97 O 0.7065 0.85996 0.04192 0.0
O98 O 0.72807 0.82678 0.01542 0.0
C99 C 0.63726 0.83941 0.04011 0.0
Tb100 Tb 0.44476 0.43919 0.75285 0.0
C101 C 0.49834 0.41092 0.77901 0.0
Tb102 Tb 0.46004 0.39064 0.68688 0.0
O103 O 0.44201 0.41659 0.82675 0.0
O104 O 0.4332 0.39836 0.7532 0.0
O105 O 0.48589 0.43413 0.7783 0.0
C106 C 0.46832 0.3427 0.64822 0.0
O107 O 0.49021 0.39057 0.74971 0.0
C108 C 0.47919 0.43435 0.63987 0.0
C109 C 0.40208 0.41204 0.67441 0.0
O110 O 0.46779 0.3487 0.69941 0.0
O111 O 0.46424 0.36352 0.61909 0.0
O112 O 0.48228 0.41081 0.62085 0.0
O113 O 0.46624 0.43143 0.68297 0.0
O114 O 0.41939 0.39372 0.6605 0.0
O115 O 0.40775 0.43129 0.70922 0.0
C116 C 0.42863 0.48843 0.77419 0.0
O117 O 0.43576 0.47957 0.72713 0.0
O118 O 0.4313 0.46974 0.80974 0.0
C119 C 0.43545 0.3944 0.80414 0.0
Tb120 Tb 0.82761 0.19332 0.49923 0.0
C121 C 0.85463 0.24824 0.52741 0.0
Tb122 Tb 0.87569 0.2132 0.42958 0.0
O123 O 0.8525 0.16568 0.5467 0.0
O124 O 0.86845 0.19731 0.50723 0.0
O125 O 0.8328 0.23368 0.53081 0.0
C126 C 0.92361 0.22765 0.40014 0.0
O127 O 0.87418 0.24271 0.49358 0.0
C128 C 0.83052 0.22794 0.3837 0.0
C129 C 0.85635 0.15451 0.41772 0.0
O130 O 0.91116 0.23574 0.44268 0.0
O131 O 0.90918 0.21099 0.37359 0.0
O132 O 0.85358 0.23338 0.36449 0.0
O133 O 0.83425 0.21491 0.42676 0.0
O134 O 0.87631 0.17112 0.41287 0.0
O135 O 0.83403 0.16062 0.44294 0.0
C136 C 0.78063 0.18063 0.54008 0.0
O137 O 0.78632 0.18141 0.48862 0.0
O138 O 0.80101 0.18807 0.56774 0.0
C139 C 0.87447 0.17647 0.53177 0.0
Tb140 Tb 0.07691 0.58096 0.24346 0.0
C141 C 0.01954 0.59774 0.28904 0.0
Tb142 Tb 0.04473 0.61924 0.18292 0.0
O143 O 0.10515 0.61088 0.26747 0.0
O144 O 0.06591 0.62081 0.2583 0.0
O145 O 0.04143 0.58354 0.29689 0.0
C146 C 0.02321 0.66378 0.15019 0.0
O147 O 0.01596 0.612 0.24493 0.0
C148 C 0.03631 0.57353 0.13478 0.0
C149 C 0.10433 0.61387 0.15219 0.0
O150 O 0.01938 0.65277 0.19688 0.0
O151 O 0.03928 0.6498 0.12142 0.0
O152 O 0.0252 0.59552 0.12152 0.0
O153 O 0.05116 0.57768 0.1755 0.0
O154 O 0.08343 0.6292 0.15423 0.0
O155 O 0.10493 0.59089 0.17819 0.0
C156 C 0.09791 0.53768 0.28881 0.0
O157 O 0.08715 0.53875 0.24112 0.0
O158 O 0.09631 0.56072 0.31098 0.0
C159 C 0.08847 0.63026 0.26889 0.0
Tb160 Tb 0.87604 0.71669 0.6021 0.0
C161 C 0.85844 0.65955 0.63182 0.0
Tb162 Tb 0.8288 0.69299 0.53896 0.0
O163 O 0.85625 0.73798 0.66541 0.0
O164 O 0.8335 0.71866 0.6083 0.0
O165 O 0.87664 0.67798 0.63717 0.0
C166 C 0.78213 0.67679 0.5008 0.0
O167 O 0.83752 0.66169 0.59919 0.0
C168 C 0.87439 0.67562 0.49865 0.0
C169 C 0.85627 0.74465 0.49639 0.0
O170 O 0.78848 0.67798 0.55192 0.0
O171 O 0.80161 0.68558 0.47231 0.0
O172 O 0.85155 0.6689 0.48018 0.0
O173 O 0.86986 0.69138 0.53687 0.0
O174 O 0.83344 0.73194 0.49982 0.0
O175 O 0.87673 0.73796 0.52623 0.0
C176 C 0.92003 0.73994 0.63065 0.0
O177 O 0.9003 0.75129 0.60729 0.0
O178 O 0.91559 0.71482 0.63674 0.0
C179 C 0.83252 0.734 0.64941 0.0
Tb180 Tb 0.06311 0.12541 0.85124 0.0
C181 C 0.11741 0.09828 0.86342 0.0
Tb182 Tb 0.0759 0.08013 0.77507 0.0
O183 O 0.04603 0.10352 0.91994 0.0
O184 O 0.05827 0.08398 0.85162 0.0
O185 O 0.10359 0.11981 0.87234 0.0
C186 C 0.08409 0.03488 0.72141 0.0
O187 O 0.10899 0.07845 0.83277 0.0
C188 C 0.09951 0.12518 0.75012 0.0
C189 C 0.0247 0.11514 0.75215 0.0
O190 O 0.07917 0.03686 0.77299 0.0
O191 O 0.08302 0.05822 0.70004 0.0
O192 O 0.10935 0.10177 0.74419 0.0
O193 O 0.07638 0.12229 0.76854 0.0
O194 O 0.03734 0.09271 0.74029 0.0
O195 O 0.03196 0.13043 0.79288 0.0
C196 C 0.05521 0.1722 0.89539 0.0
O197 O 0.03953 0.15228 0.8992 0.0
O198 O 0.0754 0.16595 0.86591 0.0
C199 C 0.04752 0.0806 0.89737 0.0
Tb200 Tb 0.64185 0.30501 0.09527 0.0
C201 C 0.6599 0.36232 0.12477 0.0
Tb202 Tb 0.69229 0.32778 0.03935 0.0
O203 O 0.65988 0.28204 0.15968 0.0
O204 O 0.68356 0.30256 0.10653 0.0
O205 O 0.64053 0.3451 0.1231 0.0
C206 C 0.7417 0.34276 0.01991 0.0
O207 O 0.68271 0.35892 0.09906 0.0
C208 C 0.64872 0.34658 0.99397 0.0
C209 C 0.66574 0.27317 0.99788 0.0
O210 O 0.72932 0.34541 0.06558 0.0
O211 O 0.72656 0.33069 0.98558 0.0
O212 O 0.67218 0.35412 0.98034 0.0
O213 O 0.65186 0.32982 0.03098 0.0
O214 O 0.6866 0.28939 0.9961 0.0
O215 O 0.64614 0.2761 0.03248 0.0
C216 C 0.59297 0.29466 0.1199 0.0
O217 O 0.60286 0.29323 0.07147 0.0
O218 O 0.61057 0.30191 0.15473 0.0
C219 C 0.68398 0.28833 0.14915 0.0
Tb220 Tb 0.45735 0.89259 0.35162 0.0
C221 C 0.40173 0.91239 0.38276 0.0
Tb222 Tb 0.43495 0.93768 0.28394 0.0
O223 O 0.47987 0.91392 0.41312 0.0
O224 O 0.4598 0.93431 0.35287 0.0
O225 O 0.41883 0.89284 0.38765 0.0
C226 C 0.41143 0.98147 0.24759 0.0
O227 O 0.40509 0.93267 0.34882 0.0
C228 C 0.42695 0.88993 0.2452 0.0
C229 C 0.48922 0.91327 0.24781 0.0
O230 O 0.40176 0.95793 0.24653 0.0
O231 O 0.43476 0.98057 0.26915 0.0
O232 O 0.43017 0.91067 0.21501 0.0
O233 O 0.42684 0.89719 0.29405 0.0
O234 O 0.47286 0.93357 0.24145 0.0
O235 O 0.48621 0.89578 0.28705 0.0
C236 C 0.47397 0.84357 0.35872 0.0
O237 O 0.46804 0.85808 0.40064 0.0
O238 O 0.46978 0.85651 0.31433 0.0
C239 C 0.4742 0.93725 0.39462 0.0
Tb240 Tb 0.18899 0.32882 0.50115 0.0
C241 C 0.15963 0.2744 0.52397 0.0
Tb242 Tb 0.14371 0.31224 0.42664 0.0
O243 O 0.16599 0.36162 0.53199 0.0
O244 O 0.14708 0.32708 0.50747 0.0
O245 O 0.18041 0.28942 0.53514 0.0
C246 C 0.09705 0.30278 0.38433 0.0
O247 O 0.14244 0.28022 0.48535 0.0
C248 C 0.18894 0.29922 0.37975 0.0
C249 C 0.16833 0.36835 0.41089 0.0
O250 O 0.11739 0.28765 0.37962 0.0
O251 O 0.10272 0.32319 0.41373 0.0
O252 O 0.16605 0.29591 0.3581 0.0
O253 O 0.18524 0.31022 0.42522 0.0
O254 O 0.1479 0.35291 0.40182 0.0
O255 O 0.18848 0.36127 0.4422 0.0
C256 C 0.23388 0.33873 0.55349 0.0
O257 O 0.23194 0.33339 0.50206 0.0
O258 O 0.21075 0.3374 0.57534 0.0
C259 C 0.14346 0.35053 0.52376 0.0
Tb260 Tb 0.9414 0.93893 0.24478 0.0
C261 C 0.99444 0.91172 0.27729 0.0
Tb262 Tb 0.9584 0.89482 0.17825 0.0
O263 O 0.93812 0.91198 0.31482 0.0
O264 O 0.9292 0.8993 0.23744 0.0
O265 O 0.9803 0.93365 0.28183 0.0
C266 C 0.9671 0.84558 0.15049 0.0
O267 O 0.98841 0.8934 0.24141 0.0
C268 C 0.97835 0.93548 0.12764 0.0
C269 C 0.90219 0.91691 0.15434 0.0
O270 O 0.96988 0.8551 0.19889 0.0
O271 O 0.95935 0.86378 0.11712 0.0
O272 O 0.9818 0.91104 0.11507 0.0
O273 O 0.96457 0.93727 0.17116 0.0
O274 O 0.91866 0.89709 0.1468 0.0
O275 O 0.90815 0.9368 0.18727 0.0
C276 C 0.92127 0.98309 0.28834 0.0
O277 O 0.91346 0.95929 0.29717 0.0
O278 O 0.94087 0.98234 0.25461 0.0
C279 C 0.9308 0.89195 0.28602 0.0
Tb280 Tb 0.32698 0.68731 0.9986 0.0
C281 C 0.35722 0.73944 0.03736 0.0
Tb282 Tb 0.37465 0.71018 0.92891 0.0
O283 O 0.35108 0.66663 0.06075 0.0
O284 O 0.36789 0.68787 0.99927 0.0
O285 O 0.3357 0.72445 0.04215 0.0
C286 C 0.4222 0.71853 0.89031 0.0
O287 O 0.37548 0.73562 0.99963 0.0
C288 C 0.32864 0.72311 0.88412 0.0
C289 C 0.3526 0.65347 0.90337 0.0
O290 O 0.40559 0.73694 0.90325 0.0
O291 O 0.41219 0.69552 0.8998 0.0
O292 O 0.35136 0.73039 0.86569 0.0
O293 O 0.3332 0.70952 0.92631 0.0
O294 O 0.37194 0.6706 0.89731 0.0
O295 O 0.33185 0.65716 0.93543 0.0
C296 C 0.27775 0.67722 0.02993 0.0
O297 O 0.29683 0.66023 0.02911 0.0
O298 O 0.28646 0.69994 1.01336 0.0
C299 C 0.37349 0.67372 0.0398 0.0
Tb300 Tb 0.57334 0.08305 0.74441 0.0
C301 C 0.52198 0.1114 0.77733 0.0
Tb302 Tb 0.55636 0.12417 0.67403 0.0
O303 O 0.57758 0.11011 0.81371 0.0
O304 O 0.58522 0.12331 0.73591 0.0
O305 O 0.53451 0.08852 0.78044 0.0
C306 C 0.53557 0.16696 0.62796 0.0
O307 O 0.52996 0.12987 0.74324 0.0
C308 C 0.54765 0.07732 0.62942 0.0
C309 C 0.61313 0.105 0.65572 0.0
O310 O 0.52263 0.14873 0.65277 0.0
O311 O 0.56033 0.16127 0.62912 0.0
O312 O 0.55524 0.09839 0.60468 0.0
O313 O 0.54458 0.08325 0.67936 0.0
O314 O 0.59707 0.12518 0.64912 0.0
O315 O 0.60644 0.08467 0.68672 0.0
C316 C 0.59226 0.03798 0.78784 0.0
O317 O 0.59789 0.06169 0.80273 0.0
O318 O 0.57538 0.0394 0.74848 0.0
C319 C 0.58401 0.13052 0.78483 0.0
H320 H 0.45609 0.23635 0.04473 0.0
H321 H 0.44397 0.21791 0.21485 0.0
H322 H 0.48685 0.23841 0.23705 0.0
H323 H 0.5251 0.22465 0.04014 0.0
H324 H 0.53086 0.25159 0.99395 0.0
H325 H 0.49987 0.23466 0.99303 0.0
H326 H 0.47583 0.27931 1.00753 0.0
H327 H 0.50683 0.29627 1.00958 0.0
H328 H 0.48413 0.29936 0.06533 0.0
H329 H 0.53058 0.26189 0.23929 0.0
H330 H 0.57351 0.283 0.22036 0.0
H331 H 0.55417 0.28629 0.04907 0.0
C332 C 0.46258 0.23631 0.08661 0.0
C333 C 0.44715 0.22563 0.12822 0.0
C334 C 0.45596 0.22597 0.18258 0.0
C335 C 0.48002 0.2377 0.1955 0.0
C336 C 0.49448 0.24887 0.1534 0.0
C337 C 0.48613 0.24805 0.10005 0.0
C338 C 0.50491 0.26142 0.06203 0.0
C339 C 0.51584 0.24191 0.01985 0.0
C340 C 0.49215 0.28552 0.03453 0.0
C341 C 0.52548 0.26959 0.10216 0.0
C342 C 0.51914 0.2625 0.15475 0.0
C343 C 0.53574 0.26763 0.19836 0.0
C344 C 0.55986 0.27968 0.18737 0.0
C345 C 0.56672 0.28605 0.13337 0.0
C346 C 0.54917 0.28154 0.09069 0.0
H347 H 0.5308 0.70635 0.46098 0.0
H348 H 0.57591 0.70556 0.3118 0.0
H349 H 0.56124 0.75068 0.29137 0.0
H350 H 0.4773 0.73847 0.41904 0.0
H351 H 0.47217 0.75997 0.47623 0.0
H352 H 0.48935 0.72929 0.48526 0.0
H353 H 0.52952 0.75369 0.52531 0.0
H354 H 0.51219 0.78451 0.51791 0.0
H355 H 0.54418 0.78038 0.48781 0.0
H356 H 0.53309 0.78807 0.27556 0.0
H357 H 0.50263 0.82558 0.27588 0.0
H358 H 0.48026 0.80747 0.44173 0.0
C359 C 0.53841 0.71633 0.42546 0.0
C360 C 0.55454 0.70303 0.38802 0.0
C361 C 0.56393 0.71594 0.3412 0.0
C362 C 0.55559 0.7414 0.32916 0.0
C363 C 0.53878 0.75374 0.3656 0.0
C364 C 0.53119 0.7423 0.41401 0.0
C365 C 0.51242 0.76004 0.44486 0.0
C366 C 0.48627 0.74609 0.45701 0.0
C367 C 0.52535 0.77027 0.49707 0.0
C368 C 0.50895 0.78198 0.40383 0.0
C369 C 0.52432 0.77766 0.35846 0.0
C370 C 0.52202 0.79272 0.31177 0.0
C371 C 0.50444 0.81368 0.31221 0.0
C372 C 0.48979 0.81963 0.35936 0.0
C373 C 0.49185 0.80357 0.40578 0.0
H374 H 0.07008 0.75835 0.682 0.0
H375 H 0.05632 0.84206 0.66086 0.0
H376 H 0.00871 0.83489 0.67119 0.0
H377 H 0.02303 0.7374 0.60277 0.0
H378 H 0.01241 0.70926 0.64163 0.0
H379 H 0.04532 0.72122 0.649 0.0
H380 H 0.03862 0.72678 0.75256 0.0
H381 H 1.00567 0.71425 0.74585 0.0
H382 H 0.0112 0.74578 0.77736 0.0
H383 H 0.9643 0.81801 0.66009 0.0
H384 H 0.92489 0.79279 0.6357 0.0
H385 H 0.96667 0.71963 0.66566 0.0
C386 C 0.05704 0.77524 0.68194 0.0
C387 C 0.0665 0.80069 0.67085 0.0
C388 C 0.04919 0.82244 0.66985 0.0
C389 C 0.02221 0.81855 0.67587 0.0
C390 C 0.01322 0.79292 0.68386 0.0
C391 C 0.03013 0.77165 0.68808 0.0
C392 C 0.01543 0.7458 0.68877 0.0
C393 C 0.02459 0.72737 0.64279 0.0
C394 C 0.01787 0.73236 0.74446 0.0
C395 C 0.98786 0.75574 0.67935 0.0
C396 C 0.98697 0.78301 0.67805 0.0
C397 C 0.96448 0.79673 0.66294 0.0
C398 C 0.94233 0.78223 0.64863 0.0
C399 C 0.94298 0.75437 0.64939 0.0
C400 C 0.96575 0.74095 0.66594 0.0
H401 H 0.99844 0.30643 0.79171 0.0
H402 H 0.95907 0.31456 0.94687 0.0
H403 H 0.98043 0.27352 0.97904 0.0
H404 H 0.99432 0.23449 0.78576 0.0
H405 H 0.02577 0.23181 0.75273 0.0
H406 H 1.00576 0.26067 0.74238 0.0
H407 H 0.04477 0.28962 0.77363 0.0
H408 H 0.06458 0.26089 0.78649 0.0
H409 H 0.05892 0.28441 0.83989 0.0
H410 H 1.00587 0.2318 0.99322 0.0
H411 H 0.03132 0.19027 0.98613 0.0
H412 H 0.05643 0.21221 0.8244 0.0
C413 C 0.99404 0.29932 0.83217 0.0
C414 C 0.97726 0.31335 0.86702 0.0
C415 C 0.97181 0.30373 0.91965 0.0
C416 C 0.98398 0.28066 0.93831 0.0
C417 C 1.00128 0.26775 0.90351 0.0
C418 C 1.00596 0.2765 0.85128 0.0
C419 C 0.02521 0.25906 0.82176 0.0
C420 C 0.01198 0.24571 0.77279 0.0
C421 C 0.04982 0.27443 0.80446 0.0
C422 C 0.03126 0.23947 0.86612 0.0
C423 C 0.01702 0.24461 0.91276 0.0
C424 C 0.01748 0.22777 0.95741 0.0
C425 C 0.0321 0.20448 0.95333 0.0
C426 C 0.04635 0.19889 0.90559 0.0
C427 C 0.04659 0.21686 0.8622 0.0
H428 H 0.54903 0.80433 0.86667 0.0
H429 H 0.59234 0.73068 0.8703 0.0
H430 H 0.55157 0.70619 0.85312 0.0
H431 H 0.49809 0.78426 0.94059 0.0
H432 H 0.47246 0.80146 0.90446 0.0
H433 H 0.50543 0.81382 0.90287 0.0
H434 H 0.50522 0.81234 0.79771 0.0
H435 H 0.472 0.80009 0.79891 0.0
H436 H 0.49722 0.78203 0.76352 0.0
H437 H 0.50662 0.68943 0.85379 0.0
H438 H 0.45973 0.68148 0.87255 0.0
H439 H 0.445 0.76566 0.86917 0.0
C440 C 0.54993 0.78315 0.86172 0.0
C441 C 0.57357 0.7693 0.86935 0.0
C442 C 0.57425 0.74156 0.86417 0.0
C443 C 0.55127 0.72751 0.85405 0.0
C444 C 0.52796 0.74158 0.84865 0.0
C445 C 0.52709 0.76881 0.85177 0.0
C446 C 0.49913 0.77883 0.85222 0.0
C447 C 0.49347 0.79555 0.90307 0.0
C448 C 0.49304 0.79423 0.79997 0.0
C449 C 0.48456 0.75293 0.85344 0.0
C450 C 0.50152 0.73172 0.84953 0.0
C451 C 0.493 0.70581 0.85533 0.0
C452 C 0.46644 0.70149 0.86624 0.0
C453 C 0.44904 0.72302 0.87194 0.0
C454 C 0.45802 0.74894 0.86419 0.0
H455 H 0.454 0.29456 0.68531 0.0
H456 H 0.50098 0.33412 0.56363 0.0
H457 H 0.51967 0.2913 0.535 0.0
H458 H 0.49834 0.2504 0.72775 0.0
H459 H 0.47699 0.2224 0.73464 0.0
H460 H 0.46374 0.25507 0.74052 0.0
H461 H 0.43033 0.24594 0.66411 0.0
H462 H 0.44259 0.21267 0.6593 0.0
H463 H 0.44161 0.23337 0.59981 0.0
H464 H 0.53968 0.2464 0.53435 0.0
H465 H 0.55569 0.20121 0.55361 0.0
H466 H 0.49176 0.18993 0.66719 0.0
C467 C 0.46765 0.29394 0.65162 0.0
C468 C 0.47624 0.31722 0.62649 0.0
C469 C 0.49417 0.31618 0.58282 0.0
C470 C 0.5048 0.29204 0.56631 0.0
C471 C 0.49642 0.26928 0.5927 0.0
C472 C 0.47766 0.26995 0.63332 0.0
C473 C 0.4731 0.24295 0.6572 0.0
C474 C 0.47838 0.24276 0.71869 0.0
C475 C 0.44525 0.23315 0.6443 0.0
C476 C 0.49354 0.22734 0.62648 0.0
C477 C 0.50672 0.24283 0.5892 0.0
C478 C 0.5289 0.23374 0.56176 0.0
C479 C 0.53793 0.20821 0.57305 0.0
C480 C 0.5245 0.1922 0.61078 0.0
C481 C 0.50175 0.20162 0.63675 0.0
H482 H 0.95306 0.26226 0.45587 0.0
H483 H 0.95193 0.21537 0.30884 0.0
H484 H 0.99532 0.23369 0.28297 0.0
H485 H 0.98382 0.3203 0.40071 0.0
H486 H 1.00313 0.32607 0.46085 0.0
H487 H 0.97169 0.31009 0.46617 0.0
H488 H 0.99339 0.27051 0.51527 0.0
H489 H 0.02484 0.28635 0.51047 0.0
H490 H 0.02055 0.25365 0.48362 0.0
H491 H 0.04008 0.25409 0.27826 0.0
H492 H 0.08325 0.27492 0.29513 0.0
H493 H 0.05284 0.31058 0.44189 0.0
C494 C 0.96184 0.25597 0.41798 0.0
C495 C 0.94937 0.23755 0.38407 0.0
C496 C 0.9614 0.22953 0.33515 0.0
C497 C 0.98585 0.23991 0.32012 0.0
C498 C 0.99756 0.25828 0.35445 0.0
C499 C 0.98595 0.26619 0.40239 0.0
C500 C 1.00304 0.28503 0.43375 0.0
C501 C 0.98961 0.31197 0.44073 0.0
C502 C 0.01092 0.27316 0.48901 0.0
C503 C 0.02618 0.28666 0.39579 0.0
C504 C 0.02278 0.27094 0.35045 0.0
C505 C 0.04276 0.26695 0.31278 0.0
C506 C 0.06707 0.27883 0.32253 0.0
C507 C 0.07074 0.29475 0.36885 0.0
C508 C 0.04997 0.29928 0.40508 0.0
H509 H 0.00815 0.70066 0.22066 0.0
H510 H 0.01756 0.68532 0.04877 0.0
H511 H 1.0017 0.73063 0.02807 0.0
H512 H 0.95088 0.74086 0.21584 0.0
H513 H 0.96247 0.76288 0.26789 0.0
H514 H 0.97293 0.72898 0.26769 0.0
H515 H 0.02169 0.74388 0.2668 0.0
H516 H 0.01139 0.77782 0.26711 0.0
H517 H 0.03287 0.76597 0.2144 0.0
H518 H 0.9847 0.7779 0.02813 0.0
H519 H 0.97148 0.82395 0.04897 0.0
H520 H 0.97636 0.80658 0.22105 0.0
C521 C 1.00651 0.70671 0.1786 0.0
C522 C 0.01348 0.68978 0.13609 0.0
C523 C 0.01195 0.69832 0.0816 0.0
C524 C 1.00298 0.72383 0.06962 0.0
C525 C 0.99624 0.7402 0.11286 0.0
C526 C 0.99829 0.73198 0.16622 0.0
C527 C 0.99178 0.75354 0.20575 0.0
C528 C 0.9681 0.74611 0.24135 0.0
C529 C 0.01586 0.76072 0.24053 0.0
C530 C 0.98508 0.77513 0.16637 0.0
C531 C 0.98764 0.76724 0.11295 0.0
C532 C 0.98263 0.78431 0.06977 0.0
C533 C 0.97511 0.81024 0.08186 0.0
C534 C 0.97303 0.81844 0.13647 0.0
C535 C 0.97785 0.80067 0.17893 0.0
H536 H 0.15716 0.12653 0.82207 0.0
H537 H 0.13649 0.0743 0.95415 0.0
H538 H 0.17723 0.08695 1.00265 0.0
H539 H 0.23055 0.11742 0.83059 0.0
H540 H 0.23618 0.15163 0.81475 0.0
H541 H 0.20796 0.13497 0.7872 0.0
H542 H 0.17789 0.171 0.828 0.0
H543 H 0.20582 0.18742 0.85697 0.0
H544 H 0.17901 0.17735 0.89992 0.0
H545 H 0.21557 0.11105 0.04269 0.0
H546 H 0.25266 0.14006 0.06676 0.0
H547 H 0.24952 0.1757 0.90688 0.0
C548 C 0.16202 0.11679 0.85994 0.0
C549 C 0.14439 0.0988 0.88388 0.0
C550 C 0.15038 0.08737 0.93462 0.0
C551 C 0.17328 0.09469 0.96253 0.0
C552 C 0.18983 0.11335 0.93879 0.0
C553 C 0.1848 0.12382 0.88803 0.0
C554 C 0.20456 0.14496 0.87328 0.0
C555 C 0.22078 0.13674 0.82351 0.0
C556 C 0.19099 0.17175 0.86402 0.0
C557 C 0.22116 0.14524 0.92423 0.0
C558 C 0.21222 0.12697 0.96161 0.0
C559 C 0.22308 0.12501 1.01334 0.0
C560 C 0.24394 0.14174 0.02681 0.0
C561 C 0.2539 0.15998 0.98855 0.0
C562 C 0.24237 0.16172 0.93663 0.0
H563 H 0.6657 0.41507 0.09765 0.0
H564 H 0.63976 0.36223 0.22513 0.0
H565 H 0.61999 0.39951 0.27414 0.0
H566 H 0.67934 0.47288 0.18957 0.0
H567 H 0.6675 0.4963 0.1402 0.0
H568 H 0.68262 0.466 0.11815 0.0
H569 H 0.64117 0.45531 0.06148 0.0
H570 H 0.62574 0.4853 0.08406 0.0
H571 H 0.60961 0.45412 0.09447 0.0
H572 H 0.59785 0.44039 0.30316 0.0
H573 H 0.57923 0.48478 0.31736 0.0
H574 H 0.62023 0.5129 0.1743 0.0
C575 C 0.65684 0.41167 0.13698 0.0
C576 C 0.6546 0.38586 0.15816 0.0
C577 C 0.64195 0.38192 0.20867 0.0
C578 C 0.63054 0.40294 0.23669 0.0
C579 C 0.63203 0.42796 0.21391 0.0
C580 C 0.64528 0.43266 0.16584 0.0
C581 C 0.64266 0.46145 0.14949 0.0
C582 C 0.66964 0.47496 0.14936 0.0
C583 C 0.62898 0.46419 0.09409 0.0
C584 C 0.6254 0.47183 0.19511 0.0
C585 C 0.61948 0.45206 0.23161 0.0
C586 C 0.6027 0.45621 0.27547 0.0
C587 C 0.59207 0.48142 0.28299 0.0
C588 C 0.59839 0.50223 0.24715 0.0
C589 C 0.61524 0.49734 0.20255 0.0
H590 H 0.35821 0.8913 0.33768 0.0
H591 H 0.38957 0.92162 0.48836 0.0
H592 H 0.35018 0.90549 0.53725 0.0
H593 H 0.28771 0.90376 0.36599 0.0
H594 H 0.27768 0.87341 0.33434 0.0
H595 H 0.30665 0.89023 0.31083 0.0
H596 H 0.33385 0.8477 0.32619 0.0
H597 H 0.30511 0.83087 0.35074 0.0
H598 H 0.33416 0.83254 0.39237 0.0
H599 H 0.30984 0.88252 0.5705 0.0
H600 H 0.26921 0.85729 0.58589 0.0
H601 H 0.26375 0.84111 0.41344 0.0
C602 C 0.35615 0.89542 0.3806 0.0
C603 C 0.37626 0.90847 0.40932 0.0
C604 C 0.37384 0.91239 0.46577 0.0
C605 C 0.3517 0.9031 0.49374 0.0
C606 C 0.33243 0.88967 0.46456 0.0
C607 C 0.33428 0.88603 0.40913 0.0
C608 C 0.31171 0.86944 0.38806 0.0
C609 C 0.29494 0.88516 0.34741 0.0
C610 C 0.32182 0.84361 0.36286 0.0
C611 C 0.29686 0.86427 0.44032 0.0
C612 C 0.30927 0.87604 0.48391 0.0
C613 C 0.29983 0.87344 0.53664 0.0
C614 C 0.27682 0.85891 0.54499 0.0
C615 C 0.26336 0.84722 0.50088 0.0
C616 C 0.27366 0.84979 0.4479 0.0
H617 H 0.85828 0.60824 0.59556 0.0
H618 H 0.87211 0.65683 0.73714 0.0
H619 H 0.89091 0.61864 0.78543 0.0
H620 H 0.84327 0.54574 0.6718 0.0
H621 H 0.86002 0.52562 0.62247 0.0
H622 H 0.8442 0.5558 0.60165 0.0
H623 H 0.88802 0.57178 0.55991 0.0
H624 H 0.90413 0.54194 0.58151 0.0
H625 H 0.91692 0.57348 0.602 0.0
H626 H 0.91248 0.57728 0.81498 0.0
H627 H 0.93242 0.5333 0.82729 0.0
H628 H 0.90561 0.51066 0.66689 0.0
C629 C 0.86424 0.61042 0.6375 0.0
C630 C 0.86325 0.63527 0.66323 0.0
C631 C 0.8723 0.6378 0.71725 0.0
C632 C 0.88314 0.61627 0.74487 0.0
C633 C 0.88485 0.59228 0.71788 0.0
C634 C 0.87535 0.58902 0.66572 0.0
C635 C 0.88125 0.56142 0.64518 0.0
C636 C 0.85566 0.54624 0.63467 0.0
C637 C 0.89861 0.56222 0.59413 0.0
C638 C 0.89607 0.55007 0.69338 0.0
C639 C 0.89776 0.56823 0.73488 0.0
C640 C 0.91105 0.56275 0.78304 0.0
C641 C 0.92246 0.5378 0.78954 0.0
C642 C 0.92061 0.51868 0.74805 0.0
C643 C 0.9074 0.52498 0.69918 0.0
H644 H 0.78237 0.83752 0.02119 0.0
H645 H 0.73076 0.89272 0.10321 0.0
H646 H 0.76904 0.91747 0.13616 0.0
H647 H 0.83305 0.83598 0.12282 0.0
H648 H 0.85978 0.83481 0.07495 0.0
H649 H 0.82824 0.82151 0.05679 0.0
H650 H 0.82711 0.85167 0.97189 0.0
H651 H 0.85855 0.86525 0.9902 0.0
H652 H 0.83078 0.88676 0.97994 0.0
H653 H 0.81256 0.93633 0.1613 0.0
H654 H 0.85889 0.94625 0.18192 0.0
H655 H 0.88313 0.87945 0.08382 0.0
C656 C 0.77924 0.85474 0.04625 0.0
C657 C 0.75356 0.86317 0.05969 0.0
C658 C 0.75022 0.88591 0.09228 0.0
C659 C 0.77186 0.90019 0.11113 0.0
C660 C 0.79688 0.89168 0.09679 0.0
C661 C 0.80079 0.86947 0.06526 0.0
C662 C 0.82992 0.86464 0.05643 0.0
C663 C 0.83823 0.83764 0.07913 0.0
C664 C 0.837 0.86724 0.99602 0.0
C665 C 0.84162 0.88711 0.08919 0.0
C666 C 0.82217 0.90268 0.11141 0.0
C667 C 0.82801 0.92437 0.14389 0.0
C668 C 0.85445 0.92997 0.15511 0.0
C669 C 0.8748 0.91382 0.13431 0.0
C670 C 0.86814 0.89238 0.10008 0.0
H671 H 0.36737 0.60678 0.9477 0.0
H672 H 0.34897 0.64499 0.79521 0.0
H673 H 0.3652 0.60588 0.74529 0.0
H674 H 0.42712 0.58018 0.90458 0.0
H675 H 0.42464 0.54978 0.94211 0.0
H676 H 0.40823 0.57892 0.96638 0.0
H677 H 0.36377 0.55428 0.96725 0.0
H678 H 0.3801 0.52486 0.94396 0.0
H679 H 0.35258 0.53798 0.90658 0.0
H680 H 0.38769 0.56499 0.71226 0.0
H681 H 0.41186 0.52332 0.69782 0.0
H682 H 0.4162 0.51138 0.87189 0.0
C683 C 0.36573 0.60629 0.90389 0.0
C684 C 0.35604 0.62829 0.875 0.0
C685 C 0.35554 0.62784 0.81772 0.0
C686 C 0.36491 0.60585 0.78919 0.0
C687 C 0.37504 0.58467 0.81871 0.0
C688 C 0.37531 0.58457 0.87482 0.0
C689 C 0.38913 0.56022 0.89659 0.0
C690 C 0.41373 0.56774 0.92935 0.0
C691 C 0.37026 0.54333 0.93059 0.0
C692 C 0.39651 0.54661 0.84399 0.0
C693 C 0.38833 0.56116 0.7996 0.0
C694 C 0.39391 0.55328 0.7467 0.0
C695 C 0.40779 0.52969 0.7389 0.0
C696 C 0.41582 0.51417 0.7837 0.0
C697 C 0.41017 0.52283 0.83691 0.0
H698 H 0.63394 0.12358 0.5601 0.0
H699 H 0.65444 0.09749 0.72229 0.0
H700 H 0.69962 0.11373 0.70916 0.0
H701 H 0.69981 0.10531 0.50012 0.0
H702 H 0.69909 0.13277 0.45368 0.0
H703 H 0.66887 0.11731 0.47442 0.0
H704 H 0.65129 0.16257 0.50653 0.0
H705 H 0.68159 0.1781 0.48698 0.0
H706 H 0.66979 0.18118 0.55563 0.0
H707 H 0.7397 0.13852 0.68437 0.0
H708 H 0.77628 0.16295 0.64301 0.0
H709 H 0.73264 0.16925 0.49225 0.0
C710 C 0.64828 0.12054 0.59198 0.0
C711 C 0.64095 0.10898 0.64193 0.0
C712 C 0.65992 0.10572 0.68331 0.0
C713 C 0.68552 0.11513 0.67642 0.0
C714 C 0.69201 0.12707 0.62731 0.0
C715 C 0.67429 0.12902 0.58503 0.0
C716 C 0.68666 0.14253 0.5363 0.0
C717 C 0.68873 0.12334 0.48828 0.0
C718 C 0.67142 0.16759 0.52047 0.0
C719 C 0.71361 0.1491 0.55893 0.0
C720 C 0.71607 0.14007 0.61166 0.0
C721 C 0.73828 0.14516 0.64273 0.0
C722 C 0.75887 0.15927 0.61898 0.0
C723 C 0.75734 0.1679 0.56444 0.0
C724 C 0.73437 0.16274 0.53396 0.0
H725 H 0.14117 0.38719 0.32305 0.0
H726 H 0.18867 0.41195 0.45982 0.0
H727 H 0.17684 0.45833 0.44127 0.0
H728 H 0.1566 0.44542 0.23566 0.0
H729 H 0.12395 0.44608 0.20742 0.0
H730 H 0.13837 0.41523 0.22833 0.0
H731 H 0.09825 0.40657 0.29034 0.0
H732 H 0.08392 0.43755 0.27045 0.0
H733 H 0.08949 0.4305 0.34124 0.0
H734 H 0.15515 0.50097 0.4156 0.0
H735 H 0.12979 0.53806 0.37704 0.0
H736 H 0.09807 0.48625 0.25367 0.0
C737 C 0.1497 0.40246 0.34808 0.0
C738 C 0.16607 0.39601 0.39255 0.0
C739 C 0.17655 0.41647 0.42489 0.0
C740 C 0.16973 0.44285 0.41496 0.0
C741 C 0.15284 0.44846 0.37189 0.0
C742 C 0.14346 0.42892 0.33813 0.0
C743 C 0.12512 0.44018 0.29541 0.0
C744 C 0.13671 0.43651 0.23832 0.0
C745 C 0.09757 0.42797 0.29966 0.0
C746 C 0.12488 0.46896 0.31166 0.0
C747 C 0.14099 0.47327 0.35595 0.0
C748 C 0.14288 0.49793 0.38032 0.0
C749 C 0.12828 0.51883 0.35835 0.0
C750 C 0.11214 0.515 0.31227 0.0
C751 C 0.11045 0.48973 0.28866 0.0
H752 H 0.63485 0.6218 0.47201 0.0
H753 H 0.6597 0.58756 0.31912 0.0
H754 H 0.70491 0.60264 0.33617 0.0
H755 H 0.67278 0.67835 0.46813 0.0
H756 H 0.68179 0.67875 0.53886 0.0
H757 H 0.65168 0.66326 0.51797 0.0
H758 H 0.66609 0.61959 0.56364 0.0
H759 H 0.69609 0.63507 0.58555 0.0
H760 H 0.69735 0.60517 0.54626 0.0
H761 H 0.74522 0.62721 0.36212 0.0
H762 H 0.78096 0.65299 0.40316 0.0
H763 H 0.73245 0.66822 0.54441 0.0
C764 C 0.65001 0.61676 0.443 0.0
C765 C 0.64373 0.60323 0.39441 0.0
C766 C 0.66404 0.59738 0.35706 0.0
C767 C 0.68978 0.60612 0.36615 0.0
C768 C 0.69511 0.62014 0.41345 0.0
C769 C 0.67605 0.62477 0.45213 0.0
C770 C 0.68719 0.6405 0.49934 0.0
C771 C 0.67248 0.66677 0.50645 0.0
C772 C 0.68665 0.6241 0.55181 0.0
C773 C 0.71518 0.64491 0.48001 0.0
C774 C 0.71914 0.63311 0.43011 0.0
C775 C 0.74257 0.63599 0.40173 0.0
C776 C 0.76269 0.65087 0.42524 0.0
C777 C 0.75956 0.66242 0.47712 0.0
C778 C 0.73548 0.65931 0.50501 0.0
H779 H 0.092 0.98519 0.76358 0.0
H780 H 0.10254 0.03211 0.61802 0.0
H781 H 0.12659 0.99531 0.57514 0.0
H782 H 0.15477 0.95322 0.76124 0.0
H783 H 0.14265 0.92178 0.78412 0.0
H784 H 0.12599 0.95165 0.80368 0.0
H785 H 0.08239 0.934 0.76366 0.0
H786 H 0.09881 0.9039 0.74491 0.0
H787 H 0.08156 0.92286 0.69424 0.0
H788 H 0.15125 0.95394 0.54934 0.0
H789 H 0.16904 0.90889 0.53781 0.0
H790 H 0.14129 0.88835 0.69877 0.0
C791 C 0.09907 0.98754 0.72243 0.0
C792 C 0.09535 0.01148 0.69403 0.0
C793 C 0.10504 0.01389 0.6404 0.0
C794 C 0.11891 0.99316 0.61584 0.0
C795 C 0.12283 0.97004 0.64531 0.0
C796 C 0.11281 0.96692 0.69709 0.0
C797 C 0.11924 0.93979 0.71936 0.0
C798 C 0.1367 0.94174 0.77011 0.0
C799 C 0.094 0.92422 0.73121 0.0
C800 C 0.13428 0.92814 0.67196 0.0
C801 C 0.13651 0.94604 0.62998 0.0
C802 C 0.14963 0.93975 0.58197 0.0
C803 C 0.15997 0.9142 0.57601 0.0
C804 C 0.15683 0.89517 0.61753 0.0
C805 C 0.14422 0.90252 0.66644 0.0
H806 H 0.77513 0.33182 0.93573 0.0
H807 H 0.76376 0.38426 0.07244 0.0
H808 H 0.80299 0.40968 0.04509 0.0
H809 H 0.84596 0.32976 0.94659 0.0
H810 H 0.85094 0.32813 0.87426 0.0
H811 H 0.82144 0.31489 0.90375 0.0
H812 H 0.79357 0.34448 0.84 0.0
H813 H 0.82305 0.35804 0.81089 0.0
H814 H 0.7987 0.37962 0.84002 0.0
H815 H 0.84263 0.43074 0.99962 0.0
H816 H 0.88321 0.44131 0.94792 0.0
H817 H 0.8702 0.37296 0.8463 0.0
C818 C 0.78104 0.34857 0.95998 0.0
C819 C 0.7665 0.35615 1.00609 0.0
C820 C 0.77481 0.37807 0.03711 0.0
C821 C 0.79691 0.39274 0.02166 0.0
C822 C 0.81072 0.38499 0.97555 0.0
C823 C 0.80339 0.36308 0.94579 0.0
C824 C 0.8224 0.35802 0.89976 0.0
C825 C 0.83599 0.33111 0.90652 0.0
C826 C 0.80859 0.36018 0.8444 0.0
C827 C 0.84145 0.3805 0.90818 0.0
C828 C 0.83418 0.39618 0.95141 0.0
C829 C 0.84863 0.41847 0.96594 0.0
C830 C 0.87149 0.42446 0.9363 0.0
C831 C 0.87978 0.40786 0.89362 0.0
C832 C 0.86435 0.38586 0.87915 0.0
H833 H 0.43044 0.03195 0.23632 0.0
H834 H 0.3608 0.98414 0.21392 0.0
H835 H 0.33661 0.02303 0.18006 0.0
H836 H 0.39773 0.09118 0.28051 0.0
H837 H 0.41941 0.11295 0.24407 0.0
H838 H 0.4312 0.08141 0.26734 0.0
H839 H 0.44518 0.06949 0.16927 0.0
H840 H 0.43349 0.10102 0.14578 0.0
H841 H 0.42129 0.07119 0.11538 0.0
H842 H 0.32015 0.06704 0.14648 0.0
H843 H 0.31304 0.11295 0.11537 0.0
H844 H 0.39325 0.13184 0.16056 0.0
C845 C 0.41008 0.02977 0.22448 0.0
C846 C 0.39743 1.00512 0.22785 0.0
C847 C 0.37084 1.0029 0.21163 0.0
C848 C 0.35692 0.02486 0.19241 0.0
C849 C 0.36989 0.04892 0.18943 0.0
C850 C 0.3959 0.05151 0.20484 0.0
C851 C 0.40538 0.07947 0.19635 0.0
C852 C 0.41392 0.09198 0.25029 0.0
C853 C 0.42765 0.08033 0.15419 0.0
C854 C 0.38056 0.09219 0.17457 0.0
C855 C 0.36034 0.07426 0.17054 0.0
C856 C 0.3358 0.08134 0.14978 0.0
C857 C 0.3319 0.10744 0.13229 0.0
C858 C 0.3524 0.12612 0.1361 0.0
C859 C 0.37694 0.11825 0.1579 0.0
H860 H 0.28475 0.34137 0.51563 0.0
H861 H 0.23507 0.36257 0.6518 0.0
H862 H 0.272 0.38637 0.6938 0.0
H863 H 0.34351 0.32987 0.59615 0.0
H864 H 0.36537 0.34284 0.54524 0.0
H865 H 0.33482 0.32791 0.52535 0.0
H866 H 0.32217 0.37052 0.47345 0.0
H867 H 0.35253 0.38574 0.49392 0.0
H868 H 0.32166 0.40153 0.50903 0.0
H869 H 0.31336 0.4098 0.71892 0.0
H870 H 0.35875 0.42519 0.7334 0.0
H871 H 0.38291 0.38649 0.58459 0.0
C872 C 0.2818 0.35082 0.55452 0.0
C873 C 0.25707 0.35019 0.5805 0.0
C874 C 0.25388 0.36275 0.63133 0.0
C875 C 0.27468 0.37649 0.65532 0.0
C876 C 0.29866 0.37725 0.62828 0.0
C877 C 0.30254 0.36431 0.57958 0.0
C878 C 0.33068 0.36735 0.56038 0.0
C879 C 0.3444 0.34039 0.55659 0.0
C880 C 0.33181 0.38217 0.50596 0.0
C881 C 0.34194 0.38391 0.60597 0.0
C882 C 0.32296 0.38984 0.6441 0.0
C883 C 0.32844 0.40522 0.68947 0.0
C884 C 0.35423 0.41411 0.69706 0.0
C885 C 0.37432 0.40719 0.65997 0.0
C886 C 0.36792 0.3922 0.61346 0.0
H887 H 0.88855 0.13623 0.33604 0.0
H888 H 0.83424 0.11047 0.46093 0.0
H889 H 0.84497 0.06417 0.44025 0.0
H890 H 0.8731 0.08127 0.24147 0.0
H891 H 0.9064 0.07908 0.21714 0.0
H892 H 0.89342 0.11029 0.23958 0.0
H893 H 0.93204 0.11466 0.30732 0.0
H894 H 0.94495 0.08335 0.2856 0.0
H895 H 0.93781 0.08886 0.35633 0.0
H896 H 0.86337 0.0212 0.41103 0.0
H897 H 0.88602 0.98323 0.37007 0.0
H898 H 0.92822 0.03575 0.26191 0.0
C899 C 0.87866 0.12079 0.35843 0.0
C900 C 0.86046 0.12694 0.40001 0.0
C901 C 0.84794 0.10624 0.42845 0.0
C902 C 0.85404 0.07988 0.41723 0.0
C903 C 0.87235 0.07448 0.37674 0.0
C904 C 0.88416 0.09426 0.347 0.0
C905 C 0.90305 0.08284 0.30539 0.0
C906 C 0.89342 0.08872 0.24746 0.0
C907 C 0.93113 0.09304 0.31424 0.0
C908 C 0.90092 0.05366 0.31827 0.0
C909 C 0.88286 0.04939 0.35923 0.0
C910 C 0.87738 0.02425 0.37864 0.0
C911 C 0.89041 1.00283 0.35516 0.0
C912 C 0.90887 1.00657 0.3129 0.0
C913 C 0.91429 0.03237 0.29436 0.0
H914 H 0.15447 0.59187 0.13578 0.0
H915 H 0.10895 0.66384 0.11431 0.0
H916 H 0.1479 0.68668 0.08207 0.0
H917 H 0.21386 0.62225 0.181 0.0
H918 H 0.23574 0.60105 0.14353 0.0
H919 H 0.20404 0.5891 0.16451 0.0
H920 H 0.19281 0.57738 0.06498 0.0
H921 H 0.22455 0.58918 0.04375 0.0
H922 H 0.19517 0.60244 1.01331 0.0
H923 H 0.19109 0.70331 0.05599 0.0
H924 H 0.23717 0.71182 0.03119 0.0
H925 H 0.2565 0.63003 0.06455 0.0
C926 C 0.15269 0.61231 0.12366 0.0
C927 C 0.12834 0.6258 0.12778 0.0
C928 C 0.12705 0.65269 0.1116 0.0
C929 C 0.14921 0.66609 0.09322 0.0
C930 C 0.17277 0.65247 0.09019 0.0
C931 C 0.1748 0.62614 0.10412 0.0
C932 C 0.20286 0.61653 0.09584 0.0
C933 C 0.21483 0.60666 0.14943 0.0
C934 C 0.20391 0.59511 0.05185 0.0
C935 C 0.21608 0.64177 0.07657 0.0
C936 C 0.19818 0.66216 0.07365 0.0
C937 C 0.20535 0.68749 0.05768 0.0
C938 C 0.23156 0.69216 0.04375 0.0
C939 C 0.25033 0.67164 0.04584 0.0
C940 C 0.24249 0.64609 0.06256 0.0
H941 H 0.58073 0.98535 0.76775 0.0
H942 H 0.63305 0.03659 0.8578 0.0
H943 H 0.65629 0.99787 0.89433 0.0
H944 H 0.57515 0.9357 0.87223 0.0
H945 H 0.57463 0.90829 0.82581 0.0
H946 H 0.56253 0.94002 0.80442 0.0
H947 H 0.59469 0.93942 0.72304 0.0
H948 H 0.60699 0.90773 0.74443 0.0
H949 H 0.62932 0.93487 0.7352 0.0
H950 H 0.67436 0.95434 0.92067 0.0
H951 H 0.68389 0.90802 0.94238 0.0
H952 H 0.61906 0.88352 0.83962 0.0
C953 C 0.59709 0.98831 0.79511 0.0
C954 C 0.60515 0.01401 0.80982 0.0
C955 C 0.62653 0.01712 0.84595 0.0
C956 C 0.63995 0.99524 0.86679 0.0
C957 C 0.63171 0.97021 0.85149 0.0
C958 C 0.61064 0.96649 0.81696 0.0
C959 C 0.60542 0.93725 0.80903 0.0
C960 C 0.57779 0.92989 0.82909 0.0
C961 C 0.60934 0.92936 0.74937 0.0
C962 C 0.62664 0.92528 0.84495 0.0
C963 C 0.64177 0.94475 0.86825 0.0
C964 C 0.66266 0.93887 0.9027 0.0
C965 C 0.668 0.91239 0.91454 0.0
C966 C 0.65237 0.89193 0.89261 0.0
C967 C 0.6315 0.8986 0.85693 0.0
H968 H 0.39654 0.1924 0.88679 0.0
H969 H 0.39641 0.14035 0.02644 0.0
H970 H 0.43433 0.11608 0.98873 0.0
H971 H 0.4162 0.14634 0.78398 0.0
H972 H 0.43818 0.16889 0.75038 0.0
H973 H 0.41029 0.18134 0.78731 0.0
H974 H 0.44152 0.21074 0.84178 0.0
H975 H 0.47046 0.19717 0.81011 0.0
H976 H 0.46707 0.19603 0.88255 0.0
H977 H 0.47135 0.096 0.93332 0.0
H978 H 0.50731 0.08485 0.86984 0.0
H979 H 0.48597 0.15193 0.76957 0.0
C980 C 0.40441 0.17575 0.90905 0.0
C981 C 0.39323 0.16798 0.9591 0.0
C982 C 0.40453 0.14656 0.98786 0.0
C983 C 0.42605 0.13257 0.96667 0.0
C984 C 0.43655 0.14054 0.91706 0.0
C985 C 0.42642 0.16193 0.88908 0.0
C986 C 0.44266 0.16756 0.8387 0.0
C987 C 0.42582 0.16592 0.78703 0.0
C988 C 0.45618 0.1945 0.84357 0.0
C989 C 0.46265 0.14529 0.8413 0.0
C990 C 0.4588 0.12993 0.88688 0.0
C991 C 0.47461 0.10801 0.89766 0.0
C992 C 0.49496 0.10174 0.86118 0.0
C993 C 0.49961 0.11743 0.81458 0.0
C994 C 0.48309 0.13951 0.80481 0.0
H995 H 0.58616 0.64273 0.13873 0.0
H996 H 0.61551 0.66031 0.29972 0.0
H997 H 0.6379 0.69979 0.26402 0.0
H998 H 0.64425 0.6633 0.06573 0.0
H999 H 0.6263 0.67735 1.00964 0.0
H1000 H 0.61246 0.65044 0.04776 0.0
H1001 H 0.57081 0.67827 0.0673 0.0
H1002 H 0.58446 0.70513 0.02877 0.0
H1003 H 0.57418 0.71031 0.09794 0.0
H1004 H 0.65894 0.73698 0.20935 0.0
H1005 H 0.67284 0.77068 0.14237 0.0
H1006 H 0.62874 0.73006 0.01748 0.0
C1007 C 0.59723 0.65496 0.16644 0.0
C1008 C 0.59887 0.64841 0.22226 0.0
C1009 C 0.6136 0.66499 0.25705 0.0
C1010 C 0.62661 0.68742 0.23699 0.0
C1011 C 0.62481 0.69324 0.18178 0.0
C1012 C 0.61026 0.67761 0.14705 0.0
C1013 C 0.61118 0.6885 0.08956 0.0
C1014 C 0.62433 0.66872 0.05089 0.0
C1015 C 0.58351 0.69601 0.06974 0.0
C1016 C 0.62827 0.71275 0.09747 0.0
C1017 C 0.63628 0.71494 0.1508 0.0
C1018 C 0.65267 0.73546 0.16752 0.0
C1019 C 0.66067 0.75445 0.12908 0.0
C1020 C 0.65201 0.75312 0.07455 0.0
C1021 C 0.63572 0.73176 0.05883 0.0
H1022 H 0.03675 0.87864 0.26288 0.0
H1023 H 1.00024 0.92964 0.38209 0.0
H1024 H 0.03231 0.91432 0.45108 0.0
H1025 H 0.05155 0.8247 0.35125 0.0
H1026 H 0.0828 0.81738 0.32041 0.0
H1027 H 0.057 0.83224 0.28067 0.0
H1028 H 0.08777 0.87083 0.25474 0.0
H1029 H 0.11377 0.85588 0.29365 0.0
H1030 H 0.10383 0.88931 0.30757 0.0
H1031 H 0.06724 0.89025 0.50946 0.0
H1032 H 0.10581 0.86609 0.54643 0.0
H1033 H 0.12155 0.83413 0.38691 0.0
C1034 C 0.03565 0.88687 0.30334 0.0
C1035 C 0.01591 0.9055 0.31686 0.0
C1036 C 0.01528 0.91564 0.3704 0.0
C1037 C 0.0333 0.90681 0.41006 0.0
C1038 C 0.05217 0.88803 0.3956 0.0
C1039 C 0.05377 0.87864 0.34307 0.0
C1040 C 0.0764 0.85929 0.33713 0.0
C1041 C 0.06633 0.83178 0.32143 0.0
C1042 C 0.09664 0.86944 0.29584 0.0
C1043 C 0.08745 0.85931 0.39437 0.0
C1044 C 0.07286 0.87549 0.42798 0.0
C1045 C 0.07886 0.87776 0.4832 0.0
C1046 C 0.10066 0.86377 0.50407 0.0
C1047 C 0.11658 0.84819 0.46961 0.0
C1048 C 0.10968 0.84589 0.4142 0.0
H1049 H 0.90149 0.26907 0.56249 0.0
H1050 H 0.81709 0.27817 0.57829 0.0
H1051 H 0.824 0.31653 0.63853 0.0
H1052 H 0.91673 0.28666 0.70344 0.0
H1053 H 0.94672 0.30338 0.68576 0.0
H1054 H 0.93527 0.27631 0.6449 0.0
H1055 H 0.9364 0.30599 0.55956 0.0
H1056 H 0.94788 0.33313 0.60002 0.0
H1057 H 0.91861 0.33675 0.5595 0.0
H1058 H 0.83998 0.3555 0.6922 0.0
H1059 H 0.86368 0.39143 0.7384 0.0
H1060 H 0.93807 0.35615 0.69261 0.0
C1061 C 0.88442 0.27915 0.57858 0.0
C1062 C 0.85861 0.27079 0.56507 0.0
C1063 C 0.83693 0.28422 0.58787 0.0
C1064 C 0.84072 0.30603 0.62212 0.0
C1065 C 0.86634 0.3139 0.63418 0.0
C1066 C 0.88786 0.30068 0.61363 0.0
C1067 C 0.91335 0.3131 0.63326 0.0
C1068 C 0.92893 0.29371 0.66896 0.0
C1069 C 0.93003 0.32282 0.58522 0.0
C1070 C 0.90278 0.33597 0.66664 0.0
C1071 C 0.8756 0.33592 0.66671 0.0
C1072 C 0.86123 0.35557 0.69278 0.0
C1073 C 0.87488 0.37595 0.71886 0.0
C1074 C 0.90268 0.37657 0.71932 0.0
C1075 C 0.9168 0.35604 0.69348 0.0
H1076 H 0.61105 0.83022 0.13413 0.0
H1077 H 0.60575 0.87354 0.98326 0.0
H1078 H 0.56748 0.89848 0.01918 0.0
H1079 H 0.53851 0.82632 0.15499 0.0
H1080 H 0.54253 0.82841 0.22741 0.0
H1081 H 0.56767 0.81324 0.18683 0.0
H1082 H 0.60143 0.84535 0.22918 0.0
H1083 H 0.57598 0.86083 0.26852 0.0
H1084 H 0.59605 0.88039 0.22374 0.0
H1085 H 0.53144 0.9218 0.07803 0.0
H1086 H 0.49882 0.93622 0.14697 0.0
H1087 H 0.52789 0.87585 0.25661 0.0
C1088 C 0.6013 0.84441 0.10812 0.0
C1089 C 0.61097 0.84958 0.05556 0.0
C1090 C 0.59814 0.86873 0.02308 0.0
C1091 C 0.57658 0.88322 0.0435 0.0
C1092 C 0.56783 0.87806 0.09626 0.0
C1093 C 0.57951 0.85858 0.12743 0.0
C1094 C 0.56646 0.85637 0.18237 0.0
C1095 C 0.55299 0.82946 0.18814 0.0
C1096 C 0.58617 0.86103 0.22865 0.0
C1097 C 0.54643 0.87846 0.17872 0.0
C1098 C 0.54728 0.8908 0.12879 0.0
C1099 C 0.53056 0.91202 0.11703 0.0
C1100 C 0.5122 0.92029 0.15667 0.0
C1101 C 0.51063 0.90742 0.20767 0.0
C1102 C 0.52835 0.88639 0.21839 0.0
H1103 H 0.42026 0.34227 0.77893 0.0
H1104 H 0.41491 0.40237 0.90387 0.0
H1105 H 0.3886 0.37289 0.96014 0.0
H1106 H 0.35415 0.31388 0.80096 0.0
H1107 H 0.36472 0.28025 0.79193 0.0
H1108 H 0.3816 0.30657 0.75732 0.0
H1109 H 0.42565 0.29146 0.79952 0.0
H1110 H 0.40898 0.26498 0.83378 0.0
H1111 H 0.42829 0.28812 0.87218 0.0
H1112 H 0.36349 0.33781 1.00534 0.0
H1113 H 0.34594 0.29611 0.04205 0.0
H1114 H 0.36872 0.25587 0.89447 0.0
C1115 C 0.41334 0.3492 0.81793 0.0
C1116 C 0.41965 0.37496 0.83632 0.0
C1117 C 0.41049 0.38296 0.88819 0.0
C1118 C 0.39527 0.36634 0.9207 0.0
C1119 C 0.38932 0.34131 0.90171 0.0
C1120 C 0.39833 0.33242 0.85203 0.0
C1121 C 0.39043 0.30366 0.8441 0.0
C1122 C 0.37161 0.30093 0.79569 0.0
C1123 C 0.41479 0.28602 0.837 0.0
C1124 C 0.37626 0.2979 0.89753 0.0
C1125 C 0.37534 0.32026 0.92928 0.0
C1126 C 0.36381 0.3202 0.98067 0.0
C1127 C 0.35361 0.2965 1.00104 0.0
C1128 C 0.35508 0.27303 0.9705 0.0
C1129 C 0.36641 0.27379 0.91781 0.0
H1130 H 0.98762 0.09167 0.68133 0.0
H1131 H 0.01673 0.16722 0.73839 0.0
H1132 H 0.98413 0.19018 0.68347 0.0
H1133 H 0.97125 0.11607 0.54154 0.0
H1134 H 0.94188 0.0965 0.53645 0.0
H1135 H 0.96924 0.08491 0.57647 0.0
H1136 H 0.93893 0.08049 0.66036 0.0
H1137 H 0.91151 0.09187 0.62051 0.0
H1138 H 0.92007 0.10861 0.68249 0.0
H1139 H 0.94841 0.20613 0.62424 0.0
H1140 H 0.90806 0.21334 0.57066 0.0
H1141 H 0.89834 0.12886 0.55438 0.0
C1142 C 0.98728 0.113 0.68163 0.0
C1143 C 1.00487 0.12739 0.71489 0.0
C1144 C 1.00347 0.15541 0.71417 0.0
C1145 C 0.98507 0.16887 0.68254 0.0
C1146 C 0.96787 0.15432 0.65101 0.0
C1147 C 0.96856 0.12704 0.6502 0.0
C1148 C 0.94652 0.11662 0.61437 0.0
C1149 C 0.9579 0.10269 0.56424 0.0
C1150 C 0.92817 0.09832 0.64638 0.0
C1151 C 0.93273 0.14216 0.59817 0.0
C1152 C 0.94609 0.16367 0.61825 0.0
C1153 C 0.93775 0.18944 0.60823 0.0
C1154 C 0.91484 0.19337 0.57763 0.0
C1155 C 0.90008 0.17168 0.55866 0.0
C1156 C 0.90926 0.14575 0.56873 0.0
H1157 H 0.15801 0.75795 0.40062 0.0
H1158 H 0.12972 0.72862 0.55526 0.0
H1159 H 0.10823 0.69151 0.50908 0.0
H1160 H 0.09952 0.74134 0.32556 0.0
H1161 H 0.11636 0.73161 0.26449 0.0
H1162 H 0.13082 0.75574 0.30892 0.0
H1163 H 0.17299 0.72739 0.31693 0.0
H1164 H 0.15881 0.70345 0.27177 0.0
H1165 H 0.17045 0.69341 0.33774 0.0
H1166 H 0.08703 0.65931 0.44723 0.0
H1167 H 0.07283 0.62969 0.37339 0.0
H1168 H 0.11565 0.67711 0.25703 0.0
C1169 C 0.14793 0.74326 0.42469 0.0
C1170 C 0.14586 0.74604 0.48184 0.0
C1171 C 0.13175 0.72683 0.51165 0.0
C1172 C 0.1193 0.70573 0.48571 0.0
C1173 C 0.1209 0.70393 0.42949 0.0
C1174 C 0.13515 0.72185 0.39914 0.0
C1175 C 0.13321 0.71512 0.33895 0.0
C1176 C 0.11915 0.73727 0.30764 0.0
C1177 C 0.1605 0.7095 0.31494 0.0
C1178 C 0.11636 0.69031 0.34072 0.0
C1179 C 0.10897 0.68473 0.39342 0.0
C1180 C 0.09279 0.6634 0.40582 0.0
C1181 C 0.08458 0.64682 0.36359 0.0
C1182 C 0.0928 0.65131 0.30958 0.0
C1183 C 0.10877 0.67348 0.29794 0.0
H1184 H 0.88472 0.6571 0.39781 0.0
H1185 H 0.92125 0.66872 0.55454 0.0
H1186 H 0.96155 0.64598 0.52121 0.0
H1187 H 0.91092 0.59379 0.36707 0.0
H1188 H 0.91589 0.60085 0.29612 0.0
H1189 H 0.89025 0.61749 0.33301 0.0
H1190 H 0.90949 0.66283 0.30549 0.0
H1191 H 0.93485 0.64632 0.26764 0.0
H1192 H 0.94352 0.66981 0.31934 0.0
H1193 H 0.99808 0.62001 0.46819 0.0
H1194 H 0.02815 0.60058 0.39958 0.0
H1195 H 0.96723 0.60826 0.27788 0.0
C1196 C 0.90126 0.65497 0.42513 0.0
C1197 C 0.89983 0.66462 0.47886 0.0
C1198 C 0.92197 0.66164 0.51314 0.0
C1199 C 0.94484 0.64853 0.49457 0.0
C1200 C 0.94541 0.63884 0.44134 0.0
C1201 C 0.92425 0.64249 0.40695 0.0
C1202 C 0.92992 0.63172 0.3508 0.0
C1203 C 0.91059 0.60965 0.33591 0.0
C1204 C 0.92942 0.65399 0.30832 0.0
C1205 C 0.95746 0.62098 0.3587 0.0
C1206 C 0.96614 0.62495 0.41122 0.0
C1207 C 0.99131 0.61685 0.4271 0.0
C1208 C 0.0082 0.60543 0.388 0.0
C1209 C 1.00002 0.6024 0.33338 0.0
C1210 C 0.97404 0.60984 0.31938 0.0
H1211 H 0.10616 0.17966 0.76395 0.0
H1212 H 0.1107 0.11685 0.64498 0.0
H1213 H 0.12813 0.14785 0.57759 0.0
H1214 H 0.08715 0.23185 0.66627 0.0
H1215 H 0.10636 0.25682 0.69968 0.0
H1216 H 0.09315 0.22968 0.73819 0.0
H1217 H 0.13998 0.21891 0.77278 0.0
H1218 H 0.15336 0.24548 0.73291 0.0
H1219 H 0.16574 0.21244 0.72442 0.0
H1220 H 0.14569 0.18424 0.52281 0.0
H1221 H 0.1603 0.22589 0.48094 0.0
H1222 H 0.1461 0.26692 0.63226 0.0
C1223 C 0.11049 0.17266 0.72346 0.0
C1224 C 0.10705 0.14573 0.70984 0.0
C1225 C 0.11324 0.13727 0.65656 0.0
C1226 C 0.12321 0.15475 0.61785 0.0
C1227 C 0.12705 0.18088 0.63259 0.0
C1228 C 0.12072 0.19006 0.68376 0.0
C1229 C 0.12706 0.21936 0.688 0.0
C1230 C 0.10194 0.2354 0.69864 0.0
C1231 C 0.14777 0.22433 0.73216 0.0
C1232 C 0.13809 0.22493 0.6315 0.0
C1233 C 0.13779 0.20228 0.60051 0.0
C1234 C 0.14621 0.2021 0.54671 0.0
C1235 C 0.15467 0.22579 0.52334 0.0
C1236 C 0.15505 0.24939 0.55364 0.0
C1237 C 0.14682 0.24895 0.6087 0.0
H1238 H 0.52221 0.36377 0.80541 0.0
H1239 H 0.52566 0.44762 0.83922 0.0
H1240 H 0.56215 0.43955 0.90358 0.0
H1241 H 0.53575 0.34168 0.94306 0.0
H1242 H 0.55518 0.31386 0.92163 0.0
H1243 H 0.52911 0.32605 0.8789 0.0
H1244 H 0.56184 0.33185 0.79941 0.0
H1245 H 0.58792 0.31941 0.84163 0.0
H1246 H 0.59111 0.35115 0.80942 0.0
H1247 H 0.59999 0.4225 0.96088 0.0
H1248 H 0.63636 0.39809 1.00492 0.0
H1249 H 0.60717 0.32501 0.93776 0.0
C1250 C 0.53062 0.38055 0.82611 0.0
C1251 C 0.52103 0.40648 0.81663 0.0
C1252 C 0.5326 0.42765 0.84533 0.0
C1253 C 0.55331 0.42321 0.88221 0.0
C1254 C 0.56214 0.39743 0.89067 0.0
C1255 C 0.5511 0.37643 0.86347 0.0
C1256 C 0.56442 0.35065 0.87925 0.0
C1257 C 0.54495 0.33196 0.90737 0.0
C1258 C 0.57707 0.3375 0.82947 0.0
C1259 C 0.58509 0.36043 0.91884 0.0
C1260 C 0.58333 0.3875 0.92498 0.0
C1261 C 0.60125 0.4013 0.95688 0.0
C1262 C 0.62179 0.38728 0.98195 0.0
C1263 C 0.62416 0.35966 0.97582 0.0
C1264 C 0.60529 0.34601 0.94455 0.0
H1265 H 0.38933 0.78201 0.02312 0.0
H1266 H 0.33799 0.7455 0.14168 0.0
H1267 H 0.35106 0.77931 0.20917 0.0
H1268 H 0.44132 0.79875 0.11327 0.0
H1269 H 0.44842 0.8297 0.08054 0.0
H1270 H 0.43474 0.80295 0.04191 0.0
H1271 H 0.39611 0.83281 1.01147 0.0
H1272 H 0.40981 0.85974 0.04951 0.0
H1273 H 0.37652 0.84936 0.06197 0.0
H1274 H 0.37232 0.8164 0.26537 0.0
H1275 H 0.3955 0.85555 0.30128 0.0
H1276 H 0.43104 0.86846 0.14373 0.0
C1277 C 0.38065 0.7811 0.06318 0.0
C1278 C 0.3626 0.76095 0.07705 0.0
C1279 C 0.35167 0.76077 0.12989 0.0
C1280 C 0.35916 0.77981 0.16859 0.0
C1281 C 0.3774 0.79908 0.15369 0.0
C1282 C 0.38767 0.80001 0.10187 0.0
C1283 C 0.40657 0.82286 0.0953 0.0
C1284 C 0.4344 0.81296 0.08197 0.0
C1285 C 0.39665 0.84235 0.05201 0.0
C1286 C 0.40542 0.8348 0.15154 0.0
C1287 C 0.38878 0.82064 0.18499 0.0
C1288 C 0.38521 0.82765 0.23927 0.0
C1289 C 0.39857 0.84985 0.25942 0.0
C1290 C 0.415 0.86509 0.22521 0.0
C1291 C 0.41851 0.85726 0.17073 0.0
H1292 H 0.09918 0.32823 0.57097 0.0
H1293 H 0.13216 0.40222 0.516 0.0
H1294 H 0.09477 0.42633 0.55602 0.0
H1295 H 0.02822 0.34758 0.55538 0.0
H1296 H 0.01879 0.33033 0.61628 0.0
H1297 H 0.04597 0.31852 0.57619 0.0
H1298 H 0.07599 0.32027 0.66072 0.0
H1299 H 0.04908 0.3323 0.70099 0.0
H1300 H 0.07922 0.35077 0.69751 0.0
H1301 H 0.05588 0.44315 0.61007 0.0
H1302 H 0.01898 0.45067 0.67407 0.0
H1303 H 0.01209 0.36611 0.69638 0.0
C1304 C 0.09797 0.34939 0.56585 0.0
C1305 C 0.11837 0.36335 0.53969 0.0
C1306 C 0.1166 0.39114 0.53545 0.0
C1307 C 0.09542 0.40504 0.55808 0.0
C1308 C 0.07603 0.39094 0.58528 0.0
C1309 C 0.07699 0.36369 0.58903 0.0
C1310 C 0.05476 0.35358 0.62442 0.0
C1311 C 0.0358 0.3365 0.59108 0.0
C1312 C 0.06541 0.33834 0.67383 0.0
C1313 C 0.04187 0.37937 0.64128 0.0
C1314 C 0.05408 0.4007 0.61758 0.0
C1315 C 0.046 0.42654 0.62853 0.0
C1316 C 0.02502 0.4307 0.66495 0.0
C1317 C 0.01263 0.40914 0.69072 0.0
C1318 C 0.02115 0.38318 0.67786 0.0
H1319 H 0.93317 0.87149 0.38946 0.0
H1320 H 0.89704 0.85927 0.23225 0.0
H1321 H 0.87165 0.8219 0.26953 0.0
H1322 H 0.93992 0.80214 0.42191 0.0
H1323 H 0.93357 0.80688 0.49318 0.0
H1324 H 0.94819 0.83294 0.4539 0.0
H1325 H 0.91091 0.86455 0.48404 0.0
H1326 H 0.89605 0.83844 0.52285 0.0
H1327 H 0.8772 0.85554 0.47182 0.0
H1328 H 0.84875 0.786 0.32629 0.0
H1329 H 0.83528 0.7521 0.39375 0.0
H1330 H 0.88804 0.78691 0.51146 0.0
C1331 C 0.91994 0.8609 0.36293 0.0
C1332 C 0.91696 0.86845 0.30805 0.0
C1333 C 0.89964 0.8539 0.27447 0.0
C1334 C 0.88501 0.83269 0.29537 0.0
C1335 C 0.88808 0.82594 0.3499 0.0
C1336 C 0.90548 0.83939 0.38294 0.0
C1337 C 0.90607 0.82756 0.43943 0.0
C1338 C 0.93357 0.81673 0.45287 0.0
C1339 C 0.89701 0.84773 0.48204 0.0
C1340 C 0.88625 0.8055 0.43317 0.0
C1341 C 0.87577 0.80497 0.38153 0.0
C1342 C 0.85693 0.78623 0.36681 0.0
C1343 C 0.84919 0.76717 0.40544 0.0
C1344 C 0.86055 0.76682 0.45782 0.0
C1345 C 0.87899 0.78658 0.47169 0.0
H1346 H 0.3846 0.6352 0.11427 0.0
H1347 H 0.42198 0.69456 1.01432 0.0
H1348 H 0.46513 0.68275 0.05462 0.0
H1349 H 0.42231 0.64449 0.23308 0.0
H1350 H 0.42409 0.61005 0.25077 0.0
H1351 H 0.39667 0.6223 0.21206 0.0
H1352 H 0.40622 0.58803 0.13687 0.0
H1353 H 0.43372 0.57564 0.17536 0.0
H1354 H 0.43839 0.58671 0.10651 0.0
H1355 H 0.50375 0.66663 0.11201 0.0
H1356 H 0.53461 0.64685 0.178 0.0
H1357 H 0.47283 0.59617 0.23835 0.0
C1358 C 0.40192 0.64557 0.10048 0.0
C1359 C 0.39988 0.66586 0.06098 0.0
C1360 C 0.42303 0.6789 0.04412 0.0
C1361 C 0.44762 0.6723 0.06697 0.0
C1362 C 0.44889 0.65234 0.1062 0.0
C1363 C 0.42663 0.63898 0.12237 0.0
C1364 C 0.4332 0.61853 0.16566 0.0
C1365 C 0.41817 0.62419 0.21852 0.0
C1366 C 0.42754 0.59057 0.14485 0.0
C1367 C 0.46254 0.6229 0.17272 0.0
C1368 C 0.47118 0.64247 0.13781 0.0
C1369 C 0.49718 0.65104 0.13873 0.0
C1370 C 0.51462 0.63963 0.17635 0.0
C1371 C 0.50634 0.61956 0.21254 0.0
C1372 C 0.47993 0.61093 0.21024 0.0
H1373 H 0.64102 0.22628 1.01512 0.0
H1374 H 0.67953 0.27157 0.88914 0.0
H1375 H 0.66334 0.23973 0.82032 0.0
H1376 H 0.65262 0.16061 0.95519 0.0
H1377 H 0.62125 0.1485 0.97799 0.0
H1378 H 0.63808 0.17351 0.01634 0.0
H1379 H 0.59691 0.20344 1.00971 0.0
H1380 H 0.58015 0.17876 0.97052 0.0
H1381 H 0.58377 0.21165 0.94389 0.0
H1382 H 0.63839 0.20453 0.76421 0.0
H1383 H 0.61174 0.16779 0.72802 0.0
H1384 H 0.59015 0.14551 0.89186 0.0
C1385 C 0.6467 0.22919 0.97319 0.0
C1386 C 0.66192 0.25138 0.95775 0.0
C1387 C 0.66849 0.25451 0.90229 0.0
C1388 C 0.65905 0.23663 0.86284 0.0
C1389 C 0.64326 0.21551 0.87947 0.0
C1390 C 0.63759 0.21154 0.93363 0.0
C1391 C 0.61977 0.18784 0.94144 0.0
C1392 C 0.63377 0.16634 0.9747 0.0
C1393 C 0.59361 0.19592 0.96795 0.0
C1394 C 0.61574 0.17922 0.88311 0.0
C1395 C 0.62939 0.19542 0.84782 0.0
C1396 C 0.62793 0.19167 0.79176 0.0
C1397 C 0.61258 0.17076 0.77149 0.0
C1398 C 0.59881 0.15361 0.80696 0.0
C1399 C 0.60044 0.15814 0.86356 0.0
H1400 H 0.2778 0.2436 0.13291 0.0
H1401 H 0.34176 0.23991 0.24938 0.0
H1402 H 0.31305 0.25725 0.32023 0.0
H1403 H 0.25005 0.30458 0.18441 0.0
H1404 H 0.21629 0.29504 0.17516 0.0
H1405 H 0.24142 0.28148 0.13189 0.0
H1406 H 0.22723 0.23424 0.15835 0.0
H1407 H 0.2019 0.24768 0.20127 0.0
H1408 H 0.22579 0.22513 0.22902 0.0
H1409 H 0.27848 0.27674 0.37991 0.0
H1410 H 0.23835 0.29399 0.42472 0.0
H1411 H 0.1957 0.2852 0.27355 0.0
C1412 C 0.28559 0.24618 0.17342 0.0
C1413 C 0.31231 0.24038 0.18492 0.0
C1414 C 0.32159 0.24433 0.23873 0.0
C1415 C 0.30538 0.25423 0.27976 0.0
C1416 C 0.27953 0.26034 0.26725 0.0
C1417 C 0.26946 0.25633 0.21565 0.0
C1418 C 0.24077 0.26493 0.21404 0.0
C1419 C 0.23691 0.28787 0.17399 0.0
C1420 C 0.22287 0.2416 0.19983 0.0
C1421 C 0.23656 0.27399 0.2725 0.0
C1422 C 0.25929 0.2714 0.30232 0.0
C1423 C 0.26046 0.27881 0.357 0.0
C1424 C 0.23765 0.28877 0.38219 0.0
C1425 C 0.21392 0.29107 0.35289 0.0
C1426 C 0.21357 0.28369 0.29719 0.0
H1427 H 0.53179 0.52835 0.39444 0.0
H1428 H 0.53738 0.58946 0.51731 0.0
H1429 H 0.52192 0.55883 0.58627 0.0
H1430 H 0.47293 0.49804 0.44826 0.0
H1431 H 0.48287 0.46449 0.43574 0.0
H1432 H 0.49528 0.4907 0.39358 0.0
H1433 H 0.54292 0.4766 0.41566 0.0
H1434 H 0.53064 0.45021 0.45753 0.0
H1435 H 0.55314 0.47395 0.48551 0.0
H1436 H 0.50305 0.52351 0.64334 0.0
H1437 H 0.48603 0.48289 0.68624 0.0
H1438 H 0.49357 0.44202 0.53263 0.0
C1439 C 0.53011 0.5351 0.43594 0.0
C1440 C 0.5358 0.56176 0.44958 0.0
C1441 C 0.53303 0.5695 0.50475 0.0
C1442 C 0.52418 0.55215 0.54485 0.0
C1443 C 0.5181 0.52651 0.53036 0.0
C1444 C 0.52121 0.51766 0.47759 0.0
C1445 C 0.51302 0.48871 0.47448 0.0
C1446 C 0.48964 0.48529 0.4357 0.0
C1447 C 0.53632 0.47134 0.45727 0.0
C1448 C 0.50495 0.48311 0.53332 0.0
C1449 C 0.50783 0.50543 0.5645 0.0
C1450 C 0.5009 0.50578 0.61945 0.0
C1451 C 0.49106 0.48265 0.64356 0.0
C1452 C 0.48841 0.45923 0.61318 0.0
C1453 C 0.49549 0.45958 0.55717 0.0
H1454 H 0.23349 0.81076 0.69349 0.0
H1455 H 0.18833 0.73981 0.66642 0.0
H1456 H 0.2184 0.71485 0.72595 0.0
H1457 H 0.29916 0.77741 0.69898 0.0
H1458 H 0.31105 0.79903 0.75144 0.0
H1459 H 0.28706 0.81075 0.70334 0.0
H1460 H 0.25666 0.8239 0.78298 0.0
H1461 H 0.28025 0.81155 0.83125 0.0
H1462 H 0.24706 0.7993 0.83191 0.0
H1463 H 0.25033 0.69844 0.7984 0.0
H1464 H 0.28714 0.69006 0.86241 0.0
H1465 H 0.31408 0.77011 0.83849 0.0
C1466 C 0.2307 0.78974 0.69815 0.0
C1467 C 0.20887 0.77709 0.67367 0.0
C1468 C 0.20525 0.74979 0.68329 0.0
C1469 C 0.22208 0.73547 0.71777 0.0
C1470 C 0.24279 0.74856 0.7429 0.0
C1471 C 0.24766 0.77493 0.73241 0.0
C1472 C 0.27127 0.78417 0.76526 0.0
C1473 C 0.29346 0.79338 0.7275 0.0
C1474 C 0.26333 0.80603 0.8052 0.0
C1475 C 0.2788 0.75898 0.7955 0.0
C1476 C 0.26174 0.73881 0.783 0.0
C1477 C 0.26399 0.71405 0.80792 0.0
C1478 C 0.28476 0.7095 0.84489 0.0
C1479 C 0.30337 0.72941 0.85598 0.0
C1480 C 0.30004 0.75452 0.83116 0.0
H1481 H 1.00233 0.56599 0.05005 0.0
H1482 H 0.05944 0.52446 0.14906 0.0
H1483 H 0.05167 0.48399 0.09501 0.0
H1484 H 0.95672 0.512 0.03466 0.0
H1485 H 0.94832 0.52016 0.96558 0.0
H1486 H 0.95849 0.54569 1.01169 0.0
H1487 H 0.99516 0.55939 0.94483 0.0
H1488 H 0.98515 0.5338 0.89867 0.0
H1489 H 0.01863 0.53513 0.92225 0.0
H1490 H 0.03785 0.44832 0.02997 0.0
H1491 H 0.01839 0.41896 0.96228 0.0
H1492 H 0.96914 0.48281 0.90335 0.0
C1493 C 0.01322 0.54836 0.06055 0.0
C1494 C 0.03159 0.54847 0.10418 0.0
C1495 C 0.04532 0.52495 0.11626 0.0
C1496 C 0.04102 0.50189 0.08553 0.0
C1497 C 0.0229 0.50257 0.04272 0.0
C1498 C 0.00911 0.52519 0.03032 0.0
C1499 C 0.99053 0.52056 0.98254 0.0
C1500 C 0.96181 0.52485 0.99965 0.0
C1501 C 0.99781 0.53828 0.93421 0.0
C1502 C 0.99591 0.49166 0.96985 0.0
C1503 C 0.01477 0.48188 1.00515 0.0
C1504 C 0.02311 0.45584 1.00233 0.0
C1505 C 0.01181 0.43926 0.96336 0.0
C1506 C 0.99213 0.44833 0.92688 0.0
C1507 C 0.98423 0.47516 0.93001 0.0
H1508 H 0.69552 0.75665 0.81064 0.0
H1509 H 0.73457 0.82123 0.89236 0.0
H1510 H 0.77433 0.81314 0.83616 0.0
H1511 H 0.75318 0.71373 0.80118 0.0
H1512 H 0.74398 0.70078 0.73583 0.0
H1513 H 0.71901 0.71164 0.78255 0.0
H1514 H 0.70053 0.743 0.70898 0.0
H1515 H 0.72571 0.73257 0.6623 0.0
H1516 H 0.72187 0.76703 0.67814 0.0
H1517 H 0.80773 0.80057 0.76598 0.0
H1518 H 0.83702 0.77984 0.70026 0.0
H1519 H 0.77861 0.71975 0.66685 0.0
C1520 C 0.71259 0.76893 0.81721 0.0
C1521 C 0.71196 0.78969 0.85601 0.0
C1522 C 0.73465 0.80519 0.86342 0.0
C1523 C 0.75718 0.80082 0.83122 0.0
C1524 C 0.7568 0.78064 0.79238 0.0
C1525 C 0.73534 0.7645 0.78614 0.0
C1526 C 0.74036 0.74365 0.74259 0.0
C1527 C 0.73906 0.71579 0.767 0.0
C1528 C 0.72096 0.74675 0.6952 0.0
C1529 C 0.76818 0.75052 0.72492 0.0
C1530 C 0.77683 0.77231 0.75372 0.0
C1531 C 0.80127 0.78329 0.74409 0.0
C1532 C 0.81777 0.77124 0.70616 0.0
C1533 C 0.81048 0.74784 0.67821 0.0
C1534 C 0.78489 0.73762 0.6869 0.0
H1535 H 0.73914 0.28026 0.13751 0.0
H1536 H 0.67605 0.28442 0.25571 0.0
H1537 H 0.70583 0.2693 0.32713 0.0
H1538 H 0.76935 0.22208 0.19071 0.0
H1539 H 0.8028 0.23257 0.18084 0.0
H1540 H 0.77718 0.24521 0.13754 0.0
H1541 H 0.78995 0.29299 0.16272 0.0
H1542 H 0.81584 0.28048 0.20553 0.0
H1543 H 0.7914 0.30241 0.23316 0.0
H1544 H 0.74083 0.24973 0.38597 0.0
H1545 H 0.78134 0.23259 0.4298 0.0
H1546 H 0.82329 0.24277 0.27817 0.0
C1547 C 0.73185 0.27856 0.17862 0.0
C1548 C 0.70503 0.28354 0.19052 0.0
C1549 C 0.69634 0.28062 0.245 0.0
C1550 C 0.71314 0.27195 0.28626 0.0
C1551 C 0.73904 0.26629 0.27332 0.0
C1552 C 0.74865 0.26991 0.22121 0.0
C1553 C 0.77756 0.26211 0.2193 0.0
C1554 C 0.78197 0.23913 0.17974 0.0
C1555 C 0.7947 0.28592 0.20429 0.0
C1556 C 0.78228 0.25348 0.27791 0.0
C1557 C 0.75967 0.2558 0.30821 0.0
C1558 C 0.75881 0.2481 0.3628 0.0
C1559 C 0.78182 0.23821 0.3874 0.0
C1560 C 0.80545 0.23638 0.35763 0.0
C1561 C 0.80551 0.24408 0.30213 0.0
H1562 H 0.03184 0.07377 1.00297 0.0
H1563 H 0.04162 0.03154 0.85146 0.0
H1564 H 0.02357 0.99139 0.89477 0.0
H1565 H 0.04989 0.01909 0.09174 0.0
H1566 H 0.02637 0.02756 0.14354 0.0
H1567 H 0.04006 0.05293 0.10094 0.0
H1568 H 0.99323 0.06745 0.07318 0.0
H1569 H 0.97939 0.04198 0.11534 0.0
H1570 H 0.97106 0.04364 0.04433 0.0
H1571 H 1.00342 0.95681 0.95237 0.0
H1572 H 0.98587 0.92748 0.02172 0.0
H1573 H 0.98934 0.99042 0.1409 0.0
C1574 C 0.0303 0.05599 0.97896 0.0
C1575 C 0.03825 0.05577 0.92355 0.0
C1576 C 0.03592 0.03216 0.89373 0.0
C1577 C 0.02552 1.00933 0.91807 0.0
C1578 C 0.01763 0.01033 0.97244 0.0
C1579 C 0.02013 0.03293 1.00285 0.0
C1580 C 0.01055 0.02836 0.06094 0.0
C1581 C 0.03306 0.03221 0.1017 0.0
C1582 C 0.98716 0.04644 0.07422 0.0
C1583 C 1.00208 0.99959 0.05845 0.0
C1584 C 1.00632 0.9899 1.00662 0.0
C1585 C 1.00024 0.96415 0.99305 0.0
C1586 C 0.99021 0.94758 0.03329 0.0
C1587 C 0.98624 0.95631 0.08751 0.0
C1588 C 0.99192 0.98302 0.10008 0.0
H1589 H 0.54689 0.02207 0.62689 0.0
H1590 H 0.51018 0.09149 0.55736 0.0
H1591 H 0.48707 0.06384 0.49078 0.0
H1592 H 0.55774 0.98816 0.50453 0.0
H1593 H 0.54975 0.95578 0.52967 0.0
H1594 H 0.56189 0.98052 0.5755 0.0
H1595 H 0.52087 0.97486 0.63629 0.0
H1596 H 0.50874 0.94984 0.591 0.0
H1597 H 0.48863 0.97806 0.60679 0.0
H1598 H 0.47048 0.02889 0.42529 0.0
H1599 H 0.45922 0.98878 0.37253 0.0
H1600 H 0.50546 0.94171 0.48434 0.0
C1601 C 0.53338 0.03129 0.5987 0.0
C1602 C 0.53026 0.05907 0.59796 0.0
C1603 C 0.51285 0.07032 0.55923 0.0
C1604 C 0.49963 0.05475 0.52091 0.0
C1605 C 0.50367 0.02762 0.52144 0.0
C1606 C 0.51976 0.01586 0.55991 0.0
C1607 C 0.52096 0.98624 0.55053 0.0
C1608 C 0.54927 0.97715 0.53939 0.0
C1609 C 0.50909 0.97137 0.59904 0.0
C1610 C 0.50377 0.98343 0.50017 0.0
C1611 C 0.49388 1.00751 0.48408 0.0
C1612 C 0.47795 0.00987 0.43791 0.0
C1613 C 0.47172 0.98701 0.40789 0.0
C1614 C 0.48138 0.96204 0.42398 0.0
C1615 C 0.49767 0.96047 0.47078 0.0
loop_
_geom_bond_atom_site_label_1
_geom_bond_atom_site_label_2
_geom_bond_distance
_geom_bond_site_symmetry_2
_ccdc_geom_bond_type
Tb0 O3 2.453 . S
Tb0 O4 2.596 . S
Tb0 O5 2.374 . S
Tb0 O13 2.343 . S
Tb0 O15 2.353 . S
Tb0 O17 2.427 . S
Tb0 O18 2.513 . S
C1 O5 1.251 . S
C1 O7 1.263 . S
Tb2 O4 2.343 . S
Tb2 O7 2.353 . S
Tb2 O10 2.427 . S
Tb2 O11 2.513 . S
Tb2 O12 2.453 1_554 S
Tb2 O13 2.596 . S
Tb2 O14 2.374 1_554 S
O3 Tb0 2.453 . S
O3 C19 1.245 . S
O4 Tb0 2.596 . S
O4 Tb2 2.343 . S
O4 C19 1.259 . S
O5 Tb0 2.374 . S
O5 C1 1.251 . S
C6 O10 1.275 . S
C6 O11 1.246 . S
O7 C1 1.263 . S
O7 Tb2 2.353 . S
C8 O12 1.239 1_554 S
C8 O13 1.269 . S
C9 O14 1.250 1_554 S
C9 O15 1.263 . S
O10 Tb2 2.427 . S
O10 C6 1.275 . S
O11 Tb2 2.513 . S
O11 C6 1.246 . S
O12 Tb2 2.453 1_556 S
O12 C8 1.239 1_556 S
O13 Tb0 2.343 . S
O13 Tb2 2.596 . S
O13 C8 1.269 . S
O14 Tb2 2.374 1_556 S
O14 C9 1.250 1_556 S
O15 Tb0 2.353 . S
O15 C9 1.263 . S
C16 O17 1.275 . S
C16 O18 1.246 . S
O17 Tb0 2.427 . S
O17 C16 1.275 . S
O18 Tb0 2.513 . S
O18 C16 1.246 . S
C19 O3 1.245 . S
C19 O4 1.259 . S
Tb20 O23 2.453 . S
Tb20 O24 2.596 . S
Tb20 O25 2.374 . S
Tb20 O33 2.343 . S
Tb20 O35 2.353 . S
Tb20 O37 2.427 . S
Tb20 O38 2.513 . S
C21 O25 1.251 . S
C21 O27 1.263 . S
Tb22 O24 2.343 . S
Tb22 O27 2.353 . S
Tb22 O30 2.427 . S
Tb22 O31 2.513 . S
Tb22 O32 2.453 . S
Tb22 O33 2.596 . S
Tb22 O34 2.374 . S
O23 Tb20 2.453 . S
O23 C39 1.245 . S
O24 Tb20 2.596 . S
O24 Tb22 2.343 . S
O24 C39 1.259 . S
O25 Tb20 2.374 . S
O25 C21 1.251 . S
C26 O30 1.275 . S
C26 O31 1.246 . S
O27 C21 1.263 . S
O27 Tb22 2.353 . S
C28 O32 1.245 . S
C28 O33 1.259 . S
C29 O34 1.250 . S
C29 O35 1.263 . S
O30 Tb22 2.427 . S
O30 C26 1.275 . S
O31 Tb22 2.513 . S
O31 C26 1.246 . S
O32 Tb22 2.453 . S
O32 C28 1.245 . S
O33 Tb20 2.343 . S
O33 Tb22 2.596 . S
O33 C28 1.259 . S
O34 Tb22 2.374 . S
O34 C29 1.250 . S
O35 Tb20 2.353 . S
O35 C29 1.263 . S
C36 O37 1.275 . S
C36 O38 1.246 . S
O37 Tb20 2.427 . S
O37 C36 1.275 . S
O38 Tb20 2.513 . S
O38 C36 1.246 . S
C39 O23 1.245 . S
C39 O24 1.259 . S
Tb40 O43 2.453 . S
Tb40 O44 2.596 . S
Tb40 O45 2.374 . S
Tb40 O53 2.343 . S
Tb40 O55 2.353 . S
Tb40 O57 2.427 . S
Tb40 O58 2.513 . S
C41 O45 1.251 . S
C41 O47 1.263 . S
Tb42 O44 2.343 . S
Tb42 O47 2.353 . S
Tb42 O50 2.427 . S
Tb42 O51 2.513 . S
Tb42 O52 2.453 . S
Tb42 O53 2.596 . S
Tb42 O54 2.374 . S
O43 Tb40 2.453 . S
O43 C59 1.245 . S
O44 Tb40 2.596 . S
O44 Tb42 2.343 . S
O44 C59 1.259 . S
O45 Tb40 2.374 . S
O45 C41 1.251 . S
C46 O50 1.275 . S
C46 O51 1.246 . S
O47 C41 1.263 . S
O47 Tb42 2.353 . S
C48 O52 1.245 . S
C48 O53 1.259 . S
C49 O54 1.250 . S
C49 O55 1.263 . S
O50 Tb42 2.427 . S
O50 C46 1.275 . S
O51 Tb42 2.513 . S
O51 C46 1.246 . S
O52 Tb42 2.453 . S
O52 C48 1.245 . S
O53 Tb40 2.343 . S
O53 Tb42 2.596 . S
O53 C48 1.259 . S
O54 Tb42 2.374 . S
O54 C49 1.250 . S
O55 Tb40 2.353 . S
O55 C49 1.263 . S
C56 O57 1.275 . S
C56 O58 1.246 . S
O57 Tb40 2.427 . S
O57 C56 1.275 . S
O58 Tb40 2.513 . S
O58 C56 1.246 . S
C59 O43 1.245 . S
C59 O44 1.259 . S
Tb60 O63 2.453 . S
Tb60 O64 2.596 . S
Tb60 O65 2.374 . S
Tb60 O73 2.343 . S
Tb60 O75 2.353 . S
Tb60 O77 2.427 . S
Tb60 O78 2.513 . S
C61 O65 1.251 . S
C61 O67 1.263 . S
Tb62 O64 2.343 . S
Tb62 O67 2.353 . S
Tb62 O70 2.427 . S
Tb62 O71 2.513 . S
Tb62 O72 2.453 . S
Tb62 O73 2.596 . S
Tb62 O74 2.374 . S
O63 Tb60 2.453 . S
O63 C79 1.245 . S
O64 Tb60 2.596 . S
O64 Tb62 2.343 . S
O64 C79 1.259 . S
O65 Tb60 2.374 . S
O65 C61 1.251 . S
C66 O70 1.275 . S
C66 O71 1.246 . S
O67 C61 1.263 . S
O67 Tb62 2.353 . S
C68 O72 1.245 . S
C68 O73 1.259 . S
C69 O74 1.250 . S
C69 O75 1.263 . S
O70 Tb62 2.427 . S
O70 C66 1.275 . S
O71 Tb62 2.513 . S
O71 C66 1.246 . S
O72 Tb62 2.453 . S
O72 C68 1.245 . S
O73 Tb60 2.343 . S
O73 Tb62 2.596 . S
O73 C68 1.259 . S
O74 Tb62 2.374 . S
O74 C69 1.250 . S
O75 Tb60 2.353 . S
O75 C69 1.263 . S
C76 O77 1.275 . S
C76 O78 1.246 . S
O77 Tb60 2.427 . S
O77 C76 1.275 . S
O78 Tb60 2.513 . S
O78 C76 1.246 . S
C79 O63 1.245 . S
C79 O64 1.259 . S
Tb80 O83 2.453 1_556 S
Tb80 O84 2.596 . S
Tb80 O85 2.374 1_556 S
Tb80 O93 2.343 . S
Tb80 O95 2.353 . S
Tb80 O97 2.427 . S
Tb80 O98 2.513 . S
C81 O85 1.251 1_556 S
C81 O87 1.263 . S
Tb82 O84 2.343 . S
Tb82 O87 2.353 . S
Tb82 O90 2.427 . S
Tb82 O91 2.513 . S
Tb82 O92 2.453 . S
Tb82 O93 2.596 . S
Tb82 O94 2.374 . S
O83 Tb80 2.453 1_554 S
O83 C99 1.239 1_554 S
O84 Tb80 2.596 . S
O84 Tb82 2.343 . S
O84 C99 1.269 . S
O85 Tb80 2.374 1_554 S
O85 C81 1.251 1_554 S
C86 O90 1.275 . S
C86 O91 1.246 . S
O87 C81 1.263 . S
O87 Tb82 2.353 . S
C88 O92 1.245 . S
C88 O93 1.259 . S
C89 O94 1.250 . S
C89 O95 1.263 . S
O90 Tb82 2.427 . S
O90 C86 1.275 . S
O91 Tb82 2.513 . S
O91 C86 1.246 . S
O92 Tb82 2.453 . S
O92 C88 1.245 . S
O93 Tb80 2.343 . S
O93 Tb82 2.596 . S
O93 C88 1.259 . S
O94 Tb82 2.374 . S
O94 C89 1.250 . S
O95 Tb80 2.353 . S
O95 C89 1.263 . S
C96 O97 1.275 . S
C96 O98 1.246 . S
O97 Tb80 2.427 . S
O97 C96 1.275 . S
O98 Tb80 2.513 . S
O98 C96 1.246 . S
C99 O83 1.239 1_556 S
C99 O84 1.269 . S
Tb100 O103 2.453 . S
Tb100 O104 2.596 . S
Tb100 O105 2.374 . S
Tb100 O113 2.343 . S
Tb100 O115 2.353 . S
Tb100 O117 2.427 . S
Tb100 O118 2.513 . S
C101 O105 1.251 . S
C101 O107 1.263 . S
Tb102 O104 2.343 . S
Tb102 O107 2.353 . S
Tb102 O110 2.427 . S
Tb102 O111 2.513 . S
Tb102 O112 2.453 . S
Tb102 O113 2.596 . S
Tb102 O114 2.374 . S
O103 Tb100 2.453 . S
O103 C119 1.245 . S
O104 Tb100 2.596 . S
O104 Tb102 2.343 . S
O104 C119 1.259 . S
O105 Tb100 2.374 . S
O105 C101 1.251 . S
C106 O110 1.275 . S
C106 O111 1.246 . S
O107 C101 1.263 . S
O107 Tb102 2.353 . S
C108 O112 1.245 . S
C108 O113 1.259 . S
C109 O114 1.250 . S
C109 O115 1.263 . S
O110 Tb102 2.427 . S
O110 C106 1.275 . S
O111 Tb102 2.513 . S
O111 C106 1.246 . S
O112 Tb102 2.453 . S
O112 C108 1.245 . S
O113 Tb100 2.343 . S
O113 Tb102 2.596 . S
O113 C108 1.259 . S
O114 Tb102 2.374 . S
O114 C109 1.250 . S
O115 Tb100 2.353 . S
O115 C109 1.263 . S
C116 O117 1.275 . S
C116 O118 1.246 . S
O117 Tb100 2.427 . S
O117 C116 1.275 . S
O118 Tb100 2.513 . S
O118 C116 1.246 . S
C119 O103 1.245 . S
C119 O104 1.259 . S
Tb120 O123 2.453 . S
Tb120 O124 2.596 . S
Tb120 O125 2.374 . S
Tb120 O133 2.343 . S
Tb120 O135 2.353 . S
Tb120 O137 2.427 . S
Tb120 O138 2.513 . S
C121 O125 1.251 . S
C121 O127 1.263 . S
Tb122 O124 2.343 . S
Tb122 O127 2.353 . S
Tb122 O130 2.427 . S
Tb122 O131 2.513 . S
Tb122 O132 2.453 . S
Tb122 O133 2.596 . S
Tb122 O134 2.374 . S
O123 Tb120 2.453 . S
O123 C139 1.245 . S
O124 Tb120 2.596 . S
O124 Tb122 2.343 . S
O124 C139 1.259 . S
O125 Tb120 2.374 . S
O125 C121 1.251 . S
C126 O130 1.275 . S
C126 O131 1.246 . S
O127 C121 1.263 . S
O127 Tb122 2.353 . S
C128 O132 1.245 . S
C128 O133 1.259 . S
C129 O134 1.250 . S
C129 O135 1.263 . S
O130 Tb122 2.427 . S
O130 C126 1.275 . S
O131 Tb122 2.513 . S
O131 C126 1.246 . S
O132 Tb122 2.453 . S
O132 C128 1.245 . S
O133 Tb120 2.343 . S
O133 Tb122 2.596 . S
O133 C128 1.259 . S
O134 Tb122 2.374 . S
O134 C129 1.250 . S
O135 Tb120 2.353 . S
O135 C129 1.263 . S
C136 O137 1.275 . S
C136 O138 1.246 . S
O137 Tb120 2.427 . S
O137 C136 1.275 . S
O138 Tb120 2.513 . S
O138 C136 1.246 . S
C139 O123 1.245 . S
C139 O124 1.259 . S
Tb140 O143 2.453 . S
Tb140 O144 2.596 . S
Tb140 O145 2.374 . S
Tb140 O153 2.343 . S
Tb140 O155 2.353 . S
Tb140 O157 2.427 . S
Tb140 O158 2.513 . S
C141 O145 1.251 . S
C141 O147 1.263 . S
Tb142 O144 2.343 . S
Tb142 O147 2.353 . S
Tb142 O150 2.427 . S
Tb142 O151 2.513 . S
Tb142 O152 2.453 . S
Tb142 O153 2.596 . S
Tb142 O154 2.374 . S
O143 Tb140 2.453 . S
O143 C159 1.245 . S
O144 Tb140 2.596 . S
O144 Tb142 2.343 . S
O144 C159 1.259 . S
O145 Tb140 2.374 . S
O145 C141 1.251 . S
C146 O150 1.275 . S
C146 O151 1.246 . S
O147 C141 1.263 . S
O147 Tb142 2.353 . S
C148 O152 1.245 . S
C148 O153 1.259 . S
C149 O154 1.250 . S
C149 O155 1.263 . S
O150 Tb142 2.427 . S
O150 C146 1.275 . S
O151 Tb142 2.513 . S
O151 C146 1.246 . S
O152 Tb142 2.453 . S
O152 C148 1.245 . S
O153 Tb140 2.343 . S
O153 Tb142 2.596 . S
O153 C148 1.259 . S
O154 Tb142 2.374 . S
O154 C149 1.250 . S
O155 Tb140 2.353 . S
O155 C149 1.263 . S
C156 O157 1.275 . S
C156 O158 1.246 . S
O157 Tb140 2.427 . S
O157 C156 1.275 . S
O158 Tb140 2.513 . S
O158 C156 1.246 . S
C159 O143 1.245 . S
C159 O144 1.259 . S
Tb160 O163 2.453 . S
Tb160 O164 2.596 . S
Tb160 O165 2.374 . S
Tb160 O173 2.343 . S
Tb160 O175 2.353 . S
Tb160 O177 2.427 . S
Tb160 O178 2.513 . S
C161 O165 1.251 . S
C161 O167 1.263 . S
Tb162 O164 2.343 . S
Tb162 O167 2.353 . S
Tb162 O170 2.427 . S
Tb162 O171 2.513 . S
Tb162 O172 2.453 . S
Tb162 O173 2.596 . S
Tb162 O174 2.374 . S
O163 Tb160 2.453 . S
O163 C179 1.245 . S
O164 Tb160 2.596 . S
O164 Tb162 2.343 . S
O164 C179 1.259 . S
O165 Tb160 2.374 . S
O165 C161 1.251 . S
C166 O170 1.275 . S
C166 O171 1.246 . S
O167 C161 1.263 . S
O167 Tb162 2.353 . S
C168 O172 1.245 . S
C168 O173 1.259 . S
C169 O174 1.250 . S
C169 O175 1.263 . S
O170 Tb162 2.427 . S
O170 C166 1.275 . S
O171 Tb162 2.513 . S
O171 C166 1.246 . S
O172 Tb162 2.453 . S
O172 C168 1.245 . S
O173 Tb160 2.343 . S
O173 Tb162 2.596 . S
O173 C168 1.259 . S
O174 Tb162 2.374 . S
O174 C169 1.250 . S
O175 Tb160 2.353 . S
O175 C169 1.263 . S
C176 O177 1.275 . S
C176 O178 1.246 . S
O177 Tb160 2.427 . S
O177 C176 1.275 . S
O178 Tb160 2.513 . S
O178 C176 1.246 . S
C179 O163 1.245 . S
C179 O164 1.259 . S
Tb180 O183 2.453 . S
Tb180 O184 2.596 . S
Tb180 O185 2.374 . S
Tb180 O193 2.343 . S
Tb180 O195 2.353 . S
Tb180 O197 2.427 . S
Tb180 O198 2.513 . S
C181 O185 1.251 . S
C181 O187 1.263 . S
Tb182 O184 2.343 . S
Tb182 O187 2.353 . S
Tb182 O190 2.427 . S
Tb182 O191 2.513 . S
Tb182 O192 2.453 . S
Tb182 O193 2.596 . S
Tb182 O194 2.374 . S
O183 Tb180 2.453 . S
O183 C199 1.245 . S
O184 Tb180 2.596 . S
O184 Tb182 2.343 . S
O184 C199 1.259 . S
O185 Tb180 2.374 . S
O185 C181 1.251 . S
C186 O190 1.275 . S
C186 O191 1.246 . S
O187 C181 1.263 . S
O187 Tb182 2.353 . S
C188 O192 1.245 . S
C188 O193 1.259 . S
C189 O194 1.250 . S
C189 O195 1.263 . S
O190 Tb182 2.427 . S
O190 C186 1.275 . S
O191 Tb182 2.513 . S
O191 C186 1.246 . S
O192 Tb182 2.453 . S
O192 C188 1.245 . S
O193 Tb180 2.343 . S
O193 Tb182 2.596 . S
O193 C188 1.259 . S
O194 Tb182 2.374 . S
O194 C189 1.250 . S
O195 Tb180 2.353 . S
O195 C189 1.263 . S
C196 O197 1.275 . S
C196 O198 1.246 . S
O197 Tb180 2.427 . S
O197 C196 1.275 . S
O198 Tb180 2.513 . S
O198 C196 1.246 . S
C199 O183 1.245 . S
C199 O184 1.259 . S
Tb200 O203 2.453 . S
Tb200 O204 2.596 . S
Tb200 O205 2.374 . S
Tb200 O213 2.343 . S
Tb200 O215 2.353 . S
Tb200 O217 2.427 . S
Tb200 O218 2.513 . S
C201 O205 1.251 . S
C201 O207 1.263 . S
Tb202 O204 2.343 . S
Tb202 O207 2.353 . S
Tb202 O210 2.427 . S
Tb202 O211 2.513 . S
Tb202 O212 2.453 1_554 S
Tb202 O213 2.596 . S
Tb202 O214 2.374 1_554 S
O203 Tb200 2.453 . S
O203 C219 1.245 . S
O204 Tb200 2.596 . S
O204 Tb202 2.343 . S
O204 C219 1.259 . S
O205 Tb200 2.374 . S
O205 C201 1.251 . S
C206 O210 1.275 . S
C206 O211 1.246 . S
O207 C201 1.263 . S
O207 Tb202 2.353 . S
C208 O212 1.239 1_554 S
C208 O213 1.269 . S
C209 O214 1.250 1_554 S
C209 O215 1.263 . S
O210 Tb202 2.427 . S
O210 C206 1.275 . S
O211 Tb202 2.513 . S
O211 C206 1.246 . S
O212 Tb202 2.453 1_556 S
O212 C208 1.239 1_556 S
O213 Tb200 2.343 . S
O213 Tb202 2.596 . S
O213 C208 1.269 . S
O214 Tb202 2.374 1_556 S
O214 C209 1.250 1_556 S
O215 Tb200 2.353 . S
O215 C209 1.263 . S
C216 O217 1.275 . S
C216 O218 1.246 . S
O217 Tb200 2.427 . S
O217 C216 1.275 . S
O218 Tb200 2.513 . S
O218 C216 1.246 . S
C219 O203 1.245 . S
C219 O204 1.259 . S
Tb220 O223 2.453 . S
Tb220 O224 2.596 . S
Tb220 O225 2.374 . S
Tb220 O233 2.343 . S
Tb220 O235 2.353 . S
Tb220 O237 2.427 . S
Tb220 O238 2.513 . S
C221 O225 1.251 . S
C221 O227 1.263 . S
Tb222 O224 2.343 . S
Tb222 O227 2.353 . S
Tb222 O230 2.427 . S
Tb222 O231 2.513 . S
Tb222 O232 2.453 . S
Tb222 O233 2.596 . S
Tb222 O234 2.374 . S
O223 Tb220 2.453 . S
O223 C239 1.245 . S
O224 Tb220 2.596 . S
O224 Tb222 2.343 . S
O224 C239 1.259 . S
O225 Tb220 2.374 . S
O225 C221 1.251 . S
C226 O230 1.275 . S
C226 O231 1.246 . S
O227 C221 1.263 . S
O227 Tb222 2.353 . S
C228 O232 1.245 . S
C228 O233 1.259 . S
C229 O234 1.250 . S
C229 O235 1.263 . S
O230 Tb222 2.427 . S
O230 C226 1.275 . S
O231 Tb222 2.513 . S
O231 C226 1.246 . S
O232 Tb222 2.453 . S
O232 C228 1.245 . S
O233 Tb220 2.343 . S
O233 Tb222 2.596 . S
O233 C228 1.259 . S
O234 Tb222 2.374 . S
O234 C229 1.250 . S
O235 Tb220 2.353 . S
O235 C229 1.263 . S
C236 O237 1.275 . S
C236 O238 1.246 . S
O237 Tb220 2.427 . S
O237 C236 1.275 . S
O238 Tb220 2.513 . S
O238 C236 1.246 . S
C239 O223 1.245 . S
C239 O224 1.259 . S
Tb240 O243 2.453 . S
Tb240 O244 2.596 . S
Tb240 O245 2.374 . S
Tb240 O253 2.343 . S
Tb240 O255 2.353 . S
Tb240 O257 2.427 . S
Tb240 O258 2.513 . S
C241 O245 1.251 . S
C241 O247 1.263 . S
Tb242 O244 2.343 . S
Tb242 O247 2.353 . S
Tb242 O250 2.427 . S
Tb242 O251 2.513 . S
Tb242 O252 2.453 . S
Tb242 O253 2.596 . S
Tb242 O254 2.374 . S
O243 Tb240 2.453 . S
O243 C259 1.245 . S
O244 Tb240 2.596 . S
O244 Tb242 2.343 . S
O244 C259 1.259 . S
O245 Tb240 2.374 . S
O245 C241 1.251 . S
C246 O250 1.275 . S
C246 O251 1.246 . S
O247 C241 1.263 . S
O247 Tb242 2.353 . S
C248 O252 1.245 . S
C248 O253 1.259 . S
C249 O254 1.250 . S
C249 O255 1.263 . S
O250 Tb242 2.427 . S
O250 C246 1.275 . S
O251 Tb242 2.513 . S
O251 C246 1.246 . S
O252 Tb242 2.453 . S
O252 C248 1.245 . S
O253 Tb240 2.343 . S
O253 Tb242 2.596 . S
O253 C248 1.259 . S
O254 Tb242 2.374 . S
O254 C249 1.250 . S
O255 Tb240 2.353 . S
O255 C249 1.263 . S
C256 O257 1.275 . S
C256 O258 1.246 . S
O257 Tb240 2.427 . S
O257 C256 1.275 . S
O258 Tb240 2.513 . S
O258 C256 1.246 . S
C259 O243 1.245 . S
C259 O244 1.259 . S
Tb260 O263 2.453 . S
Tb260 O264 2.596 . S
Tb260 O265 2.374 . S
Tb260 O273 2.343 . S
Tb260 O275 2.353 . S
Tb260 O277 2.427 . S
Tb260 O278 2.513 . S
C261 O265 1.251 . S
C261 O267 1.263 . S
Tb262 O264 2.343 . S
Tb262 O267 2.353 . S
Tb262 O270 2.427 . S
Tb262 O271 2.513 . S
Tb262 O272 2.453 . S
Tb262 O273 2.596 . S
Tb262 O274 2.374 . S
O263 Tb260 2.453 . S
O263 C279 1.245 . S
O264 Tb260 2.596 . S
O264 Tb262 2.343 . S
O264 C279 1.259 . S
O265 Tb260 2.374 . S
O265 C261 1.251 . S
C266 O270 1.275 . S
C266 O271 1.246 . S
O267 C261 1.263 . S
O267 Tb262 2.353 . S
C268 O272 1.245 . S
C268 O273 1.259 . S
C269 O274 1.250 . S
C269 O275 1.263 . S
O270 Tb262 2.427 . S
O270 C266 1.275 . S
O271 Tb262 2.513 . S
O271 C266 1.246 . S
O272 Tb262 2.453 . S
O272 C268 1.245 . S
O273 Tb260 2.343 . S
O273 Tb262 2.596 . S
O273 C268 1.259 . S
O274 Tb262 2.374 . S
O274 C269 1.250 . S
O275 Tb260 2.353 . S
O275 C269 1.263 . S
C276 O277 1.275 . S
C276 O278 1.246 . S
O277 Tb260 2.427 . S
O277 C276 1.275 . S
O278 Tb260 2.513 . S
O278 C276 1.246 . S
C279 O263 1.245 . S
C279 O264 1.259 . S
Tb280 O283 2.453 1_556 S
Tb280 O284 2.596 . S
Tb280 O285 2.374 1_556 S
Tb280 O293 2.343 . S
Tb280 O295 2.353 . S
Tb280 O297 2.427 . S
Tb280 O298 2.513 . S
C281 O285 1.251 1_556 S
C281 O287 1.263 . S
Tb282 O284 2.343 . S
Tb282 O287 2.353 . S
Tb282 O290 2.427 . S
Tb282 O291 2.513 . S
Tb282 O292 2.453 . S
Tb282 O293 2.596 . S
Tb282 O294 2.374 . S
O283 Tb280 2.453 1_554 S
O283 C299 1.239 1_554 S
O284 Tb280 2.596 . S
O284 Tb282 2.343 . S
O284 C299 1.269 . S
O285 Tb280 2.374 1_554 S
O285 C281 1.251 1_554 S
C286 O290 1.275 . S
C286 O291 1.246 . S
O287 C281 1.263 . S
O287 Tb282 2.353 . S
C288 O292 1.245 . S
C288 O293 1.259 . S
C289 O294 1.250 . S
C289 O295 1.263 . S
O290 Tb282 2.427 . S
O290 C286 1.275 . S
O291 Tb282 2.513 . S
O291 C286 1.246 . S
O292 Tb282 2.453 . S
O292 C288 1.245 . S
O293 Tb280 2.343 . S
O293 Tb282 2.596 . S
O293 C288 1.259 . S
O294 Tb282 2.374 . S
O294 C289 1.250 . S
O295 Tb280 2.353 . S
O295 C289 1.263 . S
C296 O297 1.275 . S
C296 O298 1.246 . S
O297 Tb280 2.427 . S
O297 C296 1.275 . S
O298 Tb280 2.513 . S
O298 C296 1.246 . S
C299 O283 1.239 1_556 S
C299 O284 1.269 . S
Tb300 O303 2.453 . S
Tb300 O304 2.596 . S
Tb300 O305 2.374 . S
Tb300 O313 2.343 . S
Tb300 O315 2.353 . S
Tb300 O317 2.427 . S
Tb300 O318 2.513 . S
C301 O305 1.251 . S
C301 O307 1.263 . S
Tb302 O304 2.343 . S
Tb302 O307 2.353 . S
Tb302 O310 2.427 . S
Tb302 O311 2.513 . S
Tb302 O312 2.453 . S
Tb302 O313 2.596 . S
Tb302 O314 2.374 . S
O303 Tb300 2.453 . S
O303 C319 1.245 . S
O304 Tb300 2.596 . S
O304 Tb302 2.343 . S
O304 C319 1.259 . S
O305 Tb300 2.374 . S
O305 C301 1.251 . S
C306 O310 1.275 . S
C306 O311 1.246 . S
O307 C301 1.263 . S
O307 Tb302 2.353 . S
C308 O312 1.245 . S
C308 O313 1.259 . S
C309 O314 1.250 . S
C309 O315 1.263 . S
O310 Tb302 2.427 . S
O310 C306 1.275 . S
O311 Tb302 2.513 . S
O311 C306 1.246 . S
O312 Tb302 2.453 . S
O312 C308 1.245 . S
O313 Tb300 2.343 . S
O313 Tb302 2.596 . S
O313 C308 1.259 . S
O314 Tb302 2.374 . S
O314 C309 1.250 . S
O315 Tb300 2.353 . S
O315 C309 1.263 . S
C316 O317 1.275 . S
C316 O318 1.246 . S
O317 Tb300 2.427 . S
O317 C316 1.275 . S
O318 Tb300 2.513 . S
O318 C316 1.246 . S
C319 O303 1.245 . S
C319 O304 1.259 . S
H320 C332 0.930 . S
H321 C334 0.930 . S
H322 C335 0.930 . S
H323 C339 0.959 1_554 S
H324 C339 0.959 . S
H325 C339 0.961 . S
H326 C340 0.960 1_556 S
H327 C340 0.961 1_556 S
H328 C340 0.959 . S
H329 C343 0.929 . S
H330 C344 0.931 . S
H331 C346 0.930 . S
C332 H320 0.930 . S
C332 C333 1.399 . S
C332 C337 1.399 . S
C333 C332 1.399 . S
C333 C334 1.376 . S
C334 H321 0.930 . S
C334 C333 1.376 . S
C334 C335 1.388 . S
C335 H322 0.930 . S
C335 C334 1.388 . S
C335 C336 1.390 . S
C336 C335 1.390 . S
C336 C337 1.394 . S
C336 C342 1.465 . S
C337 C332 1.399 . S
C337 C336 1.394 . S
C337 C338 1.516 . S
C338 C337 1.516 . S
C338 C339 1.502 1_554 S
C338 C340 1.561 . S
C338 C341 1.526 . S
C339 H323 0.959 1_556 S
C339 H324 0.959 . S
C339 H325 0.961 . S
C339 C338 1.502 1_556 S
C340 H326 0.960 1_554 S
C340 H327 0.961 1_554 S
C340 H328 0.959 . S
C340 C338 1.561 . S
C341 C338 1.526 . S
C341 C342 1.396 . S
C341 C346 1.390 . S
C342 C336 1.465 . S
C342 C341 1.396 . S
C342 C343 1.399 . S
C343 H329 0.929 . S
C343 C342 1.399 . S
C343 C344 1.385 . S
C344 H330 0.931 . S
C344 C343 1.385 . S
C344 C345 1.389 . S
C345 C344 1.389 . S
C345 C346 1.387 . S
C346 H331 0.930 . S
C346 C341 1.390 . S
C346 C345 1.387 . S
H347 C359 0.930 . S
H348 C361 0.930 . S
H349 C362 0.930 . S
H350 C366 0.959 . S
H351 C366 0.959 . S
H352 C366 0.961 . S
H353 C367 0.960 . S
H354 C367 0.961 . S
H355 C367 0.959 . S
H356 C370 0.929 . S
H357 C371 0.931 . S
H358 C373 0.930 . S
C359 H347 0.930 . S
C359 C360 1.399 . S
C359 C364 1.399 . S
C360 C359 1.399 . S
C360 C361 1.376 . S
C361 H348 0.930 . S
C361 C360 1.376 . S
C361 C362 1.388 . S
C362 H349 0.930 . S
C362 C361 1.388 . S
C362 C363 1.390 . S
C363 C362 1.390 . S
C363 C364 1.394 . S
C363 C369 1.465 . S
C364 C359 1.399 . S
C364 C363 1.394 . S
C364 C365 1.516 . S
C365 C364 1.516 . S
C365 C366 1.502 . S
C365 C367 1.561 . S
C365 C368 1.526 . S
C366 H350 0.959 . S
C366 H351 0.959 . S
C366 H352 0.961 . S
C366 C365 1.502 . S
C367 H353 0.960 . S
C367 H354 0.961 . S
C367 H355 0.959 . S
C367 C365 1.561 . S
C368 C365 1.526 . S
C368 C369 1.396 . S
C368 C373 1.390 . S
C369 C363 1.465 . S
C369 C368 1.396 . S
C369 C370 1.399 . S
C370 H356 0.929 . S
C370 C369 1.399 . S
C370 C371 1.385 . S
C371 H357 0.931 . S
C371 C370 1.385 . S
C371 C372 1.389 . S
C372 C371 1.389 . S
C372 C373 1.387 . S
C373 H358 0.930 . S
C373 C368 1.390 . S
C373 C372 1.387 . S
H374 C386 0.930 . S
H375 C388 0.930 . S
H376 C389 0.930 1_655 S
H377 C393 0.959 . S
H378 C393 0.959 . S
H379 C393 0.961 . S
H380 C394 0.960 . S
H381 C394 0.961 1_655 S
H382 C394 0.959 1_655 S
H383 C397 0.929 . S
H384 C398 0.931 . S
H385 C400 0.930 . S
C386 H374 0.930 . S
C386 C387 1.399 . S
C386 C391 1.399 . S
C387 C386 1.399 . S
C387 C388 1.376 . S
C388 H375 0.930 . S
C388 C387 1.376 . S
C388 C389 1.388 . S
C389 H376 0.930 1_455 S
C389 C388 1.388 . S
C389 C390 1.390 . S
C390 C389 1.390 . S
C390 C391 1.394 . S
C390 C396 1.465 1_455 S
C391 C386 1.399 . S
C391 C390 1.394 . S
C391 C392 1.516 . S
C392 C391 1.516 . S
C392 C393 1.502 . S
C392 C394 1.561 . S
C392 C395 1.526 1_455 S
C393 H377 0.959 . S
C393 H378 0.959 . S
C393 H379 0.961 . S
C393 C392 1.502 . S
C394 H380 0.960 . S
C394 H381 0.961 1_455 S
C394 H382 0.959 1_455 S
C394 C392 1.561 . S
C395 C392 1.526 1_655 S
C395 C396 1.396 . S
C395 C400 1.390 . S
C396 C390 1.465 1_655 S
C396 C395 1.396 . S
C396 C397 1.399 . S
C397 H383 0.929 . S
C397 C396 1.399 . S
C397 C398 1.385 . S
C398 H384 0.931 . S
C398 C397 1.385 . S
C398 C399 1.389 . S
C399 C398 1.389 . S
C399 C400 1.387 . S
C400 H385 0.930 . S
C400 C395 1.390 . S
C400 C399 1.387 . S
H401 C413 0.930 . S
H402 C415 0.930 . S
H403 C416 0.930 . S
H404 C420 0.959 . S
H405 C420 0.959 . S
H406 C420 0.961 . S
H407 C421 0.960 . S
H408 C421 0.961 . S
H409 C421 0.959 . S
H410 C424 0.929 . S
H411 C425 0.931 . S
H412 C427 0.930 . S
C413 H401 0.930 . S
C413 C414 1.399 . S
C413 C418 1.399 . S
C414 C413 1.399 . S
C414 C415 1.376 . S
C415 H402 0.930 . S
C415 C414 1.376 . S
C415 C416 1.388 . S
C416 H403 0.930 . S
C416 C415 1.388 . S
C416 C417 1.390 . S
C417 C416 1.390 . S
C417 C418 1.394 . S
C417 C423 1.465 1_655 S
C418 C413 1.399 . S
C418 C417 1.394 . S
C418 C419 1.516 . S
C419 C418 1.516 . S
C419 C420 1.502 . S
C419 C421 1.561 1_655 S
C419 C422 1.526 1_655 S
C420 H404 0.959 . S
C420 H405 0.959 . S
C420 H406 0.961 . S
C420 C419 1.502 . S
C421 H407 0.960 . S
C421 H408 0.961 . S
C421 H409 0.959 . S
C421 C419 1.561 1_455 S
C422 C419 1.526 1_455 S
C422 C423 1.396 . S
C422 C427 1.390 . S
C423 C417 1.465 1_455 S
C423 C422 1.396 . S
C423 C424 1.399 . S
C424 H410 0.929 . S
C424 C423 1.399 . S
C424 C425 1.385 . S
C425 H411 0.931 . S
C425 C424 1.385 . S
C425 C426 1.389 . S
C426 C425 1.389 . S
C426 C427 1.387 . S
C427 H412 0.930 . S
C427 C422 1.390 . S
C427 C426 1.387 . S
H428 C440 0.930 . S
H429 C442 0.930 . S
H430 C443 0.930 . S
H431 C447 0.959 . S
H432 C447 0.959 . S
H433 C447 0.961 . S
H434 C448 0.960 . S
H435 C448 0.961 . S
H436 C448 0.959 . S
H437 C451 0.929 . S
H438 C452 0.931 . S
H439 C454 0.930 . S
C440 H428 0.930 . S
C440 C441 1.399 . S
C440 C445 1.399 . S
C441 C440 1.399 . S
C441 C442 1.376 . S
C442 H429 0.930 . S
C442 C441 1.376 . S
C442 C443 1.388 . S
C443 H430 0.930 . S
C443 C442 1.388 . S
C443 C444 1.390 . S
C444 C443 1.390 . S
C444 C445 1.394 . S
C444 C450 1.465 . S
C445 C440 1.399 . S
C445 C444 1.394 . S
C445 C446 1.516 . S
C446 C445 1.516 . S
C446 C447 1.502 . S
C446 C448 1.561 . S
C446 C449 1.526 . S
C447 H431 0.959 . S
C447 H432 0.959 . S
C447 H433 0.961 . S
C447 C446 1.502 . S
C448 H434 0.960 . S
C448 H435 0.961 . S
C448 H436 0.959 . S
C448 C446 1.561 . S
C449 C446 1.526 . S
C449 C450 1.396 . S
C449 C454 1.390 . S
C450 C444 1.465 . S
C450 C449 1.396 . S
C450 C451 1.399 . S
C451 H437 0.929 . S
C451 C450 1.399 . S
C451 C452 1.385 . S
C452 H438 0.931 . S
C452 C451 1.385 . S
C452 C453 1.389 . S
C453 C452 1.389 . S
C453 C454 1.387 . S
C454 H439 0.930 . S
C454 C449 1.390 . S
C454 C453 1.387 . S
H455 C467 0.930 . S
H456 C469 0.930 . S
H457 C470 0.930 . S
H458 C474 0.959 . S
H459 C474 0.959 . S
H460 C474 0.961 . S
H461 C475 0.960 . S
H462 C475 0.961 . S
H463 C475 0.959 . S
H464 C478 0.929 . S
H465 C479 0.931 . S
H466 C481 0.930 . S
C467 H455 0.930 . S
C467 C468 1.399 . S
C467 C472 1.399 . S
C468 C467 1.399 . S
C468 C469 1.376 . S
C469 H456 0.930 . S
C469 C468 1.376 . S
C469 C470 1.388 . S
C470 H457 0.930 . S
C470 C469 1.388 . S
C470 C471 1.390 . S
C471 C470 1.390 . S
C471 C472 1.394 . S
C471 C477 1.465 . S
C472 C467 1.399 . S
C472 C471 1.394 . S
C472 C473 1.516 . S
C473 C472 1.516 . S
C473 C474 1.502 . S
C473 C475 1.561 . S
C473 C476 1.526 . S
C474 H458 0.959 . S
C474 H459 0.959 . S
C474 H460 0.961 . S
C474 C473 1.502 . S
C475 H461 0.960 . S
C475 H462 0.961 . S
C475 H463 0.959 . S
C475 C473 1.561 . S
C476 C473 1.526 . S
C476 C477 1.396 . S
C476 C481 1.390 . S
C477 C471 1.465 . S
C477 C476 1.396 . S
C477 C478 1.399 . S
C478 H464 0.929 . S
C478 C477 1.399 . S
C478 C479 1.385 . S
C479 H465 0.931 . S
C479 C478 1.385 . S
C479 C480 1.389 . S
C480 C479 1.389 . S
C480 C481 1.387 . S
C481 H466 0.930 . S
C481 C476 1.390 . S
C481 C480 1.387 . S
H482 C494 0.930 . S
H483 C496 0.930 . S
H484 C497 0.930 . S
H485 C501 0.959 . S
H486 C501 0.959 . S
H487 C501 0.961 . S
H488 C502 0.960 . S
H489 C502 0.961 . S
H490 C502 0.959 . S
H491 C505 0.929 . S
H492 C506 0.931 . S
H493 C508 0.930 . S
C494 H482 0.930 . S
C494 C495 1.399 . S
C494 C499 1.399 . S
C495 C494 1.399 . S
C495 C496 1.376 . S
C496 H483 0.930 . S
C496 C495 1.376 . S
C496 C497 1.388 . S
C497 H484 0.930 . S
C497 C496 1.388 . S
C497 C498 1.390 . S
C498 C497 1.390 . S
C498 C499 1.394 . S
C498 C504 1.465 1_655 S
C499 C494 1.399 . S
C499 C498 1.394 . S
C499 C500 1.539 . S
C500 C499 1.539 . S
C500 C501 1.524 . S
C500 C502 1.540 1_655 S
C500 C503 1.500 1_655 S
C501 H485 0.959 . S
C501 H486 0.959 . S
C501 H487 0.961 . S
C501 C500 1.524 . S
C502 H488 0.960 . S
C502 H489 0.961 . S
C502 H490 0.959 . S
C502 C500 1.540 1_455 S
C503 C500 1.500 1_455 S
C503 C504 1.396 . S
C503 C508 1.390 . S
C504 C498 1.465 1_455 S
C504 C503 1.396 . S
C504 C505 1.399 . S
C505 H491 0.929 . S
C505 C504 1.399 . S
C505 C506 1.385 . S
C506 H492 0.931 . S
C506 C505 1.385 . S
C506 C507 1.389 . S
C507 C506 1.389 . S
C507 C508 1.387 . S
C508 H493 0.930 . S
C508 C503 1.390 . S
C508 C507 1.387 . S
H509 C521 0.930 . S
H510 C523 0.930 . S
H511 C524 0.930 . S
H512 C528 0.959 . S
H513 C528 0.959 . S
H514 C528 0.961 . S
H515 C529 0.960 . S
H516 C529 0.961 . S
H517 C529 0.959 . S
H518 C532 0.929 . S
H519 C533 0.931 . S
H520 C535 0.930 . S
C521 H509 0.930 . S
C521 C522 1.399 . S
C521 C526 1.399 . S
C522 C521 1.399 . S
C522 C523 1.376 . S
C523 H510 0.930 . S
C523 C522 1.376 . S
C523 C524 1.388 . S
C524 H511 0.930 . S
C524 C523 1.388 . S
C524 C525 1.390 . S
C525 C524 1.390 . S
C525 C526 1.394 . S
C525 C531 1.465 1_455 S
C526 C521 1.399 . S
C526 C525 1.394 . S
C526 C527 1.516 . S
C527 C526 1.516 . S
C527 C528 1.502 1_455 S
C527 C529 1.561 . S
C527 C530 1.526 1_455 S
C528 H512 0.959 . S
C528 H513 0.959 . S
C528 H514 0.961 . S
C528 C527 1.502 1_655 S
C529 H515 0.960 . S
C529 H516 0.961 . S
C529 H517 0.959 . S
C529 C527 1.561 . S
C530 C527 1.526 1_655 S
C530 C531 1.396 . S
C530 C535 1.390 . S
C531 C525 1.465 1_655 S
C531 C530 1.396 . S
C531 C532 1.399 . S
C532 H518 0.929 . S
C532 C531 1.399 . S
C532 C533 1.385 . S
C533 H519 0.931 . S
C533 C532 1.385 . S
C533 C534 1.389 . S
C534 C533 1.389 . S
C534 C535 1.387 . S
C535 H520 0.930 . S
C535 C530 1.390 . S
C535 C534 1.387 . S
H536 C548 0.930 . S
H537 C550 0.930 . S
H538 C551 0.930 . S
H539 C555 0.959 . S
H540 C555 0.959 . S
H541 C555 0.961 . S
H542 C556 0.960 . S
H543 C556 0.961 . S
H544 C556 0.959 . S
H545 C559 0.929 . S
H546 C560 0.931 . S
H547 C562 0.930 . S
C548 H536 0.930 . S
C548 C549 1.399 . S
C548 C553 1.399 . S
C549 C548 1.399 . S
C549 C550 1.376 . S
C550 H537 0.930 . S
C550 C549 1.376 . S
C550 C551 1.388 1_556 S
C551 H538 0.930 . S
C551 C550 1.388 1_554 S
C551 C552 1.390 1_554 S
C552 C551 1.390 1_556 S
C552 C553 1.394 . S
C552 C558 1.465 1_556 S
C553 C548 1.399 . S
C553 C552 1.394 . S
C553 C554 1.516 . S
C554 C553 1.516 . S
C554 C555 1.502 . S
C554 C556 1.561 . S
C554 C557 1.526 . S
C555 H539 0.959 . S
C555 H540 0.959 . S
C555 H541 0.961 . S
C555 C554 1.502 . S
C556 H542 0.960 . S
C556 H543 0.961 . S
C556 H544 0.959 . S
C556 C554 1.561 . S
C557 C554 1.526 . S
C557 C558 1.396 1_556 S
C557 C562 1.390 . S
C558 C552 1.465 1_554 S
C558 C557 1.396 1_554 S
C558 C559 1.399 . S
C559 H545 0.929 . S
C559 C558 1.399 . S
C559 C560 1.385 . S
C560 H546 0.931 . S
C560 C559 1.385 . S
C560 C561 1.389 . S
C561 C560 1.389 . S
C561 C562 1.387 1_554 S
C562 H547 0.930 . S
C562 C557 1.390 . S
C562 C561 1.387 1_556 S
H563 C575 0.930 . S
H564 C577 0.930 . S
H565 C578 0.930 . S
H566 C582 0.959 . S
H567 C582 0.959 . S
H568 C582 0.961 . S
H569 C583 0.960 . S
H570 C583 0.961 . S
H571 C583 0.959 . S
H572 C586 0.929 . S
H573 C587 0.931 . S
H574 C589 0.930 . S
C575 H563 0.930 . S
C575 C576 1.399 . S
C575 C580 1.399 . S
C576 C575 1.399 . S
C576 C577 1.376 . S
C577 H564 0.930 . S
C577 C576 1.376 . S
C577 C578 1.388 . S
C578 H565 0.930 . S
C578 C577 1.388 . S
C578 C579 1.390 . S
C579 C578 1.390 . S
C579 C580 1.394 . S
C579 C585 1.465 . S
C580 C575 1.399 . S
C580 C579 1.394 . S
C580 C581 1.516 . S
C581 C580 1.516 . S
C581 C582 1.502 . S
C581 C583 1.561 . S
C581 C584 1.526 . S
C582 H566 0.959 . S
C582 H567 0.959 . S
C582 H568 0.961 . S
C582 C581 1.502 . S
C583 H569 0.960 . S
C583 H570 0.961 . S
C583 H571 0.959 . S
C583 C581 1.561 . S
C584 C581 1.526 . S
C584 C585 1.396 . S
C584 C589 1.390 . S
C585 C579 1.465 . S
C585 C584 1.396 . S
C585 C586 1.399 . S
C586 H572 0.929 . S
C586 C585 1.399 . S
C586 C587 1.385 . S
C587 H573 0.931 . S
C587 C586 1.385 . S
C587 C588 1.389 . S
C588 C587 1.389 . S
C588 C589 1.387 . S
C589 H574 0.930 . S
C589 C584 1.390 . S
C589 C588 1.387 . S
H590 C602 0.930 . S
H591 C604 0.930 . S
H592 C605 0.930 . S
H593 C609 0.959 . S
H594 C609 0.959 . S
H595 C609 0.961 . S
H596 C610 0.960 . S
H597 C610 0.961 . S
H598 C610 0.959 . S
H599 C613 0.929 . S
H600 C614 0.931 . S
H601 C616 0.930 . S
C602 H590 0.930 . S
C602 C603 1.399 . S
C602 C607 1.399 . S
C603 C602 1.399 . S
C603 C604 1.376 . S
C604 H591 0.930 . S
C604 C603 1.376 . S
C604 C605 1.388 . S
C605 H592 0.930 . S
C605 C604 1.388 . S
C605 C606 1.390 . S
C606 C605 1.390 . S
C606 C607 1.394 . S
C606 C612 1.465 . S
C607 C602 1.399 . S
C607 C606 1.394 . S
C607 C608 1.516 . S
C608 C607 1.516 . S
C608 C609 1.502 . S
C608 C610 1.561 . S
C608 C611 1.526 . S
C609 H593 0.959 . S
C609 H594 0.959 . S
C609 H595 0.961 . S
C609 C608 1.502 . S
C610 H596 0.960 . S
C610 H597 0.961 . S
C610 H598 0.959 . S
C610 C608 1.561 . S
C611 C608 1.526 . S
C611 C612 1.396 . S
C611 C616 1.390 . S
C612 C606 1.465 . S
C612 C611 1.396 . S
C612 C613 1.399 . S
C613 H599 0.929 . S
C613 C612 1.399 . S
C613 C614 1.385 . S
C614 H600 0.931 . S
C614 C613 1.385 . S
C614 C615 1.389 . S
C615 C614 1.389 . S
C615 C616 1.387 . S
C616 H601 0.930 . S
C616 C611 1.390 . S
C616 C615 1.387 . S
H617 C629 0.930 . S
H618 C631 0.930 . S
H619 C632 0.930 . S
H620 C636 0.959 . S
H621 C636 0.959 . S
H622 C636 0.961 . S
H623 C637 0.960 . S
H624 C637 0.961 . S
H625 C637 0.959 . S
H626 C640 0.929 . S
H627 C641 0.931 . S
H628 C643 0.930 . S
C629 H617 0.930 . S
C629 C630 1.399 . S
C629 C634 1.399 . S
C630 C629 1.399 . S
C630 C631 1.376 . S
C631 H618 0.930 . S
C631 C630 1.376 . S
C631 C632 1.388 . S
C632 H619 0.930 . S
C632 C631 1.388 . S
C632 C633 1.390 . S
C633 C632 1.390 . S
C633 C634 1.394 . S
C633 C639 1.465 . S
C634 C629 1.399 . S
C634 C633 1.394 . S
C634 C635 1.516 . S
C635 C634 1.516 . S
C635 C636 1.502 . S
C635 C637 1.561 . S
C635 C638 1.526 . S
C636 H620 0.959 . S
C636 H621 0.959 . S
C636 H622 0.961 . S
C636 C635 1.502 . S
C637 H623 0.960 . S
C637 H624 0.961 . S
C637 H625 0.959 . S
C637 C635 1.561 . S
C638 C635 1.526 . S
C638 C639 1.396 . S
C638 C643 1.390 . S
C639 C633 1.465 . S
C639 C638 1.396 . S
C639 C640 1.399 . S
C640 H626 0.929 . S
C640 C639 1.399 . S
C640 C641 1.385 . S
C641 H627 0.931 . S
C641 C640 1.385 . S
C641 C642 1.389 . S
C642 C641 1.389 . S
C642 C643 1.387 . S
C643 H628 0.930 . S
C643 C638 1.390 . S
C643 C642 1.387 . S
H644 C656 0.930 . S
H645 C658 0.930 . S
H646 C659 0.930 . S
H647 C663 0.959 . S
H648 C663 0.959 . S
H649 C663 0.961 . S
H650 C664 0.960 . S
H651 C664 0.961 . S
H652 C664 0.959 . S
H653 C667 0.929 . S
H654 C668 0.931 . S
H655 C670 0.930 . S
C656 H644 0.930 . S
C656 C657 1.399 . S
C656 C661 1.399 . S
C657 C656 1.399 . S
C657 C658 1.376 1_556 S
C658 H645 0.930 . S
C658 C657 1.376 1_554 S
C658 C659 1.388 . S
C659 H646 0.930 . S
C659 C658 1.388 . S
C659 C660 1.390 . S
C660 C659 1.390 . S
C660 C661 1.394 1_554 S
C660 C666 1.465 . S
C661 C656 1.399 . S
C661 C660 1.394 1_556 S
C661 C662 1.516 . S
C662 C661 1.516 . S
C662 C663 1.502 . S
C662 C664 1.561 . S
C662 C665 1.526 1_556 S
C663 H647 0.959 . S
C663 H648 0.959 . S
C663 H649 0.961 . S
C663 C662 1.502 . S
C664 H650 0.960 . S
C664 H651 0.961 . S
C664 H652 0.959 . S
C664 C662 1.561 . S
C665 C662 1.526 1_554 S
C665 C666 1.396 . S
C665 C670 1.390 . S
C666 C660 1.465 . S
C666 C665 1.396 . S
C666 C667 1.399 . S
C667 H653 0.929 . S
C667 C666 1.399 . S
C667 C668 1.385 . S
C668 H654 0.931 . S
C668 C667 1.385 . S
C668 C669 1.389 . S
C669 C668 1.389 . S
C669 C670 1.387 . S
C670 H655 0.930 . S
C670 C665 1.390 . S
C670 C669 1.387 . S
H671 C683 0.930 . S
H672 C685 0.930 . S
H673 C686 0.930 . S
H674 C690 0.959 . S
H675 C690 0.959 . S
H676 C690 0.961 . S
H677 C691 0.960 . S
H678 C691 0.961 . S
H679 C691 0.959 . S
H680 C694 0.929 . S
H681 C695 0.931 . S
H682 C697 0.930 . S
C683 H671 0.930 . S
C683 C684 1.399 . S
C683 C688 1.399 . S
C684 C683 1.399 . S
C684 C685 1.376 . S
C685 H672 0.930 . S
C685 C684 1.376 . S
C685 C686 1.388 . S
C686 H673 0.930 . S
C686 C685 1.388 . S
C686 C687 1.390 . S
C687 C686 1.390 . S
C687 C688 1.394 . S
C687 C693 1.465 . S
C688 C683 1.399 . S
C688 C687 1.394 . S
C688 C689 1.516 . S
C689 C688 1.516 . S
C689 C690 1.502 . S
C689 C691 1.561 . S
C689 C692 1.526 . S
C690 H674 0.959 . S
C690 H675 0.959 . S
C690 H676 0.961 . S
C690 C689 1.502 . S
C691 H677 0.960 . S
C691 H678 0.961 . S
C691 H679 0.959 . S
C691 C689 1.561 . S
C692 C689 1.526 . S
C692 C693 1.396 . S
C692 C697 1.390 . S
C693 C687 1.465 . S
C693 C692 1.396 . S
C693 C694 1.399 . S
C694 H680 0.929 . S
C694 C693 1.399 . S
C694 C695 1.385 . S
C695 H681 0.931 . S
C695 C694 1.385 . S
C695 C696 1.389 . S
C696 C695 1.389 . S
C696 C697 1.387 . S
C697 H682 0.930 . S
C697 C692 1.390 . S
C697 C696 1.387 . S
H698 C710 0.930 . S
H699 C712 0.930 . S
H700 C713 0.930 . S
H701 C717 0.959 . S
H702 C717 0.959 . S
H703 C717 0.961 . S
H704 C718 0.960 . S
H705 C718 0.961 . S
H706 C718 0.959 . S
H707 C721 0.929 . S
H708 C722 0.931 . S
H709 C724 0.930 . S
C710 H698 0.930 . S
C710 C711 1.399 . S
C710 C715 1.399 . S
C711 C710 1.399 . S
C711 C712 1.376 . S
C712 H699 0.930 . S
C712 C711 1.376 . S
C712 C713 1.388 . S
C713 H700 0.930 . S
C713 C712 1.388 . S
C713 C714 1.390 . S
C714 C713 1.390 . S
C714 C715 1.394 . S
C714 C720 1.465 . S
C715 C710 1.399 . S
C715 C714 1.394 . S
C715 C716 1.516 . S
C716 C715 1.516 . S
C716 C717 1.502 . S
C716 C718 1.561 . S
C716 C719 1.526 . S
C717 H701 0.959 . S
C717 H702 0.959 . S
C717 H703 0.961 . S
C717 C716 1.502 . S
C718 H704 0.960 . S
C718 H705 0.961 . S
C718 H706 0.959 . S
C718 C716 1.561 . S
C719 C716 1.526 . S
C719 C720 1.396 . S
C719 C724 1.390 . S
C720 C714 1.465 . S
C720 C719 1.396 . S
C720 C721 1.399 . S
C721 H707 0.929 . S
C721 C720 1.399 . S
C721 C722 1.385 . S
C722 H708 0.931 . S
C722 C721 1.385 . S
C722 C723 1.389 . S
C723 C722 1.389 . S
C723 C724 1.387 . S
C724 H709 0.930 . S
C724 C719 1.390 . S
C724 C723 1.387 . S
H725 C737 0.930 . S
H726 C739 0.930 . S
H727 C740 0.930 . S
H728 C744 0.959 . S
H729 C744 0.959 . S
H730 C744 0.961 . S
H731 C745 0.960 . S
H732 C745 0.961 . S
H733 C745 0.959 . S
H734 C748 0.929 . S
H735 C749 0.931 . S
H736 C751 0.930 . S
C737 H725 0.930 . S
C737 C738 1.399 . S
C737 C742 1.399 . S
C738 C737 1.399 . S
C738 C739 1.376 . S
C739 H726 0.930 . S
C739 C738 1.376 . S
C739 C740 1.388 . S
C740 H727 0.930 . S
C740 C739 1.388 . S
C740 C741 1.390 . S
C741 C740 1.390 . S
C741 C742 1.394 . S
C741 C747 1.465 . S
C742 C737 1.399 . S
C742 C741 1.394 . S
C742 C743 1.516 . S
C743 C742 1.516 . S
C743 C744 1.502 . S
C743 C745 1.561 . S
C743 C746 1.526 . S
C744 H728 0.959 . S
C744 H729 0.959 . S
C744 H730 0.961 . S
C744 C743 1.502 . S
C745 H731 0.960 . S
C745 H732 0.961 . S
C745 H733 0.959 . S
C745 C743 1.561 . S
C746 C743 1.526 . S
C746 C747 1.396 . S
C746 C751 1.390 . S
C747 C741 1.465 . S
C747 C746 1.396 . S
C747 C748 1.399 . S
C748 H734 0.929 . S
C748 C747 1.399 . S
C748 C749 1.385 . S
C749 H735 0.931 . S
C749 C748 1.385 . S
C749 C750 1.389 . S
C750 C749 1.389 . S
C750 C751 1.387 . S
C751 H736 0.930 . S
C751 C746 1.390 . S
C751 C750 1.387 . S
H752 C764 0.930 . S
H753 C766 0.930 . S
H754 C767 0.930 . S
H755 C771 0.959 . S
H756 C771 0.959 . S
H757 C771 0.961 . S
H758 C772 0.960 . S
H759 C772 0.961 . S
H760 C772 0.959 . S
H761 C775 0.929 . S
H762 C776 0.931 . S
H763 C778 0.930 . S
C764 H752 0.930 . S
C764 C765 1.399 . S
C764 C769 1.399 . S
C765 C764 1.399 . S
C765 C766 1.376 . S
C766 H753 0.930 . S
C766 C765 1.376 . S
C766 C767 1.388 . S
C767 H754 0.930 . S
C767 C766 1.388 . S
C767 C768 1.390 . S
C768 C767 1.390 . S
C768 C769 1.394 . S
C768 C774 1.465 . S
C769 C764 1.399 . S
C769 C768 1.394 . S
C769 C770 1.516 . S
C770 C769 1.516 . S
C770 C771 1.502 . S
C770 C772 1.561 . S
C770 C773 1.526 . S
C771 H755 0.959 . S
C771 H756 0.959 . S
C771 H757 0.961 . S
C771 C770 1.502 . S
C772 H758 0.960 . S
C772 H759 0.961 . S
C772 H760 0.959 . S
C772 C770 1.561 . S
C773 C770 1.526 . S
C773 C774 1.396 . S
C773 C778 1.390 . S
C774 C768 1.465 . S
C774 C773 1.396 . S
C774 C775 1.399 . S
C775 H761 0.929 . S
C775 C774 1.399 . S
C775 C776 1.385 . S
C776 H762 0.931 . S
C776 C775 1.385 . S
C776 C777 1.389 . S
C777 C776 1.389 . S
C777 C778 1.387 . S
C778 H763 0.930 . S
C778 C773 1.390 . S
C778 C777 1.387 . S
H779 C791 0.930 . S
H780 C793 0.930 1_545 S
H781 C794 0.930 . S
H782 C798 0.959 . S
H783 C798 0.959 . S
H784 C798 0.961 . S
H785 C799 0.960 . S
H786 C799 0.961 . S
H787 C799 0.959 . S
H788 C802 0.929 . S
H789 C803 0.931 . S
H790 C805 0.930 . S
C791 H779 0.930 . S
C791 C792 1.373 1_565 S
C791 C796 1.399 . S
C792 C791 1.373 1_545 S
C792 C793 1.373 1_545 S
C793 H780 0.930 1_565 S
C793 C792 1.373 1_565 S
C793 C794 1.388 . S
C794 H781 0.930 . S
C794 C793 1.388 . S
C794 C795 1.390 . S
C795 C794 1.390 . S
C795 C796 1.394 . S
C795 C801 1.465 . S
C796 C791 1.399 . S
C796 C795 1.394 . S
C796 C797 1.516 . S
C797 C796 1.516 . S
C797 C798 1.502 . S
C797 C799 1.561 . S
C797 C800 1.526 . S
C798 H782 0.959 . S
C798 H783 0.959 . S
C798 H784 0.961 . S
C798 C797 1.502 . S
C799 H785 0.960 . S
C799 H786 0.961 . S
C799 H787 0.959 . S
C799 C797 1.561 . S
C800 C797 1.526 . S
C800 C801 1.396 . S
C800 C805 1.390 . S
C801 C795 1.465 . S
C801 C800 1.396 . S
C801 C802 1.399 . S
C802 H788 0.929 . S
C802 C801 1.399 . S
C802 C803 1.385 . S
C803 H789 0.931 . S
C803 C802 1.385 . S
C803 C804 1.389 . S
C804 C803 1.389 . S
C804 C805 1.387 . S
C805 H790 0.930 . S
C805 C800 1.390 . S
C805 C804 1.387 . S
H806 C818 0.930 . S
H807 C820 0.930 . S
H808 C821 0.930 . S
H809 C825 0.959 . S
H810 C825 0.959 . S
H811 C825 0.961 . S
H812 C826 0.960 . S
H813 C826 0.961 . S
H814 C826 0.959 . S
H815 C829 0.929 1_554 S
H816 C830 0.931 . S
H817 C832 0.930 . S
C818 H806 0.930 . S
C818 C819 1.399 1_556 S
C818 C823 1.399 . S
C819 C818 1.399 1_554 S
C819 C820 1.376 . S
C820 H807 0.930 . S
C820 C819 1.376 . S
C820 C821 1.388 . S
C821 H808 0.930 . S
C821 C820 1.388 . S
C821 C822 1.390 1_554 S
C822 C821 1.390 1_556 S
C822 C823 1.394 . S
C822 C828 1.465 . S
C823 C818 1.399 . S
C823 C822 1.394 . S
C823 C824 1.516 . S
C824 C823 1.516 . S
C824 C825 1.502 . S
C824 C826 1.561 . S
C824 C827 1.526 . S
C825 H809 0.959 . S
C825 H810 0.959 . S
C825 H811 0.961 . S
C825 C824 1.502 . S
C826 H812 0.960 . S
C826 H813 0.961 . S
C826 H814 0.959 . S
C826 C824 1.561 . S
C827 C824 1.526 . S
C827 C828 1.396 . S
C827 C832 1.390 . S
C828 C822 1.465 . S
C828 C827 1.396 . S
C828 C829 1.399 . S
C829 H815 0.929 1_556 S
C829 C828 1.399 . S
C829 C830 1.385 . S
C830 H816 0.931 . S
C830 C829 1.385 . S
C830 C831 1.389 . S
C831 C830 1.389 . S
C831 C832 1.387 . S
C832 H817 0.930 . S
C832 C827 1.390 . S
C832 C831 1.387 . S
H833 C845 0.930 . S
H834 C847 0.930 1_565 S
H835 C848 0.930 . S
H836 C852 0.959 . S
H837 C852 0.959 . S
H838 C852 0.961 . S
H839 C853 0.960 . S
H840 C853 0.961 . S
H841 C853 0.959 . S
H842 C856 0.929 . S
H843 C857 0.931 . S
H844 C859 0.930 . S
C845 H833 0.930 . S
C845 C846 1.399 1_545 S
C845 C850 1.399 . S
C846 C845 1.399 1_565 S
C846 C847 1.376 1_565 S
C847 H834 0.930 1_545 S
C847 C846 1.376 1_545 S
C847 C848 1.388 . S
C848 H835 0.930 . S
C848 C847 1.388 . S
C848 C849 1.390 . S
C849 C848 1.390 . S
C849 C850 1.394 . S
C849 C855 1.465 . S
C850 C845 1.399 . S
C850 C849 1.394 . S
C850 C851 1.516 . S
C851 C850 1.516 . S
C851 C852 1.502 . S
C851 C853 1.561 . S
C851 C854 1.526 . S
C852 H836 0.959 . S
C852 H837 0.959 . S
C852 H838 0.961 . S
C852 C851 1.502 . S
C853 H839 0.960 . S
C853 H840 0.961 . S
C853 H841 0.959 . S
C853 C851 1.561 . S
C854 C851 1.526 . S
C854 C855 1.396 . S
C854 C859 1.390 . S
C855 C849 1.465 . S
C855 C854 1.396 . S
C855 C856 1.399 . S
C856 H842 0.929 . S
C856 C855 1.399 . S
C856 C857 1.385 . S
C857 H843 0.931 . S
C857 C856 1.385 . S
C857 C858 1.389 . S
C858 C857 1.389 . S
C858 C859 1.387 . S
C859 H844 0.930 . S
C859 C854 1.390 . S
C859 C858 1.387 . S
H860 C872 0.930 . S
H861 C874 0.930 . S
H862 C875 0.930 . S
H863 C879 0.959 . S
H864 C879 0.959 . S
H865 C879 0.961 . S
H866 C880 0.960 . S
H867 C880 0.961 . S
H868 C880 0.959 . S
H869 C883 0.929 . S
H870 C884 0.931 . S
H871 C886 0.930 . S
C872 H860 0.930 . S
C872 C873 1.399 . S
C872 C877 1.399 . S
C873 C872 1.399 . S
C873 C874 1.376 . S
C874 H861 0.930 . S
C874 C873 1.376 . S
C874 C875 1.388 . S
C875 H862 0.930 . S
C875 C874 1.388 . S
C875 C876 1.390 . S
C876 C875 1.390 . S
C876 C877 1.394 . S
C876 C882 1.465 . S
C877 C872 1.399 . S
C877 C876 1.394 . S
C877 C878 1.516 . S
C878 C877 1.516 . S
C878 C879 1.502 . S
C878 C880 1.561 . S
C878 C881 1.526 . S
C879 H863 0.959 . S
C879 H864 0.959 . S
C879 H865 0.961 . S
C879 C878 1.502 . S
C880 H866 0.960 . S
C880 H867 0.961 . S
C880 H868 0.959 . S
C880 C878 1.561 . S
C881 C878 1.526 . S
C881 C882 1.396 . S
C881 C886 1.390 . S
C882 C876 1.465 . S
C882 C881 1.396 . S
C882 C883 1.399 . S
C883 H869 0.929 . S
C883 C882 1.399 . S
C883 C884 1.385 . S
C884 H870 0.931 . S
C884 C883 1.385 . S
C884 C885 1.389 . S
C885 C884 1.389 . S
C885 C886 1.387 . S
C886 H871 0.930 . S
C886 C881 1.390 . S
C886 C885 1.387 . S
H887 C899 0.930 . S
H888 C901 0.930 . S
H889 C902 0.930 . S
H890 C906 0.959 . S
H891 C906 0.959 . S
H892 C906 0.961 . S
H893 C907 0.960 . S
H894 C907 0.961 . S
H895 C907 0.959 . S
H896 C910 0.929 . S
H897 C911 0.923 1_565 S
H898 C913 0.930 . S
C899 H887 0.930 . S
C899 C900 1.399 . S
C899 C904 1.399 . S
C900 C899 1.399 . S
C900 C901 1.376 . S
C901 H888 0.930 . S
C901 C900 1.376 . S
C901 C902 1.388 . S
C902 H889 0.930 . S
C902 C901 1.388 . S
C902 C903 1.390 . S
C903 C902 1.390 . S
C903 C904 1.394 . S
C903 C909 1.465 . S
C904 C899 1.399 . S
C904 C903 1.394 . S
C904 C905 1.516 . S
C905 C904 1.516 . S
C905 C906 1.502 . S
C905 C907 1.561 . S
C905 C908 1.526 . S
C906 H890 0.959 . S
C906 H891 0.959 . S
C906 H892 0.961 . S
C906 C905 1.502 . S
C907 H893 0.960 . S
C907 H894 0.961 . S
C907 H895 0.959 . S
C907 C905 1.561 . S
C908 C905 1.526 . S
C908 C909 1.396 . S
C908 C913 1.390 . S
C909 C903 1.465 . S
C909 C908 1.396 . S
C909 C910 1.399 . S
C910 H896 0.929 . S
C910 C909 1.399 . S
C910 C911 1.394 . S
C911 H897 0.923 1_545 S
C911 C910 1.394 . S
C911 C912 1.389 1_545 S
C912 C911 1.389 1_565 S
C912 C913 1.387 1_565 S
C913 H898 0.930 . S
C913 C908 1.390 . S
C913 C912 1.387 1_545 S
H914 C926 0.930 . S
H915 C928 0.930 . S
H916 C929 0.930 . S
H917 C933 0.959 . S
H918 C933 0.959 . S
H919 C933 0.961 . S
H920 C934 0.960 . S
H921 C934 0.961 . S
H922 C934 0.959 . S
H923 C937 0.929 . S
H924 C938 0.930 . S
H925 C940 0.930 . S
C926 H914 0.930 . S
C926 C927 1.399 . S
C926 C931 1.399 . S
C927 C926 1.399 . S
C927 C928 1.376 . S
C928 H915 0.930 . S
C928 C927 1.376 . S
C928 C929 1.388 . S
C929 H916 0.930 . S
C929 C928 1.388 . S
C929 C930 1.390 . S
C930 C929 1.390 . S
C930 C931 1.394 . S
C930 C936 1.465 . S
C931 C926 1.399 . S
C931 C930 1.394 . S
C931 C932 1.516 . S
C932 C931 1.516 . S
C932 C933 1.502 . S
C932 C934 1.561 1_554 S
C932 C935 1.526 . S
C933 H917 0.959 . S
C933 H918 0.959 . S
C933 H919 0.961 . S
C933 C932 1.502 . S
C934 H920 0.960 . S
C934 H921 0.961 . S
C934 H922 0.959 . S
C934 C932 1.561 1_556 S
C935 C932 1.526 . S
C935 C936 1.396 . S
C935 C940 1.390 1_554 S
C936 C930 1.465 . S
C936 C935 1.396 . S
C936 C937 1.399 . S
C937 H923 0.929 . S
C937 C936 1.399 . S
C937 C938 1.385 1_554 S
C938 H924 0.930 . S
C938 C937 1.385 1_556 S
C938 C939 1.390 . S
C939 C938 1.390 . S
C939 C940 1.387 . S
C940 H925 0.930 . S
C940 C935 1.390 1_556 S
C940 C939 1.387 . S
H941 C953 0.930 . S
H942 C955 0.930 . S
H943 C956 0.930 . S
H944 C960 0.959 . S
H945 C960 0.959 . S
H946 C960 0.961 . S
H947 C961 0.960 . S
H948 C961 0.961 . S
H949 C961 0.959 . S
H950 C964 0.929 . S
H951 C965 0.931 . S
H952 C967 0.930 . S
C953 H941 0.930 . S
C953 C954 1.399 1_565 S
C953 C958 1.399 . S
C954 C953 1.399 1_545 S
C954 C955 1.376 . S
C955 H942 0.930 . S
C955 C954 1.376 . S
C955 C956 1.388 1_545 S
C956 H943 0.930 . S
C956 C955 1.388 1_565 S
C956 C957 1.390 . S
C957 C956 1.390 . S
C957 C958 1.394 . S
C957 C963 1.465 . S
C958 C953 1.399 . S
C958 C957 1.394 . S
C958 C959 1.516 . S
C959 C958 1.516 . S
C959 C960 1.502 . S
C959 C961 1.561 . S
C959 C962 1.526 . S
C960 H944 0.959 . S
C960 H945 0.959 . S
C960 H946 0.961 . S
C960 C959 1.502 . S
C961 H947 0.960 . S
C961 H948 0.961 . S
C961 H949 0.959 . S
C961 C959 1.561 . S
C962 C959 1.526 . S
C962 C963 1.396 . S
C962 C967 1.390 . S
C963 C957 1.465 . S
C963 C962 1.396 . S
C963 C964 1.399 . S
C964 H950 0.929 . S
C964 C963 1.399 . S
C964 C965 1.385 . S
C965 H951 0.931 . S
C965 C964 1.385 . S
C965 C966 1.389 . S
C966 C965 1.389 . S
C966 C967 1.387 . S
C967 H952 0.930 . S
C967 C962 1.390 . S
C967 C966 1.387 . S
H968 C980 0.930 . S
H969 C982 0.930 1_554 S
H970 C983 0.930 . S
H971 C987 0.959 . S
H972 C987 0.959 . S
H973 C987 0.961 . S
H974 C988 0.960 . S
H975 C988 0.961 . S
H976 C988 0.959 . S
H977 C991 0.929 . S
H978 C992 0.931 . S
H979 C994 0.930 . S
C980 H968 0.930 . S
C980 C981 1.399 . S
C980 C985 1.399 . S
C981 C980 1.399 . S
C981 C982 1.376 . S
C982 H969 0.930 1_556 S
C982 C981 1.376 . S
C982 C983 1.388 . S
C983 H970 0.930 . S
C983 C982 1.388 . S
C983 C984 1.390 . S
C984 C983 1.390 . S
C984 C985 1.394 . S
C984 C990 1.465 . S
C985 C980 1.399 . S
C985 C984 1.394 . S
C985 C986 1.516 . S
C986 C985 1.516 . S
C986 C987 1.502 . S
C986 C988 1.561 . S
C986 C989 1.526 . S
C987 H971 0.959 . S
C987 H972 0.959 . S
C987 H973 0.961 . S
C987 C986 1.502 . S
C988 H974 0.960 . S
C988 H975 0.961 . S
C988 H976 0.959 . S
C988 C986 1.561 . S
C989 C986 1.526 . S
C989 C990 1.396 . S
C989 C994 1.390 . S
C990 C984 1.465 . S
C990 C989 1.396 . S
C990 C991 1.399 . S
C991 H977 0.929 . S
C991 C990 1.399 . S
C991 C992 1.385 . S
C992 H978 0.931 . S
C992 C991 1.385 . S
C992 C993 1.389 . S
C993 C992 1.389 . S
C993 C994 1.387 . S
C994 H979 0.930 . S
C994 C989 1.390 . S
C994 C993 1.387 . S
H995 C1007 0.930 . S
H996 C1009 0.930 . S
H997 C1010 0.930 . S
H998 C1014 0.959 . S
H999 C1014 0.959 . S
H1000 C1014 0.961 . S
H1001 C1015 0.960 . S
H1002 C1015 0.961 . S
H1003 C1015 0.959 . S
H1004 C1018 0.929 . S
H1005 C1019 0.931 . S
H1006 C1021 0.930 . S
C1007 H995 0.930 . S
C1007 C1008 1.399 . S
C1007 C1012 1.399 . S
C1008 C1007 1.399 . S
C1008 C1009 1.376 . S
C1009 H996 0.930 . S
C1009 C1008 1.376 . S
C1009 C1010 1.388 . S
C1010 H997 0.930 . S
C1010 C1009 1.388 . S
C1010 C1011 1.390 . S
C1011 C1010 1.390 . S
C1011 C1012 1.394 . S
C1011 C1017 1.465 . S
C1012 C1007 1.399 . S
C1012 C1011 1.394 . S
C1012 C1013 1.516 . S
C1013 C1012 1.516 . S
C1013 C1014 1.502 . S
C1013 C1015 1.561 . S
C1013 C1016 1.526 . S
C1014 H998 0.959 . S
C1014 H999 0.959 . S
C1014 H1000 0.961 . S
C1014 C1013 1.502 . S
C1015 H1001 0.960 . S
C1015 H1002 0.961 . S
C1015 H1003 0.959 . S
C1015 C1013 1.561 . S
C1016 C1013 1.526 . S
C1016 C1017 1.396 . S
C1016 C1021 1.390 . S
C1017 C1011 1.465 . S
C1017 C1016 1.396 . S
C1017 C1018 1.399 . S
C1018 H1004 0.929 . S
C1018 C1017 1.399 . S
C1018 C1019 1.385 . S
C1019 H1005 0.931 . S
C1019 C1018 1.385 . S
C1019 C1020 1.389 . S
C1020 C1019 1.389 . S
C1020 C1021 1.387 . S
C1021 H1006 0.930 . S
C1021 C1016 1.390 . S
C1021 C1020 1.387 . S
H1022 C1034 0.930 . S
H1023 C1036 0.930 . S
H1024 C1037 0.930 . S
H1025 C1041 0.959 . S
H1026 C1041 0.959 . S
H1027 C1041 0.961 . S
H1028 C1042 0.960 . S
H1029 C1042 0.961 . S
H1030 C1042 0.959 . S
H1031 C1045 0.929 . S
H1032 C1046 0.931 . S
H1033 C1048 0.930 . S
C1034 H1022 0.930 . S
C1034 C1035 1.399 1_455 S
C1034 C1039 1.399 . S
C1035 C1034 1.399 1_655 S
C1035 C1036 1.376 . S
C1036 H1023 0.930 . S
C1036 C1035 1.376 . S
C1036 C1037 1.388 1_655 S
C1037 H1024 0.930 . S
C1037 C1036 1.388 1_455 S
C1037 C1038 1.390 . S
C1038 C1037 1.390 . S
C1038 C1039 1.394 . S
C1038 C1044 1.465 . S
C1039 C1034 1.399 . S
C1039 C1038 1.394 . S
C1039 C1040 1.516 . S
C1040 C1039 1.516 . S
C1040 C1041 1.502 . S
C1040 C1042 1.561 . S
C1040 C1043 1.526 . S
C1041 H1025 0.959 . S
C1041 H1026 0.959 . S
C1041 H1027 0.961 . S
C1041 C1040 1.502 . S
C1042 H1028 0.960 . S
C1042 H1029 0.961 . S
C1042 H1030 0.959 . S
C1042 C1040 1.561 . S
C1043 C1040 1.526 . S
C1043 C1044 1.396 . S
C1043 C1048 1.390 . S
C1044 C1038 1.465 . S
C1044 C1043 1.396 . S
C1044 C1045 1.399 . S
C1045 H1031 0.929 . S
C1045 C1044 1.399 . S
C1045 C1046 1.385 . S
C1046 H1032 0.931 . S
C1046 C1045 1.385 . S
C1046 C1047 1.389 . S
C1047 C1046 1.389 . S
C1047 C1048 1.387 . S
C1048 H1033 0.930 . S
C1048 C1043 1.390 . S
C1048 C1047 1.387 . S
H1049 C1061 0.930 . S
H1050 C1063 0.930 . S
H1051 C1064 0.930 . S
H1052 C1068 0.959 . S
H1053 C1068 0.959 . S
H1054 C1068 0.961 . S
H1055 C1069 0.960 . S
H1056 C1069 0.961 . S
H1057 C1069 0.959 . S
H1058 C1072 0.929 . S
H1059 C1073 0.931 . S
H1060 C1075 0.930 . S
C1061 H1049 0.930 . S
C1061 C1062 1.399 . S
C1061 C1066 1.399 . S
C1062 C1061 1.399 . S
C1062 C1063 1.376 . S
C1063 H1050 0.930 . S
C1063 C1062 1.376 . S
C1063 C1064 1.388 . S
C1064 H1051 0.930 . S
C1064 C1063 1.388 . S
C1064 C1065 1.390 . S
C1065 C1064 1.390 . S
C1065 C1066 1.394 . S
C1065 C1071 1.465 . S
C1066 C1061 1.399 . S
C1066 C1065 1.394 . S
C1066 C1067 1.516 . S
C1067 C1066 1.516 . S
C1067 C1068 1.502 . S
C1067 C1069 1.561 . S
C1067 C1070 1.526 . S
C1068 H1052 0.959 . S
C1068 H1053 0.959 . S
C1068 H1054 0.961 . S
C1068 C1067 1.502 . S
C1069 H1055 0.960 . S
C1069 H1056 0.961 . S
C1069 H1057 0.959 . S
C1069 C1067 1.561 . S
C1070 C1067 1.526 . S
C1070 C1071 1.396 . S
C1070 C1075 1.390 . S
C1071 C1065 1.465 . S
C1071 C1070 1.396 . S
C1071 C1072 1.399 . S
C1072 H1058 0.929 . S
C1072 C1071 1.399 . S
C1072 C1073 1.385 . S
C1073 H1059 0.931 . S
C1073 C1072 1.385 . S
C1073 C1074 1.389 . S
C1074 C1073 1.389 . S
C1074 C1075 1.387 . S
C1075 H1060 0.930 . S
C1075 C1070 1.390 . S
C1075 C1074 1.387 . S
H1076 C1088 0.930 . S
H1077 C1090 0.930 1_556 S
H1078 C1091 0.930 . S
H1079 C1095 0.959 . S
H1080 C1095 0.959 . S
H1081 C1095 0.961 . S
H1082 C1096 0.960 . S
H1083 C1096 0.961 . S
H1084 C1096 0.959 . S
H1085 C1099 0.929 . S
H1086 C1100 0.931 . S
H1087 C1102 0.930 . S
C1088 H1076 0.930 . S
C1088 C1089 1.399 . S
C1088 C1093 1.399 . S
C1089 C1088 1.399 . S
C1089 C1090 1.376 . S
C1090 H1077 0.930 1_554 S
C1090 C1089 1.376 . S
C1090 C1091 1.388 . S
C1091 H1078 0.930 . S
C1091 C1090 1.388 . S
C1091 C1092 1.390 . S
C1092 C1091 1.390 . S
C1092 C1093 1.394 . S
C1092 C1098 1.465 . S
C1093 C1088 1.399 . S
C1093 C1092 1.394 . S
C1093 C1094 1.516 . S
C1094 C1093 1.516 . S
C1094 C1095 1.502 . S
C1094 C1096 1.561 . S
C1094 C1097 1.526 . S
C1095 H1079 0.959 . S
C1095 H1080 0.959 . S
C1095 H1081 0.961 . S
C1095 C1094 1.502 . S
C1096 H1082 0.960 . S
C1096 H1083 0.961 . S
C1096 H1084 0.959 . S
C1096 C1094 1.561 . S
C1097 C1094 1.526 . S
C1097 C1098 1.396 . S
C1097 C1102 1.390 . S
C1098 C1092 1.465 . S
C1098 C1097 1.396 . S
C1098 C1099 1.399 . S
C1099 H1085 0.929 . S
C1099 C1098 1.399 . S
C1099 C1100 1.385 . S
C1100 H1086 0.931 . S
C1100 C1099 1.385 . S
C1100 C1101 1.389 . S
C1101 C1100 1.389 . S
C1101 C1102 1.387 . S
C1102 H1087 0.930 . S
C1102 C1097 1.390 . S
C1102 C1101 1.387 . S
H1103 C1115 0.930 . S
H1104 C1117 0.930 . S
H1105 C1118 0.930 . S
H1106 C1122 0.959 . S
H1107 C1122 0.959 . S
H1108 C1122 0.961 . S
H1109 C1123 0.960 . S
H1110 C1123 0.961 . S
H1111 C1123 0.959 . S
H1112 C1126 0.929 . S
H1113 C1127 0.931 1_554 S
H1114 C1129 0.930 . S
C1115 H1103 0.930 . S
C1115 C1116 1.399 . S
C1115 C1120 1.399 . S
C1116 C1115 1.399 . S
C1116 C1117 1.376 . S
C1117 H1104 0.930 . S
C1117 C1116 1.376 . S
C1117 C1118 1.388 . S
C1118 H1105 0.930 . S
C1118 C1117 1.388 . S
C1118 C1119 1.390 . S
C1119 C1118 1.390 . S
C1119 C1120 1.394 . S
C1119 C1125 1.465 . S
C1120 C1115 1.399 . S
C1120 C1119 1.394 . S
C1120 C1121 1.516 . S
C1121 C1120 1.516 . S
C1121 C1122 1.502 . S
C1121 C1123 1.561 . S
C1121 C1124 1.526 . S
C1122 H1106 0.959 . S
C1122 H1107 0.959 . S
C1122 H1108 0.961 . S
C1122 C1121 1.502 . S
C1123 H1109 0.960 . S
C1123 H1110 0.961 . S
C1123 H1111 0.959 . S
C1123 C1121 1.561 . S
C1124 C1121 1.526 . S
C1124 C1125 1.396 . S
C1124 C1129 1.390 . S
C1125 C1119 1.465 . S
C1125 C1124 1.396 . S
C1125 C1126 1.399 . S
C1126 H1112 0.929 . S
C1126 C1125 1.399 . S
C1126 C1127 1.385 . S
C1127 H1113 0.931 1_556 S
C1127 C1126 1.385 . S
C1127 C1128 1.389 . S
C1128 C1127 1.389 . S
C1128 C1129 1.387 . S
C1129 H1114 0.930 . S
C1129 C1124 1.390 . S
C1129 C1128 1.387 . S
H1130 C1142 0.930 1_455 S
H1131 C1144 0.930 . S
H1132 C1145 0.930 . S
H1133 C1149 0.959 . S
H1134 C1149 0.959 . S
H1135 C1149 0.961 . S
H1136 C1150 0.960 . S
H1137 C1150 0.961 . S
H1138 C1150 0.959 . S
H1139 C1153 0.929 . S
H1140 C1154 0.931 . S
H1141 C1156 0.930 . S
C1142 H1130 0.930 1_655 S
C1142 C1143 1.399 1_655 S
C1142 C1147 1.399 . S
C1143 C1142 1.399 1_455 S
C1143 C1144 1.376 1_455 S
C1144 H1131 0.930 . S
C1144 C1143 1.376 1_655 S
C1144 C1145 1.388 . S
C1145 H1132 0.930 . S
C1145 C1144 1.388 . S
C1145 C1146 1.390 . S
C1146 C1145 1.390 . S
C1146 C1147 1.394 . S
C1146 C1152 1.465 . S
C1147 C1142 1.399 . S
C1147 C1146 1.394 . S
C1147 C1148 1.516 . S
C1148 C1147 1.516 . S
C1148 C1149 1.502 . S
C1148 C1150 1.561 . S
C1148 C1151 1.526 . S
C1149 H1133 0.959 . S
C1149 H1134 0.959 . S
C1149 H1135 0.961 . S
C1149 C1148 1.502 . S
C1150 H1136 0.960 . S
C1150 H1137 0.961 . S
C1150 H1138 0.959 . S
C1150 C1148 1.561 . S
C1151 C1148 1.526 . S
C1151 C1152 1.396 . S
C1151 C1156 1.390 . S
C1152 C1146 1.465 . S
C1152 C1151 1.396 . S
C1152 C1153 1.399 . S
C1153 H1139 0.929 . S
C1153 C1152 1.399 . S
C1153 C1154 1.385 . S
C1154 H1140 0.931 . S
C1154 C1153 1.385 . S
C1154 C1155 1.389 . S
C1155 C1154 1.389 . S
C1155 C1156 1.387 . S
C1156 H1141 0.930 . S
C1156 C1151 1.390 . S
C1156 C1155 1.387 . S
H1157 C1169 0.930 . S
H1158 C1171 0.930 . S
H1159 C1172 0.930 . S
H1160 C1176 0.959 . S
H1161 C1176 0.959 . S
H1162 C1176 0.961 . S
H1163 C1177 0.960 . S
H1164 C1177 0.961 . S
H1165 C1177 0.959 . S
H1166 C1180 0.929 . S
H1167 C1181 0.931 . S
H1168 C1183 0.930 . S
C1169 H1157 0.930 . S
C1169 C1170 1.399 . S
C1169 C1174 1.399 . S
C1170 C1169 1.399 . S
C1170 C1171 1.376 . S
C1171 H1158 0.930 . S
C1171 C1170 1.376 . S
C1171 C1172 1.388 . S
C1172 H1159 0.930 . S
C1172 C1171 1.388 . S
C1172 C1173 1.390 . S
C1173 C1172 1.390 . S
C1173 C1174 1.394 . S
C1173 C1179 1.465 . S
C1174 C1169 1.399 . S
C1174 C1173 1.394 . S
C1174 C1175 1.516 . S
C1175 C1174 1.516 . S
C1175 C1176 1.502 . S
C1175 C1177 1.561 . S
C1175 C1178 1.526 . S
C1176 H1160 0.959 . S
C1176 H1161 0.959 . S
C1176 H1162 0.961 . S
C1176 C1175 1.502 . S
C1177 H1163 0.960 . S
C1177 H1164 0.961 . S
C1177 H1165 0.959 . S
C1177 C1175 1.561 . S
C1178 C1175 1.526 . S
C1178 C1179 1.396 . S
C1178 C1183 1.390 . S
C1179 C1173 1.465 . S
C1179 C1178 1.396 . S
C1179 C1180 1.399 . S
C1180 H1166 0.929 . S
C1180 C1179 1.399 . S
C1180 C1181 1.385 . S
C1181 H1167 0.931 . S
C1181 C1180 1.385 . S
C1181 C1182 1.389 . S
C1182 C1181 1.389 . S
C1182 C1183 1.387 . S
C1183 H1168 0.930 . S
C1183 C1178 1.390 . S
C1183 C1182 1.387 . S
H1184 C1196 0.930 . S
H1185 C1198 0.930 . S
H1186 C1199 0.930 . S
H1187 C1203 0.959 . S
H1188 C1203 0.959 . S
H1189 C1203 0.961 . S
H1190 C1204 0.960 . S
H1191 C1204 0.961 . S
H1192 C1204 0.959 . S
H1193 C1207 0.929 . S
H1194 C1208 0.931 . S
H1195 C1210 0.930 . S
C1196 H1184 0.930 . S
C1196 C1197 1.399 . S
C1196 C1201 1.399 . S
C1197 C1196 1.399 . S
C1197 C1198 1.376 . S
C1198 H1185 0.930 . S
C1198 C1197 1.376 . S
C1198 C1199 1.388 . S
C1199 H1186 0.930 . S
C1199 C1198 1.388 . S
C1199 C1200 1.390 . S
C1200 C1199 1.390 . S
C1200 C1201 1.394 . S
C1200 C1206 1.465 . S
C1201 C1196 1.399 . S
C1201 C1200 1.394 . S
C1201 C1202 1.516 . S
C1202 C1201 1.516 . S
C1202 C1203 1.502 . S
C1202 C1204 1.561 . S
C1202 C1205 1.526 . S
C1203 H1187 0.959 . S
C1203 H1188 0.959 . S
C1203 H1189 0.961 . S
C1203 C1202 1.502 . S
C1204 H1190 0.960 . S
C1204 H1191 0.961 . S
C1204 H1192 0.959 . S
C1204 C1202 1.561 . S
C1205 C1202 1.526 . S
C1205 C1206 1.396 . S
C1205 C1210 1.390 . S
C1206 C1200 1.465 . S
C1206 C1205 1.396 . S
C1206 C1207 1.399 1_655 S
C1207 H1193 0.929 . S
C1207 C1206 1.399 1_455 S
C1207 C1208 1.385 . S
C1208 H1194 0.931 . S
C1208 C1207 1.385 . S
C1208 C1209 1.389 . S
C1209 C1208 1.389 . S
C1209 C1210 1.387 1_455 S
C1210 H1195 0.930 . S
C1210 C1205 1.390 . S
C1210 C1209 1.387 1_655 S
H1211 C1223 0.930 . S
H1212 C1225 0.930 . S
H1213 C1226 0.930 . S
H1214 C1230 0.959 . S
H1215 C1230 0.959 . S
H1216 C1230 0.961 . S
H1217 C1231 0.960 . S
H1218 C1231 0.961 . S
H1219 C1231 0.959 . S
H1220 C1234 0.929 . S
H1221 C1235 0.931 . S
H1222 C1237 0.930 . S
C1223 H1211 0.930 . S
C1223 C1224 1.399 . S
C1223 C1228 1.399 . S
C1224 C1223 1.399 . S
C1224 C1225 1.376 . S
C1225 H1212 0.930 . S
C1225 C1224 1.376 . S
C1225 C1226 1.388 . S
C1226 H1213 0.930 . S
C1226 C1225 1.388 . S
C1226 C1227 1.390 . S
C1227 C1226 1.390 . S
C1227 C1228 1.394 . S
C1227 C1233 1.465 . S
C1228 C1223 1.399 . S
C1228 C1227 1.394 . S
C1228 C1229 1.516 . S
C1229 C1228 1.516 . S
C1229 C1230 1.502 . S
C1229 C1231 1.561 . S
C1229 C1232 1.526 . S
C1230 H1214 0.959 . S
C1230 H1215 0.959 . S
C1230 H1216 0.961 . S
C1230 C1229 1.502 . S
C1231 H1217 0.960 . S
C1231 H1218 0.961 . S
C1231 H1219 0.959 . S
C1231 C1229 1.561 . S
C1232 C1229 1.526 . S
C1232 C1233 1.396 . S
C1232 C1237 1.390 . S
C1233 C1227 1.465 . S
C1233 C1232 1.396 . S
C1233 C1234 1.399 . S
C1234 H1220 0.929 . S
C1234 C1233 1.399 . S
C1234 C1235 1.385 . S
C1235 H1221 0.931 . S
C1235 C1234 1.385 . S
C1235 C1236 1.389 . S
C1236 C1235 1.389 . S
C1236 C1237 1.387 . S
C1237 H1222 0.930 . S
C1237 C1232 1.390 . S
C1237 C1236 1.387 . S
H1238 C1250 0.930 . S
H1239 C1252 0.930 . S
H1240 C1253 0.930 . S
H1241 C1257 0.959 . S
H1242 C1257 0.959 . S
H1243 C1257 0.961 . S
H1244 C1258 0.960 . S
H1245 C1258 0.961 . S
H1246 C1258 0.959 . S
H1247 C1261 0.929 . S
H1248 C1262 0.931 . S
H1249 C1264 0.930 . S
C1250 H1238 0.930 . S
C1250 C1251 1.399 . S
C1250 C1255 1.399 . S
C1251 C1250 1.399 . S
C1251 C1252 1.376 . S
C1252 H1239 0.930 . S
C1252 C1251 1.376 . S
C1252 C1253 1.388 . S
C1253 H1240 0.930 . S
C1253 C1252 1.388 . S
C1253 C1254 1.390 . S
C1254 C1253 1.390 . S
C1254 C1255 1.394 . S
C1254 C1260 1.465 . S
C1255 C1250 1.399 . S
C1255 C1254 1.394 . S
C1255 C1256 1.516 . S
C1256 C1255 1.516 . S
C1256 C1257 1.502 . S
C1256 C1258 1.561 . S
C1256 C1259 1.526 . S
C1257 H1241 0.959 . S
C1257 H1242 0.959 . S
C1257 H1243 0.961 . S
C1257 C1256 1.502 . S
C1258 H1244 0.960 . S
C1258 H1245 0.961 . S
C1258 H1246 0.959 . S
C1258 C1256 1.561 . S
C1259 C1256 1.526 . S
C1259 C1260 1.396 . S
C1259 C1264 1.390 . S
C1260 C1254 1.465 . S
C1260 C1259 1.396 . S
C1260 C1261 1.399 . S
C1261 H1247 0.929 . S
C1261 C1260 1.399 . S
C1261 C1262 1.385 . S
C1262 H1248 0.931 . S
C1262 C1261 1.385 . S
C1262 C1263 1.389 . S
C1263 C1262 1.389 . S
C1263 C1264 1.387 . S
C1264 H1249 0.930 . S
C1264 C1259 1.390 . S
C1264 C1263 1.387 . S
H1265 C1277 0.930 . S
H1266 C1279 0.930 . S
H1267 C1280 0.930 . S
H1268 C1284 0.959 . S
H1269 C1284 0.959 . S
H1270 C1284 0.961 . S
H1271 C1285 0.960 . S
H1272 C1285 0.961 . S
H1273 C1285 0.959 . S
H1274 C1288 0.929 . S
H1275 C1289 0.931 . S
H1276 C1291 0.930 . S
C1277 H1265 0.930 . S
C1277 C1278 1.399 . S
C1277 C1282 1.399 . S
C1278 C1277 1.399 . S
C1278 C1279 1.376 . S
C1279 H1266 0.930 . S
C1279 C1278 1.376 . S
C1279 C1280 1.388 . S
C1280 H1267 0.930 . S
C1280 C1279 1.388 . S
C1280 C1281 1.390 . S
C1281 C1280 1.390 . S
C1281 C1282 1.394 . S
C1281 C1287 1.465 . S
C1282 C1277 1.399 . S
C1282 C1281 1.394 . S
C1282 C1283 1.516 . S
C1283 C1282 1.516 . S
C1283 C1284 1.502 . S
C1283 C1285 1.561 . S
C1283 C1286 1.526 . S
C1284 H1268 0.959 . S
C1284 H1269 0.959 . S
C1284 H1270 0.961 . S
C1284 C1283 1.502 . S
C1285 H1271 0.960 . S
C1285 H1272 0.961 . S
C1285 H1273 0.959 . S
C1285 C1283 1.561 . S
C1286 C1283 1.526 . S
C1286 C1287 1.396 . S
C1286 C1291 1.390 . S
C1287 C1281 1.465 . S
C1287 C1286 1.396 . S
C1287 C1288 1.399 . S
C1288 H1274 0.929 . S
C1288 C1287 1.399 . S
C1288 C1289 1.385 . S
C1289 H1275 0.931 . S
C1289 C1288 1.385 . S
C1289 C1290 1.389 . S
C1290 C1289 1.389 . S
C1290 C1291 1.387 . S
C1291 H1276 0.930 . S
C1291 C1286 1.390 . S
C1291 C1290 1.387 . S
H1292 C1304 0.930 . S
H1293 C1306 0.930 . S
H1294 C1307 0.930 . S
H1295 C1311 0.960 . S
H1296 C1311 0.961 . S
H1297 C1311 0.960 1_455 S
H1298 C1312 0.960 . S
H1299 C1312 0.961 . S
H1300 C1312 0.959 . S
H1301 C1315 0.929 . S
H1302 C1316 0.931 . S
H1303 C1318 0.930 . S
C1304 H1292 0.930 . S
C1304 C1305 1.399 . S
C1304 C1309 1.399 . S
C1305 C1304 1.399 . S
C1305 C1306 1.376 . S
C1306 H1293 0.930 . S
C1306 C1305 1.376 . S
C1306 C1307 1.388 . S
C1307 H1294 0.930 . S
C1307 C1306 1.388 . S
C1307 C1308 1.390 . S
C1308 C1307 1.390 . S
C1308 C1309 1.394 . S
C1308 C1314 1.465 . S
C1309 C1304 1.399 . S
C1309 C1308 1.394 . S
C1309 C1310 1.516 . S
C1310 C1309 1.516 . S
C1310 C1311 1.500 1_455 S
C1310 C1312 1.561 . S
C1310 C1313 1.526 . S
C1311 H1295 0.960 . S
C1311 H1296 0.961 . S
C1311 H1297 0.960 1_655 S
C1311 C1310 1.500 1_655 S
C1312 H1298 0.960 . S
C1312 H1299 0.961 . S
C1312 H1300 0.959 . S
C1312 C1310 1.561 . S
C1313 C1310 1.526 . S
C1313 C1314 1.396 . S
C1313 C1318 1.390 1_455 S
C1314 C1308 1.465 . S
C1314 C1313 1.396 . S
C1314 C1315 1.399 . S
C1315 H1301 0.929 . S
C1315 C1314 1.399 . S
C1315 C1316 1.385 . S
C1316 H1302 0.931 . S
C1316 C1315 1.385 . S
C1316 C1317 1.364 1_455 S
C1317 C1316 1.364 1_655 S
C1317 C1318 1.389 . S
C1318 H1303 0.930 . S
C1318 C1313 1.390 1_655 S
C1318 C1317 1.389 . S
H1319 C1331 0.930 . S
H1320 C1333 0.930 . S
H1321 C1334 0.930 . S
H1322 C1338 0.959 . S
H1323 C1338 0.959 . S
H1324 C1338 0.961 . S
H1325 C1339 0.960 . S
H1326 C1339 0.961 . S
H1327 C1339 0.959 . S
H1328 C1342 0.929 . S
H1329 C1343 0.931 . S
H1330 C1345 0.930 . S
C1331 H1319 0.930 . S
C1331 C1332 1.399 . S
C1331 C1336 1.399 . S
C1332 C1331 1.399 . S
C1332 C1333 1.376 . S
C1333 H1320 0.930 . S
C1333 C1332 1.376 . S
C1333 C1334 1.388 . S
C1334 H1321 0.930 . S
C1334 C1333 1.388 . S
C1334 C1335 1.390 . S
C1335 C1334 1.390 . S
C1335 C1336 1.394 . S
C1335 C1341 1.465 . S
C1336 C1331 1.399 . S
C1336 C1335 1.394 . S
C1336 C1337 1.516 . S
C1337 C1336 1.516 . S
C1337 C1338 1.502 . S
C1337 C1339 1.561 . S
C1337 C1340 1.526 . S
C1338 H1322 0.959 . S
C1338 H1323 0.959 . S
C1338 H1324 0.961 . S
C1338 C1337 1.502 . S
C1339 H1325 0.960 . S
C1339 H1326 0.961 . S
C1339 H1327 0.959 . S
C1339 C1337 1.561 . S
C1340 C1337 1.526 . S
C1340 C1341 1.396 . S
C1340 C1345 1.390 . S
C1341 C1335 1.465 . S
C1341 C1340 1.396 . S
C1341 C1342 1.399 . S
C1342 H1328 0.929 . S
C1342 C1341 1.399 . S
C1342 C1343 1.385 . S
C1343 H1329 0.931 . S
C1343 C1342 1.385 . S
C1343 C1344 1.389 . S
C1344 C1343 1.389 . S
C1344 C1345 1.387 . S
C1345 H1330 0.930 . S
C1345 C1340 1.390 . S
C1345 C1344 1.387 . S
H1346 C1358 0.930 . S
H1347 C1360 0.917 1_556 S
H1348 C1361 0.930 . S
H1349 C1365 0.959 . S
H1350 C1365 0.959 . S
H1351 C1365 0.961 . S
H1352 C1366 0.960 . S
H1353 C1366 0.961 . S
H1354 C1366 0.959 . S
H1355 C1369 0.929 . S
H1356 C1370 0.931 . S
H1357 C1372 0.930 . S
C1358 H1346 0.930 . S
C1358 C1359 1.399 . S
C1358 C1363 1.399 . S
C1359 C1358 1.399 . S
C1359 C1360 1.376 . S
C1360 H1347 0.917 1_554 S
C1360 C1359 1.376 . S
C1360 C1361 1.388 . S
C1361 H1348 0.930 . S
C1361 C1360 1.388 . S
C1361 C1362 1.390 . S
C1362 C1361 1.390 . S
C1362 C1363 1.394 . S
C1362 C1368 1.465 . S
C1363 C1358 1.399 . S
C1363 C1362 1.394 . S
C1363 C1364 1.516 . S
C1364 C1363 1.516 . S
C1364 C1365 1.502 . S
C1364 C1366 1.561 . S
C1364 C1367 1.526 . S
C1365 H1349 0.959 . S
C1365 H1350 0.959 . S
C1365 H1351 0.961 . S
C1365 C1364 1.502 . S
C1366 H1352 0.960 . S
C1366 H1353 0.961 . S
C1366 H1354 0.959 . S
C1366 C1364 1.561 . S
C1367 C1364 1.526 . S
C1367 C1368 1.396 . S
C1367 C1372 1.390 . S
C1368 C1362 1.465 . S
C1368 C1367 1.396 . S
C1368 C1369 1.399 . S
C1369 H1355 0.929 . S
C1369 C1368 1.399 . S
C1369 C1370 1.385 . S
C1370 H1356 0.931 . S
C1370 C1369 1.385 . S
C1370 C1371 1.389 . S
C1371 C1370 1.389 . S
C1371 C1372 1.387 . S
C1372 H1357 0.930 . S
C1372 C1367 1.390 . S
C1372 C1371 1.387 . S
H1373 C1385 0.930 . S
H1374 C1387 0.930 . S
H1375 C1388 0.930 . S
H1376 C1392 0.959 . S
H1377 C1392 0.959 . S
H1378 C1392 0.961 . S
H1379 C1393 0.960 . S
H1380 C1393 0.961 . S
H1381 C1393 0.959 . S
H1382 C1396 0.929 . S
H1383 C1397 0.931 . S
H1384 C1399 0.930 . S
C1385 H1373 0.930 . S
C1385 C1386 1.399 . S
C1385 C1390 1.399 . S
C1386 C1385 1.399 . S
C1386 C1387 1.376 . S
C1387 H1374 0.930 . S
C1387 C1386 1.376 . S
C1387 C1388 1.388 . S
C1388 H1375 0.930 . S
C1388 C1387 1.388 . S
C1388 C1389 1.390 . S
C1389 C1388 1.390 . S
C1389 C1390 1.394 . S
C1389 C1395 1.465 . S
C1390 C1385 1.399 . S
C1390 C1389 1.394 . S
C1390 C1391 1.516 . S
C1391 C1390 1.516 . S
C1391 C1392 1.502 . S
C1391 C1393 1.561 . S
C1391 C1394 1.526 . S
C1392 H1376 0.959 . S
C1392 H1377 0.959 . S
C1392 H1378 0.961 . S
C1392 C1391 1.502 . S
C1393 H1379 0.960 . S
C1393 H1380 0.961 . S
C1393 H1381 0.959 . S
C1393 C1391 1.561 . S
C1394 C1391 1.526 . S
C1394 C1395 1.396 . S
C1394 C1399 1.390 . S
C1395 C1389 1.465 . S
C1395 C1394 1.396 . S
C1395 C1396 1.399 . S
C1396 H1382 0.929 . S
C1396 C1395 1.399 . S
C1396 C1397 1.385 . S
C1397 H1383 0.931 . S
C1397 C1396 1.385 . S
C1397 C1398 1.389 . S
C1398 C1397 1.389 . S
C1398 C1399 1.387 . S
C1399 H1384 0.930 . S
C1399 C1394 1.390 . S
C1399 C1398 1.387 . S
H1400 C1412 0.930 . S
H1401 C1414 0.930 . S
H1402 C1415 0.930 . S
H1403 C1419 0.959 . S
H1404 C1419 0.959 . S
H1405 C1419 0.961 . S
H1406 C1420 0.960 . S
H1407 C1420 0.961 . S
H1408 C1420 0.959 . S
H1409 C1423 0.929 . S
H1410 C1424 0.931 . S
H1411 C1426 0.930 . S
C1412 H1400 0.930 . S
C1412 C1413 1.399 . S
C1412 C1417 1.399 . S
C1413 C1412 1.399 . S
C1413 C1414 1.376 . S
C1414 H1401 0.930 . S
C1414 C1413 1.376 . S
C1414 C1415 1.388 . S
C1415 H1402 0.930 . S
C1415 C1414 1.388 . S
C1415 C1416 1.390 . S
C1416 C1415 1.390 . S
C1416 C1417 1.394 . S
C1416 C1422 1.465 . S
C1417 C1412 1.399 . S
C1417 C1416 1.394 . S
C1417 C1418 1.516 . S
C1418 C1417 1.516 . S
C1418 C1419 1.502 . S
C1418 C1420 1.561 . S
C1418 C1421 1.526 . S
C1419 H1403 0.959 . S
C1419 H1404 0.959 . S
C1419 H1405 0.961 . S
C1419 C1418 1.502 . S
C1420 H1406 0.960 . S
C1420 H1407 0.961 . S
C1420 H1408 0.959 . S
C1420 C1418 1.561 . S
C1421 C1418 1.526 . S
C1421 C1422 1.396 . S
C1421 C1426 1.390 . S
C1422 C1416 1.465 . S
C1422 C1421 1.396 . S
C1422 C1423 1.399 . S
C1423 H1409 0.929 . S
C1423 C1422 1.399 . S
C1423 C1424 1.385 . S
C1424 H1410 0.931 . S
C1424 C1423 1.385 . S
C1424 C1425 1.389 . S
C1425 C1424 1.389 . S
C1425 C1426 1.387 . S
C1426 H1411 0.930 . S
C1426 C1421 1.390 . S
C1426 C1425 1.387 . S
H1427 C1439 0.930 . S
H1428 C1441 0.930 . S
H1429 C1442 0.930 . S
H1430 C1446 0.959 . S
H1431 C1446 0.959 . S
H1432 C1446 0.961 . S
H1433 C1447 0.960 . S
H1434 C1447 0.961 . S
H1435 C1447 0.959 . S
H1436 C1450 0.929 . S
H1437 C1451 0.931 . S
H1438 C1453 0.930 . S
C1439 H1427 0.930 . S
C1439 C1440 1.399 . S
C1439 C1444 1.399 . S
C1440 C1439 1.399 . S
C1440 C1441 1.376 . S
C1441 H1428 0.930 . S
C1441 C1440 1.376 . S
C1441 C1442 1.388 . S
C1442 H1429 0.930 . S
C1442 C1441 1.388 . S
C1442 C1443 1.390 . S
C1443 C1442 1.390 . S
C1443 C1444 1.394 . S
C1443 C1449 1.465 . S
C1444 C1439 1.399 . S
C1444 C1443 1.394 . S
C1444 C1445 1.516 . S
C1445 C1444 1.516 . S
C1445 C1446 1.502 . S
C1445 C1447 1.561 . S
C1445 C1448 1.526 . S
C1446 H1430 0.959 . S
C1446 H1431 0.959 . S
C1446 H1432 0.961 . S
C1446 C1445 1.502 . S
C1447 H1433 0.960 . S
C1447 H1434 0.961 . S
C1447 H1435 0.959 . S
C1447 C1445 1.561 . S
C1448 C1445 1.526 . S
C1448 C1449 1.396 . S
C1448 C1453 1.390 . S
C1449 C1443 1.465 . S
C1449 C1448 1.396 . S
C1449 C1450 1.399 . S
C1450 H1436 0.929 . S
C1450 C1449 1.399 . S
C1450 C1451 1.385 . S
C1451 H1437 0.931 . S
C1451 C1450 1.385 . S
C1451 C1452 1.389 . S
C1452 C1451 1.389 . S
C1452 C1453 1.387 . S
C1453 H1438 0.930 . S
C1453 C1448 1.390 . S
C1453 C1452 1.387 . S
H1454 C1466 0.930 . S
H1455 C1468 0.930 . S
H1456 C1469 0.930 . S
H1457 C1473 0.959 . S
H1458 C1473 0.959 . S
H1459 C1473 0.961 . S
H1460 C1474 0.960 . S
H1461 C1474 0.961 . S
H1462 C1474 0.959 . S
H1463 C1477 0.929 . S
H1464 C1478 0.931 . S
H1465 C1480 0.930 . S
C1466 H1454 0.930 . S
C1466 C1467 1.399 . S
C1466 C1471 1.399 . S
C1467 C1466 1.399 . S
C1467 C1468 1.376 . S
C1468 H1455 0.930 . S
C1468 C1467 1.376 . S
C1468 C1469 1.388 . S
C1469 H1456 0.930 . S
C1469 C1468 1.388 . S
C1469 C1470 1.390 . S
C1470 C1469 1.390 . S
C1470 C1471 1.394 . S
C1470 C1476 1.465 . S
C1471 C1466 1.399 . S
C1471 C1470 1.394 . S
C1471 C1472 1.516 . S
C1472 C1471 1.516 . S
C1472 C1473 1.502 . S
C1472 C1474 1.561 . S
C1472 C1475 1.526 . S
C1473 H1457 0.959 . S
C1473 H1458 0.959 . S
C1473 H1459 0.961 . S
C1473 C1472 1.502 . S
C1474 H1460 0.960 . S
C1474 H1461 0.961 . S
C1474 H1462 0.959 . S
C1474 C1472 1.561 . S
C1475 C1472 1.526 . S
C1475 C1476 1.396 . S
C1475 C1480 1.390 . S
C1476 C1470 1.465 . S
C1476 C1475 1.396 . S
C1476 C1477 1.399 . S
C1477 H1463 0.929 . S
C1477 C1476 1.399 . S
C1477 C1478 1.385 . S
C1478 H1464 0.931 . S
C1478 C1477 1.385 . S
C1478 C1479 1.389 . S
C1479 C1478 1.389 . S
C1479 C1480 1.387 . S
C1480 H1465 0.930 . S
C1480 C1475 1.390 . S
C1480 C1479 1.387 . S
H1481 C1493 0.930 . S
H1482 C1495 0.930 . S
H1483 C1496 0.930 . S
H1484 C1500 0.959 1_554 S
H1485 C1500 0.959 . S
H1486 C1500 0.961 . S
H1487 C1501 0.949 1_455 S
H1488 C1501 0.961 . S
H1489 C1501 0.959 1_455 S
H1490 C1504 0.929 1_554 S
H1491 C1505 0.931 . S
H1492 C1507 0.930 . S
C1493 H1481 0.930 . S
C1493 C1494 1.399 . S
C1493 C1498 1.399 . S
C1494 C1493 1.399 . S
C1494 C1495 1.376 . S
C1495 H1482 0.930 . S
C1495 C1494 1.376 . S
C1495 C1496 1.388 . S
C1496 H1483 0.930 . S
C1496 C1495 1.388 . S
C1496 C1497 1.390 . S
C1497 C1496 1.390 . S
C1497 C1498 1.394 . S
C1497 C1503 1.486 1_554 S
C1498 C1493 1.399 . S
C1498 C1497 1.394 . S
C1498 C1499 1.516 1_454 S
C1499 C1498 1.516 1_656 S
C1499 C1500 1.502 . S
C1499 C1501 1.561 . S
C1499 C1502 1.526 . S
C1500 H1484 0.959 1_556 S
C1500 H1485 0.959 . S
C1500 H1486 0.961 . S
C1500 C1499 1.502 . S
C1501 H1487 0.949 1_655 S
C1501 H1488 0.961 . S
C1501 H1489 0.959 1_655 S
C1501 C1499 1.561 . S
C1502 C1499 1.526 . S
C1502 C1503 1.372 1_655 S
C1502 C1507 1.390 . S
C1503 C1497 1.486 1_556 S
C1503 C1502 1.372 1_455 S
C1503 C1504 1.400 . S
C1504 H1490 0.929 1_556 S
C1504 C1503 1.400 . S
C1504 C1505 1.385 1_455 S
C1505 H1491 0.931 . S
C1505 C1504 1.385 1_655 S
C1505 C1506 1.389 . S
C1506 C1505 1.389 . S
C1506 C1507 1.387 . S
C1507 H1492 0.930 . S
C1507 C1502 1.390 . S
C1507 C1506 1.387 . S
H1508 C1520 0.930 . S
H1509 C1522 0.930 . S
H1510 C1523 0.930 . S
H1511 C1527 0.959 . S
H1512 C1527 0.959 . S
H1513 C1527 0.961 . S
H1514 C1528 0.960 . S
H1515 C1528 0.961 . S
H1516 C1528 0.959 . S
H1517 C1531 0.929 . S
H1518 C1532 0.931 . S
H1519 C1534 0.930 . S
C1520 H1508 0.930 . S
C1520 C1521 1.399 . S
C1520 C1525 1.399 . S
C1521 C1520 1.399 . S
C1521 C1522 1.376 . S
C1522 H1509 0.930 . S
C1522 C1521 1.376 . S
C1522 C1523 1.388 . S
C1523 H1510 0.930 . S
C1523 C1522 1.388 . S
C1523 C1524 1.390 . S
C1524 C1523 1.390 . S
C1524 C1525 1.394 . S
C1524 C1530 1.465 . S
C1525 C1520 1.399 . S
C1525 C1524 1.394 . S
C1525 C1526 1.516 . S
C1526 C1525 1.516 . S
C1526 C1527 1.502 . S
C1526 C1528 1.561 . S
C1526 C1529 1.526 . S
C1527 H1511 0.959 . S
C1527 H1512 0.959 . S
C1527 H1513 0.961 . S
C1527 C1526 1.502 . S
C1528 H1514 0.960 . S
C1528 H1515 0.961 . S
C1528 H1516 0.959 . S
C1528 C1526 1.561 . S
C1529 C1526 1.526 . S
C1529 C1530 1.396 . S
C1529 C1534 1.390 . S
C1530 C1524 1.465 . S
C1530 C1529 1.396 . S
C1530 C1531 1.399 . S
C1531 H1517 0.929 . S
C1531 C1530 1.399 . S
C1531 C1532 1.385 . S
C1532 H1518 0.931 . S
C1532 C1531 1.385 . S
C1532 C1533 1.389 . S
C1533 C1532 1.389 . S
C1533 C1534 1.387 . S
C1534 H1519 0.930 . S
C1534 C1529 1.390 . S
C1534 C1533 1.387 . S
H1535 C1547 0.930 . S
H1536 C1549 0.930 . S
H1537 C1550 0.930 . S
H1538 C1554 0.959 . S
H1539 C1554 0.959 . S
H1540 C1554 0.961 . S
H1541 C1555 0.960 . S
H1542 C1555 0.961 . S
H1543 C1555 0.959 . S
H1544 C1558 0.929 . S
H1545 C1559 0.931 . S
H1546 C1561 0.930 . S
C1547 H1535 0.930 . S
C1547 C1548 1.399 . S
C1547 C1552 1.399 . S
C1548 C1547 1.399 . S
C1548 C1549 1.376 . S
C1549 H1536 0.930 . S
C1549 C1548 1.376 . S
C1549 C1550 1.388 . S
C1550 H1537 0.930 . S
C1550 C1549 1.388 . S
C1550 C1551 1.390 . S
C1551 C1550 1.390 . S
C1551 C1552 1.394 . S
C1551 C1557 1.465 . S
C1552 C1547 1.399 . S
C1552 C1551 1.394 . S
C1552 C1553 1.516 . S
C1553 C1552 1.516 . S
C1553 C1554 1.502 . S
C1553 C1555 1.561 . S
C1553 C1556 1.526 . S
C1554 H1538 0.959 . S
C1554 H1539 0.959 . S
C1554 H1540 0.961 . S
C1554 C1553 1.502 . S
C1555 H1541 0.960 . S
C1555 H1542 0.961 . S
C1555 H1543 0.959 . S
C1555 C1553 1.561 . S
C1556 C1553 1.526 . S
C1556 C1557 1.396 . S
C1556 C1561 1.390 . S
C1557 C1551 1.465 . S
C1557 C1556 1.396 . S
C1557 C1558 1.399 . S
C1558 H1544 0.929 . S
C1558 C1557 1.399 . S
C1558 C1559 1.385 . S
C1559 H1545 0.931 . S
C1559 C1558 1.385 . S
C1559 C1560 1.389 . S
C1560 C1559 1.389 . S
C1560 C1561 1.387 . S
C1561 H1546 0.930 . S
C1561 C1556 1.390 . S
C1561 C1560 1.387 . S
H1562 C1574 0.921 1_554 S
H1563 C1576 0.930 . S
H1564 C1577 0.930 1_565 S
H1565 C1581 0.959 . S
H1566 C1581 0.959 . S
H1567 C1581 0.961 . S
H1568 C1582 0.960 . S
H1569 C1582 0.961 . S
H1570 C1582 0.959 . S
H1571 C1585 0.929 . S
H1572 C1586 0.931 . S
H1573 C1588 0.930 . S
C1574 H1562 0.921 1_556 S
C1574 C1575 1.399 . S
C1574 C1579 1.399 . S
C1575 C1574 1.399 . S
C1575 C1576 1.376 . S
C1576 H1563 0.930 . S
C1576 C1575 1.376 . S
C1576 C1577 1.388 . S
C1577 H1564 0.930 1_545 S
C1577 C1576 1.388 . S
C1577 C1578 1.390 . S
C1578 C1577 1.390 . S
C1578 C1579 1.394 . S
C1578 C1584 1.465 1_445 S
C1579 C1574 1.399 . S
C1579 C1578 1.394 . S
C1579 C1580 1.516 1_556 S
C1580 C1579 1.516 1_554 S
C1580 C1581 1.502 . S
C1580 C1582 1.561 1_455 S
C1580 C1583 1.526 1_445 S
C1581 H1565 0.959 . S
C1581 H1566 0.959 . S
C1581 H1567 0.961 . S
C1581 C1580 1.502 . S
C1582 H1568 0.960 . S
C1582 H1569 0.961 . S
C1582 H1570 0.959 . S
C1582 C1580 1.561 1_655 S
C1583 C1580 1.526 1_665 S
C1583 C1584 1.396 1_554 S
C1583 C1588 1.390 . S
C1584 C1578 1.465 1_665 S
C1584 C1583 1.396 1_556 S
C1584 C1585 1.399 . S
C1585 H1571 0.929 . S
C1585 C1584 1.399 . S
C1585 C1586 1.385 1_556 S
C1586 H1572 0.931 . S
C1586 C1585 1.385 1_554 S
C1586 C1587 1.389 . S
C1587 C1586 1.389 . S
C1587 C1588 1.387 . S
C1588 H1573 0.930 . S
C1588 C1583 1.390 . S
C1588 C1587 1.387 . S
H1589 C1601 0.930 . S
H1590 C1603 0.930 . S
H1591 C1604 0.930 . S
H1592 C1608 0.959 . S
H1593 C1608 0.959 . S
H1594 C1608 0.961 . S
H1595 C1609 0.960 . S
H1596 C1609 0.961 . S
H1597 C1609 0.959 . S
H1598 C1612 0.929 . S
H1599 C1613 0.931 . S
H1600 C1615 0.930 . S
C1601 H1589 0.930 . S
C1601 C1602 1.399 . S
C1601 C1606 1.399 . S
C1602 C1601 1.399 . S
C1602 C1603 1.376 . S
C1603 H1590 0.930 . S
C1603 C1602 1.376 . S
C1603 C1604 1.388 . S
C1604 H1591 0.930 . S
C1604 C1603 1.388 . S
C1604 C1605 1.390 . S
C1605 C1604 1.390 . S
C1605 C1606 1.394 . S
C1605 C1611 1.493 . S
C1606 C1601 1.399 . S
C1606 C1605 1.394 . S
C1606 C1607 1.516 1_545 S
C1607 C1606 1.516 1_565 S
C1607 C1608 1.502 . S
C1607 C1609 1.561 . S
C1607 C1610 1.526 . S
C1608 H1592 0.959 . S
C1608 H1593 0.959 . S
C1608 H1594 0.961 . S
C1608 C1607 1.502 . S
C1609 H1595 0.960 . S
C1609 H1596 0.961 . S
C1609 H1597 0.959 . S
C1609 C1607 1.561 . S
C1610 C1607 1.526 . S
C1610 C1611 1.359 1_565 S
C1610 C1615 1.390 . S
C1611 C1605 1.493 . S
C1611 C1610 1.359 1_545 S
C1611 C1612 1.404 . S
C1612 H1598 0.929 . S
C1612 C1611 1.404 . S
C1612 C1613 1.385 1_545 S
C1613 H1599 0.931 . S
C1613 C1612 1.385 1_565 S
C1613 C1614 1.389 . S
C1614 C1613 1.389 . S
C1614 C1615 1.387 . S
C1615 H1600 0.930 . S
C1615 C1610 1.390 . S
C1615 C1614 1.387 . S
C333 C16 0.713 . S
C345 C216 0.745 . S
C360 C36 0.823 . S
C372 C236 0.761 . S
C387 C56 0.842 . S
C399 C176 0.719 . S
C414 C76 0.687 . S
C426 C196 0.778 . S
C441 C86 0.702 . S
C453 C286 0.827 . S
C468 C106 0.673 . S
C480 C306 0.837 . S
C495 C126 0.792 . S
C507 C246 0.719 . S
C522 C146 0.781 . S
C534 C266 0.730 . S
C549 C181 1.739 . S
C561 C6 1.772 . S
C576 C201 1.694 . S
C588 C26 1.779 . S
C603 C221 1.740 . S
C615 C46 1.771 . S
C630 C161 1.697 . S
C642 C66 1.779 . S
C657 C96 1.712 . S
C669 C269 1.689 . S
C684 C289 1.753 . S
C696 C116 1.764 . S
C711 C309 1.669 . S
C723 C136 1.729 . S
C738 C249 1.670 . S
C750 C156 1.725 . S
C765 C21 1.695 . S
C777 C166 1.717 . S
C792 C186 1.772 . S
C804 C41 1.673 . S
C819 C206 1.747 . S
C831 C61 1.753 . S
C846 C226 1.731 . S
C858 C1 1.749 . S
C873 C256 1.712 . S
C885 C109 1.691 . S
C900 C129 1.670 . S
C912 C276 1.725 . S
C927 C149 1.686 . S
C939 C296 1.759 . S
C954 C316 1.714 . S
C966 C89 1.704 . S
C981 C8 1.494 1_556 S
C993 C301 1.600 . S
C1008 C28 1.535 . S
C1020 C81 1.592 1_554 S
C1035 C261 1.602 . S
C1047 C48 1.467 . S
C1062 C121 1.595 . S
C1074 C68 1.438 . S
C1089 C99 1.433 1_554 S
C1101 C229 1.603 . S
C1116 C119 1.490 . S
C1128 C9 1.590 1_556 S
C1143 C189 1.589 . S
C1155 C139 1.494 . S
C1170 C49 1.598 . S
C1182 C159 1.445 . S
C1197 C168 1.533 . S
C1209 C141 1.592 . S
C1224 C188 1.435 . S
C1236 C241 1.596 . S
C1251 C101 1.601 . S
C1263 C208 1.437 1_556 S
C1278 C281 1.602 1_554 S
C1290 C228 1.471 . S
C1305 C259 1.439 . S
C1317 C69 1.621 . S
C1332 C279 1.471 . S
C1344 C169 1.600 . S
C1359 C299 1.524 1_554 S
C1371 C29 1.589 . S
C1386 C209 1.587 1_556 S
C1398 C319 1.533 . S
C1413 C19 2.108 . S
C1425 C248 2.089 . S
C1440 C39 2.100 . S
C1452 C108 2.098 . S
C1467 C59 2.052 . S
C1479 C288 2.130 . S
C1494 C148 2.133 . S
C1506 C79 2.055 . S
C1521 C88 2.132 . S
C1533 C179 2.054 . S
C1548 C219 2.098 . S
C1560 C128 2.100 . S
C1575 C199 2.084 . S
C1587 C268 2.089 . S
C1602 C308 2.057 . S
C1614 C239 2.120 . S
