# Generated by pormake.
# Topology wlb, (5)-cn, num edge types: 1
# Building blocks:
#     Node 0, Type 0, BuildingBlock: XOMCOT_clean_sbu_0, # of connection points: 5
#     Node 1, Type 0, BuildingBlock: XOMCOT_clean_sbu_0, # of connection points: 5
#     Node 2, Type 0, BuildingBlock: XOMCOT_clean_sbu_0, # of connection points: 5
#     Node 3, Type 0, BuildingBlock: XOMCOT_clean_sbu_0, # of connection points: 5
#     Node 4, Type 0, BuildingBlock: XOMCOT_clean_sbu_0, # of connection points: 5
#     Node 5, Type 0, BuildingBlock: XOMCOT_clean_sbu_0, # of connection points: 5
#     Node 6, Type 0, BuildingBlock: XOMCOT_clean_sbu_0, # of connection points: 5
#     Node 7, Type 0, BuildingBlock: XOMCOT_clean_sbu_0, # of connection points: 5
#     Node 8, Type 0, BuildingBlock: XOMCOT_clean_sbu_0, # of connection points: 5
#     Node 9, Type 0, BuildingBlock: XOMCOT_clean_sbu_0, # of connection points: 5
#     Node 10, Type 0, BuildingBlock: XOMCOT_clean_sbu_0, # of connection points: 5
#     Node 11, Type 0, BuildingBlock: XOMCOT_clean_sbu_0, # of connection points: 5
#     Node 12, Type 0, BuildingBlock: XOMCOT_clean_sbu_0, # of connection points: 5
#     Node 13, Type 0, BuildingBlock: XOMCOT_clean_sbu_0, # of connection points: 5
#     Node 14, Type 0, BuildingBlock: XOMCOT_clean_sbu_0, # of connection points: 5
#     Node 15, Type 0, BuildingBlock: XOMCOT_clean_sbu_0, # of connection points: 5
#     Node 16, Type 0, BuildingBlock: XOMCOT_clean_sbu_0, # of connection points: 5
#     Node 17, Type 0, BuildingBlock: XOMCOT_clean_sbu_0, # of connection points: 5
#     Edge 18, Type (0, 0), BuildingBlock: CIFDUS_clean_linker_0, # of connection points: 2
#     Edge 19, Type (0, 0), BuildingBlock: CIFDUS_clean_linker_0, # of connection points: 2
#     Edge 20, Type (0, 0), BuildingBlock: CIFDUS_clean_linker_0, # of connection points: 2
#     Edge 21, Type (0, 0), BuildingBlock: CIFDUS_clean_linker_0, # of connection points: 2
#     Edge 22, Type (0, 0), BuildingBlock: CIFDUS_clean_linker_0, # of connection points: 2
#     Edge 23, Type (0, 0), BuildingBlock: CIFDUS_clean_linker_0, # of connection points: 2
#     Edge 24, Type (0, 0), BuildingBlock: CIFDUS_clean_linker_0, # of connection points: 2
#     Edge 25, Type (0, 0), BuildingBlock: CIFDUS_clean_linker_0, # of connection points: 2
#     Edge 26, Type (0, 0), BuildingBlock: CIFDUS_clean_linker_0, # of connection points: 2
#     Edge 27, Type (0, 0), BuildingBlock: CIFDUS_clean_linker_0, # of connection points: 2
#     Edge 28, Type (0, 0), BuildingBlock: CIFDUS_clean_linker_0, # of connection points: 2
#     Edge 29, Type (0, 0), BuildingBlock: CIFDUS_clean_linker_0, # of connection points: 2
#     Edge 30, Type (0, 0), BuildingBlock: CIFDUS_clean_linker_0, # of connection points: 2
#     Edge 31, Type (0, 0), BuildingBlock: CIFDUS_clean_linker_0, # of connection points: 2
#     Edge 32, Type (0, 0), BuildingBlock: CIFDUS_clean_linker_0, # of connection points: 2
#     Edge 33, Type (0, 0), BuildingBlock: CIFDUS_clean_linker_0, # of connection points: 2
#     Edge 34, Type (0, 0), BuildingBlock: CIFDUS_clean_linker_0, # of connection points: 2
#     Edge 35, Type (0, 0), BuildingBlock: CIFDUS_clean_linker_0, # of connection points: 2
#     Edge 36, Type (0, 0), BuildingBlock: CIFDUS_clean_linker_0, # of connection points: 2
#     Edge 37, Type (0, 0), BuildingBlock: CIFDUS_clean_linker_0, # of connection points: 2
#     Edge 38, Type (0, 0), BuildingBlock: CIFDUS_clean_linker_0, # of connection points: 2
#     Edge 39, Type (0, 0), BuildingBlock: CIFDUS_clean_linker_0, # of connection points: 2
#     Edge 40, Type (0, 0), BuildingBlock: CIFDUS_clean_linker_0, # of connection points: 2
#     Edge 41, Type (0, 0), BuildingBlock: CIFDUS_clean_linker_0, # of connection points: 2
#     Edge 42, Type (0, 0), BuildingBlock: CIFDUS_clean_linker_0, # of connection points: 2
#     Edge 43, Type (0, 0), BuildingBlock: CIFDUS_clean_linker_0, # of connection points: 2
#     Edge 44, Type (0, 0), BuildingBlock: CIFDUS_clean_linker_0, # of connection points: 2
#     Edge 45, Type (0, 0), BuildingBlock: CIFDUS_clean_linker_0, # of connection points: 2
#     Edge 46, Type (0, 0), BuildingBlock: CIFDUS_clean_linker_0, # of connection points: 2
#     Edge 47, Type (0, 0), BuildingBlock: CIFDUS_clean_linker_0, # of connection points: 2
#     Edge 48, Type (0, 0), BuildingBlock: CIFDUS_clean_linker_0, # of connection points: 2
#     Edge 49, Type (0, 0), BuildingBlock: CIFDUS_clean_linker_0, # of connection points: 2
#     Edge 50, Type (0, 0), BuildingBlock: CIFDUS_clean_linker_0, # of connection points: 2
#     Edge 51, Type (0, 0), BuildingBlock: CIFDUS_clean_linker_0, # of connection points: 2
#     Edge 52, Type (0, 0), BuildingBlock: CIFDUS_clean_linker_0, # of connection points: 2
#     Edge 53, Type (0, 0), BuildingBlock: CIFDUS_clean_linker_0, # of connection points: 2
#     Edge 54, Type (0, 0), BuildingBlock: CIFDUS_clean_linker_0, # of connection points: 2
#     Edge 55, Type (0, 0), BuildingBlock: CIFDUS_clean_linker_0, # of connection points: 2
#     Edge 56, Type (0, 0), BuildingBlock: CIFDUS_clean_linker_0, # of connection points: 2
#     Edge 57, Type (0, 0), BuildingBlock: CIFDUS_clean_linker_0, # of connection points: 2
#     Edge 58, Type (0, 0), BuildingBlock: CIFDUS_clean_linker_0, # of connection points: 2
#     Edge 59, Type (0, 0), BuildingBlock: CIFDUS_clean_linker_0, # of connection points: 2
#     Edge 60, Type (0, 0), BuildingBlock: CIFDUS_clean_linker_0, # of connection points: 2
#     Edge 61, Type (0, 0), BuildingBlock: CIFDUS_clean_linker_0, # of connection points: 2
#     Edge 62, Type (0, 0), BuildingBlock: CIFDUS_clean_linker_0, # of connection points: 2
# Relax obj value: 0.334
# Max RMSD: 0.197
# Mean RMSD: 0.197
data_MOF--net-wlb--node1-XOMCOT_clean_sbu_0--edge1-CIFDUS_clean_linker_0
_symmetry_space_group_name_H-M    P1
_symmetry_Int_Tables_number       1
_symmetry_cell_setting            triclinic
loop_
_symmetry_equiv_pos_as_xyz
'x, y, z'
_cell_length_a     46.250637
_cell_length_b     46.390906
_cell_length_c     35.101673
_cell_angle_alpha  90.096333
_cell_angle_beta   89.846617
_cell_angle_gamma 120.14068
loop_
_atom_site_label
_atom_site_type_symbol
_atom_site_fract_x
_atom_site_fract_y
_atom_site_fract_z
_atom_type_partial_charge
Co0 Co 0.07029 0.20367 0.24504 0.0
C1 C 0.03003 0.23258 0.22135 0.0
C2 C 1.00556 0.19757 0.26671 0.0
C3 C 0.98469 0.2089 0.25422 0.0
N4 N 0.03378 0.21239 0.24574 0.0
N5 N 1.00013 0.23057 0.22541 0.0
H6 H 0.04846 0.24768 0.20013 0.0
H7 H 1.00003 0.17898 0.28842 0.0
C8 C 0.03603 0.12915 0.23718 0.0
O9 O 0.05841 0.13324 0.21135 0.0
N10 N 0.10766 0.19546 0.24485 0.0
C11 C 0.13755 0.21391 0.22762 0.0
C12 C 0.15688 0.19962 0.23409 0.0
C13 C 0.1101 0.17118 0.26336 0.0
N14 N 0.13945 0.17249 0.25619 0.0
C15 C 0.08841 0.2229 0.16637 0.0
C16 C 0.02968 0.1732 0.13505 0.0
C17 C 0.05356 0.19738 0.11057 0.0
C18 C 0.08323 0.22266 0.12705 0.0
C19 C 0.03533 0.17514 0.17421 0.0
N20 N 0.06509 0.19875 0.18955 0.0
H21 H 0.11024 0.24393 0.17829 0.0
H22 H 0.01479 0.15837 0.19215 0.0
H23 H 0.14534 0.23647 0.21171 0.0
H24 H 0.09069 0.15264 0.28138 0.0
O25 O 0.10128 0.25124 0.24822 0.0
O26 O 0.07995 0.21752 0.29779 0.0
O27 O 0.03732 0.15451 0.25344 0.0
C28 C 0.09903 0.2477 0.28506 0.0
H29 H 0.95956 0.20062 0.26422 0.0
H30 H 0.18149 0.20802 0.22231 0.0
H31 H 1.00624 0.15304 0.12453 0.0
H32 H 0.10191 0.24304 0.11016 0.0
Co33 Co 0.81145 0.86132 0.24485 0.0
C34 C 0.77456 0.78982 0.21966 0.0
C35 C 0.80616 0.79818 0.26788 0.0
C36 C 0.79142 0.76509 0.25786 0.0
N37 N 0.79653 0.81399 0.2431 0.0
N38 N 0.77153 0.76006 0.22773 0.0
H39 H 0.76114 0.79334 0.19689 0.0
H40 H 0.82344 0.81016 0.29114 0.0
C41 C 0.87364 0.85753 0.23666 0.0
O42 O 0.85735 0.83478 0.21047 0.0
N43 N 0.82627 0.90837 0.248 0.0
C44 C 0.80927 0.92341 0.2367 0.0
C45 C 0.82981 0.95742 0.24011 0.0
C46 C 0.85687 0.93335 0.25799 0.0
N47 N 0.85977 0.96357 0.25322 0.0
C48 C 0.79235 0.85229 0.16511 0.0
C49 C 0.85642 0.88792 0.13612 0.0
C50 C 0.83005 0.86943 0.11071 0.0
C51 C 0.79742 0.85267 0.12568 0.0
C52 C 0.85007 0.88714 0.17512 0.0
N53 N 0.81879 0.8667 0.18959 0.0
H54 H 0.76709 0.84014 0.17591 0.0
H55 H 0.87076 0.90242 0.19369 0.0
H56 H 0.78418 0.91071 0.22532 0.0
H57 H 0.87698 0.92973 0.26764 0.0
O58 O 0.765 0.85018 0.24712 0.0
O59 O 0.79608 0.85527 0.29728 0.0
O60 O 0.85911 0.8712 0.25388 0.0
C61 C 0.76698 0.8482 0.2839 0.0
H62 H 0.79513 0.74624 0.27137 0.0
H63 H 0.82373 0.97619 0.23169 0.0
H64 H 0.88205 0.9022 0.12638 0.0
H65 H 0.77591 0.83989 0.1072 0.0
Co66 Co 0.16211 0.95151 0.25941 0.0
C67 C 0.23509 0.99422 0.2408 0.0
C68 C 0.22273 1.0055 0.2955 0.0
C69 C 0.25634 0.02681 0.28885 0.0
N70 N 0.2092 0.98537 0.26501 0.0
N71 N 0.26392 0.01978 0.25422 0.0
H72 H 0.23357 0.98245 0.21399 0.0
H73 H 0.20886 1.0053 0.32046 0.0
C74 C 0.16586 0.01737 0.25729 0.0
O75 O 0.19255 0.02737 0.23589 0.0
N76 N 0.11538 0.91716 0.25447 0.0
C77 C 0.10446 0.88497 0.2458 0.0
C78 C 0.07058 0.86879 0.24037 0.0
C79 C 0.08763 0.92006 0.25405 0.0
N80 N 0.05995 0.89079 0.24522 0.0
C81 C 0.17945 0.9451 0.18231 0.0
C82 C 0.15057 0.9778 0.1476 0.0
C83 C 0.17137 0.97013 0.12608 0.0
C84 C 0.1848 0.95236 0.14349 0.0
C85 C 0.14638 0.97049 0.18652 0.0
N86 N 0.16339 0.95719 0.2041 0.0
H87 H 0.19017 0.93151 0.19526 0.0
H88 H 0.12985 0.97616 0.20233 0.0
H89 H 0.12002 0.87393 0.24212 0.0
H90 H 0.08779 0.94326 0.25806 0.0
O91 O 0.17505 0.9179 0.26226 0.0
O92 O 0.16214 0.93857 0.31202 0.0
O93 O 0.14911 0.98693 0.26828 0.0
C94 C 0.17184 0.91848 0.29898 0.0
H95 H 0.27356 0.04657 0.30752 0.0
H96 H 0.05501 0.84287 0.23243 0.0
H97 H 0.1386 0.99036 0.13484 0.0
H98 H 0.19977 0.94464 0.12739 0.0
Co99 Co 0.21692 0.06092 0.77931 0.0
C100 C 0.24997 0.02245 0.7984 0.0
C101 C 0.22509 0.00818 0.74425 0.0
C102 C 0.23886 0.98848 0.75161 0.0
N103 N 0.23192 0.02922 0.7737 0.0
N104 N 0.25427 0.99737 0.78576 0.0
H105 H 0.25929 0.03528 0.82526 0.0
H106 H 0.21053 1.00684 0.71955 0.0
C107 C 0.14294 0.01704 0.7776 0.0
O108 O 0.14208 0.03347 0.8077 0.0
N109 N 0.20161 0.09334 0.78309 0.0
C110 C 0.21323 0.1207 0.80536 0.0
C111 C 0.19205 0.13347 0.80246 0.0
C112 C 0.17522 0.0919 0.76465 0.0
N113 N 0.16802 0.11511 0.77703 0.0
C114 C 0.22051 0.06836 0.86147 0.0
C115 C 0.1767 1.00199 0.87772 0.0
C116 C 0.19037 0.02466 0.90776 0.0
C117 C 0.2132 0.05809 0.89947 0.0
C118 C 0.18525 0.01318 0.84034 0.0
N119 N 0.20515 0.0464 0.83229 0.0
H120 H 0.2395 0.09366 0.85575 0.0
H121 H 0.17598 0.99485 0.8178 0.0
H122 H 0.23502 0.13055 0.8233 0.0
H123 H 0.15999 0.07295 0.74411 0.0
O124 O 0.26265 0.09564 0.78703 0.0
O125 O 0.23791 0.0805 0.73077 0.0
O126 O 0.1709 0.02517 0.76146 0.0
C127 C 0.26514 0.09896 0.75022 0.0
H128 H 0.23674 0.96844 0.73381 0.0
H129 H 0.19287 0.15325 0.8197 0.0
H130 H 0.16017 0.97567 0.88313 0.0
H131 H 0.22528 0.07609 0.92212 0.0
Co132 Co 0.96332 0.16183 0.76093 0.0
C133 C 1.00057 0.2334 0.7745 0.0
C134 C 0.02782 0.21944 0.73631 0.0
C135 C 0.04742 0.25291 0.74477 0.0
N136 N 0.99873 0.20733 0.75548 0.0
N137 N 0.02994 0.2614 0.76846 0.0
H138 H 0.98162 0.2315 0.79417 0.0
H139 H 0.03478 0.20489 0.7185 0.0
C140 C 1.00151 0.12493 0.76703 0.0
O141 O 0.98161 0.10727 0.79508 0.0
N142 N 0.92668 0.11603 0.76624 0.0
C143 C 0.89724 0.10651 0.7838 0.0
C144 C 0.87669 0.07282 0.77954 0.0
C145 C 0.92286 0.08777 0.75006 0.0
N146 N 0.89278 0.06092 0.75849 0.0
C147 C 0.95054 0.16552 0.84089 0.0
C148 C 0.01143 0.17644 0.86721 0.0
C149 C 0.98777 0.1742 0.89403 0.0
C150 C 0.95729 0.16964 0.87996 0.0
C151 C 1.00409 0.17351 0.82834 0.0
N152 N 0.97306 0.16565 0.81561 0.0
H153 H 0.92771 0.16373 0.83103 0.0
H154 H 0.02384 0.17813 0.80857 0.0
H155 H 0.8902 0.12281 0.79765 0.0
H156 H 0.9413 0.08684 0.73191 0.0
O157 O 0.93136 0.17719 0.76031 0.0
O158 O 0.94907 0.16258 0.70919 0.0
O159 O 0.99665 0.14647 0.74987 0.0
C160 C 0.93069 0.17393 0.72348 0.0
H161 H 0.07273 0.26951 0.73512 0.0
H162 H 0.85182 0.05815 0.7914 0.0
H163 H 0.03562 0.18044 0.87569 0.0
H164 H 0.93883 0.16996 0.89866 0.0
Co165 Co 0.85716 0.81241 0.75924 0.0
C166 C 0.78467 0.77923 0.7794 0.0
C167 C 0.79454 0.79845 0.72247 0.0
C168 C 0.76081 0.78431 0.72949 0.0
N169 N 0.80959 0.79572 0.75402 0.0
N170 N 0.75475 0.77244 0.76543 0.0
H171 H 0.78787 0.77193 0.80737 0.0
H172 H 0.8074 0.8107 0.69646 0.0
C173 C 0.84928 0.87301 0.75471 0.0
O174 O 0.82077 0.85639 0.77305 0.0
N175 N 0.90448 0.82877 0.76338 0.0
C176 C 0.91954 0.81409 0.78112 0.0
C177 C 0.95366 0.83575 0.78068 0.0
C178 C 0.92941 0.85886 0.75229 0.0
N179 N 0.95959 0.8639 0.76279 0.0
C180 C 0.84391 0.79189 0.83794 0.0
C181 C 0.8641 0.85389 0.86882 0.0
C182 C 0.84828 0.82592 0.8928 0.0
C183 C 0.83952 0.79474 0.87695 0.0
C184 C 0.86868 0.84993 0.83016 0.0
N185 N 0.85591 0.81892 0.8144 0.0
H186 H 0.83607 0.76747 0.82642 0.0
H187 H 0.88254 0.87211 0.8133 0.0
H188 H 0.90661 0.78999 0.79489 0.0
H189 H 0.92576 0.87726 0.73774 0.0
O190 O 0.84802 0.76678 0.7587 0.0
O191 O 0.85766 0.79803 0.70748 0.0
O192 O 0.86688 0.85938 0.74762 0.0
C193 C 0.85017 0.76922 0.72178 0.0
H194 H 0.74242 0.78371 0.71001 0.0
H195 H 0.97241 0.832 0.7945 0.0
H196 H 0.87238 0.87877 0.87931 0.0
H197 H 0.82899 0.77247 0.89431 0.0
Co198 Co 0.72874 0.54875 0.58224 0.0
C199 C 0.69257 0.58442 0.56747 0.0
C200 C 0.67322 0.55295 0.61675 0.0
C201 C 0.65373 0.56709 0.60986 0.0
N202 N 0.69717 0.5636 0.58982 0.0
N203 N 0.66578 0.58651 0.57861 0.0
H204 H 0.70767 0.59658 0.54258 0.0
H205 H 0.6694 0.53511 0.6388 0.0
C206 C 0.68464 0.47533 0.57345 0.0
O207 O 0.70271 0.47775 0.54334 0.0
N208 N 0.76085 0.5335 0.57705 0.0
C209 C 0.78977 0.54615 0.55724 0.0
C210 C 0.80222 0.52471 0.56058 0.0
C211 C 0.75799 0.50638 0.59466 0.0
N212 N 0.78167 0.49941 0.58361 0.0
C213 C 0.74069 0.55835 0.50015 0.0
C214 C 0.67432 0.51956 0.47964 0.0
C215 C 0.69844 0.53292 0.45069 0.0
C216 C 0.73203 0.55326 0.46143 0.0
C217 C 0.68407 0.52497 0.51772 0.0
N218 N 0.7171 0.54262 0.52784 0.0
H219 H 0.7662 0.57553 0.50764 0.0
H220 H 0.66475 0.51482 0.53926 0.0
H221 H 0.80129 0.56912 0.54133 0.0
H222 H 0.73807 0.49094 0.61421 0.0
O223 O 0.76444 0.59473 0.58163 0.0
O224 O 0.74503 0.56332 0.63337 0.0
O225 O 0.69184 0.50135 0.59323 0.0
C226 C 0.76527 0.59241 0.61853 0.0
H227 H 0.63132 0.56195 0.62525 0.0
H228 H 0.82358 0.52658 0.54557 0.0
H229 H 0.64792 0.50518 0.47306 0.0
H230 H 0.75158 0.565 0.44022 0.0
Co231 Co 0.47583 0.18748 0.58615 0.0
C232 C 0.44269 0.11911 0.55311 0.0
C233 C 0.4519 0.11924 0.61298 0.0
C234 C 0.43717 0.08695 0.59995 0.0
N235 N 0.45578 0.13947 0.58345 0.0
N236 N 0.4316 0.08702 0.56225 0.0
H237 H 0.44121 0.12723 0.52487 0.0
H238 H 0.4601 0.12754 0.6418 0.0
C239 C 0.53187 0.17242 0.59404 0.0
O240 O 0.51462 0.14646 0.57199 0.0
N241 N 0.4952 0.23538 0.58951 0.0
C242 C 0.47932 0.25263 0.59619 0.0
C243 C 0.50242 0.28613 0.59606 0.0
C244 C 0.52771 0.25874 0.58509 0.0
N245 N 0.5328 0.28993 0.58906 0.0
C246 C 0.46229 0.18777 0.50648 0.0
C247 C 0.52179 0.19603 0.4785 0.0
C248 C 0.49518 0.18692 0.45315 0.0
C249 C 0.46577 0.1846 0.46745 0.0
C250 C 0.51735 0.19938 0.51742 0.0
N251 N 0.48683 0.19225 0.5315 0.0
H252 H 0.43872 0.18427 0.51648 0.0
H253 H 0.53862 0.2073 0.53567 0.0
H254 H 0.45275 0.24198 0.60044 0.0
H255 H 0.54729 0.25312 0.57913 0.0
O256 O 0.43127 0.18109 0.58274 0.0
O257 O 0.45588 0.18206 0.63684 0.0
O258 O 0.52088 0.19237 0.60148 0.0
C259 C 0.42908 0.17768 0.61946 0.0
H260 H 0.43195 0.06531 0.61673 0.0
H261 H 0.49709 0.30618 0.59977 0.0
H262 H 0.54552 0.1994 0.46876 0.0
H263 H 0.44507 0.17936 0.44881 0.0
Co264 Co 0.82836 0.29421 0.58492 0.0
C265 C 0.89919 0.3321 0.56077 0.0
C266 C 0.88938 0.35424 0.6093 0.0
C267 C 0.92163 0.37527 0.59718 0.0
N268 N 0.87523 0.32753 0.58606 0.0
N269 N 0.92762 0.36131 0.5667 0.0
H270 H 0.89513 0.31572 0.53687 0.0
H271 H 0.87659 0.35893 0.63219 0.0
C272 C 0.79734 0.3374 0.5797 0.0
O273 O 0.77735 0.31777 0.55287 0.0
N274 N 0.78076 0.2604 0.58522 0.0
C275 C 0.76638 0.22921 0.57087 0.0
C276 C 0.73237 0.21351 0.57674 0.0
C277 C 0.75518 0.26221 0.60177 0.0
N278 N 0.72526 0.23447 0.59577 0.0
C279 C 0.82063 0.27628 0.50485 0.0
C280 C 0.84143 0.33959 0.4775 0.0
C281 C 0.83216 0.31364 0.45118 0.0
C282 C 0.82204 0.28165 0.46546 0.0
C283 C 0.8403 0.33325 0.51643 0.0
N284 N 0.82836 0.30161 0.52998 0.0
H285 H 0.81461 0.25202 0.51491 0.0
H286 H 0.84967 0.35419 0.53569 0.0
H287 H 0.77945 0.21808 0.55748 0.0
H288 H 0.75816 0.28325 0.61817 0.0
O289 O 0.8404 0.25979 0.58473 0.0
O290 O 0.8318 0.28186 0.63654 0.0
O291 O 0.81787 0.33073 0.59621 0.0
C292 C 0.8402 0.2613 0.62178 0.0
H293 H 0.93896 0.39951 0.60894 0.0
H294 H 0.71419 0.18886 0.56679 0.0
H295 H 0.84966 0.36481 0.46836 0.0
H296 H 0.81613 0.26102 0.44647 0.0
Co297 Co 0.88054 0.38479 0.09919 0.0
C298 C 0.91014 0.34474 0.12957 0.0
C299 C 0.89735 0.33552 0.07045 0.0
C300 C 0.90964 0.31536 0.08193 0.0
N301 N 0.89749 0.35391 0.10037 0.0
N302 N 0.91739 0.32108 0.11918 0.0
H303 H 0.91359 0.35432 0.15808 0.0
H304 H 0.88798 0.33596 0.0424 0.0
C305 C 0.82056 0.31595 0.10101 0.0
O306 O 0.83725 0.30769 0.12447 0.0
N307 N 0.86366 0.41555 0.09702 0.0
C308 C 0.88121 0.44919 0.09603 0.0
C309 C 0.85914 0.46099 0.09573 0.0
C310 C 0.83128 0.40751 0.09755 0.0
N311 N 0.8278 0.43467 0.09689 0.0
C312 C 0.90089 0.39851 0.17737 0.0
C313 C 0.83832 0.3626 0.2101 0.0
C314 C 0.86648 0.37628 0.23388 0.0
C315 C 0.89805 0.39527 0.21692 0.0
C316 C 0.84237 0.36617 0.17055 0.0
N317 N 0.87354 0.38197 0.15444 0.0
H318 H 0.92559 0.41256 0.16517 0.0
H319 H 0.82019 0.35611 0.15329 0.0
H320 H 0.90816 0.46435 0.09615 0.0
H321 H 0.81045 0.38232 0.09867 0.0
O322 O 0.92646 0.42136 0.0975 0.0
O323 O 0.89614 0.39577 0.04681 0.0
O324 O 0.83359 0.34596 0.08883 0.0
C325 C 0.92484 0.41822 0.06068 0.0
H326 H 0.9116 0.2971 0.06458 0.0
H327 H 0.86565 0.4869 0.09592 0.0
H328 H 0.81329 0.34923 0.22185 0.0
H329 H 0.92066 0.40661 0.23381 0.0
Co330 Co 0.63381 0.49996 0.09438 0.0
C331 C 0.67359 0.57219 0.10869 0.0
C332 C 0.69352 0.55723 0.06226 0.0
C333 C 0.71555 0.59021 0.07042 0.0
N334 N 0.66765 0.54591 0.08678 0.0
N335 N 0.70298 0.5994 0.09968 0.0
H336 H 0.65831 0.57061 0.13292 0.0
H337 H 0.6971 0.54207 0.04148 0.0
C338 C 0.67513 0.4675 0.10396 0.0
O339 O 0.65664 0.45222 0.13393 0.0
N340 N 0.59938 0.4531 0.10012 0.0
C341 C 0.56913 0.44008 0.11699 0.0
C342 C 0.55299 0.40582 0.11437 0.0
C343 C 0.59991 0.42644 0.08513 0.0
N344 N 0.57264 0.39724 0.09471 0.0
C345 C 0.62125 0.49923 0.17587 0.0
C346 C 0.68734 0.52677 0.19766 0.0
C347 C 0.66315 0.51944 0.22577 0.0
C348 C 0.62967 0.50537 0.21455 0.0
C349 C 0.67782 0.51973 0.15957 0.0
N350 N 0.64496 0.5053 0.14887 0.0
H351 H 0.59591 0.49098 0.16777 0.0
H352 H 0.69727 0.52689 0.13844 0.0
H353 H 0.55883 0.45417 0.12969 0.0
H354 H 0.61974 0.42821 0.06718 0.0
O355 O 0.60012 0.51313 0.09434 0.0
O356 O 0.61805 0.49899 0.04299 0.0
O357 O 0.66877 0.48672 0.08393 0.0
C358 C 0.5991 0.50962 0.05749 0.0
H359 H 0.73968 0.60578 0.05719 0.0
H360 H 0.52893 0.38862 0.12675 0.0
H361 H 0.71355 0.53805 0.205 0.0
H362 H 0.61034 0.50035 0.23533 0.0
Co363 Co 0.52197 0.14569 0.10061 0.0
C364 C 0.44985 0.11151 0.12601 0.0
C365 C 0.45802 0.13444 0.07109 0.0
C366 C 0.42454 0.11975 0.07974 0.0
N367 N 0.47409 0.12969 0.10027 0.0
N368 N 0.41948 0.10545 0.11436 0.0
H369 H 0.45368 0.10225 0.1524 0.0
H370 H 0.47 0.14812 0.04539 0.0
C371 C 0.5139 0.20505 0.10495 0.0
O372 O 0.49081 0.18795 0.13058 0.0
N373 N 0.5694 0.16087 0.10004 0.0
C374 C 0.58301 0.14392 0.11555 0.0
C375 C 0.61713 0.16268 0.11247 0.0
C376 C 0.59561 0.1901 0.088 0.0
N377 N 0.62521 0.19173 0.09514 0.0
C378 C 0.51233 0.12725 0.18035 0.0
C379 C 0.54799 0.19139 0.20864 0.0
C380 C 0.53098 0.16503 0.23436 0.0
C381 C 0.51379 0.13245 0.21977 0.0
C382 C 0.54582 0.185 0.1696 0.0
N383 N 0.52585 0.15352 0.15565 0.0
H384 H 0.49992 0.102 0.16967 0.0
H385 H 0.56028 0.20567 0.15068 0.0
H386 H 0.56914 0.11994 0.1294 0.0
H387 H 0.59315 0.20984 0.07486 0.0
O388 O 0.51168 0.09956 0.09944 0.0
O389 O 0.51792 0.13002 0.04845 0.0
O390 O 0.53089 0.19281 0.09025 0.0
C391 C 0.51097 0.10127 0.0625 0.0
H392 H 0.40555 0.12013 0.06216 0.0
H393 H 0.63471 0.15594 0.1237 0.0
H394 H 0.56239 0.21694 0.21839 0.0
H395 H 0.5017 0.11113 0.23861 0.0
Co396 Co 0.3929 0.87735 0.92336 0.0
C397 C 0.35203 0.90936 0.90735 0.0
C398 C 0.33728 0.88147 0.95924 0.0
C399 C 0.31717 0.89521 0.95372 0.0
N400 N 0.35861 0.88966 0.92953 0.0
N401 N 0.32643 0.91247 0.92081 0.0
H402 H 0.36598 0.92226 0.88247 0.0
H403 H 0.3361 0.86608 0.983 0.0
C404 C 0.32777 0.8145 0.92324 0.0
O405 O 0.31819 0.8303 0.90006 0.0
N406 N 0.42774 0.86621 0.91795 0.0
C407 C 0.45575 0.88438 0.89736 0.0
C408 C 0.47467 0.86927 0.89846 0.0
C409 C 0.42975 0.83984 0.93108 0.0
N410 N 0.4585 0.84133 0.91967 0.0
C411 C 0.39293 0.89517 0.84402 0.0
C412 C 0.36448 0.83117 0.8157 0.0
C413 C 0.36728 0.85648 0.79147 0.0
C414 C 0.3832 0.88921 0.80574 0.0
C415 C 0.37414 0.83831 0.85377 0.0
N416 N 0.38486 0.86937 0.86848 0.0
H417 H 0.40639 0.92057 0.85411 0.0
H418 H 0.37235 0.8185 0.87152 0.0
H419 H 0.46172 0.90687 0.88193 0.0
H420 H 0.41078 0.82014 0.94847 0.0
O421 O 0.42625 0.92453 0.92301 0.0
O422 O 0.40764 0.89339 0.97481 0.0
O423 O 0.35809 0.82888 0.93519 0.0
C424 C 0.42662 0.92278 0.95998 0.0
H425 H 0.29693 0.89213 0.972 0.0
H426 H 0.49822 0.87777 0.88383 0.0
H427 H 0.35476 0.80594 0.80547 0.0
H428 H 0.38744 0.91002 0.78797 0.0
Co429 Co 0.14411 0.51993 0.91416 0.0
C430 C 0.11049 0.44706 0.89122 0.0
C431 C 0.13379 0.45765 0.94608 0.0
C432 C 0.12265 0.4248 0.9376 0.0
N433 N 0.12685 0.47197 0.91673 0.0
N434 N 0.10818 0.41834 0.90307 0.0
H435 H 0.10252 0.44972 0.8634 0.0
H436 H 0.14793 0.47081 0.97106 0.0
C437 C 0.20143 0.50975 0.90136 0.0
O438 O 0.18129 0.48682 0.87721 0.0
N439 N 0.16153 0.56755 0.91368 0.0
C440 C 0.14567 0.58309 0.90031 0.0
C441 C 0.16645 0.61695 0.90414 0.0
C442 C 0.1919 0.59215 0.9252 0.0
N443 N 0.19551 0.62265 0.91972 0.0
C444 C 0.11916 0.50588 0.8371 0.0
C445 C 0.18069 0.53846 0.80142 0.0
C446 C 0.15227 0.51814 0.77949 0.0
C447 C 0.12097 0.50299 0.79764 0.0
C448 C 0.17763 0.54045 0.8408 0.0
N449 N 0.14751 0.52145 0.85856 0.0
H450 H 0.09489 0.49374 0.85068 0.0
H451 H 0.19979 0.55646 0.8571 0.0
H452 H 0.12091 0.5707 0.88799 0.0
H453 H 0.21096 0.58794 0.93728 0.0
O454 O 0.09895 0.51167 0.91874 0.0
O455 O 0.13164 0.51801 0.96764 0.0
O456 O 0.19128 0.52717 0.91937 0.0
C457 C 0.1023 0.51138 0.9554 0.0
H458 H 0.12614 0.4074 0.95473 0.0
H459 H 0.16096 0.63598 0.89507 0.0
H460 H 0.20519 0.55235 0.78839 0.0
H461 H 0.09812 0.48783 0.7819 0.0
Co462 Co 0.49808 0.62996 0.91404 0.0
C463 C 0.56987 0.6721 0.89232 0.0
C464 C 0.55935 0.68425 0.94762 0.0
C465 C 0.59282 0.70487 0.93996 0.0
N466 N 0.54485 0.66406 0.91743 0.0
N467 N 0.5993 0.69725 0.90506 0.0
H468 H 0.56713 0.65964 0.8656 0.0
H469 H 0.54629 0.68431 0.9732 0.0
C470 C 0.50016 0.69563 0.91461 0.0
O471 O 0.52732 0.70753 0.89363 0.0
N472 N 0.45154 0.59563 0.91168 0.0
C473 C 0.43962 0.56418 0.89945 0.0
C474 C 0.40533 0.54774 0.901 0.0
C475 C 0.4243 0.59798 0.92028 0.0
N476 N 0.39552 0.56902 0.91384 0.0
C477 C 0.51074 0.62091 0.83563 0.0
C478 C 0.4825 0.65492 0.80253 0.0
C479 C 0.49876 0.64299 0.77917 0.0
C480 C 0.51208 0.62488 0.79602 0.0
C481 C 0.48101 0.64967 0.84195 0.0
N482 N 0.49728 0.63509 0.8585 0.0
H483 H 0.52155 0.60719 0.84794 0.0
H484 H 0.46628 0.65707 0.85868 0.0
H485 H 0.45472 0.55389 0.88959 0.0
H486 H 0.42549 0.62057 0.93019 0.0
O487 O 0.51156 0.59647 0.91597 0.0
O488 O 0.50043 0.61768 0.96647 0.0
O489 O 0.48458 0.66485 0.92435 0.0
C490 C 0.51013 0.59775 0.95286 0.0
H491 H 0.61077 0.72436 0.95837 0.0
H492 H 0.38911 0.52199 0.89302 0.0
H493 H 0.47045 0.66763 0.79033 0.0
H494 H 0.52409 0.61446 0.7788 0.0
Co495 Co 0.5454 0.719 0.42731 0.0
C496 C 0.57878 0.68092 0.44901 0.0
C497 C 0.55819 0.66889 0.39276 0.0
C498 C 0.57312 0.65026 0.40043 0.0
N499 N 0.56137 0.68775 0.42352 0.0
N500 N 0.58582 0.65782 0.43592 0.0
H501 H 0.5868 0.69275 0.47634 0.0
H502 H 0.54543 0.66836 0.36678 0.0
C503 C 0.48381 0.65055 0.42535 0.0
O504 O 0.50041 0.63928 0.44454 0.0
N505 N 0.52974 0.75036 0.43004 0.0
C506 C 0.54477 0.78045 0.44718 0.0
C507 C 0.52262 0.79219 0.44812 0.0
C508 C 0.49903 0.74434 0.42062 0.0
N509 N 0.4939 0.76917 0.43169 0.0
C510 C 0.56604 0.7287 0.50615 0.0
C511 C 0.50335 0.69069 0.53811 0.0
C512 C 0.53127 0.70449 0.56205 0.0
C513 C 0.56287 0.72453 0.54574 0.0
C514 C 0.50759 0.69614 0.49876 0.0
N515 N 0.53883 0.71289 0.48276 0.0
H516 H 0.5907 0.74401 0.49426 0.0
H517 H 0.48544 0.68732 0.48169 0.0
H518 H 0.56924 0.79208 0.46019 0.0
H519 H 0.48001 0.72163 0.40753 0.0
O520 O 0.59151 0.75522 0.4261 0.0
O521 O 0.56019 0.73263 0.37515 0.0
O522 O 0.49786 0.68151 0.41656 0.0
C523 C 0.58925 0.75407 0.38917 0.0
H524 H 0.57392 0.63211 0.3817 0.0
H525 H 0.52636 0.81456 0.46229 0.0
H526 H 0.47835 0.67644 0.54982 0.0
H527 H 0.58505 0.73638 0.56338 0.0
Co528 Co 0.28776 0.81539 0.43912 0.0
C529 C 0.31897 0.88588 0.45706 0.0
C530 C 0.34514 0.87825 0.41113 0.0
C531 C 0.3629 0.91129 0.42208 0.0
N532 N 0.31797 0.86248 0.43364 0.0
N533 N 0.34653 0.91575 0.45135 0.0
H534 H 0.30091 0.88047 0.47956 0.0
H535 H 0.35261 0.86623 0.39002 0.0
C536 C 0.33371 0.78822 0.44482 0.0
O537 O 0.31578 0.77055 0.47405 0.0
N538 N 0.25661 0.76761 0.44345 0.0
C539 C 0.22691 0.75211 0.46173 0.0
C540 C 0.21298 0.71819 0.45755 0.0
C541 C 0.25904 0.74274 0.42632 0.0
N542 N 0.23349 0.71234 0.43568 0.0
C543 C 0.2761 0.8134 0.52119 0.0
C544 C 0.34297 0.84407 0.54073 0.0
C545 C 0.3194 0.83653 0.56967 0.0
C546 C 0.28548 0.82078 0.55957 0.0
C547 C 0.33262 0.83632 0.50309 0.0
N548 N 0.29945 0.82026 0.49343 0.0
H549 H 0.25033 0.80388 0.51385 0.0
H550 H 0.35176 0.84469 0.48144 0.0
H551 H 0.21552 0.76428 0.47655 0.0
H552 H 0.27913 0.74663 0.40734 0.0
O553 O 0.25106 0.82421 0.44057 0.0
O554 O 0.27156 0.81419 0.38824 0.0
O555 O 0.32559 0.80698 0.42668 0.0
C556 C 0.25073 0.82202 0.40355 0.0
H557 H 0.3871 0.92989 0.41123 0.0
H558 H 0.18994 0.6993 0.47053 0.0
H559 H 0.36946 0.8564 0.54695 0.0
H560 H 0.26647 0.81545 0.5809 0.0
Co561 Co 0.19303 0.46415 0.43687 0.0
C562 C 0.11917 0.42713 0.45358 0.0
C563 C 0.13199 0.45974 0.40554 0.0
C564 C 0.09812 0.44524 0.41195 0.0
N565 N 0.1455 0.44937 0.43256 0.0
N566 N 0.09029 0.42467 0.442 0.0
H567 H 0.12047 0.41319 0.47724 0.0
H568 H 0.14607 0.47754 0.38339 0.0
C569 C 0.18661 0.52398 0.44397 0.0
O570 O 0.16312 0.50611 0.46892 0.0
N571 N 0.23997 0.47781 0.44014 0.0
C572 C 0.25139 0.46084 0.46009 0.0
C573 C 0.28546 0.47666 0.45663 0.0
C574 C 0.26748 0.50418 0.4249 0.0
N575 N 0.29571 0.50382 0.43446 0.0
C576 C 0.17629 0.4426 0.51554 0.0
C577 C 0.21341 0.50536 0.54718 0.0
C578 C 0.19217 0.47871 0.57058 0.0
C579 C 0.17426 0.44676 0.55479 0.0
C580 C 0.21431 0.50008 0.50817 0.0
N581 N 0.1935 0.46955 0.49226 0.0
H582 H 0.16413 0.4177 0.50397 0.0
H583 H 0.23143 0.52085 0.49067 0.0
H584 H 0.23589 0.43849 0.4764 0.0
H585 H 0.26685 0.52286 0.40706 0.0
O586 O 0.1818 0.41793 0.43399 0.0
O587 O 0.19188 0.45095 0.38426 0.0
O588 O 0.20368 0.51209 0.4286 0.0
C589 C 0.18335 0.4214 0.39714 0.0
H590 H 0.08067 0.44971 0.39617 0.0
H591 H 0.3016 0.46903 0.47005 0.0
H592 H 0.22879 0.53014 0.55887 0.0
H593 H 0.15899 0.42531 0.5726 0.0
H594 H 0.95679 0.29641 0.09901 0.0
H595 H 0.90429 0.30769 0.19433 0.0
H596 H 0.92489 0.27986 0.23599 0.0
H597 H 0.95858 0.2528 0.24551 0.0
H598 H 1.01103 0.24181 0.14996 0.0
H599 H 0.98959 0.26873 0.10821 0.0
C600 C 0.94966 0.29251 0.12881 0.0
C601 C 0.9292 0.30424 0.14353 0.0
C602 C 0.96165 0.27656 0.1526 0.0
C603 C 0.92047 0.29938 0.18238 0.0
C604 C 0.93206 0.28328 0.20619 0.0
C605 C 0.96505 0.25616 0.21551 0.0
C606 C 0.98654 0.24564 0.20093 0.0
C607 C 0.95277 0.27186 0.19165 0.0
C608 C 0.99501 0.25028 0.16202 0.0
C609 C 0.98262 0.26549 0.13806 0.0
H610 H 0.67705 0.6348 0.12928 0.0
H611 H 0.76757 0.63023 0.12063 0.0
H612 H 0.79669 0.67919 0.16171 0.0
H613 H 0.79629 0.72335 0.20018 0.0
H614 H 0.70741 0.73092 0.20524 0.0
H615 H 0.67737 0.68066 0.16572 0.0
C616 C 0.70316 0.64475 0.13643 0.0
C617 C 0.72029 0.62924 0.122 0.0
C618 C 0.71981 0.67319 0.15954 0.0
C619 C 0.75414 0.64219 0.13107 0.0
C620 C 0.77067 0.66996 0.15474 0.0
C621 C 0.77026 0.71365 0.19279 0.0
C622 C 0.75372 0.73015 0.20576 0.0
C623 C 0.75374 0.6856 0.1692 0.0
C624 C 0.72031 0.7182 0.19551 0.0
C625 C 0.70328 0.68963 0.17298 0.0
H626 H 0.41085 0.10009 0.19076 0.0
H627 H 0.35745 0.07121 0.0841 0.0
H628 H 0.30437 0.04239 0.11827 0.0
H629 H 0.27316 0.02578 0.17815 0.0
H630 H 0.32598 0.0532 0.28518 0.0
H631 H 0.37935 0.08239 0.25111 0.0
C632 C 0.38765 0.08717 0.17498 0.0
C633 C 0.38823 0.08785 0.13483 0.0
C634 C 0.35713 0.07052 0.19487 0.0
C635 C 0.35779 0.07147 0.11492 0.0
C636 C 0.3274 0.05482 0.13446 0.0
C637 C 0.29629 0.03768 0.19414 0.0
C638 C 0.29548 0.037 0.23426 0.0
C639 C 0.32679 0.05422 0.1744 0.0
C640 C 0.32582 0.05347 0.25436 0.0
C641 C 0.35635 0.07002 0.23487 0.0
H642 H 0.25658 0.9902 0.86176 0.0
H643 H 0.28689 0.96886 0.75399 0.0
H644 H 0.31168 0.94015 0.78673 0.0
H645 H 0.32387 0.92048 0.84546 0.0
H646 H 0.29466 0.94194 0.95384 0.0
H647 H 0.26987 0.97106 0.92133 0.0
C648 C 0.26899 0.97964 0.84554 0.0
C649 C 0.26997 0.98169 0.80549 0.0
C650 C 0.2831 0.96304 0.86459 0.0
C651 C 0.28555 0.96732 0.78477 0.0
C652 C 0.29981 0.95101 0.80347 0.0
C653 C 0.31255 0.93193 0.86211 0.0
C654 C 0.31144 0.92935 0.90207 0.0
C655 C 0.2986 0.94864 0.8433 0.0
C656 C 0.29571 0.94346 0.92306 0.0
C657 C 0.28171 0.96024 0.90449 0.0
H658 H 0.0555 0.38962 0.85618 0.0
H659 H 0.13852 0.38178 0.89883 0.0
H660 H 0.12289 0.33328 0.85819 0.0
H661 H 0.08495 0.29256 0.81094 0.0
H662 H 0.99962 0.29766 0.7718 0.0
H663 H 0.01677 0.34807 0.81004 0.0
C664 C 0.07005 0.37718 0.85642 0.0
C665 C 0.09795 0.38899 0.88042 0.0
C666 C 0.06063 0.34912 0.83336 0.0
C667 C 0.11663 0.3727 0.88093 0.0
C668 C 0.10787 0.3452 0.8575 0.0
C669 C 0.07058 0.30518 0.81054 0.0
C670 C 0.04155 0.29219 0.78837 0.0
C671 C 0.07994 0.33321 0.83361 0.0
C672 C 0.02228 0.3078 0.78855 0.0
C673 C 0.032 0.33637 0.81045 0.0
H674 H 0.60823 0.70017 0.8289 0.0
H675 H 0.66144 0.73025 0.9357 0.0
H676 H 0.71463 0.757 0.9015 0.0
H677 H 0.74577 0.77156 0.84151 0.0
H678 H 0.69263 0.73898 0.73485 0.0
H679 H 0.63942 0.71336 0.76898 0.0
C680 C 0.63139 0.71212 0.84483 0.0
C681 C 0.63073 0.71299 0.88491 0.0
C682 C 0.66185 0.72706 0.82503 0.0
C683 C 0.66113 0.72944 0.90489 0.0
C684 C 0.69157 0.74458 0.88536 0.0
C685 C 0.72265 0.75845 0.82564 0.0
C686 C 0.72331 0.75708 0.78558 0.0
C687 C 0.69219 0.74345 0.84545 0.0
C688 C 0.69292 0.74071 0.7656 0.0
C689 C 0.66247 0.72589 0.78512 0.0
H690 H 0.66568 0.59352 0.50268 0.0
H691 H 0.63004 0.6127 0.608 0.0
H692 H 0.60139 0.63637 0.57254 0.0
H693 H 0.5861 0.65069 0.51182 0.0
H694 H 0.6227 0.63263 0.40647 0.0
H695 H 0.65137 0.60901 0.4419 0.0
C696 C 0.65215 0.60341 0.51792 0.0
C697 C 0.65019 0.6017 0.55791 0.0
C698 C 0.63578 0.61683 0.49738 0.0
C699 C 0.63174 0.6137 0.57722 0.0
C700 C 0.61547 0.62725 0.55699 0.0
C701 C 0.60074 0.64206 0.49658 0.0
C702 C 0.6025 0.64365 0.45657 0.0
C703 C 0.61728 0.62884 0.51709 0.0
C704 C 0.62078 0.63145 0.43722 0.0
C705 C 0.63732 0.61815 0.45746 0.0
H706 H 0.38638 0.98008 0.43208 0.0
H707 H 0.33495 0.91518 0.52701 0.0
H708 H 0.35607 0.96286 0.56955 0.0
H709 H 0.38955 0.02288 0.58017 0.0
H710 H 0.44341 0.08805 0.48632 0.0
H711 H 0.42083 0.04054 0.44307 0.0
C712 C 0.37991 0.97647 0.46207 0.0
C713 C 0.35878 0.9442 0.47613 0.0
C714 C 0.39252 1.00405 0.48663 0.0
C715 C 0.35045 0.93981 0.51512 0.0
C716 C 0.36278 0.96706 0.53963 0.0
C717 C 0.39659 0.02669 0.55036 0.0
C718 C 0.41807 0.059 0.53663 0.0
C719 C 0.38386 0.99926 0.52572 0.0
C720 C 0.42649 0.06353 0.49767 0.0
C721 C 0.41378 0.03633 0.47289 0.0
H722 H 0.05257 0.45014 0.4644 0.0
H723 H 0.0585 0.36054 0.46425 0.0
H724 H 1.00665 0.33165 0.50167 0.0
H725 H 0.96086 0.33303 0.53683 0.0
H726 H 0.95838 0.4245 0.54153 0.0
H727 H 1.00753 0.45178 0.50005 0.0
C728 C 0.04208 0.42416 0.47219 0.0
C729 C 0.05875 0.40718 0.46139 0.0
C730 C 0.01313 0.4083 0.49479 0.0
C731 C 0.04571 0.37381 0.47227 0.0
C732 C 0.01623 0.35743 0.49365 0.0
C733 C 0.97116 0.35886 0.52849 0.0
C734 C 0.95632 0.37687 0.54211 0.0
C735 C 0.99992 0.37455 0.50545 0.0
C736 C 0.96979 0.4104 0.53159 0.0
C737 C 0.99772 0.4259 0.5078 0.0
H738 H 0.15478 0.3558 0.41635 0.0
H739 H 0.18766 0.42196 0.31948 0.0
H740 H 0.16599 0.37419 0.27635 0.0
H741 H 0.1351 0.31348 0.26598 0.0
H742 H 0.10073 0.24731 0.36285 0.0
H743 H 0.12562 0.29512 0.406 0.0
C744 C 0.15755 0.3598 0.38581 0.0
C745 C 0.17288 0.39249 0.37122 0.0
C746 C 0.14455 0.33215 0.36111 0.0
C747 C 0.17601 0.39714 0.33153 0.0
C748 C 0.16354 0.36979 0.30681 0.0
C749 C 0.13327 0.30949 0.29653 0.0
C750 C 0.11598 0.27678 0.3111 0.0
C751 C 0.14735 0.33716 0.32125 0.0
C752 C 0.11381 0.27215 0.3508 0.0
C753 C 0.12804 0.29952 0.37554 0.0
H754 H 0.65445 0.79107 0.41096 0.0
H755 H 0.59111 0.76072 0.31166 0.0
H756 H 0.64034 0.78904 0.27051 0.0
H757 H 0.70162 0.81976 0.26243 0.0
H758 H 0.7649 0.84791 0.36169 0.0
H759 H 0.71561 0.82336 0.40299 0.0
C760 C 0.65136 0.79096 0.38033 0.0
C761 C 0.61902 0.77378 0.36448 0.0
C762 C 0.67988 0.80682 0.35675 0.0
C763 C 0.61562 0.77372 0.32468 0.0
C764 C 0.64382 0.78988 0.30109 0.0
C765 C 0.70466 0.82088 0.29311 0.0
C766 C 0.73702 0.83575 0.30888 0.0
C767 C 0.6761 0.80613 0.31676 0.0
C768 C 0.74038 0.83666 0.34873 0.0
C769 C 0.71215 0.82255 0.37241 0.0
H770 H 0.19208 0.87504 0.2781 0.0
H771 H 0.17186 0.91752 0.37698 0.0
H772 H 0.19137 0.88848 0.41851 0.0
H773 H 0.21837 0.85459 0.42635 0.0
H774 H 0.24028 0.81396 0.32697 0.0
H775 H 0.21555 0.83836 0.28611 0.0
C776 C 0.19164 0.87773 0.30876 0.0
C777 C 0.18072 0.89861 0.32439 0.0
C778 C 0.20325 0.8613 0.3324 0.0
C779 C 0.18021 0.90169 0.36418 0.0
C780 C 0.19142 0.88512 0.38795 0.0
C781 C 0.21718 0.85057 0.39581 0.0
C782 C 0.23122 0.8325 0.37974 0.0
C783 C 0.20356 0.86532 0.37234 0.0
C784 C 0.22972 0.82778 0.34008 0.0
C785 C 0.21569 0.84185 0.31666 0.0
H786 H 0.41613 0.1725 0.6963 0.0
H787 H 0.36878 0.15734 0.58655 0.0
H788 H 0.31418 0.13352 0.61698 0.0
H789 H 0.27904 0.11332 0.67453 0.0
H790 H 0.32618 0.12976 0.78453 0.0
H791 H 0.38119 0.15685 0.75443 0.0
C792 C 0.3939 0.16431 0.67912 0.0
C793 C 0.39668 0.16656 0.63917 0.0
C794 C 0.36229 0.15068 0.69686 0.0
C795 C 0.36753 0.15594 0.61736 0.0
C796 C 0.33615 0.14218 0.63473 0.0
C797 C 0.30136 0.12323 0.69194 0.0
C798 C 0.29833 0.11928 0.73172 0.0
C799 C 0.33311 0.1389 0.67442 0.0
C800 C 0.32763 0.1324 0.75382 0.0
C801 C 0.35921 0.14782 0.73662 0.0
H802 H 0.86787 0.22427 0.59863 0.0
H803 H 0.83898 0.25723 0.69933 0.0
H804 H 0.86262 0.23136 0.73956 0.0
H805 H 0.89446 0.20235 0.74628 0.0
H806 H 0.92484 0.17059 0.64581 0.0
H807 H 0.89753 0.19281 0.60547 0.0
C808 C 0.8664 0.22547 0.62938 0.0
C809 C 0.8517 0.24276 0.6459 0.0
C810 C 0.8805 0.21089 0.65244 0.0
C811 C 0.85017 0.24416 0.68581 0.0
C812 C 0.86376 0.22941 0.70889 0.0
C813 C 0.89487 0.19999 0.71556 0.0
C814 C 0.91179 0.18489 0.69912 0.0
C815 C 0.87944 0.21317 0.69253 0.0
C816 C 0.91206 0.18212 0.65925 0.0
C817 C 0.89648 0.19489 0.63614 0.0
H818 H 0.82633 0.70492 0.74402 0.0
H819 H 0.85285 0.76732 0.64414 0.0
H820 H 0.83169 0.71819 0.60326 0.0
H821 H 0.8014 0.65721 0.59588 0.0
H822 H 0.77305 0.59471 0.69579 0.0
H823 H 0.79944 0.64408 0.73651 0.0
C824 C 0.82791 0.70783 0.7133 0.0
C825 C 0.84106 0.73981 0.69721 0.0
C826 C 0.81518 0.67937 0.68991 0.0
C827 C 0.84281 0.74305 0.65733 0.0
C828 C 0.83063 0.71492 0.6339 0.0
C829 C 0.80143 0.65436 0.62653 0.0
C830 C 0.78514 0.62224 0.64272 0.0
C831 C 0.81613 0.68291 0.64986 0.0
C832 C 0.78533 0.61908 0.68253 0.0
C833 C 0.80034 0.64734 0.70588 0.0
H834 H 0.99 0.45495 0.0829 0.0
H835 H 0.92699 0.42458 0.98329 0.0
H836 H 0.97633 0.45318 0.94241 0.0
H837 H 0.03727 0.48394 0.93463 0.0
H838 H 0.10082 0.51166 0.03362 0.0
H839 H 0.05142 0.48726 0.07506 0.0
C840 C 0.98705 0.45489 0.05226 0.0
C841 C 0.95476 0.43764 0.03619 0.0
C842 C 0.01566 0.47085 0.02881 0.0
C843 C 0.95146 0.43758 0.99642 0.0
C844 C 0.9797 0.45393 0.97301 0.0
C845 C 0.04043 0.48507 0.9653 0.0
C846 C 0.07282 0.49978 0.98097 0.0
C847 C 0.01192 0.47026 0.98884 0.0
C848 C 0.07626 0.50062 0.02078 0.0
C849 C 0.04798 0.48655 0.04448 0.0
H850 H 0.53618 0.55888 0.93138 0.0
H851 H 0.51046 0.59623 0.03077 0.0
H852 H 0.53365 0.57041 0.07194 0.0
H853 H 0.56427 0.53999 0.07968 0.0
H854 H 0.59126 0.50393 0.98016 0.0
H855 H 0.5644 0.5262 0.93927 0.0
C856 C 0.53533 0.56111 0.96207 0.0
C857 C 0.5216 0.57959 0.97789 0.0
C858 C 0.5491 0.54649 0.98563 0.0
C859 C 0.52084 0.58222 0.01774 0.0
C860 C 0.53419 0.56749 0.04135 0.0
C861 C 0.56396 0.53665 0.04907 0.0
C862 C 0.57986 0.52028 0.03308 0.0
C863 C 0.54881 0.54996 0.02561 0.0
C864 C 0.57928 0.51638 0.99331 0.0
C865 C 0.56397 0.5292 0.96986 0.0
H866 H 0.48695 0.03677 0.08485 0.0
H867 H 0.51001 0.09836 0.9847 0.0
H868 H 0.48808 0.04894 0.94413 0.0
H869 H 0.45938 0.98783 0.93706 0.0
H870 H 0.43463 0.92611 0.0373 0.0
H871 H 0.4603 0.97579 0.07763 0.0
C872 C 0.48751 0.03944 0.05413 0.0
C873 C 0.50015 0.07136 0.03793 0.0
C874 C 0.47438 0.01077 0.03089 0.0
C875 C 0.50046 0.0742 0.99803 0.0
C876 C 0.48784 0.04589 0.97476 0.0
C877 C 0.45993 0.98523 0.96771 0.0
C878 C 0.44505 0.95315 0.98405 0.0
C879 C 0.47432 0.01398 0.99086 0.0
C880 C 0.44586 0.95038 0.02387 0.0
C881 C 0.46049 0.97884 0.04701 0.0
H882 H 0.99288 0.17221 0.07418 0.0
H883 H 0.09914 0.22174 0.0513 0.0
H884 H 0.08827 0.22164 0.98358 0.0
H885 H 0.04891 0.20671 0.93079 0.0
H886 H 0.94268 0.14758 0.95343 0.0
H887 H 0.95367 0.1524 0.02125 0.0
C888 C 0.01389 0.18231 0.05471 0.0
C889 C 0.04692 0.19694 0.06867 0.0
C890 C 1.00752 0.18067 0.01543 0.0
C891 C 0.07344 0.21089 0.04215 0.0
C892 C 0.06726 0.21056 1.00312 0.0
C893 C 0.02794 0.19412 0.95011 0.0
C894 C 0.99484 0.17698 0.93605 0.0
C895 C 0.03438 0.19531 0.9894 0.0
C896 C 0.96842 0.16186 0.96261 0.0
C897 C 0.97465 0.1642 1.00173 0.0
H898 H 0.88282 0.87881 0.94194 0.0
H899 H 0.79547 0.78032 0.93634 0.0
H900 H 0.78259 0.78494 1.00245 0.0
H901 H 0.79599 0.81657 0.06221 0.0
H902 H 0.87936 0.91751 0.06526 0.0
H903 H 0.89329 0.91222 0.99972 0.0
C904 C 0.8606 0.85844 0.95468 0.0
C905 C 0.84051 0.82907 0.93363 0.0
C906 C 0.85245 0.86164 0.99252 0.0
C907 C 0.81218 0.80292 0.95163 0.0
C908 C 0.80445 0.80565 0.98952 0.0
C909 C 0.81685 0.83773 0.0485 0.0
C910 C 0.83672 0.86727 0.06931 0.0
C911 C 0.82439 0.83489 0.01027 0.0
C912 C 0.86397 0.89409 0.05071 0.0
C913 C 0.8719 0.89121 0.01295 0.0
H914 H 0.2325 0.03203 0.96531 0.0
H915 H 0.12817 0.99064 0.93853 0.0
H916 H 0.11278 0.97012 1.00391 0.0
H917 H 0.12915 0.96375 0.06868 0.0
H918 H 0.23339 1.0029 0.09455 0.0
H919 H 0.24876 0.02429 0.0296 0.0
C920 C 0.20646 0.01871 0.97402 0.0
C921 C 0.18147 0.01302 0.9475 0.0
C922 C 0.19782 1.00641 0.01135 0.0
C923 C 0.14775 0.99526 0.95867 0.0
C924 C 0.13898 0.98356 0.99596 0.0
C925 C 0.15519 0.977 0.05999 0.0
C926 C 0.1801 0.98175 0.08621 0.0
C927 C 0.1638 0.98893 0.02252 0.0
C928 C 0.21377 0.99866 0.07465 0.0
C929 C 0.22258 0.01106 0.03763 0.0
H930 H 0.63624 0.47903 0.28733 0.0
H931 H 0.71279 0.57799 0.25494 0.0
H932 H 0.73054 0.59114 0.32137 0.0
H933 H 0.72421 0.5745 0.38881 0.0
H934 H 0.64946 0.47426 0.42036 0.0
H935 H 0.63092 0.46192 0.35448 0.0
C936 C 0.65665 0.50352 0.29494 0.0
C937 C 0.67314 0.5275 0.26633 0.0
C938 C 0.66705 0.51075 0.33312 0.0
C939 C 0.69985 0.55903 0.27646 0.0
C940 C 0.70996 0.56658 0.31444 0.0
C941 C 0.70413 0.54983 0.3813 0.0
C942 C 0.68817 0.52552 0.40988 0.0
C943 C 0.69386 0.54258 0.34304 0.0
C944 C 0.66185 0.4938 0.39934 0.0
C945 C 0.65131 0.48656 0.36152 0.0
H946 H 0.54905 0.21654 0.4046 0.0
H947 H 0.44594 0.13756 0.41035 0.0
H948 H 0.44814 0.12355 0.34398 0.0
H949 H 0.47872 0.13424 0.28375 0.0
H950 H 0.58258 0.21118 0.27841 0.0
H951 H 0.58068 0.22509 0.34513 0.0
C952 C 0.52714 0.19604 0.39152 0.0
C953 C 0.49725 0.17853 0.41255 0.0
C954 C 0.52866 0.18765 0.3533 0.0
C955 C 0.46907 0.15217 0.39477 0.0
C956 C 0.47035 0.14385 0.35682 0.0
C957 C 0.50113 0.15369 0.29729 0.0
C958 C 0.53068 0.1717 0.27588 0.0
C959 C 0.49995 0.1615 0.33575 0.0
C960 C 0.5593 0.19721 0.29391 0.0
C961 C 0.5583 0.20512 0.33217 0.0
H962 H 0.82164 0.31966 0.27167 0.0
H963 H 0.90403 0.41932 0.29099 0.0
H964 H 0.90157 0.40813 0.35901 0.0
H965 H 0.8771 0.36995 0.41273 0.0
H966 H 0.79124 0.27211 0.39469 0.0
H967 H 0.7944 0.28275 0.32638 0.0
C968 C 0.83872 0.33921 0.29072 0.0
C969 C 0.86318 0.37024 0.27585 0.0
C970 C 0.83682 0.33286 0.33008 0.0
C971 C 0.88538 0.39496 0.30124 0.0
C972 C 0.88389 0.38866 0.34029 0.0
C973 C 0.85857 0.35105 0.39418 0.0
C974 C 0.83395 0.3202 0.4093 0.0
C975 C 0.85985 0.35764 0.35499 0.0
C976 C 0.81089 0.29588 0.38414 0.0
C977 C 0.81245 0.30205 0.34498 0.0
H978 H 0.39246 0.89413 0.72665 0.0
H979 H 0.3104 0.80082 0.76713 0.0
H980 H 0.28794 0.78675 0.7028 0.0
H981 H 0.29205 0.80025 0.63446 0.0
H982 H 0.37243 0.89487 0.59489 0.0
H983 H 0.39452 0.90923 0.65942 0.0
C984 C 0.36942 0.87091 0.72167 0.0
C985 C 0.3535 0.84851 0.75195 0.0
C986 C 0.35619 0.86313 0.6846 0.0
C987 C 0.32381 0.8183 0.74442 0.0
C988 C 0.31068 0.81031 0.70761 0.0
C989 C 0.31413 0.82418 0.64006 0.0
C990 C 0.33077 0.84618 0.60971 0.0
C991 C 0.32673 0.83243 0.6774 0.0
C992 C 0.3595 0.87708 0.61752 0.0
C993 C 0.37211 0.88542 0.65449 0.0
H994 H 0.14352 0.48635 0.60275 0.0
H995 H 0.23389 0.48514 0.62832 0.0
H996 H 0.22976 0.49769 0.69542 0.0
H997 H 0.20027 0.50884 0.74643 0.0
H998 H 0.11096 0.51242 0.72026 0.0
H999 H 0.11461 0.49885 0.65383 0.0
C1000 C 0.16207 0.48865 0.62326 0.0
C1001 C 0.18875 0.48456 0.61117 0.0
C1002 C 0.15975 0.49635 0.66148 0.0
C1003 C 0.21303 0.48795 0.63744 0.0
C1004 C 0.21071 0.49522 0.67561 0.0
C1005 C 0.18185 0.50717 0.72614 0.0
C1006 C 0.15539 0.51172 0.73848 0.0
C1007 C 0.18424 0.49961 0.6879 0.0
C1008 C 0.13139 0.50871 0.71179 0.0
C1009 C 0.13351 0.50106 0.67371 0.0
H1010 H 0.52677 0.70254 0.74254 0.0
H1011 H 0.47713 0.59669 0.72245 0.0
H1012 H 0.4817 0.60622 0.65347 0.0
H1013 H 0.50041 0.64489 0.59871 0.0
H1014 H 0.55377 0.75083 0.61885 0.0
H1015 H 0.54731 0.74126 0.68778 0.0
C1016 C 0.51685 0.68164 0.72294 0.0
C1017 C 0.50141 0.64896 0.73741 0.0
C1018 C 0.52034 0.68739 0.68336 0.0
C1019 C 0.4891 0.62203 0.71187 0.0
C1020 C 0.49168 0.62749 0.67249 0.0
C1021 C 0.51047 0.66581 0.61829 0.0
C1022 C 0.52736 0.69851 0.60382 0.0
C1023 C 0.50731 0.66006 0.65788 0.0
C1024 C 0.54074 0.72546 0.62939 0.0
C1025 C 0.53698 0.71998 0.66876 0.0
H1026 H 0.2048 0.08343 0.26619 0.0
H1027 H 0.10156 1.00516 0.26602 0.0
H1028 H 0.08379 0.04689 0.26949 0.0
H1029 H 0.09817 0.106 0.26537 0.0
H1030 H 0.20192 0.18343 0.26629 0.0
H1031 H 0.21899 0.14164 0.26991 0.0
C1032 C 0.17838 0.07549 0.26738 0.0
C1033 C 0.1545 0.04139 0.26539 0.0
C1034 C 0.16851 0.0995 0.26922 0.0
C1035 C 0.12039 0.03133 0.26754 0.0
C1036 C 0.11027 0.05519 0.2693 0.0
C1037 C 0.12446 0.11373 0.2673 0.0
C1038 C 0.14879 0.14787 0.26496 0.0
C1039 C 0.13415 0.08942 0.2692 0.0
C1040 C 0.18276 0.15738 0.26725 0.0
C1041 C 0.19254 0.13349 0.2694 0.0
H1042 H 0.97411 0.11318 0.26251 0.0
H1043 H 0.03264 0.06956 0.22516 0.0
H1044 H 0.9834 0.01387 0.22947 0.0
H1045 H 0.92296 0.97797 0.23942 0.0
H1046 H 0.8638 0.0216 0.27382 0.0
H1047 H 0.91396 0.07692 0.27498 0.0
C1048 C 0.97617 0.09144 0.25585 0.0
C1049 C 1.00696 0.09547 0.24351 0.0
C1050 C 0.94757 0.05954 0.25749 0.0
C1051 C 1.00917 0.06711 0.23453 0.0
C1052 C 0.98103 0.03526 0.23696 0.0
C1053 C 0.92114 0.99949 0.24782 0.0
C1054 C 0.8897 0.99569 0.25657 0.0
C1055 C 0.94998 0.03123 0.24777 0.0
C1056 C 0.88767 0.02396 0.26666 0.0
C1057 C 0.91635 0.05554 0.26741 0.0
H1058 H 0.91142 0.83778 0.19845 0.0
H1059 H 0.91687 0.90327 0.28906 0.0
H1060 H 0.97607 0.92104 0.29877 0.0
H1061 H 0.02614 0.9163 0.28232 0.0
H1062 H 0.01847 0.8505 0.19099 0.0
H1063 H 0.96043 0.83472 0.18068 0.0
C1064 C 0.92539 0.85594 0.22043 0.0
C1065 C 0.90953 0.86891 0.24319 0.0
C1066 C 0.95918 0.86603 0.2257 0.0
C1067 C 0.92835 0.89268 0.27125 0.0
C1068 C 0.96223 0.90289 0.27676 0.0
C1069 C 0.01174 0.8988 0.25999 0.0
C1070 C 0.0265 0.88422 0.23783 0.0
C1071 C 0.97793 0.88958 0.25425 0.0
C1072 C 1.00755 0.86153 0.20898 0.0
C1073 C 0.97436 0.85256 0.20294 0.0
H1074 H 0.02063 0.08369 0.79904 0.0
H1075 H 0.05401 0.16574 0.72033 0.0
H1076 H 0.10867 0.16997 0.71597 0.0
H1077 H 0.14855 0.15216 0.73744 0.0
H1078 H 0.11452 0.07018 0.81568 0.0
H1079 H 0.05877 0.06387 0.81721 0.0
C1080 C 0.03969 0.10231 0.78061 0.0
C1081 C 0.03314 0.12458 0.76041 0.0
C1082 C 0.07119 0.10468 0.77829 0.0
C1083 C 0.05824 0.14837 0.73647 0.0
C1084 C 0.08966 0.15089 0.734 0.0
C1085 C 0.12872 0.13292 0.75454 0.0
C1086 C 0.13531 0.11152 0.77631 0.0
C1087 C 0.09666 0.12956 0.75529 0.0
C1088 C 0.10967 0.08659 0.79847 0.0
C1089 C 0.07791 0.08312 0.79945 0.0
H1090 H 0.9291 0.0303 0.74989 0.0
H1091 H 0.82847 0.01328 0.74772 0.0
H1092 H 0.80619 0.95336 0.74377 0.0
H1093 H 0.81488 0.90556 0.74693 0.0
H1094 H 0.91516 0.92173 0.74832 0.0
H1095 H 0.93797 0.98199 0.74589 0.0
C1096 C 0.90237 0.0135 0.7477 0.0
C1097 C 0.88048 0.02627 0.74978 0.0
C1098 C 0.88962 0.97884 0.74557 0.0
C1099 C 0.84584 1.0041 0.74706 0.0
C1100 C 0.83305 0.9698 0.74469 0.0
C1101 C 0.84174 0.92227 0.74628 0.0
C1102 C 0.86326 0.90915 0.74811 0.0
C1103 C 0.85464 0.95685 0.74502 0.0
C1104 C 0.898 0.9311 0.74679 0.0
C1105 C 0.91108 0.96564 0.74562 0.0
H1106 H 0.081 0.00815 0.78119 0.0
H1107 H 0.13535 0.959 0.7484 0.0
H1108 H 0.08256 0.90646 0.73959 0.0
H1109 H 0.02079 0.87363 0.74671 0.0
H1110 H 0.96745 0.92419 0.77779 0.0
H1111 H 0.01988 0.97713 0.78169 0.0
C1112 C 0.08121 0.986 0.77158 0.0
C1113 C 0.1118 0.98719 0.76569 0.0
C1114 C 0.05096 0.95615 0.76662 0.0
C1115 C 0.11195 0.95858 0.75287 0.0
C1116 C 0.08183 0.92854 0.74818 0.0
C1117 C 0.02087 0.89638 0.75403 0.0
C1118 C 0.99049 0.89515 0.76208 0.0
C1119 C 0.05119 0.92686 0.75587 0.0
C1120 C 0.99057 0.92469 0.77115 0.0
C1121 C 0.02052 0.95489 0.77358 0.0
H1122 H 0.7469 0.35066 0.57771 0.0
H1123 H 0.85299 0.39647 0.59666 0.0
H1124 H 0.85787 0.45144 0.60043 0.0
H1125 H 0.83206 0.48691 0.59423 0.0
H1126 H 0.72544 0.43981 0.57918 0.0
H1127 H 0.72052 0.38511 0.57817 0.0
C1128 C 0.77098 0.37269 0.58305 0.0
C1129 C 0.79952 0.36972 0.58667 0.0
C1130 C 0.7735 0.40403 0.5857 0.0
C1131 C 0.83061 0.39826 0.594 0.0
C1132 C 0.83346 0.42969 0.59591 0.0
C1133 C 0.80785 0.46456 0.59107 0.0
C1134 C 0.77921 0.46735 0.58661 0.0
C1135 C 0.80513 0.43295 0.59117 0.0
C1136 C 0.74781 0.43827 0.58288 0.0
C1137 C 0.74498 0.40696 0.58213 0.0
H1138 H 0.66934 0.4151 0.54461 0.0
H1139 H 0.6346 0.46197 0.62452 0.0
H1140 H 0.58477 0.40806 0.6375 0.0
H1141 H 0.55013 0.34805 0.62411 0.0
H1142 H 0.58525 0.30164 0.54421 0.0
H1143 H 0.6363 0.35495 0.53378 0.0
C1144 C 0.651 0.41357 0.56504 0.0
C1145 C 0.65559 0.44257 0.5834 0.0
C1146 C 0.62253 0.38259 0.57239 0.0
C1147 C 0.63167 0.44004 0.61 0.0
C1148 C 0.60314 0.40924 0.61735 0.0
C1149 C 0.56892 0.34966 0.60434 0.0
C1150 C 0.56375 0.32096 0.58473 0.0
C1151 C 0.59813 0.38044 0.59835 0.0
C1152 C 0.58868 0.32326 0.55984 0.0
C1153 C 0.61777 0.35379 0.55368 0.0
H1154 H 0.66888 0.17633 0.60952 0.0
H1155 H 0.70723 0.28189 0.59807 0.0
H1156 H 0.6504 0.27282 0.60158 0.0
H1157 H 0.58894 0.23383 0.60057 0.0
H1158 H 0.55171 0.12819 0.60947 0.0
H1159 H 0.60857 0.1383 0.61453 0.0
C1160 C 0.66484 0.19738 0.60807 0.0
C1161 C 0.69233 0.22966 0.60316 0.0
C1162 C 0.63207 0.19192 0.60949 0.0
C1163 C 0.68662 0.25675 0.60205 0.0
C1164 C 0.65403 0.25155 0.60378 0.0
C1165 C 0.59334 0.21317 0.60457 0.0
C1166 C 0.56611 0.18028 0.60449 0.0
C1167 C 0.62642 0.21912 0.60656 0.0
C1168 C 0.57223 0.15372 0.60923 0.0
C1169 C 0.60478 0.15945 0.612 0.0
H1170 H 0.81412 0.47931 0.06502 0.0
H1171 H 0.77209 0.39112 0.13514 0.0
H1172 H 0.72029 0.39251 0.14171 0.0
H1173 H 0.68779 0.42001 0.12986 0.0
H1174 H 0.72908 0.50801 0.05934 0.0
H1175 H 0.7802 0.50541 0.05042 0.0
C1176 C 0.79361 0.4605 0.08178 0.0
C1177 C 0.797 0.43524 0.09966 0.0
C1178 C 0.76378 0.4614 0.08535 0.0
C1179 C 0.77003 0.41065 0.12081 0.0
C1180 C 0.74045 0.41153 0.12474 0.0
C1181 C 0.70791 0.43856 0.11238 0.0
C1182 C 0.70472 0.46428 0.0955 0.0
C1183 C 0.73716 0.43693 0.10742 0.0
C1184 C 0.73085 0.48788 0.07258 0.0
C1185 C 0.76017 0.48652 0.06763 0.0
H1186 H 0.57365 0.26196 0.08986 0.0
H1187 H 0.46749 0.22346 0.0995 0.0
H1188 H 0.47599 0.27951 0.09375 0.0
H1189 H 0.51359 0.33977 0.09177 0.0
H1190 H 0.62013 0.37956 0.08581 0.0
H1191 H 0.61155 0.32317 0.0836 0.0
C1192 C 0.55245 0.26592 0.08988 0.0
C1193 C 0.52001 0.23866 0.09522 0.0
C1194 C 0.55759 0.29857 0.08754 0.0
C1195 C 0.49273 0.24411 0.09567 0.0
C1196 C 0.49755 0.27617 0.09246 0.0
C1197 C 0.53495 0.33617 0.08989 0.0
C1198 C 0.56741 0.36403 0.08923 0.0
C1199 C 0.52989 0.30366 0.08944 0.0
C1200 C 0.59478 0.35872 0.08603 0.0
C1201 C 0.58992 0.32638 0.08506 0.0
H1202 H 0.76556 0.32356 0.09379 0.0
H1203 H 0.79743 0.25076 0.08866 0.0
H1204 H 0.73959 0.20608 0.08203 0.0
H1205 H 0.68008 0.18711 0.0833 0.0
H1206 H 0.64644 0.25821 0.09334 0.0
H1207 H 0.70461 0.30413 0.09146 0.0
C1208 C 0.75978 0.29798 0.09046 0.0
C1209 C 0.78573 0.29043 0.0917 0.0
C1210 C 0.72612 0.2721 0.0878 0.0
C1211 C 0.77788 0.25714 0.08793 0.0
C1212 C 0.74481 0.23157 0.08419 0.0
C1213 C 0.68537 0.21263 0.08511 0.0
C1214 C 0.65887 0.21909 0.08907 0.0
C1215 C 0.71873 0.23866 0.0851 0.0
C1216 C 0.66628 0.25244 0.09023 0.0
C1217 C 0.69959 0.27871 0.08944 0.0
H1218 H 0.4212 0.77394 0.92666 0.0
H1219 H 0.52238 0.85673 0.92807 0.0
H1220 H 0.544 0.81855 0.92916 0.0
H1221 H 0.53466 0.76211 0.92374 0.0
H1222 H 0.43423 0.67823 0.92353 0.0
H1223 H 0.41179 0.71611 0.92857 0.0
C1224 C 0.4479 0.7835 0.92798 0.0
C1225 C 0.47016 0.81819 0.9265 0.0
C1226 C 0.46032 0.76121 0.92852 0.0
C1227 C 0.50475 0.8302 0.92824 0.0
C1228 C 0.51716 0.80838 0.92898 0.0
C1229 C 0.50784 0.75209 0.92518 0.0
C1230 C 0.48615 0.71751 0.92286 0.0
C1231 C 0.49525 0.77392 0.92803 0.0
C1232 C 0.45148 0.7048 0.92534 0.0
C1233 C 0.43864 0.72649 0.928 0.0
H1234 H 0.33264 0.75786 0.92131 0.0
H1235 H 0.26566 0.79445 0.94754 0.0
H1236 H 0.21886 0.73758 0.95234 0.0
H1237 H 0.19568 0.67799 0.94182 0.0
H1238 H 0.26083 0.63992 0.91309 0.0
H1239 H 0.30953 0.69637 0.917 0.0
C1240 C 0.30795 0.75317 0.92915 0.0
C1241 C 0.3025 0.78019 0.93419 0.0
C1242 C 0.28072 0.72014 0.93078 0.0
C1243 C 0.27034 0.77396 0.94361 0.0
C1244 C 0.24354 0.74147 0.94614 0.0
C1245 C 0.22057 0.68204 0.93663 0.0
C1246 C 0.22457 0.65492 0.92663 0.0
C1247 C 0.24821 0.71446 0.93851 0.0
C1248 C 0.25707 0.6604 0.92084 0.0
C1249 C 0.2849 0.69272 0.92288 0.0
H1250 H 0.25633 0.56198 0.93641 0.0
H1251 H 0.22463 0.47136 0.87222 0.0
H1252 H 0.28131 0.48174 0.87079 0.0
H1253 H 0.33974 0.51682 0.88471 0.0
H1254 H 0.37368 0.60671 0.95083 0.0
H1255 H 0.31652 0.5964 0.95399 0.0
C1256 C 0.26186 0.54442 0.92248 0.0
C1257 C 0.23612 0.51608 0.90422 0.0
C1258 C 0.295 0.55044 0.92169 0.0
C1259 C 0.24379 0.49357 0.88626 0.0
C1260 C 0.27632 0.49941 0.88537 0.0
C1261 C 0.335 0.5341 0.90044 0.0
C1262 C 0.36152 0.56258 0.91737 0.0
C1263 C 0.30213 0.52786 0.9026 0.0
C1264 C 0.35417 0.58472 0.93696 0.0
C1265 C 0.3213 0.57876 0.939 0.0
H1266 H 0.34778 0.73938 0.45765 0.0
H1267 H 0.38997 0.8388 0.4122 0.0
H1268 H 0.44407 0.84193 0.40392 0.0
H1269 H 0.48011 0.81701 0.41275 0.0
H1270 H 0.43657 0.71689 0.45597 0.0
H1271 H 0.38223 0.71325 0.46208 0.0
C1272 C 0.36879 0.76162 0.44569 0.0
C1273 C 0.3651 0.78886 0.43577 0.0
C1274 C 0.39957 0.76313 0.44084 0.0
C1275 C 0.39228 0.81743 0.41986 0.0
C1276 C 0.42323 0.81932 0.41537 0.0
C1277 C 0.45856 0.79451 0.42336 0.0
C1278 C 0.46205 0.76727 0.43391 0.0
C1279 C 0.42729 0.79249 0.42629 0.0
C1280 C 0.43415 0.73798 0.44735 0.0
C1281 C 0.40321 0.73596 0.45099 0.0
H1282 H 0.24486 0.58293 0.43024 0.0
H1283 H 0.1376 0.53818 0.43503 0.0
H1284 H 0.14247 0.59269 0.4288 0.0
H1285 H 0.17698 0.6533 0.42898 0.0
H1286 H 0.28434 0.69949 0.42716 0.0
H1287 H 0.27979 0.64466 0.42449 0.0
C1288 C 0.22267 0.58523 0.42906 0.0
C1289 C 0.19095 0.5567 0.4334 0.0
C1290 C 0.22566 0.61699 0.42637 0.0
C1291 C 0.16231 0.5599 0.43214 0.0
C1292 C 0.16504 0.59105 0.42863 0.0
C1293 C 0.19937 0.65136 0.42773 0.0
C1294 C 0.23086 0.68043 0.42868 0.0
C1295 C 0.19656 0.61982 0.42695 0.0
C1296 C 0.2597 0.67753 0.42628 0.0
C1297 C 0.25713 0.64612 0.42504 0.0
H1298 H 0.45118 0.58365 0.4176 0.0
H1299 H 0.43448 0.667 0.42098 0.0
H1300 H 0.37393 0.62887 0.42055 0.0
H1301 H 0.32548 0.571 0.42567 0.0
H1302 H 0.3437 0.48857 0.42118 0.0
H1303 H 0.40353 0.52691 0.41532 0.0
C1304 C 0.43429 0.5935 0.41777 0.0
C1305 C 0.44737 0.62811 0.41958 0.0
C1306 C 0.39959 0.57144 0.4176 0.0
C1307 C 0.42514 0.64048 0.41938 0.0
C1308 C 0.39044 0.61863 0.41939 0.0
C1309 C 0.34255 0.56155 0.42261 0.0
C1310 C 0.33014 0.52694 0.42461 0.0
C1311 C 0.37731 0.58395 0.41935 0.0
C1312 C 0.35263 0.51506 0.42061 0.0
C1313 C 0.38689 0.53698 0.41717 0.0
loop_
_geom_bond_atom_site_label_1
_geom_bond_atom_site_label_2
_geom_bond_distance
_geom_bond_site_symmetry_2
_ccdc_geom_bond_type
Co0 N4 2.148 1_455 S
Co0 N10 2.128 . S
Co0 N20 2.194 . S
Co0 O25 2.351 . S
Co0 O26 2.155 . S
Co0 O27 2.096 1_455 S
C1 N4 1.301 . S
C1 N5 1.328 . S
C1 H6 0.930 1_655 S
C2 C3 1.333 . S
C2 N4 1.317 . S
C2 H7 0.930 . S
C3 C2 1.333 . S
C3 N5 1.350 . S
C3 H29 0.931 . S
N4 Co0 2.148 1_655 S
N4 C1 1.301 . S
N4 C2 1.317 . S
N5 C1 1.328 . S
N5 C3 1.350 . S
H6 C1 0.930 1_455 S
H7 C2 0.930 . S
C8 O9 1.224 . S
C8 O27 1.247 . S
O9 C8 1.224 . S
N10 Co0 2.128 . S
N10 C11 1.355 . S
N10 C13 1.311 . S
C11 N10 1.355 . S
C11 C12 1.363 . S
C11 H23 0.929 . S
C12 C11 1.363 . S
C12 N14 1.375 . S
C12 H30 0.931 . S
C13 N10 1.311 . S
C13 N14 1.347 . S
C13 H24 0.929 . S
N14 C12 1.375 . S
N14 C13 1.347 . S
C15 C18 1.365 . S
C15 N20 1.328 . S
C15 H21 0.929 . S
C16 C17 1.362 . S
C16 C19 1.378 . S
C16 H31 0.929 . S
C17 C16 1.362 . S
C17 C18 1.366 . S
C18 C15 1.365 . S
C18 C17 1.366 . S
C18 H32 0.930 . S
C19 C16 1.378 . S
C19 N20 1.315 . S
C19 H22 0.930 1_455 S
N20 Co0 2.194 . S
N20 C15 1.328 . S
N20 C19 1.315 . S
H21 C15 0.929 . S
H22 C19 0.930 1_655 S
H23 C11 0.929 . S
H24 C13 0.929 . S
O25 Co0 2.351 . S
O25 C28 1.244 . S
O26 Co0 2.155 . S
O26 C28 1.240 . S
O27 Co0 2.096 1_655 S
O27 C8 1.247 . S
C28 O25 1.244 . S
C28 O26 1.240 . S
H29 C3 0.931 . S
H30 C12 0.931 . S
H31 C16 0.929 . S
H32 C18 0.930 . S
Co33 N37 2.148 . S
Co33 N43 2.128 . S
Co33 N53 2.194 . S
Co33 O58 2.351 . S
Co33 O59 2.155 . S
Co33 O60 2.096 . S
C34 N37 1.301 . S
C34 N38 1.328 . S
C34 H39 0.930 . S
C35 C36 1.333 . S
C35 N37 1.317 . S
C35 H40 0.930 . S
C36 C35 1.333 . S
C36 N38 1.350 . S
C36 H62 0.931 . S
N37 Co33 2.148 . S
N37 C34 1.301 . S
N37 C35 1.317 . S
N38 C34 1.328 . S
N38 C36 1.350 . S
H39 C34 0.930 . S
H40 C35 0.930 . S
C41 O42 1.224 . S
C41 O60 1.247 . S
O42 C41 1.224 . S
N43 Co33 2.128 . S
N43 C44 1.355 . S
N43 C46 1.311 . S
C44 N43 1.355 . S
C44 C45 1.363 . S
C44 H56 0.929 . S
C45 C44 1.363 . S
C45 N47 1.375 . S
C45 H63 0.931 . S
C46 N43 1.311 . S
C46 N47 1.347 . S
C46 H57 0.929 . S
N47 C45 1.375 . S
N47 C46 1.347 . S
C48 C51 1.365 . S
C48 N53 1.328 . S
C48 H54 0.929 . S
C49 C50 1.362 . S
C49 C52 1.378 . S
C49 H64 0.929 . S
C50 C49 1.362 . S
C50 C51 1.366 . S
C51 C48 1.365 . S
C51 C50 1.366 . S
C51 H65 0.930 . S
C52 C49 1.378 . S
C52 N53 1.315 . S
C52 H55 0.930 . S
N53 Co33 2.194 . S
N53 C48 1.328 . S
N53 C52 1.315 . S
H54 C48 0.929 . S
H55 C52 0.930 . S
H56 C44 0.929 . S
H57 C46 0.929 . S
O58 Co33 2.351 . S
O58 C61 1.244 . S
O59 Co33 2.155 . S
O59 C61 1.240 . S
O60 Co33 2.096 . S
O60 C41 1.247 . S
C61 O58 1.244 . S
C61 O59 1.240 . S
H62 C36 0.931 . S
H63 C45 0.931 . S
H64 C49 0.929 . S
H65 C51 0.930 . S
Co66 N70 2.148 1_565 S
Co66 N76 2.128 . S
Co66 N86 2.194 . S
Co66 O91 2.351 . S
Co66 O92 2.155 . S
Co66 O93 2.096 1_565 S
C67 N70 1.301 . S
C67 N71 1.328 . S
C67 H72 0.930 1_545 S
C68 C69 1.333 . S
C68 N70 1.317 . S
C68 H73 0.930 . S
C69 C68 1.333 . S
C69 N71 1.350 . S
C69 H95 0.931 . S
N70 Co66 2.148 1_545 S
N70 C67 1.301 . S
N70 C68 1.317 . S
N71 C67 1.328 . S
N71 C69 1.350 . S
H72 C67 0.930 1_565 S
H73 C68 0.930 . S
C74 O75 1.224 . S
C74 O93 1.247 . S
O75 C74 1.224 . S
N76 Co66 2.128 . S
N76 C77 1.355 . S
N76 C79 1.311 . S
C77 N76 1.355 . S
C77 C78 1.363 . S
C77 H89 0.929 . S
C78 C77 1.363 . S
C78 N80 1.375 . S
C78 H96 0.931 . S
C79 N76 1.311 . S
C79 N80 1.347 . S
C79 H90 0.929 . S
N80 C78 1.375 . S
N80 C79 1.347 . S
C81 C84 1.365 . S
C81 N86 1.328 . S
C81 H87 0.929 . S
C82 C83 1.362 . S
C82 C85 1.378 . S
C82 H97 0.929 . S
C83 C82 1.362 . S
C83 C84 1.366 . S
C84 C81 1.365 . S
C84 C83 1.366 . S
C84 H98 0.930 . S
C85 C82 1.378 . S
C85 N86 1.315 . S
C85 H88 0.930 1_565 S
N86 Co66 2.194 . S
N86 C81 1.328 . S
N86 C85 1.315 . S
H87 C81 0.929 . S
H88 C85 0.930 1_545 S
H89 C77 0.929 . S
H90 C79 0.929 . S
O91 Co66 2.351 . S
O91 C94 1.244 . S
O92 Co66 2.155 . S
O92 C94 1.240 . S
O93 Co66 2.096 1_545 S
O93 C74 1.247 . S
C94 O91 1.244 . S
C94 O92 1.240 . S
H95 C69 0.931 . S
H96 C78 0.931 . S
H97 C82 0.929 . S
H98 C84 0.930 . S
Co99 N103 2.148 1_545 S
Co99 N109 2.128 . S
Co99 N119 2.194 . S
Co99 O124 2.351 . S
Co99 O125 2.155 . S
Co99 O126 2.096 1_545 S
C100 N103 1.301 . S
C100 N104 1.328 . S
C100 H105 0.930 1_565 S
C101 C102 1.333 . S
C101 N103 1.317 . S
C101 H106 0.930 . S
C102 C101 1.333 . S
C102 N104 1.350 . S
C102 H128 0.931 . S
N103 Co99 2.148 1_565 S
N103 C100 1.301 . S
N103 C101 1.317 . S
N104 C100 1.328 . S
N104 C102 1.350 . S
H105 C100 0.930 1_545 S
H106 C101 0.930 . S
C107 O108 1.224 . S
C107 O126 1.247 . S
O108 C107 1.224 . S
N109 Co99 2.128 . S
N109 C110 1.355 . S
N109 C112 1.311 . S
C110 N109 1.355 . S
C110 C111 1.363 . S
C110 H122 0.929 . S
C111 C110 1.363 . S
C111 N113 1.375 . S
C111 H129 0.931 . S
C112 N109 1.311 . S
C112 N113 1.347 . S
C112 H123 0.929 . S
N113 C111 1.375 . S
N113 C112 1.347 . S
C114 C117 1.365 . S
C114 N119 1.328 . S
C114 H120 0.929 . S
C115 C116 1.362 . S
C115 C118 1.378 . S
C115 H130 0.929 . S
C116 C115 1.362 . S
C116 C117 1.366 . S
C117 C114 1.365 . S
C117 C116 1.366 . S
C117 H131 0.930 . S
C118 C115 1.378 . S
C118 N119 1.315 . S
C118 H121 0.930 1_545 S
N119 Co99 2.194 . S
N119 C114 1.328 . S
N119 C118 1.315 . S
H120 C114 0.929 . S
H121 C118 0.930 1_565 S
H122 C110 0.929 . S
H123 C112 0.929 . S
O124 Co99 2.351 . S
O124 C127 1.244 . S
O125 Co99 2.155 . S
O125 C127 1.240 . S
O126 Co99 2.096 1_565 S
O126 C107 1.247 . S
C127 O124 1.244 . S
C127 O125 1.240 . S
H128 C102 0.931 . S
H129 C111 0.931 . S
H130 C115 0.929 . S
H131 C117 0.930 . S
Co132 N136 2.148 1_655 S
Co132 N142 2.128 . S
Co132 N152 2.194 . S
Co132 O157 2.351 . S
Co132 O158 2.155 . S
Co132 O159 2.096 1_655 S
C133 N136 1.301 . S
C133 N137 1.328 . S
C133 H138 0.930 1_455 S
C134 C135 1.333 . S
C134 N136 1.317 . S
C134 H139 0.930 . S
C135 C134 1.333 . S
C135 N137 1.350 . S
C135 H161 0.931 . S
N136 Co132 2.148 1_455 S
N136 C133 1.301 . S
N136 C134 1.317 . S
N137 C133 1.328 . S
N137 C135 1.350 . S
H138 C133 0.930 1_655 S
H139 C134 0.930 . S
C140 O141 1.224 . S
C140 O159 1.247 . S
O141 C140 1.224 . S
N142 Co132 2.128 . S
N142 C143 1.355 . S
N142 C145 1.311 . S
C143 N142 1.355 . S
C143 C144 1.363 . S
C143 H155 0.929 . S
C144 C143 1.363 . S
C144 N146 1.375 . S
C144 H162 0.931 . S
C145 N142 1.311 . S
C145 N146 1.347 . S
C145 H156 0.929 . S
N146 C144 1.375 . S
N146 C145 1.347 . S
C147 C150 1.365 . S
C147 N152 1.328 . S
C147 H153 0.929 . S
C148 C149 1.362 . S
C148 C151 1.378 . S
C148 H163 0.929 . S
C149 C148 1.362 . S
C149 C150 1.366 . S
C150 C147 1.365 . S
C150 C149 1.366 . S
C150 H164 0.930 . S
C151 C148 1.378 . S
C151 N152 1.315 . S
C151 H154 0.930 1_655 S
N152 Co132 2.194 . S
N152 C147 1.328 . S
N152 C151 1.315 . S
H153 C147 0.929 . S
H154 C151 0.930 1_455 S
H155 C143 0.929 . S
H156 C145 0.929 . S
O157 Co132 2.351 . S
O157 C160 1.244 . S
O158 Co132 2.155 . S
O158 C160 1.240 . S
O159 Co132 2.096 1_455 S
O159 C140 1.247 . S
C160 O157 1.244 . S
C160 O158 1.240 . S
H161 C135 0.931 . S
H162 C144 0.931 . S
H163 C148 0.929 . S
H164 C150 0.930 . S
Co165 N169 2.148 . S
Co165 N175 2.128 . S
Co165 N185 2.194 . S
Co165 O190 2.351 . S
Co165 O191 2.155 . S
Co165 O192 2.096 . S
C166 N169 1.301 . S
C166 N170 1.328 . S
C166 H171 0.930 . S
C167 C168 1.333 . S
C167 N169 1.317 . S
C167 H172 0.930 . S
C168 C167 1.333 . S
C168 N170 1.350 . S
C168 H194 0.931 . S
N169 Co165 2.148 . S
N169 C166 1.301 . S
N169 C167 1.317 . S
N170 C166 1.328 . S
N170 C168 1.350 . S
H171 C166 0.930 . S
H172 C167 0.930 . S
C173 O174 1.224 . S
C173 O192 1.247 . S
O174 C173 1.224 . S
N175 Co165 2.128 . S
N175 C176 1.355 . S
N175 C178 1.311 . S
C176 N175 1.355 . S
C176 C177 1.363 . S
C176 H188 0.929 . S
C177 C176 1.363 . S
C177 N179 1.375 . S
C177 H195 0.931 . S
C178 N175 1.311 . S
C178 N179 1.347 . S
C178 H189 0.929 . S
N179 C177 1.375 . S
N179 C178 1.347 . S
C180 C183 1.365 . S
C180 N185 1.328 . S
C180 H186 0.929 . S
C181 C182 1.362 . S
C181 C184 1.378 . S
C181 H196 0.929 . S
C182 C181 1.362 . S
C182 C183 1.366 . S
C183 C180 1.365 . S
C183 C182 1.366 . S
C183 H197 0.930 . S
C184 C181 1.378 . S
C184 N185 1.315 . S
C184 H187 0.930 . S
N185 Co165 2.194 . S
N185 C180 1.328 . S
N185 C184 1.315 . S
H186 C180 0.929 . S
H187 C184 0.930 . S
H188 C176 0.929 . S
H189 C178 0.929 . S
O190 Co165 2.351 . S
O190 C193 1.244 . S
O191 Co165 2.155 . S
O191 C193 1.240 . S
O192 Co165 2.096 . S
O192 C173 1.247 . S
C193 O190 1.244 . S
C193 O191 1.240 . S
H194 C168 0.931 . S
H195 C177 0.931 . S
H196 C181 0.929 . S
H197 C183 0.930 . S
Co198 N202 2.148 . S
Co198 N208 2.128 . S
Co198 N218 2.194 . S
Co198 O223 2.351 . S
Co198 O224 2.155 . S
Co198 O225 2.096 . S
C199 N202 1.301 . S
C199 N203 1.328 . S
C199 H204 0.930 . S
C200 C201 1.333 . S
C200 N202 1.317 . S
C200 H205 0.930 . S
C201 C200 1.333 . S
C201 N203 1.350 . S
C201 H227 0.931 . S
N202 Co198 2.148 . S
N202 C199 1.301 . S
N202 C200 1.317 . S
N203 C199 1.328 . S
N203 C201 1.350 . S
H204 C199 0.930 . S
H205 C200 0.930 . S
C206 O207 1.224 . S
C206 O225 1.247 . S
O207 C206 1.224 . S
N208 Co198 2.128 . S
N208 C209 1.355 . S
N208 C211 1.311 . S
C209 N208 1.355 . S
C209 C210 1.363 . S
C209 H221 0.929 . S
C210 C209 1.363 . S
C210 N212 1.375 . S
C210 H228 0.931 . S
C211 N208 1.311 . S
C211 N212 1.347 . S
C211 H222 0.929 . S
N212 C210 1.375 . S
N212 C211 1.347 . S
C213 C216 1.365 . S
C213 N218 1.328 . S
C213 H219 0.929 . S
C214 C215 1.362 . S
C214 C217 1.378 . S
C214 H229 0.929 . S
C215 C214 1.362 . S
C215 C216 1.366 . S
C216 C213 1.365 . S
C216 C215 1.366 . S
C216 H230 0.930 . S
C217 C214 1.378 . S
C217 N218 1.315 . S
C217 H220 0.930 . S
N218 Co198 2.194 . S
N218 C213 1.328 . S
N218 C217 1.315 . S
H219 C213 0.929 . S
H220 C217 0.930 . S
H221 C209 0.929 . S
H222 C211 0.929 . S
O223 Co198 2.351 . S
O223 C226 1.244 . S
O224 Co198 2.155 . S
O224 C226 1.240 . S
O225 Co198 2.096 . S
O225 C206 1.247 . S
C226 O223 1.244 . S
C226 O224 1.240 . S
H227 C201 0.931 . S
H228 C210 0.931 . S
H229 C214 0.929 . S
H230 C216 0.930 . S
Co231 N235 2.148 . S
Co231 N241 2.128 . S
Co231 N251 2.194 . S
Co231 O256 2.351 . S
Co231 O257 2.155 . S
Co231 O258 2.096 . S
C232 N235 1.301 . S
C232 N236 1.328 . S
C232 H237 0.930 . S
C233 C234 1.333 . S
C233 N235 1.317 . S
C233 H238 0.930 . S
C234 C233 1.333 . S
C234 N236 1.350 . S
C234 H260 0.931 . S
N235 Co231 2.148 . S
N235 C232 1.301 . S
N235 C233 1.317 . S
N236 C232 1.328 . S
N236 C234 1.350 . S
H237 C232 0.930 . S
H238 C233 0.930 . S
C239 O240 1.224 . S
C239 O258 1.247 . S
O240 C239 1.224 . S
N241 Co231 2.128 . S
N241 C242 1.355 . S
N241 C244 1.311 . S
C242 N241 1.355 . S
C242 C243 1.363 . S
C242 H254 0.929 . S
C243 C242 1.363 . S
C243 N245 1.375 . S
C243 H261 0.931 . S
C244 N241 1.311 . S
C244 N245 1.347 . S
C244 H255 0.929 . S
N245 C243 1.375 . S
N245 C244 1.347 . S
C246 C249 1.365 . S
C246 N251 1.328 . S
C246 H252 0.929 . S
C247 C248 1.362 . S
C247 C250 1.378 . S
C247 H262 0.929 . S
C248 C247 1.362 . S
C248 C249 1.366 . S
C249 C246 1.365 . S
C249 C248 1.366 . S
C249 H263 0.930 . S
C250 C247 1.378 . S
C250 N251 1.315 . S
C250 H253 0.930 . S
N251 Co231 2.194 . S
N251 C246 1.328 . S
N251 C250 1.315 . S
H252 C246 0.929 . S
H253 C250 0.930 . S
H254 C242 0.929 . S
H255 C244 0.929 . S
O256 Co231 2.351 . S
O256 C259 1.244 . S
O257 Co231 2.155 . S
O257 C259 1.240 . S
O258 Co231 2.096 . S
O258 C239 1.247 . S
C259 O256 1.244 . S
C259 O257 1.240 . S
H260 C234 0.931 . S
H261 C243 0.931 . S
H262 C247 0.929 . S
H263 C249 0.930 . S
Co264 N268 2.148 . S
Co264 N274 2.128 . S
Co264 N284 2.194 . S
Co264 O289 2.351 . S
Co264 O290 2.155 . S
Co264 O291 2.096 . S
C265 N268 1.301 . S
C265 N269 1.328 . S
C265 H270 0.930 . S
C266 C267 1.333 . S
C266 N268 1.317 . S
C266 H271 0.930 . S
C267 C266 1.333 . S
C267 N269 1.350 . S
C267 H293 0.931 . S
N268 Co264 2.148 . S
N268 C265 1.301 . S
N268 C266 1.317 . S
N269 C265 1.328 . S
N269 C267 1.350 . S
H270 C265 0.930 . S
H271 C266 0.930 . S
C272 O273 1.224 . S
C272 O291 1.247 . S
O273 C272 1.224 . S
N274 Co264 2.128 . S
N274 C275 1.355 . S
N274 C277 1.311 . S
C275 N274 1.355 . S
C275 C276 1.363 . S
C275 H287 0.929 . S
C276 C275 1.363 . S
C276 N278 1.375 . S
C276 H294 0.931 . S
C277 N274 1.311 . S
C277 N278 1.347 . S
C277 H288 0.929 . S
N278 C276 1.375 . S
N278 C277 1.347 . S
C279 C282 1.365 . S
C279 N284 1.328 . S
C279 H285 0.929 . S
C280 C281 1.362 . S
C280 C283 1.378 . S
C280 H295 0.929 . S
C281 C280 1.362 . S
C281 C282 1.366 . S
C282 C279 1.365 . S
C282 C281 1.366 . S
C282 H296 0.930 . S
C283 C280 1.378 . S
C283 N284 1.315 . S
C283 H286 0.930 . S
N284 Co264 2.194 . S
N284 C279 1.328 . S
N284 C283 1.315 . S
H285 C279 0.929 . S
H286 C283 0.930 . S
H287 C275 0.929 . S
H288 C277 0.929 . S
O289 Co264 2.351 . S
O289 C292 1.244 . S
O290 Co264 2.155 . S
O290 C292 1.240 . S
O291 Co264 2.096 . S
O291 C272 1.247 . S
C292 O289 1.244 . S
C292 O290 1.240 . S
H293 C267 0.931 . S
H294 C276 0.931 . S
H295 C280 0.929 . S
H296 C282 0.930 . S
Co297 N301 2.148 . S
Co297 N307 2.128 . S
Co297 N317 2.194 . S
Co297 O322 2.351 . S
Co297 O323 2.155 . S
Co297 O324 2.096 . S
C298 N301 1.301 . S
C298 N302 1.328 . S
C298 H303 0.930 . S
C299 C300 1.333 . S
C299 N301 1.317 . S
C299 H304 0.930 . S
C300 C299 1.333 . S
C300 N302 1.350 . S
C300 H326 0.931 . S
N301 Co297 2.148 . S
N301 C298 1.301 . S
N301 C299 1.317 . S
N302 C298 1.328 . S
N302 C300 1.350 . S
H303 C298 0.930 . S
H304 C299 0.930 . S
C305 O306 1.224 . S
C305 O324 1.247 . S
O306 C305 1.224 . S
N307 Co297 2.128 . S
N307 C308 1.355 . S
N307 C310 1.311 . S
C308 N307 1.355 . S
C308 C309 1.363 . S
C308 H320 0.929 . S
C309 C308 1.363 . S
C309 N311 1.375 . S
C309 H327 0.931 . S
C310 N307 1.311 . S
C310 N311 1.347 . S
C310 H321 0.929 . S
N311 C309 1.375 . S
N311 C310 1.347 . S
C312 C315 1.365 . S
C312 N317 1.328 . S
C312 H318 0.929 . S
C313 C314 1.362 . S
C313 C316 1.378 . S
C313 H328 0.929 . S
C314 C313 1.362 . S
C314 C315 1.366 . S
C315 C312 1.365 . S
C315 C314 1.366 . S
C315 H329 0.930 . S
C316 C313 1.378 . S
C316 N317 1.315 . S
C316 H319 0.930 . S
N317 Co297 2.194 . S
N317 C312 1.328 . S
N317 C316 1.315 . S
H318 C312 0.929 . S
H319 C316 0.930 . S
H320 C308 0.929 . S
H321 C310 0.929 . S
O322 Co297 2.351 . S
O322 C325 1.244 . S
O323 Co297 2.155 . S
O323 C325 1.240 . S
O324 Co297 2.096 . S
O324 C305 1.247 . S
C325 O322 1.244 . S
C325 O323 1.240 . S
H326 C300 0.931 . S
H327 C309 0.931 . S
H328 C313 0.929 . S
H329 C315 0.930 . S
Co330 N334 2.148 . S
Co330 N340 2.128 . S
Co330 N350 2.194 . S
Co330 O355 2.351 . S
Co330 O356 2.155 . S
Co330 O357 2.096 . S
C331 N334 1.301 . S
C331 N335 1.328 . S
C331 H336 0.930 . S
C332 C333 1.333 . S
C332 N334 1.317 . S
C332 H337 0.930 . S
C333 C332 1.333 . S
C333 N335 1.350 . S
C333 H359 0.931 . S
N334 Co330 2.148 . S
N334 C331 1.301 . S
N334 C332 1.317 . S
N335 C331 1.328 . S
N335 C333 1.350 . S
H336 C331 0.930 . S
H337 C332 0.930 . S
C338 O339 1.224 . S
C338 O357 1.247 . S
O339 C338 1.224 . S
N340 Co330 2.128 . S
N340 C341 1.355 . S
N340 C343 1.311 . S
C341 N340 1.355 . S
C341 C342 1.363 . S
C341 H353 0.929 . S
C342 C341 1.363 . S
C342 N344 1.375 . S
C342 H360 0.931 . S
C343 N340 1.311 . S
C343 N344 1.347 . S
C343 H354 0.929 . S
N344 C342 1.375 . S
N344 C343 1.347 . S
C345 C348 1.365 . S
C345 N350 1.328 . S
C345 H351 0.929 . S
C346 C347 1.362 . S
C346 C349 1.378 . S
C346 H361 0.929 . S
C347 C346 1.362 . S
C347 C348 1.366 . S
C348 C345 1.365 . S
C348 C347 1.366 . S
C348 H362 0.930 . S
C349 C346 1.378 . S
C349 N350 1.315 . S
C349 H352 0.930 . S
N350 Co330 2.194 . S
N350 C345 1.328 . S
N350 C349 1.315 . S
H351 C345 0.929 . S
H352 C349 0.930 . S
H353 C341 0.929 . S
H354 C343 0.929 . S
O355 Co330 2.351 . S
O355 C358 1.244 . S
O356 Co330 2.155 . S
O356 C358 1.240 . S
O357 Co330 2.096 . S
O357 C338 1.247 . S
C358 O355 1.244 . S
C358 O356 1.240 . S
H359 C333 0.931 . S
H360 C342 0.931 . S
H361 C346 0.929 . S
H362 C348 0.930 . S
Co363 N367 2.148 . S
Co363 N373 2.128 . S
Co363 N383 2.194 . S
Co363 O388 2.351 . S
Co363 O389 2.155 . S
Co363 O390 2.096 . S
C364 N367 1.301 . S
C364 N368 1.328 . S
C364 H369 0.930 . S
C365 C366 1.333 . S
C365 N367 1.317 . S
C365 H370 0.930 . S
C366 C365 1.333 . S
C366 N368 1.350 . S
C366 H392 0.931 . S
N367 Co363 2.148 . S
N367 C364 1.301 . S
N367 C365 1.317 . S
N368 C364 1.328 . S
N368 C366 1.350 . S
H369 C364 0.930 . S
H370 C365 0.930 . S
C371 O372 1.224 . S
C371 O390 1.247 . S
O372 C371 1.224 . S
N373 Co363 2.128 . S
N373 C374 1.355 . S
N373 C376 1.311 . S
C374 N373 1.355 . S
C374 C375 1.363 . S
C374 H386 0.929 . S
C375 C374 1.363 . S
C375 N377 1.375 . S
C375 H393 0.931 . S
C376 N373 1.311 . S
C376 N377 1.347 . S
C376 H387 0.929 . S
N377 C375 1.375 . S
N377 C376 1.347 . S
C378 C381 1.365 . S
C378 N383 1.328 . S
C378 H384 0.929 . S
C379 C380 1.362 . S
C379 C382 1.378 . S
C379 H394 0.929 . S
C380 C379 1.362 . S
C380 C381 1.366 . S
C381 C378 1.365 . S
C381 C380 1.366 . S
C381 H395 0.930 . S
C382 C379 1.378 . S
C382 N383 1.315 . S
C382 H385 0.930 . S
N383 Co363 2.194 . S
N383 C378 1.328 . S
N383 C382 1.315 . S
H384 C378 0.929 . S
H385 C382 0.930 . S
H386 C374 0.929 . S
H387 C376 0.929 . S
O388 Co363 2.351 . S
O388 C391 1.244 . S
O389 Co363 2.155 . S
O389 C391 1.240 . S
O390 Co363 2.096 . S
O390 C371 1.247 . S
C391 O388 1.244 . S
C391 O389 1.240 . S
H392 C366 0.931 . S
H393 C375 0.931 . S
H394 C379 0.929 . S
H395 C381 0.930 . S
Co396 N400 2.148 . S
Co396 N406 2.128 . S
Co396 N416 2.194 . S
Co396 O421 2.351 . S
Co396 O422 2.155 . S
Co396 O423 2.096 . S
C397 N400 1.301 . S
C397 N401 1.328 . S
C397 H402 0.930 . S
C398 C399 1.333 . S
C398 N400 1.317 . S
C398 H403 0.930 . S
C399 C398 1.333 . S
C399 N401 1.350 . S
C399 H425 0.931 . S
N400 Co396 2.148 . S
N400 C397 1.301 . S
N400 C398 1.317 . S
N401 C397 1.328 . S
N401 C399 1.350 . S
H402 C397 0.930 . S
H403 C398 0.930 . S
C404 O405 1.224 . S
C404 O423 1.247 . S
O405 C404 1.224 . S
N406 Co396 2.128 . S
N406 C407 1.355 . S
N406 C409 1.311 . S
C407 N406 1.355 . S
C407 C408 1.363 . S
C407 H419 0.929 . S
C408 C407 1.363 . S
C408 N410 1.375 . S
C408 H426 0.931 . S
C409 N406 1.311 . S
C409 N410 1.347 . S
C409 H420 0.929 . S
N410 C408 1.375 . S
N410 C409 1.347 . S
C411 C414 1.365 . S
C411 N416 1.328 . S
C411 H417 0.929 . S
C412 C413 1.362 . S
C412 C415 1.378 . S
C412 H427 0.929 . S
C413 C412 1.362 . S
C413 C414 1.366 . S
C414 C411 1.365 . S
C414 C413 1.366 . S
C414 H428 0.930 . S
C415 C412 1.378 . S
C415 N416 1.315 . S
C415 H418 0.930 . S
N416 Co396 2.194 . S
N416 C411 1.328 . S
N416 C415 1.315 . S
H417 C411 0.929 . S
H418 C415 0.930 . S
H419 C407 0.929 . S
H420 C409 0.929 . S
O421 Co396 2.351 . S
O421 C424 1.244 . S
O422 Co396 2.155 . S
O422 C424 1.240 . S
O423 Co396 2.096 . S
O423 C404 1.247 . S
C424 O421 1.244 . S
C424 O422 1.240 . S
H425 C399 0.931 . S
H426 C408 0.931 . S
H427 C412 0.929 . S
H428 C414 0.930 . S
Co429 N433 2.148 . S
Co429 N439 2.128 . S
Co429 N449 2.194 . S
Co429 O454 2.351 . S
Co429 O455 2.155 . S
Co429 O456 2.096 . S
C430 N433 1.301 . S
C430 N434 1.328 . S
C430 H435 0.930 . S
C431 C432 1.333 . S
C431 N433 1.317 . S
C431 H436 0.930 . S
C432 C431 1.333 . S
C432 N434 1.350 . S
C432 H458 0.931 . S
N433 Co429 2.148 . S
N433 C430 1.301 . S
N433 C431 1.317 . S
N434 C430 1.328 . S
N434 C432 1.350 . S
H435 C430 0.930 . S
H436 C431 0.930 . S
C437 O438 1.224 . S
C437 O456 1.247 . S
O438 C437 1.224 . S
N439 Co429 2.128 . S
N439 C440 1.355 . S
N439 C442 1.311 . S
C440 N439 1.355 . S
C440 C441 1.363 . S
C440 H452 0.929 . S
C441 C440 1.363 . S
C441 N443 1.375 . S
C441 H459 0.931 . S
C442 N439 1.311 . S
C442 N443 1.347 . S
C442 H453 0.929 . S
N443 C441 1.375 . S
N443 C442 1.347 . S
C444 C447 1.365 . S
C444 N449 1.328 . S
C444 H450 0.929 . S
C445 C446 1.362 . S
C445 C448 1.378 . S
C445 H460 0.929 . S
C446 C445 1.362 . S
C446 C447 1.366 . S
C447 C444 1.365 . S
C447 C446 1.366 . S
C447 H461 0.930 . S
C448 C445 1.378 . S
C448 N449 1.315 . S
C448 H451 0.930 . S
N449 Co429 2.194 . S
N449 C444 1.328 . S
N449 C448 1.315 . S
H450 C444 0.929 . S
H451 C448 0.930 . S
H452 C440 0.929 . S
H453 C442 0.929 . S
O454 Co429 2.351 . S
O454 C457 1.244 . S
O455 Co429 2.155 . S
O455 C457 1.240 . S
O456 Co429 2.096 . S
O456 C437 1.247 . S
C457 O454 1.244 . S
C457 O455 1.240 . S
H458 C432 0.931 . S
H459 C441 0.931 . S
H460 C445 0.929 . S
H461 C447 0.930 . S
Co462 N466 2.148 . S
Co462 N472 2.128 . S
Co462 N482 2.194 . S
Co462 O487 2.351 . S
Co462 O488 2.155 . S
Co462 O489 2.096 . S
C463 N466 1.301 . S
C463 N467 1.328 . S
C463 H468 0.930 . S
C464 C465 1.333 . S
C464 N466 1.317 . S
C464 H469 0.930 . S
C465 C464 1.333 . S
C465 N467 1.350 . S
C465 H491 0.931 . S
N466 Co462 2.148 . S
N466 C463 1.301 . S
N466 C464 1.317 . S
N467 C463 1.328 . S
N467 C465 1.350 . S
H468 C463 0.930 . S
H469 C464 0.930 . S
C470 O471 1.224 . S
C470 O489 1.247 . S
O471 C470 1.224 . S
N472 Co462 2.128 . S
N472 C473 1.355 . S
N472 C475 1.311 . S
C473 N472 1.355 . S
C473 C474 1.363 . S
C473 H485 0.929 . S
C474 C473 1.363 . S
C474 N476 1.375 . S
C474 H492 0.931 . S
C475 N472 1.311 . S
C475 N476 1.347 . S
C475 H486 0.929 . S
N476 C474 1.375 . S
N476 C475 1.347 . S
C477 C480 1.365 . S
C477 N482 1.328 . S
C477 H483 0.929 . S
C478 C479 1.362 . S
C478 C481 1.378 . S
C478 H493 0.929 . S
C479 C478 1.362 . S
C479 C480 1.366 . S
C480 C477 1.365 . S
C480 C479 1.366 . S
C480 H494 0.930 . S
C481 C478 1.378 . S
C481 N482 1.315 . S
C481 H484 0.930 . S
N482 Co462 2.194 . S
N482 C477 1.328 . S
N482 C481 1.315 . S
H483 C477 0.929 . S
H484 C481 0.930 . S
H485 C473 0.929 . S
H486 C475 0.929 . S
O487 Co462 2.351 . S
O487 C490 1.244 . S
O488 Co462 2.155 . S
O488 C490 1.240 . S
O489 Co462 2.096 . S
O489 C470 1.247 . S
C490 O487 1.244 . S
C490 O488 1.240 . S
H491 C465 0.931 . S
H492 C474 0.931 . S
H493 C478 0.929 . S
H494 C480 0.930 . S
Co495 N499 2.148 . S
Co495 N505 2.128 . S
Co495 N515 2.194 . S
Co495 O520 2.351 . S
Co495 O521 2.155 . S
Co495 O522 2.096 . S
C496 N499 1.301 . S
C496 N500 1.328 . S
C496 H501 0.930 . S
C497 C498 1.333 . S
C497 N499 1.317 . S
C497 H502 0.930 . S
C498 C497 1.333 . S
C498 N500 1.350 . S
C498 H524 0.931 . S
N499 Co495 2.148 . S
N499 C496 1.301 . S
N499 C497 1.317 . S
N500 C496 1.328 . S
N500 C498 1.350 . S
H501 C496 0.930 . S
H502 C497 0.930 . S
C503 O504 1.224 . S
C503 O522 1.247 . S
O504 C503 1.224 . S
N505 Co495 2.128 . S
N505 C506 1.355 . S
N505 C508 1.311 . S
C506 N505 1.355 . S
C506 C507 1.363 . S
C506 H518 0.929 . S
C507 C506 1.363 . S
C507 N509 1.375 . S
C507 H525 0.931 . S
C508 N505 1.311 . S
C508 N509 1.347 . S
C508 H519 0.929 . S
N509 C507 1.375 . S
N509 C508 1.347 . S
C510 C513 1.365 . S
C510 N515 1.328 . S
C510 H516 0.929 . S
C511 C512 1.362 . S
C511 C514 1.378 . S
C511 H526 0.929 . S
C512 C511 1.362 . S
C512 C513 1.366 . S
C513 C510 1.365 . S
C513 C512 1.366 . S
C513 H527 0.930 . S
C514 C511 1.378 . S
C514 N515 1.315 . S
C514 H517 0.930 . S
N515 Co495 2.194 . S
N515 C510 1.328 . S
N515 C514 1.315 . S
H516 C510 0.929 . S
H517 C514 0.930 . S
H518 C506 0.929 . S
H519 C508 0.929 . S
O520 Co495 2.351 . S
O520 C523 1.244 . S
O521 Co495 2.155 . S
O521 C523 1.240 . S
O522 Co495 2.096 . S
O522 C503 1.247 . S
C523 O520 1.244 . S
C523 O521 1.240 . S
H524 C498 0.931 . S
H525 C507 0.931 . S
H526 C511 0.929 . S
H527 C513 0.930 . S
Co528 N532 2.148 . S
Co528 N538 2.128 . S
Co528 N548 2.194 . S
Co528 O553 2.351 . S
Co528 O554 2.155 . S
Co528 O555 2.096 . S
C529 N532 1.301 . S
C529 N533 1.328 . S
C529 H534 0.930 . S
C530 C531 1.333 . S
C530 N532 1.317 . S
C530 H535 0.930 . S
C531 C530 1.333 . S
C531 N533 1.350 . S
C531 H557 0.931 . S
N532 Co528 2.148 . S
N532 C529 1.301 . S
N532 C530 1.317 . S
N533 C529 1.328 . S
N533 C531 1.350 . S
H534 C529 0.930 . S
H535 C530 0.930 . S
C536 O537 1.224 . S
C536 O555 1.247 . S
O537 C536 1.224 . S
N538 Co528 2.128 . S
N538 C539 1.355 . S
N538 C541 1.311 . S
C539 N538 1.355 . S
C539 C540 1.363 . S
C539 H551 0.929 . S
C540 C539 1.363 . S
C540 N542 1.375 . S
C540 H558 0.931 . S
C541 N538 1.311 . S
C541 N542 1.347 . S
C541 H552 0.929 . S
N542 C540 1.375 . S
N542 C541 1.347 . S
C543 C546 1.365 . S
C543 N548 1.328 . S
C543 H549 0.929 . S
C544 C545 1.362 . S
C544 C547 1.378 . S
C544 H559 0.929 . S
C545 C544 1.362 . S
C545 C546 1.366 . S
C546 C543 1.365 . S
C546 C545 1.366 . S
C546 H560 0.930 . S
C547 C544 1.378 . S
C547 N548 1.315 . S
C547 H550 0.930 . S
N548 Co528 2.194 . S
N548 C543 1.328 . S
N548 C547 1.315 . S
H549 C543 0.929 . S
H550 C547 0.930 . S
H551 C539 0.929 . S
H552 C541 0.929 . S
O553 Co528 2.351 . S
O553 C556 1.244 . S
O554 Co528 2.155 . S
O554 C556 1.240 . S
O555 Co528 2.096 . S
O555 C536 1.247 . S
C556 O553 1.244 . S
C556 O554 1.240 . S
H557 C531 0.931 . S
H558 C540 0.931 . S
H559 C544 0.929 . S
H560 C546 0.930 . S
Co561 N565 2.148 . S
Co561 N571 2.128 . S
Co561 N581 2.194 . S
Co561 O586 2.351 . S
Co561 O587 2.155 . S
Co561 O588 2.096 . S
C562 N565 1.301 . S
C562 N566 1.328 . S
C562 H567 0.930 . S
C563 C564 1.333 . S
C563 N565 1.317 . S
C563 H568 0.930 . S
C564 C563 1.333 . S
C564 N566 1.350 . S
C564 H590 0.931 . S
N565 Co561 2.148 . S
N565 C562 1.301 . S
N565 C563 1.317 . S
N566 C562 1.328 . S
N566 C564 1.350 . S
H567 C562 0.930 . S
H568 C563 0.930 . S
C569 O570 1.224 . S
C569 O588 1.247 . S
O570 C569 1.224 . S
N571 Co561 2.128 . S
N571 C572 1.355 . S
N571 C574 1.311 . S
C572 N571 1.355 . S
C572 C573 1.363 . S
C572 H584 0.929 . S
C573 C572 1.363 . S
C573 N575 1.375 . S
C573 H591 0.931 . S
C574 N571 1.311 . S
C574 N575 1.347 . S
C574 H585 0.929 . S
N575 C573 1.375 . S
N575 C574 1.347 . S
C576 C579 1.365 . S
C576 N581 1.328 . S
C576 H582 0.929 . S
C577 C578 1.362 . S
C577 C580 1.378 . S
C577 H592 0.929 . S
C578 C577 1.362 . S
C578 C579 1.366 . S
C579 C576 1.365 . S
C579 C578 1.366 . S
C579 H593 0.930 . S
C580 C577 1.378 . S
C580 N581 1.315 . S
C580 H583 0.930 . S
N581 Co561 2.194 . S
N581 C576 1.328 . S
N581 C580 1.315 . S
H582 C576 0.929 . S
H583 C580 0.930 . S
H584 C572 0.929 . S
H585 C574 0.929 . S
O586 Co561 2.351 . S
O586 C589 1.244 . S
O587 Co561 2.155 . S
O587 C589 1.240 . S
O588 Co561 2.096 . S
O588 C569 1.247 . S
C589 O586 1.244 . S
C589 O587 1.240 . S
H590 C564 0.931 . S
H591 C573 0.931 . S
H592 C577 0.929 . S
H593 C579 0.930 . S
H594 C600 0.930 . S
H595 C603 0.930 . S
H596 C604 0.930 . S
H597 C605 0.930 . S
H598 C608 0.930 . S
H599 C609 0.930 . S
C600 H594 0.930 . S
C600 C601 1.355 . S
C600 C602 1.415 . S
C601 C600 1.355 . S
C601 C603 1.419 . S
C602 C600 1.415 . S
C602 C607 1.425 . S
C602 C609 1.409 . S
C603 H595 0.930 . S
C603 C601 1.419 . S
C603 C604 1.362 . S
C604 H596 0.930 . S
C604 C603 1.362 . S
C604 C607 1.409 . S
C605 H597 0.930 . S
C605 C606 1.355 . S
C605 C607 1.415 . S
C606 C605 1.355 . S
C606 C608 1.419 . S
C607 C602 1.425 . S
C607 C604 1.409 . S
C607 C605 1.415 . S
C608 H598 0.930 . S
C608 C606 1.419 . S
C608 C609 1.362 . S
C609 H599 0.930 . S
C609 C602 1.409 . S
C609 C608 1.362 . S
H610 C616 0.930 . S
H611 C619 0.930 . S
H612 C620 0.930 . S
H613 C621 0.930 . S
H614 C624 0.930 . S
H615 C625 0.930 . S
C616 H610 0.930 . S
C616 C617 1.355 . S
C616 C618 1.415 . S
C617 C616 1.355 . S
C617 C619 1.419 . S
C618 C616 1.415 . S
C618 C623 1.425 . S
C618 C625 1.409 . S
C619 H611 0.930 . S
C619 C617 1.419 . S
C619 C620 1.362 . S
C620 H612 0.930 . S
C620 C619 1.362 . S
C620 C623 1.409 . S
C621 H613 0.930 . S
C621 C622 1.355 . S
C621 C623 1.415 . S
C622 C621 1.355 . S
C622 C624 1.419 . S
C623 C618 1.425 . S
C623 C620 1.409 . S
C623 C621 1.415 . S
C624 H614 0.930 . S
C624 C622 1.419 . S
C624 C625 1.362 . S
C625 H615 0.930 . S
C625 C618 1.409 . S
C625 C624 1.362 . S
H626 C632 0.930 . S
H627 C635 0.930 . S
H628 C636 0.930 . S
H629 C637 0.930 . S
H630 C640 0.930 . S
H631 C641 0.930 . S
C632 H626 0.930 . S
C632 C633 1.355 . S
C632 C634 1.415 . S
C633 C632 1.355 . S
C633 C635 1.419 . S
C634 C632 1.415 . S
C634 C639 1.425 . S
C634 C641 1.409 . S
C635 H627 0.930 . S
C635 C633 1.419 . S
C635 C636 1.362 . S
C636 H628 0.930 . S
C636 C635 1.362 . S
C636 C639 1.409 . S
C637 H629 0.930 . S
C637 C638 1.355 . S
C637 C639 1.415 . S
C638 C637 1.355 . S
C638 C640 1.419 . S
C639 C634 1.425 . S
C639 C636 1.409 . S
C639 C637 1.415 . S
C640 H630 0.930 . S
C640 C638 1.419 . S
C640 C641 1.362 . S
C641 H631 0.930 . S
C641 C634 1.409 . S
C641 C640 1.362 . S
H642 C648 0.930 . S
H643 C651 0.930 . S
H644 C652 0.930 . S
H645 C653 0.930 . S
H646 C656 0.930 . S
H647 C657 0.930 . S
C648 H642 0.930 . S
C648 C649 1.355 . S
C648 C650 1.415 . S
C649 C648 1.355 . S
C649 C651 1.419 . S
C650 C648 1.415 . S
C650 C655 1.425 . S
C650 C657 1.409 . S
C651 H643 0.930 . S
C651 C649 1.419 . S
C651 C652 1.362 . S
C652 H644 0.930 . S
C652 C651 1.362 . S
C652 C655 1.409 . S
C653 H645 0.930 . S
C653 C654 1.355 . S
C653 C655 1.415 . S
C654 C653 1.355 . S
C654 C656 1.419 . S
C655 C650 1.425 . S
C655 C652 1.409 . S
C655 C653 1.415 . S
C656 H646 0.930 . S
C656 C654 1.419 . S
C656 C657 1.362 . S
C657 H647 0.930 . S
C657 C650 1.409 . S
C657 C656 1.362 . S
H658 C664 0.930 . S
H659 C667 0.930 . S
H660 C668 0.930 . S
H661 C669 0.930 . S
H662 C672 0.949 . S
H663 C673 0.930 . S
C664 H658 0.930 . S
C664 C665 1.355 . S
C664 C666 1.415 . S
C665 C664 1.355 . S
C665 C667 1.419 . S
C666 C664 1.415 . S
C666 C671 1.425 . S
C666 C673 1.409 . S
C667 H659 0.930 . S
C667 C665 1.419 . S
C667 C668 1.362 . S
C668 H660 0.930 . S
C668 C667 1.362 . S
C668 C671 1.409 . S
C669 H661 0.930 . S
C669 C670 1.355 . S
C669 C671 1.415 . S
C670 C669 1.355 . S
C670 C672 1.419 . S
C671 C666 1.425 . S
C671 C668 1.409 . S
C671 C669 1.415 . S
C672 H662 0.949 . S
C672 C670 1.419 . S
C672 C673 1.362 . S
C673 H663 0.930 . S
C673 C666 1.409 . S
C673 C672 1.362 . S
H674 C680 0.930 . S
H675 C683 0.930 . S
H676 C684 0.930 . S
H677 C685 0.930 . S
H678 C688 0.930 . S
H679 C689 0.930 . S
C680 H674 0.930 . S
C680 C681 1.355 . S
C680 C682 1.415 . S
C681 C680 1.355 . S
C681 C683 1.419 . S
C682 C680 1.415 . S
C682 C687 1.425 . S
C682 C689 1.409 . S
C683 H675 0.930 . S
C683 C681 1.419 . S
C683 C684 1.362 . S
C684 H676 0.930 . S
C684 C683 1.362 . S
C684 C687 1.409 . S
C685 H677 0.930 . S
C685 C686 1.355 . S
C685 C687 1.415 . S
C686 C685 1.355 . S
C686 C688 1.419 . S
C687 C682 1.425 . S
C687 C684 1.409 . S
C687 C685 1.415 . S
C688 H678 0.930 . S
C688 C686 1.419 . S
C688 C689 1.362 . S
C689 H679 0.930 . S
C689 C682 1.409 . S
C689 C688 1.362 . S
H690 C696 0.930 . S
H691 C699 0.930 . S
H692 C700 0.930 . S
H693 C701 0.930 . S
H694 C704 0.930 . S
H695 C705 0.930 . S
C696 H690 0.930 . S
C696 C697 1.355 . S
C696 C698 1.415 . S
C697 C696 1.355 . S
C697 C699 1.419 . S
C698 C696 1.415 . S
C698 C703 1.425 . S
C698 C705 1.409 . S
C699 H691 0.930 . S
C699 C697 1.419 . S
C699 C700 1.362 . S
C700 H692 0.930 . S
C700 C699 1.362 . S
C700 C703 1.409 . S
C701 H693 0.930 . S
C701 C702 1.355 . S
C701 C703 1.415 . S
C702 C701 1.355 . S
C702 C704 1.419 . S
C703 C698 1.425 . S
C703 C700 1.409 . S
C703 C701 1.415 . S
C704 H694 0.930 . S
C704 C702 1.419 . S
C704 C705 1.362 . S
C705 H695 0.930 . S
C705 C698 1.409 . S
C705 C704 1.362 . S
H706 C712 0.930 . S
H707 C715 0.930 . S
H708 C716 0.930 . S
H709 C717 0.930 . S
H710 C720 0.930 . S
H711 C721 0.930 . S
C712 H706 0.930 . S
C712 C713 1.355 . S
C712 C714 1.415 1_565 S
C713 C712 1.355 . S
C713 C715 1.419 . S
C714 C712 1.415 1_545 S
C714 C719 1.425 1_545 S
C714 C721 1.409 . S
C715 H707 0.930 . S
C715 C713 1.419 . S
C715 C716 1.362 . S
C716 H708 0.930 . S
C716 C715 1.362 . S
C716 C719 1.409 . S
C717 H709 0.930 . S
C717 C718 1.355 . S
C717 C719 1.415 1_545 S
C718 C717 1.355 . S
C718 C720 1.419 . S
C719 C714 1.425 1_565 S
C719 C716 1.409 . S
C719 C717 1.415 1_565 S
C720 H710 0.930 . S
C720 C718 1.419 . S
C720 C721 1.362 . S
C721 H711 0.930 . S
C721 C714 1.409 . S
C721 C720 1.362 . S
H722 C728 0.930 . S
H723 C731 0.930 . S
H724 C732 0.930 . S
H725 C733 0.930 . S
H726 C736 0.930 . S
H727 C737 0.930 . S
C728 H722 0.930 . S
C728 C729 1.355 . S
C728 C730 1.421 . S
C729 C728 1.355 . S
C729 C731 1.419 . S
C730 C728 1.421 . S
C730 C735 1.437 1_455 S
C730 C737 1.397 1_455 S
C731 H723 0.930 . S
C731 C729 1.419 . S
C731 C732 1.362 . S
C732 H724 0.930 . S
C732 C731 1.362 . S
C732 C735 1.397 1_455 S
C733 H725 0.930 . S
C733 C734 1.355 . S
C733 C735 1.421 . S
C734 C733 1.355 . S
C734 C736 1.419 . S
C735 C730 1.437 1_655 S
C735 C732 1.397 1_655 S
C735 C733 1.421 . S
C736 H726 0.930 . S
C736 C734 1.419 . S
C736 C737 1.362 . S
C737 H727 0.930 . S
C737 C730 1.397 1_655 S
C737 C736 1.362 . S
H738 C744 0.930 . S
H739 C747 0.930 . S
H740 C748 0.930 . S
H741 C749 0.930 . S
H742 C752 0.930 . S
H743 C753 0.930 . S
C744 H738 0.930 . S
C744 C745 1.355 . S
C744 C746 1.415 . S
C745 C744 1.355 . S
C745 C747 1.419 . S
C746 C744 1.415 . S
C746 C751 1.425 . S
C746 C753 1.409 . S
C747 H739 0.930 . S
C747 C745 1.419 . S
C747 C748 1.362 . S
C748 H740 0.930 . S
C748 C747 1.362 . S
C748 C751 1.409 . S
C749 H741 0.930 . S
C749 C750 1.355 . S
C749 C751 1.415 . S
C750 C749 1.355 . S
C750 C752 1.419 . S
C751 C746 1.425 . S
C751 C748 1.409 . S
C751 C749 1.415 . S
C752 H742 0.930 . S
C752 C750 1.419 . S
C752 C753 1.362 . S
C753 H743 0.930 . S
C753 C746 1.409 . S
C753 C752 1.362 . S
H754 C760 0.930 . S
H755 C763 0.930 . S
H756 C764 0.930 . S
H757 C765 0.930 . S
H758 C768 0.930 . S
H759 C769 0.930 . S
C760 H754 0.930 . S
C760 C761 1.355 . S
C760 C762 1.415 . S
C761 C760 1.355 . S
C761 C763 1.419 . S
C762 C760 1.415 . S
C762 C767 1.425 . S
C762 C769 1.409 . S
C763 H755 0.930 . S
C763 C761 1.419 . S
C763 C764 1.362 . S
C764 H756 0.930 . S
C764 C763 1.362 . S
C764 C767 1.409 . S
C765 H757 0.930 . S
C765 C766 1.355 . S
C765 C767 1.415 . S
C766 C765 1.355 . S
C766 C768 1.419 . S
C767 C762 1.425 . S
C767 C764 1.409 . S
C767 C765 1.415 . S
C768 H758 0.930 . S
C768 C766 1.419 . S
C768 C769 1.362 . S
C769 H759 0.930 . S
C769 C762 1.409 . S
C769 C768 1.362 . S
H770 C776 0.930 . S
H771 C779 0.930 . S
H772 C780 0.930 . S
H773 C781 0.930 . S
H774 C784 0.930 . S
H775 C785 0.930 . S
C776 H770 0.930 . S
C776 C777 1.355 . S
C776 C778 1.415 . S
C777 C776 1.355 . S
C777 C779 1.419 . S
C778 C776 1.415 . S
C778 C783 1.425 . S
C778 C785 1.409 . S
C779 H771 0.930 . S
C779 C777 1.419 . S
C779 C780 1.362 . S
C780 H772 0.930 . S
C780 C779 1.362 . S
C780 C783 1.409 . S
C781 H773 0.930 . S
C781 C782 1.355 . S
C781 C783 1.415 . S
C782 C781 1.355 . S
C782 C784 1.419 . S
C783 C778 1.425 . S
C783 C780 1.409 . S
C783 C781 1.415 . S
C784 H774 0.930 . S
C784 C782 1.419 . S
C784 C785 1.362 . S
C785 H775 0.930 . S
C785 C778 1.409 . S
C785 C784 1.362 . S
H786 C792 0.930 . S
H787 C795 0.930 . S
H788 C796 0.930 . S
H789 C797 0.930 . S
H790 C800 0.930 . S
H791 C801 0.930 . S
C792 H786 0.930 . S
C792 C793 1.355 . S
C792 C794 1.415 . S
C793 C792 1.355 . S
C793 C795 1.419 . S
C794 C792 1.415 . S
C794 C799 1.425 . S
C794 C801 1.409 . S
C795 H787 0.930 . S
C795 C793 1.419 . S
C795 C796 1.362 . S
C796 H788 0.930 . S
C796 C795 1.362 . S
C796 C799 1.409 . S
C797 H789 0.930 . S
C797 C798 1.355 . S
C797 C799 1.415 . S
C798 C797 1.355 . S
C798 C800 1.419 . S
C799 C794 1.425 . S
C799 C796 1.409 . S
C799 C797 1.415 . S
C800 H790 0.930 . S
C800 C798 1.419 . S
C800 C801 1.362 . S
C801 H791 0.930 . S
C801 C794 1.409 . S
C801 C800 1.362 . S
H802 C808 0.930 . S
H803 C811 0.930 . S
H804 C812 0.930 . S
H805 C813 0.930 . S
H806 C816 0.930 . S
H807 C817 0.930 . S
C808 H802 0.930 . S
C808 C809 1.355 . S
C808 C810 1.415 . S
C809 C808 1.355 . S
C809 C811 1.419 . S
C810 C808 1.415 . S
C810 C815 1.425 . S
C810 C817 1.409 . S
C811 H803 0.930 . S
C811 C809 1.419 . S
C811 C812 1.362 . S
C812 H804 0.930 . S
C812 C811 1.362 . S
C812 C815 1.409 . S
C813 H805 0.930 . S
C813 C814 1.355 . S
C813 C815 1.415 . S
C814 C813 1.355 . S
C814 C816 1.419 . S
C815 C810 1.425 . S
C815 C812 1.409 . S
C815 C813 1.415 . S
C816 H806 0.930 . S
C816 C814 1.419 . S
C816 C817 1.362 . S
C817 H807 0.930 . S
C817 C810 1.409 . S
C817 C816 1.362 . S
H818 C824 0.930 . S
H819 C827 0.930 . S
H820 C828 0.930 . S
H821 C829 0.930 . S
H822 C832 0.930 . S
H823 C833 0.930 . S
C824 H818 0.930 . S
C824 C825 1.355 . S
C824 C826 1.415 . S
C825 C824 1.355 . S
C825 C827 1.419 . S
C826 C824 1.415 . S
C826 C831 1.425 . S
C826 C833 1.409 . S
C827 H819 0.930 . S
C827 C825 1.419 . S
C827 C828 1.362 . S
C828 H820 0.930 . S
C828 C827 1.362 . S
C828 C831 1.409 . S
C829 H821 0.930 . S
C829 C830 1.355 . S
C829 C831 1.415 . S
C830 C829 1.355 . S
C830 C832 1.419 . S
C831 C826 1.425 . S
C831 C828 1.409 . S
C831 C829 1.415 . S
C832 H822 0.930 . S
C832 C830 1.419 . S
C832 C833 1.362 . S
C833 H823 0.930 . S
C833 C826 1.409 . S
C833 C832 1.362 . S
H834 C840 0.930 . S
H835 C843 0.930 . S
H836 C844 0.930 1_556 S
H837 C845 0.930 . S
H838 C848 0.930 . S
H839 C849 0.930 1_554 S
C840 H834 0.930 . S
C840 C841 1.355 . S
C840 C842 1.415 . S
C841 C840 1.355 . S
C841 C843 1.419 . S
C842 C840 1.415 . S
C842 C847 1.425 1_654 S
C842 C849 1.409 1_654 S
C843 H835 0.930 . S
C843 C841 1.419 . S
C843 C844 1.362 . S
C844 H836 0.930 1_554 S
C844 C843 1.362 . S
C844 C847 1.409 1_654 S
C845 H837 0.930 . S
C845 C846 1.355 . S
C845 C847 1.415 . S
C846 C845 1.355 . S
C846 C848 1.419 . S
C847 C842 1.425 1_456 S
C847 C844 1.409 1_456 S
C847 C845 1.415 . S
C848 H838 0.930 . S
C848 C846 1.419 . S
C848 C849 1.362 . S
C849 H839 0.930 1_556 S
C849 C842 1.409 1_456 S
C849 C848 1.362 . S
H850 C856 0.930 . S
H851 C859 0.930 . S
H852 C860 0.930 . S
H853 C861 0.930 . S
H854 C864 0.930 . S
H855 C865 0.930 . S
C856 H850 0.930 . S
C856 C857 1.355 . S
C856 C858 1.415 . S
C857 C856 1.355 . S
C857 C859 1.419 1_556 S
C858 C856 1.415 . S
C858 C863 1.425 1_556 S
C858 C865 1.409 . S
C859 H851 0.930 . S
C859 C857 1.419 1_554 S
C859 C860 1.362 . S
C860 H852 0.930 . S
C860 C859 1.362 . S
C860 C863 1.409 . S
C861 H853 0.930 . S
C861 C862 1.355 . S
C861 C863 1.415 . S
C862 C861 1.355 . S
C862 C864 1.419 1_554 S
C863 C858 1.425 1_554 S
C863 C860 1.409 . S
C863 C861 1.415 . S
C864 H854 0.930 . S
C864 C862 1.419 1_556 S
C864 C865 1.362 . S
C865 H855 0.930 . S
C865 C858 1.409 . S
C865 C864 1.362 . S
H866 C872 0.930 . S
H867 C875 0.930 . S
H868 C876 0.930 1_556 S
H869 C877 0.930 . S
H870 C880 0.930 . S
H871 C881 0.930 1_554 S
C872 H866 0.930 . S
C872 C873 1.355 . S
C872 C874 1.415 . S
C873 C872 1.355 . S
C873 C875 1.419 . S
C874 C872 1.415 . S
C874 C879 1.425 1_544 S
C874 C881 1.409 1_544 S
C875 H867 0.930 . S
C875 C873 1.419 . S
C875 C876 1.362 . S
C876 H868 0.930 1_554 S
C876 C875 1.362 . S
C876 C879 1.409 1_544 S
C877 H869 0.930 . S
C877 C878 1.355 . S
C877 C879 1.415 . S
C878 C877 1.355 . S
C878 C880 1.419 . S
C879 C874 1.425 1_566 S
C879 C876 1.409 1_566 S
C879 C877 1.415 . S
C880 H870 0.930 . S
C880 C878 1.419 . S
C880 C881 1.362 . S
C881 H871 0.930 1_556 S
C881 C874 1.409 1_566 S
C881 C880 1.362 . S
H882 C888 0.930 1_655 S
H883 C891 0.930 . S
H884 C892 0.930 . S
H885 C893 0.930 1_455 S
H886 C896 0.930 . S
H887 C897 0.930 . S
C888 H882 0.930 1_455 S
C888 C889 1.355 . S
C888 C890 1.415 1_455 S
C889 C888 1.355 . S
C889 C891 1.419 . S
C890 C888 1.415 1_655 S
C890 C895 1.425 1_654 S
C890 C897 1.409 . S
C891 H883 0.930 . S
C891 C889 1.419 . S
C891 C892 1.362 1_554 S
C892 H884 0.930 . S
C892 C891 1.362 1_556 S
C892 C895 1.409 . S
C893 H885 0.930 1_655 S
C893 C894 1.355 . S
C893 C895 1.415 1_655 S
C894 C893 1.355 . S
C894 C896 1.419 . S
C895 C890 1.425 1_456 S
C895 C892 1.409 . S
C895 C893 1.415 1_455 S
C896 H886 0.930 . S
C896 C894 1.419 . S
C896 C897 1.362 1_556 S
C897 H887 0.930 . S
C897 C890 1.409 . S
C897 C896 1.362 1_554 S
H898 C904 0.930 . S
H899 C907 0.930 . S
H900 C908 0.930 . S
H901 C909 0.930 . S
H902 C912 0.930 . S
H903 C913 0.930 . S
C904 H898 0.930 . S
C904 C905 1.355 . S
C904 C906 1.403 1_556 S
C905 C904 1.355 . S
C905 C907 1.419 . S
C906 C904 1.403 1_554 S
C906 C911 1.425 1_554 S
C906 C913 1.421 . S
C907 H899 0.930 . S
C907 C905 1.419 . S
C907 C908 1.362 . S
C908 H900 0.930 . S
C908 C907 1.362 . S
C908 C911 1.421 . S
C909 H901 0.930 . S
C909 C910 1.355 . S
C909 C911 1.403 1_554 S
C910 C909 1.355 . S
C910 C912 1.419 . S
C911 C906 1.425 1_556 S
C911 C908 1.421 . S
C911 C909 1.403 1_556 S
C912 H902 0.930 . S
C912 C910 1.419 . S
C912 C913 1.362 . S
C913 H903 0.930 . S
C913 C906 1.421 . S
C913 C912 1.362 . S
H914 C920 0.930 . S
H915 C923 0.930 . S
H916 C924 0.930 . S
H917 C925 0.930 . S
H918 C928 0.930 . S
H919 C929 0.930 . S
C920 H914 0.930 . S
C920 C921 1.355 . S
C920 C922 1.415 . S
C921 C920 1.355 . S
C921 C923 1.419 . S
C922 C920 1.415 . S
C922 C927 1.425 1_546 S
C922 C929 1.409 1_556 S
C923 H915 0.930 . S
C923 C921 1.419 . S
C923 C924 1.362 1_545 S
C924 H916 0.930 . S
C924 C923 1.362 1_565 S
C924 C927 1.409 1_556 S
C925 H917 0.930 . S
C925 C926 1.355 . S
C925 C927 1.415 . S
C926 C925 1.355 . S
C926 C928 1.419 . S
C927 C922 1.425 1_564 S
C927 C924 1.409 1_554 S
C927 C925 1.415 . S
C928 H918 0.930 . S
C928 C926 1.419 . S
C928 C929 1.362 1_565 S
C929 H919 0.930 . S
C929 C922 1.409 1_554 S
C929 C928 1.362 1_545 S
H930 C936 0.930 . S
H931 C939 0.930 . S
H932 C940 0.930 . S
H933 C941 0.930 . S
H934 C944 0.930 . S
H935 C945 0.930 . S
C936 H930 0.930 . S
C936 C937 1.355 . S
C936 C938 1.415 . S
C937 C936 1.355 . S
C937 C939 1.419 . S
C938 C936 1.415 . S
C938 C943 1.425 . S
C938 C945 1.409 . S
C939 H931 0.930 . S
C939 C937 1.419 . S
C939 C940 1.362 . S
C940 H932 0.930 . S
C940 C939 1.362 . S
C940 C943 1.409 . S
C941 H933 0.930 . S
C941 C942 1.355 . S
C941 C943 1.415 . S
C942 C941 1.355 . S
C942 C944 1.419 . S
C943 C938 1.425 . S
C943 C940 1.409 . S
C943 C941 1.415 . S
C944 H934 0.930 . S
C944 C942 1.419 . S
C944 C945 1.362 . S
C945 H935 0.930 . S
C945 C938 1.409 . S
C945 C944 1.362 . S
H946 C952 0.930 . S
H947 C955 0.930 . S
H948 C956 0.930 . S
H949 C957 0.930 . S
H950 C960 0.930 . S
H951 C961 0.930 . S
C952 H946 0.930 . S
C952 C953 1.355 . S
C952 C954 1.415 . S
C953 C952 1.355 . S
C953 C955 1.419 . S
C954 C952 1.415 . S
C954 C959 1.425 . S
C954 C961 1.409 . S
C955 H947 0.930 . S
C955 C953 1.419 . S
C955 C956 1.362 . S
C956 H948 0.930 . S
C956 C955 1.362 . S
C956 C959 1.409 . S
C957 H949 0.930 . S
C957 C958 1.355 . S
C957 C959 1.415 . S
C958 C957 1.355 . S
C958 C960 1.419 . S
C959 C954 1.425 . S
C959 C956 1.409 . S
C959 C957 1.415 . S
C960 H950 0.930 . S
C960 C958 1.419 . S
C960 C961 1.362 . S
C961 H951 0.930 . S
C961 C954 1.409 . S
C961 C960 1.362 . S
H962 C968 0.930 . S
H963 C971 0.930 . S
H964 C972 0.930 . S
H965 C973 0.930 . S
H966 C976 0.930 . S
H967 C977 0.930 . S
C968 H962 0.930 . S
C968 C969 1.355 . S
C968 C970 1.415 . S
C969 C968 1.355 . S
C969 C971 1.419 . S
C970 C968 1.415 . S
C970 C975 1.425 . S
C970 C977 1.409 . S
C971 H963 0.930 . S
C971 C969 1.419 . S
C971 C972 1.362 . S
C972 H964 0.930 . S
C972 C971 1.362 . S
C972 C975 1.409 . S
C973 H965 0.930 . S
C973 C974 1.355 . S
C973 C975 1.415 . S
C974 C973 1.355 . S
C974 C976 1.419 . S
C975 C970 1.425 . S
C975 C972 1.409 . S
C975 C973 1.415 . S
C976 H966 0.930 . S
C976 C974 1.419 . S
C976 C977 1.362 . S
C977 H967 0.930 . S
C977 C970 1.409 . S
C977 C976 1.362 . S
H978 C984 0.930 . S
H979 C987 0.930 . S
H980 C988 0.930 . S
H981 C989 0.930 . S
H982 C992 0.930 . S
H983 C993 0.930 . S
C984 H978 0.930 . S
C984 C985 1.355 . S
C984 C986 1.415 . S
C985 C984 1.355 . S
C985 C987 1.419 . S
C986 C984 1.415 . S
C986 C991 1.425 . S
C986 C993 1.409 . S
C987 H979 0.930 . S
C987 C985 1.419 . S
C987 C988 1.362 . S
C988 H980 0.930 . S
C988 C987 1.362 . S
C988 C991 1.409 . S
C989 H981 0.930 . S
C989 C990 1.355 . S
C989 C991 1.415 . S
C990 C989 1.355 . S
C990 C992 1.419 . S
C991 C986 1.425 . S
C991 C988 1.409 . S
C991 C989 1.415 . S
C992 H982 0.930 . S
C992 C990 1.419 . S
C992 C993 1.362 . S
C993 H983 0.930 . S
C993 C986 1.409 . S
C993 C992 1.362 . S
H994 C1000 0.930 . S
H995 C1003 0.930 . S
H996 C1004 0.930 . S
H997 C1005 0.930 . S
H998 C1008 0.930 . S
H999 C1009 0.930 . S
C1000 H994 0.930 . S
C1000 C1001 1.355 . S
C1000 C1002 1.415 . S
C1001 C1000 1.355 . S
C1001 C1003 1.419 . S
C1002 C1000 1.415 . S
C1002 C1007 1.425 . S
C1002 C1009 1.409 . S
C1003 H995 0.930 . S
C1003 C1001 1.419 . S
C1003 C1004 1.362 . S
C1004 H996 0.930 . S
C1004 C1003 1.362 . S
C1004 C1007 1.409 . S
C1005 H997 0.930 . S
C1005 C1006 1.355 . S
C1005 C1007 1.415 . S
C1006 C1005 1.355 . S
C1006 C1008 1.419 . S
C1007 C1002 1.425 . S
C1007 C1004 1.409 . S
C1007 C1005 1.415 . S
C1008 H998 0.930 . S
C1008 C1006 1.419 . S
C1008 C1009 1.362 . S
C1009 H999 0.930 . S
C1009 C1002 1.409 . S
C1009 C1008 1.362 . S
H1010 C1016 0.930 . S
H1011 C1019 0.930 . S
H1012 C1020 0.930 . S
H1013 C1021 0.930 . S
H1014 C1024 0.930 . S
H1015 C1025 0.930 . S
C1016 H1010 0.930 . S
C1016 C1017 1.355 . S
C1016 C1018 1.415 . S
C1017 C1016 1.355 . S
C1017 C1019 1.419 . S
C1018 C1016 1.415 . S
C1018 C1023 1.425 . S
C1018 C1025 1.409 . S
C1019 H1011 0.930 . S
C1019 C1017 1.419 . S
C1019 C1020 1.362 . S
C1020 H1012 0.930 . S
C1020 C1019 1.362 . S
C1020 C1023 1.409 . S
C1021 H1013 0.930 . S
C1021 C1022 1.355 . S
C1021 C1023 1.415 . S
C1022 C1021 1.355 . S
C1022 C1024 1.419 . S
C1023 C1018 1.425 . S
C1023 C1020 1.409 . S
C1023 C1021 1.415 . S
C1024 H1014 0.930 . S
C1024 C1022 1.419 . S
C1024 C1025 1.362 . S
C1025 H1015 0.930 . S
C1025 C1018 1.409 . S
C1025 C1024 1.362 . S
H1026 C1032 0.930 . S
H1027 C1035 0.930 1_565 S
H1028 C1036 0.930 . S
H1029 C1037 0.930 . S
H1030 C1040 0.930 . S
H1031 C1041 0.930 . S
C1032 H1026 0.930 . S
C1032 C1033 1.355 . S
C1032 C1034 1.415 . S
C1033 C1032 1.355 . S
C1033 C1035 1.419 . S
C1034 C1032 1.415 . S
C1034 C1039 1.425 . S
C1034 C1041 1.409 . S
C1035 H1027 0.930 1_545 S
C1035 C1033 1.419 . S
C1035 C1036 1.362 . S
C1036 H1028 0.930 . S
C1036 C1035 1.362 . S
C1036 C1039 1.409 . S
C1037 H1029 0.930 . S
C1037 C1038 1.355 . S
C1037 C1039 1.415 . S
C1038 C1037 1.355 . S
C1038 C1040 1.419 . S
C1039 C1034 1.425 . S
C1039 C1036 1.409 . S
C1039 C1037 1.415 . S
C1040 H1030 0.930 . S
C1040 C1038 1.419 . S
C1040 C1041 1.362 . S
C1041 H1031 0.930 . S
C1041 C1034 1.409 . S
C1041 C1040 1.362 . S
H1042 C1048 0.930 . S
H1043 C1051 0.930 . S
H1044 C1052 0.930 . S
H1045 C1053 0.930 . S
H1046 C1056 0.930 . S
H1047 C1057 0.930 . S
C1048 H1042 0.930 . S
C1048 C1049 1.355 . S
C1048 C1050 1.415 . S
C1049 C1048 1.355 . S
C1049 C1051 1.419 . S
C1050 C1048 1.415 . S
C1050 C1055 1.425 . S
C1050 C1057 1.409 . S
C1051 H1043 0.930 . S
C1051 C1049 1.419 . S
C1051 C1052 1.362 . S
C1052 H1044 0.930 . S
C1052 C1051 1.362 . S
C1052 C1055 1.409 . S
C1053 H1045 0.930 . S
C1053 C1054 1.355 . S
C1053 C1055 1.415 1_565 S
C1054 C1053 1.355 . S
C1054 C1056 1.419 . S
C1055 C1050 1.425 . S
C1055 C1052 1.409 . S
C1055 C1053 1.415 1_545 S
C1056 H1046 0.930 . S
C1056 C1054 1.419 . S
C1056 C1057 1.362 1_565 S
C1057 H1047 0.930 . S
C1057 C1050 1.409 . S
C1057 C1056 1.362 1_545 S
H1058 C1064 0.930 . S
H1059 C1067 0.930 . S
H1060 C1068 0.930 . S
H1061 C1069 0.930 . S
H1062 C1072 0.930 . S
H1063 C1073 0.930 . S
C1064 H1058 0.930 . S
C1064 C1065 1.355 . S
C1064 C1066 1.415 . S
C1065 C1064 1.355 . S
C1065 C1067 1.419 . S
C1066 C1064 1.415 . S
C1066 C1071 1.425 . S
C1066 C1073 1.409 . S
C1067 H1059 0.930 . S
C1067 C1065 1.419 . S
C1067 C1068 1.362 . S
C1068 H1060 0.930 . S
C1068 C1067 1.362 . S
C1068 C1071 1.409 . S
C1069 H1061 0.930 . S
C1069 C1070 1.355 . S
C1069 C1071 1.415 1_455 S
C1070 C1069 1.355 . S
C1070 C1072 1.419 . S
C1071 C1066 1.425 . S
C1071 C1068 1.409 . S
C1071 C1069 1.415 1_655 S
C1072 H1062 0.930 . S
C1072 C1070 1.419 . S
C1072 C1073 1.362 1_455 S
C1073 H1063 0.930 . S
C1073 C1066 1.409 . S
C1073 C1072 1.362 1_655 S
H1074 C1080 0.930 . S
H1075 C1083 0.930 . S
H1076 C1084 0.930 . S
H1077 C1085 0.930 . S
H1078 C1088 0.930 . S
H1079 C1089 0.930 . S
C1080 H1074 0.930 . S
C1080 C1081 1.355 . S
C1080 C1082 1.415 . S
C1081 C1080 1.355 . S
C1081 C1083 1.419 . S
C1082 C1080 1.415 . S
C1082 C1087 1.425 . S
C1082 C1089 1.409 . S
C1083 H1075 0.930 . S
C1083 C1081 1.419 . S
C1083 C1084 1.362 . S
C1084 H1076 0.930 . S
C1084 C1083 1.362 . S
C1084 C1087 1.409 . S
C1085 H1077 0.930 . S
C1085 C1086 1.355 . S
C1085 C1087 1.415 . S
C1086 C1085 1.355 . S
C1086 C1088 1.419 . S
C1087 C1082 1.425 . S
C1087 C1084 1.409 . S
C1087 C1085 1.415 . S
C1088 H1078 0.930 . S
C1088 C1086 1.419 . S
C1088 C1089 1.362 . S
C1089 H1079 0.930 . S
C1089 C1082 1.409 . S
C1089 C1088 1.362 . S
H1090 C1096 0.930 . S
H1091 C1099 0.930 . S
H1092 C1100 0.930 . S
H1093 C1101 0.930 . S
H1094 C1104 0.930 . S
H1095 C1105 0.930 . S
C1096 H1090 0.930 . S
C1096 C1097 1.355 . S
C1096 C1098 1.415 1_545 S
C1097 C1096 1.355 . S
C1097 C1099 1.419 . S
C1098 C1096 1.415 1_565 S
C1098 C1103 1.425 . S
C1098 C1105 1.409 . S
C1099 H1091 0.930 . S
C1099 C1097 1.419 . S
C1099 C1100 1.362 1_545 S
C1100 H1092 0.930 . S
C1100 C1099 1.362 1_565 S
C1100 C1103 1.409 . S
C1101 H1093 0.930 . S
C1101 C1102 1.355 . S
C1101 C1103 1.415 . S
C1102 C1101 1.355 . S
C1102 C1104 1.419 . S
C1103 C1098 1.425 . S
C1103 C1100 1.409 . S
C1103 C1101 1.415 . S
C1104 H1094 0.930 . S
C1104 C1102 1.419 . S
C1104 C1105 1.362 . S
C1105 H1095 0.930 . S
C1105 C1098 1.409 . S
C1105 C1104 1.362 . S
H1106 C1112 0.930 . S
H1107 C1115 0.930 . S
H1108 C1116 0.930 . S
H1109 C1117 0.930 . S
H1110 C1120 0.930 . S
H1111 C1121 0.930 . S
C1112 H1106 0.930 . S
C1112 C1113 1.355 . S
C1112 C1114 1.415 . S
C1113 C1112 1.355 . S
C1113 C1115 1.419 . S
C1114 C1112 1.415 . S
C1114 C1119 1.425 . S
C1114 C1121 1.409 . S
C1115 H1107 0.930 . S
C1115 C1113 1.419 . S
C1115 C1116 1.362 . S
C1116 H1108 0.930 . S
C1116 C1115 1.362 . S
C1116 C1119 1.409 . S
C1117 H1109 0.930 . S
C1117 C1118 1.355 . S
C1117 C1119 1.415 1_655 S
C1118 C1117 1.355 . S
C1118 C1120 1.419 . S
C1119 C1114 1.425 . S
C1119 C1116 1.409 . S
C1119 C1117 1.415 1_455 S
C1120 H1110 0.930 . S
C1120 C1118 1.419 . S
C1120 C1121 1.362 1_655 S
C1121 H1111 0.930 . S
C1121 C1114 1.409 . S
C1121 C1120 1.362 1_455 S
H1122 C1128 0.930 . S
H1123 C1131 0.930 . S
H1124 C1132 0.930 . S
H1125 C1133 0.930 . S
H1126 C1136 0.930 . S
H1127 C1137 0.930 . S
C1128 H1122 0.930 . S
C1128 C1129 1.355 . S
C1128 C1130 1.415 . S
C1129 C1128 1.355 . S
C1129 C1131 1.419 . S
C1130 C1128 1.415 . S
C1130 C1135 1.425 . S
C1130 C1137 1.409 . S
C1131 H1123 0.930 . S
C1131 C1129 1.419 . S
C1131 C1132 1.362 . S
C1132 H1124 0.930 . S
C1132 C1131 1.362 . S
C1132 C1135 1.409 . S
C1133 H1125 0.930 . S
C1133 C1134 1.355 . S
C1133 C1135 1.415 . S
C1134 C1133 1.355 . S
C1134 C1136 1.419 . S
C1135 C1130 1.425 . S
C1135 C1132 1.409 . S
C1135 C1133 1.415 . S
C1136 H1126 0.930 . S
C1136 C1134 1.419 . S
C1136 C1137 1.362 . S
C1137 H1127 0.930 . S
C1137 C1130 1.409 . S
C1137 C1136 1.362 . S
H1138 C1144 0.930 . S
H1139 C1147 0.930 . S
H1140 C1148 0.930 . S
H1141 C1149 0.930 . S
H1142 C1152 0.930 . S
H1143 C1153 0.930 . S
C1144 H1138 0.930 . S
C1144 C1145 1.355 . S
C1144 C1146 1.415 . S
C1145 C1144 1.355 . S
C1145 C1147 1.419 . S
C1146 C1144 1.415 . S
C1146 C1151 1.425 . S
C1146 C1153 1.409 . S
C1147 H1139 0.930 . S
C1147 C1145 1.419 . S
C1147 C1148 1.362 . S
C1148 H1140 0.930 . S
C1148 C1147 1.362 . S
C1148 C1151 1.409 . S
C1149 H1141 0.930 . S
C1149 C1150 1.355 . S
C1149 C1151 1.415 . S
C1150 C1149 1.355 . S
C1150 C1152 1.419 . S
C1151 C1146 1.425 . S
C1151 C1148 1.409 . S
C1151 C1149 1.415 . S
C1152 H1142 0.930 . S
C1152 C1150 1.419 . S
C1152 C1153 1.362 . S
C1153 H1143 0.930 . S
C1153 C1146 1.409 . S
C1153 C1152 1.362 . S
H1154 C1160 0.930 . S
H1155 C1163 0.930 . S
H1156 C1164 0.930 . S
H1157 C1165 0.930 . S
H1158 C1168 0.930 . S
H1159 C1169 0.930 . S
C1160 H1154 0.930 . S
C1160 C1161 1.355 . S
C1160 C1162 1.415 . S
C1161 C1160 1.355 . S
C1161 C1163 1.419 . S
C1162 C1160 1.415 . S
C1162 C1167 1.425 . S
C1162 C1169 1.409 . S
C1163 H1155 0.930 . S
C1163 C1161 1.419 . S
C1163 C1164 1.362 . S
C1164 H1156 0.930 . S
C1164 C1163 1.362 . S
C1164 C1167 1.409 . S
C1165 H1157 0.930 . S
C1165 C1166 1.355 . S
C1165 C1167 1.415 . S
C1166 C1165 1.355 . S
C1166 C1168 1.419 . S
C1167 C1162 1.425 . S
C1167 C1164 1.409 . S
C1167 C1165 1.415 . S
C1168 H1158 0.930 . S
C1168 C1166 1.419 . S
C1168 C1169 1.362 . S
C1169 H1159 0.930 . S
C1169 C1162 1.409 . S
C1169 C1168 1.362 . S
H1170 C1176 0.930 . S
H1171 C1179 0.930 . S
H1172 C1180 0.930 . S
H1173 C1181 0.930 . S
H1174 C1184 0.930 . S
H1175 C1185 0.930 . S
C1176 H1170 0.930 . S
C1176 C1177 1.355 . S
C1176 C1178 1.415 . S
C1177 C1176 1.355 . S
C1177 C1179 1.419 . S
C1178 C1176 1.415 . S
C1178 C1183 1.425 . S
C1178 C1185 1.409 . S
C1179 H1171 0.930 . S
C1179 C1177 1.419 . S
C1179 C1180 1.362 . S
C1180 H1172 0.930 . S
C1180 C1179 1.362 . S
C1180 C1183 1.409 . S
C1181 H1173 0.930 . S
C1181 C1182 1.355 . S
C1181 C1183 1.415 . S
C1182 C1181 1.355 . S
C1182 C1184 1.419 . S
C1183 C1178 1.425 . S
C1183 C1180 1.409 . S
C1183 C1181 1.415 . S
C1184 H1174 0.930 . S
C1184 C1182 1.419 . S
C1184 C1185 1.362 . S
C1185 H1175 0.930 . S
C1185 C1178 1.409 . S
C1185 C1184 1.362 . S
H1186 C1192 0.930 . S
H1187 C1195 0.930 . S
H1188 C1196 0.930 . S
H1189 C1197 0.930 . S
H1190 C1200 0.930 . S
H1191 C1201 0.930 . S
C1192 H1186 0.930 . S
C1192 C1193 1.355 . S
C1192 C1194 1.415 . S
C1193 C1192 1.355 . S
C1193 C1195 1.419 . S
C1194 C1192 1.415 . S
C1194 C1199 1.425 . S
C1194 C1201 1.409 . S
C1195 H1187 0.930 . S
C1195 C1193 1.419 . S
C1195 C1196 1.362 . S
C1196 H1188 0.930 . S
C1196 C1195 1.362 . S
C1196 C1199 1.409 . S
C1197 H1189 0.930 . S
C1197 C1198 1.355 . S
C1197 C1199 1.415 . S
C1198 C1197 1.355 . S
C1198 C1200 1.419 . S
C1199 C1194 1.425 . S
C1199 C1196 1.409 . S
C1199 C1197 1.415 . S
C1200 H1190 0.930 . S
C1200 C1198 1.419 . S
C1200 C1201 1.362 . S
C1201 H1191 0.930 . S
C1201 C1194 1.409 . S
C1201 C1200 1.362 . S
H1202 C1208 0.930 . S
H1203 C1211 0.930 . S
H1204 C1212 0.930 . S
H1205 C1213 0.930 . S
H1206 C1216 0.930 . S
H1207 C1217 0.930 . S
C1208 H1202 0.930 . S
C1208 C1209 1.355 . S
C1208 C1210 1.415 . S
C1209 C1208 1.355 . S
C1209 C1211 1.419 . S
C1210 C1208 1.415 . S
C1210 C1215 1.425 . S
C1210 C1217 1.409 . S
C1211 H1203 0.930 . S
C1211 C1209 1.419 . S
C1211 C1212 1.362 . S
C1212 H1204 0.930 . S
C1212 C1211 1.362 . S
C1212 C1215 1.409 . S
C1213 H1205 0.930 . S
C1213 C1214 1.355 . S
C1213 C1215 1.415 . S
C1214 C1213 1.355 . S
C1214 C1216 1.419 . S
C1215 C1210 1.425 . S
C1215 C1212 1.409 . S
C1215 C1213 1.415 . S
C1216 H1206 0.930 . S
C1216 C1214 1.419 . S
C1216 C1217 1.362 . S
C1217 H1207 0.930 . S
C1217 C1210 1.409 . S
C1217 C1216 1.362 . S
H1218 C1224 0.930 . S
H1219 C1227 0.930 . S
H1220 C1228 0.930 . S
H1221 C1229 0.930 . S
H1222 C1232 0.930 . S
H1223 C1233 0.930 . S
C1224 H1218 0.930 . S
C1224 C1225 1.355 . S
C1224 C1226 1.415 . S
C1225 C1224 1.355 . S
C1225 C1227 1.419 . S
C1226 C1224 1.415 . S
C1226 C1231 1.425 . S
C1226 C1233 1.409 . S
C1227 H1219 0.930 . S
C1227 C1225 1.419 . S
C1227 C1228 1.362 . S
C1228 H1220 0.930 . S
C1228 C1227 1.362 . S
C1228 C1231 1.409 . S
C1229 H1221 0.930 . S
C1229 C1230 1.355 . S
C1229 C1231 1.415 . S
C1230 C1229 1.355 . S
C1230 C1232 1.419 . S
C1231 C1226 1.425 . S
C1231 C1228 1.409 . S
C1231 C1229 1.415 . S
C1232 H1222 0.930 . S
C1232 C1230 1.419 . S
C1232 C1233 1.362 . S
C1233 H1223 0.930 . S
C1233 C1226 1.409 . S
C1233 C1232 1.362 . S
H1234 C1240 0.930 . S
H1235 C1243 0.930 . S
H1236 C1244 0.930 . S
H1237 C1245 0.930 . S
H1238 C1248 0.930 . S
H1239 C1249 0.930 . S
C1240 H1234 0.930 . S
C1240 C1241 1.355 . S
C1240 C1242 1.415 . S
C1241 C1240 1.355 . S
C1241 C1243 1.419 . S
C1242 C1240 1.415 . S
C1242 C1247 1.425 . S
C1242 C1249 1.409 . S
C1243 H1235 0.930 . S
C1243 C1241 1.419 . S
C1243 C1244 1.362 . S
C1244 H1236 0.930 . S
C1244 C1243 1.362 . S
C1244 C1247 1.409 . S
C1245 H1237 0.930 . S
C1245 C1246 1.355 . S
C1245 C1247 1.415 . S
C1246 C1245 1.355 . S
C1246 C1248 1.419 . S
C1247 C1242 1.425 . S
C1247 C1244 1.409 . S
C1247 C1245 1.415 . S
C1248 H1238 0.930 . S
C1248 C1246 1.419 . S
C1248 C1249 1.362 . S
C1249 H1239 0.930 . S
C1249 C1242 1.409 . S
C1249 C1248 1.362 . S
H1250 C1256 0.930 . S
H1251 C1259 0.930 . S
H1252 C1260 0.930 . S
H1253 C1261 0.930 . S
H1254 C1264 0.930 . S
H1255 C1265 0.930 . S
C1256 H1250 0.930 . S
C1256 C1257 1.355 . S
C1256 C1258 1.415 . S
C1257 C1256 1.355 . S
C1257 C1259 1.419 . S
C1258 C1256 1.415 . S
C1258 C1263 1.425 . S
C1258 C1265 1.409 . S
C1259 H1251 0.930 . S
C1259 C1257 1.419 . S
C1259 C1260 1.362 . S
C1260 H1252 0.930 . S
C1260 C1259 1.362 . S
C1260 C1263 1.409 . S
C1261 H1253 0.930 . S
C1261 C1262 1.355 . S
C1261 C1263 1.415 . S
C1262 C1261 1.355 . S
C1262 C1264 1.419 . S
C1263 C1258 1.425 . S
C1263 C1260 1.409 . S
C1263 C1261 1.415 . S
C1264 H1254 0.930 . S
C1264 C1262 1.419 . S
C1264 C1265 1.362 . S
C1265 H1255 0.930 . S
C1265 C1258 1.409 . S
C1265 C1264 1.362 . S
H1266 C1272 0.930 . S
H1267 C1275 0.930 . S
H1268 C1276 0.930 . S
H1269 C1277 0.930 . S
H1270 C1280 0.930 . S
H1271 C1281 0.930 . S
C1272 H1266 0.930 . S
C1272 C1273 1.355 . S
C1272 C1274 1.415 . S
C1273 C1272 1.355 . S
C1273 C1275 1.419 . S
C1274 C1272 1.415 . S
C1274 C1279 1.425 . S
C1274 C1281 1.409 . S
C1275 H1267 0.930 . S
C1275 C1273 1.419 . S
C1275 C1276 1.362 . S
C1276 H1268 0.930 . S
C1276 C1275 1.362 . S
C1276 C1279 1.409 . S
C1277 H1269 0.930 . S
C1277 C1278 1.355 . S
C1277 C1279 1.415 . S
C1278 C1277 1.355 . S
C1278 C1280 1.419 . S
C1279 C1274 1.425 . S
C1279 C1276 1.409 . S
C1279 C1277 1.415 . S
C1280 H1270 0.930 . S
C1280 C1278 1.419 . S
C1280 C1281 1.362 . S
C1281 H1271 0.930 . S
C1281 C1274 1.409 . S
C1281 C1280 1.362 . S
H1282 C1288 0.930 . S
H1283 C1291 0.930 . S
H1284 C1292 0.930 . S
H1285 C1293 0.930 . S
H1286 C1296 0.930 . S
H1287 C1297 0.930 . S
C1288 H1282 0.930 . S
C1288 C1289 1.355 . S
C1288 C1290 1.415 . S
C1289 C1288 1.355 . S
C1289 C1291 1.419 . S
C1290 C1288 1.415 . S
C1290 C1295 1.425 . S
C1290 C1297 1.409 . S
C1291 H1283 0.930 . S
C1291 C1289 1.419 . S
C1291 C1292 1.362 . S
C1292 H1284 0.930 . S
C1292 C1291 1.362 . S
C1292 C1295 1.409 . S
C1293 H1285 0.930 . S
C1293 C1294 1.355 . S
C1293 C1295 1.415 . S
C1294 C1293 1.355 . S
C1294 C1296 1.419 . S
C1295 C1290 1.425 . S
C1295 C1292 1.409 . S
C1295 C1293 1.415 . S
C1296 H1286 0.930 . S
C1296 C1294 1.419 . S
C1296 C1297 1.362 . S
C1297 H1287 0.930 . S
C1297 C1290 1.409 . S
C1297 C1296 1.362 . S
H1298 C1304 0.930 . S
H1299 C1307 0.930 . S
H1300 C1308 0.930 . S
H1301 C1309 0.930 . S
H1302 C1312 0.930 . S
H1303 C1313 0.930 . S
C1304 H1298 0.930 . S
C1304 C1305 1.355 . S
C1304 C1306 1.415 . S
C1305 C1304 1.355 . S
C1305 C1307 1.419 . S
C1306 C1304 1.415 . S
C1306 C1311 1.425 . S
C1306 C1313 1.409 . S
C1307 H1299 0.930 . S
C1307 C1305 1.419 . S
C1307 C1308 1.362 . S
C1308 H1300 0.930 . S
C1308 C1307 1.362 . S
C1308 C1311 1.409 . S
C1309 H1301 0.930 . S
C1309 C1310 1.355 . S
C1309 C1311 1.415 . S
C1310 C1309 1.355 . S
C1310 C1312 1.419 . S
C1311 C1306 1.425 . S
C1311 C1308 1.409 . S
C1311 C1309 1.415 . S
C1312 H1302 0.930 . S
C1312 C1310 1.419 . S
C1312 C1313 1.362 . S
C1313 H1303 0.930 . S
C1313 C1306 1.409 . S
C1313 C1312 1.362 . S
C601 N302 0.999 . S
C606 N5 1.018 . S
C617 N335 1.015 . S
C622 N38 1.070 . S
C633 N368 1.099 . S
C638 N71 1.043 . S
C649 N104 1.107 . S
C654 N401 1.054 . S
C665 N434 1.043 . S
C670 N137 1.099 . S
C681 N467 1.112 . S
C686 N170 1.116 . S
C697 N203 1.099 . S
C702 N500 1.121 . S
C713 N533 0.999 . S
C718 N236 1.036 . S
C729 N566 1.051 . S
C734 N269 1.004 . S
C745 C589 1.866 . S
C750 C28 1.876 . S
C761 C523 1.870 . S
C766 C61 1.859 . S
C777 C94 1.877 . S
C782 C556 1.870 . S
C793 C259 1.859 . S
C798 C127 1.870 . S
C809 C292 1.873 . S
C814 C160 1.877 . S
C825 C193 1.877 . S
C830 C226 1.867 . S
C841 C325 1.872 . S
C846 C457 1.861 . S
C857 C490 1.877 . S
C862 C358 1.874 . S
C873 C391 1.872 . S
C878 C424 1.861 . S
C889 C17 1.460 . S
C894 C149 1.461 . S
C905 C182 1.394 . S
C910 C50 1.399 . S
C921 C116 1.380 . S
C926 C83 1.377 . S
C937 C347 1.384 . S
C942 C215 1.388 . S
C953 C248 1.409 . S
C958 C380 1.414 . S
C969 C314 1.462 . S
C974 C281 1.462 . S
C985 C413 1.370 . S
C990 C545 1.373 . S
C1001 C578 1.418 . S
C1006 C446 1.413 . S
C1017 C479 1.462 . S
C1022 C512 1.462 . S
C1033 C74 1.210 . S
C1038 N14 1.221 . S
C1049 C8 1.225 . S
C1054 N47 1.220 . S
C1065 C41 1.242 . S
C1070 N80 1.235 . S
C1081 C140 1.205 . S
C1086 N113 1.251 . S
C1097 N146 1.230 . S
C1102 C173 1.177 . S
C1113 C107 1.168 . S
C1118 N179 1.249 . S
C1129 C272 1.192 . S
C1134 N212 1.252 . S
C1145 C206 1.198 . S
C1150 N245 1.252 . S
C1161 N278 1.238 . S
C1166 C239 1.239 . S
C1177 N311 1.242 . S
C1182 C338 1.234 . S
C1193 C371 1.229 . S
C1198 N344 1.244 . S
C1209 C305 1.218 . S
C1214 N377 1.248 . S
C1225 N410 1.227 . S
C1230 C470 1.183 . S
C1241 C404 1.228 . S
C1246 N443 1.244 . S
C1257 C437 1.169 . S
C1262 N476 1.234 . S
C1273 C536 1.185 . S
C1278 N509 1.252 . S
C1289 C569 1.215 . S
C1294 N542 1.248 . S
C1305 C503 1.188 . S
C1310 N575 1.225 . S
