# Generated by pormake.
# Topology rob, (6)-cn, num edge types: 1
# Building blocks:
#     Node 0, Type 0, BuildingBlock: CUKXOW_clean_sbu_0, # of connection points: 6
#     Node 1, Type 0, BuildingBlock: CUKXOW_clean_sbu_0, # of connection points: 6
#     Node 2, Type 0, BuildingBlock: CUKXOW_clean_sbu_0, # of connection points: 6
#     Node 3, Type 0, BuildingBlock: CUKXOW_clean_sbu_0, # of connection points: 6
#     Edge 4, Type (0, 0), BuildingBlock: TEMPAE_clean_linker_10, # of connection points: 2
#     Edge 5, Type (0, 0), BuildingBlock: TEMPAE_clean_linker_10, # of connection points: 2
#     Edge 6, Type (0, 0), BuildingBlock: TEMPAE_clean_linker_10, # of connection points: 2
#     Edge 7, Type (0, 0), BuildingBlock: TEMPAE_clean_linker_10, # of connection points: 2
#     Edge 8, Type (0, 0), BuildingBlock: TEMPAE_clean_linker_10, # of connection points: 2
#     Edge 9, Type (0, 0), BuildingBlock: TEMPAE_clean_linker_10, # of connection points: 2
#     Edge 10, Type (0, 0), BuildingBlock: TEMPAE_clean_linker_10, # of connection points: 2
#     Edge 11, Type (0, 0), BuildingBlock: TEMPAE_clean_linker_10, # of connection points: 2
#     Edge 12, Type (0, 0), BuildingBlock: TEMPAE_clean_linker_10, # of connection points: 2
#     Edge 13, Type (0, 0), BuildingBlock: TEMPAE_clean_linker_10, # of connection points: 2
#     Edge 14, Type (0, 0), BuildingBlock: TEMPAE_clean_linker_10, # of connection points: 2
#     Edge 15, Type (0, 0), BuildingBlock: TEMPAE_clean_linker_10, # of connection points: 2
# Relax obj value: 0.016
# Max RMSD: 0.093
# Mean RMSD: 0.093
data_MOF--net-rob--node1-CUKXOW_clean_sbu_0--edge1-TEMPAE_clean_linker_10
_symmetry_space_group_name_H-M    P1
_symmetry_Int_Tables_number       1
_symmetry_cell_setting            triclinic
loop_
_symmetry_equiv_pos_as_xyz
'x, y, z'
_cell_length_a     12.929033
_cell_length_b     28.22843
_cell_length_c     29.20876
_cell_angle_alpha  103.11411
_cell_angle_beta   90.000562
_cell_angle_gamma 89.926807
loop_
_atom_site_label
_atom_site_type_symbol
_atom_site_fract_x
_atom_site_fract_y
_atom_site_fract_z
_atom_type_partial_charge
Tb0 Tb 0.31564 0.24759 0.05253 0.0
C1 C 0.31801 0.34331 0.01659 0.0
Tb2 Tb 0.16463 0.25596 0.9706 0.0
O3 O 0.45136 0.24403 1.00604 0.0
O4 O 0.30574 0.222 0.97898 0.0
O5 O 0.33763 0.32383 0.05299 0.0
C6 C 0.09587 0.2552 0.88438 0.0
O7 O 0.26034 0.32177 0.98006 0.0
C8 C 0.08331 0.27339 0.0544 0.0
C9 C 0.16108 0.16051 0.0094 0.0
O10 O 0.07686 0.28929 0.92166 0.0
O11 O 0.15182 0.22162 0.89599 0.0
O12 O 0.02923 0.25882 0.01617 0.0
O13 O 0.1744 0.28251 0.04365 0.0
O14 O 0.13065 0.18211 0.97576 0.0
O15 O 0.22924 0.17943 0.04261 0.0
C16 C 0.38328 0.24372 0.13812 0.0
O17 O 0.43438 0.22821 0.09924 0.0
O18 O 0.2953 0.26113 0.12852 0.0
C19 C 0.39676 0.23064 0.96782 0.0
Tb20 Tb 0.83128 0.74234 0.04542 0.0
C21 C 0.82577 0.84035 0.01365 0.0
Tb22 Tb 0.67081 0.7553 0.96857 0.0
O23 O 0.96258 0.73065 0.99558 0.0
O24 O 0.81132 0.71875 0.97257 0.0
O25 O 0.83925 0.82041 0.05027 0.0
C26 C 0.59218 0.75675 0.88459 0.0
O27 O 0.77212 0.81882 0.97589 0.0
C28 C 0.60304 0.7724 0.05515 0.0
C29 C 0.66817 0.65808 1.00425 0.0
O30 O 0.57977 0.79099 0.92245 0.0
O31 O 0.64689 0.72187 0.89448 0.0
O32 O 0.54232 0.76001 0.01876 0.0
O33 O 0.69214 0.78011 0.04142 0.0
O34 O 0.63371 0.68156 0.97273 0.0
O35 O 0.742 0.67488 0.03542 0.0
C36 C 0.90661 0.73285 0.12788 0.0
O37 O 0.82032 0.71464 0.10928 0.0
O38 O 0.95157 0.75617 0.09985 0.0
C39 C 0.90231 0.72295 0.95899 0.0
Tb40 Tb 0.33083 0.75056 0.46761 0.0
C41 C 0.33184 0.65429 0.50228 0.0
Tb42 Tb 0.17047 0.7377 0.54428 0.0
O43 O 0.46109 0.76482 0.5179 0.0
O44 O 0.30914 0.77556 0.54027 0.0
O45 O 0.34394 0.67298 0.46481 0.0
C46 C 0.08991 0.73745 0.62812 0.0
O47 O 0.27631 0.67602 0.53936 0.0
C48 C 0.10418 0.71798 0.45738 0.0
C49 C 0.16324 0.83361 0.50643 0.0
O50 O 0.08096 0.70214 0.5909 0.0
O51 O 0.14229 0.77267 0.61767 0.0
O52 O 0.04276 0.73044 0.49351 0.0
O53 O 0.1936 0.71149 0.47162 0.0
O54 O 0.12955 0.81055 0.53838 0.0
O55 O 0.23835 0.81703 0.47585 0.0
C56 C 0.40593 0.75895 0.38483 0.0
O57 O 0.319 0.77686 0.40304 0.0
O58 O 0.4517 0.73655 0.41343 0.0
C59 C 0.4003 0.77271 0.55434 0.0
Tb60 Tb 0.81887 0.24782 0.46852 0.0
C61 C 0.81139 0.15049 0.5015 0.0
Tb62 Tb 0.66635 0.23912 0.5501 0.0
O63 O 0.95651 0.25513 0.5147 0.0
O64 O 0.80924 0.27154 0.5418 0.0
O65 O 0.82397 0.16993 0.46451 0.0
C66 C 0.59681 0.23879 0.6361 0.0
O67 O 0.76133 0.17309 0.54005 0.0
C68 C 0.58673 0.2232 0.46569 0.0
C69 C 0.67453 0.33786 0.5165 0.0
O70 O 0.57732 0.20533 0.59839 0.0
O71 O 0.65349 0.27235 0.625 0.0
O72 O 0.53199 0.23801 0.5037 0.0
O73 O 0.67703 0.21363 0.47676 0.0
O74 O 0.63806 0.3143 0.5476 0.0
O75 O 0.74432 0.31941 0.48375 0.0
C76 C 0.87878 0.25478 0.38272 0.0
O77 O 0.79094 0.26936 0.40229 0.0
O78 O 0.93429 0.23666 0.41175 0.0
C79 C 0.90098 0.26465 0.55291 0.0
C80 C 0.51273 0.60523 0.99601 0.0
C81 C 0.61858 0.61154 1.00571 0.0
C82 C 0.46265 0.56196 0.99868 0.0
C83 C 0.5206 0.52363 0.01004 0.0
C84 C 0.62794 0.52961 0.01932 0.0
C85 C 0.67542 0.57393 0.0178 0.0
C86 C 0.34757 0.55747 0.98987 0.0
C87 C 0.69267 0.48905 0.03035 0.0
C88 C 0.38048 0.42596 0.05634 0.0
C89 C 0.3673 0.38986 0.01515 0.0
C90 C 0.42922 0.47005 0.05512 0.0
C91 C 0.46869 0.47723 0.01195 0.0
C92 C 0.45706 0.44037 0.97041 0.0
C93 C 0.40491 0.3974 0.9724 0.0
C94 C 0.43757 0.50911 0.09986 0.0
C95 C 0.50065 0.44607 0.92398 0.0
H96 H 0.46844 0.63468 0.98739 0.0
H97 H 0.75738 0.57886 0.0252 0.0
H98 H 0.33156 0.52714 0.95922 0.0
H99 H 0.3081 0.54881 0.0207 0.0
H100 H 0.31329 0.59131 0.98303 0.0
H101 H 0.77564 0.49907 0.03534 0.0
H102 H 0.66377 0.47932 0.06276 0.0
H103 H 0.68602 0.45607 1.00141 0.0
H104 H 0.35108 0.42 0.08934 0.0
H105 H 0.39605 0.36905 0.94066 0.0
H106 H 0.40057 0.54311 0.09495 0.0
H107 H 0.52003 0.51751 0.10847 0.0
H108 H 0.40039 0.49825 0.1302 0.0
H109 H 0.46342 0.47738 0.91345 0.0
H110 H 0.48893 0.41303 0.89544 0.0
H111 H 0.58475 0.45385 0.92754 0.0
C112 C 0.43347 0.604 0.54549 0.0
C113 C 0.38493 0.60863 0.50386 0.0
C114 C 0.48669 0.56134 0.54785 0.0
C115 C 0.48789 0.52181 0.50812 0.0
C116 C 0.43822 0.52627 0.46603 0.0
C117 C 0.38889 0.57014 0.46414 0.0
C118 C 0.54159 0.55861 0.59284 0.0
C119 C 0.43505 0.48434 0.42345 0.0
C120 C 0.68598 0.42044 0.49893 0.0
C121 C 0.6298 0.38597 0.51644 0.0
C122 C 0.6415 0.46532 0.49684 0.0
C123 C 0.53754 0.47514 0.51125 0.0
C124 C 0.48039 0.44025 0.52862 0.0
C125 C 0.52768 0.39635 0.53157 0.0
C126 C 0.70563 0.50221 0.47928 0.0
C127 C 0.36858 0.44884 0.54322 0.0
H128 H 0.43156 0.63424 0.57598 0.0
H129 H 0.35099 0.57392 0.43204 0.0
H130 H 0.5058 0.53008 0.60821 0.0
H131 H 0.62377 0.5483 0.58539 0.0
H132 H 0.53872 0.59367 0.61941 0.0
H133 H 0.39282 0.49369 0.39356 0.0
H134 H 0.51472 0.47294 0.41182 0.0
H135 H 0.39672 0.45259 0.43266 0.0
H136 H 0.76496 0.41245 0.4872 0.0
H137 H 0.48337 0.36943 0.54438 0.0
H138 H 0.70658 0.53719 0.50592 0.0
H139 H 0.6707 0.50946 0.44687 0.0
H140 H 0.78665 0.48983 0.47146 0.0
H141 H 0.36186 0.48162 0.57234 0.0
H142 H 0.33434 0.41749 0.55491 0.0
H143 H 0.32229 0.45571 0.51338 0.0
C144 C 0.17139 0.07677 0.02359 0.0
C145 C 0.11325 0.11365 0.0109 0.0
C146 C 0.12598 0.03188 0.02462 0.0
C147 C 0.01931 0.02461 0.01431 0.0
C148 C 0.95982 0.06239 1.00275 0.0
C149 C 0.00799 0.10623 1.00047 0.0
C150 C 0.19239 0.99198 0.03589 0.0
C151 C 0.84526 0.05658 0.99299 0.0
C152 C 0.91311 0.89699 0.97244 0.0
C153 C 0.87386 0.88768 0.01422 0.0
C154 C 0.96274 0.94103 0.9722 0.0
C155 C 0.97016 0.97714 0.01452 0.0
C156 C 0.92924 0.96814 0.05674 0.0
C157 C 0.88305 0.92303 0.05622 0.0
C158 C 0.00791 0.94871 0.92675 0.0
C159 C 0.9331 0.00635 0.10223 0.0
H160 H 0.25289 0.08266 0.03161 0.0
H161 H 0.96276 0.13519 0.99145 0.0
H162 H 0.1619 0.98088 0.06736 0.0
H163 H 0.18982 0.95946 1.00627 0.0
H164 H 0.2743 0.00332 0.04252 0.0
H165 H 0.80924 0.09038 0.98692 0.0
H166 H 0.83179 0.02683 0.96154 0.0
H167 H 0.80555 0.04633 0.02301 0.0
H168 H 0.9072 0.86926 0.94006 0.0
H169 H 0.85228 0.91575 0.08847 0.0
H170 H 0.09112 0.95813 0.93157 0.0
H171 H 0.96858 0.97964 0.91643 0.0
H172 H 1.00016 0.91598 0.89751 0.0
H173 H 0.01456 0.0159 0.11203 0.0
H174 H 0.89532 0.99403 0.13166 0.0
H175 H 0.89418 0.04006 0.09771 0.0
C176 C 0.89562 0.09299 0.54293 0.0
C177 C 0.85908 0.10293 0.50092 0.0
C178 C 0.94695 0.04928 0.5431 0.0
C179 C 0.95936 0.01414 0.50038 0.0
C180 C 0.92088 0.02364 0.45793 0.0
C181 C 0.87249 0.06836 0.45861 0.0
C182 C 0.9891 0.04103 0.5889 0.0
C183 C 0.93032 0.98649 0.41193 0.0
C184 C 0.16825 0.91793 0.4933 0.0
C185 C 0.11192 0.87958 0.50411 0.0
C186 C 0.11963 0.96214 0.49208 0.0
C187 C 0.01176 0.96727 0.50037 0.0
C188 C 0.9542 0.928 0.50992 0.0
C189 C 0.00535 0.88484 0.51236 0.0
C190 C 0.18392 0.00366 0.48295 0.0
C191 C 0.83866 0.93156 0.51759 0.0
H192 H 0.8867 0.12005 0.5756 0.0
H193 H 0.84404 0.07607 0.42614 0.0
H194 H 0.95147 0.00885 0.59752 0.0
H195 H 0.07329 0.03331 0.58551 0.0
H196 H 0.97659 0.07289 0.61865 0.0
H197 H 0.89358 -0.00104 0.38234 0.0
H198 H 0.01302 0.97858 0.40334 0.0
H199 H 0.89359 0.95184 0.41501 0.0
H200 H 0.25076 0.91377 0.48699 0.0
H201 H 0.96155 0.85479 0.51995 0.0
H202 H 0.1773 0.03546 0.51314 0.0
H203 H 0.15462 0.01519 0.45148 0.0
H204 H 0.26693 0.99381 0.4774 0.0
H205 H 0.82082 0.96028 0.54937 0.0
H206 H 0.80457 0.89676 0.52201 0.0
H207 H 0.8005 0.94211 0.48734 0.0
C208 C 0.55688 0.27087 0.40521 0.0
C209 C 0.55473 0.2262 0.41825 0.0
C210 C 0.53602 0.27372 0.35882 0.0
C211 C 0.50469 0.23135 0.32571 0.0
C212 C 0.49913 0.18631 0.3393 0.0
C213 C 0.52669 0.18409 0.3853 0.0
C214 C 0.5492 0.3219 0.34523 0.0
C215 C 0.46419 0.14058 0.30531 0.0
C216 C 0.34697 0.25388 0.22333 0.0
C217 C 0.41659 0.24102 0.18581 0.0
C218 C 0.37425 0.25 0.26878 0.0
C219 C 0.47513 0.23454 0.27728 0.0
C220 C 0.54681 0.22251 0.23965 0.0
C221 C 0.51612 0.22528 0.19414 0.0
C222 C 0.29428 0.26119 0.30748 0.0
C223 C 0.65557 0.20601 0.24652 0.0
H224 H 0.57788 0.30344 0.43084 0.0
H225 H 0.52527 0.14958 0.39569 0.0
H226 H 0.59102 0.31684 0.31127 0.0
H227 H 0.47234 0.33763 0.34064 0.0
H228 H 0.59241 0.34854 0.37233 0.0
H229 H 0.45515 0.10957 0.32255 0.0
H230 H 0.38925 0.14702 0.28914 0.0
H231 H 0.5216 0.13034 0.27654 0.0
H232 H 0.27028 0.26636 0.217 0.0
H233 H 0.57036 0.2154 0.16521 0.0
H234 H 0.32128 0.29107 0.33647 0.0
H235 H 0.28253 0.22875 0.32238 0.0
H236 H 0.21879 0.27194 0.29495 0.0
H237 H 0.68176 0.21637 0.28359 0.0
H238 H 0.7101 0.22159 0.22466 0.0
H239 H 0.65987 0.16585 0.23449 0.0
C240 C 0.48936 0.7448 0.11294 0.0
C241 C 0.57697 0.77017 0.10368 0.0
C242 C 0.46589 0.74125 0.15897 0.0
C243 C 0.53069 0.76446 0.19651 0.0
C244 C 0.61963 0.78994 0.18718 0.0
C245 C 0.64196 0.79224 0.14075 0.0
C246 C 0.3718 0.7127 0.16745 0.0
C247 C 0.6902 0.81547 0.22626 0.0
C248 C 0.40296 0.79724 0.31637 0.0
C249 C 0.44273 0.76157 0.33784 0.0
C250 C 0.43316 0.79929 0.2708 0.0
C251 C 0.50259 0.76393 0.24572 0.0
C252 C 0.54318 0.72779 0.26738 0.0
C253 C 0.51375 0.72747 0.3136 0.0
C254 C 0.39035 0.83918 0.24942 0.0
C255 C 0.61528 0.68876 0.24131 0.0
H256 H 0.43995 0.72716 0.08411 0.0
H257 H 0.71 0.81172 0.13346 0.0
H258 H 0.39373 0.68529 0.1876 0.0
H259 H 0.31435 0.73743 0.18887 0.0
H260 H 0.33416 0.69374 0.13414 0.0
H261 H 0.75556 0.83413 0.21302 0.0
H262 H 0.64557 0.84276 0.25212 0.0
H263 H 0.7225 0.78898 0.24527 0.0
H264 H 0.34827 0.82371 0.33533 0.0
H265 H 0.54377 0.69965 0.33023 0.0
H266 H 0.34252 0.82317 0.21824 0.0
H267 H 0.45463 0.8593 0.23727 0.0
H268 H 0.34192 0.86544 0.27462 0.0
H269 H 0.57649 0.6676 0.20926 0.0
H270 H 0.64001 0.66332 0.26319 0.0
H271 H 0.68509 0.70548 0.22966 0.0
C272 C 0.50405 0.79815 0.8282 0.0
C273 C 0.56321 0.75941 0.83647 0.0
C274 C 0.48169 0.80189 0.78209 0.0
C275 C 0.52112 0.76651 0.74362 0.0
C276 C 0.58119 0.72738 0.75195 0.0
C277 C 0.60084 0.72415 0.79831 0.0
C278 C 0.41526 0.84343 0.77444 0.0
C279 C 0.62568 0.68912 0.71202 0.0
C280 C 0.37219 0.74681 0.62952 0.0
C281 C 0.43213 0.77165 0.60272 0.0
C282 C 0.40139 0.74421 0.67498 0.0
C283 C 0.49217 0.76815 0.69478 0.0
C284 C 0.55451 0.79289 0.66781 0.0
C285 C 0.52427 0.79383 0.62169 0.0
C286 C 0.33613 0.71501 0.70155 0.0
C287 C 0.65279 0.81822 0.68768 0.0
H288 H 0.47528 0.82548 0.85774 0.0
H289 H 0.64795 0.69449 0.80466 0.0
H290 H 0.45899 0.86542 0.75399 0.0
H291 H 0.34586 0.829 0.75355 0.0
H292 H 0.38954 0.86757 0.80805 0.0
H293 H 0.6584 0.65777 0.72429 0.0
H294 H 0.56591 0.67535 0.68505 0.0
H295 H 0.68829 0.70545 0.69469 0.0
H296 H 0.30389 0.7279 0.61465 0.0
H297 H 0.57167 0.81253 0.60075 0.0
H298 H 0.30696 0.7389 0.73456 0.0
H299 H 0.38381 0.68629 0.71162 0.0
H300 H 0.26948 0.69721 0.68057 0.0
H301 H 0.6353 0.84597 0.72026 0.0
H302 H 0.69209 0.83625 0.6624 0.0
H303 H 0.70694 0.7916 0.69742 0.0
C304 C 0.60951 0.27244 0.72231 0.0
C305 C 0.57016 0.23695 0.68479 0.0
C306 C 0.58955 0.27061 0.76907 0.0
C307 C 0.528 0.23251 0.77853 0.0
C308 C 0.48793 0.19657 0.7407 0.0
C309 C 0.51001 0.19908 0.69419 0.0
C310 C 0.63403 0.3096 0.80828 0.0
C311 C 0.42054 0.15589 0.74943 0.0
C312 C 0.52551 0.20905 0.90222 0.0
C313 C 0.43262 0.23161 0.91989 0.0
C314 C 0.55807 0.20876 0.85608 0.0
C315 C 0.49747 0.23275 0.82773 0.0
C316 C 0.40609 0.25723 0.84629 0.0
C317 C 0.37455 0.2558 0.89177 0.0
C318 C 0.65635 0.18245 0.83746 0.0
C319 C 0.34202 0.28541 0.8182 0.0
H320 H 0.65719 0.30148 0.71511 0.0
H321 H 0.47995 0.17152 0.6652 0.0
H322 H 0.57231 0.32634 0.83315 0.0
H323 H 0.69113 0.29313 0.82842 0.0
H324 H 0.67319 0.33879 0.79494 0.0
H325 H 0.39617 0.13059 0.71627 0.0
H326 H 0.46279 0.13494 0.7714 0.0
H327 H 0.35029 0.17121 0.76921 0.0
H328 H 0.5713 0.19069 0.92407 0.0
H329 H 0.3052 0.2747 0.90539 0.0
H330 H 0.71093 0.20794 0.82628 0.0
H331 H 0.6388 0.15331 0.80597 0.0
H332 H 0.69518 0.16592 0.864 0.0
H333 H 0.39015 0.31376 0.80784 0.0
H334 H 0.27424 0.3035 0.83819 0.0
H335 H 0.31438 0.26077 0.78534 0.0
C336 C 0.90434 0.69359 0.19579 0.0
C337 C 0.94356 0.72966 0.17473 0.0
C338 C 0.93483 0.691 0.24121 0.0
C339 C 0.00397 0.72623 0.26658 0.0
C340 C 0.04397 0.76277 0.24535 0.0
C341 C 0.01431 0.76362 0.19927 0.0
C342 C 0.89254 0.65073 0.26212 0.0
C343 C 0.11552 0.80175 0.27176 0.0
C344 C 0.99007 0.74492 0.39934 0.0
C345 C 0.07826 0.71989 0.40872 0.0
C346 C 0.96652 0.7484 0.35329 0.0
C347 C 0.03178 0.72541 0.3158 0.0
C348 C 0.12121 0.70019 0.32522 0.0
C349 C 0.14368 0.69801 0.3717 0.0
C350 C 0.87195 0.77672 0.34478 0.0
C351 C 0.19231 0.67492 0.28619 0.0
H352 H 0.84981 0.66723 0.17663 0.0
H353 H 0.04393 0.79175 0.18299 0.0
H354 H 0.95708 0.63057 0.27411 0.0
H355 H 0.84444 0.66637 0.29334 0.0
H356 H 0.8445 0.62459 0.23669 0.0
H357 H 0.14011 0.82744 0.25014 0.0
H358 H 0.07633 0.82264 0.30385 0.0
H359 H 0.1854 0.78498 0.28336 0.0
H360 H 0.94029 0.76244 0.42811 0.0
H361 H 0.21216 0.67881 0.37908 0.0
H362 H 0.81508 0.75191 0.32314 0.0
H363 H 0.89351 0.80435 0.32484 0.0
H364 H 0.83373 0.79541 0.37807 0.0
H365 H 0.14807 0.64785 0.26001 0.0
H366 H 0.25748 0.65607 0.29942 0.0
H367 H 0.22489 0.70164 0.26756 0.0
C368 C 0.98644 0.22691 0.31055 0.0
C369 C 0.90749 0.25663 0.33427 0.0
C370 C 0.01117 0.22715 0.26374 0.0
C371 C 0.95713 0.25878 0.24063 0.0
C372 C 0.87606 0.2882 0.26433 0.0
C373 C 0.85221 0.28674 0.31087 0.0
C374 C 0.09193 0.19198 0.23865 0.0
C375 C 0.81327 0.32057 0.24025 0.0
C376 C 0.08649 0.30344 0.14135 0.0
C377 C 0.04865 0.27066 0.10171 0.0
C378 C 0.05735 0.29991 0.18674 0.0
C379 C 0.98812 0.26267 0.19249 0.0
C380 C 0.94926 0.22956 0.15215 0.0
C381 C 0.97912 0.23445 0.10725 0.0
C382 C 0.10017 0.33683 0.22811 0.0
C383 C 0.87471 0.18929 0.15524 0.0
H384 H 0.02743 0.20266 0.32823 0.0
H385 H 0.79013 0.30926 0.32902 0.0
H386 H 0.05247 0.15959 0.21715 0.0
H387 H 0.13912 0.20812 0.21446 0.0
H388 H 0.14405 0.17942 0.26374 0.0
H389 H 0.74493 0.33639 0.26134 0.0
H390 H 0.86225 0.35077 0.23419 0.0
H391 H 0.78626 0.29972 0.2054 0.0
H392 H 0.13917 0.33191 0.13685 0.0
H393 H 0.94958 0.20911 0.07642 0.0
H394 H 0.10887 0.32177 0.25978 0.0
H395 H 0.04647 0.36826 0.23689 0.0
H396 H 0.17652 0.35073 0.21963 0.0
H397 H 0.89383 0.15577 0.12835 0.0
H398 H 0.79564 0.20056 0.14734 0.0
H399 H 0.87376 0.18023 0.19021 0.0
C400 C 0.03082 0.28449 0.61814 0.0
C401 C 0.93735 0.26273 0.60046 0.0
C402 C 0.06299 0.28426 0.66421 0.0
C403 C 0.00128 0.26061 0.69238 0.0
C404 C 0.90947 0.23679 0.67373 0.0
C405 C 0.8784 0.23869 0.62834 0.0
C406 C 0.16184 0.3098 0.68297 0.0
C407 C 0.84424 0.20897 0.70168 0.0
C408 C 0.10952 0.22077 0.79838 0.0
C409 C 0.07018 0.25668 0.83557 0.0
C410 C 0.09079 0.22246 0.7515 0.0
C411 C 0.03063 0.26088 0.74166 0.0
C412 C 0.99051 0.29721 0.77917 0.0
C413 C 0.01127 0.2948 0.82578 0.0
C414 C 0.1353 0.18307 0.71261 0.0
C415 C 0.92433 0.33817 0.76999 0.0
H416 H 0.0772 0.30273 0.59645 0.0
H417 H 0.80856 0.22039 0.61461 0.0
H418 H 0.14471 0.33911 0.71441 0.0
H419 H 0.21532 0.28389 0.69429 0.0
H420 H 0.20171 0.32598 0.65648 0.0
H421 H 0.77653 0.19117 0.68149 0.0
H422 H 0.89158 0.18044 0.71226 0.0
H423 H 0.81635 0.23381 0.7344 0.0
H424 H 0.15631 0.19156 0.80592 0.0
H425 H 0.98122 0.32267 0.85455 0.0
H426 H 0.19563 0.19888 0.69357 0.0
H427 H 0.07457 0.16747 0.68674 0.0
H428 H 0.17073 0.1531 0.72618 0.0
H429 H 0.96701 0.35836 0.7475 0.0
H430 H 0.90093 0.3641 0.80296 0.0
H431 H 0.85347 0.32316 0.75061 0.0
C432 C 0.09874 0.77115 0.71417 0.0
C433 C 0.06093 0.73553 0.6764 0.0
C434 C 0.07979 0.76846 0.76072 0.0
C435 C 0.0199 0.72961 0.76962 0.0
C436 C 0.97984 0.69399 0.73154 0.0
C437 C 0.00184 0.6971 0.68523 0.0
C438 C 0.12516 0.80685 0.80022 0.0
C439 C 0.91318 0.65287 0.73982 0.0
C440 C 0.0257 0.70223 0.89143 0.0
C441 C 0.93413 0.72473 0.91085 0.0
C442 C 0.05511 0.70328 0.84524 0.0
C443 C 0.99234 0.72832 0.81866 0.0
C444 C 0.9023 0.75269 0.83897 0.0
C445 C 0.87412 0.75017 0.88456 0.0
C446 C 0.1528 0.67762 0.82484 0.0
C447 C 0.83653 0.78209 0.81272 0.0
H448 H 0.14583 0.80057 0.70736 0.0
H449 H 0.97282 0.66954 0.65598 0.0
H450 H 0.06574 0.82131 0.82719 0.0
H451 H 0.1874 0.79041 0.81771 0.0
H452 H 0.15855 0.83775 0.78748 0.0
H453 H 0.88646 0.62866 0.70646 0.0
H454 H 0.95717 0.63084 0.76019 0.0
H455 H 0.8444 0.66773 0.76103 0.0
H456 H 0.07313 0.6831 0.91201 0.0
H457 H 0.80631 0.76936 0.89986 0.0
H458 H 0.20636 0.70391 0.81427 0.0
H459 H 0.13418 0.64952 0.79269 0.0
H460 H 0.19324 0.65992 0.8501 0.0
H461 H 0.8839 0.81087 0.8027 0.0
H462 H 0.77 0.79982 0.83393 0.0
H463 H 0.80714 0.75837 0.7797 0.0
loop_
_geom_bond_atom_site_label_1
_geom_bond_atom_site_label_2
_geom_bond_distance
_geom_bond_site_symmetry_2
_ccdc_geom_bond_type
Tb0 O3 2.453 1_554 S
Tb0 O4 2.596 1_554 S
Tb0 O5 2.374 . S
Tb0 O13 2.343 . S
Tb0 O15 2.354 . S
Tb0 O17 2.427 . S
Tb0 O18 2.513 . S
C1 O5 1.251 . S
C1 O7 1.263 . S
Tb2 O4 2.343 . S
Tb2 O7 2.353 1_556 S
Tb2 O10 2.427 . S
Tb2 O11 2.513 . S
Tb2 O12 2.453 1_556 S
Tb2 O13 2.596 1_556 S
Tb2 O14 2.374 . S
O3 Tb0 2.453 1_556 S
O3 C19 1.245 . S
O4 Tb0 2.596 1_556 S
O4 Tb2 2.343 . S
O4 C19 1.259 . S
O5 Tb0 2.374 . S
O5 C1 1.251 . S
C6 O10 1.275 . S
C6 O11 1.246 . S
O7 C1 1.263 . S
O7 Tb2 2.353 1_554 S
C8 O12 1.245 . S
C8 O13 1.259 . S
C9 O14 1.250 . S
C9 O15 1.262 1_556 S
O10 Tb2 2.427 . S
O10 C6 1.275 . S
O11 Tb2 2.513 . S
O11 C6 1.246 . S
O12 Tb2 2.453 1_554 S
O12 C8 1.245 . S
O13 Tb0 2.343 . S
O13 Tb2 2.596 1_554 S
O13 C8 1.259 . S
O14 Tb2 2.374 . S
O14 C9 1.250 . S
O15 Tb0 2.354 . S
O15 C9 1.262 1_554 S
C16 O17 1.275 . S
C16 O18 1.246 . S
O17 Tb0 2.427 . S
O17 C16 1.275 . S
O18 Tb0 2.513 . S
O18 C16 1.246 . S
C19 O3 1.245 . S
C19 O4 1.259 . S
Tb20 O23 2.453 1_554 S
Tb20 O24 2.596 1_554 S
Tb20 O25 2.374 . S
Tb20 O33 2.343 . S
Tb20 O35 2.354 . S
Tb20 O37 2.427 . S
Tb20 O38 2.513 . S
C21 O25 1.251 . S
C21 O27 1.263 . S
Tb22 O24 2.343 . S
Tb22 O27 2.353 1_556 S
Tb22 O30 2.427 . S
Tb22 O31 2.513 . S
Tb22 O32 2.453 1_556 S
Tb22 O33 2.596 1_556 S
Tb22 O34 2.374 . S
O23 Tb20 2.453 1_556 S
O23 C39 1.245 . S
O24 Tb20 2.596 1_556 S
O24 Tb22 2.343 . S
O24 C39 1.259 . S
O25 Tb20 2.374 . S
O25 C21 1.251 . S
C26 O30 1.275 . S
C26 O31 1.246 . S
O27 C21 1.263 . S
O27 Tb22 2.353 1_554 S
C28 O32 1.245 . S
C28 O33 1.259 . S
C29 O34 1.250 . S
C29 O35 1.262 1_556 S
O30 Tb22 2.427 . S
O30 C26 1.275 . S
O31 Tb22 2.513 . S
O31 C26 1.246 . S
O32 Tb22 2.453 1_554 S
O32 C28 1.245 . S
O33 Tb20 2.343 . S
O33 Tb22 2.596 1_554 S
O33 C28 1.259 . S
O34 Tb22 2.374 . S
O34 C29 1.250 . S
O35 Tb20 2.354 . S
O35 C29 1.262 1_554 S
C36 O37 1.275 . S
C36 O38 1.246 . S
O37 Tb20 2.427 . S
O37 C36 1.275 . S
O38 Tb20 2.513 . S
O38 C36 1.246 . S
C39 O23 1.245 . S
C39 O24 1.259 . S
Tb40 O43 2.453 . S
Tb40 O44 2.596 . S
Tb40 O45 2.374 . S
Tb40 O53 2.343 . S
Tb40 O55 2.353 . S
Tb40 O57 2.427 . S
Tb40 O58 2.513 . S
C41 O45 1.251 . S
C41 O47 1.263 . S
Tb42 O44 2.343 . S
Tb42 O47 2.353 . S
Tb42 O50 2.427 . S
Tb42 O51 2.513 . S
Tb42 O52 2.453 . S
Tb42 O53 2.596 . S
Tb42 O54 2.374 . S
O43 Tb40 2.453 . S
O43 C59 1.245 . S
O44 Tb40 2.596 . S
O44 Tb42 2.343 . S
O44 C59 1.259 . S
O45 Tb40 2.374 . S
O45 C41 1.251 . S
C46 O50 1.275 . S
C46 O51 1.246 . S
O47 C41 1.263 . S
O47 Tb42 2.353 . S
C48 O52 1.245 . S
C48 O53 1.259 . S
C49 O54 1.250 . S
C49 O55 1.263 . S
O50 Tb42 2.427 . S
O50 C46 1.275 . S
O51 Tb42 2.513 . S
O51 C46 1.246 . S
O52 Tb42 2.453 . S
O52 C48 1.245 . S
O53 Tb40 2.343 . S
O53 Tb42 2.596 . S
O53 C48 1.259 . S
O54 Tb42 2.374 . S
O54 C49 1.250 . S
O55 Tb40 2.353 . S
O55 C49 1.263 . S
C56 O57 1.275 . S
C56 O58 1.246 . S
O57 Tb40 2.427 . S
O57 C56 1.275 . S
O58 Tb40 2.513 . S
O58 C56 1.246 . S
C59 O43 1.245 . S
C59 O44 1.259 . S
Tb60 O63 2.453 . S
Tb60 O64 2.596 . S
Tb60 O65 2.374 . S
Tb60 O73 2.343 . S
Tb60 O75 2.353 . S
Tb60 O77 2.427 . S
Tb60 O78 2.513 . S
C61 O65 1.251 . S
C61 O67 1.263 . S
Tb62 O64 2.343 . S
Tb62 O67 2.353 . S
Tb62 O70 2.427 . S
Tb62 O71 2.513 . S
Tb62 O72 2.453 . S
Tb62 O73 2.596 . S
Tb62 O74 2.374 . S
O63 Tb60 2.453 . S
O63 C79 1.245 . S
O64 Tb60 2.596 . S
O64 Tb62 2.343 . S
O64 C79 1.259 . S
O65 Tb60 2.374 . S
O65 C61 1.251 . S
C66 O70 1.275 . S
C66 O71 1.246 . S
O67 C61 1.263 . S
O67 Tb62 2.353 . S
C68 O72 1.245 . S
C68 O73 1.259 . S
C69 O74 1.250 . S
C69 O75 1.263 . S
O70 Tb62 2.427 . S
O70 C66 1.275 . S
O71 Tb62 2.513 . S
O71 C66 1.246 . S
O72 Tb62 2.453 . S
O72 C68 1.245 . S
O73 Tb60 2.343 . S
O73 Tb62 2.596 . S
O73 C68 1.259 . S
O74 Tb62 2.374 . S
O74 C69 1.250 . S
O75 Tb60 2.353 . S
O75 C69 1.263 . S
C76 O77 1.275 . S
C76 O78 1.246 . S
O77 Tb60 2.427 . S
O77 C76 1.275 . S
O78 Tb60 2.513 . S
O78 C76 1.246 . S
C79 O63 1.245 . S
C79 O64 1.259 . S
C80 C81 1.391 . S
C80 C82 1.394 . S
C80 H96 0.931 . S
C81 C80 1.391 . S
C81 C85 1.376 1_556 S
C82 C80 1.394 . S
C82 C83 1.369 . S
C82 C86 1.531 . S
C83 C82 1.369 . S
C83 C84 1.410 1_556 S
C83 C91 1.503 . S
C84 C83 1.410 1_554 S
C84 C85 1.392 . S
C84 C87 1.511 . S
C85 C81 1.376 1_554 S
C85 C84 1.392 . S
C85 H97 0.929 . S
C86 C82 1.531 . S
C86 H98 0.960 . S
C86 H99 0.962 . S
C86 H100 0.960 . S
C87 C84 1.511 . S
C87 H101 0.961 . S
C87 H102 0.961 . S
C87 H103 0.961 . S
C88 C89 1.372 . S
C88 C90 1.363 . S
C88 H104 0.931 . S
C89 C88 1.372 . S
C89 C93 1.406 1_554 S
C90 C88 1.363 . S
C90 C91 1.370 1_554 S
C90 C94 1.524 . S
C91 C83 1.503 . S
C91 C90 1.370 1_556 S
C91 C92 1.403 . S
C92 C91 1.403 . S
C92 C93 1.404 . S
C92 C95 1.539 . S
C93 C89 1.406 1_556 S
C93 C92 1.404 . S
C93 H105 0.930 . S
C94 C90 1.524 . S
C94 H106 0.956 . S
C94 H107 0.961 . S
C94 H108 0.961 . S
C95 C92 1.539 . S
C95 H109 0.958 . S
C95 H110 0.961 . S
C95 H111 0.960 . S
H96 C80 0.931 . S
H97 C85 0.929 . S
H98 C86 0.960 . S
H99 C86 0.962 . S
H100 C86 0.960 . S
H101 C87 0.961 . S
H102 C87 0.961 . S
H103 C87 0.961 . S
H104 C88 0.931 . S
H105 C93 0.930 . S
H106 C94 0.956 . S
H107 C94 0.961 . S
H108 C94 0.961 . S
H109 C95 0.958 . S
H110 C95 0.961 . S
H111 C95 0.960 . S
C112 C113 1.391 . S
C112 C114 1.394 . S
C112 H128 0.931 . S
C113 C112 1.391 . S
C113 C117 1.376 . S
C114 C112 1.394 . S
C114 C115 1.369 . S
C114 C118 1.531 . S
C115 C114 1.369 . S
C115 C116 1.410 . S
C115 C123 1.503 . S
C116 C115 1.410 . S
C116 C117 1.392 . S
C116 C119 1.511 . S
C117 C113 1.376 . S
C117 C116 1.392 . S
C117 H129 0.929 . S
C118 C114 1.531 . S
C118 H130 0.960 . S
C118 H131 0.962 . S
C118 H132 0.960 . S
C119 C116 1.511 . S
C119 H133 0.961 . S
C119 H134 0.961 . S
C119 H135 0.961 . S
C120 C121 1.370 . S
C120 C122 1.363 . S
C120 H136 0.931 . S
C121 C120 1.370 . S
C121 C125 1.408 . S
C122 C120 1.363 . S
C122 C123 1.370 . S
C122 C126 1.524 . S
C123 C115 1.503 . S
C123 C122 1.370 . S
C123 C124 1.403 . S
C124 C123 1.403 . S
C124 C125 1.404 . S
C124 C127 1.539 . S
C125 C121 1.408 . S
C125 C124 1.404 . S
C125 H137 0.930 . S
C126 C122 1.524 . S
C126 H138 0.956 . S
C126 H139 0.961 . S
C126 H140 0.961 . S
C127 C124 1.539 . S
C127 H141 0.958 . S
C127 H142 0.961 . S
C127 H143 0.960 . S
H128 C112 0.931 . S
H129 C117 0.929 . S
H130 C118 0.960 . S
H131 C118 0.962 . S
H132 C118 0.960 . S
H133 C119 0.961 . S
H134 C119 0.961 . S
H135 C119 0.961 . S
H136 C120 0.931 . S
H137 C125 0.930 . S
H138 C126 0.956 . S
H139 C126 0.961 . S
H140 C126 0.961 . S
H141 C127 0.958 . S
H142 C127 0.961 . S
H143 C127 0.960 . S
C144 C145 1.391 . S
C144 C146 1.394 . S
C144 H160 0.931 . S
C145 C144 1.391 . S
C145 C149 1.376 1_554 S
C146 C144 1.394 . S
C146 C147 1.369 . S
C146 C150 1.531 1_545 S
C147 C146 1.369 . S
C147 C148 1.410 1_454 S
C147 C155 1.503 1_445 S
C148 C147 1.410 1_656 S
C148 C149 1.392 1_655 S
C148 C151 1.511 . S
C149 C145 1.376 1_556 S
C149 C148 1.392 1_455 S
C149 H161 0.929 1_455 S
C150 C146 1.531 1_565 S
C150 H162 0.960 . S
C150 H163 0.962 . S
C150 H164 0.960 1_565 S
C151 C148 1.511 . S
C151 H165 0.961 . S
C151 H166 0.961 . S
C151 H167 0.961 1_556 S
C152 C153 1.370 1_556 S
C152 C154 1.363 . S
C152 H168 0.931 . S
C153 C152 1.370 1_554 S
C153 C157 1.408 . S
C154 C152 1.363 . S
C154 C155 1.370 1_556 S
C154 C158 1.524 1_655 S
C155 C147 1.503 1_665 S
C155 C154 1.370 1_554 S
C155 C156 1.403 . S
C156 C155 1.403 . S
C156 C157 1.404 . S
C156 C159 1.539 1_565 S
C157 C153 1.408 . S
C157 C156 1.404 . S
C157 H169 0.930 . S
C158 C154 1.524 1_455 S
C158 H170 0.956 . S
C158 H171 0.961 . S
C158 H172 0.961 . S
C159 C156 1.539 1_545 S
C159 H173 0.958 . S
C159 H174 0.961 . S
C159 H175 0.960 . S
H160 C144 0.931 . S
H161 C149 0.929 1_655 S
H162 C150 0.960 . S
H163 C150 0.962 . S
H164 C150 0.960 1_545 S
H165 C151 0.961 . S
H166 C151 0.961 . S
H167 C151 0.961 1_554 S
H168 C152 0.931 . S
H169 C157 0.930 . S
H170 C158 0.956 . S
H171 C158 0.961 . S
H172 C158 0.961 . S
H173 C159 0.958 . S
H174 C159 0.961 . S
H175 C159 0.960 . S
C176 C177 1.391 . S
C176 C178 1.394 . S
C176 H192 0.931 . S
C177 C176 1.391 . S
C177 C181 1.376 . S
C178 C176 1.394 . S
C178 C179 1.369 . S
C178 C182 1.531 . S
C179 C178 1.369 . S
C179 C180 1.410 . S
C179 C187 1.503 1_645 S
C180 C179 1.410 . S
C180 C181 1.392 . S
C180 C183 1.511 . S
C181 C177 1.376 . S
C181 C180 1.392 . S
C181 H193 0.929 . S
C182 C178 1.531 . S
C182 H194 0.960 1_545 S
C182 H195 0.962 . S
C182 H196 0.960 . S
C183 C180 1.511 . S
C183 H197 0.961 . S
C183 H198 0.961 1_645 S
C183 H199 0.961 1_545 S
C184 C185 1.370 . S
C184 C186 1.363 . S
C184 H200 0.931 . S
C185 C184 1.370 . S
C185 C189 1.408 . S
C186 C184 1.363 . S
C186 C187 1.370 . S
C186 C190 1.524 1_565 S
C187 C179 1.503 1_465 S
C187 C186 1.370 . S
C187 C188 1.403 1_455 S
C188 C187 1.403 1_655 S
C188 C189 1.404 1_655 S
C188 C191 1.539 . S
C189 C185 1.408 . S
C189 C188 1.404 1_455 S
C189 H201 0.930 1_455 S
C190 C186 1.524 1_545 S
C190 H202 0.956 . S
C190 H203 0.961 . S
C190 H204 0.961 . S
C191 C188 1.539 . S
C191 H205 0.958 . S
C191 H206 0.961 . S
C191 H207 0.960 . S
H192 C176 0.931 . S
H193 C181 0.929 . S
H194 C182 0.960 1_565 S
H195 C182 0.962 . S
H196 C182 0.960 . S
H197 C183 0.961 . S
H198 C183 0.961 1_465 S
H199 C183 0.961 1_565 S
H200 C184 0.931 . S
H201 C189 0.930 1_655 S
H202 C190 0.956 . S
H203 C190 0.961 . S
H204 C190 0.961 . S
H205 C191 0.958 . S
H206 C191 0.961 . S
H207 C191 0.960 . S
C208 C209 1.391 . S
C208 C210 1.394 . S
C208 H224 0.931 . S
C209 C208 1.391 . S
C209 C213 1.376 . S
C210 C208 1.394 . S
C210 C211 1.369 . S
C210 C214 1.531 . S
C211 C210 1.369 . S
C211 C212 1.410 . S
C211 C219 1.503 . S
C212 C211 1.410 . S
C212 C213 1.392 . S
C212 C215 1.511 . S
C213 C209 1.376 . S
C213 C212 1.392 . S
C213 H225 0.929 . S
C214 C210 1.531 . S
C214 H226 0.960 . S
C214 H227 0.962 . S
C214 H228 0.960 . S
C215 C212 1.511 . S
C215 H229 0.961 . S
C215 H230 0.961 . S
C215 H231 0.961 . S
C216 C217 1.370 . S
C216 C218 1.363 . S
C216 H232 0.931 . S
C217 C216 1.370 . S
C217 C221 1.408 . S
C218 C216 1.363 . S
C218 C219 1.370 . S
C218 C222 1.524 . S
C219 C211 1.503 . S
C219 C218 1.370 . S
C219 C220 1.403 . S
C220 C219 1.403 . S
C220 C221 1.404 . S
C220 C223 1.539 . S
C221 C217 1.408 . S
C221 C220 1.404 . S
C221 H233 0.930 . S
C222 C218 1.524 . S
C222 H234 0.956 . S
C222 H235 0.961 . S
C222 H236 0.961 . S
C223 C220 1.539 . S
C223 H237 0.958 . S
C223 H238 0.961 . S
C223 H239 0.960 . S
H224 C208 0.931 . S
H225 C213 0.929 . S
H226 C214 0.960 . S
H227 C214 0.962 . S
H228 C214 0.960 . S
H229 C215 0.961 . S
H230 C215 0.961 . S
H231 C215 0.961 . S
H232 C216 0.931 . S
H233 C221 0.930 . S
H234 C222 0.956 . S
H235 C222 0.961 . S
H236 C222 0.961 . S
H237 C223 0.958 . S
H238 C223 0.961 . S
H239 C223 0.960 . S
C240 C241 1.391 . S
C240 C242 1.394 . S
C240 H256 0.931 . S
C241 C240 1.391 . S
C241 C245 1.376 . S
C242 C240 1.394 . S
C242 C243 1.369 . S
C242 C246 1.531 . S
C243 C242 1.369 . S
C243 C244 1.410 . S
C243 C251 1.503 . S
C244 C243 1.410 . S
C244 C245 1.392 . S
C244 C247 1.511 . S
C245 C241 1.376 . S
C245 C244 1.392 . S
C245 H257 0.929 . S
C246 C242 1.531 . S
C246 H258 0.960 . S
C246 H259 0.962 . S
C246 H260 0.960 . S
C247 C244 1.511 . S
C247 H261 0.961 . S
C247 H262 0.961 . S
C247 H263 0.961 . S
C248 C249 1.370 . S
C248 C250 1.363 . S
C248 H264 0.931 . S
C249 C248 1.370 . S
C249 C253 1.408 . S
C250 C248 1.363 . S
C250 C251 1.370 . S
C250 C254 1.524 . S
C251 C243 1.503 . S
C251 C250 1.370 . S
C251 C252 1.403 . S
C252 C251 1.403 . S
C252 C253 1.404 . S
C252 C255 1.539 . S
C253 C249 1.408 . S
C253 C252 1.404 . S
C253 H265 0.930 . S
C254 C250 1.524 . S
C254 H266 0.956 . S
C254 H267 0.961 . S
C254 H268 0.961 . S
C255 C252 1.539 . S
C255 H269 0.958 . S
C255 H270 0.961 . S
C255 H271 0.960 . S
H256 C240 0.931 . S
H257 C245 0.929 . S
H258 C246 0.960 . S
H259 C246 0.962 . S
H260 C246 0.960 . S
H261 C247 0.961 . S
H262 C247 0.961 . S
H263 C247 0.961 . S
H264 C248 0.931 . S
H265 C253 0.930 . S
H266 C254 0.956 . S
H267 C254 0.961 . S
H268 C254 0.961 . S
H269 C255 0.958 . S
H270 C255 0.961 . S
H271 C255 0.960 . S
C272 C273 1.391 . S
C272 C274 1.394 . S
C272 H288 0.931 . S
C273 C272 1.391 . S
C273 C277 1.376 . S
C274 C272 1.394 . S
C274 C275 1.369 . S
C274 C278 1.531 . S
C275 C274 1.369 . S
C275 C276 1.410 . S
C275 C283 1.503 . S
C276 C275 1.410 . S
C276 C277 1.392 . S
C276 C279 1.511 . S
C277 C273 1.376 . S
C277 C276 1.392 . S
C277 H289 0.929 . S
C278 C274 1.531 . S
C278 H290 0.960 . S
C278 H291 0.962 . S
C278 H292 0.960 . S
C279 C276 1.511 . S
C279 H293 0.961 . S
C279 H294 0.961 . S
C279 H295 0.961 . S
C280 C281 1.370 . S
C280 C282 1.363 . S
C280 H296 0.931 . S
C281 C280 1.370 . S
C281 C285 1.408 . S
C282 C280 1.363 . S
C282 C283 1.370 . S
C282 C286 1.524 . S
C283 C275 1.503 . S
C283 C282 1.370 . S
C283 C284 1.403 . S
C284 C283 1.403 . S
C284 C285 1.404 . S
C284 C287 1.539 . S
C285 C281 1.408 . S
C285 C284 1.404 . S
C285 H297 0.930 . S
C286 C282 1.524 . S
C286 H298 0.956 . S
C286 H299 0.961 . S
C286 H300 0.961 . S
C287 C284 1.539 . S
C287 H301 0.958 . S
C287 H302 0.961 . S
C287 H303 0.960 . S
H288 C272 0.931 . S
H289 C277 0.929 . S
H290 C278 0.960 . S
H291 C278 0.962 . S
H292 C278 0.960 . S
H293 C279 0.961 . S
H294 C279 0.961 . S
H295 C279 0.961 . S
H296 C280 0.931 . S
H297 C285 0.930 . S
H298 C286 0.956 . S
H299 C286 0.961 . S
H300 C286 0.961 . S
H301 C287 0.958 . S
H302 C287 0.961 . S
H303 C287 0.960 . S
C304 C305 1.391 . S
C304 C306 1.394 . S
C304 H320 0.931 . S
C305 C304 1.391 . S
C305 C309 1.376 . S
C306 C304 1.394 . S
C306 C307 1.369 . S
C306 C310 1.531 . S
C307 C306 1.369 . S
C307 C308 1.410 . S
C307 C315 1.503 . S
C308 C307 1.410 . S
C308 C309 1.392 . S
C308 C311 1.511 . S
C309 C305 1.376 . S
C309 C308 1.392 . S
C309 H321 0.929 . S
C310 C306 1.531 . S
C310 H322 0.960 . S
C310 H323 0.962 . S
C310 H324 0.960 . S
C311 C308 1.511 . S
C311 H325 0.961 . S
C311 H326 0.961 . S
C311 H327 0.961 . S
C312 C313 1.370 . S
C312 C314 1.363 . S
C312 H328 0.931 . S
C313 C312 1.370 . S
C313 C317 1.408 . S
C314 C312 1.363 . S
C314 C315 1.370 . S
C314 C318 1.524 . S
C315 C307 1.503 . S
C315 C314 1.370 . S
C315 C316 1.403 . S
C316 C315 1.403 . S
C316 C317 1.404 . S
C316 C319 1.539 . S
C317 C313 1.408 . S
C317 C316 1.404 . S
C317 H329 0.930 . S
C318 C314 1.524 . S
C318 H330 0.956 . S
C318 H331 0.961 . S
C318 H332 0.961 . S
C319 C316 1.539 . S
C319 H333 0.958 . S
C319 H334 0.961 . S
C319 H335 0.960 . S
H320 C304 0.931 . S
H321 C309 0.929 . S
H322 C310 0.960 . S
H323 C310 0.962 . S
H324 C310 0.960 . S
H325 C311 0.961 . S
H326 C311 0.961 . S
H327 C311 0.961 . S
H328 C312 0.931 . S
H329 C317 0.930 . S
H330 C318 0.956 . S
H331 C318 0.961 . S
H332 C318 0.961 . S
H333 C319 0.958 . S
H334 C319 0.961 . S
H335 C319 0.960 . S
C336 C337 1.391 . S
C336 C338 1.394 . S
C336 H352 0.931 . S
C337 C336 1.391 . S
C337 C341 1.376 1_655 S
C338 C336 1.394 . S
C338 C339 1.369 1_655 S
C338 C342 1.531 . S
C339 C338 1.369 1_455 S
C339 C340 1.410 . S
C339 C347 1.503 . S
C340 C339 1.410 . S
C340 C341 1.392 . S
C340 C343 1.511 . S
C341 C337 1.376 1_455 S
C341 C340 1.392 . S
C341 H353 0.929 . S
C342 C338 1.531 . S
C342 H354 0.960 . S
C342 H355 0.962 . S
C342 H356 0.960 . S
C343 C340 1.511 . S
C343 H357 0.961 . S
C343 H358 0.961 . S
C343 H359 0.961 . S
C344 C345 1.370 . S
C344 C346 1.363 . S
C344 H360 0.931 . S
C345 C344 1.370 . S
C345 C349 1.408 . S
C346 C344 1.363 . S
C346 C347 1.370 . S
C346 C350 1.524 1_455 S
C347 C339 1.503 . S
C347 C346 1.370 . S
C347 C348 1.403 . S
C348 C347 1.403 . S
C348 C349 1.404 . S
C348 C351 1.539 . S
C349 C345 1.408 . S
C349 C348 1.404 . S
C349 H361 0.930 . S
C350 C346 1.524 1_655 S
C350 H362 0.956 . S
C350 H363 0.961 . S
C350 H364 0.961 . S
C351 C348 1.539 . S
C351 H365 0.958 . S
C351 H366 0.961 . S
C351 H367 0.960 . S
H352 C336 0.931 . S
H353 C341 0.929 . S
H354 C342 0.960 . S
H355 C342 0.962 . S
H356 C342 0.960 . S
H357 C343 0.961 . S
H358 C343 0.961 . S
H359 C343 0.961 . S
H360 C344 0.931 . S
H361 C349 0.930 . S
H362 C350 0.956 . S
H363 C350 0.961 . S
H364 C350 0.961 . S
H365 C351 0.958 . S
H366 C351 0.961 . S
H367 C351 0.960 . S
C368 C369 1.391 1_455 S
C368 C370 1.394 . S
C368 H384 0.931 . S
C369 C368 1.391 1_655 S
C369 C373 1.376 . S
C370 C368 1.394 . S
C370 C371 1.369 . S
C370 C374 1.531 . S
C371 C370 1.369 . S
C371 C372 1.410 1_455 S
C371 C379 1.503 . S
C372 C371 1.410 1_655 S
C372 C373 1.392 . S
C372 C375 1.511 . S
C373 C369 1.376 . S
C373 C372 1.392 . S
C373 H385 0.929 . S
C374 C370 1.531 . S
C374 H386 0.960 . S
C374 H387 0.962 . S
C374 H388 0.960 . S
C375 C372 1.511 . S
C375 H389 0.961 . S
C375 H390 0.961 . S
C375 H391 0.961 . S
C376 C377 1.370 . S
C376 C378 1.363 . S
C376 H392 0.931 . S
C377 C376 1.370 . S
C377 C381 1.408 . S
C378 C376 1.363 . S
C378 C379 1.370 . S
C378 C382 1.524 . S
C379 C371 1.503 . S
C379 C378 1.370 . S
C379 C380 1.403 . S
C380 C379 1.403 . S
C380 C381 1.404 . S
C380 C383 1.539 1_455 S
C381 C377 1.408 . S
C381 C380 1.404 . S
C381 H393 0.930 . S
C382 C378 1.524 . S
C382 H394 0.956 . S
C382 H395 0.961 . S
C382 H396 0.961 . S
C383 C380 1.539 1_655 S
C383 H397 0.958 1_655 S
C383 H398 0.961 . S
C383 H399 0.960 . S
H384 C368 0.931 . S
H385 C373 0.929 . S
H386 C374 0.960 . S
H387 C374 0.962 . S
H388 C374 0.960 . S
H389 C375 0.961 . S
H390 C375 0.961 . S
H391 C375 0.961 . S
H392 C376 0.931 . S
H393 C381 0.930 . S
H394 C382 0.956 . S
H395 C382 0.961 . S
H396 C382 0.961 . S
H397 C383 0.958 1_455 S
H398 C383 0.961 . S
H399 C383 0.960 . S
C400 C401 1.391 . S
C400 C402 1.394 . S
C400 H416 0.931 1_655 S
C401 C400 1.391 . S
C401 C405 1.376 . S
C402 C400 1.394 . S
C402 C403 1.369 . S
C402 C406 1.531 1_655 S
C403 C402 1.369 . S
C403 C404 1.410 . S
C403 C411 1.503 . S
C404 C403 1.410 . S
C404 C405 1.392 . S
C404 C407 1.511 . S
C405 C401 1.376 . S
C405 C404 1.392 . S
C405 H417 0.929 . S
C406 C402 1.531 1_455 S
C406 H418 0.960 . S
C406 H419 0.962 . S
C406 H420 0.960 . S
C407 C404 1.511 . S
C407 H421 0.961 . S
C407 H422 0.961 . S
C407 H423 0.961 . S
C408 C409 1.370 . S
C408 C410 1.363 . S
C408 H424 0.931 . S
C409 C408 1.370 . S
C409 C413 1.408 1_455 S
C410 C408 1.363 . S
C410 C411 1.370 1_455 S
C410 C414 1.524 . S
C411 C403 1.503 . S
C411 C410 1.370 1_655 S
C411 C412 1.403 . S
C412 C411 1.403 . S
C412 C413 1.404 . S
C412 C415 1.539 . S
C413 C409 1.408 1_655 S
C413 C412 1.404 . S
C413 H425 0.930 . S
C414 C410 1.524 . S
C414 H426 0.956 . S
C414 H427 0.961 . S
C414 H428 0.961 . S
C415 C412 1.539 . S
C415 H429 0.958 . S
C415 H430 0.961 . S
C415 H431 0.960 . S
H416 C400 0.931 1_455 S
H417 C405 0.929 . S
H418 C406 0.960 . S
H419 C406 0.962 . S
H420 C406 0.960 . S
H421 C407 0.961 . S
H422 C407 0.961 . S
H423 C407 0.961 . S
H424 C408 0.931 . S
H425 C413 0.930 . S
H426 C414 0.956 . S
H427 C414 0.961 . S
H428 C414 0.961 . S
H429 C415 0.958 . S
H430 C415 0.961 . S
H431 C415 0.960 . S
C432 C433 1.391 . S
C432 C434 1.394 . S
C432 H448 0.931 . S
C433 C432 1.391 . S
C433 C437 1.376 1_455 S
C434 C432 1.394 . S
C434 C435 1.369 1_455 S
C434 C438 1.531 . S
C435 C434 1.369 1_655 S
C435 C436 1.410 . S
C435 C443 1.503 . S
C436 C435 1.410 . S
C436 C437 1.392 . S
C436 C439 1.511 . S
C437 C433 1.376 1_655 S
C437 C436 1.392 . S
C437 H449 0.929 . S
C438 C434 1.531 . S
C438 H450 0.960 . S
C438 H451 0.962 . S
C438 H452 0.960 . S
C439 C436 1.511 . S
C439 H453 0.961 . S
C439 H454 0.961 . S
C439 H455 0.961 . S
C440 C441 1.370 . S
C440 C442 1.363 . S
C440 H456 0.931 . S
C441 C440 1.370 . S
C441 C445 1.408 . S
C442 C440 1.363 . S
C442 C443 1.370 . S
C442 C446 1.524 . S
C443 C435 1.503 . S
C443 C442 1.370 . S
C443 C444 1.403 . S
C444 C443 1.403 . S
C444 C445 1.404 . S
C444 C447 1.539 . S
C445 C441 1.408 . S
C445 C444 1.404 . S
C445 H457 0.930 . S
C446 C442 1.524 . S
C446 H458 0.956 1_655 S
C446 H459 0.961 . S
C446 H460 0.961 . S
C447 C444 1.539 . S
C447 H461 0.958 . S
C447 H462 0.961 . S
C447 H463 0.960 . S
H448 C432 0.931 . S
H449 C437 0.929 . S
H450 C438 0.960 . S
H451 C438 0.962 . S
H452 C438 0.960 . S
H453 C439 0.961 . S
H454 C439 0.961 . S
H455 C439 0.961 . S
H456 C440 0.931 . S
H457 C445 0.930 . S
H458 C446 0.956 1_455 S
H459 C446 0.961 . S
H460 C446 0.961 . S
H461 C447 0.958 . S
H462 C447 0.961 . S
H463 C447 0.960 . S
C81 C29 1.487 . S
C89 C1 1.507 . S
C113 C41 1.512 . S
C121 C69 1.497 . S
C145 C9 1.510 1_554 S
C153 C21 1.498 . S
C177 C61 1.499 . S
C185 C49 1.503 . S
C209 C68 1.309 . S
C217 C16 1.310 . S
C241 C28 1.322 . S
C249 C56 1.309 . S
C273 C26 1.323 . S
C281 C59 1.288 . S
C305 C66 1.296 . S
C313 C19 1.308 . S
C337 C36 1.305 . S
C345 C48 1.300 . S
C369 C76 1.314 . S
C377 C8 1.300 . S
C401 C79 1.293 . S
C409 C6 1.312 . S
C433 C46 1.306 . S
C441 C39 1.308 . S
