# Generated by pormake.
# Topology wjf, (4)-cn, num edge types: 1
# Building blocks:
#     Node 0, Type 0, BuildingBlock: KUFVIS_clean_sbu_0, # of connection points: 4
#     Node 1, Type 0, BuildingBlock: KUFVIS_clean_sbu_0, # of connection points: 4
#     Node 2, Type 0, BuildingBlock: KUFVIS_clean_sbu_0, # of connection points: 4
#     Node 3, Type 0, BuildingBlock: KUFVIS_clean_sbu_0, # of connection points: 4
#     Node 4, Type 0, BuildingBlock: KUFVIS_clean_sbu_0, # of connection points: 4
#     Node 5, Type 0, BuildingBlock: KUFVIS_clean_sbu_0, # of connection points: 4
#     Node 6, Type 0, BuildingBlock: KUFVIS_clean_sbu_0, # of connection points: 4
#     Node 7, Type 0, BuildingBlock: KUFVIS_clean_sbu_0, # of connection points: 4
#     Node 8, Type 0, BuildingBlock: KUFVIS_clean_sbu_0, # of connection points: 4
#     Node 9, Type 0, BuildingBlock: KUFVIS_clean_sbu_0, # of connection points: 4
#     Node 10, Type 0, BuildingBlock: KUFVIS_clean_sbu_0, # of connection points: 4
#     Node 11, Type 0, BuildingBlock: KUFVIS_clean_sbu_0, # of connection points: 4
#     Edge 12, Type (0, 0), BuildingBlock: TEMPAE_clean_linker_10, # of connection points: 2
#     Edge 13, Type (0, 0), BuildingBlock: TEMPAE_clean_linker_10, # of connection points: 2
#     Edge 14, Type (0, 0), BuildingBlock: TEMPAE_clean_linker_10, # of connection points: 2
#     Edge 15, Type (0, 0), BuildingBlock: TEMPAE_clean_linker_10, # of connection points: 2
#     Edge 16, Type (0, 0), BuildingBlock: TEMPAE_clean_linker_10, # of connection points: 2
#     Edge 17, Type (0, 0), BuildingBlock: TEMPAE_clean_linker_10, # of connection points: 2
#     Edge 18, Type (0, 0), BuildingBlock: TEMPAE_clean_linker_10, # of connection points: 2
#     Edge 19, Type (0, 0), BuildingBlock: TEMPAE_clean_linker_10, # of connection points: 2
#     Edge 20, Type (0, 0), BuildingBlock: TEMPAE_clean_linker_10, # of connection points: 2
#     Edge 21, Type (0, 0), BuildingBlock: TEMPAE_clean_linker_10, # of connection points: 2
#     Edge 22, Type (0, 0), BuildingBlock: TEMPAE_clean_linker_10, # of connection points: 2
#     Edge 23, Type (0, 0), BuildingBlock: TEMPAE_clean_linker_10, # of connection points: 2
#     Edge 24, Type (0, 0), BuildingBlock: TEMPAE_clean_linker_10, # of connection points: 2
#     Edge 25, Type (0, 0), BuildingBlock: TEMPAE_clean_linker_10, # of connection points: 2
#     Edge 26, Type (0, 0), BuildingBlock: TEMPAE_clean_linker_10, # of connection points: 2
#     Edge 27, Type (0, 0), BuildingBlock: TEMPAE_clean_linker_10, # of connection points: 2
#     Edge 28, Type (0, 0), BuildingBlock: TEMPAE_clean_linker_10, # of connection points: 2
#     Edge 29, Type (0, 0), BuildingBlock: TEMPAE_clean_linker_10, # of connection points: 2
#     Edge 30, Type (0, 0), BuildingBlock: TEMPAE_clean_linker_10, # of connection points: 2
#     Edge 31, Type (0, 0), BuildingBlock: TEMPAE_clean_linker_10, # of connection points: 2
#     Edge 32, Type (0, 0), BuildingBlock: TEMPAE_clean_linker_10, # of connection points: 2
#     Edge 33, Type (0, 0), BuildingBlock: TEMPAE_clean_linker_10, # of connection points: 2
#     Edge 34, Type (0, 0), BuildingBlock: TEMPAE_clean_linker_10, # of connection points: 2
#     Edge 35, Type (0, 0), BuildingBlock: TEMPAE_clean_linker_10, # of connection points: 2
# Relax obj value: 0.142
# Max RMSD: 0.205
# Mean RMSD: 0.179
data_MOF--net-wjf--node1-KUFVIS_clean_sbu_0--edge1-TEMPAE_clean_linker_10
_symmetry_space_group_name_H-M    P1
_symmetry_Int_Tables_number       1
_symmetry_cell_setting            triclinic
loop_
_symmetry_equiv_pos_as_xyz
'x, y, z'
_cell_length_a     47.878115
_cell_length_b     50.747833
_cell_length_c     28.103575
_cell_angle_alpha  90.029169
_cell_angle_beta   90.015877
_cell_angle_gamma 118.19318
loop_
_atom_site_label
_atom_site_type_symbol
_atom_site_fract_x
_atom_site_fract_y
_atom_site_fract_z
_atom_type_partial_charge
Mn0 Mn 0.33724 0.39443 0.11618 0.0
Mn1 Mn 0.3454 0.45646 0.0625 0.0
C2 C 0.38771 0.43212 0.10071 0.0
C3 C 0.32843 0.36992 0.1888 0.0
C4 C 0.32505 0.39688 0.0123 0.0
O5 O 0.2929 0.39011 0.11322 0.0
O6 O 0.3053 0.43784 0.09949 0.0
C7 C 0.35274 0.49443 0.14641 0.0
N8 N 0.36392 0.49014 0.10417 0.0
C9 C 0.40914 0.53908 0.10777 0.0
C10 C 0.39804 0.54412 0.1512 0.0
C11 C 0.36979 0.52163 0.17071 0.0
C12 C 0.39129 0.51143 0.08543 0.0
H13 H 0.33096 0.47721 0.16137 0.0
C14 C 0.28499 0.41027 0.10412 0.0
O15 O 0.32106 0.35484 0.14916 0.0
O16 O 0.33964 0.39857 0.18573 0.0
N17 N 0.3834 0.47671 0.02585 0.0
C18 C 0.39152 0.46785 0.98467 0.0
C19 C 0.41934 0.48764 0.9608 0.0
C20 C 0.43825 0.51648 0.97907 0.0
C21 C 0.42941 0.52512 0.02147 0.0
C22 C 0.40144 0.50444 0.04369 0.0
H23 H 0.37683 0.44594 0.9699 0.0
O24 O 0.38324 0.40587 0.1135 0.0
O25 O 0.36277 0.43597 0.10102 0.0
O26 O 0.33197 0.38365 0.04545 0.0
O27 O 0.32698 0.42282 0.01691 0.0
C28 C 0.44719 0.55348 0.04247 0.0
C29 C 0.43726 0.56034 0.08585 0.0
H30 H 0.41108 0.56511 0.16997 0.0
H31 H 0.36113 0.52531 0.20431 0.0
H32 H 0.42602 0.4808 0.92811 0.0
H33 H 0.45947 0.5318 0.9602 0.0
H34 H 0.46857 0.57017 0.02562 0.0
H35 H 0.45142 0.58204 0.10204 0.0
Mn36 Mn 0.95698 0.33442 0.37486 0.0
Mn37 Mn 0.03577 0.37172 0.39358 0.0
C38 C 0.9911 0.35196 0.31108 0.0
C39 C 0.91117 0.28926 0.3638 0.0
C40 C 0.9923 0.39957 0.40681 0.0
O41 O 0.96121 0.32544 0.44444 0.0
O42 O 0.01445 0.34673 0.44992 0.0
C43 C 0.04825 0.31988 0.39472 0.0
N44 N 0.05405 0.34679 0.37623 0.0
C45 C 0.09282 0.34651 0.32209 0.0
C46 C 0.08747 0.31891 0.34083 0.0
C47 C 0.06497 0.30548 0.37714 0.0
C48 C 0.07524 0.35966 0.34073 0.0
H49 H 0.03094 0.30947 0.42256 0.0
C50 C 0.98658 0.33108 0.467 0.0
O51 O 0.90981 0.31296 0.37826 0.0
O52 O 0.93908 0.29157 0.35782 0.0
N53 N 0.05951 0.3966 0.34167 0.0
C54 C 0.06124 0.42286 0.32662 0.0
C55 C 0.08247 0.43905 0.29014 0.0
C56 C 0.10204 0.42834 0.27009 0.0
C57 C 0.10003 0.40139 0.28644 0.0
C58 C 0.0784 0.38621 0.32282 0.0
H59 H 0.04657 0.43143 0.3423 0.0
O60 O 0.96152 0.34504 0.30609 0.0
O61 O -0.00039 0.34751 0.3529 0.0
O62 O 0.96693 0.37715 0.39226 0.0
O63 O 0.01883 0.39938 0.41094 0.0
C64 C 0.11875 0.38908 0.26827 0.0
C65 C 0.11487 0.36147 0.28563 0.0
H66 H 0.1004 0.30778 0.32747 0.0
H67 H 0.06058 0.2841 0.39161 0.0
H68 H 0.0839 0.45983 0.27773 0.0
H69 H 0.11857 0.44105 0.24227 0.0
H70 H 0.13611 0.40057 0.24074 0.0
H71 H 0.12903 0.35199 0.27079 0.0
Mn72 Mn 0.60682 0.94626 0.74466 0.0
Mn73 Mn 0.54514 0.90137 0.6748 0.0
C74 C 0.56899 0.96021 0.72326 0.0
C75 C 0.63004 0.96196 0.81966 0.0
C76 C 0.60911 0.94313 0.63527 0.0
O77 O 0.60903 0.90724 0.7481 0.0
O78 O 0.57028 0.88171 0.69525 0.0
C79 C 0.51018 0.85946 0.75279 0.0
N80 N 0.51107 0.87794 0.71702 0.0
C81 C 0.45682 0.86609 0.73098 0.0
C82 C 0.45527 0.84687 0.76791 0.0
C83 C 0.48213 0.84366 0.779 0.0
C84 C 0.48562 0.88171 0.7068 0.0
H85 H 0.5307 0.8568 0.76123 0.0
C86 C 0.59294 0.88441 0.72222 0.0
O87 O 0.64724 0.96792 0.78145 0.0
O88 O 0.59966 0.94597 0.81435 0.0
N89 N 0.51805 0.9163 0.65062 0.0
C90 C 0.52296 0.93427 0.61211 0.0
C91 C 0.49782 0.93807 0.59393 0.0
C92 C 0.46775 0.92294 0.61499 0.0
C93 C 0.46326 0.90479 0.65483 0.0
C94 C 0.48907 0.90143 0.67081 0.0
H95 H 0.54572 0.94509 0.59476 0.0
O96 O 0.59688 0.97992 0.73732 0.0
O97 O 0.56334 0.93247 0.7236 0.0
O98 O 0.62315 0.95181 0.67544 0.0
O99 O 0.57942 0.92568 0.63036 0.0
C100 C 0.43396 0.88917 0.67838 0.0
C101 C 0.43085 0.87014 0.71687 0.0
H102 H 0.43357 0.8344 0.78785 0.0
H103 H 0.48114 0.82889 0.80746 0.0
H104 H 0.50143 0.95211 0.56312 0.0
H105 H 0.44813 0.925 0.59971 0.0
H106 H 0.41364 0.89157 0.66708 0.0
H107 H 0.40824 0.85831 0.73482 0.0
Mn108 Mn 0.6665 0.61071 0.13722 0.0
Mn109 Mn 0.6612 0.55036 0.08148 0.0
C110 C 0.61663 0.57234 0.11965 0.0
C111 C 0.67421 0.6339 0.21094 0.0
C112 C 0.6797 0.61024 0.03348 0.0
O113 O 0.71163 0.61683 0.13376 0.0
O114 O 0.70005 0.5694 0.12117 0.0
C115 C 0.65337 0.5114 0.16418 0.0
N116 N 0.64278 0.51593 0.12157 0.0
C117 C 0.59869 0.46625 0.12217 0.0
C118 C 0.60919 0.46097 0.16594 0.0
C119 C 0.63657 0.4837 0.18715 0.0
C120 C 0.61622 0.49439 0.1012 0.0
H121 H 0.67447 0.52879 0.18049 0.0
C122 C 0.72008 0.59709 0.12435 0.0
O123 O 0.68114 0.64957 0.17195 0.0
O124 O 0.66404 0.60544 0.20658 0.0
N125 N 0.62427 0.52969 0.0426 0.0
C126 C 0.61672 0.53867 0.00104 0.0
C127 C 0.58987 0.51859 0.97543 0.0
C128 C 0.57136 0.48936 0.99236 0.0
C129 C 0.57959 0.48058 0.03514 0.0
C130 C 0.60663 0.50156 0.05911 0.0
H131 H 0.63115 0.56088 0.98723 0.0
O132 O 0.62014 0.59792 0.13441 0.0
O133 O 0.64204 0.56929 0.11981 0.0
O134 O 0.67156 0.62239 0.0669 0.0
O135 O 0.67942 0.58493 0.03752 0.0
C136 C 0.56213 0.4518 0.05485 0.0
C137 C 0.57147 0.44474 0.09858 0.0
H138 H 0.59637 0.43959 0.18367 0.0
H139 H 0.64477 0.47983 0.22101 0.0
H140 H 0.58367 0.52553 0.94243 0.0
H141 H 0.55096 0.47381 0.9721 0.0
H142 H 0.54137 0.43494 0.03684 0.0
H143 H 0.55755 0.4227 0.11372 0.0
Mn144 Mn 0.04326 0.66891 0.38512 0.0
Mn145 Mn 0.96418 0.63358 0.40161 0.0
C146 C 0.00984 0.65379 0.32029 0.0
C147 C 0.09052 0.71313 0.37758 0.0
C148 C 0.00541 0.60326 0.41324 0.0
O149 O 0.03861 0.67667 0.45508 0.0
O150 O 0.98551 0.65732 0.45904 0.0
C151 C 0.95406 0.68678 0.40476 0.0
N152 N 0.94741 0.65988 0.38524 0.0
C153 C 0.9094 0.66212 0.33166 0.0
C154 C 0.91564 0.68973 0.35144 0.0
C155 C 0.9382 0.70219 0.38797 0.0
C156 C 0.92623 0.64798 0.34944 0.0
H157 H 0.97139 0.69642 0.43283 0.0
C158 C 0.01328 0.67177 0.47704 0.0
O159 O 0.09025 0.68841 0.39035 0.0
O160 O 0.06334 0.71235 0.37094 0.0
N161 N 0.94035 0.60995 0.34864 0.0
C162 C 0.93756 0.58343 0.33274 0.0
C163 C 0.91598 0.56803 0.29618 0.0
C164 C 0.8971 0.57974 0.27695 0.0
C165 C 0.90023 0.60697 0.29407 0.0
C166 C 0.92219 0.62135 0.33049 0.0
H167 H 0.9516 0.57402 0.34792 0.0
O168 O 0.03922 0.65989 0.31573 0.0
O169 O 0.00116 0.65774 0.3623 0.0
O170 O 0.03132 0.62541 0.39978 0.0
O171 O 0.97943 0.60445 0.41784 0.0
C172 C 0.88224 0.62028 0.27676 0.0
C173 C 0.88712 0.64803 0.29506 0.0
H174 H 0.90332 0.70161 0.33876 0.0
H175 H 0.94327 0.72357 0.40326 0.0
H176 H 0.91368 0.54702 0.28317 0.0
H177 H 0.88017 0.56755 0.24922 0.0
H178 H 0.86467 0.60943 0.24919 0.0
H179 H 0.87351 0.65826 0.28088 0.0
Mn180 Mn 0.37296 0.04875 0.74828 0.0
Mn181 Mn 0.43534 0.10035 0.68691 0.0
C182 C 0.41467 0.03966 0.72997 0.0
C183 C 0.34934 0.03249 0.82302 0.0
C184 C 0.37244 0.05744 0.64103 0.0
O185 O 0.36585 0.08525 0.74879 0.0
O186 O 0.41223 0.11946 0.71753 0.0
C187 C 0.47308 0.13587 0.769 0.0
N188 N 0.47061 0.11981 0.72893 0.0
C189 C 0.52458 0.12923 0.73626 0.0
C190 C 0.5278 0.14601 0.7775 0.0
C191 C 0.50187 0.1492 0.79407 0.0
C192 C 0.49517 0.11607 0.71324 0.0
H193 H 0.45322 0.13846 0.78167 0.0
C194 C 0.38528 0.11191 0.73659 0.0
O195 O 0.33247 0.02434 0.78426 0.0
O196 O 0.37924 0.05073 0.81809 0.0
N197 N 0.46045 0.08577 0.65466 0.0
C198 C 0.45347 0.06914 0.61406 0.0
C199 C 0.47708 0.06446 0.59205 0.0
C200 C 0.50774 0.07744 0.61143 0.0
C201 C 0.51441 0.09454 0.65315 0.0
C202 C 0.48996 0.09852 0.67338 0.0
H203 H 0.43017 0.05974 0.59828 0.0
O204 O 0.38772 0.01813 0.74375 0.0
O205 O 0.41702 0.06625 0.72997 0.0
O206 O 0.35911 0.04176 0.67804 0.0
O207 O 0.39995 0.08039 0.64141 0.0
C208 C 0.54448 0.1082 0.67503 0.0
C209 C 0.54944 0.12518 0.71693 0.0
H210 H 0.55006 0.15653 0.79671 0.0
H211 H 0.50414 0.16205 0.82594 0.0
H212 H 0.47178 0.05128 0.55982 0.0
H213 H 0.52608 0.07442 0.59365 0.0
H214 H 0.56396 0.10577 0.66002 0.0
H215 H 0.57255 0.13527 0.73372 0.0
Mn216 Mn 0.62493 0.66156 0.63999 0.0
Mn217 Mn 0.66835 0.62619 0.62154 0.0
C218 C 0.64158 0.6441 0.70367 0.0
C219 C 0.62236 0.70569 0.65194 0.0
C220 C 0.59712 0.59687 0.60611 0.0
O221 O 0.6392 0.67192 0.57114 0.0
O222 O 0.67178 0.65134 0.5655 0.0
C223 C 0.73198 0.67914 0.62188 0.0
N224 N 0.71124 0.65192 0.63986 0.0
C225 C 0.75029 0.65312 0.69494 0.0
C226 C 0.77217 0.68105 0.67675 0.0
C227 C 0.76291 0.69418 0.6402 0.0
C228 C 0.71974 0.6393 0.6755 0.0
H229 H 0.72494 0.68934 0.59388 0.0
C230 C 0.65941 0.66693 0.5487 0.0
O231 O 0.59806 0.68174 0.63615 0.0
O232 O 0.64837 0.70423 0.65882 0.0
N233 N 0.6675 0.60138 0.67335 0.0
C234 C 0.64321 0.57487 0.68817 0.0
C235 C 0.64842 0.55902 0.725 0.0
C236 C 0.67861 0.57034 0.7457 0.0
C237 C 0.70328 0.59756 0.72965 0.0
C238 C 0.69667 0.61239 0.6929 0.0
H239 H 0.62004 0.56589 0.67206 0.0
O240 O 0.61808 0.64988 0.70827 0.0
O241 O 0.65511 0.64942 0.66222 0.0
O242 O 0.59339 0.61883 0.62065 0.0
O243 O 0.62417 0.59767 0.603 0.0
C244 C 0.73418 0.61055 0.74859 0.0
C245 C 0.75756 0.63848 0.73169 0.0
H246 H 0.79607 0.69269 0.69072 0.0
H247 H 0.7796 0.71581 0.62615 0.0
H248 H 0.62925 0.53804 0.73724 0.0
H249 H 0.68255 0.55793 0.77391 0.0
H250 H 0.74018 0.59933 0.7764 0.0
H251 H 0.78108 0.64847 0.74715 0.0
Mn252 Mn 0.9468 0.61337 0.8885 0.0
Mn253 Mn 0.89227 0.55364 0.9458 0.0
C254 C 0.95768 0.57446 0.90476 0.0
C255 C 0.9617 0.63643 0.81468 0.0
C256 C 0.93451 0.61393 0.99221 0.0
O257 O 0.90784 0.61965 0.8934 0.0
O258 O 0.87204 0.57211 0.90595 0.0
C259 C 0.85991 0.51335 0.86484 0.0
N260 N 0.87576 0.51862 0.90693 0.0
C261 C 0.87066 0.46914 0.90745 0.0
C262 C 0.85414 0.4631 0.86422 0.0
C263 C 0.84888 0.48536 0.84271 0.0
C264 C 0.88135 0.49753 0.92757 0.0
H265 H 0.85574 0.53038 0.8483 0.0
C266 C 0.8796 0.59977 0.90264 0.0
O267 O 0.97101 0.6521 0.85365 0.0
O268 O 0.94309 0.60801 0.8191 0.0
N269 N 0.90937 0.53374 0.98469 0.0
C270 C 0.92667 0.54345 0.02553 0.0
C271 C 0.9342 0.52395 0.05124 0.0
C272 C 0.92346 0.49453 0.03518 0.0
C273 C 0.90562 0.48499 0.99316 0.0
C274 C 0.89888 0.50543 0.969 0.0
H275 H 0.9345 0.5658 0.03872 0.0
O276 O 0.97999 0.59992 0.88995 0.0
O277 O 0.92954 0.57205 0.90589 0.0
O278 O 0.95462 0.62538 0.95847 0.0
O279 O 0.90911 0.58883 0.9888 0.0
C280 C 0.89413 0.45595 0.97443 0.0
C281 C 0.87701 0.44814 0.93131 0.0
H282 H 0.8455 0.44151 0.84713 0.0
H283 H 0.83625 0.48092 0.80925 0.0
H284 H 0.94797 0.53148 0.08365 0.0
H285 H 0.92903 0.47947 0.05543 0.0
H286 H 0.89836 0.43946 0.99287 0.0
H287 H 0.86877 0.42589 0.91688 0.0
Mn288 Mn 0.33449 0.94577 0.22284 0.0
Mn289 Mn 0.36512 0.91712 0.30374 0.0
C290 C 0.38832 0.96051 0.22141 0.0
C291 C 0.3132 0.94662 0.14814 0.0
C292 C 0.34988 0.96676 0.32694 0.0
O293 O 0.29504 0.90899 0.24518 0.0
O294 O 0.3181 0.89427 0.30148 0.0
C295 C 0.34684 0.85898 0.25678 0.0
N296 N 0.3693 0.8845 0.27739 0.0
C297 C 0.40659 0.86528 0.27989 0.0
C298 C 0.38389 0.83876 0.25855 0.0
C299 C 0.35399 0.83572 0.24655 0.0
C300 C 0.39835 0.88792 0.28809 0.0
H301 H 0.32356 0.85629 0.24881 0.0
C302 C 0.29369 0.89183 0.27917 0.0
O303 O 0.30905 0.96008 0.18465 0.0
O304 O 0.32782 0.93107 0.15591 0.0
N305 N 0.41002 0.93589 0.31215 0.0
C306 C 0.42954 0.96335 0.33066 0.0
C307 C 0.46042 0.9702 0.34444 0.0
C308 C 0.471 0.94885 0.33882 0.0
C309 C 0.45041 0.92066 0.31993 0.0
C310 C 0.41985 0.91507 0.30707 0.0
H311 H 0.4214 0.97969 0.33556 0.0
O312 O 0.37702 0.97735 0.20474 0.0
O313 O 0.36773 0.93503 0.24008 0.0
O314 O 0.33697 0.96682 0.28717 0.0
O315 O 0.36239 0.95004 0.33547 0.0
C316 C 0.45888 0.89778 0.31362 0.0
C317 C 0.43704 0.87016 0.29339 0.0
H318 H 0.38916 0.82062 0.2512 0.0
H319 H 0.33633 0.81531 0.23019 0.0
H320 H 0.47586 0.99175 0.36003 0.0
H321 H 0.49488 0.95428 0.34944 0.0
H322 H 0.4823 0.90137 0.32349 0.0
H323 H 0.44401 0.85294 0.28795 0.0
Mn324 Mn 0.36545 0.33355 0.61813 0.0
Mn325 Mn 0.33002 0.37634 0.5996 0.0
C326 C 0.35321 0.35482 0.68156 0.0
C327 C 0.3616 0.28688 0.63207 0.0
C328 C 0.40046 0.39863 0.58484 0.0
O329 O 0.35001 0.32352 0.5498 0.0
O330 O 0.32417 0.35069 0.5431 0.0
C331 C 0.26364 0.32786 0.59814 0.0
N332 N 0.28638 0.35396 0.61694 0.0
C333 C 0.2492 0.35638 0.67201 0.0
C334 C 0.22531 0.32965 0.65302 0.0
C335 C 0.23261 0.31527 0.61604 0.0
C336 C 0.27972 0.36775 0.65295 0.0
H337 H 0.26915 0.3167 0.5698 0.0
C338 C 0.33279 0.33208 0.52672 0.0
O339 O 0.38731 0.30852 0.61444 0.0
O340 O 0.33781 0.29192 0.63899 0.0
N341 N 0.33344 0.40203 0.65162 0.0
C342 C 0.35933 0.42731 0.66669 0.0
C343 C 0.35611 0.44428 0.70368 0.0
C344 C 0.32626 0.43534 0.7243 0.0
C345 C 0.29992 0.40939 0.70794 0.0
C346 C 0.30457 0.39339 0.67096 0.0
H347 H 0.38229 0.43448 0.65067 0.0
O348 O 0.37437 0.34591 0.68593 0.0
O349 O 0.33931 0.3504 0.64046 0.0
O350 O 0.40072 0.37459 0.59761 0.0
O351 O 0.37523 0.40133 0.58255 0.0
C352 C 0.2692 0.39882 0.72673 0.0
C353 C 0.24393 0.37217 0.70916 0.0
H354 H 0.20134 0.31991 0.66665 0.0
H355 H 0.21434 0.29456 0.60134 0.0
H356 H 0.37655 0.46429 0.7161 0.0
H357 H 0.32386 0.44863 0.75257 0.0
H358 H 0.26477 0.41095 0.75486 0.0
H359 H 0.22052 0.36405 0.7244 0.0
Mn360 Mn 0.05247 0.39148 0.87815 0.0
Mn361 Mn 0.10685 0.45228 0.93389 0.0
C362 C 0.04052 0.42972 0.89436 0.0
C363 C 0.0375 0.36786 0.80456 0.0
C364 C 0.06552 0.3924 0.98213 0.0
O365 O 0.09178 0.38583 0.88292 0.0
O366 O 0.12717 0.43355 0.8948 0.0
C367 C 0.13832 0.49128 0.85135 0.0
N368 N 0.12296 0.48668 0.89376 0.0
C369 C 0.12907 0.53652 0.89344 0.0
C370 C 0.1451 0.54187 0.84987 0.0
C371 C 0.14959 0.51908 0.82861 0.0
C372 C 0.11805 0.50825 0.91412 0.0
H373 H 0.14197 0.47386 0.83506 0.0
C374 C 0.11992 0.40598 0.89185 0.0
O375 O 0.02865 0.35241 0.84375 0.0
O376 O 0.05567 0.39637 0.80864 0.0
N377 N 0.0901 0.47275 0.97214 0.0
C378 C 0.07307 0.46363 0.01326 0.0
C379 C 0.06629 0.48371 0.03878 0.0
C380 C 0.07755 0.51309 0.02227 0.0
C381 C 0.09499 0.522 0.97988 0.0
C382 C 0.10095 0.50099 0.95591 0.0
H383 H 0.06494 0.44131 0.02681 0.0
O384 O 0.01864 0.40398 0.87973 0.0
O385 O 0.06905 0.43297 0.89492 0.0
O386 O 0.04541 0.38009 0.94852 0.0
O387 O 0.0905 0.41778 0.97811 0.0
C388 C 0.10686 0.55094 0.96058 0.0
C389 C 0.12355 0.55808 0.91712 0.0
H390 H 0.15397 0.56334 0.83235 0.0
H391 H 0.16185 0.523 0.79491 0.0
H392 H 0.05278 0.47666 0.07145 0.0
H393 H 0.07271 0.52864 0.04251 0.0
H394 H 0.10316 0.56787 0.97871 0.0
H395 H 0.13206 0.58025 0.90224 0.0
Mn396 Mn 0.67225 0.0432 0.22919 0.0
Mn397 Mn 0.64715 0.06637 0.32545 0.0
C398 C 0.61779 0.02245 0.24118 0.0
C399 C 0.68581 0.04518 0.14881 0.0
C400 C 0.67633 0.02504 0.33084 0.0
O401 O 0.71109 0.08262 0.24629 0.0
O402 O 0.69003 0.09682 0.30629 0.0
C403 C 0.64202 0.11802 0.28617 0.0
N404 N 0.62955 0.09222 0.31172 0.0
C405 C 0.5868 0.10029 0.34019 0.0
C406 C 0.59909 0.12699 0.31404 0.0
C407 C 0.62672 0.1358 0.28671 0.0
C408 C 0.60304 0.08355 0.33818 0.0
H409 H 0.66363 0.12503 0.26607 0.0
C410 C 0.71291 0.10105 0.27858 0.0
O411 O 0.69617 0.03339 0.18057 0.0
O412 O 0.66961 0.05794 0.16432 0.0
N413 N 0.60662 0.04001 0.35131 0.0
C414 C 0.5954 0.01157 0.36766 0.0
C415 C 0.56693 0.99837 0.39355 0.0
C416 C 0.55068 0.01476 0.40295 0.0
C417 C 0.56274 0.04404 0.38559 0.0
C418 C 0.59118 0.05599 0.36013 0.0
H419 H 0.60833 0.99927 0.36142 0.0
O420 O 0.63055 0.00849 0.21882 0.0
O421 O 0.63776 0.04849 0.25968 0.0
O422 O 0.67975 0.02229 0.28664 0.0
O423 O 0.66461 0.04083 0.3476 0.0
C424 C 0.54682 0.06125 0.39021 0.0
C425 C 0.55874 0.08927 0.36729 0.0
H426 H 0.58737 0.14075 0.31432 0.0
H427 H 0.63633 0.15637 0.2665 0.0
H428 H 0.55768 0.97572 0.40662 0.0
H429 H 0.52859 0.00439 0.42255 0.0
H430 H 0.52475 0.05263 0.40976 0.0
H431 H 0.54575 0.10183 0.36984 0.0
C432 C 0.34108 0.37477 0.27472 0.0
C433 C 0.326 0.35607 0.23589 0.0
C434 C 0.33928 0.36318 0.32028 0.0
C435 C 0.32169 0.33195 0.32763 0.0
C436 C 0.30692 0.3127 0.28849 0.0
C437 C 0.30931 0.32504 0.2428 0.0
C438 C 0.35576 0.38464 0.36079 0.0
C439 C 0.28789 0.27932 0.29497 0.0
C440 C 0.34502 0.31684 0.44804 0.0
C441 C 0.32451 0.32253 0.47672 0.0
C442 C 0.34197 0.31589 0.39827 0.0
C443 C 0.31779 0.32058 0.37719 0.0
C444 C 0.29454 0.32214 0.40635 0.0
C445 C 0.29832 0.32334 0.45584 0.0
C446 C 0.36687 0.31355 0.36839 0.0
C447 C 0.26788 0.32634 0.38539 0.0
H448 H 0.35442 0.39875 0.26962 0.0
H449 H 0.2977 0.31051 0.21282 0.0
H450 H 0.338 0.38358 0.38712 0.0
H451 H 0.37214 0.37829 0.3794 0.0
H452 H 0.36958 0.40814 0.34852 0.0
H453 H 0.28379 0.26721 0.2606 0.0
H454 H 0.29988 0.27095 0.31986 0.0
H455 H 0.26451 0.27392 0.31054 0.0
H456 H 0.36508 0.3158 0.46403 0.0
H457 H 0.2819 0.32695 0.478 0.0
H458 H 0.38476 0.33628 0.3571 0.0
H459 H 0.3563 0.30016 0.3358 0.0
H460 H 0.37923 0.3033 0.38861 0.0
H461 H 0.27721 0.34994 0.37398 0.0
H462 H 0.24861 0.32115 0.4116 0.0
H463 H 0.25779 0.31197 0.35359 0.0
C464 C 0.96206 0.32286 0.54771 0.0
C465 C 0.98462 0.32178 0.51719 0.0
C466 C 0.9656 0.32255 0.59732 0.0
C467 C 0.99207 0.32076 0.61637 0.0
C468 C 0.01238 0.31564 0.58556 0.0
C469 C 0.00861 0.31653 0.53626 0.0
C470 C 0.94328 0.32788 0.62888 0.0
C471 C 0.04046 0.31291 0.60428 0.0
C472 C 0.03502 0.37365 0.71734 0.0
C473 C 0.0262 0.35463 0.75694 0.0
C474 C 0.02368 0.36276 0.67186 0.0
C475 C 0.00315 0.33184 0.66536 0.0
C476 C 0.99433 0.31228 0.70498 0.0
C477 C 0.00587 0.32397 0.75057 0.0
C478 C 0.03375 0.38454 0.63071 0.0
C479 C 0.97269 0.27919 0.69921 0.0
H480 H 0.94337 0.32675 0.53307 0.0
H481 H 0.02575 0.31509 0.51267 0.0
H482 H 0.9381 0.3146 0.66208 0.0
H483 H 0.95457 0.35186 0.63903 0.0
H484 H 0.92059 0.32222 0.61046 0.0
H485 H 0.04947 0.3026 0.57761 0.0
H486 H 0.05988 0.33551 0.61297 0.0
H487 H 0.03425 0.29938 0.63732 0.0
H488 H 0.05063 0.39739 0.72183 0.0
H489 H 0.99889 0.30919 0.7811 0.0
H490 H 0.0126 0.38343 0.6127 0.0
H491 H 0.04689 0.37852 0.60409 0.0
H492 H 0.04916 0.40799 0.64217 0.0
H493 H 0.9492 0.27533 0.68612 0.0
H494 H 0.96932 0.26681 0.73312 0.0
H495 H 0.98244 0.2698 0.6722 0.0
C496 C 0.62514 0.96395 0.90784 0.0
C497 C 0.64377 0.97465 0.86678 0.0
C498 C 0.6363 0.97746 0.95228 0.0
C499 C 0.66678 0.0026 0.95585 0.0
C500 C 0.68607 0.0131 0.91474 0.0
C501 C 0.67439 0.99888 0.87068 0.0
C502 C 0.61509 0.96524 0.9953 0.0
C503 C 0.71856 0.03994 0.917 0.0
C504 C 0.67377 0.05045 0.06367 0.0
C505 C 0.68735 0.03949 0.09732 0.0
C506 C 0.66895 0.04014 0.01641 0.0
C507 C 0.67765 0.01816 0.00255 0.0
C508 C 0.69339 0.00861 0.03549 0.0
C509 C 0.69818 0.0195 0.0824 0.0
C510 C 0.65257 0.0513 0.98222 0.0
C511 C 0.70304 0.98521 0.0223 0.0
H512 H 0.6015 0.94518 0.90516 0.0
H513 H 0.68884 0.0074 0.83903 0.0
H514 H 0.62765 0.95999 0.02393 0.0
H515 H 0.60905 0.98233 0.00945 0.0
H516 H 0.59271 0.94469 0.98697 0.0
H517 H 0.7314 0.04415 0.88261 0.0
H518 H 0.71633 0.06008 0.92657 0.0
H519 H 0.73301 0.03685 0.94513 0.0
H520 H 0.66546 0.06599 0.07478 0.0
H521 H 0.70875 0.01092 0.10809 0.0
H522 H 0.62811 0.03328 0.97543 0.0
H523 H 0.66514 0.05728 0.94757 0.0
H524 H 0.65118 0.0711 0.99633 0.0
H525 H 0.68152 0.96321 0.01852 0.0
H526 H 0.71865 0.98311 0.0496 0.0
H527 H 0.71551 0.99054 0.98758 0.0
C528 C 0.68701 0.67757 0.26562 0.0
C529 C 0.67575 0.64682 0.25863 0.0
C530 C 0.68714 0.68901 0.31138 0.0
C531 C 0.67566 0.66914 0.35055 0.0
C532 C 0.66417 0.63812 0.34337 0.0
C533 C 0.66451 0.62745 0.29772 0.0
C534 C 0.69987 0.72223 0.31788 0.0
C535 C 0.65151 0.61599 0.38399 0.0
C536 C 0.6963 0.68193 0.47977 0.0
C537 C 0.66722 0.67708 0.49894 0.0
C538 C 0.70118 0.68371 0.43049 0.0
C539 C 0.67612 0.67995 0.39983 0.0
C540 C 0.64823 0.67878 0.41917 0.0
C541 C 0.64414 0.6775 0.46876 0.0
C542 C 0.73162 0.68577 0.41145 0.0
C543 C 0.62107 0.67507 0.38771 0.0
H544 H 0.69567 0.69262 0.23548 0.0
H545 H 0.6556 0.60364 0.29272 0.0
H546 H 0.68317 0.72688 0.33916 0.0
H547 H 0.72254 0.73151 0.33783 0.0
H548 H 0.70419 0.73414 0.28332 0.0
H549 H 0.64257 0.59251 0.37195 0.0
H550 H 0.67046 0.62107 0.41069 0.0
H551 H 0.63188 0.61776 0.40211 0.0
H552 H 0.71452 0.68232 0.50312 0.0
H553 H 0.62173 0.67405 0.48348 0.0
H554 H 0.73949 0.69988 0.37905 0.0
H555 H 0.72762 0.66307 0.40157 0.0
H556 H 0.7509 0.69508 0.43836 0.0
H557 H 0.6298 0.68885 0.35507 0.0
H558 H 0.60463 0.68126 0.40664 0.0
H559 H 0.60752 0.65132 0.37656 0.0
C560 C 0.9939 0.67983 0.7604 0.0
C561 C 0.97306 0.64931 0.76698 0.0
C562 C 0.00562 0.69118 0.71479 0.0
C563 C 0.99638 0.67143 0.67537 0.0
C564 C 0.97531 0.64066 0.68206 0.0
C565 C 0.96385 0.63009 0.72758 0.0
C566 C 0.02778 0.72414 0.70873 0.0
C567 C 0.96483 0.61869 0.6411 0.0
C568 C 0.99147 0.68664 0.54617 0.0
C569 C 0.0151 0.68078 0.52735 0.0
C570 C 0.98767 0.6877 0.5954 0.0
C571 C 0.00762 0.68219 0.62639 0.0
C572 C 0.03377 0.67973 0.6076 0.0
C573 C 0.03733 0.67923 0.55805 0.0
C574 C 0.95993 0.69108 0.61386 0.0
C575 C 0.05568 0.67396 0.6394 0.0
H576 H 0.00115 0.69475 0.79079 0.0
H577 H 0.94784 0.60646 0.73227 0.0
H578 H 0.05047 0.72754 0.69292 0.0
H579 H 0.0173 0.73398 0.68375 0.0
H580 H 0.03288 0.73647 0.74301 0.0
H581 H 0.949 0.59538 0.65271 0.0
H582 H 0.95199 0.62496 0.61429 0.0
H583 H 0.98578 0.61927 0.62324 0.0
H584 H 0.97462 0.68848 0.52243 0.0
H585 H 0.05578 0.67492 0.54359 0.0
H586 H 0.96631 0.70467 0.64687 0.0
H587 H 0.94016 0.66867 0.62251 0.0
H588 H 0.95131 0.70164 0.58705 0.0
H589 H 0.06106 0.68734 0.67256 0.0
H590 H 0.07828 0.67916 0.62114 0.0
H591 H 0.04394 0.64999 0.64963 0.0
C592 C 0.2951 0.97316 0.09036 0.0
C593 C 0.30661 0.95277 0.09888 0.0
C594 C 0.29542 0.98415 0.04428 0.0
C595 C 0.30779 0.97472 0.00596 0.0
C596 C 0.31692 0.95227 0.01379 0.0
C597 C 0.3161 0.9415 0.06006 0.0
C598 C 0.28484 0.00757 0.03739 0.0
C599 C 0.3302 0.94148 0.97405 0.0
C600 C 0.30573 0.99594 0.87607 0.0
C601 C 0.33639 0.01988 0.87057 0.0
C602 C 0.29533 0.98171 0.9205 0.0
C603 C 0.31619 0.99153 0.96006 0.0
C604 C 0.3466 0.01654 0.95502 0.0
C605 C 0.35622 0.0304 0.91055 0.0
C606 C 0.26257 0.95543 0.92459 0.0
C607 C 0.36968 0.0279 0.99613 0.0
H608 H 0.28747 0.98183 0.12005 0.0
H609 H 0.32481 0.92558 0.06616 0.0
H610 H 0.30596 0.02986 0.03384 0.0
H611 H 0.2707 0.0033 0.00429 0.0
H612 H 0.2705 0.00836 0.0679 0.0
H613 H 0.33242 0.92142 0.98444 0.0
H614 H 0.31498 0.93601 0.94196 0.0
H615 H 0.35405 0.95952 0.96417 0.0
H616 H 0.29023 0.98768 0.84539 0.0
H617 H 0.37988 0.04901 0.90684 0.0
H618 H 0.25043 0.95751 0.95689 0.0
H619 H 0.2644 0.93453 0.92815 0.0
H620 H 0.24772 0.95331 0.89296 0.0
H621 H 0.35865 0.0329 0.02714 0.0
H622 H 0.39186 0.04841 0.9869 0.0
H623 H 0.37596 0.01038 0.00729 0.0
C624 C 0.17434 0.41418 0.9099 0.0
C625 C 0.14154 0.39693 0.91528 0.0
C626 C 0.19522 0.41116 0.94174 0.0
C627 C 0.18283 0.39145 0.98101 0.0
C628 C 0.14976 0.3729 0.98516 0.0
C629 C 0.12952 0.37542 0.95154 0.0
C630 C 0.23046 0.43043 0.93505 0.0
C631 C 0.13558 0.35225 0.02714 0.0
C632 C 0.24205 0.37697 0.05006 0.0
C633 C 0.25352 0.40067 0.08286 0.0
C634 C 0.21807 0.37285 0.0177 0.0
C635 C 0.20445 0.3922 0.01947 0.0
C636 C 0.21381 0.41431 0.05555 0.0
C637 C 0.23879 0.41873 0.08623 0.0
C638 C 0.20953 0.34964 0.97899 0.0
C639 C 0.19891 0.43463 0.05968 0.0
H640 H 0.18357 0.43096 0.8821 0.0
H641 H 0.10411 0.3624 0.9563 0.0
H642 H 0.23974 0.4481 0.96278 0.0
H643 H 0.24293 0.41688 0.93911 0.0
H644 H 0.23627 0.44136 0.89957 0.0
H645 H 0.10973 0.33734 0.02278 0.0
H646 H 0.14747 0.33829 0.03255 0.0
H647 H 0.13933 0.36575 0.05991 0.0
H648 H 0.25382 0.36331 0.0466 0.0
H649 H 0.24781 0.43716 0.11132 0.0
H650 H 0.21989 0.361 0.9448 0.0
H651 H 0.18348 0.33691 0.97414 0.0
H652 H 0.2187 0.33365 0.98665 0.0
H653 H 0.20683 0.45065 0.02956 0.0
H654 H 0.2055 0.44755 0.09346 0.0
H655 H 0.1727 0.42148 0.05773 0.0
C656 C 0.88405 0.23465 0.34566 0.0
C657 C 0.88243 0.26136 0.35118 0.0
C658 C 0.85742 0.20823 0.33141 0.0
C659 C 0.82866 0.20869 0.3216 0.0
C660 C 0.827 0.23569 0.32655 0.0
C661 C 0.85385 0.26167 0.34177 0.0
C662 C 0.8599 0.17972 0.32771 0.0
C663 C 0.79681 0.23711 0.31597 0.0
C664 C 0.76426 0.14419 0.25165 0.0
C665 C 0.74339 0.12787 0.28823 0.0
C666 C 0.79225 0.17071 0.26183 0.0
C667 C 0.79967 0.18047 0.30969 0.0
C668 C 0.77908 0.16344 0.34671 0.0
C669 C 0.75112 0.13757 0.33547 0.0
C670 C 0.81348 0.18861 0.22145 0.0
C671 C 0.78644 0.17262 0.39827 0.0
H672 H 0.90614 0.23433 0.35287 0.0
H673 H 0.85262 0.28236 0.3454 0.0
H674 H 0.84328 0.16295 0.3532 0.0
H675 H 0.85297 0.17003 0.29154 0.0
H676 H 0.88423 0.18332 0.33532 0.0
H677 H 0.80002 0.26022 0.3185 0.0
H678 H 0.78825 0.22837 0.27969 0.0
H679 H 0.77803 0.22275 0.34136 0.0
H680 H 0.75824 0.13673 0.21515 0.0
H681 H 0.73524 0.12471 0.36395 0.0
H682 H 0.83776 0.19159 0.22685 0.0
H683 H 0.81531 0.21124 0.22082 0.0
H684 H 0.80459 0.17781 0.18634 0.0
H685 H 0.81013 0.17528 0.40776 0.0
H686 H 0.76863 0.1561 0.42289 0.0
H687 H 0.78717 0.19457 0.40399 0.0
C688 C 0.60434 0.84472 0.75564 0.0
C689 C 0.60296 0.86135 0.71692 0.0
C690 C 0.60948 0.81991 0.74828 0.0
C691 C 0.61378 0.81219 0.7013 0.0
C692 C 0.61409 0.8301 0.66256 0.0
C693 C 0.60839 0.85428 0.67086 0.0
C694 C 0.60881 0.80115 0.79033 0.0
C695 C 0.61915 0.82303 0.61205 0.0
C696 C 0.64756 0.75934 0.67647 0.0
C697 C 0.62017 0.73293 0.66446 0.0
C698 C 0.64581 0.78516 0.68986 0.0
C699 C 0.61592 0.78442 0.69169 0.0
C700 C 0.58814 0.75767 0.68035 0.0
C701 C 0.59062 0.73228 0.66658 0.0
C702 C 0.67598 0.8134 0.70095 0.0
C703 C 0.55581 0.756 0.68206 0.0
H704 H 0.59991 0.85023 0.79116 0.0
H705 H 0.60752 0.86744 0.64103 0.0
H706 H 0.5877 0.77878 0.78778 0.0
H707 H 0.63001 0.79769 0.79018 0.0
H708 H 0.60787 0.81151 0.82473 0.0
H709 H 0.62136 0.84066 0.58659 0.0
H710 H 0.64086 0.82044 0.60972 0.0
H711 H 0.5989 0.80152 0.60082 0.0
H712 H 0.67048 0.75994 0.67504 0.0
H713 H 0.56935 0.71184 0.65784 0.0
H714 H 0.67427 0.82212 0.73642 0.0
H715 H 0.67949 0.83089 0.67444 0.0
H716 H 0.69714 0.80981 0.7005 0.0
H717 H 0.55196 0.76365 0.71727 0.0
H718 H 0.53641 0.73301 0.67548 0.0
H719 H 0.55433 0.77112 0.65483 0.0
C720 C 0.76627 0.58947 0.10292 0.0
C721 C 0.75081 0.60692 0.10048 0.0
C722 C 0.79032 0.59379 0.07045 0.0
C723 C 0.79795 0.61514 0.03353 0.0
C724 C 0.78358 0.63388 0.03251 0.0
C725 C 0.76065 0.62997 0.0667 0.0
C726 C 0.80596 0.57406 0.0737 0.0
C727 C 0.7902 0.65615 0.99288 0.0
C728 C 0.87112 0.63174 0.96112 0.0
C729 C 0.8584 0.60928 0.92627 0.0
C730 C 0.85162 0.63473 0.99553 0.0
C731 C 0.81855 0.61565 0.99367 0.0
C732 C 0.80534 0.59499 0.95569 0.0
C733 C 0.82553 0.59161 0.92295 0.0
C734 C 0.86669 0.65638 0.03616 0.0
C735 C 0.77006 0.57491 0.95156 0.0
H736 H 0.75852 0.57154 0.1288 0.0
H737 H 0.74836 0.6432 0.06413 0.0
H738 H 0.79657 0.55691 0.0452 0.0
H739 H 0.83192 0.58735 0.06841 0.0
H740 H 0.80148 0.56245 0.10857 0.0
H741 H 0.7798 0.67123 9e-05 0.0
H742 H 0.81607 0.66993 0.98725 0.0
H743 H 0.77992 0.64394 0.95922 0.0
H744 H 0.89661 0.64511 0.96432 0.0
H745 H 0.81574 0.57412 0.89627 0.0
H746 H 0.86401 0.64368 0.0695 0.0
H747 H 0.85464 0.67019 0.04165 0.0
H748 H 0.89234 0.67143 0.03014 0.0
H749 H 0.76237 0.55704 0.97885 0.0
H750 H 0.7633 0.56419 0.91596 0.0
H751 H 0.75699 0.58769 0.9581 0.0
C752 C 0.14777 0.73844 0.35565 0.0
C753 C 0.12038 0.74046 0.36719 0.0
C754 C 0.17548 0.76378 0.34114 0.0
C755 C 0.17597 0.79189 0.33926 0.0
C756 C 0.14864 0.79419 0.35227 0.0
C757 C 0.12101 0.76834 0.36552 0.0
C758 C 0.20401 0.76037 0.32684 0.0
C759 C 0.14855 0.8239 0.35198 0.0
C760 C 0.25768 0.85925 0.34246 0.0
C761 C 0.26261 0.8677 0.29443 0.0
C762 C 0.22913 0.83529 0.35777 0.0
C763 C 0.20524 0.81887 0.32401 0.0
C764 C 0.20989 0.82756 0.2755 0.0
C765 C 0.23844 0.85219 0.26135 0.0
C766 C 0.22476 0.82724 0.40996 0.0
C767 C 0.18517 0.81023 0.23836 0.0
H768 H 0.14725 0.71686 0.35643 0.0
H769 H 0.09986 0.76995 0.37455 0.0
H770 H 0.21083 0.76817 0.28969 0.0
H771 H 0.2245 0.77448 0.34987 0.0
H772 H 0.19954 0.73685 0.32941 0.0
H773 H 0.12575 0.82204 0.36483 0.0
H774 H 0.16798 0.84015 0.37481 0.0
H775 H 0.15293 0.83319 0.3154 0.0
H776 H 0.27625 0.87146 0.36819 0.0
H777 H 0.24233 0.85862 0.22418 0.0
H778 H 0.223 0.80484 0.41513 0.0
H779 H 0.20234 0.82605 0.42308 0.0
H780 H 0.24465 0.84363 0.43204 0.0
H781 H 0.18133 0.7869 0.23689 0.0
H782 H 0.19211 0.82028 0.20237 0.0
H783 H 0.1622 0.80916 0.24803 0.0
C784 C 0.34766 0.12919 0.70939 0.0
C785 C 0.37465 0.13469 0.73586 0.0
C786 C 0.34228 0.15285 0.69482 0.0
C787 C 0.36395 0.18245 0.70843 0.0
C788 C 0.3896 0.18766 0.73895 0.0
C789 C 0.39504 0.16373 0.75149 0.0
C790 C 0.31511 0.14642 0.66138 0.0
C791 C 0.41255 0.21874 0.75572 0.0
C792 C 0.37912 0.24776 0.62758 0.0
C793 C 0.36047 0.25891 0.64891 0.0
C794 C 0.37951 0.22215 0.64566 0.0
C795 C 0.36174 0.20817 0.68707 0.0
C796 C 0.34281 0.21938 0.70863 0.0
C797 C 0.342 0.24436 0.68879 0.0
C798 C 0.39926 0.2103 0.62082 0.0
C799 C 0.3244 0.20572 0.75363 0.0
H800 H 0.33234 0.10676 0.69643 0.0
H801 H 0.41608 0.16789 0.77159 0.0
H802 H 0.30171 0.15808 0.67314 0.0
H803 H 0.32464 0.15496 0.6254 0.0
H804 H 0.29847 0.12211 0.65857 0.0
H805 H 0.42808 0.21838 0.78481 0.0
H806 H 0.42778 0.23179 0.72562 0.0
H807 H 0.39958 0.23063 0.76848 0.0
H808 H 0.39333 0.25902 0.5967 0.0
H809 H 0.3279 0.25326 0.70573 0.0
H810 H 0.3846 0.18612 0.613 0.0
H811 H 0.41889 0.21267 0.64441 0.0
H812 H 0.40958 0.22226 0.58699 0.0
H813 H 0.30836 0.1815 0.74846 0.0
H814 H 0.31006 0.21655 0.76513 0.0
H815 H 0.34105 0.2079 0.7827 0.0
C816 C 0.31008 0.34359 0.73937 0.0
C817 C 0.3412 0.36226 0.72452 0.0
C818 C 0.30027 0.34608 0.78545 0.0
C819 C 0.32207 0.36822 0.81652 0.0
C820 C 0.35287 0.38845 0.80012 0.0
C821 C 0.36232 0.38466 0.75467 0.0
C822 C 0.26711 0.32431 0.80109 0.0
C823 C 0.37641 0.41319 0.83143 0.0
C824 C 0.30293 0.39438 0.93145 0.0
C825 C 0.31684 0.38335 0.96448 0.0
C826 C 0.30184 0.38756 0.88306 0.0
C827 C 0.31451 0.36893 0.86754 0.0
C828 C 0.32498 0.35484 0.90143 0.0
C829 C 0.32621 0.36236 0.9497 0.0
C830 C 0.28941 0.40211 0.84834 0.0
C831 C 0.33727 0.33367 0.88629 0.0
H832 H 0.29401 0.32597 0.7159 0.0
H833 H 0.38646 0.39882 0.74294 0.0
H834 H 0.26687 0.31662 0.83812 0.0
H835 H 0.25209 0.33553 0.7999 0.0
H836 H 0.25618 0.30445 0.77739 0.0
H837 H 0.39793 0.42888 0.8115 0.0
H838 H 0.36537 0.42608 0.84726 0.0
H839 H 0.38379 0.40343 0.86111 0.0
H840 H 0.29457 0.40982 0.94301 0.0
H841 H 0.33643 0.35333 0.97519 0.0
H842 H 0.27013 0.38469 0.82687 0.0
H843 H 0.30862 0.41663 0.82374 0.0
H844 H 0.28009 0.41587 0.86628 0.0
H845 H 0.32115 0.31747 0.85963 0.0
H846 H 0.33977 0.3211 0.91691 0.0
H847 H 0.36084 0.34653 0.86932 0.0
C848 C 0.02155 0.33836 0.25385 0.0
C849 C 0.01097 0.35846 0.26863 0.0
C850 C 0.03454 0.34061 0.20831 0.0
C851 C 0.03692 0.36359 0.17734 0.0
C852 C 0.02818 0.38511 0.19368 0.0
C853 C 0.01453 0.3818 0.23876 0.0
C854 C 0.04321 0.31698 0.19264 0.0
C855 C 0.03168 0.41078 0.16261 0.0
C856 C 0.0836 0.38813 0.06331 0.0
C857 C 0.05902 0.37853 0.02975 0.0
C858 C 0.07712 0.38113 0.11153 0.0
C859 C 0.04536 0.36395 0.12641 0.0
C860 C 0.0209 0.35126 0.09199 0.0
C861 C 0.028 0.35882 0.04388 0.0
C862 C 0.10396 0.39403 0.1468 0.0
C863 C 0.98686 0.3317 0.10639 0.0
H864 H 0.01802 0.31988 0.27685 0.0
H865 H 0.00596 0.39709 0.25037 0.0
H866 H 0.02206 0.29813 0.17647 0.0
H867 H 0.0624 0.32549 0.16573 0.0
H868 H 0.05071 0.3081 0.22346 0.0
H869 H 0.02715 0.42729 0.18255 0.0
H870 H 0.05591 0.42249 0.14736 0.0
H871 H 0.0147 0.4021 0.13251 0.0
H872 H 0.10783 0.40259 0.0523 0.0
H873 H 0.00895 0.35093 0.01799 0.0
H874 H 0.10298 0.37607 0.17022 0.0
H875 H 0.10143 0.41066 0.16944 0.0
H876 H 0.12753 0.40514 0.12923 0.0
H877 H 0.98523 0.31485 0.13296 0.0
H878 H 0.97161 0.31992 0.07542 0.0
H879 H 0.97745 0.34568 0.12324 0.0
C880 C 0.61815 0.96896 0.55815 0.0
C881 C 0.62763 0.95439 0.59146 0.0
C882 C 0.63334 0.97777 0.51414 0.0
C883 C 0.65837 0.97133 0.50281 0.0
C884 C 0.66827 0.95678 0.53667 0.0
C885 C 0.65282 0.94861 0.581 0.0
C886 C 0.62216 0.99363 0.47953 0.0
C887 C 0.6942 0.94881 0.52558 0.0
C888 C 0.66373 0.9773 0.37028 0.0
C889 C 0.68378 0.00805 0.36617 0.0
C890 C 0.65874 0.96326 0.41486 0.0
C891 C 0.67391 0.9807 0.45556 0.0
C892 C 0.6981 0.0105 0.44974 0.0
C893 C 0.70274 0.02387 0.40485 0.0
C894 C 0.63376 0.93105 0.41937 0.0
C895 C 0.71534 0.0298 0.49188 0.0
H896 H 0.59874 0.97348 0.56661 0.0
H897 H 0.65966 0.9368 0.60677 0.0
H898 H 0.64227 0.01531 0.46861 0.0
H899 H 0.61267 0.97983 0.44705 0.0
H900 H 0.60331 0.99797 0.49476 0.0
H901 H 0.70318 0.94298 0.55822 0.0
H902 H 0.68471 0.92922 0.50135 0.0
H903 H 0.71432 0.96743 0.50712 0.0
H904 H 0.649 0.9651 0.34031 0.0
H905 H 0.71831 0.04773 0.4014 0.0
H906 H 0.61097 0.9301 0.42996 0.0
H907 H 0.64033 0.91943 0.44715 0.0
H908 H 0.63005 0.91891 0.3851 0.0
H909 H 0.69986 0.03774 0.5093 0.0
H910 H 0.73762 0.04968 0.48091 0.0
H911 H 0.72104 0.01698 0.51859 0.0
C912 C 0.63668 0.61587 0.77737 0.0
C913 C 0.65568 0.63892 0.74646 0.0
C914 C 0.64768 0.61383 0.82263 0.0
C915 C 0.67783 0.63627 0.83792 0.0
C916 C 0.69758 0.65906 0.80603 0.0
C917 C 0.68625 0.66 0.76033 0.0
C918 C 0.62634 0.58846 0.85492 0.0
C919 C 0.72986 0.68325 0.82087 0.0
C920 C 0.67502 0.64303 0.97111 0.0
C921 C 0.68701 0.62398 0.98579 0.0
C922 C 0.67486 0.64981 0.92276 0.0
C923 C 0.68669 0.63697 0.88868 0.0
C924 C 0.70186 0.62043 0.90403 0.0
C925 C 0.70212 0.61439 0.95251 0.0
C926 C 0.65935 0.66839 0.90782 0.0
C927 C 0.71549 0.60702 0.86916 0.0
H928 H 0.61291 0.59983 0.76643 0.0
H929 H 0.70058 0.67814 0.73636 0.0
H930 H 0.63951 0.5774 0.87018 0.0
H931 H 0.61827 0.59735 0.88499 0.0
H932 H 0.60513 0.57137 0.83595 0.0
H933 H 0.74129 0.70046 0.79279 0.0
H934 H 0.72797 0.69435 0.85385 0.0
H935 H 0.74553 0.67328 0.82881 0.0
H936 H 0.66369 0.65085 0.99677 0.0
H937 H 0.71234 0.60041 0.96399 0.0
H938 H 0.63569 0.65358 0.89237 0.0
H939 H 0.67365 0.68476 0.88005 0.0
H940 H 0.65618 0.68066 0.93832 0.0
H941 H 0.69688 0.59233 0.84383 0.0
H942 H 0.7254 0.5937 0.88688 0.0
H943 H 0.73464 0.6251 0.8485 0.0
C944 C 0.98604 0.62472 0.2474 0.0
C945 C 0.99032 0.64816 0.2776 0.0
C946 C 0.97237 0.62187 0.20243 0.0
C947 C 0.9645 0.64404 0.18641 0.0
C948 C 0.96797 0.66738 0.21752 0.0
C949 C 0.98055 0.66892 0.26322 0.0
C950 C 0.96777 0.59587 0.17121 0.0
C951 C 0.95948 0.69125 0.20247 0.0
C952 C 0.9728 0.6477 0.05304 0.0
C953 C 0.94153 0.62847 0.03933 0.0
C954 C 0.98024 0.65567 0.10096 0.0
C955 C 0.95588 0.64387 0.1356 0.0
C956 C 0.92397 0.62744 0.12098 0.0
C957 C 0.91714 0.61997 0.07294 0.0
C958 C 0.01448 0.67465 0.11501 0.0
C959 C 0.89725 0.61567 0.15636 0.0
H960 H 0.99393 0.60889 0.25876 0.0
H961 H 0.98435 0.68727 0.28674 0.0
H962 H 0.94342 0.5848 0.15623 0.0
H963 H 0.98461 0.6041 0.14093 0.0
H964 H 0.97168 0.57894 0.19096 0.0
H965 H 0.97194 0.71177 0.22445 0.0
H966 H 0.9652 0.69735 0.16448 0.0
H967 H 0.93365 0.68273 0.20729 0.0
H968 H 0.99171 0.65482 0.02706 0.0
H969 H 0.89276 0.60592 0.06217 0.0
H970 H 0.02343 0.66032 0.13184 0.0
H971 H 0.01672 0.6918 0.14146 0.0
H972 H 0.02969 0.68603 0.08385 0.0
H973 H 0.89935 0.59914 0.17974 0.0
H974 H 0.8736 0.60476 0.13899 0.0
H975 H 0.89886 0.63424 0.17888 0.0
C976 C 0.32487 0.99238 0.37416 0.0
C977 C 0.34993 0.98584 0.36688 0.0
C978 C 0.32276 0.00614 0.41667 0.0
C979 C 0.34631 0.0135 0.45224 0.0
C980 C 0.37248 0.00837 0.4437 0.0
C981 C 0.37387 0.99462 0.40134 0.0
C982 C 0.29464 0.01145 0.42436 0.0
C983 C 0.3985 0.01626 0.48017 0.0
C984 C 0.36732 0.06694 0.55514 0.0
C985 C 0.35761 0.04699 0.59371 0.0
C986 C 0.36045 0.05649 0.50816 0.0
C987 C 0.34374 0.02536 0.49958 0.0
C988 C 0.33079 0.00542 0.53845 0.0
C989 C 0.33782 0.0165 0.58519 0.0
C990 C 0.37411 0.07861 0.46787 0.0
C991 C 0.3125 0.97206 0.53086 0.0
H992 H 0.30617 0.98546 0.34781 0.0
H993 H 0.39345 0.98989 0.39591 0.0
H994 H 0.27794 0.99448 0.44951 0.0
H995 H 0.3021 0.03377 0.4404 0.0
H996 H 0.2818 0.00976 0.39062 0.0
H997 H 0.41777 0.01178 0.46714 0.0
H998 H 0.40903 0.04026 0.48986 0.0
H999 H 0.38852 0.00309 0.51311 0.0
H1000 H 0.3821 0.09065 0.56148 0.0
H1001 H 0.33002 0.00095 0.61476 0.0
H1002 H 0.35725 0.07225 0.43764 0.0
H1003 H 0.39603 0.07872 0.45477 0.0
H1004 H 0.38024 0.10165 0.47944 0.0
H1005 H 0.29545 0.96661 0.50106 0.0
H1006 H 0.29936 0.96019 0.56333 0.0
H1007 H 0.32925 0.9635 0.52134 0.0
C1008 C 0.43812 0.45021 0.05705 0.0
C1009 C 0.4199 0.4556 0.09066 0.0
C1010 C 0.47072 0.46941 0.05306 0.0
C1011 C 0.48544 0.49407 0.08434 0.0
C1012 C 0.46666 0.50048 0.11655 0.0
C1013 C 0.43408 0.48082 0.11986 0.0
C1014 C 0.48957 0.46232 0.01723 0.0
C1015 C 0.48122 0.52732 0.14906 0.0
C1016 C 0.56933 0.52278 0.12973 0.0
C1017 C 0.58531 0.54942 0.10428 0.0
C1018 C 0.53715 0.50339 0.12099 0.0
C1019 C 0.52059 0.51146 0.08705 0.0
C1020 C 0.53729 0.5377 0.05963 0.0
C1021 C 0.56941 0.55656 0.06905 0.0
C1022 C 0.52052 0.47505 0.14978 0.0
C1023 C 0.52114 0.54727 0.0227 0.0
H1024 H 0.42696 0.43038 0.03489 0.0
H1025 H 0.41994 0.48445 0.14661 0.0
H1026 H 0.50605 0.48277 0.99767 0.0
H1027 H 0.50388 0.45378 0.03628 0.0
H1028 H 0.47414 0.44514 0.99113 0.0
H1029 H 0.46301 0.53056 0.16892 0.0
H1030 H 0.49707 0.52454 0.17508 0.0
H1031 H 0.49585 0.54781 0.1281 0.0
H1032 H 0.58164 0.51776 0.15779 0.0
H1033 H 0.5819 0.57751 0.04989 0.0
H1034 H 0.5071 0.45567 0.12593 0.0
H1035 H 0.50325 0.47676 0.17422 0.0
H1036 H 0.53737 0.47063 0.17123 0.0
H1037 H 0.50102 0.52787 0.00583 0.0
H1038 H 0.53802 0.56096 0.99448 0.0
H1039 H 0.51209 0.56127 0.04023 0.0
C1040 C 0.02493 0.56688 0.39308 0.0
C1041 C 0.00469 0.57397 0.4199 0.0
C1042 C 0.0224 0.53819 0.39478 0.0
C1043 C -0.00037 0.51622 0.42501 0.0
C1044 C 0.98002 0.52363 0.45373 0.0
C1045 C 0.98245 0.55229 0.45029 0.0
C1046 C 0.04327 0.53106 0.36274 0.0
C1047 C 0.95609 0.50111 0.48739 0.0
C1048 C 0.97157 0.43538 0.38903 0.0
C1049 C 0.99177 0.42812 0.41565 0.0
C1050 C 0.9734 0.46375 0.39257 0.0
C1051 C 0.99537 0.48515 0.42443 0.0
C1052 C 0.0147 0.47741 0.45317 0.0
C1053 C 0.01303 0.44914 0.44789 0.0
C1054 C 0.95286 0.4713 0.36048 0.0
C1055 C 0.03778 0.49926 0.48853 0.0
H1056 H 0.04191 0.58341 0.36909 0.0
H1057 H 0.96684 0.5577 0.47125 0.0
H1058 H 0.05705 0.52284 0.38411 0.0
H1059 H 0.02835 0.51294 0.33764 0.0
H1060 H 0.0601 0.55076 0.34182 0.0
H1061 H 0.94483 0.5112 0.51048 0.0
H1062 H 0.93725 0.48258 0.46683 0.0
H1063 H 0.96759 0.49122 0.51032 0.0
H1064 H 0.95534 0.41934 0.36369 0.0
H1065 H 0.02856 0.44356 0.46876 0.0
H1066 H 0.96808 0.48965 0.33598 0.0
H1067 H 0.93895 0.47936 0.38183 0.0
H1068 H 0.93621 0.45184 0.33889 0.0
H1069 H 0.05713 0.51814 0.46932 0.0
H1070 H 0.04844 0.48871 0.51182 0.0
H1071 H 0.02574 0.50875 0.51119 0.0
C1072 C 0.51663 0.95752 0.73958 0.0
C1073 C 0.5449 0.96969 0.71367 0.0
C1074 C 0.49576 0.96972 0.73612 0.0
C1075 C 0.50364 0.99486 0.70643 0.0
C1076 C 0.53161 0.00626 0.67869 0.0
C1077 C 0.55217 0.99387 0.68328 0.0
C1078 C 0.46587 0.95636 0.76556 0.0
C1079 C 0.54023 0.03198 0.64504 0.0
C1080 C 0.43529 0.01142 0.68348 0.0
C1081 C 0.44048 0.03296 0.71814 0.0
C1082 C 0.45687 0.00041 0.6768 0.0
C1083 C 0.4836 0.0102 0.70701 0.0
C1084 C 0.48956 0.03297 0.74097 0.0
C1085 C 0.46778 0.04402 0.74629 0.0
C1086 C 0.44974 0.97701 0.63926 0.0
C1087 C 0.51806 0.04457 0.77335 0.0
H1088 H 0.51141 0.93915 0.7638 0.0
H1089 H 0.57423 0.00329 0.66348 0.0
H1090 H 0.46671 0.97311 0.79173 0.0
H1091 H 0.44496 0.95036 0.74238 0.0
H1092 H 0.4625 0.93602 0.78504 0.0
H1093 H 0.52055 0.02647 0.61956 0.0
H1094 H 0.54373 0.05194 0.66548 0.0
H1095 H 0.56219 0.03752 0.62466 0.0
H1096 H 0.41385 0.00268 0.66218 0.0
H1097 H 0.47132 0.06029 0.77382 0.0
H1098 H 0.43814 0.95473 0.6565 0.0
H1099 H 0.47177 0.98009 0.62164 0.0
H1100 H 0.43338 0.97752 0.61164 0.0
H1101 H 0.5159 0.02644 0.79758 0.0
H1102 H 0.52058 0.06385 0.79514 0.0
H1103 H 0.53999 0.05162 0.75217 0.0
C1104 C 0.56936 0.54814 0.56215 0.0
C1105 C 0.56845 0.56828 0.59553 0.0
C1106 C 0.54266 0.52024 0.55406 0.0
C1107 C 0.51479 0.51193 0.58114 0.0
C1108 C 0.51373 0.53232 0.61463 0.0
C1109 C 0.54039 0.56037 0.62091 0.0
C1110 C 0.5444 0.49951 0.51704 0.0
C1111 C 0.48478 0.52412 0.64509 0.0
C1112 C 0.43337 0.44911 0.54837 0.0
C1113 C 0.43119 0.4259 0.57781 0.0
C1114 C 0.46124 0.47669 0.54675 0.0
C1115 C 0.48713 0.48148 0.57645 0.0
C1116 C 0.48541 0.45776 0.60499 0.0
C1117 C 0.45763 0.43014 0.60482 0.0
C1118 C 0.46248 0.50108 0.51471 0.0
C1119 C 0.51214 0.46209 0.63802 0.0
H1120 H 0.59096 0.55424 0.54226 0.0
H1121 H 0.53967 0.57571 0.64714 0.0
H1122 H 0.54293 0.4793 0.53451 0.0
H1123 H 0.524 0.49194 0.49225 0.0
H1124 H 0.56671 0.51032 0.49611 0.0
H1125 H 0.48776 0.54253 0.66944 0.0
H1126 H 0.46377 0.51835 0.62227 0.0
H1127 H 0.47973 0.50408 0.66675 0.0
H1128 H 0.41303 0.44589 0.52727 0.0
H1129 H 0.45598 0.41242 0.62808 0.0
H1130 H 0.485 0.51142 0.49436 0.0
H1131 H 0.4617 0.51893 0.53657 0.0
H1132 H 0.44234 0.49258 0.48923 0.0
H1133 H 0.53481 0.471 0.61821 0.0
H1134 H 0.50786 0.44097 0.65584 0.0
H1135 H 0.51501 0.47875 0.66579 0.0
C1136 C 0.98755 0.5547 0.95084 0.0
C1137 C 0.96492 0.55022 0.916 0.0
C1138 C 0.99925 0.53429 0.95651 0.0
C1139 C 0.98893 0.50956 0.92532 0.0
C1140 C 0.96452 0.50402 0.89203 0.0
C1141 C 0.95303 0.52471 0.88736 0.0
C1142 C 0.02387 0.54016 0.99411 0.0
C1143 C 0.95163 0.47703 0.85983 0.0
C1144 C 0.04354 0.47948 0.88302 0.0
C1145 C 0.03196 0.45274 0.90841 0.0
C1146 C 0.0311 0.49922 0.89074 0.0
C1147 C 0.00586 0.49141 0.9235 0.0
C1148 C 0.99519 0.46492 0.95066 0.0
C1149 C 0.00818 0.44575 0.94235 0.0
C1150 C 0.04394 0.52773 0.86216 0.0
C1151 C 0.9687 0.45542 0.98623 0.0
H1152 H 0.9967 0.57464 0.97279 0.0
H1153 H 0.93577 0.52162 0.86 0.0
H1154 H 0.01894 0.51917 0.01283 0.0
H1155 H 0.04728 0.54893 0.9767 0.0
H1156 H 0.02501 0.55682 0.02075 0.0
H1157 H 0.93069 0.47449 0.83923 0.0
H1158 H 0.9703 0.47903 0.83449 0.0
H1159 H 0.94471 0.45647 0.88115 0.0
H1160 H 0.06139 0.48436 0.85585 0.0
H1161 H 0.99899 0.42471 0.96144 0.0
H1162 H 0.0502 0.54711 0.88614 0.0
H1163 H 0.02546 0.52666 0.83721 0.0
H1164 H 0.06528 0.53169 0.84129 0.0
H1165 H 0.96646 0.47463 0.00061 0.0
H1166 H 0.9723 0.44316 0.01634 0.0
H1167 H 0.94621 0.43991 0.96839 0.0
C1168 C 0.56716 0.02557 0.25103 0.0
C1169 C 0.58445 0.01409 0.22755 0.0
C1170 C 0.53497 0.01538 0.24199 0.0
C1171 C 0.52046 0.99641 0.20235 0.0
C1172 C 0.53941 0.98848 0.17294 0.0
C1173 C 0.57039 0.99584 0.18749 0.0
C1174 C 0.51749 0.02525 0.27634 0.0
C1175 C 0.52844 0.97373 0.12504 0.0
C1176 C 0.43157 0.94663 0.20746 0.0
C1177 C 0.42156 0.96837 0.20987 0.0
C1178 C 0.46377 0.95475 0.20132 0.0
C1179 C 0.48592 0.9852 0.1932 0.0
C1180 C 0.47437 0.00585 0.18474 0.0
C1181 C 0.44271 0.99761 0.19547 0.0
C1182 C 0.47374 0.93072 0.20429 0.0
C1183 C 0.49565 0.0373 0.16781 0.0
H1184 H 0.57866 0.04258 0.27641 0.0
H1185 H 0.58404 0.98839 0.16579 0.0
H1186 H 0.52647 0.04973 0.27308 0.0
H1187 H 0.49146 0.01358 0.27248 0.0
H1188 H 0.5226 0.02093 0.31296 0.0
H1189 H 0.52853 0.95189 0.12481 0.0
H1190 H 0.50465 0.97048 0.1148 0.0
H1191 H 0.54561 0.98772 0.09737 0.0
H1192 H 0.41432 0.92337 0.21132 0.0
H1193 H 0.43473 0.01431 0.19294 0.0
H1194 H 0.49416 0.93739 0.22883 0.0
H1195 H 0.48077 0.92675 0.16864 0.0
H1196 H 0.45406 0.90906 0.21592 0.0
H1197 H 0.50138 0.05308 0.19804 0.0
H1198 H 0.4831 0.04382 0.14081 0.0
H1199 H 0.518 0.03978 0.15197 0.0
loop_
_geom_bond_atom_site_label_1
_geom_bond_atom_site_label_2
_geom_bond_distance
_geom_bond_site_symmetry_2
_ccdc_geom_bond_type
Mn0 O5 2.095 . S
Mn0 O15 2.162 . S
Mn0 O16 2.297 . S
Mn0 O24 2.385 . S
Mn0 O25 2.209 . S
Mn0 O26 2.094 . S
Mn1 O6 2.121 1_556 S
Mn1 N8 2.257 . S
Mn1 N17 2.282 . S
Mn1 O25 2.215 1_556 S
Mn1 O27 2.117 . S
C2 O24 1.234 . S
C2 O25 1.283 . S
C3 O15 1.281 . S
C3 O16 1.236 . S
C4 O26 1.240 1_556 S
C4 O27 1.264 . S
O5 Mn0 2.095 . S
O5 C14 1.250 . S
O6 Mn1 2.121 1_554 S
O6 C14 1.258 . S
C7 N8 1.326 1_554 S
C7 C11 1.460 . S
C7 H13 0.929 . S
N8 Mn1 2.257 . S
N8 C7 1.326 1_556 S
N8 C12 1.362 . S
C9 C10 1.258 . S
C9 C12 1.431 . S
C9 C29 1.449 . S
C10 C9 1.258 . S
C10 C11 1.477 1_556 S
C10 H30 0.931 . S
C11 C7 1.460 . S
C11 C10 1.477 1_554 S
C11 H31 0.930 . S
C12 N8 1.362 . S
C12 C9 1.431 . S
C12 C22 1.476 . S
H13 C7 0.929 . S
C14 O5 1.250 . S
C14 O6 1.258 . S
O15 Mn0 2.162 . S
O15 C3 1.281 . S
O16 Mn0 2.297 . S
O16 C3 1.236 . S
N17 Mn1 2.282 . S
N17 C18 1.328 . S
N17 C22 1.318 . S
C18 N17 1.328 . S
C18 C19 1.457 . S
C18 H23 0.929 . S
C19 C18 1.457 . S
C19 C20 1.291 . S
C19 H32 0.931 . S
C20 C19 1.291 . S
C20 C21 1.373 . S
C20 H33 0.929 . S
C21 C20 1.373 . S
C21 C22 1.396 . S
C21 C28 1.403 . S
C22 C12 1.476 . S
C22 N17 1.318 . S
C22 C21 1.396 . S
H23 C18 0.929 . S
O24 Mn0 2.385 . S
O24 C2 1.234 . S
O25 Mn0 2.209 . S
O25 Mn1 2.215 1_554 S
O25 C2 1.283 . S
O26 Mn0 2.094 . S
O26 C4 1.240 1_554 S
O27 Mn1 2.117 . S
O27 C4 1.264 . S
C28 C21 1.403 . S
C28 C29 1.399 . S
C28 H34 0.929 . S
C29 C9 1.449 . S
C29 C28 1.399 . S
C29 H35 0.930 . S
H30 C10 0.931 . S
H31 C11 0.930 . S
H32 C19 0.931 . S
H33 C20 0.929 . S
H34 C28 0.929 . S
H35 C29 0.930 . S
Mn36 O41 2.095 . S
Mn36 O51 2.162 . S
Mn36 O52 2.297 . S
Mn36 O60 2.385 . S
Mn36 O61 2.209 . S
Mn36 O62 2.094 . S
Mn37 O42 2.121 . S
Mn37 N44 2.257 . S
Mn37 N53 2.282 . S
Mn37 O61 2.215 1_455 S
Mn37 O63 2.117 1_455 S
C38 O60 1.234 . S
C38 O61 1.283 . S
C39 O51 1.281 . S
C39 O52 1.236 . S
C40 O62 1.240 . S
C40 O63 1.264 . S
O41 Mn36 2.095 . S
O41 C50 1.250 . S
O42 Mn37 2.121 . S
O42 C50 1.258 1_455 S
C43 N44 1.326 . S
C43 C47 1.460 . S
C43 H49 0.929 . S
N44 Mn37 2.257 . S
N44 C43 1.326 . S
N44 C48 1.362 . S
C45 C46 1.258 . S
C45 C48 1.431 . S
C45 C65 1.449 . S
C46 C45 1.258 . S
C46 C47 1.477 . S
C46 H66 0.931 . S
C47 C43 1.460 . S
C47 C46 1.477 . S
C47 H67 0.930 . S
C48 N44 1.362 . S
C48 C45 1.431 . S
C48 C58 1.476 . S
H49 C43 0.929 . S
C50 O41 1.250 . S
C50 O42 1.258 1_655 S
O51 Mn36 2.162 . S
O51 C39 1.281 . S
O52 Mn36 2.297 . S
O52 C39 1.236 . S
N53 Mn37 2.282 . S
N53 C54 1.328 . S
N53 C58 1.318 . S
C54 N53 1.328 . S
C54 C55 1.457 . S
C54 H59 0.929 . S
C55 C54 1.457 . S
C55 C56 1.291 . S
C55 H68 0.931 . S
C56 C55 1.291 . S
C56 C57 1.373 . S
C56 H69 0.929 . S
C57 C56 1.373 . S
C57 C58 1.396 . S
C57 C64 1.403 . S
C58 C48 1.476 . S
C58 N53 1.318 . S
C58 C57 1.396 . S
H59 C54 0.929 . S
O60 Mn36 2.385 . S
O60 C38 1.234 . S
O61 Mn36 2.209 . S
O61 Mn37 2.215 1_655 S
O61 C38 1.283 . S
O62 Mn36 2.094 . S
O62 C40 1.240 . S
O63 Mn37 2.117 1_655 S
O63 C40 1.264 . S
C64 C57 1.403 . S
C64 C65 1.399 . S
C64 H70 0.929 . S
C65 C45 1.449 . S
C65 C64 1.399 . S
C65 H71 0.930 . S
H66 C46 0.931 . S
H67 C47 0.930 . S
H68 C55 0.931 . S
H69 C56 0.929 . S
H70 C64 0.929 . S
H71 C65 0.930 . S
Mn72 O77 2.095 . S
Mn72 O87 2.162 . S
Mn72 O88 2.297 . S
Mn72 O96 2.385 . S
Mn72 O97 2.209 . S
Mn72 O98 2.094 . S
Mn73 O78 2.121 . S
Mn73 N80 2.257 . S
Mn73 N89 2.282 . S
Mn73 O97 2.215 . S
Mn73 O99 2.117 . S
C74 O96 1.234 . S
C74 O97 1.283 . S
C75 O87 1.281 . S
C75 O88 1.236 . S
C76 O98 1.240 . S
C76 O99 1.264 . S
O77 Mn72 2.095 . S
O77 C86 1.250 . S
O78 Mn73 2.121 . S
O78 C86 1.258 . S
C79 N80 1.326 . S
C79 C83 1.460 . S
C79 H85 0.929 . S
N80 Mn73 2.257 . S
N80 C79 1.326 . S
N80 C84 1.362 . S
C81 C82 1.258 . S
C81 C84 1.431 . S
C81 C101 1.449 . S
C82 C81 1.258 . S
C82 C83 1.477 . S
C82 H102 0.931 . S
C83 C79 1.460 . S
C83 C82 1.477 . S
C83 H103 0.930 . S
C84 N80 1.362 . S
C84 C81 1.431 . S
C84 C94 1.476 . S
H85 C79 0.929 . S
C86 O77 1.250 . S
C86 O78 1.258 . S
O87 Mn72 2.162 . S
O87 C75 1.281 . S
O88 Mn72 2.297 . S
O88 C75 1.236 . S
N89 Mn73 2.282 . S
N89 C90 1.328 . S
N89 C94 1.318 . S
C90 N89 1.328 . S
C90 C91 1.457 . S
C90 H95 0.929 . S
C91 C90 1.457 . S
C91 C92 1.291 . S
C91 H104 0.931 1_565 S
C92 C91 1.291 . S
C92 C93 1.373 . S
C92 H105 0.929 . S
C93 C92 1.373 . S
C93 C94 1.396 . S
C93 C100 1.403 . S
C94 C84 1.476 . S
C94 N89 1.318 . S
C94 C93 1.396 . S
H95 C90 0.929 . S
O96 Mn72 2.385 . S
O96 C74 1.234 . S
O97 Mn72 2.209 . S
O97 Mn73 2.215 . S
O97 C74 1.283 . S
O98 Mn72 2.094 . S
O98 C76 1.240 . S
O99 Mn73 2.117 . S
O99 C76 1.264 . S
C100 C93 1.403 . S
C100 C101 1.399 . S
C100 H106 0.929 . S
C101 C81 1.449 . S
C101 C100 1.399 . S
C101 H107 0.930 . S
H102 C82 0.931 . S
H103 C83 0.930 . S
H104 C91 0.931 1_545 S
H105 C92 0.929 . S
H106 C100 0.929 . S
H107 C101 0.930 . S
Mn108 O113 2.095 . S
Mn108 O123 2.162 . S
Mn108 O124 2.297 . S
Mn108 O132 2.385 . S
Mn108 O133 2.209 . S
Mn108 O134 2.094 . S
Mn109 O114 2.121 1_556 S
Mn109 N116 2.257 . S
Mn109 N125 2.282 . S
Mn109 O133 2.215 1_556 S
Mn109 O135 2.117 . S
C110 O132 1.234 . S
C110 O133 1.283 . S
C111 O123 1.281 . S
C111 O124 1.236 . S
C112 O134 1.240 1_556 S
C112 O135 1.264 . S
O113 Mn108 2.095 . S
O113 C122 1.250 . S
O114 Mn109 2.121 1_554 S
O114 C122 1.258 . S
C115 N116 1.326 1_554 S
C115 C119 1.460 . S
C115 H121 0.929 . S
N116 Mn109 2.257 . S
N116 C115 1.326 1_556 S
N116 C120 1.362 . S
C117 C118 1.258 . S
C117 C120 1.431 . S
C117 C137 1.449 . S
C118 C117 1.258 . S
C118 C119 1.477 1_556 S
C118 H138 0.931 . S
C119 C115 1.460 . S
C119 C118 1.477 1_554 S
C119 H139 0.930 . S
C120 N116 1.362 . S
C120 C117 1.431 . S
C120 C130 1.476 . S
H121 C115 0.929 . S
C122 O113 1.250 . S
C122 O114 1.258 . S
O123 Mn108 2.162 . S
O123 C111 1.281 . S
O124 Mn108 2.297 . S
O124 C111 1.236 . S
N125 Mn109 2.282 . S
N125 C126 1.328 . S
N125 C130 1.318 . S
C126 N125 1.328 . S
C126 C127 1.457 . S
C126 H131 0.929 . S
C127 C126 1.457 . S
C127 C128 1.291 . S
C127 H140 0.931 . S
C128 C127 1.291 . S
C128 C129 1.373 . S
C128 H141 0.929 . S
C129 C128 1.373 . S
C129 C130 1.396 . S
C129 C136 1.403 . S
C130 C120 1.476 . S
C130 N125 1.318 . S
C130 C129 1.396 . S
H131 C126 0.929 . S
O132 Mn108 2.385 . S
O132 C110 1.234 . S
O133 Mn108 2.209 . S
O133 Mn109 2.215 1_554 S
O133 C110 1.283 . S
O134 Mn108 2.094 . S
O134 C112 1.240 1_554 S
O135 Mn109 2.117 . S
O135 C112 1.264 . S
C136 C129 1.403 . S
C136 C137 1.399 . S
C136 H142 0.929 . S
C137 C117 1.449 . S
C137 C136 1.399 . S
C137 H143 0.930 . S
H138 C118 0.931 . S
H139 C119 0.930 . S
H140 C127 0.931 . S
H141 C128 0.929 . S
H142 C136 0.929 . S
H143 C137 0.930 . S
Mn144 O149 2.095 . S
Mn144 O159 2.162 . S
Mn144 O160 2.297 . S
Mn144 O168 2.385 . S
Mn144 O169 2.209 . S
Mn144 O170 2.094 . S
Mn145 O150 2.121 . S
Mn145 N152 2.257 . S
Mn145 N161 2.282 . S
Mn145 O169 2.215 1_655 S
Mn145 O171 2.117 1_655 S
C146 O168 1.234 . S
C146 O169 1.283 . S
C147 O159 1.281 . S
C147 O160 1.236 . S
C148 O170 1.240 . S
C148 O171 1.264 . S
O149 Mn144 2.095 . S
O149 C158 1.250 . S
O150 Mn145 2.121 . S
O150 C158 1.258 1_655 S
C151 N152 1.326 . S
C151 C155 1.460 . S
C151 H157 0.929 . S
N152 Mn145 2.257 . S
N152 C151 1.326 . S
N152 C156 1.362 . S
C153 C154 1.258 . S
C153 C156 1.431 . S
C153 C173 1.449 . S
C154 C153 1.258 . S
C154 C155 1.477 . S
C154 H174 0.931 . S
C155 C151 1.460 . S
C155 C154 1.477 . S
C155 H175 0.930 . S
C156 N152 1.362 . S
C156 C153 1.431 . S
C156 C166 1.476 . S
H157 C151 0.929 . S
C158 O149 1.250 . S
C158 O150 1.258 1_455 S
O159 Mn144 2.162 . S
O159 C147 1.281 . S
O160 Mn144 2.297 . S
O160 C147 1.236 . S
N161 Mn145 2.282 . S
N161 C162 1.328 . S
N161 C166 1.318 . S
C162 N161 1.328 . S
C162 C163 1.457 . S
C162 H167 0.929 . S
C163 C162 1.457 . S
C163 C164 1.291 . S
C163 H176 0.931 . S
C164 C163 1.291 . S
C164 C165 1.373 . S
C164 H177 0.929 . S
C165 C164 1.373 . S
C165 C166 1.396 . S
C165 C172 1.403 . S
C166 C156 1.476 . S
C166 N161 1.318 . S
C166 C165 1.396 . S
H167 C162 0.929 . S
O168 Mn144 2.385 . S
O168 C146 1.234 . S
O169 Mn144 2.209 . S
O169 Mn145 2.215 1_455 S
O169 C146 1.283 . S
O170 Mn144 2.094 . S
O170 C148 1.240 . S
O171 Mn145 2.117 1_455 S
O171 C148 1.264 . S
C172 C165 1.403 . S
C172 C173 1.399 . S
C172 H178 0.929 . S
C173 C153 1.449 . S
C173 C172 1.399 . S
C173 H179 0.930 . S
H174 C154 0.931 . S
H175 C155 0.930 . S
H176 C163 0.931 . S
H177 C164 0.929 . S
H178 C172 0.929 . S
H179 C173 0.930 . S
Mn180 O185 2.095 . S
Mn180 O195 2.162 . S
Mn180 O196 2.297 . S
Mn180 O204 2.385 . S
Mn180 O205 2.209 . S
Mn180 O206 2.094 . S
Mn181 O186 2.121 . S
Mn181 N188 2.257 . S
Mn181 N197 2.282 . S
Mn181 O205 2.215 . S
Mn181 O207 2.117 . S
C182 O204 1.234 . S
C182 O205 1.283 . S
C183 O195 1.281 . S
C183 O196 1.236 . S
C184 O206 1.240 . S
C184 O207 1.264 . S
O185 Mn180 2.095 . S
O185 C194 1.250 . S
O186 Mn181 2.121 . S
O186 C194 1.258 . S
C187 N188 1.326 . S
C187 C191 1.460 . S
C187 H193 0.929 . S
N188 Mn181 2.257 . S
N188 C187 1.326 . S
N188 C192 1.362 . S
C189 C190 1.258 . S
C189 C192 1.431 . S
C189 C209 1.449 . S
C190 C189 1.258 . S
C190 C191 1.477 . S
C190 H210 0.931 . S
C191 C187 1.460 . S
C191 C190 1.477 . S
C191 H211 0.930 . S
C192 N188 1.362 . S
C192 C189 1.431 . S
C192 C202 1.476 . S
H193 C187 0.929 . S
C194 O185 1.250 . S
C194 O186 1.258 . S
O195 Mn180 2.162 . S
O195 C183 1.281 . S
O196 Mn180 2.297 . S
O196 C183 1.236 . S
N197 Mn181 2.282 . S
N197 C198 1.328 . S
N197 C202 1.318 . S
C198 N197 1.328 . S
C198 C199 1.457 . S
C198 H203 0.929 . S
C199 C198 1.457 . S
C199 C200 1.291 . S
C199 H212 0.931 1_545 S
C200 C199 1.291 . S
C200 C201 1.373 . S
C200 H213 0.929 . S
C201 C200 1.373 . S
C201 C202 1.396 . S
C201 C208 1.403 . S
C202 C192 1.476 . S
C202 N197 1.318 . S
C202 C201 1.396 . S
H203 C198 0.929 . S
O204 Mn180 2.385 . S
O204 C182 1.234 . S
O205 Mn180 2.209 . S
O205 Mn181 2.215 . S
O205 C182 1.283 . S
O206 Mn180 2.094 . S
O206 C184 1.240 . S
O207 Mn181 2.117 . S
O207 C184 1.264 . S
C208 C201 1.403 . S
C208 C209 1.399 . S
C208 H214 0.929 . S
C209 C189 1.449 . S
C209 C208 1.399 . S
C209 H215 0.930 . S
H210 C190 0.931 . S
H211 C191 0.930 . S
H212 C199 0.931 1_565 S
H213 C200 0.929 . S
H214 C208 0.929 . S
H215 C209 0.930 . S
Mn216 O221 2.095 . S
Mn216 O231 2.162 . S
Mn216 O232 2.297 . S
Mn216 O240 2.385 . S
Mn216 O241 2.209 . S
Mn216 O242 2.094 . S
Mn217 O222 2.121 . S
Mn217 N224 2.257 . S
Mn217 N233 2.282 . S
Mn217 O241 2.215 . S
Mn217 O243 2.117 . S
C218 O240 1.234 . S
C218 O241 1.283 . S
C219 O231 1.281 . S
C219 O232 1.236 . S
C220 O242 1.240 . S
C220 O243 1.264 . S
O221 Mn216 2.095 . S
O221 C230 1.250 . S
O222 Mn217 2.121 . S
O222 C230 1.258 . S
C223 N224 1.326 . S
C223 C227 1.460 . S
C223 H229 0.929 . S
N224 Mn217 2.257 . S
N224 C223 1.326 . S
N224 C228 1.362 . S
C225 C226 1.258 . S
C225 C228 1.431 . S
C225 C245 1.449 . S
C226 C225 1.258 . S
C226 C227 1.477 . S
C226 H246 0.931 . S
C227 C223 1.460 . S
C227 C226 1.477 . S
C227 H247 0.930 . S
C228 N224 1.362 . S
C228 C225 1.431 . S
C228 C238 1.476 . S
H229 C223 0.929 . S
C230 O221 1.250 . S
C230 O222 1.258 . S
O231 Mn216 2.162 . S
O231 C219 1.281 . S
O232 Mn216 2.297 . S
O232 C219 1.236 . S
N233 Mn217 2.282 . S
N233 C234 1.328 . S
N233 C238 1.318 . S
C234 N233 1.328 . S
C234 C235 1.457 . S
C234 H239 0.929 . S
C235 C234 1.457 . S
C235 C236 1.291 . S
C235 H248 0.931 . S
C236 C235 1.291 . S
C236 C237 1.373 . S
C236 H249 0.929 . S
C237 C236 1.373 . S
C237 C238 1.396 . S
C237 C244 1.403 . S
C238 C228 1.476 . S
C238 N233 1.318 . S
C238 C237 1.396 . S
H239 C234 0.929 . S
O240 Mn216 2.385 . S
O240 C218 1.234 . S
O241 Mn216 2.209 . S
O241 Mn217 2.215 . S
O241 C218 1.283 . S
O242 Mn216 2.094 . S
O242 C220 1.240 . S
O243 Mn217 2.117 . S
O243 C220 1.264 . S
C244 C237 1.403 . S
C244 C245 1.399 . S
C244 H250 0.929 . S
C245 C225 1.449 . S
C245 C244 1.399 . S
C245 H251 0.930 . S
H246 C226 0.931 . S
H247 C227 0.930 . S
H248 C235 0.931 . S
H249 C236 0.929 . S
H250 C244 0.929 . S
H251 C245 0.930 . S
Mn252 O257 2.095 . S
Mn252 O267 2.162 1_655 S
Mn252 O268 2.297 . S
Mn252 O276 2.385 1_655 S
Mn252 O277 2.209 . S
Mn252 O278 2.094 1_655 S
Mn253 O258 2.121 1_554 S
Mn253 N260 2.257 . S
Mn253 N269 2.282 . S
Mn253 O277 2.215 1_554 S
Mn253 O279 2.117 . S
C254 O276 1.234 1_655 S
C254 O277 1.283 . S
C255 O267 1.281 1_655 S
C255 O268 1.236 . S
C256 O278 1.240 1_654 S
C256 O279 1.264 . S
O257 Mn252 2.095 . S
O257 C266 1.250 . S
O258 Mn253 2.121 1_556 S
O258 C266 1.258 . S
C259 N260 1.326 1_556 S
C259 C263 1.460 . S
C259 H265 0.929 . S
N260 Mn253 2.257 . S
N260 C259 1.326 1_554 S
N260 C264 1.362 . S
C261 C262 1.258 . S
C261 C264 1.431 . S
C261 C281 1.449 . S
C262 C261 1.258 . S
C262 C263 1.477 1_554 S
C262 H282 0.931 . S
C263 C259 1.460 . S
C263 C262 1.477 1_556 S
C263 H283 0.930 . S
C264 N260 1.362 . S
C264 C261 1.431 . S
C264 C274 1.476 . S
H265 C259 0.929 . S
C266 O257 1.250 . S
C266 O258 1.258 . S
O267 Mn252 2.162 1_455 S
O267 C255 1.281 1_455 S
O268 Mn252 2.297 . S
O268 C255 1.236 . S
N269 Mn253 2.282 . S
N269 C270 1.328 . S
N269 C274 1.318 . S
C270 N269 1.328 . S
C270 C271 1.474 . S
C270 H275 0.929 . S
C271 C270 1.474 . S
C271 C272 1.294 . S
C271 H284 0.910 1_655 S
C272 C271 1.294 . S
C272 C273 1.373 . S
C272 H285 0.929 . S
C273 C272 1.373 . S
C273 C274 1.396 . S
C273 C280 1.403 . S
C274 C264 1.476 . S
C274 N269 1.318 . S
C274 C273 1.396 . S
H275 C270 0.929 . S
O276 Mn252 2.385 1_455 S
O276 C254 1.234 1_455 S
O277 Mn252 2.209 . S
O277 Mn253 2.215 1_556 S
O277 C254 1.283 . S
O278 Mn252 2.094 1_455 S
O278 C256 1.240 1_456 S
O279 Mn253 2.117 . S
O279 C256 1.264 . S
C280 C273 1.403 . S
C280 C281 1.399 . S
C280 H286 0.929 . S
C281 C261 1.449 . S
C281 C280 1.399 . S
C281 H287 0.930 . S
H282 C262 0.931 . S
H283 C263 0.930 . S
H284 C271 0.910 1_455 S
H285 C272 0.929 . S
H286 C280 0.929 . S
H287 C281 0.930 . S
Mn288 O293 2.095 . S
Mn288 O303 2.162 . S
Mn288 O304 2.297 . S
Mn288 O312 2.385 . S
Mn288 O313 2.209 . S
Mn288 O314 2.094 . S
Mn289 O294 2.121 . S
Mn289 N296 2.257 . S
Mn289 N305 2.282 . S
Mn289 O313 2.215 . S
Mn289 O315 2.117 . S
C290 O312 1.234 . S
C290 O313 1.283 . S
C291 O303 1.281 . S
C291 O304 1.236 . S
C292 O314 1.240 . S
C292 O315 1.264 . S
O293 Mn288 2.095 . S
O293 C302 1.250 . S
O294 Mn289 2.121 . S
O294 C302 1.258 . S
C295 N296 1.326 . S
C295 C299 1.460 . S
C295 H301 0.929 . S
N296 Mn289 2.257 . S
N296 C295 1.326 . S
N296 C300 1.362 . S
C297 C298 1.258 . S
C297 C300 1.431 . S
C297 C317 1.449 . S
C298 C297 1.258 . S
C298 C299 1.477 . S
C298 H318 0.931 . S
C299 C295 1.460 . S
C299 C298 1.477 . S
C299 H319 0.930 . S
C300 N296 1.362 . S
C300 C297 1.431 . S
C300 C310 1.476 . S
H301 C295 0.929 . S
C302 O293 1.250 . S
C302 O294 1.258 . S
O303 Mn288 2.162 . S
O303 C291 1.281 . S
O304 Mn288 2.297 . S
O304 C291 1.236 . S
N305 Mn289 2.282 . S
N305 C306 1.328 . S
N305 C310 1.318 . S
C306 N305 1.328 . S
C306 C307 1.457 . S
C306 H311 0.929 . S
C307 C306 1.457 . S
C307 C308 1.291 . S
C307 H320 0.931 1_565 S
C308 C307 1.291 . S
C308 C309 1.373 . S
C308 H321 0.929 . S
C309 C308 1.373 . S
C309 C310 1.396 . S
C309 C316 1.403 . S
C310 C300 1.476 . S
C310 N305 1.318 . S
C310 C309 1.396 . S
H311 C306 0.929 . S
O312 Mn288 2.385 . S
O312 C290 1.234 . S
O313 Mn288 2.209 . S
O313 Mn289 2.215 . S
O313 C290 1.283 . S
O314 Mn288 2.094 . S
O314 C292 1.240 . S
O315 Mn289 2.117 . S
O315 C292 1.264 . S
C316 C309 1.403 . S
C316 C317 1.399 . S
C316 H322 0.929 . S
C317 C297 1.449 . S
C317 C316 1.399 . S
C317 H323 0.930 . S
H318 C298 0.931 . S
H319 C299 0.930 . S
H320 C307 0.931 1_545 S
H321 C308 0.929 . S
H322 C316 0.929 . S
H323 C317 0.930 . S
Mn324 O329 2.095 . S
Mn324 O339 2.162 . S
Mn324 O340 2.297 . S
Mn324 O348 2.385 . S
Mn324 O349 2.209 . S
Mn324 O350 2.094 . S
Mn325 O330 2.121 . S
Mn325 N332 2.257 . S
Mn325 N341 2.282 . S
Mn325 O349 2.215 . S
Mn325 O351 2.117 . S
C326 O348 1.234 . S
C326 O349 1.283 . S
C327 O339 1.281 . S
C327 O340 1.236 . S
C328 O350 1.240 . S
C328 O351 1.264 . S
O329 Mn324 2.095 . S
O329 C338 1.250 . S
O330 Mn325 2.121 . S
O330 C338 1.258 . S
C331 N332 1.326 . S
C331 C335 1.460 . S
C331 H337 0.929 . S
N332 Mn325 2.257 . S
N332 C331 1.326 . S
N332 C336 1.362 . S
C333 C334 1.258 . S
C333 C336 1.431 . S
C333 C353 1.449 . S
C334 C333 1.258 . S
C334 C335 1.477 . S
C334 H354 0.931 . S
C335 C331 1.460 . S
C335 C334 1.477 . S
C335 H355 0.930 . S
C336 N332 1.362 . S
C336 C333 1.431 . S
C336 C346 1.476 . S
H337 C331 0.929 . S
C338 O329 1.250 . S
C338 O330 1.258 . S
O339 Mn324 2.162 . S
O339 C327 1.281 . S
O340 Mn324 2.297 . S
O340 C327 1.236 . S
N341 Mn325 2.282 . S
N341 C342 1.328 . S
N341 C346 1.318 . S
C342 N341 1.328 . S
C342 C343 1.457 . S
C342 H347 0.929 . S
C343 C342 1.457 . S
C343 C344 1.291 . S
C343 H356 0.931 . S
C344 C343 1.291 . S
C344 C345 1.373 . S
C344 H357 0.929 . S
C345 C344 1.373 . S
C345 C346 1.396 . S
C345 C352 1.403 . S
C346 C336 1.476 . S
C346 N341 1.318 . S
C346 C345 1.396 . S
H347 C342 0.929 . S
O348 Mn324 2.385 . S
O348 C326 1.234 . S
O349 Mn324 2.209 . S
O349 Mn325 2.215 . S
O349 C326 1.283 . S
O350 Mn324 2.094 . S
O350 C328 1.240 . S
O351 Mn325 2.117 . S
O351 C328 1.264 . S
C352 C345 1.403 . S
C352 C353 1.399 . S
C352 H358 0.929 . S
C353 C333 1.449 . S
C353 C352 1.399 . S
C353 H359 0.930 . S
H354 C334 0.931 . S
H355 C335 0.930 . S
H356 C343 0.931 . S
H357 C344 0.929 . S
H358 C352 0.929 . S
H359 C353 0.930 . S
Mn360 O365 2.095 . S
Mn360 O375 2.162 1_455 S
Mn360 O376 2.297 . S
Mn360 O384 2.385 1_455 S
Mn360 O385 2.209 . S
Mn360 O386 2.094 1_455 S
Mn361 O366 2.121 1_554 S
Mn361 N368 2.257 . S
Mn361 N377 2.282 . S
Mn361 O385 2.215 1_554 S
Mn361 O387 2.117 . S
C362 O384 1.234 1_455 S
C362 O385 1.283 . S
C363 O375 1.281 1_455 S
C363 O376 1.236 . S
C364 O386 1.240 1_454 S
C364 O387 1.264 . S
O365 Mn360 2.095 . S
O365 C374 1.250 . S
O366 Mn361 2.121 1_556 S
O366 C374 1.258 . S
C367 N368 1.326 1_556 S
C367 C371 1.460 . S
C367 H373 0.929 . S
N368 Mn361 2.257 . S
N368 C367 1.326 1_554 S
N368 C372 1.362 . S
C369 C370 1.258 . S
C369 C372 1.431 . S
C369 C389 1.449 . S
C370 C369 1.258 . S
C370 C371 1.477 1_554 S
C370 H390 0.931 . S
C371 C367 1.460 . S
C371 C370 1.477 1_556 S
C371 H391 0.930 . S
C372 N368 1.362 . S
C372 C369 1.431 . S
C372 C382 1.476 . S
H373 C367 0.929 . S
C374 O365 1.250 . S
C374 O366 1.258 . S
O375 Mn360 2.162 1_655 S
O375 C363 1.281 1_655 S
O376 Mn360 2.297 . S
O376 C363 1.236 . S
N377 Mn361 2.282 . S
N377 C378 1.328 . S
N377 C382 1.318 . S
C378 N377 1.328 . S
C378 C379 1.474 . S
C378 H383 0.929 . S
C379 C378 1.474 . S
C379 C380 1.294 . S
C379 H392 0.910 1_455 S
C380 C379 1.294 . S
C380 C381 1.373 . S
C380 H393 0.929 . S
C381 C380 1.373 . S
C381 C382 1.396 . S
C381 C388 1.403 . S
C382 C372 1.476 . S
C382 N377 1.318 . S
C382 C381 1.396 . S
H383 C378 0.929 . S
O384 Mn360 2.385 1_655 S
O384 C362 1.234 1_655 S
O385 Mn360 2.209 . S
O385 Mn361 2.215 1_556 S
O385 C362 1.283 . S
O386 Mn360 2.094 1_655 S
O386 C364 1.240 1_656 S
O387 Mn361 2.117 . S
O387 C364 1.264 . S
C388 C381 1.403 . S
C388 C389 1.399 . S
C388 H394 0.929 . S
C389 C369 1.449 . S
C389 C388 1.399 . S
C389 H395 0.930 . S
H390 C370 0.931 . S
H391 C371 0.930 . S
H392 C379 0.910 1_655 S
H393 C380 0.929 . S
H394 C388 0.929 . S
H395 C389 0.930 . S
Mn396 O401 2.095 . S
Mn396 O411 2.162 . S
Mn396 O412 2.297 . S
Mn396 O420 2.385 . S
Mn396 O421 2.209 . S
Mn396 O422 2.094 . S
Mn397 O402 2.121 . S
Mn397 N404 2.257 . S
Mn397 N413 2.282 . S
Mn397 O421 2.215 . S
Mn397 O423 2.117 . S
C398 O420 1.234 . S
C398 O421 1.283 . S
C399 O411 1.281 . S
C399 O412 1.236 . S
C400 O422 1.240 . S
C400 O423 1.264 . S
O401 Mn396 2.095 . S
O401 C410 1.250 . S
O402 Mn397 2.121 . S
O402 C410 1.258 . S
C403 N404 1.326 . S
C403 C407 1.460 . S
C403 H409 0.929 . S
N404 Mn397 2.257 . S
N404 C403 1.326 . S
N404 C408 1.362 . S
C405 C406 1.258 . S
C405 C408 1.431 . S
C405 C425 1.449 . S
C406 C405 1.258 . S
C406 C407 1.477 . S
C406 H426 0.931 . S
C407 C403 1.460 . S
C407 C406 1.477 . S
C407 H427 0.930 . S
C408 N404 1.362 . S
C408 C405 1.431 . S
C408 C418 1.476 . S
H409 C403 0.929 . S
C410 O401 1.250 . S
C410 O402 1.258 . S
O411 Mn396 2.162 . S
O411 C399 1.281 . S
O412 Mn396 2.297 . S
O412 C399 1.236 . S
N413 Mn397 2.282 . S
N413 C414 1.328 . S
N413 C418 1.318 . S
C414 N413 1.328 . S
C414 C415 1.457 . S
C414 H419 0.929 . S
C415 C414 1.457 . S
C415 C416 1.291 . S
C415 H428 0.931 1_545 S
C416 C415 1.291 . S
C416 C417 1.373 . S
C416 H429 0.929 . S
C417 C416 1.373 . S
C417 C418 1.396 . S
C417 C424 1.403 . S
C418 C408 1.476 . S
C418 N413 1.318 . S
C418 C417 1.396 . S
H419 C414 0.929 . S
O420 Mn396 2.385 . S
O420 C398 1.234 . S
O421 Mn396 2.209 . S
O421 Mn397 2.215 . S
O421 C398 1.283 . S
O422 Mn396 2.094 . S
O422 C400 1.240 . S
O423 Mn397 2.117 . S
O423 C400 1.264 . S
C424 C417 1.403 . S
C424 C425 1.399 . S
C424 H430 0.929 . S
C425 C405 1.449 . S
C425 C424 1.399 . S
C425 H431 0.930 . S
H426 C406 0.931 . S
H427 C407 0.930 . S
H428 C415 0.931 1_565 S
H429 C416 0.929 . S
H430 C424 0.929 . S
H431 C425 0.930 . S
C432 C433 1.391 . S
C432 C434 1.394 . S
C432 H448 0.931 . S
C433 C432 1.391 . S
C433 C437 1.376 . S
C434 C432 1.394 . S
C434 C435 1.369 . S
C434 C438 1.531 . S
C435 C434 1.369 . S
C435 C436 1.410 . S
C435 C443 1.503 . S
C436 C435 1.410 . S
C436 C437 1.392 . S
C436 C439 1.511 . S
C437 C433 1.376 . S
C437 C436 1.392 . S
C437 H449 0.929 . S
C438 C434 1.531 . S
C438 H450 0.960 . S
C438 H451 0.962 . S
C438 H452 0.960 . S
C439 C436 1.511 . S
C439 H453 0.961 . S
C439 H454 0.961 . S
C439 H455 0.961 . S
C440 C441 1.370 . S
C440 C442 1.363 . S
C440 H456 0.931 . S
C441 C440 1.370 . S
C441 C445 1.408 . S
C442 C440 1.363 . S
C442 C443 1.370 . S
C442 C446 1.524 . S
C443 C435 1.503 . S
C443 C442 1.370 . S
C443 C444 1.403 . S
C444 C443 1.403 . S
C444 C445 1.404 . S
C444 C447 1.539 . S
C445 C441 1.408 . S
C445 C444 1.404 . S
C445 H457 0.930 . S
C446 C442 1.524 . S
C446 H458 0.956 . S
C446 H459 0.961 . S
C446 H460 0.961 . S
C447 C444 1.539 . S
C447 H461 0.958 . S
C447 H462 0.961 . S
C447 H463 0.960 . S
H448 C432 0.931 . S
H449 C437 0.929 . S
H450 C438 0.960 . S
H451 C438 0.962 . S
H452 C438 0.960 . S
H453 C439 0.961 . S
H454 C439 0.961 . S
H455 C439 0.961 . S
H456 C440 0.931 . S
H457 C445 0.930 . S
H458 C446 0.956 . S
H459 C446 0.961 . S
H460 C446 0.961 . S
H461 C447 0.958 . S
H462 C447 0.961 . S
H463 C447 0.960 . S
C464 C465 1.391 . S
C464 C466 1.394 . S
C464 H480 0.931 . S
C465 C464 1.391 . S
C465 C469 1.376 1_655 S
C466 C464 1.394 . S
C466 C467 1.369 . S
C466 C470 1.531 . S
C467 C466 1.369 . S
C467 C468 1.410 1_655 S
C467 C475 1.503 . S
C468 C467 1.410 1_455 S
C468 C469 1.392 . S
C468 C471 1.511 . S
C469 C465 1.376 1_455 S
C469 C468 1.392 . S
C469 H481 0.929 . S
C470 C466 1.531 . S
C470 H482 0.960 . S
C470 H483 0.962 . S
C470 H484 0.960 . S
C471 C468 1.511 . S
C471 H485 0.961 . S
C471 H486 0.961 . S
C471 H487 0.961 . S
C472 C473 1.362 1_655 S
C472 C474 1.364 . S
C472 H488 0.939 . S
C473 C472 1.362 1_455 S
C473 C477 1.408 . S
C474 C472 1.364 . S
C474 C475 1.370 . S
C474 C478 1.524 . S
C475 C467 1.503 . S
C475 C474 1.370 . S
C475 C476 1.403 1_655 S
C476 C475 1.403 1_455 S
C476 C477 1.404 . S
C476 C479 1.539 . S
C477 C473 1.408 . S
C477 C476 1.404 . S
C477 H489 0.930 . S
C478 C474 1.524 . S
C478 H490 0.956 . S
C478 H491 0.961 1_655 S
C478 H492 0.961 . S
C479 C476 1.539 . S
C479 H493 0.958 1_455 S
C479 H494 0.961 . S
C479 H495 0.960 . S
H480 C464 0.931 . S
H481 C469 0.929 . S
H482 C470 0.960 . S
H483 C470 0.962 . S
H484 C470 0.960 . S
H485 C471 0.961 . S
H486 C471 0.961 . S
H487 C471 0.961 . S
H488 C472 0.939 . S
H489 C477 0.930 . S
H490 C478 0.956 . S
H491 C478 0.961 1_455 S
H492 C478 0.961 . S
H493 C479 0.958 1_655 S
H494 C479 0.961 . S
H495 C479 0.960 . S
C496 C497 1.391 . S
C496 C498 1.394 . S
C496 H512 0.931 . S
C497 C496 1.391 . S
C497 C501 1.376 . S
C498 C496 1.394 . S
C498 C499 1.369 . S
C498 C502 1.531 . S
C499 C498 1.369 . S
C499 C500 1.410 . S
C499 C507 1.503 1_556 S
C500 C499 1.410 . S
C500 C501 1.392 . S
C500 C503 1.511 1_565 S
C501 C497 1.376 . S
C501 C500 1.392 . S
C501 H513 0.929 . S
C502 C498 1.531 . S
C502 H514 0.960 1_556 S
C502 H515 0.962 . S
C502 H516 0.960 . S
C503 C500 1.511 1_545 S
C503 H517 0.961 . S
C503 H518 0.961 1_556 S
C503 H519 0.961 1_545 S
C504 C505 1.370 . S
C504 C506 1.363 . S
C504 H520 0.931 . S
C505 C504 1.370 . S
C505 C509 1.408 1_545 S
C506 C504 1.363 . S
C506 C507 1.370 1_545 S
C506 C510 1.524 . S
C507 C499 1.503 1_554 S
C507 C506 1.370 1_565 S
C507 C508 1.403 . S
C508 C507 1.403 . S
C508 C509 1.404 . S
C508 C511 1.539 . S
C509 C505 1.408 1_565 S
C509 C508 1.404 . S
C509 H521 0.930 . S
C510 C506 1.524 . S
C510 H522 0.956 1_554 S
C510 H523 0.961 1_554 S
C510 H524 0.961 . S
C511 C508 1.539 . S
C511 H525 0.958 . S
C511 H526 0.961 . S
C511 H527 0.960 . S
H512 C496 0.931 . S
H513 C501 0.929 . S
H514 C502 0.960 1_554 S
H515 C502 0.962 . S
H516 C502 0.960 . S
H517 C503 0.961 . S
H518 C503 0.961 1_554 S
H519 C503 0.961 1_565 S
H520 C504 0.931 . S
H521 C509 0.930 . S
H522 C510 0.956 1_556 S
H523 C510 0.961 1_556 S
H524 C510 0.961 . S
H525 C511 0.958 . S
H526 C511 0.961 . S
H527 C511 0.960 . S
C528 C529 1.391 . S
C528 C530 1.394 . S
C528 H544 0.931 . S
C529 C528 1.391 . S
C529 C533 1.376 . S
C530 C528 1.394 . S
C530 C531 1.369 . S
C530 C534 1.531 . S
C531 C530 1.369 . S
C531 C532 1.410 . S
C531 C539 1.503 . S
C532 C531 1.410 . S
C532 C533 1.392 . S
C532 C535 1.511 . S
C533 C529 1.376 . S
C533 C532 1.392 . S
C533 H545 0.929 . S
C534 C530 1.531 . S
C534 H546 0.960 . S
C534 H547 0.962 . S
C534 H548 0.960 . S
C535 C532 1.511 . S
C535 H549 0.961 . S
C535 H550 0.961 . S
C535 H551 0.961 . S
C536 C537 1.370 . S
C536 C538 1.363 . S
C536 H552 0.931 . S
C537 C536 1.370 . S
C537 C541 1.408 . S
C538 C536 1.363 . S
C538 C539 1.370 . S
C538 C542 1.524 . S
C539 C531 1.503 . S
C539 C538 1.370 . S
C539 C540 1.403 . S
C540 C539 1.403 . S
C540 C541 1.404 . S
C540 C543 1.539 . S
C541 C537 1.408 . S
C541 C540 1.404 . S
C541 H553 0.930 . S
C542 C538 1.524 . S
C542 H554 0.956 . S
C542 H555 0.961 . S
C542 H556 0.961 . S
C543 C540 1.539 . S
C543 H557 0.958 . S
C543 H558 0.961 . S
C543 H559 0.960 . S
H544 C528 0.931 . S
H545 C533 0.929 . S
H546 C534 0.960 . S
H547 C534 0.962 . S
H548 C534 0.960 . S
H549 C535 0.961 . S
H550 C535 0.961 . S
H551 C535 0.961 . S
H552 C536 0.931 . S
H553 C541 0.930 . S
H554 C542 0.956 . S
H555 C542 0.961 . S
H556 C542 0.961 . S
H557 C543 0.958 . S
H558 C543 0.961 . S
H559 C543 0.960 . S
C560 C561 1.391 . S
C560 C562 1.394 . S
C560 H576 0.931 . S
C561 C560 1.391 . S
C561 C565 1.376 1_655 S
C562 C560 1.394 . S
C562 C563 1.369 1_655 S
C562 C566 1.531 . S
C563 C562 1.369 1_455 S
C563 C564 1.410 . S
C563 C571 1.503 . S
C564 C563 1.410 . S
C564 C565 1.392 . S
C564 C567 1.511 . S
C565 C561 1.376 1_455 S
C565 C564 1.392 . S
C565 H577 0.929 . S
C566 C562 1.531 . S
C566 H578 0.960 . S
C566 H579 0.962 . S
C566 H580 0.960 . S
C567 C564 1.511 . S
C567 H581 0.961 . S
C567 H582 0.961 . S
C567 H583 0.961 . S
C568 C569 1.370 1_655 S
C568 C570 1.363 . S
C568 H584 0.931 . S
C569 C568 1.370 1_455 S
C569 C573 1.408 . S
C570 C568 1.363 . S
C570 C571 1.370 1_655 S
C570 C574 1.524 . S
C571 C563 1.503 . S
C571 C570 1.370 1_455 S
C571 C572 1.403 . S
C572 C571 1.403 . S
C572 C573 1.404 . S
C572 C575 1.539 . S
C573 C569 1.408 . S
C573 C572 1.404 . S
C573 H585 0.930 . S
C574 C570 1.524 . S
C574 H586 0.956 . S
C574 H587 0.961 . S
C574 H588 0.961 . S
C575 C572 1.539 . S
C575 H589 0.958 . S
C575 H590 0.961 . S
C575 H591 0.960 . S
H576 C560 0.931 . S
H577 C565 0.929 . S
H578 C566 0.960 . S
H579 C566 0.962 . S
H580 C566 0.960 . S
H581 C567 0.961 . S
H582 C567 0.961 . S
H583 C567 0.961 . S
H584 C568 0.931 . S
H585 C573 0.930 . S
H586 C574 0.956 . S
H587 C574 0.961 . S
H588 C574 0.961 . S
H589 C575 0.958 . S
H590 C575 0.961 . S
H591 C575 0.960 . S
C592 C593 1.391 1_545 S
C592 C594 1.394 . S
C592 H608 0.931 . S
C593 C592 1.391 1_565 S
C593 C597 1.376 . S
C594 C592 1.394 . S
C594 C595 1.369 1_545 S
C594 C598 1.531 . S
C595 C594 1.369 1_565 S
C595 C596 1.410 . S
C595 C603 1.503 1_564 S
C596 C595 1.410 . S
C596 C597 1.392 . S
C596 C599 1.511 . S
C597 C593 1.376 . S
C597 C596 1.392 . S
C597 H609 0.929 . S
C598 C594 1.531 . S
C598 H610 0.960 . S
C598 H611 0.962 . S
C598 H612 0.960 . S
C599 C596 1.511 . S
C599 H613 0.961 . S
C599 H614 0.961 1_554 S
C599 H615 0.961 . S
C600 C601 1.370 . S
C600 C602 1.363 . S
C600 H616 0.931 . S
C601 C600 1.370 . S
C601 C605 1.408 . S
C602 C600 1.363 . S
C602 C603 1.370 . S
C602 C606 1.524 . S
C603 C595 1.503 1_546 S
C603 C602 1.370 . S
C603 C604 1.403 . S
C604 C603 1.403 . S
C604 C605 1.404 . S
C604 C607 1.539 1_545 S
C605 C601 1.408 . S
C605 C604 1.404 . S
C605 H617 0.930 . S
C606 C602 1.524 . S
C606 H618 0.956 1_556 S
C606 H619 0.961 1_545 S
C606 H620 0.961 . S
C607 C604 1.539 1_565 S
C607 H621 0.958 1_565 S
C607 H622 0.961 . S
C607 H623 0.960 . S
H608 C592 0.931 . S
H609 C597 0.929 . S
H610 C598 0.960 . S
H611 C598 0.962 . S
H612 C598 0.960 . S
H613 C599 0.961 . S
H614 C599 0.961 1_556 S
H615 C599 0.961 . S
H616 C600 0.931 . S
H617 C605 0.930 . S
H618 C606 0.956 1_554 S
H619 C606 0.961 1_565 S
H620 C606 0.961 . S
H621 C607 0.958 1_545 S
H622 C607 0.961 . S
H623 C607 0.960 . S
C624 C625 1.391 . S
C624 C626 1.394 . S
C624 H640 0.931 . S
C625 C624 1.391 . S
C625 C629 1.376 1_556 S
C626 C624 1.394 . S
C626 C627 1.369 . S
C626 C630 1.531 . S
C627 C626 1.369 . S
C627 C628 1.410 1_556 S
C627 C635 1.503 1_556 S
C628 C627 1.410 1_554 S
C628 C629 1.392 . S
C628 C631 1.511 . S
C629 C625 1.376 1_554 S
C629 C628 1.392 . S
C629 H641 0.929 . S
C630 C626 1.531 . S
C630 H642 0.960 . S
C630 H643 0.962 . S
C630 H644 0.960 . S
C631 C628 1.511 . S
C631 H645 0.961 . S
C631 H646 0.961 . S
C631 H647 0.961 . S
C632 C633 1.370 . S
C632 C634 1.363 . S
C632 H648 0.931 . S
C633 C632 1.370 . S
C633 C637 1.408 . S
C634 C632 1.363 . S
C634 C635 1.370 . S
C634 C638 1.524 . S
C635 C627 1.503 1_554 S
C635 C634 1.370 . S
C635 C636 1.403 . S
C636 C635 1.403 . S
C636 C637 1.404 . S
C636 C639 1.539 1_554 S
C637 C633 1.408 . S
C637 C636 1.404 . S
C637 H649 0.930 . S
C638 C634 1.524 . S
C638 H650 0.956 1_554 S
C638 H651 0.961 . S
C638 H652 0.961 . S
C639 C636 1.539 1_556 S
C639 H653 0.958 . S
C639 H654 0.961 1_556 S
C639 H655 0.960 . S
H640 C624 0.931 . S
H641 C629 0.929 . S
H642 C630 0.960 . S
H643 C630 0.962 . S
H644 C630 0.960 . S
H645 C631 0.961 . S
H646 C631 0.961 . S
H647 C631 0.961 . S
H648 C632 0.931 . S
H649 C637 0.930 . S
H650 C638 0.956 1_556 S
H651 C638 0.961 . S
H652 C638 0.961 . S
H653 C639 0.958 . S
H654 C639 0.961 1_554 S
H655 C639 0.960 . S
C656 C657 1.391 . S
C656 C658 1.394 . S
C656 H672 0.931 . S
C657 C656 1.391 . S
C657 C661 1.376 . S
C658 C656 1.394 . S
C658 C659 1.369 . S
C658 C662 1.531 . S
C659 C658 1.369 . S
C659 C660 1.410 . S
C659 C667 1.503 . S
C660 C659 1.410 . S
C660 C661 1.392 . S
C660 C663 1.511 . S
C661 C657 1.376 . S
C661 C660 1.392 . S
C661 H673 0.929 . S
C662 C658 1.531 . S
C662 H674 0.960 . S
C662 H675 0.962 . S
C662 H676 0.960 . S
C663 C660 1.511 . S
C663 H677 0.961 . S
C663 H678 0.961 . S
C663 H679 0.961 . S
C664 C665 1.370 . S
C664 C666 1.363 . S
C664 H680 0.931 . S
C665 C664 1.370 . S
C665 C669 1.408 . S
C666 C664 1.363 . S
C666 C667 1.370 . S
C666 C670 1.524 . S
C667 C659 1.503 . S
C667 C666 1.370 . S
C667 C668 1.403 . S
C668 C667 1.403 . S
C668 C669 1.404 . S
C668 C671 1.539 . S
C669 C665 1.408 . S
C669 C668 1.404 . S
C669 H681 0.930 . S
C670 C666 1.524 . S
C670 H682 0.956 . S
C670 H683 0.961 . S
C670 H684 0.961 . S
C671 C668 1.539 . S
C671 H685 0.958 . S
C671 H686 0.961 . S
C671 H687 0.960 . S
H672 C656 0.931 . S
H673 C661 0.929 . S
H674 C662 0.960 . S
H675 C662 0.962 . S
H676 C662 0.960 . S
H677 C663 0.961 . S
H678 C663 0.961 . S
H679 C663 0.961 . S
H680 C664 0.931 . S
H681 C669 0.930 . S
H682 C670 0.956 . S
H683 C670 0.961 . S
H684 C670 0.961 . S
H685 C671 0.958 . S
H686 C671 0.961 . S
H687 C671 0.960 . S
C688 C689 1.391 . S
C688 C690 1.394 . S
C688 H704 0.931 . S
C689 C688 1.391 . S
C689 C693 1.376 . S
C690 C688 1.394 . S
C690 C691 1.369 . S
C690 C694 1.531 . S
C691 C690 1.369 . S
C691 C692 1.410 . S
C691 C699 1.503 . S
C692 C691 1.410 . S
C692 C693 1.392 . S
C692 C695 1.511 . S
C693 C689 1.376 . S
C693 C692 1.392 . S
C693 H705 0.929 . S
C694 C690 1.531 . S
C694 H706 0.960 . S
C694 H707 0.962 . S
C694 H708 0.960 . S
C695 C692 1.511 . S
C695 H709 0.961 . S
C695 H710 0.961 . S
C695 H711 0.961 . S
C696 C697 1.370 . S
C696 C698 1.363 . S
C696 H712 0.931 . S
C697 C696 1.370 . S
C697 C701 1.408 . S
C698 C696 1.363 . S
C698 C699 1.370 . S
C698 C702 1.524 . S
C699 C691 1.503 . S
C699 C698 1.370 . S
C699 C700 1.403 . S
C700 C699 1.403 . S
C700 C701 1.404 . S
C700 C703 1.539 . S
C701 C697 1.408 . S
C701 C700 1.404 . S
C701 H713 0.930 . S
C702 C698 1.524 . S
C702 H714 0.956 . S
C702 H715 0.961 . S
C702 H716 0.961 . S
C703 C700 1.539 . S
C703 H717 0.958 . S
C703 H718 0.961 . S
C703 H719 0.960 . S
H704 C688 0.931 . S
H705 C693 0.929 . S
H706 C694 0.960 . S
H707 C694 0.962 . S
H708 C694 0.960 . S
H709 C695 0.961 . S
H710 C695 0.961 . S
H711 C695 0.961 . S
H712 C696 0.931 . S
H713 C701 0.930 . S
H714 C702 0.956 . S
H715 C702 0.961 . S
H716 C702 0.961 . S
H717 C703 0.958 . S
H718 C703 0.961 . S
H719 C703 0.960 . S
C720 C721 1.391 . S
C720 C722 1.394 . S
C720 H736 0.931 . S
C721 C720 1.391 . S
C721 C725 1.376 1_554 S
C722 C720 1.394 . S
C722 C723 1.369 . S
C722 C726 1.531 . S
C723 C722 1.369 . S
C723 C724 1.410 1_554 S
C723 C731 1.503 1_554 S
C724 C723 1.410 1_556 S
C724 C725 1.392 . S
C724 C727 1.511 . S
C725 C721 1.376 1_556 S
C725 C724 1.392 . S
C725 H737 0.929 . S
C726 C722 1.531 . S
C726 H738 0.960 . S
C726 H739 0.962 . S
C726 H740 0.960 . S
C727 C724 1.511 . S
C727 H741 0.961 . S
C727 H742 0.961 . S
C727 H743 0.961 . S
C728 C729 1.370 . S
C728 C730 1.363 . S
C728 H744 0.931 . S
C729 C728 1.370 . S
C729 C733 1.408 . S
C730 C728 1.363 . S
C730 C731 1.370 . S
C730 C734 1.524 . S
C731 C723 1.503 1_556 S
C731 C730 1.370 . S
C731 C732 1.403 . S
C732 C731 1.403 . S
C732 C733 1.404 . S
C732 C735 1.539 . S
C733 C729 1.408 . S
C733 C732 1.404 . S
C733 H745 0.930 . S
C734 C730 1.524 . S
C734 H746 0.956 1_556 S
C734 H747 0.961 . S
C734 H748 0.961 . S
C735 C732 1.539 . S
C735 H749 0.958 1_556 S
C735 H750 0.961 . S
C735 H751 0.960 . S
H736 C720 0.931 . S
H737 C725 0.929 . S
H738 C726 0.960 . S
H739 C726 0.962 . S
H740 C726 0.960 . S
H741 C727 0.961 . S
H742 C727 0.961 . S
H743 C727 0.961 . S
H744 C728 0.931 . S
H745 C733 0.930 . S
H746 C734 0.956 1_554 S
H747 C734 0.961 . S
H748 C734 0.961 . S
H749 C735 0.958 1_554 S
H750 C735 0.961 . S
H751 C735 0.960 . S
C752 C753 1.391 . S
C752 C754 1.394 . S
C752 H768 0.931 . S
C753 C752 1.391 . S
C753 C757 1.376 . S
C754 C752 1.394 . S
C754 C755 1.369 . S
C754 C758 1.531 . S
C755 C754 1.369 . S
C755 C756 1.410 . S
C755 C763 1.503 . S
C756 C755 1.410 . S
C756 C757 1.392 . S
C756 C759 1.511 . S
C757 C753 1.376 . S
C757 C756 1.392 . S
C757 H769 0.929 . S
C758 C754 1.531 . S
C758 H770 0.960 . S
C758 H771 0.962 . S
C758 H772 0.960 . S
C759 C756 1.511 . S
C759 H773 0.961 . S
C759 H774 0.961 . S
C759 H775 0.961 . S
C760 C761 1.370 . S
C760 C762 1.363 . S
C760 H776 0.931 . S
C761 C760 1.370 . S
C761 C765 1.408 . S
C762 C760 1.363 . S
C762 C763 1.370 . S
C762 C766 1.524 . S
C763 C755 1.503 . S
C763 C762 1.370 . S
C763 C764 1.403 . S
C764 C763 1.403 . S
C764 C765 1.404 . S
C764 C767 1.539 . S
C765 C761 1.408 . S
C765 C764 1.404 . S
C765 H777 0.930 . S
C766 C762 1.524 . S
C766 H778 0.956 . S
C766 H779 0.961 . S
C766 H780 0.961 . S
C767 C764 1.539 . S
C767 H781 0.958 . S
C767 H782 0.961 . S
C767 H783 0.960 . S
H768 C752 0.931 . S
H769 C757 0.929 . S
H770 C758 0.960 . S
H771 C758 0.962 . S
H772 C758 0.960 . S
H773 C759 0.961 . S
H774 C759 0.961 . S
H775 C759 0.961 . S
H776 C760 0.931 . S
H777 C765 0.930 . S
H778 C766 0.956 . S
H779 C766 0.961 . S
H780 C766 0.961 . S
H781 C767 0.958 . S
H782 C767 0.961 . S
H783 C767 0.960 . S
C784 C785 1.391 . S
C784 C786 1.394 . S
C784 H800 0.931 . S
C785 C784 1.391 . S
C785 C789 1.376 . S
C786 C784 1.394 . S
C786 C787 1.369 . S
C786 C790 1.531 . S
C787 C786 1.369 . S
C787 C788 1.410 . S
C787 C795 1.503 . S
C788 C787 1.410 . S
C788 C789 1.392 . S
C788 C791 1.511 . S
C789 C785 1.376 . S
C789 C788 1.392 . S
C789 H801 0.929 . S
C790 C786 1.531 . S
C790 H802 0.960 . S
C790 H803 0.962 . S
C790 H804 0.960 . S
C791 C788 1.511 . S
C791 H805 0.961 . S
C791 H806 0.961 . S
C791 H807 0.961 . S
C792 C793 1.370 . S
C792 C794 1.363 . S
C792 H808 0.931 . S
C793 C792 1.370 . S
C793 C797 1.408 . S
C794 C792 1.363 . S
C794 C795 1.370 . S
C794 C798 1.524 . S
C795 C787 1.503 . S
C795 C794 1.370 . S
C795 C796 1.403 . S
C796 C795 1.403 . S
C796 C797 1.404 . S
C796 C799 1.539 . S
C797 C793 1.408 . S
C797 C796 1.404 . S
C797 H809 0.930 . S
C798 C794 1.524 . S
C798 H810 0.956 . S
C798 H811 0.961 . S
C798 H812 0.961 . S
C799 C796 1.539 . S
C799 H813 0.958 . S
C799 H814 0.961 . S
C799 H815 0.960 . S
H800 C784 0.931 . S
H801 C789 0.929 . S
H802 C790 0.960 . S
H803 C790 0.962 . S
H804 C790 0.960 . S
H805 C791 0.961 . S
H806 C791 0.961 . S
H807 C791 0.961 . S
H808 C792 0.931 . S
H809 C797 0.930 . S
H810 C798 0.956 . S
H811 C798 0.961 . S
H812 C798 0.961 . S
H813 C799 0.958 . S
H814 C799 0.961 . S
H815 C799 0.960 . S
C816 C817 1.391 . S
C816 C818 1.394 . S
C816 H832 0.931 . S
C817 C816 1.391 . S
C817 C821 1.376 . S
C818 C816 1.394 . S
C818 C819 1.369 . S
C818 C822 1.531 . S
C819 C818 1.369 . S
C819 C820 1.410 . S
C819 C827 1.503 . S
C820 C819 1.410 . S
C820 C821 1.392 . S
C820 C823 1.511 . S
C821 C817 1.376 . S
C821 C820 1.392 . S
C821 H833 0.929 . S
C822 C818 1.531 . S
C822 H834 0.960 . S
C822 H835 0.962 . S
C822 H836 0.960 . S
C823 C820 1.511 . S
C823 H837 0.961 . S
C823 H838 0.961 . S
C823 H839 0.961 . S
C824 C825 1.370 . S
C824 C826 1.363 . S
C824 H840 0.931 . S
C825 C824 1.370 . S
C825 C829 1.408 . S
C826 C824 1.363 . S
C826 C827 1.370 . S
C826 C830 1.524 . S
C827 C819 1.503 . S
C827 C826 1.370 . S
C827 C828 1.403 . S
C828 C827 1.403 . S
C828 C829 1.404 . S
C828 C831 1.539 . S
C829 C825 1.408 . S
C829 C828 1.404 . S
C829 H841 0.930 . S
C830 C826 1.524 . S
C830 H842 0.956 . S
C830 H843 0.961 . S
C830 H844 0.961 . S
C831 C828 1.539 . S
C831 H845 0.958 . S
C831 H846 0.961 . S
C831 H847 0.960 . S
H832 C816 0.931 . S
H833 C821 0.929 . S
H834 C822 0.960 . S
H835 C822 0.962 . S
H836 C822 0.960 . S
H837 C823 0.961 . S
H838 C823 0.961 . S
H839 C823 0.961 . S
H840 C824 0.931 . S
H841 C829 0.930 . S
H842 C830 0.956 . S
H843 C830 0.961 . S
H844 C830 0.961 . S
H845 C831 0.958 . S
H846 C831 0.961 . S
H847 C831 0.960 . S
C848 C849 1.391 1_455 S
C848 C850 1.394 . S
C848 H864 0.931 . S
C849 C848 1.391 1_655 S
C849 C853 1.376 . S
C850 C848 1.394 . S
C850 C851 1.357 1_455 S
C850 C854 1.542 . S
C851 C850 1.357 1_655 S
C851 C852 1.410 . S
C851 C859 1.503 . S
C852 C851 1.410 . S
C852 C853 1.392 . S
C852 C855 1.511 . S
C853 C849 1.376 . S
C853 C852 1.392 . S
C853 H865 0.929 . S
C854 C850 1.542 . S
C854 H866 0.960 . S
C854 H867 0.962 . S
C854 H868 0.960 . S
C855 C852 1.511 . S
C855 H869 0.961 . S
C855 H870 0.961 . S
C855 H871 0.961 . S
C856 C857 1.370 1_455 S
C856 C858 1.363 . S
C856 H872 0.931 . S
C857 C856 1.370 1_655 S
C857 C861 1.408 . S
C858 C856 1.363 . S
C858 C859 1.370 1_455 S
C858 C862 1.524 . S
C859 C851 1.503 . S
C859 C858 1.370 1_655 S
C859 C860 1.403 . S
C860 C859 1.403 . S
C860 C861 1.404 . S
C860 C863 1.539 . S
C861 C857 1.408 . S
C861 C860 1.404 . S
C861 H873 0.930 . S
C862 C858 1.524 . S
C862 H874 0.956 . S
C862 H875 0.961 . S
C862 H876 0.961 . S
C863 C860 1.539 . S
C863 H877 0.958 . S
C863 H878 0.961 . S
C863 H879 0.960 . S
H864 C848 0.931 . S
H865 C853 0.929 . S
H866 C854 0.960 . S
H867 C854 0.962 . S
H868 C854 0.960 . S
H869 C855 0.961 . S
H870 C855 0.961 . S
H871 C855 0.961 . S
H872 C856 0.931 . S
H873 C861 0.930 . S
H874 C862 0.956 . S
H875 C862 0.961 . S
H876 C862 0.961 . S
H877 C863 0.958 . S
H878 C863 0.961 . S
H879 C863 0.960 . S
C880 C881 1.394 . S
C880 C882 1.394 . S
C880 H896 0.931 . S
C881 C880 1.394 . S
C881 C885 1.373 1_545 S
C882 C880 1.394 . S
C882 C883 1.369 . S
C882 C886 1.531 . S
C883 C882 1.369 . S
C883 C884 1.410 1_545 S
C883 C891 1.503 . S
C884 C883 1.410 1_565 S
C884 C885 1.392 . S
C884 C887 1.511 . S
C885 C881 1.373 1_565 S
C885 C884 1.392 . S
C885 H897 0.929 . S
C886 C882 1.531 . S
C886 H898 0.960 . S
C886 H899 0.962 . S
C886 H900 0.960 . S
C887 C884 1.511 . S
C887 H901 0.961 . S
C887 H902 0.961 . S
C887 H903 0.961 . S
C888 C889 1.370 1_565 S
C888 C890 1.363 . S
C888 H904 0.931 . S
C889 C888 1.370 1_545 S
C889 C893 1.408 . S
C890 C888 1.363 . S
C890 C891 1.370 1_565 S
C890 C894 1.524 . S
C891 C883 1.503 . S
C891 C890 1.370 1_545 S
C891 C892 1.403 . S
C892 C891 1.403 . S
C892 C893 1.404 . S
C892 C895 1.539 . S
C893 C889 1.408 . S
C893 C892 1.404 . S
C893 H905 0.930 . S
C894 C890 1.524 . S
C894 H906 0.956 . S
C894 H907 0.961 . S
C894 H908 0.961 . S
C895 C892 1.539 . S
C895 H909 0.958 . S
C895 H910 0.961 . S
C895 H911 0.960 . S
H896 C880 0.931 . S
H897 C885 0.929 . S
H898 C886 0.960 . S
H899 C886 0.962 . S
H900 C886 0.960 . S
H901 C887 0.961 . S
H902 C887 0.961 . S
H903 C887 0.961 . S
H904 C888 0.931 . S
H905 C893 0.930 . S
H906 C894 0.956 . S
H907 C894 0.961 . S
H908 C894 0.961 . S
H909 C895 0.958 . S
H910 C895 0.961 . S
H911 C895 0.960 . S
C912 C913 1.391 . S
C912 C914 1.394 . S
C912 H928 0.931 . S
C913 C912 1.391 . S
C913 C917 1.376 . S
C914 C912 1.394 . S
C914 C915 1.369 . S
C914 C918 1.531 . S
C915 C914 1.369 . S
C915 C916 1.410 . S
C915 C923 1.503 . S
C916 C915 1.410 . S
C916 C917 1.392 . S
C916 C919 1.511 . S
C917 C913 1.376 . S
C917 C916 1.392 . S
C917 H929 0.929 . S
C918 C914 1.531 . S
C918 H930 0.960 . S
C918 H931 0.962 . S
C918 H932 0.960 . S
C919 C916 1.511 . S
C919 H933 0.961 . S
C919 H934 0.961 . S
C919 H935 0.961 . S
C920 C921 1.370 . S
C920 C922 1.363 . S
C920 H936 0.931 . S
C921 C920 1.370 . S
C921 C925 1.408 . S
C922 C920 1.363 . S
C922 C923 1.370 . S
C922 C926 1.524 . S
C923 C915 1.503 . S
C923 C922 1.370 . S
C923 C924 1.403 . S
C924 C923 1.403 . S
C924 C925 1.404 . S
C924 C927 1.539 . S
C925 C921 1.408 . S
C925 C924 1.404 . S
C925 H937 0.930 . S
C926 C922 1.524 . S
C926 H938 0.956 . S
C926 H939 0.961 . S
C926 H940 0.961 . S
C927 C924 1.539 . S
C927 H941 0.958 . S
C927 H942 0.961 . S
C927 H943 0.960 . S
H928 C912 0.931 . S
H929 C917 0.929 . S
H930 C918 0.960 . S
H931 C918 0.962 . S
H932 C918 0.960 . S
H933 C919 0.961 . S
H934 C919 0.961 . S
H935 C919 0.961 . S
H936 C920 0.931 . S
H937 C925 0.930 . S
H938 C926 0.956 . S
H939 C926 0.961 . S
H940 C926 0.961 . S
H941 C927 0.958 . S
H942 C927 0.961 . S
H943 C927 0.960 . S
C944 C945 1.391 . S
C944 C946 1.394 . S
C944 H960 0.931 . S
C945 C944 1.391 . S
C945 C949 1.376 1_455 S
C946 C944 1.394 . S
C946 C947 1.379 . S
C946 C950 1.531 . S
C947 C946 1.379 . S
C947 C948 1.399 1_455 S
C947 C955 1.504 . S
C948 C947 1.399 1_655 S
C948 C949 1.392 . S
C948 C951 1.511 . S
C949 C945 1.376 1_655 S
C949 C948 1.392 . S
C949 H961 0.929 . S
C950 C946 1.531 . S
C950 H962 0.960 . S
C950 H963 0.962 . S
C950 H964 0.960 . S
C951 C948 1.511 . S
C951 H965 0.961 . S
C951 H966 0.961 . S
C951 H967 0.961 . S
C952 C953 1.370 . S
C952 C954 1.363 . S
C952 H968 0.931 . S
C953 C952 1.370 . S
C953 C957 1.408 1_455 S
C954 C952 1.363 . S
C954 C955 1.370 . S
C954 C958 1.524 . S
C955 C947 1.504 . S
C955 C954 1.370 . S
C955 C956 1.403 1_455 S
C956 C955 1.403 1_655 S
C956 C957 1.404 . S
C956 C959 1.539 . S
C957 C953 1.408 1_655 S
C957 C956 1.404 . S
C957 H969 0.930 . S
C958 C954 1.524 . S
C958 H970 0.956 . S
C958 H971 0.961 . S
C958 H972 0.961 . S
C959 C956 1.539 . S
C959 H973 0.958 . S
C959 H974 0.961 . S
C959 H975 0.960 . S
H960 C944 0.931 . S
H961 C949 0.929 . S
H962 C950 0.960 . S
H963 C950 0.962 . S
H964 C950 0.960 . S
H965 C951 0.961 . S
H966 C951 0.961 . S
H967 C951 0.961 . S
H968 C952 0.931 . S
H969 C957 0.930 . S
H970 C958 0.956 . S
H971 C958 0.961 . S
H972 C958 0.961 . S
H973 C959 0.958 . S
H974 C959 0.961 . S
H975 C959 0.960 . S
C976 C977 1.391 . S
C976 C978 1.394 . S
C976 H992 0.931 . S
C977 C976 1.391 . S
C977 C981 1.376 . S
C978 C976 1.394 . S
C978 C979 1.369 . S
C978 C982 1.531 . S
C979 C978 1.369 . S
C979 C980 1.410 . S
C979 C987 1.503 . S
C980 C979 1.410 . S
C980 C981 1.392 . S
C980 C983 1.511 . S
C981 C977 1.376 . S
C981 C980 1.392 . S
C981 H993 0.929 . S
C982 C978 1.531 . S
C982 H994 0.960 . S
C982 H995 0.962 1_565 S
C982 H996 0.960 . S
C983 C980 1.511 . S
C983 H997 0.961 1_565 S
C983 H998 0.961 1_565 S
C983 H999 0.961 . S
C984 C985 1.397 . S
C984 C986 1.363 . S
C984 H1000 0.931 . S
C985 C984 1.397 . S
C985 C989 1.378 1_545 S
C986 C984 1.363 . S
C986 C987 1.370 1_545 S
C986 C990 1.524 . S
C987 C979 1.503 . S
C987 C986 1.370 1_565 S
C987 C988 1.403 . S
C988 C987 1.403 . S
C988 C989 1.404 . S
C988 C991 1.539 . S
C989 C985 1.378 1_565 S
C989 C988 1.404 . S
C989 H1001 0.930 . S
C990 C986 1.524 . S
C990 H1002 0.956 . S
C990 H1003 0.961 . S
C990 H1004 0.961 . S
C991 C988 1.539 . S
C991 H1005 0.958 . S
C991 H1006 0.961 . S
C991 H1007 0.960 . S
H992 C976 0.931 . S
H993 C981 0.929 . S
H994 C982 0.960 . S
H995 C982 0.962 1_545 S
H996 C982 0.960 . S
H997 C983 0.961 1_545 S
H998 C983 0.961 1_545 S
H999 C983 0.961 . S
H1000 C984 0.931 . S
H1001 C989 0.930 . S
H1002 C990 0.956 . S
H1003 C990 0.961 . S
H1004 C990 0.961 . S
H1005 C991 0.958 . S
H1006 C991 0.961 . S
H1007 C991 0.960 . S
C1008 C1009 1.391 . S
C1008 C1010 1.394 . S
C1008 H1024 0.931 . S
C1009 C1008 1.391 . S
C1009 C1013 1.376 . S
C1010 C1008 1.394 . S
C1010 C1011 1.369 . S
C1010 C1014 1.531 . S
C1011 C1010 1.369 . S
C1011 C1012 1.410 . S
C1011 C1019 1.503 . S
C1012 C1011 1.410 . S
C1012 C1013 1.392 . S
C1012 C1015 1.511 . S
C1013 C1009 1.376 . S
C1013 C1012 1.392 . S
C1013 H1025 0.929 . S
C1014 C1010 1.531 . S
C1014 H1026 0.960 1_554 S
C1014 H1027 0.962 . S
C1014 H1028 0.960 1_554 S
C1015 C1012 1.511 . S
C1015 H1029 0.961 . S
C1015 H1030 0.961 . S
C1015 H1031 0.961 . S
C1016 C1017 1.370 . S
C1016 C1018 1.363 . S
C1016 H1032 0.931 . S
C1017 C1016 1.370 . S
C1017 C1021 1.408 . S
C1018 C1016 1.363 . S
C1018 C1019 1.370 . S
C1018 C1022 1.524 . S
C1019 C1011 1.503 . S
C1019 C1018 1.370 . S
C1019 C1020 1.403 . S
C1020 C1019 1.403 . S
C1020 C1021 1.404 . S
C1020 C1023 1.539 1_554 S
C1021 C1017 1.408 . S
C1021 C1020 1.404 . S
C1021 H1033 0.930 . S
C1022 C1018 1.524 . S
C1022 H1034 0.956 . S
C1022 H1035 0.961 . S
C1022 H1036 0.961 . S
C1023 C1020 1.539 1_556 S
C1023 H1037 0.958 . S
C1023 H1038 0.961 . S
C1023 H1039 0.960 . S
H1024 C1008 0.931 . S
H1025 C1013 0.929 . S
H1026 C1014 0.960 1_556 S
H1027 C1014 0.962 . S
H1028 C1014 0.960 1_556 S
H1029 C1015 0.961 . S
H1030 C1015 0.961 . S
H1031 C1015 0.961 . S
H1032 C1016 0.931 . S
H1033 C1021 0.930 . S
H1034 C1022 0.956 . S
H1035 C1022 0.961 . S
H1036 C1022 0.961 . S
H1037 C1023 0.958 . S
H1038 C1023 0.961 . S
H1039 C1023 0.960 . S
C1040 C1041 1.391 . S
C1040 C1042 1.394 . S
C1040 H1056 0.931 . S
C1041 C1040 1.391 . S
C1041 C1045 1.376 1_455 S
C1042 C1040 1.394 . S
C1042 C1043 1.369 . S
C1042 C1046 1.531 . S
C1043 C1042 1.369 . S
C1043 C1044 1.410 1_455 S
C1043 C1051 1.503 1_455 S
C1044 C1043 1.410 1_655 S
C1044 C1045 1.392 . S
C1044 C1047 1.511 . S
C1045 C1041 1.376 1_655 S
C1045 C1044 1.392 . S
C1045 H1057 0.929 . S
C1046 C1042 1.531 . S
C1046 H1058 0.960 . S
C1046 H1059 0.962 . S
C1046 H1060 0.960 . S
C1047 C1044 1.511 . S
C1047 H1061 0.961 . S
C1047 H1062 0.961 . S
C1047 H1063 0.961 . S
C1048 C1049 1.370 . S
C1048 C1050 1.363 . S
C1048 H1064 0.931 . S
C1049 C1048 1.370 . S
C1049 C1053 1.408 . S
C1050 C1048 1.363 . S
C1050 C1051 1.370 . S
C1050 C1054 1.524 1_655 S
C1051 C1043 1.503 1_655 S
C1051 C1050 1.370 . S
C1051 C1052 1.403 . S
C1052 C1051 1.403 . S
C1052 C1053 1.404 . S
C1052 C1055 1.539 . S
C1053 C1049 1.408 . S
C1053 C1052 1.404 . S
C1053 H1065 0.930 . S
C1054 C1050 1.524 1_455 S
C1054 H1066 0.956 . S
C1054 H1067 0.961 1_455 S
C1054 H1068 0.961 . S
C1055 C1052 1.539 . S
C1055 H1069 0.958 . S
C1055 H1070 0.961 . S
C1055 H1071 0.960 . S
H1056 C1040 0.931 . S
H1057 C1045 0.929 . S
H1058 C1046 0.960 . S
H1059 C1046 0.962 . S
H1060 C1046 0.960 . S
H1061 C1047 0.961 . S
H1062 C1047 0.961 . S
H1063 C1047 0.961 . S
H1064 C1048 0.931 . S
H1065 C1053 0.930 . S
H1066 C1054 0.956 . S
H1067 C1054 0.961 1_655 S
H1068 C1054 0.961 . S
H1069 C1055 0.958 . S
H1070 C1055 0.961 . S
H1071 C1055 0.960 . S
C1072 C1073 1.391 . S
C1072 C1074 1.394 . S
C1072 H1088 0.931 . S
C1073 C1072 1.391 . S
C1073 C1077 1.376 1_565 S
C1074 C1072 1.394 . S
C1074 C1075 1.369 . S
C1074 C1078 1.531 . S
C1075 C1074 1.369 . S
C1075 C1076 1.410 1_565 S
C1075 C1083 1.503 1_565 S
C1076 C1075 1.410 1_545 S
C1076 C1077 1.392 . S
C1076 C1079 1.511 . S
C1077 C1073 1.376 1_545 S
C1077 C1076 1.392 . S
C1077 H1089 0.929 . S
C1078 C1074 1.531 . S
C1078 H1090 0.960 . S
C1078 H1091 0.962 . S
C1078 H1092 0.960 . S
C1079 C1076 1.511 . S
C1079 H1093 0.961 . S
C1079 H1094 0.961 . S
C1079 H1095 0.961 . S
C1080 C1081 1.370 . S
C1080 C1082 1.363 . S
C1080 H1096 0.931 . S
C1081 C1080 1.370 . S
C1081 C1085 1.408 . S
C1082 C1080 1.363 . S
C1082 C1083 1.370 . S
C1082 C1086 1.524 1_545 S
C1083 C1075 1.503 1_545 S
C1083 C1082 1.370 . S
C1083 C1084 1.403 . S
C1084 C1083 1.403 . S
C1084 C1085 1.404 . S
C1084 C1087 1.539 . S
C1085 C1081 1.408 . S
C1085 C1084 1.404 . S
C1085 H1097 0.930 . S
C1086 C1082 1.524 1_565 S
C1086 H1098 0.956 . S
C1086 H1099 0.961 1_565 S
C1086 H1100 0.961 1_565 S
C1087 C1084 1.539 . S
C1087 H1101 0.958 1_545 S
C1087 H1102 0.961 . S
C1087 H1103 0.960 . S
H1088 C1072 0.931 . S
H1089 C1077 0.929 . S
H1090 C1078 0.960 . S
H1091 C1078 0.962 . S
H1092 C1078 0.960 . S
H1093 C1079 0.961 . S
H1094 C1079 0.961 . S
H1095 C1079 0.961 . S
H1096 C1080 0.931 . S
H1097 C1085 0.930 . S
H1098 C1086 0.956 . S
H1099 C1086 0.961 1_545 S
H1100 C1086 0.961 1_545 S
H1101 C1087 0.958 1_565 S
H1102 C1087 0.961 . S
H1103 C1087 0.960 . S
C1104 C1105 1.391 . S
C1104 C1106 1.394 . S
C1104 H1120 0.931 . S
C1105 C1104 1.391 . S
C1105 C1109 1.376 . S
C1106 C1104 1.394 . S
C1106 C1107 1.369 . S
C1106 C1110 1.531 . S
C1107 C1106 1.369 . S
C1107 C1108 1.410 . S
C1107 C1115 1.503 . S
C1108 C1107 1.410 . S
C1108 C1109 1.392 . S
C1108 C1111 1.511 . S
C1109 C1105 1.376 . S
C1109 C1108 1.392 . S
C1109 H1121 0.929 . S
C1110 C1106 1.531 . S
C1110 H1122 0.960 . S
C1110 H1123 0.962 . S
C1110 H1124 0.960 . S
C1111 C1108 1.511 . S
C1111 H1125 0.961 . S
C1111 H1126 0.961 . S
C1111 H1127 0.961 . S
C1112 C1113 1.370 . S
C1112 C1114 1.363 . S
C1112 H1128 0.931 . S
C1113 C1112 1.370 . S
C1113 C1117 1.408 . S
C1114 C1112 1.363 . S
C1114 C1115 1.370 . S
C1114 C1118 1.524 . S
C1115 C1107 1.503 . S
C1115 C1114 1.370 . S
C1115 C1116 1.403 . S
C1116 C1115 1.403 . S
C1116 C1117 1.404 . S
C1116 C1119 1.539 . S
C1117 C1113 1.408 . S
C1117 C1116 1.404 . S
C1117 H1129 0.930 . S
C1118 C1114 1.524 . S
C1118 H1130 0.956 . S
C1118 H1131 0.961 . S
C1118 H1132 0.961 . S
C1119 C1116 1.539 . S
C1119 H1133 0.958 . S
C1119 H1134 0.961 . S
C1119 H1135 0.960 . S
H1120 C1104 0.931 . S
H1121 C1109 0.929 . S
H1122 C1110 0.960 . S
H1123 C1110 0.962 . S
H1124 C1110 0.960 . S
H1125 C1111 0.961 . S
H1126 C1111 0.961 . S
H1127 C1111 0.961 . S
H1128 C1112 0.931 . S
H1129 C1117 0.930 . S
H1130 C1118 0.956 . S
H1131 C1118 0.961 . S
H1132 C1118 0.961 . S
H1133 C1119 0.958 . S
H1134 C1119 0.961 . S
H1135 C1119 0.960 . S
C1136 C1137 1.391 . S
C1136 C1138 1.394 1_655 S
C1136 H1152 0.931 1_655 S
C1137 C1136 1.391 . S
C1137 C1141 1.376 . S
C1138 C1136 1.394 1_455 S
C1138 C1139 1.369 1_455 S
C1138 C1142 1.531 1_556 S
C1139 C1138 1.369 1_655 S
C1139 C1140 1.410 . S
C1139 C1147 1.505 1_655 S
C1140 C1139 1.410 . S
C1140 C1141 1.392 . S
C1140 C1143 1.511 . S
C1141 C1137 1.376 . S
C1141 C1140 1.392 . S
C1141 H1153 0.929 . S
C1142 C1138 1.531 1_554 S
C1142 H1154 0.960 . S
C1142 H1155 0.962 1_554 S
C1142 H1156 0.960 . S
C1143 C1140 1.511 . S
C1143 H1157 0.961 . S
C1143 H1158 0.961 . S
C1143 H1159 0.961 . S
C1144 C1145 1.370 . S
C1144 C1146 1.363 . S
C1144 H1160 0.931 . S
C1145 C1144 1.370 . S
C1145 C1149 1.408 1_455 S
C1146 C1144 1.363 . S
C1146 C1147 1.369 . S
C1146 C1150 1.524 . S
C1147 C1139 1.505 1_455 S
C1147 C1146 1.369 . S
C1147 C1148 1.403 1_455 S
C1148 C1147 1.403 1_655 S
C1148 C1149 1.404 . S
C1148 C1151 1.539 . S
C1149 C1145 1.408 1_655 S
C1149 C1148 1.404 . S
C1149 H1161 0.930 . S
C1150 C1146 1.524 . S
C1150 H1162 0.956 . S
C1150 H1163 0.961 . S
C1150 H1164 0.961 . S
C1151 C1148 1.539 . S
C1151 H1165 0.958 1_556 S
C1151 H1166 0.961 . S
C1151 H1167 0.960 . S
H1152 C1136 0.931 1_455 S
H1153 C1141 0.929 . S
H1154 C1142 0.960 . S
H1155 C1142 0.962 1_556 S
H1156 C1142 0.960 . S
H1157 C1143 0.961 . S
H1158 C1143 0.961 . S
H1159 C1143 0.961 . S
H1160 C1144 0.931 . S
H1161 C1149 0.930 . S
H1162 C1150 0.956 . S
H1163 C1150 0.961 . S
H1164 C1150 0.961 . S
H1165 C1151 0.958 1_554 S
H1166 C1151 0.961 . S
H1167 C1151 0.960 . S
C1168 C1169 1.391 . S
C1168 C1170 1.394 . S
C1168 H1184 0.931 . S
C1169 C1168 1.391 . S
C1169 C1173 1.376 . S
C1170 C1168 1.394 . S
C1170 C1171 1.369 . S
C1170 C1174 1.531 . S
C1171 C1170 1.369 . S
C1171 C1172 1.410 1_545 S
C1171 C1179 1.503 1_545 S
C1172 C1171 1.410 1_565 S
C1172 C1173 1.392 1_565 S
C1172 C1175 1.511 . S
C1173 C1169 1.376 . S
C1173 C1172 1.392 1_545 S
C1173 H1185 0.929 1_545 S
C1174 C1170 1.531 . S
C1174 H1186 0.960 . S
C1174 H1187 0.962 . S
C1174 H1188 0.960 . S
C1175 C1172 1.511 . S
C1175 H1189 0.961 . S
C1175 H1190 0.961 . S
C1175 H1191 0.961 . S
C1176 C1177 1.370 . S
C1176 C1178 1.363 . S
C1176 H1192 0.931 . S
C1177 C1176 1.370 . S
C1177 C1181 1.394 1_565 S
C1178 C1176 1.363 . S
C1178 C1179 1.370 . S
C1178 C1182 1.524 . S
C1179 C1171 1.503 1_565 S
C1179 C1178 1.370 . S
C1179 C1180 1.403 1_565 S
C1180 C1179 1.403 1_545 S
C1180 C1181 1.400 . S
C1180 C1183 1.539 . S
C1181 C1177 1.394 1_545 S
C1181 C1180 1.400 . S
C1181 H1193 0.947 . S
C1182 C1178 1.524 . S
C1182 H1194 0.956 . S
C1182 H1195 0.961 . S
C1182 H1196 0.961 . S
C1183 C1180 1.539 . S
C1183 H1197 0.958 . S
C1183 H1198 0.961 . S
C1183 H1199 0.960 . S
H1184 C1168 0.931 . S
H1185 C1173 0.929 1_565 S
H1186 C1174 0.960 . S
H1187 C1174 0.962 . S
H1188 C1174 0.960 . S
H1189 C1175 0.961 . S
H1190 C1175 0.961 . S
H1191 C1175 0.961 . S
H1192 C1176 0.931 . S
H1193 C1181 0.947 . S
H1194 C1182 0.956 . S
H1195 C1182 0.961 . S
H1196 C1182 0.961 . S
H1197 C1183 0.958 . S
H1198 C1183 0.961 . S
H1199 C1183 0.960 . S
C433 C3 1.566 . S
C441 C338 1.515 . S
C465 C50 1.550 . S
C473 C363 1.585 . S
C497 C75 1.359 . S
C505 C399 1.373 . S
C529 C111 1.591 . S
C537 C230 1.532 . S
C561 C255 1.591 . S
C569 C158 1.533 . S
C593 C291 1.352 . S
C601 C183 1.364 . S
C625 C374 1.408 . S
C633 C14 1.408 . S
C657 C39 1.496 . S
C665 C410 1.379 . S
C689 C86 1.416 . S
C697 C219 1.487 . S
C721 C122 1.400 . S
C729 C266 1.412 . S
C753 C147 1.476 . S
C761 C302 1.410 . S
C785 C194 1.432 . S
C793 C327 1.486 . S
C817 C326 0.739 . S
C825 C4 0.812 . S
C849 C38 0.738 . S
C857 C364 0.811 1_655 S
C881 C76 0.718 1_545 S
C889 C400 0.631 . S
C913 C218 0.806 . S
C921 C112 0.753 . S
C945 C146 0.823 . S
C953 C256 0.754 1_455 S
C977 C292 0.564 . S
C985 C184 0.673 . S
C1009 C2 1.567 . S
C1017 C110 1.555 . S
C1041 C148 1.329 . S
C1049 C40 1.341 . S
C1073 C74 1.440 . S
C1081 C182 1.448 . S
C1105 C220 1.336 . S
C1113 C328 1.327 . S
C1137 C254 1.572 . S
C1145 C362 1.554 . S
C1169 C398 1.458 . S
C1177 C290 1.440 . S
