# Generated by pormake.
# Topology snl, (6)-cn, num edge types: 1
# Building blocks:
#     Node 0, Type 0, BuildingBlock: FUNLAD_clean_sbu_0, # of connection points: 6
#     Node 1, Type 0, BuildingBlock: FUNLAD_clean_sbu_0, # of connection points: 6
#     Node 2, Type 0, BuildingBlock: FUNLAD_clean_sbu_0, # of connection points: 6
#     Node 3, Type 0, BuildingBlock: FUNLAD_clean_sbu_0, # of connection points: 6
#     Node 4, Type 0, BuildingBlock: FUNLAD_clean_sbu_0, # of connection points: 6
#     Node 5, Type 0, BuildingBlock: FUNLAD_clean_sbu_0, # of connection points: 6
#     Node 6, Type 0, BuildingBlock: FUNLAD_clean_sbu_0, # of connection points: 6
#     Node 7, Type 0, BuildingBlock: FUNLAD_clean_sbu_0, # of connection points: 6
#     Node 8, Type 0, BuildingBlock: FUNLAD_clean_sbu_0, # of connection points: 6
#     Node 9, Type 0, BuildingBlock: FUNLAD_clean_sbu_0, # of connection points: 6
#     Node 10, Type 0, BuildingBlock: FUNLAD_clean_sbu_0, # of connection points: 6
#     Node 11, Type 0, BuildingBlock: FUNLAD_clean_sbu_0, # of connection points: 6
#     Node 12, Type 0, BuildingBlock: FUNLAD_clean_sbu_0, # of connection points: 6
#     Node 13, Type 0, BuildingBlock: FUNLAD_clean_sbu_0, # of connection points: 6
#     Node 14, Type 0, BuildingBlock: FUNLAD_clean_sbu_0, # of connection points: 6
#     Node 15, Type 0, BuildingBlock: FUNLAD_clean_sbu_0, # of connection points: 6
#     Edge 16, Type (0, 0), BuildingBlock: KIFKEQ_clean_linker_1, # of connection points: 2
#     Edge 17, Type (0, 0), BuildingBlock: KIFKEQ_clean_linker_1, # of connection points: 2
#     Edge 18, Type (0, 0), BuildingBlock: KIFKEQ_clean_linker_1, # of connection points: 2
#     Edge 19, Type (0, 0), BuildingBlock: KIFKEQ_clean_linker_1, # of connection points: 2
#     Edge 20, Type (0, 0), BuildingBlock: KIFKEQ_clean_linker_1, # of connection points: 2
#     Edge 21, Type (0, 0), BuildingBlock: KIFKEQ_clean_linker_1, # of connection points: 2
#     Edge 22, Type (0, 0), BuildingBlock: KIFKEQ_clean_linker_1, # of connection points: 2
#     Edge 23, Type (0, 0), BuildingBlock: KIFKEQ_clean_linker_1, # of connection points: 2
#     Edge 24, Type (0, 0), BuildingBlock: KIFKEQ_clean_linker_1, # of connection points: 2
#     Edge 25, Type (0, 0), BuildingBlock: KIFKEQ_clean_linker_1, # of connection points: 2
#     Edge 26, Type (0, 0), BuildingBlock: KIFKEQ_clean_linker_1, # of connection points: 2
#     Edge 27, Type (0, 0), BuildingBlock: KIFKEQ_clean_linker_1, # of connection points: 2
#     Edge 28, Type (0, 0), BuildingBlock: KIFKEQ_clean_linker_1, # of connection points: 2
#     Edge 29, Type (0, 0), BuildingBlock: KIFKEQ_clean_linker_1, # of connection points: 2
#     Edge 30, Type (0, 0), BuildingBlock: KIFKEQ_clean_linker_1, # of connection points: 2
#     Edge 31, Type (0, 0), BuildingBlock: KIFKEQ_clean_linker_1, # of connection points: 2
#     Edge 32, Type (0, 0), BuildingBlock: KIFKEQ_clean_linker_1, # of connection points: 2
#     Edge 33, Type (0, 0), BuildingBlock: KIFKEQ_clean_linker_1, # of connection points: 2
#     Edge 34, Type (0, 0), BuildingBlock: KIFKEQ_clean_linker_1, # of connection points: 2
#     Edge 35, Type (0, 0), BuildingBlock: KIFKEQ_clean_linker_1, # of connection points: 2
#     Edge 36, Type (0, 0), BuildingBlock: KIFKEQ_clean_linker_1, # of connection points: 2
#     Edge 37, Type (0, 0), BuildingBlock: KIFKEQ_clean_linker_1, # of connection points: 2
#     Edge 38, Type (0, 0), BuildingBlock: KIFKEQ_clean_linker_1, # of connection points: 2
#     Edge 39, Type (0, 0), BuildingBlock: KIFKEQ_clean_linker_1, # of connection points: 2
#     Edge 40, Type (0, 0), BuildingBlock: KIFKEQ_clean_linker_1, # of connection points: 2
#     Edge 41, Type (0, 0), BuildingBlock: KIFKEQ_clean_linker_1, # of connection points: 2
#     Edge 42, Type (0, 0), BuildingBlock: KIFKEQ_clean_linker_1, # of connection points: 2
#     Edge 43, Type (0, 0), BuildingBlock: KIFKEQ_clean_linker_1, # of connection points: 2
#     Edge 44, Type (0, 0), BuildingBlock: KIFKEQ_clean_linker_1, # of connection points: 2
#     Edge 45, Type (0, 0), BuildingBlock: KIFKEQ_clean_linker_1, # of connection points: 2
#     Edge 46, Type (0, 0), BuildingBlock: KIFKEQ_clean_linker_1, # of connection points: 2
#     Edge 47, Type (0, 0), BuildingBlock: KIFKEQ_clean_linker_1, # of connection points: 2
#     Edge 48, Type (0, 0), BuildingBlock: KIFKEQ_clean_linker_1, # of connection points: 2
#     Edge 49, Type (0, 0), BuildingBlock: KIFKEQ_clean_linker_1, # of connection points: 2
#     Edge 50, Type (0, 0), BuildingBlock: KIFKEQ_clean_linker_1, # of connection points: 2
#     Edge 51, Type (0, 0), BuildingBlock: KIFKEQ_clean_linker_1, # of connection points: 2
#     Edge 52, Type (0, 0), BuildingBlock: KIFKEQ_clean_linker_1, # of connection points: 2
#     Edge 53, Type (0, 0), BuildingBlock: KIFKEQ_clean_linker_1, # of connection points: 2
#     Edge 54, Type (0, 0), BuildingBlock: KIFKEQ_clean_linker_1, # of connection points: 2
#     Edge 55, Type (0, 0), BuildingBlock: KIFKEQ_clean_linker_1, # of connection points: 2
#     Edge 56, Type (0, 0), BuildingBlock: KIFKEQ_clean_linker_1, # of connection points: 2
#     Edge 57, Type (0, 0), BuildingBlock: KIFKEQ_clean_linker_1, # of connection points: 2
#     Edge 58, Type (0, 0), BuildingBlock: KIFKEQ_clean_linker_1, # of connection points: 2
#     Edge 59, Type (0, 0), BuildingBlock: KIFKEQ_clean_linker_1, # of connection points: 2
#     Edge 60, Type (0, 0), BuildingBlock: KIFKEQ_clean_linker_1, # of connection points: 2
#     Edge 61, Type (0, 0), BuildingBlock: KIFKEQ_clean_linker_1, # of connection points: 2
#     Edge 62, Type (0, 0), BuildingBlock: KIFKEQ_clean_linker_1, # of connection points: 2
#     Edge 63, Type (0, 0), BuildingBlock: KIFKEQ_clean_linker_1, # of connection points: 2
# Relax obj value: 0.103
# Max RMSD: 0.122
# Mean RMSD: 0.098
data_MOF--net-snl--node1-FUNLAD_clean_sbu_0--edge1-KIFKEQ_clean_linker_1
_symmetry_space_group_name_H-M    P1
_symmetry_Int_Tables_number       1
_symmetry_cell_setting            triclinic
loop_
_symmetry_equiv_pos_as_xyz
'x, y, z'
_cell_length_a     73.070491
_cell_length_b     71.716745
_cell_length_c     15.617745
_cell_angle_alpha  90.514386
_cell_angle_beta   90.473932
_cell_angle_gamma 90.514398
loop_
_atom_site_label
_atom_site_type_symbol
_atom_site_fract_x
_atom_site_fract_y
_atom_site_fract_z
_atom_type_partial_charge
C0 C 0.17255 0.64704 0.48715 0.0
N1 N 0.17211 0.69168 0.31774 0.0
C2 C 0.15925 0.70013 0.36656 0.0
C3 C 0.1578 0.71945 0.36684 0.0
C4 C 0.16991 0.73013 0.3175 0.0
C5 C 0.18356 0.72101 0.27069 0.0
C6 C 0.18428 0.70165 0.27095 0.0
Zn7 Zn 0.17258 0.66375 0.3107 0.0
C8 C 0.21326 0.64987 0.3139 0.0
N9 N 0.17382 0.60513 0.29735 0.0
C10 C 0.15958 0.59391 0.31995 0.0
C11 C 0.18798 0.59847 0.25048 0.0
C12 C 0.18777 0.58023 0.22057 0.0
C13 C 0.17249 0.56884 0.23577 0.0
C14 C 0.15857 0.57557 0.28913 0.0
Zn15 Zn 0.17286 0.63325 0.31084 0.0
O16 O 0.17319 0.6623 0.44635 0.0
C17 C 0.13207 0.6476 0.30739 0.0
O18 O 0.1719 0.6317 0.44576 0.0
H19 H 0.19892 0.60758 0.23048 0.0
H20 H 0.14982 0.69185 0.40367 0.0
H21 H 0.14844 0.59949 0.35704 0.0
O22 O 0.14133 0.66285 0.31102 0.0
O23 O 0.14142 0.63255 0.30488 0.0
H24 H 0.19433 0.69458 0.23238 0.0
O25 O 0.1738 0.63475 0.17523 0.0
O26 O 0.17196 0.66515 0.17543 0.0
O27 O 0.20419 0.63456 0.31806 0.0
O28 O 0.20375 0.66473 0.30945 0.0
C29 C 0.17297 0.6499 0.13414 0.0
H30 H 0.1469 0.72584 0.40294 0.0
H31 H 0.19341 0.7287 0.2331 0.0
H32 H 0.19903 0.57546 0.18166 0.0
H33 H 0.14652 0.56724 0.30243 0.0
C34 C 0.68163 0.91313 0.45708 0.0
N35 N 0.63988 0.92436 0.28328 0.0
C36 C 0.62903 0.91734 0.34573 0.0
C37 C 0.61079 0.92249 0.35029 0.0
C38 C 0.60372 0.93467 0.28909 0.0
C39 C 0.61514 0.94179 0.2255 0.0
C40 C 0.63342 0.93654 0.22427 0.0
Zn41 Zn 0.66614 0.91657 0.27961 0.0
C42 C 0.69036 0.94999 0.28052 0.0
N43 N 0.72141 0.90166 0.27618 0.0
C44 C 0.7272 0.88652 0.32032 0.0
C45 C 0.73272 0.91123 0.22353 0.0
C46 C 0.75067 0.90557 0.21292 0.0
C47 C 0.757 0.88983 0.25655 0.0
C48 C 0.74511 0.88031 0.3114 0.0
Zn49 Zn 0.69513 0.90945 0.28118 0.0
O50 O 0.66758 0.91822 0.41538 0.0
C51 C 0.67018 0.87624 0.27877 0.0
O52 O 0.69567 0.90787 0.41643 0.0
H53 H 0.72776 0.9232 0.18904 0.0
H54 H 0.63446 0.90756 0.39145 0.0
H55 H 0.71787 0.87912 0.36159 0.0
O56 O 0.6581 0.88869 0.28626 0.0
O57 O 0.68688 0.88102 0.27251 0.0
H58 H 0.6424 0.94205 0.17577 0.0
O59 O 0.6946 0.911 0.1456 0.0
O60 O 0.66493 0.91489 0.14409 0.0
O61 O 0.70304 0.93817 0.28992 0.0
O62 O 0.67395 0.94438 0.27239 0.0
C63 C 0.6798 0.91294 0.10367 0.0
H64 H 0.60214 0.91654 0.39922 0.0
H65 H 0.60994 0.95118 0.17726 0.0
H66 H 0.75956 0.9136 0.17177 0.0
H67 H 0.74953 0.86813 0.34618 0.0
C68 C 0.40028 0.37988 0.12996 0.0
N69 N 0.4436 0.37931 0.31073 0.0
C70 C 0.45241 0.36541 0.26834 0.0
C71 C 0.47106 0.36252 0.2826 0.0
C72 C 0.48068 0.37417 0.34034 0.0
C73 C 0.47138 0.38886 0.38038 0.0
C74 C 0.45275 0.39115 0.36481 0.0
Zn75 Zn 0.41584 0.38063 0.308 0.0
C76 C 0.40222 0.42141 0.3018 0.0
N77 N 0.35774 0.38212 0.3114 0.0
C78 C 0.34701 0.36718 0.28913 0.0
C79 C 0.3508 0.39679 0.35595 0.0
C80 C 0.33293 0.39629 0.3849 0.0
C81 C 0.32215 0.38031 0.37038 0.0
C82 C 0.32907 0.36586 0.31928 0.0
Zn83 Zn 0.38561 0.38116 0.30491 0.0
O84 O 0.41529 0.38037 0.17204 0.0
C85 C 0.3992 0.34049 0.31114 0.0
O86 O 0.38517 0.37973 0.16991 0.0
H87 H 0.35951 0.40824 0.37635 0.0
H88 H 0.44483 0.35614 0.22582 0.0
H89 H 0.35272 0.35564 0.25367 0.0
O90 O 0.4144 0.34942 0.30978 0.0
O91 O 0.3846 0.35014 0.31047 0.0
H92 H 0.44543 0.40189 0.39893 0.0
O93 O 0.38621 0.38255 0.4411 0.0
O94 O 0.41606 0.38081 0.44312 0.0
O95 O 0.3872 0.41219 0.2981 0.0
O96 O 0.41697 0.41199 0.30707 0.0
C97 C 0.4011 0.38185 0.48326 0.0
H98 H 0.47783 0.35117 0.24983 0.0
H99 H 0.47824 0.39802 0.42611 0.0
H100 H 0.32826 0.40756 0.4257 0.0
H101 H 0.3211 0.35329 0.30715 0.0
C102 C 0.89055 0.19559 0.77831 0.0
N103 N 0.87936 0.23846 0.95125 0.0
C104 C 0.89066 0.24996 0.90703 0.0
C105 C 0.88692 0.26892 0.90215 0.0
C106 C 0.87128 0.27603 0.94232 0.0
C107 C 0.85987 0.26379 -0.01258 0.0
C108 C 0.86426 0.24497 -0.00848 0.0
Zn109 Zn 0.8844 0.21091 0.95391 0.0
C110 C 0.85018 0.18879 0.9254 0.0
N111 N 0.8936 0.15288 0.9593 0.0
C112 C 0.90893 0.14537 0.9247 0.0
C113 C 0.88145 0.14231 0.00357 0.0
C114 C 0.88462 0.12347 0.01576 0.0
C115 C 0.90062 0.11553 -0.01637 0.0
C116 C 0.91285 0.12657 0.93705 0.0
Zn117 Zn 0.88902 0.18061 0.95508 0.0
O118 O 0.88807 0.21076 0.81914 0.0
C119 C 0.92346 0.2023 -0.02185 0.0
O120 O 0.89179 0.18044 0.81961 0.0
H121 H 0.86955 0.14861 0.03203 0.0
H122 H 0.90255 0.24441 0.87529 0.0
H123 H 0.91838 0.15407 0.88971 0.0
O124 O 0.91285 0.21618 0.97291 0.0
O125 O 0.91693 0.18591 0.97188 0.0
H126 H 0.85548 0.23552 0.02621 0.0
O127 O 0.88626 0.18088 0.08933 0.0
O128 O 0.88078 0.21085 0.09005 0.0
O129 O 0.86111 0.17546 0.93753 0.0
O130 O 0.85614 0.20543 0.93112 0.0
C131 C 0.88295 0.19575 0.13082 0.0
H132 H 0.89629 0.27791 0.8681 0.0
H133 H 0.84758 0.26862 0.01849 0.0
H134 H 0.87506 0.11536 0.05328 0.0
H135 H 0.92535 0.12077 0.9117 0.0
C136 C 0.16161 0.40381 0.10523 0.0
N137 N 0.11763 0.40935 0.93236 0.0
C138 C 0.10785 0.39959 -0.00914 0.0
C139 C 0.08914 0.40263 -0.00038 0.0
C140 C 0.08038 0.41562 0.94669 0.0
C141 C 0.09076 0.42494 0.88476 0.0
C142 C 0.10946 0.42175 0.87938 0.0
Zn143 Zn 0.1452 0.407 0.92751 0.0
C144 C 0.16275 0.44422 0.94783 0.0
N145 N 0.20311 0.40357 0.92019 0.0
C146 C 0.21179 0.38766 0.94357 0.0
C147 C 0.21147 0.41645 0.8701 0.0
C148 C 0.22836 0.4127 0.83406 0.0
C149 C 0.23661 0.39541 0.84858 0.0
C150 C 0.22865 0.38318 0.90757 0.0
Zn151 Zn 0.17547 0.4057 0.93027 0.0
O152 O 0.1466 0.40458 0.06358 0.0
C153 C 0.15734 0.3685 0.91312 0.0
O154 O 0.17665 0.40392 0.06485 0.0
H155 H 0.20426 0.4288 0.85051 0.0
H156 H 0.11465 0.38978 0.03227 0.0
H157 H 0.20494 0.37763 -0.01619 0.0
O158 O 0.14288 0.37814 0.91424 0.0
O159 O 0.17283 0.37652 0.91978 0.0
H160 H 0.1175 0.4295 0.83385 0.0
O161 O 0.17424 0.40741 0.79476 0.0
O162 O 0.14438 0.40931 0.79197 0.0
O163 O 0.1774 0.43494 0.94247 0.0
O164 O 0.14744 0.43587 0.9417 0.0
C165 C 0.15945 0.40872 0.75224 0.0
H166 H 0.08177 0.39526 0.04895 0.0
H167 H 0.08458 0.43476 0.84117 0.0
H168 H 0.23388 0.42243 0.78814 0.0
H169 H 0.23472 0.36978 0.92087 0.0
C170 C 0.92763 0.90712 0.42088 0.0
N171 N 0.93545 0.86406 0.24263 0.0
C172 C 0.94665 0.85589 0.30093 0.0
C173 C 0.94691 0.83649 0.30772 0.0
C174 C 0.93546 0.82557 0.25422 0.0
C175 C 0.92479 0.83445 0.19187 0.0
C176 C 0.92504 0.85375 0.18704 0.0
Zn177 Zn 0.93094 0.89182 0.24359 0.0
C178 C 0.89092 0.89885 0.24369 0.0
N179 N 0.91895 0.9494 0.24263 0.0
C180 C 0.93019 0.96166 0.28495 0.0
C181 C 0.90525 0.95533 0.19042 0.0
C182 C 0.90288 0.97426 0.17637 0.0
C183 C 0.91493 0.98713 0.21529 0.0
C184 C 0.92852 0.98076 0.27144 0.0
Zn185 Zn 0.9241 0.92176 0.24495 0.0
O186 O 0.93059 0.89215 0.37928 0.0
C187 C 0.96407 0.91466 0.24419 0.0
O188 O 0.9246 0.92209 0.38038 0.0
H189 H 0.89666 0.94535 0.15639 0.0
H190 H 0.95479 0.86443 0.34448 0.0
H191 H 0.94095 0.9566 0.32637 0.0
O192 O 0.95901 0.89768 0.24489 0.0
O193 O 0.95219 0.92743 0.24366 0.0
H194 H 0.9161 0.86052 0.14172 0.0
O195 O 0.92365 0.92133 0.10921 0.0
O196 O 0.9313 0.89189 0.10792 0.0
O197 O 0.89608 0.91577 0.2458 0.0
O198 O 0.90272 0.88605 0.24262 0.0
C199 C 0.92744 0.90663 0.06746 0.0
H200 H 0.95552 0.83016 0.35597 0.0
H201 H 0.91549 0.8267 0.15032 0.0
H202 H 0.8924 0.97872 0.13174 0.0
H203 H 0.93799 0.9904 0.30258 0.0
C204 C 0.39793 0.65472 0.12407 0.0
N205 N 0.39704 0.70211 0.30205 0.0
C206 C 0.40645 0.71235 0.24317 0.0
C207 C 0.40559 0.73213 0.24197 0.0
C208 C 0.39496 0.74215 0.302 0.0
C209 C 0.38546 0.7311 0.36214 0.0
C210 C 0.38664 0.71134 0.36093 0.0
Zn211 Zn 0.39815 0.67136 0.30143 0.0
C212 C 0.35822 0.65343 0.30292 0.0
N213 N 0.39975 0.60754 0.29925 0.0
C214 C 0.41038 0.59797 0.24239 0.0
C215 C 0.38957 0.59759 0.35637 0.0
C216 C 0.38982 0.57779 0.35775 0.0
C217 C 0.40063 0.56742 0.29974 0.0
C218 C 0.411 0.57816 0.24152 0.0
Zn219 Zn 0.39897 0.63833 0.29955 0.0
O220 O 0.39792 0.67014 0.16566 0.0
C221 C 0.43898 0.65635 0.29802 0.0
O222 O 0.39813 0.63926 0.16401 0.0
H223 H 0.38115 0.60499 0.40181 0.0
H224 H 0.41467 0.70521 0.19604 0.0
H225 H 0.41848 0.60568 0.19679 0.0
O226 O 0.42941 0.67137 0.30076 0.0
O227 O 0.43015 0.64069 0.29665 0.0
H228 H 0.37912 0.7034 0.40779 0.0
O229 O 0.39977 0.63956 0.43544 0.0
O230 O 0.39844 0.67039 0.43682 0.0
O231 O 0.36774 0.63838 0.30199 0.0
O232 O 0.36708 0.66905 0.30252 0.0
C233 C 0.3992 0.65497 0.4769 0.0
H234 H 0.41306 0.73942 0.19283 0.0
H235 H 0.37725 0.73759 0.41118 0.0
H236 H 0.3817 0.57074 0.40538 0.0
H237 H 0.41943 0.57139 0.19412 0.0
C238 C 0.68941 0.1277 0.21252 0.0
N239 N 0.64461 0.1215 0.3773 0.0
C240 C 0.63634 0.13208 0.31655 0.0
C241 C 0.61737 0.13232 0.30918 0.0
C242 C 0.6068 0.12196 0.36624 0.0
C243 C 0.61553 0.11101 0.428 0.0
C244 C 0.63465 0.11081 0.43182 0.0
Zn245 Zn 0.67228 0.12395 0.38894 0.0
C246 C 0.69121 0.08775 0.37682 0.0
N247 N 0.72987 0.13104 0.40477 0.0
C248 C 0.7379 0.14723 0.37924 0.0
C249 C 0.73823 0.11966 0.46195 0.0
C250 C 0.75418 0.1255 0.50379 0.0
C251 C 0.7614 0.14326 0.48701 0.0
C252 C 0.75376 0.15374 0.42042 0.0
Zn253 Zn 0.70245 0.12745 0.38855 0.0
O254 O 0.67451 0.12581 0.25315 0.0
C255 C 0.68314 0.1636 0.40308 0.0
O256 O 0.70442 0.12892 0.254 0.0
H257 H 0.73148 0.10701 0.48248 0.0
H258 H 0.64441 0.14085 0.27524 0.0
H259 H 0.73105 0.15603 0.33339 0.0
O260 O 0.66926 0.1529 0.39996 0.0
O261 O 0.699 0.15668 0.39745 0.0
H262 H 0.6415 0.10254 0.47972 0.0
O263 O 0.70036 0.12607 0.52393 0.0
O264 O 0.67064 0.12208 0.52429 0.0
O265 O 0.70534 0.0982 0.37983 0.0
O266 O 0.6754 0.09499 0.37958 0.0
C267 C 0.68564 0.12386 0.56527 0.0
H268 H 0.611 0.14115 0.26174 0.0
H269 H 0.60766 0.10291 0.47315 0.0
H270 H 0.75961 0.11706 0.5551 0.0
H271 H 0.75914 0.16742 0.40512 0.0
C272 C 0.86748 0.45564 0.81721 0.0
N273 N 0.82335 0.45409 -0.01482 0.0
C274 C 0.8154 0.46565 0.92756 0.0
C275 C 0.79779 0.46177 0.89664 0.0
C276 C 0.78848 0.44573 0.92466 0.0
C277 C 0.79627 0.43533 -0.00873 0.0
C278 C 0.81379 0.43984 0.02104 0.0
Zn279 Zn 0.85108 0.45339 -0.00588 0.0
C280 C 0.86405 0.41459 0.97221 0.0
N281 N 0.90887 0.44962 -0.00073 0.0
C282 C 0.91975 0.4617 0.95579 0.0
C283 C 0.91603 0.43531 0.04485 0.0
C284 C 0.93479 0.4322 0.04487 0.0
C285 C 0.94624 0.44416 -0.00102 0.0
C286 C 0.93868 0.4593 0.95542 0.0
Zn287 Zn 0.88128 0.45158 -0.00708 0.0
O288 O 0.85254 0.45653 0.85811 0.0
C289 C 0.86872 0.49023 0.01699 0.0
O290 O 0.88237 0.45368 0.85848 0.0
H291 H 0.90714 0.426 0.07971 0.0
H292 H 0.82328 0.47689 0.89993 0.0
H293 H 0.91371 0.47294 0.91984 0.0
O294 O 0.85297 0.48253 0.01347 0.0
O295 O 0.88294 0.48047 0.00663 0.0
H296 H 0.82041 0.4308 0.06663 0.0
O297 O 0.88 0.44953 0.12843 0.0
O298 O 0.84999 0.45023 0.12897 0.0
O299 O 0.87948 0.42266 -0.02135 0.0
O300 O 0.8496 0.42416 0.97663 0.0
C301 C 0.86508 0.44939 0.16977 0.0
H302 H 0.79209 0.47049 0.84705 0.0
H303 H 0.7897 0.42282 0.01487 0.0
H304 H 0.94029 0.42047 0.07961 0.0
H305 H 0.94724 0.46871 0.9191 0.0
C306 C 0.39209 0.15414 0.49614 0.0
N307 N 0.34806 0.15674 0.3324 0.0
C308 C 0.34027 0.14297 0.37975 0.0
C309 C 0.32441 0.14629 0.4255 0.0
C310 C 0.31663 0.16405 0.42419 0.0
C311 C 0.32344 0.17726 0.36653 0.0
C312 C 0.3393 0.17323 0.32038 0.0
Zn313 Zn 0.37598 0.15507 0.31915 0.0
C314 C 0.39375 0.19493 0.32286 0.0
N315 N 0.43398 0.15188 0.31947 0.0
C316 C 0.44093 0.13815 0.36925 0.0
C317 C 0.44511 0.16345 0.27453 0.0
C318 C 0.46412 0.16142 0.27937 0.0
C319 C 0.47162 0.14726 0.33038 0.0
C320 C 0.45967 0.13545 0.37481 0.0
Zn321 Zn 0.40629 0.15409 0.31953 0.0
O322 O 0.37721 0.1548 0.45425 0.0
C323 C 0.38906 0.1142 0.31375 0.0
O324 O 0.40706 0.15359 0.45572 0.0
H325 H 0.43926 0.17432 0.23563 0.0
H326 H 0.34732 0.13009 0.391 0.0
H327 H 0.43191 0.12922 0.40535 0.0
O328 O 0.3745 0.12388 0.31499 0.0
O329 O 0.40425 0.12308 0.31453 0.0
H330 H 0.34551 0.18401 0.28214 0.0
O331 O 0.40509 0.15472 0.1842 0.0
O332 O 0.37493 0.15541 0.18363 0.0
O333 O 0.40825 0.18509 0.32248 0.0
O334 O 0.3784 0.18622 0.32255 0.0
C335 C 0.38999 0.15519 0.14295 0.0
H336 H 0.31927 0.13559 0.4678 0.0
H337 H 0.31766 0.19109 0.36318 0.0
H338 H 0.47281 0.17097 0.2446 0.0
H339 H 0.46469 0.12407 0.41327 0.0
C340 C 0.62465 0.65886 0.46316 0.0
N341 N 0.62271 0.61597 0.28341 0.0
C342 C 0.63446 0.60584 0.33178 0.0
C343 C 0.63186 0.58668 0.33933 0.0
C344 C 0.61688 0.57811 0.29789 0.0
C345 C 0.6053 0.58872 0.24631 0.0
C346 C 0.60862 0.60778 0.2391 0.0
Zn347 Zn 0.62447 0.644 0.2858 0.0
C348 C 0.58411 0.66033 0.28725 0.0
N349 N 0.6266 0.70266 0.29027 0.0
C350 C 0.63808 0.71041 0.34977 0.0
C351 C 0.61794 0.71324 0.23084 0.0
C352 C 0.62134 0.73241 0.22769 0.0
C353 C 0.63363 0.74066 0.28679 0.0
C354 C 0.64164 0.72946 0.34982 0.0
Zn355 Zn 0.62477 0.67452 0.28713 0.0
O356 O 0.62539 0.64364 0.42136 0.0
C357 C 0.66522 0.65812 0.28698 0.0
O358 O 0.62391 0.6741 0.4227 0.0
H359 H 0.60889 0.70672 0.18405 0.0
H360 H 0.64543 0.61273 0.36697 0.0
H361 H 0.64496 0.70172 0.39595 0.0
O362 O 0.6557 0.64303 0.28262 0.0
O363 O 0.65613 0.67333 0.29071 0.0
H364 H 0.59958 0.61613 0.20038 0.0
O365 O 0.62552 0.67471 0.15151 0.0
O366 O 0.62357 0.64422 0.15032 0.0
O367 O 0.59347 0.67552 0.28353 0.0
O368 O 0.59333 0.64523 0.29019 0.0
C369 C 0.62451 0.65946 0.10979 0.0
H370 H 0.64095 0.57879 0.38018 0.0
H371 H 0.59368 0.5824 0.2133 0.0
H372 H 0.61496 0.74049 0.17761 0.0
H373 H 0.65086 0.73528 0.39789 0.0
C374 C 0.13379 0.94562 0.05075 0.0
N375 N 0.13242 0.99039 0.22023 0.0
C376 C 0.14279 0.99862 0.15913 0.0
C377 C 0.14001 0.01713 0.13813 0.0
C378 C 0.12659 0.02724 0.18113 0.0
C379 C 0.11669 0.01888 0.24706 0.0
C380 C 0.11979 1.00014 0.26549 0.0
Zn381 Zn 0.13434 0.96244 0.22895 0.0
C382 C 0.0981 0.94383 0.23491 0.0
N383 N 0.13807 0.90389 0.23212 0.0
C384 C 0.14883 0.89486 0.17476 0.0
C385 C 0.12939 0.89465 0.29594 0.0
C386 C 0.13194 0.87559 0.30588 0.0
C387 C 0.1432 0.86609 0.24846 0.0
C388 C 0.15147 0.87575 0.18137 0.0
Zn389 Zn 0.13608 0.93181 0.22633 0.0
O390 O 0.13342 0.96083 0.09273 0.0
C391 C 0.1725 0.94931 0.22202 0.0
O392 O 0.13468 0.93037 0.09106 0.0
H393 H 0.12078 0.90211 0.34028 0.0
H394 H 0.15271 0.99059 0.12387 0.0
H395 H 0.15572 0.90255 0.12507 0.0
O396 O 0.16353 0.96436 0.2274 0.0
O397 O 0.16409 0.93382 0.21999 0.0
H398 H 0.11165 0.9932 0.3134 0.0
O399 O 0.13745 0.93348 0.36203 0.0
O400 O 0.13514 0.96394 0.36437 0.0
O401 O 0.10815 0.92956 0.23299 0.0
O402 O 0.10529 0.96 0.23167 0.0
C403 C 0.1365 0.94865 0.40429 0.0
H404 H 0.14793 0.02339 0.08735 0.0
H405 H 0.10628 0.02652 0.2813 0.0
H406 H 0.12532 0.86838 0.358 0.0
H407 H 0.16035 0.86871 0.13651 0.0
C408 C 0.89847 0.65094 0.47674 0.0
N409 N 0.85072 0.65731 0.29934 0.0
C410 C 0.8406 0.64566 0.35007 0.0
C411 C 0.82102 0.64567 0.34965 0.0
C412 C 0.81075 0.65776 0.29647 0.0
C413 C 0.82166 0.6697 0.24507 0.0
C414 C 0.84126 0.66923 0.24729 0.0
Zn415 Zn 0.88196 0.65547 0.29995 0.0
C416 C 0.90283 0.69087 0.31518 0.0
N417 N 0.94651 0.64897 0.30127 0.0
C418 C 0.95601 0.63695 0.35274 0.0
C419 C 0.95659 0.66056 0.2501 0.0
C420 C 0.97618 0.6604 0.24951 0.0
C421 C 0.98649 0.64822 0.30209 0.0
C422 C 0.97561 0.63635 0.35397 0.0
Zn423 Zn 0.91526 0.6509 0.30132 0.0
O424 O 0.88357 0.65388 0.43543 0.0
C425 C 0.89419 0.61556 0.28242 0.0
O426 O 0.91356 0.64868 0.43685 0.0
H427 H 0.94949 0.67021 0.20894 0.0
H428 H 0.84767 0.63605 0.39156 0.0
H429 H 0.94845 0.62773 0.39429 0.0
O430 O 0.88069 0.62661 0.29019 0.0
O431 O 0.9107 0.62173 0.28634 0.0
H432 H 0.84886 0.67847 0.20596 0.0
O433 O 0.91377 0.65356 0.16555 0.0
O434 O 0.88348 0.65662 0.16466 0.0
O435 O 0.9165 0.67988 0.31484 0.0
O436 O 0.8864 0.68461 0.30813 0.0
C437 C 0.89865 0.65546 0.1245 0.0
H438 H 0.81405 0.63621 0.39222 0.0
H439 H 0.81518 0.67927 0.20142 0.0
H440 H 0.9831 0.66982 0.2066 0.0
H441 H 0.98213 0.62671 0.3972 0.0
C442 C 0.13828 0.18942 0.74448 0.0
N443 N 0.18248 0.18568 0.91096 0.0
C444 C 0.18757 0.17031 0.86569 0.0
C445 C 0.20542 0.16857 0.83687 0.0
C446 C 0.2181 0.18296 0.85313 0.0
C447 C 0.21289 0.19818 0.90416 0.0
C448 C 0.19488 0.19919 0.93341 0.0
Zn449 Zn 0.15503 0.18994 0.92179 0.0
C450 C 0.14514 0.22932 0.90914 0.0
N451 N 0.09767 0.19765 0.92678 0.0
C452 C 0.08635 0.18783 0.87332 0.0
C453 C 0.09101 0.20996 -0.0147 0.0
C454 C 0.0722 0.21239 -0.00679 0.0
C455 C 0.06015 0.20217 0.93989 0.0
C456 C 0.06747 0.18998 0.87839 0.0
Zn457 Zn 0.12501 0.19348 0.92048 0.0
O458 O 0.15299 0.18685 0.78637 0.0
C459 C 0.13438 0.15417 0.93808 0.0
O460 O 0.12368 0.19289 0.78491 0.0
H461 H 0.1003 0.21768 0.0269 0.0
H462 H 0.1775 0.15997 0.84612 0.0
H463 H 0.09196 0.17815 0.82722 0.0
O464 O 0.15036 0.16127 0.93914 0.0
O465 O 0.12068 0.16457 0.9257 0.0
H466 H 0.19058 0.21132 0.96925 0.0
O467 O 0.12685 0.194 0.0559 0.0
O468 O 0.15688 0.19303 0.05723 0.0
O469 O 0.12928 0.22225 0.91695 0.0
O470 O 0.15897 0.21878 0.90647 0.0
C471 C 0.14185 0.19383 0.0977 0.0
H472 H 0.20883 0.15676 0.79649 0.0
H473 H 0.22238 0.20952 0.918 0.0
H474 H 0.06716 0.22178 0.04213 0.0
H475 H 0.05871 0.18207 0.83489 0.0
C476 C 0.64977 0.37767 0.41283 0.0
N477 N 0.63293 0.41876 0.58145 0.0
C478 C 0.64378 0.42989 0.53308 0.0
C479 C 0.63737 0.44683 0.50408 0.0
C480 C 0.6196 0.45235 0.52472 0.0
C481 C 0.60918 0.44146 0.58059 0.0
C482 C 0.61617 0.42444 0.60832 0.0
Zn483 Zn 0.64075 0.39184 0.58882 0.0
C484 C 0.60925 0.36666 0.55283 0.0
N485 N 0.65674 0.33525 0.58866 0.0
C486 C 0.67269 0.33101 0.549 0.0
C487 C 0.64561 0.32172 0.62026 0.0
C488 C 0.64994 0.30297 0.60848 0.0
C489 C 0.66598 0.29817 0.56464 0.0
C490 C 0.67769 0.3125 0.5371 0.0
Zn491 Zn 0.64875 0.36222 0.58907 0.0
O492 O 0.64501 0.39219 0.45363 0.0
C493 C 0.68013 0.3885 0.62232 0.0
O494 O 0.65296 0.36289 0.4543 0.0
H495 H 0.63301 0.32545 0.6516 0.0
H496 H 0.65694 0.42506 0.51147 0.0
H497 H 0.68126 0.34198 0.52376 0.0
O498 O 0.66755 0.40028 0.61207 0.0
O499 O 0.67639 0.37119 0.61581 0.0
H500 H 0.60776 0.41527 0.6464 0.0
O501 O 0.64447 0.36166 0.72291 0.0
O502 O 0.63649 0.39114 0.72444 0.0
O503 O 0.62093 0.35381 0.56239 0.0
O504 O 0.61405 0.38351 0.5638 0.0
C505 C 0.63976 0.37613 0.76472 0.0
H506 H 0.64589 0.45514 0.46232 0.0
H507 H 0.59544 0.44549 0.59805 0.0
H508 H 0.64039 0.29243 0.6301 0.0
H509 H 0.69038 0.30948 0.50467 0.0
C510 C 0.38793 0.92813 0.12763 0.0
N511 N 0.34482 0.92847 0.29708 0.0
C512 C 0.3379 0.94012 0.23692 0.0
C513 C 0.31919 0.94232 0.22802 0.0
C514 C 0.3074 0.93259 0.28207 0.0
C515 C 0.31473 0.92077 0.34452 0.0
C516 C 0.33372 0.91881 0.35069 0.0
Zn517 Zn 0.37239 0.92792 0.30343 0.0
C518 C 0.38796 0.88792 0.30297 0.0
N519 N 0.4297 0.92997 0.30674 0.0
C520 C 0.43748 0.9437 0.25953 0.0
C521 C 0.43997 0.91794 0.35308 0.0
C522 C 0.459 0.9195 0.35272 0.0
C523 C 0.46736 0.93375 0.3052 0.0
C524 C 0.45631 0.94601 0.25881 0.0
Zn525 Zn 0.40229 0.92877 0.30562 0.0
O526 O 0.37302 0.92675 0.16795 0.0
C527 C 0.38702 0.96876 0.30732 0.0
O528 O 0.40279 0.9296 0.16969 0.0
H529 H 0.43339 0.90713 0.39004 0.0
H530 H 0.34693 0.94798 0.19605 0.0
H531 H 0.42906 0.95299 0.22242 0.0
O532 O 0.37225 0.9592 0.3013 0.0
O533 O 0.4019 0.95971 0.31222 0.0
H534 H 0.33959 0.90976 0.39844 0.0
O535 O 0.40192 0.9279 0.44065 0.0
O536 O 0.37191 0.92884 0.43925 0.0
O537 O 0.40263 0.89777 0.30073 0.0
O538 O 0.37275 0.89665 0.30567 0.0
C539 C 0.38691 0.92834 0.48104 0.0
H540 H 0.31399 0.9518 0.18014 0.0
H541 H 0.3059 0.91306 0.3872 0.0
H542 H 0.46703 0.90956 0.3884 0.0
H543 H 0.46209 0.95742 0.22268 0.0
H544 H 0.18229 0.62101 0.02905 0.0
H545 H 0.16382 0.67804 0.02542 0.0
H546 H 0.18253 0.62034 0.87333 0.0
H547 H 0.16322 0.67716 0.86947 0.0
H548 H 0.18159 0.67617 0.59293 0.0
H549 H 0.18212 0.67679 0.74855 0.0
H550 H 0.16343 0.61941 0.75132 0.0
H551 H 0.16375 0.6186 0.5953 0.0
C552 C 0.17814 0.63337 -0.00513 0.0
C553 C 0.17307 0.6496 0.03949 0.0
C554 C 0.17814 0.63295 0.90544 0.0
C555 C 0.17284 0.64867 0.85838 0.0
C556 C 0.1677 0.66488 0.90332 0.0
C557 C 0.16793 0.66538 -0.00718 0.0
C558 C 0.17762 0.66368 0.6268 0.0
C559 C 0.17265 0.64732 0.58183 0.0
C560 C 0.17779 0.66407 0.7162 0.0
C561 C 0.17276 0.64818 0.76296 0.0
C562 C 0.1677 0.63183 0.71771 0.0
C563 C 0.16776 0.63137 0.62817 0.0
H564 H 0.65056 0.91043 -0.00633 0.0
H565 H 0.70952 0.91559 -0.00015 0.0
H566 H 0.65104 0.91008 0.83768 0.0
H567 H 0.70998 0.91603 0.84418 0.0
H568 H 0.70638 0.89727 0.56579 0.0
H569 H 0.7057 0.89684 0.72166 0.0
H570 H 0.65617 0.92938 0.71804 0.0
H571 H 0.65648 0.92913 0.56226 0.0
C572 C 0.66361 0.91163 0.96167 0.0
C573 C 0.68 0.91298 0.00904 0.0
C574 C 0.66389 0.91155 0.87218 0.0
C575 C 0.68056 0.91304 0.82804 0.0
C576 C 0.69692 0.91451 0.87576 0.0
C577 C 0.69665 0.91439 0.96515 0.0
C578 C 0.69536 0.90433 0.59837 0.0
C579 C 0.68149 0.91322 0.55173 0.0
C580 C 0.69501 0.90418 0.68783 0.0
C581 C 0.68088 0.91309 0.73273 0.0
C582 C 0.66708 0.92209 0.68578 0.0
C583 C 0.66733 0.92207 0.59637 0.0
H584 H 0.42874 0.38891 0.02584 0.0
H585 H 0.37214 0.37102 0.0203 0.0
H586 H 0.42881 0.38998 0.87026 0.0
H587 H 0.37239 0.37121 0.86438 0.0
H588 H 0.37298 0.39118 0.58922 0.0
H589 H 0.37286 0.39101 0.74519 0.0
H590 H 0.42863 0.37128 0.74655 0.0
H591 H 0.42897 0.37233 0.591 0.0
C592 C 0.41636 0.385 -0.00875 0.0
C593 C 0.40043 0.3799 0.03532 0.0
C594 C 0.41642 0.3855 0.90187 0.0
C595 C 0.40061 0.38065 0.85428 0.0
C596 C 0.38472 0.37537 0.89866 0.0
C597 C 0.3846 0.37513 -0.01187 0.0
C598 C 0.38522 0.38687 0.623 0.0
C599 C 0.401 0.38182 0.57788 0.0
C600 C 0.38513 0.38664 0.71249 0.0
C601 C 0.40073 0.38109 0.75891 0.0
C602 C 0.41647 0.37596 0.71335 0.0
C603 C 0.41664 0.37646 0.62399 0.0
H604 H 0.88504 0.16578 0.67118 0.0
H605 H 0.89533 0.22516 0.67113 0.0
H606 H 0.88213 0.16586 0.51604 0.0
H607 H 0.89335 0.22518 0.51527 0.0
H608 H 0.89549 0.16821 0.23404 0.0
H609 H 0.89813 0.16837 0.38885 0.0
H610 H 0.873 0.22271 0.39846 0.0
H611 H 0.87124 0.22289 0.24227 0.0
C612 C 0.88703 0.17881 0.6378 0.0
C613 C 0.89047 0.19545 0.68347 0.0
C614 C 0.88541 0.17887 0.54854 0.0
C615 C 0.88748 0.19554 0.50238 0.0
C616 C 0.89129 0.21213 0.5483 0.0
C617 C 0.89263 0.2121 0.63775 0.0
C618 C 0.89041 0.18017 0.26911 0.0
C619 C 0.88312 0.19553 0.22571 0.0
C620 C 0.89185 0.18023 0.35831 0.0
C621 C 0.88577 0.19554 0.40695 0.0
C622 C 0.87816 0.2108 0.36343 0.0
C623 C 0.87697 0.21085 0.27382 0.0
H624 H 0.13296 0.39571 0.21023 0.0
H625 H 0.18997 0.41214 0.21415 0.0
H626 H 0.13252 0.39673 0.36612 0.0
H627 H 0.18937 0.4141 0.36963 0.0
H628 H 0.13204 0.41814 0.64056 0.0
H629 H 0.13273 0.41709 0.48451 0.0
H630 H 0.18823 0.39669 0.49474 0.0
H631 H 0.18778 0.39866 0.64999 0.0
C632 C 0.14539 0.39961 0.2445 0.0
C633 C 0.16152 0.40377 0.19994 0.0
C634 C 0.1451 0.40038 0.33397 0.0
C635 C 0.16088 0.40559 0.38104 0.0
C636 C 0.17702 0.4097 0.33605 0.0
C637 C 0.17737 0.40866 0.24668 0.0
C638 C 0.1444 0.41355 0.60924 0.0
C639 C 0.15986 0.40856 0.65756 0.0
C640 C 0.14477 0.41278 0.5197 0.0
C641 C 0.16052 0.40674 0.47646 0.0
C642 C 0.17596 0.40175 0.52528 0.0
C643 C 0.17568 0.40279 0.61458 0.0
H644 H 0.94243 0.88089 0.95979 0.0
H645 H 0.91243 0.93251 0.96159 0.0
H646 H 0.94291 0.88126 0.80404 0.0
H647 H 0.91209 0.93247 0.80572 0.0
H648 H 0.93023 0.9371 0.52941 0.0
H649 H 0.93061 0.937 0.68531 0.0
H650 H 0.92449 0.87694 0.68163 0.0
H651 H 0.92502 0.87705 0.52589 0.0
C652 C 0.93578 0.89223 0.92678 0.0
C653 C 0.92743 0.90669 0.97288 0.0
C654 C 0.93594 0.89239 0.83735 0.0
C655 C 0.92751 0.90688 0.79186 0.0
C656 C 0.91902 0.92127 0.83833 0.0
C657 C 0.9191 0.92124 0.92779 0.0
C658 C 0.929 0.92389 0.56205 0.0
C659 C 0.92763 0.90708 0.51546 0.0
C660 C 0.92908 0.92382 0.65152 0.0
C661 C 0.92755 0.90696 0.69648 0.0
C662 C 0.92605 0.89017 0.64949 0.0
C663 C 0.92624 0.89022 0.56007 0.0
H664 H 0.4088 0.6266 0.58334 0.0
H665 H 0.38945 0.68333 0.58443 0.0
H666 H 0.40886 0.62665 0.73923 0.0
H667 H 0.38864 0.68315 0.7401 0.0
H668 H 0.40622 0.68379 0.01923 0.0
H669 H 0.40705 0.68377 0.86355 0.0
H670 H 0.38973 0.62594 0.85905 0.0
H671 H 0.38978 0.62579 0.01491 0.0
C672 C 0.40442 0.63904 0.61696 0.0
C673 C 0.39918 0.65497 0.5716 0.0
C674 C 0.40432 0.63904 0.70645 0.0
C675 C 0.39871 0.6549 0.75276 0.0
C676 C 0.39337 0.6708 0.707 0.0
C677 C 0.39373 0.67088 0.61757 0.0
C678 C 0.40258 0.67108 -0.01509 0.0
C679 C 0.39795 0.65479 0.02937 0.0
C680 C 0.40295 0.67108 0.89547 0.0
C681 C 0.39843 0.65486 0.84821 0.0
C682 C 0.39363 0.6386 0.893 0.0
C683 C 0.39352 0.63854 -0.01751 0.0
H684 H 0.71357 0.13586 0.66869 0.0
H685 H 0.65889 0.11259 0.67594 0.0
H686 H 0.71442 0.13743 0.82396 0.0
H687 H 0.66002 0.11326 0.83211 0.0
H688 H 0.66018 0.13396 0.10742 0.0
H689 H 0.65927 0.13322 0.95169 0.0
H690 H 0.71684 0.11972 0.94801 0.0
H691 H 0.71786 0.1214 0.10379 0.0
C692 C 0.70179 0.13085 0.70361 0.0
C693 C 0.68615 0.12409 0.66 0.0
C694 C 0.70231 0.13164 0.79294 0.0
C695 C 0.68732 0.12543 0.84121 0.0
C696 C 0.67172 0.11848 0.79735 0.0
C697 C 0.67109 0.11795 0.70775 0.0
C698 C 0.67266 0.13094 0.07322 0.0
C699 C 0.68911 0.1278 0.11784 0.0
C700 C 0.67212 0.13035 -0.01622 0.0
C701 C 0.68795 0.12631 0.93668 0.0
C702 C 0.70442 0.12319 -0.01831 0.0
C703 C 0.70502 0.12407 0.07116 0.0
H704 H 0.8368 0.44242 0.2795 0.0
H705 H 0.89424 0.45707 0.27435 0.0
H706 H 0.83747 0.44389 0.43562 0.0
H707 H 0.89476 0.45947 0.42945 0.0
H708 H 0.89491 0.44488 0.7108 0.0
H709 H 0.89413 0.44251 0.55555 0.0
H710 H 0.83918 0.46446 0.55334 0.0
H711 H 0.83971 0.46591 0.70934 0.0
C712 C 0.84955 0.446 0.31176 0.0
C713 C 0.86548 0.44952 0.26458 0.0
C714 C 0.84992 0.44703 0.40133 0.0
C715 C 0.86617 0.45186 0.44577 0.0
C716 C 0.88207 0.45535 0.39808 0.0
C717 C 0.88176 0.45406 0.3088 0.0
C718 C 0.8827 0.44931 0.67713 0.0
C719 C 0.86739 0.45561 0.7224 0.0
C720 C 0.88226 0.44802 0.58781 0.0
C721 C 0.86658 0.45328 0.54122 0.0
C722 C 0.85137 0.45992 0.58674 0.0
C723 C 0.85173 0.46094 0.67627 0.0
H724 H 0.41847 0.16408 0.03903 0.0
H725 H 0.36177 0.14652 0.03323 0.0
H726 H 0.41889 0.16417 0.88338 0.0
H727 H 0.36237 0.14568 0.87731 0.0
H728 H 0.36373 0.16355 0.59963 0.0
H729 H 0.36322 0.1643 0.75518 0.0
H730 H 0.41904 0.14473 0.76224 0.0
H731 H 0.41978 0.14492 0.60629 0.0
C732 C 0.40612 0.16008 0.00435 0.0
C733 C 0.39008 0.15531 0.04833 0.0
C734 C 0.40639 0.15999 0.91495 0.0
C735 C 0.39069 0.15485 0.86724 0.0
C736 C 0.37464 0.15004 0.91158 0.0
C737 C 0.3743 0.15041 0.00108 0.0
C738 C 0.37591 0.15944 0.63447 0.0
C739 C 0.39183 0.15423 0.59075 0.0
C740 C 0.37558 0.15973 0.72385 0.0
C741 C 0.39107 0.15455 0.77181 0.0
C742 C 0.40695 0.14917 0.72774 0.0
C743 C 0.40736 0.14914 0.63825 0.0
H744 H 0.63393 0.68801 0.00393 0.0
H745 H 0.61501 0.63077 0.00196 0.0
H746 H 0.63442 0.68773 0.84809 0.0
H747 H 0.61466 0.63069 0.84612 0.0
H748 H 0.61581 0.68759 0.57028 0.0
H749 H 0.61536 0.68763 0.72601 0.0
H750 H 0.63381 0.63049 0.72562 0.0
H751 H 0.63342 0.63024 0.56968 0.0
C752 C 0.62971 0.67541 0.97011 0.0
C753 C 0.62447 0.6594 0.01518 0.0
C754 C 0.62987 0.67527 0.88065 0.0
C755 C 0.62455 0.65919 0.83414 0.0
C756 C 0.61918 0.64322 0.87956 0.0
C757 C 0.61925 0.64329 0.96901 0.0
C758 C 0.61975 0.67503 0.60353 0.0
C759 C 0.62462 0.6589 0.55776 0.0
C760 C 0.61961 0.67508 0.69295 0.0
C761 C 0.62459 0.65908 0.73878 0.0
C762 C 0.62957 0.64297 0.69269 0.0
C763 C 0.62947 0.64285 0.60321 0.0
H764 H 0.12931 0.91889 0.50585 0.0
H765 H 0.14327 0.97751 0.51622 0.0
H766 H 0.12803 0.91814 0.66113 0.0
H767 H 0.14297 0.97663 0.67222 0.0
H768 H 0.14432 0.91784 0.94164 0.0
H769 H 0.14566 0.91877 0.78605 0.0
H770 H 0.12374 0.9746 0.79068 0.0
H771 H 0.12335 0.97395 0.9464 0.0
C772 C 0.13235 0.93158 0.54151 0.0
C773 C 0.13639 0.94827 0.49886 0.0
C774 C 0.13173 0.93114 0.63079 0.0
C775 C 0.13544 0.94731 0.67984 0.0
C776 C 0.13969 0.96397 0.63686 0.0
C777 C 0.14 0.96447 0.54737 0.0
C778 C 0.13975 0.93028 0.90924 0.0
C779 C 0.13373 0.94581 0.95616 0.0
C780 C 0.14043 0.93081 0.81988 0.0
C781 C 0.13481 0.94678 0.77521 0.0
C782 C 0.12854 0.96221 0.82255 0.0
C783 C 0.12815 0.96178 0.91194 0.0
H784 H 0.92771 0.6607 0.01758 0.0
H785 H 0.86947 0.64983 0.01694 0.0
H786 H 0.92762 0.65974 0.86155 0.0
H787 H 0.86947 0.64799 0.86151 0.0
H788 H 0.87164 0.6638 0.58166 0.0
H789 H 0.8719 0.6656 0.73704 0.0
H790 H 0.92504 0.63953 0.74241 0.0
H791 H 0.92509 0.63857 0.58636 0.0
C792 C 0.9149 0.65803 -0.01591 0.0
C793 C 0.89859 0.65542 0.02967 0.0
C794 C 0.91486 0.65731 0.89452 0.0
C795 C 0.89855 0.65372 0.84838 0.0
C796 C 0.88225 0.65112 0.89437 0.0
C797 C 0.88225 0.6521 -0.01623 0.0
C798 C 0.88336 0.65838 0.61599 0.0
C799 C 0.89834 0.65103 0.57158 0.0
C800 C 0.88348 0.65933 0.70537 0.0
C801 C 0.89848 0.6527 0.75288 0.0
C802 C 0.91338 0.6451 0.70825 0.0
C803 C 0.91336 0.64439 0.61867 0.0
H804 H 0.16525 0.17672 0.63942 0.0
H805 H 0.11195 0.20228 0.63539 0.0
H806 H 0.16617 0.17773 0.48367 0.0
H807 H 0.11317 0.20408 0.48007 0.0
H808 H 0.11234 0.18791 0.19937 0.0
H809 H 0.1115 0.18614 0.35428 0.0
H810 H 0.16958 0.1981 0.36659 0.0
H811 H 0.17052 0.19903 0.21043 0.0
C812 C 0.15374 0.1826 0.60521 0.0
C813 C 0.13849 0.18935 0.64972 0.0
C814 C 0.15434 0.18335 0.51583 0.0
C815 C 0.13979 0.19106 0.46882 0.0
C816 C 0.12451 0.19775 0.51368 0.0
C817 C 0.12382 0.19679 0.60295 0.0
C818 C 0.12495 0.19023 0.23503 0.0
C819 C 0.1415 0.19365 0.19249 0.0
C820 C 0.12445 0.18931 0.3242 0.0
C821 C 0.14045 0.19203 0.37351 0.0
C822 C 0.15702 0.19563 0.33087 0.0
C823 C 0.15756 0.19632 0.24132 0.0
H824 H 0.65013 0.40752 0.30455 0.0
H825 H 0.64846 0.34734 0.30626 0.0
H826 H 0.64756 0.40707 0.14877 0.0
H827 H 0.64484 0.3468 0.15158 0.0
H828 H 0.65554 0.35028 0.86762 0.0
H829 H 0.65896 0.35101 0.02203 0.0
H830 H 0.62772 0.40191 0.03308 0.0
H831 H 0.62524 0.40165 0.87707 0.0
C832 C 0.64924 0.39418 0.27155 0.0
C833 C 0.64966 0.37747 0.3178 0.0
C834 C 0.64752 0.39391 0.1821 0.0
C835 C 0.64587 0.3769 0.13662 0.0
C836 C 0.64643 0.36019 0.1834 0.0
C837 C 0.64846 0.36048 0.27255 0.0
C838 C 0.64925 0.36156 0.90293 0.0
C839 C 0.64004 0.37587 0.85981 0.0
C840 C 0.65116 0.36196 -0.00795 0.0
C841 C 0.64363 0.37651 0.04113 0.0
C842 C 0.63405 0.39064 -0.00211 0.0
C843 C 0.63241 0.39041 0.90832 0.0
H844 H 0.41579 0.93819 0.02145 0.0
H845 H 0.35991 0.918 0.02019 0.0
H846 H 0.41539 0.9387 0.86551 0.0
H847 H 0.35973 0.91768 0.86444 0.0
H848 H 0.41526 0.91967 0.58758 0.0
H849 H 0.41546 0.91924 0.74328 0.0
H850 H 0.35912 0.93723 0.74417 0.0
H851 H 0.35874 0.93682 0.58819 0.0
C852 C 0.40348 0.93369 -0.01223 0.0
C853 C 0.38788 0.92807 0.03304 0.0
C854 C 0.40327 0.93387 0.89829 0.0
C855 C 0.38753 0.92821 0.85203 0.0
C856 C 0.37198 0.92246 0.89768 0.0
C857 C 0.37212 0.92251 -0.01291 0.0
C858 C 0.40291 0.92351 0.62109 0.0
C859 C 0.38698 0.92826 0.57565 0.0
C860 C 0.40306 0.92339 0.71049 0.0
C861 C 0.38733 0.92825 0.75668 0.0
C862 C 0.37141 0.9331 0.71094 0.0
C863 C 0.3712 0.93298 0.62145 0.0
H864 H 0.17463 0.75164 0.17581 0.0
H865 H 0.15967 0.75476 0.44302 0.0
H866 H 0.16935 0.78474 0.16188 0.0
H867 H 0.15275 0.7876 0.42687 0.0
H868 H 0.15772 0.85011 0.3893 0.0
H869 H 0.16568 0.81742 0.40766 0.0
H870 H 0.14438 0.80503 0.15373 0.0
H871 H 0.13745 0.83793 0.13449 0.0
C872 C 0.17033 0.75939 0.23184 0.0
C873 C 0.16757 0.75052 0.31061 0.0
C874 C 0.16695 0.77833 0.22334 0.0
C875 C 0.16038 0.78877 0.29289 0.0
C876 C 0.15794 0.78 0.37214 0.0
C877 C 0.16165 0.7611 0.38108 0.0
C878 C 0.15475 0.84027 0.33788 0.0
C879 C 0.14702 0.84629 0.26064 0.0
C880 C 0.15921 0.8216 0.34831 0.0
C881 C 0.15571 0.80862 0.28208 0.0
C882 C 0.14765 0.81472 0.20527 0.0
C883 C 0.14352 0.83346 0.19434 0.0
H884 H 0.58021 0.92802 0.15847 0.0
H885 H 0.5834 0.94926 0.41757 0.0
H886 H 0.54701 0.92952 0.16244 0.0
H887 H 0.55009 0.95184 0.42078 0.0
H888 H 0.49193 0.92835 0.43571 0.0
H889 H 0.52505 0.93096 0.42965 0.0
H890 H 0.52115 0.94833 0.16558 0.0
H891 H 0.48831 0.94395 0.16912 0.0
C892 C 0.57371 0.93355 0.21531 0.0
C893 C 0.58411 0.93851 0.28774 0.0
C894 C 0.55473 0.93449 0.21769 0.0
C895 C 0.54589 0.94072 0.29218 0.0
C896 C 0.55648 0.94661 0.36316 0.0
C897 C 0.57547 0.94532 0.36123 0.0
C898 C 0.49817 0.93244 0.37602 0.0
C899 C 0.48747 0.93585 0.30286 0.0
C900 C 0.51714 0.93432 0.37301 0.0
C901 C 0.52574 0.93993 0.29716 0.0
C902 C 0.51498 0.94374 0.22467 0.0
C903 C 0.49609 0.94149 0.22714 0.0
H904 H 0.42732 0.31538 0.33948 0.0
H905 H 0.3694 0.31665 0.2877 0.0
H906 H 0.42612 0.28143 0.34514 0.0
H907 H 0.36816 0.28271 0.28875 0.0
H908 H 0.366 0.22046 0.34998 0.0
H909 H 0.36731 0.25441 0.34989 0.0
H910 H 0.42486 0.25231 0.28969 0.0
H911 H 0.42354 0.21836 0.29438 0.0
C912 C 0.41427 0.30845 0.3285 0.0
C913 C 0.39847 0.31917 0.31331 0.0
C914 C 0.41355 0.28866 0.33104 0.0
C915 C 0.39701 0.27849 0.31735 0.0
C916 C 0.38123 0.28938 0.30155 0.0
C917 C 0.38194 0.30917 0.30017 0.0
C918 C 0.37899 0.2272 0.33702 0.0
C919 C 0.39465 0.21625 0.32249 0.0
C920 C 0.37977 0.24699 0.33614 0.0
C921 C 0.39622 0.25693 0.31942 0.0
C922 C 0.41187 0.24582 0.30453 0.0
C923 C 0.41112 0.22604 0.30658 0.0
H924 H 0.94466 0.23139 0.92353 0.0
H925 H 0.94695 0.17868 0.05445 0.0
H926 H 0.97813 0.23259 0.92015 0.0
H927 H 0.98017 0.18022 0.05492 0.0
H928 H 0.03497 0.17397 0.92992 0.0
H929 H 1.00215 0.17584 0.94635 0.0
H930 H 1.00689 0.23504 -0.00255 0.0
H931 H 0.03989 0.23338 0.97532 0.0
C932 C 0.95235 0.22033 0.95339 0.0
C933 C 0.94333 0.20481 -0.012 0.0
C934 C 0.97149 0.22101 0.95172 0.0
C935 C 0.9818 0.2063 -0.01428 0.0
C936 C 0.97264 0.19149 0.02577 0.0
C937 C 0.95362 0.19065 0.02608 0.0
C938 C 0.02905 0.18747 0.9433 0.0
C939 C 0.04007 0.20354 0.95073 0.0
C940 C 1.01021 0.18849 0.95433 0.0
C941 C 1.0019 0.20556 0.97436 0.0
C942 C 1.01287 0.22169 -0.01823 0.0
C943 C 0.03179 0.2207 0.96997 0.0
H944 H 0.12814 0.34784 0.85793 0.0
H945 H 0.18389 0.34334 0.94972 0.0
H946 H 0.12575 0.31404 0.8488 0.0
H947 H 0.18126 0.30947 0.94425 0.0
H948 H 0.17522 0.24903 0.85834 0.0
H949 H 0.17852 0.28287 0.85105 0.0
H950 H 0.12348 0.28901 0.9466 0.0
H951 H 0.11996 0.25537 0.95042 0.0
C952 C 0.13984 0.33959 0.87653 0.0
C953 C 0.15614 0.34814 0.90512 0.0
C954 C 0.13846 0.32025 0.87167 0.0
C955 C 0.15326 0.3091 0.89661 0.0
C956 C 0.1697 0.31769 0.92361 0.0
C957 C 0.17116 0.33706 0.92732 0.0
C958 C 0.16384 0.25767 0.87737 0.0
C959 C 0.14733 0.24964 0.90463 0.0
C960 C 0.16575 0.27701 0.87358 0.0
C961 C 0.15124 0.28859 0.89792 0.0
C962 C 0.13478 0.28047 0.92558 0.0
C963 C 0.1328 0.2612 0.92835 0.0
H964 H 0.08087 0.91424 0.30348 0.0
H965 H 0.07089 0.96737 0.18408 0.0
H966 H 0.04825 0.90812 0.30866 0.0
H967 H 0.03792 0.96089 0.18609 0.0
H968 H 0.97939 0.9487 0.27811 0.0
H969 H 1.01184 0.95687 0.27956 0.0
H970 H 1.02491 0.90025 0.20646 0.0
H971 H 0.9926 0.89194 0.20823 0.0
C972 C 0.07163 0.92458 0.27793 0.0
C973 C 0.0783 0.94118 0.24239 0.0
C974 C 0.05296 0.92102 0.28046 0.0
C975 C 0.04058 0.93385 0.24627 0.0
C976 C 0.0472 0.95078 0.21317 0.0
C977 C 0.06599 0.95448 0.21174 0.0
C978 C 0.98924 0.93802 0.26245 0.0
C979 C 0.98356 0.91965 0.24368 0.0
C980 C 1.00777 0.94273 0.26279 0.0
C981 C 1.02089 0.92918 0.24368 0.0
C982 C 1.01513 0.9109 0.22331 0.0
C983 C 0.99664 0.90614 0.22394 0.0
H984 H 0.42031 0.76872 0.24428 0.0
H985 H 0.36692 0.76554 0.35938 0.0
H986 H 0.4183 0.80249 0.24199 0.0
H987 H 0.36538 0.79939 0.36161 0.0
H988 H 0.35948 0.86176 0.29742 0.0
H989 H 0.36097 0.82771 0.29568 0.0
H990 H 0.41993 0.83107 0.30931 0.0
H991 H 0.41833 0.86501 0.30823 0.0
C992 C 0.40804 0.77502 0.26925 0.0
C993 C 0.39381 0.76366 0.30189 0.0
C994 C 0.40699 0.79479 0.26914 0.0
C995 C 0.39167 0.80441 0.30193 0.0
C996 C 0.37742 0.79305 0.33454 0.0
C997 C 0.37845 0.77327 0.33443 0.0
C998 C 0.37281 0.85529 0.29988 0.0
C999 C 0.38876 0.86658 0.30273 0.0
C1000 C 0.3737 0.83549 0.2995 0.0
C1001 C 0.39061 0.82592 0.30228 0.0
C1002 C 0.40655 0.83734 0.30545 0.0
C1003 C 0.40564 0.8571 0.30548 0.0
H1004 H 0.58523 0.13417 0.49474 0.0
H1005 H 0.58372 0.11475 0.23267 0.0
H1006 H 0.55275 0.1414 0.48669 0.0
H1007 H 0.55094 0.12084 0.22522 0.0
H1008 H 0.49756 0.15143 0.20556 0.0
H1009 H 0.53017 0.14537 0.21664 0.0
H1010 H 0.52334 0.12919 0.48071 0.0
H1011 H 0.49124 0.13689 0.47187 0.0
C1012 C 0.57774 0.13102 0.43614 0.0
C1013 C 0.58678 0.12386 0.36445 0.0
C1014 C 0.55914 0.13512 0.43132 0.0
C1015 C 0.54916 0.1318 0.35507 0.0
C1016 C 0.55823 0.12402 0.28427 0.0
C1017 C 0.57691 0.12028 0.28867 0.0
C1018 C 0.50309 0.14697 0.26647 0.0
C1019 C 0.49169 0.14451 0.33753 0.0
C1020 C 0.52177 0.14315 0.27246 0.0
C1021 C 0.52942 0.13653 0.3493 0.0
C1022 C 0.51804 0.1344 0.42067 0.0
C1023 C 0.49949 0.13855 0.41514 0.0
H1024 H 0.87564 0.29955 0.80688 0.0
H1025 H 0.85771 0.29811 0.07014 0.0
H1026 H 0.8718 0.33332 0.80639 0.0
H1027 H 0.85322 0.33171 0.06783 0.0
H1028 H 0.83496 0.39143 0.00121 0.0
H1029 H 0.83418 0.35738 -0.01416 0.0
H1030 H 0.89002 0.35834 0.89753 0.0
H1031 H 0.89096 0.39216 0.91381 0.0
C1032 C 0.87079 0.30638 0.86436 0.0
C1033 C 0.8672 0.29617 0.9389 0.0
C1034 C 0.86846 0.32564 0.8637 0.0
C1035 C 0.86224 0.33495 0.93706 0.0
C1036 C 0.85782 0.32472 0.01021 0.0
C1037 C 0.86039 0.3055 0.01135 0.0
C1038 C 0.84699 0.38433 -0.02204 0.0
C1039 C 0.86307 0.39433 0.95926 0.0
C1040 C 0.84653 0.36495 0.96931 0.0
C1041 C 0.86201 0.35542 0.94024 0.0
C1042 C 0.87787 0.36547 0.91919 0.0
C1043 C 0.87844 0.38476 0.9292 0.0
H1044 H 0.63782 0.86113 0.32974 0.0
H1045 H 0.69023 0.8468 0.22249 0.0
H1046 H 0.62887 0.82838 0.32825 0.0
H1047 H 0.681 0.8141 0.21713 0.0
H1048 H 0.66743 0.75626 0.31281 0.0
H1049 H 0.67591 0.78896 0.31012 0.0
H1050 H 0.62052 0.80297 0.23732 0.0
H1051 H 0.61167 0.77022 0.24644 0.0
C1052 C 0.64735 0.85097 0.30504 0.0
C1053 C 0.66475 0.85645 0.27666 0.0
C1054 C 0.64217 0.83222 0.30352 0.0
C1055 C 0.6542 0.8186 0.2725 0.0
C1056 C 0.67152 0.82418 0.2429 0.0
C1057 C 0.6768 0.84291 0.24561 0.0
C1058 C 0.65695 0.76632 0.29759 0.0
C1059 C 0.6388 0.76063 0.28104 0.0
C1060 C 0.66191 0.78507 0.29452 0.0
C1061 C 0.64891 0.79861 0.2734 0.0
C1062 C 0.63082 0.79292 0.25503 0.0
C1063 C 0.62579 0.77412 0.25916 0.0
H1064 H 0.9317 0.70819 0.39258 0.0
H1065 H 0.88258 0.7187 0.24538 0.0
H1066 H 0.94032 0.74111 0.38322 0.0
H1067 H 0.89147 0.75164 0.23478 0.0
H1068 H 0.93073 0.79818 0.13273 0.0
H1069 H 0.92155 0.76587 0.15618 0.0
H1070 H 0.926 0.77447 0.42933 0.0
H1071 H 0.93432 0.80711 0.40679 0.0
C1072 C 0.92266 0.71761 0.35916 0.0
C1073 C 0.90652 0.711 0.31933 0.0
C1074 C 0.92758 0.73637 0.35405 0.0
C1075 C 0.91662 0.74867 0.30768 0.0
C1076 C 0.90016 0.74224 0.27032 0.0
C1077 C 0.89503 0.72352 0.2769 0.0
C1078 C 0.92971 0.79324 0.19786 0.0
C1079 C 0.93306 0.80529 0.2679 0.0
C1080 C 0.92444 0.7748 0.21108 0.0
C1081 C 0.92281 0.76796 0.29444 0.0
C1082 C 0.92712 0.77958 0.3645 0.0
C1083 C 0.93208 0.79817 0.3514 0.0
H1084 H 0.65238 0.18106 0.45732 0.0
H1085 H 0.70888 0.1913 0.39044 0.0
H1086 H 0.6492 0.21374 0.49842 0.0
H1087 H 0.70552 0.22414 0.43087 0.0
H1088 H 0.68083 0.28454 0.41671 0.0
H1089 H 0.68583 0.25211 0.37694 0.0
H1090 H 0.664 0.23451 0.61936 0.0
H1091 H 0.65965 0.26703 0.66146 0.0
C1092 C 0.66406 0.19032 0.45053 0.0
C1093 C 0.68088 0.18365 0.42061 0.0
C1094 C 0.66226 0.20895 0.47476 0.0
C1095 C 0.67716 0.2213 0.46835 0.0
C1096 C 0.69385 0.21481 0.43624 0.0
C1097 C 0.69575 0.19608 0.41317 0.0
C1098 C 0.67748 0.27384 0.46264 0.0
C1099 C 0.66986 0.27844 0.54253 0.0
C1100 C 0.68026 0.25528 0.43944 0.0
C1101 C 0.67521 0.24093 0.49499 0.0
C1102 C 0.6678 0.24541 0.57513 0.0
C1103 C 0.66526 0.264 0.59896 0.0
H1104 H 0.96166 0.41241 0.94107 0.0
H1105 H 0.9747 0.467 0.0437 0.0
H1106 H 0.99413 0.4056 0.92891 0.0
H1107 H 1.00731 0.45997 0.03665 0.0
H1108 H 0.06356 0.44936 0.92943 0.0
H1109 H 0.03127 0.45612 0.94053 0.0
H1110 H 1.02041 0.39872 0.00778 0.0
H1111 H 0.05252 0.39155 -0.01135 0.0
C1112 C 0.97159 0.42284 0.96199 0.0
C1113 C 0.96588 0.44019 -0.00678 0.0
C1114 C 0.99017 0.41893 0.95573 0.0
C1115 C 1.00339 0.43219 -0.0178 0.0
C1116 C 0.99754 0.44954 0.01424 0.0
C1117 C 0.97893 0.45358 0.01884 0.0
C1118 C 0.05427 0.43806 0.9449 0.0
C1119 C 0.06068 0.41984 0.95713 0.0
C1120 C 0.03573 0.44204 0.95294 0.0
C1121 C 1.02317 0.42799 0.97514 0.0
C1122 C 0.02963 0.40984 -0.01087 0.0
C1123 C 0.04813 0.40578 -0.02049 0.0
H1124 H 0.46416 0.6275 0.27555 0.0
H1125 H 0.4631 0.68685 0.3162 0.0
H1126 H 0.49748 0.62848 0.27102 0.0
H1127 H 0.49649 0.68796 0.31509 0.0
H1128 H 0.55893 0.68945 0.26699 0.0
H1129 H 0.5255 0.68866 0.26769 0.0
H1130 H 0.5267 0.62947 0.3148 0.0
H1131 H 0.56 0.63037 0.31066 0.0
C1132 C 0.47095 0.64087 0.28424 0.0
C1133 C 0.46025 0.65706 0.29628 0.0
C1134 C 0.49051 0.64149 0.28224 0.0
C1135 C 0.50079 0.65834 0.29291 0.0
C1136 C 0.48994 0.67454 0.30516 0.0
C1137 C 0.47036 0.67392 0.30645 0.0
C1138 C 0.55214 0.6762 0.27735 0.0
C1139 C 0.56284 0.66 0.28858 0.0
C1140 C 0.53254 0.67569 0.27838 0.0
C1141 C 0.5223 0.65896 0.29139 0.0
C1142 C 0.53318 0.64279 0.303 0.0
C1143 C 0.55273 0.64329 0.30125 0.0
H1144 H 0.50808 0.39991 0.35441 0.0
H1145 H 0.49706 0.34087 0.37598 0.0
H1146 H 0.53949 0.39503 0.40047 0.0
H1147 H 0.52891 0.33586 0.4202 0.0
H1148 H 0.58089 0.34419 0.60675 0.0
H1149 H 0.54957 0.34376 0.5467 0.0
H1150 H 0.56712 0.38067 0.34544 0.0
H1151 H 0.59782 0.38148 0.40658 0.0
C1152 C 0.51244 0.38586 0.36843 0.0
C1153 C 0.50014 0.37079 0.36161 0.0
C1154 C 0.53048 0.38302 0.39411 0.0
C1155 C 0.53669 0.36502 0.41342 0.0
C1156 C 0.52446 0.34987 0.40597 0.0
C1157 C 0.50634 0.35272 0.37981 0.0
C1158 C 0.57797 0.35184 0.54881 0.0
C1159 C 0.59148 0.36307 0.51162 0.0
C1160 C 0.56016 0.35161 0.51438 0.0
C1161 C 0.55587 0.3625 0.44238 0.0
C1162 C 0.56989 0.37252 0.40212 0.0
C1163 C 0.58745 0.37292 0.43679 0.0
H1164 H 0.10764 0.67747 0.31334 0.0
H1165 H 0.10706 0.61755 0.29941 0.0
H1166 H 0.07421 0.6776 0.31314 0.0
H1167 H 0.07354 0.61754 0.29731 0.0
H1168 H 1.01122 0.61991 0.35097 0.0
H1169 H 0.04455 0.61978 0.35359 0.0
H1170 H 0.04541 0.67563 0.25436 0.0
H1171 H 1.01216 0.67605 0.25513 0.0
C1172 C 0.10048 0.66419 0.30979 0.0
C1173 C 0.11075 0.64751 0.3064 0.0
C1174 C 0.0809 0.66424 0.30909 0.0
C1175 C 0.07018 0.64758 0.30499 0.0
C1176 C 0.08054 0.63087 0.30169 0.0
C1177 C 0.10015 0.63084 0.30234 0.0
C1178 C 1.01828 0.63237 0.33031 0.0
C1179 C 1.00799 0.648 0.30287 0.0
C1180 C 0.03789 0.63221 0.33082 0.0
C1181 C 0.04868 0.64768 0.30416 0.0
C1182 C 0.03838 0.6633 0.27678 0.0
C1183 C 1.01879 0.66345 0.27612 0.0
H1184 H 0.15797 0.53589 0.29379 0.0
H1185 H 0.18198 0.5614 0.07061 0.0
H1186 H 0.15461 0.50654 0.21379 0.0
H1187 H 0.17931 0.53196 -0.00695 0.0
H1188 H 0.19239 0.4677 0.95085 0.0
H1189 H 0.19409 0.49872 0.01696 0.0
H1190 H 0.13639 0.49584 0.07299 0.0
H1191 H 0.1345 0.46505 0.00609 0.0
C1192 C 0.1625 0.53526 0.22799 0.0
C1193 C 0.17048 0.55089 0.18909 0.0
C1194 C 0.1606 0.51852 0.18243 0.0
C1195 C 0.16681 0.51715 0.09777 0.0
C1196 C 0.17466 0.53271 0.05867 0.0
C1197 C 0.1763 0.54948 0.10354 0.0
C1198 C 0.18001 0.47385 0.97576 0.0
C1199 C 0.16335 0.46396 0.97373 0.0
C1200 C 0.181 0.49153 0.01355 0.0
C1201 C 0.1654 0.49937 0.05075 0.0
C1202 C 0.14861 0.48986 0.04554 0.0
C1203 C 0.14754 0.47235 0.00661 0.0
H1204 H 0.78053 0.87912 0.38317 0.0
H1205 H 0.77693 0.88815 0.11016 0.0
H1206 H 0.81376 0.87675 0.37254 0.0
H1207 H 0.81019 0.8864 0.10061 0.0
H1208 H 0.86336 0.92073 0.18793 0.0
H1209 H 0.83081 0.91304 0.18251 0.0
H1210 H 0.84182 0.85877 0.28755 0.0
H1211 H 0.87466 0.86626 0.29137 0.0
C1212 C 0.78676 0.88 0.32064 0.0
C1213 C 0.77626 0.88424 0.24774 0.0
C1214 C 0.80573 0.87865 0.31468 0.0
C1215 C 0.81431 0.88165 0.23601 0.0
C1216 C 0.80373 0.88422 0.16196 0.0
C1217 C 0.78479 0.88536 0.16766 0.0
C1218 C 0.85886 0.90714 0.20947 0.0
C1219 C 0.87141 0.8941 0.24038 0.0
C1220 C 0.84032 0.90269 0.20556 0.0
C1221 C 0.83405 0.88527 0.23379 0.0
C1222 C 0.84652 0.87221 0.26494 0.0
C1223 C 0.86518 0.87651 0.2672 0.0
H1224 H 0.4316 0.44646 0.31526 0.0
H1225 H 0.37295 0.44551 0.28615 0.0
H1226 H 0.4314 0.48059 0.31589 0.0
H1227 H 0.37267 0.47949 0.28425 0.0
H1228 H 0.37376 0.54179 0.35089 0.0
H1229 H 0.37453 0.50795 0.35347 0.0
H1230 H 0.42884 0.50909 0.24746 0.0
H1231 H 0.42845 0.54302 0.2491 0.0
C1232 C 0.4186 0.45345 0.30844 0.0
C1233 C 0.4023 0.44278 0.30072 0.0
C1234 C 0.41846 0.47329 0.30825 0.0
C1235 C 0.402 0.4835 0.30024 0.0
C1236 C 0.38573 0.4727 0.29219 0.0
C1237 C 0.38588 0.45291 0.29257 0.0
C1238 C 0.38606 0.53504 0.32898 0.0
C1239 C 0.40104 0.54588 0.29995 0.0
C1240 C 0.3864 0.51524 0.32925 0.0
C1241 C 0.40173 0.50505 0.30036 0.0
C1242 C 0.41673 0.51588 0.2714 0.0
C1243 C 0.4164 0.5357 0.2712 0.0
H1244 H 0.8309 0.1562 0.92908 0.0
H1245 H 0.82999 0.21179 0.82476 0.0
H1246 H 0.8078 0.14623 0.82469 0.0
H1247 H 0.80736 0.20168 0.71861 0.0
H1248 H 0.75904 0.17747 0.56202 0.0
H1249 H 0.77732 0.18974 0.6814 0.0
H1250 H 0.81098 0.1405 0.67268 0.0
H1251 H 0.79244 0.12812 0.55435 0.0
C1252 C 0.82537 0.16641 0.88538 0.0
C1253 C 0.8324 0.18469 0.88423 0.0
C1254 C 0.81236 0.16064 0.8248 0.0
C1255 C 0.80625 0.17301 0.76161 0.0
C1256 C 0.81187 0.19179 0.76615 0.0
C1257 C 0.82478 0.19762 0.82739 0.0
C1258 C 0.7706 0.16948 0.58449 0.0
C1259 C 0.77442 0.15189 0.54875 0.0
C1260 C 0.78096 0.17644 0.65331 0.0
C1261 C 0.79536 0.16595 0.68754 0.0
C1262 C 0.79962 0.14868 0.6494 0.0
C1263 C 0.78919 0.14168 0.58097 0.0
H1264 H 0.91838 0.58693 0.25736 0.0
H1265 H 0.86086 0.60049 0.24493 0.0
H1266 H 0.91155 0.55649 0.1928 0.0
H1267 H 0.85428 0.57093 0.1764 0.0
H1268 H 0.84551 0.50969 0.11789 0.0
H1269 H 0.85192 0.53898 0.19182 0.0
H1270 H 0.90335 0.54374 0.0579 0.0
H1271 H 0.89731 0.51379 -0.01212 0.0
C1272 C 0.90431 0.58337 0.2416 0.0
C1273 C 0.89021 0.59614 0.25607 0.0
C1274 C 0.9004 0.56605 0.2035 0.0
C1275 C 0.88238 0.56135 0.17817 0.0
C1276 C 0.86827 0.57391 0.19582 0.0
C1277 C 0.8721 0.59098 0.23504 0.0
C1278 C 0.85801 0.5172 0.10309 0.0
C1279 C 0.87089 0.50957 0.04705 0.0
C1280 C 0.86174 0.53398 0.14568 0.0
C1281 C 0.87827 0.54367 0.13162 0.0
C1282 C 0.89073 0.53641 0.07213 0.0
C1283 C 0.88715 0.51943 0.03088 0.0
H1284 H 0.24244 0.15459 0.84044 0.0
H1285 H 0.23266 0.21097 0.75816 0.0
H1286 H 0.26767 0.15216 0.74002 0.0
H1287 H 0.25817 0.20868 0.65818 0.0
H1288 H 0.28447 0.18341 0.40835 0.0
H1289 H 0.26263 0.19051 0.52233 0.0
H1290 H 0.29826 0.1643 0.70675 0.0
H1291 H 0.31984 0.1572 0.59374 0.0
C1292 C 0.24602 0.16661 0.80226 0.0
C1293 C 0.23565 0.18294 0.80689 0.0
C1294 C 0.26047 0.16526 0.74491 0.0
C1295 C 0.26477 0.1802 0.69072 0.0
C1296 C 0.255 0.19689 0.69848 0.0
C1297 C 0.2406 0.19829 0.75646 0.0
C1298 C 0.28761 0.17932 0.47339 0.0
C1299 C 0.30356 0.16933 0.49188 0.0
C1300 C 0.27522 0.18346 0.53864 0.0
C1301 C 0.27869 0.17777 0.62326 0.0
C1302 C 0.29504 0.16852 0.64195 0.0
C1303 C 0.30733 0.16437 0.5771 0.0
H1304 H 0.63912 0.54877 0.2702 0.0
H1305 H 0.58566 0.5635 0.36325 0.0
H1306 H 0.63404 0.51659 0.31452 0.0
H1307 H 0.5806 0.5312 0.40911 0.0
H1308 H 0.60417 0.48294 0.5993 0.0
H1309 H 0.59845 0.51285 0.52932 0.0
H1310 H 0.61252 0.48838 0.28518 0.0
H1311 H 0.61817 0.45865 0.35482 0.0
C1312 C 0.62616 0.54495 0.29875 0.0
C1313 C 0.61277 0.55839 0.31356 0.0
C1314 C 0.62319 0.5266 0.3236 0.0
C1315 C 0.60689 0.52152 0.36484 0.0
C1316 C 0.59322 0.53486 0.3772 0.0
C1317 C 0.59608 0.55319 0.35082 0.0
C1318 C 0.60542 0.48389 0.5304 0.0
C1319 C 0.61199 0.4688 0.48239 0.0
C1320 C 0.60211 0.5009 0.49039 0.0
C1321 C 0.60534 0.50284 0.40228 0.0
C1322 C 0.61017 0.4872 0.35335 0.0
C1323 C 0.61344 0.47029 0.39313 0.0
H1324 H 0.28769 0.93023 0.13493 0.0
H1325 H 0.28272 0.94106 0.40622 0.0
H1326 H 0.25525 0.93671 0.11475 0.0
H1327 H 0.25001 0.94738 0.38609 0.0
H1328 H 0.19624 0.97489 0.29337 0.0
H1329 H 0.2296 0.97168 0.30704 0.0
H1330 H 0.22667 0.91997 0.16336 0.0
H1331 H 0.1937 0.9231 0.1499 0.0
C1332 C 0.27958 0.93396 0.19018 0.0
C1333 C 0.28756 0.93511 0.27212 0.0
C1334 C 0.2611 0.93766 0.17865 0.0
C1335 C 0.25029 0.94266 0.24882 0.0
C1336 C 0.25821 0.94379 0.33096 0.0
C1337 C 0.27675 0.93992 0.34264 0.0
C1338 C 0.20286 0.96306 0.2636 0.0
C1339 C 0.19253 0.94921 0.22094 0.0
C1340 C 0.2218 0.96114 0.27209 0.0
C1341 C 0.23054 0.94553 0.2366 0.0
C1342 C 0.22023 0.93216 0.19086 0.0
C1343 C 0.2014 0.93394 0.18342 0.0
H1344 H 0.71839 0.96887 0.36218 0.0
H1345 H 0.67017 0.97652 0.20491 0.0
H1346 H 0.72034 1.00273 0.38642 0.0
H1347 H 0.67234 1.01 0.22718 0.0
H1348 H 0.66405 0.06172 0.38396 0.0
H1349 H 0.66628 0.02847 0.3567 0.0
H1350 H 0.72451 0.03429 0.31773 0.0
H1351 H 0.72238 0.0678 0.34679 0.0
C1352 C 0.70853 0.97782 0.33124 0.0
C1353 C 0.69397 0.97016 0.28294 0.0
C1354 C 0.70962 0.99713 0.3451 0.0
C1355 C 0.69622 1.00888 0.31034 0.0
C1356 C 0.68253 1.00122 0.25682 0.0
C1357 C 0.68136 0.98207 0.24366 0.0
C1358 C 0.67736 0.05596 0.36999 0.0
C1359 C 0.693 0.06741 0.36652 0.0
C1360 C 0.67862 0.03692 0.35389 0.0
C1361 C 0.69552 0.02889 0.33343 0.0
C1362 C 0.71132 0.04016 0.33319 0.0
C1363 C 0.71007 0.0593 0.34959 0.0
H1364 H 0.26661 0.4151 0.79726 0.0
H1365 H 0.23893 0.36197 0.76476 0.0
H1366 H 0.28524 0.40836 0.67203 0.0
H1367 H 0.25791 0.35512 0.64022 0.0
H1368 H 0.3136 0.35082 0.47136 0.0
H1369 H 0.29274 0.35164 0.59317 0.0
H1370 H 0.27354 0.40554 0.51313 0.0
H1371 H 0.29419 0.40467 0.39115 0.0
C1372 C 0.26483 0.40181 0.76459 0.0
C1373 C 0.2512 0.38918 0.79012 0.0
C1374 C 0.27535 0.39803 0.69269 0.0
C1375 C 0.27255 0.38147 0.64553 0.0
C1376 C 0.26014 0.36805 0.67533 0.0
C1377 C 0.24946 0.37191 0.74708 0.0
C1378 C 0.30432 0.36244 0.4777 0.0
C1379 C 0.30559 0.3778 0.42261 0.0
C1380 C 0.29256 0.36298 0.54781 0.0
C1381 C 0.28205 0.3789 0.56344 0.0
C1382 C 0.28191 0.39333 0.50327 0.0
C1383 C 0.29354 0.39275 0.43318 0.0
H1384 H 0.88525 1.00961 0.2141 0.0
H1385 H 0.94296 1.00857 0.15765 0.0
H1386 H 0.88317 0.04077 0.15389 0.0
H1387 H 0.94086 0.03952 0.09456 0.0
H1388 H 0.93124 0.10298 0.06294 0.0
H1389 H 0.93575 0.07205 0.12364 0.0
H1390 H 0.88402 0.05382 0.0136 0.0
H1391 H 0.87933 0.08492 0.95605 0.0
C1392 C 0.89749 0.01618 0.1892 0.0
C1393 C 0.91424 1.00683 0.19026 0.0
C1394 C 0.8963 0.03388 0.15393 0.0
C1395 C 0.91179 0.04243 0.11789 0.0
C1396 C 0.92872 0.03334 0.12212 0.0
C1397 C 0.92994 0.01568 0.15837 0.0
C1398 C 0.92108 0.09217 0.05052 0.0
C1399 C 0.90492 0.09618 0.00546 0.0
C1400 C 0.92361 0.07452 0.08533 0.0
C1401 C 0.91007 0.06062 0.0748 0.0
C1402 C 0.89444 0.0644 0.02497 0.0
C1403 C 0.89183 0.08208 -0.0088 0.0
H1404 H 0.23838 0.62101 0.33734 0.0
H1405 H 0.23731 0.67987 0.28797 0.0
H1406 H 0.27177 0.62174 0.3366 0.0
H1407 H 0.27066 0.6807 0.28365 0.0
H1408 H 0.33324 0.6825 0.32311 0.0
H1409 H 0.29991 0.68173 0.32771 0.0
H1410 H 0.3006 0.6221 0.288 0.0
H1411 H 0.33398 0.62301 0.28692 0.0
C1412 C 0.24518 0.63422 0.32581 0.0
C1413 C 0.2345 0.65037 0.31311 0.0
C1414 C 0.26475 0.63467 0.32466 0.0
C1415 C 0.27499 0.65131 0.30989 0.0
C1416 C 0.26415 0.66746 0.29682 0.0
C1417 C 0.24459 0.66701 0.29873 0.0
C1418 C 0.32637 0.66914 0.31543 0.0
C1419 C 0.33697 0.65284 0.30467 0.0
C1420 C 0.30682 0.66865 0.31748 0.0
C1421 C 0.29647 0.65182 0.30812 0.0
C1422 C 0.30722 0.63552 0.29701 0.0
C1423 C 0.32679 0.63601 0.29573 0.0
H1424 H 0.35843 0.99316 0.27484 0.0
H1425 H 0.41566 0.99326 0.3426 0.0
H1426 H 0.35873 0.02722 0.27412 0.0
H1427 H 0.41594 0.02719 0.34612 0.0
H1428 H 0.41736 0.08941 0.28755 0.0
H1429 H 0.41671 0.05548 0.28379 0.0
H1430 H 0.35878 0.05605 0.33662 0.0
H1431 H 0.35945 0.0901 0.33614 0.0
C1432 C 0.37111 1.0004 0.29037 0.0
C1433 C 0.38702 0.99007 0.30854 0.0
C1434 C 0.3713 0.02021 0.29063 0.0
C1435 C 0.38738 0.03072 0.30997 0.0
C1436 C 0.40324 0.02022 0.3289 0.0
C1437 C 0.40308 1.00045 0.32765 0.0
C1438 C 0.40442 0.08235 0.29816 0.0
C1439 C 0.38847 0.0929 0.31199 0.0
C1440 C 0.40403 0.06258 0.2968 0.0
C1441 C 0.38769 0.05225 0.31033 0.0
C1442 C 0.37171 0.06292 0.32436 0.0
C1443 C 0.37209 0.08273 0.32472 0.0
H1444 H 0.78598 0.68595 0.24681 0.0
H1445 H 0.78515 0.62972 0.3416 0.0
H1446 H 0.75267 0.6859 0.24272 0.0
H1447 H 0.75188 0.62995 0.34088 0.0
H1448 H 0.6896 0.6281 0.28002 0.0
H1449 H 0.72308 0.62797 0.2809 0.0
H1450 H 0.72372 0.688 0.29896 0.0
H1451 H 0.69025 0.68799 0.29622 0.0
C1452 C 0.77895 0.67343 0.26694 0.0
C1453 C 0.78926 0.65784 0.29461 0.0
C1454 C 0.75934 0.67348 0.26558 0.0
C1455 C 0.74858 0.65793 0.29158 0.0
C1456 C 0.7589 0.64234 0.31904 0.0
C1457 C 0.77849 0.64229 0.32056 0.0
C1458 C 0.69677 0.64136 0.2841 0.0
C1459 C 0.68653 0.65805 0.28791 0.0
C1460 C 0.71637 0.64132 0.28522 0.0
C1461 C 0.72709 0.65798 0.29017 0.0
C1462 C 0.71673 0.67468 0.29387 0.0
C1463 C 0.69713 0.6747 0.29283 0.0
H1464 H 0.10253 0.13377 0.93575 0.0
H1465 H 0.16006 0.13079 0.0018 0.0
H1466 H 0.09752 0.10316 0.00036 0.0
H1467 H 0.15489 0.10053 0.0667 0.0
H1468 H 0.13599 0.0593 0.26344 0.0
H1469 H 0.13595 0.09063 0.2016 0.0
H1470 H 0.10948 0.06874 0.97322 0.0
H1471 H 0.10972 0.03744 0.03498 0.0
C1472 C 0.11411 0.12651 0.96298 0.0
C1473 C 0.13167 0.13468 0.96403 0.0
C1474 C 0.1112 0.1091 0.00017 0.0
C1475 C 0.12576 0.09985 0.03987 0.0
C1476 C 0.1434 0.10767 0.03799 0.0
C1477 C 0.14636 0.12488 -7e-05 0.0
C1478 C 0.12971 0.0614 0.20121 0.0
C1479 C 0.12282 0.04625 0.15356 0.0
C1480 C 0.1298 0.07916 0.16568 0.0
C1481 C 0.12287 0.08189 0.08255 0.0
C1482 C 0.11481 0.06691 0.03751 0.0
C1483 C 0.11493 0.04912 0.07263 0.0
H1484 H 0.7046 0.37061 0.72508 0.0
H1485 H 0.69589 0.42191 0.58835 0.0
H1486 H 0.73147 0.38462 0.79642 0.0
H1487 H 0.72272 0.43577 0.65874 0.0
H1488 H 0.78225 0.44653 0.75188 0.0
H1489 H 0.75742 0.43165 0.67135 0.0
H1490 H 0.7338 0.41204 0.9067 0.0
H1491 H 0.7583 0.42751 -0.0116 0.0
C1492 C 0.70873 0.38467 0.70864 0.0
C1493 C 0.69823 0.39521 0.65146 0.0
C1494 C 0.72392 0.39274 0.75009 0.0
C1495 C 0.72896 0.41132 0.73363 0.0
C1496 C 0.71911 0.42142 0.67244 0.0
C1497 C 0.7038 0.41349 0.6322 0.0
C1498 C 0.77156 0.43948 0.78701 0.0
C1499 C 0.77225 0.43835 0.87695 0.0
C1500 C 0.75746 0.43077 0.74058 0.0
C1501 C 0.74389 0.42052 0.78285 0.0
C1502 C 0.74435 0.41957 0.87259 0.0
C1503 C 0.75832 0.42849 0.91926 0.0
loop_
_geom_bond_atom_site_label_1
_geom_bond_atom_site_label_2
_geom_bond_distance
_geom_bond_site_symmetry_2
_ccdc_geom_bond_type
C0 O16 1.251 . S
C0 O18 1.254 . S
N1 C2 1.333 . S
N1 C6 1.307 . S
N1 Zn7 2.020 . S
C2 N1 1.333 . S
C2 C3 1.379 . S
C2 H20 0.952 . S
C3 C2 1.379 . S
C3 C4 1.390 . S
C3 H30 0.949 . S
C4 C3 1.390 . S
C4 C5 1.357 . S
C5 C4 1.357 . S
C5 C6 1.370 . S
C5 H31 0.950 . S
C6 N1 1.307 . S
C6 C5 1.370 . S
C6 H24 0.948 . S
Zn7 N1 2.020 . S
Zn7 O16 2.039 . S
Zn7 O22 2.034 . S
Zn7 O26 2.025 . S
Zn7 O28 2.024 . S
C8 O27 1.246 . S
C8 O28 1.249 . S
N9 C10 1.307 . S
N9 C11 1.333 . S
N9 Zn15 2.020 . S
C10 N9 1.307 . S
C10 C14 1.370 . S
C10 H21 0.948 . S
C11 N9 1.333 . S
C11 C12 1.379 . S
C11 H19 0.952 . S
C12 C11 1.379 . S
C12 C13 1.390 . S
C12 H32 0.949 . S
C13 C12 1.390 . S
C13 C14 1.357 . S
C14 C10 1.370 . S
C14 C13 1.357 . S
C14 H33 0.950 . S
Zn15 N9 2.020 . S
Zn15 O18 2.025 . S
Zn15 O23 2.024 . S
Zn15 O25 2.039 . S
Zn15 O27 2.034 . S
O16 C0 1.251 . S
O16 Zn7 2.039 . S
C17 O22 1.246 . S
C17 O23 1.249 . S
O18 C0 1.254 . S
O18 Zn15 2.025 . S
H19 C11 0.952 . S
H20 C2 0.952 . S
H21 C10 0.948 . S
O22 Zn7 2.034 . S
O22 C17 1.246 . S
O23 Zn15 2.024 . S
O23 C17 1.249 . S
H24 C6 0.948 . S
O25 Zn15 2.039 . S
O25 C29 1.251 1_554 S
O26 Zn7 2.025 . S
O26 C29 1.254 1_554 S
O27 C8 1.246 . S
O27 Zn15 2.034 . S
O28 Zn7 2.024 . S
O28 C8 1.249 . S
C29 O25 1.251 1_556 S
C29 O26 1.254 1_556 S
H30 C3 0.949 . S
H31 C5 0.950 . S
H32 C12 0.949 . S
H33 C14 0.950 . S
C34 O50 1.251 . S
C34 O52 1.254 . S
N35 C36 1.333 . S
N35 C40 1.307 . S
N35 Zn41 2.020 . S
C36 N35 1.333 . S
C36 C37 1.379 . S
C36 H54 0.952 . S
C37 C36 1.379 . S
C37 C38 1.390 . S
C37 H64 0.949 . S
C38 C37 1.390 . S
C38 C39 1.357 . S
C39 C38 1.357 . S
C39 C40 1.370 . S
C39 H65 0.950 . S
C40 N35 1.307 . S
C40 C39 1.370 . S
C40 H58 0.948 . S
Zn41 N35 2.020 . S
Zn41 O50 2.039 . S
Zn41 O56 2.034 . S
Zn41 O60 2.025 . S
Zn41 O62 2.024 . S
C42 O61 1.246 . S
C42 O62 1.249 . S
N43 C44 1.307 . S
N43 C45 1.333 . S
N43 Zn49 2.020 . S
C44 N43 1.307 . S
C44 C48 1.370 . S
C44 H55 0.948 . S
C45 N43 1.333 . S
C45 C46 1.379 . S
C45 H53 0.952 . S
C46 C45 1.379 . S
C46 C47 1.390 . S
C46 H66 0.949 . S
C47 C46 1.390 . S
C47 C48 1.357 . S
C48 C44 1.370 . S
C48 C47 1.357 . S
C48 H67 0.950 . S
Zn49 N43 2.020 . S
Zn49 O52 2.025 . S
Zn49 O57 2.024 . S
Zn49 O59 2.039 . S
Zn49 O61 2.034 . S
O50 C34 1.251 . S
O50 Zn41 2.039 . S
C51 O56 1.246 . S
C51 O57 1.249 . S
O52 C34 1.254 . S
O52 Zn49 2.025 . S
H53 C45 0.952 . S
H54 C36 0.952 . S
H55 C44 0.948 . S
O56 Zn41 2.034 . S
O56 C51 1.246 . S
O57 Zn49 2.024 . S
O57 C51 1.249 . S
H58 C40 0.948 . S
O59 Zn49 2.039 . S
O59 C63 1.251 . S
O60 Zn41 2.025 . S
O60 C63 1.254 . S
O61 C42 1.246 . S
O61 Zn49 2.034 . S
O62 Zn41 2.024 . S
O62 C42 1.249 . S
C63 O59 1.251 . S
C63 O60 1.254 . S
H64 C37 0.949 . S
H65 C39 0.950 . S
H66 C46 0.949 . S
H67 C48 0.950 . S
C68 O84 1.251 . S
C68 O86 1.254 . S
N69 C70 1.333 . S
N69 C74 1.307 . S
N69 Zn75 2.020 . S
C70 N69 1.333 . S
C70 C71 1.379 . S
C70 H88 0.952 . S
C71 C70 1.379 . S
C71 C72 1.390 . S
C71 H98 0.949 . S
C72 C71 1.390 . S
C72 C73 1.357 . S
C73 C72 1.357 . S
C73 C74 1.370 . S
C73 H99 0.950 . S
C74 N69 1.307 . S
C74 C73 1.370 . S
C74 H92 0.948 . S
Zn75 N69 2.020 . S
Zn75 O84 2.039 . S
Zn75 O90 2.034 . S
Zn75 O94 2.025 . S
Zn75 O96 2.024 . S
C76 O95 1.246 . S
C76 O96 1.249 . S
N77 C78 1.307 . S
N77 C79 1.333 . S
N77 Zn83 2.020 . S
C78 N77 1.307 . S
C78 C82 1.370 . S
C78 H89 0.948 . S
C79 N77 1.333 . S
C79 C80 1.379 . S
C79 H87 0.952 . S
C80 C79 1.379 . S
C80 C81 1.390 . S
C80 H100 0.949 . S
C81 C80 1.390 . S
C81 C82 1.357 . S
C82 C78 1.370 . S
C82 C81 1.357 . S
C82 H101 0.950 . S
Zn83 N77 2.020 . S
Zn83 O86 2.025 . S
Zn83 O91 2.024 . S
Zn83 O93 2.039 . S
Zn83 O95 2.034 . S
O84 C68 1.251 . S
O84 Zn75 2.039 . S
C85 O90 1.246 . S
C85 O91 1.249 . S
O86 C68 1.254 . S
O86 Zn83 2.025 . S
H87 C79 0.952 . S
H88 C70 0.952 . S
H89 C78 0.948 . S
O90 Zn75 2.034 . S
O90 C85 1.246 . S
O91 Zn83 2.024 . S
O91 C85 1.249 . S
H92 C74 0.948 . S
O93 Zn83 2.039 . S
O93 C97 1.251 . S
O94 Zn75 2.025 . S
O94 C97 1.254 . S
O95 C76 1.246 . S
O95 Zn83 2.034 . S
O96 Zn75 2.024 . S
O96 C76 1.249 . S
C97 O93 1.251 . S
C97 O94 1.254 . S
H98 C71 0.949 . S
H99 C73 0.950 . S
H100 C80 0.949 . S
H101 C82 0.950 . S
C102 O118 1.251 . S
C102 O120 1.254 . S
N103 C104 1.333 . S
N103 C108 1.307 . S
N103 Zn109 2.020 . S
C104 N103 1.333 . S
C104 C105 1.379 . S
C104 H122 0.952 . S
C105 C104 1.379 . S
C105 C106 1.390 . S
C105 H132 0.949 . S
C106 C105 1.390 . S
C106 C107 1.357 . S
C107 C106 1.357 . S
C107 C108 1.370 . S
C107 H133 0.950 . S
C108 N103 1.307 . S
C108 C107 1.370 . S
C108 H126 0.948 . S
Zn109 N103 2.020 . S
Zn109 O118 2.039 . S
Zn109 O124 2.034 . S
Zn109 O128 2.025 1_556 S
Zn109 O130 2.024 . S
C110 O129 1.246 . S
C110 O130 1.249 . S
N111 C112 1.307 . S
N111 C113 1.333 . S
N111 Zn117 2.020 . S
C112 N111 1.307 . S
C112 C116 1.370 . S
C112 H123 0.948 . S
C113 N111 1.333 . S
C113 C114 1.379 . S
C113 H121 0.952 1_556 S
C114 C113 1.379 . S
C114 C115 1.390 . S
C114 H134 0.949 1_556 S
C115 C114 1.390 . S
C115 C116 1.357 . S
C116 C112 1.370 . S
C116 C115 1.357 . S
C116 H135 0.950 . S
Zn117 N111 2.020 . S
Zn117 O120 2.025 . S
Zn117 O125 2.024 . S
Zn117 O127 2.039 1_556 S
Zn117 O129 2.034 . S
O118 C102 1.251 . S
O118 Zn109 2.039 . S
C119 O124 1.246 . S
C119 O125 1.249 . S
O120 C102 1.254 . S
O120 Zn117 2.025 . S
H121 C113 0.952 1_554 S
H122 C104 0.952 . S
H123 C112 0.948 . S
O124 Zn109 2.034 . S
O124 C119 1.246 . S
O125 Zn117 2.024 . S
O125 C119 1.249 . S
H126 C108 0.948 . S
O127 Zn117 2.039 1_554 S
O127 C131 1.251 . S
O128 Zn109 2.025 1_554 S
O128 C131 1.254 . S
O129 C110 1.246 . S
O129 Zn117 2.034 . S
O130 Zn109 2.024 . S
O130 C110 1.249 . S
C131 O127 1.251 . S
C131 O128 1.254 . S
H132 C105 0.949 . S
H133 C107 0.950 . S
H134 C114 0.949 1_554 S
H135 C116 0.950 . S
C136 O152 1.251 . S
C136 O154 1.254 . S
N137 C138 1.333 . S
N137 C142 1.307 . S
N137 Zn143 2.020 . S
C138 N137 1.333 . S
C138 C139 1.379 1_556 S
C138 H156 0.952 1_556 S
C139 C138 1.379 1_554 S
C139 C140 1.390 1_554 S
C139 H166 0.949 . S
C140 C139 1.390 1_556 S
C140 C141 1.357 . S
C141 C140 1.357 . S
C141 C142 1.370 . S
C141 H167 0.950 . S
C142 N137 1.307 . S
C142 C141 1.370 . S
C142 H160 0.948 . S
Zn143 N137 2.020 . S
Zn143 O152 2.039 1_556 S
Zn143 O158 2.034 . S
Zn143 O162 2.025 . S
Zn143 O164 2.024 . S
C144 O163 1.246 . S
C144 O164 1.249 . S
N145 C146 1.307 . S
N145 C147 1.333 . S
N145 Zn151 2.020 . S
C146 N145 1.307 . S
C146 C150 1.370 . S
C146 H157 0.948 1_556 S
C147 N145 1.333 . S
C147 C148 1.379 . S
C147 H155 0.952 . S
C148 C147 1.379 . S
C148 C149 1.390 . S
C148 H168 0.949 . S
C149 C148 1.390 . S
C149 C150 1.357 . S
C150 C146 1.370 . S
C150 C149 1.357 . S
C150 H169 0.950 . S
Zn151 N145 2.020 . S
Zn151 O154 2.025 1_556 S
Zn151 O159 2.024 . S
Zn151 O161 2.039 . S
Zn151 O163 2.034 . S
O152 C136 1.251 . S
O152 Zn143 2.039 1_554 S
C153 O158 1.246 . S
C153 O159 1.249 . S
O154 C136 1.254 . S
O154 Zn151 2.025 1_554 S
H155 C147 0.952 . S
H156 C138 0.952 1_554 S
H157 C146 0.948 1_554 S
O158 Zn143 2.034 . S
O158 C153 1.246 . S
O159 Zn151 2.024 . S
O159 C153 1.249 . S
H160 C142 0.948 . S
O161 Zn151 2.039 . S
O161 C165 1.251 . S
O162 Zn143 2.025 . S
O162 C165 1.254 . S
O163 C144 1.246 . S
O163 Zn151 2.034 . S
O164 Zn143 2.024 . S
O164 C144 1.249 . S
C165 O161 1.251 . S
C165 O162 1.254 . S
H166 C139 0.949 . S
H167 C141 0.950 . S
H168 C148 0.949 . S
H169 C150 0.950 . S
C170 O186 1.251 . S
C170 O188 1.254 . S
N171 C172 1.333 . S
N171 C176 1.307 . S
N171 Zn177 2.020 . S
C172 N171 1.333 . S
C172 C173 1.379 . S
C172 H190 0.952 . S
C173 C172 1.379 . S
C173 C174 1.390 . S
C173 H200 0.949 . S
C174 C173 1.390 . S
C174 C175 1.357 . S
C175 C174 1.357 . S
C175 C176 1.370 . S
C175 H201 0.950 . S
C176 N171 1.307 . S
C176 C175 1.370 . S
C176 H194 0.948 . S
Zn177 N171 2.020 . S
Zn177 O186 2.039 . S
Zn177 O192 2.034 . S
Zn177 O196 2.025 . S
Zn177 O198 2.024 . S
C178 O197 1.246 . S
C178 O198 1.249 . S
N179 C180 1.307 . S
N179 C181 1.333 . S
N179 Zn185 2.020 . S
C180 N179 1.307 . S
C180 C184 1.370 . S
C180 H191 0.948 . S
C181 N179 1.333 . S
C181 C182 1.379 . S
C181 H189 0.952 . S
C182 C181 1.379 . S
C182 C183 1.390 . S
C182 H202 0.949 . S
C183 C182 1.390 . S
C183 C184 1.357 . S
C184 C180 1.370 . S
C184 C183 1.357 . S
C184 H203 0.950 . S
Zn185 N179 2.020 . S
Zn185 O188 2.025 . S
Zn185 O193 2.024 . S
Zn185 O195 2.039 . S
Zn185 O197 2.034 . S
O186 C170 1.251 . S
O186 Zn177 2.039 . S
C187 O192 1.246 . S
C187 O193 1.249 . S
O188 C170 1.254 . S
O188 Zn185 2.025 . S
H189 C181 0.952 . S
H190 C172 0.952 . S
H191 C180 0.948 . S
O192 Zn177 2.034 . S
O192 C187 1.246 . S
O193 Zn185 2.024 . S
O193 C187 1.249 . S
H194 C176 0.948 . S
O195 Zn185 2.039 . S
O195 C199 1.251 1_554 S
O196 Zn177 2.025 . S
O196 C199 1.254 1_554 S
O197 C178 1.246 . S
O197 Zn185 2.034 . S
O198 Zn177 2.024 . S
O198 C178 1.249 . S
C199 O195 1.251 1_556 S
C199 O196 1.254 1_556 S
H200 C173 0.949 . S
H201 C175 0.950 . S
H202 C182 0.949 . S
H203 C184 0.950 . S
C204 O220 1.251 . S
C204 O222 1.254 . S
N205 C206 1.333 . S
N205 C210 1.307 . S
N205 Zn211 2.020 . S
C206 N205 1.333 . S
C206 C207 1.379 . S
C206 H224 0.952 . S
C207 C206 1.379 . S
C207 C208 1.390 . S
C207 H234 0.949 . S
C208 C207 1.390 . S
C208 C209 1.357 . S
C209 C208 1.357 . S
C209 C210 1.370 . S
C209 H235 0.950 . S
C210 N205 1.307 . S
C210 C209 1.370 . S
C210 H228 0.948 . S
Zn211 N205 2.020 . S
Zn211 O220 2.039 . S
Zn211 O226 2.034 . S
Zn211 O230 2.025 . S
Zn211 O232 2.024 . S
C212 O231 1.246 . S
C212 O232 1.249 . S
N213 C214 1.307 . S
N213 C215 1.333 . S
N213 Zn219 2.020 . S
C214 N213 1.307 . S
C214 C218 1.370 . S
C214 H225 0.948 . S
C215 N213 1.333 . S
C215 C216 1.379 . S
C215 H223 0.952 . S
C216 C215 1.379 . S
C216 C217 1.390 . S
C216 H236 0.949 . S
C217 C216 1.390 . S
C217 C218 1.357 . S
C218 C214 1.370 . S
C218 C217 1.357 . S
C218 H237 0.950 . S
Zn219 N213 2.020 . S
Zn219 O222 2.025 . S
Zn219 O227 2.024 . S
Zn219 O229 2.039 . S
Zn219 O231 2.034 . S
O220 C204 1.251 . S
O220 Zn211 2.039 . S
C221 O226 1.246 . S
C221 O227 1.249 . S
O222 C204 1.254 . S
O222 Zn219 2.025 . S
H223 C215 0.952 . S
H224 C206 0.952 . S
H225 C214 0.948 . S
O226 Zn211 2.034 . S
O226 C221 1.246 . S
O227 Zn219 2.024 . S
O227 C221 1.249 . S
H228 C210 0.948 . S
O229 Zn219 2.039 . S
O229 C233 1.251 . S
O230 Zn211 2.025 . S
O230 C233 1.254 . S
O231 C212 1.246 . S
O231 Zn219 2.034 . S
O232 Zn211 2.024 . S
O232 C212 1.249 . S
C233 O229 1.251 . S
C233 O230 1.254 . S
H234 C207 0.949 . S
H235 C209 0.950 . S
H236 C216 0.949 . S
H237 C218 0.950 . S
C238 O254 1.251 . S
C238 O256 1.254 . S
N239 C240 1.333 . S
N239 C244 1.307 . S
N239 Zn245 2.020 . S
C240 N239 1.333 . S
C240 C241 1.379 . S
C240 H258 0.952 . S
C241 C240 1.379 . S
C241 C242 1.390 . S
C241 H268 0.949 . S
C242 C241 1.390 . S
C242 C243 1.357 . S
C243 C242 1.357 . S
C243 C244 1.370 . S
C243 H269 0.950 . S
C244 N239 1.307 . S
C244 C243 1.370 . S
C244 H262 0.948 . S
Zn245 N239 2.020 . S
Zn245 O254 2.039 . S
Zn245 O260 2.034 . S
Zn245 O264 2.025 . S
Zn245 O266 2.024 . S
C246 O265 1.246 . S
C246 O266 1.249 . S
N247 C248 1.307 . S
N247 C249 1.333 . S
N247 Zn253 2.020 . S
C248 N247 1.307 . S
C248 C252 1.370 . S
C248 H259 0.948 . S
C249 N247 1.333 . S
C249 C250 1.379 . S
C249 H257 0.952 . S
C250 C249 1.379 . S
C250 C251 1.390 . S
C250 H270 0.949 . S
C251 C250 1.390 . S
C251 C252 1.357 . S
C252 C248 1.370 . S
C252 C251 1.357 . S
C252 H271 0.950 . S
Zn253 N247 2.020 . S
Zn253 O256 2.025 . S
Zn253 O261 2.024 . S
Zn253 O263 2.039 . S
Zn253 O265 2.034 . S
O254 C238 1.251 . S
O254 Zn245 2.039 . S
C255 O260 1.246 . S
C255 O261 1.249 . S
O256 C238 1.254 . S
O256 Zn253 2.025 . S
H257 C249 0.952 . S
H258 C240 0.952 . S
H259 C248 0.948 . S
O260 Zn245 2.034 . S
O260 C255 1.246 . S
O261 Zn253 2.024 . S
O261 C255 1.249 . S
H262 C244 0.948 . S
O263 Zn253 2.039 . S
O263 C267 1.251 . S
O264 Zn245 2.025 . S
O264 C267 1.254 . S
O265 C246 1.246 . S
O265 Zn253 2.034 . S
O266 Zn245 2.024 . S
O266 C246 1.249 . S
C267 O263 1.251 . S
C267 O264 1.254 . S
H268 C241 0.949 . S
H269 C243 0.950 . S
H270 C250 0.949 . S
H271 C252 0.950 . S
C272 O288 1.251 . S
C272 O290 1.254 . S
N273 C274 1.333 . S
N273 C278 1.307 . S
N273 Zn279 2.020 . S
C274 N273 1.333 . S
C274 C275 1.379 . S
C274 H292 0.952 . S
C275 C274 1.379 . S
C275 C276 1.390 . S
C275 H302 0.949 . S
C276 C275 1.390 . S
C276 C277 1.357 . S
C277 C276 1.357 . S
C277 C278 1.370 . S
C277 H303 0.950 . S
C278 N273 1.307 . S
C278 C277 1.370 . S
C278 H296 0.948 . S
Zn279 N273 2.020 . S
Zn279 O288 2.039 . S
Zn279 O294 2.034 . S
Zn279 O298 2.025 1_556 S
Zn279 O300 2.024 . S
C280 O299 1.246 . S
C280 O300 1.249 . S
N281 C282 1.307 . S
N281 C283 1.333 . S
N281 Zn287 2.020 . S
C282 N281 1.307 . S
C282 C286 1.370 . S
C282 H293 0.948 . S
C283 N281 1.333 . S
C283 C284 1.380 . S
C283 H291 0.952 1_556 S
C284 C283 1.380 . S
C284 C285 1.394 . S
C284 H304 0.943 1_556 S
C285 C284 1.394 . S
C285 C286 1.357 . S
C286 C282 1.370 . S
C286 C285 1.357 . S
C286 H305 0.950 . S
Zn287 N281 2.020 . S
Zn287 O290 2.025 . S
Zn287 O295 2.024 . S
Zn287 O297 2.039 1_556 S
Zn287 O299 2.034 . S
O288 C272 1.251 . S
O288 Zn279 2.039 . S
C289 O294 1.246 . S
C289 O295 1.249 . S
O290 C272 1.254 . S
O290 Zn287 2.025 . S
H291 C283 0.952 1_554 S
H292 C274 0.952 . S
H293 C282 0.948 . S
O294 Zn279 2.034 . S
O294 C289 1.246 . S
O295 Zn287 2.024 . S
O295 C289 1.249 . S
H296 C278 0.948 . S
O297 Zn287 2.039 1_554 S
O297 C301 1.251 . S
O298 Zn279 2.025 1_554 S
O298 C301 1.254 . S
O299 C280 1.246 . S
O299 Zn287 2.034 . S
O300 Zn279 2.024 . S
O300 C280 1.249 . S
C301 O297 1.251 . S
C301 O298 1.254 . S
H302 C275 0.949 . S
H303 C277 0.950 . S
H304 C284 0.943 1_554 S
H305 C286 0.950 . S
C306 O322 1.251 . S
C306 O324 1.254 . S
N307 C308 1.333 . S
N307 C312 1.307 . S
N307 Zn313 2.020 . S
C308 N307 1.333 . S
C308 C309 1.379 . S
C308 H326 0.952 . S
C309 C308 1.379 . S
C309 C310 1.390 . S
C309 H336 0.949 . S
C310 C309 1.390 . S
C310 C311 1.357 . S
C311 C310 1.357 . S
C311 C312 1.370 . S
C311 H337 0.950 . S
C312 N307 1.307 . S
C312 C311 1.370 . S
C312 H330 0.948 . S
Zn313 N307 2.020 . S
Zn313 O322 2.039 . S
Zn313 O328 2.034 . S
Zn313 O332 2.025 . S
Zn313 O334 2.024 . S
C314 O333 1.246 . S
C314 O334 1.249 . S
N315 C316 1.307 . S
N315 C317 1.333 . S
N315 Zn321 2.020 . S
C316 N315 1.307 . S
C316 C320 1.370 . S
C316 H327 0.948 . S
C317 N315 1.333 . S
C317 C318 1.379 . S
C317 H325 0.952 . S
C318 C317 1.379 . S
C318 C319 1.390 . S
C318 H338 0.949 . S
C319 C318 1.390 . S
C319 C320 1.357 . S
C320 C316 1.370 . S
C320 C319 1.357 . S
C320 H339 0.950 . S
Zn321 N315 2.020 . S
Zn321 O324 2.025 . S
Zn321 O329 2.024 . S
Zn321 O331 2.039 . S
Zn321 O333 2.034 . S
O322 C306 1.251 . S
O322 Zn313 2.039 . S
C323 O328 1.246 . S
C323 O329 1.249 . S
O324 C306 1.254 . S
O324 Zn321 2.025 . S
H325 C317 0.952 . S
H326 C308 0.952 . S
H327 C316 0.948 . S
O328 Zn313 2.034 . S
O328 C323 1.246 . S
O329 Zn321 2.024 . S
O329 C323 1.249 . S
H330 C312 0.948 . S
O331 Zn321 2.039 . S
O331 C335 1.251 . S
O332 Zn313 2.025 . S
O332 C335 1.254 . S
O333 C314 1.246 . S
O333 Zn321 2.034 . S
O334 Zn313 2.024 . S
O334 C314 1.249 . S
C335 O331 1.251 . S
C335 O332 1.254 . S
H336 C309 0.949 . S
H337 C311 0.950 . S
H338 C318 0.949 . S
H339 C320 0.950 . S
C340 O356 1.251 . S
C340 O358 1.254 . S
N341 C342 1.333 . S
N341 C346 1.307 . S
N341 Zn347 2.020 . S
C342 N341 1.333 . S
C342 C343 1.379 . S
C342 H360 0.952 . S
C343 C342 1.379 . S
C343 C344 1.390 . S
C343 H370 0.949 . S
C344 C343 1.390 . S
C344 C345 1.357 . S
C345 C344 1.357 . S
C345 C346 1.370 . S
C345 H371 0.950 . S
C346 N341 1.307 . S
C346 C345 1.370 . S
C346 H364 0.948 . S
Zn347 N341 2.020 . S
Zn347 O356 2.039 . S
Zn347 O362 2.034 . S
Zn347 O366 2.025 . S
Zn347 O368 2.024 . S
C348 O367 1.246 . S
C348 O368 1.249 . S
N349 C350 1.307 . S
N349 C351 1.333 . S
N349 Zn355 2.020 . S
C350 N349 1.307 . S
C350 C354 1.370 . S
C350 H361 0.948 . S
C351 N349 1.333 . S
C351 C352 1.379 . S
C351 H359 0.952 . S
C352 C351 1.379 . S
C352 C353 1.390 . S
C352 H372 0.949 . S
C353 C352 1.390 . S
C353 C354 1.357 . S
C354 C350 1.370 . S
C354 C353 1.357 . S
C354 H373 0.950 . S
Zn355 N349 2.020 . S
Zn355 O358 2.025 . S
Zn355 O363 2.024 . S
Zn355 O365 2.039 . S
Zn355 O367 2.034 . S
O356 C340 1.251 . S
O356 Zn347 2.039 . S
C357 O362 1.246 . S
C357 O363 1.249 . S
O358 C340 1.254 . S
O358 Zn355 2.025 . S
H359 C351 0.952 . S
H360 C342 0.952 . S
H361 C350 0.948 . S
O362 Zn347 2.034 . S
O362 C357 1.246 . S
O363 Zn355 2.024 . S
O363 C357 1.249 . S
H364 C346 0.948 . S
O365 Zn355 2.039 . S
O365 C369 1.251 . S
O366 Zn347 2.025 . S
O366 C369 1.254 . S
O367 C348 1.246 . S
O367 Zn355 2.034 . S
O368 Zn347 2.024 . S
O368 C348 1.249 . S
C369 O365 1.251 . S
C369 O366 1.254 . S
H370 C343 0.949 . S
H371 C345 0.950 . S
H372 C352 0.949 . S
H373 C354 0.950 . S
C374 O390 1.251 1_556 S
C374 O392 1.254 1_556 S
N375 C376 1.333 . S
N375 C380 1.307 . S
N375 Zn381 2.020 . S
C376 N375 1.333 . S
C376 C377 1.379 . S
C376 H394 0.952 . S
C377 C376 1.379 . S
C377 C378 1.390 1_565 S
C377 H404 0.930 1_565 S
C378 C377 1.390 1_545 S
C378 C379 1.357 1_545 S
C379 C378 1.357 1_565 S
C379 C380 1.370 . S
C379 H405 0.950 1_565 S
C380 N375 1.307 . S
C380 C379 1.370 . S
C380 H398 0.948 . S
Zn381 N375 2.020 . S
Zn381 O390 2.039 . S
Zn381 O396 2.034 . S
Zn381 O400 2.025 . S
Zn381 O402 2.024 . S
C382 O401 1.246 . S
C382 O402 1.249 . S
N383 C384 1.307 . S
N383 C385 1.333 . S
N383 Zn389 2.020 . S
C384 N383 1.307 . S
C384 C388 1.370 . S
C384 H395 0.948 . S
C385 N383 1.333 . S
C385 C386 1.379 . S
C385 H393 0.952 . S
C386 C385 1.379 . S
C386 C387 1.390 . S
C386 H406 0.949 . S
C387 C386 1.390 . S
C387 C388 1.357 . S
C388 C384 1.370 . S
C388 C387 1.357 . S
C388 H407 0.950 . S
Zn389 N383 2.020 . S
Zn389 O392 2.025 . S
Zn389 O397 2.024 . S
Zn389 O399 2.039 . S
Zn389 O401 2.034 . S
O390 C374 1.251 1_554 S
O390 Zn381 2.039 . S
C391 O396 1.246 . S
C391 O397 1.249 . S
O392 C374 1.254 1_554 S
O392 Zn389 2.025 . S
H393 C385 0.952 . S
H394 C376 0.952 . S
H395 C384 0.948 . S
O396 Zn381 2.034 . S
O396 C391 1.246 . S
O397 Zn389 2.024 . S
O397 C391 1.249 . S
H398 C380 0.948 . S
O399 Zn389 2.039 . S
O399 C403 1.251 . S
O400 Zn381 2.025 . S
O400 C403 1.254 . S
O401 C382 1.246 . S
O401 Zn389 2.034 . S
O402 Zn381 2.024 . S
O402 C382 1.249 . S
C403 O399 1.251 . S
C403 O400 1.254 . S
H404 C377 0.930 1_545 S
H405 C379 0.950 1_545 S
H406 C386 0.949 . S
H407 C388 0.950 . S
C408 O424 1.251 . S
C408 O426 1.254 . S
N409 C410 1.333 . S
N409 C414 1.307 . S
N409 Zn415 2.020 . S
C410 N409 1.333 . S
C410 C411 1.379 . S
C410 H428 0.952 . S
C411 C410 1.379 . S
C411 C412 1.390 . S
C411 H438 0.949 . S
C412 C411 1.390 . S
C412 C413 1.357 . S
C413 C412 1.357 . S
C413 C414 1.370 . S
C413 H439 0.950 . S
C414 N409 1.307 . S
C414 C413 1.370 . S
C414 H432 0.948 . S
Zn415 N409 2.020 . S
Zn415 O424 2.039 . S
Zn415 O430 2.034 . S
Zn415 O434 2.025 . S
Zn415 O436 2.024 . S
C416 O435 1.246 . S
C416 O436 1.249 . S
N417 C418 1.307 . S
N417 C419 1.333 . S
N417 Zn423 2.020 . S
C418 N417 1.307 . S
C418 C422 1.370 . S
C418 H429 0.948 . S
C419 N417 1.333 . S
C419 C420 1.379 . S
C419 H427 0.952 . S
C420 C419 1.379 . S
C420 C421 1.390 . S
C420 H440 0.949 1_554 S
C421 C420 1.390 . S
C421 C422 1.357 . S
C422 C418 1.370 . S
C422 C421 1.357 . S
C422 H441 0.950 . S
Zn423 N417 2.020 . S
Zn423 O426 2.025 . S
Zn423 O431 2.024 . S
Zn423 O433 2.039 . S
Zn423 O435 2.034 . S
O424 C408 1.251 . S
O424 Zn415 2.039 . S
C425 O430 1.246 . S
C425 O431 1.249 . S
O426 C408 1.254 . S
O426 Zn423 2.025 . S
H427 C419 0.952 . S
H428 C410 0.952 . S
H429 C418 0.948 . S
O430 Zn415 2.034 . S
O430 C425 1.246 . S
O431 Zn423 2.024 . S
O431 C425 1.249 . S
H432 C414 0.948 . S
O433 Zn423 2.039 . S
O433 C437 1.251 1_554 S
O434 Zn415 2.025 . S
O434 C437 1.254 1_554 S
O435 C416 1.246 . S
O435 Zn423 2.034 . S
O436 Zn415 2.024 . S
O436 C416 1.249 . S
C437 O433 1.251 1_556 S
C437 O434 1.254 1_556 S
H438 C411 0.949 . S
H439 C413 0.950 . S
H440 C420 0.949 1_556 S
H441 C422 0.950 . S
C442 O458 1.251 . S
C442 O460 1.254 . S
N443 C444 1.333 . S
N443 C448 1.307 . S
N443 Zn449 2.020 . S
C444 N443 1.333 . S
C444 C445 1.379 . S
C444 H462 0.952 . S
C445 C444 1.379 . S
C445 C446 1.390 . S
C445 H472 0.949 . S
C446 C445 1.390 . S
C446 C447 1.357 . S
C447 C446 1.357 . S
C447 C448 1.370 . S
C447 H473 0.950 . S
C448 N443 1.307 . S
C448 C447 1.370 . S
C448 H466 0.948 . S
Zn449 N443 2.020 . S
Zn449 O458 2.039 . S
Zn449 O464 2.034 . S
Zn449 O468 2.025 1_556 S
Zn449 O470 2.024 . S
C450 O469 1.246 . S
C450 O470 1.249 . S
N451 C452 1.307 . S
N451 C453 1.333 . S
N451 Zn457 2.020 . S
C452 N451 1.307 . S
C452 C456 1.370 . S
C452 H463 0.948 . S
C453 N451 1.333 . S
C453 C454 1.379 . S
C453 H461 0.952 1_556 S
C454 C453 1.379 . S
C454 C455 1.390 . S
C454 H474 0.949 1_556 S
C455 C454 1.390 . S
C455 C456 1.357 . S
C456 C452 1.370 . S
C456 C455 1.357 . S
C456 H475 0.950 . S
Zn457 N451 2.020 . S
Zn457 O460 2.025 . S
Zn457 O465 2.024 . S
Zn457 O467 2.039 1_556 S
Zn457 O469 2.034 . S
O458 C442 1.251 . S
O458 Zn449 2.039 . S
C459 O464 1.246 . S
C459 O465 1.249 . S
O460 C442 1.254 . S
O460 Zn457 2.025 . S
H461 C453 0.952 1_554 S
H462 C444 0.952 . S
H463 C452 0.948 . S
O464 Zn449 2.034 . S
O464 C459 1.246 . S
O465 Zn457 2.024 . S
O465 C459 1.249 . S
H466 C448 0.948 . S
O467 Zn457 2.039 1_554 S
O467 C471 1.251 . S
O468 Zn449 2.025 1_554 S
O468 C471 1.254 . S
O469 C450 1.246 . S
O469 Zn457 2.034 . S
O470 Zn449 2.024 . S
O470 C450 1.249 . S
C471 O467 1.251 . S
C471 O468 1.254 . S
H472 C445 0.949 . S
H473 C447 0.950 . S
H474 C454 0.949 1_554 S
H475 C456 0.950 . S
C476 O492 1.251 . S
C476 O494 1.254 . S
N477 C478 1.333 . S
N477 C482 1.307 . S
N477 Zn483 2.020 . S
C478 N477 1.333 . S
C478 C479 1.379 . S
C478 H496 0.952 . S
C479 C478 1.379 . S
C479 C480 1.390 . S
C479 H506 0.949 . S
C480 C479 1.390 . S
C480 C481 1.357 . S
C481 C480 1.357 . S
C481 C482 1.370 . S
C481 H507 0.950 . S
C482 N477 1.307 . S
C482 C481 1.370 . S
C482 H500 0.948 . S
Zn483 N477 2.020 . S
Zn483 O492 2.039 . S
Zn483 O498 2.034 . S
Zn483 O502 2.025 . S
Zn483 O504 2.024 . S
C484 O503 1.246 . S
C484 O504 1.249 . S
N485 C486 1.307 . S
N485 C487 1.333 . S
N485 Zn491 2.020 . S
C486 N485 1.307 . S
C486 C490 1.370 . S
C486 H497 0.948 . S
C487 N485 1.333 . S
C487 C488 1.379 . S
C487 H495 0.952 . S
C488 C487 1.379 . S
C488 C489 1.390 . S
C488 H508 0.949 . S
C489 C488 1.390 . S
C489 C490 1.357 . S
C490 C486 1.370 . S
C490 C489 1.357 . S
C490 H509 0.950 . S
Zn491 N485 2.020 . S
Zn491 O494 2.025 . S
Zn491 O499 2.024 . S
Zn491 O501 2.039 . S
Zn491 O503 2.034 . S
O492 C476 1.251 . S
O492 Zn483 2.039 . S
C493 O498 1.246 . S
C493 O499 1.249 . S
O494 C476 1.254 . S
O494 Zn491 2.025 . S
H495 C487 0.952 . S
H496 C478 0.952 . S
H497 C486 0.948 . S
O498 Zn483 2.034 . S
O498 C493 1.246 . S
O499 Zn491 2.024 . S
O499 C493 1.249 . S
H500 C482 0.948 . S
O501 Zn491 2.039 . S
O501 C505 1.251 . S
O502 Zn483 2.025 . S
O502 C505 1.254 . S
O503 C484 1.246 . S
O503 Zn491 2.034 . S
O504 Zn483 2.024 . S
O504 C484 1.249 . S
C505 O501 1.251 . S
C505 O502 1.254 . S
H506 C479 0.949 . S
H507 C481 0.950 . S
H508 C488 0.949 . S
H509 C490 0.950 . S
C510 O526 1.251 . S
C510 O528 1.254 . S
N511 C512 1.333 . S
N511 C516 1.307 . S
N511 Zn517 2.020 . S
C512 N511 1.333 . S
C512 C513 1.379 . S
C512 H530 0.952 . S
C513 C512 1.379 . S
C513 C514 1.390 . S
C513 H540 0.949 . S
C514 C513 1.390 . S
C514 C515 1.357 . S
C515 C514 1.357 . S
C515 C516 1.370 . S
C515 H541 0.950 . S
C516 N511 1.307 . S
C516 C515 1.370 . S
C516 H534 0.948 . S
Zn517 N511 2.020 . S
Zn517 O526 2.039 . S
Zn517 O532 2.034 . S
Zn517 O536 2.025 . S
Zn517 O538 2.024 . S
C518 O537 1.246 . S
C518 O538 1.249 . S
N519 C520 1.307 . S
N519 C521 1.333 . S
N519 Zn525 2.020 . S
C520 N519 1.307 . S
C520 C524 1.370 . S
C520 H531 0.948 . S
C521 N519 1.333 . S
C521 C522 1.379 . S
C521 H529 0.952 . S
C522 C521 1.379 . S
C522 C523 1.390 . S
C522 H542 0.949 . S
C523 C522 1.390 . S
C523 C524 1.357 . S
C524 C520 1.370 . S
C524 C523 1.357 . S
C524 H543 0.950 . S
Zn525 N519 2.020 . S
Zn525 O528 2.025 . S
Zn525 O533 2.024 . S
Zn525 O535 2.039 . S
Zn525 O537 2.034 . S
O526 C510 1.251 . S
O526 Zn517 2.039 . S
C527 O532 1.246 . S
C527 O533 1.249 . S
O528 C510 1.254 . S
O528 Zn525 2.025 . S
H529 C521 0.952 . S
H530 C512 0.952 . S
H531 C520 0.948 . S
O532 Zn517 2.034 . S
O532 C527 1.246 . S
O533 Zn525 2.024 . S
O533 C527 1.249 . S
H534 C516 0.948 . S
O535 Zn525 2.039 . S
O535 C539 1.251 . S
O536 Zn517 2.025 . S
O536 C539 1.254 . S
O537 C518 1.246 . S
O537 Zn525 2.034 . S
O538 Zn517 2.024 . S
O538 C518 1.249 . S
C539 O535 1.251 . S
C539 O536 1.254 . S
H540 C513 0.949 . S
H541 C515 0.950 . S
H542 C522 0.949 . S
H543 C524 0.950 . S
H544 C552 0.950 . S
H545 C557 0.950 . S
H546 C554 0.950 . S
H547 C556 0.950 . S
H548 C558 0.950 . S
H549 C560 0.950 . S
H550 C562 0.950 . S
H551 C563 0.950 . S
C552 H544 0.950 . S
C552 C553 1.386 . S
C552 C554 1.391 . S
C553 C552 1.386 . S
C553 C557 1.393 . S
C554 H546 0.950 . S
C554 C552 1.391 . S
C554 C555 1.400 . S
C555 C554 1.400 . S
C555 C556 1.398 . S
C555 C561 1.491 . S
C556 H547 0.950 . S
C556 C555 1.398 . S
C556 C557 1.391 . S
C557 H545 0.950 . S
C557 C553 1.393 . S
C557 C556 1.391 . S
C558 H548 0.950 . S
C558 C559 1.386 . S
C558 C560 1.391 . S
C559 C558 1.386 . S
C559 C563 1.393 . S
C560 H549 0.950 . S
C560 C558 1.391 . S
C560 C561 1.400 . S
C561 C555 1.491 . S
C561 C560 1.400 . S
C561 C562 1.398 . S
C562 H550 0.950 . S
C562 C561 1.398 . S
C562 C563 1.391 . S
C563 H551 0.950 . S
C563 C559 1.393 . S
C563 C562 1.391 . S
H564 C572 0.950 . S
H565 C577 0.950 . S
H566 C574 0.950 . S
H567 C576 0.950 . S
H568 C578 0.950 . S
H569 C580 0.950 . S
H570 C582 0.950 . S
H571 C583 0.950 . S
C572 H564 0.950 . S
C572 C573 1.386 . S
C572 C574 1.391 1_554 S
C573 C572 1.386 . S
C573 C577 1.393 . S
C574 H566 0.950 . S
C574 C572 1.391 1_556 S
C574 C575 1.400 . S
C575 C574 1.400 . S
C575 C576 1.398 . S
C575 C581 1.491 . S
C576 H567 0.950 . S
C576 C575 1.398 . S
C576 C577 1.391 1_556 S
C577 H565 0.950 . S
C577 C573 1.393 . S
C577 C576 1.391 1_554 S
C578 H568 0.950 . S
C578 C579 1.386 . S
C578 C580 1.391 . S
C579 C578 1.386 . S
C579 C583 1.393 . S
C580 H569 0.950 . S
C580 C578 1.391 . S
C580 C581 1.400 . S
C581 C575 1.491 . S
C581 C580 1.400 . S
C581 C582 1.398 . S
C582 H570 0.950 . S
C582 C581 1.398 . S
C582 C583 1.391 . S
C583 H571 0.950 . S
C583 C579 1.393 . S
C583 C582 1.391 . S
H584 C592 0.950 . S
H585 C597 0.950 . S
H586 C594 0.950 . S
H587 C596 0.950 . S
H588 C598 0.950 . S
H589 C600 0.950 1_554 S
H590 C602 0.950 1_554 S
H591 C603 0.950 . S
C592 H584 0.950 . S
C592 C593 1.386 . S
C592 C594 1.391 . S
C593 C592 1.386 . S
C593 C597 1.393 . S
C594 H586 0.950 . S
C594 C592 1.391 . S
C594 C595 1.400 . S
C595 C594 1.400 . S
C595 C596 1.398 . S
C595 C601 1.491 . S
C596 H587 0.950 . S
C596 C595 1.398 . S
C596 C597 1.391 . S
C597 H585 0.950 . S
C597 C593 1.393 . S
C597 C596 1.391 . S
C598 H588 0.950 . S
C598 C599 1.386 . S
C598 C600 1.391 . S
C599 C598 1.386 . S
C599 C603 1.393 . S
C600 H589 0.950 1_556 S
C600 C598 1.391 . S
C600 C601 1.400 1_556 S
C601 C595 1.491 . S
C601 C600 1.400 1_554 S
C601 C602 1.398 1_554 S
C602 H590 0.950 1_556 S
C602 C601 1.398 1_556 S
C602 C603 1.391 . S
C603 H591 0.950 . S
C603 C599 1.393 . S
C603 C602 1.391 . S
H604 C612 0.950 . S
H605 C617 0.950 . S
H606 C614 0.950 . S
H607 C616 0.950 . S
H608 C618 0.950 . S
H609 C620 0.950 . S
H610 C622 0.950 . S
H611 C623 0.950 . S
C612 H604 0.950 . S
C612 C613 1.386 . S
C612 C614 1.391 . S
C613 C612 1.386 . S
C613 C617 1.393 . S
C614 H606 0.950 . S
C614 C612 1.391 . S
C614 C615 1.400 . S
C615 C614 1.400 . S
C615 C616 1.398 . S
C615 C621 1.491 . S
C616 H607 0.950 . S
C616 C615 1.398 . S
C616 C617 1.391 . S
C617 H605 0.950 . S
C617 C613 1.393 . S
C617 C616 1.391 . S
C618 H608 0.950 . S
C618 C619 1.386 . S
C618 C620 1.391 . S
C619 C618 1.386 . S
C619 C623 1.393 . S
C620 H609 0.950 . S
C620 C618 1.391 . S
C620 C621 1.400 . S
C621 C615 1.491 . S
C621 C620 1.400 . S
C621 C622 1.398 . S
C622 H610 0.950 . S
C622 C621 1.398 . S
C622 C623 1.391 . S
C623 H611 0.950 . S
C623 C619 1.393 . S
C623 C622 1.391 . S
H624 C632 0.950 . S
H625 C637 0.950 . S
H626 C634 0.950 . S
H627 C636 0.950 . S
H628 C638 0.950 . S
H629 C640 0.950 . S
H630 C642 0.950 . S
H631 C643 0.950 . S
C632 H624 0.950 . S
C632 C633 1.386 . S
C632 C634 1.391 . S
C633 C632 1.386 . S
C633 C637 1.393 . S
C634 H626 0.950 . S
C634 C632 1.391 . S
C634 C635 1.400 . S
C635 C634 1.400 . S
C635 C636 1.398 . S
C635 C641 1.491 . S
C636 H627 0.950 . S
C636 C635 1.398 . S
C636 C637 1.391 . S
C637 H625 0.950 . S
C637 C633 1.393 . S
C637 C636 1.391 . S
C638 H628 0.950 . S
C638 C639 1.386 . S
C638 C640 1.391 . S
C639 C638 1.386 . S
C639 C643 1.393 . S
C640 H629 0.950 . S
C640 C638 1.391 . S
C640 C641 1.400 . S
C641 C635 1.491 . S
C641 C640 1.400 . S
C641 C642 1.398 . S
C642 H630 0.950 . S
C642 C641 1.398 . S
C642 C643 1.391 . S
C643 H631 0.950 . S
C643 C639 1.393 . S
C643 C642 1.391 . S
H644 C652 0.950 . S
H645 C657 0.950 . S
H646 C654 0.950 . S
H647 C656 0.950 . S
H648 C658 0.950 . S
H649 C660 0.950 . S
H650 C662 0.950 . S
H651 C663 0.950 . S
C652 H644 0.950 . S
C652 C653 1.386 . S
C652 C654 1.391 . S
C653 C652 1.386 . S
C653 C657 1.393 . S
C654 H646 0.950 . S
C654 C652 1.391 . S
C654 C655 1.400 . S
C655 C654 1.400 . S
C655 C656 1.398 . S
C655 C661 1.491 . S
C656 H647 0.950 . S
C656 C655 1.398 . S
C656 C657 1.391 . S
C657 H645 0.950 . S
C657 C653 1.393 . S
C657 C656 1.391 . S
C658 H648 0.950 . S
C658 C659 1.386 . S
C658 C660 1.391 . S
C659 C658 1.386 . S
C659 C663 1.393 . S
C660 H649 0.950 . S
C660 C658 1.391 . S
C660 C661 1.400 . S
C661 C655 1.491 . S
C661 C660 1.400 . S
C661 C662 1.398 . S
C662 H650 0.950 . S
C662 C661 1.398 . S
C662 C663 1.391 . S
C663 H651 0.950 . S
C663 C659 1.393 . S
C663 C662 1.391 . S
H664 C672 0.950 . S
H665 C677 0.950 . S
H666 C674 0.950 . S
H667 C676 0.950 . S
H668 C678 0.950 . S
H669 C680 0.950 . S
H670 C682 0.950 . S
H671 C683 0.950 . S
C672 H664 0.950 . S
C672 C673 1.386 . S
C672 C674 1.391 . S
C673 C672 1.386 . S
C673 C677 1.393 . S
C674 H666 0.950 . S
C674 C672 1.391 . S
C674 C675 1.400 . S
C675 C674 1.400 . S
C675 C676 1.398 . S
C675 C681 1.491 . S
C676 H667 0.950 . S
C676 C675 1.398 . S
C676 C677 1.391 . S
C677 H665 0.950 . S
C677 C673 1.393 . S
C677 C676 1.391 . S
C678 H668 0.950 . S
C678 C679 1.386 . S
C678 C680 1.391 1_554 S
C679 C678 1.386 . S
C679 C683 1.393 . S
C680 H669 0.950 . S
C680 C678 1.391 1_556 S
C680 C681 1.400 . S
C681 C675 1.491 . S
C681 C680 1.400 . S
C681 C682 1.398 . S
C682 H670 0.950 . S
C682 C681 1.398 . S
C682 C683 1.391 1_556 S
C683 H671 0.950 . S
C683 C679 1.393 . S
C683 C682 1.391 1_554 S
H684 C692 0.950 . S
H685 C697 0.950 . S
H686 C694 0.950 1_554 S
H687 C696 0.950 1_554 S
H688 C698 0.950 . S
H689 C700 0.950 . S
H690 C702 0.950 . S
H691 C703 0.950 . S
C692 H684 0.950 . S
C692 C693 1.386 . S
C692 C694 1.391 . S
C693 C692 1.386 . S
C693 C697 1.393 . S
C694 H686 0.950 1_556 S
C694 C692 1.391 . S
C694 C695 1.400 1_556 S
C695 C694 1.400 1_554 S
C695 C696 1.398 1_554 S
C695 C701 1.491 . S
C696 H687 0.950 1_556 S
C696 C695 1.398 1_556 S
C696 C697 1.391 . S
C697 H685 0.950 . S
C697 C693 1.393 . S
C697 C696 1.391 . S
C698 H688 0.950 . S
C698 C699 1.386 . S
C698 C700 1.391 . S
C699 C698 1.386 . S
C699 C703 1.393 . S
C700 H689 0.950 . S
C700 C698 1.391 . S
C700 C701 1.400 . S
C701 C695 1.491 . S
C701 C700 1.400 . S
C701 C702 1.398 . S
C702 H690 0.950 . S
C702 C701 1.398 . S
C702 C703 1.391 . S
C703 H691 0.950 . S
C703 C699 1.393 . S
C703 C702 1.391 . S
H704 C712 0.950 . S
H705 C717 0.950 . S
H706 C714 0.950 . S
H707 C716 0.950 . S
H708 C718 0.950 . S
H709 C720 0.950 . S
H710 C722 0.950 . S
H711 C723 0.950 . S
C712 H704 0.950 . S
C712 C713 1.386 . S
C712 C714 1.391 . S
C713 C712 1.386 . S
C713 C717 1.393 . S
C714 H706 0.950 . S
C714 C712 1.391 . S
C714 C715 1.400 . S
C715 C714 1.400 . S
C715 C716 1.398 . S
C715 C721 1.491 . S
C716 H707 0.950 . S
C716 C715 1.398 . S
C716 C717 1.391 . S
C717 H705 0.950 . S
C717 C713 1.393 . S
C717 C716 1.391 . S
C718 H708 0.950 . S
C718 C719 1.386 . S
C718 C720 1.391 . S
C719 C718 1.386 . S
C719 C723 1.393 . S
C720 H709 0.950 . S
C720 C718 1.391 . S
C720 C721 1.400 . S
C721 C715 1.491 . S
C721 C720 1.400 . S
C721 C722 1.398 . S
C722 H710 0.950 . S
C722 C721 1.398 . S
C722 C723 1.391 . S
C723 H711 0.950 . S
C723 C719 1.393 . S
C723 C722 1.391 . S
H724 C732 0.950 . S
H725 C737 0.950 . S
H726 C734 0.950 . S
H727 C736 0.950 . S
H728 C738 0.950 . S
H729 C740 0.950 1_554 S
H730 C742 0.950 1_554 S
H731 C743 0.950 . S
C732 H724 0.950 . S
C732 C733 1.386 . S
C732 C734 1.391 . S
C733 C732 1.386 . S
C733 C737 1.393 . S
C734 H726 0.950 . S
C734 C732 1.391 . S
C734 C735 1.400 . S
C735 C734 1.400 . S
C735 C736 1.398 . S
C735 C741 1.491 . S
C736 H727 0.950 . S
C736 C735 1.398 . S
C736 C737 1.391 . S
C737 H725 0.950 . S
C737 C733 1.393 . S
C737 C736 1.391 . S
C738 H728 0.950 . S
C738 C739 1.386 . S
C738 C740 1.391 . S
C739 C738 1.386 . S
C739 C743 1.393 . S
C740 H729 0.950 1_556 S
C740 C738 1.391 . S
C740 C741 1.400 1_556 S
C741 C735 1.491 . S
C741 C740 1.400 1_554 S
C741 C742 1.398 1_554 S
C742 H730 0.950 1_556 S
C742 C741 1.398 1_556 S
C742 C743 1.391 . S
C743 H731 0.950 . S
C743 C739 1.393 . S
C743 C742 1.391 . S
H744 C752 0.950 . S
H745 C757 0.950 . S
H746 C754 0.950 . S
H747 C756 0.950 . S
H748 C758 0.950 . S
H749 C760 0.950 . S
H750 C762 0.950 . S
H751 C763 0.950 . S
C752 H744 0.950 . S
C752 C753 1.386 . S
C752 C754 1.391 1_554 S
C753 C752 1.386 . S
C753 C757 1.393 . S
C754 H746 0.950 . S
C754 C752 1.391 1_556 S
C754 C755 1.400 . S
C755 C754 1.400 . S
C755 C756 1.398 . S
C755 C761 1.491 . S
C756 H747 0.950 . S
C756 C755 1.398 . S
C756 C757 1.391 1_556 S
C757 H745 0.950 . S
C757 C753 1.393 . S
C757 C756 1.391 1_554 S
C758 H748 0.950 . S
C758 C759 1.386 . S
C758 C760 1.391 . S
C759 C758 1.386 . S
C759 C763 1.393 . S
C760 H749 0.950 . S
C760 C758 1.391 . S
C760 C761 1.400 . S
C761 C755 1.491 . S
C761 C760 1.400 . S
C761 C762 1.398 . S
C762 H750 0.950 . S
C762 C761 1.398 . S
C762 C763 1.391 . S
C763 H751 0.950 . S
C763 C759 1.393 . S
C763 C762 1.391 . S
H764 C772 0.950 . S
H765 C777 0.950 . S
H766 C774 0.950 . S
H767 C776 0.950 . S
H768 C778 0.950 . S
H769 C780 0.950 . S
H770 C782 0.950 . S
H771 C783 0.950 . S
C772 H764 0.950 . S
C772 C773 1.386 . S
C772 C774 1.391 . S
C773 C772 1.386 . S
C773 C777 1.393 . S
C774 H766 0.950 . S
C774 C772 1.391 . S
C774 C775 1.400 . S
C775 C774 1.400 . S
C775 C776 1.398 . S
C775 C781 1.491 . S
C776 H767 0.950 . S
C776 C775 1.398 . S
C776 C777 1.391 . S
C777 H765 0.950 . S
C777 C773 1.393 . S
C777 C776 1.391 . S
C778 H768 0.950 . S
C778 C779 1.386 . S
C778 C780 1.391 . S
C779 C778 1.386 . S
C779 C783 1.393 . S
C780 H769 0.950 . S
C780 C778 1.391 . S
C780 C781 1.400 . S
C781 C775 1.491 . S
C781 C780 1.400 . S
C781 C782 1.398 . S
C782 H770 0.950 . S
C782 C781 1.398 . S
C782 C783 1.391 . S
C783 H771 0.950 . S
C783 C779 1.393 . S
C783 C782 1.391 . S
H784 C792 0.950 . S
H785 C797 0.950 . S
H786 C794 0.950 . S
H787 C796 0.950 . S
H788 C798 0.950 . S
H789 C800 0.950 . S
H790 C802 0.950 . S
H791 C803 0.950 . S
C792 H784 0.950 . S
C792 C793 1.386 . S
C792 C794 1.391 . S
C793 C792 1.386 . S
C793 C797 1.393 . S
C794 H786 0.950 . S
C794 C792 1.391 . S
C794 C795 1.400 . S
C795 C794 1.400 . S
C795 C796 1.398 . S
C795 C801 1.491 . S
C796 H787 0.950 . S
C796 C795 1.398 . S
C796 C797 1.391 . S
C797 H785 0.950 . S
C797 C793 1.393 . S
C797 C796 1.391 . S
C798 H788 0.950 . S
C798 C799 1.386 . S
C798 C800 1.391 . S
C799 C798 1.386 . S
C799 C803 1.393 . S
C800 H789 0.950 . S
C800 C798 1.391 . S
C800 C801 1.400 . S
C801 C795 1.491 . S
C801 C800 1.400 . S
C801 C802 1.398 . S
C802 H790 0.950 . S
C802 C801 1.398 . S
C802 C803 1.391 . S
C803 H791 0.950 . S
C803 C799 1.393 . S
C803 C802 1.391 . S
H804 C812 0.950 . S
H805 C817 0.950 . S
H806 C814 0.950 . S
H807 C816 0.950 . S
H808 C818 0.950 . S
H809 C820 0.950 . S
H810 C822 0.950 . S
H811 C823 0.950 . S
C812 H804 0.950 . S
C812 C813 1.386 . S
C812 C814 1.391 . S
C813 C812 1.386 . S
C813 C817 1.393 . S
C814 H806 0.950 . S
C814 C812 1.391 . S
C814 C815 1.400 . S
C815 C814 1.400 . S
C815 C816 1.398 . S
C815 C821 1.491 . S
C816 H807 0.950 . S
C816 C815 1.398 . S
C816 C817 1.391 . S
C817 H805 0.950 . S
C817 C813 1.393 . S
C817 C816 1.391 . S
C818 H808 0.950 . S
C818 C819 1.386 . S
C818 C820 1.391 . S
C819 C818 1.386 . S
C819 C823 1.393 . S
C820 H809 0.950 . S
C820 C818 1.391 . S
C820 C821 1.400 . S
C821 C815 1.491 . S
C821 C820 1.400 . S
C821 C822 1.398 . S
C822 H810 0.950 . S
C822 C821 1.398 . S
C822 C823 1.391 . S
C823 H811 0.950 . S
C823 C819 1.393 . S
C823 C822 1.391 . S
H824 C832 0.950 . S
H825 C837 0.950 . S
H826 C834 0.950 . S
H827 C836 0.950 . S
H828 C838 0.950 . S
H829 C840 0.950 . S
H830 C842 0.950 . S
H831 C843 0.950 . S
C832 H824 0.950 . S
C832 C833 1.386 . S
C832 C834 1.391 . S
C833 C832 1.386 . S
C833 C837 1.393 . S
C834 H826 0.950 . S
C834 C832 1.391 . S
C834 C835 1.400 . S
C835 C834 1.400 . S
C835 C836 1.398 . S
C835 C841 1.491 . S
C836 H827 0.950 . S
C836 C835 1.398 . S
C836 C837 1.391 . S
C837 H825 0.950 . S
C837 C833 1.393 . S
C837 C836 1.391 . S
C838 H828 0.950 . S
C838 C839 1.386 . S
C838 C840 1.391 1_556 S
C839 C838 1.386 . S
C839 C843 1.393 . S
C840 H829 0.950 . S
C840 C838 1.391 1_554 S
C840 C841 1.400 . S
C841 C835 1.491 . S
C841 C840 1.400 . S
C841 C842 1.398 . S
C842 H830 0.950 . S
C842 C841 1.398 . S
C842 C843 1.391 1_554 S
C843 H831 0.950 . S
C843 C839 1.393 . S
C843 C842 1.391 1_556 S
H844 C852 0.950 . S
H845 C857 0.950 . S
H846 C854 0.950 . S
H847 C856 0.950 . S
H848 C858 0.950 . S
H849 C860 0.950 . S
H850 C862 0.950 . S
H851 C863 0.950 . S
C852 H844 0.950 . S
C852 C853 1.386 . S
C852 C854 1.391 1_554 S
C853 C852 1.386 . S
C853 C857 1.393 . S
C854 H846 0.950 . S
C854 C852 1.391 1_556 S
C854 C855 1.400 . S
C855 C854 1.400 . S
C855 C856 1.398 . S
C855 C861 1.491 . S
C856 H847 0.950 . S
C856 C855 1.398 . S
C856 C857 1.391 1_556 S
C857 H845 0.950 . S
C857 C853 1.393 . S
C857 C856 1.391 1_554 S
C858 H848 0.950 . S
C858 C859 1.386 . S
C858 C860 1.391 . S
C859 C858 1.386 . S
C859 C863 1.393 . S
C860 H849 0.950 . S
C860 C858 1.391 . S
C860 C861 1.400 . S
C861 C855 1.491 . S
C861 C860 1.400 . S
C861 C862 1.398 . S
C862 H850 0.950 . S
C862 C861 1.398 . S
C862 C863 1.391 . S
C863 H851 0.950 . S
C863 C859 1.393 . S
C863 C862 1.391 . S
H864 C872 0.950 . S
H865 C877 0.950 . S
H866 C874 0.950 . S
H867 C876 0.950 . S
H868 C878 0.950 . S
H869 C880 0.950 . S
H870 C882 0.950 . S
H871 C883 0.950 . S
C872 H864 0.950 . S
C872 C873 1.386 . S
C872 C874 1.391 . S
C873 C872 1.386 . S
C873 C877 1.393 . S
C874 H866 0.950 . S
C874 C872 1.391 . S
C874 C875 1.400 . S
C875 C874 1.400 . S
C875 C876 1.398 . S
C875 C881 1.491 . S
C876 H867 0.950 . S
C876 C875 1.398 . S
C876 C877 1.391 . S
C877 H865 0.950 . S
C877 C873 1.393 . S
C877 C876 1.391 . S
C878 H868 0.950 . S
C878 C879 1.386 . S
C878 C880 1.391 . S
C879 C878 1.386 . S
C879 C883 1.393 . S
C880 H869 0.950 . S
C880 C878 1.391 . S
C880 C881 1.400 . S
C881 C875 1.491 . S
C881 C880 1.400 . S
C881 C882 1.398 . S
C882 H870 0.950 . S
C882 C881 1.398 . S
C882 C883 1.391 . S
C883 H871 0.950 . S
C883 C879 1.393 . S
C883 C882 1.391 . S
H884 C892 0.950 . S
H885 C897 0.950 . S
H886 C894 0.950 . S
H887 C896 0.950 . S
H888 C898 0.950 . S
H889 C900 0.950 . S
H890 C902 0.950 . S
H891 C903 0.950 . S
C892 H884 0.950 . S
C892 C893 1.386 . S
C892 C894 1.391 . S
C893 C892 1.386 . S
C893 C897 1.393 . S
C894 H886 0.950 . S
C894 C892 1.391 . S
C894 C895 1.400 . S
C895 C894 1.400 . S
C895 C896 1.398 . S
C895 C901 1.491 . S
C896 H887 0.950 . S
C896 C895 1.398 . S
C896 C897 1.391 . S
C897 H885 0.950 . S
C897 C893 1.393 . S
C897 C896 1.391 . S
C898 H888 0.950 . S
C898 C899 1.386 . S
C898 C900 1.391 . S
C899 C898 1.386 . S
C899 C903 1.393 . S
C900 H889 0.950 . S
C900 C898 1.391 . S
C900 C901 1.400 . S
C901 C895 1.491 . S
C901 C900 1.400 . S
C901 C902 1.398 . S
C902 H890 0.950 . S
C902 C901 1.398 . S
C902 C903 1.391 . S
C903 H891 0.950 . S
C903 C899 1.393 . S
C903 C902 1.391 . S
H904 C912 0.950 . S
H905 C917 0.950 . S
H906 C914 0.950 . S
H907 C916 0.950 . S
H908 C918 0.950 . S
H909 C920 0.950 . S
H910 C922 0.950 . S
H911 C923 0.950 . S
C912 H904 0.950 . S
C912 C913 1.386 . S
C912 C914 1.391 . S
C913 C912 1.386 . S
C913 C917 1.393 . S
C914 H906 0.950 . S
C914 C912 1.391 . S
C914 C915 1.400 . S
C915 C914 1.400 . S
C915 C916 1.398 . S
C915 C921 1.491 . S
C916 H907 0.950 . S
C916 C915 1.398 . S
C916 C917 1.391 . S
C917 H905 0.950 . S
C917 C913 1.393 . S
C917 C916 1.391 . S
C918 H908 0.950 . S
C918 C919 1.386 . S
C918 C920 1.391 . S
C919 C918 1.386 . S
C919 C923 1.393 . S
C920 H909 0.950 . S
C920 C918 1.391 . S
C920 C921 1.400 . S
C921 C915 1.491 . S
C921 C920 1.400 . S
C921 C922 1.398 . S
C922 H910 0.950 . S
C922 C921 1.398 . S
C922 C923 1.391 . S
C923 H911 0.950 . S
C923 C919 1.393 . S
C923 C922 1.391 . S
H924 C932 0.950 . S
H925 C937 0.950 . S
H926 C934 0.950 . S
H927 C936 0.950 . S
H928 C938 0.950 1_455 S
H929 C940 0.950 . S
H930 C942 0.950 . S
H931 C943 0.950 1_455 S
C932 H924 0.950 . S
C932 C933 1.386 . S
C932 C934 1.391 . S
C933 C932 1.386 . S
C933 C937 1.393 . S
C934 H926 0.950 . S
C934 C932 1.391 . S
C934 C935 1.400 . S
C935 C934 1.400 . S
C935 C936 1.398 . S
C935 C941 1.491 . S
C936 H927 0.950 . S
C936 C935 1.398 . S
C936 C937 1.391 . S
C937 H925 0.950 . S
C937 C933 1.393 . S
C937 C936 1.391 . S
C938 H928 0.950 1_655 S
C938 C939 1.386 1_655 S
C938 C940 1.391 . S
C939 C938 1.386 1_455 S
C939 C943 1.393 1_455 S
C940 H929 0.950 . S
C940 C938 1.391 . S
C940 C941 1.400 . S
C941 C935 1.491 . S
C941 C940 1.400 . S
C941 C942 1.398 . S
C942 H930 0.950 . S
C942 C941 1.398 . S
C942 C943 1.391 . S
C943 H931 0.950 1_655 S
C943 C939 1.393 1_655 S
C943 C942 1.391 . S
H944 C952 0.950 . S
H945 C957 0.950 . S
H946 C954 0.950 . S
H947 C956 0.950 . S
H948 C958 0.950 . S
H949 C960 0.950 . S
H950 C962 0.950 . S
H951 C963 0.950 . S
C952 H944 0.950 . S
C952 C953 1.386 . S
C952 C954 1.391 . S
C953 C952 1.386 . S
C953 C957 1.393 . S
C954 H946 0.950 . S
C954 C952 1.391 . S
C954 C955 1.400 . S
C955 C954 1.400 . S
C955 C956 1.398 . S
C955 C961 1.491 . S
C956 H947 0.950 . S
C956 C955 1.398 . S
C956 C957 1.391 . S
C957 H945 0.950 . S
C957 C953 1.393 . S
C957 C956 1.391 . S
C958 H948 0.950 . S
C958 C959 1.386 . S
C958 C960 1.391 . S
C959 C958 1.386 . S
C959 C963 1.393 . S
C960 H949 0.950 . S
C960 C958 1.391 . S
C960 C961 1.400 . S
C961 C955 1.491 . S
C961 C960 1.400 . S
C961 C962 1.398 . S
C962 H950 0.950 . S
C962 C961 1.398 . S
C962 C963 1.391 . S
C963 H951 0.950 . S
C963 C959 1.393 . S
C963 C962 1.391 . S
H964 C972 0.950 . S
H965 C977 0.950 . S
H966 C974 0.950 . S
H967 C976 0.950 . S
H968 C978 0.950 . S
H969 C980 0.950 . S
H970 C982 0.950 . S
H971 C983 0.950 . S
C972 H964 0.950 . S
C972 C973 1.386 . S
C972 C974 1.391 . S
C973 C972 1.386 . S
C973 C977 1.393 . S
C974 H966 0.950 . S
C974 C972 1.391 . S
C974 C975 1.400 . S
C975 C974 1.400 . S
C975 C976 1.398 . S
C975 C981 1.491 1_455 S
C976 H967 0.950 . S
C976 C975 1.398 . S
C976 C977 1.391 . S
C977 H965 0.950 . S
C977 C973 1.393 . S
C977 C976 1.391 . S
C978 H968 0.950 . S
C978 C979 1.386 . S
C978 C980 1.391 . S
C979 C978 1.386 . S
C979 C983 1.393 . S
C980 H969 0.950 . S
C980 C978 1.391 . S
C980 C981 1.400 . S
C981 C975 1.491 1_655 S
C981 C980 1.400 . S
C981 C982 1.398 . S
C982 H970 0.950 . S
C982 C981 1.398 . S
C982 C983 1.391 . S
C983 H971 0.950 . S
C983 C979 1.393 . S
C983 C982 1.391 . S
H984 C992 0.950 . S
H985 C997 0.950 . S
H986 C994 0.950 . S
H987 C996 0.950 . S
H988 C998 0.950 . S
H989 C1000 0.950 . S
H990 C1002 0.950 . S
H991 C1003 0.950 . S
C992 H984 0.950 . S
C992 C993 1.386 . S
C992 C994 1.391 . S
C993 C992 1.386 . S
C993 C997 1.393 . S
C994 H986 0.950 . S
C994 C992 1.391 . S
C994 C995 1.400 . S
C995 C994 1.400 . S
C995 C996 1.398 . S
C995 C1001 1.491 . S
C996 H987 0.950 . S
C996 C995 1.398 . S
C996 C997 1.391 . S
C997 H985 0.950 . S
C997 C993 1.393 . S
C997 C996 1.391 . S
C998 H988 0.950 . S
C998 C999 1.386 . S
C998 C1000 1.391 . S
C999 C998 1.386 . S
C999 C1003 1.393 . S
C1000 H989 0.950 . S
C1000 C998 1.391 . S
C1000 C1001 1.400 . S
C1001 C995 1.491 . S
C1001 C1000 1.400 . S
C1001 C1002 1.398 . S
C1002 H990 0.950 . S
C1002 C1001 1.398 . S
C1002 C1003 1.391 . S
C1003 H991 0.950 . S
C1003 C999 1.393 . S
C1003 C1002 1.391 . S
H1004 C1012 0.950 . S
H1005 C1017 0.950 . S
H1006 C1014 0.950 . S
H1007 C1016 0.950 . S
H1008 C1018 0.950 . S
H1009 C1020 0.950 . S
H1010 C1022 0.950 . S
H1011 C1023 0.950 . S
C1012 H1004 0.950 . S
C1012 C1013 1.386 . S
C1012 C1014 1.391 . S
C1013 C1012 1.386 . S
C1013 C1017 1.393 . S
C1014 H1006 0.950 . S
C1014 C1012 1.391 . S
C1014 C1015 1.400 . S
C1015 C1014 1.400 . S
C1015 C1016 1.398 . S
C1015 C1021 1.491 . S
C1016 H1007 0.950 . S
C1016 C1015 1.398 . S
C1016 C1017 1.391 . S
C1017 H1005 0.950 . S
C1017 C1013 1.393 . S
C1017 C1016 1.391 . S
C1018 H1008 0.950 . S
C1018 C1019 1.386 . S
C1018 C1020 1.391 . S
C1019 C1018 1.386 . S
C1019 C1023 1.393 . S
C1020 H1009 0.950 . S
C1020 C1018 1.391 . S
C1020 C1021 1.400 . S
C1021 C1015 1.491 . S
C1021 C1020 1.400 . S
C1021 C1022 1.398 . S
C1022 H1010 0.950 . S
C1022 C1021 1.398 . S
C1022 C1023 1.391 . S
C1023 H1011 0.950 . S
C1023 C1019 1.393 . S
C1023 C1022 1.391 . S
H1024 C1032 0.950 . S
H1025 C1037 0.950 . S
H1026 C1034 0.950 . S
H1027 C1036 0.950 . S
H1028 C1038 0.950 . S
H1029 C1040 0.950 . S
H1030 C1042 0.950 . S
H1031 C1043 0.950 . S
C1032 H1024 0.950 . S
C1032 C1033 1.386 . S
C1032 C1034 1.391 . S
C1033 C1032 1.386 . S
C1033 C1037 1.393 . S
C1034 H1026 0.950 . S
C1034 C1032 1.391 . S
C1034 C1035 1.400 . S
C1035 C1034 1.400 . S
C1035 C1036 1.398 . S
C1035 C1041 1.491 . S
C1036 H1027 0.950 . S
C1036 C1035 1.398 . S
C1036 C1037 1.391 . S
C1037 H1025 0.950 . S
C1037 C1033 1.393 . S
C1037 C1036 1.391 . S
C1038 H1028 0.950 . S
C1038 C1039 1.386 . S
C1038 C1040 1.391 . S
C1039 C1038 1.386 . S
C1039 C1043 1.393 . S
C1040 H1029 0.950 . S
C1040 C1038 1.391 . S
C1040 C1041 1.400 . S
C1041 C1035 1.491 . S
C1041 C1040 1.400 . S
C1041 C1042 1.398 . S
C1042 H1030 0.950 . S
C1042 C1041 1.398 . S
C1042 C1043 1.391 . S
C1043 H1031 0.950 . S
C1043 C1039 1.393 . S
C1043 C1042 1.391 . S
H1044 C1052 0.950 . S
H1045 C1057 0.950 . S
H1046 C1054 0.950 . S
H1047 C1056 0.950 . S
H1048 C1058 0.950 . S
H1049 C1060 0.950 . S
H1050 C1062 0.950 . S
H1051 C1063 0.950 . S
C1052 H1044 0.950 . S
C1052 C1053 1.386 . S
C1052 C1054 1.391 . S
C1053 C1052 1.386 . S
C1053 C1057 1.393 . S
C1054 H1046 0.950 . S
C1054 C1052 1.391 . S
C1054 C1055 1.400 . S
C1055 C1054 1.400 . S
C1055 C1056 1.398 . S
C1055 C1061 1.491 . S
C1056 H1047 0.950 . S
C1056 C1055 1.398 . S
C1056 C1057 1.391 . S
C1057 H1045 0.950 . S
C1057 C1053 1.393 . S
C1057 C1056 1.391 . S
C1058 H1048 0.950 . S
C1058 C1059 1.386 . S
C1058 C1060 1.391 . S
C1059 C1058 1.386 . S
C1059 C1063 1.393 . S
C1060 H1049 0.950 . S
C1060 C1058 1.391 . S
C1060 C1061 1.400 . S
C1061 C1055 1.491 . S
C1061 C1060 1.400 . S
C1061 C1062 1.398 . S
C1062 H1050 0.950 . S
C1062 C1061 1.398 . S
C1062 C1063 1.391 . S
C1063 H1051 0.950 . S
C1063 C1059 1.393 . S
C1063 C1062 1.391 . S
H1064 C1072 0.950 . S
H1065 C1077 0.950 . S
H1066 C1074 0.950 . S
H1067 C1076 0.950 . S
H1068 C1078 0.950 . S
H1069 C1080 0.950 . S
H1070 C1082 0.950 . S
H1071 C1083 0.950 . S
C1072 H1064 0.950 . S
C1072 C1073 1.386 . S
C1072 C1074 1.391 . S
C1073 C1072 1.386 . S
C1073 C1077 1.393 . S
C1074 H1066 0.950 . S
C1074 C1072 1.391 . S
C1074 C1075 1.400 . S
C1075 C1074 1.400 . S
C1075 C1076 1.398 . S
C1075 C1081 1.491 . S
C1076 H1067 0.950 . S
C1076 C1075 1.398 . S
C1076 C1077 1.391 . S
C1077 H1065 0.950 . S
C1077 C1073 1.393 . S
C1077 C1076 1.391 . S
C1078 H1068 0.950 . S
C1078 C1079 1.386 . S
C1078 C1080 1.391 . S
C1079 C1078 1.386 . S
C1079 C1083 1.393 . S
C1080 H1069 0.950 . S
C1080 C1078 1.391 . S
C1080 C1081 1.400 . S
C1081 C1075 1.491 . S
C1081 C1080 1.400 . S
C1081 C1082 1.398 . S
C1082 H1070 0.950 . S
C1082 C1081 1.398 . S
C1082 C1083 1.391 . S
C1083 H1071 0.950 . S
C1083 C1079 1.393 . S
C1083 C1082 1.391 . S
H1084 C1092 0.950 . S
H1085 C1097 0.950 . S
H1086 C1094 0.950 . S
H1087 C1096 0.950 . S
H1088 C1098 0.950 . S
H1089 C1100 0.950 . S
H1090 C1102 0.950 . S
H1091 C1103 0.950 . S
C1092 H1084 0.950 . S
C1092 C1093 1.386 . S
C1092 C1094 1.391 . S
C1093 C1092 1.386 . S
C1093 C1097 1.393 . S
C1094 H1086 0.950 . S
C1094 C1092 1.391 . S
C1094 C1095 1.400 . S
C1095 C1094 1.400 . S
C1095 C1096 1.398 . S
C1095 C1101 1.491 . S
C1096 H1087 0.950 . S
C1096 C1095 1.398 . S
C1096 C1097 1.391 . S
C1097 H1085 0.950 . S
C1097 C1093 1.393 . S
C1097 C1096 1.391 . S
C1098 H1088 0.950 . S
C1098 C1099 1.386 . S
C1098 C1100 1.391 . S
C1099 C1098 1.386 . S
C1099 C1103 1.393 . S
C1100 H1089 0.950 . S
C1100 C1098 1.391 . S
C1100 C1101 1.400 . S
C1101 C1095 1.491 . S
C1101 C1100 1.400 . S
C1101 C1102 1.398 . S
C1102 H1090 0.950 . S
C1102 C1101 1.398 . S
C1102 C1103 1.391 . S
C1103 H1091 0.950 . S
C1103 C1099 1.393 . S
C1103 C1102 1.391 . S
H1104 C1112 0.950 . S
H1105 C1117 0.950 1_554 S
H1106 C1114 0.950 . S
H1107 C1116 0.950 1_554 S
H1108 C1118 0.950 1_554 S
H1109 C1120 0.950 1_554 S
H1110 C1122 0.950 . S
H1111 C1123 0.950 . S
C1112 H1104 0.950 . S
C1112 C1113 1.386 . S
C1112 C1114 1.391 . S
C1113 C1112 1.386 . S
C1113 C1117 1.393 . S
C1114 H1106 0.950 . S
C1114 C1112 1.391 . S
C1114 C1115 1.400 . S
C1115 C1114 1.400 . S
C1115 C1116 1.398 . S
C1115 C1121 1.491 . S
C1116 H1107 0.950 1_556 S
C1116 C1115 1.398 . S
C1116 C1117 1.391 . S
C1117 H1105 0.950 1_556 S
C1117 C1113 1.393 . S
C1117 C1116 1.391 . S
C1118 H1108 0.950 1_556 S
C1118 C1119 1.386 . S
C1118 C1120 1.391 . S
C1119 C1118 1.386 . S
C1119 C1123 1.393 . S
C1120 H1109 0.950 1_556 S
C1120 C1118 1.391 . S
C1120 C1121 1.400 1_455 S
C1121 C1115 1.491 . S
C1121 C1120 1.400 1_655 S
C1121 C1122 1.398 . S
C1122 H1110 0.950 . S
C1122 C1121 1.398 . S
C1122 C1123 1.391 1_655 S
C1123 H1111 0.950 . S
C1123 C1119 1.393 . S
C1123 C1122 1.391 1_455 S
H1124 C1132 0.950 . S
H1125 C1137 0.950 . S
H1126 C1134 0.950 . S
H1127 C1136 0.950 . S
H1128 C1138 0.950 . S
H1129 C1140 0.950 . S
H1130 C1142 0.950 . S
H1131 C1143 0.950 . S
C1132 H1124 0.950 . S
C1132 C1133 1.386 . S
C1132 C1134 1.391 . S
C1133 C1132 1.386 . S
C1133 C1137 1.393 . S
C1134 H1126 0.950 . S
C1134 C1132 1.391 . S
C1134 C1135 1.400 . S
C1135 C1134 1.400 . S
C1135 C1136 1.398 . S
C1135 C1141 1.491 . S
C1136 H1127 0.950 . S
C1136 C1135 1.398 . S
C1136 C1137 1.391 . S
C1137 H1125 0.950 . S
C1137 C1133 1.393 . S
C1137 C1136 1.391 . S
C1138 H1128 0.950 . S
C1138 C1139 1.386 . S
C1138 C1140 1.391 . S
C1139 C1138 1.386 . S
C1139 C1143 1.393 . S
C1140 H1129 0.950 . S
C1140 C1138 1.391 . S
C1140 C1141 1.400 . S
C1141 C1135 1.491 . S
C1141 C1140 1.400 . S
C1141 C1142 1.398 . S
C1142 H1130 0.950 . S
C1142 C1141 1.398 . S
C1142 C1143 1.391 . S
C1143 H1131 0.950 . S
C1143 C1139 1.393 . S
C1143 C1142 1.391 . S
H1144 C1152 0.950 . S
H1145 C1157 0.950 . S
H1146 C1154 0.950 . S
H1147 C1156 0.950 . S
H1148 C1158 0.950 . S
H1149 C1160 0.950 . S
H1150 C1162 0.950 . S
H1151 C1163 0.950 . S
C1152 H1144 0.950 . S
C1152 C1153 1.386 . S
C1152 C1154 1.391 . S
C1153 C1152 1.386 . S
C1153 C1157 1.393 . S
C1154 H1146 0.950 . S
C1154 C1152 1.391 . S
C1154 C1155 1.400 . S
C1155 C1154 1.400 . S
C1155 C1156 1.398 . S
C1155 C1161 1.491 . S
C1156 H1147 0.950 . S
C1156 C1155 1.398 . S
C1156 C1157 1.391 . S
C1157 H1145 0.950 . S
C1157 C1153 1.393 . S
C1157 C1156 1.391 . S
C1158 H1148 0.950 . S
C1158 C1159 1.386 . S
C1158 C1160 1.391 . S
C1159 C1158 1.386 . S
C1159 C1163 1.393 . S
C1160 H1149 0.950 . S
C1160 C1158 1.391 . S
C1160 C1161 1.400 . S
C1161 C1155 1.491 . S
C1161 C1160 1.400 . S
C1161 C1162 1.398 . S
C1162 H1150 0.950 . S
C1162 C1161 1.398 . S
C1162 C1163 1.391 . S
C1163 H1151 0.950 . S
C1163 C1159 1.393 . S
C1163 C1162 1.391 . S
H1164 C1172 0.950 . S
H1165 C1177 0.950 . S
H1166 C1174 0.950 . S
H1167 C1176 0.950 . S
H1168 C1178 0.950 . S
H1169 C1180 0.950 . S
H1170 C1182 0.950 . S
H1171 C1183 0.950 . S
C1172 H1164 0.950 . S
C1172 C1173 1.386 . S
C1172 C1174 1.391 . S
C1173 C1172 1.386 . S
C1173 C1177 1.393 . S
C1174 H1166 0.950 . S
C1174 C1172 1.391 . S
C1174 C1175 1.400 . S
C1175 C1174 1.400 . S
C1175 C1176 1.398 . S
C1175 C1181 1.491 . S
C1176 H1167 0.950 . S
C1176 C1175 1.398 . S
C1176 C1177 1.391 . S
C1177 H1165 0.950 . S
C1177 C1173 1.393 . S
C1177 C1176 1.391 . S
C1178 H1168 0.950 . S
C1178 C1179 1.386 . S
C1178 C1180 1.391 1_655 S
C1179 C1178 1.386 . S
C1179 C1183 1.393 . S
C1180 H1169 0.950 . S
C1180 C1178 1.391 1_455 S
C1180 C1181 1.400 . S
C1181 C1175 1.491 . S
C1181 C1180 1.400 . S
C1181 C1182 1.398 . S
C1182 H1170 0.950 . S
C1182 C1181 1.398 . S
C1182 C1183 1.391 1_455 S
C1183 H1171 0.950 . S
C1183 C1179 1.393 . S
C1183 C1182 1.391 1_655 S
H1184 C1192 0.950 . S
H1185 C1197 0.950 1_556 S
H1186 C1194 0.950 . S
H1187 C1196 0.950 . S
H1188 C1198 0.950 . S
H1189 C1200 0.950 . S
H1190 C1202 0.950 . S
H1191 C1203 0.950 . S
C1192 H1184 0.950 . S
C1192 C1193 1.386 . S
C1192 C1194 1.391 . S
C1193 C1192 1.386 . S
C1193 C1197 1.393 . S
C1194 H1186 0.950 . S
C1194 C1192 1.391 . S
C1194 C1195 1.400 . S
C1195 C1194 1.400 . S
C1195 C1196 1.398 1_554 S
C1195 C1201 1.491 . S
C1196 H1187 0.950 . S
C1196 C1195 1.398 1_556 S
C1196 C1197 1.391 1_556 S
C1197 H1185 0.950 1_554 S
C1197 C1193 1.393 . S
C1197 C1196 1.391 1_554 S
C1198 H1188 0.950 . S
C1198 C1199 1.386 . S
C1198 C1200 1.391 . S
C1199 C1198 1.386 . S
C1199 C1203 1.393 1_556 S
C1200 H1189 0.950 . S
C1200 C1198 1.391 . S
C1200 C1201 1.400 1_556 S
C1201 C1195 1.491 . S
C1201 C1200 1.400 1_554 S
C1201 C1202 1.398 . S
C1202 H1190 0.950 . S
C1202 C1201 1.398 . S
C1202 C1203 1.391 . S
C1203 H1191 0.950 . S
C1203 C1199 1.393 1_554 S
C1203 C1202 1.391 . S
H1204 C1212 0.950 . S
H1205 C1217 0.950 . S
H1206 C1214 0.950 . S
H1207 C1216 0.950 . S
H1208 C1218 0.950 . S
H1209 C1220 0.950 . S
H1210 C1222 0.950 . S
H1211 C1223 0.950 . S
C1212 H1204 0.950 . S
C1212 C1213 1.386 . S
C1212 C1214 1.391 . S
C1213 C1212 1.386 . S
C1213 C1217 1.393 . S
C1214 H1206 0.950 . S
C1214 C1212 1.391 . S
C1214 C1215 1.400 . S
C1215 C1214 1.400 . S
C1215 C1216 1.398 . S
C1215 C1221 1.491 . S
C1216 H1207 0.950 . S
C1216 C1215 1.398 . S
C1216 C1217 1.391 . S
C1217 H1205 0.950 . S
C1217 C1213 1.393 . S
C1217 C1216 1.391 . S
C1218 H1208 0.950 . S
C1218 C1219 1.386 . S
C1218 C1220 1.391 . S
C1219 C1218 1.386 . S
C1219 C1223 1.393 . S
C1220 H1209 0.950 . S
C1220 C1218 1.391 . S
C1220 C1221 1.400 . S
C1221 C1215 1.491 . S
C1221 C1220 1.400 . S
C1221 C1222 1.398 . S
C1222 H1210 0.950 . S
C1222 C1221 1.398 . S
C1222 C1223 1.391 . S
C1223 H1211 0.950 . S
C1223 C1219 1.393 . S
C1223 C1222 1.391 . S
H1224 C1232 0.950 . S
H1225 C1237 0.950 . S
H1226 C1234 0.950 . S
H1227 C1236 0.950 . S
H1228 C1238 0.950 . S
H1229 C1240 0.950 . S
H1230 C1242 0.950 . S
H1231 C1243 0.950 . S
C1232 H1224 0.950 . S
C1232 C1233 1.386 . S
C1232 C1234 1.391 . S
C1233 C1232 1.386 . S
C1233 C1237 1.393 . S
C1234 H1226 0.950 . S
C1234 C1232 1.391 . S
C1234 C1235 1.400 . S
C1235 C1234 1.400 . S
C1235 C1236 1.398 . S
C1235 C1241 1.491 . S
C1236 H1227 0.950 . S
C1236 C1235 1.398 . S
C1236 C1237 1.391 . S
C1237 H1225 0.950 . S
C1237 C1233 1.393 . S
C1237 C1236 1.391 . S
C1238 H1228 0.950 . S
C1238 C1239 1.386 . S
C1238 C1240 1.391 . S
C1239 C1238 1.386 . S
C1239 C1243 1.393 . S
C1240 H1229 0.950 . S
C1240 C1238 1.391 . S
C1240 C1241 1.400 . S
C1241 C1235 1.491 . S
C1241 C1240 1.400 . S
C1241 C1242 1.398 . S
C1242 H1230 0.950 . S
C1242 C1241 1.398 . S
C1242 C1243 1.391 . S
C1243 H1231 0.950 . S
C1243 C1239 1.393 . S
C1243 C1242 1.391 . S
H1244 C1252 0.950 . S
H1245 C1257 0.950 . S
H1246 C1254 0.950 . S
H1247 C1256 0.950 . S
H1248 C1258 0.950 . S
H1249 C1260 0.950 . S
H1250 C1262 0.950 . S
H1251 C1263 0.950 . S
C1252 H1244 0.950 . S
C1252 C1253 1.386 . S
C1252 C1254 1.391 . S
C1253 C1252 1.386 . S
C1253 C1257 1.393 . S
C1254 H1246 0.950 . S
C1254 C1252 1.391 . S
C1254 C1255 1.400 . S
C1255 C1254 1.400 . S
C1255 C1256 1.398 . S
C1255 C1261 1.491 . S
C1256 H1247 0.950 . S
C1256 C1255 1.398 . S
C1256 C1257 1.391 . S
C1257 H1245 0.950 . S
C1257 C1253 1.393 . S
C1257 C1256 1.391 . S
C1258 H1248 0.950 . S
C1258 C1259 1.386 . S
C1258 C1260 1.391 . S
C1259 C1258 1.386 . S
C1259 C1263 1.393 . S
C1260 H1249 0.950 . S
C1260 C1258 1.391 . S
C1260 C1261 1.400 . S
C1261 C1255 1.491 . S
C1261 C1260 1.400 . S
C1261 C1262 1.398 . S
C1262 H1250 0.950 . S
C1262 C1261 1.398 . S
C1262 C1263 1.391 . S
C1263 H1251 0.950 . S
C1263 C1259 1.393 . S
C1263 C1262 1.391 . S
H1264 C1272 0.950 . S
H1265 C1277 0.950 . S
H1266 C1274 0.950 . S
H1267 C1276 0.950 . S
H1268 C1278 0.950 . S
H1269 C1280 0.950 . S
H1270 C1282 0.950 . S
H1271 C1283 0.950 . S
C1272 H1264 0.950 . S
C1272 C1273 1.386 . S
C1272 C1274 1.391 1_554 S
C1273 C1272 1.386 . S
C1273 C1277 1.393 . S
C1274 H1266 0.950 . S
C1274 C1272 1.391 1_556 S
C1274 C1275 1.400 1_556 S
C1275 C1274 1.400 1_554 S
C1275 C1276 1.398 . S
C1275 C1281 1.491 . S
C1276 H1267 0.950 . S
C1276 C1275 1.398 . S
C1276 C1277 1.391 . S
C1277 H1265 0.950 . S
C1277 C1273 1.393 . S
C1277 C1276 1.391 . S
C1278 H1268 0.950 . S
C1278 C1279 1.386 1_554 S
C1278 C1280 1.391 . S
C1279 C1278 1.386 1_556 S
C1279 C1283 1.393 . S
C1280 H1269 0.950 . S
C1280 C1278 1.391 . S
C1280 C1281 1.400 . S
C1281 C1275 1.491 . S
C1281 C1280 1.400 . S
C1281 C1282 1.398 1_554 S
C1282 H1270 0.950 . S
C1282 C1281 1.398 1_556 S
C1282 C1283 1.391 . S
C1283 H1271 0.950 . S
C1283 C1279 1.393 . S
C1283 C1282 1.391 . S
H1284 C1292 0.950 . S
H1285 C1297 0.950 . S
H1286 C1294 0.950 . S
H1287 C1296 0.950 . S
H1288 C1298 0.950 . S
H1289 C1300 0.950 . S
H1290 C1302 0.950 . S
H1291 C1303 0.950 . S
C1292 H1284 0.950 . S
C1292 C1293 1.386 . S
C1292 C1294 1.391 . S
C1293 C1292 1.386 . S
C1293 C1297 1.393 . S
C1294 H1286 0.950 . S
C1294 C1292 1.391 . S
C1294 C1295 1.400 . S
C1295 C1294 1.400 . S
C1295 C1296 1.398 . S
C1295 C1301 1.491 . S
C1296 H1287 0.950 . S
C1296 C1295 1.398 . S
C1296 C1297 1.391 . S
C1297 H1285 0.950 . S
C1297 C1293 1.393 . S
C1297 C1296 1.391 . S
C1298 H1288 0.950 . S
C1298 C1299 1.386 . S
C1298 C1300 1.391 . S
C1299 C1298 1.386 . S
C1299 C1303 1.393 . S
C1300 H1289 0.950 . S
C1300 C1298 1.391 . S
C1300 C1301 1.400 . S
C1301 C1295 1.491 . S
C1301 C1300 1.400 . S
C1301 C1302 1.398 . S
C1302 H1290 0.950 . S
C1302 C1301 1.398 . S
C1302 C1303 1.391 . S
C1303 H1291 0.950 . S
C1303 C1299 1.393 . S
C1303 C1302 1.391 . S
H1304 C1312 0.950 . S
H1305 C1317 0.950 . S
H1306 C1314 0.950 . S
H1307 C1316 0.950 . S
H1308 C1318 0.950 . S
H1309 C1320 0.950 . S
H1310 C1322 0.950 . S
H1311 C1323 0.950 . S
C1312 H1304 0.950 . S
C1312 C1313 1.386 . S
C1312 C1314 1.391 . S
C1313 C1312 1.386 . S
C1313 C1317 1.393 . S
C1314 H1306 0.950 . S
C1314 C1312 1.391 . S
C1314 C1315 1.400 . S
C1315 C1314 1.400 . S
C1315 C1316 1.398 . S
C1315 C1321 1.491 . S
C1316 H1307 0.950 . S
C1316 C1315 1.398 . S
C1316 C1317 1.391 . S
C1317 H1305 0.950 . S
C1317 C1313 1.393 . S
C1317 C1316 1.391 . S
C1318 H1308 0.950 . S
C1318 C1319 1.386 . S
C1318 C1320 1.391 . S
C1319 C1318 1.386 . S
C1319 C1323 1.393 . S
C1320 H1309 0.950 . S
C1320 C1318 1.391 . S
C1320 C1321 1.400 . S
C1321 C1315 1.491 . S
C1321 C1320 1.400 . S
C1321 C1322 1.398 . S
C1322 H1310 0.950 . S
C1322 C1321 1.398 . S
C1322 C1323 1.391 . S
C1323 H1311 0.950 . S
C1323 C1319 1.393 . S
C1323 C1322 1.391 . S
H1324 C1332 0.950 . S
H1325 C1337 0.950 . S
H1326 C1334 0.950 . S
H1327 C1336 0.950 . S
H1328 C1338 0.950 . S
H1329 C1340 0.950 . S
H1330 C1342 0.950 . S
H1331 C1343 0.950 . S
C1332 H1324 0.950 . S
C1332 C1333 1.386 . S
C1332 C1334 1.391 . S
C1333 C1332 1.386 . S
C1333 C1337 1.393 . S
C1334 H1326 0.950 . S
C1334 C1332 1.391 . S
C1334 C1335 1.400 . S
C1335 C1334 1.400 . S
C1335 C1336 1.398 . S
C1335 C1341 1.491 . S
C1336 H1327 0.950 . S
C1336 C1335 1.398 . S
C1336 C1337 1.391 . S
C1337 H1325 0.950 . S
C1337 C1333 1.393 . S
C1337 C1336 1.391 . S
C1338 H1328 0.950 . S
C1338 C1339 1.386 . S
C1338 C1340 1.391 . S
C1339 C1338 1.386 . S
C1339 C1343 1.393 . S
C1340 H1329 0.950 . S
C1340 C1338 1.391 . S
C1340 C1341 1.400 . S
C1341 C1335 1.491 . S
C1341 C1340 1.400 . S
C1341 C1342 1.398 . S
C1342 H1330 0.950 . S
C1342 C1341 1.398 . S
C1342 C1343 1.391 . S
C1343 H1331 0.950 . S
C1343 C1339 1.393 . S
C1343 C1342 1.391 . S
H1344 C1352 0.950 . S
H1345 C1357 0.950 . S
H1346 C1354 0.950 . S
H1347 C1356 0.950 . S
H1348 C1358 0.950 . S
H1349 C1360 0.950 . S
H1350 C1362 0.950 . S
H1351 C1363 0.950 . S
C1352 H1344 0.950 . S
C1352 C1353 1.386 . S
C1352 C1354 1.391 1_565 S
C1353 C1352 1.386 . S
C1353 C1357 1.393 . S
C1354 H1346 0.950 . S
C1354 C1352 1.391 1_545 S
C1354 C1355 1.400 . S
C1355 C1354 1.400 . S
C1355 C1356 1.398 . S
C1355 C1361 1.491 . S
C1356 H1347 0.950 . S
C1356 C1355 1.398 . S
C1356 C1357 1.391 1_545 S
C1357 H1345 0.950 . S
C1357 C1353 1.393 . S
C1357 C1356 1.391 1_565 S
C1358 H1348 0.950 . S
C1358 C1359 1.386 . S
C1358 C1360 1.391 . S
C1359 C1358 1.386 . S
C1359 C1363 1.393 . S
C1360 H1349 0.950 . S
C1360 C1358 1.391 . S
C1360 C1361 1.400 . S
C1361 C1355 1.491 . S
C1361 C1360 1.400 . S
C1361 C1362 1.398 . S
C1362 H1350 0.950 . S
C1362 C1361 1.398 . S
C1362 C1363 1.391 . S
C1363 H1351 0.950 . S
C1363 C1359 1.393 . S
C1363 C1362 1.391 . S
H1364 C1372 0.950 . S
H1365 C1377 0.950 . S
H1366 C1374 0.950 . S
H1367 C1376 0.950 . S
H1368 C1378 0.950 . S
H1369 C1380 0.950 . S
H1370 C1382 0.950 . S
H1371 C1383 0.950 . S
C1372 H1364 0.950 . S
C1372 C1373 1.386 . S
C1372 C1374 1.391 . S
C1373 C1372 1.386 . S
C1373 C1377 1.393 . S
C1374 H1366 0.950 . S
C1374 C1372 1.391 . S
C1374 C1375 1.400 . S
C1375 C1374 1.400 . S
C1375 C1376 1.398 . S
C1375 C1381 1.491 . S
C1376 H1367 0.950 . S
C1376 C1375 1.398 . S
C1376 C1377 1.391 . S
C1377 H1365 0.950 . S
C1377 C1373 1.393 . S
C1377 C1376 1.391 . S
C1378 H1368 0.950 . S
C1378 C1379 1.386 . S
C1378 C1380 1.391 . S
C1379 C1378 1.386 . S
C1379 C1383 1.393 . S
C1380 H1369 0.950 . S
C1380 C1378 1.391 . S
C1380 C1381 1.400 . S
C1381 C1375 1.491 . S
C1381 C1380 1.400 . S
C1381 C1382 1.398 . S
C1382 H1370 0.950 . S
C1382 C1381 1.398 . S
C1382 C1383 1.391 . S
C1383 H1371 0.950 . S
C1383 C1379 1.393 . S
C1383 C1382 1.391 . S
H1384 C1392 0.950 1_565 S
H1385 C1397 0.950 . S
H1386 C1394 0.950 . S
H1387 C1396 0.950 . S
H1388 C1398 0.950 . S
H1389 C1400 0.950 . S
H1390 C1402 0.950 . S
H1391 C1403 0.950 . S
C1392 H1384 0.950 1_545 S
C1392 C1393 1.386 1_545 S
C1392 C1394 1.391 . S
C1393 C1392 1.386 1_565 S
C1393 C1397 1.393 . S
C1394 H1386 0.950 . S
C1394 C1392 1.391 . S
C1394 C1395 1.400 . S
C1395 C1394 1.400 . S
C1395 C1396 1.398 1_554 S
C1395 C1401 1.491 1_554 S
C1396 H1387 0.950 . S
C1396 C1395 1.398 1_556 S
C1396 C1397 1.391 1_546 S
C1397 H1385 0.950 . S
C1397 C1393 1.393 . S
C1397 C1396 1.391 1_564 S
C1398 H1388 0.950 . S
C1398 C1399 1.386 . S
C1398 C1400 1.391 . S
C1399 C1398 1.386 . S
C1399 C1403 1.393 1_556 S
C1400 H1389 0.950 . S
C1400 C1398 1.391 . S
C1400 C1401 1.400 . S
C1401 C1395 1.491 1_556 S
C1401 C1400 1.400 . S
C1401 C1402 1.398 1_556 S
C1402 H1390 0.950 . S
C1402 C1401 1.398 1_554 S
C1402 C1403 1.391 . S
C1403 H1391 0.950 . S
C1403 C1399 1.393 1_554 S
C1403 C1402 1.391 . S
H1404 C1412 0.950 . S
H1405 C1417 0.950 . S
H1406 C1414 0.950 . S
H1407 C1416 0.950 . S
H1408 C1418 0.950 . S
H1409 C1420 0.950 . S
H1410 C1422 0.950 . S
H1411 C1423 0.950 . S
C1412 H1404 0.950 . S
C1412 C1413 1.386 . S
C1412 C1414 1.391 . S
C1413 C1412 1.386 . S
C1413 C1417 1.393 . S
C1414 H1406 0.950 . S
C1414 C1412 1.391 . S
C1414 C1415 1.400 . S
C1415 C1414 1.400 . S
C1415 C1416 1.398 . S
C1415 C1421 1.491 . S
C1416 H1407 0.950 . S
C1416 C1415 1.398 . S
C1416 C1417 1.391 . S
C1417 H1405 0.950 . S
C1417 C1413 1.393 . S
C1417 C1416 1.391 . S
C1418 H1408 0.950 . S
C1418 C1419 1.386 . S
C1418 C1420 1.391 . S
C1419 C1418 1.386 . S
C1419 C1423 1.393 . S
C1420 H1409 0.950 . S
C1420 C1418 1.391 . S
C1420 C1421 1.400 . S
C1421 C1415 1.491 . S
C1421 C1420 1.400 . S
C1421 C1422 1.398 . S
C1422 H1410 0.950 . S
C1422 C1421 1.398 . S
C1422 C1423 1.391 . S
C1423 H1411 0.950 . S
C1423 C1419 1.393 . S
C1423 C1422 1.391 . S
H1424 C1432 0.950 1_565 S
H1425 C1437 0.950 . S
H1426 C1434 0.950 . S
H1427 C1436 0.950 . S
H1428 C1438 0.950 . S
H1429 C1440 0.950 . S
H1430 C1442 0.950 . S
H1431 C1443 0.950 . S
C1432 H1424 0.950 1_545 S
C1432 C1433 1.386 1_545 S
C1432 C1434 1.391 . S
C1433 C1432 1.386 1_565 S
C1433 C1437 1.393 . S
C1434 H1426 0.950 . S
C1434 C1432 1.391 . S
C1434 C1435 1.400 . S
C1435 C1434 1.400 . S
C1435 C1436 1.398 . S
C1435 C1441 1.491 . S
C1436 H1427 0.950 . S
C1436 C1435 1.398 . S
C1436 C1437 1.391 1_545 S
C1437 H1425 0.950 . S
C1437 C1433 1.393 . S
C1437 C1436 1.391 1_565 S
C1438 H1428 0.950 . S
C1438 C1439 1.386 . S
C1438 C1440 1.391 . S
C1439 C1438 1.386 . S
C1439 C1443 1.393 . S
C1440 H1429 0.950 . S
C1440 C1438 1.391 . S
C1440 C1441 1.400 . S
C1441 C1435 1.491 . S
C1441 C1440 1.400 . S
C1441 C1442 1.398 . S
C1442 H1430 0.950 . S
C1442 C1441 1.398 . S
C1442 C1443 1.391 . S
C1443 H1431 0.950 . S
C1443 C1439 1.393 . S
C1443 C1442 1.391 . S
H1444 C1452 0.950 . S
H1445 C1457 0.950 . S
H1446 C1454 0.950 . S
H1447 C1456 0.950 . S
H1448 C1458 0.950 . S
H1449 C1460 0.950 . S
H1450 C1462 0.950 . S
H1451 C1463 0.950 . S
C1452 H1444 0.950 . S
C1452 C1453 1.386 . S
C1452 C1454 1.391 . S
C1453 C1452 1.386 . S
C1453 C1457 1.393 . S
C1454 H1446 0.950 . S
C1454 C1452 1.391 . S
C1454 C1455 1.400 . S
C1455 C1454 1.400 . S
C1455 C1456 1.398 . S
C1455 C1461 1.491 . S
C1456 H1447 0.950 . S
C1456 C1455 1.398 . S
C1456 C1457 1.391 . S
C1457 H1445 0.950 . S
C1457 C1453 1.393 . S
C1457 C1456 1.391 . S
C1458 H1448 0.950 . S
C1458 C1459 1.386 . S
C1458 C1460 1.391 . S
C1459 C1458 1.386 . S
C1459 C1463 1.393 . S
C1460 H1449 0.950 . S
C1460 C1458 1.391 . S
C1460 C1461 1.400 . S
C1461 C1455 1.491 . S
C1461 C1460 1.400 . S
C1461 C1462 1.398 . S
C1462 H1450 0.950 . S
C1462 C1461 1.398 . S
C1462 C1463 1.391 . S
C1463 H1451 0.950 . S
C1463 C1459 1.393 . S
C1463 C1462 1.391 . S
H1464 C1472 0.950 . S
H1465 C1477 0.950 . S
H1466 C1474 0.950 . S
H1467 C1476 0.950 . S
H1468 C1478 0.950 . S
H1469 C1480 0.950 . S
H1470 C1482 0.950 . S
H1471 C1483 0.950 1_556 S
C1472 H1464 0.950 . S
C1472 C1473 1.386 . S
C1472 C1474 1.391 . S
C1473 C1472 1.386 . S
C1473 C1477 1.393 1_556 S
C1474 H1466 0.950 . S
C1474 C1472 1.391 . S
C1474 C1475 1.400 1_556 S
C1475 C1474 1.400 1_554 S
C1475 C1476 1.398 . S
C1475 C1481 1.491 . S
C1476 H1467 0.950 . S
C1476 C1475 1.398 . S
C1476 C1477 1.391 . S
C1477 H1465 0.950 . S
C1477 C1473 1.393 1_554 S
C1477 C1476 1.391 . S
C1478 H1468 0.950 . S
C1478 C1479 1.386 . S
C1478 C1480 1.391 . S
C1479 C1478 1.386 . S
C1479 C1483 1.393 . S
C1480 H1469 0.950 . S
C1480 C1478 1.391 . S
C1480 C1481 1.400 . S
C1481 C1475 1.491 . S
C1481 C1480 1.400 . S
C1481 C1482 1.398 1_554 S
C1482 H1470 0.950 . S
C1482 C1481 1.398 1_556 S
C1482 C1483 1.391 1_556 S
C1483 H1471 0.950 1_554 S
C1483 C1479 1.393 . S
C1483 C1482 1.391 1_554 S
H1484 C1492 0.950 . S
H1485 C1497 0.950 . S
H1486 C1494 0.950 . S
H1487 C1496 0.950 . S
H1488 C1498 0.950 . S
H1489 C1500 0.950 . S
H1490 C1502 0.950 . S
H1491 C1503 0.950 . S
C1492 H1484 0.950 . S
C1492 C1493 1.386 . S
C1492 C1494 1.391 . S
C1493 C1492 1.386 . S
C1493 C1497 1.393 . S
C1494 H1486 0.950 . S
C1494 C1492 1.391 . S
C1494 C1495 1.400 . S
C1495 C1494 1.400 . S
C1495 C1496 1.398 . S
C1495 C1501 1.491 . S
C1496 H1487 0.950 . S
C1496 C1495 1.398 . S
C1496 C1497 1.391 . S
C1497 H1485 0.950 . S
C1497 C1493 1.393 . S
C1497 C1496 1.391 . S
C1498 H1488 0.950 . S
C1498 C1499 1.386 . S
C1498 C1500 1.391 . S
C1499 C1498 1.386 . S
C1499 C1503 1.393 . S
C1500 H1489 0.950 . S
C1500 C1498 1.391 . S
C1500 C1501 1.400 . S
C1501 C1495 1.491 . S
C1501 C1500 1.400 . S
C1501 C1502 1.398 . S
C1502 H1490 0.950 . S
C1502 C1501 1.398 . S
C1502 C1503 1.391 . S
C1503 H1491 0.950 . S
C1503 C1499 1.393 . S
C1503 C1502 1.391 . S
C553 C29 1.311 . S
C559 C0 1.311 . S
C573 C63 1.309 . S
C579 C34 1.309 . S
C593 C68 1.310 . S
C599 C97 1.310 . S
C613 C102 1.310 . S
C619 C131 1.310 . S
C633 C136 1.312 . S
C639 C165 1.312 . S
C653 C199 1.309 . S
C659 C170 1.309 . S
C673 C233 1.310 . S
C679 C204 1.310 . S
C693 C267 1.311 . S
C699 C238 1.311 . S
C713 C301 1.310 . S
C719 C272 1.310 . S
C733 C335 1.311 . S
C739 C306 1.311 . S
C753 C369 1.310 . S
C759 C340 1.310 . S
C773 C403 1.309 . S
C779 C374 1.309 . S
C793 C437 1.310 . S
C799 C408 1.310 . S
C813 C442 1.312 . S
C819 C471 1.312 . S
C833 C476 1.311 . S
C839 C505 1.311 . S
C853 C510 1.309 . S
C859 C539 1.309 . S
C873 C4 1.153 . S
C879 C387 1.153 . S
C893 C38 1.432 . S
C899 C523 1.433 . S
C913 C85 2.285 . S
C919 C314 2.290 . S
C933 C119 0.974 . S
C939 C455 0.955 . S
C953 C153 1.521 . S
C959 C450 1.506 . S
C973 C382 2.227 . S
C979 C187 2.215 . S
C993 C208 2.214 . S
C999 C518 2.219 . S
C1013 C242 0.992 . S
C1019 C319 1.003 . S
C1033 C106 1.161 . S
C1039 C280 1.161 . S
C1053 C51 1.491 . S
C1059 C353 1.465 . S
C1073 C416 1.540 . S
C1079 C174 1.528 . S
C1093 C255 1.312 . S
C1099 C489 1.310 . S
C1113 C285 0.969 . S
C1119 C140 0.981 . S
C1133 C221 3.069 . S
C1139 C348 3.063 . S
C1153 C72 1.042 . S
C1159 C484 1.061 . S
C1173 C17 2.374 . S
C1179 C421 2.362 . S
C1193 C13 1.276 . S
C1199 C144 1.287 . S
C1213 C47 1.846 . S
C1219 C178 1.846 . S
C1233 C76 2.314 . S
C1239 C217 2.313 . S
C1253 C110 1.154 . S
C1259 C251 1.148 . S
C1273 C425 1.895 . S
C1279 C289 1.887 . S
C1293 C446 1.174 . S
C1299 C310 1.175 . S
C1313 C344 1.084 . S
C1319 C480 1.089 . S
C1333 C514 1.793 . S
C1339 C391 1.792 . S
C1353 C42 1.761 . S
C1359 C246 1.764 . S
C1373 C149 1.082 . S
C1379 C81 1.083 . S
C1393 C183 1.072 . S
C1399 C115 1.072 . S
C1413 C8 3.035 . S
C1419 C212 3.041 . S
C1433 C527 2.193 . S
C1439 C323 2.196 . S
C1453 C412 2.355 . S
C1459 C357 2.356 . S
C1473 C459 1.689 . S
C1479 C378 1.687 . S
C1493 C493 1.294 . S
C1499 C276 1.283 . S
