# Generated by pormake.
# Topology wmi, (6)-cn, num edge types: 1
# Building blocks:
#     Node 0, Type 0, BuildingBlock: BETDAH_clean_sbu_0, # of connection points: 6
#     Node 1, Type 0, BuildingBlock: BETDAH_clean_sbu_0, # of connection points: 6
#     Node 2, Type 0, BuildingBlock: BETDAH_clean_sbu_0, # of connection points: 6
#     Node 3, Type 0, BuildingBlock: BETDAH_clean_sbu_0, # of connection points: 6
#     Node 4, Type 0, BuildingBlock: BETDAH_clean_sbu_0, # of connection points: 6
#     Node 5, Type 0, BuildingBlock: BETDAH_clean_sbu_0, # of connection points: 6
#     Node 6, Type 0, BuildingBlock: BETDAH_clean_sbu_0, # of connection points: 6
#     Node 7, Type 0, BuildingBlock: BETDAH_clean_sbu_0, # of connection points: 6
#     Node 8, Type 0, BuildingBlock: BETDAH_clean_sbu_0, # of connection points: 6
#     Node 9, Type 0, BuildingBlock: BETDAH_clean_sbu_0, # of connection points: 6
#     Node 10, Type 0, BuildingBlock: BETDAH_clean_sbu_0, # of connection points: 6
#     Node 11, Type 0, BuildingBlock: BETDAH_clean_sbu_0, # of connection points: 6
#     Node 12, Type 0, BuildingBlock: BETDAH_clean_sbu_0, # of connection points: 6
#     Node 13, Type 0, BuildingBlock: BETDAH_clean_sbu_0, # of connection points: 6
#     Node 14, Type 0, BuildingBlock: BETDAH_clean_sbu_0, # of connection points: 6
#     Node 15, Type 0, BuildingBlock: BETDAH_clean_sbu_0, # of connection points: 6
#     Node 16, Type 0, BuildingBlock: BETDAH_clean_sbu_0, # of connection points: 6
#     Node 17, Type 0, BuildingBlock: BETDAH_clean_sbu_0, # of connection points: 6
#     Edge 18, Type (0, 0), BuildingBlock: ZUJKAS_clean_linker_0, # of connection points: 2
#     Edge 19, Type (0, 0), BuildingBlock: ZUJKAS_clean_linker_0, # of connection points: 2
#     Edge 20, Type (0, 0), BuildingBlock: ZUJKAS_clean_linker_0, # of connection points: 2
#     Edge 21, Type (0, 0), BuildingBlock: ZUJKAS_clean_linker_0, # of connection points: 2
#     Edge 22, Type (0, 0), BuildingBlock: ZUJKAS_clean_linker_0, # of connection points: 2
#     Edge 23, Type (0, 0), BuildingBlock: ZUJKAS_clean_linker_0, # of connection points: 2
#     Edge 24, Type (0, 0), BuildingBlock: ZUJKAS_clean_linker_0, # of connection points: 2
#     Edge 25, Type (0, 0), BuildingBlock: ZUJKAS_clean_linker_0, # of connection points: 2
#     Edge 26, Type (0, 0), BuildingBlock: ZUJKAS_clean_linker_0, # of connection points: 2
#     Edge 27, Type (0, 0), BuildingBlock: ZUJKAS_clean_linker_0, # of connection points: 2
#     Edge 28, Type (0, 0), BuildingBlock: ZUJKAS_clean_linker_0, # of connection points: 2
#     Edge 29, Type (0, 0), BuildingBlock: ZUJKAS_clean_linker_0, # of connection points: 2
#     Edge 30, Type (0, 0), BuildingBlock: ZUJKAS_clean_linker_0, # of connection points: 2
#     Edge 31, Type (0, 0), BuildingBlock: ZUJKAS_clean_linker_0, # of connection points: 2
#     Edge 32, Type (0, 0), BuildingBlock: ZUJKAS_clean_linker_0, # of connection points: 2
#     Edge 33, Type (0, 0), BuildingBlock: ZUJKAS_clean_linker_0, # of connection points: 2
#     Edge 34, Type (0, 0), BuildingBlock: ZUJKAS_clean_linker_0, # of connection points: 2
#     Edge 35, Type (0, 0), BuildingBlock: ZUJKAS_clean_linker_0, # of connection points: 2
#     Edge 36, Type (0, 0), BuildingBlock: ZUJKAS_clean_linker_0, # of connection points: 2
#     Edge 37, Type (0, 0), BuildingBlock: ZUJKAS_clean_linker_0, # of connection points: 2
#     Edge 38, Type (0, 0), BuildingBlock: ZUJKAS_clean_linker_0, # of connection points: 2
#     Edge 39, Type (0, 0), BuildingBlock: ZUJKAS_clean_linker_0, # of connection points: 2
#     Edge 40, Type (0, 0), BuildingBlock: ZUJKAS_clean_linker_0, # of connection points: 2
#     Edge 41, Type (0, 0), BuildingBlock: ZUJKAS_clean_linker_0, # of connection points: 2
#     Edge 42, Type (0, 0), BuildingBlock: ZUJKAS_clean_linker_0, # of connection points: 2
#     Edge 43, Type (0, 0), BuildingBlock: ZUJKAS_clean_linker_0, # of connection points: 2
#     Edge 44, Type (0, 0), BuildingBlock: ZUJKAS_clean_linker_0, # of connection points: 2
#     Edge 45, Type (0, 0), BuildingBlock: ZUJKAS_clean_linker_0, # of connection points: 2
#     Edge 46, Type (0, 0), BuildingBlock: ZUJKAS_clean_linker_0, # of connection points: 2
#     Edge 47, Type (0, 0), BuildingBlock: ZUJKAS_clean_linker_0, # of connection points: 2
#     Edge 48, Type (0, 0), BuildingBlock: ZUJKAS_clean_linker_0, # of connection points: 2
#     Edge 49, Type (0, 0), BuildingBlock: ZUJKAS_clean_linker_0, # of connection points: 2
#     Edge 50, Type (0, 0), BuildingBlock: ZUJKAS_clean_linker_0, # of connection points: 2
#     Edge 51, Type (0, 0), BuildingBlock: ZUJKAS_clean_linker_0, # of connection points: 2
#     Edge 52, Type (0, 0), BuildingBlock: ZUJKAS_clean_linker_0, # of connection points: 2
#     Edge 53, Type (0, 0), BuildingBlock: ZUJKAS_clean_linker_0, # of connection points: 2
#     Edge 54, Type (0, 0), BuildingBlock: ZUJKAS_clean_linker_0, # of connection points: 2
#     Edge 55, Type (0, 0), BuildingBlock: ZUJKAS_clean_linker_0, # of connection points: 2
#     Edge 56, Type (0, 0), BuildingBlock: ZUJKAS_clean_linker_0, # of connection points: 2
#     Edge 57, Type (0, 0), BuildingBlock: ZUJKAS_clean_linker_0, # of connection points: 2
#     Edge 58, Type (0, 0), BuildingBlock: ZUJKAS_clean_linker_0, # of connection points: 2
#     Edge 59, Type (0, 0), BuildingBlock: ZUJKAS_clean_linker_0, # of connection points: 2
#     Edge 60, Type (0, 0), BuildingBlock: ZUJKAS_clean_linker_0, # of connection points: 2
#     Edge 61, Type (0, 0), BuildingBlock: ZUJKAS_clean_linker_0, # of connection points: 2
#     Edge 62, Type (0, 0), BuildingBlock: ZUJKAS_clean_linker_0, # of connection points: 2
#     Edge 63, Type (0, 0), BuildingBlock: ZUJKAS_clean_linker_0, # of connection points: 2
#     Edge 64, Type (0, 0), BuildingBlock: ZUJKAS_clean_linker_0, # of connection points: 2
#     Edge 65, Type (0, 0), BuildingBlock: ZUJKAS_clean_linker_0, # of connection points: 2
#     Edge 66, Type (0, 0), BuildingBlock: ZUJKAS_clean_linker_0, # of connection points: 2
#     Edge 67, Type (0, 0), BuildingBlock: ZUJKAS_clean_linker_0, # of connection points: 2
#     Edge 68, Type (0, 0), BuildingBlock: ZUJKAS_clean_linker_0, # of connection points: 2
#     Edge 69, Type (0, 0), BuildingBlock: ZUJKAS_clean_linker_0, # of connection points: 2
#     Edge 70, Type (0, 0), BuildingBlock: ZUJKAS_clean_linker_0, # of connection points: 2
#     Edge 71, Type (0, 0), BuildingBlock: ZUJKAS_clean_linker_0, # of connection points: 2
# Relax obj value: 0.095
# Max RMSD: 0.205
# Mean RMSD: 0.205
data_MOF--net-wmi--node1-BETDAH_clean_sbu_0--edge1-ZUJKAS_clean_linker_0
_symmetry_space_group_name_H-M    P1
_symmetry_Int_Tables_number       1
_symmetry_cell_setting            triclinic
loop_
_symmetry_equiv_pos_as_xyz
'x, y, z'
_cell_length_a     49.245778
_cell_length_b     49.229148
_cell_length_c     102.57546
_cell_angle_alpha  90.00853
_cell_angle_beta   90.027075
_cell_angle_gamma 120.00849
loop_
_atom_site_label
_atom_site_type_symbol
_atom_site_fract_x
_atom_site_fract_y
_atom_site_fract_z
_atom_type_partial_charge
Ho0 Ho 0.52946 0.05128 0.1166 0.0
Ho1 Ho 0.45614 1.01181 0.10992 0.0
C2 C 0.49153 0.08711 0.10869 0.0
C3 C 0.58925 0.08797 0.11944 0.0
C4 C 0.6182 0.1179 0.11663 0.0
C5 C 0.62852 0.12831 0.10386 0.0
C6 C 0.65845 0.15428 0.10168 0.0
C7 C 0.67864 0.16999 0.11222 0.0
C8 C 0.66765 0.16015 0.12496 0.0
C9 C 0.63782 0.13445 0.12713 0.0
C10 C 0.488 0.0266 0.1367 0.0
C11 C 0.49865 0.97779 0.11206 0.0
C12 C 0.39695 0.97452 0.11374 0.0
C13 C 0.37457 0.94133 0.11099 0.0
C14 C 0.38501 0.92147 0.10613 0.0
C15 C 0.36439 0.88909 0.10529 0.0
C16 C 0.33301 0.87603 0.10934 0.0
C17 C 0.32247 0.89627 0.11375 0.0
C18 C 0.3431 0.92861 0.11459 0.0
C19 C 0.49075 0.02442 0.08785 0.0
O20 O 0.5187 0.08751 0.10873 0.0
O21 O 0.46415 0.06112 0.11069 0.0
O22 O 0.5684 0.0885 0.1272 0.0
O23 O 0.5768 0.06695 0.11015 0.0
O24 O 0.51502 0.02805 0.13655 0.0
O25 O 0.48502 0.03882 0.12646 0.0
O26 O 0.47039 0.97486 0.11304 0.0
O27 O 0.52476 1.00525 0.11173 0.0
O28 O 0.40793 0.99362 0.10373 0.0
O29 O 0.4187 0.97906 0.12221 0.0
O30 O 0.4603 1.00983 0.08798 0.0
O31 O 0.50028 0.03145 0.09941 0.0
H32 H 0.61392 0.11585 0.09558 0.0
H33 H 0.66626 0.16127 0.09174 0.0
H34 H 0.68237 0.17205 0.13329 0.0
H35 H 0.63049 0.12678 0.13706 0.0
H36 H 0.40935 0.93087 0.10342 0.0
H37 H 0.37337 0.8742 0.10197 0.0
H38 H 0.29834 0.88705 0.11673 0.0
H39 H 0.33469 0.94357 0.11842 0.0
Ho40 Ho 0.02396 0.50604 0.11901 0.0
Ho41 Ho 0.06614 0.47504 0.11337 0.0
C42 C 0.99149 0.43368 0.10952 0.0
C43 C 0.98502 0.52677 0.1207 0.0
C44 C 0.95502 0.52436 0.11654 0.0
C45 C 0.95462 0.5438 0.10658 0.0
C46 C 0.92797 0.54651 0.10445 0.0
C47 C 0.90122 0.53009 0.11234 0.0
C48 C 0.9011 0.50946 0.12185 0.0
C49 C 0.92768 0.50669 0.12395 0.0
C50 C 0.0456 0.48779 0.13973 0.0
C51 C 0.09793 0.55107 0.11712 0.0
C52 C 0.10378 0.45407 0.11798 0.0
C53 C 0.1372 0.4663 0.1153 0.0
C54 C 0.15219 0.45063 0.12018 0.0
C55 C 0.18468 0.46395 0.11892 0.0
C56 C 0.20273 0.4933 0.11283 0.0
C57 C 0.1874 0.50859 0.10772 0.0
C58 C 0.15491 0.49519 0.10894 0.0
C59 C 0.05805 0.49967 0.09107 0.0
O60 O 0.99033 0.46002 0.10966 0.0
O61 O 1.01743 0.4328 0.11229 0.0
O62 O 0.9839 0.50474 0.12824 0.0
O63 O 1.00847 0.53788 0.11244 0.0
O64 O 0.04327 0.51288 0.13969 0.0
O65 O 0.03567 0.47377 0.12907 0.0
O66 O 0.10153 0.52608 0.11768 0.0
O67 O 0.0702 0.54899 0.11625 0.0
O68 O 0.08496 0.44524 0.10785 0.0
O69 O 0.09825 0.47089 0.12631 0.0
O70 O 0.07443 0.48569 0.09186 0.0
O71 O 0.04735 0.49972 0.10223 0.0
H72 H 0.97543 0.55814 0.10083 0.0
H73 H 0.92895 0.56276 0.0971 0.0
H74 H 0.88071 0.49609 0.12796 0.0
H75 H 0.92722 0.49176 0.13181 0.0
H76 H 0.1389 0.42851 0.12526 0.0
H77 H 0.19578 0.45174 0.1231 0.0
H78 H 0.20053 0.53101 0.10284 0.0
H79 H 0.14368 0.5077 0.10519 0.0
Ho80 Ho 0.56603 0.54767 0.11914 0.0
Ho81 Ho 0.60167 0.62142 0.11421 0.0
C82 C 0.63992 0.58451 0.11141 0.0
C83 C 0.54118 0.4874 0.12089 0.0
C84 C 0.54249 0.45856 0.11821 0.0
C85 C 0.54612 0.44974 0.10557 0.0
C86 C 0.54285 0.42008 0.10335 0.0
C87 C 0.53555 0.39868 0.11369 0.0
C88 C 0.53304 0.40813 0.12634 0.0
C89 C 0.53647 0.43767 0.12856 0.0
C90 C 0.5832 0.58674 0.14012 0.0
C91 C 0.52502 0.58062 0.11589 0.0
C92 C 0.62499 0.68 0.11977 0.0
C93 C 0.61474 0.70302 0.11765 0.0
C94 C 0.62457 0.72822 0.12632 0.0
C95 C 0.61192 0.74803 0.12556 0.0
C96 C 0.58918 0.74299 0.11609 0.0
C97 C 0.5799 0.71809 0.10721 0.0
C98 C 0.59242 0.69812 0.10804 0.0
C99 C 0.57806 0.59072 0.0914 0.0
O100 O 0.61283 0.55768 0.11147 0.0
O101 O 0.64213 0.61214 0.11373 0.0
O102 O 0.56052 0.50699 0.12959 0.0
O103 O 0.53553 0.50135 0.11124 0.0
O104 O 0.55666 0.56072 0.1393 0.0
O105 O 0.59873 0.59025 0.12993 0.0
O106 O 0.55085 0.60832 0.11748 0.0
O107 O 0.52558 0.55419 0.11479 0.0
O108 O 0.63344 0.6702 0.10946 0.0
O109 O 0.60699 0.65723 0.12771 0.0
O110 O 0.5936 0.62106 0.09254 0.0
O111 O 0.57615 0.5789 0.10252 0.0
H112 H 0.55059 0.46534 0.09739 0.0
H113 H 0.54487 0.41347 0.09348 0.0
H114 H 0.52799 0.39248 0.13455 0.0
H115 H 0.53341 0.44384 0.13838 0.0
H116 H 0.64147 0.73208 0.1339 0.0
H117 H 0.6198 0.7672 0.13244 0.0
H118 H 0.56221 0.71343 0.0999 0.0
H119 H 0.58404 0.67836 0.10143 0.0
Ho120 Ho 0.05075 0.51661 0.93005 0.0
Ho121 Ho 1.00916 0.44331 0.93603 0.0
C122 C 0.08394 0.4776 0.93974 0.0
C123 C 0.08918 0.57637 0.92819 0.0
C124 C 0.11818 0.60435 0.93291 0.0
C125 C 0.11614 0.62512 0.94173 0.0
C126 C 0.1422 0.65464 0.94422 0.0
C127 C 0.17092 0.66423 0.93788 0.0
C128 C 0.17338 0.64284 0.92956 0.0
C129 C 0.1473 0.6133 0.92707 0.0
C130 C 0.02901 0.47621 0.90949 0.0
C131 C 0.97667 0.48683 0.93237 0.0
C132 C 0.9723 0.38452 0.9314 0.0
C133 C 0.93897 0.36193 0.93375 0.0
C134 C 0.92211 0.33906 0.9243 0.0
C135 C 0.88969 0.31961 0.92545 0.0
C136 C 0.8734 0.32255 0.93614 0.0
C137 C 0.89056 0.34522 0.94574 0.0
C138 C 0.92303 0.36486 0.94452 0.0
C139 C 1.01729 0.47678 0.95811 0.0
O140 O 0.08466 0.5049 0.93964 0.0
O141 O 0.05818 0.45056 0.93701 0.0
O142 O 0.09181 0.55536 0.92131 0.0
O143 O 0.06448 0.56404 0.9358 0.0
O144 O 0.03129 0.50361 0.90941 0.0
O145 O 0.03913 0.47246 0.92017 0.0
O146 O 0.97341 0.45838 0.93162 0.0
O147 O 1.00431 0.51264 0.93324 0.0
O148 O 0.99102 0.3948 0.94158 0.0
O149 O 0.97723 0.40678 0.92312 0.0
O150 O 1.00096 0.44637 0.95756 0.0
O151 O 0.02784 0.48706 0.9469 0.0
H152 H 0.094 0.61917 0.94628 0.0
H153 H 0.13958 0.67032 0.95084 0.0
H154 H 0.19501 0.6495 0.92441 0.0
H155 H 0.14963 0.59813 0.92006 0.0
H156 H 0.93393 0.33686 0.91579 0.0
H157 H 0.87731 0.30294 0.91772 0.0
H158 H 0.87891 0.34793 0.95417 0.0
H159 H 0.93556 0.38273 0.95183 0.0
Ho160 Ho 0.54509 0.55548 0.92948 0.0
Ho161 Ho 0.61805 0.58764 0.93627 0.0
C162 C 0.58361 0.6285 0.93833 0.0
C163 C 0.4854 0.53322 0.92667 0.0
C164 C 0.45659 0.53421 0.92979 0.0
C165 C 0.44715 0.53494 0.94266 0.0
C166 C 0.41741 0.53117 0.94516 0.0
C167 C 0.39653 0.52624 0.93484 0.0
C168 C 0.40664 0.52672 0.92199 0.0
C169 C 0.43629 0.53067 0.91951 0.0
C170 C 0.58673 0.57319 0.90939 0.0
C171 C 0.57484 0.51142 0.93301 0.0
C172 C 0.67715 0.6094 0.93242 0.0
C173 C 0.69923 0.59835 0.93533 0.0
C174 C 0.73008 0.61531 0.93073 0.0
C175 C 0.75027 0.60318 0.93203 0.0
C176 C 0.73988 0.57374 0.9379 0.0
C177 C 0.70903 0.55713 0.94275 0.0
C178 C 0.68888 0.56933 0.94147 0.0
C179 C 0.58345 0.56352 0.95817 0.0
O180 O 0.55622 0.60201 0.93798 0.0
O181 O 0.61081 0.6295 0.93636 0.0
O182 O 0.50646 0.55526 0.9192 0.0
O183 O 0.49757 0.52357 0.93566 0.0
O184 O 0.55944 0.54793 0.90927 0.0
O185 O 0.5898 0.58764 0.91986 0.0
O186 O 0.60329 0.53661 0.93241 0.0
O187 O 0.54897 0.51321 0.9334 0.0
O188 O 0.66624 0.6178 0.94238 0.0
O189 O 0.65538 0.59209 0.92396 0.0
O190 O 0.61386 0.57791 0.95795 0.0
O191 O 0.57372 0.56296 0.94675 0.0
H192 H 0.46231 0.53746 0.95079 0.0
H193 H 0.41028 0.53087 0.95517 0.0
H194 H 0.3914 0.52355 0.91381 0.0
H195 H 0.44296 0.52987 0.90951 0.0
H196 H 0.73829 0.63753 0.9258 0.0
H197 H 0.77369 0.6164 0.92801 0.0
H198 H 0.70038 0.5346 0.94746 0.0
H199 H 0.66498 0.55577 0.94497 0.0
Ho200 Ho 0.51249 0.01674 0.92803 0.0
Ho201 Ho 0.47443 0.05248 0.93367 0.0
C202 C 0.43726 0.97717 0.93397 0.0
C203 C 0.53825 0.98215 0.92602 0.0
C204 C 0.53644 0.95161 0.92835 0.0
C205 C 0.53093 0.93773 0.94077 0.0
C206 C 0.53368 0.91098 0.94281 0.0
C207 C 0.5423 0.89788 0.93251 0.0
C208 C 0.54671 0.9113 0.92005 0.0
C209 C 0.54382 0.9378 0.91801 0.0
C210 C 0.49712 0.04159 0.90756 0.0
C211 C 0.55133 0.08994 0.93383 0.0
C212 C 0.45148 0.08853 0.92899 0.0
C213 C 0.46222 0.12168 0.9318 0.0
C214 C 0.44661 0.13605 0.92624 0.0
C215 C 0.45872 0.16837 0.92761 0.0
C216 C 0.48681 0.18695 0.93451 0.0
C217 C 0.50205 0.17224 0.94028 0.0
C218 C 0.48986 0.1399 0.93893 0.0
C219 C 0.49443 0.04011 0.95635 0.0
O220 O 0.46467 0.97802 0.93404 0.0
O221 O 0.43469 1.00263 0.93242 0.0
O222 O 0.52001 0.98344 0.91705 0.0
O223 O 0.54256 1.00052 0.93601 0.0
O224 O 0.52374 0.04227 0.90853 0.0
O225 O 0.48048 0.02766 0.91728 0.0
O226 O 0.52532 0.09137 0.93212 0.0
O227 O 0.55157 0.06324 0.93406 0.0
O228 O 0.44286 0.06937 0.939 0.0
O229 O 0.4693 0.08416 0.9208 0.0
O230 O 0.47738 0.05341 0.95569 0.0
O231 O 0.49914 0.03411 0.94491 0.0
H232 H 0.52537 0.94799 0.94895 0.0
H233 H 0.5302 0.90126 0.95254 0.0
H234 H 0.5528 0.90151 0.91185 0.0
H235 H 0.54834 0.94813 0.90836 0.0
H236 H 0.42551 0.12241 0.92054 0.0
H237 H 0.4466 0.17896 0.92289 0.0
H238 H 0.5235 0.18574 0.94578 0.0
H239 H 0.50239 0.12921 0.94321 0.0
Ho240 Ho 0.19305 0.37435 0.45307 0.0
Ho241 Ho 0.11858 0.33648 0.44976 0.0
C242 C 0.15541 0.41207 0.4478 0.0
C243 C 0.25349 0.40964 0.45249 0.0
C244 C 0.28052 0.44103 0.44945 0.0
C245 C 0.3007 0.44422 0.43914 0.0
C246 C 0.32941 0.47196 0.43754 0.0
C247 C 0.33874 0.49708 0.4463 0.0
C248 C 0.31789 0.4944 0.45626 0.0
C249 C 0.28913 0.4667 0.45783 0.0
C250 C 0.15671 0.35382 0.47481 0.0
C251 C 0.15901 0.30013 0.45111 0.0
C252 C 0.06049 0.30119 0.45597 0.0
C253 C 0.03812 0.26796 0.45343 0.0
C254 C 1.00912 0.25303 0.45982 0.0
C255 C 0.98917 0.22065 0.45848 0.0
C256 C 0.99809 0.20268 0.4508 0.0
C257 C 0.02709 0.21794 0.44428 0.0
C258 C 0.04692 0.25029 0.44559 0.0
C259 C 0.14664 0.34256 0.4263 0.0
O260 O 0.18229 0.41197 0.4472 0.0
O261 O 0.12796 0.38631 0.44998 0.0
O262 O 0.23623 0.407 0.46265 0.0
O263 O 0.23714 0.39146 0.44278 0.0
O264 O 0.18259 0.35314 0.47349 0.0
O265 O 0.15206 0.36534 0.46473 0.0
O266 O 0.13178 0.29889 0.45326 0.0
O267 O 0.18532 0.32675 0.44905 0.0
O268 O 0.06955 0.31998 0.44583 0.0
O269 O 0.08381 0.30589 0.46358 0.0
O270 O 0.11649 0.32811 0.42802 0.0
O271 O 0.15955 0.35261 0.43722 0.0
H272 H 0.29495 0.4247 0.43265 0.0
H273 H 0.34498 0.4731 0.42984 0.0
H274 H 0.32415 0.51349 0.46305 0.0
H275 H 0.27426 0.46505 0.46592 0.0
H276 H 1.00223 0.26626 0.46609 0.0
H277 H 0.96718 0.20954 0.46375 0.0
H278 H 0.0345 0.20485 0.4382 0.0
H279 H 0.06944 0.26144 0.44071 0.0
Ho280 Ho 0.68857 0.83806 0.455 0.0
Ho281 Ho 0.72668 0.80335 0.44798 0.0
C282 C 0.65138 0.76465 0.44638 0.0
C283 C 0.65306 0.8623 0.45835 0.0
C284 C 0.62294 0.86105 0.45595 0.0
C285 C 0.60778 0.85301 0.44378 0.0
C286 C 0.58094 0.85554 0.44167 0.0
C287 C 0.56915 0.86644 0.45166 0.0
C288 C 0.58396 0.87348 0.4639 0.0
C289 C 0.6105 0.87079 0.466 0.0
C290 C 0.71311 0.8205 0.47483 0.0
C291 C 0.76221 0.8798 0.45077 0.0
C292 C 0.76291 0.78029 0.45167 0.0
C293 C 0.79625 0.79211 0.44899 0.0
C294 C 0.8139 0.8201 0.44201 0.0
C295 C 0.84644 0.83354 0.44096 0.0
C296 C 0.86189 0.81925 0.44691 0.0
C297 C 0.84388 0.79079 0.45365 0.0
C298 C 0.81136 0.77741 0.4547 0.0
C299 C 0.71646 0.82786 0.42613 0.0
O300 O 0.65142 0.79159 0.4471 0.0
O301 O 0.67712 0.76259 0.44792 0.0
O302 O 0.65309 0.84138 0.46622 0.0
O303 O 0.67283 0.86975 0.44863 0.0
O304 O 0.71286 0.8467 0.47468 0.0
O305 O 0.70015 0.80526 0.46467 0.0
O306 O 0.76442 0.85402 0.45151 0.0
O307 O 0.73504 0.87905 0.45041 0.0
O308 O 0.74426 0.7731 0.44153 0.0
O309 O 0.75779 0.79644 0.46048 0.0
O310 O 0.73171 0.81268 0.42625 0.0
O311 O 0.70801 0.82905 0.4376 0.0
H312 H 0.61704 0.8455 0.43586 0.0
H313 H 0.57005 0.84998 0.43213 0.0
H314 H 0.57515 0.88135 0.47186 0.0
H315 H 0.62185 0.87713 0.47546 0.0
H316 H 0.80261 0.83198 0.43768 0.0
H317 H 0.85952 0.85526 0.43559 0.0
H318 H 0.85502 0.7794 0.45852 0.0
H319 H 0.79814 0.75609 0.46031 0.0
Ho320 Ho 0.22242 0.87083 0.44951 0.0
Ho321 Ho 0.25918 0.94069 0.44481 0.0
C322 C 0.29828 0.90529 0.44606 0.0
C323 C 0.19503 0.81008 0.44909 0.0
C324 C 0.1983 0.78201 0.4508 0.0
C325 C 0.21972 0.77729 0.44347 0.0
C326 C 0.21875 0.74833 0.44387 0.0
C327 C 0.19636 0.72354 0.45158 0.0
C328 C 0.1758 0.72888 0.45925 0.0
C329 C 0.17677 0.75772 0.45884 0.0
C330 C 0.23894 0.9079 0.47111 0.0
C331 C 0.18289 0.90426 0.44689 0.0
C332 C 0.28122 1.00066 0.44602 0.0
C333 C 0.26712 0.02073 0.44767 0.0
C334 C 0.2394 1.01044 0.45487 0.0
C335 C 0.22556 0.02921 0.45585 0.0
C336 C 0.23922 0.05868 0.44969 0.0
C337 C 0.26723 0.06899 0.44264 0.0
C338 C 0.28097 0.05016 0.44163 0.0
C339 C 0.24499 0.90568 0.42294 0.0
O340 O 0.27095 0.87887 0.44562 0.0
O341 O 0.30019 0.93299 0.44732 0.0
O342 O 0.19636 0.8261 0.45947 0.0
O343 O 0.20808 0.82785 0.43889 0.0
O344 O 0.21198 0.88259 0.46972 0.0
O345 O 0.25556 0.9114 0.4613 0.0
O346 O 0.2095 0.93073 0.44906 0.0
O347 O 0.18283 0.87804 0.44442 0.0
O348 O 0.27481 0.98513 0.43505 0.0
O349 O 0.27966 0.98357 0.45606 0.0
O350 O 0.27142 0.93129 0.42497 0.0
O351 O 0.22676 0.90036 0.4325 0.0
H352 H 0.23658 0.79558 0.43715 0.0
H353 H 0.23524 0.74522 0.43798 0.0
H354 H 0.15798 0.71031 0.46517 0.0
H355 H 0.15975 0.76064 0.46445 0.0
H356 H 0.22829 0.9878 0.45964 0.0
H357 H 0.20386 0.02036 0.46125 0.0
H358 H 0.27873 0.09177 0.43798 0.0
H359 H 0.30238 0.05853 0.43605 0.0
Ho360 Ho 0.71638 0.8522 0.26613 0.0
Ho361 Ho 0.67876 0.77756 0.26891 0.0
C362 C 0.75487 0.8146 0.27044 0.0
C363 C 0.7504 0.91262 0.26833 0.0
C364 C 0.78193 0.94089 0.26748 0.0
C365 C 0.80592 0.94655 0.27639 0.0
C366 C 0.8336 0.97578 0.2767 0.0
C367 C 0.83783 0.99997 0.26813 0.0
C368 C 0.81422 0.99374 0.25893 0.0
C369 C 0.78664 0.96461 0.25864 0.0
C370 C 0.69815 0.81687 0.24401 0.0
C371 C 0.64239 0.81771 0.26861 0.0
C372 C 0.64317 0.72008 0.26193 0.0
C373 C 0.60921 0.69727 0.26331 0.0
C374 C 0.58926 0.6912 0.25257 0.0
C375 C 0.557 0.67101 0.25369 0.0
C376 C 0.54377 0.65636 0.26562 0.0
C377 C 0.56367 0.66219 0.27639 0.0
C378 C 0.5961 0.68236 0.27524 0.0
C379 C 0.68285 0.80468 0.29243 0.0
O380 O 0.75528 0.84175 0.26966 0.0
O381 O 0.72863 0.78682 0.26966 0.0
O382 O 0.73664 0.89846 0.25747 0.0
O383 O 0.74441 0.89314 0.27804 0.0
O384 O 0.69783 0.84297 0.24525 0.0
O385 O 0.7086 0.81174 0.25431 0.0
O386 O 0.64128 0.79099 0.26544 0.0
O387 O 0.66898 0.84345 0.27137 0.0
O388 O 0.66067 0.72803 0.27248 0.0
O389 O 0.64997 0.74405 0.25434 0.0
O390 O 0.66898 0.77457 0.29057 0.0
O391 O 0.69343 0.81796 0.28161 0.0
H392 H 0.80296 0.92881 0.2834 0.0
H393 H 0.85146 0.97958 0.28379 0.0
H394 H 0.81636 1.01183 0.25231 0.0
H395 H 0.76835 0.96109 0.25181 0.0
H396 H 0.59851 0.70263 0.24331 0.0
H397 H 0.54232 0.66742 0.24526 0.0
H398 H 0.55421 0.651 0.28568 0.0
H399 H 0.61077 0.68649 0.28372 0.0
Ho400 Ho 0.21605 0.8907 0.26075 0.0
Ho401 Ho 0.28936 0.92428 0.26681 0.0
C402 C 0.25451 0.9643 0.26887 0.0
C403 C 0.15615 0.86863 0.25881 0.0
C404 C 0.12785 0.869 0.26358 0.0
C405 C 0.10776 0.84634 0.27261 0.0
C406 C 0.07808 0.8423 0.27525 0.0
C407 C 0.06762 0.8607 0.26888 0.0
C408 C 0.08829 0.88435 0.26031 0.0
C409 C 0.11799 0.88837 0.25765 0.0
C410 C 0.25641 0.90758 0.24022 0.0
C411 C 0.24646 0.8476 0.26527 0.0
C412 C 0.34807 0.94488 0.26246 0.0
C413 C 0.36926 0.93279 0.2655 0.0
C414 C 0.40026 0.94873 0.26102 0.0
C415 C 0.41942 0.93543 0.26249 0.0
C416 C 0.40775 0.90581 0.26837 0.0
C417 C 0.3768 0.89025 0.27311 0.0
C418 C 0.35776 0.90367 0.27172 0.0
C419 C 0.25645 0.90403 0.28933 0.0
O420 O 0.22747 0.9374 0.26917 0.0
O421 O 0.28173 0.96577 0.26637 0.0
O422 O 0.17696 0.89254 0.252 0.0
O423 O 0.16876 0.85645 0.26637 0.0
O424 O 0.2292 0.88223 0.24042 0.0
O425 O 0.2599 0.92252 0.25056 0.0
O426 O 0.27475 0.87289 0.26435 0.0
O427 O 0.22044 0.84908 0.26542 0.0
O428 O 0.338 0.95437 0.27234 0.0
O429 O 0.32576 0.92756 0.2542 0.0
O430 O 0.28688 0.91946 0.2887 0.0
O431 O 0.24578 0.90058 0.27789 0.0
H432 H 0.11439 0.83074 0.27725 0.0
H433 H 0.06299 0.82419 0.28206 0.0
H434 H 0.08095 0.89876 0.25512 0.0
H435 H 0.1326 0.9057 0.25048 0.0
H436 H 0.40938 0.97104 0.25606 0.0
H437 H 0.44302 0.94786 0.25861 0.0
H438 H 0.36723 0.8676 0.27782 0.0
H439 H 0.33379 0.89096 0.27519 0.0
Ho440 Ho 0.17598 0.34725 0.2642 0.0
Ho441 Ho 0.14408 0.38835 0.27083 0.0
C442 C 0.10365 0.31335 0.27353 0.0
C443 C 0.19768 0.30921 0.26191 0.0
C444 C 0.19791 0.28093 0.26678 0.0
C445 C 0.22188 0.28425 0.27523 0.0
C446 C 0.22633 0.25884 0.27781 0.0
C447 C 0.20705 0.22949 0.27195 0.0
C448 C 0.18208 0.22576 0.26401 0.0
C449 C 0.17765 0.25121 0.26141 0.0
C450 C 0.15786 0.37033 0.24394 0.0
C451 C 0.22 0.42116 0.26723 0.0
C452 C 0.1221 0.42553 0.26709 0.0
C453 C 0.13375 0.45885 0.26985 0.0
C454 C 0.16407 0.47786 0.27485 0.0
C455 C 0.17676 0.51034 0.27579 0.0
C456 C 0.1593 0.52439 0.27176 0.0
C457 C 0.12846 0.50498 0.26721 0.0
C458 C 0.11587 0.47252 0.26622 0.0
C459 C 0.16884 0.37852 0.29274 0.0
O460 O 0.13033 0.31285 0.27357 0.0
O461 O 0.10238 0.33922 0.27109 0.0
O462 O 0.17291 0.30561 0.25562 0.0
O463 O 0.21086 0.33459 0.26913 0.0
O464 O 0.18277 0.36771 0.24375 0.0
O465 O 0.14373 0.3596 0.25452 0.0
O466 O 0.19483 0.4244 0.26656 0.0
O467 O 0.21822 0.39353 0.26793 0.0
O468 O 0.11428 0.40661 0.27716 0.0
O469 O 0.13864 0.4205 0.25843 0.0
O470 O 0.15472 0.3948 0.29246 0.0
O471 O 0.16893 0.36892 0.28137 0.0
H472 H 0.23817 0.30686 0.27941 0.0
H473 H 0.24548 0.26243 0.28413 0.0
H474 H 0.16694 0.20358 0.25924 0.0
H475 H 0.15926 0.2479 0.2547 0.0
H476 H 0.17832 0.46769 0.2776 0.0
H477 H 0.20065 0.52451 0.27921 0.0
H478 H 0.11414 0.51491 0.26425 0.0
H479 H 0.09248 0.4582 0.26228 0.0
Ho480 Ho 0.85636 0.71167 0.78436 0.0
Ho481 Ho 0.78347 0.67082 0.77965 0.0
C482 C 0.81701 0.74525 0.77612 0.0
C483 C 0.9162 0.75034 0.78605 0.0
C484 C 0.94464 0.7787 0.78116 0.0
C485 C 0.96544 0.77546 0.77278 0.0
C486 C 0.99528 0.80097 0.77021 0.0
C487 C 1.00519 0.83035 0.77602 0.0
C488 C 0.98383 0.83397 0.78391 0.0
C489 C 0.95398 0.80843 0.78649 0.0
C490 C 0.81795 0.68972 0.80562 0.0
C491 C 0.82718 0.63831 0.78116 0.0
C492 C 0.72517 0.63286 0.78479 0.0
C493 C 0.7039 0.5997 0.78161 0.0
C494 C 0.67301 0.58441 0.78622 0.0
C495 C 0.65377 0.55205 0.78443 0.0
C496 C 0.66523 0.53445 0.77808 0.0
C497 C 0.69607 0.5501 0.77323 0.0
C498 C 0.71522 0.58244 0.77496 0.0
C499 C 0.81303 0.67922 0.75648 0.0
O500 O 0.84404 0.7456 0.77525 0.0
O501 O 0.79046 0.7197 0.77948 0.0
O502 O 0.89519 0.75382 0.79251 0.0
O503 O 0.90383 0.7249 0.77888 0.0
O504 O 0.84479 0.69091 0.80492 0.0
O505 O 0.81361 0.70047 0.79527 0.0
O506 O 0.79905 0.63504 0.7831 0.0
O507 O 0.85262 0.66596 0.77979 0.0
O508 O 0.73443 0.65272 0.77501 0.0
O509 O 0.74813 0.63766 0.79264 0.0
O510 O 0.78286 0.66377 0.75806 0.0
O511 O 0.82585 0.68961 0.76745 0.0
H512 H 0.95923 0.75284 0.76864 0.0
H513 H 1.01092 0.79743 0.76393 0.0
H514 H 0.99071 0.85614 0.78865 0.0
H515 H 0.93881 0.81169 0.79317 0.0
H516 H 0.66405 0.59733 0.7915 0.0
H517 H 0.63025 0.54066 0.78841 0.0
H518 H 0.70548 0.5373 0.76817 0.0
H519 H 0.73911 0.59389 0.77139 0.0
Ho520 Ho 0.35666 0.17108 0.78324 0.0
Ho521 Ho 0.39465 0.13513 0.77876 0.0
C522 C 0.31899 0.09597 0.77715 0.0
C523 C 0.32171 0.1966 0.78416 0.0
C524 C 0.29077 0.1942 0.78225 0.0
C525 C 0.27688 0.19003 0.76987 0.0
C526 C 0.25013 0.19293 0.76823 0.0
C527 C 0.23703 0.20042 0.77888 0.0
C528 C 0.25035 0.20339 0.79129 0.0
C529 C 0.27686 0.20034 0.79294 0.0
C530 C 0.37934 0.15552 0.80441 0.0
C531 C 0.43053 0.21188 0.77983 0.0
C532 C 0.43082 0.11288 0.78434 0.0
C533 C 0.46421 0.12417 0.78189 0.0
C534 C 0.47868 0.10878 0.78756 0.0
C535 C 0.51112 0.12135 0.78646 0.0
C536 C 0.52968 0.14971 0.77973 0.0
C537 C 0.51489 0.16477 0.77388 0.0
C538 C 0.48245 0.15211 0.77495 0.0
C539 C 0.38715 0.15754 0.75569 0.0
O540 O 0.31884 0.12286 0.77734 0.0
O541 O 0.34498 0.09432 0.77869 0.0
O542 O 0.32483 0.18121 0.79391 0.0
O543 O 0.33836 0.1981 0.77393 0.0
O544 O 0.37976 0.18198 0.80328 0.0
O545 O 0.36695 0.1392 0.79442 0.0
O546 O 0.43234 0.18612 0.78173 0.0
O547 O 0.40355 0.21123 0.77852 0.0
O548 O 0.41221 0.10373 0.77414 0.0
O549 O 0.42564 0.13065 0.79226 0.0
O550 O 0.40186 0.14197 0.75703 0.0
O551 O 0.37745 0.16005 0.76677 0.0
H552 H 0.28723 0.18556 0.76142 0.0
H553 H 0.24048 0.1906 0.75853 0.0
H554 H 0.24057 0.20861 0.79974 0.0
H555 H 0.28721 0.20394 0.80256 0.0
H556 H 0.46502 0.08745 0.79312 0.0
H557 H 0.52179 0.10936 0.79122 0.0
H558 H 0.5284 0.18642 0.76852 0.0
H559 H 0.47167 0.16446 0.7706 0.0
Ho560 Ho 0.89667 0.20763 0.78413 0.0
Ho561 Ho 0.93025 0.28135 0.77909 0.0
C562 C 0.9703 0.24603 0.77612 0.0
C563 C 0.87266 0.14747 0.78563 0.0
C564 C 0.87427 0.11871 0.78324 0.0
C565 C 0.8762 0.10854 0.77064 0.0
C566 C 0.87248 0.0786 0.76875 0.0
C567 C 0.86634 0.05829 0.7794 0.0
C568 C 0.86574 0.06915 0.792 0.0
C569 C 0.86966 0.09897 0.79388 0.0
C570 C 0.91463 0.24671 0.80511 0.0
C571 C 0.85386 0.239 0.78195 0.0
C572 C 0.95298 0.33993 0.78448 0.0
C573 C 0.94275 0.36297 0.78242 0.0
C574 C 0.95276 0.38809 0.79113 0.0
C575 C 0.94008 0.40788 0.79054 0.0
C576 C 0.91714 0.4029 0.78118 0.0
C577 C 0.90779 0.3782 0.7722 0.0
C578 C 0.92033 0.35821 0.77287 0.0
C579 C 0.90588 0.25003 0.75648 0.0
O580 O 0.94373 0.21872 0.77636 0.0
O581 O 0.9716 0.27331 0.77832 0.0
O582 O 0.89106 0.16697 0.79458 0.0
O583 O 0.8676 0.16145 0.77582 0.0
O584 O 0.88868 0.22003 0.80464 0.0
O585 O 0.92935 0.25071 0.79464 0.0
O586 O 0.87939 0.2671 0.7831 0.0
O587 O 0.85512 0.21296 0.78071 0.0
O588 O 0.96139 0.33014 0.77415 0.0
O589 O 0.93509 0.31718 0.79245 0.0
O590 O 0.92076 0.28039 0.75752 0.0
O591 O 0.90495 0.23858 0.76758 0.0
H592 H 0.87951 0.12321 0.76224 0.0
H593 H 0.87303 0.07083 0.75892 0.0
H594 H 0.86155 0.05426 0.80041 0.0
H595 H 0.86785 0.10615 0.80368 0.0
H596 H 0.96975 0.39186 0.79866 0.0
H597 H 0.94802 0.42693 0.79748 0.0
H598 H 0.88999 0.37366 0.76496 0.0
H599 H 0.91186 0.33854 0.76622 0.0
Ho600 Ho 0.38179 0.18282 0.59345 0.0
Ho601 Ho 0.3434 0.10999 0.60082 0.0
C602 C 0.41873 0.14576 0.60164 0.0
C603 C 0.41788 0.24258 0.59023 0.0
C604 C 0.44825 0.27112 0.59287 0.0
C605 C 0.46108 0.2794 0.60547 0.0
C606 C 0.48777 0.30879 0.60773 0.0
C607 C 0.50182 0.33042 0.59747 0.0
C608 C 0.48948 0.32144 0.58483 0.0
C609 C 0.46304 0.29216 0.58257 0.0
C610 C 0.3556 0.14046 0.57379 0.0
C611 C 0.30842 0.1515 0.59848 0.0
C612 C 0.30584 0.05077 0.59759 0.0
C613 C 0.27174 0.0304 0.59959 0.0
C614 C 0.25063 0.03989 0.59531 0.0
C615 C 0.21838 0.02034 0.59691 0.0
C616 C 0.20638 0.99085 0.6029 0.0
C617 C 0.22761 0.98158 0.60735 0.0
C618 C 0.25998 1.00117 0.60568 0.0
C619 C 0.35567 0.14567 0.62255 0.0
O620 O 0.41908 0.17285 0.60068 0.0
O621 O 0.39262 0.11804 0.60069 0.0
O622 O 0.41765 0.2216 0.58231 0.0
O623 O 0.39773 0.23027 0.59982 0.0
O624 O 0.35663 0.1673 0.57396 0.0
O625 O 0.36892 0.13803 0.58382 0.0
O626 O 0.30589 0.12337 0.59771 0.0
O627 O 0.33572 0.17781 0.59854 0.0
O628 O 0.32315 0.06227 0.60808 0.0
O629 O 0.31387 0.07146 0.58822 0.0
O630 O 0.34053 0.11523 0.62265 0.0
O631 O 0.36321 0.15476 0.61096 0.0
H632 H 0.45002 0.26361 0.6136 0.0
H633 H 0.49668 0.31504 0.61758 0.0
H634 H 0.50005 0.33727 0.57667 0.0
H635 H 0.45351 0.28632 0.57279 0.0
H636 H 0.25896 0.06232 0.59055 0.0
H637 H 0.20283 0.02811 0.59317 0.0
H638 H 0.21925 0.95923 0.61217 0.0
H639 H 0.27582 0.99343 0.60911 0.0
Ho640 Ho 0.87737 0.21658 0.5949 0.0
Ho641 Ho 0.95072 0.25077 0.6011 0.0
C642 C 0.91476 0.29 0.60342 0.0
C643 C 0.81732 0.19328 0.59298 0.0
C644 C 0.78928 0.19432 0.59758 0.0
C645 C 0.76853 0.17152 0.6064 0.0
C646 C 0.73921 0.16836 0.60902 0.0
C647 C 0.72977 0.18777 0.60283 0.0
C648 C 0.75109 0.21152 0.59445 0.0
C649 C 0.78045 0.21468 0.59181 0.0
C650 C 0.91802 0.23374 0.57454 0.0
C651 C 0.9091 0.17435 0.59852 0.0
C652 C 1.00977 0.27378 0.59677 0.0
C653 C 0.03183 0.26265 0.5995 0.0
C654 C 0.06169 0.27781 0.59384 0.0
C655 C 0.08161 0.26541 0.59525 0.0
C656 C 0.07187 0.23746 0.60229 0.0
C657 C 0.04199 0.22259 0.60809 0.0
C658 C 0.02214 0.23508 0.60671 0.0
C659 C 0.91726 0.22673 0.62328 0.0
O660 O 0.88776 0.26308 0.60317 0.0
O661 O 0.94227 0.29175 0.60142 0.0
O662 O 0.83771 0.21619 0.58562 0.0
O663 O 0.83043 0.18252 0.60102 0.0
O664 O 0.89113 0.208 0.57476 0.0
O665 O 0.9212 0.24886 0.58482 0.0
O666 O 0.93718 0.19995 0.59756 0.0
O667 O 0.88285 0.17541 0.59917 0.0
O668 O 0.99894 0.2818 0.60687 0.0
O669 O 0.98789 0.25655 0.58833 0.0
O670 O 0.94768 0.24152 0.62283 0.0
O671 O 0.90698 0.22563 0.61193 0.0
H672 H 0.7744 0.1552 0.61089 0.0
H673 H 0.7236 0.15014 0.61569 0.0
H674 H 0.74452 0.2267 0.5894 0.0
H675 H 0.79563 0.23221 0.58482 0.0
H676 H 0.06929 0.29881 0.58805 0.0
H677 H 0.10428 0.27718 0.5905 0.0
H678 H 0.03389 0.20122 0.61367 0.0
H679 H 0.99895 0.22286 0.61102 0.0
Ho680 Ho 0.84348 0.67792 0.59771 0.0
Ho681 Ho 0.80823 0.71657 0.60142 0.0
C682 C 0.76919 0.64166 0.6045 0.0
C683 C 0.86743 0.64156 0.59727 0.0
C684 C 0.86599 0.61224 0.6018 0.0
C685 C 0.88936 0.6142 0.61026 0.0
C686 C 0.89244 0.58791 0.61269 0.0
C687 C 0.87233 0.55899 0.60666 0.0
C688 C 0.84793 0.55664 0.59871 0.0
C689 C 0.84486 0.58299 0.59626 0.0
C690 C 0.82783 0.69915 0.57609 0.0
C691 C 0.88493 0.75193 0.60032 0.0
C692 C 0.78604 0.7525 0.59535 0.0
C693 C 0.79702 0.78576 0.59794 0.0
C694 C 0.78201 0.80039 0.59206 0.0
C695 C 0.79433 0.83275 0.59341 0.0
C696 C 0.82203 0.85105 0.60059 0.0
C697 C 0.83669 0.83609 0.60663 0.0
C698 C 0.82427 0.80373 0.60532 0.0
C699 C 0.83012 0.7102 0.62483 0.0
O700 O 0.79622 0.64195 0.60543 0.0
O701 O 0.76749 0.66703 0.60149 0.0
O702 O 0.84631 0.6395 0.58893 0.0
O703 O 0.87589 0.66454 0.60564 0.0
O704 O 0.85409 0.69926 0.57731 0.0
O705 O 0.81177 0.68767 0.58618 0.0
O706 O 0.85929 0.75395 0.59846 0.0
O707 O 0.88407 0.7249 0.60181 0.0
O708 O 0.77617 0.73361 0.60546 0.0
O709 O 0.80452 0.74767 0.58772 0.0
O710 O 0.81432 0.72453 0.62308 0.0
O711 O 0.83284 0.69979 0.61395 0.0
H712 H 0.90622 0.63645 0.61456 0.0
H713 H 0.91116 0.59046 0.61904 0.0
H714 H 0.83216 0.53483 0.59382 0.0
H715 H 0.8268 0.58069 0.58958 0.0
H716 H 0.7612 0.78692 0.58617 0.0
H717 H 0.78268 0.84358 0.5885 0.0
H718 H 0.85782 0.84941 0.61234 0.0
H719 H 0.83631 0.79281 0.60985 0.0
H720 H 0.54855 0.97447 0.10287 0.0
H721 H 0.55719 0.93001 0.10343 0.0
H722 H 0.46578 0.87261 0.12052 0.0
H723 H 0.45659 0.91732 0.11976 0.0
H724 H 0.55937 0.9009 0.12564 0.0
H725 H 0.46809 0.81549 0.09194 0.0
H726 H 0.47916 0.85643 0.09235 0.0
H727 H 0.45419 0.83021 0.10481 0.0
C728 C 0.53007 0.95236 0.10666 0.0
C729 C 0.50197 0.94953 0.1114 0.0
C730 C 0.53507 0.92691 0.10694 0.0
C731 C 0.51218 0.89796 0.11199 0.0
C732 C 0.48362 0.89462 0.1164 0.0
H733 H 0.56781 0.76246 0.1366 0.0
H734 H 0.54611 0.7976 0.13611 0.0
C735 C 0.47844 0.9202 0.11602 0.0
C736 C 0.51966 0.87238 0.11336 0.0
H737 H 0.49973 0.79889 0.10276 0.0
C738 C 0.54622 0.87852 0.12069 0.0
C739 C 0.50263 0.84332 0.1068 0.0
C740 C 0.47456 0.8359 0.09844 0.0
C741 C 0.55662 0.85676 0.12146 0.0
C742 C 0.53951 0.82758 0.11499 0.0
C743 C 0.51267 0.82119 0.10778 0.0
C744 C 0.55003 0.80409 0.11519 0.0
C745 C 0.58654 0.86576 0.12881 0.0
C746 C 0.55835 0.79512 0.10355 0.0
C747 C 0.57059 0.77487 0.10379 0.0
C748 C 0.57481 0.7633 0.11569 0.0
C749 C 0.5655 0.77154 0.1273 0.0
C750 C 0.55304 0.79157 0.12704 0.0
H751 H 0.60083 0.89152 0.13032 0.0
H752 H 0.58065 0.8544 0.13854 0.0
H753 H 0.60105 0.85783 0.12355 0.0
H754 H 0.55617 0.80446 0.09429 0.0
H755 H 0.57759 0.76898 0.09469 0.0
H756 H 0.32694 0.83265 0.09096 0.0
H757 H 0.29186 0.77563 0.0916 0.0
H758 H 0.25589 0.78412 0.12876 0.0
H759 H 0.29123 0.84087 0.12835 0.0
H760 H 0.2713 0.73429 0.12699 0.0
H761 H 0.19489 0.73262 0.08659 0.0
H762 H 0.23638 0.75229 0.08347 0.0
H763 H 0.22118 0.76808 0.0953 0.0
C764 C 0.31171 0.82236 0.09931 0.0
C765 C 0.3117 0.84139 0.10955 0.0
C766 C 0.29157 0.78981 0.09962 0.0
C767 C 0.27113 0.77572 0.11018 0.0
C768 C 0.27144 0.79455 0.1205 0.0
H769 H 0.09916 0.60652 0.12047 0.0
H770 H 0.14373 0.65934 0.11857 0.0
C771 C 0.29144 0.82703 0.12019 0.0
C772 C 0.24877 0.74146 0.11043 0.0
H773 H 0.18137 0.68438 0.0964 0.0
C774 C 0.25178 0.72322 0.12024 0.0
C775 C 0.22328 0.72724 0.10164 0.0
C776 C 0.21842 0.74596 0.09119 0.0
C777 C 0.22955 0.6912 0.12165 0.0
C778 C 0.20379 0.67711 0.11298 0.0
C779 C 0.20125 0.69522 0.10299 0.0
C780 C 0.17756 0.64452 0.1148 0.0
C781 C 0.23303 0.673 0.13272 0.0
C782 C 0.18181 0.61846 0.11346 0.0
C783 C 0.15617 0.5879 0.1146 0.0
C784 C 0.12589 0.58301 0.11698 0.0
C785 C 0.12203 0.60928 0.11855 0.0
C786 C 0.14753 0.6396 0.11745 0.0
H787 H 0.25123 0.68857 0.13983 0.0
H788 H 0.21042 0.65917 0.13795 0.0
H789 H 0.23988 0.65632 0.12875 0.0
H790 H 0.20475 0.62173 0.11124 0.0
H791 H 0.15993 0.5682 0.11326 0.0
H792 H 0.23739 0.4654 0.10711 0.0
H793 H 0.29451 0.48948 0.10698 0.0
H794 H 0.30389 0.57906 0.11659 0.0
H795 H 0.24669 0.55499 0.11706 0.0
H796 H 0.33931 0.54109 0.09158 0.0
H797 H 0.3564 0.56596 0.14486 0.0
H798 H 0.3186 0.53893 0.13795 0.0
H799 H 0.33449 0.58042 0.13616 0.0
C800 C 0.25157 0.49018 0.10929 0.0
C801 C 0.23746 0.50822 0.11216 0.0
C802 C 0.2842 0.50395 0.10913 0.0
C803 C 0.30339 0.53596 0.11193 0.0
C804 C 0.28948 0.55422 0.11458 0.0
H805 H 0.51018 0.62729 0.1197 0.0
H806 H 0.45792 0.62217 0.11804 0.0
C807 C 0.2568 0.54048 0.11471 0.0
C808 C 0.33794 0.54989 0.11206 0.0
H809 H 0.40123 0.57822 0.13246 0.0
C810 C 0.35292 0.54958 0.10048 0.0
C811 C 0.35569 0.56123 0.12367 0.0
C812 C 0.3406 0.56158 0.13642 0.0
C813 C 0.38497 0.55921 0.10029 0.0
C814 C 0.40235 0.56891 0.11203 0.0
C815 C 0.3878 0.57081 0.12348 0.0
C816 C 0.43418 0.57294 0.11292 0.0
C817 C 0.39982 0.55813 0.08759 0.0
C818 C 0.43792 0.5469 0.11082 0.0
C819 C 0.46737 0.54964 0.11182 0.0
C820 C 0.49396 0.57855 0.11501 0.0
C821 C 0.49022 0.60472 0.1172 0.0
C822 C 0.46044 0.60186 0.11626 0.0
H823 H 0.38668 0.55971 0.07909 0.0
H824 H 0.42455 0.57748 0.08699 0.0
H825 H 0.39961 0.53553 0.0869 0.0
H826 H 0.41787 0.52424 0.10848 0.0
H827 H 0.46916 0.5289 0.11006 0.0
H828 H 0.91429 0.44078 0.93103 0.0
H829 H 0.86838 0.44787 0.93261 0.0
H830 H 0.92946 0.54776 0.93627 0.0
H831 H 0.97507 0.54117 0.93472 0.0
H832 H 0.8795 0.51758 0.9559 0.0
H833 H 0.83755 0.48953 0.90452 0.0
H834 H 0.84609 0.46282 0.91317 0.0
H835 H 0.87739 0.50117 0.90901 0.0
C836 C 0.91792 0.46426 0.93208 0.0
C837 C 0.94845 0.49037 0.93272 0.0
C838 C 0.89168 0.46825 0.93296 0.0
C839 C 0.89561 0.49837 0.9345 0.0
C840 C 0.92595 0.52434 0.93508 0.0
H841 H 0.80271 0.60384 0.94349 0.0
H842 H 0.83764 0.58202 0.9433 0.0
C843 C 0.95204 0.52045 0.93416 0.0
C844 C 0.86847 0.50339 0.93585 0.0
H845 H 0.81152 0.50723 0.91832 0.0
C846 C 0.86435 0.51496 0.94774 0.0
C847 C 0.8487 0.49978 0.9252 0.0
C848 C 0.85253 0.48778 0.9122 0.0
C849 C 0.84153 0.52386 0.94917 0.0
C850 C 0.82282 0.52183 0.93833 0.0
C851 C 0.82601 0.50895 0.9266 0.0
C852 C 0.80121 0.53467 0.93875 0.0
C853 C 0.83785 0.53558 0.96228 0.0
C854 C 0.7692 0.5155 0.93595 0.0
C855 C 0.74918 0.52803 0.9359 0.0
C856 C 0.76085 0.56006 0.93854 0.0
C857 C 0.79295 0.57915 0.94134 0.0
C858 C 0.81291 0.56662 0.94139 0.0
H859 H 0.84618 0.52639 0.9703 0.0
H860 H 0.85215 0.56156 0.96248 0.0
H861 H 0.81302 0.5287 0.96416 0.0
H862 H 0.75973 0.49086 0.93377 0.0
H863 H 0.7247 0.51275 0.93349 0.0
H864 H 0.45613 0.21975 0.93862 0.0
H865 H 0.47842 0.27666 0.93902 0.0
H866 H 0.57084 0.28965 0.93306 0.0
H867 H 0.54863 0.23269 0.93227 0.0
H868 H 0.5247 0.32144 0.95582 0.0
H869 H 0.56309 0.343 0.90397 0.0
H870 H 0.53588 0.30435 0.91008 0.0
H871 H 0.57698 0.32185 0.91356 0.0
C872 C 0.48117 0.23467 0.93728 0.0
C873 C 0.50054 0.2216 0.93533 0.0
C874 C 0.4939 0.26721 0.9376 0.0
C875 C 0.52623 0.2874 0.9359 0.0
C876 C 0.54576 0.27451 0.93419 0.0
H877 H 0.62065 0.49474 0.93142 0.0
H878 H 0.61326 0.44155 0.93283 0.0
C879 C 0.53305 0.24194 0.93389 0.0
C880 C 0.53921 0.32189 0.93599 0.0
H881 H 0.57277 0.387 0.91654 0.0
C882 C 0.53545 0.33581 0.94727 0.0
C883 C 0.55349 0.34068 0.92485 0.0
C884 C 0.55748 0.32681 0.91238 0.0
C885 C 0.5448 0.36782 0.9476 0.0
C886 C 0.55781 0.3863 0.9363 0.0
C887 C 0.56283 0.37275 0.92519 0.0
C888 C 0.56297 0.41863 0.9354 0.0
C889 C 0.5402 0.38152 0.96 0.0
C890 C 0.53714 0.4232 0.93614 0.0
C891 C 0.54119 0.45326 0.93528 0.0
C892 C 0.57125 0.47962 0.93361 0.0
C893 C 0.5972 0.475 0.93272 0.0
C894 C 0.59304 0.44467 0.93353 0.0
H895 H 0.53888 0.36734 0.96865 0.0
H896 H 0.55953 0.406 0.96147 0.0
H897 H 0.51783 0.38178 0.95936 0.0
H898 H 0.51368 0.40339 0.93735 0.0
H899 H 0.52058 0.45571 0.93598 0.0
H900 H 0.60481 0.09538 0.94397 0.0
H901 H 0.65612 0.14229 0.94575 0.0
H902 H 0.61899 0.19788 0.92957 0.0
H903 H 0.56692 0.15057 0.92775 0.0
H904 H 0.67536 0.20477 0.91723 0.0
H905 H 0.68798 0.21828 0.97087 0.0
H906 H 0.67447 0.17888 0.96542 0.0
H907 H 0.65032 0.19629 0.96291 0.0
C908 C 0.60733 0.11755 0.94086 0.0
C909 C 0.58177 0.11918 0.93563 0.0
C910 C 0.63669 0.14442 0.942 0.0
C911 C 0.64127 0.17359 0.93794 0.0
C912 C 0.61581 0.17556 0.93285 0.0
H913 H 0.83077 0.33904 0.9449 0.0
H914 H 0.77352 0.30637 0.94554 0.0
C915 C 0.58614 0.14857 0.93183 0.0
C916 C 0.67336 0.20116 0.93816 0.0
H917 H 0.73586 0.24267 0.95842 0.0
C918 C 0.68843 0.21357 0.92624 0.0
C919 C 0.69031 0.21267 0.94993 0.0
C920 C 0.67488 0.20107 0.96303 0.0
C921 C 0.72057 0.23578 0.92575 0.0
C922 C 0.73795 0.24566 0.93748 0.0
C923 C 0.72249 0.23477 0.94944 0.0
C924 C 0.77255 0.26539 0.93741 0.0
C925 C 0.73599 0.24784 0.91269 0.0
C926 C 0.79086 0.25285 0.93291 0.0
C927 C 0.82353 0.27118 0.93274 0.0
C928 C 0.83861 0.30258 0.93699 0.0
C929 C 0.82007 0.31489 0.9417 0.0
C930 C 0.78733 0.29637 0.94197 0.0
H931 H 0.71852 0.24363 0.90495 0.0
H932 H 0.75317 0.27336 0.91319 0.0
H933 H 0.74886 0.23558 0.90989 0.0
H934 H 0.77983 0.22878 0.92955 0.0
H935 H 0.83695 0.26065 0.92931 0.0
H936 H 0.23403 0.09456 0.4305 0.0
H937 H 0.21283 0.12988 0.43231 0.0
H938 H 0.18817 0.10238 0.47241 0.0
H939 H 0.21055 0.06792 0.47086 0.0
H940 H 0.1535 0.11999 0.4388 0.0
H941 H 0.24349 0.19748 0.47487 0.0
H942 H 0.24671 0.16781 0.46581 0.0
H943 H 0.22054 0.15697 0.47949 0.0
C944 C 0.22437 0.09618 0.43975 0.0
C945 C 0.22445 0.07869 0.45059 0.0
C946 C 0.21192 0.11615 0.44073 0.0
C947 C 0.19929 0.1191 0.45254 0.0
C948 C 0.19825 0.10085 0.46325 0.0
H949 H 0.11296 0.23991 0.45753 0.0
H950 H 0.11841 0.19294 0.45868 0.0
C951 C 0.21081 0.08093 0.46231 0.0
C952 C 0.18863 0.14239 0.4537 0.0
H953 H 0.20645 0.21158 0.46843 0.0
C954 C 0.1648 0.13986 0.44537 0.0
C955 C 0.20359 0.1684 0.46223 0.0
C956 C 0.23017 0.17312 0.47105 0.0
C957 C 0.15613 0.1631 0.44509 0.0
C958 C 0.17149 0.18932 0.45347 0.0
C959 C 0.19458 0.19131 0.46208 0.0
C960 C 0.16688 0.21682 0.45242 0.0
C961 C 0.13172 0.16023 0.43544 0.0
C962 C 0.19225 0.2457 0.44857 0.0
C963 C 0.1893 0.27237 0.44797 0.0
C964 C 0.16086 0.27094 0.45125 0.0
C965 C 0.13517 0.24184 0.45493 0.0
C966 C 0.13821 0.21497 0.45555 0.0
H967 H 0.12547 0.14092 0.42834 0.0
H968 H 0.11015 0.15544 0.44075 0.0
H969 H 0.14023 0.18252 0.42998 0.0
H970 H 0.21454 0.24765 0.44608 0.0
H971 H 0.2096 0.29422 0.44502 0.0
H972 H 1.01516 0.15759 0.45182 0.0
H973 H 0.98101 0.10057 0.45027 0.0
H974 H 0.90046 0.11258 0.44636 0.0
H975 H 0.93441 0.16951 0.44762 0.0
H976 H 0.92986 0.06104 0.46669 0.0
H977 H 0.89202 0.05547 0.41543 0.0
H978 H 0.92593 0.08945 0.42213 0.0
H979 H 0.8872 0.08317 0.4251 0.0
C980 C 0.99021 0.14809 0.45045 0.0
C981 C 0.97749 0.16809 0.44977 0.0
C982 C 0.97075 0.11553 0.44965 0.0
C983 C 0.9383 0.10241 0.44801 0.0
C984 C 0.92553 0.12227 0.4474 0.0
H985 H 0.7655 0.93654 0.44902 0.0
H986 H 0.81185 0.98818 0.44789 0.0
C987 C 0.94491 0.15478 0.44825 0.0
C988 C 0.91742 0.06792 0.44735 0.0
H989 H 0.86041 1.01026 0.42865 0.0
C990 C 0.91504 0.04974 0.4583 0.0
C991 C 0.89838 0.05327 0.43633 0.0
C992 C 0.90118 0.07128 0.42403 0.0
C993 C 0.89257 0.01762 0.45885 0.0
C994 C 0.87234 1.00341 0.4481 0.0
C995 C 0.87591 0.02126 0.43689 0.0
C996 C 0.84479 0.97135 0.44886 0.0
C997 C 0.88936 0.99953 0.47117 0.0
C998 C 0.84792 0.94456 0.44976 0.0
C999 C 0.82118 0.91459 0.45042 0.0
C1000 C 0.791 0.91109 0.45019 0.0
C1001 C 0.78824 0.93814 0.44925 0.0
C1002 C 0.81477 0.96782 0.44857 0.0
H1003 H 0.90435 0.01494 0.47917 0.0
H1004 H 0.86458 0.98704 0.4745 0.0
H1005 H 0.89624 0.98164 0.46918 0.0
H1006 H 0.87095 0.94681 0.44984 0.0
H1007 H 0.82416 0.89427 0.45107 0.0
H1008 H 0.17057 0.95252 0.45138 0.0
H1009 H 0.11862 0.94837 0.45249 0.0
H1010 H 0.07455 0.84947 0.44414 0.0
H1011 H 0.12546 0.85317 0.44298 0.0
H1012 H 0.06569 0.91904 0.43162 0.0
H1013 H 0.03595 0.85946 0.47968 0.0
H1014 H 0.07591 0.88404 0.47422 0.0
H1015 H 0.05307 0.84448 0.46834 0.0
C1016 C 0.14979 0.92996 0.44975 0.0
C1017 C 0.15225 0.90317 0.44718 0.0
C1018 C 0.1202 0.92765 0.45038 0.0
C1019 C 0.09285 0.89852 0.44855 0.0
C1020 C 0.09538 0.87207 0.44573 0.0
H1021 H 0.89718 0.79096 0.44361 0.0
H1022 H 0.95424 0.81532 0.44443 0.0
C1023 C 0.12465 0.87432 0.44506 0.0
C1024 C 0.06119 0.89473 0.44962 0.0
H1025 H 0.99283 0.85246 0.46644 0.0
C1026 C 0.04985 0.9052 0.43938 0.0
C1027 C 0.04068 0.87657 0.45976 0.0
C1028 C 0.05202 0.86568 0.4712 0.0
C1029 C 1.01789 0.89615 0.43859 0.0
C1030 C 0.99706 0.87636 0.44833 0.0
C1031 C 1.00883 0.86743 0.45894 0.0
C1032 C 0.96264 0.86246 0.44723 0.0
C1033 C 1.00622 0.90618 0.42699 0.0
C1034 C 0.9485 0.88096 0.44849 0.0
C1035 C 0.9158 0.86706 0.44812 0.0
C1036 C 0.89669 0.83438 0.44652 0.0
C1037 C 0.91111 0.81608 0.44504 0.0
C1038 C 0.94372 0.82998 0.44544 0.0
H1039 H 0.02473 0.91832 0.41949 0.0
H1040 H 0.98594 0.8855 0.42244 0.0
H1041 H 0.99809 0.92242 0.43025 0.0
H1042 H 0.9627 0.90601 0.45006 0.0
H1043 H 0.90547 0.88179 0.44949 0.0
H1044 H 0.46966 0.93314 0.27519 0.0
H1045 H 0.50262 0.90892 0.27568 0.0
H1046 H 0.42362 0.82043 0.26402 0.0
H1047 H 0.39053 0.84459 0.26332 0.0
H1048 H 0.49163 0.85326 0.29073 0.0
H1049 H 0.49475 0.8386 0.23697 0.0
H1050 H 0.48423 0.86565 0.24407 0.0
H1051 H 0.45707 0.82428 0.24456 0.0
C1052 C 0.45932 0.90857 0.27266 0.0
C1053 C 0.4275 0.89083 0.26917 0.0
C1054 C 0.47813 0.89473 0.27302 0.0
C1055 C 0.4656 0.86299 0.26977 0.0
C1056 C 0.43379 0.84505 0.26644 0.0
H1057 H 0.58215 0.7732 0.26136 0.0
H1058 H 0.53492 0.7783 0.26227 0.0
C1059 C 0.41488 0.85883 0.26615 0.0
C1060 C 0.48613 0.84896 0.26989 0.0
H1061 H 0.52525 0.82459 0.24989 0.0
C1062 C 0.4987 0.84662 0.28183 0.0
C1063 C 0.49499 0.83996 0.25827 0.0
C1064 C 0.48228 0.8423 0.24519 0.0
C1065 C 0.52079 0.83658 0.28241 0.0
C1066 C 0.5311 0.82937 0.27071 0.0
C1067 C 0.51732 0.83013 0.25884 0.0
C1068 C 0.55886 0.82508 0.27048 0.0
C1069 C 0.53339 0.83439 0.29554 0.0
C1070 C 0.58789 0.84976 0.27461 0.0
C1071 C 0.61465 0.84699 0.27407 0.0
C1072 C 0.6132 0.81948 0.2693 0.0
C1073 C 0.58406 0.79464 0.26513 0.0
C1074 C 0.5571 0.79752 0.26563 0.0
H1075 H 0.51625 0.83015 0.30342 0.0
H1076 H 0.5392 0.81531 0.29571 0.0
H1077 H 0.55505 0.8569 0.29767 0.0
H1078 H 0.58997 0.8715 0.27809 0.0
H1079 H 0.63658 0.8667 0.27736 0.0
H1080 H 0.19236 0.79139 0.26734 0.0
H1081 H 0.18624 0.73957 0.26979 0.0
H1082 H 0.28658 0.77947 0.26847 0.0
H1083 H 0.29315 0.83208 0.26588 0.0
H1084 H 0.25284 0.72541 0.25268 0.0
H1085 H 0.20455 0.70428 0.30269 0.0
H1086 H 0.18423 0.71669 0.29186 0.0
H1087 H 0.22498 0.74292 0.29549 0.0
C1088 C 0.21329 0.78942 0.26759 0.0
C1089 C 0.24332 0.81609 0.26647 0.0
C1090 C 0.20968 0.75965 0.26908 0.0
C1091 C 0.23594 0.75572 0.26959 0.0
C1092 C 0.26601 0.78208 0.26823 0.0
H1093 H 0.19817 0.5666 0.29017 0.0
H1094 H 0.22207 0.62378 0.28986 0.0
C1095 C 0.2697 0.8121 0.26675 0.0
C1096 C 0.23133 0.72373 0.27116 0.0
H1097 H 0.19362 0.65841 0.29025 0.0
C1098 C 0.24037 0.71088 0.26099 0.0
C1099 C 0.21555 0.70494 0.28211 0.0
C1100 C 0.20706 0.71801 0.29372 0.0
C1101 C 0.23235 0.67917 0.26113 0.0
C1102 C 0.21432 0.65975 0.27159 0.0
C1103 C 0.20701 0.67314 0.28213 0.0
C1104 C 0.20125 0.62523 0.27148 0.0
C1105 C 0.24297 0.66674 0.24998 0.0
C1106 C 0.18131 0.60698 0.26134 0.0
C1107 C 0.1678 0.57437 0.26144 0.0
C1108 C 0.17361 0.55917 0.27178 0.0
C1109 C 0.19347 0.57752 0.28198 0.0
C1110 C 0.20706 0.61021 0.28185 0.0
H1111 H 0.26453 0.68573 0.24535 0.0
H1112 H 0.24767 0.648 0.25328 0.0
H1113 H 0.22432 0.6568 0.24244 0.0
H1114 H 0.17583 0.61793 0.25339 0.0
H1115 H 0.15298 0.5611 0.25334 0.0
H1116 H 0.50449 0.6117 0.24832 0.0
H1117 H 0.44768 0.57802 0.24982 0.0
H1118 H 0.44799 0.6195 0.2869 0.0
H1119 H 0.50505 0.65337 0.28547 0.0
H1120 H 0.41299 0.55608 0.28749 0.0
H1121 H 0.3796 0.60027 0.24439 0.0
H1122 H 0.40788 0.58879 0.24037 0.0
H1123 H 0.41838 0.62096 0.25144 0.0
C1124 C 0.49245 0.61393 0.25673 0.0
C1125 C 0.50928 0.63535 0.26674 0.0
C1126 C 0.45994 0.59475 0.25755 0.0
C1127 C 0.44347 0.59677 0.26832 0.0
C1128 C 0.4602 0.61778 0.27843 0.0
H1129 H 0.23618 0.48354 0.26805 0.0
H1130 H 0.28932 0.52929 0.26947 0.0
C1131 C 0.49281 0.63695 0.27765 0.0
C1132 C 0.40903 0.57561 0.26928 0.0
H1133 H 0.34072 0.54917 0.25225 0.0
C1134 C 0.39713 0.55493 0.27989 0.0
C1135 C 0.38817 0.57449 0.2595 0.0
C1136 C 0.39911 0.59756 0.24836 0.0
C1137 C 0.3653 0.53191 0.28057 0.0
C1138 C 0.34498 0.52915 0.27026 0.0
C1139 C 0.35642 0.55105 0.26006 0.0
C1140 C 0.31271 0.50198 0.26932 0.0
C1141 C 0.35385 0.51034 0.29223 0.0
C1142 C 0.30838 0.47167 0.26844 0.0
C1143 C 0.27833 0.44569 0.26762 0.0
C1144 C 0.25175 0.44935 0.26755 0.0
C1145 C 0.2561 0.47986 0.26812 0.0
C1146 C 0.28641 0.506 0.26895 0.0
H1147 H 0.36895 0.52147 0.30089 0.0
H1148 H 0.32932 0.50354 0.29473 0.0
H1149 H 0.35465 0.48871 0.28995 0.0
H1150 H 0.32836 0.46808 0.26838 0.0
H1151 H 0.27605 0.42267 0.26708 0.0
H1152 H 0.87784 0.63591 0.77221 0.0
H1153 H 0.88648 0.59149 0.77209 0.0
H1154 H 0.79465 0.53274 0.78859 0.0
H1155 H 0.78541 0.57742 0.78851 0.0
H1156 H 0.88807 0.56007 0.79361 0.0
H1157 H 0.79723 0.47853 0.75877 0.0
H1158 H 0.80851 0.51943 0.76 0.0
H1159 H 0.78315 0.49199 0.77204 0.0
C1160 C 0.85928 0.61356 0.77576 0.0
C1161 C 0.831 0.61032 0.78049 0.0
C1162 C 0.86429 0.58812 0.77565 0.0
C1163 C 0.84123 0.55876 0.78028 0.0
C1164 C 0.81261 0.55509 0.78478 0.0
H1165 H 0.89509 0.42051 0.80201 0.0
H1166 H 0.87355 0.45578 0.80216 0.0
C1167 C 0.80743 0.58067 0.78481 0.0
C1168 C 0.8485 0.53295 0.78104 0.0
H1169 H 0.82829 0.46047 0.76906 0.0
C1170 C 0.87489 0.53821 0.78829 0.0
C1171 C 0.83147 0.50462 0.77399 0.0
C1172 C 0.80365 0.49825 0.76566 0.0
C1173 C 0.88508 0.51625 0.78852 0.0
C1174 C 0.8679 0.48774 0.78159 0.0
C1175 C 0.84127 0.48225 0.77444 0.0
C1176 C 0.87804 0.46398 0.78134 0.0
C1177 C 0.91484 0.52435 0.79582 0.0
C1178 C 0.8865 0.45583 0.76952 0.0
C1179 C 0.89861 0.43545 0.76939 0.0
C1180 C 0.90256 0.423 0.78111 0.0
C1181 C 0.89298 0.43032 0.79286 0.0
C1182 C 0.88063 0.45042 0.79296 0.0
H1183 H 0.92933 0.54996 0.79767 0.0
H1184 H 0.90873 0.51225 0.80539 0.0
H1185 H 0.92923 0.51663 0.79033 0.0
H1186 H 0.8846 0.46596 0.76043 0.0
H1187 H 0.90579 0.43023 0.76019 0.0
H1188 H 0.68245 0.49007 0.78204 0.0
H1189 H 0.64923 0.43291 0.78076 0.0
H1190 H 0.56992 0.44333 0.77065 0.0
H1191 H 0.60303 0.50039 0.77163 0.0
H1192 H 0.59506 0.39493 0.79553 0.0
H1193 H 0.56819 0.38273 0.74273 0.0
H1194 H 0.60027 0.41784 0.74971 0.0
H1195 H 0.56089 0.41114 0.75048 0.0
C1196 C 0.65804 0.48019 0.77933 0.0
C1197 C 0.64539 0.49979 0.77688 0.0
C1198 C 0.63909 0.44754 0.77868 0.0
C1199 C 0.60724 0.43389 0.77543 0.0
C1200 C 0.59458 0.45338 0.77294 0.0
H1201 H 0.43464 0.26816 0.77494 0.0
H1202 H 0.48132 0.31951 0.77359 0.0
C1203 C 0.61345 0.48598 0.77364 0.0
C1204 C 0.58666 0.3993 0.77525 0.0
H1205 H 0.53356 0.33918 0.75626 0.0
C1206 C 0.58203 0.38254 0.78689 0.0
C1207 C 0.56994 0.38321 0.76393 0.0
C1208 C 0.57527 0.39958 0.75097 0.0
C1209 C 0.55948 0.35049 0.78774 0.0
C1210 C 0.54147 0.33486 0.77661 0.0
C1211 C 0.54737 0.35125 0.76479 0.0
C1212 C 0.51373 0.30291 0.77739 0.0
C1213 C 0.55373 0.33402 0.8007 0.0
C1214 C 0.51645 0.27631 0.77993 0.0
C1215 C 0.48952 0.2465 0.78073 0.0
C1216 C 0.45954 0.24297 0.77901 0.0
C1217 C 0.4572 0.26979 0.77638 0.0
C1218 C 0.48393 0.29931 0.77556 0.0
H1219 H 0.56716 0.35045 0.80873 0.0
H1220 H 0.52838 0.32196 0.80316 0.0
H1221 H 0.56082 0.31592 0.80009 0.0
H1222 H 0.53932 0.27859 0.78123 0.0
H1223 H 0.49218 0.22634 0.7827 0.0
H1224 H 0.57484 0.21157 0.78259 0.0
H1225 H 0.63191 0.23445 0.78183 0.0
H1226 H 0.62005 0.14266 0.77516 0.0
H1227 H 0.56311 0.11974 0.77557 0.0
H1228 H 0.66994 0.22072 0.79783 0.0
H1229 H 0.68028 0.19558 0.74604 0.0
H1230 H 0.64551 0.19412 0.75255 0.0
H1231 H 0.652 0.16155 0.7548 0.0
C1232 C 0.58438 0.19631 0.78076 0.0
C1233 C 0.56437 0.16381 0.77907 0.0
C1234 C 0.617 0.20942 0.78042 0.0
C1235 C 0.63023 0.19034 0.77825 0.0
C1236 C 0.61035 0.15791 0.77661 0.0
H1237 H 0.79755 0.18508 0.77993 0.0
H1238 H 0.74556 0.17894 0.7789 0.0
C1239 C 0.57779 0.14479 0.77699 0.0
C1240 C 0.66479 0.20393 0.77809 0.0
H1241 H 0.72423 0.20722 0.75978 0.0
C1242 C 0.68199 0.21832 0.78945 0.0
C1243 C 0.68048 0.20102 0.7671 0.0
C1244 C 0.66369 0.18752 0.75438 0.0
C1245 C 0.71409 0.22803 0.79036 0.0
C1246 C 0.72932 0.2235 0.7796 0.0
C1247 C 0.71245 0.21057 0.76804 0.0
C1248 C 0.76154 0.22845 0.78057 0.0
C1249 C 0.73112 0.24146 0.80304 0.0
C1250 C 0.78799 0.2585 0.78188 0.0
C1251 C 0.81819 0.26224 0.78248 0.0
C1252 C 0.82227 0.23594 0.78175 0.0
C1253 C 0.79553 0.20596 0.78052 0.0
C1254 C 0.76564 0.20232 0.7799 0.0
H1255 H 0.71505 0.24013 0.81092 0.0
H1256 H 0.74332 0.22877 0.80623 0.0
H1257 H 0.74918 0.26644 0.80159 0.0
H1258 H 0.78532 0.27903 0.78228 0.0
H1259 H 0.83823 0.28565 0.78337 0.0
H1260 H 0.05538 0.1756 0.59995 0.0
H1261 H 0.08981 0.15302 0.60101 0.0
H1262 H 0.16942 0.24522 0.60735 0.0
H1263 H 0.13516 0.26784 0.60664 0.0
H1264 H 0.14101 0.16676 0.58492 0.0
H1265 H 0.17817 0.19334 0.63649 0.0
H1266 H 0.14454 0.19445 0.63012 0.0
H1267 H 0.18344 0.22712 0.62767 0.0
C1268 C 0.08015 0.191 0.60179 0.0
C1269 C 0.09252 0.22353 0.60327 0.0
C1270 C 0.09979 0.17807 0.60231 0.0
C1271 C 0.13208 0.19737 0.60445 0.0
C1272 C 0.14448 0.22981 0.60594 0.0
H1273 H 0.30558 0.20502 0.60139 0.0
H1274 H 0.25939 0.21047 0.60324 0.0
C1275 C 0.12491 0.24276 0.60538 0.0
C1276 C 0.15324 0.18405 0.60457 0.0
H1277 H 0.21056 0.18212 0.62256 0.0
C1278 C 0.15584 0.16954 0.59322 0.0
C1279 C 0.17234 0.18749 0.61546 0.0
C1280 C 0.1693 0.20116 0.62817 0.0
C1281 C 0.17851 0.16025 0.59218 0.0
C1282 C 0.19876 0.16533 0.60283 0.0
C1283 C 0.19505 0.17836 0.6144 0.0
C1284 C 0.22624 0.16083 0.60168 0.0
C1285 C 0.18186 0.14673 0.57949 0.0
C1286 C 0.22292 0.13094 0.60022 0.0
C1287 C 0.24953 0.12762 0.59915 0.0
C1288 C 0.27979 0.15418 0.59951 0.0
C1289 C 0.28277 0.18398 0.60102 0.0
C1290 C 0.25634 0.18721 0.60212 0.0
H1291 H 0.16688 0.1479 0.57166 0.0
H1292 H 0.20665 0.15944 0.57619 0.0
H1293 H 0.17503 0.12178 0.58096 0.0
H1294 H 0.19983 0.11023 0.60001 0.0
H1295 H 0.24636 0.10434 0.59807 0.0
H1296 H 0.88395 0.89643 0.59859 0.0
H1297 H 0.90656 0.95346 0.59973 0.0
H1298 H 0.81421 0.94096 0.60529 0.0
H1299 H 0.79153 0.88404 0.60449 0.0
H1300 H 0.89343 0.99162 0.58351 0.0
H1301 H 0.86518 1.00053 0.63502 0.0
H1302 H 0.86439 0.96603 0.62852 0.0
H1303 H 0.8318 0.97229 0.62591 0.0
C1304 C 0.86851 0.90582 0.60026 0.0
C1305 C 0.83592 0.88566 0.60151 0.0
C1306 C 0.88146 0.9384 0.60082 0.0
C1307 C 0.86213 0.95142 0.60278 0.0
C1308 C 0.82963 0.93139 0.60401 0.0
H1309 H 0.85545 0.11788 0.60076 0.0
H1310 H 0.84979 0.06609 0.60213 0.0
C1311 C 0.81666 0.89887 0.60341 0.0
C1312 C 0.87555 0.98594 0.60307 0.0
H1313 H 0.87736 0.04476 0.62135 0.0
C1314 C 0.89048 1.00343 0.59186 0.0
C1315 C 0.8719 1.00129 0.61402 0.0
C1316 C 0.85773 0.98414 0.6266 0.0
C1317 C 0.9 0.03549 0.59101 0.0
C1318 C 0.89474 0.05038 0.60171 0.0
C1319 C 0.88128 0.03324 0.61315 0.0
C1320 C 0.89942 0.08249 0.60073 0.0
C1321 C 0.91398 0.0528 0.57844 0.0
C1322 C 0.92938 0.10909 0.5995 0.0
C1323 C 0.93283 0.13914 0.5987 0.0
C1324 C 0.90633 0.14293 0.59913 0.0
C1325 C 0.87646 0.11606 0.60037 0.0
C1326 C 0.87311 0.0863 0.60119 0.0
H1327 H 0.91297 0.03688 0.57054 0.0
H1328 H 0.90148 0.06511 0.57516 0.0
H1329 H 0.9389 0.07079 0.58009 0.0
H1330 H 0.95003 0.10664 0.59927 0.0
H1331 H 0.95616 0.15931 0.59782 0.0
H1332 H 0.17293 0.92699 0.59981 0.0
H1333 H 0.11613 0.89246 0.60103 0.0
H1334 H 0.10447 0.97179 0.60944 0.0
H1335 H 0.16143 1.00657 0.60866 0.0
H1336 H 0.07375 0.88929 0.6241 0.0
H1337 H 0.04793 0.92328 0.57577 0.0
H1338 H 0.08581 0.92756 0.57936 0.0
H1339 H 0.07457 0.95338 0.58681 0.0
C1340 C 0.15843 0.93713 0.60213 0.0
C1341 C 0.17186 0.96963 0.60412 0.0
C1342 C 0.12595 0.91737 0.60272 0.0
C1343 C 0.10623 0.92969 0.6052 0.0
C1344 C 0.11938 0.96196 0.60737 0.0
H1345 H 0.89915 0.81384 0.60069 0.0
H1346 H 0.9515 0.86061 0.60295 0.0
C1347 C 0.15191 0.98176 0.60686 0.0
C1348 C 0.07187 0.90848 0.6055 0.0
H1349 H 1.00591 0.8816 0.58683 0.0
C1350 C 0.0588 0.88786 0.61605 0.0
C1351 C 0.05247 0.90703 0.59505 0.0
C1352 C 0.06569 0.92886 0.58354 0.0
C1353 C 0.02692 0.86492 0.61619 0.0
C1354 C 1.00787 0.86208 0.60534 0.0
C1355 C 1.02059 0.8838 0.59511 0.0
C1356 C 0.97606 0.83447 0.60379 0.0
C1357 C 1.01405 0.84346 0.62784 0.0
C1358 C 0.97273 0.80453 0.60317 0.0
C1359 C 0.9432 0.77805 0.60187 0.0
C1360 C 0.91613 0.78078 0.60106 0.0
C1361 C 0.91949 0.81091 0.60133 0.0
C1362 C 0.94933 0.83761 0.60264 0.0
H1363 H 0.02794 0.85479 0.63676 0.0
H1364 H 0.98917 0.83646 0.62967 0.0
H1365 H 1.01537 0.82193 0.62599 0.0
H1366 H 0.99311 0.80163 0.60369 0.0
H1367 H 0.94172 0.75536 0.60155 0.0
H1368 H 0.53396 1.00872 0.07955 0.0
H1369 H 0.55238 1.01235 0.0569 0.0
H1370 H 0.50508 0.06283 0.04617 0.0
H1371 H 0.48643 0.0587 0.06852 0.0
H1372 H 0.5083 0.985 0.0362 0.0
H1373 H 0.5888 0.11079 0.02643 0.0
H1374 H 0.58086 0.09459 0.04272 0.0
H1375 H 0.55408 0.10421 0.03484 0.0
C1376 C 0.52871 0.02169 0.07243 0.0
C1377 C 0.50928 0.03393 0.07575 0.0
C1378 C 0.53899 0.02354 0.0595 0.0
C1379 C 0.53046 0.03822 0.04984 0.0
C1380 C 0.5126 0.05203 0.05345 0.0
H1381 H 0.45758 0.01597 0.97729 0.0
H1382 H 0.47314 1.01153 0.9994 0.0
C1383 C 0.50193 0.04967 0.06623 0.0
C1384 C 0.53581 0.03546 0.03574 0.0
H1385 H 0.55917 0.07906 1.00781 0.0
C1386 C 0.5203 1.00553 0.03001 0.0
C1387 C 0.55162 0.06214 0.02762 0.0
C1388 C 0.57006 0.09474 0.03323 0.0
C1389 C 0.5177 1.00183 1.01639 0.0
C1390 C 0.53088 0.02869 1.0083 0.0
C1391 C 0.5489 0.05843 1.01399 0.0
C1392 C 0.52136 0.02685 0.99442 0.0
C1393 C 0.49927 0.96926 1.01075 0.0
C1394 C 0.5432 0.03645 0.98415 0.0
C1395 C 0.53407 0.03838 0.97133 0.0
C1396 C 0.50324 0.03154 0.96878 0.0
C1397 C 0.48139 0.02107 0.979 0.0
C1398 C 0.49026 0.0185 0.99164 0.0
H1399 H 0.49895 0.95145 1.01749 0.0
H1400 H 0.47467 0.96352 1.00913 0.0
H1401 H 0.50916 0.96769 1.00123 0.0
H1402 H 0.56742 0.04335 0.98613 0.0
H1403 H 0.55145 0.0471 0.96364 0.0
H1404 H 0.07168 0.5158 0.97097 0.0
H1405 H 0.07567 0.53099 0.99405 0.0
H1406 H 0.97541 0.49212 0.9955 0.0
H1407 H 0.97136 0.47558 0.97273 0.0
H1408 H 0.05964 0.56479 1.01054 0.0
H1409 H 0.98689 0.43762 1.02141 0.0
H1410 H 1.00199 0.45201 1.00535 0.0
H1411 H 0.96762 0.45227 1.01115 0.0
C1412 C 0.05071 0.51151 0.97614 0.0
C1413 C 0.02123 0.49465 0.97015 0.0
C1414 C 0.05293 0.51998 0.98934 0.0
C1415 C 0.02571 0.51186 0.99665 0.0
C1416 C 0.99663 0.49781 0.99021 0.0
H1417 H 1.00492 0.49913 0.08227 0.0
H1418 H 0.99469 0.50792 0.05954 0.0
C1419 C 0.99437 0.48875 0.97716 0.0
C1420 C 0.02729 0.51503 1.01114 0.0
H1421 H 1.00217 0.47203 0.03925 0.0
C1422 C 0.04687 0.54454 1.01681 0.0
C1423 C 1.01073 0.48858 1.0194 0.0
C1424 C 0.99087 0.4558 1.01405 0.0
C1425 C 0.05062 0.54819 0.03043 0.0
C1426 C 0.03447 0.52167 0.03861 0.0
C1427 C 1.01414 0.49242 0.03298 0.0
C1428 C 0.04165 0.52251 0.05274 0.0
C1429 C 0.07222 0.58031 0.03598 0.0
C1430 C 0.07146 0.52832 0.0565 0.0
C1431 C 0.07708 0.52292 0.0693 0.0
C1432 C 0.05317 0.51194 0.0787 0.0
C1433 C 0.02385 0.50806 0.07524 0.0
C1434 C 1.018 0.51294 0.06227 0.0
H1435 H 0.07512 0.59911 0.02915 0.0
H1436 H 0.06332 0.58361 0.04544 0.0
H1437 H 0.09568 0.58293 0.03765 0.0
H1438 H 0.08987 0.53505 0.04932 0.0
H1439 H 0.09984 0.52588 0.07172 0.0
H1440 H 0.55483 0.58865 0.97233 0.0
H1441 H 0.54147 0.57882 0.99557 0.0
H1442 H 0.55959 0.5017 0.99466 0.0
H1443 H 0.57413 0.51242 0.97159 0.0
H1444 H 0.50182 0.53109 1.01204 0.0
H1445 H 0.62516 0.56021 1.02011 0.0
H1446 H 0.61138 0.56521 1.00452 0.0
H1447 H 0.60284 0.52687 1.00979 0.0
C1448 C 0.55472 0.56885 0.977 0.0
C1449 C 0.56508 0.55101 0.9702 0.0
C1450 C 0.54735 0.56338 0.99031 0.0
C1451 C 0.55033 0.54003 0.99699 0.0
C1452 C 0.55787 0.52035 0.98984 0.0
H1453 H 0.56849 0.53331 0.08284 0.0
H1454 H 0.55573 0.51306 0.06029 0.0
C1455 C 0.56569 0.52613 0.97661 0.0
C1456 C 0.54881 0.53861 1.01153 0.0
H1457 H 0.59373 0.5497 0.03866 0.0
C1458 C 0.5218 0.53479 1.01785 0.0
C1459 C 0.5749 0.54349 1.01919 0.0
C1460 C 0.60532 0.54946 1.0131 0.0
C1461 C 0.52049 0.5365 0.03152 0.0
C1462 C 0.54692 0.5424 0.0391 0.0
C1463 C 0.57335 0.54481 0.03285 0.0
C1464 C 0.54966 0.5511 0.05315 0.0
C1465 C 0.49105 0.53269 0.03775 0.0
C1466 C 0.55021 0.5789 0.05663 0.0
C1467 C 0.55786 0.59054 0.06931 0.0
C1468 C 0.56488 0.57457 0.07888 0.0
C1469 C 0.56282 0.54586 0.07566 0.0
C1470 C 0.55565 0.53439 0.0628 0.0
H1471 H 0.47021 0.51872 0.03146 0.0
H1472 H 0.48691 0.52113 0.04742 0.0
H1473 H 0.49353 0.55617 0.03917 0.0
H1474 H 0.54634 0.59256 0.04935 0.0
H1475 H 0.55936 0.61278 0.07151 0.0
H1476 H 0.20527 0.38805 0.41773 0.0
H1477 H 0.22427 0.39638 0.39497 0.0
H1478 H 0.13958 0.31284 0.38325 0.0
H1479 H 0.12061 0.30472 0.40565 0.0
H1480 H 0.19941 0.32299 0.37112 0.0
H1481 H 0.1778 0.42363 0.36747 0.0
H1482 H 0.20175 0.42315 0.38064 0.0
H1483 H 0.16068 0.39486 0.38031 0.0
C1484 C 0.19116 0.37119 0.41031 0.0
C1485 C 0.16142 0.34586 0.41341 0.0
C1486 C 0.20191 0.376 0.39733 0.0
C1487 C 0.1832 0.35528 0.3874 0.0
C1488 C 0.15442 0.32907 0.39072 0.0
H1489 H 0.14885 0.32364 0.30581 0.0
H1490 H 0.15915 0.31881 0.32883 0.0
C1491 C 0.14358 0.32454 0.40354 0.0
C1492 C 0.19146 0.36193 0.37336 0.0
H1493 H 0.18802 0.40534 0.34817 0.0
C1494 C 0.19756 0.34138 0.36609 0.0
C1495 C 0.18893 0.38582 0.36682 0.0
C1496 C 0.18181 0.40816 0.37412 0.0
C1497 C 0.2005 0.34368 0.35241 0.0
C1498 C 0.19622 0.36651 0.34577 0.0
C1499 C 0.19135 0.38781 0.35316 0.0
C1500 C 0.1945 0.36778 0.33123 0.0
C1501 C 0.20808 0.32152 0.34527 0.0
C1502 C 0.21106 0.39671 0.32472 0.0
C1503 C 0.20464 0.3995 0.31166 0.0
C1504 C 0.18208 0.37333 0.30473 0.0
C1505 C 0.16707 0.34394 0.31086 0.0
C1506 C 0.17301 0.34122 0.32405 0.0
H1507 H 0.22199 0.3145 0.35151 0.0
H1508 H 0.18591 0.29988 0.34271 0.0
H1509 H 0.2214 0.33217 0.33617 0.0
H1510 H 0.22768 0.41758 0.32997 0.0
H1511 H 0.21602 0.42252 0.30719 0.0
H1512 H 0.75995 0.87593 0.41189 0.0
H1513 H 0.75505 0.88711 0.38903 0.0
H1514 H 0.65694 0.81656 0.38984 0.0
H1515 H 0.66171 0.80661 0.4129 0.0
H1516 H 0.74392 0.84696 0.37095 0.0
H1517 H 0.65139 0.87845 0.36687 0.0
H1518 H 0.66915 0.87869 0.3823 0.0
H1519 H 0.6374 0.84269 0.37584 0.0
C1520 C 0.73703 0.86402 0.40732 0.0
C1521 C 0.71103 0.84099 0.41417 0.0
C1522 C 0.73427 0.87016 0.39422 0.0
C1523 C 0.70557 0.85289 0.3876 0.0
C1524 C 0.67915 0.83094 0.3947 0.0
H1525 H 0.64454 0.77797 0.3129 0.0
H1526 H 0.65183 0.79666 0.33535 0.0
C1527 C 0.68182 0.82521 0.40791 0.0
C1528 C 0.70451 0.85432 0.37306 0.0
H1529 H 0.66081 0.85599 0.34744 0.0
C1530 C 0.7262 0.84977 0.36583 0.0
C1531 C 0.68142 0.85789 0.36626 0.0
C1532 C 0.65877 0.86504 0.37324 0.0
C1533 C 0.7244 0.84697 0.35218 0.0
C1534 C 0.70031 0.84885 0.34548 0.0
C1535 C 0.67933 0.85462 0.35259 0.0
C1536 C 0.69414 0.84056 0.33142 0.0
C1537 C 0.74718 0.8402 0.34506 0.0
C1538 C 0.71507 0.85949 0.32161 0.0
C1539 C 0.71076 0.84888 0.30863 0.0
C1540 C 0.68568 0.81911 0.30538 0.0
C1541 C 0.66415 0.80098 0.31513 0.0
C1542 C 0.66821 0.81167 0.32797 0.0
H1543 H 0.76256 0.83635 0.35183 0.0
H1544 H 0.73429 0.81908 0.33881 0.0
H1545 H 0.76226 0.86026 0.33861 0.0
H1546 H 0.73523 0.88193 0.32408 0.0
H1547 H 0.72781 0.86317 0.30133 0.0
H1548 H 0.27415 0.94181 0.31011 0.0
H1549 H 0.25416 0.92887 0.33229 0.0
H1550 H 0.18155 0.83774 0.31943 0.0
H1551 H 0.20162 0.85102 0.29684 0.0
H1552 H 0.1919 0.90638 0.34391 0.0
H1553 H 0.23668 0.82255 0.34709 0.0
H1554 H 0.24956 0.85165 0.33434 0.0
H1555 H 0.21049 0.81869 0.33403 0.0
C1556 C 0.25343 0.91927 0.31192 0.0
C1557 C 0.23939 0.8974 0.3018 0.0
C1558 C 0.24201 0.91191 0.32461 0.0
C1559 C 0.21657 0.88227 0.32756 0.0
C1560 C 0.20133 0.86073 0.31736 0.0
H1561 H 0.18496 0.87009 0.41331 0.0
H1562 H 0.16986 0.85617 0.39032 0.0
C1563 C 0.21258 0.86837 0.30448 0.0
C1564 C 0.20874 0.87395 0.34153 0.0
H1565 H 0.22644 0.84004 0.36673 0.0
C1566 C 0.19842 0.89107 0.34892 0.0
C1567 C 0.21767 0.85426 0.34802 0.0
C1568 C 0.22933 0.8357 0.34055 0.0
C1569 C 0.19878 0.89066 0.36263 0.0
C1570 C 0.20965 0.87253 0.36913 0.0
C1571 C 0.21798 0.85379 0.36174 0.0
C1572 C 0.21755 0.87692 0.38326 0.0
C1573 C 0.18993 0.91154 0.37007 0.0
C1574 C 0.24921 0.89214 0.38697 0.0
C1575 C 0.25781 0.90009 0.39999 0.0
C1576 C 0.23493 0.8928 0.40964 0.0
C1577 C 0.20308 0.876 0.40607 0.0
C1578 C 0.19445 0.86822 0.39295 0.0
H1579 H 0.18484 0.9264 0.36351 0.0
H1580 H 0.16874 0.89685 0.37603 0.0
H1581 H 0.20915 0.92703 0.37681 0.0
H1582 H 0.26744 0.89906 0.37969 0.0
H1583 H 0.28252 0.91289 0.40246 0.0
H1584 H 0.78263 0.66178 0.73368 0.0
H1585 H 0.80348 0.66664 0.71196 0.0
H1586 H 0.89749 0.71086 0.72745 0.0
H1587 H 0.87626 0.70643 0.74975 0.0
H1588 H 0.89299 0.74111 0.70555 0.0
H1589 H 0.83583 0.61526 0.69451 0.0
H1590 H 0.80714 0.62371 0.70104 0.0
H1591 H 0.83992 0.62972 0.71101 0.0
C1592 C 0.8078 0.67239 0.7326 0.0
C1593 C 0.82778 0.6835 0.74349 0.0
C1594 C 0.81969 0.67486 0.7201 0.0
C1595 C 0.85198 0.68812 0.71804 0.0
C1596 C 0.87239 0.69998 0.72884 0.0
H1597 H 0.85885 0.67621 0.63225 0.0
H1598 H 0.87579 0.67224 0.65454 0.0
C1599 C 0.86033 0.69756 0.74153 0.0
C1600 C 0.86332 0.69094 0.70436 0.0
H1601 H 0.84085 0.64939 0.67589 0.0
C1602 C 0.88245 0.72094 0.6991 0.0
C1603 C 0.85059 0.66467 0.69588 0.0
C1604 C 0.83255 0.63153 0.70096 0.0
C1605 C 0.88588 0.7256 0.68553 0.0
C1606 C 0.869 0.69975 0.67702 0.0
C1607 C 0.8532 0.66941 0.68232 0.0
C1608 C 0.86253 0.70411 0.66319 0.0
C1609 C 0.90635 0.75846 0.68046 0.0
C1610 C 0.84916 0.72288 0.66064 0.0
C1611 C 0.83953 0.72501 0.64811 0.0
C1612 C 0.84262 0.70818 0.63771 0.0
C1613 C 0.85633 0.68954 0.64009 0.0
C1614 C 0.86602 0.68733 0.65279 0.0
H1615 H 0.927 0.7718 0.68691 0.0
H1616 H 0.91471 0.7585 0.6704 0.0
H1617 H 0.89283 0.77096 0.68046 0.0
H1618 H 0.84504 0.73516 0.66846 0.0
H1619 H 0.82898 0.73952 0.64666 0.0
H1620 H 0.40785 0.16974 0.63757 0.0
H1621 H 0.41114 0.18488 0.66056 0.0
H1622 H 0.32002 0.17687 0.65771 0.0
H1623 H 0.31649 0.16094 0.63479 0.0
H1624 H 0.4066 0.22978 0.67567 0.0
H1625 H 0.3053 0.1103 0.68459 0.0
H1626 H 0.32557 0.12143 0.66918 0.0
H1627 H 0.29817 0.13405 0.67339 0.0
C1628 C 0.38915 0.17248 0.64174 0.0
C1629 C 0.36217 0.16474 0.63442 0.0
C1630 C 0.39088 0.18087 0.6549 0.0
C1631 C 0.36553 0.18136 0.66097 0.0
C1632 C 0.33962 0.17608 0.65333 0.0
H1633 H 0.34013 0.16827 0.74692 0.0
H1634 H 0.33285 0.18044 0.72424 0.0
C1635 C 0.3378 0.16746 0.6402 0.0
C1636 C 0.36508 0.18414 0.67545 0.0
H1637 H 0.32879 0.1419 0.70287 0.0
C1638 C 0.38931 0.21075 0.68161 0.0
C1639 C 0.34247 0.15934 0.68327 0.0
C1640 C 0.31652 0.12954 0.67733 0.0
C1641 C 0.39215 0.21275 0.69528 0.0
C1642 C 0.37044 0.18732 0.70304 0.0
C1643 C 0.34528 0.16148 0.69694 0.0
C1644 C 0.37622 0.18467 0.71712 0.0
C1645 C 0.41888 0.24178 0.7013 0.0
C1646 C 0.40296 0.18325 0.72067 0.0
C1647 C 0.40686 0.17602 0.73342 0.0
C1648 C 0.38425 0.1702 0.74302 0.0
C1649 C 0.35806 0.17301 0.73973 0.0
C1650 C 0.35388 0.17983 0.72679 0.0
H1651 H 0.42632 0.26257 0.69493 0.0
H1652 H 0.41236 0.24674 0.71101 0.0
H1653 H 0.43928 0.23824 0.70255 0.0
H1654 H 0.42017 0.18616 0.7134 0.0
H1655 H 0.42724 0.17393 0.73568 0.0
H1656 H 0.88475 0.24807 0.6372 0.0
H1657 H 0.87092 0.23745 0.66038 0.0
H1658 H 0.89739 0.16611 0.65997 0.0
H1659 H 0.91251 0.1778 0.637 0.0
H1660 H 0.83356 0.18865 0.67668 0.0
H1661 H 0.95899 0.22727 0.6858 0.0
H1662 H 0.94488 0.23081 0.67005 0.0
H1663 H 0.93936 0.19358 0.67542 0.0
C1664 C 0.88649 0.22937 0.64198 0.0
C1665 C 0.89937 0.21351 0.63536 0.0
C1666 C 0.87882 0.22343 0.65524 0.0
C1667 C 0.88393 0.20156 0.66205 0.0
C1668 C 0.89404 0.18368 0.65506 0.0
H1669 H 0.90005 0.19422 0.74784 0.0
H1670 H 0.88876 0.1743 0.72523 0.0
C1671 C 0.90222 0.19001 0.64189 0.0
C1672 C 0.88181 0.19989 0.67658 0.0
H1673 H 0.92621 0.21349 0.70407 0.0
C1674 C 0.85373 0.19375 0.68266 0.0
C1675 C 0.90816 0.20662 0.68446 0.0
C1676 C 0.93963 0.21523 0.67863 0.0
C1677 C 0.85154 0.19486 0.69632 0.0
C1678 C 0.87812 0.20246 0.70412 0.0
C1679 C 0.90574 0.20727 0.6981 0.0
C1680 C 0.87953 0.2104 0.7182 0.0
C1681 C 0.82096 0.18855 0.7023 0.0
C1682 C 0.87773 0.23694 0.72177 0.0
C1683 C 0.88455 0.24842 0.73449 0.0
C1684 C 0.89304 0.23351 0.74401 0.0
C1685 C 0.89317 0.20588 0.74071 0.0
C1686 C 0.88685 0.19462 0.72781 0.0
H1687 H 0.80079 0.17375 0.69581 0.0
H1688 H 0.8171 0.17676 0.7119 0.0
H1689 H 0.82155 0.21116 0.7038 0.0
H1690 H 0.87281 0.2499 0.71452 0.0
H1691 H 0.88441 0.26985 0.73677 0.0
H1692 H 0.25336 0.87779 0.21711 0.0
H1693 H 0.29199 0.89692 0.19937 0.0
H1694 H 0.35085 0.98087 0.22146 0.0
H1695 H 0.31143 0.96288 0.23864 0.0
H1696 H 0.3515 0.99701 0.19815 0.0
H1697 H 0.37139 0.89606 0.19615 0.0
H1698 H 0.33118 0.88438 0.19312 0.0
H1699 H 0.34833 0.90014 0.20882 0.0
C1700 C 0.27458 0.9003 0.21814 0.0
C1701 C 0.27959 0.91854 0.22939 0.0
C1702 C 0.29689 0.91111 0.20806 0.0
C1703 C 0.32501 0.94007 0.20913 0.0
C1704 C 0.32964 0.95838 0.22033 0.0
H1705 H 0.48994 0.99762 0.15927 0.0
H1706 H 0.45116 0.9775 0.17695 0.0
C1707 C 0.30711 0.94793 0.23023 0.0
C1708 C 0.34918 0.95214 0.1985 0.0
H1709 H 0.39338 0.93312 0.17883 0.0
C1710 C 0.36072 0.98299 0.19402 0.0
C1711 C 0.3619 0.93431 0.19316 0.0
C1712 C 0.35282 0.90203 0.19816 0.0
C1713 C 0.38421 0.99637 0.18442 0.0
C1714 C 0.39571 0.97799 0.17857 0.0
C1715 C 0.38443 0.94722 0.18312 0.0
C1716 C 0.41945 0.99026 0.16779 0.0
C1717 C 0.39708 0.03049 0.18102 0.0
C1718 C 0.41471 1.00395 0.15663 0.0
C1719 C 0.43723 0.01618 0.14672 0.0
C1720 C 0.46454 1.0139 0.14741 0.0
C1721 C 0.46911 0.99966 0.15842 0.0
C1722 C 0.44684 0.98802 0.16851 0.0
H1723 H 0.39424 0.04355 0.18925 0.0
H1724 H 0.42234 0.04214 0.17846 0.0
H1725 H 0.38392 0.03224 0.17259 0.0
H1726 H 0.39349 1.00518 0.15553 0.0
H1727 H 0.43308 0.02723 0.13842 0.0
H1728 H 0.04674 0.43307 0.14108 0.0
H1729 H 0.06662 0.41449 0.1587 0.0
H1730 H 0.08847 0.49699 0.18122 0.0
H1731 H 0.07014 0.51656 0.16318 0.0
H1732 H 0.13431 0.48478 0.18357 0.0
H1733 H 0.02373 0.37353 0.19165 0.0
H1734 H 0.03706 0.37638 0.17519 0.0
H1735 H 0.02586 0.40385 0.18113 0.0
C1736 C 0.05595 0.44738 0.14975 0.0
C1737 C 0.05706 0.47642 0.15069 0.0
C1738 C 0.06697 0.4365 0.15993 0.0
C1739 C 0.07848 0.45389 0.1715 0.0
C1740 C 0.07961 0.48298 0.17245 0.0
H1741 H 0.10275 0.37074 0.24261 0.0
H1742 H 0.08494 0.39272 0.22549 0.0
C1743 C 0.06903 0.49413 0.16216 0.0
C1744 C 0.0898 0.44197 0.18246 0.0
H1745 H 0.06954 0.37763 0.20155 0.0
C1746 C 0.12002 0.46141 0.18756 0.0
C1747 C 0.07112 0.41166 0.1879 0.0
C1748 C 0.03754 0.39031 0.18378 0.0
C1749 C 0.13219 0.45129 0.1977 0.0
C1750 C 0.11412 0.42037 0.20265 0.0
C1751 C 0.08372 0.40115 0.19769 0.0
C1752 C 0.12574 0.40767 0.2132 0.0
C1753 C 0.16399 0.47425 0.2032 0.0
C1754 C 0.15454 0.40825 0.21207 0.0
C1755 C 0.1651 0.39625 0.22204 0.0
C1756 C 0.14686 0.38292 0.23327 0.0
C1757 C 0.11765 0.3814 0.2342 0.0
C1758 C 0.10734 0.39382 0.22435 0.0
H1759 H 0.17 0.4989 0.20141 0.0
H1760 H 0.16503 0.47094 0.21386 0.0
H1761 H 0.1821 0.47067 0.19836 0.0
H1762 H 0.16879 0.41774 0.20341 0.0
H1763 H 0.18749 0.39733 0.22095 0.0
H1764 H 0.65769 0.81289 0.22461 0.0
H1765 H 0.63556 0.77377 0.207 0.0
H1766 H 0.69027 0.73283 0.22027 0.0
H1767 H 0.71145 0.77103 0.23802 0.0
H1768 H 0.65968 0.75965 0.18668 0.0
H1769 H 0.60562 0.65636 0.2191 0.0
H1770 H 0.62346 0.69584 0.2253 0.0
H1771 H 0.64722 0.67854 0.22155 0.0
C1772 C 0.66495 0.79552 0.22373 0.0
C1773 C 0.68603 0.79482 0.23278 0.0
C1774 C 0.65228 0.77312 0.21368 0.0
C1775 C 0.66055 0.74967 0.21243 0.0
C1776 C 0.68261 0.74988 0.2212 0.0
H1777 H 0.64162 0.63645 0.14439 0.0
H1778 H 0.65865 0.67599 0.16164 0.0
C1779 C 0.69496 0.77196 0.2313 0.0
C1780 C 0.64655 0.72524 0.20193 0.0
H1781 H 0.60997 0.64602 0.1965 0.0
C1782 C 0.64861 0.73481 0.18887 0.0
C1783 C 0.63156 0.69263 0.20468 0.0
C1784 C 0.62653 0.68022 0.21843 0.0
C1785 C 0.63712 0.71293 0.17856 0.0
C1786 C 0.62362 0.68049 0.18129 0.0
C1787 C 0.62062 0.67084 0.19435 0.0
C1788 C 0.61304 0.65625 0.17076 0.0
C1789 C 0.63928 0.72478 0.16481 0.0
C1790 C 0.58191 0.6312 0.17032 0.0
C1791 C 0.57213 0.60837 0.16046 0.0
C1792 C 0.59333 0.61008 0.15087 0.0
C1793 C 0.62461 0.6347 0.15153 0.0
C1794 C 0.63434 0.65749 0.16135 0.0
H1795 H 0.64133 0.74831 0.16467 0.0
H1796 H 0.66046 0.72687 0.16005 0.0
H1797 H 0.61846 0.70839 0.15897 0.0
H1798 H 0.56506 0.62949 0.17753 0.0
H1799 H 0.54793 0.5896 0.16025 0.0
H1800 H 1.00334 0.47936 0.88617 0.0
H1801 H 0.98353 0.44037 0.86857 0.0
H1802 H 1.00667 0.38082 0.8912 0.0
H1803 H 0.02832 0.42057 0.90831 0.0
H1804 H 0.02234 0.37956 0.86777 0.0
H1805 H 0.90225 0.36152 0.86569 0.0
H1806 H 0.93117 0.40163 0.86266 0.0
H1807 H 0.92958 0.3844 0.87835 0.0
C1808 C 1.00416 0.45793 0.88736 0.0
C1809 C 1.01687 0.45281 0.89874 0.0
C1810 C 0.99247 0.43541 0.87735 0.0
C1811 C 0.99265 0.407 0.87862 0.0
C1812 C 1.00589 0.40226 0.88993 0.0
H1813 H 0.88393 0.2436 0.82789 0.0
H1814 H 0.90293 0.28136 0.84599 0.0
C1815 C 1.01812 0.42498 0.89979 0.0
C1816 C 0.98022 0.38265 0.86806 0.0
H1817 H 0.91699 0.33946 0.84824 0.0
C1818 C 0.99919 0.37071 0.86358 0.0
C1819 C 0.94976 0.37039 0.86268 0.0
C1820 C 0.9269 0.37989 0.86769 0.0
C1821 C 0.98887 0.3474 0.85388 0.0
C1822 C 0.95913 0.33646 0.84797 0.0
C1823 C 0.93994 0.34801 0.85258 0.0
C1824 C 0.94759 0.31317 0.83701 0.0
C1825 C 1.00977 0.3342 0.8504 0.0
C1826 C 0.96606 0.31832 0.82584 0.0
C1827 C 0.95554 0.29641 0.81567 0.0
C1828 C 0.92573 0.26932 0.81615 0.0
C1829 C 0.90697 0.26428 0.82721 0.0
C1830 C 0.91779 0.28596 0.83754 0.0
H1831 H 0.02547 0.33654 0.85864 0.0
H1832 H 0.99589 0.30904 0.84767 0.0
H1833 H 0.02488 0.3475 0.84204 0.0
H1834 H 0.98866 0.33944 0.8249 0.0
H1835 H 0.97067 0.30093 0.80732 0.0
H1836 H 0.64236 0.62824 0.90828 0.0
H1837 H 0.6821 0.64656 0.89119 0.0
H1838 H 0.62362 0.56318 0.86875 0.0
H1839 H 0.58456 0.54376 0.88634 0.0
H1840 H 0.6816 0.57604 0.86685 0.0
H1841 H 0.68188 0.68681 0.85799 0.0
H1842 H 0.69183 0.68438 0.87457 0.0
H1843 H 0.65343 0.6566 0.86845 0.0
C1844 C 0.63804 0.61365 0.89976 0.0
C1845 C 0.61038 0.5844 0.89873 0.0
C1846 C 0.66067 0.62438 0.88987 0.0
C1847 C 0.65577 0.60673 0.87844 0.0
C1848 C 0.62807 0.57742 0.8774 0.0
H1849 H 0.76295 0.68976 0.80768 0.0
H1850 H 0.724 0.66795 0.82502 0.0
C1851 C 0.60565 0.56636 0.88744 0.0
C1852 C 0.67961 0.61872 0.86769 0.0
H1853 H 0.72412 0.68295 0.84862 0.0
C1854 C 0.69072 0.59936 0.86281 0.0
C1855 C 0.69134 0.64897 0.86217 0.0
C1856 C 0.67874 0.67021 0.86596 0.0
C1857 C 0.71328 0.60943 0.85276 0.0
C1858 C 0.72614 0.64028 0.84771 0.0
C1859 C 0.71479 0.65948 0.85253 0.0
C1860 C 0.75016 0.65277 0.83702 0.0
C1861 C 0.72225 0.58643 0.84743 0.0
C1862 C 0.77833 0.65196 0.83785 0.0
C1863 C 0.80046 0.66383 0.82769 0.0
C1864 C 0.79517 0.67732 0.81659 0.0
C1865 C 0.76756 0.67908 0.81599 0.0
C1866 C 0.74526 0.66672 0.82598 0.0
H1867 H 0.70373 0.56179 0.84933 0.0
H1868 H 0.7265 0.58944 0.83676 0.0
H1869 H 0.74402 0.59029 0.85229 0.0
H1870 H 0.7834 0.64241 0.8464 0.0
H1871 H 0.82171 0.66255 0.82853 0.0
H1872 H 0.36967 0.09716 0.80962 0.0
H1873 H 0.39205 0.08102 0.82723 0.0
H1874 H 0.44228 0.1763 0.84134 0.0
H1875 H 0.4193 0.19243 0.82381 0.0
H1876 H 0.45192 0.09822 0.83273 0.0
H1877 H 0.40115 0.12944 0.87445 0.0
H1878 H 0.38843 0.12848 0.85787 0.0
H1879 H 0.42419 0.16156 0.86365 0.0
C1880 C 0.38535 0.11466 0.81653 0.0
C1881 C 0.39268 0.14607 0.81534 0.0
C1882 C 0.39822 0.10542 0.82658 0.0
C1883 C 0.41864 0.12728 0.83577 0.0
C1884 C 0.42609 0.15877 0.83458 0.0
H1885 H 0.53352 0.08267 0.88837 0.0
H1886 H 0.51659 0.10522 0.87096 0.0
C1887 C 0.41306 0.16803 0.82452 0.0
C1888 C 0.4323 0.11691 0.84639 0.0
H1889 H 0.4371 0.11239 0.87954 0.0
C1890 C 0.44873 0.1014 0.84297 0.0
C1891 C 0.42794 0.1207 0.85979 0.0
C1892 C 0.40923 0.13567 0.8642 0.0
C1893 C 0.46063 0.08945 0.85248 0.0
C1894 C 0.45666 0.09364 0.86588 0.0
C1895 C 0.44042 0.10934 0.8693 0.0
C1896 C 0.46757 0.08046 0.87649 0.0
C1897 C 0.47638 0.07147 0.84806 0.0
C1898 C 0.44597 0.0596 0.88563 0.0
C1899 C 0.45567 0.04697 0.89562 0.0
C1900 C 0.48728 0.055 0.89679 0.0
C1901 C 0.50899 0.0759 0.88768 0.0
C1902 C 0.49927 0.08868 0.87768 0.0
H1903 H 0.47032 0.06336 0.83781 0.0
H1904 H 0.50218 0.08696 0.84864 0.0
H1905 H 0.46966 0.05074 0.85437 0.0
H1906 H 0.42142 0.05284 0.88499 0.0
H1907 H 0.43834 0.03086 0.90247 0.0
H1908 H 0.92205 0.19813 0.55485 0.0
H1909 H 0.96347 0.21473 0.5383 0.0
H1910 H 1.0093 0.30848 0.55412 0.0
H1911 H 0.96848 0.29185 0.57075 0.0
H1912 H 0.98227 0.25734 0.51915 0.0
H1913 H 0.08158 0.29233 0.55306 0.0
H1914 H 0.04128 0.27028 0.55833 0.0
H1915 H 0.06039 0.31227 0.55665 0.0
C1916 C 0.94103 0.22224 0.55479 0.0
C1917 C 0.94222 0.2436 0.56418 0.0
C1918 C 0.96473 0.23172 0.54534 0.0
C1919 C 0.99006 0.26273 0.54511 0.0
C1920 C 0.99067 0.28422 0.5543 0.0
H1921 H 0.10938 0.36495 0.48048 0.0
H1922 H 0.06953 0.34098 0.49746 0.0
C1923 C 0.96714 0.27474 0.56375 0.0
C1924 C 1.01529 0.27304 0.53504 0.0
H1925 H 0.09499 0.31153 0.5311 0.0
C1926 C 1.00689 0.26891 0.52179 0.0
C1927 C 0.04752 0.28757 0.53839 0.0
C1928 C 0.05823 0.29056 0.55238 0.0
C1929 C 0.0297 0.28006 0.51187 0.0
C1930 C 0.06195 0.29654 0.51524 0.0
C1931 C 0.07035 0.29942 0.52847 0.0
C1932 C 0.08714 0.31182 0.50519 0.0
C1933 C 1.01895 0.27388 0.49784 0.0
C1934 C 0.11134 0.30458 0.50416 0.0
C1935 C 0.13452 0.31865 0.49449 0.0
C1936 C 0.13388 0.3402 0.48568 0.0
C1937 C 0.11028 0.34814 0.48702 0.0
C1938 C 0.08729 0.33423 0.49667 0.0
H1939 H 0.99514 0.25298 0.49695 0.0
H1940 H 1.01784 0.29435 0.49397 0.0
H1941 H 0.03535 0.27018 0.49168 0.0
H1942 H 0.11197 0.28763 0.5107 0.0
H1943 H 0.15249 0.31217 0.49372 0.0
H1944 H 0.70402 0.76174 0.47855 0.0
H1945 H 0.72624 0.74383 0.49558 0.0
H1946 H 0.77622 0.83759 0.51134 0.0
H1947 H 0.7533 0.8554 0.49446 0.0
H1948 H 0.78531 0.75962 0.50135 0.0
H1949 H 0.73399 0.78829 0.54362 0.0
H1950 H 0.72208 0.78917 0.52707 0.0
H1951 H 0.75778 0.8214 0.53341 0.0
C1952 C 0.71965 0.77851 0.48568 0.0
C1953 C 0.72682 0.80996 0.4852 0.0
C1954 C 0.73242 0.76827 0.49541 0.0
C1955 C 0.75262 0.78917 0.50492 0.0
C1956 C 0.76014 0.82076 0.50434 0.0
H1957 H 0.86485 0.73926 0.55674 0.0
H1958 H 0.84874 0.7626 0.53934 0.0
C1959 C 0.74716 0.83098 0.49465 0.0
C1960 C 0.76576 0.77772 0.51533 0.0
H1961 H 0.76991 0.77101 0.54837 0.0
C1962 C 0.78196 0.76215 0.51164 0.0
C1963 C 0.76119 0.78067 0.52878 0.0
C1964 C 0.74257 0.79551 0.53349 0.0
C1965 C 0.79344 0.74933 0.52095 0.0
C1966 C 0.78932 0.75274 0.5344 0.0
C1967 C 0.77334 0.76853 0.53809 0.0
C1968 C 0.79968 0.73864 0.54482 0.0
C1969 C 0.8089 0.7313 0.51623 0.0
C1970 C 0.77778 0.71789 0.55391 0.0
C1971 C 0.78703 0.70489 0.5639 0.0
C1972 C 0.81845 0.71234 0.5651 0.0
C1973 C 0.84043 0.7329 0.55599 0.0
C1974 C 0.83119 0.74614 0.54601 0.0
H1975 H 0.8028 0.72374 0.50592 0.0
H1976 H 0.83473 0.74657 0.51684 0.0
H1977 H 0.80198 0.71022 0.52234 0.0
H1978 H 0.75338 0.71167 0.55327 0.0
H1979 H 0.76952 0.68909 0.57076 0.0
H1980 H 0.20222 0.91122 0.49051 0.0
H1981 H 0.21853 0.95068 0.50794 0.0
H1982 H 0.31375 0.99497 0.4939 0.0
H1983 H 0.29751 0.95606 0.47646 0.0
H1984 H 0.25996 0.96607 0.52791 0.0
H1985 H 0.29981 0.06901 0.49562 0.0
H1986 H 0.27692 0.02928 0.48972 0.0
H1987 H 0.31866 0.04684 0.49186 0.0
C1988 C 0.22661 0.92941 0.49116 0.0
C1989 C 0.24851 0.93073 0.48203 0.0
C1990 C 0.23592 0.95199 0.50111 0.0
C1991 C 0.2673 0.97634 0.50211 0.0
C1992 C 0.28927 0.97708 0.49316 0.0
H1993 H 0.36451 0.09083 0.56941 0.0
H1994 H 0.34138 0.05103 0.55228 0.0
C1995 C 0.27997 0.95465 0.48323 0.0
C1996 C 0.27739 1.0006 0.51261 0.0
H1997 H 0.3167 0.07988 0.51788 0.0
C1998 C 0.27214 0.99094 0.5257 0.0
C1999 C 0.29274 0.03314 0.5098 0.0
C2000 C 0.29707 0.04521 0.49599 0.0
C2001 C 0.28279 1.01282 0.53601 0.0
C2002 C 0.2999 0.04538 0.5332 0.0
C2003 C 0.30409 0.05501 0.5201 0.0
C2004 C 0.314 0.06976 0.54368 0.0
C2005 C 0.27525 1.00072 0.54982 0.0
C2006 C 0.30736 0.09441 0.54436 0.0
C2007 C 0.32094 0.11749 0.5541 0.0
C2008 C 0.34141 0.11638 0.56336 0.0
C2009 C 0.34845 0.09205 0.56253 0.0
C2010 C 0.33503 0.06912 0.55278 0.0
H2011 H 0.25412 0.97697 0.5502 0.0
H2012 H 0.2952 0.99895 0.55387 0.0
H2013 H 0.27122 0.01668 0.55614 0.0
H2014 H 0.29146 0.09568 0.53742 0.0
H2015 H 0.31518 0.13603 0.55445 0.0
H2016 H 0.48803 0.34404 0.12364 0.0
H2017 H 0.47928 0.29087 0.12095 0.0
H2018 H 0.55989 0.32621 0.09573 0.0
H2019 H 0.56902 0.37973 0.09848 0.0
H2020 H 0.47117 0.25495 0.09671 0.0
H2021 H 0.57577 0.27799 0.12596 0.0
H2022 H 0.55856 0.30285 0.12682 0.0
H2023 H 0.58208 0.30524 0.11304 0.0
C2024 C 0.50399 0.34055 0.11755 0.0
C2025 C 0.52946 0.3662 0.11139 0.0
C2026 C 0.49881 0.31011 0.11595 0.0
C2027 C 0.51909 0.30463 0.10825 0.0
C2028 C 0.54412 0.32999 0.10182 0.0
H2029 H 0.53885 0.14054 0.09798 0.0
H2030 H 0.5436 0.19219 0.09681 0.0
C2031 C 0.5492 0.36051 0.10333 0.0
C2032 C 0.51446 0.27246 0.1073 0.0
H2033 H 0.54635 0.22785 0.11663 0.0
C2034 C 0.4876 0.24895 0.10102 0.0
C2035 C 0.53589 0.26474 0.11297 0.0
C2036 C 0.56463 0.28888 0.12017 0.0
C2037 C 0.48185 0.21798 0.10008 0.0
C2038 C 0.50315 0.21013 0.10588 0.0
C2039 C 0.53001 0.23377 0.11216 0.0
C2040 C 0.49841 0.17775 0.10556 0.0
C2041 C 0.45343 0.1942 0.09261 0.0
C2042 C 0.47119 0.15208 0.11072 0.0
C2043 C 0.46821 0.12222 0.11127 0.0
C2044 C 0.49267 0.1176 0.10689 0.0
C2045 C 0.5196 0.14323 0.10152 0.0
C2046 C 0.52239 0.17286 0.10084 0.0
H2047 H 0.44512 0.2057 0.08562 0.0
H2048 H 0.45847 0.17774 0.08715 0.0
H2049 H 0.43408 0.18041 0.09957 0.0
H2050 H 0.45265 0.1553 0.11472 0.0
H2051 H 0.44732 0.10308 0.11558 0.0
H2052 H 0.73173 0.17818 0.12421 0.0
H2053 H 0.78549 0.22155 0.12159 0.0
H2054 H 0.75405 0.26318 0.09265 0.0
H2055 H 0.69995 0.21983 0.0953 0.0
H2056 H 0.82385 0.245 0.09729 0.0
H2057 H 0.80004 0.33169 0.12193 0.0
H2058 H 0.77479 0.28988 0.12386 0.0
H2059 H 0.77368 0.30871 0.10906 0.0
C2060 C 0.7362 0.19661 0.11731 0.0
C2061 C 0.71148 0.19574 0.11007 0.0
C2062 C 0.76698 0.22124 0.11576 0.0
C2063 C 0.7737 0.24568 0.10701 0.0
C2064 C 0.74928 0.24462 0.09953 0.0
H2065 H 0.94067 0.42712 0.09627 0.0
H2066 H 0.88904 0.38037 0.09438 0.0
C2067 C 0.71844 0.2198 0.101 0.0
C2068 C 0.80614 0.27272 0.10609 0.0
H2069 H 0.85097 0.35023 0.11389 0.0
C2070 C 0.82986 0.26808 0.10087 0.0
C2071 C 0.81385 0.30272 0.11079 0.0
C2072 C 0.7894 0.30873 0.11682 0.0
C2073 C 0.8611 0.29282 0.10006 0.0
C2074 C 0.86894 0.32281 0.10493 0.0
C2075 C 0.84507 0.32733 0.11012 0.0
C2076 C 0.90159 0.35001 0.1048 0.0
C2077 C 0.88519 0.28672 0.09374 0.0
C2078 C 0.92626 0.34855 0.11107 0.0
C2079 C 0.95613 0.37532 0.11201 0.0
C2080 C 0.96167 0.40418 0.10693 0.0
C2081 C 0.93718 0.40531 0.10035 0.0
C2082 C 0.90757 0.37857 0.09927 0.0
H2083 H 0.87407 0.26617 0.08708 0.0
H2084 H 0.9026 0.30743 0.08812 0.0
H2085 H 0.89784 0.28155 0.10142 0.0
H2086 H 0.92216 0.32705 0.11569 0.0
H2087 H 0.97438 0.37377 0.11727 0.0
H2088 H 0.70077 0.62743 0.11808 0.0
H2089 H 0.7466 0.62035 0.1168 0.0
H2090 H 0.68982 0.53014 0.09858 0.0
H2091 H 0.64405 0.53667 0.1001 0.0
H2092 H 0.72185 0.5259 0.11858 0.0
H2093 H 0.80292 0.62519 0.08713 0.0
H2094 H 0.78936 0.63704 0.10108 0.0
H2095 H 0.76189 0.61307 0.0887 0.0
C2096 C 0.69822 0.60636 0.11359 0.0
C2097 C 0.66871 0.58257 0.10925 0.0
C2098 C 0.72448 0.60238 0.11282 0.0
C2099 C 0.72178 0.57479 0.10749 0.0
C2100 C 0.69254 0.55159 0.10275 0.0
H2101 H 0.8735 0.53663 0.09017 0.0
H2102 H 0.83005 0.54744 0.08877 0.0
C2103 C 0.66634 0.5554 0.10363 0.0
C2104 C 0.74853 0.56872 0.10773 0.0
H2105 H 0.82439 0.59726 0.09794 0.0
C2106 C 0.74421 0.54148 0.11401 0.0
C2107 C 0.77763 0.5888 0.10164 0.0
C2108 C 0.78322 0.6175 0.09414 0.0
C2109 C 0.76816 0.53392 0.1145 0.0
C2110 C 0.79764 0.55456 0.10884 0.0
C2111 C 0.80188 0.58159 0.10238 0.0
C2112 C 0.82433 0.54853 0.10965 0.0
C2113 C 0.7614 0.50356 0.1209 0.0
C2114 C 0.83586 0.54596 0.12183 0.0
C2115 C 0.8605 0.53965 0.12265 0.0
C2116 C 0.87446 0.53607 0.1113 0.0
C2117 C 0.86329 0.53926 0.09909 0.0
C2118 C 0.83847 0.54544 0.09828 0.0
H2119 H 0.73583 0.48649 0.12126 0.0
H2120 H 0.77319 0.49256 0.11567 0.0
H2121 H 0.77023 0.50837 0.13108 0.0
H2122 H 0.82591 0.54907 0.13073 0.0
H2123 H 0.86901 0.53815 0.13221 0.0
H2124 H 0.34253 0.48094 0.92352 0.0
H2125 H 0.28909 0.47107 0.92665 0.0
H2126 H 0.32278 0.54561 0.955 0.0
H2127 H 0.37656 0.55584 0.95185 0.0
H2128 H 0.25227 0.45758 0.95133 0.0
H2129 H 0.27527 0.56716 0.92607 0.0
H2130 H 0.30019 0.55028 0.92397 0.0
H2131 H 0.30229 0.57089 0.93871 0.0
C2132 C 0.33863 0.49534 0.9304 0.0
C2133 C 0.36388 0.51944 0.93733 0.0
C2134 C 0.30803 0.48949 0.93224 0.0
C2135 C 0.302 0.50776 0.94097 0.0
C2136 C 0.32698 0.53139 0.94814 0.0
H2137 H 0.13536 0.52293 0.95241 0.0
H2138 H 0.18718 0.52816 0.95407 0.0
C2139 C 0.35765 0.53711 0.94638 0.0
C2140 C 0.2697 0.50261 0.94219 0.0
H2141 H 0.22469 0.53516 0.93452 0.0
C2142 C 0.24617 0.47454 0.94771 0.0
C2143 C 0.26185 0.52477 0.93745 0.0
C2144 C 0.28607 0.55493 0.93113 0.0
C2145 C 0.21502 0.46819 0.94875 0.0
C2146 C 0.20701 0.49015 0.9438 0.0
C2147 C 0.2307 0.5183 0.93834 0.0
C2148 C 0.17434 0.48467 0.94406 0.0
C2149 C 0.1912 0.43833 0.95538 0.0
C2150 C 0.14946 0.45813 0.93808 0.0
C2151 C 0.1195 0.45484 0.93728 0.0
C2152 C 0.11403 0.47835 0.9422 0.0
C2153 C 0.13876 0.50443 0.94846 0.0
C2154 C 0.16849 0.5075 0.94941 0.0
H2155 H 0.20262 0.42933 0.96208 0.0
H2156 H 0.17399 0.4419 0.96101 0.0
H2157 H 0.17831 0.42007 0.94788 0.0
H2158 H 0.15343 0.44053 0.93359 0.0
H2159 H 0.10108 0.43467 0.93225 0.0
H2160 H 0.59037 0.89075 0.92316 0.0
H2161 H 0.59848 0.84594 0.92588 0.0
H2162 H 0.51552 0.79969 0.94975 0.0
H2163 H 0.50695 0.84438 0.94694 0.0
H2164 H 0.60495 0.81745 0.94977 0.0
H2165 H 0.5015 0.73606 0.91995 0.0
H2166 H 0.51837 0.77812 0.91931 0.0
H2167 H 0.49426 0.75633 0.93286 0.0
C2168 C 0.5737 0.87097 0.92894 0.0
C2169 C 0.54778 0.87102 0.93471 0.0
C2170 C 0.57853 0.84548 0.93055 0.0
C2171 C 0.55745 0.81933 0.93789 0.0
C2172 C 0.5319 0.8195 0.94392 0.0
H2173 H 0.53651 0.6351 0.94897 0.0
H2174 H 0.53208 0.68222 0.94995 0.0
C2175 C 0.52715 0.84513 0.94238 0.0
C2176 C 0.56196 0.79171 0.93897 0.0
H2177 H 0.53003 0.71501 0.92987 0.0
C2178 C 0.58858 0.795 0.94545 0.0
C2179 C 0.54062 0.76249 0.9333 0.0
C2180 C 0.51217 0.75789 0.92587 0.0
C2181 C 0.59416 0.76969 0.94659 0.0
C2182 C 0.57294 0.74049 0.94081 0.0
C2183 C 0.54631 0.7373 0.93434 0.0
C2184 C 0.57751 0.71274 0.94134 0.0
C2185 C 0.62233 0.77433 0.95425 0.0
C2186 C 0.60479 0.71409 0.93636 0.0
C2187 C 0.60758 0.68707 0.93593 0.0
C2188 C 0.58288 0.65806 0.94025 0.0
C2189 C 0.55595 0.65699 0.94549 0.0
C2190 C 0.55334 0.68396 0.94605 0.0
H2191 H 0.63054 0.79426 0.96118 0.0
H2192 H 0.61704 0.75288 0.95981 0.0
H2193 H 0.64184 0.7797 0.94741 0.0
H2194 H 0.6235 0.73577 0.93238 0.0
H2195 H 0.62847 0.68866 0.9317 0.0
H2196 H 0.37553 0.96295 0.93376 0.0
H2197 H 0.3286 0.91104 0.93604 0.0
H2198 H 0.38689 0.86907 0.93971 0.0
H2199 H 0.43363 0.92044 0.93764 0.0
H2200 H 0.3093 0.85845 0.92031 0.0
H2201 H 0.32856 0.83213 0.97084 0.0
H2202 H 0.34956 0.87114 0.96403 0.0
H2203 H 0.36173 0.84304 0.96044 0.0
C2204 C 0.37838 0.94272 0.93516 0.0
C2205 C 0.40847 0.94603 0.93557 0.0
C2206 C 0.35152 0.91305 0.93645 0.0
C2207 C 0.35423 0.88621 0.93828 0.0
C2208 C 0.38419 0.88947 0.93863 0.0
H2209 H 0.23395 0.68481 0.94003 0.0
H2210 H 0.27736 0.73915 0.94042 0.0
C2211 C 0.41096 0.91898 0.93734 0.0
C2212 C 0.3259 0.85454 0.93924 0.0
H2213 H 0.29056 0.78879 0.95828 0.0
C2214 C 0.30497 0.84335 0.92867 0.0
C2215 C 0.32033 0.8348 0.95015 0.0
C2216 C 0.34106 0.84596 0.96207 0.0
C2217 C 0.27926 0.81262 0.92853 0.0
C2218 C 0.27405 0.79269 0.93933 0.0
C2219 C 0.29466 0.80404 0.94999 0.0
C2220 C 0.2476 0.75981 0.93963 0.0
C2221 C 0.25847 0.80138 0.91662 0.0
C2222 C 0.21645 0.75339 0.93933 0.0
C2223 C 0.19163 0.7224 0.93906 0.0
C2224 C 0.1974 0.69712 0.93915 0.0
C2225 C 0.22866 0.70368 0.9398 0.0
C2226 C 0.25349 0.73471 0.94009 0.0
H2227 H 0.26973 0.81683 0.90807 0.0
H2228 H 0.25244 0.77709 0.91402 0.0
H2229 H 0.23633 0.8013 0.91872 0.0
H2230 H 0.21134 0.77238 0.93918 0.0
H2231 H 0.16792 0.7183 0.93842 0.0
H2232 H 0.20094 0.69216 0.43033 0.0
H2233 H 0.19275 0.63893 0.42949 0.0
H2234 H 0.17496 0.62901 0.47085 0.0
H2235 H 0.18427 0.68263 0.47188 0.0
H2236 H 0.21321 0.60666 0.46333 0.0
H2237 H 0.10852 0.55815 0.43131 0.0
H2238 H 0.14217 0.59175 0.42455 0.0
H2239 H 0.12439 0.59589 0.43917 0.0
C2240 C 0.19571 0.67886 0.43929 0.0
C2241 C 0.19315 0.69174 0.45117 0.0
C2242 C 0.19055 0.6482 0.43875 0.0
C2243 C 0.18252 0.62966 0.45005 0.0
C2244 C 0.18077 0.64272 0.46198 0.0
H2245 H 0.10967 0.42683 0.45363 0.0
H2246 H 0.11524 0.47923 0.45418 0.0
C2247 C 0.18596 0.67336 0.46253 0.0
C2248 C 0.17651 0.59689 0.44952 0.0
H2249 H 0.13063 0.52546 0.43511 0.0
C2250 C 0.19508 0.58889 0.45719 0.0
C2251 C 0.15247 0.57351 0.44168 0.0
C2252 C 0.13052 0.58009 0.4338 0.0
C2253 C 0.1908 0.55846 0.45702 0.0
C2254 C 0.16769 0.53545 0.44875 0.0
C2255 C 0.14857 0.54318 0.44132 0.0
C2256 C 0.16344 0.50342 0.4476 0.0
C2257 C 0.21087 0.55114 0.46582 0.0
C2258 C 0.1883 0.49949 0.44332 0.0
C2259 C 0.18523 0.46971 0.44301 0.0
C2260 C 0.15708 0.44302 0.44688 0.0
C2261 C 0.13167 0.44682 0.4506 0.0
C2262 C 0.13483 0.47677 0.45095 0.0
H2263 H 0.22077 0.56806 0.47404 0.0
H2264 H 0.19725 0.52707 0.46988 0.0
H2265 H 0.23077 0.55272 0.46013 0.0
H2266 H 0.21032 0.51958 0.44036 0.0
H2267 H 0.20522 0.46776 0.43993 0.0
H2268 H 0.63504 0.7034 0.4514 0.0
H2269 H 0.58249 0.65702 0.45016 0.0
H2270 H 0.54579 0.71434 0.43546 0.0
H2271 H 0.59777 0.76064 0.43694 0.0
H2272 H 0.51131 0.67879 0.45523 0.0
H2273 H 0.52984 0.60439 0.41989 0.0
H2274 H 0.5562 0.61652 0.43353 0.0
H2275 H 0.55808 0.64539 0.42226 0.0
C2276 C 0.61586 0.70601 0.4477 0.0
C2277 C 0.62063 0.73577 0.44432 0.0
C2278 C 0.58582 0.67943 0.44695 0.0
C2279 C 0.56014 0.68208 0.4426 0.0
C2280 C 0.56516 0.71165 0.43886 0.0
H2281 H 0.37155 0.52938 0.42453 0.0
H2282 H 0.42503 0.57432 0.42353 0.0
C2283 C 0.59497 0.73815 0.43971 0.0
C2284 C 0.52766 0.65472 0.44278 0.0
H2285 H 0.48117 0.58018 0.43129 0.0
C2286 C 0.50473 0.65728 0.44995 0.0
C2287 C 0.51891 0.62675 0.43577 0.0
C2288 C 0.54195 0.62311 0.42732 0.0
C2289 C 0.4735 0.63268 0.45042 0.0
C2290 C 0.46498 0.6043 0.44379 0.0
C2291 C 0.48776 0.60182 0.43647 0.0
C2292 C 0.43256 0.57695 0.44439 0.0
C2293 C 0.44982 0.63762 0.45781 0.0
C2294 C 0.41909 0.56326 0.45642 0.0
C2295 C 0.38854 0.53774 0.45702 0.0
C2296 C 0.37084 0.52504 0.44558 0.0
C2297 C 0.38455 0.53853 0.43351 0.0
C2298 C 0.4151 0.56421 0.43293 0.0
H2299 H 0.45778 0.66296 0.459 0.0
H2300 H 0.42673 0.62613 0.4528 0.0
H2301 H 0.44663 0.62727 0.46769 0.0
H2302 H 0.43234 0.57212 0.46536 0.0
H2303 H 0.37903 0.52748 0.46645 0.0
H2304 H 0.56358 0.91676 0.45896 0.0
H2305 H 0.518 0.92372 0.45661 0.0
H2306 H 0.46799 0.83479 0.43677 0.0
H2307 H 0.51354 0.82743 0.43922 0.0
H2308 H 0.48405 0.92293 0.433 0.0
H2309 H 0.41122 0.82863 0.46839 0.0
H2310 H 0.45333 0.84616 0.46758 0.0
H2311 H 0.42899 0.81816 0.45549 0.0
C2312 C 0.54285 0.89861 0.45412 0.0
C2313 C 0.54204 0.87135 0.4494 0.0
C2314 C 0.51692 0.90274 0.45272 0.0
C2315 C 0.48952 0.87962 0.44666 0.0
C2316 C 0.48883 0.85275 0.44161 0.0
H2317 H 0.30317 0.85455 0.43892 0.0
H2318 H 0.35005 0.84975 0.43832 0.0
C2319 C 0.51491 0.84868 0.44293 0.0
C2320 C 0.4615 0.88343 0.44598 0.0
H2321 H 0.38736 0.85394 0.45796 0.0
C2322 C 0.46285 0.90785 0.43842 0.0
C2323 C 0.43397 0.86378 0.4531 0.0
C2324 C 0.43165 0.83781 0.46169 0.0
C2325 C 0.43714 0.91282 0.43763 0.0
C2326 C 0.40964 0.89333 0.44486 0.0
C2327 C 0.4084 0.8689 0.45241 0.0
C2328 C 0.38161 0.89734 0.44465 0.0
C2329 C 0.43945 0.93841 0.4288 0.0
C2330 C 0.3836 0.92576 0.44841 0.0
C2331 C 0.35671 0.92871 0.44865 0.0
C2332 C 0.32725 0.90312 0.44535 0.0
C2333 C 0.32541 0.87474 0.44159 0.0
C2334 C 0.35225 0.87193 0.44123 0.0
H2335 H 0.45783 0.94487 0.42124 0.0
H2336 H 0.41675 0.93118 0.42388 0.0
H2337 H 0.44581 0.95967 0.4347 0.0
H2338 H 0.40582 0.94549 0.4514 0.0
H2339 H 0.35891 0.9508 0.45169 0.0
H2340 H 0.76772 0.76601 0.27005 0.0
H2341 H 0.81938 0.76997 0.27145 0.0
H2342 H 0.86336 0.87053 0.27466 0.0
H2343 H 0.8124 0.86693 0.27349 0.0
H2344 H 0.87066 0.80196 0.25488 0.0
H2345 H 0.90275 0.84951 0.30494 0.0
H2346 H 0.86311 0.83181 0.29883 0.0
H2347 H 0.89125 0.87188 0.29491 0.0
C2348 C 0.78836 0.78893 0.27119 0.0
C2349 C 0.78573 0.8161 0.2717 0.0
C2350 C 0.81788 0.79115 0.27197 0.0
C2351 C 0.84524 0.82051 0.27339 0.0
C2352 C 0.84261 0.84756 0.27388 0.0
H2353 H 0.04633 0.90258 0.27112 0.0
H2354 H 0.99185 0.89091 0.27246 0.0
C2355 C 0.81329 0.84541 0.27311 0.0
C2356 C 0.8768 0.8234 0.27375 0.0
H2357 H 0.94481 0.85492 0.2914 0.0
C2358 C 0.88673 0.81313 0.26294 0.0
C2359 C 0.89783 0.83807 0.28426 0.0
C2360 C 0.88812 0.84817 0.29645 0.0
C2361 C 0.91746 0.81824 0.26213 0.0
C2362 C 0.93871 0.83365 0.27249 0.0
C2363 C 0.92858 0.84329 0.28343 0.0
C2364 C 0.97174 0.84052 0.27204 0.0
C2365 C 0.92729 0.80815 0.24998 0.0
C2366 C 0.97859 0.81608 0.27161 0.0
C2367 C 1.00967 0.82266 0.27081 0.0
C2368 C 0.03466 0.85387 0.27049 0.0
C2369 C 0.02771 0.87831 0.2712 0.0
C2370 C 0.99658 0.87168 0.27203 0.0
H2371 H 0.91064 0.80316 0.24179 0.0
H2372 H 0.95107 0.82647 0.24682 0.0
H2373 H 0.92805 0.78642 0.25206 0.0
H2374 H 0.95984 0.79186 0.2718 0.0
H2375 H 1.01406 0.80324 0.27014 0.0
H2376 H 0.30268 0.02567 0.2672 0.0
H2377 H 0.29902 0.07337 0.26964 0.0
H2378 H 0.19999 0.01675 0.27735 0.0
H2379 H 0.20339 0.9694 0.27518 0.0
H2380 H 0.26315 0.09096 0.25501 0.0
H2381 H 0.22803 0.07982 0.30684 0.0
H2382 H 0.24404 0.05725 0.29977 0.0
H2383 H 0.20322 0.04506 0.29765 0.0
C2384 C 0.28022 0.0234 0.26959 0.0
C2385 C 0.25339 0.99361 0.27103 0.0
C2386 C 0.27816 0.05069 0.27095 0.0
C2387 C 0.24932 0.04867 0.2739 0.0
C2388 C 0.22264 0.01899 0.27541 0.0
H2389 H 0.16597 0.1665 0.2754 0.0
H2390 H 0.17821 0.12398 0.27618 0.0
C2391 C 0.22465 0.99184 0.27405 0.0
C2392 C 0.24638 0.07727 0.27464 0.0
H2393 H 0.21883 0.11498 0.29385 0.0
C2394 C 0.25391 0.0965 0.26357 0.0
C2395 C 0.2342 0.08444 0.2858 0.0
C2396 C 0.2272 0.06573 0.29823 0.0
C2397 C 0.24844 0.12191 0.26318 0.0
C2398 C 0.23546 0.12853 0.27421 0.0
C2399 C 0.22858 0.10975 0.28538 0.0
C2400 C 0.22832 0.15449 0.27423 0.0
C2401 C 0.25552 0.14081 0.25079 0.0
C2402 C 0.25247 0.18577 0.27312 0.0
C2403 C 0.24557 0.21008 0.27265 0.0
C2404 C 0.21432 0.20363 0.27332 0.0
C2405 C 0.19023 0.17227 0.27472 0.0
C2406 C 0.19719 0.14796 0.27524 0.0
H2407 H 0.25896 0.12868 0.24236 0.0
H2408 H 0.23628 0.14559 0.24844 0.0
H2409 H 0.27735 0.16367 0.25214 0.0
H2410 H 0.27669 0.19138 0.27251 0.0
H2411 H 0.2647 0.23388 0.27142 0.0
H2412 H 0.86738 0.03269 0.29033 0.0
H2413 H 0.91148 0.0863 0.29201 0.0
H2414 H 0.91496 0.09428 0.25011 0.0
H2415 H 0.87171 0.04027 0.24831 0.0
H2416 H 0.97287 0.1178 0.26057 0.0
H2417 H 0.90806 0.16626 0.28678 0.0
H2418 H 0.90691 0.13338 0.29488 0.0
H2419 H 0.88861 0.12807 0.27918 0.0
C2420 C 0.87776 0.04565 0.28145 0.0
C2421 C 0.86582 0.03208 0.26917 0.0
C2422 C 0.9027 0.07653 0.28244 0.0
C2423 C 0.91609 0.09463 0.2712 0.0
C2424 C 0.90478 0.08093 0.25893 0.0
H2425 H 0.04366 0.2973 0.26628 0.0
H2426 H 0.99734 0.24449 0.2661 0.0
C2427 C 0.87992 0.05005 0.25793 0.0
C2428 C 0.94236 0.12761 0.27216 0.0
H2429 H 0.9634 0.19958 0.28508 0.0
C2430 C 0.97074 0.13568 0.2659 0.0
C2431 C 0.93946 0.15111 0.27894 0.0
C2432 C 0.90903 0.14443 0.28522 0.0
C2433 C 0.99643 0.16636 0.26642 0.0
C2434 C 0.99398 0.18956 0.27364 0.0
C2435 C 0.9654 0.18171 0.27969 0.0
C2436 C 0.02094 0.22205 0.27498 0.0
C2437 C 0.02582 0.17371 0.25901 0.0
C2438 C 0.04917 0.22719 0.28052 0.0
C2439 C 0.07558 0.25718 0.28058 0.0
C2440 C 0.07429 0.28286 0.27526 0.0
C2441 C 0.04545 0.27806 0.27046 0.0
C2442 C 1.01899 0.24787 0.27032 0.0
H2443 H 0.02096 0.15631 0.25116 0.0
H2444 H 0.03678 0.19745 0.25459 0.0
H2445 H 0.04297 0.173 0.26582 0.0
H2446 H 0.05101 0.20781 0.28452 0.0
H2447 H 0.09729 0.26006 0.28452 0.0
H2448 H 0.77353 0.76139 0.78387 0.0
H2449 H 0.77835 0.81344 0.78264 0.0
H2450 H 0.86677 0.84926 0.76272 0.0
H2451 H 0.8623 0.79766 0.76392 0.0
H2452 H 0.83242 0.86953 0.79381 0.0
H2453 H 0.81703 0.8819 0.74088 0.0
H2454 H 0.80258 0.84419 0.74866 0.0
H2455 H 0.84357 0.86812 0.74504 0.0
C2456 C 0.79369 0.78019 0.779 0.0
C2457 C 0.81754 0.77535 0.77401 0.0
C2458 C 0.79646 0.80992 0.77835 0.0
C2459 C 0.82279 0.83512 0.77249 0.0
C2460 C 0.84606 0.83006 0.76711 0.0
H2461 H 0.89745 0.03638 0.76431 0.0
H2462 H 0.88633 0.98197 0.76244 0.0
C2463 C 0.8435 0.80053 0.76788 0.0
C2464 C 0.82745 0.86731 0.77295 0.0
H2465 H 0.83534 0.92771 0.75385 0.0
C2466 C 0.83276 0.88219 0.7851 0.0
C2467 C 0.8284 0.88388 0.76154 0.0
C2468 C 0.82238 0.86873 0.74827 0.0
C2469 C 0.83959 0.91343 0.78615 0.0
C2470 C 0.84021 0.93 0.77475 0.0
C2471 C 0.83482 0.91504 0.76258 0.0
C2472 C 0.84614 0.96274 0.77533 0.0
C2473 C 0.8471 0.92866 0.79944 0.0
C2474 C 0.8268 0.9699 0.78288 0.0
C2475 C 0.83327 1.00084 0.78404 0.0
C2476 C 0.85896 0.02532 0.77751 0.0
C2477 C 0.87755 0.01801 0.76948 0.0
C2478 C 0.87123 0.98697 0.76842 0.0
H2479 H 0.85491 0.91646 0.8063 0.0
H2480 H 0.8657 0.9537 0.79885 0.0
H2481 H 0.8257 0.92743 0.80358 0.0
H2482 H 0.80674 0.95153 0.78797 0.0
H2483 H 0.81807 1.00562 0.79006 0.0
H2484 H 0.26175 0.0909 0.77319 0.0
H2485 H 0.2107 0.04353 0.77189 0.0
H2486 H 0.25432 0.98685 0.77615 0.0
H2487 H 0.30595 0.03449 0.77772 0.0
H2488 H 0.18726 0.99434 0.75455 0.0
H2489 H 0.18804 0.95268 0.80485 0.0
H2490 H 0.21604 0.99176 0.79946 0.0
H2491 H 0.22062 0.95907 0.79482 0.0
C2492 C 0.26073 0.06845 0.77386 0.0
C2493 C 0.28816 0.06666 0.77566 0.0
C2494 C 0.23136 0.0413 0.77308 0.0
C2495 C 0.22852 1.01159 0.77412 0.0
C2496 C 0.25584 1.00954 0.7756 0.0
H2497 H 0.05892 0.8267 0.77642 0.0
H2498 H 0.11321 0.86955 0.77499 0.0
C2499 C 0.28539 0.03681 0.7764 0.0
C2500 C 0.1968 0.98308 0.77368 0.0
H2501 H 0.1439 0.92068 0.79183 0.0
C2502 C 0.17783 0.97817 0.76269 0.0
C2503 C 0.18444 0.96197 0.7843 0.0
C2504 C 0.20316 0.96664 0.79658 0.0
C2505 C 0.14691 0.95287 0.76204 0.0
C2506 C 0.13437 0.93213 0.77276 0.0
C2507 C 0.15352 0.93662 0.78363 0.0
C2508 C 0.10123 0.90604 0.77301 0.0
C2509 C 0.128 0.94844 0.74984 0.0
C2510 C 0.07634 0.91225 0.77242 0.0
C2511 C 0.04519 0.88774 0.77316 0.0
C2512 C 0.03824 0.85646 0.77455 0.0
C2513 C 0.0633 0.85038 0.77511 0.0
C2514 C 0.09441 0.8749 0.7744 0.0
H2515 H 0.1433 0.96067 0.74136 0.0
H2516 H 0.11313 0.92317 0.74743 0.0
H2517 H 0.11239 0.95835 0.75142 0.0
H2518 H 0.081 0.93614 0.77159 0.0
H2519 H 0.02654 0.8933 0.77266 0.0
H2520 H 0.23064 0.24795 0.78937 0.0
H2521 H 0.18635 0.25708 0.78726 0.0
H2522 H 0.13924 0.17641 0.76212 0.0
H2523 H 0.18345 0.16687 0.76429 0.0
H2524 H 0.15814 0.26583 0.76348 0.0
H2525 H 0.07621 0.16111 0.79254 0.0
H2526 H 0.11822 0.17767 0.79314 0.0
H2527 H 0.09636 0.15446 0.77939 0.0
C2528 C 0.21078 0.23201 0.78344 0.0
C2529 C 0.21043 0.20644 0.77712 0.0
C2530 C 0.1856 0.23742 0.78217 0.0
C2531 C 0.15938 0.21727 0.77464 0.0
C2532 C 0.15914 0.19208 0.76809 0.0
H2533 H 0.97631 0.19921 0.76483 0.0
H2534 H 0.02309 0.19433 0.76345 0.0
C2535 C 0.18447 0.18676 0.76928 0.0
C2536 C 0.13209 0.22234 0.77392 0.0
H2537 H 0.0557 0.19085 0.7833 0.0
C2538 C 0.13569 0.24946 0.76779 0.0
C2539 C 0.1029 0.20099 0.77957 0.0
C2540 C 0.09804 0.172 0.78663 0.0
C2541 C 0.11065 0.25551 0.76696 0.0
C2542 C 0.08145 0.23425 0.77272 0.0
C2543 C 0.078 0.20715 0.77886 0.0
C2544 C 0.05395 0.2392 0.77246 0.0
C2545 C 0.11554 0.28421 0.75966 0.0
C2546 C 0.05562 0.26633 0.7778 0.0
C2547 C 0.02879 0.26939 0.77847 0.0
C2548 C 0.99968 0.2451 0.77402 0.0
C2549 C 0.99829 0.21833 0.76842 0.0
C2550 C 0.02507 0.21546 0.76763 0.0
H2551 H 0.13541 0.29264 0.7527 0.0
H2552 H 0.09413 0.27943 0.7542 0.0
H2553 H 0.12112 0.30338 0.76673 0.0
H2554 H 0.0774 0.28469 0.78188 0.0
H2555 H 0.0306 0.29014 0.78297 0.0
H2556 H 0.47633 0.19808 0.60475 0.0
H2557 H 0.52718 0.20132 0.60631 0.0
H2558 H 0.48237 0.1005 0.60439 0.0
H2559 H 0.431 0.09692 0.60257 0.0
H2560 H 0.55096 0.17701 0.6244 0.0
H2561 H 0.54691 0.12854 0.57502 0.0
H2562 H 0.51966 0.14085 0.58013 0.0
H2563 H 0.51463 0.10387 0.58549 0.0
C2564 C 0.47707 0.17646 0.60466 0.0
C2565 C 0.44941 0.14718 0.60341 0.0
C2566 C 0.50629 0.17842 0.60559 0.0
C2567 C 0.50869 0.15123 0.60526 0.0
C2568 C 0.48114 0.12186 0.60439 0.0
H2569 H 0.67519 0.1312 0.60354 0.0
H2570 H 0.62152 0.12142 0.60521 0.0
C2571 C 0.45176 0.11984 0.60344 0.0
C2572 C 0.5402 0.15404 0.6057 0.0
H2573 H 0.59136 0.14119 0.5879 0.0
C2574 C 0.55976 0.16908 0.61643 0.0
C2575 C 0.5517 0.14374 0.5953 0.0
C2576 C 0.53231 0.12858 0.58326 0.0
C2577 C 0.59046 0.17412 0.61705 0.0
C2578 C 0.60213 0.16429 0.60655 0.0
C2579 C 0.58239 0.14873 0.59593 0.0
C2580 C 0.63492 0.17044 0.60625 0.0
C2581 C 0.61006 0.18968 0.62898 0.0
C2582 C 0.66038 0.20129 0.60625 0.0
C2583 C 0.69118 0.20699 0.60537 0.0
C2584 C 0.69717 0.18194 0.60443 0.0
C2585 C 0.67155 0.15106 0.6045 0.0
C2586 C 0.64079 0.1454 0.60534 0.0
H2587 H 0.59528 0.18797 0.63747 0.0
H2588 H 0.62453 0.17901 0.63166 0.0
H2589 H 0.62608 0.21491 0.62691 0.0
H2590 H 0.6564 0.22101 0.6067 0.0
H2591 H 0.71031 0.23103 0.60539 0.0
H2592 H 0.86274 0.29497 0.60803 0.0
H2593 H 0.85925 0.34242 0.60981 0.0
H2594 H 0.95953 0.39897 0.60546 0.0
H2595 H 0.96331 0.35133 0.6034 0.0
H2596 H 0.88516 0.39147 0.6272 0.0
H2597 H 0.92741 0.43345 0.57695 0.0
H2598 H 0.91631 0.39433 0.58228 0.0
H2599 H 0.95372 0.42694 0.58684 0.0
C2600 C 0.88419 0.31742 0.60747 0.0
C2601 C 0.91335 0.31921 0.60546 0.0
C2602 C 0.88209 0.3446 0.60852 0.0
C2603 C 0.90901 0.37429 0.60755 0.0
C2604 C 0.93832 0.3763 0.60595 0.0
H2605 H 0.92873 0.56067 0.60627 0.0
H2606 H 0.93842 0.51665 0.60746 0.0
C2607 C 0.94048 0.34902 0.60487 0.0
C2608 C 0.90597 0.40287 0.60809 0.0
H2609 H 0.9165 0.46601 0.5902 0.0
C2610 C 0.89209 0.40781 0.61912 0.0
C2611 C 0.91493 0.42418 0.59753 0.0
C2612 C 0.92867 0.41944 0.58517 0.0
C2613 C 0.88699 0.43344 0.6199 0.0
C2614 C 0.89558 0.45447 0.60928 0.0
C2615 C 0.90992 0.44985 0.59833 0.0
C2616 C 0.88951 0.4812 0.60922 0.0
C2617 C 0.87273 0.43794 0.63214 0.0
C2618 C 0.85874 0.47594 0.60978 0.0
C2619 C 0.8531 0.50113 0.60916 0.0
C2620 C 0.87812 0.53211 0.60796 0.0
C2621 C 0.90892 0.53723 0.60745 0.0
C2622 C 0.91452 0.51205 0.60802 0.0
H2623 H 0.87515 0.42504 0.64053 0.0
H2624 H 0.88381 0.46318 0.63473 0.0
H2625 H 0.84735 0.42886 0.6305 0.0
H2626 H 0.83903 0.45229 0.61046 0.0
H2627 H 0.82912 0.49632 0.60962 0.0
H2628 H 0.50965 0.38559 0.58781 0.0
H2629 H 0.5543 0.43847 0.59084 0.0
H2630 H 0.59871 0.40158 0.61575 0.0
H2631 H 0.55416 0.34834 0.61263 0.0
H2632 H 0.58107 0.47316 0.615 0.0
H2633 H 0.66422 0.45114 0.58648 0.0
H2634 H 0.62222 0.42605 0.58535 0.0
H2635 H 0.643 0.42358 0.59926 0.0
C2636 C 0.52899 0.38866 0.59388 0.0
C2637 C 0.52851 0.36267 0.59986 0.0
C2638 C 0.55438 0.41894 0.59567 0.0
C2639 C 0.57995 0.42391 0.6034 0.0
C2640 C 0.57933 0.39819 0.60963 0.0
H2641 H 0.76299 0.5884 0.61556 0.0
H2642 H 0.71629 0.53652 0.61641 0.0
C2643 C 0.55379 0.36783 0.60791 0.0
C2644 C 0.60747 0.45599 0.60467 0.0
H2645 H 0.68452 0.50088 0.59619 0.0
C2646 C 0.60374 0.47928 0.61093 0.0
C2647 C 0.63696 0.46387 0.59932 0.0
C2648 C 0.642 0.44 0.59213 0.0
C2649 C 0.62889 0.51021 0.61214 0.0
C2650 C 0.65835 0.51823 0.60664 0.0
C2651 C 0.662 0.4948 0.60042 0.0
C2652 C 0.68581 0.55065 0.60715 0.0
C2653 C 0.62377 0.53378 0.61953 0.0
C2654 C 0.6843 0.57616 0.6018 0.0
C2655 C 0.71104 0.60612 0.60141 0.0
C2656 C 0.73994 0.61101 0.60618 0.0
C2657 C 0.74118 0.58553 0.61175 0.0
C2658 C 0.71446 0.55576 0.61224 0.0
H2659 H 0.6036 0.52208 0.62633 0.0
H2660 H 0.64496 0.55014 0.62519 0.0
H2661 H 0.61855 0.5477 0.6125 0.0
H2662 H 0.66271 0.57275 0.59752 0.0
H2663 H 0.70931 0.62512 0.59693 0.0
loop_
_geom_bond_atom_site_label_1
_geom_bond_atom_site_label_2
_geom_bond_distance
_geom_bond_site_symmetry_2
_ccdc_geom_bond_type
Ho0 C3 2.811 . S
Ho0 O20 2.322 . S
Ho0 O22 2.378 . S
Ho0 O23 2.524 . S
Ho0 O24 2.381 . S
Ho0 O25 2.669 1_545 S
Ho0 O27 2.346 1_545 S
Ho0 O31 2.305 . S
Ho1 C12 2.811 . S
Ho1 O21 2.346 1_565 S
Ho1 O25 2.305 . S
Ho1 O26 2.322 . S
Ho1 O28 2.378 . S
Ho1 O29 2.524 . S
Ho1 O30 2.381 . S
Ho1 O31 2.669 1_565 S
C2 O20 1.259 . S
C2 O21 1.268 . S
C3 Ho0 2.811 . S
C3 C4 1.488 . S
C3 O22 1.215 . S
C3 O23 1.289 . S
C4 C3 1.488 . S
C4 C5 1.348 . S
C4 C9 1.413 . S
C5 C4 1.348 . S
C5 C6 1.442 . S
C5 H32 0.930 . S
C6 C5 1.442 . S
C6 C7 1.381 . S
C6 H33 0.931 . S
C7 C6 1.381 . S
C7 C8 1.321 . S
C8 C7 1.321 . S
C8 C9 1.403 . S
C8 H34 0.934 . S
C9 C4 1.413 . S
C9 C8 1.403 . S
C9 H35 0.930 . S
C10 O24 1.275 . S
C10 O25 1.256 1_545 S
C11 O26 1.259 . S
C11 O27 1.268 . S
C12 Ho1 2.811 . S
C12 C13 1.488 . S
C12 O28 1.215 . S
C12 O29 1.289 . S
C13 C12 1.488 . S
C13 C14 1.348 . S
C13 C18 1.413 . S
C14 C13 1.348 . S
C14 C15 1.442 . S
C14 H36 0.930 . S
C15 C14 1.442 . S
C15 C16 1.381 . S
C15 H37 0.931 . S
C16 C15 1.381 . S
C16 C17 1.321 . S
C17 C16 1.321 . S
C17 C18 1.403 . S
C17 H38 0.934 . S
C18 C13 1.413 . S
C18 C17 1.403 . S
C18 H39 0.930 . S
C19 O30 1.275 1_545 S
C19 O31 1.256 . S
O20 Ho0 2.322 . S
O20 C2 1.259 . S
O21 Ho1 2.346 1_545 S
O21 C2 1.268 . S
O22 Ho0 2.378 . S
O22 C3 1.215 . S
O23 Ho0 2.524 . S
O23 C3 1.289 . S
O24 Ho0 2.381 . S
O24 C10 1.275 . S
O25 Ho0 2.669 1_565 S
O25 Ho1 2.305 . S
O25 C10 1.256 1_565 S
O26 Ho1 2.322 . S
O26 C11 1.259 . S
O27 Ho0 2.346 1_565 S
O27 C11 1.268 . S
O28 Ho1 2.378 . S
O28 C12 1.215 . S
O29 Ho1 2.524 . S
O29 C12 1.289 . S
O30 Ho1 2.381 . S
O30 C19 1.275 1_565 S
O31 Ho0 2.305 . S
O31 Ho1 2.669 1_545 S
O31 C19 1.256 . S
H32 C5 0.930 . S
H33 C6 0.931 . S
H34 C8 0.934 . S
H35 C9 0.930 . S
H36 C14 0.930 . S
H37 C15 0.931 . S
H38 C17 0.934 . S
H39 C18 0.930 . S
Ho40 C43 2.811 1_455 S
Ho40 O60 2.322 1_455 S
Ho40 O62 2.378 1_455 S
Ho40 O63 2.524 1_455 S
Ho40 O64 2.381 . S
Ho40 O65 2.669 . S
Ho40 O67 2.346 . S
Ho40 O71 2.305 . S
Ho41 C52 2.811 . S
Ho41 O61 2.346 1_455 S
Ho41 O65 2.305 . S
Ho41 O66 2.322 . S
Ho41 O68 2.378 . S
Ho41 O69 2.524 . S
Ho41 O70 2.381 . S
Ho41 O71 2.669 . S
C42 O60 1.259 . S
C42 O61 1.268 . S
C43 Ho40 2.811 1_655 S
C43 C44 1.488 . S
C43 O62 1.215 . S
C43 O63 1.289 . S
C44 C43 1.488 . S
C44 C45 1.348 . S
C44 C49 1.413 . S
C45 C44 1.348 . S
C45 C46 1.442 . S
C45 H72 0.930 . S
C46 C45 1.442 . S
C46 C47 1.381 . S
C46 H73 0.931 . S
C47 C46 1.381 . S
C47 C48 1.321 . S
C48 C47 1.321 . S
C48 C49 1.403 . S
C48 H74 0.934 . S
C49 C44 1.413 . S
C49 C48 1.403 . S
C49 H75 0.930 . S
C50 O64 1.275 . S
C50 O65 1.256 . S
C51 O66 1.259 . S
C51 O67 1.268 . S
C52 Ho41 2.811 . S
C52 C53 1.488 . S
C52 O68 1.215 . S
C52 O69 1.289 . S
C53 C52 1.488 . S
C53 C54 1.348 . S
C53 C58 1.413 . S
C54 C53 1.348 . S
C54 C55 1.442 . S
C54 H76 0.930 . S
C55 C54 1.442 . S
C55 C56 1.381 . S
C55 H77 0.931 . S
C56 C55 1.381 . S
C56 C57 1.321 . S
C57 C56 1.321 . S
C57 C58 1.403 . S
C57 H78 0.934 . S
C58 C53 1.413 . S
C58 C57 1.403 . S
C58 H79 0.930 . S
C59 O70 1.275 . S
C59 O71 1.256 . S
O60 Ho40 2.322 1_655 S
O60 C42 1.259 . S
O61 Ho41 2.346 1_655 S
O61 C42 1.268 . S
O62 Ho40 2.378 1_655 S
O62 C43 1.215 . S
O63 Ho40 2.524 1_655 S
O63 C43 1.289 . S
O64 Ho40 2.381 . S
O64 C50 1.275 . S
O65 Ho40 2.669 . S
O65 Ho41 2.305 . S
O65 C50 1.256 . S
O66 Ho41 2.322 . S
O66 C51 1.259 . S
O67 Ho40 2.346 . S
O67 C51 1.268 . S
O68 Ho41 2.378 . S
O68 C52 1.215 . S
O69 Ho41 2.524 . S
O69 C52 1.289 . S
O70 Ho41 2.381 . S
O70 C59 1.275 . S
O71 Ho40 2.305 . S
O71 Ho41 2.669 . S
O71 C59 1.256 . S
H72 C45 0.930 . S
H73 C46 0.931 . S
H74 C48 0.934 . S
H75 C49 0.930 . S
H76 C54 0.930 . S
H77 C55 0.931 . S
H78 C57 0.934 . S
H79 C58 0.930 . S
Ho80 C83 2.811 . S
Ho80 O100 2.322 . S
Ho80 O102 2.378 . S
Ho80 O103 2.524 . S
Ho80 O104 2.381 . S
Ho80 O105 2.669 . S
Ho80 O107 2.346 . S
Ho80 O111 2.305 . S
Ho81 C92 2.811 . S
Ho81 O101 2.346 . S
Ho81 O105 2.305 . S
Ho81 O106 2.322 . S
Ho81 O108 2.378 . S
Ho81 O109 2.524 . S
Ho81 O110 2.381 . S
Ho81 O111 2.669 . S
C82 O100 1.259 . S
C82 O101 1.268 . S
C83 Ho80 2.811 . S
C83 C84 1.488 . S
C83 O102 1.215 . S
C83 O103 1.289 . S
C84 C83 1.488 . S
C84 C85 1.348 . S
C84 C89 1.413 . S
C85 C84 1.348 . S
C85 C86 1.442 . S
C85 H112 0.930 . S
C86 C85 1.442 . S
C86 C87 1.381 . S
C86 H113 0.931 . S
C87 C86 1.381 . S
C87 C88 1.321 . S
C88 C87 1.321 . S
C88 C89 1.403 . S
C88 H114 0.934 . S
C89 C84 1.413 . S
C89 C88 1.403 . S
C89 H115 0.930 . S
C90 O104 1.275 . S
C90 O105 1.256 . S
C91 O106 1.259 . S
C91 O107 1.268 . S
C92 Ho81 2.811 . S
C92 C93 1.488 . S
C92 O108 1.215 . S
C92 O109 1.289 . S
C93 C92 1.488 . S
C93 C94 1.348 . S
C93 C98 1.413 . S
C94 C93 1.348 . S
C94 C95 1.442 . S
C94 H116 0.930 . S
C95 C94 1.442 . S
C95 C96 1.381 . S
C95 H117 0.931 . S
C96 C95 1.381 . S
C96 C97 1.321 . S
C97 C96 1.321 . S
C97 C98 1.403 . S
C97 H118 0.934 . S
C98 C93 1.413 . S
C98 C97 1.403 . S
C98 H119 0.930 . S
C99 O110 1.275 . S
C99 O111 1.256 . S
O100 Ho80 2.322 . S
O100 C82 1.259 . S
O101 Ho81 2.346 . S
O101 C82 1.268 . S
O102 Ho80 2.378 . S
O102 C83 1.215 . S
O103 Ho80 2.524 . S
O103 C83 1.289 . S
O104 Ho80 2.381 . S
O104 C90 1.275 . S
O105 Ho80 2.669 . S
O105 Ho81 2.305 . S
O105 C90 1.256 . S
O106 Ho81 2.322 . S
O106 C91 1.259 . S
O107 Ho80 2.346 . S
O107 C91 1.268 . S
O108 Ho81 2.378 . S
O108 C92 1.215 . S
O109 Ho81 2.524 . S
O109 C92 1.289 . S
O110 Ho81 2.381 . S
O110 C99 1.275 . S
O111 Ho80 2.305 . S
O111 Ho81 2.669 . S
O111 C99 1.256 . S
H112 C85 0.930 . S
H113 C86 0.931 . S
H114 C88 0.934 . S
H115 C89 0.930 . S
H116 C94 0.930 . S
H117 C95 0.931 . S
H118 C97 0.934 . S
H119 C98 0.930 . S
Ho120 C123 2.811 . S
Ho120 O140 2.322 . S
Ho120 O142 2.378 . S
Ho120 O143 2.524 . S
Ho120 O144 2.381 . S
Ho120 O145 2.669 1_455 S
Ho120 O147 2.346 1_455 S
Ho120 O151 2.305 . S
Ho121 C132 2.811 . S
Ho121 O141 2.346 1_655 S
Ho121 O145 2.305 . S
Ho121 O146 2.322 . S
Ho121 O148 2.378 . S
Ho121 O149 2.524 . S
Ho121 O150 2.381 . S
Ho121 O151 2.669 1_655 S
C122 O140 1.259 . S
C122 O141 1.268 . S
C123 Ho120 2.811 . S
C123 C124 1.488 . S
C123 O142 1.215 . S
C123 O143 1.289 . S
C124 C123 1.488 . S
C124 C125 1.348 . S
C124 C129 1.413 . S
C125 C124 1.348 . S
C125 C126 1.442 . S
C125 H152 0.930 . S
C126 C125 1.442 . S
C126 C127 1.381 . S
C126 H153 0.931 . S
C127 C126 1.381 . S
C127 C128 1.321 . S
C128 C127 1.321 . S
C128 C129 1.403 . S
C128 H154 0.934 . S
C129 C124 1.413 . S
C129 C128 1.403 . S
C129 H155 0.930 . S
C130 O144 1.275 . S
C130 O145 1.256 1_455 S
C131 O146 1.259 . S
C131 O147 1.268 . S
C132 Ho121 2.811 . S
C132 C133 1.488 . S
C132 O148 1.215 . S
C132 O149 1.289 . S
C133 C132 1.488 . S
C133 C134 1.348 . S
C133 C138 1.413 . S
C134 C133 1.348 . S
C134 C135 1.442 . S
C134 H156 0.930 . S
C135 C134 1.442 . S
C135 C136 1.381 . S
C135 H157 0.931 . S
C136 C135 1.381 . S
C136 C137 1.321 . S
C137 C136 1.321 . S
C137 C138 1.403 . S
C137 H158 0.934 . S
C138 C133 1.413 . S
C138 C137 1.403 . S
C138 H159 0.930 . S
C139 O150 1.275 1_455 S
C139 O151 1.256 . S
O140 Ho120 2.322 . S
O140 C122 1.259 . S
O141 Ho121 2.346 1_455 S
O141 C122 1.268 . S
O142 Ho120 2.378 . S
O142 C123 1.215 . S
O143 Ho120 2.524 . S
O143 C123 1.289 . S
O144 Ho120 2.381 . S
O144 C130 1.275 . S
O145 Ho120 2.669 1_655 S
O145 Ho121 2.305 . S
O145 C130 1.256 1_655 S
O146 Ho121 2.322 . S
O146 C131 1.259 . S
O147 Ho120 2.346 1_655 S
O147 C131 1.268 . S
O148 Ho121 2.378 . S
O148 C132 1.215 . S
O149 Ho121 2.524 . S
O149 C132 1.289 . S
O150 Ho121 2.381 . S
O150 C139 1.275 1_655 S
O151 Ho120 2.305 . S
O151 Ho121 2.669 1_455 S
O151 C139 1.256 . S
H152 C125 0.930 . S
H153 C126 0.931 . S
H154 C128 0.934 . S
H155 C129 0.930 . S
H156 C134 0.930 . S
H157 C135 0.931 . S
H158 C137 0.934 . S
H159 C138 0.930 . S
Ho160 C163 2.811 . S
Ho160 O180 2.322 . S
Ho160 O182 2.378 . S
Ho160 O183 2.524 . S
Ho160 O184 2.381 . S
Ho160 O185 2.669 . S
Ho160 O187 2.346 . S
Ho160 O191 2.305 . S
Ho161 C172 2.811 . S
Ho161 O181 2.346 . S
Ho161 O185 2.305 . S
Ho161 O186 2.322 . S
Ho161 O188 2.378 . S
Ho161 O189 2.524 . S
Ho161 O190 2.381 . S
Ho161 O191 2.669 . S
C162 O180 1.259 . S
C162 O181 1.268 . S
C163 Ho160 2.811 . S
C163 C164 1.488 . S
C163 O182 1.215 . S
C163 O183 1.289 . S
C164 C163 1.488 . S
C164 C165 1.348 . S
C164 C169 1.413 . S
C165 C164 1.348 . S
C165 C166 1.442 . S
C165 H192 0.930 . S
C166 C165 1.442 . S
C166 C167 1.381 . S
C166 H193 0.931 . S
C167 C166 1.381 . S
C167 C168 1.321 . S
C168 C167 1.321 . S
C168 C169 1.403 . S
C168 H194 0.934 . S
C169 C164 1.413 . S
C169 C168 1.403 . S
C169 H195 0.930 . S
C170 O184 1.275 . S
C170 O185 1.256 . S
C171 O186 1.259 . S
C171 O187 1.268 . S
C172 Ho161 2.811 . S
C172 C173 1.488 . S
C172 O188 1.215 . S
C172 O189 1.289 . S
C173 C172 1.488 . S
C173 C174 1.348 . S
C173 C178 1.413 . S
C174 C173 1.348 . S
C174 C175 1.442 . S
C174 H196 0.930 . S
C175 C174 1.442 . S
C175 C176 1.381 . S
C175 H197 0.931 . S
C176 C175 1.381 . S
C176 C177 1.321 . S
C177 C176 1.321 . S
C177 C178 1.403 . S
C177 H198 0.934 . S
C178 C173 1.413 . S
C178 C177 1.403 . S
C178 H199 0.930 . S
C179 O190 1.275 . S
C179 O191 1.256 . S
O180 Ho160 2.322 . S
O180 C162 1.259 . S
O181 Ho161 2.346 . S
O181 C162 1.268 . S
O182 Ho160 2.378 . S
O182 C163 1.215 . S
O183 Ho160 2.524 . S
O183 C163 1.289 . S
O184 Ho160 2.381 . S
O184 C170 1.275 . S
O185 Ho160 2.669 . S
O185 Ho161 2.305 . S
O185 C170 1.256 . S
O186 Ho161 2.322 . S
O186 C171 1.259 . S
O187 Ho160 2.346 . S
O187 C171 1.268 . S
O188 Ho161 2.378 . S
O188 C172 1.215 . S
O189 Ho161 2.524 . S
O189 C172 1.289 . S
O190 Ho161 2.381 . S
O190 C179 1.275 . S
O191 Ho160 2.305 . S
O191 Ho161 2.669 . S
O191 C179 1.256 . S
H192 C165 0.930 . S
H193 C166 0.931 . S
H194 C168 0.934 . S
H195 C169 0.930 . S
H196 C174 0.930 . S
H197 C175 0.931 . S
H198 C177 0.934 . S
H199 C178 0.930 . S
Ho200 C203 2.811 1_545 S
Ho200 O220 2.322 1_545 S
Ho200 O222 2.378 1_545 S
Ho200 O223 2.524 1_545 S
Ho200 O224 2.381 . S
Ho200 O225 2.669 . S
Ho200 O227 2.346 . S
Ho200 O231 2.305 . S
Ho201 C212 2.811 . S
Ho201 O221 2.346 1_545 S
Ho201 O225 2.305 . S
Ho201 O226 2.322 . S
Ho201 O228 2.378 . S
Ho201 O229 2.524 . S
Ho201 O230 2.381 . S
Ho201 O231 2.669 . S
C202 O220 1.259 . S
C202 O221 1.268 . S
C203 Ho200 2.811 1_565 S
C203 C204 1.488 . S
C203 O222 1.215 . S
C203 O223 1.289 . S
C204 C203 1.488 . S
C204 C205 1.348 . S
C204 C209 1.413 . S
C205 C204 1.348 . S
C205 C206 1.442 . S
C205 H232 0.930 . S
C206 C205 1.442 . S
C206 C207 1.381 . S
C206 H233 0.931 . S
C207 C206 1.381 . S
C207 C208 1.321 . S
C208 C207 1.321 . S
C208 C209 1.403 . S
C208 H234 0.934 . S
C209 C204 1.413 . S
C209 C208 1.403 . S
C209 H235 0.930 . S
C210 O224 1.275 . S
C210 O225 1.256 . S
C211 O226 1.259 . S
C211 O227 1.268 . S
C212 Ho201 2.811 . S
C212 C213 1.488 . S
C212 O228 1.215 . S
C212 O229 1.289 . S
C213 C212 1.488 . S
C213 C214 1.348 . S
C213 C218 1.413 . S
C214 C213 1.348 . S
C214 C215 1.442 . S
C214 H236 0.930 . S
C215 C214 1.442 . S
C215 C216 1.381 . S
C215 H237 0.931 . S
C216 C215 1.381 . S
C216 C217 1.321 . S
C217 C216 1.321 . S
C217 C218 1.403 . S
C217 H238 0.934 . S
C218 C213 1.413 . S
C218 C217 1.403 . S
C218 H239 0.930 . S
C219 O230 1.275 . S
C219 O231 1.256 . S
O220 Ho200 2.322 1_565 S
O220 C202 1.259 . S
O221 Ho201 2.346 1_565 S
O221 C202 1.268 . S
O222 Ho200 2.378 1_565 S
O222 C203 1.215 . S
O223 Ho200 2.524 1_565 S
O223 C203 1.289 . S
O224 Ho200 2.381 . S
O224 C210 1.275 . S
O225 Ho200 2.669 . S
O225 Ho201 2.305 . S
O225 C210 1.256 . S
O226 Ho201 2.322 . S
O226 C211 1.259 . S
O227 Ho200 2.346 . S
O227 C211 1.268 . S
O228 Ho201 2.378 . S
O228 C212 1.215 . S
O229 Ho201 2.524 . S
O229 C212 1.289 . S
O230 Ho201 2.381 . S
O230 C219 1.275 . S
O231 Ho200 2.305 . S
O231 Ho201 2.669 . S
O231 C219 1.256 . S
H232 C205 0.930 . S
H233 C206 0.931 . S
H234 C208 0.934 . S
H235 C209 0.930 . S
H236 C214 0.930 . S
H237 C215 0.931 . S
H238 C217 0.934 . S
H239 C218 0.930 . S
Ho240 C243 2.811 . S
Ho240 O260 2.322 . S
Ho240 O262 2.378 . S
Ho240 O263 2.524 . S
Ho240 O264 2.381 . S
Ho240 O265 2.669 . S
Ho240 O267 2.346 . S
Ho240 O271 2.305 . S
Ho241 C252 2.811 . S
Ho241 O261 2.346 . S
Ho241 O265 2.305 . S
Ho241 O266 2.322 . S
Ho241 O268 2.378 . S
Ho241 O269 2.524 . S
Ho241 O270 2.381 . S
Ho241 O271 2.669 . S
C242 O260 1.259 . S
C242 O261 1.268 . S
C243 Ho240 2.811 . S
C243 C244 1.488 . S
C243 O262 1.215 . S
C243 O263 1.289 . S
C244 C243 1.488 . S
C244 C245 1.348 . S
C244 C249 1.413 . S
C245 C244 1.348 . S
C245 C246 1.442 . S
C245 H272 0.930 . S
C246 C245 1.442 . S
C246 C247 1.381 . S
C246 H273 0.931 . S
C247 C246 1.381 . S
C247 C248 1.321 . S
C248 C247 1.321 . S
C248 C249 1.403 . S
C248 H274 0.934 . S
C249 C244 1.413 . S
C249 C248 1.403 . S
C249 H275 0.930 . S
C250 O264 1.275 . S
C250 O265 1.256 . S
C251 O266 1.259 . S
C251 O267 1.268 . S
C252 Ho241 2.811 . S
C252 C253 1.488 . S
C252 O268 1.215 . S
C252 O269 1.289 . S
C253 C252 1.488 . S
C253 C254 1.348 . S
C253 C258 1.413 . S
C254 C253 1.348 . S
C254 C255 1.442 . S
C254 H276 0.930 . S
C255 C254 1.442 . S
C255 C256 1.381 1_455 S
C255 H277 0.931 1_455 S
C256 C255 1.381 1_655 S
C256 C257 1.321 . S
C257 C256 1.321 . S
C257 C258 1.403 1_655 S
C257 H278 0.934 . S
C258 C253 1.413 . S
C258 C257 1.403 1_455 S
C258 H279 0.930 . S
C259 O270 1.275 . S
C259 O271 1.256 . S
O260 Ho240 2.322 . S
O260 C242 1.259 . S
O261 Ho241 2.346 . S
O261 C242 1.268 . S
O262 Ho240 2.378 . S
O262 C243 1.215 . S
O263 Ho240 2.524 . S
O263 C243 1.289 . S
O264 Ho240 2.381 . S
O264 C250 1.275 . S
O265 Ho240 2.669 . S
O265 Ho241 2.305 . S
O265 C250 1.256 . S
O266 Ho241 2.322 . S
O266 C251 1.259 . S
O267 Ho240 2.346 . S
O267 C251 1.268 . S
O268 Ho241 2.378 . S
O268 C252 1.215 . S
O269 Ho241 2.524 . S
O269 C252 1.289 . S
O270 Ho241 2.381 . S
O270 C259 1.275 . S
O271 Ho240 2.305 . S
O271 Ho241 2.669 . S
O271 C259 1.256 . S
H272 C245 0.930 . S
H273 C246 0.931 . S
H274 C248 0.934 . S
H275 C249 0.930 . S
H276 C254 0.930 . S
H277 C255 0.931 1_655 S
H278 C257 0.934 . S
H279 C258 0.930 . S
Ho280 C283 2.811 . S
Ho280 O300 2.322 . S
Ho280 O302 2.378 . S
Ho280 O303 2.524 . S
Ho280 O304 2.381 . S
Ho280 O305 2.669 . S
Ho280 O307 2.346 . S
Ho280 O311 2.305 . S
Ho281 C292 2.811 . S
Ho281 O301 2.346 . S
Ho281 O305 2.305 . S
Ho281 O306 2.322 . S
Ho281 O308 2.378 . S
Ho281 O309 2.524 . S
Ho281 O310 2.381 . S
Ho281 O311 2.669 . S
C282 O300 1.259 . S
C282 O301 1.268 . S
C283 Ho280 2.811 . S
C283 C284 1.488 . S
C283 O302 1.215 . S
C283 O303 1.289 . S
C284 C283 1.488 . S
C284 C285 1.348 . S
C284 C289 1.413 . S
C285 C284 1.348 . S
C285 C286 1.442 . S
C285 H312 0.930 . S
C286 C285 1.442 . S
C286 C287 1.381 . S
C286 H313 0.931 . S
C287 C286 1.381 . S
C287 C288 1.321 . S
C288 C287 1.321 . S
C288 C289 1.403 . S
C288 H314 0.934 . S
C289 C284 1.413 . S
C289 C288 1.403 . S
C289 H315 0.930 . S
C290 O304 1.275 . S
C290 O305 1.256 . S
C291 O306 1.259 . S
C291 O307 1.268 . S
C292 Ho281 2.811 . S
C292 C293 1.488 . S
C292 O308 1.215 . S
C292 O309 1.289 . S
C293 C292 1.488 . S
C293 C294 1.348 . S
C293 C298 1.413 . S
C294 C293 1.348 . S
C294 C295 1.442 . S
C294 H316 0.930 . S
C295 C294 1.442 . S
C295 C296 1.381 . S
C295 H317 0.931 . S
C296 C295 1.381 . S
C296 C297 1.321 . S
C297 C296 1.321 . S
C297 C298 1.403 . S
C297 H318 0.934 . S
C298 C293 1.413 . S
C298 C297 1.403 . S
C298 H319 0.930 . S
C299 O310 1.275 . S
C299 O311 1.256 . S
O300 Ho280 2.322 . S
O300 C282 1.259 . S
O301 Ho281 2.346 . S
O301 C282 1.268 . S
O302 Ho280 2.378 . S
O302 C283 1.215 . S
O303 Ho280 2.524 . S
O303 C283 1.289 . S
O304 Ho280 2.381 . S
O304 C290 1.275 . S
O305 Ho280 2.669 . S
O305 Ho281 2.305 . S
O305 C290 1.256 . S
O306 Ho281 2.322 . S
O306 C291 1.259 . S
O307 Ho280 2.346 . S
O307 C291 1.268 . S
O308 Ho281 2.378 . S
O308 C292 1.215 . S
O309 Ho281 2.524 . S
O309 C292 1.289 . S
O310 Ho281 2.381 . S
O310 C299 1.275 . S
O311 Ho280 2.305 . S
O311 Ho281 2.669 . S
O311 C299 1.256 . S
H312 C285 0.930 . S
H313 C286 0.931 . S
H314 C288 0.934 . S
H315 C289 0.930 . S
H316 C294 0.930 . S
H317 C295 0.931 . S
H318 C297 0.934 . S
H319 C298 0.930 . S
Ho320 C323 2.811 . S
Ho320 O340 2.322 . S
Ho320 O342 2.378 . S
Ho320 O343 2.524 . S
Ho320 O344 2.381 . S
Ho320 O345 2.669 . S
Ho320 O347 2.346 . S
Ho320 O351 2.305 . S
Ho321 C332 2.811 . S
Ho321 O341 2.346 . S
Ho321 O345 2.305 . S
Ho321 O346 2.322 . S
Ho321 O348 2.378 . S
Ho321 O349 2.524 . S
Ho321 O350 2.381 . S
Ho321 O351 2.669 . S
C322 O340 1.259 . S
C322 O341 1.268 . S
C323 Ho320 2.811 . S
C323 C324 1.488 . S
C323 O342 1.215 . S
C323 O343 1.289 . S
C324 C323 1.488 . S
C324 C325 1.348 . S
C324 C329 1.413 . S
C325 C324 1.348 . S
C325 C326 1.442 . S
C325 H352 0.930 . S
C326 C325 1.442 . S
C326 C327 1.381 . S
C326 H353 0.931 . S
C327 C326 1.381 . S
C327 C328 1.321 . S
C328 C327 1.321 . S
C328 C329 1.403 . S
C328 H354 0.934 . S
C329 C324 1.413 . S
C329 C328 1.403 . S
C329 H355 0.930 . S
C330 O344 1.275 . S
C330 O345 1.256 . S
C331 O346 1.259 . S
C331 O347 1.268 . S
C332 Ho321 2.811 . S
C332 C333 1.488 . S
C332 O348 1.215 . S
C332 O349 1.289 . S
C333 C332 1.488 . S
C333 C334 1.348 1_565 S
C333 C338 1.413 1_565 S
C334 C333 1.348 1_545 S
C334 C335 1.442 . S
C334 H356 0.930 1_545 S
C335 C334 1.442 . S
C335 C336 1.381 . S
C335 H357 0.931 . S
C336 C335 1.381 . S
C336 C337 1.321 . S
C337 C336 1.321 . S
C337 C338 1.403 . S
C337 H358 0.934 . S
C338 C333 1.413 1_545 S
C338 C337 1.403 . S
C338 H359 0.930 . S
C339 O350 1.275 . S
C339 O351 1.256 . S
O340 Ho320 2.322 . S
O340 C322 1.259 . S
O341 Ho321 2.346 . S
O341 C322 1.268 . S
O342 Ho320 2.378 . S
O342 C323 1.215 . S
O343 Ho320 2.524 . S
O343 C323 1.289 . S
O344 Ho320 2.381 . S
O344 C330 1.275 . S
O345 Ho320 2.669 . S
O345 Ho321 2.305 . S
O345 C330 1.256 . S
O346 Ho321 2.322 . S
O346 C331 1.259 . S
O347 Ho320 2.346 . S
O347 C331 1.268 . S
O348 Ho321 2.378 . S
O348 C332 1.215 . S
O349 Ho321 2.524 . S
O349 C332 1.289 . S
O350 Ho321 2.381 . S
O350 C339 1.275 . S
O351 Ho320 2.305 . S
O351 Ho321 2.669 . S
O351 C339 1.256 . S
H352 C325 0.930 . S
H353 C326 0.931 . S
H354 C328 0.934 . S
H355 C329 0.930 . S
H356 C334 0.930 1_565 S
H357 C335 0.931 . S
H358 C337 0.934 . S
H359 C338 0.930 . S
Ho360 C363 2.811 . S
Ho360 O380 2.322 . S
Ho360 O382 2.378 . S
Ho360 O383 2.524 . S
Ho360 O384 2.381 . S
Ho360 O385 2.669 . S
Ho360 O387 2.346 . S
Ho360 O391 2.305 . S
Ho361 C372 2.811 . S
Ho361 O381 2.346 . S
Ho361 O385 2.305 . S
Ho361 O386 2.322 . S
Ho361 O388 2.378 . S
Ho361 O389 2.524 . S
Ho361 O390 2.381 . S
Ho361 O391 2.669 . S
C362 O380 1.259 . S
C362 O381 1.268 . S
C363 Ho360 2.811 . S
C363 C364 1.488 . S
C363 O382 1.215 . S
C363 O383 1.289 . S
C364 C363 1.488 . S
C364 C365 1.348 . S
C364 C369 1.413 . S
C365 C364 1.348 . S
C365 C366 1.442 . S
C365 H392 0.930 . S
C366 C365 1.442 . S
C366 C367 1.381 . S
C366 H393 0.931 . S
C367 C366 1.381 . S
C367 C368 1.321 . S
C368 C367 1.321 . S
C368 C369 1.403 . S
C368 H394 0.934 . S
C369 C364 1.413 . S
C369 C368 1.403 . S
C369 H395 0.930 . S
C370 O384 1.275 . S
C370 O385 1.256 . S
C371 O386 1.259 . S
C371 O387 1.268 . S
C372 Ho361 2.811 . S
C372 C373 1.488 . S
C372 O388 1.215 . S
C372 O389 1.289 . S
C373 C372 1.488 . S
C373 C374 1.348 . S
C373 C378 1.413 . S
C374 C373 1.348 . S
C374 C375 1.442 . S
C374 H396 0.930 . S
C375 C374 1.442 . S
C375 C376 1.381 . S
C375 H397 0.931 . S
C376 C375 1.381 . S
C376 C377 1.321 . S
C377 C376 1.321 . S
C377 C378 1.403 . S
C377 H398 0.934 . S
C378 C373 1.413 . S
C378 C377 1.403 . S
C378 H399 0.930 . S
C379 O390 1.275 . S
C379 O391 1.256 . S
O380 Ho360 2.322 . S
O380 C362 1.259 . S
O381 Ho361 2.346 . S
O381 C362 1.268 . S
O382 Ho360 2.378 . S
O382 C363 1.215 . S
O383 Ho360 2.524 . S
O383 C363 1.289 . S
O384 Ho360 2.381 . S
O384 C370 1.275 . S
O385 Ho360 2.669 . S
O385 Ho361 2.305 . S
O385 C370 1.256 . S
O386 Ho361 2.322 . S
O386 C371 1.259 . S
O387 Ho360 2.346 . S
O387 C371 1.268 . S
O388 Ho361 2.378 . S
O388 C372 1.215 . S
O389 Ho361 2.524 . S
O389 C372 1.289 . S
O390 Ho361 2.381 . S
O390 C379 1.275 . S
O391 Ho360 2.305 . S
O391 Ho361 2.669 . S
O391 C379 1.256 . S
H392 C365 0.930 . S
H393 C366 0.931 . S
H394 C368 0.934 . S
H395 C369 0.930 . S
H396 C374 0.930 . S
H397 C375 0.931 . S
H398 C377 0.934 . S
H399 C378 0.930 . S
Ho400 C403 2.811 . S
Ho400 O420 2.322 . S
Ho400 O422 2.378 . S
Ho400 O423 2.524 . S
Ho400 O424 2.381 . S
Ho400 O425 2.669 . S
Ho400 O427 2.346 . S
Ho400 O431 2.305 . S
Ho401 C412 2.811 . S
Ho401 O421 2.346 . S
Ho401 O425 2.305 . S
Ho401 O426 2.322 . S
Ho401 O428 2.378 . S
Ho401 O429 2.524 . S
Ho401 O430 2.381 . S
Ho401 O431 2.669 . S
C402 O420 1.259 . S
C402 O421 1.268 . S
C403 Ho400 2.811 . S
C403 C404 1.488 . S
C403 O422 1.215 . S
C403 O423 1.289 . S
C404 C403 1.488 . S
C404 C405 1.348 . S
C404 C409 1.413 . S
C405 C404 1.348 . S
C405 C406 1.442 . S
C405 H432 0.930 . S
C406 C405 1.442 . S
C406 C407 1.381 . S
C406 H433 0.931 . S
C407 C406 1.381 . S
C407 C408 1.321 . S
C408 C407 1.321 . S
C408 C409 1.403 . S
C408 H434 0.934 . S
C409 C404 1.413 . S
C409 C408 1.403 . S
C409 H435 0.930 . S
C410 O424 1.275 . S
C410 O425 1.256 . S
C411 O426 1.259 . S
C411 O427 1.268 . S
C412 Ho401 2.811 . S
C412 C413 1.488 . S
C412 O428 1.215 . S
C412 O429 1.289 . S
C413 C412 1.488 . S
C413 C414 1.348 . S
C413 C418 1.413 . S
C414 C413 1.348 . S
C414 C415 1.442 . S
C414 H436 0.930 . S
C415 C414 1.442 . S
C415 C416 1.381 . S
C415 H437 0.931 . S
C416 C415 1.381 . S
C416 C417 1.321 . S
C417 C416 1.321 . S
C417 C418 1.403 . S
C417 H438 0.934 . S
C418 C413 1.413 . S
C418 C417 1.403 . S
C418 H439 0.930 . S
C419 O430 1.275 . S
C419 O431 1.256 . S
O420 Ho400 2.322 . S
O420 C402 1.259 . S
O421 Ho401 2.346 . S
O421 C402 1.268 . S
O422 Ho400 2.378 . S
O422 C403 1.215 . S
O423 Ho400 2.524 . S
O423 C403 1.289 . S
O424 Ho400 2.381 . S
O424 C410 1.275 . S
O425 Ho400 2.669 . S
O425 Ho401 2.305 . S
O425 C410 1.256 . S
O426 Ho401 2.322 . S
O426 C411 1.259 . S
O427 Ho400 2.346 . S
O427 C411 1.268 . S
O428 Ho401 2.378 . S
O428 C412 1.215 . S
O429 Ho401 2.524 . S
O429 C412 1.289 . S
O430 Ho401 2.381 . S
O430 C419 1.275 . S
O431 Ho400 2.305 . S
O431 Ho401 2.669 . S
O431 C419 1.256 . S
H432 C405 0.930 . S
H433 C406 0.931 . S
H434 C408 0.934 . S
H435 C409 0.930 . S
H436 C414 0.930 . S
H437 C415 0.931 . S
H438 C417 0.934 . S
H439 C418 0.930 . S
Ho440 C443 2.811 . S
Ho440 O460 2.322 . S
Ho440 O462 2.378 . S
Ho440 O463 2.524 . S
Ho440 O464 2.381 . S
Ho440 O465 2.669 . S
Ho440 O467 2.346 . S
Ho440 O471 2.305 . S
Ho441 C452 2.811 . S
Ho441 O461 2.346 . S
Ho441 O465 2.305 . S
Ho441 O466 2.322 . S
Ho441 O468 2.378 . S
Ho441 O469 2.524 . S
Ho441 O470 2.381 . S
Ho441 O471 2.669 . S
C442 O460 1.259 . S
C442 O461 1.268 . S
C443 Ho440 2.811 . S
C443 C444 1.488 . S
C443 O462 1.215 . S
C443 O463 1.289 . S
C444 C443 1.488 . S
C444 C445 1.348 . S
C444 C449 1.413 . S
C445 C444 1.348 . S
C445 C446 1.442 . S
C445 H472 0.930 . S
C446 C445 1.442 . S
C446 C447 1.381 . S
C446 H473 0.931 . S
C447 C446 1.381 . S
C447 C448 1.321 . S
C448 C447 1.321 . S
C448 C449 1.403 . S
C448 H474 0.934 . S
C449 C444 1.413 . S
C449 C448 1.403 . S
C449 H475 0.930 . S
C450 O464 1.275 . S
C450 O465 1.256 . S
C451 O466 1.259 . S
C451 O467 1.268 . S
C452 Ho441 2.811 . S
C452 C453 1.488 . S
C452 O468 1.215 . S
C452 O469 1.289 . S
C453 C452 1.488 . S
C453 C454 1.348 . S
C453 C458 1.413 . S
C454 C453 1.348 . S
C454 C455 1.442 . S
C454 H476 0.930 . S
C455 C454 1.442 . S
C455 C456 1.381 . S
C455 H477 0.931 . S
C456 C455 1.381 . S
C456 C457 1.321 . S
C457 C456 1.321 . S
C457 C458 1.403 . S
C457 H478 0.934 . S
C458 C453 1.413 . S
C458 C457 1.403 . S
C458 H479 0.930 . S
C459 O470 1.275 . S
C459 O471 1.256 . S
O460 Ho440 2.322 . S
O460 C442 1.259 . S
O461 Ho441 2.346 . S
O461 C442 1.268 . S
O462 Ho440 2.378 . S
O462 C443 1.215 . S
O463 Ho440 2.524 . S
O463 C443 1.289 . S
O464 Ho440 2.381 . S
O464 C450 1.275 . S
O465 Ho440 2.669 . S
O465 Ho441 2.305 . S
O465 C450 1.256 . S
O466 Ho441 2.322 . S
O466 C451 1.259 . S
O467 Ho440 2.346 . S
O467 C451 1.268 . S
O468 Ho441 2.378 . S
O468 C452 1.215 . S
O469 Ho441 2.524 . S
O469 C452 1.289 . S
O470 Ho441 2.381 . S
O470 C459 1.275 . S
O471 Ho440 2.305 . S
O471 Ho441 2.669 . S
O471 C459 1.256 . S
H472 C445 0.930 . S
H473 C446 0.931 . S
H474 C448 0.934 . S
H475 C449 0.930 . S
H476 C454 0.930 . S
H477 C455 0.931 . S
H478 C457 0.934 . S
H479 C458 0.930 . S
Ho480 C483 2.811 . S
Ho480 O500 2.322 . S
Ho480 O502 2.378 . S
Ho480 O503 2.524 . S
Ho480 O504 2.381 . S
Ho480 O505 2.669 . S
Ho480 O507 2.346 . S
Ho480 O511 2.305 . S
Ho481 C492 2.811 . S
Ho481 O501 2.346 . S
Ho481 O505 2.305 . S
Ho481 O506 2.322 . S
Ho481 O508 2.378 . S
Ho481 O509 2.524 . S
Ho481 O510 2.381 . S
Ho481 O511 2.669 . S
C482 O500 1.259 . S
C482 O501 1.268 . S
C483 Ho480 2.811 . S
C483 C484 1.488 . S
C483 O502 1.215 . S
C483 O503 1.289 . S
C484 C483 1.488 . S
C484 C485 1.348 . S
C484 C489 1.413 . S
C485 C484 1.348 . S
C485 C486 1.442 . S
C485 H512 0.930 . S
C486 C485 1.442 . S
C486 C487 1.381 . S
C486 H513 0.931 . S
C487 C486 1.381 . S
C487 C488 1.321 . S
C488 C487 1.321 . S
C488 C489 1.403 . S
C488 H514 0.934 . S
C489 C484 1.413 . S
C489 C488 1.403 . S
C489 H515 0.930 . S
C490 O504 1.275 . S
C490 O505 1.256 . S
C491 O506 1.259 . S
C491 O507 1.268 . S
C492 Ho481 2.811 . S
C492 C493 1.488 . S
C492 O508 1.215 . S
C492 O509 1.289 . S
C493 C492 1.488 . S
C493 C494 1.348 . S
C493 C498 1.413 . S
C494 C493 1.348 . S
C494 C495 1.442 . S
C494 H516 0.930 . S
C495 C494 1.442 . S
C495 C496 1.381 . S
C495 H517 0.931 . S
C496 C495 1.381 . S
C496 C497 1.321 . S
C497 C496 1.321 . S
C497 C498 1.403 . S
C497 H518 0.934 . S
C498 C493 1.413 . S
C498 C497 1.403 . S
C498 H519 0.930 . S
C499 O510 1.275 . S
C499 O511 1.256 . S
O500 Ho480 2.322 . S
O500 C482 1.259 . S
O501 Ho481 2.346 . S
O501 C482 1.268 . S
O502 Ho480 2.378 . S
O502 C483 1.215 . S
O503 Ho480 2.524 . S
O503 C483 1.289 . S
O504 Ho480 2.381 . S
O504 C490 1.275 . S
O505 Ho480 2.669 . S
O505 Ho481 2.305 . S
O505 C490 1.256 . S
O506 Ho481 2.322 . S
O506 C491 1.259 . S
O507 Ho480 2.346 . S
O507 C491 1.268 . S
O508 Ho481 2.378 . S
O508 C492 1.215 . S
O509 Ho481 2.524 . S
O509 C492 1.289 . S
O510 Ho481 2.381 . S
O510 C499 1.275 . S
O511 Ho480 2.305 . S
O511 Ho481 2.669 . S
O511 C499 1.256 . S
H512 C485 0.930 . S
H513 C486 0.931 . S
H514 C488 0.934 . S
H515 C489 0.930 . S
H516 C494 0.930 . S
H517 C495 0.931 . S
H518 C497 0.934 . S
H519 C498 0.930 . S
Ho520 C523 2.811 . S
Ho520 O540 2.322 . S
Ho520 O542 2.378 . S
Ho520 O543 2.524 . S
Ho520 O544 2.381 . S
Ho520 O545 2.669 . S
Ho520 O547 2.346 . S
Ho520 O551 2.305 . S
Ho521 C532 2.811 . S
Ho521 O541 2.346 . S
Ho521 O545 2.305 . S
Ho521 O546 2.322 . S
Ho521 O548 2.378 . S
Ho521 O549 2.524 . S
Ho521 O550 2.381 . S
Ho521 O551 2.669 . S
C522 O540 1.259 . S
C522 O541 1.268 . S
C523 Ho520 2.811 . S
C523 C524 1.488 . S
C523 O542 1.215 . S
C523 O543 1.289 . S
C524 C523 1.488 . S
C524 C525 1.348 . S
C524 C529 1.413 . S
C525 C524 1.348 . S
C525 C526 1.442 . S
C525 H552 0.930 . S
C526 C525 1.442 . S
C526 C527 1.381 . S
C526 H553 0.931 . S
C527 C526 1.381 . S
C527 C528 1.321 . S
C528 C527 1.321 . S
C528 C529 1.403 . S
C528 H554 0.934 . S
C529 C524 1.413 . S
C529 C528 1.403 . S
C529 H555 0.930 . S
C530 O544 1.275 . S
C530 O545 1.256 . S
C531 O546 1.259 . S
C531 O547 1.268 . S
C532 Ho521 2.811 . S
C532 C533 1.488 . S
C532 O548 1.215 . S
C532 O549 1.289 . S
C533 C532 1.488 . S
C533 C534 1.348 . S
C533 C538 1.413 . S
C534 C533 1.348 . S
C534 C535 1.442 . S
C534 H556 0.930 . S
C535 C534 1.442 . S
C535 C536 1.381 . S
C535 H557 0.931 . S
C536 C535 1.381 . S
C536 C537 1.321 . S
C537 C536 1.321 . S
C537 C538 1.403 . S
C537 H558 0.934 . S
C538 C533 1.413 . S
C538 C537 1.403 . S
C538 H559 0.930 . S
C539 O550 1.275 . S
C539 O551 1.256 . S
O540 Ho520 2.322 . S
O540 C522 1.259 . S
O541 Ho521 2.346 . S
O541 C522 1.268 . S
O542 Ho520 2.378 . S
O542 C523 1.215 . S
O543 Ho520 2.524 . S
O543 C523 1.289 . S
O544 Ho520 2.381 . S
O544 C530 1.275 . S
O545 Ho520 2.669 . S
O545 Ho521 2.305 . S
O545 C530 1.256 . S
O546 Ho521 2.322 . S
O546 C531 1.259 . S
O547 Ho520 2.346 . S
O547 C531 1.268 . S
O548 Ho521 2.378 . S
O548 C532 1.215 . S
O549 Ho521 2.524 . S
O549 C532 1.289 . S
O550 Ho521 2.381 . S
O550 C539 1.275 . S
O551 Ho520 2.305 . S
O551 Ho521 2.669 . S
O551 C539 1.256 . S
H552 C525 0.930 . S
H553 C526 0.931 . S
H554 C528 0.934 . S
H555 C529 0.930 . S
H556 C534 0.930 . S
H557 C535 0.931 . S
H558 C537 0.934 . S
H559 C538 0.930 . S
Ho560 C563 2.811 . S
Ho560 O580 2.322 . S
Ho560 O582 2.378 . S
Ho560 O583 2.524 . S
Ho560 O584 2.381 . S
Ho560 O585 2.669 . S
Ho560 O587 2.346 . S
Ho560 O591 2.305 . S
Ho561 C572 2.811 . S
Ho561 O581 2.346 . S
Ho561 O585 2.305 . S
Ho561 O586 2.322 . S
Ho561 O588 2.378 . S
Ho561 O589 2.524 . S
Ho561 O590 2.381 . S
Ho561 O591 2.669 . S
C562 O580 1.259 . S
C562 O581 1.268 . S
C563 Ho560 2.811 . S
C563 C564 1.488 . S
C563 O582 1.215 . S
C563 O583 1.289 . S
C564 C563 1.488 . S
C564 C565 1.348 . S
C564 C569 1.413 . S
C565 C564 1.348 . S
C565 C566 1.442 . S
C565 H592 0.930 . S
C566 C565 1.442 . S
C566 C567 1.381 . S
C566 H593 0.931 . S
C567 C566 1.381 . S
C567 C568 1.321 . S
C568 C567 1.321 . S
C568 C569 1.403 . S
C568 H594 0.934 . S
C569 C564 1.413 . S
C569 C568 1.403 . S
C569 H595 0.930 . S
C570 O584 1.275 . S
C570 O585 1.256 . S
C571 O586 1.259 . S
C571 O587 1.268 . S
C572 Ho561 2.811 . S
C572 C573 1.488 . S
C572 O588 1.215 . S
C572 O589 1.289 . S
C573 C572 1.488 . S
C573 C574 1.348 . S
C573 C578 1.413 . S
C574 C573 1.348 . S
C574 C575 1.442 . S
C574 H596 0.930 . S
C575 C574 1.442 . S
C575 C576 1.381 . S
C575 H597 0.931 . S
C576 C575 1.381 . S
C576 C577 1.321 . S
C577 C576 1.321 . S
C577 C578 1.403 . S
C577 H598 0.934 . S
C578 C573 1.413 . S
C578 C577 1.403 . S
C578 H599 0.930 . S
C579 O590 1.275 . S
C579 O591 1.256 . S
O580 Ho560 2.322 . S
O580 C562 1.259 . S
O581 Ho561 2.346 . S
O581 C562 1.268 . S
O582 Ho560 2.378 . S
O582 C563 1.215 . S
O583 Ho560 2.524 . S
O583 C563 1.289 . S
O584 Ho560 2.381 . S
O584 C570 1.275 . S
O585 Ho560 2.669 . S
O585 Ho561 2.305 . S
O585 C570 1.256 . S
O586 Ho561 2.322 . S
O586 C571 1.259 . S
O587 Ho560 2.346 . S
O587 C571 1.268 . S
O588 Ho561 2.378 . S
O588 C572 1.215 . S
O589 Ho561 2.524 . S
O589 C572 1.289 . S
O590 Ho561 2.381 . S
O590 C579 1.275 . S
O591 Ho560 2.305 . S
O591 Ho561 2.669 . S
O591 C579 1.256 . S
H592 C565 0.930 . S
H593 C566 0.931 . S
H594 C568 0.934 . S
H595 C569 0.930 . S
H596 C574 0.930 . S
H597 C575 0.931 . S
H598 C577 0.934 . S
H599 C578 0.930 . S
Ho600 C603 2.811 . S
Ho600 O620 2.322 . S
Ho600 O622 2.378 . S
Ho600 O623 2.524 . S
Ho600 O624 2.381 . S
Ho600 O625 2.669 . S
Ho600 O627 2.346 . S
Ho600 O631 2.305 . S
Ho601 C612 2.811 . S
Ho601 O621 2.346 . S
Ho601 O625 2.305 . S
Ho601 O626 2.322 . S
Ho601 O628 2.378 . S
Ho601 O629 2.524 . S
Ho601 O630 2.381 . S
Ho601 O631 2.669 . S
C602 O620 1.259 . S
C602 O621 1.268 . S
C603 Ho600 2.811 . S
C603 C604 1.488 . S
C603 O622 1.215 . S
C603 O623 1.289 . S
C604 C603 1.488 . S
C604 C605 1.348 . S
C604 C609 1.413 . S
C605 C604 1.348 . S
C605 C606 1.442 . S
C605 H632 0.930 . S
C606 C605 1.442 . S
C606 C607 1.381 . S
C606 H633 0.931 . S
C607 C606 1.381 . S
C607 C608 1.321 . S
C608 C607 1.321 . S
C608 C609 1.403 . S
C608 H634 0.934 . S
C609 C604 1.413 . S
C609 C608 1.403 . S
C609 H635 0.930 . S
C610 O624 1.275 . S
C610 O625 1.256 . S
C611 O626 1.259 . S
C611 O627 1.268 . S
C612 Ho601 2.811 . S
C612 C613 1.488 . S
C612 O628 1.215 . S
C612 O629 1.289 . S
C613 C612 1.488 . S
C613 C614 1.348 . S
C613 C618 1.413 . S
C614 C613 1.348 . S
C614 C615 1.442 . S
C614 H636 0.930 . S
C615 C614 1.442 . S
C615 C616 1.381 1_545 S
C615 H637 0.931 1_545 S
C616 C615 1.381 1_565 S
C616 C617 1.321 . S
C617 C616 1.321 . S
C617 C618 1.403 1_565 S
C617 H638 0.934 . S
C618 C613 1.413 . S
C618 C617 1.403 1_545 S
C618 H639 0.930 . S
C619 O630 1.275 . S
C619 O631 1.256 . S
O620 Ho600 2.322 . S
O620 C602 1.259 . S
O621 Ho601 2.346 . S
O621 C602 1.268 . S
O622 Ho600 2.378 . S
O622 C603 1.215 . S
O623 Ho600 2.524 . S
O623 C603 1.289 . S
O624 Ho600 2.381 . S
O624 C610 1.275 . S
O625 Ho600 2.669 . S
O625 Ho601 2.305 . S
O625 C610 1.256 . S
O626 Ho601 2.322 . S
O626 C611 1.259 . S
O627 Ho600 2.346 . S
O627 C611 1.268 . S
O628 Ho601 2.378 . S
O628 C612 1.215 . S
O629 Ho601 2.524 . S
O629 C612 1.289 . S
O630 Ho601 2.381 . S
O630 C619 1.275 . S
O631 Ho600 2.305 . S
O631 Ho601 2.669 . S
O631 C619 1.256 . S
H632 C605 0.930 . S
H633 C606 0.931 . S
H634 C608 0.934 . S
H635 C609 0.930 . S
H636 C614 0.930 . S
H637 C615 0.931 1_565 S
H638 C617 0.934 . S
H639 C618 0.930 . S
Ho640 C643 2.811 . S
Ho640 O660 2.322 . S
Ho640 O662 2.378 . S
Ho640 O663 2.524 . S
Ho640 O664 2.381 . S
Ho640 O665 2.669 . S
Ho640 O667 2.346 . S
Ho640 O671 2.305 . S
Ho641 C652 2.811 . S
Ho641 O661 2.346 . S
Ho641 O665 2.305 . S
Ho641 O666 2.322 . S
Ho641 O668 2.378 . S
Ho641 O669 2.524 . S
Ho641 O670 2.381 . S
Ho641 O671 2.669 . S
C642 O660 1.259 . S
C642 O661 1.268 . S
C643 Ho640 2.811 . S
C643 C644 1.488 . S
C643 O662 1.215 . S
C643 O663 1.289 . S
C644 C643 1.488 . S
C644 C645 1.348 . S
C644 C649 1.413 . S
C645 C644 1.348 . S
C645 C646 1.442 . S
C645 H672 0.930 . S
C646 C645 1.442 . S
C646 C647 1.381 . S
C646 H673 0.931 . S
C647 C646 1.381 . S
C647 C648 1.321 . S
C648 C647 1.321 . S
C648 C649 1.403 . S
C648 H674 0.934 . S
C649 C644 1.413 . S
C649 C648 1.403 . S
C649 H675 0.930 . S
C650 O664 1.275 . S
C650 O665 1.256 . S
C651 O666 1.259 . S
C651 O667 1.268 . S
C652 Ho641 2.811 . S
C652 C653 1.488 . S
C652 O668 1.215 . S
C652 O669 1.289 . S
C653 C652 1.488 . S
C653 C654 1.348 1_655 S
C653 C658 1.413 1_655 S
C654 C653 1.348 1_455 S
C654 C655 1.442 . S
C654 H676 0.930 1_455 S
C655 C654 1.442 . S
C655 C656 1.381 . S
C655 H677 0.931 . S
C656 C655 1.381 . S
C656 C657 1.321 . S
C657 C656 1.321 . S
C657 C658 1.403 . S
C657 H678 0.934 . S
C658 C653 1.413 1_455 S
C658 C657 1.403 . S
C658 H679 0.930 . S
C659 O670 1.275 . S
C659 O671 1.256 . S
O660 Ho640 2.322 . S
O660 C642 1.259 . S
O661 Ho641 2.346 . S
O661 C642 1.268 . S
O662 Ho640 2.378 . S
O662 C643 1.215 . S
O663 Ho640 2.524 . S
O663 C643 1.289 . S
O664 Ho640 2.381 . S
O664 C650 1.275 . S
O665 Ho640 2.669 . S
O665 Ho641 2.305 . S
O665 C650 1.256 . S
O666 Ho641 2.322 . S
O666 C651 1.259 . S
O667 Ho640 2.346 . S
O667 C651 1.268 . S
O668 Ho641 2.378 . S
O668 C652 1.215 . S
O669 Ho641 2.524 . S
O669 C652 1.289 . S
O670 Ho641 2.381 . S
O670 C659 1.275 . S
O671 Ho640 2.305 . S
O671 Ho641 2.669 . S
O671 C659 1.256 . S
H672 C645 0.930 . S
H673 C646 0.931 . S
H674 C648 0.934 . S
H675 C649 0.930 . S
H676 C654 0.930 1_655 S
H677 C655 0.931 . S
H678 C657 0.934 . S
H679 C658 0.930 . S
Ho680 C683 2.811 . S
Ho680 O700 2.322 . S
Ho680 O702 2.378 . S
Ho680 O703 2.524 . S
Ho680 O704 2.381 . S
Ho680 O705 2.669 . S
Ho680 O707 2.346 . S
Ho680 O711 2.305 . S
Ho681 C692 2.811 . S
Ho681 O701 2.346 . S
Ho681 O705 2.305 . S
Ho681 O706 2.322 . S
Ho681 O708 2.378 . S
Ho681 O709 2.524 . S
Ho681 O710 2.381 . S
Ho681 O711 2.669 . S
C682 O700 1.259 . S
C682 O701 1.268 . S
C683 Ho680 2.811 . S
C683 C684 1.488 . S
C683 O702 1.215 . S
C683 O703 1.289 . S
C684 C683 1.488 . S
C684 C685 1.348 . S
C684 C689 1.413 . S
C685 C684 1.348 . S
C685 C686 1.442 . S
C685 H712 0.930 . S
C686 C685 1.442 . S
C686 C687 1.381 . S
C686 H713 0.931 . S
C687 C686 1.381 . S
C687 C688 1.321 . S
C688 C687 1.321 . S
C688 C689 1.403 . S
C688 H714 0.934 . S
C689 C684 1.413 . S
C689 C688 1.403 . S
C689 H715 0.930 . S
C690 O704 1.275 . S
C690 O705 1.256 . S
C691 O706 1.259 . S
C691 O707 1.268 . S
C692 Ho681 2.811 . S
C692 C693 1.488 . S
C692 O708 1.215 . S
C692 O709 1.289 . S
C693 C692 1.488 . S
C693 C694 1.348 . S
C693 C698 1.413 . S
C694 C693 1.348 . S
C694 C695 1.442 . S
C694 H716 0.930 . S
C695 C694 1.442 . S
C695 C696 1.381 . S
C695 H717 0.931 . S
C696 C695 1.381 . S
C696 C697 1.321 . S
C697 C696 1.321 . S
C697 C698 1.403 . S
C697 H718 0.934 . S
C698 C693 1.413 . S
C698 C697 1.403 . S
C698 H719 0.930 . S
C699 O710 1.275 . S
C699 O711 1.256 . S
O700 Ho680 2.322 . S
O700 C682 1.259 . S
O701 Ho681 2.346 . S
O701 C682 1.268 . S
O702 Ho680 2.378 . S
O702 C683 1.215 . S
O703 Ho680 2.524 . S
O703 C683 1.289 . S
O704 Ho680 2.381 . S
O704 C690 1.275 . S
O705 Ho680 2.669 . S
O705 Ho681 2.305 . S
O705 C690 1.256 . S
O706 Ho681 2.322 . S
O706 C691 1.259 . S
O707 Ho680 2.346 . S
O707 C691 1.268 . S
O708 Ho681 2.378 . S
O708 C692 1.215 . S
O709 Ho681 2.524 . S
O709 C692 1.289 . S
O710 Ho681 2.381 . S
O710 C699 1.275 . S
O711 Ho680 2.305 . S
O711 Ho681 2.669 . S
O711 C699 1.256 . S
H712 C685 0.930 . S
H713 C686 0.931 . S
H714 C688 0.934 . S
H715 C689 0.930 . S
H716 C694 0.930 . S
H717 C695 0.931 . S
H718 C697 0.934 . S
H719 C698 0.930 . S
H720 C728 0.929 . S
H721 C730 0.930 . S
H722 C732 0.930 . S
H723 C735 0.929 . S
H724 C738 0.930 . S
H725 C740 0.960 . S
H726 C740 0.960 . S
H727 C740 0.960 . S
C728 H720 0.929 . S
C728 C729 1.377 . S
C728 C730 1.384 . S
C729 C728 1.377 . S
C729 C735 1.390 . S
C730 H721 0.930 . S
C730 C728 1.384 . S
C730 C731 1.372 . S
C731 C730 1.372 . S
C731 C732 1.400 . S
C731 C736 1.490 . S
C732 H722 0.930 . S
C732 C731 1.400 . S
C732 C735 1.386 . S
H733 C749 0.930 . S
H734 C750 0.931 . S
C735 H723 0.929 . S
C735 C729 1.390 . S
C735 C732 1.386 . S
C736 C731 1.490 . S
C736 C738 1.395 . S
C736 C739 1.403 . S
H737 C743 0.930 . S
C738 H724 0.930 . S
C738 C736 1.395 . S
C738 C741 1.403 . S
C739 C736 1.403 . S
C739 C740 1.524 . S
C739 C743 1.400 . S
C740 H725 0.960 . S
C740 H726 0.960 . S
C740 H727 0.960 . S
C740 C739 1.524 . S
C741 C738 1.403 . S
C741 C742 1.392 . S
C741 C745 1.495 . S
C742 C741 1.392 . S
C742 C743 1.385 . S
C742 C744 1.478 . S
C743 H737 0.930 . S
C743 C739 1.400 . S
C743 C742 1.385 . S
C744 C742 1.478 . S
C744 C746 1.381 . S
C744 C750 1.383 . S
C745 C741 1.495 . S
C745 H751 0.959 . S
C745 H752 0.961 . S
C745 H753 0.960 . S
C746 C744 1.381 . S
C746 C747 1.394 . S
C746 H754 0.930 . S
C747 C746 1.394 . S
C747 C748 1.383 . S
C747 H755 0.929 . S
C748 C747 1.383 . S
C748 C749 1.377 . S
C749 H733 0.930 . S
C749 C748 1.377 . S
C749 C750 1.379 . S
C750 H734 0.931 . S
C750 C744 1.383 . S
C750 C749 1.379 . S
H751 C745 0.959 . S
H752 C745 0.961 . S
H753 C745 0.960 . S
H754 C746 0.930 . S
H755 C747 0.929 . S
H756 C764 0.929 . S
H757 C766 0.930 . S
H758 C768 0.930 . S
H759 C771 0.929 . S
H760 C774 0.930 . S
H761 C776 0.960 . S
H762 C776 0.960 . S
H763 C776 0.960 . S
C764 H756 0.929 . S
C764 C765 1.377 . S
C764 C766 1.384 . S
C765 C764 1.377 . S
C765 C771 1.390 . S
C766 H757 0.930 . S
C766 C764 1.384 . S
C766 C767 1.372 . S
C767 C766 1.372 . S
C767 C768 1.400 . S
C767 C772 1.490 . S
C768 H758 0.930 . S
C768 C767 1.400 . S
C768 C771 1.386 . S
H769 C785 0.930 . S
H770 C786 0.931 . S
C771 H759 0.929 . S
C771 C765 1.390 . S
C771 C768 1.386 . S
C772 C767 1.490 . S
C772 C774 1.395 . S
C772 C775 1.403 . S
H773 C779 0.930 . S
C774 H760 0.930 . S
C774 C772 1.395 . S
C774 C777 1.403 . S
C775 C772 1.403 . S
C775 C776 1.524 . S
C775 C779 1.400 . S
C776 H761 0.960 . S
C776 H762 0.960 . S
C776 H763 0.960 . S
C776 C775 1.524 . S
C777 C774 1.403 . S
C777 C778 1.392 . S
C777 C781 1.495 . S
C778 C777 1.392 . S
C778 C779 1.385 . S
C778 C780 1.478 . S
C779 H773 0.930 . S
C779 C775 1.400 . S
C779 C778 1.385 . S
C780 C778 1.478 . S
C780 C782 1.381 . S
C780 C786 1.383 . S
C781 C777 1.495 . S
C781 H787 0.959 . S
C781 H788 0.961 . S
C781 H789 0.960 . S
C782 C780 1.381 . S
C782 C783 1.394 . S
C782 H790 0.930 . S
C783 C782 1.394 . S
C783 C784 1.383 . S
C783 H791 0.929 . S
C784 C783 1.383 . S
C784 C785 1.377 . S
C785 H769 0.930 . S
C785 C784 1.377 . S
C785 C786 1.379 . S
C786 H770 0.931 . S
C786 C780 1.383 . S
C786 C785 1.379 . S
H787 C781 0.959 . S
H788 C781 0.961 . S
H789 C781 0.960 . S
H790 C782 0.930 . S
H791 C783 0.929 . S
H792 C800 0.929 . S
H793 C802 0.930 . S
H794 C804 0.930 . S
H795 C807 0.929 . S
H796 C810 0.930 . S
H797 C812 0.960 . S
H798 C812 0.960 . S
H799 C812 0.960 . S
C800 H792 0.929 . S
C800 C801 1.377 . S
C800 C802 1.384 . S
C801 C800 1.377 . S
C801 C807 1.390 . S
C802 H793 0.930 . S
C802 C800 1.384 . S
C802 C803 1.372 . S
C803 C802 1.372 . S
C803 C804 1.400 . S
C803 C808 1.490 . S
C804 H794 0.930 . S
C804 C803 1.400 . S
C804 C807 1.386 . S
H805 C821 0.930 . S
H806 C822 0.931 . S
C807 H795 0.929 . S
C807 C801 1.390 . S
C807 C804 1.386 . S
C808 C803 1.490 . S
C808 C810 1.395 . S
C808 C811 1.403 . S
H809 C815 0.930 . S
C810 H796 0.930 . S
C810 C808 1.395 . S
C810 C813 1.403 . S
C811 C808 1.403 . S
C811 C812 1.524 . S
C811 C815 1.400 . S
C812 H797 0.960 . S
C812 H798 0.960 . S
C812 H799 0.960 . S
C812 C811 1.524 . S
C813 C810 1.403 . S
C813 C814 1.392 . S
C813 C817 1.495 . S
C814 C813 1.392 . S
C814 C815 1.385 . S
C814 C816 1.478 . S
C815 H809 0.930 . S
C815 C811 1.400 . S
C815 C814 1.385 . S
C816 C814 1.478 . S
C816 C818 1.381 . S
C816 C822 1.383 . S
C817 C813 1.495 . S
C817 H823 0.959 . S
C817 H824 0.961 . S
C817 H825 0.960 . S
C818 C816 1.381 . S
C818 C819 1.394 . S
C818 H826 0.930 . S
C819 C818 1.394 . S
C819 C820 1.383 . S
C819 H827 0.929 . S
C820 C819 1.383 . S
C820 C821 1.377 . S
C821 H805 0.930 . S
C821 C820 1.377 . S
C821 C822 1.379 . S
C822 H806 0.931 . S
C822 C816 1.383 . S
C822 C821 1.379 . S
H823 C817 0.959 . S
H824 C817 0.961 . S
H825 C817 0.960 . S
H826 C818 0.930 . S
H827 C819 0.929 . S
H828 C836 0.929 . S
H829 C838 0.930 . S
H830 C840 0.930 . S
H831 C843 0.929 . S
H832 C846 0.930 . S
H833 C848 0.960 . S
H834 C848 0.960 . S
H835 C848 0.960 . S
C836 H828 0.929 . S
C836 C837 1.377 . S
C836 C838 1.384 . S
C837 C836 1.377 . S
C837 C843 1.390 . S
C838 H829 0.930 . S
C838 C836 1.384 . S
C838 C839 1.372 . S
C839 C838 1.372 . S
C839 C840 1.400 . S
C839 C844 1.490 . S
C840 H830 0.930 . S
C840 C839 1.400 . S
C840 C843 1.386 . S
H841 C857 0.930 . S
H842 C858 0.931 . S
C843 H831 0.929 . S
C843 C837 1.390 . S
C843 C840 1.386 . S
C844 C839 1.490 . S
C844 C846 1.395 . S
C844 C847 1.403 . S
H845 C851 0.930 . S
C846 H832 0.930 . S
C846 C844 1.395 . S
C846 C849 1.403 . S
C847 C844 1.403 . S
C847 C848 1.524 . S
C847 C851 1.400 . S
C848 H833 0.960 . S
C848 H834 0.960 . S
C848 H835 0.960 . S
C848 C847 1.524 . S
C849 C846 1.403 . S
C849 C850 1.392 . S
C849 C853 1.495 . S
C850 C849 1.392 . S
C850 C851 1.385 . S
C850 C852 1.478 . S
C851 H845 0.930 . S
C851 C847 1.400 . S
C851 C850 1.385 . S
C852 C850 1.478 . S
C852 C854 1.381 . S
C852 C858 1.383 . S
C853 C849 1.495 . S
C853 H859 0.959 . S
C853 H860 0.961 . S
C853 H861 0.960 . S
C854 C852 1.381 . S
C854 C855 1.394 . S
C854 H862 0.930 . S
C855 C854 1.394 . S
C855 C856 1.383 . S
C855 H863 0.929 . S
C856 C855 1.383 . S
C856 C857 1.377 . S
C857 H841 0.930 . S
C857 C856 1.377 . S
C857 C858 1.379 . S
C858 H842 0.931 . S
C858 C852 1.383 . S
C858 C857 1.379 . S
H859 C853 0.959 . S
H860 C853 0.961 . S
H861 C853 0.960 . S
H862 C854 0.930 . S
H863 C855 0.929 . S
H864 C872 0.929 . S
H865 C874 0.930 . S
H866 C876 0.930 . S
H867 C879 0.929 . S
H868 C882 0.930 . S
H869 C884 0.960 . S
H870 C884 0.960 . S
H871 C884 0.960 . S
C872 H864 0.929 . S
C872 C873 1.377 . S
C872 C874 1.384 . S
C873 C872 1.377 . S
C873 C879 1.390 . S
C874 H865 0.930 . S
C874 C872 1.384 . S
C874 C875 1.372 . S
C875 C874 1.372 . S
C875 C876 1.400 . S
C875 C880 1.490 . S
C876 H866 0.930 . S
C876 C875 1.400 . S
C876 C879 1.386 . S
H877 C893 0.930 . S
H878 C894 0.931 . S
C879 H867 0.929 . S
C879 C873 1.390 . S
C879 C876 1.386 . S
C880 C875 1.490 . S
C880 C882 1.395 . S
C880 C883 1.403 . S
H881 C887 0.930 . S
C882 H868 0.930 . S
C882 C880 1.395 . S
C882 C885 1.403 . S
C883 C880 1.403 . S
C883 C884 1.524 . S
C883 C887 1.400 . S
C884 H869 0.960 . S
C884 H870 0.960 . S
C884 H871 0.960 . S
C884 C883 1.524 . S
C885 C882 1.403 . S
C885 C886 1.392 . S
C885 C889 1.495 . S
C886 C885 1.392 . S
C886 C887 1.385 . S
C886 C888 1.478 . S
C887 H881 0.930 . S
C887 C883 1.400 . S
C887 C886 1.385 . S
C888 C886 1.478 . S
C888 C890 1.381 . S
C888 C894 1.383 . S
C889 C885 1.495 . S
C889 H895 0.959 . S
C889 H896 0.961 . S
C889 H897 0.960 . S
C890 C888 1.381 . S
C890 C891 1.394 . S
C890 H898 0.930 . S
C891 C890 1.394 . S
C891 C892 1.383 . S
C891 H899 0.929 . S
C892 C891 1.383 . S
C892 C893 1.377 . S
C893 H877 0.930 . S
C893 C892 1.377 . S
C893 C894 1.379 . S
C894 H878 0.931 . S
C894 C888 1.383 . S
C894 C893 1.379 . S
H895 C889 0.959 . S
H896 C889 0.961 . S
H897 C889 0.960 . S
H898 C890 0.930 . S
H899 C891 0.929 . S
H900 C908 0.929 . S
H901 C910 0.930 . S
H902 C912 0.930 . S
H903 C915 0.929 . S
H904 C918 0.930 . S
H905 C920 0.960 . S
H906 C920 0.960 . S
H907 C920 0.960 . S
C908 H900 0.929 . S
C908 C909 1.377 . S
C908 C910 1.384 . S
C909 C908 1.377 . S
C909 C915 1.390 . S
C910 H901 0.930 . S
C910 C908 1.384 . S
C910 C911 1.372 . S
C911 C910 1.372 . S
C911 C912 1.400 . S
C911 C916 1.490 . S
C912 H902 0.930 . S
C912 C911 1.400 . S
C912 C915 1.386 . S
H913 C929 0.930 . S
H914 C930 0.931 . S
C915 H903 0.929 . S
C915 C909 1.390 . S
C915 C912 1.386 . S
C916 C911 1.490 . S
C916 C918 1.395 . S
C916 C919 1.403 . S
H917 C923 0.930 . S
C918 H904 0.930 . S
C918 C916 1.395 . S
C918 C921 1.403 . S
C919 C916 1.403 . S
C919 C920 1.524 . S
C919 C923 1.400 . S
C920 H905 0.960 . S
C920 H906 0.960 . S
C920 H907 0.960 . S
C920 C919 1.524 . S
C921 C918 1.403 . S
C921 C922 1.392 . S
C921 C925 1.495 . S
C922 C921 1.392 . S
C922 C923 1.385 . S
C922 C924 1.478 . S
C923 H917 0.930 . S
C923 C919 1.400 . S
C923 C922 1.385 . S
C924 C922 1.478 . S
C924 C926 1.381 . S
C924 C930 1.383 . S
C925 C921 1.495 . S
C925 H931 0.959 . S
C925 H932 0.961 . S
C925 H933 0.960 . S
C926 C924 1.381 . S
C926 C927 1.394 . S
C926 H934 0.930 . S
C927 C926 1.394 . S
C927 C928 1.383 . S
C927 H935 0.929 . S
C928 C927 1.383 . S
C928 C929 1.377 . S
C929 H913 0.930 . S
C929 C928 1.377 . S
C929 C930 1.379 . S
C930 H914 0.931 . S
C930 C924 1.383 . S
C930 C929 1.379 . S
H931 C925 0.959 . S
H932 C925 0.961 . S
H933 C925 0.960 . S
H934 C926 0.930 . S
H935 C927 0.929 . S
H936 C944 0.929 . S
H937 C946 0.930 . S
H938 C948 0.930 . S
H939 C951 0.929 . S
H940 C954 0.930 . S
H941 C956 0.960 . S
H942 C956 0.960 . S
H943 C956 0.960 . S
C944 H936 0.929 . S
C944 C945 1.377 . S
C944 C946 1.384 . S
C945 C944 1.377 . S
C945 C951 1.390 . S
C946 H937 0.930 . S
C946 C944 1.384 . S
C946 C947 1.372 . S
C947 C946 1.372 . S
C947 C948 1.400 . S
C947 C952 1.490 . S
C948 H938 0.930 . S
C948 C947 1.400 . S
C948 C951 1.386 . S
H949 C965 0.930 . S
H950 C966 0.931 . S
C951 H939 0.929 . S
C951 C945 1.390 . S
C951 C948 1.386 . S
C952 C947 1.490 . S
C952 C954 1.395 . S
C952 C955 1.403 . S
H953 C959 0.930 . S
C954 H940 0.930 . S
C954 C952 1.395 . S
C954 C957 1.403 . S
C955 C952 1.403 . S
C955 C956 1.524 . S
C955 C959 1.400 . S
C956 H941 0.960 . S
C956 H942 0.960 . S
C956 H943 0.960 . S
C956 C955 1.524 . S
C957 C954 1.403 . S
C957 C958 1.392 . S
C957 C961 1.495 . S
C958 C957 1.392 . S
C958 C959 1.385 . S
C958 C960 1.478 . S
C959 H953 0.930 . S
C959 C955 1.400 . S
C959 C958 1.385 . S
C960 C958 1.478 . S
C960 C962 1.381 . S
C960 C966 1.383 . S
C961 C957 1.495 . S
C961 H967 0.959 . S
C961 H968 0.961 . S
C961 H969 0.960 . S
C962 C960 1.381 . S
C962 C963 1.394 . S
C962 H970 0.930 . S
C963 C962 1.394 . S
C963 C964 1.383 . S
C963 H971 0.929 . S
C964 C963 1.383 . S
C964 C965 1.377 . S
C965 H949 0.930 . S
C965 C964 1.377 . S
C965 C966 1.379 . S
C966 H950 0.931 . S
C966 C960 1.383 . S
C966 C965 1.379 . S
H967 C961 0.959 . S
H968 C961 0.961 . S
H969 C961 0.960 . S
H970 C962 0.930 . S
H971 C963 0.929 . S
H972 C980 0.929 . S
H973 C982 0.930 . S
H974 C984 0.930 . S
H975 C987 0.929 . S
H976 C990 0.930 . S
H977 C992 0.960 . S
H978 C992 0.960 . S
H979 C992 0.960 . S
C980 H972 0.929 . S
C980 C981 1.377 . S
C980 C982 1.384 . S
C981 C980 1.377 . S
C981 C987 1.390 . S
C982 H973 0.930 . S
C982 C980 1.384 . S
C982 C983 1.372 . S
C983 C982 1.372 . S
C983 C984 1.400 . S
C983 C988 1.490 . S
C984 H974 0.930 . S
C984 C983 1.400 . S
C984 C987 1.386 . S
H985 C1001 0.930 . S
H986 C1002 0.931 . S
C987 H975 0.929 . S
C987 C981 1.390 . S
C987 C984 1.386 . S
C988 C983 1.490 . S
C988 C990 1.395 . S
C988 C991 1.403 . S
H989 C995 0.930 . S
C990 H976 0.930 . S
C990 C988 1.395 . S
C990 C993 1.403 1_545 S
C991 C988 1.403 . S
C991 C992 1.524 . S
C991 C995 1.400 . S
C992 H977 0.960 . S
C992 H978 0.960 . S
C992 H979 0.960 . S
C992 C991 1.524 . S
C993 C990 1.403 1_565 S
C993 C994 1.392 . S
C993 C997 1.495 . S
C994 C993 1.392 . S
C994 C995 1.385 1_565 S
C994 C996 1.478 . S
C995 H989 0.930 . S
C995 C991 1.400 . S
C995 C994 1.385 1_545 S
C996 C994 1.478 . S
C996 C998 1.381 . S
C996 C1002 1.383 . S
C997 C993 1.495 . S
C997 H1003 0.959 . S
C997 H1004 0.961 . S
C997 H1005 0.960 . S
C998 C996 1.381 . S
C998 C999 1.394 . S
C998 H1006 0.930 . S
C999 C998 1.394 . S
C999 C1000 1.383 . S
C999 H1007 0.929 . S
C1000 C999 1.383 . S
C1000 C1001 1.377 . S
C1001 H985 0.930 . S
C1001 C1000 1.377 . S
C1001 C1002 1.379 . S
C1002 H986 0.931 . S
C1002 C996 1.383 . S
C1002 C1001 1.379 . S
H1003 C997 0.959 . S
H1004 C997 0.961 . S
H1005 C997 0.960 . S
H1006 C998 0.930 . S
H1007 C999 0.929 . S
H1008 C1016 0.929 . S
H1009 C1018 0.930 . S
H1010 C1020 0.930 . S
H1011 C1023 0.929 . S
H1012 C1026 0.930 . S
H1013 C1028 0.959 1_655 S
H1014 C1028 0.960 . S
H1015 C1028 0.960 . S
C1016 H1008 0.929 . S
C1016 C1017 1.377 . S
C1016 C1018 1.384 . S
C1017 C1016 1.377 . S
C1017 C1023 1.390 . S
C1018 H1009 0.930 . S
C1018 C1016 1.384 . S
C1018 C1019 1.372 . S
C1019 C1018 1.372 . S
C1019 C1020 1.400 . S
C1019 C1024 1.490 . S
C1020 H1010 0.930 . S
C1020 C1019 1.400 . S
C1020 C1023 1.386 . S
H1021 C1037 0.930 . S
H1022 C1038 0.931 . S
C1023 H1011 0.929 . S
C1023 C1017 1.390 . S
C1023 C1020 1.386 . S
C1024 C1019 1.490 . S
C1024 C1026 1.395 . S
C1024 C1027 1.403 . S
H1025 C1031 0.930 . S
C1026 H1012 0.930 . S
C1026 C1024 1.395 . S
C1026 C1029 1.403 . S
C1027 C1024 1.403 . S
C1027 C1028 1.524 . S
C1027 C1031 1.400 1_455 S
C1028 H1013 0.959 1_455 S
C1028 H1014 0.960 . S
C1028 H1015 0.960 . S
C1028 C1027 1.524 . S
C1029 C1026 1.403 . S
C1029 C1030 1.392 1_455 S
C1029 C1033 1.495 . S
C1030 C1029 1.392 1_655 S
C1030 C1031 1.385 . S
C1030 C1032 1.478 . S
C1031 H1025 0.930 . S
C1031 C1027 1.400 1_655 S
C1031 C1030 1.385 . S
C1032 C1030 1.478 . S
C1032 C1034 1.381 . S
C1032 C1038 1.383 . S
C1033 C1029 1.495 . S
C1033 H1039 0.959 . S
C1033 H1040 0.961 1_455 S
C1033 H1041 0.960 1_455 S
C1034 C1032 1.381 . S
C1034 C1035 1.394 . S
C1034 H1042 0.930 . S
C1035 C1034 1.394 . S
C1035 C1036 1.383 . S
C1035 H1043 0.929 . S
C1036 C1035 1.383 . S
C1036 C1037 1.377 . S
C1037 H1021 0.930 . S
C1037 C1036 1.377 . S
C1037 C1038 1.379 . S
C1038 H1022 0.931 . S
C1038 C1032 1.383 . S
C1038 C1037 1.379 . S
H1039 C1033 0.959 . S
H1040 C1033 0.961 1_655 S
H1041 C1033 0.960 1_655 S
H1042 C1034 0.930 . S
H1043 C1035 0.929 . S
H1044 C1052 0.929 . S
H1045 C1054 0.930 . S
H1046 C1056 0.930 . S
H1047 C1059 0.929 . S
H1048 C1062 0.930 . S
H1049 C1064 0.960 . S
H1050 C1064 0.960 . S
H1051 C1064 0.960 . S
C1052 H1044 0.929 . S
C1052 C1053 1.377 . S
C1052 C1054 1.384 . S
C1053 C1052 1.377 . S
C1053 C1059 1.390 . S
C1054 H1045 0.930 . S
C1054 C1052 1.384 . S
C1054 C1055 1.372 . S
C1055 C1054 1.372 . S
C1055 C1056 1.400 . S
C1055 C1060 1.490 . S
C1056 H1046 0.930 . S
C1056 C1055 1.400 . S
C1056 C1059 1.386 . S
H1057 C1073 0.930 . S
H1058 C1074 0.931 . S
C1059 H1047 0.929 . S
C1059 C1053 1.390 . S
C1059 C1056 1.386 . S
C1060 C1055 1.490 . S
C1060 C1062 1.395 . S
C1060 C1063 1.403 . S
H1061 C1067 0.930 . S
C1062 H1048 0.930 . S
C1062 C1060 1.395 . S
C1062 C1065 1.403 . S
C1063 C1060 1.403 . S
C1063 C1064 1.524 . S
C1063 C1067 1.400 . S
C1064 H1049 0.960 . S
C1064 H1050 0.960 . S
C1064 H1051 0.960 . S
C1064 C1063 1.524 . S
C1065 C1062 1.403 . S
C1065 C1066 1.392 . S
C1065 C1069 1.495 . S
C1066 C1065 1.392 . S
C1066 C1067 1.385 . S
C1066 C1068 1.478 . S
C1067 H1061 0.930 . S
C1067 C1063 1.400 . S
C1067 C1066 1.385 . S
C1068 C1066 1.478 . S
C1068 C1070 1.381 . S
C1068 C1074 1.383 . S
C1069 C1065 1.495 . S
C1069 H1075 0.959 . S
C1069 H1076 0.961 . S
C1069 H1077 0.960 . S
C1070 C1068 1.381 . S
C1070 C1071 1.394 . S
C1070 H1078 0.930 . S
C1071 C1070 1.394 . S
C1071 C1072 1.383 . S
C1071 H1079 0.929 . S
C1072 C1071 1.383 . S
C1072 C1073 1.377 . S
C1073 H1057 0.930 . S
C1073 C1072 1.377 . S
C1073 C1074 1.379 . S
C1074 H1058 0.931 . S
C1074 C1068 1.383 . S
C1074 C1073 1.379 . S
H1075 C1069 0.959 . S
H1076 C1069 0.961 . S
H1077 C1069 0.960 . S
H1078 C1070 0.930 . S
H1079 C1071 0.929 . S
H1080 C1088 0.929 . S
H1081 C1090 0.930 . S
H1082 C1092 0.930 . S
H1083 C1095 0.929 . S
H1084 C1098 0.930 . S
H1085 C1100 0.960 . S
H1086 C1100 0.960 . S
H1087 C1100 0.960 . S
C1088 H1080 0.929 . S
C1088 C1089 1.377 . S
C1088 C1090 1.384 . S
C1089 C1088 1.377 . S
C1089 C1095 1.390 . S
C1090 H1081 0.930 . S
C1090 C1088 1.384 . S
C1090 C1091 1.372 . S
C1091 C1090 1.372 . S
C1091 C1092 1.400 . S
C1091 C1096 1.490 . S
C1092 H1082 0.930 . S
C1092 C1091 1.400 . S
C1092 C1095 1.386 . S
H1093 C1109 0.930 . S
H1094 C1110 0.931 . S
C1095 H1083 0.929 . S
C1095 C1089 1.390 . S
C1095 C1092 1.386 . S
C1096 C1091 1.490 . S
C1096 C1098 1.395 . S
C1096 C1099 1.403 . S
H1097 C1103 0.930 . S
C1098 H1084 0.930 . S
C1098 C1096 1.395 . S
C1098 C1101 1.403 . S
C1099 C1096 1.403 . S
C1099 C1100 1.524 . S
C1099 C1103 1.400 . S
C1100 H1085 0.960 . S
C1100 H1086 0.960 . S
C1100 H1087 0.960 . S
C1100 C1099 1.524 . S
C1101 C1098 1.403 . S
C1101 C1102 1.392 . S
C1101 C1105 1.495 . S
C1102 C1101 1.392 . S
C1102 C1103 1.385 . S
C1102 C1104 1.478 . S
C1103 H1097 0.930 . S
C1103 C1099 1.400 . S
C1103 C1102 1.385 . S
C1104 C1102 1.478 . S
C1104 C1106 1.381 . S
C1104 C1110 1.383 . S
C1105 C1101 1.495 . S
C1105 H1111 0.959 . S
C1105 H1112 0.961 . S
C1105 H1113 0.960 . S
C1106 C1104 1.381 . S
C1106 C1107 1.394 . S
C1106 H1114 0.930 . S
C1107 C1106 1.394 . S
C1107 C1108 1.383 . S
C1107 H1115 0.929 . S
C1108 C1107 1.383 . S
C1108 C1109 1.377 . S
C1109 H1093 0.930 . S
C1109 C1108 1.377 . S
C1109 C1110 1.379 . S
C1110 H1094 0.931 . S
C1110 C1104 1.383 . S
C1110 C1109 1.379 . S
H1111 C1105 0.959 . S
H1112 C1105 0.961 . S
H1113 C1105 0.960 . S
H1114 C1106 0.930 . S
H1115 C1107 0.929 . S
H1116 C1124 0.929 . S
H1117 C1126 0.930 . S
H1118 C1128 0.930 . S
H1119 C1131 0.929 . S
H1120 C1134 0.930 . S
H1121 C1136 0.960 . S
H1122 C1136 0.960 . S
H1123 C1136 0.960 . S
C1124 H1116 0.929 . S
C1124 C1125 1.377 . S
C1124 C1126 1.384 . S
C1125 C1124 1.377 . S
C1125 C1131 1.390 . S
C1126 H1117 0.930 . S
C1126 C1124 1.384 . S
C1126 C1127 1.372 . S
C1127 C1126 1.372 . S
C1127 C1128 1.400 . S
C1127 C1132 1.490 . S
C1128 H1118 0.930 . S
C1128 C1127 1.400 . S
C1128 C1131 1.386 . S
H1129 C1145 0.930 . S
H1130 C1146 0.931 . S
C1131 H1119 0.929 . S
C1131 C1125 1.390 . S
C1131 C1128 1.386 . S
C1132 C1127 1.490 . S
C1132 C1134 1.395 . S
C1132 C1135 1.403 . S
H1133 C1139 0.930 . S
C1134 H1120 0.930 . S
C1134 C1132 1.395 . S
C1134 C1137 1.403 . S
C1135 C1132 1.403 . S
C1135 C1136 1.524 . S
C1135 C1139 1.400 . S
C1136 H1121 0.960 . S
C1136 H1122 0.960 . S
C1136 H1123 0.960 . S
C1136 C1135 1.524 . S
C1137 C1134 1.403 . S
C1137 C1138 1.392 . S
C1137 C1141 1.495 . S
C1138 C1137 1.392 . S
C1138 C1139 1.385 . S
C1138 C1140 1.478 . S
C1139 H1133 0.930 . S
C1139 C1135 1.400 . S
C1139 C1138 1.385 . S
C1140 C1138 1.478 . S
C1140 C1142 1.381 . S
C1140 C1146 1.383 . S
C1141 C1137 1.495 . S
C1141 H1147 0.959 . S
C1141 H1148 0.961 . S
C1141 H1149 0.960 . S
C1142 C1140 1.381 . S
C1142 C1143 1.394 . S
C1142 H1150 0.930 . S
C1143 C1142 1.394 . S
C1143 C1144 1.383 . S
C1143 H1151 0.929 . S
C1144 C1143 1.383 . S
C1144 C1145 1.377 . S
C1145 H1129 0.930 . S
C1145 C1144 1.377 . S
C1145 C1146 1.379 . S
C1146 H1130 0.931 . S
C1146 C1140 1.383 . S
C1146 C1145 1.379 . S
H1147 C1141 0.959 . S
H1148 C1141 0.961 . S
H1149 C1141 0.960 . S
H1150 C1142 0.930 . S
H1151 C1143 0.929 . S
H1152 C1160 0.929 . S
H1153 C1162 0.930 . S
H1154 C1164 0.930 . S
H1155 C1167 0.929 . S
H1156 C1170 0.930 . S
H1157 C1172 0.960 . S
H1158 C1172 0.960 . S
H1159 C1172 0.960 . S
C1160 H1152 0.929 . S
C1160 C1161 1.377 . S
C1160 C1162 1.384 . S
C1161 C1160 1.377 . S
C1161 C1167 1.390 . S
C1162 H1153 0.930 . S
C1162 C1160 1.384 . S
C1162 C1163 1.372 . S
C1163 C1162 1.372 . S
C1163 C1164 1.400 . S
C1163 C1168 1.490 . S
C1164 H1154 0.930 . S
C1164 C1163 1.400 . S
C1164 C1167 1.386 . S
H1165 C1181 0.930 . S
H1166 C1182 0.931 . S
C1167 H1155 0.929 . S
C1167 C1161 1.390 . S
C1167 C1164 1.386 . S
C1168 C1163 1.490 . S
C1168 C1170 1.395 . S
C1168 C1171 1.403 . S
H1169 C1175 0.930 . S
C1170 H1156 0.930 . S
C1170 C1168 1.395 . S
C1170 C1173 1.403 . S
C1171 C1168 1.403 . S
C1171 C1172 1.524 . S
C1171 C1175 1.400 . S
C1172 H1157 0.960 . S
C1172 H1158 0.960 . S
C1172 H1159 0.960 . S
C1172 C1171 1.524 . S
C1173 C1170 1.403 . S
C1173 C1174 1.392 . S
C1173 C1177 1.495 . S
C1174 C1173 1.392 . S
C1174 C1175 1.385 . S
C1174 C1176 1.478 . S
C1175 H1169 0.930 . S
C1175 C1171 1.400 . S
C1175 C1174 1.385 . S
C1176 C1174 1.478 . S
C1176 C1178 1.381 . S
C1176 C1182 1.383 . S
C1177 C1173 1.495 . S
C1177 H1183 0.959 . S
C1177 H1184 0.961 . S
C1177 H1185 0.960 . S
C1178 C1176 1.381 . S
C1178 C1179 1.394 . S
C1178 H1186 0.930 . S
C1179 C1178 1.394 . S
C1179 C1180 1.383 . S
C1179 H1187 0.929 . S
C1180 C1179 1.383 . S
C1180 C1181 1.377 . S
C1181 H1165 0.930 . S
C1181 C1180 1.377 . S
C1181 C1182 1.379 . S
C1182 H1166 0.931 . S
C1182 C1176 1.383 . S
C1182 C1181 1.379 . S
H1183 C1177 0.959 . S
H1184 C1177 0.961 . S
H1185 C1177 0.960 . S
H1186 C1178 0.930 . S
H1187 C1179 0.929 . S
H1188 C1196 0.929 . S
H1189 C1198 0.930 . S
H1190 C1200 0.930 . S
H1191 C1203 0.929 . S
H1192 C1206 0.930 . S
H1193 C1208 0.960 . S
H1194 C1208 0.960 . S
H1195 C1208 0.960 . S
C1196 H1188 0.929 . S
C1196 C1197 1.377 . S
C1196 C1198 1.384 . S
C1197 C1196 1.377 . S
C1197 C1203 1.390 . S
C1198 H1189 0.930 . S
C1198 C1196 1.384 . S
C1198 C1199 1.372 . S
C1199 C1198 1.372 . S
C1199 C1200 1.400 . S
C1199 C1204 1.490 . S
C1200 H1190 0.930 . S
C1200 C1199 1.400 . S
C1200 C1203 1.386 . S
H1201 C1217 0.930 . S
H1202 C1218 0.931 . S
C1203 H1191 0.929 . S
C1203 C1197 1.390 . S
C1203 C1200 1.386 . S
C1204 C1199 1.490 . S
C1204 C1206 1.395 . S
C1204 C1207 1.403 . S
H1205 C1211 0.930 . S
C1206 H1192 0.930 . S
C1206 C1204 1.395 . S
C1206 C1209 1.403 . S
C1207 C1204 1.403 . S
C1207 C1208 1.524 . S
C1207 C1211 1.400 . S
C1208 H1193 0.960 . S
C1208 H1194 0.960 . S
C1208 H1195 0.960 . S
C1208 C1207 1.524 . S
C1209 C1206 1.403 . S
C1209 C1210 1.392 . S
C1209 C1213 1.495 . S
C1210 C1209 1.392 . S
C1210 C1211 1.385 . S
C1210 C1212 1.478 . S
C1211 H1205 0.930 . S
C1211 C1207 1.400 . S
C1211 C1210 1.385 . S
C1212 C1210 1.478 . S
C1212 C1214 1.381 . S
C1212 C1218 1.383 . S
C1213 C1209 1.495 . S
C1213 H1219 0.959 . S
C1213 H1220 0.961 . S
C1213 H1221 0.960 . S
C1214 C1212 1.381 . S
C1214 C1215 1.394 . S
C1214 H1222 0.930 . S
C1215 C1214 1.394 . S
C1215 C1216 1.383 . S
C1215 H1223 0.929 . S
C1216 C1215 1.383 . S
C1216 C1217 1.377 . S
C1217 H1201 0.930 . S
C1217 C1216 1.377 . S
C1217 C1218 1.379 . S
C1218 H1202 0.931 . S
C1218 C1212 1.383 . S
C1218 C1217 1.379 . S
H1219 C1213 0.959 . S
H1220 C1213 0.961 . S
H1221 C1213 0.960 . S
H1222 C1214 0.930 . S
H1223 C1215 0.929 . S
H1224 C1232 0.929 . S
H1225 C1234 0.930 . S
H1226 C1236 0.930 . S
H1227 C1239 0.929 . S
H1228 C1242 0.930 . S
H1229 C1244 0.960 . S
H1230 C1244 0.960 . S
H1231 C1244 0.960 . S
C1232 H1224 0.929 . S
C1232 C1233 1.377 . S
C1232 C1234 1.384 . S
C1233 C1232 1.377 . S
C1233 C1239 1.390 . S
C1234 H1225 0.930 . S
C1234 C1232 1.384 . S
C1234 C1235 1.372 . S
C1235 C1234 1.372 . S
C1235 C1236 1.400 . S
C1235 C1240 1.490 . S
C1236 H1226 0.930 . S
C1236 C1235 1.400 . S
C1236 C1239 1.386 . S
H1237 C1253 0.930 . S
H1238 C1254 0.931 . S
C1239 H1227 0.929 . S
C1239 C1233 1.390 . S
C1239 C1236 1.386 . S
C1240 C1235 1.490 . S
C1240 C1242 1.395 . S
C1240 C1243 1.403 . S
H1241 C1247 0.930 . S
C1242 H1228 0.930 . S
C1242 C1240 1.395 . S
C1242 C1245 1.403 . S
C1243 C1240 1.403 . S
C1243 C1244 1.524 . S
C1243 C1247 1.400 . S
C1244 H1229 0.960 . S
C1244 H1230 0.960 . S
C1244 H1231 0.960 . S
C1244 C1243 1.524 . S
C1245 C1242 1.403 . S
C1245 C1246 1.392 . S
C1245 C1249 1.495 . S
C1246 C1245 1.392 . S
C1246 C1247 1.385 . S
C1246 C1248 1.478 . S
C1247 H1241 0.930 . S
C1247 C1243 1.400 . S
C1247 C1246 1.385 . S
C1248 C1246 1.478 . S
C1248 C1250 1.381 . S
C1248 C1254 1.383 . S
C1249 C1245 1.495 . S
C1249 H1255 0.959 . S
C1249 H1256 0.961 . S
C1249 H1257 0.960 . S
C1250 C1248 1.381 . S
C1250 C1251 1.394 . S
C1250 H1258 0.930 . S
C1251 C1250 1.394 . S
C1251 C1252 1.383 . S
C1251 H1259 0.929 . S
C1252 C1251 1.383 . S
C1252 C1253 1.377 . S
C1253 H1237 0.930 . S
C1253 C1252 1.377 . S
C1253 C1254 1.379 . S
C1254 H1238 0.931 . S
C1254 C1248 1.383 . S
C1254 C1253 1.379 . S
H1255 C1249 0.959 . S
H1256 C1249 0.961 . S
H1257 C1249 0.960 . S
H1258 C1250 0.930 . S
H1259 C1251 0.929 . S
H1260 C1268 0.929 . S
H1261 C1270 0.930 . S
H1262 C1272 0.930 . S
H1263 C1275 0.929 . S
H1264 C1278 0.930 . S
H1265 C1280 0.960 . S
H1266 C1280 0.960 . S
H1267 C1280 0.960 . S
C1268 H1260 0.929 . S
C1268 C1269 1.377 . S
C1268 C1270 1.384 . S
C1269 C1268 1.377 . S
C1269 C1275 1.390 . S
C1270 H1261 0.930 . S
C1270 C1268 1.384 . S
C1270 C1271 1.372 . S
C1271 C1270 1.372 . S
C1271 C1272 1.400 . S
C1271 C1276 1.490 . S
C1272 H1262 0.930 . S
C1272 C1271 1.400 . S
C1272 C1275 1.386 . S
H1273 C1289 0.930 . S
H1274 C1290 0.931 . S
C1275 H1263 0.929 . S
C1275 C1269 1.390 . S
C1275 C1272 1.386 . S
C1276 C1271 1.490 . S
C1276 C1278 1.395 . S
C1276 C1279 1.403 . S
H1277 C1283 0.930 . S
C1278 H1264 0.930 . S
C1278 C1276 1.395 . S
C1278 C1281 1.403 . S
C1279 C1276 1.403 . S
C1279 C1280 1.524 . S
C1279 C1283 1.400 . S
C1280 H1265 0.960 . S
C1280 H1266 0.960 . S
C1280 H1267 0.960 . S
C1280 C1279 1.524 . S
C1281 C1278 1.403 . S
C1281 C1282 1.392 . S
C1281 C1285 1.495 . S
C1282 C1281 1.392 . S
C1282 C1283 1.385 . S
C1282 C1284 1.478 . S
C1283 H1277 0.930 . S
C1283 C1279 1.400 . S
C1283 C1282 1.385 . S
C1284 C1282 1.478 . S
C1284 C1286 1.381 . S
C1284 C1290 1.383 . S
C1285 C1281 1.495 . S
C1285 H1291 0.959 . S
C1285 H1292 0.961 . S
C1285 H1293 0.960 . S
C1286 C1284 1.381 . S
C1286 C1287 1.394 . S
C1286 H1294 0.930 . S
C1287 C1286 1.394 . S
C1287 C1288 1.383 . S
C1287 H1295 0.929 . S
C1288 C1287 1.383 . S
C1288 C1289 1.377 . S
C1289 H1273 0.930 . S
C1289 C1288 1.377 . S
C1289 C1290 1.379 . S
C1290 H1274 0.931 . S
C1290 C1284 1.383 . S
C1290 C1289 1.379 . S
H1291 C1285 0.959 . S
H1292 C1285 0.961 . S
H1293 C1285 0.960 . S
H1294 C1286 0.930 . S
H1295 C1287 0.929 . S
H1296 C1304 0.929 . S
H1297 C1306 0.930 . S
H1298 C1308 0.930 . S
H1299 C1311 0.929 . S
H1300 C1314 0.930 1_565 S
H1301 C1316 0.960 . S
H1302 C1316 0.960 . S
H1303 C1316 0.960 . S
C1304 H1296 0.929 . S
C1304 C1305 1.377 . S
C1304 C1306 1.384 . S
C1305 C1304 1.377 . S
C1305 C1311 1.390 . S
C1306 H1297 0.930 . S
C1306 C1304 1.384 . S
C1306 C1307 1.372 . S
C1307 C1306 1.372 . S
C1307 C1308 1.400 . S
C1307 C1312 1.490 . S
C1308 H1298 0.930 . S
C1308 C1307 1.400 . S
C1308 C1311 1.386 . S
H1309 C1325 0.930 . S
H1310 C1326 0.931 . S
C1311 H1299 0.929 . S
C1311 C1305 1.390 . S
C1311 C1308 1.386 . S
C1312 C1307 1.490 . S
C1312 C1314 1.395 1_565 S
C1312 C1315 1.403 . S
H1313 C1319 0.930 . S
C1314 H1300 0.930 1_545 S
C1314 C1312 1.395 1_545 S
C1314 C1317 1.403 . S
C1315 C1312 1.403 . S
C1315 C1316 1.524 . S
C1315 C1319 1.400 1_565 S
C1316 H1301 0.960 . S
C1316 H1302 0.960 . S
C1316 H1303 0.960 . S
C1316 C1315 1.524 . S
C1317 C1314 1.403 . S
C1317 C1318 1.392 . S
C1317 C1321 1.495 . S
C1318 C1317 1.392 . S
C1318 C1319 1.385 . S
C1318 C1320 1.478 . S
C1319 H1313 0.930 . S
C1319 C1315 1.400 1_545 S
C1319 C1318 1.385 . S
C1320 C1318 1.478 . S
C1320 C1322 1.381 . S
C1320 C1326 1.383 . S
C1321 C1317 1.495 . S
C1321 H1327 0.959 . S
C1321 H1328 0.961 . S
C1321 H1329 0.960 . S
C1322 C1320 1.381 . S
C1322 C1323 1.394 . S
C1322 H1330 0.930 . S
C1323 C1322 1.394 . S
C1323 C1324 1.383 . S
C1323 H1331 0.929 . S
C1324 C1323 1.383 . S
C1324 C1325 1.377 . S
C1325 H1309 0.930 . S
C1325 C1324 1.377 . S
C1325 C1326 1.379 . S
C1326 H1310 0.931 . S
C1326 C1320 1.383 . S
C1326 C1325 1.379 . S
H1327 C1321 0.959 . S
H1328 C1321 0.961 . S
H1329 C1321 0.960 . S
H1330 C1322 0.930 . S
H1331 C1323 0.929 . S
H1332 C1340 0.929 . S
H1333 C1342 0.930 . S
H1334 C1344 0.930 . S
H1335 C1347 0.929 . S
H1336 C1350 0.930 . S
H1337 C1352 0.960 . S
H1338 C1352 0.960 . S
H1339 C1352 0.960 . S
C1340 H1332 0.929 . S
C1340 C1341 1.377 . S
C1340 C1342 1.384 . S
C1341 C1340 1.377 . S
C1341 C1347 1.390 . S
C1342 H1333 0.930 . S
C1342 C1340 1.384 . S
C1342 C1343 1.372 . S
C1343 C1342 1.372 . S
C1343 C1344 1.400 . S
C1343 C1348 1.490 . S
C1344 H1334 0.930 . S
C1344 C1343 1.400 . S
C1344 C1347 1.386 . S
H1345 C1361 0.930 . S
H1346 C1362 0.931 . S
C1347 H1335 0.929 . S
C1347 C1341 1.390 . S
C1347 C1344 1.386 . S
C1348 C1343 1.490 . S
C1348 C1350 1.395 . S
C1348 C1351 1.403 . S
H1349 C1355 0.930 1_655 S
C1350 H1336 0.930 . S
C1350 C1348 1.395 . S
C1350 C1353 1.403 . S
C1351 C1348 1.403 . S
C1351 C1352 1.524 . S
C1351 C1355 1.400 . S
C1352 H1337 0.960 . S
C1352 H1338 0.960 . S
C1352 H1339 0.960 . S
C1352 C1351 1.524 . S
C1353 C1350 1.403 . S
C1353 C1354 1.392 1_455 S
C1353 C1357 1.495 1_455 S
C1354 C1353 1.392 1_655 S
C1354 C1355 1.385 1_655 S
C1354 C1356 1.478 . S
C1355 H1349 0.930 1_455 S
C1355 C1351 1.400 . S
C1355 C1354 1.385 1_455 S
C1356 C1354 1.478 . S
C1356 C1358 1.381 . S
C1356 C1362 1.383 . S
C1357 C1353 1.495 1_655 S
C1357 H1363 0.959 1_655 S
C1357 H1364 0.961 . S
C1357 H1365 0.960 . S
C1358 C1356 1.381 . S
C1358 C1359 1.394 . S
C1358 H1366 0.930 . S
C1359 C1358 1.394 . S
C1359 C1360 1.383 . S
C1359 H1367 0.929 . S
C1360 C1359 1.383 . S
C1360 C1361 1.377 . S
C1361 H1345 0.930 . S
C1361 C1360 1.377 . S
C1361 C1362 1.379 . S
C1362 H1346 0.931 . S
C1362 C1356 1.383 . S
C1362 C1361 1.379 . S
H1363 C1357 0.959 1_455 S
H1364 C1357 0.961 . S
H1365 C1357 0.960 . S
H1366 C1358 0.930 . S
H1367 C1359 0.929 . S
H1368 C1376 0.929 . S
H1369 C1378 0.930 . S
H1370 C1380 0.930 . S
H1371 C1383 0.929 . S
H1372 C1386 0.930 . S
H1373 C1388 0.960 . S
H1374 C1388 0.960 . S
H1375 C1388 0.960 . S
C1376 H1368 0.929 . S
C1376 C1377 1.377 . S
C1376 C1378 1.384 . S
C1377 C1376 1.377 . S
C1377 C1383 1.390 . S
C1378 H1369 0.930 . S
C1378 C1376 1.384 . S
C1378 C1379 1.372 . S
C1379 C1378 1.372 . S
C1379 C1380 1.400 . S
C1379 C1384 1.490 . S
C1380 H1370 0.930 . S
C1380 C1379 1.400 . S
C1380 C1383 1.386 . S
H1381 C1397 0.930 . S
H1382 C1398 0.931 . S
C1383 H1371 0.929 . S
C1383 C1377 1.390 . S
C1383 C1380 1.386 . S
C1384 C1379 1.490 . S
C1384 C1386 1.395 1_545 S
C1384 C1387 1.403 . S
H1385 C1391 0.930 . S
C1386 H1372 0.930 . S
C1386 C1384 1.395 1_565 S
C1386 C1389 1.403 1_554 S
C1387 C1384 1.403 . S
C1387 C1388 1.524 . S
C1387 C1391 1.400 1_554 S
C1388 H1373 0.960 . S
C1388 H1374 0.960 . S
C1388 H1375 0.960 . S
C1388 C1387 1.524 . S
C1389 C1386 1.403 1_556 S
C1389 C1390 1.392 1_565 S
C1389 C1393 1.495 . S
C1390 C1389 1.392 1_545 S
C1390 C1391 1.385 . S
C1390 C1392 1.478 . S
C1391 H1385 0.930 . S
C1391 C1387 1.400 1_556 S
C1391 C1390 1.385 . S
C1392 C1390 1.478 . S
C1392 C1394 1.381 . S
C1392 C1398 1.383 . S
C1393 C1389 1.495 . S
C1393 H1399 0.959 . S
C1393 H1400 0.961 . S
C1393 H1401 0.960 . S
C1394 C1392 1.381 . S
C1394 C1395 1.394 . S
C1394 H1402 0.930 . S
C1395 C1394 1.394 . S
C1395 C1396 1.383 . S
C1395 H1403 0.929 . S
C1396 C1395 1.383 . S
C1396 C1397 1.377 . S
C1397 H1381 0.930 . S
C1397 C1396 1.377 . S
C1397 C1398 1.379 . S
C1398 H1382 0.931 . S
C1398 C1392 1.383 . S
C1398 C1397 1.379 . S
H1399 C1393 0.959 . S
H1400 C1393 0.961 . S
H1401 C1393 0.960 . S
H1402 C1394 0.930 . S
H1403 C1395 0.929 . S
H1404 C1412 0.929 . S
H1405 C1414 0.930 . S
H1406 C1416 0.930 . S
H1407 C1419 0.929 . S
H1408 C1422 0.930 . S
H1409 C1424 0.960 . S
H1410 C1424 0.960 1_455 S
H1411 C1424 0.960 . S
C1412 H1404 0.929 . S
C1412 C1413 1.377 . S
C1412 C1414 1.384 . S
C1413 C1412 1.377 . S
C1413 C1419 1.390 1_455 S
C1414 H1405 0.930 . S
C1414 C1412 1.384 . S
C1414 C1415 1.372 . S
C1415 C1414 1.372 . S
C1415 C1416 1.400 1_455 S
C1415 C1420 1.490 . S
C1416 H1406 0.930 . S
C1416 C1415 1.400 1_655 S
C1416 C1419 1.386 . S
H1417 C1433 0.930 . S
H1418 C1434 0.931 . S
C1419 H1407 0.929 . S
C1419 C1413 1.390 1_655 S
C1419 C1416 1.386 . S
C1420 C1415 1.490 . S
C1420 C1422 1.395 . S
C1420 C1423 1.403 . S
H1421 C1427 0.930 1_655 S
C1422 H1408 0.930 . S
C1422 C1420 1.395 . S
C1422 C1425 1.403 1_556 S
C1423 C1420 1.403 . S
C1423 C1424 1.524 1_455 S
C1423 C1427 1.400 1_556 S
C1424 H1409 0.960 . S
C1424 H1410 0.960 1_655 S
C1424 H1411 0.960 . S
C1424 C1423 1.524 1_655 S
C1425 C1422 1.403 1_554 S
C1425 C1426 1.392 . S
C1425 C1429 1.495 . S
C1426 C1425 1.392 . S
C1426 C1427 1.385 . S
C1426 C1428 1.478 . S
C1427 H1421 0.930 1_455 S
C1427 C1423 1.400 1_554 S
C1427 C1426 1.385 . S
C1428 C1426 1.478 . S
C1428 C1430 1.381 . S
C1428 C1434 1.383 1_455 S
C1429 C1425 1.495 . S
C1429 H1435 0.959 . S
C1429 H1436 0.961 . S
C1429 H1437 0.960 . S
C1430 C1428 1.381 . S
C1430 C1431 1.394 . S
C1430 H1438 0.930 . S
C1431 C1430 1.394 . S
C1431 C1432 1.383 . S
C1431 H1439 0.929 . S
C1432 C1431 1.383 . S
C1432 C1433 1.377 1_455 S
C1433 H1417 0.930 . S
C1433 C1432 1.377 1_655 S
C1433 C1434 1.379 . S
C1434 H1418 0.931 . S
C1434 C1428 1.383 1_655 S
C1434 C1433 1.379 . S
H1435 C1429 0.959 . S
H1436 C1429 0.961 . S
H1437 C1429 0.960 . S
H1438 C1430 0.930 . S
H1439 C1431 0.929 . S
H1440 C1448 0.929 . S
H1441 C1450 0.930 . S
H1442 C1452 0.930 . S
H1443 C1455 0.929 . S
H1444 C1458 0.930 . S
H1445 C1460 0.960 . S
H1446 C1460 0.960 . S
H1447 C1460 0.960 . S
C1448 H1440 0.929 . S
C1448 C1449 1.377 . S
C1448 C1450 1.384 . S
C1449 C1448 1.377 . S
C1449 C1455 1.390 . S
C1450 H1441 0.930 . S
C1450 C1448 1.384 . S
C1450 C1451 1.372 . S
C1451 C1450 1.372 . S
C1451 C1452 1.400 . S
C1451 C1456 1.490 . S
C1452 H1442 0.930 . S
C1452 C1451 1.400 . S
C1452 C1455 1.386 . S
H1453 C1469 0.930 . S
H1454 C1470 0.931 . S
C1455 H1443 0.929 . S
C1455 C1449 1.390 . S
C1455 C1452 1.386 . S
C1456 C1451 1.490 . S
C1456 C1458 1.395 . S
C1456 C1459 1.403 . S
H1457 C1463 0.930 . S
C1458 H1444 0.930 . S
C1458 C1456 1.395 . S
C1458 C1461 1.403 1_556 S
C1459 C1456 1.403 . S
C1459 C1460 1.524 . S
C1459 C1463 1.400 1_556 S
C1460 H1445 0.960 . S
C1460 H1446 0.960 . S
C1460 H1447 0.960 . S
C1460 C1459 1.524 . S
C1461 C1458 1.403 1_554 S
C1461 C1462 1.392 . S
C1461 C1465 1.495 . S
C1462 C1461 1.392 . S
C1462 C1463 1.385 . S
C1462 C1464 1.478 . S
C1463 H1457 0.930 . S
C1463 C1459 1.400 1_554 S
C1463 C1462 1.385 . S
C1464 C1462 1.478 . S
C1464 C1466 1.381 . S
C1464 C1470 1.383 . S
C1465 C1461 1.495 . S
C1465 H1471 0.959 . S
C1465 H1472 0.961 . S
C1465 H1473 0.960 . S
C1466 C1464 1.381 . S
C1466 C1467 1.394 . S
C1466 H1474 0.930 . S
C1467 C1466 1.394 . S
C1467 C1468 1.383 . S
C1467 H1475 0.929 . S
C1468 C1467 1.383 . S
C1468 C1469 1.377 . S
C1469 H1453 0.930 . S
C1469 C1468 1.377 . S
C1469 C1470 1.379 . S
C1470 H1454 0.931 . S
C1470 C1464 1.383 . S
C1470 C1469 1.379 . S
H1471 C1465 0.959 . S
H1472 C1465 0.961 . S
H1473 C1465 0.960 . S
H1474 C1466 0.930 . S
H1475 C1467 0.929 . S
H1476 C1484 0.929 . S
H1477 C1486 0.930 . S
H1478 C1488 0.930 . S
H1479 C1491 0.929 . S
H1480 C1494 0.930 . S
H1481 C1496 0.960 . S
H1482 C1496 0.960 . S
H1483 C1496 0.960 . S
C1484 H1476 0.929 . S
C1484 C1485 1.377 . S
C1484 C1486 1.384 . S
C1485 C1484 1.377 . S
C1485 C1491 1.390 . S
C1486 H1477 0.930 . S
C1486 C1484 1.384 . S
C1486 C1487 1.372 . S
C1487 C1486 1.372 . S
C1487 C1488 1.400 . S
C1487 C1492 1.490 . S
C1488 H1478 0.930 . S
C1488 C1487 1.400 . S
C1488 C1491 1.386 . S
H1489 C1505 0.930 . S
H1490 C1506 0.931 . S
C1491 H1479 0.929 . S
C1491 C1485 1.390 . S
C1491 C1488 1.386 . S
C1492 C1487 1.490 . S
C1492 C1494 1.395 . S
C1492 C1495 1.403 . S
H1493 C1499 0.930 . S
C1494 H1480 0.930 . S
C1494 C1492 1.395 . S
C1494 C1497 1.403 . S
C1495 C1492 1.403 . S
C1495 C1496 1.524 . S
C1495 C1499 1.400 . S
C1496 H1481 0.960 . S
C1496 H1482 0.960 . S
C1496 H1483 0.960 . S
C1496 C1495 1.524 . S
C1497 C1494 1.403 . S
C1497 C1498 1.392 . S
C1497 C1501 1.495 . S
C1498 C1497 1.392 . S
C1498 C1499 1.385 . S
C1498 C1500 1.478 . S
C1499 H1493 0.930 . S
C1499 C1495 1.400 . S
C1499 C1498 1.385 . S
C1500 C1498 1.478 . S
C1500 C1502 1.381 . S
C1500 C1506 1.383 . S
C1501 C1497 1.495 . S
C1501 H1507 0.959 . S
C1501 H1508 0.961 . S
C1501 H1509 0.960 . S
C1502 C1500 1.381 . S
C1502 C1503 1.394 . S
C1502 H1510 0.930 . S
C1503 C1502 1.394 . S
C1503 C1504 1.383 . S
C1503 H1511 0.929 . S
C1504 C1503 1.383 . S
C1504 C1505 1.377 . S
C1505 H1489 0.930 . S
C1505 C1504 1.377 . S
C1505 C1506 1.379 . S
C1506 H1490 0.931 . S
C1506 C1500 1.383 . S
C1506 C1505 1.379 . S
H1507 C1501 0.959 . S
H1508 C1501 0.961 . S
H1509 C1501 0.960 . S
H1510 C1502 0.930 . S
H1511 C1503 0.929 . S
H1512 C1520 0.929 . S
H1513 C1522 0.930 . S
H1514 C1524 0.930 . S
H1515 C1527 0.929 . S
H1516 C1530 0.930 . S
H1517 C1532 0.960 . S
H1518 C1532 0.960 . S
H1519 C1532 0.960 . S
C1520 H1512 0.929 . S
C1520 C1521 1.377 . S
C1520 C1522 1.384 . S
C1521 C1520 1.377 . S
C1521 C1527 1.390 . S
C1522 H1513 0.930 . S
C1522 C1520 1.384 . S
C1522 C1523 1.372 . S
C1523 C1522 1.372 . S
C1523 C1524 1.400 . S
C1523 C1528 1.490 . S
C1524 H1514 0.930 . S
C1524 C1523 1.400 . S
C1524 C1527 1.386 . S
H1525 C1541 0.930 . S
H1526 C1542 0.931 . S
C1527 H1515 0.929 . S
C1527 C1521 1.390 . S
C1527 C1524 1.386 . S
C1528 C1523 1.490 . S
C1528 C1530 1.395 . S
C1528 C1531 1.403 . S
H1529 C1535 0.930 . S
C1530 H1516 0.930 . S
C1530 C1528 1.395 . S
C1530 C1533 1.403 . S
C1531 C1528 1.403 . S
C1531 C1532 1.524 . S
C1531 C1535 1.400 . S
C1532 H1517 0.960 . S
C1532 H1518 0.960 . S
C1532 H1519 0.960 . S
C1532 C1531 1.524 . S
C1533 C1530 1.403 . S
C1533 C1534 1.392 . S
C1533 C1537 1.495 . S
C1534 C1533 1.392 . S
C1534 C1535 1.385 . S
C1534 C1536 1.478 . S
C1535 H1529 0.930 . S
C1535 C1531 1.400 . S
C1535 C1534 1.385 . S
C1536 C1534 1.478 . S
C1536 C1538 1.381 . S
C1536 C1542 1.383 . S
C1537 C1533 1.495 . S
C1537 H1543 0.959 . S
C1537 H1544 0.961 . S
C1537 H1545 0.960 . S
C1538 C1536 1.381 . S
C1538 C1539 1.394 . S
C1538 H1546 0.930 . S
C1539 C1538 1.394 . S
C1539 C1540 1.383 . S
C1539 H1547 0.929 . S
C1540 C1539 1.383 . S
C1540 C1541 1.377 . S
C1541 H1525 0.930 . S
C1541 C1540 1.377 . S
C1541 C1542 1.379 . S
C1542 H1526 0.931 . S
C1542 C1536 1.383 . S
C1542 C1541 1.379 . S
H1543 C1537 0.959 . S
H1544 C1537 0.961 . S
H1545 C1537 0.960 . S
H1546 C1538 0.930 . S
H1547 C1539 0.929 . S
H1548 C1556 0.929 . S
H1549 C1558 0.930 . S
H1550 C1560 0.930 . S
H1551 C1563 0.929 . S
H1552 C1566 0.930 . S
H1553 C1568 0.960 . S
H1554 C1568 0.960 . S
H1555 C1568 0.960 . S
C1556 H1548 0.929 . S
C1556 C1557 1.377 . S
C1556 C1558 1.384 . S
C1557 C1556 1.377 . S
C1557 C1563 1.390 . S
C1558 H1549 0.930 . S
C1558 C1556 1.384 . S
C1558 C1559 1.372 . S
C1559 C1558 1.372 . S
C1559 C1560 1.400 . S
C1559 C1564 1.490 . S
C1560 H1550 0.930 . S
C1560 C1559 1.400 . S
C1560 C1563 1.386 . S
H1561 C1577 0.930 . S
H1562 C1578 0.931 . S
C1563 H1551 0.929 . S
C1563 C1557 1.390 . S
C1563 C1560 1.386 . S
C1564 C1559 1.490 . S
C1564 C1566 1.395 . S
C1564 C1567 1.403 . S
H1565 C1571 0.930 . S
C1566 H1552 0.930 . S
C1566 C1564 1.395 . S
C1566 C1569 1.403 . S
C1567 C1564 1.403 . S
C1567 C1568 1.524 . S
C1567 C1571 1.400 . S
C1568 H1553 0.960 . S
C1568 H1554 0.960 . S
C1568 H1555 0.960 . S
C1568 C1567 1.524 . S
C1569 C1566 1.403 . S
C1569 C1570 1.392 . S
C1569 C1573 1.495 . S
C1570 C1569 1.392 . S
C1570 C1571 1.385 . S
C1570 C1572 1.478 . S
C1571 H1565 0.930 . S
C1571 C1567 1.400 . S
C1571 C1570 1.385 . S
C1572 C1570 1.478 . S
C1572 C1574 1.381 . S
C1572 C1578 1.383 . S
C1573 C1569 1.495 . S
C1573 H1579 0.959 . S
C1573 H1580 0.961 . S
C1573 H1581 0.960 . S
C1574 C1572 1.381 . S
C1574 C1575 1.394 . S
C1574 H1582 0.930 . S
C1575 C1574 1.394 . S
C1575 C1576 1.383 . S
C1575 H1583 0.929 . S
C1576 C1575 1.383 . S
C1576 C1577 1.377 . S
C1577 H1561 0.930 . S
C1577 C1576 1.377 . S
C1577 C1578 1.379 . S
C1578 H1562 0.931 . S
C1578 C1572 1.383 . S
C1578 C1577 1.379 . S
H1579 C1573 0.959 . S
H1580 C1573 0.961 . S
H1581 C1573 0.960 . S
H1582 C1574 0.930 . S
H1583 C1575 0.929 . S
H1584 C1592 0.929 . S
H1585 C1594 0.930 . S
H1586 C1596 0.930 . S
H1587 C1599 0.929 . S
H1588 C1602 0.930 . S
H1589 C1604 0.960 . S
H1590 C1604 0.960 . S
H1591 C1604 0.960 . S
C1592 H1584 0.929 . S
C1592 C1593 1.377 . S
C1592 C1594 1.384 . S
C1593 C1592 1.377 . S
C1593 C1599 1.390 . S
C1594 H1585 0.930 . S
C1594 C1592 1.384 . S
C1594 C1595 1.372 . S
C1595 C1594 1.372 . S
C1595 C1596 1.400 . S
C1595 C1600 1.490 . S
C1596 H1586 0.930 . S
C1596 C1595 1.400 . S
C1596 C1599 1.386 . S
H1597 C1613 0.930 . S
H1598 C1614 0.931 . S
C1599 H1587 0.929 . S
C1599 C1593 1.390 . S
C1599 C1596 1.386 . S
C1600 C1595 1.490 . S
C1600 C1602 1.395 . S
C1600 C1603 1.403 . S
H1601 C1607 0.930 . S
C1602 H1588 0.930 . S
C1602 C1600 1.395 . S
C1602 C1605 1.403 . S
C1603 C1600 1.403 . S
C1603 C1604 1.524 . S
C1603 C1607 1.400 . S
C1604 H1589 0.960 . S
C1604 H1590 0.960 . S
C1604 H1591 0.960 . S
C1604 C1603 1.524 . S
C1605 C1602 1.403 . S
C1605 C1606 1.392 . S
C1605 C1609 1.495 . S
C1606 C1605 1.392 . S
C1606 C1607 1.385 . S
C1606 C1608 1.478 . S
C1607 H1601 0.930 . S
C1607 C1603 1.400 . S
C1607 C1606 1.385 . S
C1608 C1606 1.478 . S
C1608 C1610 1.381 . S
C1608 C1614 1.383 . S
C1609 C1605 1.495 . S
C1609 H1615 0.959 . S
C1609 H1616 0.961 . S
C1609 H1617 0.960 . S
C1610 C1608 1.381 . S
C1610 C1611 1.394 . S
C1610 H1618 0.930 . S
C1611 C1610 1.394 . S
C1611 C1612 1.383 . S
C1611 H1619 0.929 . S
C1612 C1611 1.383 . S
C1612 C1613 1.377 . S
C1613 H1597 0.930 . S
C1613 C1612 1.377 . S
C1613 C1614 1.379 . S
C1614 H1598 0.931 . S
C1614 C1608 1.383 . S
C1614 C1613 1.379 . S
H1615 C1609 0.959 . S
H1616 C1609 0.961 . S
H1617 C1609 0.960 . S
H1618 C1610 0.930 . S
H1619 C1611 0.929 . S
H1620 C1628 0.929 . S
H1621 C1630 0.930 . S
H1622 C1632 0.930 . S
H1623 C1635 0.929 . S
H1624 C1638 0.930 . S
H1625 C1640 0.960 . S
H1626 C1640 0.960 . S
H1627 C1640 0.960 . S
C1628 H1620 0.929 . S
C1628 C1629 1.377 . S
C1628 C1630 1.384 . S
C1629 C1628 1.377 . S
C1629 C1635 1.390 . S
C1630 H1621 0.930 . S
C1630 C1628 1.384 . S
C1630 C1631 1.372 . S
C1631 C1630 1.372 . S
C1631 C1632 1.400 . S
C1631 C1636 1.490 . S
C1632 H1622 0.930 . S
C1632 C1631 1.400 . S
C1632 C1635 1.386 . S
H1633 C1649 0.930 . S
H1634 C1650 0.931 . S
C1635 H1623 0.929 . S
C1635 C1629 1.390 . S
C1635 C1632 1.386 . S
C1636 C1631 1.490 . S
C1636 C1638 1.395 . S
C1636 C1639 1.403 . S
H1637 C1643 0.930 . S
C1638 H1624 0.930 . S
C1638 C1636 1.395 . S
C1638 C1641 1.403 . S
C1639 C1636 1.403 . S
C1639 C1640 1.524 . S
C1639 C1643 1.400 . S
C1640 H1625 0.960 . S
C1640 H1626 0.960 . S
C1640 H1627 0.960 . S
C1640 C1639 1.524 . S
C1641 C1638 1.403 . S
C1641 C1642 1.392 . S
C1641 C1645 1.495 . S
C1642 C1641 1.392 . S
C1642 C1643 1.385 . S
C1642 C1644 1.478 . S
C1643 H1637 0.930 . S
C1643 C1639 1.400 . S
C1643 C1642 1.385 . S
C1644 C1642 1.478 . S
C1644 C1646 1.381 . S
C1644 C1650 1.383 . S
C1645 C1641 1.495 . S
C1645 H1651 0.959 . S
C1645 H1652 0.961 . S
C1645 H1653 0.960 . S
C1646 C1644 1.381 . S
C1646 C1647 1.394 . S
C1646 H1654 0.930 . S
C1647 C1646 1.394 . S
C1647 C1648 1.383 . S
C1647 H1655 0.929 . S
C1648 C1647 1.383 . S
C1648 C1649 1.377 . S
C1649 H1633 0.930 . S
C1649 C1648 1.377 . S
C1649 C1650 1.379 . S
C1650 H1634 0.931 . S
C1650 C1644 1.383 . S
C1650 C1649 1.379 . S
H1651 C1645 0.959 . S
H1652 C1645 0.961 . S
H1653 C1645 0.960 . S
H1654 C1646 0.930 . S
H1655 C1647 0.929 . S
H1656 C1664 0.929 . S
H1657 C1666 0.930 . S
H1658 C1668 0.930 . S
H1659 C1671 0.929 . S
H1660 C1674 0.930 . S
H1661 C1676 0.960 . S
H1662 C1676 0.960 . S
H1663 C1676 0.960 . S
C1664 H1656 0.929 . S
C1664 C1665 1.377 . S
C1664 C1666 1.384 . S
C1665 C1664 1.377 . S
C1665 C1671 1.390 . S
C1666 H1657 0.930 . S
C1666 C1664 1.384 . S
C1666 C1667 1.372 . S
C1667 C1666 1.372 . S
C1667 C1668 1.400 . S
C1667 C1672 1.490 . S
C1668 H1658 0.930 . S
C1668 C1667 1.400 . S
C1668 C1671 1.386 . S
H1669 C1685 0.930 . S
H1670 C1686 0.931 . S
C1671 H1659 0.929 . S
C1671 C1665 1.390 . S
C1671 C1668 1.386 . S
C1672 C1667 1.490 . S
C1672 C1674 1.395 . S
C1672 C1675 1.403 . S
H1673 C1679 0.930 . S
C1674 H1660 0.930 . S
C1674 C1672 1.395 . S
C1674 C1677 1.403 . S
C1675 C1672 1.403 . S
C1675 C1676 1.524 . S
C1675 C1679 1.400 . S
C1676 H1661 0.960 . S
C1676 H1662 0.960 . S
C1676 H1663 0.960 . S
C1676 C1675 1.524 . S
C1677 C1674 1.403 . S
C1677 C1678 1.392 . S
C1677 C1681 1.495 . S
C1678 C1677 1.392 . S
C1678 C1679 1.385 . S
C1678 C1680 1.478 . S
C1679 H1673 0.930 . S
C1679 C1675 1.400 . S
C1679 C1678 1.385 . S
C1680 C1678 1.478 . S
C1680 C1682 1.381 . S
C1680 C1686 1.383 . S
C1681 C1677 1.495 . S
C1681 H1687 0.959 . S
C1681 H1688 0.961 . S
C1681 H1689 0.960 . S
C1682 C1680 1.381 . S
C1682 C1683 1.394 . S
C1682 H1690 0.930 . S
C1683 C1682 1.394 . S
C1683 C1684 1.383 . S
C1683 H1691 0.929 . S
C1684 C1683 1.383 . S
C1684 C1685 1.377 . S
C1685 H1669 0.930 . S
C1685 C1684 1.377 . S
C1685 C1686 1.379 . S
C1686 H1670 0.931 . S
C1686 C1680 1.383 . S
C1686 C1685 1.379 . S
H1687 C1681 0.959 . S
H1688 C1681 0.961 . S
H1689 C1681 0.960 . S
H1690 C1682 0.930 . S
H1691 C1683 0.929 . S
H1692 C1700 0.929 . S
H1693 C1702 0.930 . S
H1694 C1704 0.930 . S
H1695 C1707 0.929 . S
H1696 C1710 0.930 . S
H1697 C1712 0.960 . S
H1698 C1712 0.960 . S
H1699 C1712 0.960 . S
C1700 H1692 0.929 . S
C1700 C1701 1.377 . S
C1700 C1702 1.384 . S
C1701 C1700 1.377 . S
C1701 C1707 1.390 . S
C1702 H1693 0.930 . S
C1702 C1700 1.384 . S
C1702 C1703 1.372 . S
C1703 C1702 1.372 . S
C1703 C1704 1.400 . S
C1703 C1708 1.490 . S
C1704 H1694 0.930 . S
C1704 C1703 1.400 . S
C1704 C1707 1.386 . S
H1705 C1721 0.930 1_545 S
H1706 C1722 0.931 . S
C1707 H1695 0.929 . S
C1707 C1701 1.390 . S
C1707 C1704 1.386 . S
C1708 C1703 1.490 . S
C1708 C1710 1.395 . S
C1708 C1711 1.403 . S
H1709 C1715 0.930 . S
C1710 H1696 0.930 . S
C1710 C1708 1.395 . S
C1710 C1713 1.403 . S
C1711 C1708 1.403 . S
C1711 C1712 1.524 . S
C1711 C1715 1.400 . S
C1712 H1697 0.960 . S
C1712 H1698 0.960 . S
C1712 H1699 0.960 . S
C1712 C1711 1.524 . S
C1713 C1710 1.403 . S
C1713 C1714 1.392 . S
C1713 C1717 1.495 . S
C1714 C1713 1.392 . S
C1714 C1715 1.385 . S
C1714 C1716 1.478 . S
C1715 H1709 0.930 . S
C1715 C1711 1.400 . S
C1715 C1714 1.385 . S
C1716 C1714 1.478 . S
C1716 C1718 1.381 . S
C1716 C1722 1.383 . S
C1717 C1713 1.495 . S
C1717 H1723 0.959 . S
C1717 H1724 0.947 1_565 S
C1717 H1725 0.960 . S
C1718 C1716 1.381 . S
C1718 C1719 1.394 . S
C1718 H1726 0.930 . S
C1719 C1718 1.394 . S
C1719 C1720 1.383 . S
C1719 H1727 0.929 . S
C1720 C1719 1.383 . S
C1720 C1721 1.377 . S
C1721 H1705 0.930 1_565 S
C1721 C1720 1.377 . S
C1721 C1722 1.379 . S
C1722 H1706 0.931 . S
C1722 C1716 1.383 . S
C1722 C1721 1.379 . S
H1723 C1717 0.959 . S
H1724 C1717 0.947 1_545 S
H1725 C1717 0.960 . S
H1726 C1718 0.930 . S
H1727 C1719 0.929 . S
H1728 C1736 0.929 . S
H1729 C1738 0.930 . S
H1730 C1740 0.930 . S
H1731 C1743 0.929 . S
H1732 C1746 0.930 . S
H1733 C1748 0.960 . S
H1734 C1748 0.960 . S
H1735 C1748 0.960 . S
C1736 H1728 0.929 . S
C1736 C1737 1.377 . S
C1736 C1738 1.384 . S
C1737 C1736 1.377 . S
C1737 C1743 1.390 . S
C1738 H1729 0.930 . S
C1738 C1736 1.384 . S
C1738 C1739 1.372 . S
C1739 C1738 1.372 . S
C1739 C1740 1.400 . S
C1739 C1744 1.490 . S
C1740 H1730 0.930 . S
C1740 C1739 1.400 . S
C1740 C1743 1.386 . S
H1741 C1757 0.930 . S
H1742 C1758 0.931 . S
C1743 H1731 0.929 . S
C1743 C1737 1.390 . S
C1743 C1740 1.386 . S
C1744 C1739 1.490 . S
C1744 C1746 1.395 . S
C1744 C1747 1.403 . S
H1745 C1751 0.930 . S
C1746 H1732 0.930 . S
C1746 C1744 1.395 . S
C1746 C1749 1.403 . S
C1747 C1744 1.403 . S
C1747 C1748 1.524 . S
C1747 C1751 1.400 . S
C1748 H1733 0.960 . S
C1748 H1734 0.960 . S
C1748 H1735 0.960 . S
C1748 C1747 1.524 . S
C1749 C1746 1.403 . S
C1749 C1750 1.392 . S
C1749 C1753 1.495 . S
C1750 C1749 1.392 . S
C1750 C1751 1.385 . S
C1750 C1752 1.478 . S
C1751 H1745 0.930 . S
C1751 C1747 1.400 . S
C1751 C1750 1.385 . S
C1752 C1750 1.478 . S
C1752 C1754 1.381 . S
C1752 C1758 1.383 . S
C1753 C1749 1.495 . S
C1753 H1759 0.959 . S
C1753 H1760 0.961 . S
C1753 H1761 0.960 . S
C1754 C1752 1.381 . S
C1754 C1755 1.394 . S
C1754 H1762 0.930 . S
C1755 C1754 1.394 . S
C1755 C1756 1.383 . S
C1755 H1763 0.929 . S
C1756 C1755 1.383 . S
C1756 C1757 1.377 . S
C1757 H1741 0.930 . S
C1757 C1756 1.377 . S
C1757 C1758 1.379 . S
C1758 H1742 0.931 . S
C1758 C1752 1.383 . S
C1758 C1757 1.379 . S
H1759 C1753 0.959 . S
H1760 C1753 0.961 . S
H1761 C1753 0.960 . S
H1762 C1754 0.930 . S
H1763 C1755 0.929 . S
H1764 C1772 0.929 . S
H1765 C1774 0.930 . S
H1766 C1776 0.930 . S
H1767 C1779 0.929 . S
H1768 C1782 0.930 . S
H1769 C1784 0.960 . S
H1770 C1784 0.960 . S
H1771 C1784 0.960 . S
C1772 H1764 0.929 . S
C1772 C1773 1.377 . S
C1772 C1774 1.384 . S
C1773 C1772 1.377 . S
C1773 C1779 1.390 . S
C1774 H1765 0.930 . S
C1774 C1772 1.384 . S
C1774 C1775 1.372 . S
C1775 C1774 1.372 . S
C1775 C1776 1.400 . S
C1775 C1780 1.490 . S
C1776 H1766 0.930 . S
C1776 C1775 1.400 . S
C1776 C1779 1.386 . S
H1777 C1793 0.930 . S
H1778 C1794 0.931 . S
C1779 H1767 0.929 . S
C1779 C1773 1.390 . S
C1779 C1776 1.386 . S
C1780 C1775 1.490 . S
C1780 C1782 1.395 . S
C1780 C1783 1.403 . S
H1781 C1787 0.930 . S
C1782 H1768 0.930 . S
C1782 C1780 1.395 . S
C1782 C1785 1.403 . S
C1783 C1780 1.403 . S
C1783 C1784 1.524 . S
C1783 C1787 1.400 . S
C1784 H1769 0.960 . S
C1784 H1770 0.960 . S
C1784 H1771 0.960 . S
C1784 C1783 1.524 . S
C1785 C1782 1.403 . S
C1785 C1786 1.392 . S
C1785 C1789 1.495 . S
C1786 C1785 1.392 . S
C1786 C1787 1.385 . S
C1786 C1788 1.478 . S
C1787 H1781 0.930 . S
C1787 C1783 1.400 . S
C1787 C1786 1.385 . S
C1788 C1786 1.478 . S
C1788 C1790 1.381 . S
C1788 C1794 1.383 . S
C1789 C1785 1.495 . S
C1789 H1795 0.959 . S
C1789 H1796 0.961 . S
C1789 H1797 0.960 . S
C1790 C1788 1.381 . S
C1790 C1791 1.394 . S
C1790 H1798 0.930 . S
C1791 C1790 1.394 . S
C1791 C1792 1.383 . S
C1791 H1799 0.929 . S
C1792 C1791 1.383 . S
C1792 C1793 1.377 . S
C1793 H1777 0.930 . S
C1793 C1792 1.377 . S
C1793 C1794 1.379 . S
C1794 H1778 0.931 . S
C1794 C1788 1.383 . S
C1794 C1793 1.379 . S
H1795 C1789 0.959 . S
H1796 C1789 0.961 . S
H1797 C1789 0.960 . S
H1798 C1790 0.930 . S
H1799 C1791 0.929 . S
H1800 C1808 0.929 1_455 S
H1801 C1810 0.930 . S
H1802 C1812 0.930 . S
H1803 C1815 0.929 . S
H1804 C1818 0.930 . S
H1805 C1820 0.960 . S
H1806 C1820 0.960 . S
H1807 C1820 0.960 . S
C1808 H1800 0.929 1_655 S
C1808 C1809 1.377 . S
C1808 C1810 1.384 . S
C1809 C1808 1.377 . S
C1809 C1815 1.390 . S
C1810 H1801 0.930 . S
C1810 C1808 1.384 . S
C1810 C1811 1.372 . S
C1811 C1810 1.372 . S
C1811 C1812 1.400 . S
C1811 C1816 1.490 . S
C1812 H1802 0.930 . S
C1812 C1811 1.400 . S
C1812 C1815 1.386 . S
H1813 C1829 0.930 . S
H1814 C1830 0.931 . S
C1815 H1803 0.929 . S
C1815 C1809 1.390 . S
C1815 C1812 1.386 . S
C1816 C1811 1.490 . S
C1816 C1818 1.395 . S
C1816 C1819 1.403 . S
H1817 C1823 0.930 . S
C1818 H1804 0.930 . S
C1818 C1816 1.395 . S
C1818 C1821 1.403 . S
C1819 C1816 1.403 . S
C1819 C1820 1.524 . S
C1819 C1823 1.400 . S
C1820 H1805 0.960 . S
C1820 H1806 0.960 . S
C1820 H1807 0.960 . S
C1820 C1819 1.524 . S
C1821 C1818 1.403 . S
C1821 C1822 1.392 . S
C1821 C1825 1.495 . S
C1822 C1821 1.392 . S
C1822 C1823 1.385 . S
C1822 C1824 1.478 . S
C1823 H1817 0.930 . S
C1823 C1819 1.400 . S
C1823 C1822 1.385 . S
C1824 C1822 1.478 . S
C1824 C1826 1.381 . S
C1824 C1830 1.383 . S
C1825 C1821 1.495 . S
C1825 H1831 0.959 1_655 S
C1825 H1832 0.961 . S
C1825 H1833 0.960 . S
C1826 C1824 1.381 . S
C1826 C1827 1.394 . S
C1826 H1834 0.930 . S
C1827 C1826 1.394 . S
C1827 C1828 1.383 . S
C1827 H1835 0.929 . S
C1828 C1827 1.383 . S
C1828 C1829 1.377 . S
C1829 H1813 0.930 . S
C1829 C1828 1.377 . S
C1829 C1830 1.379 . S
C1830 H1814 0.931 . S
C1830 C1824 1.383 . S
C1830 C1829 1.379 . S
H1831 C1825 0.959 1_455 S
H1832 C1825 0.961 . S
H1833 C1825 0.960 . S
H1834 C1826 0.930 . S
H1835 C1827 0.929 . S
H1836 C1844 0.929 . S
H1837 C1846 0.930 . S
H1838 C1848 0.930 . S
H1839 C1851 0.929 . S
H1840 C1854 0.930 . S
H1841 C1856 0.960 . S
H1842 C1856 0.960 . S
H1843 C1856 0.960 . S
C1844 H1836 0.929 . S
C1844 C1845 1.377 . S
C1844 C1846 1.384 . S
C1845 C1844 1.377 . S
C1845 C1851 1.390 . S
C1846 H1837 0.930 . S
C1846 C1844 1.384 . S
C1846 C1847 1.372 . S
C1847 C1846 1.372 . S
C1847 C1848 1.400 . S
C1847 C1852 1.490 . S
C1848 H1838 0.930 . S
C1848 C1847 1.400 . S
C1848 C1851 1.386 . S
H1849 C1865 0.930 . S
H1850 C1866 0.931 . S
C1851 H1839 0.929 . S
C1851 C1845 1.390 . S
C1851 C1848 1.386 . S
C1852 C1847 1.490 . S
C1852 C1854 1.395 . S
C1852 C1855 1.403 . S
H1853 C1859 0.930 . S
C1854 H1840 0.930 . S
C1854 C1852 1.395 . S
C1854 C1857 1.403 . S
C1855 C1852 1.403 . S
C1855 C1856 1.524 . S
C1855 C1859 1.400 . S
C1856 H1841 0.960 . S
C1856 H1842 0.960 . S
C1856 H1843 0.960 . S
C1856 C1855 1.524 . S
C1857 C1854 1.403 . S
C1857 C1858 1.392 . S
C1857 C1861 1.495 . S
C1858 C1857 1.392 . S
C1858 C1859 1.385 . S
C1858 C1860 1.478 . S
C1859 H1853 0.930 . S
C1859 C1855 1.400 . S
C1859 C1858 1.385 . S
C1860 C1858 1.478 . S
C1860 C1862 1.381 . S
C1860 C1866 1.383 . S
C1861 C1857 1.495 . S
C1861 H1867 0.959 . S
C1861 H1868 0.961 . S
C1861 H1869 0.960 . S
C1862 C1860 1.381 . S
C1862 C1863 1.394 . S
C1862 H1870 0.930 . S
C1863 C1862 1.394 . S
C1863 C1864 1.383 . S
C1863 H1871 0.929 . S
C1864 C1863 1.383 . S
C1864 C1865 1.377 . S
C1865 H1849 0.930 . S
C1865 C1864 1.377 . S
C1865 C1866 1.379 . S
C1866 H1850 0.931 . S
C1866 C1860 1.383 . S
C1866 C1865 1.379 . S
H1867 C1861 0.959 . S
H1868 C1861 0.961 . S
H1869 C1861 0.960 . S
H1870 C1862 0.930 . S
H1871 C1863 0.929 . S
H1872 C1880 0.929 . S
H1873 C1882 0.930 . S
H1874 C1884 0.930 . S
H1875 C1887 0.929 . S
H1876 C1890 0.930 . S
H1877 C1892 0.960 . S
H1878 C1892 0.960 . S
H1879 C1892 0.960 . S
C1880 H1872 0.929 . S
C1880 C1881 1.377 . S
C1880 C1882 1.384 . S
C1881 C1880 1.377 . S
C1881 C1887 1.390 . S
C1882 H1873 0.930 . S
C1882 C1880 1.384 . S
C1882 C1883 1.372 . S
C1883 C1882 1.372 . S
C1883 C1884 1.400 . S
C1883 C1888 1.490 . S
C1884 H1874 0.930 . S
C1884 C1883 1.400 . S
C1884 C1887 1.386 . S
H1885 C1901 0.930 . S
H1886 C1902 0.931 . S
C1887 H1875 0.929 . S
C1887 C1881 1.390 . S
C1887 C1884 1.386 . S
C1888 C1883 1.490 . S
C1888 C1890 1.395 . S
C1888 C1891 1.403 . S
H1889 C1895 0.930 . S
C1890 H1876 0.930 . S
C1890 C1888 1.395 . S
C1890 C1893 1.403 . S
C1891 C1888 1.403 . S
C1891 C1892 1.524 . S
C1891 C1895 1.400 . S
C1892 H1877 0.960 . S
C1892 H1878 0.960 . S
C1892 H1879 0.960 . S
C1892 C1891 1.524 . S
C1893 C1890 1.403 . S
C1893 C1894 1.392 . S
C1893 C1897 1.495 . S
C1894 C1893 1.392 . S
C1894 C1895 1.385 . S
C1894 C1896 1.478 . S
C1895 H1889 0.930 . S
C1895 C1891 1.400 . S
C1895 C1894 1.385 . S
C1896 C1894 1.478 . S
C1896 C1898 1.381 . S
C1896 C1902 1.383 . S
C1897 C1893 1.495 . S
C1897 H1903 0.959 . S
C1897 H1904 0.961 . S
C1897 H1905 0.960 . S
C1898 C1896 1.381 . S
C1898 C1899 1.394 . S
C1898 H1906 0.930 . S
C1899 C1898 1.394 . S
C1899 C1900 1.383 . S
C1899 H1907 0.929 . S
C1900 C1899 1.383 . S
C1900 C1901 1.377 . S
C1901 H1885 0.930 . S
C1901 C1900 1.377 . S
C1901 C1902 1.379 . S
C1902 H1886 0.931 . S
C1902 C1896 1.383 . S
C1902 C1901 1.379 . S
H1903 C1897 0.959 . S
H1904 C1897 0.961 . S
H1905 C1897 0.960 . S
H1906 C1898 0.930 . S
H1907 C1899 0.929 . S
H1908 C1916 0.929 . S
H1909 C1918 0.930 . S
H1910 C1920 0.930 . S
H1911 C1923 0.929 . S
H1912 C1926 0.930 . S
H1913 C1928 0.960 . S
H1914 C1928 0.960 . S
H1915 C1928 0.960 . S
C1916 H1908 0.929 . S
C1916 C1917 1.377 . S
C1916 C1918 1.384 . S
C1917 C1916 1.377 . S
C1917 C1923 1.390 . S
C1918 H1909 0.930 . S
C1918 C1916 1.384 . S
C1918 C1919 1.372 . S
C1919 C1918 1.372 . S
C1919 C1920 1.400 . S
C1919 C1924 1.490 . S
C1920 H1910 0.930 . S
C1920 C1919 1.400 . S
C1920 C1923 1.386 . S
H1921 C1937 0.930 . S
H1922 C1938 0.931 . S
C1923 H1911 0.929 . S
C1923 C1917 1.390 . S
C1923 C1920 1.386 . S
C1924 C1919 1.490 . S
C1924 C1926 1.395 . S
C1924 C1927 1.403 1_655 S
H1925 C1931 0.930 . S
C1926 H1912 0.930 . S
C1926 C1924 1.395 . S
C1926 C1929 1.403 1_655 S
C1927 C1924 1.403 1_455 S
C1927 C1928 1.524 . S
C1927 C1931 1.400 . S
C1928 H1913 0.960 . S
C1928 H1914 0.960 . S
C1928 H1915 0.960 . S
C1928 C1927 1.524 . S
C1929 C1926 1.403 1_455 S
C1929 C1930 1.392 . S
C1929 C1933 1.495 . S
C1930 C1929 1.392 . S
C1930 C1931 1.385 . S
C1930 C1932 1.478 . S
C1931 H1925 0.930 . S
C1931 C1927 1.400 . S
C1931 C1930 1.385 . S
C1932 C1930 1.478 . S
C1932 C1934 1.381 . S
C1932 C1938 1.383 . S
C1933 C1929 1.495 . S
C1933 H1939 0.959 1_455 S
C1933 H1940 0.961 . S
C1933 H1941 0.960 . S
C1934 C1932 1.381 . S
C1934 C1935 1.394 . S
C1934 H1942 0.930 . S
C1935 C1934 1.394 . S
C1935 C1936 1.383 . S
C1935 H1943 0.929 . S
C1936 C1935 1.383 . S
C1936 C1937 1.377 . S
C1937 H1921 0.930 . S
C1937 C1936 1.377 . S
C1937 C1938 1.379 . S
C1938 H1922 0.931 . S
C1938 C1932 1.383 . S
C1938 C1937 1.379 . S
H1939 C1933 0.959 1_655 S
H1940 C1933 0.961 . S
H1941 C1933 0.960 . S
H1942 C1934 0.930 . S
H1943 C1935 0.929 . S
H1944 C1952 0.929 . S
H1945 C1954 0.930 . S
H1946 C1956 0.930 . S
H1947 C1959 0.929 . S
H1948 C1962 0.930 . S
H1949 C1964 0.960 . S
H1950 C1964 0.960 . S
H1951 C1964 0.960 . S
C1952 H1944 0.929 . S
C1952 C1953 1.377 . S
C1952 C1954 1.384 . S
C1953 C1952 1.377 . S
C1953 C1959 1.390 . S
C1954 H1945 0.930 . S
C1954 C1952 1.384 . S
C1954 C1955 1.372 . S
C1955 C1954 1.372 . S
C1955 C1956 1.400 . S
C1955 C1960 1.490 . S
C1956 H1946 0.930 . S
C1956 C1955 1.400 . S
C1956 C1959 1.386 . S
H1957 C1973 0.930 . S
H1958 C1974 0.931 . S
C1959 H1947 0.929 . S
C1959 C1953 1.390 . S
C1959 C1956 1.386 . S
C1960 C1955 1.490 . S
C1960 C1962 1.395 . S
C1960 C1963 1.403 . S
H1961 C1967 0.930 . S
C1962 H1948 0.930 . S
C1962 C1960 1.395 . S
C1962 C1965 1.403 . S
C1963 C1960 1.403 . S
C1963 C1964 1.524 . S
C1963 C1967 1.400 . S
C1964 H1949 0.960 . S
C1964 H1950 0.960 . S
C1964 H1951 0.960 . S
C1964 C1963 1.524 . S
C1965 C1962 1.403 . S
C1965 C1966 1.392 . S
C1965 C1969 1.495 . S
C1966 C1965 1.392 . S
C1966 C1967 1.385 . S
C1966 C1968 1.478 . S
C1967 H1961 0.930 . S
C1967 C1963 1.400 . S
C1967 C1966 1.385 . S
C1968 C1966 1.478 . S
C1968 C1970 1.381 . S
C1968 C1974 1.383 . S
C1969 C1965 1.495 . S
C1969 H1975 0.959 . S
C1969 H1976 0.961 . S
C1969 H1977 0.960 . S
C1970 C1968 1.381 . S
C1970 C1971 1.394 . S
C1970 H1978 0.930 . S
C1971 C1970 1.394 . S
C1971 C1972 1.383 . S
C1971 H1979 0.929 . S
C1972 C1971 1.383 . S
C1972 C1973 1.377 . S
C1973 H1957 0.930 . S
C1973 C1972 1.377 . S
C1973 C1974 1.379 . S
C1974 H1958 0.931 . S
C1974 C1968 1.383 . S
C1974 C1973 1.379 . S
H1975 C1969 0.959 . S
H1976 C1969 0.961 . S
H1977 C1969 0.960 . S
H1978 C1970 0.930 . S
H1979 C1971 0.929 . S
H1980 C1988 0.929 . S
H1981 C1990 0.930 . S
H1982 C1992 0.930 . S
H1983 C1995 0.929 . S
H1984 C1998 0.930 . S
H1985 C2000 0.960 . S
H1986 C2000 0.960 . S
H1987 C2000 0.960 . S
C1988 H1980 0.929 . S
C1988 C1989 1.377 . S
C1988 C1990 1.384 . S
C1989 C1988 1.377 . S
C1989 C1995 1.390 . S
C1990 H1981 0.930 . S
C1990 C1988 1.384 . S
C1990 C1991 1.372 . S
C1991 C1990 1.372 . S
C1991 C1992 1.400 . S
C1991 C1996 1.490 . S
C1992 H1982 0.930 . S
C1992 C1991 1.400 . S
C1992 C1995 1.386 . S
H1993 C2009 0.930 . S
H1994 C2010 0.931 . S
C1995 H1983 0.929 . S
C1995 C1989 1.390 . S
C1995 C1992 1.386 . S
C1996 C1991 1.490 . S
C1996 C1998 1.395 . S
C1996 C1999 1.403 1_565 S
H1997 C2003 0.930 . S
C1998 H1984 0.930 . S
C1998 C1996 1.395 . S
C1998 C2001 1.403 1_565 S
C1999 C1996 1.403 1_545 S
C1999 C2000 1.524 . S
C1999 C2003 1.400 . S
C2000 H1985 0.960 . S
C2000 H1986 0.960 . S
C2000 H1987 0.960 . S
C2000 C1999 1.524 . S
C2001 C1998 1.403 1_545 S
C2001 C2002 1.392 . S
C2001 C2005 1.495 . S
C2002 C2001 1.392 . S
C2002 C2003 1.385 . S
C2002 C2004 1.478 . S
C2003 H1997 0.930 . S
C2003 C1999 1.400 . S
C2003 C2002 1.385 . S
C2004 C2002 1.478 . S
C2004 C2006 1.381 . S
C2004 C2010 1.383 . S
C2005 C2001 1.495 . S
C2005 H2011 0.959 1_545 S
C2005 H2012 0.961 . S
C2005 H2013 0.960 . S
C2006 C2004 1.381 . S
C2006 C2007 1.394 . S
C2006 H2014 0.930 . S
C2007 C2006 1.394 . S
C2007 C2008 1.383 . S
C2007 H2015 0.929 . S
C2008 C2007 1.383 . S
C2008 C2009 1.377 . S
C2009 H1993 0.930 . S
C2009 C2008 1.377 . S
C2009 C2010 1.379 . S
C2010 H1994 0.931 . S
C2010 C2004 1.383 . S
C2010 C2009 1.379 . S
H2011 C2005 0.959 1_565 S
H2012 C2005 0.961 . S
H2013 C2005 0.960 . S
H2014 C2006 0.930 . S
H2015 C2007 0.929 . S
H2016 C2024 0.929 . S
H2017 C2026 0.930 . S
H2018 C2028 0.930 . S
H2019 C2031 0.929 . S
H2020 C2034 0.930 . S
H2021 C2036 0.960 . S
H2022 C2036 0.960 . S
H2023 C2036 0.960 . S
C2024 H2016 0.929 . S
C2024 C2025 1.377 . S
C2024 C2026 1.384 . S
C2025 C2024 1.377 . S
C2025 C2031 1.390 . S
C2026 H2017 0.930 . S
C2026 C2024 1.384 . S
C2026 C2027 1.372 . S
C2027 C2026 1.372 . S
C2027 C2028 1.400 . S
C2027 C2032 1.490 . S
C2028 H2018 0.930 . S
C2028 C2027 1.400 . S
C2028 C2031 1.386 . S
H2029 C2045 0.930 . S
H2030 C2046 0.931 . S
C2031 H2019 0.929 . S
C2031 C2025 1.390 . S
C2031 C2028 1.386 . S
C2032 C2027 1.490 . S
C2032 C2034 1.395 . S
C2032 C2035 1.403 . S
H2033 C2039 0.930 . S
C2034 H2020 0.930 . S
C2034 C2032 1.395 . S
C2034 C2037 1.403 . S
C2035 C2032 1.403 . S
C2035 C2036 1.524 . S
C2035 C2039 1.400 . S
C2036 H2021 0.960 . S
C2036 H2022 0.960 . S
C2036 H2023 0.960 . S
C2036 C2035 1.524 . S
C2037 C2034 1.403 . S
C2037 C2038 1.392 . S
C2037 C2041 1.495 . S
C2038 C2037 1.392 . S
C2038 C2039 1.385 . S
C2038 C2040 1.478 . S
C2039 H2033 0.930 . S
C2039 C2035 1.400 . S
C2039 C2038 1.385 . S
C2040 C2038 1.478 . S
C2040 C2042 1.381 . S
C2040 C2046 1.383 . S
C2041 C2037 1.495 . S
C2041 H2047 0.959 . S
C2041 H2048 0.961 . S
C2041 H2049 0.960 . S
C2042 C2040 1.381 . S
C2042 C2043 1.394 . S
C2042 H2050 0.930 . S
C2043 C2042 1.394 . S
C2043 C2044 1.383 . S
C2043 H2051 0.929 . S
C2044 C2043 1.383 . S
C2044 C2045 1.377 . S
C2045 H2029 0.930 . S
C2045 C2044 1.377 . S
C2045 C2046 1.379 . S
C2046 H2030 0.931 . S
C2046 C2040 1.383 . S
C2046 C2045 1.379 . S
H2047 C2041 0.959 . S
H2048 C2041 0.961 . S
H2049 C2041 0.960 . S
H2050 C2042 0.930 . S
H2051 C2043 0.929 . S
H2052 C2060 0.929 . S
H2053 C2062 0.930 . S
H2054 C2064 0.930 . S
H2055 C2067 0.929 . S
H2056 C2070 0.930 . S
H2057 C2072 0.960 . S
H2058 C2072 0.960 . S
H2059 C2072 0.960 . S
C2060 H2052 0.929 . S
C2060 C2061 1.377 . S
C2060 C2062 1.384 . S
C2061 C2060 1.377 . S
C2061 C2067 1.390 . S
C2062 H2053 0.930 . S
C2062 C2060 1.384 . S
C2062 C2063 1.372 . S
C2063 C2062 1.372 . S
C2063 C2064 1.400 . S
C2063 C2068 1.490 . S
C2064 H2054 0.930 . S
C2064 C2063 1.400 . S
C2064 C2067 1.386 . S
H2065 C2081 0.930 . S
H2066 C2082 0.931 . S
C2067 H2055 0.929 . S
C2067 C2061 1.390 . S
C2067 C2064 1.386 . S
C2068 C2063 1.490 . S
C2068 C2070 1.395 . S
C2068 C2071 1.403 . S
H2069 C2075 0.930 . S
C2070 H2056 0.930 . S
C2070 C2068 1.395 . S
C2070 C2073 1.403 . S
C2071 C2068 1.403 . S
C2071 C2072 1.524 . S
C2071 C2075 1.400 . S
C2072 H2057 0.960 . S
C2072 H2058 0.960 . S
C2072 H2059 0.960 . S
C2072 C2071 1.524 . S
C2073 C2070 1.403 . S
C2073 C2074 1.392 . S
C2073 C2077 1.495 . S
C2074 C2073 1.392 . S
C2074 C2075 1.385 . S
C2074 C2076 1.478 . S
C2075 H2069 0.930 . S
C2075 C2071 1.400 . S
C2075 C2074 1.385 . S
C2076 C2074 1.478 . S
C2076 C2078 1.381 . S
C2076 C2082 1.383 . S
C2077 C2073 1.495 . S
C2077 H2083 0.959 . S
C2077 H2084 0.961 . S
C2077 H2085 0.960 . S
C2078 C2076 1.381 . S
C2078 C2079 1.394 . S
C2078 H2086 0.930 . S
C2079 C2078 1.394 . S
C2079 C2080 1.383 . S
C2079 H2087 0.929 . S
C2080 C2079 1.383 . S
C2080 C2081 1.377 . S
C2081 H2065 0.930 . S
C2081 C2080 1.377 . S
C2081 C2082 1.379 . S
C2082 H2066 0.931 . S
C2082 C2076 1.383 . S
C2082 C2081 1.379 . S
H2083 C2077 0.959 . S
H2084 C2077 0.961 . S
H2085 C2077 0.960 . S
H2086 C2078 0.930 . S
H2087 C2079 0.929 . S
H2088 C2096 0.929 . S
H2089 C2098 0.930 . S
H2090 C2100 0.930 . S
H2091 C2103 0.929 . S
H2092 C2106 0.930 . S
H2093 C2108 0.960 . S
H2094 C2108 0.960 . S
H2095 C2108 0.960 . S
C2096 H2088 0.929 . S
C2096 C2097 1.377 . S
C2096 C2098 1.384 . S
C2097 C2096 1.377 . S
C2097 C2103 1.390 . S
C2098 H2089 0.930 . S
C2098 C2096 1.384 . S
C2098 C2099 1.372 . S
C2099 C2098 1.372 . S
C2099 C2100 1.400 . S
C2099 C2104 1.490 . S
C2100 H2090 0.930 . S
C2100 C2099 1.400 . S
C2100 C2103 1.386 . S
H2101 C2117 0.930 . S
H2102 C2118 0.931 . S
C2103 H2091 0.929 . S
C2103 C2097 1.390 . S
C2103 C2100 1.386 . S
C2104 C2099 1.490 . S
C2104 C2106 1.395 . S
C2104 C2107 1.403 . S
H2105 C2111 0.930 . S
C2106 H2092 0.930 . S
C2106 C2104 1.395 . S
C2106 C2109 1.403 . S
C2107 C2104 1.403 . S
C2107 C2108 1.524 . S
C2107 C2111 1.400 . S
C2108 H2093 0.960 . S
C2108 H2094 0.960 . S
C2108 H2095 0.960 . S
C2108 C2107 1.524 . S
C2109 C2106 1.403 . S
C2109 C2110 1.392 . S
C2109 C2113 1.495 . S
C2110 C2109 1.392 . S
C2110 C2111 1.385 . S
C2110 C2112 1.478 . S
C2111 H2105 0.930 . S
C2111 C2107 1.400 . S
C2111 C2110 1.385 . S
C2112 C2110 1.478 . S
C2112 C2114 1.381 . S
C2112 C2118 1.383 . S
C2113 C2109 1.495 . S
C2113 H2119 0.959 . S
C2113 H2120 0.961 . S
C2113 H2121 0.960 . S
C2114 C2112 1.381 . S
C2114 C2115 1.394 . S
C2114 H2122 0.930 . S
C2115 C2114 1.394 . S
C2115 C2116 1.383 . S
C2115 H2123 0.929 . S
C2116 C2115 1.383 . S
C2116 C2117 1.377 . S
C2117 H2101 0.930 . S
C2117 C2116 1.377 . S
C2117 C2118 1.379 . S
C2118 H2102 0.931 . S
C2118 C2112 1.383 . S
C2118 C2117 1.379 . S
H2119 C2113 0.959 . S
H2120 C2113 0.961 . S
H2121 C2113 0.960 . S
H2122 C2114 0.930 . S
H2123 C2115 0.929 . S
H2124 C2132 0.929 . S
H2125 C2134 0.930 . S
H2126 C2136 0.930 . S
H2127 C2139 0.929 . S
H2128 C2142 0.930 . S
H2129 C2144 0.960 . S
H2130 C2144 0.960 . S
H2131 C2144 0.960 . S
C2132 H2124 0.929 . S
C2132 C2133 1.377 . S
C2132 C2134 1.384 . S
C2133 C2132 1.377 . S
C2133 C2139 1.390 . S
C2134 H2125 0.930 . S
C2134 C2132 1.384 . S
C2134 C2135 1.372 . S
C2135 C2134 1.372 . S
C2135 C2136 1.400 . S
C2135 C2140 1.490 . S
C2136 H2126 0.930 . S
C2136 C2135 1.400 . S
C2136 C2139 1.386 . S
H2137 C2153 0.930 . S
H2138 C2154 0.931 . S
C2139 H2127 0.929 . S
C2139 C2133 1.390 . S
C2139 C2136 1.386 . S
C2140 C2135 1.490 . S
C2140 C2142 1.395 . S
C2140 C2143 1.403 . S
H2141 C2147 0.930 . S
C2142 H2128 0.930 . S
C2142 C2140 1.395 . S
C2142 C2145 1.403 . S
C2143 C2140 1.403 . S
C2143 C2144 1.524 . S
C2143 C2147 1.400 . S
C2144 H2129 0.960 . S
C2144 H2130 0.960 . S
C2144 H2131 0.960 . S
C2144 C2143 1.524 . S
C2145 C2142 1.403 . S
C2145 C2146 1.392 . S
C2145 C2149 1.495 . S
C2146 C2145 1.392 . S
C2146 C2147 1.385 . S
C2146 C2148 1.478 . S
C2147 H2141 0.930 . S
C2147 C2143 1.400 . S
C2147 C2146 1.385 . S
C2148 C2146 1.478 . S
C2148 C2150 1.381 . S
C2148 C2154 1.383 . S
C2149 C2145 1.495 . S
C2149 H2155 0.959 . S
C2149 H2156 0.961 . S
C2149 H2157 0.960 . S
C2150 C2148 1.381 . S
C2150 C2151 1.394 . S
C2150 H2158 0.930 . S
C2151 C2150 1.394 . S
C2151 C2152 1.383 . S
C2151 H2159 0.929 . S
C2152 C2151 1.383 . S
C2152 C2153 1.377 . S
C2153 H2137 0.930 . S
C2153 C2152 1.377 . S
C2153 C2154 1.379 . S
C2154 H2138 0.931 . S
C2154 C2148 1.383 . S
C2154 C2153 1.379 . S
H2155 C2149 0.959 . S
H2156 C2149 0.961 . S
H2157 C2149 0.960 . S
H2158 C2150 0.930 . S
H2159 C2151 0.929 . S
H2160 C2168 0.929 . S
H2161 C2170 0.930 . S
H2162 C2172 0.930 . S
H2163 C2175 0.929 . S
H2164 C2178 0.930 . S
H2165 C2180 0.960 . S
H2166 C2180 0.960 . S
H2167 C2180 0.960 . S
C2168 H2160 0.929 . S
C2168 C2169 1.377 . S
C2168 C2170 1.384 . S
C2169 C2168 1.377 . S
C2169 C2175 1.390 . S
C2170 H2161 0.930 . S
C2170 C2168 1.384 . S
C2170 C2171 1.372 . S
C2171 C2170 1.372 . S
C2171 C2172 1.400 . S
C2171 C2176 1.490 . S
C2172 H2162 0.930 . S
C2172 C2171 1.400 . S
C2172 C2175 1.386 . S
H2173 C2189 0.930 . S
H2174 C2190 0.931 . S
C2175 H2163 0.929 . S
C2175 C2169 1.390 . S
C2175 C2172 1.386 . S
C2176 C2171 1.490 . S
C2176 C2178 1.395 . S
C2176 C2179 1.403 . S
H2177 C2183 0.930 . S
C2178 H2164 0.930 . S
C2178 C2176 1.395 . S
C2178 C2181 1.403 . S
C2179 C2176 1.403 . S
C2179 C2180 1.524 . S
C2179 C2183 1.400 . S
C2180 H2165 0.960 . S
C2180 H2166 0.960 . S
C2180 H2167 0.960 . S
C2180 C2179 1.524 . S
C2181 C2178 1.403 . S
C2181 C2182 1.392 . S
C2181 C2185 1.495 . S
C2182 C2181 1.392 . S
C2182 C2183 1.385 . S
C2182 C2184 1.478 . S
C2183 H2177 0.930 . S
C2183 C2179 1.400 . S
C2183 C2182 1.385 . S
C2184 C2182 1.478 . S
C2184 C2186 1.381 . S
C2184 C2190 1.383 . S
C2185 C2181 1.495 . S
C2185 H2191 0.959 . S
C2185 H2192 0.961 . S
C2185 H2193 0.960 . S
C2186 C2184 1.381 . S
C2186 C2187 1.394 . S
C2186 H2194 0.930 . S
C2187 C2186 1.394 . S
C2187 C2188 1.383 . S
C2187 H2195 0.929 . S
C2188 C2187 1.383 . S
C2188 C2189 1.377 . S
C2189 H2173 0.930 . S
C2189 C2188 1.377 . S
C2189 C2190 1.379 . S
C2190 H2174 0.931 . S
C2190 C2184 1.383 . S
C2190 C2189 1.379 . S
H2191 C2185 0.959 . S
H2192 C2185 0.961 . S
H2193 C2185 0.960 . S
H2194 C2186 0.930 . S
H2195 C2187 0.929 . S
H2196 C2204 0.929 . S
H2197 C2206 0.930 . S
H2198 C2208 0.930 . S
H2199 C2211 0.929 . S
H2200 C2214 0.930 . S
H2201 C2216 0.960 . S
H2202 C2216 0.960 . S
H2203 C2216 0.960 . S
C2204 H2196 0.929 . S
C2204 C2205 1.377 . S
C2204 C2206 1.384 . S
C2205 C2204 1.377 . S
C2205 C2211 1.390 . S
C2206 H2197 0.930 . S
C2206 C2204 1.384 . S
C2206 C2207 1.372 . S
C2207 C2206 1.372 . S
C2207 C2208 1.400 . S
C2207 C2212 1.490 . S
C2208 H2198 0.930 . S
C2208 C2207 1.400 . S
C2208 C2211 1.386 . S
H2209 C2225 0.930 . S
H2210 C2226 0.931 . S
C2211 H2199 0.929 . S
C2211 C2205 1.390 . S
C2211 C2208 1.386 . S
C2212 C2207 1.490 . S
C2212 C2214 1.395 . S
C2212 C2215 1.403 . S
H2213 C2219 0.930 . S
C2214 H2200 0.930 . S
C2214 C2212 1.395 . S
C2214 C2217 1.403 . S
C2215 C2212 1.403 . S
C2215 C2216 1.524 . S
C2215 C2219 1.400 . S
C2216 H2201 0.960 . S
C2216 H2202 0.960 . S
C2216 H2203 0.960 . S
C2216 C2215 1.524 . S
C2217 C2214 1.403 . S
C2217 C2218 1.392 . S
C2217 C2221 1.495 . S
C2218 C2217 1.392 . S
C2218 C2219 1.385 . S
C2218 C2220 1.478 . S
C2219 H2213 0.930 . S
C2219 C2215 1.400 . S
C2219 C2218 1.385 . S
C2220 C2218 1.478 . S
C2220 C2222 1.381 . S
C2220 C2226 1.383 . S
C2221 C2217 1.495 . S
C2221 H2227 0.959 . S
C2221 H2228 0.961 . S
C2221 H2229 0.960 . S
C2222 C2220 1.381 . S
C2222 C2223 1.394 . S
C2222 H2230 0.930 . S
C2223 C2222 1.394 . S
C2223 C2224 1.383 . S
C2223 H2231 0.929 . S
C2224 C2223 1.383 . S
C2224 C2225 1.377 . S
C2225 H2209 0.930 . S
C2225 C2224 1.377 . S
C2225 C2226 1.379 . S
C2226 H2210 0.931 . S
C2226 C2220 1.383 . S
C2226 C2225 1.379 . S
H2227 C2221 0.959 . S
H2228 C2221 0.961 . S
H2229 C2221 0.960 . S
H2230 C2222 0.930 . S
H2231 C2223 0.929 . S
H2232 C2240 0.929 . S
H2233 C2242 0.930 . S
H2234 C2244 0.930 . S
H2235 C2247 0.929 . S
H2236 C2250 0.930 . S
H2237 C2252 0.960 . S
H2238 C2252 0.960 . S
H2239 C2252 0.960 . S
C2240 H2232 0.929 . S
C2240 C2241 1.377 . S
C2240 C2242 1.384 . S
C2241 C2240 1.377 . S
C2241 C2247 1.390 . S
C2242 H2233 0.930 . S
C2242 C2240 1.384 . S
C2242 C2243 1.372 . S
C2243 C2242 1.372 . S
C2243 C2244 1.400 . S
C2243 C2248 1.490 . S
C2244 H2234 0.930 . S
C2244 C2243 1.400 . S
C2244 C2247 1.386 . S
H2245 C2261 0.930 . S
H2246 C2262 0.931 . S
C2247 H2235 0.929 . S
C2247 C2241 1.390 . S
C2247 C2244 1.386 . S
C2248 C2243 1.490 . S
C2248 C2250 1.395 . S
C2248 C2251 1.403 . S
H2249 C2255 0.930 . S
C2250 H2236 0.930 . S
C2250 C2248 1.395 . S
C2250 C2253 1.403 . S
C2251 C2248 1.403 . S
C2251 C2252 1.524 . S
C2251 C2255 1.400 . S
C2252 H2237 0.960 . S
C2252 H2238 0.960 . S
C2252 H2239 0.960 . S
C2252 C2251 1.524 . S
C2253 C2250 1.403 . S
C2253 C2254 1.392 . S
C2253 C2257 1.495 . S
C2254 C2253 1.392 . S
C2254 C2255 1.385 . S
C2254 C2256 1.478 . S
C2255 H2249 0.930 . S
C2255 C2251 1.400 . S
C2255 C2254 1.385 . S
C2256 C2254 1.478 . S
C2256 C2258 1.381 . S
C2256 C2262 1.383 . S
C2257 C2253 1.495 . S
C2257 H2263 0.959 . S
C2257 H2264 0.961 . S
C2257 H2265 0.960 . S
C2258 C2256 1.381 . S
C2258 C2259 1.394 . S
C2258 H2266 0.930 . S
C2259 C2258 1.394 . S
C2259 C2260 1.383 . S
C2259 H2267 0.929 . S
C2260 C2259 1.383 . S
C2260 C2261 1.377 . S
C2261 H2245 0.930 . S
C2261 C2260 1.377 . S
C2261 C2262 1.379 . S
C2262 H2246 0.931 . S
C2262 C2256 1.383 . S
C2262 C2261 1.379 . S
H2263 C2257 0.959 . S
H2264 C2257 0.961 . S
H2265 C2257 0.960 . S
H2266 C2258 0.930 . S
H2267 C2259 0.929 . S
H2268 C2276 0.929 . S
H2269 C2278 0.930 . S
H2270 C2280 0.930 . S
H2271 C2283 0.929 . S
H2272 C2286 0.930 . S
H2273 C2288 0.960 . S
H2274 C2288 0.960 . S
H2275 C2288 0.960 . S
C2276 H2268 0.929 . S
C2276 C2277 1.377 . S
C2276 C2278 1.384 . S
C2277 C2276 1.377 . S
C2277 C2283 1.390 . S
C2278 H2269 0.930 . S
C2278 C2276 1.384 . S
C2278 C2279 1.372 . S
C2279 C2278 1.372 . S
C2279 C2280 1.400 . S
C2279 C2284 1.490 . S
C2280 H2270 0.930 . S
C2280 C2279 1.400 . S
C2280 C2283 1.386 . S
H2281 C2297 0.930 . S
H2282 C2298 0.931 . S
C2283 H2271 0.929 . S
C2283 C2277 1.390 . S
C2283 C2280 1.386 . S
C2284 C2279 1.490 . S
C2284 C2286 1.395 . S
C2284 C2287 1.403 . S
H2285 C2291 0.930 . S
C2286 H2272 0.930 . S
C2286 C2284 1.395 . S
C2286 C2289 1.403 . S
C2287 C2284 1.403 . S
C2287 C2288 1.524 . S
C2287 C2291 1.400 . S
C2288 H2273 0.960 . S
C2288 H2274 0.960 . S
C2288 H2275 0.960 . S
C2288 C2287 1.524 . S
C2289 C2286 1.403 . S
C2289 C2290 1.392 . S
C2289 C2293 1.495 . S
C2290 C2289 1.392 . S
C2290 C2291 1.385 . S
C2290 C2292 1.478 . S
C2291 H2285 0.930 . S
C2291 C2287 1.400 . S
C2291 C2290 1.385 . S
C2292 C2290 1.478 . S
C2292 C2294 1.381 . S
C2292 C2298 1.383 . S
C2293 C2289 1.495 . S
C2293 H2299 0.959 . S
C2293 H2300 0.961 . S
C2293 H2301 0.960 . S
C2294 C2292 1.381 . S
C2294 C2295 1.394 . S
C2294 H2302 0.930 . S
C2295 C2294 1.394 . S
C2295 C2296 1.383 . S
C2295 H2303 0.929 . S
C2296 C2295 1.383 . S
C2296 C2297 1.377 . S
C2297 H2281 0.930 . S
C2297 C2296 1.377 . S
C2297 C2298 1.379 . S
C2298 H2282 0.931 . S
C2298 C2292 1.383 . S
C2298 C2297 1.379 . S
H2299 C2293 0.959 . S
H2300 C2293 0.961 . S
H2301 C2293 0.960 . S
H2302 C2294 0.930 . S
H2303 C2295 0.929 . S
H2304 C2312 0.929 . S
H2305 C2314 0.930 . S
H2306 C2316 0.930 . S
H2307 C2319 0.929 . S
H2308 C2322 0.930 . S
H2309 C2324 0.960 . S
H2310 C2324 0.960 . S
H2311 C2324 0.960 . S
C2312 H2304 0.929 . S
C2312 C2313 1.377 . S
C2312 C2314 1.384 . S
C2313 C2312 1.377 . S
C2313 C2319 1.390 . S
C2314 H2305 0.930 . S
C2314 C2312 1.384 . S
C2314 C2315 1.372 . S
C2315 C2314 1.372 . S
C2315 C2316 1.400 . S
C2315 C2320 1.490 . S
C2316 H2306 0.930 . S
C2316 C2315 1.400 . S
C2316 C2319 1.386 . S
H2317 C2333 0.930 . S
H2318 C2334 0.931 . S
C2319 H2307 0.929 . S
C2319 C2313 1.390 . S
C2319 C2316 1.386 . S
C2320 C2315 1.490 . S
C2320 C2322 1.395 . S
C2320 C2323 1.403 . S
H2321 C2327 0.930 . S
C2322 H2308 0.930 . S
C2322 C2320 1.395 . S
C2322 C2325 1.403 . S
C2323 C2320 1.403 . S
C2323 C2324 1.524 . S
C2323 C2327 1.400 . S
C2324 H2309 0.960 . S
C2324 H2310 0.960 . S
C2324 H2311 0.960 . S
C2324 C2323 1.524 . S
C2325 C2322 1.403 . S
C2325 C2326 1.392 . S
C2325 C2329 1.495 . S
C2326 C2325 1.392 . S
C2326 C2327 1.385 . S
C2326 C2328 1.478 . S
C2327 H2321 0.930 . S
C2327 C2323 1.400 . S
C2327 C2326 1.385 . S
C2328 C2326 1.478 . S
C2328 C2330 1.381 . S
C2328 C2334 1.383 . S
C2329 C2325 1.495 . S
C2329 H2335 0.959 . S
C2329 H2336 0.961 . S
C2329 H2337 0.960 . S
C2330 C2328 1.381 . S
C2330 C2331 1.394 . S
C2330 H2338 0.930 . S
C2331 C2330 1.394 . S
C2331 C2332 1.383 . S
C2331 H2339 0.929 . S
C2332 C2331 1.383 . S
C2332 C2333 1.377 . S
C2333 H2317 0.930 . S
C2333 C2332 1.377 . S
C2333 C2334 1.379 . S
C2334 H2318 0.931 . S
C2334 C2328 1.383 . S
C2334 C2333 1.379 . S
H2335 C2329 0.959 . S
H2336 C2329 0.961 . S
H2337 C2329 0.960 . S
H2338 C2330 0.930 . S
H2339 C2331 0.929 . S
H2340 C2348 0.929 . S
H2341 C2350 0.930 . S
H2342 C2352 0.930 . S
H2343 C2355 0.929 . S
H2344 C2358 0.930 . S
H2345 C2360 0.960 . S
H2346 C2360 0.960 . S
H2347 C2360 0.960 . S
C2348 H2340 0.929 . S
C2348 C2349 1.377 . S
C2348 C2350 1.384 . S
C2349 C2348 1.377 . S
C2349 C2355 1.390 . S
C2350 H2341 0.930 . S
C2350 C2348 1.384 . S
C2350 C2351 1.372 . S
C2351 C2350 1.372 . S
C2351 C2352 1.400 . S
C2351 C2356 1.490 . S
C2352 H2342 0.930 . S
C2352 C2351 1.400 . S
C2352 C2355 1.386 . S
H2353 C2369 0.930 1_455 S
H2354 C2370 0.931 . S
C2355 H2343 0.929 . S
C2355 C2349 1.390 . S
C2355 C2352 1.386 . S
C2356 C2351 1.490 . S
C2356 C2358 1.395 . S
C2356 C2359 1.403 . S
H2357 C2363 0.930 . S
C2358 H2344 0.930 . S
C2358 C2356 1.395 . S
C2358 C2361 1.403 . S
C2359 C2356 1.403 . S
C2359 C2360 1.524 . S
C2359 C2363 1.400 . S
C2360 H2345 0.960 . S
C2360 H2346 0.960 . S
C2360 H2347 0.960 . S
C2360 C2359 1.524 . S
C2361 C2358 1.403 . S
C2361 C2362 1.392 . S
C2361 C2365 1.495 . S
C2362 C2361 1.392 . S
C2362 C2363 1.385 . S
C2362 C2364 1.478 . S
C2363 H2357 0.930 . S
C2363 C2359 1.400 . S
C2363 C2362 1.385 . S
C2364 C2362 1.478 . S
C2364 C2366 1.381 . S
C2364 C2370 1.383 . S
C2365 C2361 1.495 . S
C2365 H2371 0.959 . S
C2365 H2372 0.961 . S
C2365 H2373 0.960 . S
C2366 C2364 1.381 . S
C2366 C2367 1.394 . S
C2366 H2374 0.930 . S
C2367 C2366 1.394 . S
C2367 C2368 1.383 1_655 S
C2367 H2375 0.929 1_655 S
C2368 C2367 1.383 1_455 S
C2368 C2369 1.377 1_455 S
C2369 H2353 0.930 1_655 S
C2369 C2368 1.377 1_655 S
C2369 C2370 1.379 . S
C2370 H2354 0.931 . S
C2370 C2364 1.383 . S
C2370 C2369 1.379 . S
H2371 C2365 0.959 . S
H2372 C2365 0.961 . S
H2373 C2365 0.960 . S
H2374 C2366 0.930 . S
H2375 C2367 0.929 1_455 S
H2376 C2384 0.929 . S
H2377 C2386 0.912 1_545 S
H2378 C2388 0.930 . S
H2379 C2391 0.929 . S
H2380 C2394 0.930 . S
H2381 C2396 0.960 . S
H2382 C2396 0.960 . S
H2383 C2396 0.960 . S
C2384 H2376 0.929 . S
C2384 C2385 1.377 . S
C2384 C2386 1.413 . S
C2385 C2384 1.377 . S
C2385 C2391 1.390 . S
C2386 H2377 0.912 1_565 S
C2386 C2384 1.413 . S
C2386 C2387 1.360 1_565 S
C2387 C2386 1.360 1_545 S
C2387 C2388 1.400 1_545 S
C2387 C2392 1.490 . S
C2388 H2378 0.930 . S
C2388 C2387 1.400 1_565 S
C2388 C2391 1.386 . S
H2389 C2405 0.930 . S
H2390 C2406 0.931 . S
C2391 H2379 0.929 . S
C2391 C2385 1.390 . S
C2391 C2388 1.386 . S
C2392 C2387 1.490 . S
C2392 C2394 1.395 . S
C2392 C2395 1.403 . S
H2393 C2399 0.930 . S
C2394 H2380 0.930 . S
C2394 C2392 1.395 . S
C2394 C2397 1.403 . S
C2395 C2392 1.403 . S
C2395 C2396 1.524 1_545 S
C2395 C2399 1.400 . S
C2396 H2381 0.960 . S
C2396 H2382 0.960 . S
C2396 H2383 0.960 . S
C2396 C2395 1.524 1_565 S
C2397 C2394 1.403 . S
C2397 C2398 1.392 . S
C2397 C2401 1.495 . S
C2398 C2397 1.392 . S
C2398 C2399 1.385 . S
C2398 C2400 1.478 . S
C2399 H2393 0.930 . S
C2399 C2395 1.400 . S
C2399 C2398 1.385 . S
C2400 C2398 1.478 . S
C2400 C2402 1.381 . S
C2400 C2406 1.383 . S
C2401 C2397 1.495 . S
C2401 H2407 0.959 . S
C2401 H2408 0.961 . S
C2401 H2409 0.960 . S
C2402 C2400 1.381 . S
C2402 C2403 1.394 . S
C2402 H2410 0.930 . S
C2403 C2402 1.394 . S
C2403 C2404 1.383 . S
C2403 H2411 0.929 . S
C2404 C2403 1.383 . S
C2404 C2405 1.377 . S
C2405 H2389 0.930 . S
C2405 C2404 1.377 . S
C2405 C2406 1.379 . S
C2406 H2390 0.931 . S
C2406 C2400 1.383 . S
C2406 C2405 1.379 . S
H2407 C2401 0.959 . S
H2408 C2401 0.961 . S
H2409 C2401 0.960 . S
H2410 C2402 0.930 . S
H2411 C2403 0.929 . S
H2412 C2420 0.929 . S
H2413 C2422 0.930 . S
H2414 C2424 0.930 . S
H2415 C2427 0.929 . S
H2416 C2430 0.930 . S
H2417 C2432 0.960 . S
H2418 C2432 0.960 . S
H2419 C2432 0.960 . S
C2420 H2412 0.929 . S
C2420 C2421 1.377 . S
C2420 C2422 1.384 . S
C2421 C2420 1.377 . S
C2421 C2427 1.390 . S
C2422 H2413 0.930 . S
C2422 C2420 1.384 . S
C2422 C2423 1.372 . S
C2423 C2422 1.372 . S
C2423 C2424 1.400 . S
C2423 C2428 1.490 . S
C2424 H2414 0.930 . S
C2424 C2423 1.400 . S
C2424 C2427 1.386 . S
H2425 C2441 0.930 . S
H2426 C2442 0.931 . S
C2427 H2415 0.929 . S
C2427 C2421 1.390 . S
C2427 C2424 1.386 . S
C2428 C2423 1.490 . S
C2428 C2430 1.395 . S
C2428 C2431 1.403 . S
H2429 C2435 0.930 . S
C2430 H2416 0.930 . S
C2430 C2428 1.395 . S
C2430 C2433 1.403 1_655 S
C2431 C2428 1.403 . S
C2431 C2432 1.524 . S
C2431 C2435 1.400 . S
C2432 H2417 0.960 . S
C2432 H2418 0.960 . S
C2432 H2419 0.960 . S
C2432 C2431 1.524 . S
C2433 C2430 1.403 1_455 S
C2433 C2434 1.392 . S
C2433 C2437 1.495 . S
C2434 C2433 1.392 . S
C2434 C2435 1.385 1_455 S
C2434 C2436 1.478 . S
C2435 H2429 0.930 . S
C2435 C2431 1.400 . S
C2435 C2434 1.385 1_655 S
C2436 C2434 1.478 . S
C2436 C2438 1.381 . S
C2436 C2442 1.383 . S
C2437 C2433 1.495 . S
C2437 H2443 0.959 . S
C2437 H2444 0.961 . S
C2437 H2445 0.960 . S
C2438 C2436 1.381 . S
C2438 C2439 1.394 . S
C2438 H2446 0.930 . S
C2439 C2438 1.394 . S
C2439 C2440 1.383 . S
C2439 H2447 0.929 . S
C2440 C2439 1.383 . S
C2440 C2441 1.377 . S
C2441 H2425 0.930 . S
C2441 C2440 1.377 . S
C2441 C2442 1.379 . S
C2442 H2426 0.931 . S
C2442 C2436 1.383 . S
C2442 C2441 1.379 . S
H2443 C2437 0.959 . S
H2444 C2437 0.961 . S
H2445 C2437 0.960 . S
H2446 C2438 0.930 . S
H2447 C2439 0.929 . S
H2448 C2456 0.929 . S
H2449 C2458 0.930 . S
H2450 C2460 0.930 . S
H2451 C2463 0.929 . S
H2452 C2466 0.930 . S
H2453 C2468 0.960 . S
H2454 C2468 0.960 . S
H2455 C2468 0.960 . S
C2456 H2448 0.929 . S
C2456 C2457 1.377 . S
C2456 C2458 1.384 . S
C2457 C2456 1.377 . S
C2457 C2463 1.390 . S
C2458 H2449 0.930 . S
C2458 C2456 1.384 . S
C2458 C2459 1.372 . S
C2459 C2458 1.372 . S
C2459 C2460 1.400 . S
C2459 C2464 1.490 . S
C2460 H2450 0.930 . S
C2460 C2459 1.400 . S
C2460 C2463 1.386 . S
H2461 C2477 0.930 . S
H2462 C2478 0.931 . S
C2463 H2451 0.929 . S
C2463 C2457 1.390 . S
C2463 C2460 1.386 . S
C2464 C2459 1.490 . S
C2464 C2466 1.395 . S
C2464 C2467 1.403 . S
H2465 C2471 0.930 . S
C2466 H2452 0.930 . S
C2466 C2464 1.395 . S
C2466 C2469 1.403 . S
C2467 C2464 1.403 . S
C2467 C2468 1.524 . S
C2467 C2471 1.400 . S
C2468 H2453 0.960 . S
C2468 H2454 0.960 . S
C2468 H2455 0.960 . S
C2468 C2467 1.524 . S
C2469 C2466 1.403 . S
C2469 C2470 1.392 . S
C2469 C2473 1.495 . S
C2470 C2469 1.392 . S
C2470 C2471 1.385 . S
C2470 C2472 1.478 . S
C2471 H2465 0.930 . S
C2471 C2467 1.400 . S
C2471 C2470 1.385 . S
C2472 C2470 1.478 . S
C2472 C2474 1.381 . S
C2472 C2478 1.383 . S
C2473 C2469 1.495 . S
C2473 H2479 0.959 . S
C2473 H2480 0.961 . S
C2473 H2481 0.960 . S
C2474 C2472 1.381 . S
C2474 C2475 1.394 . S
C2474 H2482 0.930 . S
C2475 C2474 1.394 . S
C2475 C2476 1.383 1_565 S
C2475 H2483 0.929 . S
C2476 C2475 1.383 1_545 S
C2476 C2477 1.377 . S
C2477 H2461 0.930 . S
C2477 C2476 1.377 . S
C2477 C2478 1.379 1_545 S
C2478 H2462 0.931 . S
C2478 C2472 1.383 . S
C2478 C2477 1.379 1_565 S
H2479 C2473 0.959 . S
H2480 C2473 0.961 . S
H2481 C2473 0.960 . S
H2482 C2474 0.930 . S
H2483 C2475 0.929 . S
H2484 C2492 0.929 . S
H2485 C2494 0.930 . S
H2486 C2496 0.930 . S
H2487 C2499 0.929 . S
H2488 C2502 0.930 . S
H2489 C2504 0.960 . S
H2490 C2504 0.960 . S
H2491 C2504 0.960 . S
C2492 H2484 0.929 . S
C2492 C2493 1.377 . S
C2492 C2494 1.384 . S
C2493 C2492 1.377 . S
C2493 C2499 1.390 . S
C2494 H2485 0.930 . S
C2494 C2492 1.384 . S
C2494 C2495 1.372 . S
C2495 C2494 1.372 . S
C2495 C2496 1.400 . S
C2495 C2500 1.490 . S
C2496 H2486 0.930 . S
C2496 C2495 1.400 . S
C2496 C2499 1.386 . S
H2497 C2513 0.930 . S
H2498 C2514 0.931 . S
C2499 H2487 0.929 . S
C2499 C2493 1.390 . S
C2499 C2496 1.386 . S
C2500 C2495 1.490 . S
C2500 C2502 1.395 . S
C2500 C2503 1.403 1_545 S
H2501 C2507 0.930 . S
C2502 H2488 0.930 . S
C2502 C2500 1.395 . S
C2502 C2505 1.403 1_545 S
C2503 C2500 1.403 1_565 S
C2503 C2504 1.524 . S
C2503 C2507 1.400 . S
C2504 H2489 0.960 . S
C2504 H2490 0.960 . S
C2504 H2491 0.960 . S
C2504 C2503 1.524 . S
C2505 C2502 1.403 1_565 S
C2505 C2506 1.392 . S
C2505 C2509 1.503 . S
C2506 C2505 1.392 . S
C2506 C2507 1.385 . S
C2506 C2508 1.478 . S
C2507 H2501 0.930 . S
C2507 C2503 1.400 . S
C2507 C2506 1.385 . S
C2508 C2506 1.478 . S
C2508 C2510 1.381 . S
C2508 C2514 1.383 . S
C2509 C2505 1.503 . S
C2509 H2515 0.949 1_565 S
C2509 H2516 0.963 . S
C2509 H2517 0.960 . S
C2510 C2508 1.381 . S
C2510 C2511 1.394 . S
C2510 H2518 0.930 . S
C2511 C2510 1.394 . S
C2511 C2512 1.383 . S
C2511 H2519 0.929 . S
C2512 C2511 1.383 . S
C2512 C2513 1.377 . S
C2513 H2497 0.930 . S
C2513 C2512 1.377 . S
C2513 C2514 1.379 . S
C2514 H2498 0.931 . S
C2514 C2508 1.383 . S
C2514 C2513 1.379 . S
H2515 C2509 0.949 1_545 S
H2516 C2509 0.963 . S
H2517 C2509 0.960 . S
H2518 C2510 0.930 . S
H2519 C2511 0.929 . S
H2520 C2528 0.929 . S
H2521 C2530 0.930 . S
H2522 C2532 0.930 . S
H2523 C2535 0.929 . S
H2524 C2538 0.930 . S
H2525 C2540 0.960 . S
H2526 C2540 0.960 . S
H2527 C2540 0.960 . S
C2528 H2520 0.929 . S
C2528 C2529 1.377 . S
C2528 C2530 1.384 . S
C2529 C2528 1.377 . S
C2529 C2535 1.390 . S
C2530 H2521 0.930 . S
C2530 C2528 1.384 . S
C2530 C2531 1.372 . S
C2531 C2530 1.372 . S
C2531 C2532 1.400 . S
C2531 C2536 1.490 . S
C2532 H2522 0.930 . S
C2532 C2531 1.400 . S
C2532 C2535 1.386 . S
H2533 C2549 0.930 . S
H2534 C2550 0.931 . S
C2535 H2523 0.929 . S
C2535 C2529 1.390 . S
C2535 C2532 1.386 . S
C2536 C2531 1.490 . S
C2536 C2538 1.395 . S
C2536 C2539 1.403 . S
H2537 C2543 0.930 . S
C2538 H2524 0.930 . S
C2538 C2536 1.395 . S
C2538 C2541 1.403 . S
C2539 C2536 1.403 . S
C2539 C2540 1.524 . S
C2539 C2543 1.400 . S
C2540 H2525 0.960 . S
C2540 H2526 0.960 . S
C2540 H2527 0.960 . S
C2540 C2539 1.524 . S
C2541 C2538 1.403 . S
C2541 C2542 1.392 . S
C2541 C2545 1.495 . S
C2542 C2541 1.392 . S
C2542 C2543 1.385 . S
C2542 C2544 1.478 . S
C2543 H2537 0.930 . S
C2543 C2539 1.400 . S
C2543 C2542 1.385 . S
C2544 C2542 1.478 . S
C2544 C2546 1.381 . S
C2544 C2550 1.383 1_455 S
C2545 C2541 1.495 . S
C2545 H2551 0.959 . S
C2545 H2552 0.961 . S
C2545 H2553 0.960 . S
C2546 C2544 1.381 . S
C2546 C2547 1.394 1_455 S
C2546 H2554 0.930 . S
C2547 C2546 1.394 1_655 S
C2547 C2548 1.383 . S
C2547 H2555 0.929 . S
C2548 C2547 1.383 . S
C2548 C2549 1.377 . S
C2549 H2533 0.930 . S
C2549 C2548 1.377 . S
C2549 C2550 1.379 . S
C2550 H2534 0.931 . S
C2550 C2544 1.383 1_655 S
C2550 C2549 1.379 . S
H2551 C2545 0.959 . S
H2552 C2545 0.961 . S
H2553 C2545 0.960 . S
H2554 C2546 0.930 . S
H2555 C2547 0.929 . S
H2556 C2564 0.929 . S
H2557 C2566 0.930 . S
H2558 C2568 0.930 . S
H2559 C2571 0.929 . S
H2560 C2574 0.930 . S
H2561 C2576 0.960 . S
H2562 C2576 0.960 . S
H2563 C2576 0.960 . S
C2564 H2556 0.929 . S
C2564 C2565 1.377 . S
C2564 C2566 1.384 . S
C2565 C2564 1.377 . S
C2565 C2571 1.390 . S
C2566 H2557 0.930 . S
C2566 C2564 1.384 . S
C2566 C2567 1.372 . S
C2567 C2566 1.372 . S
C2567 C2568 1.400 . S
C2567 C2572 1.490 . S
C2568 H2558 0.930 . S
C2568 C2567 1.400 . S
C2568 C2571 1.386 . S
H2569 C2585 0.930 . S
H2570 C2586 0.931 . S
C2571 H2559 0.929 . S
C2571 C2565 1.390 . S
C2571 C2568 1.386 . S
C2572 C2567 1.490 . S
C2572 C2574 1.395 . S
C2572 C2575 1.403 . S
H2573 C2579 0.930 . S
C2574 H2560 0.930 . S
C2574 C2572 1.395 . S
C2574 C2577 1.403 . S
C2575 C2572 1.403 . S
C2575 C2576 1.524 . S
C2575 C2579 1.400 . S
C2576 H2561 0.960 . S
C2576 H2562 0.960 . S
C2576 H2563 0.960 . S
C2576 C2575 1.524 . S
C2577 C2574 1.403 . S
C2577 C2578 1.392 . S
C2577 C2581 1.495 . S
C2578 C2577 1.392 . S
C2578 C2579 1.385 . S
C2578 C2580 1.478 . S
C2579 H2573 0.930 . S
C2579 C2575 1.400 . S
C2579 C2578 1.385 . S
C2580 C2578 1.478 . S
C2580 C2582 1.381 . S
C2580 C2586 1.383 . S
C2581 C2577 1.495 . S
C2581 H2587 0.959 . S
C2581 H2588 0.961 . S
C2581 H2589 0.960 . S
C2582 C2580 1.381 . S
C2582 C2583 1.394 . S
C2582 H2590 0.930 . S
C2583 C2582 1.394 . S
C2583 C2584 1.383 . S
C2583 H2591 0.929 . S
C2584 C2583 1.383 . S
C2584 C2585 1.377 . S
C2585 H2569 0.930 . S
C2585 C2584 1.377 . S
C2585 C2586 1.379 . S
C2586 H2570 0.931 . S
C2586 C2580 1.383 . S
C2586 C2585 1.379 . S
H2587 C2581 0.959 . S
H2588 C2581 0.961 . S
H2589 C2581 0.960 . S
H2590 C2582 0.930 . S
H2591 C2583 0.929 . S
H2592 C2600 0.929 . S
H2593 C2602 0.930 . S
H2594 C2604 0.930 . S
H2595 C2607 0.929 . S
H2596 C2610 0.930 . S
H2597 C2612 0.960 . S
H2598 C2612 0.960 . S
H2599 C2612 0.960 . S
C2600 H2592 0.929 . S
C2600 C2601 1.377 . S
C2600 C2602 1.384 . S
C2601 C2600 1.377 . S
C2601 C2607 1.390 . S
C2602 H2593 0.930 . S
C2602 C2600 1.384 . S
C2602 C2603 1.372 . S
C2603 C2602 1.372 . S
C2603 C2604 1.400 . S
C2603 C2608 1.490 . S
C2604 H2594 0.930 . S
C2604 C2603 1.400 . S
C2604 C2607 1.386 . S
H2605 C2621 0.930 . S
H2606 C2622 0.931 . S
C2607 H2595 0.929 . S
C2607 C2601 1.390 . S
C2607 C2604 1.386 . S
C2608 C2603 1.490 . S
C2608 C2610 1.395 . S
C2608 C2611 1.403 . S
H2609 C2615 0.930 . S
C2610 H2596 0.930 . S
C2610 C2608 1.395 . S
C2610 C2613 1.403 . S
C2611 C2608 1.403 . S
C2611 C2612 1.524 . S
C2611 C2615 1.400 . S
C2612 H2597 0.960 . S
C2612 H2598 0.960 . S
C2612 H2599 0.960 . S
C2612 C2611 1.524 . S
C2613 C2610 1.403 . S
C2613 C2614 1.392 . S
C2613 C2617 1.495 . S
C2614 C2613 1.392 . S
C2614 C2615 1.385 . S
C2614 C2616 1.478 . S
C2615 H2609 0.930 . S
C2615 C2611 1.400 . S
C2615 C2614 1.385 . S
C2616 C2614 1.478 . S
C2616 C2618 1.381 . S
C2616 C2622 1.383 . S
C2617 C2613 1.495 . S
C2617 H2623 0.959 . S
C2617 H2624 0.961 . S
C2617 H2625 0.960 . S
C2618 C2616 1.381 . S
C2618 C2619 1.394 . S
C2618 H2626 0.930 . S
C2619 C2618 1.394 . S
C2619 C2620 1.383 . S
C2619 H2627 0.929 . S
C2620 C2619 1.383 . S
C2620 C2621 1.377 . S
C2621 H2605 0.930 . S
C2621 C2620 1.377 . S
C2621 C2622 1.379 . S
C2622 H2606 0.931 . S
C2622 C2616 1.383 . S
C2622 C2621 1.379 . S
H2623 C2617 0.959 . S
H2624 C2617 0.961 . S
H2625 C2617 0.960 . S
H2626 C2618 0.930 . S
H2627 C2619 0.929 . S
H2628 C2636 0.929 . S
H2629 C2638 0.930 . S
H2630 C2640 0.930 . S
H2631 C2643 0.929 . S
H2632 C2646 0.930 . S
H2633 C2648 0.960 . S
H2634 C2648 0.960 . S
H2635 C2648 0.960 . S
C2636 H2628 0.929 . S
C2636 C2637 1.377 . S
C2636 C2638 1.384 . S
C2637 C2636 1.377 . S
C2637 C2643 1.390 . S
C2638 H2629 0.930 . S
C2638 C2636 1.384 . S
C2638 C2639 1.372 . S
C2639 C2638 1.372 . S
C2639 C2640 1.400 . S
C2639 C2644 1.490 . S
C2640 H2630 0.930 . S
C2640 C2639 1.400 . S
C2640 C2643 1.386 . S
H2641 C2657 0.930 . S
H2642 C2658 0.931 . S
C2643 H2631 0.929 . S
C2643 C2637 1.390 . S
C2643 C2640 1.386 . S
C2644 C2639 1.490 . S
C2644 C2646 1.395 . S
C2644 C2647 1.403 . S
H2645 C2651 0.930 . S
C2646 H2632 0.930 . S
C2646 C2644 1.395 . S
C2646 C2649 1.403 . S
C2647 C2644 1.403 . S
C2647 C2648 1.524 . S
C2647 C2651 1.400 . S
C2648 H2633 0.960 . S
C2648 H2634 0.960 . S
C2648 H2635 0.960 . S
C2648 C2647 1.524 . S
C2649 C2646 1.403 . S
C2649 C2650 1.392 . S
C2649 C2653 1.495 . S
C2650 C2649 1.392 . S
C2650 C2651 1.385 . S
C2650 C2652 1.478 . S
C2651 H2645 0.930 . S
C2651 C2647 1.400 . S
C2651 C2650 1.385 . S
C2652 C2650 1.478 . S
C2652 C2654 1.381 . S
C2652 C2658 1.383 . S
C2653 C2649 1.495 . S
C2653 H2659 0.959 . S
C2653 H2660 0.961 . S
C2653 H2661 0.960 . S
C2654 C2652 1.381 . S
C2654 C2655 1.394 . S
C2654 H2662 0.930 . S
C2655 C2654 1.394 . S
C2655 C2656 1.383 . S
C2655 H2663 0.929 . S
C2656 C2655 1.383 . S
C2656 C2657 1.377 . S
C2657 H2641 0.930 . S
C2657 C2656 1.377 . S
C2657 C2658 1.379 . S
C2658 H2642 0.931 . S
C2658 C2652 1.383 . S
C2658 C2657 1.379 . S
H2659 C2653 0.959 . S
H2660 C2653 0.961 . S
H2661 C2653 0.960 . S
H2662 C2654 0.930 . S
H2663 C2655 0.929 . S
C729 C11 1.102 . S
C748 C96 1.129 . S
C765 C16 1.131 . S
C784 C51 1.133 . S
C801 C56 1.126 . S
C820 C91 1.074 . S
C837 C131 1.109 . S
C856 C176 1.137 . S
C873 C216 1.127 . S
C892 C171 1.074 . S
C909 C211 1.103 . S
C928 C136 1.119 . S
C945 C336 1.131 . S
C964 C251 1.115 . S
C981 C256 1.131 . S
C1000 C291 1.133 . S
C1017 C331 1.104 . S
C1036 C296 1.120 . S
C1053 C416 1.127 . S
C1072 C371 1.071 . S
C1089 C411 1.098 . S
C1108 C456 1.117 . S
C1125 C376 1.127 . S
C1144 C451 1.084 . S
C1161 C491 1.101 . S
C1180 C576 1.126 . S
C1197 C496 1.131 . S
C1216 C531 1.130 . S
C1233 C536 1.131 . S
C1252 C571 1.133 . S
C1269 C656 1.131 . S
C1288 C611 1.133 . S
C1305 C696 1.131 . S
C1324 C651 1.133 . S
C1341 C616 1.128 . S
C1360 C691 1.080 . S
C1377 C19 1.728 . S
C1396 C219 1.740 . S
C1413 C139 1.721 . S
C1432 C59 1.735 . S
C1449 C179 1.721 . S
C1468 C99 1.736 . S
C1485 C259 1.727 . S
C1504 C459 1.746 . S
C1521 C299 1.725 . S
C1540 C379 1.703 . S
C1557 C419 1.717 . S
C1576 C339 1.714 . S
C1593 C499 1.717 . S
C1612 C699 1.698 . S
C1629 C619 1.718 . S
C1648 C539 1.720 . S
C1665 C659 1.718 . S
C1684 C579 1.720 . S
C1701 C410 2.235 . S
C1720 C10 2.228 1_565 S
C1737 C50 2.233 . S
C1756 C450 2.231 . S
C1773 C370 2.233 . S
C1792 C90 2.229 . S
C1809 C130 2.235 1_655 S
C1828 C570 2.228 . S
C1845 C170 2.233 . S
C1864 C490 2.232 . S
C1881 C530 2.235 . S
C1900 C210 2.232 . S
C1917 C650 2.234 . S
C1936 C250 2.226 . S
C1953 C290 2.233 . S
C1972 C690 2.233 . S
C1989 C330 2.234 . S
C2008 C610 2.227 . S
C2025 C87 1.880 . S
C2044 C2 1.893 . S
C2061 C7 1.882 . S
C2080 C42 1.884 . S
C2097 C82 1.887 . S
C2116 C47 1.888 . S
C2133 C167 1.881 . S
C2152 C122 1.890 . S
C2169 C207 1.880 . S
C2188 C162 1.893 . S
C2205 C202 1.890 . S
C2224 C127 1.865 . S
C2241 C327 1.877 . S
C2260 C242 1.887 . S
C2277 C282 1.886 . S
C2296 C247 1.889 . S
C2313 C287 1.882 . S
C2332 C322 1.888 . S
C2349 C362 1.889 . S
C2368 C407 1.862 . S
C2385 C402 1.889 . S
C2404 C447 1.863 . S
C2421 C367 1.877 1_545 S
C2440 C442 1.885 . S
C2457 C482 1.888 . S
C2476 C567 1.885 . S
C2493 C522 1.885 . S
C2512 C487 1.888 1_455 S
C2529 C527 1.881 . S
C2548 C562 1.889 . S
C2565 C602 1.885 . S
C2584 C647 1.881 . S
C2601 C642 1.885 . S
C2620 C687 1.889 . S
C2637 C607 1.882 . S
C2656 C682 1.888 . S
