# Generated by pormake.
# Topology umo, (4)-cn, num edge types: 1
# Building blocks:
#     Node 0, Type 0, BuildingBlock: QUQFOY_clean_sbu_1, # of connection points: 4
#     Node 1, Type 0, BuildingBlock: QUQFOY_clean_sbu_1, # of connection points: 4
#     Node 2, Type 0, BuildingBlock: QUQFOY_clean_sbu_1, # of connection points: 4
#     Node 3, Type 0, BuildingBlock: QUQFOY_clean_sbu_1, # of connection points: 4
#     Node 4, Type 0, BuildingBlock: QUQFOY_clean_sbu_1, # of connection points: 4
#     Node 5, Type 0, BuildingBlock: QUQFOY_clean_sbu_1, # of connection points: 4
#     Node 6, Type 0, BuildingBlock: QUQFOY_clean_sbu_1, # of connection points: 4
#     Node 7, Type 0, BuildingBlock: QUQFOY_clean_sbu_1, # of connection points: 4
#     Node 8, Type 0, BuildingBlock: QUQFOY_clean_sbu_1, # of connection points: 4
#     Node 9, Type 0, BuildingBlock: QUQFOY_clean_sbu_1, # of connection points: 4
#     Node 10, Type 0, BuildingBlock: QUQFOY_clean_sbu_1, # of connection points: 4
#     Node 11, Type 0, BuildingBlock: QUQFOY_clean_sbu_1, # of connection points: 4
#     Edge 12, Type (0, 0), BuildingBlock: MIFKUJ_clean_linker_0, # of connection points: 2
#     Edge 13, Type (0, 0), BuildingBlock: MIFKUJ_clean_linker_0, # of connection points: 2
#     Edge 14, Type (0, 0), BuildingBlock: MIFKUJ_clean_linker_0, # of connection points: 2
#     Edge 15, Type (0, 0), BuildingBlock: MIFKUJ_clean_linker_0, # of connection points: 2
#     Edge 16, Type (0, 0), BuildingBlock: MIFKUJ_clean_linker_0, # of connection points: 2
#     Edge 17, Type (0, 0), BuildingBlock: MIFKUJ_clean_linker_0, # of connection points: 2
#     Edge 18, Type (0, 0), BuildingBlock: MIFKUJ_clean_linker_0, # of connection points: 2
#     Edge 19, Type (0, 0), BuildingBlock: MIFKUJ_clean_linker_0, # of connection points: 2
#     Edge 20, Type (0, 0), BuildingBlock: MIFKUJ_clean_linker_0, # of connection points: 2
#     Edge 21, Type (0, 0), BuildingBlock: MIFKUJ_clean_linker_0, # of connection points: 2
#     Edge 22, Type (0, 0), BuildingBlock: MIFKUJ_clean_linker_0, # of connection points: 2
#     Edge 23, Type (0, 0), BuildingBlock: MIFKUJ_clean_linker_0, # of connection points: 2
#     Edge 24, Type (0, 0), BuildingBlock: MIFKUJ_clean_linker_0, # of connection points: 2
#     Edge 25, Type (0, 0), BuildingBlock: MIFKUJ_clean_linker_0, # of connection points: 2
#     Edge 26, Type (0, 0), BuildingBlock: MIFKUJ_clean_linker_0, # of connection points: 2
#     Edge 27, Type (0, 0), BuildingBlock: MIFKUJ_clean_linker_0, # of connection points: 2
#     Edge 28, Type (0, 0), BuildingBlock: MIFKUJ_clean_linker_0, # of connection points: 2
#     Edge 29, Type (0, 0), BuildingBlock: MIFKUJ_clean_linker_0, # of connection points: 2
#     Edge 30, Type (0, 0), BuildingBlock: MIFKUJ_clean_linker_0, # of connection points: 2
#     Edge 31, Type (0, 0), BuildingBlock: MIFKUJ_clean_linker_0, # of connection points: 2
#     Edge 32, Type (0, 0), BuildingBlock: MIFKUJ_clean_linker_0, # of connection points: 2
#     Edge 33, Type (0, 0), BuildingBlock: MIFKUJ_clean_linker_0, # of connection points: 2
#     Edge 34, Type (0, 0), BuildingBlock: MIFKUJ_clean_linker_0, # of connection points: 2
#     Edge 35, Type (0, 0), BuildingBlock: MIFKUJ_clean_linker_0, # of connection points: 2
# Relax obj value: 0.084
# Max RMSD: 0.133
# Mean RMSD: 0.133
data_MOF--net-umo--node1-QUQFOY_clean_sbu_1--edge1-MIFKUJ_clean_linker_0
_symmetry_space_group_name_H-M    P1
_symmetry_Int_Tables_number       1
_symmetry_cell_setting            triclinic
loop_
_symmetry_equiv_pos_as_xyz
'x, y, z'
_cell_length_a     67.442878
_cell_length_b     67.456707
_cell_length_c     49.345223
_cell_angle_alpha  90.050559
_cell_angle_beta   89.976012
_cell_angle_gamma 119.96611
loop_
_atom_site_label
_atom_site_type_symbol
_atom_site_fract_x
_atom_site_fract_y
_atom_site_fract_z
_atom_type_partial_charge
O0 O 0.15636 0.5543 0.44117 0.0
Cd1 Cd 0.15443 0.56326 0.4019 0.0
Cd2 Cd 0.19489 0.56287 0.39816 0.0
O3 O 0.18806 0.55239 0.43831 0.0
O4 O 0.12309 0.55916 0.39974 0.0
O5 O 0.13396 0.53908 0.37479 0.0
C6 C 0.1181 0.54344 0.3819 0.0
C7 C 0.20857 0.54665 0.36626 0.0
C8 C 0.17155 0.5511 0.45224 0.0
C9 C 0.19676 0.60835 0.39292 0.0
O10 O 0.20755 0.5974 0.39368 0.0
O11 O 0.17504 0.59779 0.39434 0.0
O12 O 0.22082 0.55835 0.38659 0.0
O13 O 0.18793 0.54312 0.36464 0.0
O14 O 0.59545 0.15577 0.60022 0.0
Cd15 Cd 0.58911 0.15443 0.55938 0.0
Cd16 Cd 0.63234 0.19234 0.56166 0.0
O17 O 0.63133 0.18383 0.60249 0.0
O18 O 0.56064 0.12414 0.55623 0.0
O19 O 0.59266 0.13207 0.53527 0.0
C20 C 0.57166 0.1174 0.54107 0.0
C21 C 0.66334 0.20425 0.53173 0.0
C22 C 0.6132 0.16857 0.61409 0.0
C23 C 0.59223 0.19895 0.54762 0.0
O24 O 0.61329 0.20759 0.55344 0.0
O25 O 0.57916 0.17737 0.54691 0.0
O26 O 0.66429 0.21661 0.55218 0.0
O27 O 0.64542 0.18416 0.52949 0.0
O28 O 0.44021 0.59478 0.76742 0.0
Cd29 Cd 0.43416 0.58583 0.72721 0.0
Cd30 Cd 0.43522 0.62745 0.72461 0.0
O31 O 0.44229 0.62852 0.76577 0.0
O32 O 0.43798 0.5584 0.72496 0.0
O33 O 0.46038 0.59043 0.70294 0.0
C34 C 0.45524 0.56983 0.70923 0.0
C35 C 0.45331 0.65922 0.69555 0.0
C36 C 0.44257 0.61257 0.77925 0.0
C37 C 0.3903 0.5845 0.71332 0.0
O38 O 0.40133 0.60613 0.71574 0.0
O39 O 0.4004 0.57295 0.71587 0.0
O40 O 0.4403 0.6585 0.71511 0.0
O41 O 0.45721 0.64238 0.69334 0.0
O42 O 0.8475 0.44053 0.93533 0.0
Cd43 Cd 0.84707 0.43652 0.89398 0.0
Cd44 Cd 0.81306 0.44605 0.89921 0.0
O45 O 0.82482 0.45522 0.9389 0.0
O46 O 0.87643 0.43734 0.88589 0.0
O47 O 0.86851 0.46344 0.87076 0.0
C48 C 0.88282 0.45606 0.87273 0.0
C49 C 0.80291 0.46586 0.86828 0.0
C50 C 0.83788 0.44889 0.94985 0.0
C51 C 0.80072 0.39779 0.88463 0.0
O52 O 0.79424 0.41134 0.89343 0.0
O53 O 0.82182 0.40496 0.88041 0.0
O54 O 0.79125 0.45708 0.89011 0.0
O55 O 0.8216 0.46518 0.86516 0.0
O56 O 0.415 0.84203 0.09545 0.0
Cd57 Cd 0.41969 0.84474 0.05415 0.0
Cd58 Cd 0.37684 0.80739 0.05594 0.0
O59 O 0.37872 0.81488 0.09711 0.0
O60 O 0.44674 0.87583 0.04936 0.0
O61 O 0.41265 0.86594 0.03262 0.0
C62 C 0.43376 0.8815 0.03636 0.0
C63 C 0.34416 0.79527 0.02889 0.0
C64 C 0.39715 0.82911 0.1091 0.0
C65 C 0.41629 0.80108 0.03764 0.0
O66 O 0.39548 0.79225 0.04479 0.0
O67 O 0.42934 0.82266 0.03787 0.0
O68 O 0.34461 0.7829 0.04851 0.0
O69 O 0.36178 0.81543 0.02579 0.0
O70 O 0.57103 0.4158 0.26567 0.0
Cd71 Cd 0.57339 0.41924 0.22431 0.0
Cd72 Cd 0.5674 0.3769 0.22888 0.0
O73 O 0.55925 0.37897 0.26928 0.0
O74 O 0.57014 0.44658 0.21744 0.0
O75 O 0.54545 0.41215 0.20205 0.0
C76 C 0.55147 0.4335 0.20455 0.0
C77 C 0.54791 0.34605 0.19897 0.0
C78 C 0.56466 0.39814 0.28028 0.0
C79 C 0.61417 0.41551 0.21308 0.0
O80 O 0.60196 0.39503 0.22129 0.0
O81 O 0.60548 0.42829 0.21004 0.0
O82 O 0.55834 0.34447 0.22006 0.0
O83 O 0.54692 0.36458 0.19603 0.0
O84 O 0.42658 0.83934 0.41061 0.0
Cd85 Cd 0.42473 0.84214 0.45196 0.0
Cd86 Cd 0.43179 0.806 0.44959 0.0
O87 O 0.43823 0.8141 0.40866 0.0
O88 O 0.42781 0.8729 0.45622 0.0
O89 O 0.45285 0.86422 0.47313 0.0
C90 C 0.4467 0.8793 0.46901 0.0
C91 C 0.45331 0.79645 0.47842 0.0
C92 C 0.43289 0.82756 0.3968 0.0
C93 C 0.38553 0.79782 0.46848 0.0
O94 O 0.39778 0.78959 0.46017 0.0
O95 O 0.39363 0.81934 0.46912 0.0
O96 O 0.44158 0.78327 0.45867 0.0
O97 O 0.45431 0.81604 0.48053 0.0
O98 O 0.59333 0.43043 0.58185 0.0
Cd99 Cd 0.59154 0.43047 0.62343 0.0
Cd100 Cd 0.63474 0.4406 0.61679 0.0
O101 O 0.63084 0.44807 0.57669 0.0
O102 O 0.56343 0.43211 0.63137 0.0
O103 O 0.59806 0.45924 0.64342 0.0
C104 C 0.57632 0.4518 0.64239 0.0
C105 C 0.66552 0.46151 0.64639 0.0
C106 C 0.61081 0.43912 0.56652 0.0
C107 C 0.59962 0.39291 0.63515 0.0
O108 O 0.61898 0.40607 0.62443 0.0
O109 O 0.58596 0.40024 0.64028 0.0
O110 O 0.66774 0.45167 0.62509 0.0
O111 O 0.64636 0.46127 0.64954 0.0
O112 O 0.15964 0.59116 0.74329 0.0
Cd113 Cd 0.15776 0.58493 0.78424 0.0
Cd114 Cd 0.19639 0.62698 0.78346 0.0
O115 O 0.18938 0.62624 0.74234 0.0
O116 O 0.12688 0.55736 0.78872 0.0
O117 O 0.13632 0.59072 0.8073 0.0
C118 C 0.12101 0.56965 0.80285 0.0
C119 C 0.20664 0.65794 0.81277 0.0
C120 C 0.17371 0.60881 0.73009 0.0
C121 C 0.20152 0.5865 0.79847 0.0
O122 O 0.21113 0.60776 0.7933 0.0
O123 O 0.17984 0.5741 0.79766 0.0
O124 O 0.21997 0.65899 0.79339 0.0
O125 O 0.18666 0.6398 0.81438 0.0
O126 O 0.55309 0.15805 0.90062 0.0
Cd127 Cd 0.5628 0.15492 0.93896 0.0
Cd128 Cd 0.56484 0.19694 0.94526 0.0
O129 O 0.55679 0.19241 0.90405 0.0
O130 O 0.55783 0.12323 0.93755 0.0
O131 O 0.53976 0.13351 0.96658 0.0
C132 C 0.54304 0.11765 0.9567 0.0
C133 C 0.5485 0.21059 0.97714 0.0
C134 C 0.55299 0.17507 0.88984 0.0
C135 C 0.60877 0.19589 0.9504 0.0
O136 O 0.5986 0.20739 0.9525 0.0
O137 O 0.59767 0.17459 0.94523 0.0
O138 O 0.5614 0.22337 0.95782 0.0
O139 O 0.5437 0.18949 0.97753 0.0
O140 O 0.40387 0.56029 0.07049 0.0
Cd141 Cd 0.41057 0.56638 0.11126 0.0
Cd142 Cd 0.36819 0.56169 0.10989 0.0
O143 O 0.36801 0.55272 0.06956 0.0
O144 O 0.43879 0.5643 0.11636 0.0
O145 O 0.40587 0.54034 0.13581 0.0
C146 C 0.42708 0.54662 0.1314 0.0
C147 C 0.33869 0.5425 0.1414 0.0
C148 C 0.38567 0.55498 0.05736 0.0
C149 C 0.40808 0.60852 0.12176 0.0
O150 O 0.3869 0.59628 0.1164 0.0
O151 O 0.42078 0.59958 0.12285 0.0
O152 O 0.33631 0.55299 0.1209 0.0
O153 O 0.35729 0.54146 0.14294 0.0
O154 O 0.84336 0.41642 0.25136 0.0
Cd155 Cd 0.84413 0.41702 0.29296 0.0
Cd156 Cd 0.8079 0.37537 0.28508 0.0
O157 O 0.81833 0.37998 0.24453 0.0
O158 O 0.87441 0.44423 0.30132 0.0
O159 O 0.86553 0.40908 0.31266 0.0
C160 C 0.88048 0.43063 0.31189 0.0
C161 C 0.79797 0.3438 0.31311 0.0
C162 C 0.83228 0.3998 0.2352 0.0
C163 C 0.79952 0.41239 0.30641 0.0
O164 O 0.79124 0.3927 0.2957 0.0
O165 O 0.82097 0.4248 0.30995 0.0
O166 O 0.78547 0.34242 0.29258 0.0
O167 O 0.81723 0.36258 0.31633 0.0
H168 H 0.24218 0.63663 0.38331 0.0
H169 H 0.26573 0.67519 0.40125 0.0
H170 H 0.20525 0.67568 0.42842 0.0
H171 H 0.18135 0.63683 0.41064 0.0
H172 H 0.25909 0.72179 0.39995 0.0
H173 H 0.21466 0.67285 0.47873 0.0
H174 H 0.19511 0.63498 0.50094 0.0
H175 H 0.25601 0.63016 0.49362 0.0
H176 H 0.27583 0.66794 0.47121 0.0
H177 H 0.35094 0.80795 0.47375 0.0
H178 H 0.30984 0.78069 0.46995 0.0
H179 H 0.32373 0.72479 0.46949 0.0
H180 H 0.36436 0.75162 0.47421 0.0
H181 H 0.28307 0.71108 0.49136 0.0
H182 H 0.32543 0.75511 0.40985 0.0
H183 H 0.34827 0.79268 0.38769 0.0
H184 H 0.29311 0.80649 0.39839 0.0
H185 H 0.27015 0.76917 0.42113 0.0
C186 C 0.23377 0.64516 0.39227 0.0
C187 C 0.20992 0.63353 0.3959 0.0
C188 C 0.24727 0.66722 0.40247 0.0
C189 C 0.23717 0.67804 0.41639 0.0
C190 C 0.21327 0.66748 0.41776 0.0
C191 C 0.19967 0.64533 0.40747 0.0
C192 C 0.25203 0.69835 0.43295 0.0
C193 C 0.2638 0.71978 0.42036 0.0
C194 C 0.25833 0.69554 0.45936 0.0
C195 C 0.24662 0.67307 0.47319 0.0
C196 C 0.22381 0.66364 0.48177 0.0
C197 C 0.2127 0.64223 0.49441 0.0
C198 C 0.2243 0.63017 0.49861 0.0
C199 C 0.24705 0.63953 0.49032 0.0
C200 C 0.25823 0.66094 0.4777 0.0
C201 C 0.34513 0.78981 0.47382 0.0
C202 C 0.36093 0.78195 0.47355 0.0
C203 C 0.32164 0.77426 0.47155 0.0
C204 C 0.31378 0.75075 0.46866 0.0
C205 C 0.32936 0.74284 0.47147 0.0
C206 C 0.35268 0.75827 0.47395 0.0
C207 C 0.29052 0.73462 0.45828 0.0
C208 C 0.27747 0.7137 0.47175 0.0
C209 C 0.28307 0.73795 0.43268 0.0
C210 C 0.2962 0.75953 0.41734 0.0
C211 C 0.31818 0.76616 0.40738 0.0
C212 C 0.33117 0.78743 0.39486 0.0
C213 C 0.32219 0.80201 0.3918 0.0
C214 C 0.30008 0.79522 0.40092 0.0
C215 C 0.28708 0.77403 0.41364 0.0
H216 H 0.33232 0.81854 0.38224 0.0
H217 H 0.21567 0.61359 0.5083 0.0
H218 H 0.61462 0.24437 0.53623 0.0
H219 H 0.60369 0.27165 0.55262 0.0
H220 H 0.53761 0.21614 0.57619 0.0
H221 H 0.54846 0.18851 0.55994 0.0
H222 H 0.54799 0.26852 0.5542 0.0
H223 H 0.56396 0.22367 0.62189 0.0
H224 H 0.58764 0.20678 0.63542 0.0
H225 H 0.64788 0.27318 0.63332 0.0
H226 H 0.62482 0.2903 0.61858 0.0
H227 H 0.55556 0.35694 0.63847 0.0
H228 H 0.54312 0.31684 0.6282 0.0
H229 H 0.61372 0.33355 0.62356 0.0
H230 H 0.62612 0.37314 0.63449 0.0
H231 H 0.58982 0.2926 0.6417 0.0
H232 H 0.58374 0.33602 0.56714 0.0
H233 H 0.56928 0.35881 0.54428 0.0
H234 H 0.50034 0.30307 0.55224 0.0
H235 H 0.51443 0.28004 0.57543 0.0
C236 C 0.59739 0.23793 0.54382 0.0
C237 C 0.58257 0.21433 0.54735 0.0
C238 C 0.59117 0.25354 0.55311 0.0
C239 C 0.57005 0.24579 0.56599 0.0
C240 C 0.55399 0.22233 0.56628 0.0
C241 C 0.56023 0.2066 0.55694 0.0
C242 C 0.56728 0.2618 0.58379 0.0
C243 C 0.55642 0.27335 0.57377 0.0
C244 C 0.57906 0.26851 0.60883 0.0
C245 C 0.59265 0.25823 0.61897 0.0
C246 C 0.58227 0.23462 0.62412 0.0
C247 C 0.59557 0.22501 0.63199 0.0
C248 C 0.61918 0.23892 0.63534 0.0
C249 C 0.62957 0.26244 0.63075 0.0
C250 C 0.61641 0.27208 0.62257 0.0
C251 C 0.56837 0.35185 0.63625 0.0
C252 C 0.59184 0.36824 0.63682 0.0
C253 C 0.56123 0.32897 0.63013 0.0
C254 C 0.57749 0.32231 0.62442 0.0
C255 C 0.60083 0.33826 0.62771 0.0
C256 C 0.60793 0.36097 0.63389 0.0
C257 C 0.57091 0.29983 0.61198 0.0
C258 C 0.58023 0.28709 0.62289 0.0
C259 C 0.55858 0.2927 0.58723 0.0
C260 C 0.55008 0.30646 0.57333 0.0
C261 C 0.56548 0.32871 0.56418 0.0
C262 C 0.55737 0.34165 0.55114 0.0
C263 C 0.5339 0.33243 0.54691 0.0
C264 C 0.51851 0.31021 0.55562 0.0
C265 C 0.52654 0.29721 0.56871 0.0
H266 H 0.52764 0.34247 0.5368 0.0
H267 H 0.62945 0.2315 0.64146 0.0
H268 H 0.24639 0.60696 0.81289 0.0
H269 H 0.27291 0.59372 0.80098 0.0
H270 H 0.21644 0.52918 0.77445 0.0
H271 H 0.18969 0.54238 0.78629 0.0
H272 H 0.282 0.55909 0.80867 0.0
H273 H 0.23169 0.52023 0.71051 0.0
H274 H 0.20208 0.52159 0.68243 0.0
H275 H 0.22447 0.58996 0.71006 0.0
H276 H 0.2544 0.5891 0.73794 0.0
H277 H 0.36028 0.54214 0.73331 0.0
H278 H 0.32099 0.52942 0.74767 0.0
H279 H 0.32433 0.58838 0.70915 0.0
H280 H 0.36352 0.60121 0.69487 0.0
H281 H 0.2807 0.5516 0.70847 0.0
H282 H 0.34328 0.59339 0.77097 0.0
H283 H 0.37679 0.59977 0.79784 0.0
H284 H 0.33522 0.53714 0.84107 0.0
H285 H 0.30153 0.53011 0.81392 0.0
C286 C 0.23952 0.58963 0.80546 0.0
C287 C 0.21603 0.57587 0.80006 0.0
C288 C 0.25471 0.58204 0.79873 0.0
C289 C 0.24666 0.56066 0.7863 0.0
C290 C 0.22298 0.54584 0.78375 0.0
C291 C 0.20771 0.55338 0.79067 0.0
C292 C 0.26321 0.55591 0.77212 0.0
C293 C 0.28143 0.55684 0.78686 0.0
C294 C 0.26277 0.55363 0.74353 0.0
C295 C 0.24502 0.55443 0.72659 0.0
C296 C 0.23029 0.53554 0.71054 0.0
C297 C 0.21348 0.53624 0.69465 0.0
C298 C 0.21134 0.55582 0.69455 0.0
C299 C 0.22609 0.57478 0.71023 0.0
C300 C 0.24296 0.57418 0.72609 0.0
C301 C 0.3523 0.55185 0.72687 0.0
C302 C 0.36506 0.57288 0.71335 0.0
C303 C 0.32988 0.54461 0.73523 0.0
C304 C 0.31997 0.55822 0.72994 0.0
C305 C 0.3317 0.57768 0.71354 0.0
C306 C 0.35413 0.58503 0.70543 0.0
C307 C 0.2995 0.55479 0.74502 0.0
C308 C 0.28069 0.55262 0.73042 0.0
C309 C 0.29982 0.55679 0.77365 0.0
C310 C 0.31999 0.56101 0.79008 0.0
C311 C 0.34134 0.58085 0.78599 0.0
C312 C 0.36035 0.5846 0.80127 0.0
C313 C 0.35816 0.5688 0.82102 0.0
C314 C 0.33691 0.54928 0.82563 0.0
C315 C 0.31786 0.54538 0.81027 0.0
H316 H 0.37293 0.57171 0.83275 0.0
H317 H 0.1983 0.55632 0.68226 0.0
H318 H 0.75446 0.37829 0.88515 0.0
H319 H 0.72657 0.33821 0.89213 0.0
H320 H 0.78008 0.32096 0.88724 0.0
H321 H 0.80847 0.36154 0.8809 0.0
H322 H 0.71126 0.29975 0.8669 0.0
H323 H 0.76658 0.27755 0.93426 0.0
H324 H 0.80162 0.29679 0.96216 0.0
H325 H 0.78962 0.3527 0.97683 0.0
H326 H 0.75441 0.33364 0.94931 0.0
H327 H 0.63443 0.18913 0.91327 0.0
H328 H 0.6729 0.21799 0.89865 0.0
H329 H 0.67783 0.26075 0.96626 0.0
H330 H 0.63907 0.23236 0.9804 0.0
H331 H 0.72077 0.26442 0.95042 0.0
H332 H 0.65451 0.26479 0.91585 0.0
H333 H 0.61813 0.25185 0.8918 0.0
H334 H 0.64921 0.24856 0.81732 0.0
H335 H 0.68547 0.26003 0.8413 0.0
C336 C 0.76034 0.36599 0.88509 0.0
C337 C 0.78372 0.37314 0.88286 0.0
C338 C 0.74432 0.34301 0.88899 0.0
C339 C 0.75127 0.32661 0.89067 0.0
C340 C 0.77441 0.3334 0.88644 0.0
C341 C 0.79056 0.35655 0.8826 0.0
C342 C 0.73428 0.30299 0.89897 0.0
C343 C 0.71351 0.29175 0.8848 0.0
C344 C 0.7371 0.2928 0.92267 0.0
C345 C 0.75809 0.30432 0.93944 0.0
C346 C 0.77144 0.29393 0.94348 0.0
C347 C 0.79131 0.3048 0.95923 0.0
C348 C 0.7979 0.326 0.97116 0.0
C349 C 0.78456 0.33633 0.96749 0.0
C350 C 0.76466 0.32551 0.9518 0.0
C351 C 0.64414 0.20421 0.92572 0.0
C352 C 0.63385 0.20864 0.94791 0.0
C353 C 0.66603 0.2207 0.91723 0.0
C354 C 0.67799 0.24153 0.9312 0.0
C355 C 0.66884 0.24473 0.95527 0.0
C356 C 0.64673 0.22854 0.96334 0.0
C357 C 0.69771 0.26143 0.91847 0.0
C358 C 0.71888 0.27193 0.93186 0.0
C359 C 0.69498 0.27144 0.89456 0.0
C360 C 0.67259 0.26259 0.88061 0.0
C361 C 0.65342 0.26049 0.89458 0.0
C362 C 0.63281 0.25348 0.88091 0.0
C363 C 0.63131 0.24914 0.8531 0.0
C364 C 0.65033 0.25158 0.83895 0.0
C365 C 0.67085 0.25814 0.85261 0.0
H366 H 0.61554 0.24426 0.84241 0.0
H367 H 0.81329 0.3344 0.98332 0.0
H368 H 0.39294 0.75539 0.02744 0.0
H369 H 0.4057 0.72861 0.03968 0.0
H370 H 0.4739 0.78474 0.05359 0.0
H371 H 0.46119 0.81191 0.04181 0.0
H372 H 0.45584 0.72709 0.03094 0.0
H373 H 0.46202 0.78177 0.1037 0.0
H374 H 0.44652 0.80534 0.12196 0.0
H375 H 0.38035 0.74538 0.13059 0.0
H376 H 0.39518 0.72164 0.11102 0.0
H377 H 0.45323 0.64128 0.11527 0.0
H378 H 0.46768 0.68133 0.10279 0.0
H379 H 0.40019 0.67219 0.11448 0.0
H380 H 0.38586 0.6326 0.12749 0.0
H381 H 0.43073 0.71415 0.1271 0.0
H382 H 0.4176 0.66167 0.05257 0.0
H383 H 0.42411 0.63409 0.02674 0.0
H384 H 0.49514 0.68455 0.01769 0.0
H385 H 0.48905 0.71234 0.04378 0.0
C386 C 0.41088 0.76208 0.03203 0.0
C387 C 0.4259 0.78576 0.03445 0.0
C388 C 0.41817 0.74672 0.03886 0.0
C389 C 0.44057 0.75481 0.04802 0.0
C390 C 0.4565 0.77828 0.04665 0.0
C391 C 0.44918 0.79376 0.03991 0.0
C392 C 0.44502 0.73939 0.06483 0.0
C393 C 0.45128 0.72473 0.05225 0.0
C394 C 0.4382 0.73595 0.09234 0.0
C395 C 0.42968 0.74999 0.10569 0.0
C396 C 0.44411 0.77365 0.10926 0.0
C397 C 0.43542 0.78705 0.11969 0.0
C398 C 0.41248 0.77686 0.12747 0.0
C399 C 0.39813 0.75326 0.1246 0.0
C400 C 0.40664 0.73984 0.11369 0.0
C401 C 0.44168 0.64805 0.11612 0.0
C402 C 0.4183 0.63367 0.12187 0.0
C403 C 0.44994 0.6709 0.10879 0.0
C404 C 0.43489 0.67958 0.10705 0.0
C405 C 0.41212 0.66586 0.1155 0.0
C406 C 0.4039 0.64315 0.12286 0.0
C407 C 0.44157 0.70159 0.0933 0.0
C408 C 0.43684 0.71727 0.10633 0.0
C409 C 0.44928 0.70561 0.06602 0.0
C410 C 0.45295 0.68894 0.05041 0.0
C411 C 0.43463 0.66681 0.04523 0.0
C412 C 0.43824 0.65116 0.03053 0.0
C413 C 0.46005 0.65754 0.02066 0.0
C414 C 0.47828 0.67961 0.02542 0.0
C415 C 0.47476 0.69531 0.04017 0.0
H416 H 0.4628 0.64541 0.00926 0.0
H417 H 0.40586 0.78723 0.13577 0.0
H418 H 0.75414 0.3901 0.31839 0.0
H419 H 0.72746 0.40312 0.30604 0.0
H420 H 0.78413 0.46954 0.28564 0.0
H421 H 0.81097 0.45677 0.29854 0.0
H422 H 0.71869 0.44093 0.31327 0.0
H423 H 0.77267 0.47509 0.21801 0.0
H424 H 0.80441 0.47345 0.19511 0.0
H425 H 0.77968 0.40544 0.22545 0.0
H426 H 0.74751 0.40648 0.2479 0.0
H427 H 0.64644 0.45889 0.22702 0.0
H428 H 0.68512 0.47045 0.24288 0.0
H429 H 0.67675 0.4058 0.21623 0.0
H430 H 0.63799 0.39399 0.20085 0.0
H431 H 0.72276 0.44285 0.21268 0.0
H432 H 0.65787 0.40705 0.27494 0.0
H433 H 0.62492 0.40461 0.29967 0.0
H434 H 0.66886 0.46973 0.33688 0.0
H435 H 0.70199 0.47279 0.31184 0.0
C436 C 0.76091 0.40781 0.31255 0.0
C437 C 0.78454 0.42234 0.30904 0.0
C438 C 0.74566 0.41526 0.30557 0.0
C439 C 0.75389 0.43714 0.29451 0.0
C440 C 0.77753 0.45257 0.29408 0.0
C441 C 0.79282 0.44525 0.30154 0.0
C442 C 0.73811 0.44158 0.27834 0.0
C443 C 0.71985 0.44197 0.29133 0.0
C444 C 0.73945 0.44238 0.24968 0.0
C445 C 0.75793 0.44103 0.23495 0.0
C446 C 0.77395 0.45975 0.21962 0.0
C447 C 0.792 0.45892 0.20673 0.0
C448 C 0.79416 0.43943 0.20902 0.0
C449 C 0.77808 0.42059 0.22386 0.0
C450 C 0.7599 0.42127 0.2366 0.0
C451 C 0.65324 0.44758 0.2234 0.0
C452 C 0.63919 0.42543 0.21302 0.0
C453 C 0.67529 0.45417 0.2326 0.0
C454 C 0.68356 0.43881 0.23109 0.0
C455 C 0.67062 0.41787 0.2176 0.0
C456 C 0.64848 0.41112 0.20884 0.0
C457 C 0.70333 0.44233 0.2476 0.0
C458 C 0.72216 0.44302 0.23465 0.0
C459 C 0.70228 0.4421 0.27631 0.0
C460 C 0.68233 0.44032 0.29118 0.0
C461 C 0.66045 0.42098 0.28812 0.0
C462 C 0.64175 0.41946 0.30223 0.0
C463 C 0.64479 0.43704 0.31977 0.0
C464 C 0.66652 0.45617 0.32321 0.0
C465 C 0.68526 0.45782 0.30903 0.0
H466 H 0.63033 0.4358 0.33078 0.0
H467 H 0.80822 0.43887 0.19919 0.0
H468 H 0.2105 0.62849 0.696 0.0
H469 H 0.2115 0.61815 0.64869 0.0
H470 H 0.13807 0.57444 0.64953 0.0
H471 H 0.13719 0.584 0.6971 0.0
H472 H 0.15571 0.55167 0.63022 0.0
H473 H 0.1678 0.62681 0.61311 0.0
H474 H 0.18626 0.6688 0.61648 0.0
H475 H 0.24902 0.67568 0.58593 0.0
H476 H 0.23106 0.63371 0.5828 0.0
H477 H 0.1356 0.53693 0.4871 0.0
H478 H 0.13773 0.54522 0.5356 0.0
H479 H 0.2109 0.57367 0.53352 0.0
H480 H 0.2089 0.5652 0.48498 0.0
H481 H 0.19597 0.60383 0.55348 0.0
H482 H 0.18173 0.52762 0.56867 0.0
H483 H 0.16129 0.4857 0.56306 0.0
H484 H 0.09999 0.48133 0.59498 0.0
H485 H 0.11998 0.52327 0.60042 0.0
C486 C 0.19452 0.61722 0.68583 0.0
C487 C 0.17374 0.60713 0.7002 0.0
C488 C 0.1951 0.61124 0.65876 0.0
C489 C 0.17485 0.59547 0.6454 0.0
C490 C 0.15396 0.58648 0.65937 0.0
C491 C 0.15343 0.59211 0.68651 0.0
C492 C 0.17545 0.58696 0.61768 0.0
C493 C 0.16429 0.56316 0.6134 0.0
C494 C 0.18722 0.60182 0.59578 0.0
C495 C 0.19817 0.62707 0.59812 0.0
C496 C 0.18562 0.63725 0.60743 0.0
C497 C 0.19598 0.66106 0.60923 0.0
C498 C 0.21882 0.6749 0.60154 0.0
C499 C 0.23135 0.66495 0.59198 0.0
C500 C 0.22109 0.64115 0.5902 0.0
C501 C 0.15206 0.54428 0.49713 0.0
C502 C 0.17207 0.55039 0.4822 0.0
C503 C 0.15326 0.54905 0.52484 0.0
C504 C 0.1745 0.56019 0.53808 0.0
C505 C 0.19435 0.56506 0.52363 0.0
C506 C 0.19314 0.56 0.49595 0.0
C507 C 0.17605 0.56873 0.56616 0.0
C508 C 0.18758 0.59247 0.57045 0.0
C509 C 0.16437 0.55387 0.58795 0.0
C510 C 0.15231 0.52863 0.58474 0.0
C511 C 0.16384 0.51775 0.57427 0.0
C512 C 0.15235 0.49397 0.57117 0.0
C513 C 0.12935 0.48086 0.5786 0.0
C514 C 0.11781 0.4915 0.58921 0.0
C515 C 0.12922 0.51528 0.59234 0.0
H516 H 0.12048 0.46246 0.57618 0.0
H517 H 0.2268 0.69333 0.6029 0.0
H518 H 0.58101 0.13368 0.64462 0.0
H519 H 0.57094 0.13555 0.69161 0.0
H520 H 0.62861 0.20395 0.69834 0.0
H521 H 0.63932 0.20186 0.65134 0.0
H522 H 0.6219 0.18055 0.74492 0.0
H523 H 0.57335 0.1945 0.68466 0.0
H524 H 0.54609 0.18546 0.64685 0.0
H525 H 0.49849 0.12233 0.68535 0.0
H526 H 0.52542 0.13089 0.72328 0.0
H527 H 0.57873 0.2125 0.8586 0.0
H528 H 0.58934 0.21218 0.81104 0.0
H529 H 0.54045 0.14007 0.80616 0.0
H530 H 0.53043 0.14012 0.85389 0.0
H531 H 0.54302 0.16656 0.75871 0.0
H532 H 0.58922 0.15322 0.8204 0.0
H533 H 0.61566 0.1605 0.85833 0.0
H534 H 0.66829 0.21925 0.81702 0.0
H535 H 0.64169 0.21325 0.77957 0.0
C536 C 0.5919 0.14896 0.65624 0.0
C537 C 0.61079 0.16779 0.64405 0.0
C538 C 0.58596 0.15009 0.68307 0.0
C539 C 0.59851 0.17019 0.69826 0.0
C540 C 0.61845 0.18836 0.6869 0.0
C541 C 0.62461 0.18712 0.66005 0.0
C542 C 0.59021 0.17248 0.72545 0.0
C543 C 0.60482 0.17795 0.74789 0.0
C544 C 0.56764 0.16838 0.72946 0.0
C545 C 0.55148 0.16325 0.70665 0.0
C546 C 0.55713 0.17863 0.68493 0.0
C547 C 0.54174 0.17361 0.66353 0.0
C548 C 0.52066 0.15332 0.66365 0.0
C549 C 0.51485 0.13803 0.68525 0.0
C550 C 0.53013 0.14297 0.70673 0.0
C551 C 0.56971 0.19677 0.8471 0.0
C552 C 0.55374 0.17634 0.8599 0.0
C553 C 0.57597 0.19656 0.82007 0.0
C554 C 0.56596 0.17603 0.80529 0.0
C555 C 0.54846 0.15606 0.81728 0.0
C556 C 0.54265 0.15614 0.84448 0.0
C557 C 0.5748 0.17491 0.77811 0.0
C558 C 0.56023 0.16953 0.75572 0.0
C559 C 0.59736 0.17893 0.77426 0.0
C560 C 0.61317 0.18309 0.79736 0.0
C561 C 0.60618 0.1681 0.81968 0.0
C562 C 0.62124 0.17199 0.84113 0.0
C563 C 0.64357 0.19047 0.84022 0.0
C564 C 0.6509 0.20508 0.81784 0.0
C565 C 0.63577 0.20155 0.79659 0.0
H566 H 0.65526 0.19335 0.85673 0.0
H567 H 0.5088 0.14948 0.64705 0.0
H568 H 0.36139 0.56569 0.02169 0.0
H569 H 0.37046 0.57584 0.97392 0.0
H570 H 0.42218 0.55607 0.97759 0.0
H571 H 0.41371 0.5467 0.0255 0.0
H572 H 0.44007 0.59632 0.95717 0.0
H573 H 0.37055 0.52617 0.94078 0.0
H574 H 0.32948 0.4976 0.94382 0.0
H575 H 0.31243 0.54576 0.90984 0.0
H576 H 0.35339 0.57479 0.90706 0.0
H577 H 0.45875 0.59284 0.81438 0.0
H578 H 0.4493 0.58497 0.86254 0.0
H579 H 0.41246 0.6219 0.8594 0.0
H580 H 0.42238 0.63037 0.81134 0.0
H581 H 0.38686 0.57518 0.87932 0.0
H582 H 0.4575 0.64474 0.89488 0.0
H583 H 0.49886 0.6717 0.88996 0.0
H584 H 0.51375 0.62187 0.92353 0.0
H585 H 0.47246 0.59447 0.92829 0.0
C586 C 0.3742 0.56285 0.01208 0.0
C587 C 0.38685 0.55541 0.02737 0.0
C588 C 0.37944 0.56873 0.98473 0.0
C589 C 0.39711 0.56683 0.97205 0.0
C590 C 0.40865 0.55793 0.98691 0.0
C591 C 0.40366 0.55238 0.01427 0.0
C592 C 0.40496 0.57587 0.94417 0.0
C593 C 0.4284 0.59137 0.94012 0.0
C594 C 0.38975 0.57008 0.92193 0.0
C595 C 0.36507 0.55278 0.9241 0.0
C596 C 0.35805 0.53078 0.93429 0.0
C597 C 0.33478 0.51448 0.9359 0.0
C598 C 0.31835 0.51989 0.92714 0.0
C599 C 0.32516 0.54162 0.91671 0.0
C600 C 0.34841 0.558 0.91513 0.0
C601 C 0.44925 0.59989 0.82418 0.0
C602 C 0.44148 0.61239 0.80918 0.0
C603 C 0.44379 0.59531 0.85164 0.0
C604 C 0.43012 0.60279 0.86447 0.0
C605 C 0.42307 0.61603 0.84985 0.0
C606 C 0.42896 0.62106 0.82249 0.0
C607 C 0.42182 0.59521 0.89248 0.0
C608 C 0.39838 0.58008 0.8965 0.0
C609 C 0.43701 0.60106 0.9146 0.0
C610 C 0.46187 0.61747 0.91169 0.0
C611 C 0.46958 0.63944 0.90097 0.0
C612 C 0.49302 0.65483 0.89827 0.0
C613 C 0.50892 0.64848 0.90636 0.0
C614 C 0.50142 0.62675 0.91723 0.0
C615 C 0.478 0.6113 0.91997 0.0
H616 H 0.52706 0.66042 0.90426 0.0
H617 H 0.30035 0.50723 0.92836 0.0
H618 H 0.85762 0.44113 0.21063 0.0
H619 H 0.85832 0.45067 0.16317 0.0
H620 H 0.81256 0.37951 0.1444 0.0
H621 H 0.81102 0.36984 0.1926 0.0
H622 H 0.87275 0.44185 0.12035 0.0
H623 H 0.78084 0.37417 0.09001 0.0
H624 H 0.74229 0.35257 0.11022 0.0
H625 H 0.75988 0.40633 0.16818 0.0
H626 H 0.79857 0.42823 0.14833 0.0
H627 H 0.86344 0.43511 0.97843 0.0
H628 H 0.86281 0.42849 0.02682 0.0
H629 H 0.81644 0.45438 0.03837 0.0
H630 H 0.81633 0.46036 0.98932 0.0
H631 H 0.80201 0.41678 0.0666 0.0
H632 H 0.87395 0.48529 0.05818 0.0
H633 H 0.91223 0.5112 0.03932 0.0
H634 H 0.93437 0.46383 0.06168 0.0
H635 H 0.89611 0.43748 0.08036 0.0
C636 C 0.84775 0.42737 0.19653 0.0
C637 C 0.83425 0.40464 0.20559 0.0
C638 C 0.84819 0.43291 0.16922 0.0
C639 C 0.83531 0.41593 0.15004 0.0
C640 C 0.8223 0.39306 0.15881 0.0
C641 C 0.82163 0.38749 0.18636 0.0
C642 C 0.83588 0.42244 0.12101 0.0
C643 C 0.85724 0.43631 0.10865 0.0
C644 C 0.81573 0.41576 0.1057 0.0
C645 C 0.79263 0.40268 0.1179 0.0
C646 C 0.77647 0.38135 0.1071 0.0
C647 C 0.75463 0.36905 0.11852 0.0
C648 C 0.74871 0.37802 0.1406 0.0
C649 C 0.7646 0.39933 0.15127 0.0
C650 C 0.78649 0.41165 0.14 0.0
C651 C 0.85329 0.43974 0.99117 0.0
C652 C 0.83995 0.44835 0.97983 0.0
C653 C 0.85303 0.43597 0.019 0.0
C654 C 0.83976 0.4411 0.03644 0.0
C655 C 0.82683 0.45026 0.02536 0.0
C656 C 0.82693 0.45388 0.99732 0.0
C657 C 0.83888 0.43604 0.06599 0.0
C658 C 0.8175 0.42237 0.07837 0.0
C659 C 0.85901 0.44349 0.0816 0.0
C660 C 0.88209 0.45932 0.07048 0.0
C661 C 0.88693 0.48033 0.05891 0.0
C662 C 0.90863 0.4951 0.04828 0.0
C663 C 0.9257 0.48914 0.04925 0.0
C664 C 0.92112 0.46841 0.06092 0.0
C665 C 0.89944 0.45356 0.07157 0.0
H666 H 0.9425 0.50061 0.04099 0.0
H667 H 0.73177 0.3685 0.14937 0.0
H668 H 0.43209 0.86024 0.14072 0.0
H669 H 0.43784 0.85788 0.18906 0.0
H670 H 0.37311 0.79498 0.19383 0.0
H671 H 0.36691 0.79758 0.14538 0.0
H672 H 0.37732 0.81931 0.23578 0.0
H673 H 0.4266 0.79331 0.19855 0.0
H674 H 0.45693 0.79387 0.16998 0.0
H675 H 0.50487 0.86104 0.19919 0.0
H676 H 0.47508 0.86045 0.22887 0.0
H677 H 0.43904 0.80072 0.35943 0.0
H678 H 0.43204 0.79885 0.31046 0.0
H679 H 0.41637 0.85329 0.3174 0.0
H680 H 0.42316 0.85522 0.36603 0.0
H681 H 0.45063 0.82817 0.26952 0.0
H682 H 0.37318 0.84376 0.27474 0.0
H683 H 0.33954 0.83409 0.30336 0.0
H684 H 0.34288 0.7771 0.33684 0.0
H685 H 0.37645 0.78636 0.30835 0.0
C686 C 0.41892 0.84599 0.15205 0.0
C687 C 0.39902 0.82907 0.13909 0.0
C688 C 0.4224 0.84451 0.1797 0.0
C689 C 0.40623 0.82592 0.19505 0.0
C690 C 0.38595 0.80941 0.18241 0.0
C691 C 0.38234 0.81099 0.15472 0.0
C692 C 0.41028 0.82417 0.22442 0.0
C693 C 0.39336 0.82125 0.24312 0.0
C694 C 0.43093 0.8261 0.23415 0.0
C695 C 0.44861 0.82694 0.21564 0.0
C696 C 0.44358 0.80826 0.1987 0.0
C697 C 0.46067 0.80854 0.18241 0.0
C698 C 0.4827 0.82761 0.18243 0.0
C699 C 0.48777 0.84632 0.19909 0.0
C700 C 0.47086 0.84594 0.21584 0.0
C701 C 0.43437 0.81247 0.35048 0.0
C702 C 0.43157 0.82804 0.36676 0.0
C703 C 0.4303 0.81133 0.32249 0.0
C704 C 0.42322 0.82562 0.31033 0.0
C705 C 0.4213 0.84174 0.32638 0.0
C706 C 0.42539 0.84292 0.35423 0.0
C707 C 0.41787 0.82384 0.28088 0.0
C708 C 0.43458 0.82621 0.26218 0.0
C709 C 0.39673 0.82073 0.27115 0.0
C710 C 0.37744 0.81588 0.28955 0.0
C711 C 0.3668 0.82924 0.28831 0.0
C712 C 0.34774 0.82382 0.30449 0.0
C713 C 0.33909 0.80499 0.32188 0.0
C714 C 0.34966 0.79173 0.32343 0.0
C715 C 0.36876 0.79711 0.30734 0.0
H716 H 0.32407 0.80058 0.33397 0.0
H717 H 0.49586 0.82781 0.16969 0.0
H718 H 0.54876 0.36504 0.32033 0.0
H719 H 0.55604 0.37126 0.36938 0.0
H720 H 0.59381 0.44415 0.35642 0.0
H721 H 0.58624 0.43831 0.30804 0.0
H722 H 0.61655 0.42338 0.38914 0.0
H723 H 0.54676 0.42767 0.38077 0.0
H724 H 0.50638 0.41225 0.36778 0.0
H725 H 0.48654 0.35427 0.41972 0.0
H726 H 0.52689 0.36922 0.43272 0.0
H727 H 0.63658 0.46721 0.5244 0.0
H728 H 0.62851 0.46011 0.47566 0.0
H729 H 0.56937 0.39451 0.49378 0.0
H730 H 0.57645 0.4023 0.54191 0.0
H731 H 0.55727 0.41065 0.45724 0.0
H732 H 0.62416 0.4039 0.46752 0.0
H733 H 0.66391 0.41551 0.47997 0.0
H734 H 0.68888 0.47222 0.42488 0.0
H735 H 0.64925 0.46113 0.41238 0.0
C736 C 0.55832 0.38237 0.32801 0.0
C737 C 0.56675 0.40113 0.31019 0.0
C738 C 0.56254 0.3859 0.35597 0.0
C739 C 0.57558 0.40818 0.36642 0.0
C740 C 0.58378 0.42684 0.34875 0.0
C741 C 0.57925 0.4234 0.32105 0.0
C742 C 0.581 0.41233 0.39572 0.0
C743 C 0.60369 0.42075 0.40414 0.0
C744 C 0.56408 0.40833 0.41519 0.0
C745 C 0.53985 0.39942 0.40745 0.0
C746 C 0.53382 0.41152 0.3892 0.0
C747 C 0.51093 0.40289 0.38189 0.0
C748 C 0.49391 0.38225 0.39285 0.0
C749 C 0.49974 0.37024 0.41121 0.0
C750 C 0.52261 0.37879 0.41857 0.0
C751 C 0.62186 0.45137 0.51782 0.0
C752 C 0.60703 0.43545 0.53693 0.0
C753 C 0.61732 0.44717 0.48995 0.0
C754 C 0.59839 0.42659 0.48075 0.0
C755 C 0.58392 0.41061 0.50005 0.0
C756 C 0.58803 0.41509 0.52769 0.0
C757 C 0.59304 0.42165 0.45124 0.0
C758 C 0.5703 0.41316 0.44258 0.0
C759 C 0.60987 0.42503 0.43166 0.0
C760 C 0.63372 0.43184 0.43928 0.0
C761 C 0.63812 0.41896 0.45825 0.0
C762 C 0.66063 0.42543 0.46528 0.0
C763 C 0.6789 0.44463 0.4533 0.0
C764 C 0.6747 0.45738 0.4342 0.0
C765 C 0.65222 0.45101 0.42713 0.0
H766 H 0.69632 0.4496 0.45876 0.0
H767 H 0.4762 0.3756 0.38717 0.0
H768 H 0.91152 0.47468 0.32448 0.0
H769 H 0.95203 0.49068 0.33466 0.0
H770 H 0.94442 0.42338 0.32906 0.0
H771 H 0.90342 0.40707 0.31975 0.0
H772 H 0.97302 0.44637 0.36857 0.0
H773 H 0.96723 0.46196 0.27605 0.0
H774 H 0.95452 0.47517 0.23664 0.0
H775 H 0.98829 0.54354 0.26857 0.0
H776 H 1.00093 0.53068 0.30839 0.0
H777 H 0.0966 0.50055 0.35923 0.0
H778 H 0.05631 0.47817 0.34508 0.0
H779 H 0.04658 0.53488 0.36563 0.0
H780 H 0.08644 0.55704 0.38024 0.0
H781 H 0.02772 0.51329 0.31391 0.0
H782 H 0.02973 0.4948 0.40895 0.0
H783 H 0.04277 0.48048 0.44699 0.0
H784 H 0.01674 0.41562 0.40694 0.0
H785 H 0.00384 0.4297 0.36847 0.0
C786 C 0.91839 0.46322 0.32568 0.0
C787 C 0.90433 0.43964 0.32109 0.0
C788 C 0.94162 0.47242 0.33132 0.0
C789 C 0.95146 0.45834 0.33185 0.0
C790 C 0.93726 0.43461 0.32851 0.0
C791 C 0.91384 0.42531 0.32324 0.0
C792 C 0.97662 0.46868 0.33537 0.0
C793 C 0.98497 0.46071 0.35626 0.0
C794 C 0.99234 0.48743 0.31933 0.0
C795 C 0.9849 0.49531 0.29532 0.0
C796 C 0.97183 0.47979 0.27476 0.0
C797 C 0.96464 0.48721 0.25233 0.0
C798 C 0.97056 0.51017 0.25012 0.0
C799 C 0.98371 0.52576 0.27031 0.0
C800 C 0.99092 0.51841 0.2928 0.0
C801 C 0.08589 0.50828 0.36043 0.0
C802 C 0.09461 0.5305 0.37089 0.0
C803 C 0.06291 0.49547 0.35247 0.0
C804 C 0.0485 0.50488 0.35445 0.0
C805 C 0.05743 0.52734 0.36396 0.0
C806 C 0.08019 0.53994 0.37235 0.0
C807 C 0.02389 0.49133 0.34746 0.0
C808 C 0.0157 0.49871 0.32588 0.0
C809 C 0.00842 0.47186 0.36255 0.0
C810 C 0.0161 0.46339 0.3857 0.0
C811 C 0.02699 0.47756 0.40814 0.0
C812 C 0.03431 0.46947 0.4298 0.0
C813 C 0.03066 0.44718 0.42934 0.0
C814 C 0.01961 0.4329 0.40725 0.0
C815 C 0.01228 0.44093 0.38552 0.0
H816 H 0.03633 0.44094 0.44613 0.0
H817 H 0.96498 0.51588 0.23274 0.0
H818 H 0.4864 0.89853 0.49895 0.0
H819 H 0.51073 0.93907 0.5109 0.0
H820 H 0.46422 0.95512 0.46946 0.0
H821 H 0.43993 0.91493 0.45755 0.0
H822 H 0.50901 0.98519 0.45643 0.0
H823 H 0.46286 0.95156 0.53666 0.0
H824 H 0.44771 0.92441 0.57485 0.0
H825 H 0.51596 0.94939 0.60463 0.0
H826 H 0.53153 0.9765 0.56639 0.0
H827 H 0.52864 0.08318 0.5529 0.0
H828 H 0.51068 0.04295 0.5403 0.0
H829 H 0.57151 0.05621 0.49665 0.0
H830 H 0.58975 0.09683 0.50919 0.0
H831 H 0.52306 0.01135 0.55209 0.0
H832 H 0.55299 0.01838 0.44178 0.0
H833 H 0.56562 0.0456 0.40357 0.0
H834 H 0.52551 0.07405 0.43408 0.0
H835 H 0.51244 0.04682 0.47224 0.0
C836 C 0.48134 0.91071 0.4925 0.0
C837 C 0.46119 0.90349 0.47739 0.0
C838 C 0.49526 0.93384 0.49931 0.0
C839 C 0.48928 0.95009 0.49101 0.0
C840 C 0.46922 0.94289 0.47591 0.0
C841 C 0.45527 0.91985 0.46929 0.0
C842 C 0.50357 0.97463 0.49827 0.0
C843 C 0.51228 0.99091 0.47735 0.0
C844 C 0.50771 0.9821 0.52553 0.0
C845 C 0.49837 0.96584 0.54851 0.0
C846 C 0.47464 0.95111 0.55123 0.0
C847 C 0.46598 0.93577 0.5729 0.0
C848 C 0.48087 0.93512 0.59211 0.0
C849 C 0.50445 0.94987 0.58971 0.0
C850 C 0.51321 0.96524 0.56805 0.0
C851 C 0.53823 0.07765 0.5405 0.0
C852 C 0.56063 0.09325 0.53199 0.0
C853 C 0.52796 0.05458 0.53346 0.0
C854 C 0.53974 0.04656 0.5176 0.0
C855 C 0.56207 0.06207 0.50882 0.0
C856 C 0.57244 0.08526 0.51597 0.0
C857 C 0.52833 0.02194 0.51026 0.0
C858 C 0.52018 0.00563 0.53116 0.0
C859 C 0.52446 0.01445 0.48299 0.0
C860 C 0.53199 0.03076 0.46002 0.0
C861 C 0.54685 0.03042 0.44028 0.0
C862 C 0.55407 0.04585 0.41864 0.0
C863 C 0.54644 0.0616 0.41646 0.0
C864 C 0.53149 0.06191 0.43586 0.0
C865 C 0.5242 0.0465 0.45751 0.0
H866 H 0.55207 0.07354 0.39971 0.0
H867 H 0.47413 0.92323 0.60888 0.0
H868 H 0.44176 0.52468 0.70539 0.0
H869 H 0.4652 0.50755 0.69461 0.0
H870 H 0.52387 0.57477 0.68296 0.0
H871 H 0.50004 0.59202 0.6926 0.0
H872 H 0.52511 0.54707 0.64718 0.0
H873 H 0.51553 0.54335 0.74288 0.0
H874 H 0.49468 0.53499 0.78623 0.0
H875 H 0.45798 0.46339 0.76667 0.0
H876 H 0.47838 0.47136 0.72301 0.0
H877 H 0.59845 0.49773 0.65403 0.0
H878 H 0.58092 0.52078 0.66663 0.0
H879 H 0.5142 0.46015 0.66547 0.0
H880 H 0.53145 0.43714 0.65268 0.0
H881 H 0.52175 0.48851 0.71078 0.0
H882 H 0.53057 0.49445 0.61277 0.0
H883 H 0.55299 0.50406 0.57048 0.0
H884 H 0.59394 0.5737 0.59702 0.0
H885 H 0.57194 0.5644 0.63966 0.0
C886 C 0.45961 0.53583 0.70028 0.0
C887 C 0.46912 0.5597 0.70004 0.0
C888 C 0.47306 0.52602 0.69433 0.0
C889 C 0.49652 0.53986 0.68877 0.0
C890 C 0.50588 0.56372 0.68742 0.0
C891 C 0.49226 0.57356 0.6929 0.0
C892 C 0.51111 0.52927 0.6848 0.0
C893 C 0.52468 0.53458 0.66138 0.0
C894 C 0.5106 0.51289 0.70323 0.0
C895 C 0.49839 0.50799 0.72957 0.0
C896 C 0.50292 0.52584 0.74774 0.0
C897 C 0.49119 0.52117 0.77238 0.0
C898 C 0.47499 0.49868 0.77918 0.0
C899 C 0.47052 0.48081 0.76137 0.0
C900 C 0.48219 0.48539 0.73669 0.0
C901 C 0.58007 0.48931 0.65674 0.0
C902 C 0.56631 0.46563 0.6523 0.0
C903 C 0.57009 0.5025 0.6638 0.0
C904 C 0.54625 0.49218 0.66678 0.0
C905 C 0.53262 0.46845 0.66324 0.0
C906 C 0.54251 0.45534 0.65588 0.0
C907 C 0.53519 0.50594 0.67296 0.0
C908 C 0.52236 0.50123 0.69684 0.0
C909 C 0.53667 0.52308 0.65519 0.0
C910 C 0.5498 0.52867 0.62952 0.0
C911 C 0.54448 0.51176 0.60969 0.0
C912 C 0.55709 0.51716 0.58564 0.0
C913 C 0.57493 0.53946 0.58111 0.0
C914 C 0.58015 0.55642 0.60058 0.0
C915 C 0.56761 0.5511 0.62469 0.0
H916 H 0.58467 0.54361 0.56247 0.0
H917 H 0.46592 0.4951 0.79826 0.0
H918 H 0.08917 0.52468 0.80854 0.0
H919 H 0.04868 0.50814 0.8193 0.0
H920 H 0.05769 0.57586 0.82753 0.0
H921 H 0.09866 0.59256 0.81776 0.0
H922 H 0.02896 0.5492 0.86445 0.0
H923 H 0.03427 0.54299 0.76904 0.0
H924 H 0.04642 0.53336 0.72625 0.0
H925 H 0.01111 0.46228 0.74823 0.0
H926 H 0.99901 0.47152 0.79134 0.0
H927 H 0.90668 0.50128 0.858 0.0
H928 H 0.94705 0.52337 0.84435 0.0
H929 H 0.95232 0.46234 0.8492 0.0
H930 H 0.91226 0.44031 0.86311 0.0
H931 H 0.97313 0.48935 0.80246 0.0
H932 H 0.97093 0.49773 0.9001 0.0
H933 H 0.95849 0.50847 0.94188 0.0
H934 H 0.98744 0.57752 0.91314 0.0
H935 H 0.99978 0.56708 0.87099 0.0
C936 C 0.0826 0.53608 0.81289 0.0
C937 C 0.09706 0.55993 0.81211 0.0
C938 C 0.05938 0.52659 0.81884 0.0
C939 C 0.04993 0.54072 0.82346 0.0
C940 C 0.06452 0.56459 0.8238 0.0
C941 C 0.08793 0.57412 0.81826 0.0
C942 C 0.0248 0.53042 0.82751 0.0
C943 C 0.01678 0.53643 0.85059 0.0
C944 C 0.00877 0.51366 0.80953 0.0
C945 C 0.01587 0.50798 0.78352 0.0
C946 C 0.02922 0.52532 0.76483 0.0
C947 C 0.03608 0.51993 0.7405 0.0
C948 C 0.02958 0.49723 0.73454 0.0
C949 C 0.01614 0.47986 0.75288 0.0
C950 C 0.00925 0.48516 0.77725 0.0
C951 C 0.91639 0.49255 0.85581 0.0
C952 C 0.90633 0.46908 0.8617 0.0
C953 C 0.93945 0.50519 0.84816 0.0
C954 C 0.95269 0.4945 0.84597 0.0
C955 C 0.94241 0.47091 0.85079 0.0
C956 C 0.91953 0.45837 0.85879 0.0
C957 C 0.97748 0.50781 0.83959 0.0
C958 C 0.98538 0.50236 0.81605 0.0
C959 C 0.99333 0.52528 0.8569 0.0
C960 C 0.98602 0.53156 0.88228 0.0
C961 C 0.97446 0.51515 0.90259 0.0
C962 C 0.96747 0.52119 0.92636 0.0
C963 C 0.97211 0.54365 0.93012 0.0
C964 C 0.98382 0.56012 0.91017 0.0
C965 C 0.99082 0.55416 0.88635 0.0
H966 H 0.96668 0.54829 0.94854 0.0
H967 H 0.03491 0.49309 0.7157 0.0
H968 H 0.51085 0.09955 0.99733 0.0
H969 H 0.48886 0.05932 0.01147 0.0
H970 H 0.52361 0.04142 0.95123 0.0
H971 H 0.54541 0.08123 0.93698 0.0
H972 H 0.47828 0.01132 0.95102 0.0
H973 H 0.53929 0.04702 0.01701 0.0
H974 H 0.56197 0.07515 0.05239 0.0
H975 H 0.50181 0.05118 0.1017 0.0
H976 H 0.47872 0.02309 0.06642 0.0
H977 H 0.47776 0.9165 0.03953 0.0
H978 H 0.4929 0.95631 0.02648 0.0
H979 H 0.42571 0.94092 1.00008 0.0
H980 H 0.41039 0.90071 0.01279 0.0
H981 H 0.48365 0.98783 0.04472 0.0
H982 H 0.43276 0.97757 0.94723 0.0
H983 H 0.41306 0.9494 0.91073 0.0
H984 H 0.45802 0.92226 0.92262 0.0
H985 H 0.47814 0.95043 0.95894 0.0
C986 C 0.51381 0.08702 0.98716 0.0
C987 C 0.52994 0.09361 0.9661 0.0
C988 C 0.50123 0.06406 0.99525 0.0
C989 C 0.50461 0.04737 0.98239 0.0
C990 C 0.52061 0.05396 0.96132 0.0
C991 C 0.53318 0.0768 0.95332 0.0
C992 C 0.49197 0.02304 0.99102 0.0
C993 C 0.47927 0.00618 0.97158 0.0
C994 C 0.49339 0.01631 0.01776 0.0
C995 C 0.50724 0.03317 0.03896 0.0
C996 C 0.53087 0.04789 0.0353 0.0
C997 C 0.5438 0.06379 0.05535 0.0
C998 C 0.53332 0.065 0.07924 0.0
C999 C 0.50989 0.05026 0.08316 0.0
C1000 C 0.49688 0.03434 0.06315 0.0
C1001 C 0.46616 0.92149 0.03082 0.0
C1002 C 0.44286 0.90539 0.02713 0.0
C1003 C 0.47485 0.94432 0.02351 0.0
C1004 C 0.46048 0.95164 0.0123 0.0
C1005 C 0.43718 0.93563 0.00848 0.0
C1006 C 0.42845 0.91266 0.01574 0.0
C1007 C 0.4702 0.97606 1.00462 0.0
C1008 C 0.4823 0.99295 0.02427 0.0
C1009 C 0.46855 0.9828 0.97795 0.0
C1010 C 0.45674 0.96591 0.956 0.0
C1011 C 0.43846 0.96561 0.942 0.0
C1012 C 0.42722 0.94965 0.92135 0.0
C1013 C 0.43423 0.93399 0.91443 0.0
C1014 C 0.45255 0.93433 0.92808 0.0
C1015 C 0.46385 0.95027 0.94872 0.0
H1016 H 0.4255 0.92164 0.89846 0.0
H1017 H 0.54336 0.07732 0.09474 0.0
H1018 H 0.40588 0.50136 0.14577 0.0
H1019 H 0.4243 0.47903 0.15735 0.0
H1020 H 0.49054 0.54028 0.15261 0.0
H1021 H 0.47228 0.56228 0.13983 0.0
H1022 H 0.49256 0.5088 0.12665 0.0
H1023 H 0.46294 0.51185 0.21459 0.0
H1024 H 0.43314 0.50625 0.24766 0.0
H1025 H 0.39729 0.43405 0.23146 0.0
H1026 H 0.42675 0.43926 0.19804 0.0
H1027 H 0.56386 0.47827 0.19817 0.0
H1028 H 0.53981 0.49403 0.18431 0.0
H1029 H 0.48244 0.42581 0.17444 0.0
H1030 H 0.50658 0.40978 0.18818 0.0
H1031 H 0.47264 0.45616 0.20495 0.0
H1032 H 0.50574 0.45416 0.11971 0.0
H1033 H 0.53719 0.4611 0.0886 0.0
H1034 H 0.5683 0.53346 0.10211 0.0
H1035 H 0.53721 0.52694 0.13362 0.0
C1036 C 0.42435 0.51005 0.14759 0.0
C1037 C 0.43766 0.53354 0.14186 0.0
C1038 C 0.43488 0.49729 0.15426 0.0
C1039 C 0.45887 0.50793 0.15599 0.0
C1040 C 0.47204 0.53158 0.15121 0.0
C1041 C 0.46158 0.54419 0.14403 0.0
C1042 C 0.47056 0.49454 0.16146 0.0
C1043 C 0.4883 0.4975 0.14398 0.0
C1044 C 0.46461 0.47914 0.18352 0.0
C1045 C 0.44691 0.47599 0.2036 0.0
C1046 C 0.44861 0.49481 0.21793 0.0
C1047 C 0.4318 0.4917 0.23676 0.0
C1048 C 0.4133 0.46982 0.24159 0.0
C1049 C 0.41161 0.45099 0.22766 0.0
C1050 C 0.42836 0.45401 0.20879 0.0
C1051 C 0.54618 0.46657 0.19284 0.0
C1052 C 0.53713 0.44276 0.1942 0.0
C1053 C 0.53246 0.47562 0.1849 0.0
C1054 C 0.50937 0.46109 0.17827 0.0
C1055 C 0.50024 0.4373 0.17947 0.0
C1056 C 0.51407 0.42818 0.18714 0.0
C1057 C 0.49492 0.47105 0.1706 0.0
C1058 C 0.47667 0.46736 0.18755 0.0
C1059 C 0.50057 0.48604 0.14828 0.0
C1060 C 0.51921 0.49004 0.12918 0.0
C1061 C 0.51938 0.47154 0.11621 0.0
C1062 C 0.53712 0.47541 0.09847 0.0
C1063 C 0.55475 0.49771 0.09342 0.0
C1064 C 0.55464 0.5162 0.10605 0.0
C1065 C 0.53694 0.51243 0.12382 0.0
H1066 H 0.56848 0.50066 0.07969 0.0
H1067 H 0.4003 0.46745 0.25618 0.0
H1068 H 0.19198 0.53143 0.31508 0.0
H1069 H 0.21164 0.52454 0.27767 0.0
H1070 H 0.26777 0.53818 0.33097 0.0
H1071 H 0.24855 0.54576 0.3681 0.0
H1072 H 0.28412 0.56131 0.28736 0.0
H1073 H 0.22924 0.48313 0.30498 0.0
H1074 H 0.19096 0.44956 0.31218 0.0
H1075 H 0.17085 0.45719 0.23207 0.0
H1076 H 0.20893 0.49101 0.2245 0.0
H1077 H 0.34441 0.53219 0.1934 0.0
H1078 H 0.31954 0.52647 0.23232 0.0
H1079 H 0.27025 0.52958 0.17957 0.0
H1080 H 0.29514 0.53562 0.14059 0.0
H1081 H 0.25044 0.49593 0.22319 0.0
H1082 H 0.30513 0.57596 0.20798 0.0
H1083 H 0.34394 0.6088 0.20114 0.0
H1084 H 0.36468 0.59624 0.2785 0.0
H1085 H 0.32605 0.56307 0.2856 0.0
C1086 C 0.20833 0.53256 0.31893 0.0
C1087 C 0.21872 0.53922 0.34457 0.0
C1088 C 0.21955 0.52855 0.29751 0.0
C1089 C 0.24123 0.53072 0.3014 0.0
C1090 C 0.25115 0.53648 0.32732 0.0
C1091 C 0.24008 0.54074 0.3486 0.0
C1092 C 0.25436 0.52875 0.27817 0.0
C1093 C 0.27679 0.54675 0.27372 0.0
C1094 C 0.24481 0.51006 0.25981 0.0
C1095 C 0.22188 0.48975 0.26428 0.0
C1096 C 0.21659 0.47777 0.28897 0.0
C1097 C 0.19494 0.45867 0.2931 0.0
C1098 C 0.17846 0.45128 0.27262 0.0
C1099 C 0.18363 0.46295 0.24793 0.0
C1100 C 0.20525 0.48207 0.2437 0.0
C1101 C 0.32803 0.53109 0.18996 0.0
C1102 C 0.32183 0.53451 0.1639 0.0
C1103 C 0.31387 0.52789 0.21225 0.0
C1104 C 0.29314 0.5278 0.20886 0.0
C1105 C 0.28615 0.52957 0.18263 0.0
C1106 C 0.30044 0.53309 0.16039 0.0
C1107 C 0.28001 0.52834 0.2328 0.0
C1108 C 0.25767 0.51025 0.23718 0.0
C1109 C 0.28964 0.54683 0.2513 0.0
C1110 C 0.31279 0.56689 0.24718 0.0
C1111 C 0.31802 0.58008 0.22343 0.0
C1112 C 0.33998 0.59877 0.21952 0.0
C1113 C 0.35679 0.60456 0.23934 0.0
C1114 C 0.35165 0.59171 0.26314 0.0
C1115 C 0.32973 0.57297 0.26712 0.0
H1116 H 0.37377 0.61904 0.23628 0.0
H1117 H 0.16171 0.43649 0.27586 0.0
H1118 H 0.76428 0.29911 0.30752 0.0
H1119 H 0.74477 0.2712 0.34362 0.0
H1120 H 0.79027 0.31996 0.40262 0.0
H1121 H 0.81055 0.34747 0.36637 0.0
H1122 H 0.78026 0.27971 0.41888 0.0
H1123 H 0.73504 0.31184 0.38719 0.0
H1124 H 0.71468 0.32202 0.35339 0.0
H1125 H 0.67108 0.25098 0.33408 0.0
H1126 H 0.69139 0.24039 0.36754 0.0
H1127 H 0.70464 0.24396 0.53318 0.0
H1128 H 0.73052 0.2633 0.49527 0.0
H1129 H 0.68756 0.20678 0.4428 0.0
H1130 H 0.66155 0.18726 0.48072 0.0
H1131 H 0.69624 0.24808 0.42216 0.0
H1132 H 0.74044 0.21692 0.4597 0.0
H1133 H 0.76074 0.20892 0.4958 0.0
H1134 H 0.80613 0.28097 0.50708 0.0
H1135 H 0.7859 0.28942 0.4713 0.0
C1136 C 0.77045 0.30369 0.32812 0.0
C1137 C 0.78888 0.32557 0.33408 0.0
C1138 C 0.75914 0.28778 0.34883 0.0
C1139 C 0.76551 0.29362 0.37609 0.0
C1140 C 0.78484 0.31498 0.38186 0.0
C1141 C 0.79648 0.33073 0.36106 0.0
C1142 C 0.75125 0.27822 0.3986 0.0
C1143 C 0.76191 0.27295 0.41965 0.0
C1144 C 0.7272 0.26904 0.39967 0.0
C1145 C 0.71489 0.27535 0.37964 0.0
C1146 C 0.72121 0.2984 0.37561 0.0
C1147 C 0.70967 0.30424 0.35653 0.0
C1148 C 0.69164 0.28716 0.34154 0.0
C1149 C 0.68507 0.26419 0.34566 0.0
C1150 C 0.69658 0.25826 0.36469 0.0
C1151 C 0.70093 0.23539 0.51373 0.0
C1152 C 0.68097 0.21403 0.51002 0.0
C1153 C 0.7158 0.24647 0.49204 0.0
C1154 C 0.71106 0.23651 0.46612 0.0
C1155 C 0.69161 0.21481 0.4626 0.0
C1156 C 0.67681 0.2036 0.48435 0.0
C1157 C 0.72525 0.24962 0.44237 0.0
C1158 C 0.71455 0.25459 0.42118 0.0
C1159 C 0.74927 0.25884 0.4415 0.0
C1160 C 0.76153 0.2538 0.46295 0.0
C1161 C 0.75464 0.23107 0.47002 0.0
C1162 C 0.76615 0.22645 0.4904 0.0
C1163 C 0.78468 0.24443 0.50377 0.0
C1164 C 0.79177 0.26706 0.49673 0.0
C1165 C 0.7803 0.27177 0.47637 0.0
H1166 H 0.79357 0.24082 0.51954 0.0
H1167 H 0.68273 0.29172 0.32678 0.0
H1168 H 0.46847 0.65927 0.64401 0.0
H1169 H 0.47551 0.68695 0.60804 0.0
H1170 H 0.46367 0.72875 0.66467 0.0
H1171 H 0.45574 0.70067 0.70033 0.0
H1172 H 0.44011 0.72379 0.62251 0.0
H1173 H 0.51831 0.74492 0.63559 0.0
H1174 H 0.55151 0.73918 0.64007 0.0
H1175 H 0.54065 0.71233 0.55912 0.0
H1176 H 0.50718 0.71763 0.55427 0.0
H1177 H 0.46664 0.81316 0.5298 0.0
H1178 H 0.47406 0.79422 0.56757 0.0
H1179 H 0.46784 0.74114 0.51358 0.0
H1180 H 0.46013 0.7598 0.47577 0.0
H1181 H 0.50311 0.75455 0.55511 0.0
H1182 H 0.42278 0.73088 0.54491 0.0
H1183 H 0.39042 0.73799 0.54077 0.0
H1184 H 0.40702 0.77152 0.61824 0.0
H1185 H 0.43974 0.76492 0.62262 0.0
C1186 C 0.46784 0.67459 0.64891 0.0
C1187 C 0.46148 0.67773 0.67501 0.0
C1188 C 0.47194 0.6905 0.62831 0.0
C1189 C 0.47025 0.71013 0.63352 0.0
C1190 C 0.46498 0.71375 0.65998 0.0
C1191 C 0.46054 0.69771 0.68042 0.0
C1192 C 0.47196 0.72579 0.61109 0.0
C1193 C 0.4542 0.73084 0.60819 0.0
C1194 C 0.48999 0.73471 0.59183 0.0
C1195 C 0.5101 0.73149 0.59466 0.0
C1196 C 0.52289 0.73762 0.61882 0.0
C1197 C 0.54178 0.73448 0.62141 0.0
C1198 C 0.54815 0.72535 0.59992 0.0
C1199 C 0.53568 0.71939 0.57576 0.0
C1200 C 0.51676 0.72248 0.57307 0.0
C1201 C 0.46746 0.7978 0.52579 0.0
C1202 C 0.46263 0.7879 0.4998 0.0
C1203 C 0.47163 0.78695 0.54744 0.0
C1204 C 0.47129 0.76616 0.54343 0.0
C1205 C 0.46821 0.75718 0.51712 0.0
C1206 C 0.46374 0.76784 0.49555 0.0
C1207 C 0.47143 0.75246 0.56695 0.0
C1208 C 0.48932 0.74768 0.56983 0.0
C1209 C 0.45366 0.74391 0.58641 0.0
C1210 C 0.43385 0.74764 0.58394 0.0
C1211 C 0.41964 0.73993 0.56095 0.0
C1212 C 0.40122 0.74384 0.55858 0.0
C1213 C 0.39671 0.75526 0.57919 0.0
C1214 C 0.41057 0.76272 0.60226 0.0
C1215 C 0.42905 0.75889 0.60471 0.0
H1216 H 0.38244 0.75827 0.57732 0.0
H1217 H 0.56278 0.72293 0.60197 0.0
H1218 H 0.7687 0.47634 0.8717 0.0
H1219 H 0.7486 0.48246 0.83433 0.0
H1220 H 0.79437 0.47753 0.77718 0.0
H1221 H 0.8151 0.47227 0.81463 0.0
H1222 H 0.78349 0.50738 0.75899 0.0
H1223 H 0.74059 0.43081 0.79317 0.0
H1224 H 0.72114 0.40094 0.8279 0.0
H1225 H 0.67538 0.42633 0.84496 0.0
H1226 H 0.69478 0.45656 0.81056 0.0
H1227 H 0.70794 0.46548 0.64471 0.0
H1228 H 0.73412 0.47295 0.68254 0.0
H1229 H 0.6893 0.48352 0.73539 0.0
H1230 H 0.66291 0.47593 0.6976 0.0
H1231 H 0.69988 0.45299 0.75638 0.0
H1232 H 0.7421 0.52802 0.71747 0.0
H1233 H 0.76166 0.55606 0.68094 0.0
H1234 H 0.80865 0.5312 0.67035 0.0
H1235 H 0.78918 0.50278 0.70658 0.0
C1236 C 0.7748 0.47704 0.85122 0.0
C1237 C 0.79343 0.47366 0.84617 0.0
C1238 C 0.76316 0.48036 0.8298 0.0
C1239 C 0.76949 0.47983 0.80276 0.0
C1240 C 0.78899 0.47788 0.79778 0.0
C1241 C 0.80087 0.4749 0.81926 0.0
C1242 C 0.75499 0.47979 0.77979 0.0
C1243 C 0.76524 0.49536 0.75834 0.0
C1244 C 0.73107 0.46432 0.77891 0.0
C1245 C 0.71929 0.44609 0.7995 0.0
C1246 C 0.72648 0.43011 0.80446 0.0
C1247 C 0.71545 0.41311 0.82407 0.0
C1248 C 0.69707 0.41177 0.83868 0.0
C1249 C 0.68964 0.42741 0.83366 0.0
C1250 C 0.70064 0.44447 0.8141 0.0
C1251 C 0.70385 0.46988 0.66423 0.0
C1252 C 0.68326 0.47008 0.66806 0.0
C1253 C 0.71891 0.47421 0.68589 0.0
C1254 C 0.71377 0.47887 0.7119 0.0
C1255 C 0.69367 0.47997 0.71554 0.0
C1256 C 0.67864 0.47575 0.69384 0.0
C1257 C 0.72832 0.48064 0.73564 0.0
C1258 C 0.71808 0.46522 0.75717 0.0
C1259 C 0.75225 0.496 0.73632 0.0
C1260 C 0.76406 0.51314 0.71461 0.0
C1261 C 0.7565 0.52841 0.70722 0.0
C1262 C 0.76759 0.54439 0.68659 0.0
C1263 C 0.78636 0.54537 0.67329 0.0
C1264 C 0.79411 0.53041 0.68065 0.0
C1265 C 0.78306 0.51438 0.70126 0.0
H1266 H 0.79492 0.55776 0.65732 0.0
H1267 H 0.68856 0.3986 0.85385 0.0
H1268 H 0.34347 0.81056 0.97766 0.0
H1269 H 0.31528 0.79 0.94212 0.0
H1270 H 0.27375 0.73686 0.99924 0.0
H1271 H 0.30224 0.75697 0.03453 0.0
H1272 H 0.27909 0.71813 0.957 0.0
H1273 H 0.25697 0.77435 0.97019 0.0
H1274 H 0.26203 0.813 0.97478 0.0
H1275 H 0.2885 0.82926 0.89372 0.0
H1276 H 0.2839 0.79079 0.88876 0.0
H1277 H 0.18976 0.65472 0.864 0.0
H1278 H 0.20852 0.68119 0.90178 0.0
H1279 H 0.26199 0.72773 0.84809 0.0
H1280 H 0.24356 0.70121 0.81029 0.0
H1281 H 0.2476 0.74956 0.8895 0.0
H1282 H 0.27274 0.69396 0.87946 0.0
H1283 H 0.26639 0.65478 0.87527 0.0
H1284 H 0.23236 0.63722 0.9524 0.0
H1285 H 0.23818 0.67624 0.95682 0.0
C1286 C 0.32807 0.79477 0.9828 0.0
C1287 C 0.32516 0.78536 0.00891 0.0
C1288 C 0.31188 0.78301 0.96243 0.0
C1289 C 0.29224 0.7618 0.96788 0.0
C1290 C 0.28876 0.75308 0.99439 0.0
C1291 C 0.30505 0.76467 0.01462 0.0
C1292 C 0.27656 0.74766 0.94556 0.0
C1293 C 0.27186 0.72498 0.94266 0.0
C1294 C 0.26743 0.75656 0.9263 0.0
C1295 C 0.27028 0.77974 0.92919 0.0
C1296 C 0.26405 0.78622 0.95342 0.0
C1297 C 0.2668 0.80809 0.95607 0.0
C1298 C 0.27563 0.8236 0.93458 0.0
C1299 C 0.28168 0.81724 0.91036 0.0
C1300 C 0.27898 0.79539 0.9076 0.0
C1301 C 0.20518 0.67084 0.86006 0.0
C1302 C 0.21525 0.67579 0.83417 0.0
C1303 C 0.21592 0.68593 0.8817 0.0
C1304 C 0.23673 0.70634 0.87777 0.0
C1305 C 0.24592 0.7121 0.85155 0.0
C1306 C 0.23539 0.69687 0.83 0.0
C1307 C 0.25023 0.72029 0.90133 0.0
C1308 C 0.25463 0.74283 0.90424 0.0
C1309 C 0.25897 0.71129 0.92083 0.0
C1310 C 0.25565 0.68791 0.91831 0.0
C1311 C 0.26372 0.68168 0.89541 0.0
C1312 C 0.26025 0.65952 0.89301 0.0
C1313 C 0.24892 0.6435 0.91352 0.0
C1314 C 0.24109 0.64963 0.93651 0.0
C1315 C 0.24448 0.67177 0.93897 0.0
H1316 H 0.24625 0.62635 0.91163 0.0
H1317 H 0.27774 0.84052 0.93668 0.0
H1318 H 0.53925 0.30201 0.20323 0.0
H1319 H 0.53269 0.27518 0.16639 0.0
H1320 H 0.53384 0.32375 0.10866 0.0
H1321 H 0.53938 0.35023 0.14565 0.0
H1322 H 0.50479 0.28295 0.09171 0.0
H1323 H 0.58227 0.31835 0.12315 0.0
H1324 H 0.61325 0.3299 0.15668 0.0
H1325 H 0.58972 0.25934 0.1749 0.0
H1326 H 0.55839 0.24738 0.14173 0.0
H1327 H 0.54834 0.25103 0.97693 0.0
H1328 H 0.54151 0.26991 0.01525 0.0
H1329 H 0.52671 0.21232 0.06631 0.0
H1330 H 0.53319 0.19313 0.0279 0.0
H1331 H 0.56029 0.25509 0.08739 0.0
H1332 H 0.48444 0.22084 0.05052 0.0
H1333 H 0.45567 0.2116 0.01466 0.0
H1334 H 0.47918 0.2831 1.00362 0.0
H1335 H 0.50833 0.2928 0.03916 0.0
C1336 C 0.53763 0.30679 0.18275 0.0
C1337 C 0.53999 0.32834 0.17738 0.0
C1338 C 0.53407 0.29149 0.16162 0.0
C1339 C 0.53343 0.29762 0.13453 0.0
C1340 C 0.53441 0.31859 0.1293 0.0
C1341 C 0.53755 0.33374 0.15051 0.0
C1342 C 0.53319 0.28291 0.11167 0.0
C1343 C 0.51706 0.27704 0.09071 0.0
C1344 C 0.54899 0.27485 0.11029 0.0
C1345 C 0.56785 0.28198 0.13019 0.0
C1346 C 0.58361 0.3053 0.13445 0.0
C1347 C 0.60124 0.31192 0.15337 0.0
C1348 C 0.60341 0.29537 0.16797 0.0
C1349 C 0.58799 0.27215 0.16362 0.0
C1350 C 0.5703 0.26544 0.14475 0.0
C1351 C 0.54322 0.24218 0.99618 0.0
C1352 C 0.5413 0.22055 0.99933 0.0
C1353 C 0.53927 0.25299 0.01807 0.0
C1354 C 0.53356 0.24254 0.04368 0.0
C1355 C 0.53106 0.22069 0.04674 0.0
C1356 C 0.53465 0.20969 0.02472 0.0
C1357 C 0.53194 0.25518 0.06757 0.0
C1358 C 0.54785 0.26079 0.08861 0.0
C1359 C 0.51626 0.26334 0.0687 0.0
C1360 C 0.49871 0.25755 0.04736 0.0
C1361 C 0.48362 0.23461 0.04029 0.0
C1362 C 0.46721 0.22929 0.02005 0.0
C1363 C 0.46563 0.24676 0.00682 0.0
C1364 C 0.48043 0.26959 0.01386 0.0
C1365 C 0.49688 0.275 0.03408 0.0
H1366 H 0.45292 0.2426 0.99116 0.0
H1367 H 0.61707 0.30052 0.1826 0.0
loop_
_geom_bond_atom_site_label_1
_geom_bond_atom_site_label_2
_geom_bond_distance
_geom_bond_site_symmetry_2
_ccdc_geom_bond_type
O0 Cd1 2.223 . S
O0 C8 1.315 . S
Cd1 O0 2.223 . S
Cd1 O4 2.297 . S
Cd1 O5 2.439 . S
Cd1 O11 2.240 . S
Cd2 O3 2.240 . S
Cd2 O10 2.223 . S
Cd2 O12 2.297 . S
Cd2 O13 2.439 . S
O3 Cd2 2.240 . S
O3 C8 1.279 . S
O4 Cd1 2.297 . S
O4 C6 1.247 . S
O5 Cd1 2.439 . S
O5 C6 1.208 . S
C6 O4 1.247 . S
C6 O5 1.208 . S
C7 O12 1.247 . S
C7 O13 1.208 . S
C8 O0 1.315 . S
C8 O3 1.279 . S
C9 O10 1.315 . S
C9 O11 1.279 . S
O10 Cd2 2.223 . S
O10 C9 1.315 . S
O11 Cd1 2.240 . S
O11 C9 1.279 . S
O12 Cd2 2.297 . S
O12 C7 1.247 . S
O13 Cd2 2.439 . S
O13 C7 1.208 . S
O14 Cd15 2.223 . S
O14 C22 1.315 . S
Cd15 O14 2.223 . S
Cd15 O18 2.297 . S
Cd15 O19 2.439 . S
Cd15 O25 2.240 . S
Cd16 O17 2.240 . S
Cd16 O24 2.223 . S
Cd16 O26 2.297 . S
Cd16 O27 2.439 . S
O17 Cd16 2.240 . S
O17 C22 1.279 . S
O18 Cd15 2.297 . S
O18 C20 1.247 . S
O19 Cd15 2.439 . S
O19 C20 1.208 . S
C20 O18 1.247 . S
C20 O19 1.208 . S
C21 O26 1.247 . S
C21 O27 1.208 . S
C22 O14 1.315 . S
C22 O17 1.279 . S
C23 O24 1.315 . S
C23 O25 1.279 . S
O24 Cd16 2.223 . S
O24 C23 1.315 . S
O25 Cd15 2.240 . S
O25 C23 1.279 . S
O26 Cd16 2.297 . S
O26 C21 1.247 . S
O27 Cd16 2.439 . S
O27 C21 1.208 . S
O28 Cd29 2.223 . S
O28 C36 1.315 . S
Cd29 O28 2.223 . S
Cd29 O32 2.297 . S
Cd29 O33 2.439 . S
Cd29 O39 2.240 . S
Cd30 O31 2.240 . S
Cd30 O38 2.223 . S
Cd30 O40 2.297 . S
Cd30 O41 2.439 . S
O31 Cd30 2.240 . S
O31 C36 1.279 . S
O32 Cd29 2.297 . S
O32 C34 1.247 . S
O33 Cd29 2.439 . S
O33 C34 1.208 . S
C34 O32 1.247 . S
C34 O33 1.208 . S
C35 O40 1.247 . S
C35 O41 1.208 . S
C36 O28 1.315 . S
C36 O31 1.279 . S
C37 O38 1.315 . S
C37 O39 1.279 . S
O38 Cd30 2.223 . S
O38 C37 1.315 . S
O39 Cd29 2.240 . S
O39 C37 1.279 . S
O40 Cd30 2.297 . S
O40 C35 1.247 . S
O41 Cd30 2.439 . S
O41 C35 1.208 . S
O42 Cd43 2.223 . S
O42 C50 1.315 . S
Cd43 O42 2.223 . S
Cd43 O46 2.297 . S
Cd43 O47 2.439 . S
Cd43 O53 2.240 . S
Cd44 O45 2.240 . S
Cd44 O52 2.223 . S
Cd44 O54 2.297 . S
Cd44 O55 2.439 . S
O45 Cd44 2.240 . S
O45 C50 1.279 . S
O46 Cd43 2.297 . S
O46 C48 1.247 . S
O47 Cd43 2.439 . S
O47 C48 1.208 . S
C48 O46 1.247 . S
C48 O47 1.208 . S
C49 O54 1.247 . S
C49 O55 1.208 . S
C50 O42 1.315 . S
C50 O45 1.279 . S
C51 O52 1.315 . S
C51 O53 1.279 . S
O52 Cd44 2.223 . S
O52 C51 1.315 . S
O53 Cd43 2.240 . S
O53 C51 1.279 . S
O54 Cd44 2.297 . S
O54 C49 1.247 . S
O55 Cd44 2.439 . S
O55 C49 1.208 . S
O56 Cd57 2.223 . S
O56 C64 1.315 . S
Cd57 O56 2.223 . S
Cd57 O60 2.297 . S
Cd57 O61 2.439 . S
Cd57 O67 2.240 . S
Cd58 O59 2.240 . S
Cd58 O66 2.223 . S
Cd58 O68 2.297 . S
Cd58 O69 2.439 . S
O59 Cd58 2.240 . S
O59 C64 1.279 . S
O60 Cd57 2.297 . S
O60 C62 1.247 . S
O61 Cd57 2.439 . S
O61 C62 1.208 . S
C62 O60 1.247 . S
C62 O61 1.208 . S
C63 O68 1.247 . S
C63 O69 1.208 . S
C64 O56 1.315 . S
C64 O59 1.279 . S
C65 O66 1.315 . S
C65 O67 1.279 . S
O66 Cd58 2.223 . S
O66 C65 1.315 . S
O67 Cd57 2.240 . S
O67 C65 1.279 . S
O68 Cd58 2.297 . S
O68 C63 1.247 . S
O69 Cd58 2.439 . S
O69 C63 1.208 . S
O70 Cd71 2.223 . S
O70 C78 1.315 . S
Cd71 O70 2.223 . S
Cd71 O74 2.297 . S
Cd71 O75 2.439 . S
Cd71 O81 2.240 . S
Cd72 O73 2.240 . S
Cd72 O80 2.223 . S
Cd72 O82 2.297 . S
Cd72 O83 2.439 . S
O73 Cd72 2.240 . S
O73 C78 1.279 . S
O74 Cd71 2.297 . S
O74 C76 1.247 . S
O75 Cd71 2.439 . S
O75 C76 1.208 . S
C76 O74 1.247 . S
C76 O75 1.208 . S
C77 O82 1.247 . S
C77 O83 1.208 . S
C78 O70 1.315 . S
C78 O73 1.279 . S
C79 O80 1.315 . S
C79 O81 1.279 . S
O80 Cd72 2.223 . S
O80 C79 1.315 . S
O81 Cd71 2.240 . S
O81 C79 1.279 . S
O82 Cd72 2.297 . S
O82 C77 1.247 . S
O83 Cd72 2.439 . S
O83 C77 1.208 . S
O84 Cd85 2.223 . S
O84 C92 1.315 . S
Cd85 O84 2.223 . S
Cd85 O88 2.297 . S
Cd85 O89 2.439 . S
Cd85 O95 2.240 . S
Cd86 O87 2.240 . S
Cd86 O94 2.223 . S
Cd86 O96 2.297 . S
Cd86 O97 2.439 . S
O87 Cd86 2.240 . S
O87 C92 1.279 . S
O88 Cd85 2.297 . S
O88 C90 1.247 . S
O89 Cd85 2.439 . S
O89 C90 1.208 . S
C90 O88 1.247 . S
C90 O89 1.208 . S
C91 O96 1.247 . S
C91 O97 1.208 . S
C92 O84 1.315 . S
C92 O87 1.279 . S
C93 O94 1.315 . S
C93 O95 1.279 . S
O94 Cd86 2.223 . S
O94 C93 1.315 . S
O95 Cd85 2.240 . S
O95 C93 1.279 . S
O96 Cd86 2.297 . S
O96 C91 1.247 . S
O97 Cd86 2.439 . S
O97 C91 1.208 . S
O98 Cd99 2.223 . S
O98 C106 1.315 . S
Cd99 O98 2.223 . S
Cd99 O102 2.297 . S
Cd99 O103 2.439 . S
Cd99 O109 2.240 . S
Cd100 O101 2.240 . S
Cd100 O108 2.223 . S
Cd100 O110 2.297 . S
Cd100 O111 2.439 . S
O101 Cd100 2.240 . S
O101 C106 1.279 . S
O102 Cd99 2.297 . S
O102 C104 1.247 . S
O103 Cd99 2.439 . S
O103 C104 1.208 . S
C104 O102 1.247 . S
C104 O103 1.208 . S
C105 O110 1.247 . S
C105 O111 1.208 . S
C106 O98 1.315 . S
C106 O101 1.279 . S
C107 O108 1.315 . S
C107 O109 1.279 . S
O108 Cd100 2.223 . S
O108 C107 1.315 . S
O109 Cd99 2.240 . S
O109 C107 1.279 . S
O110 Cd100 2.297 . S
O110 C105 1.247 . S
O111 Cd100 2.439 . S
O111 C105 1.208 . S
O112 Cd113 2.223 . S
O112 C120 1.315 . S
Cd113 O112 2.223 . S
Cd113 O116 2.297 . S
Cd113 O117 2.439 . S
Cd113 O123 2.240 . S
Cd114 O115 2.240 . S
Cd114 O122 2.223 . S
Cd114 O124 2.297 . S
Cd114 O125 2.439 . S
O115 Cd114 2.240 . S
O115 C120 1.279 . S
O116 Cd113 2.297 . S
O116 C118 1.247 . S
O117 Cd113 2.439 . S
O117 C118 1.208 . S
C118 O116 1.247 . S
C118 O117 1.208 . S
C119 O124 1.247 . S
C119 O125 1.208 . S
C120 O112 1.315 . S
C120 O115 1.279 . S
C121 O122 1.315 . S
C121 O123 1.279 . S
O122 Cd114 2.223 . S
O122 C121 1.315 . S
O123 Cd113 2.240 . S
O123 C121 1.279 . S
O124 Cd114 2.297 . S
O124 C119 1.247 . S
O125 Cd114 2.439 . S
O125 C119 1.208 . S
O126 Cd127 2.223 . S
O126 C134 1.315 . S
Cd127 O126 2.223 . S
Cd127 O130 2.297 . S
Cd127 O131 2.439 . S
Cd127 O137 2.240 . S
Cd128 O129 2.240 . S
Cd128 O136 2.223 . S
Cd128 O138 2.297 . S
Cd128 O139 2.439 . S
O129 Cd128 2.240 . S
O129 C134 1.279 . S
O130 Cd127 2.297 . S
O130 C132 1.247 . S
O131 Cd127 2.439 . S
O131 C132 1.208 . S
C132 O130 1.247 . S
C132 O131 1.208 . S
C133 O138 1.247 . S
C133 O139 1.208 . S
C134 O126 1.315 . S
C134 O129 1.279 . S
C135 O136 1.315 . S
C135 O137 1.279 . S
O136 Cd128 2.223 . S
O136 C135 1.315 . S
O137 Cd127 2.240 . S
O137 C135 1.279 . S
O138 Cd128 2.297 . S
O138 C133 1.247 . S
O139 Cd128 2.439 . S
O139 C133 1.208 . S
O140 Cd141 2.223 . S
O140 C148 1.315 . S
Cd141 O140 2.223 . S
Cd141 O144 2.297 . S
Cd141 O145 2.439 . S
Cd141 O151 2.240 . S
Cd142 O143 2.240 . S
Cd142 O150 2.223 . S
Cd142 O152 2.297 . S
Cd142 O153 2.439 . S
O143 Cd142 2.240 . S
O143 C148 1.279 . S
O144 Cd141 2.297 . S
O144 C146 1.247 . S
O145 Cd141 2.439 . S
O145 C146 1.208 . S
C146 O144 1.247 . S
C146 O145 1.208 . S
C147 O152 1.247 . S
C147 O153 1.208 . S
C148 O140 1.315 . S
C148 O143 1.279 . S
C149 O150 1.315 . S
C149 O151 1.279 . S
O150 Cd142 2.223 . S
O150 C149 1.315 . S
O151 Cd141 2.240 . S
O151 C149 1.279 . S
O152 Cd142 2.297 . S
O152 C147 1.247 . S
O153 Cd142 2.439 . S
O153 C147 1.208 . S
O154 Cd155 2.223 . S
O154 C162 1.315 . S
Cd155 O154 2.223 . S
Cd155 O158 2.297 . S
Cd155 O159 2.439 . S
Cd155 O165 2.240 . S
Cd156 O157 2.240 . S
Cd156 O164 2.223 . S
Cd156 O166 2.297 . S
Cd156 O167 2.439 . S
O157 Cd156 2.240 . S
O157 C162 1.279 . S
O158 Cd155 2.297 . S
O158 C160 1.247 . S
O159 Cd155 2.439 . S
O159 C160 1.208 . S
C160 O158 1.247 . S
C160 O159 1.208 . S
C161 O166 1.247 . S
C161 O167 1.208 . S
C162 O154 1.315 . S
C162 O157 1.279 . S
C163 O164 1.315 . S
C163 O165 1.279 . S
O164 Cd156 2.223 . S
O164 C163 1.315 . S
O165 Cd155 2.240 . S
O165 C163 1.279 . S
O166 Cd156 2.297 . S
O166 C161 1.247 . S
O167 Cd156 2.439 . S
O167 C161 1.208 . S
H168 C186 0.951 . S
H169 C188 0.951 . S
H170 C190 0.950 . S
H171 C191 0.950 . S
H172 C193 0.950 . S
H173 C196 0.950 . S
H174 C197 0.950 . S
H175 C199 0.950 . S
H176 C200 0.950 . S
H177 C201 0.951 . S
H178 C203 0.951 . S
H179 C205 0.950 . S
H180 C206 0.950 . S
H181 C208 0.950 . S
H182 C211 0.950 . S
H183 C212 0.950 . S
H184 C214 0.950 . S
H185 C215 0.950 . S
C186 H168 0.951 . S
C186 C187 1.366 . S
C186 C188 1.388 . S
C187 C186 1.366 . S
C187 C191 1.385 . S
C188 H169 0.951 . S
C188 C186 1.388 . S
C188 C189 1.366 . S
C189 C188 1.366 . S
C189 C190 1.414 . S
C189 C192 1.499 . S
C190 H170 0.950 . S
C190 C189 1.414 . S
C190 C191 1.374 . S
C191 H171 0.950 . S
C191 C187 1.385 . S
C191 C190 1.374 . S
C192 C189 1.499 . S
C192 C193 1.373 . S
C192 C194 1.389 . S
C193 H172 0.950 . S
C193 C192 1.373 . S
C193 C209 1.377 . S
C194 C192 1.389 . S
C194 C195 1.524 . S
C194 C208 1.377 . S
C195 C194 1.524 . S
C195 C196 1.397 . S
C195 C200 1.363 . S
C196 H173 0.950 . S
C196 C195 1.397 . S
C196 C197 1.334 . S
C197 H174 0.950 . S
C197 C196 1.334 . S
C197 C198 1.287 . S
C198 C197 1.287 . S
C198 C199 1.524 . S
C198 H217 0.913 . S
C199 H175 0.950 . S
C199 C198 1.524 . S
C199 C200 1.415 . S
C200 H176 0.950 . S
C200 C195 1.363 . S
C200 C199 1.415 . S
C201 H177 0.951 . S
C201 C202 1.366 . S
C201 C203 1.388 . S
C202 C201 1.366 . S
C202 C206 1.385 . S
C203 H178 0.951 . S
C203 C201 1.388 . S
C203 C204 1.366 . S
C204 C203 1.366 . S
C204 C205 1.414 . S
C204 C207 1.499 . S
C205 H179 0.950 . S
C205 C204 1.414 . S
C205 C206 1.374 . S
C206 H180 0.950 . S
C206 C202 1.385 . S
C206 C205 1.374 . S
C207 C204 1.499 . S
C207 C208 1.373 . S
C207 C209 1.389 . S
C208 H181 0.950 . S
C208 C194 1.377 . S
C208 C207 1.373 . S
C209 C193 1.377 . S
C209 C207 1.389 . S
C209 C210 1.524 . S
C210 C209 1.524 . S
C210 C211 1.397 . S
C210 C215 1.363 . S
C211 H182 0.950 . S
C211 C210 1.397 . S
C211 C212 1.334 . S
C212 H183 0.950 . S
C212 C211 1.334 . S
C212 C213 1.287 . S
C213 C212 1.287 . S
C213 C214 1.524 . S
C213 H216 0.999 . S
C214 H184 0.950 . S
C214 C213 1.524 . S
C214 C215 1.415 . S
C215 H185 0.950 . S
C215 C210 1.363 . S
C215 C214 1.415 . S
H216 C213 0.999 . S
H217 C198 0.913 . S
H218 C236 0.951 . S
H219 C238 0.951 . S
H220 C240 0.950 . S
H221 C241 0.950 . S
H222 C243 0.950 . S
H223 C246 0.950 . S
H224 C247 0.950 . S
H225 C249 0.950 . S
H226 C250 0.950 . S
H227 C251 0.951 . S
H228 C253 0.951 . S
H229 C255 0.950 . S
H230 C256 0.950 . S
H231 C258 0.950 . S
H232 C261 0.950 . S
H233 C262 0.950 . S
H234 C264 0.950 . S
H235 C265 0.950 . S
C236 H218 0.951 . S
C236 C237 1.366 . S
C236 C238 1.388 . S
C237 C236 1.366 . S
C237 C241 1.385 . S
C238 H219 0.951 . S
C238 C236 1.388 . S
C238 C239 1.366 . S
C239 C238 1.366 . S
C239 C240 1.414 . S
C239 C242 1.499 . S
C240 H220 0.950 . S
C240 C239 1.414 . S
C240 C241 1.374 . S
C241 H221 0.950 . S
C241 C237 1.385 . S
C241 C240 1.374 . S
C242 C239 1.499 . S
C242 C243 1.373 . S
C242 C244 1.389 . S
C243 H222 0.950 . S
C243 C242 1.373 . S
C243 C259 1.377 . S
C244 C242 1.389 . S
C244 C245 1.524 . S
C244 C258 1.377 . S
C245 C244 1.524 . S
C245 C246 1.397 . S
C245 C250 1.363 . S
C246 H223 0.950 . S
C246 C245 1.397 . S
C246 C247 1.334 . S
C247 H224 0.950 . S
C247 C246 1.334 . S
C247 C248 1.287 . S
C248 C247 1.287 . S
C248 C249 1.524 . S
C248 H267 0.913 . S
C249 H225 0.950 . S
C249 C248 1.524 . S
C249 C250 1.415 . S
C250 H226 0.950 . S
C250 C245 1.363 . S
C250 C249 1.415 . S
C251 H227 0.951 . S
C251 C252 1.366 . S
C251 C253 1.388 . S
C252 C251 1.366 . S
C252 C256 1.385 . S
C253 H228 0.951 . S
C253 C251 1.388 . S
C253 C254 1.366 . S
C254 C253 1.366 . S
C254 C255 1.414 . S
C254 C257 1.499 . S
C255 H229 0.950 . S
C255 C254 1.414 . S
C255 C256 1.374 . S
C256 H230 0.950 . S
C256 C252 1.385 . S
C256 C255 1.374 . S
C257 C254 1.499 . S
C257 C258 1.373 . S
C257 C259 1.389 . S
C258 H231 0.950 . S
C258 C244 1.377 . S
C258 C257 1.373 . S
C259 C243 1.377 . S
C259 C257 1.389 . S
C259 C260 1.524 . S
C260 C259 1.524 . S
C260 C261 1.397 . S
C260 C265 1.363 . S
C261 H232 0.950 . S
C261 C260 1.397 . S
C261 C262 1.334 . S
C262 H233 0.950 . S
C262 C261 1.334 . S
C262 C263 1.287 . S
C263 C262 1.287 . S
C263 C264 1.524 . S
C263 H266 0.999 . S
C264 H234 0.950 . S
C264 C263 1.524 . S
C264 C265 1.415 . S
C265 H235 0.950 . S
C265 C260 1.363 . S
C265 C264 1.415 . S
H266 C263 0.999 . S
H267 C248 0.913 . S
H268 C286 0.951 . S
H269 C288 0.951 . S
H270 C290 0.950 . S
H271 C291 0.950 . S
H272 C293 0.950 . S
H273 C296 0.950 . S
H274 C297 0.950 . S
H275 C299 0.950 . S
H276 C300 0.950 . S
H277 C301 0.951 . S
H278 C303 0.951 . S
H279 C305 0.950 . S
H280 C306 0.950 . S
H281 C308 0.950 . S
H282 C311 0.950 . S
H283 C312 0.950 . S
H284 C314 0.950 . S
H285 C315 0.950 . S
C286 H268 0.951 . S
C286 C287 1.366 . S
C286 C288 1.388 . S
C287 C286 1.366 . S
C287 C291 1.385 . S
C288 H269 0.951 . S
C288 C286 1.388 . S
C288 C289 1.366 . S
C289 C288 1.366 . S
C289 C290 1.414 . S
C289 C292 1.499 . S
C290 H270 0.950 . S
C290 C289 1.414 . S
C290 C291 1.374 . S
C291 H271 0.950 . S
C291 C287 1.385 . S
C291 C290 1.374 . S
C292 C289 1.499 . S
C292 C293 1.373 . S
C292 C294 1.389 . S
C293 H272 0.950 . S
C293 C292 1.373 . S
C293 C309 1.377 . S
C294 C292 1.389 . S
C294 C295 1.524 . S
C294 C308 1.377 . S
C295 C294 1.524 . S
C295 C296 1.397 . S
C295 C300 1.363 . S
C296 H273 0.950 . S
C296 C295 1.397 . S
C296 C297 1.334 . S
C297 H274 0.950 . S
C297 C296 1.334 . S
C297 C298 1.287 . S
C298 C297 1.287 . S
C298 C299 1.524 . S
C298 H317 0.913 . S
C299 H275 0.950 . S
C299 C298 1.524 . S
C299 C300 1.415 . S
C300 H276 0.950 . S
C300 C295 1.363 . S
C300 C299 1.415 . S
C301 H277 0.951 . S
C301 C302 1.366 . S
C301 C303 1.388 . S
C302 C301 1.366 . S
C302 C306 1.385 . S
C303 H278 0.951 . S
C303 C301 1.388 . S
C303 C304 1.366 . S
C304 C303 1.366 . S
C304 C305 1.414 . S
C304 C307 1.499 . S
C305 H279 0.950 . S
C305 C304 1.414 . S
C305 C306 1.374 . S
C306 H280 0.950 . S
C306 C302 1.385 . S
C306 C305 1.374 . S
C307 C304 1.499 . S
C307 C308 1.373 . S
C307 C309 1.389 . S
C308 H281 0.950 . S
C308 C294 1.377 . S
C308 C307 1.373 . S
C309 C293 1.377 . S
C309 C307 1.389 . S
C309 C310 1.524 . S
C310 C309 1.524 . S
C310 C311 1.397 . S
C310 C315 1.363 . S
C311 H282 0.950 . S
C311 C310 1.397 . S
C311 C312 1.334 . S
C312 H283 0.950 . S
C312 C311 1.334 . S
C312 C313 1.287 . S
C313 C312 1.287 . S
C313 C314 1.524 . S
C313 H316 0.999 . S
C314 H284 0.950 . S
C314 C313 1.524 . S
C314 C315 1.415 . S
C315 H285 0.950 . S
C315 C310 1.363 . S
C315 C314 1.415 . S
H316 C313 0.999 . S
H317 C298 0.913 . S
H318 C336 0.951 . S
H319 C338 0.951 . S
H320 C340 0.950 . S
H321 C341 0.950 . S
H322 C343 0.950 . S
H323 C346 0.950 . S
H324 C347 0.950 . S
H325 C349 0.983 . S
H326 C350 0.950 . S
H327 C351 0.951 . S
H328 C353 0.951 . S
H329 C355 0.950 . S
H330 C356 0.950 . S
H331 C358 0.950 . S
H332 C361 0.950 . S
H333 C362 0.950 . S
H334 C364 0.950 . S
H335 C365 0.950 . S
C336 H318 0.951 . S
C336 C337 1.366 . S
C336 C338 1.388 . S
C337 C336 1.366 . S
C337 C341 1.385 . S
C338 H319 0.951 . S
C338 C336 1.388 . S
C338 C339 1.366 . S
C339 C338 1.366 . S
C339 C340 1.414 . S
C339 C342 1.499 . S
C340 H320 0.950 . S
C340 C339 1.414 . S
C340 C341 1.374 . S
C341 H321 0.950 . S
C341 C337 1.385 . S
C341 C340 1.374 . S
C342 C339 1.499 . S
C342 C343 1.373 . S
C342 C344 1.389 . S
C343 H322 0.950 . S
C343 C342 1.373 . S
C343 C359 1.377 . S
C344 C342 1.389 . S
C344 C345 1.524 . S
C344 C358 1.377 . S
C345 C344 1.524 . S
C345 C346 1.397 . S
C345 C350 1.363 . S
C346 H323 0.950 . S
C346 C345 1.397 . S
C346 C347 1.334 . S
C347 H324 0.950 . S
C347 C346 1.334 . S
C347 C348 1.287 . S
C348 C347 1.287 . S
C348 C349 1.524 . S
C348 H367 0.913 . S
C349 H325 0.983 . S
C349 C348 1.524 . S
C349 C350 1.415 . S
C350 H326 0.950 . S
C350 C345 1.363 . S
C350 C349 1.415 . S
C351 H327 0.951 . S
C351 C352 1.366 . S
C351 C353 1.388 . S
C352 C351 1.366 . S
C352 C356 1.385 . S
C353 H328 0.951 . S
C353 C351 1.388 . S
C353 C354 1.366 . S
C354 C353 1.366 . S
C354 C355 1.414 . S
C354 C357 1.499 . S
C355 H329 0.950 . S
C355 C354 1.414 . S
C355 C356 1.374 . S
C356 H330 0.950 . S
C356 C352 1.385 . S
C356 C355 1.374 . S
C357 C354 1.499 . S
C357 C358 1.373 . S
C357 C359 1.389 . S
C358 H331 0.950 . S
C358 C344 1.377 . S
C358 C357 1.373 . S
C359 C343 1.377 . S
C359 C357 1.389 . S
C359 C360 1.524 . S
C360 C359 1.524 . S
C360 C361 1.397 . S
C360 C365 1.363 . S
C361 H332 0.950 . S
C361 C360 1.397 . S
C361 C362 1.334 . S
C362 H333 0.950 . S
C362 C361 1.334 . S
C362 C363 1.287 . S
C363 C362 1.287 . S
C363 C364 1.524 . S
C363 H366 0.999 . S
C364 H334 0.950 . S
C364 C363 1.524 . S
C364 C365 1.415 . S
C365 H335 0.950 . S
C365 C360 1.363 . S
C365 C364 1.415 . S
H366 C363 0.999 . S
H367 C348 0.913 . S
H368 C386 0.951 . S
H369 C388 0.951 . S
H370 C390 0.950 . S
H371 C391 0.950 . S
H372 C393 0.950 . S
H373 C396 0.950 . S
H374 C397 0.950 . S
H375 C399 0.950 . S
H376 C400 0.950 . S
H377 C401 0.951 . S
H378 C403 0.951 . S
H379 C405 0.950 . S
H380 C406 0.950 . S
H381 C408 0.950 . S
H382 C411 0.950 . S
H383 C412 0.940 1_556 S
H384 C414 0.950 1_556 S
H385 C415 0.950 . S
C386 H368 0.951 . S
C386 C387 1.366 . S
C386 C388 1.388 . S
C387 C386 1.366 . S
C387 C391 1.385 . S
C388 H369 0.951 . S
C388 C386 1.388 . S
C388 C389 1.366 . S
C389 C388 1.366 . S
C389 C390 1.414 . S
C389 C392 1.499 . S
C390 H370 0.950 . S
C390 C389 1.414 . S
C390 C391 1.374 . S
C391 H371 0.950 . S
C391 C387 1.385 . S
C391 C390 1.374 . S
C392 C389 1.499 . S
C392 C393 1.373 . S
C392 C394 1.389 . S
C393 H372 0.950 . S
C393 C392 1.373 . S
C393 C409 1.377 . S
C394 C392 1.389 . S
C394 C395 1.524 . S
C394 C408 1.377 . S
C395 C394 1.524 . S
C395 C396 1.397 . S
C395 C400 1.363 . S
C396 H373 0.950 . S
C396 C395 1.397 . S
C396 C397 1.334 . S
C397 H374 0.950 . S
C397 C396 1.334 . S
C397 C398 1.287 . S
C398 C397 1.287 . S
C398 C399 1.524 . S
C398 H417 0.913 . S
C399 H375 0.950 . S
C399 C398 1.524 . S
C399 C400 1.415 . S
C400 H376 0.950 . S
C400 C395 1.363 . S
C400 C399 1.415 . S
C401 H377 0.951 . S
C401 C402 1.366 . S
C401 C403 1.388 . S
C402 C401 1.366 . S
C402 C406 1.385 . S
C403 H378 0.951 . S
C403 C401 1.388 . S
C403 C404 1.366 . S
C404 C403 1.366 . S
C404 C405 1.414 . S
C404 C407 1.499 . S
C405 H379 0.950 . S
C405 C404 1.414 . S
C405 C406 1.374 . S
C406 H380 0.950 . S
C406 C402 1.385 . S
C406 C405 1.374 . S
C407 C404 1.499 . S
C407 C408 1.373 . S
C407 C409 1.389 . S
C408 H381 0.950 . S
C408 C394 1.377 . S
C408 C407 1.373 . S
C409 C393 1.377 . S
C409 C407 1.389 . S
C409 C410 1.524 . S
C410 C409 1.524 . S
C410 C411 1.397 . S
C410 C415 1.363 . S
C411 H382 0.950 . S
C411 C410 1.397 . S
C411 C412 1.334 . S
C412 H383 0.940 1_554 S
C412 C411 1.334 . S
C412 C413 1.287 1_554 S
C413 C412 1.287 1_556 S
C413 C414 1.524 1_556 S
C413 H416 0.999 . S
C414 H384 0.950 1_554 S
C414 C413 1.524 1_554 S
C414 C415 1.415 . S
C415 H385 0.950 . S
C415 C410 1.363 . S
C415 C414 1.415 . S
H416 C413 0.999 . S
H417 C398 0.913 . S
H418 C436 0.951 . S
H419 C438 0.951 . S
H420 C440 0.950 . S
H421 C441 0.950 . S
H422 C443 0.950 . S
H423 C446 0.950 . S
H424 C447 0.950 . S
H425 C449 0.950 . S
H426 C450 0.950 . S
H427 C451 0.951 . S
H428 C453 0.951 . S
H429 C455 0.950 . S
H430 C456 0.950 . S
H431 C458 0.950 . S
H432 C461 0.950 . S
H433 C462 0.950 . S
H434 C464 0.950 . S
H435 C465 0.950 . S
C436 H418 0.951 . S
C436 C437 1.366 . S
C436 C438 1.388 . S
C437 C436 1.366 . S
C437 C441 1.385 . S
C438 H419 0.951 . S
C438 C436 1.388 . S
C438 C439 1.366 . S
C439 C438 1.366 . S
C439 C440 1.414 . S
C439 C442 1.499 . S
C440 H420 0.950 . S
C440 C439 1.414 . S
C440 C441 1.374 . S
C441 H421 0.950 . S
C441 C437 1.385 . S
C441 C440 1.374 . S
C442 C439 1.499 . S
C442 C443 1.373 . S
C442 C444 1.389 . S
C443 H422 0.950 . S
C443 C442 1.373 . S
C443 C459 1.377 . S
C444 C442 1.389 . S
C444 C445 1.524 . S
C444 C458 1.377 . S
C445 C444 1.524 . S
C445 C446 1.397 . S
C445 C450 1.363 . S
C446 H423 0.950 . S
C446 C445 1.397 . S
C446 C447 1.334 . S
C447 H424 0.950 . S
C447 C446 1.334 . S
C447 C448 1.287 . S
C448 C447 1.287 . S
C448 C449 1.524 . S
C448 H467 0.913 . S
C449 H425 0.950 . S
C449 C448 1.524 . S
C449 C450 1.415 . S
C450 H426 0.950 . S
C450 C445 1.363 . S
C450 C449 1.415 . S
C451 H427 0.951 . S
C451 C452 1.366 . S
C451 C453 1.388 . S
C452 C451 1.366 . S
C452 C456 1.385 . S
C453 H428 0.951 . S
C453 C451 1.388 . S
C453 C454 1.366 . S
C454 C453 1.366 . S
C454 C455 1.414 . S
C454 C457 1.499 . S
C455 H429 0.950 . S
C455 C454 1.414 . S
C455 C456 1.374 . S
C456 H430 0.950 . S
C456 C452 1.385 . S
C456 C455 1.374 . S
C457 C454 1.499 . S
C457 C458 1.373 . S
C457 C459 1.389 . S
C458 H431 0.950 . S
C458 C444 1.377 . S
C458 C457 1.373 . S
C459 C443 1.377 . S
C459 C457 1.389 . S
C459 C460 1.524 . S
C460 C459 1.524 . S
C460 C461 1.397 . S
C460 C465 1.363 . S
C461 H432 0.950 . S
C461 C460 1.397 . S
C461 C462 1.334 . S
C462 H433 0.950 . S
C462 C461 1.334 . S
C462 C463 1.287 . S
C463 C462 1.287 . S
C463 C464 1.524 . S
C463 H466 0.999 . S
C464 H434 0.950 . S
C464 C463 1.524 . S
C464 C465 1.415 . S
C465 H435 0.950 . S
C465 C460 1.363 . S
C465 C464 1.415 . S
H466 C463 0.999 . S
H467 C448 0.913 . S
H468 C486 0.951 . S
H469 C488 0.951 . S
H470 C490 0.950 . S
H471 C491 0.950 . S
H472 C493 0.950 . S
H473 C496 0.950 . S
H474 C497 0.950 . S
H475 C499 0.950 . S
H476 C500 0.950 . S
H477 C501 0.951 . S
H478 C503 0.951 . S
H479 C505 0.950 . S
H480 C506 0.950 . S
H481 C508 0.950 . S
H482 C511 0.950 . S
H483 C512 0.950 . S
H484 C514 0.950 . S
H485 C515 0.950 . S
C486 H468 0.951 . S
C486 C487 1.366 . S
C486 C488 1.388 . S
C487 C486 1.366 . S
C487 C491 1.385 . S
C488 H469 0.951 . S
C488 C486 1.388 . S
C488 C489 1.366 . S
C489 C488 1.366 . S
C489 C490 1.414 . S
C489 C492 1.499 . S
C490 H470 0.950 . S
C490 C489 1.414 . S
C490 C491 1.374 . S
C491 H471 0.950 . S
C491 C487 1.385 . S
C491 C490 1.374 . S
C492 C489 1.499 . S
C492 C493 1.373 . S
C492 C494 1.389 . S
C493 H472 0.950 . S
C493 C492 1.373 . S
C493 C509 1.377 . S
C494 C492 1.389 . S
C494 C495 1.524 . S
C494 C508 1.377 . S
C495 C494 1.524 . S
C495 C496 1.397 . S
C495 C500 1.363 . S
C496 H473 0.950 . S
C496 C495 1.397 . S
C496 C497 1.334 . S
C497 H474 0.950 . S
C497 C496 1.334 . S
C497 C498 1.287 . S
C498 C497 1.287 . S
C498 C499 1.524 . S
C498 H517 0.913 . S
C499 H475 0.950 . S
C499 C498 1.524 . S
C499 C500 1.415 . S
C500 H476 0.950 . S
C500 C495 1.363 . S
C500 C499 1.415 . S
C501 H477 0.951 . S
C501 C502 1.366 . S
C501 C503 1.388 . S
C502 C501 1.366 . S
C502 C506 1.385 . S
C503 H478 0.951 . S
C503 C501 1.388 . S
C503 C504 1.366 . S
C504 C503 1.366 . S
C504 C505 1.414 . S
C504 C507 1.499 . S
C505 H479 0.950 . S
C505 C504 1.414 . S
C505 C506 1.374 . S
C506 H480 0.950 . S
C506 C502 1.385 . S
C506 C505 1.374 . S
C507 C504 1.499 . S
C507 C508 1.373 . S
C507 C509 1.389 . S
C508 H481 0.950 . S
C508 C494 1.377 . S
C508 C507 1.373 . S
C509 C493 1.377 . S
C509 C507 1.389 . S
C509 C510 1.524 . S
C510 C509 1.524 . S
C510 C511 1.397 . S
C510 C515 1.363 . S
C511 H482 0.950 . S
C511 C510 1.397 . S
C511 C512 1.334 . S
C512 H483 0.950 . S
C512 C511 1.334 . S
C512 C513 1.287 . S
C513 C512 1.287 . S
C513 C514 1.524 . S
C513 H516 0.999 . S
C514 H484 0.950 . S
C514 C513 1.524 . S
C514 C515 1.415 . S
C515 H485 0.950 . S
C515 C510 1.363 . S
C515 C514 1.415 . S
H516 C513 0.999 . S
H517 C498 0.913 . S
H518 C536 0.951 . S
H519 C538 0.951 . S
H520 C540 0.950 . S
H521 C541 0.950 . S
H522 C543 0.950 . S
H523 C546 0.950 . S
H524 C547 0.950 . S
H525 C549 0.950 . S
H526 C550 0.950 . S
H527 C551 0.951 . S
H528 C553 0.951 . S
H529 C555 0.950 . S
H530 C556 0.950 . S
H531 C558 0.950 . S
H532 C561 0.950 . S
H533 C562 0.950 . S
H534 C564 0.950 . S
H535 C565 0.950 . S
C536 H518 0.951 . S
C536 C537 1.366 . S
C536 C538 1.388 . S
C537 C536 1.366 . S
C537 C541 1.385 . S
C538 H519 0.951 . S
C538 C536 1.388 . S
C538 C539 1.366 . S
C539 C538 1.366 . S
C539 C540 1.414 . S
C539 C542 1.499 . S
C540 H520 0.950 . S
C540 C539 1.414 . S
C540 C541 1.374 . S
C541 H521 0.950 . S
C541 C537 1.385 . S
C541 C540 1.374 . S
C542 C539 1.499 . S
C542 C543 1.373 . S
C542 C544 1.389 . S
C543 H522 0.950 . S
C543 C542 1.373 . S
C543 C559 1.377 . S
C544 C542 1.389 . S
C544 C545 1.524 . S
C544 C558 1.377 . S
C545 C544 1.524 . S
C545 C546 1.397 . S
C545 C550 1.363 . S
C546 H523 0.950 . S
C546 C545 1.397 . S
C546 C547 1.334 . S
C547 H524 0.950 . S
C547 C546 1.334 . S
C547 C548 1.287 . S
C548 C547 1.287 . S
C548 C549 1.524 . S
C548 H567 0.913 . S
C549 H525 0.950 . S
C549 C548 1.524 . S
C549 C550 1.415 . S
C550 H526 0.950 . S
C550 C545 1.363 . S
C550 C549 1.415 . S
C551 H527 0.951 . S
C551 C552 1.366 . S
C551 C553 1.388 . S
C552 C551 1.366 . S
C552 C556 1.385 . S
C553 H528 0.951 . S
C553 C551 1.388 . S
C553 C554 1.366 . S
C554 C553 1.366 . S
C554 C555 1.414 . S
C554 C557 1.499 . S
C555 H529 0.950 . S
C555 C554 1.414 . S
C555 C556 1.374 . S
C556 H530 0.950 . S
C556 C552 1.385 . S
C556 C555 1.374 . S
C557 C554 1.499 . S
C557 C558 1.373 . S
C557 C559 1.389 . S
C558 H531 0.950 . S
C558 C544 1.377 . S
C558 C557 1.373 . S
C559 C543 1.377 . S
C559 C557 1.389 . S
C559 C560 1.524 . S
C560 C559 1.524 . S
C560 C561 1.397 . S
C560 C565 1.363 . S
C561 H532 0.950 . S
C561 C560 1.397 . S
C561 C562 1.334 . S
C562 H533 0.950 . S
C562 C561 1.334 . S
C562 C563 1.287 . S
C563 C562 1.287 . S
C563 C564 1.524 . S
C563 H566 0.999 . S
C564 H534 0.950 . S
C564 C563 1.524 . S
C564 C565 1.415 . S
C565 H535 0.950 . S
C565 C560 1.363 . S
C565 C564 1.415 . S
H566 C563 0.999 . S
H567 C548 0.913 . S
H568 C586 0.951 . S
H569 C588 0.951 . S
H570 C590 0.950 . S
H571 C591 0.950 . S
H572 C593 0.950 . S
H573 C596 0.950 . S
H574 C597 0.950 . S
H575 C599 0.950 . S
H576 C600 0.950 . S
H577 C601 0.951 . S
H578 C603 0.951 . S
H579 C605 0.950 . S
H580 C606 0.950 . S
H581 C608 0.950 . S
H582 C611 0.950 . S
H583 C612 0.950 . S
H584 C614 0.950 . S
H585 C615 0.950 . S
C586 H568 0.951 . S
C586 C587 1.366 . S
C586 C588 1.388 1_554 S
C587 C586 1.366 . S
C587 C591 1.385 . S
C588 H569 0.951 . S
C588 C586 1.388 1_556 S
C588 C589 1.366 . S
C589 C588 1.366 . S
C589 C590 1.414 . S
C589 C592 1.499 . S
C590 H570 0.950 . S
C590 C589 1.414 . S
C590 C591 1.374 1_556 S
C591 H571 0.950 . S
C591 C587 1.385 . S
C591 C590 1.374 1_554 S
C592 C589 1.499 . S
C592 C593 1.373 . S
C592 C594 1.389 . S
C593 H572 0.950 . S
C593 C592 1.373 . S
C593 C609 1.377 . S
C594 C592 1.389 . S
C594 C595 1.524 . S
C594 C608 1.377 . S
C595 C594 1.524 . S
C595 C596 1.397 . S
C595 C600 1.363 . S
C596 H573 0.950 . S
C596 C595 1.397 . S
C596 C597 1.334 . S
C597 H574 0.950 . S
C597 C596 1.334 . S
C597 C598 1.287 . S
C598 C597 1.287 . S
C598 C599 1.524 . S
C598 H617 0.913 . S
C599 H575 0.950 . S
C599 C598 1.524 . S
C599 C600 1.415 . S
C600 H576 0.950 . S
C600 C595 1.363 . S
C600 C599 1.415 . S
C601 H577 0.951 . S
C601 C602 1.366 . S
C601 C603 1.388 . S
C602 C601 1.366 . S
C602 C606 1.385 . S
C603 H578 0.951 . S
C603 C601 1.388 . S
C603 C604 1.366 . S
C604 C603 1.366 . S
C604 C605 1.414 . S
C604 C607 1.499 . S
C605 H579 0.950 . S
C605 C604 1.414 . S
C605 C606 1.374 . S
C606 H580 0.950 . S
C606 C602 1.385 . S
C606 C605 1.374 . S
C607 C604 1.499 . S
C607 C608 1.373 . S
C607 C609 1.389 . S
C608 H581 0.950 . S
C608 C594 1.377 . S
C608 C607 1.373 . S
C609 C593 1.377 . S
C609 C607 1.389 . S
C609 C610 1.524 . S
C610 C609 1.524 . S
C610 C611 1.397 . S
C610 C615 1.363 . S
C611 H582 0.950 . S
C611 C610 1.397 . S
C611 C612 1.334 . S
C612 H583 0.950 . S
C612 C611 1.334 . S
C612 C613 1.287 . S
C613 C612 1.287 . S
C613 C614 1.524 . S
C613 H616 0.999 . S
C614 H584 0.950 . S
C614 C613 1.524 . S
C614 C615 1.415 . S
C615 H585 0.950 . S
C615 C610 1.363 . S
C615 C614 1.415 . S
H616 C613 0.999 . S
H617 C598 0.913 . S
H618 C636 0.951 . S
H619 C638 0.951 . S
H620 C640 0.950 . S
H621 C641 0.950 . S
H622 C643 0.950 . S
H623 C646 0.950 . S
H624 C647 0.950 . S
H625 C649 0.950 . S
H626 C650 0.950 . S
H627 C651 0.951 . S
H628 C653 0.951 . S
H629 C655 0.950 . S
H630 C656 0.950 . S
H631 C658 0.950 . S
H632 C661 0.950 . S
H633 C662 0.950 . S
H634 C664 0.950 . S
H635 C665 0.950 . S
C636 H618 0.951 . S
C636 C637 1.366 . S
C636 C638 1.388 . S
C637 C636 1.366 . S
C637 C641 1.385 . S
C638 H619 0.951 . S
C638 C636 1.388 . S
C638 C639 1.366 . S
C639 C638 1.366 . S
C639 C640 1.414 . S
C639 C642 1.499 . S
C640 H620 0.950 . S
C640 C639 1.414 . S
C640 C641 1.374 . S
C641 H621 0.950 . S
C641 C637 1.385 . S
C641 C640 1.374 . S
C642 C639 1.499 . S
C642 C643 1.373 . S
C642 C644 1.389 . S
C643 H622 0.950 . S
C643 C642 1.373 . S
C643 C659 1.377 . S
C644 C642 1.389 . S
C644 C645 1.524 . S
C644 C658 1.377 . S
C645 C644 1.524 . S
C645 C646 1.397 . S
C645 C650 1.363 . S
C646 H623 0.950 . S
C646 C645 1.397 . S
C646 C647 1.334 . S
C647 H624 0.950 . S
C647 C646 1.334 . S
C647 C648 1.287 . S
C648 C647 1.287 . S
C648 C649 1.524 . S
C648 H667 0.913 . S
C649 H625 0.950 . S
C649 C648 1.524 . S
C649 C650 1.415 . S
C650 H626 0.950 . S
C650 C645 1.363 . S
C650 C649 1.415 . S
C651 H627 0.951 . S
C651 C652 1.366 . S
C651 C653 1.388 1_556 S
C652 C651 1.366 . S
C652 C656 1.385 . S
C653 H628 0.951 . S
C653 C651 1.388 1_554 S
C653 C654 1.366 . S
C654 C653 1.366 . S
C654 C655 1.414 . S
C654 C657 1.499 . S
C655 H629 0.950 . S
C655 C654 1.414 . S
C655 C656 1.374 1_554 S
C656 H630 0.950 . S
C656 C652 1.385 . S
C656 C655 1.374 1_556 S
C657 C654 1.499 . S
C657 C658 1.373 . S
C657 C659 1.389 . S
C658 H631 0.950 . S
C658 C644 1.377 . S
C658 C657 1.373 . S
C659 C643 1.377 . S
C659 C657 1.389 . S
C659 C660 1.524 . S
C660 C659 1.524 . S
C660 C661 1.397 . S
C660 C665 1.363 . S
C661 H632 0.950 . S
C661 C660 1.397 . S
C661 C662 1.334 . S
C662 H633 0.950 . S
C662 C661 1.334 . S
C662 C663 1.287 . S
C663 C662 1.287 . S
C663 C664 1.524 . S
C663 H666 0.999 . S
C664 H634 0.950 . S
C664 C663 1.524 . S
C664 C665 1.415 . S
C665 H635 0.950 . S
C665 C660 1.363 . S
C665 C664 1.415 . S
H666 C663 0.999 . S
H667 C648 0.913 . S
H668 C686 0.951 . S
H669 C688 0.951 . S
H670 C690 0.950 . S
H671 C691 0.950 . S
H672 C693 0.950 . S
H673 C696 0.950 . S
H674 C697 0.950 . S
H675 C699 0.950 . S
H676 C700 0.950 . S
H677 C701 0.951 . S
H678 C703 0.951 . S
H679 C705 0.950 . S
H680 C706 0.950 . S
H681 C708 0.950 . S
H682 C711 0.950 . S
H683 C712 0.950 . S
H684 C714 0.950 . S
H685 C715 0.950 . S
C686 H668 0.951 . S
C686 C687 1.366 . S
C686 C688 1.388 . S
C687 C686 1.366 . S
C687 C691 1.385 . S
C688 H669 0.951 . S
C688 C686 1.388 . S
C688 C689 1.366 . S
C689 C688 1.366 . S
C689 C690 1.414 . S
C689 C692 1.499 . S
C690 H670 0.950 . S
C690 C689 1.414 . S
C690 C691 1.374 . S
C691 H671 0.950 . S
C691 C687 1.385 . S
C691 C690 1.374 . S
C692 C689 1.499 . S
C692 C693 1.373 . S
C692 C694 1.389 . S
C693 H672 0.950 . S
C693 C692 1.373 . S
C693 C709 1.377 . S
C694 C692 1.389 . S
C694 C695 1.524 . S
C694 C708 1.377 . S
C695 C694 1.524 . S
C695 C696 1.397 . S
C695 C700 1.363 . S
C696 H673 0.950 . S
C696 C695 1.397 . S
C696 C697 1.334 . S
C697 H674 0.950 . S
C697 C696 1.334 . S
C697 C698 1.287 . S
C698 C697 1.287 . S
C698 C699 1.524 . S
C698 H717 0.913 . S
C699 H675 0.950 . S
C699 C698 1.524 . S
C699 C700 1.415 . S
C700 H676 0.950 . S
C700 C695 1.363 . S
C700 C699 1.415 . S
C701 H677 0.951 . S
C701 C702 1.366 . S
C701 C703 1.388 . S
C702 C701 1.366 . S
C702 C706 1.385 . S
C703 H678 0.951 . S
C703 C701 1.388 . S
C703 C704 1.366 . S
C704 C703 1.366 . S
C704 C705 1.414 . S
C704 C707 1.499 . S
C705 H679 0.950 . S
C705 C704 1.414 . S
C705 C706 1.374 . S
C706 H680 0.950 . S
C706 C702 1.385 . S
C706 C705 1.374 . S
C707 C704 1.499 . S
C707 C708 1.373 . S
C707 C709 1.389 . S
C708 H681 0.950 . S
C708 C694 1.377 . S
C708 C707 1.373 . S
C709 C693 1.377 . S
C709 C707 1.389 . S
C709 C710 1.524 . S
C710 C709 1.524 . S
C710 C711 1.397 . S
C710 C715 1.363 . S
C711 H682 0.950 . S
C711 C710 1.397 . S
C711 C712 1.334 . S
C712 H683 0.950 . S
C712 C711 1.334 . S
C712 C713 1.287 . S
C713 C712 1.287 . S
C713 C714 1.524 . S
C713 H716 0.999 . S
C714 H684 0.950 . S
C714 C713 1.524 . S
C714 C715 1.415 . S
C715 H685 0.950 . S
C715 C710 1.363 . S
C715 C714 1.415 . S
H716 C713 0.999 . S
H717 C698 0.913 . S
H718 C736 0.951 . S
H719 C738 0.951 . S
H720 C740 0.950 . S
H721 C741 0.950 . S
H722 C743 0.950 . S
H723 C746 0.950 . S
H724 C747 0.950 . S
H725 C749 0.950 . S
H726 C750 0.950 . S
H727 C751 0.951 . S
H728 C753 0.951 . S
H729 C755 0.950 . S
H730 C756 0.950 . S
H731 C758 0.950 . S
H732 C761 0.950 . S
H733 C762 0.950 . S
H734 C764 0.950 . S
H735 C765 0.950 . S
C736 H718 0.951 . S
C736 C737 1.366 . S
C736 C738 1.388 . S
C737 C736 1.366 . S
C737 C741 1.385 . S
C738 H719 0.951 . S
C738 C736 1.388 . S
C738 C739 1.366 . S
C739 C738 1.366 . S
C739 C740 1.414 . S
C739 C742 1.499 . S
C740 H720 0.950 . S
C740 C739 1.414 . S
C740 C741 1.374 . S
C741 H721 0.950 . S
C741 C737 1.385 . S
C741 C740 1.374 . S
C742 C739 1.499 . S
C742 C743 1.373 . S
C742 C744 1.389 . S
C743 H722 0.950 . S
C743 C742 1.373 . S
C743 C759 1.377 . S
C744 C742 1.389 . S
C744 C745 1.524 . S
C744 C758 1.377 . S
C745 C744 1.524 . S
C745 C746 1.397 . S
C745 C750 1.363 . S
C746 H723 0.950 . S
C746 C745 1.397 . S
C746 C747 1.334 . S
C747 H724 0.950 . S
C747 C746 1.334 . S
C747 C748 1.287 . S
C748 C747 1.287 . S
C748 C749 1.524 . S
C748 H767 0.913 . S
C749 H725 0.950 . S
C749 C748 1.524 . S
C749 C750 1.415 . S
C750 H726 0.950 . S
C750 C745 1.363 . S
C750 C749 1.415 . S
C751 H727 0.951 . S
C751 C752 1.366 . S
C751 C753 1.388 . S
C752 C751 1.366 . S
C752 C756 1.385 . S
C753 H728 0.951 . S
C753 C751 1.388 . S
C753 C754 1.366 . S
C754 C753 1.366 . S
C754 C755 1.414 . S
C754 C757 1.499 . S
C755 H729 0.950 . S
C755 C754 1.414 . S
C755 C756 1.374 . S
C756 H730 0.950 . S
C756 C752 1.385 . S
C756 C755 1.374 . S
C757 C754 1.499 . S
C757 C758 1.373 . S
C757 C759 1.389 . S
C758 H731 0.950 . S
C758 C744 1.377 . S
C758 C757 1.373 . S
C759 C743 1.377 . S
C759 C757 1.389 . S
C759 C760 1.524 . S
C760 C759 1.524 . S
C760 C761 1.397 . S
C760 C765 1.363 . S
C761 H732 0.950 . S
C761 C760 1.397 . S
C761 C762 1.334 . S
C762 H733 0.950 . S
C762 C761 1.334 . S
C762 C763 1.287 . S
C763 C762 1.287 . S
C763 C764 1.524 . S
C763 H766 0.999 . S
C764 H734 0.950 . S
C764 C763 1.524 . S
C764 C765 1.415 . S
C765 H735 0.950 . S
C765 C760 1.363 . S
C765 C764 1.415 . S
H766 C763 0.999 . S
H767 C748 0.913 . S
H768 C786 0.951 . S
H769 C788 0.951 . S
H770 C790 0.950 . S
H771 C791 0.950 . S
H772 C793 0.950 . S
H773 C796 0.950 . S
H774 C797 0.950 . S
H775 C799 0.950 . S
H776 C800 0.950 1_455 S
H777 C801 0.951 . S
H778 C803 0.951 . S
H779 C805 0.950 . S
H780 C806 0.950 . S
H781 C808 0.950 . S
H782 C811 0.950 . S
H783 C812 0.950 . S
H784 C814 0.950 . S
H785 C815 0.950 1_655 S
C786 H768 0.951 . S
C786 C787 1.366 . S
C786 C788 1.388 . S
C787 C786 1.366 . S
C787 C791 1.385 . S
C788 H769 0.951 . S
C788 C786 1.388 . S
C788 C789 1.366 . S
C789 C788 1.366 . S
C789 C790 1.414 . S
C789 C792 1.499 . S
C790 H770 0.950 . S
C790 C789 1.414 . S
C790 C791 1.374 . S
C791 H771 0.950 . S
C791 C787 1.385 . S
C791 C790 1.374 . S
C792 C789 1.499 . S
C792 C793 1.373 . S
C792 C794 1.389 . S
C793 H772 0.950 . S
C793 C792 1.373 . S
C793 C809 1.377 1_655 S
C794 C792 1.389 . S
C794 C795 1.524 . S
C794 C808 1.377 1_655 S
C795 C794 1.524 . S
C795 C796 1.397 . S
C795 C800 1.363 . S
C796 H773 0.950 . S
C796 C795 1.397 . S
C796 C797 1.334 . S
C797 H774 0.950 . S
C797 C796 1.334 . S
C797 C798 1.287 . S
C798 C797 1.287 . S
C798 C799 1.524 . S
C798 H817 0.913 . S
C799 H775 0.950 . S
C799 C798 1.524 . S
C799 C800 1.415 . S
C800 H776 0.950 1_655 S
C800 C795 1.363 . S
C800 C799 1.415 . S
C801 H777 0.951 . S
C801 C802 1.366 . S
C801 C803 1.388 . S
C802 C801 1.366 . S
C802 C806 1.385 . S
C803 H778 0.951 . S
C803 C801 1.388 . S
C803 C804 1.366 . S
C804 C803 1.366 . S
C804 C805 1.414 . S
C804 C807 1.499 . S
C805 H779 0.950 . S
C805 C804 1.414 . S
C805 C806 1.374 . S
C806 H780 0.950 . S
C806 C802 1.385 . S
C806 C805 1.374 . S
C807 C804 1.499 . S
C807 C808 1.373 . S
C807 C809 1.389 . S
C808 H781 0.950 . S
C808 C794 1.377 1_455 S
C808 C807 1.373 . S
C809 C793 1.377 1_455 S
C809 C807 1.389 . S
C809 C810 1.524 . S
C810 C809 1.524 . S
C810 C811 1.397 . S
C810 C815 1.363 . S
C811 H782 0.950 . S
C811 C810 1.397 . S
C811 C812 1.334 . S
C812 H783 0.950 . S
C812 C811 1.334 . S
C812 C813 1.287 . S
C813 C812 1.287 . S
C813 C814 1.524 . S
C813 H816 0.999 . S
C814 H784 0.950 . S
C814 C813 1.524 . S
C814 C815 1.415 . S
C815 H785 0.950 1_455 S
C815 C810 1.363 . S
C815 C814 1.415 . S
H816 C813 0.999 . S
H817 C798 0.913 . S
H818 C836 0.951 . S
H819 C838 0.951 . S
H820 C840 0.950 . S
H821 C841 0.950 . S
H822 C843 0.950 . S
H823 C846 0.950 . S
H824 C847 0.950 . S
H825 C849 0.950 . S
H826 C850 0.950 . S
H827 C851 0.951 . S
H828 C853 0.951 . S
H829 C855 0.950 . S
H830 C856 0.950 . S
H831 C858 0.950 . S
H832 C861 0.950 . S
H833 C862 0.950 . S
H834 C864 0.950 . S
H835 C865 0.950 . S
C836 H818 0.951 . S
C836 C837 1.366 . S
C836 C838 1.388 . S
C837 C836 1.366 . S
C837 C841 1.385 . S
C838 H819 0.951 . S
C838 C836 1.388 . S
C838 C839 1.366 . S
C839 C838 1.366 . S
C839 C840 1.414 . S
C839 C842 1.499 . S
C840 H820 0.950 . S
C840 C839 1.414 . S
C840 C841 1.374 . S
C841 H821 0.950 . S
C841 C837 1.385 . S
C841 C840 1.374 . S
C842 C839 1.499 . S
C842 C843 1.373 . S
C842 C844 1.389 . S
C843 H822 0.950 . S
C843 C842 1.373 . S
C843 C859 1.377 1_565 S
C844 C842 1.389 . S
C844 C845 1.524 . S
C844 C858 1.377 1_565 S
C845 C844 1.524 . S
C845 C846 1.397 . S
C845 C850 1.363 . S
C846 H823 0.950 . S
C846 C845 1.397 . S
C846 C847 1.334 . S
C847 H824 0.950 . S
C847 C846 1.334 . S
C847 C848 1.287 . S
C848 C847 1.287 . S
C848 C849 1.524 . S
C848 H867 0.913 . S
C849 H825 0.950 . S
C849 C848 1.524 . S
C849 C850 1.415 . S
C850 H826 0.950 . S
C850 C845 1.363 . S
C850 C849 1.415 . S
C851 H827 0.951 . S
C851 C852 1.366 . S
C851 C853 1.388 . S
C852 C851 1.366 . S
C852 C856 1.385 . S
C853 H828 0.951 . S
C853 C851 1.388 . S
C853 C854 1.366 . S
C854 C853 1.366 . S
C854 C855 1.414 . S
C854 C857 1.499 . S
C855 H829 0.950 . S
C855 C854 1.414 . S
C855 C856 1.374 . S
C856 H830 0.950 . S
C856 C852 1.385 . S
C856 C855 1.374 . S
C857 C854 1.499 . S
C857 C858 1.373 . S
C857 C859 1.389 . S
C858 H831 0.950 . S
C858 C844 1.377 1_545 S
C858 C857 1.373 . S
C859 C843 1.377 1_545 S
C859 C857 1.389 . S
C859 C860 1.524 . S
C860 C859 1.524 . S
C860 C861 1.397 . S
C860 C865 1.363 . S
C861 H832 0.950 . S
C861 C860 1.397 . S
C861 C862 1.334 . S
C862 H833 0.950 . S
C862 C861 1.334 . S
C862 C863 1.287 . S
C863 C862 1.287 . S
C863 C864 1.524 . S
C863 H866 0.999 . S
C864 H834 0.950 . S
C864 C863 1.524 . S
C864 C865 1.415 . S
C865 H835 0.950 . S
C865 C860 1.363 . S
C865 C864 1.415 . S
H866 C863 0.999 . S
H867 C848 0.913 . S
H868 C886 0.951 . S
H869 C888 0.951 . S
H870 C890 0.950 . S
H871 C891 0.950 . S
H872 C893 0.950 . S
H873 C896 0.950 . S
H874 C897 0.950 . S
H875 C899 0.950 . S
H876 C900 0.950 . S
H877 C901 0.951 . S
H878 C903 0.951 . S
H879 C905 0.950 . S
H880 C906 0.950 . S
H881 C908 0.950 . S
H882 C911 0.950 . S
H883 C912 0.950 . S
H884 C914 0.950 . S
H885 C915 0.950 . S
C886 H868 0.951 . S
C886 C887 1.366 . S
C886 C888 1.388 . S
C887 C886 1.366 . S
C887 C891 1.385 . S
C888 H869 0.951 . S
C888 C886 1.388 . S
C888 C889 1.366 . S
C889 C888 1.366 . S
C889 C890 1.414 . S
C889 C892 1.499 . S
C890 H870 0.950 . S
C890 C889 1.414 . S
C890 C891 1.374 . S
C891 H871 0.950 . S
C891 C887 1.385 . S
C891 C890 1.374 . S
C892 C889 1.499 . S
C892 C893 1.373 . S
C892 C894 1.389 . S
C893 H872 0.950 . S
C893 C892 1.373 . S
C893 C909 1.377 . S
C894 C892 1.389 . S
C894 C895 1.524 . S
C894 C908 1.377 . S
C895 C894 1.524 . S
C895 C896 1.397 . S
C895 C900 1.363 . S
C896 H873 0.950 . S
C896 C895 1.397 . S
C896 C897 1.334 . S
C897 H874 0.950 . S
C897 C896 1.334 . S
C897 C898 1.287 . S
C898 C897 1.287 . S
C898 C899 1.524 . S
C898 H917 0.913 . S
C899 H875 0.950 . S
C899 C898 1.524 . S
C899 C900 1.415 . S
C900 H876 0.950 . S
C900 C895 1.363 . S
C900 C899 1.415 . S
C901 H877 0.951 . S
C901 C902 1.366 . S
C901 C903 1.388 . S
C902 C901 1.366 . S
C902 C906 1.385 . S
C903 H878 0.951 . S
C903 C901 1.388 . S
C903 C904 1.366 . S
C904 C903 1.366 . S
C904 C905 1.414 . S
C904 C907 1.499 . S
C905 H879 0.950 . S
C905 C904 1.414 . S
C905 C906 1.374 . S
C906 H880 0.950 . S
C906 C902 1.385 . S
C906 C905 1.374 . S
C907 C904 1.499 . S
C907 C908 1.373 . S
C907 C909 1.389 . S
C908 H881 0.950 . S
C908 C894 1.377 . S
C908 C907 1.373 . S
C909 C893 1.377 . S
C909 C907 1.389 . S
C909 C910 1.524 . S
C910 C909 1.524 . S
C910 C911 1.397 . S
C910 C915 1.363 . S
C911 H882 0.950 . S
C911 C910 1.397 . S
C911 C912 1.334 . S
C912 H883 0.950 . S
C912 C911 1.334 . S
C912 C913 1.287 . S
C913 C912 1.287 . S
C913 C914 1.524 . S
C913 H916 0.999 . S
C914 H884 0.950 . S
C914 C913 1.524 . S
C914 C915 1.415 . S
C915 H885 0.950 . S
C915 C910 1.363 . S
C915 C914 1.415 . S
H916 C913 0.999 . S
H917 C898 0.913 . S
H918 C936 0.951 . S
H919 C938 0.951 . S
H920 C940 0.950 . S
H921 C941 0.950 . S
H922 C943 0.950 . S
H923 C946 0.950 . S
H924 C947 0.950 . S
H925 C949 0.950 . S
H926 C950 0.950 . S
H927 C951 0.951 . S
H928 C953 0.951 . S
H929 C955 0.950 . S
H930 C956 0.950 . S
H931 C958 0.950 . S
H932 C961 0.950 . S
H933 C962 0.950 . S
H934 C964 0.950 . S
H935 C965 0.950 . S
C936 H918 0.951 . S
C936 C937 1.366 . S
C936 C938 1.388 . S
C937 C936 1.366 . S
C937 C941 1.385 . S
C938 H919 0.951 . S
C938 C936 1.388 . S
C938 C939 1.366 . S
C939 C938 1.366 . S
C939 C940 1.414 . S
C939 C942 1.499 . S
C940 H920 0.950 . S
C940 C939 1.414 . S
C940 C941 1.374 . S
C941 H921 0.950 . S
C941 C937 1.385 . S
C941 C940 1.374 . S
C942 C939 1.499 . S
C942 C943 1.373 . S
C942 C944 1.389 . S
C943 H922 0.950 . S
C943 C942 1.373 . S
C943 C959 1.377 1_455 S
C944 C942 1.389 . S
C944 C945 1.524 . S
C944 C958 1.377 1_455 S
C945 C944 1.524 . S
C945 C946 1.397 . S
C945 C950 1.363 . S
C946 H923 0.950 . S
C946 C945 1.397 . S
C946 C947 1.334 . S
C947 H924 0.950 . S
C947 C946 1.334 . S
C947 C948 1.287 . S
C948 C947 1.287 . S
C948 C949 1.524 . S
C948 H967 0.913 . S
C949 H925 0.950 . S
C949 C948 1.524 . S
C949 C950 1.415 . S
C950 H926 0.950 . S
C950 C945 1.363 . S
C950 C949 1.415 . S
C951 H927 0.951 . S
C951 C952 1.366 . S
C951 C953 1.388 . S
C952 C951 1.366 . S
C952 C956 1.385 . S
C953 H928 0.951 . S
C953 C951 1.388 . S
C953 C954 1.366 . S
C954 C953 1.366 . S
C954 C955 1.414 . S
C954 C957 1.499 . S
C955 H929 0.950 . S
C955 C954 1.414 . S
C955 C956 1.374 . S
C956 H930 0.950 . S
C956 C952 1.385 . S
C956 C955 1.374 . S
C957 C954 1.499 . S
C957 C958 1.373 . S
C957 C959 1.389 . S
C958 H931 0.950 . S
C958 C944 1.377 1_655 S
C958 C957 1.373 . S
C959 C943 1.377 1_655 S
C959 C957 1.389 . S
C959 C960 1.524 . S
C960 C959 1.524 . S
C960 C961 1.397 . S
C960 C965 1.363 . S
C961 H932 0.950 . S
C961 C960 1.397 . S
C961 C962 1.334 . S
C962 H933 0.950 . S
C962 C961 1.334 . S
C962 C963 1.287 . S
C963 C962 1.287 . S
C963 C964 1.524 . S
C963 H966 0.999 . S
C964 H934 0.950 . S
C964 C963 1.524 . S
C964 C965 1.415 . S
C965 H935 0.950 . S
C965 C960 1.363 . S
C965 C964 1.415 . S
H966 C963 0.999 . S
H967 C948 0.913 . S
H968 C986 0.930 1_554 S
H969 C988 0.951 1_554 S
H970 C990 0.950 . S
H971 C991 0.950 . S
H972 C993 0.950 . S
H973 C996 0.950 . S
H974 C997 0.950 . S
H975 C999 0.950 . S
H976 C1000 0.950 . S
H977 C1001 0.951 1_556 S
H978 C1003 0.915 1_556 S
H979 C1005 0.950 . S
H980 C1006 0.950 . S
H981 C1008 0.950 . S
H982 C1011 0.950 . S
H983 C1012 0.950 . S
H984 C1014 0.950 . S
H985 C1015 0.950 . S
C986 H968 0.930 1_556 S
C986 C987 1.366 . S
C986 C988 1.388 . S
C987 C986 1.366 . S
C987 C991 1.385 . S
C988 H969 0.951 1_556 S
C988 C986 1.388 . S
C988 C989 1.366 . S
C989 C988 1.366 . S
C989 C990 1.414 . S
C989 C992 1.499 . S
C990 H970 0.950 . S
C990 C989 1.414 . S
C990 C991 1.374 . S
C991 H971 0.950 . S
C991 C987 1.385 . S
C991 C990 1.374 . S
C992 C989 1.499 . S
C992 C993 1.373 . S
C992 C994 1.389 1_556 S
C993 H972 0.950 . S
C993 C992 1.373 . S
C993 C1009 1.377 1_545 S
C994 C992 1.389 1_554 S
C994 C995 1.524 . S
C994 C1008 1.377 1_545 S
C995 C994 1.524 . S
C995 C996 1.397 . S
C995 C1000 1.363 . S
C996 H973 0.950 . S
C996 C995 1.397 . S
C996 C997 1.334 . S
C997 H974 0.950 . S
C997 C996 1.334 . S
C997 C998 1.287 . S
C998 C997 1.287 . S
C998 C999 1.524 . S
C998 H1017 0.913 . S
C999 H975 0.950 . S
C999 C998 1.524 . S
C999 C1000 1.415 . S
C1000 H976 0.950 . S
C1000 C995 1.363 . S
C1000 C999 1.415 . S
C1001 H977 0.951 1_554 S
C1001 C1002 1.366 . S
C1001 C1003 1.401 . S
C1002 C1001 1.366 . S
C1002 C1006 1.385 . S
C1003 H978 0.915 1_554 S
C1003 C1001 1.401 . S
C1003 C1004 1.389 . S
C1004 C1003 1.389 . S
C1004 C1005 1.414 . S
C1004 C1007 1.499 . S
C1005 H979 0.950 . S
C1005 C1004 1.414 . S
C1005 C1006 1.374 . S
C1006 H980 0.950 . S
C1006 C1002 1.385 . S
C1006 C1005 1.374 . S
C1007 C1004 1.499 . S
C1007 C1008 1.373 . S
C1007 C1009 1.389 1_554 S
C1008 H981 0.950 . S
C1008 C994 1.377 1_565 S
C1008 C1007 1.373 . S
C1009 C993 1.377 1_565 S
C1009 C1007 1.389 1_556 S
C1009 C1010 1.524 . S
C1010 C1009 1.524 . S
C1010 C1011 1.397 . S
C1010 C1015 1.363 . S
C1011 H982 0.950 . S
C1011 C1010 1.397 . S
C1011 C1012 1.334 . S
C1012 H983 0.950 . S
C1012 C1011 1.334 . S
C1012 C1013 1.287 . S
C1013 C1012 1.287 . S
C1013 C1014 1.524 . S
C1013 H1016 0.999 . S
C1014 H984 0.950 . S
C1014 C1013 1.524 . S
C1014 C1015 1.415 . S
C1015 H985 0.950 . S
C1015 C1010 1.363 . S
C1015 C1014 1.415 . S
H1016 C1013 0.999 . S
H1017 C998 0.913 . S
H1018 C1036 0.951 . S
H1019 C1038 0.951 . S
H1020 C1040 0.950 . S
H1021 C1041 0.950 . S
H1022 C1043 0.950 . S
H1023 C1046 0.950 . S
H1024 C1047 0.950 . S
H1025 C1049 0.950 . S
H1026 C1050 0.950 . S
H1027 C1051 0.951 . S
H1028 C1053 0.951 . S
H1029 C1055 0.950 . S
H1030 C1056 0.950 . S
H1031 C1058 0.950 . S
H1032 C1061 0.950 . S
H1033 C1062 0.950 . S
H1034 C1064 0.950 . S
H1035 C1065 0.950 . S
C1036 H1018 0.951 . S
C1036 C1037 1.366 . S
C1036 C1038 1.388 . S
C1037 C1036 1.366 . S
C1037 C1041 1.385 . S
C1038 H1019 0.951 . S
C1038 C1036 1.388 . S
C1038 C1039 1.366 . S
C1039 C1038 1.366 . S
C1039 C1040 1.414 . S
C1039 C1042 1.499 . S
C1040 H1020 0.950 . S
C1040 C1039 1.414 . S
C1040 C1041 1.374 . S
C1041 H1021 0.950 . S
C1041 C1037 1.385 . S
C1041 C1040 1.374 . S
C1042 C1039 1.499 . S
C1042 C1043 1.373 . S
C1042 C1044 1.389 . S
C1043 H1022 0.950 . S
C1043 C1042 1.373 . S
C1043 C1059 1.377 . S
C1044 C1042 1.389 . S
C1044 C1045 1.524 . S
C1044 C1058 1.377 . S
C1045 C1044 1.524 . S
C1045 C1046 1.397 . S
C1045 C1050 1.363 . S
C1046 H1023 0.950 . S
C1046 C1045 1.397 . S
C1046 C1047 1.334 . S
C1047 H1024 0.950 . S
C1047 C1046 1.334 . S
C1047 C1048 1.287 . S
C1048 C1047 1.287 . S
C1048 C1049 1.524 . S
C1048 H1067 0.913 . S
C1049 H1025 0.950 . S
C1049 C1048 1.524 . S
C1049 C1050 1.415 . S
C1050 H1026 0.950 . S
C1050 C1045 1.363 . S
C1050 C1049 1.415 . S
C1051 H1027 0.951 . S
C1051 C1052 1.366 . S
C1051 C1053 1.388 . S
C1052 C1051 1.366 . S
C1052 C1056 1.385 . S
C1053 H1028 0.951 . S
C1053 C1051 1.388 . S
C1053 C1054 1.366 . S
C1054 C1053 1.366 . S
C1054 C1055 1.414 . S
C1054 C1057 1.499 . S
C1055 H1029 0.950 . S
C1055 C1054 1.414 . S
C1055 C1056 1.374 . S
C1056 H1030 0.950 . S
C1056 C1052 1.385 . S
C1056 C1055 1.374 . S
C1057 C1054 1.499 . S
C1057 C1058 1.373 . S
C1057 C1059 1.389 . S
C1058 H1031 0.950 . S
C1058 C1044 1.377 . S
C1058 C1057 1.373 . S
C1059 C1043 1.377 . S
C1059 C1057 1.389 . S
C1059 C1060 1.524 . S
C1060 C1059 1.524 . S
C1060 C1061 1.397 . S
C1060 C1065 1.363 . S
C1061 H1032 0.950 . S
C1061 C1060 1.397 . S
C1061 C1062 1.334 . S
C1062 H1033 0.950 . S
C1062 C1061 1.334 . S
C1062 C1063 1.287 . S
C1063 C1062 1.287 . S
C1063 C1064 1.524 . S
C1063 H1066 0.999 . S
C1064 H1034 0.950 . S
C1064 C1063 1.524 . S
C1064 C1065 1.415 . S
C1065 H1035 0.950 . S
C1065 C1060 1.363 . S
C1065 C1064 1.415 . S
H1066 C1063 0.999 . S
H1067 C1048 0.913 . S
H1068 C1086 0.951 . S
H1069 C1088 0.951 . S
H1070 C1090 0.950 . S
H1071 C1091 0.950 . S
H1072 C1093 0.950 . S
H1073 C1096 0.950 . S
H1074 C1097 0.950 . S
H1075 C1099 0.950 . S
H1076 C1100 0.950 . S
H1077 C1101 0.951 . S
H1078 C1103 0.951 . S
H1079 C1105 0.950 . S
H1080 C1106 0.950 . S
H1081 C1108 0.950 . S
H1082 C1111 0.950 . S
H1083 C1112 0.950 . S
H1084 C1114 0.950 . S
H1085 C1115 0.950 . S
C1086 H1068 0.951 . S
C1086 C1087 1.366 . S
C1086 C1088 1.388 . S
C1087 C1086 1.366 . S
C1087 C1091 1.385 . S
C1088 H1069 0.951 . S
C1088 C1086 1.388 . S
C1088 C1089 1.366 . S
C1089 C1088 1.366 . S
C1089 C1090 1.414 . S
C1089 C1092 1.499 . S
C1090 H1070 0.950 . S
C1090 C1089 1.414 . S
C1090 C1091 1.374 . S
C1091 H1071 0.950 . S
C1091 C1087 1.385 . S
C1091 C1090 1.374 . S
C1092 C1089 1.499 . S
C1092 C1093 1.373 . S
C1092 C1094 1.389 . S
C1093 H1072 0.950 . S
C1093 C1092 1.373 . S
C1093 C1109 1.377 . S
C1094 C1092 1.389 . S
C1094 C1095 1.524 . S
C1094 C1108 1.377 . S
C1095 C1094 1.524 . S
C1095 C1096 1.397 . S
C1095 C1100 1.363 . S
C1096 H1073 0.950 . S
C1096 C1095 1.397 . S
C1096 C1097 1.334 . S
C1097 H1074 0.950 . S
C1097 C1096 1.334 . S
C1097 C1098 1.287 . S
C1098 C1097 1.287 . S
C1098 C1099 1.524 . S
C1098 H1117 0.913 . S
C1099 H1075 0.950 . S
C1099 C1098 1.524 . S
C1099 C1100 1.415 . S
C1100 H1076 0.950 . S
C1100 C1095 1.363 . S
C1100 C1099 1.415 . S
C1101 H1077 0.951 . S
C1101 C1102 1.366 . S
C1101 C1103 1.388 . S
C1102 C1101 1.366 . S
C1102 C1106 1.385 . S
C1103 H1078 0.951 . S
C1103 C1101 1.388 . S
C1103 C1104 1.366 . S
C1104 C1103 1.366 . S
C1104 C1105 1.414 . S
C1104 C1107 1.499 . S
C1105 H1079 0.950 . S
C1105 C1104 1.414 . S
C1105 C1106 1.374 . S
C1106 H1080 0.950 . S
C1106 C1102 1.385 . S
C1106 C1105 1.374 . S
C1107 C1104 1.499 . S
C1107 C1108 1.373 . S
C1107 C1109 1.389 . S
C1108 H1081 0.950 . S
C1108 C1094 1.377 . S
C1108 C1107 1.373 . S
C1109 C1093 1.377 . S
C1109 C1107 1.389 . S
C1109 C1110 1.524 . S
C1110 C1109 1.524 . S
C1110 C1111 1.397 . S
C1110 C1115 1.363 . S
C1111 H1082 0.950 . S
C1111 C1110 1.397 . S
C1111 C1112 1.334 . S
C1112 H1083 0.950 . S
C1112 C1111 1.334 . S
C1112 C1113 1.287 . S
C1113 C1112 1.287 . S
C1113 C1114 1.524 . S
C1113 H1116 0.999 . S
C1114 H1084 0.950 . S
C1114 C1113 1.524 . S
C1114 C1115 1.415 . S
C1115 H1085 0.950 . S
C1115 C1110 1.363 . S
C1115 C1114 1.415 . S
H1116 C1113 0.999 . S
H1117 C1098 0.913 . S
H1118 C1136 0.951 . S
H1119 C1138 0.951 . S
H1120 C1140 0.950 . S
H1121 C1141 0.950 . S
H1122 C1143 0.950 . S
H1123 C1146 0.950 . S
H1124 C1147 0.950 . S
H1125 C1149 0.950 . S
H1126 C1150 0.950 . S
H1127 C1151 0.951 . S
H1128 C1153 0.951 . S
H1129 C1155 0.950 . S
H1130 C1156 0.950 . S
H1131 C1158 0.950 . S
H1132 C1161 0.950 . S
H1133 C1162 0.950 . S
H1134 C1164 0.950 . S
H1135 C1165 0.950 . S
C1136 H1118 0.951 . S
C1136 C1137 1.366 . S
C1136 C1138 1.388 . S
C1137 C1136 1.366 . S
C1137 C1141 1.385 . S
C1138 H1119 0.951 . S
C1138 C1136 1.388 . S
C1138 C1139 1.366 . S
C1139 C1138 1.366 . S
C1139 C1140 1.414 . S
C1139 C1142 1.499 . S
C1140 H1120 0.950 . S
C1140 C1139 1.414 . S
C1140 C1141 1.374 . S
C1141 H1121 0.950 . S
C1141 C1137 1.385 . S
C1141 C1140 1.374 . S
C1142 C1139 1.499 . S
C1142 C1143 1.373 . S
C1142 C1144 1.389 . S
C1143 H1122 0.950 . S
C1143 C1142 1.373 . S
C1143 C1159 1.377 . S
C1144 C1142 1.389 . S
C1144 C1145 1.524 . S
C1144 C1158 1.377 . S
C1145 C1144 1.524 . S
C1145 C1146 1.397 . S
C1145 C1150 1.363 . S
C1146 H1123 0.950 . S
C1146 C1145 1.397 . S
C1146 C1147 1.334 . S
C1147 H1124 0.950 . S
C1147 C1146 1.334 . S
C1147 C1148 1.287 . S
C1148 C1147 1.287 . S
C1148 C1149 1.524 . S
C1148 H1167 0.913 . S
C1149 H1125 0.950 . S
C1149 C1148 1.524 . S
C1149 C1150 1.415 . S
C1150 H1126 0.950 . S
C1150 C1145 1.363 . S
C1150 C1149 1.415 . S
C1151 H1127 0.951 . S
C1151 C1152 1.366 . S
C1151 C1153 1.388 . S
C1152 C1151 1.366 . S
C1152 C1156 1.385 . S
C1153 H1128 0.951 . S
C1153 C1151 1.388 . S
C1153 C1154 1.366 . S
C1154 C1153 1.366 . S
C1154 C1155 1.414 . S
C1154 C1157 1.499 . S
C1155 H1129 0.950 . S
C1155 C1154 1.414 . S
C1155 C1156 1.374 . S
C1156 H1130 0.950 . S
C1156 C1152 1.385 . S
C1156 C1155 1.374 . S
C1157 C1154 1.499 . S
C1157 C1158 1.373 . S
C1157 C1159 1.389 . S
C1158 H1131 0.950 . S
C1158 C1144 1.377 . S
C1158 C1157 1.373 . S
C1159 C1143 1.377 . S
C1159 C1157 1.389 . S
C1159 C1160 1.524 . S
C1160 C1159 1.524 . S
C1160 C1161 1.397 . S
C1160 C1165 1.363 . S
C1161 H1132 0.950 . S
C1161 C1160 1.397 . S
C1161 C1162 1.334 . S
C1162 H1133 0.950 . S
C1162 C1161 1.334 . S
C1162 C1163 1.287 . S
C1163 C1162 1.287 . S
C1163 C1164 1.524 . S
C1163 H1166 0.999 . S
C1164 H1134 0.950 . S
C1164 C1163 1.524 . S
C1164 C1165 1.415 . S
C1165 H1135 0.950 . S
C1165 C1160 1.363 . S
C1165 C1164 1.415 . S
H1166 C1163 0.999 . S
H1167 C1148 0.913 . S
H1168 C1186 0.951 . S
H1169 C1188 0.951 . S
H1170 C1190 0.950 . S
H1171 C1191 0.950 . S
H1172 C1193 0.950 . S
H1173 C1196 0.950 . S
H1174 C1197 0.950 . S
H1175 C1199 0.950 . S
H1176 C1200 0.950 . S
H1177 C1201 0.951 . S
H1178 C1203 0.951 . S
H1179 C1205 0.950 . S
H1180 C1206 0.950 . S
H1181 C1208 0.950 . S
H1182 C1211 0.950 . S
H1183 C1212 0.950 . S
H1184 C1214 0.950 . S
H1185 C1215 0.950 . S
C1186 H1168 0.951 . S
C1186 C1187 1.366 . S
C1186 C1188 1.388 . S
C1187 C1186 1.366 . S
C1187 C1191 1.385 . S
C1188 H1169 0.951 . S
C1188 C1186 1.388 . S
C1188 C1189 1.366 . S
C1189 C1188 1.366 . S
C1189 C1190 1.414 . S
C1189 C1192 1.499 . S
C1190 H1170 0.950 . S
C1190 C1189 1.414 . S
C1190 C1191 1.374 . S
C1191 H1171 0.950 . S
C1191 C1187 1.385 . S
C1191 C1190 1.374 . S
C1192 C1189 1.499 . S
C1192 C1193 1.373 . S
C1192 C1194 1.389 . S
C1193 H1172 0.950 . S
C1193 C1192 1.373 . S
C1193 C1209 1.377 . S
C1194 C1192 1.389 . S
C1194 C1195 1.524 . S
C1194 C1208 1.377 . S
C1195 C1194 1.524 . S
C1195 C1196 1.397 . S
C1195 C1200 1.363 . S
C1196 H1173 0.950 . S
C1196 C1195 1.397 . S
C1196 C1197 1.334 . S
C1197 H1174 0.950 . S
C1197 C1196 1.334 . S
C1197 C1198 1.287 . S
C1198 C1197 1.287 . S
C1198 C1199 1.524 . S
C1198 H1217 0.913 . S
C1199 H1175 0.950 . S
C1199 C1198 1.524 . S
C1199 C1200 1.415 . S
C1200 H1176 0.950 . S
C1200 C1195 1.363 . S
C1200 C1199 1.415 . S
C1201 H1177 0.951 . S
C1201 C1202 1.366 . S
C1201 C1203 1.388 . S
C1202 C1201 1.366 . S
C1202 C1206 1.385 . S
C1203 H1178 0.951 . S
C1203 C1201 1.388 . S
C1203 C1204 1.366 . S
C1204 C1203 1.366 . S
C1204 C1205 1.414 . S
C1204 C1207 1.499 . S
C1205 H1179 0.950 . S
C1205 C1204 1.414 . S
C1205 C1206 1.374 . S
C1206 H1180 0.950 . S
C1206 C1202 1.385 . S
C1206 C1205 1.374 . S
C1207 C1204 1.499 . S
C1207 C1208 1.373 . S
C1207 C1209 1.389 . S
C1208 H1181 0.950 . S
C1208 C1194 1.377 . S
C1208 C1207 1.373 . S
C1209 C1193 1.377 . S
C1209 C1207 1.389 . S
C1209 C1210 1.524 . S
C1210 C1209 1.524 . S
C1210 C1211 1.397 . S
C1210 C1215 1.363 . S
C1211 H1182 0.950 . S
C1211 C1210 1.397 . S
C1211 C1212 1.334 . S
C1212 H1183 0.950 . S
C1212 C1211 1.334 . S
C1212 C1213 1.287 . S
C1213 C1212 1.287 . S
C1213 C1214 1.524 . S
C1213 H1216 0.999 . S
C1214 H1184 0.950 . S
C1214 C1213 1.524 . S
C1214 C1215 1.415 . S
C1215 H1185 0.950 . S
C1215 C1210 1.363 . S
C1215 C1214 1.415 . S
H1216 C1213 0.999 . S
H1217 C1198 0.913 . S
H1218 C1236 0.951 . S
H1219 C1238 0.951 . S
H1220 C1240 0.950 . S
H1221 C1241 0.950 . S
H1222 C1243 0.950 . S
H1223 C1246 0.950 . S
H1224 C1247 0.950 . S
H1225 C1249 0.950 . S
H1226 C1250 0.950 . S
H1227 C1251 0.951 . S
H1228 C1253 0.951 . S
H1229 C1255 0.950 . S
H1230 C1256 0.950 . S
H1231 C1258 0.950 . S
H1232 C1261 0.950 . S
H1233 C1262 0.950 . S
H1234 C1264 0.950 . S
H1235 C1265 0.950 . S
C1236 H1218 0.951 . S
C1236 C1237 1.366 . S
C1236 C1238 1.388 . S
C1237 C1236 1.366 . S
C1237 C1241 1.385 . S
C1238 H1219 0.951 . S
C1238 C1236 1.388 . S
C1238 C1239 1.366 . S
C1239 C1238 1.366 . S
C1239 C1240 1.414 . S
C1239 C1242 1.499 . S
C1240 H1220 0.950 . S
C1240 C1239 1.414 . S
C1240 C1241 1.374 . S
C1241 H1221 0.950 . S
C1241 C1237 1.385 . S
C1241 C1240 1.374 . S
C1242 C1239 1.499 . S
C1242 C1243 1.373 . S
C1242 C1244 1.389 . S
C1243 H1222 0.950 . S
C1243 C1242 1.373 . S
C1243 C1259 1.377 . S
C1244 C1242 1.389 . S
C1244 C1245 1.524 . S
C1244 C1258 1.377 . S
C1245 C1244 1.524 . S
C1245 C1246 1.397 . S
C1245 C1250 1.363 . S
C1246 H1223 0.950 . S
C1246 C1245 1.397 . S
C1246 C1247 1.334 . S
C1247 H1224 0.950 . S
C1247 C1246 1.334 . S
C1247 C1248 1.287 . S
C1248 C1247 1.287 . S
C1248 C1249 1.524 . S
C1248 H1267 0.913 . S
C1249 H1225 0.950 . S
C1249 C1248 1.524 . S
C1249 C1250 1.415 . S
C1250 H1226 0.950 . S
C1250 C1245 1.363 . S
C1250 C1249 1.415 . S
C1251 H1227 0.951 . S
C1251 C1252 1.366 . S
C1251 C1253 1.388 . S
C1252 C1251 1.366 . S
C1252 C1256 1.385 . S
C1253 H1228 0.951 . S
C1253 C1251 1.388 . S
C1253 C1254 1.366 . S
C1254 C1253 1.366 . S
C1254 C1255 1.414 . S
C1254 C1257 1.499 . S
C1255 H1229 0.950 . S
C1255 C1254 1.414 . S
C1255 C1256 1.374 . S
C1256 H1230 0.950 . S
C1256 C1252 1.385 . S
C1256 C1255 1.374 . S
C1257 C1254 1.499 . S
C1257 C1258 1.373 . S
C1257 C1259 1.389 . S
C1258 H1231 0.950 . S
C1258 C1244 1.377 . S
C1258 C1257 1.373 . S
C1259 C1243 1.377 . S
C1259 C1257 1.389 . S
C1259 C1260 1.524 . S
C1260 C1259 1.524 . S
C1260 C1261 1.397 . S
C1260 C1265 1.363 . S
C1261 H1232 0.950 . S
C1261 C1260 1.397 . S
C1261 C1262 1.334 . S
C1262 H1233 0.950 . S
C1262 C1261 1.334 . S
C1262 C1263 1.287 . S
C1263 C1262 1.287 . S
C1263 C1264 1.524 . S
C1263 H1266 0.999 . S
C1264 H1234 0.950 . S
C1264 C1263 1.524 . S
C1264 C1265 1.415 . S
C1265 H1235 0.950 . S
C1265 C1260 1.363 . S
C1265 C1264 1.415 . S
H1266 C1263 0.999 . S
H1267 C1248 0.913 . S
H1268 C1286 0.951 . S
H1269 C1288 0.951 . S
H1270 C1290 0.950 . S
H1271 C1291 0.950 1_554 S
H1272 C1293 0.950 . S
H1273 C1296 0.950 . S
H1274 C1297 0.950 1_554 S
H1275 C1299 0.950 . S
H1276 C1300 0.950 . S
H1277 C1301 0.951 . S
H1278 C1303 0.951 . S
H1279 C1305 0.950 . S
H1280 C1306 0.950 . S
H1281 C1308 0.950 . S
H1282 C1311 0.950 . S
H1283 C1312 0.950 . S
H1284 C1314 0.950 . S
H1285 C1315 0.950 . S
C1286 H1268 0.951 . S
C1286 C1287 1.366 . S
C1286 C1288 1.388 . S
C1287 C1286 1.366 . S
C1287 C1291 1.385 . S
C1288 H1269 0.951 . S
C1288 C1286 1.388 . S
C1288 C1289 1.366 . S
C1289 C1288 1.366 . S
C1289 C1290 1.414 . S
C1289 C1292 1.499 . S
C1290 H1270 0.950 . S
C1290 C1289 1.414 . S
C1290 C1291 1.374 . S
C1291 H1271 0.950 1_556 S
C1291 C1287 1.385 . S
C1291 C1290 1.374 . S
C1292 C1289 1.499 . S
C1292 C1293 1.373 . S
C1292 C1294 1.389 . S
C1293 H1272 0.950 . S
C1293 C1292 1.373 . S
C1293 C1309 1.377 . S
C1294 C1292 1.389 . S
C1294 C1295 1.524 . S
C1294 C1308 1.377 . S
C1295 C1294 1.524 . S
C1295 C1296 1.397 . S
C1295 C1300 1.363 . S
C1296 H1273 0.950 . S
C1296 C1295 1.397 . S
C1296 C1297 1.334 . S
C1297 H1274 0.950 1_556 S
C1297 C1296 1.334 . S
C1297 C1298 1.287 . S
C1298 C1297 1.287 . S
C1298 C1299 1.524 . S
C1298 H1317 0.913 . S
C1299 H1275 0.950 . S
C1299 C1298 1.524 . S
C1299 C1300 1.415 . S
C1300 H1276 0.950 . S
C1300 C1295 1.363 . S
C1300 C1299 1.415 . S
C1301 H1277 0.951 . S
C1301 C1302 1.366 . S
C1301 C1303 1.388 . S
C1302 C1301 1.366 . S
C1302 C1306 1.385 . S
C1303 H1278 0.951 . S
C1303 C1301 1.388 . S
C1303 C1304 1.366 . S
C1304 C1303 1.366 . S
C1304 C1305 1.414 . S
C1304 C1307 1.499 . S
C1305 H1279 0.950 . S
C1305 C1304 1.414 . S
C1305 C1306 1.374 . S
C1306 H1280 0.950 . S
C1306 C1302 1.385 . S
C1306 C1305 1.374 . S
C1307 C1304 1.499 . S
C1307 C1308 1.373 . S
C1307 C1309 1.389 . S
C1308 H1281 0.950 . S
C1308 C1294 1.377 . S
C1308 C1307 1.373 . S
C1309 C1293 1.377 . S
C1309 C1307 1.389 . S
C1309 C1310 1.524 . S
C1310 C1309 1.524 . S
C1310 C1311 1.397 . S
C1310 C1315 1.363 . S
C1311 H1282 0.950 . S
C1311 C1310 1.397 . S
C1311 C1312 1.334 . S
C1312 H1283 0.950 . S
C1312 C1311 1.334 . S
C1312 C1313 1.287 . S
C1313 C1312 1.287 . S
C1313 C1314 1.524 . S
C1313 H1316 0.999 . S
C1314 H1284 0.950 . S
C1314 C1313 1.524 . S
C1314 C1315 1.415 . S
C1315 H1285 0.950 . S
C1315 C1310 1.363 . S
C1315 C1314 1.415 . S
H1316 C1313 0.999 . S
H1317 C1298 0.913 . S
H1318 C1336 0.951 . S
H1319 C1338 0.951 . S
H1320 C1340 0.950 . S
H1321 C1341 0.950 . S
H1322 C1343 0.950 . S
H1323 C1346 0.950 . S
H1324 C1347 0.950 . S
H1325 C1349 0.950 . S
H1326 C1350 0.950 . S
H1327 C1351 0.951 . S
H1328 C1353 0.951 . S
H1329 C1355 0.950 . S
H1330 C1356 0.950 . S
H1331 C1358 0.950 . S
H1332 C1361 0.950 . S
H1333 C1362 0.950 . S
H1334 C1364 0.950 1_556 S
H1335 C1365 0.950 . S
C1336 H1318 0.951 . S
C1336 C1337 1.366 . S
C1336 C1338 1.388 . S
C1337 C1336 1.366 . S
C1337 C1341 1.385 . S
C1338 H1319 0.951 . S
C1338 C1336 1.388 . S
C1338 C1339 1.366 . S
C1339 C1338 1.366 . S
C1339 C1340 1.414 . S
C1339 C1342 1.499 . S
C1340 H1320 0.950 . S
C1340 C1339 1.414 . S
C1340 C1341 1.374 . S
C1341 H1321 0.950 . S
C1341 C1337 1.385 . S
C1341 C1340 1.374 . S
C1342 C1339 1.499 . S
C1342 C1343 1.373 . S
C1342 C1344 1.389 . S
C1343 H1322 0.950 . S
C1343 C1342 1.373 . S
C1343 C1359 1.377 . S
C1344 C1342 1.389 . S
C1344 C1345 1.524 . S
C1344 C1358 1.377 . S
C1345 C1344 1.524 . S
C1345 C1346 1.397 . S
C1345 C1350 1.363 . S
C1346 H1323 0.950 . S
C1346 C1345 1.397 . S
C1346 C1347 1.334 . S
C1347 H1324 0.950 . S
C1347 C1346 1.334 . S
C1347 C1348 1.287 . S
C1348 C1347 1.287 . S
C1348 C1349 1.524 . S
C1348 H1367 0.913 . S
C1349 H1325 0.950 . S
C1349 C1348 1.524 . S
C1349 C1350 1.415 . S
C1350 H1326 0.950 . S
C1350 C1345 1.363 . S
C1350 C1349 1.415 . S
C1351 H1327 0.951 . S
C1351 C1352 1.366 1_556 S
C1351 C1353 1.388 1_556 S
C1352 C1351 1.366 1_554 S
C1352 C1356 1.385 . S
C1353 H1328 0.951 . S
C1353 C1351 1.388 1_554 S
C1353 C1354 1.366 . S
C1354 C1353 1.366 . S
C1354 C1355 1.414 . S
C1354 C1357 1.499 . S
C1355 H1329 0.950 . S
C1355 C1354 1.414 . S
C1355 C1356 1.374 . S
C1356 H1330 0.950 . S
C1356 C1352 1.385 . S
C1356 C1355 1.374 . S
C1357 C1354 1.499 . S
C1357 C1358 1.373 . S
C1357 C1359 1.389 . S
C1358 H1331 0.950 . S
C1358 C1344 1.377 . S
C1358 C1357 1.373 . S
C1359 C1343 1.377 . S
C1359 C1357 1.389 . S
C1359 C1360 1.524 . S
C1360 C1359 1.524 . S
C1360 C1361 1.397 . S
C1360 C1365 1.363 . S
C1361 H1332 0.950 . S
C1361 C1360 1.397 . S
C1361 C1362 1.334 . S
C1362 H1333 0.950 . S
C1362 C1361 1.334 . S
C1362 C1363 1.287 . S
C1363 C1362 1.287 . S
C1363 C1364 1.524 . S
C1363 H1366 0.999 1_554 S
C1364 H1334 0.950 1_554 S
C1364 C1363 1.524 . S
C1364 C1365 1.415 . S
C1365 H1335 0.950 . S
C1365 C1360 1.363 . S
C1365 C1364 1.415 . S
H1366 C1363 0.999 1_556 S
H1367 C1348 0.913 . S
C187 C9 0.826 . S
C202 C93 0.825 . S
C237 C23 0.826 . S
C252 C107 0.825 . S
C287 C121 0.825 . S
C302 C37 0.826 . S
C337 C51 0.824 . S
C352 C135 0.826 . S
C387 C65 0.826 . S
C402 C149 0.825 . S
C437 C163 0.825 . S
C452 C79 0.826 . S
C487 C120 1.636 . S
C502 C8 1.636 . S
C537 C22 1.637 . S
C552 C134 1.637 . S
C587 C148 1.636 . S
C602 C36 1.636 . S
C637 C162 1.636 . S
C652 C50 1.637 . S
C687 C64 1.637 . S
C702 C92 1.637 . S
C737 C78 1.636 . S
C752 C106 1.636 . S
C787 C160 1.354 . S
C802 C6 1.354 . S
C837 C90 1.354 . S
C852 C20 1.354 . S
C887 C34 1.354 . S
C902 C104 1.353 . S
C937 C118 1.354 . S
C952 C48 1.353 . S
C987 C132 1.354 . S
C1002 C62 1.354 . S
C1037 C146 1.353 . S
C1052 C76 1.354 . S
C1087 C7 1.220 . S
C1102 C147 1.221 . S
C1137 C161 1.221 . S
C1152 C21 1.221 . S
C1187 C35 1.220 . S
C1202 C91 1.221 . S
C1237 C49 1.221 . S
C1252 C105 1.221 . S
C1287 C63 1.221 1_556 S
C1302 C119 1.221 . S
C1337 C77 1.221 . S
C1352 C133 1.220 1_554 S
