# Generated by pormake.
# Topology sxa, (6)-cn, num edge types: 1
# Building blocks:
#     Node 0, Type 0, BuildingBlock: JUFBIX_clean_sbu_0, # of connection points: 6
#     Node 1, Type 0, BuildingBlock: JUFBIX_clean_sbu_0, # of connection points: 6
#     Node 2, Type 0, BuildingBlock: JUFBIX_clean_sbu_0, # of connection points: 6
#     Node 3, Type 0, BuildingBlock: JUFBIX_clean_sbu_0, # of connection points: 6
#     Edge 4, Type (0, 0), BuildingBlock: XUDNAN_clean_linker_2, # of connection points: 2
#     Edge 5, Type (0, 0), BuildingBlock: XUDNAN_clean_linker_2, # of connection points: 2
#     Edge 6, Type (0, 0), BuildingBlock: XUDNAN_clean_linker_2, # of connection points: 2
#     Edge 7, Type (0, 0), BuildingBlock: XUDNAN_clean_linker_2, # of connection points: 2
#     Edge 8, Type (0, 0), BuildingBlock: XUDNAN_clean_linker_2, # of connection points: 2
#     Edge 9, Type (0, 0), BuildingBlock: XUDNAN_clean_linker_2, # of connection points: 2
#     Edge 10, Type (0, 0), BuildingBlock: XUDNAN_clean_linker_2, # of connection points: 2
#     Edge 11, Type (0, 0), BuildingBlock: XUDNAN_clean_linker_2, # of connection points: 2
#     Edge 12, Type (0, 0), BuildingBlock: XUDNAN_clean_linker_2, # of connection points: 2
#     Edge 13, Type (0, 0), BuildingBlock: XUDNAN_clean_linker_2, # of connection points: 2
#     Edge 14, Type (0, 0), BuildingBlock: XUDNAN_clean_linker_2, # of connection points: 2
#     Edge 15, Type (0, 0), BuildingBlock: XUDNAN_clean_linker_2, # of connection points: 2
# Relax obj value: 0.395
# Max RMSD: 0.293
# Mean RMSD: 0.293
data_MOF--net-sxa--node1-JUFBIX_clean_sbu_0--edge1-XUDNAN_clean_linker_2
_symmetry_space_group_name_H-M    P1
_symmetry_Int_Tables_number       1
_symmetry_cell_setting            triclinic
loop_
_symmetry_equiv_pos_as_xyz
'x, y, z'
_cell_length_a     27.748173
_cell_length_b     26.324562
_cell_length_c     15.937404
_cell_angle_alpha  88.950614
_cell_angle_beta   73.535983
_cell_angle_gamma 86.292033
loop_
_atom_site_label
_atom_site_type_symbol
_atom_site_fract_x
_atom_site_fract_y
_atom_site_fract_z
_atom_type_partial_charge
Co0 Co 0.03503 0.80288 0.18325 0.0
C1 C 0.03334 0.89491 0.25527 0.0
Co2 Co 0.04588 0.79355 0.31243 0.0
C3 C 0.013 0.77584 1.02539 0.0
C4 C 0.05214 0.84417 1.01162 0.0
N5 N 0.0311 0.80867 0.07056 0.0
N6 N 0.02161 0.78938 0.9407 0.0
C7 C 0.04575 0.83275 0.93194 0.0
H8 H 0.99166 0.74387 1.05509 0.0
H9 H 0.07059 0.87657 1.02594 0.0
C10 C 0.04585 0.70197 0.2295 0.0
N11 N 0.05862 0.78939 0.4235 0.0
C12 C 0.1022 0.77156 0.43977 0.0
C13 C 0.03317 0.81467 0.4972 0.0
N14 N 0.1059 0.78609 0.51875 0.0
C15 C 0.06191 0.8127 0.5555 0.0
C16 C 0.94503 0.79601 0.31602 0.0
O17 O 0.04783 0.7329 0.16734 0.0
O18 O 0.04253 0.71927 0.30572 0.0
O19 O 0.97522 0.79919 0.36273 0.0
O20 O 0.96305 0.79376 0.23251 0.0
O21 O 0.04863 0.8691 0.31283 0.0
H22 H 0.9977 0.83644 0.50564 0.0
H23 H 0.13267 0.75168 0.39156 0.0
O24 O 0.02158 0.87156 0.19652 0.0
O25 O 0.10564 0.8134 0.13745 0.0
O26 O 0.1151 0.78762 0.26225 0.0
C27 C 0.13425 0.80196 0.18506 0.0
H28 H 0.05519 0.85601 0.87352 0.0
H29 H 0.05193 0.83161 0.61834 0.0
Co30 Co 0.50064 0.33025 0.18849 0.0
C31 C 0.51424 0.42398 0.25593 0.0
Co32 Co 0.54192 0.32567 0.28806 0.0
C33 C 0.48143 0.3156 1.02436 0.0
C34 C 0.44006 0.38139 0.09173 0.0
N35 N 0.47132 0.34164 0.10004 0.0
N36 N 0.45718 0.33703 0.96894 0.0
C37 C 0.43154 0.37884 1.01157 0.0
H38 H 0.50531 0.28083 1.01112 0.0
H39 H 0.42411 0.4102 0.14106 0.0
C40 C 0.52905 0.23206 0.20714 0.0
N41 N 0.57576 0.31415 0.37505 0.0
C42 C 0.61529 0.33629 0.39101 0.0
C43 C 0.56695 0.27492 0.43189 0.0
N44 N 0.63152 0.31175 0.45469 0.0
C45 C 0.60093 0.27327 0.48027 0.0
C46 C 0.43744 0.31891 0.35381 0.0
O47 O 0.50124 0.26067 0.17357 0.0
O48 O 0.55094 0.25169 0.25859 0.0
O49 O 0.47957 0.31584 0.37104 0.0
O50 O 0.43631 0.3283 0.27553 0.0
O51 O 0.53366 0.39956 0.30979 0.0
H52 H 0.53838 0.24813 0.43622 0.0
H53 H 0.63312 0.36835 0.35424 0.0
O54 O 0.49975 0.39967 0.20131 0.0
O55 O 0.56503 0.33109 0.10288 0.0
O56 O 0.602 0.33526 0.20709 0.0
C57 C 0.60446 0.33526 0.12673 0.0
H58 H 0.40529 0.4041 0.9896 0.0
H59 H 0.60321 0.24553 0.53022 0.0
Co60 Co 0.0103 0.29793 0.86562 0.0
C61 C 0.01915 0.39571 0.9265 0.0
Co62 Co 0.04478 0.29951 0.97514 0.0
C63 C 0.93012 0.31744 0.77524 0.0
C64 C 0.98914 0.2628 0.71199 0.0
N65 N 0.97463 0.29484 0.78091 0.0
N66 N 0.91642 0.29993 0.70612 0.0
C67 C 0.9537 0.26565 0.66657 0.0
H68 H 0.90739 0.34473 0.82247 0.0
H69 H 0.02307 0.23794 0.69662 0.0
C70 C 0.03695 0.20194 0.92627 0.0
N71 N 0.08065 0.30005 1.05682 0.0
C72 C 0.12666 0.31817 1.03341 0.0
C73 C 0.08255 0.26364 0.11658 0.0
N74 N 0.15962 0.28966 0.0649 0.0
C75 C 0.13135 0.25689 0.12117 0.0
C76 C 0.94569 0.29513 1.03551 0.0
O77 O 0.02027 0.22222 0.86552 0.0
O78 O 0.04833 0.23009 0.97962 0.0
O79 O 0.98316 0.30096 0.0644 0.0
O80 O 0.95087 0.29297 0.95394 0.0
O81 O 0.04176 0.3696 0.97263 0.0
H82 H 0.05335 0.23753 0.1424 0.0
H83 H 0.13787 0.34466 0.97978 0.0
O84 O 0.00041 0.37313 0.87333 0.0
O85 O 0.07198 0.30261 0.775 0.0
O86 O 0.1064 0.29636 0.88247 0.0
C87 C 0.11122 0.29884 0.80099 0.0
H88 H 0.95519 0.24401 0.60867 0.0
H89 H 0.14579 0.22553 0.15372 0.0
Co90 Co 0.51284 0.82422 0.85318 0.0
C91 C 0.56032 0.90995 0.89299 0.0
Co92 Co 0.56798 0.80854 0.92883 0.0
C93 C 0.43466 0.81036 0.76179 0.0
C94 C 0.4372 0.88709 0.80101 0.0
N95 N 0.46118 0.84061 0.79846 0.0
N96 N 0.39513 0.83625 0.74236 0.0
C97 C 0.39722 0.88459 0.7667 0.0
H98 H 0.44269 0.76971 0.75328 0.0
H99 H 0.44655 0.92068 0.82957 0.0
C100 C 0.52109 0.72274 0.9047 0.0
N101 N 0.61618 0.79092 0.98425 0.0
C102 C 0.66524 0.79884 0.95084 0.0
C103 C 0.61431 0.75498 1.04648 0.0
N104 N 0.69437 0.76743 0.98588 0.0
C105 C 0.66268 0.74001 1.04696 0.0
C106 C 0.47458 0.83331 1.03402 0.0
O107 O 0.49612 0.7519 0.86473 0.0
O108 O 0.5549 0.74106 0.93112 0.0
O109 O 0.51822 0.81892 1.03915 0.0
O110 O 0.46589 0.8368 0.96023 0.0
O111 O 0.58212 0.87601 0.9288 0.0
H112 H 0.58059 0.73692 0.08216 0.0
H113 H 0.67968 0.82298 0.8948 0.0
O114 O 0.52971 0.89669 0.85147 0.0
O115 O 0.56279 0.81183 0.74124 0.0
O116 O 0.61678 0.79909 0.81779 0.0
C117 C 0.60808 0.80238 0.74367 0.0
H118 H 0.37123 0.91611 0.76131 0.0
H119 H 0.67376 0.70906 0.08457 0.0
H120 H 0.08745 0.46765 0.9055 0.0
H121 H 0.92959 0.44198 1.01556 0.0
H122 H 0.92076 0.51464 0.11647 0.0
H123 H 0.11473 0.49508 0.09319 0.0
H124 H 0.15607 0.54555 1.05209 0.0
H125 H 0.14906 0.49714 0.97884 0.0
H126 H 0.12185 0.56497 0.87862 0.0
H127 H 0.13139 0.61382 0.94894 0.0
H128 H 0.07162 0.61189 0.92576 0.0
H129 H 0.93354 0.58165 0.22221 0.0
H130 H 0.96046 0.65231 0.29576 0.0
H131 H 0.10889 0.63676 0.11152 0.0
C132 C 0.05035 0.47941 0.94701 0.0
C133 C 0.00879 0.45008 0.95073 0.0
C134 C 0.9614 0.46502 1.0092 0.0
C135 C 0.95638 0.50562 0.06815 0.0
C136 C -0.00101 0.53154 0.0668 0.0
C137 C 0.04459 0.52038 1.00508 0.0
C138 C 0.08487 0.55337 1.01789 0.0
C139 C 0.12876 0.52081 1.0366 0.0
C140 C 0.10352 0.58808 0.93809 0.0
C141 C 0.05534 0.58382 0.09797 0.0
C142 C 0.00603 0.57026 0.12611 0.0
C143 C 0.972 0.59271 0.2001 0.0
C144 C 0.98792 0.63204 0.24293 0.0
C145 C 0.03726 0.6489 0.21137 0.0
C146 C 0.07152 0.62348 0.1391 0.0
H147 H 0.58733 0.48106 0.15862 0.0
H148 H 0.43132 0.48761 0.31252 0.0
H149 H 0.4131 0.56161 0.22622 0.0
H150 H 0.59653 0.6236 0.1204 0.0
H151 H 0.63762 0.6126 1.0116 0.0
H152 H 0.63854 0.56721 0.09714 0.0
H153 H 0.62219 0.49676 0.99883 0.0
H154 H 0.61815 0.54238 0.91519 0.0
H155 H 0.5665 0.50282 0.96156 0.0
H156 H 0.40979 0.62708 0.10646 0.0
H157 H 0.42664 0.6937 0.99111 0.0
H158 H 0.58404 0.64112 0.9125 0.0
C159 C 0.55022 0.50045 0.17832 0.0
C160 C 0.51117 0.4797 0.24489 0.0
C161 C 0.46226 0.50418 0.26464 0.0
C162 C 0.45131 0.54547 0.21423 0.0
C163 C 0.48981 0.56222 0.14427 0.0
C164 C 0.53873 0.54165 0.12835 0.0
C165 C 0.5729 0.5649 1.04701 0.0
C166 C 0.6138 0.5938 0.07044 0.0
C167 C 0.59629 0.52427 0.97653 0.0
C168 C 0.53552 0.6011 1.01891 0.0
C169 C 0.48767 0.59885 0.07521 0.0
C170 C 0.44726 0.62962 0.06261 0.0
C171 C 0.45683 0.66645 0.9953 0.0
C172 C 0.50639 0.672 0.94136 0.0
C173 C 0.54548 0.63696 0.95105 0.0
H174 H 0.48759 0.98921 0.94492 0.0
H175 H 0.64698 0.94903 0.89781 0.0
H176 H 0.65557 1.02499 0.97922 0.0
H177 H 0.49993 0.13166 0.93139 0.0
H178 H 0.44175 0.14327 1.01644 0.0
H179 H 0.44985 0.08917 0.94508 0.0
H180 H 0.42759 1.03064 0.08117 0.0
H181 H 0.42143 0.08423 0.15287 0.0
H182 H 0.46445 1.0307 0.15788 0.0
H183 H 0.64502 0.09876 0.08332 0.0
H184 H 0.61921 0.17598 0.17588 0.0
H185 H 0.46775 0.17116 0.15197 0.0
C186 C 0.52468 0.99788 0.94798 0.0
C187 C 0.56683 0.96351 0.91349 0.0
C188 C 0.61436 0.97519 0.92233 0.0
C189 C 0.61953 1.018 0.96946 0.0
C190 C 0.57688 1.04948 1.00715 0.0
C191 C 0.53063 1.04102 0.99469 0.0
C192 C 0.49067 0.0804 1.04421 0.0
C193 C 0.46931 0.11306 0.98048 0.0
C194 C 0.44856 1.05495 0.1131 0.0
C195 C 0.52154 0.11146 0.08728 0.0
C196 C 0.57106 0.09262 0.06592 0.0
C197 C 0.60639 0.11419 0.09977 0.0
C198 C 0.59127 0.15759 0.15354 0.0
C199 C 0.54142 0.17936 0.17211 0.0
C200 C 0.50606 0.15513 0.13971 0.0
H201 H 0.96192 0.9657 0.23545 0.0
H202 H 0.11963 0.94437 0.22365 0.0
H203 H 0.13854 1.01577 0.1185 0.0
H204 H 0.97501 0.99031 1.02091 0.0
H205 H 0.92552 1.03988 1.03352 0.0
H206 H 0.92205 0.99256 0.1177 0.0
H207 H 0.91478 0.0619 0.23472 0.0
H208 H 0.91503 0.10955 0.15209 0.0
H209 H 0.96016 0.10996 0.2141 0.0
H210 H 0.1415 0.07903 0.99526 0.0
H211 H 0.12609 0.14996 0.901 0.0
H212 H 0.9655 0.13453 0.99946 0.0
C213 C -6e-05 0.97824 0.21509 0.0
C214 C 0.03935 0.94978 0.23843 0.0
C215 C 0.08886 0.96612 0.20794 0.0
C216 C 0.09999 1.00598 0.14668 0.0
C217 C 0.06084 1.03008 0.11881 0.0
C218 C 0.01143 1.01857 0.15533 0.0
C219 C 0.97628 1.05018 0.11409 0.0
C220 C 0.94806 1.01618 0.06891 0.0
C221 C 0.9394 0.08498 0.18281 0.0
C222 C 0.0137 0.08067 1.04736 0.0
C223 C 0.06237 0.06757 1.04992 0.0
C224 C 0.10349 0.08986 0.99355 0.0
C225 C 0.09444 0.12929 0.93838 0.0
C226 C 0.04469 0.14693 0.94079 0.0
C227 C 0.00394 0.12072 0.99346 0.0
H228 H 0.29806 0.87483 0.76913 0.0
H229 H 0.40451 0.75444 0.63483 0.0
H230 H 0.34046 0.72544 0.56814 0.0
H231 H 0.18536 0.8027 0.81262 0.0
H232 H 0.14668 0.85728 0.79529 0.0
H233 H 0.20003 0.86577 0.83561 0.0
H234 H 0.23468 0.92747 0.70686 0.0
H235 H 0.1815 0.91844 0.66641 0.0
H236 H 0.24452 0.90611 0.59607 0.0
H237 H 0.26491 0.71274 0.50967 0.0
H238 H 0.18589 0.71628 0.46735 0.0
H239 H 0.12942 0.84603 0.63932 0.0
C240 C 0.30817 0.84236 0.72567 0.0
C241 C 0.35684 0.81713 0.70706 0.0
C242 C 0.36765 0.77422 0.65083 0.0
C243 C 0.33144 0.75761 0.61236 0.0
C244 C 0.28417 0.78388 0.63128 0.0
C245 C 0.27245 0.82517 0.68722 0.0
C246 C 0.21939 0.84757 0.69587 0.0
C247 C 0.18591 0.84302 0.79049 0.0
C248 C 0.2201 0.90319 0.6644 0.0
C249 C 0.20321 0.81312 0.63474 0.0
C250 C 0.24098 0.77645 0.5984 0.0
C251 C 0.23513 0.74121 0.53824 0.0
C252 C 0.18995 0.74375 0.51413 0.0
C253 C 0.15074 0.78145 0.54946 0.0
C254 C 0.15778 0.81617 0.61151 0.0
H255 H 0.14467 0.33514 0.63091 0.0
H256 H 0.19343 0.25085 0.83228 0.0
H257 H 0.2797 0.24223 0.73489 0.0
H258 H 0.22968 0.26567 0.44153 0.0
H259 H 0.24247 0.32196 0.3748 0.0
H260 H 0.18283 0.31803 0.45686 0.0
H261 H 0.19722 0.40175 0.52663 0.0
H262 H 0.25691 0.40587 0.44504 0.0
H263 H 0.2538 0.40651 0.55955 0.0
H264 H 0.36089 0.24807 0.62418 0.0
H265 H 0.43438 0.26605 0.50207 0.0
H266 H 0.337 0.34727 0.36709 0.0
C267 C 0.17355 0.31447 0.65376 0.0
C268 C 0.16233 0.2936 0.73916 0.0
C269 C 0.20114 0.26736 0.76739 0.0
C270 C 0.25026 0.26197 0.71233 0.0
C271 C 0.26044 0.28373 0.62942 0.0
C272 C 0.22347 0.3095 0.5998 0.0
C273 C 0.24587 0.33149 0.50911 0.0
C274 C 0.2239 0.30787 0.44157 0.0
C275 C 0.23798 0.38987 0.51019 0.0
C276 C 0.30118 0.31461 0.49342 0.0
C277 C 0.3083 0.28696 0.56396 0.0
C278 C 0.35583 0.26913 0.56801 0.0
C279 C 0.39742 0.2799 0.49833 0.0
C280 C 0.39157 0.30805 0.42476 0.0
C281 C 0.3426 0.32524 0.42198 0.0
H282 H 0.86161 0.23476 0.64717 0.0
H283 H 0.86968 0.3939 0.70197 0.0
H284 H 0.79832 0.41591 0.6395 0.0
H285 H 0.83262 0.24995 0.44463 0.0
H286 H 0.78956 0.19975 0.46462 0.0
H287 H 0.84032 0.19725 0.51452 0.0
H288 H 0.77664 0.18987 0.66795 0.0
H289 H 0.72571 0.19179 0.61844 0.0
H290 H 0.72495 0.23705 0.70239 0.0
H291 H 0.72853 0.41976 0.55855 0.0
H292 H 0.66121 0.404 0.48879 0.0
H293 H 0.69722 0.24183 0.49639 0.0
C294 C 0.84819 0.27425 0.64641 0.0
C295 C 0.87147 0.31272 0.67895 0.0
C296 C 0.8523 0.36385 0.67785 0.0
C297 C 0.81203 0.37663 0.64184 0.0
C298 C 0.79067 0.33773 0.60843 0.0
C299 C 0.80765 0.28742 0.61227 0.0
C300 C 0.77784 0.25229 0.57462 0.0
C301 C 0.81214 0.2231 0.49487 0.0
C302 C 0.74961 0.2156 0.64505 0.0
C303 C 0.74165 0.29048 0.54782 0.0
C304 C 0.74982 0.33971 0.56665 0.0
C305 C 0.72166 0.38124 0.54463 0.0
C306 C 0.68372 0.37206 0.50441 0.0
C307 C 0.67361 0.32174 0.48776 0.0
C308 C 0.70352 0.28071 0.50929 0.0
H309 H 0.89874 0.80724 0.4905 0.0
H310 H 0.86579 0.78297 0.24458 0.0
H311 H 0.77474 0.78102 0.32448 0.0
H312 H 0.81 0.72703 0.62646 0.0
H313 H 0.79649 0.77028 0.71766 0.0
H314 H 0.85718 0.76815 0.63746 0.0
H315 H 0.84322 0.86728 0.61136 0.0
H316 H 0.7825 0.86665 0.69213 0.0
H317 H 0.78727 0.88997 0.58347 0.0
H318 H 0.68397 0.78368 0.43913 0.0
H319 H 0.60895 0.78869 0.56993 0.0
H320 H 0.70682 0.80871 0.73436 0.0
C321 C 0.8727 0.80127 0.45276 0.0
C322 C 0.88983 0.79505 0.3609 0.0
C323 C 0.85383 0.78783 0.31493 0.0
C324 C 0.80195 0.78663 0.35996 0.0
C325 C 0.78656 0.79276 0.45101 0.0
C326 C 0.82135 0.79999 0.49624 0.0
C327 C 0.79637 0.80685 0.59302 0.0
C328 C 0.8162 0.76567 0.64684 0.0
C329 C 0.8028 0.86083 0.62183 0.0
C330 C 0.74218 0.80036 0.59684 0.0
C331 C 0.73645 0.79325 0.5146 0.0
C332 C 0.68855 0.78886 0.50358 0.0
C333 C 0.64605 0.79179 0.57825 0.0
C334 C 0.65174 0.79845 0.66301 0.0
C335 C 0.70073 0.80269 0.67123 0.0
H336 H 0.42146 0.76913 0.15397 0.0
H337 H 0.43052 0.92644 0.07207 0.0
H338 H 0.33832 0.93809 0.1169 0.0
H339 H 0.33855 0.73685 0.07692 0.0
H340 H 0.29902 0.69946 0.16178 0.0
H341 H 0.36317 0.70639 0.15987 0.0
H342 H 0.33742 0.74307 0.31614 0.0
H343 H 0.27284 0.73311 0.32224 0.0
H344 H 0.29028 0.79513 0.34449 0.0
H345 H 0.2537 0.92158 0.10661 0.0
H346 H 0.17191 0.88908 0.10701 0.0
H347 H 0.21327 0.74587 0.21435 0.0
C348 C 0.40389 0.80707 0.15375 0.0
C349 C 0.43239 0.84689 0.10985 0.0
C350 C 0.40882 0.89582 0.10677 0.0
C351 C 0.3564 0.90254 0.13082 0.0
C352 C 0.32875 0.86055 0.16236 0.0
C353 C 0.3513 0.81462 0.1802 0.0
C354 C 0.31316 0.77423 0.20535 0.0
C355 C 0.32948 0.72646 0.14737 0.0
C356 C 0.3028 0.76062 0.30284 0.0
C357 C 0.26799 0.80277 0.18788 0.0
C358 C 0.27767 0.85248 0.16317 0.0
C359 C 0.24453 0.88365 0.1305 0.0
C360 C 0.1988 0.86459 0.12898 0.0
C361 C 0.18662 0.81538 0.16145 0.0
C362 C 0.22191 0.78386 0.1898 0.0
H363 H 0.21865 0.35827 0.96504 0.0
H364 H 0.21909 0.20126 1.05146 0.0
H365 H 0.30629 0.18716 0.96103 0.0
H366 H 0.32079 0.3296 0.7282 0.0
H367 H 0.33961 0.39254 0.73786 0.0
H368 H 0.27404 0.37908 0.77838 0.0
H369 H 0.2776 0.41833 0.92616 0.0
H370 H 0.34337 0.42579 0.88524 0.0
H371 H 0.31966 0.38837 0.98277 0.0
H372 H 0.3948 0.19659 0.90531 0.0
H373 H 0.46653 0.23461 0.9321 0.0
H374 H 0.41867 0.38037 0.8457 0.0
C375 C 0.23649 0.32038 0.96222 0.0
C376 C 0.21182 0.28125 1.01603 0.0
C377 C 0.23707 0.23253 1.0127 0.0
C378 C 0.2863 0.22364 0.95897 0.0
C379 C 0.3096 0.26324 0.90668 0.0
C380 C 0.28504 0.31069 0.90698 0.0
C381 C 0.32086 0.34985 0.86068 0.0
C382 C 0.31325 0.36357 0.77104 0.0
C383 C 0.31515 0.39826 0.9172 0.0
C384 C 0.37055 0.31938 0.84953 0.0
C385 C 0.36314 0.26828 0.86986 0.0
C386 C 0.40091 0.23609 0.88814 0.0
C387 C 0.44224 0.25816 0.90287 0.0
C388 C 0.44447 0.31171 0.89937 0.0
C389 C 0.41487 0.33985 0.85421 0.0
H390 H 0.67616 0.40243 0.0913 0.0
H391 H 0.64431 0.24892 1.04148 0.0
H392 H 0.73111 0.21899 1.03661 0.0
H393 H 0.81521 0.39202 0.95603 0.0
H394 H 0.82998 0.43271 1.03391 0.0
H395 H 0.7698 0.44116 1.01201 0.0
H396 H 0.72818 0.43289 0.17924 0.0
H397 H 0.78805 0.41946 0.20047 0.0
H398 H 0.73953 0.37489 0.2345 0.0
H399 H 0.81284 0.20347 0.07147 0.0
H400 H 0.9002 0.20787 0.07785 0.0
H401 H 0.87846 0.37162 0.10499 0.0
C402 C 0.68887 0.36338 0.07251 0.0
C403 C 0.65432 0.32776 0.06675 0.0
C404 C 0.671 0.27664 1.0446 0.0
C405 C 0.71971 0.25913 1.04423 0.0
C406 C 0.75091 0.29403 0.06277 0.0
C407 C 0.73735 0.34555 0.07136 0.0
C408 C 0.77727 0.37479 0.09335 0.0
C409 C 0.79941 0.41235 1.01941 0.0
C410 C 0.75699 0.40209 0.18216 0.0
C411 C 0.81478 0.33146 0.09803 0.0
C412 C 0.79825 0.2851 0.08223 0.0
C413 C 0.82658 0.23958 0.0825 0.0
C414 C 0.87555 0.24224 0.08885 0.0
C415 C 0.89534 0.29008 0.09194 0.0
C416 C 0.86348 0.33465 0.10451 0.0
H417 H 0.96604 0.84987 0.86566 0.0
H418 H 0.00839 0.69252 0.90438 0.0
H419 H 0.93027 0.6667 0.87741 0.0
H420 H 0.85976 0.84424 1.00325 0.0
H421 H 0.82277 0.88821 0.95489 0.0
H422 H 0.88917 0.89376 0.93057 0.0
H423 H 0.9003 0.88629 0.76602 0.0
H424 H 0.83341 0.88193 0.78712 0.0
H425 H 0.87691 0.83325 0.72371 0.0
H426 H 0.83961 0.66161 0.90635 0.0
H427 H 0.74753 0.67617 0.96749 0.0
H428 H 0.76059 0.83804 0.9232 0.0
C429 C 0.96045 0.8098 0.86146 0.0
C430 C 0.99264 0.77306 0.88641 0.0
C431 C 0.9839 0.72093 0.88426 0.0
C432 C 0.93947 0.70615 0.86953 0.0
C433 C 0.90456 0.74419 0.85776 0.0
C434 C 0.91503 0.79516 0.85215 0.0
C435 C 0.86793 0.82963 0.86422 0.0
C436 C 0.85948 0.86598 0.94287 0.0
C437 C 0.86962 0.85952 0.78016 0.0
C438 C 0.82897 0.79043 0.88245 0.0
C439 C 0.85073 0.74135 0.87714 0.0
C440 C 0.8221 0.69962 0.90744 0.0
C441 C 0.77008 0.70828 0.94377 0.0
C442 C 0.74754 0.75827 0.94981 0.0
C443 C 0.77722 0.79945 0.91723 0.0
loop_
_geom_bond_atom_site_label_1
_geom_bond_atom_site_label_2
_geom_bond_distance
_geom_bond_site_symmetry_2
_ccdc_geom_bond_type
Co0 N5 2.057 1_455 S
Co0 O17 2.021 . S
Co0 O20 2.062 1_455 S
Co0 O24 2.117 . S
Co0 O25 2.020 . S
C1 O21 1.259 . S
C1 O24 1.258 . S
Co2 N11 2.057 . S
Co2 O18 2.117 . S
Co2 O19 2.020 1_455 S
Co2 O21 2.021 . S
Co2 O26 2.062 . S
C3 N5 1.316 . S
C3 N6 1.347 1_554 S
C3 H8 0.931 . S
C4 N5 1.375 . S
C4 C7 1.350 1_554 S
C4 H9 0.930 . S
N5 Co0 2.057 1_655 S
N5 C3 1.316 . S
N5 C4 1.375 . S
N6 C3 1.347 1_556 S
N6 C7 1.373 . S
C7 C4 1.350 1_556 S
C7 N6 1.373 . S
C7 H28 0.931 . S
H8 C3 0.931 . S
H9 C4 0.930 . S
C10 O17 1.259 . S
C10 O18 1.258 . S
N11 Co2 2.057 . S
N11 C12 1.316 . S
N11 C13 1.375 . S
C12 N11 1.316 . S
C12 N14 1.347 . S
C12 H23 0.931 . S
C13 N11 1.375 . S
C13 C15 1.350 . S
C13 H22 0.930 . S
N14 C12 1.347 . S
N14 C15 1.373 . S
C15 C13 1.350 . S
C15 N14 1.373 . S
C15 H29 0.931 . S
C16 O19 1.256 . S
C16 O20 1.255 . S
O17 Co0 2.021 . S
O17 C10 1.259 . S
O18 Co2 2.117 . S
O18 C10 1.258 . S
O19 Co2 2.020 1_655 S
O19 C16 1.256 . S
O20 Co0 2.062 1_655 S
O20 C16 1.255 . S
O21 C1 1.259 . S
O21 Co2 2.021 . S
H22 C13 0.930 . S
H23 C12 0.931 . S
O24 Co0 2.117 . S
O24 C1 1.258 . S
O25 Co0 2.020 . S
O25 C27 1.256 . S
O26 Co2 2.062 . S
O26 C27 1.255 . S
C27 O25 1.256 . S
C27 O26 1.255 . S
H28 C7 0.931 . S
H29 C15 0.931 . S
Co30 N35 2.057 . S
Co30 O47 2.021 . S
Co30 O50 2.062 . S
Co30 O54 2.117 . S
Co30 O55 2.020 . S
C31 O51 1.259 . S
C31 O54 1.258 . S
Co32 N41 2.057 . S
Co32 O48 2.117 . S
Co32 O49 2.020 . S
Co32 O51 2.021 . S
Co32 O56 2.062 . S
C33 N35 1.316 . S
C33 N36 1.347 1_554 S
C33 H38 0.931 . S
C34 N35 1.375 . S
C34 C37 1.350 1_554 S
C34 H39 0.930 . S
N35 Co30 2.057 . S
N35 C33 1.316 . S
N35 C34 1.375 . S
N36 C33 1.347 1_556 S
N36 C37 1.373 . S
C37 C34 1.350 1_556 S
C37 N36 1.373 . S
C37 H58 0.931 . S
H38 C33 0.931 . S
H39 C34 0.930 . S
C40 O47 1.259 . S
C40 O48 1.258 . S
N41 Co32 2.057 . S
N41 C42 1.316 . S
N41 C43 1.375 . S
C42 N41 1.316 . S
C42 N44 1.347 . S
C42 H53 0.931 . S
C43 N41 1.375 . S
C43 C45 1.350 . S
C43 H52 0.930 . S
N44 C42 1.347 . S
N44 C45 1.373 . S
C45 C43 1.350 . S
C45 N44 1.373 . S
C45 H59 0.931 . S
C46 O49 1.256 . S
C46 O50 1.255 . S
O47 Co30 2.021 . S
O47 C40 1.259 . S
O48 Co32 2.117 . S
O48 C40 1.258 . S
O49 Co32 2.020 . S
O49 C46 1.256 . S
O50 Co30 2.062 . S
O50 C46 1.255 . S
O51 C31 1.259 . S
O51 Co32 2.021 . S
H52 C43 0.930 . S
H53 C42 0.931 . S
O54 Co30 2.117 . S
O54 C31 1.258 . S
O55 Co30 2.020 . S
O55 C57 1.256 . S
O56 Co32 2.062 . S
O56 C57 1.255 . S
C57 O55 1.256 . S
C57 O56 1.255 . S
H58 C37 0.931 . S
H59 C45 0.931 . S
Co60 N65 2.057 1_455 S
Co60 O77 2.021 . S
Co60 O80 2.062 1_455 S
Co60 O84 2.117 . S
Co60 O85 2.020 . S
C61 O81 1.259 . S
C61 O84 1.258 . S
Co62 N71 2.057 . S
Co62 O78 2.117 . S
Co62 O79 2.020 1_455 S
Co62 O81 2.021 . S
Co62 O86 2.062 . S
C63 N65 1.316 . S
C63 N66 1.347 . S
C63 H68 0.931 . S
C64 N65 1.375 . S
C64 C67 1.350 . S
C64 H69 0.930 . S
N65 Co60 2.057 1_655 S
N65 C63 1.316 . S
N65 C64 1.375 . S
N66 C63 1.347 . S
N66 C67 1.373 . S
C67 C64 1.350 . S
C67 N66 1.373 . S
C67 H88 0.931 . S
H68 C63 0.931 . S
H69 C64 0.930 . S
C70 O77 1.259 . S
C70 O78 1.258 . S
N71 Co62 2.057 . S
N71 C72 1.316 . S
N71 C73 1.375 . S
C72 N71 1.316 . S
C72 N74 1.347 1_556 S
C72 H83 0.931 . S
C73 N71 1.375 . S
C73 C75 1.350 1_556 S
C73 H82 0.930 . S
N74 C72 1.347 1_554 S
N74 C75 1.373 . S
C75 C73 1.350 1_554 S
C75 N74 1.373 . S
C75 H89 0.931 . S
C76 O79 1.256 . S
C76 O80 1.255 . S
O77 Co60 2.021 . S
O77 C70 1.259 . S
O78 Co62 2.117 . S
O78 C70 1.258 . S
O79 Co62 2.020 1_655 S
O79 C76 1.256 . S
O80 Co60 2.062 1_655 S
O80 C76 1.255 . S
O81 C61 1.259 . S
O81 Co62 2.021 . S
H82 C73 0.930 . S
H83 C72 0.931 . S
O84 Co60 2.117 . S
O84 C61 1.258 . S
O85 Co60 2.020 . S
O85 C87 1.256 . S
O86 Co62 2.062 . S
O86 C87 1.255 . S
C87 O85 1.256 . S
C87 O86 1.255 . S
H88 C67 0.931 . S
H89 C75 0.931 . S
Co90 N95 2.057 . S
Co90 O107 2.021 . S
Co90 O110 2.062 . S
Co90 O114 2.117 . S
Co90 O115 2.020 . S
C91 O111 1.259 . S
C91 O114 1.258 . S
Co92 N101 2.057 . S
Co92 O108 2.117 . S
Co92 O109 2.020 . S
Co92 O111 2.021 . S
Co92 O116 2.062 . S
C93 N95 1.316 . S
C93 N96 1.347 . S
C93 H98 0.931 . S
C94 N95 1.375 . S
C94 C97 1.350 . S
C94 H99 0.930 . S
N95 Co90 2.057 . S
N95 C93 1.316 . S
N95 C94 1.375 . S
N96 C93 1.347 . S
N96 C97 1.373 . S
C97 C94 1.350 . S
C97 N96 1.373 . S
C97 H118 0.931 . S
H98 C93 0.931 . S
H99 C94 0.930 . S
C100 O107 1.259 . S
C100 O108 1.258 . S
N101 Co92 2.057 . S
N101 C102 1.316 . S
N101 C103 1.375 . S
C102 N101 1.316 . S
C102 N104 1.347 1_556 S
C102 H113 0.931 . S
C103 N101 1.375 . S
C103 C105 1.350 1_556 S
C103 H112 0.930 . S
N104 C102 1.347 1_554 S
N104 C105 1.373 . S
C105 C103 1.350 1_554 S
C105 N104 1.373 . S
C105 H119 0.931 . S
C106 O109 1.256 . S
C106 O110 1.255 . S
O107 Co90 2.021 . S
O107 C100 1.259 . S
O108 Co92 2.117 . S
O108 C100 1.258 . S
O109 Co92 2.020 . S
O109 C106 1.256 . S
O110 Co90 2.062 . S
O110 C106 1.255 . S
O111 C91 1.259 . S
O111 Co92 2.021 . S
H112 C103 0.930 . S
H113 C102 0.931 . S
O114 Co90 2.117 . S
O114 C91 1.258 . S
O115 Co90 2.020 . S
O115 C117 1.256 . S
O116 Co92 2.062 . S
O116 C117 1.255 . S
C117 O115 1.256 . S
C117 O116 1.255 . S
H118 C97 0.931 . S
H119 C105 0.931 . S
H120 C132 0.930 . S
H121 C134 0.930 . S
H122 C135 0.922 1_554 S
H123 C139 0.959 . S
H124 C139 0.959 . S
H125 C139 0.961 . S
H126 C140 0.960 . S
H127 C140 0.961 1_554 S
H128 C140 0.959 1_554 S
H129 C143 0.929 . S
H130 C144 0.931 . S
H131 C146 0.930 . S
C132 H120 0.930 . S
C132 C133 1.399 . S
C132 C137 1.399 . S
C133 C132 1.399 . S
C133 C134 1.376 . S
C134 H121 0.930 . S
C134 C133 1.376 . S
C134 C135 1.396 . S
C135 H122 0.922 1_556 S
C135 C134 1.396 . S
C135 C136 1.391 1_556 S
C136 C135 1.391 1_554 S
C136 C137 1.393 1_554 S
C136 C142 1.465 . S
C137 C132 1.399 . S
C137 C136 1.393 1_556 S
C137 C138 1.516 . S
C138 C137 1.516 . S
C138 C139 1.502 . S
C138 C140 1.561 1_455 S
C138 C141 1.526 1_556 S
C139 H123 0.959 . S
C139 H124 0.959 . S
C139 H125 0.961 . S
C139 C138 1.502 . S
C140 H126 0.960 . S
C140 H127 0.961 1_556 S
C140 H128 0.959 1_556 S
C140 C138 1.561 1_655 S
C141 C138 1.526 1_554 S
C141 C142 1.396 . S
C141 C146 1.390 . S
C142 C136 1.465 . S
C142 C141 1.396 . S
C142 C143 1.399 . S
C143 H129 0.929 . S
C143 C142 1.399 . S
C143 C144 1.385 . S
C144 H130 0.931 . S
C144 C143 1.385 . S
C144 C145 1.389 . S
C145 C144 1.389 . S
C145 C146 1.387 . S
C146 H131 0.930 . S
C146 C141 1.390 . S
C146 C145 1.387 . S
H147 C159 0.930 . S
H148 C161 0.930 . S
H149 C162 0.930 . S
H150 C166 0.959 . S
H151 C166 0.959 . S
H152 C166 0.961 . S
H153 C167 0.960 . S
H154 C167 0.961 . S
H155 C167 0.959 1_554 S
H156 C170 0.929 . S
H157 C171 0.931 . S
H158 C173 0.930 . S
C159 H147 0.930 . S
C159 C160 1.399 . S
C159 C164 1.399 . S
C160 C159 1.399 . S
C160 C161 1.376 . S
C161 H148 0.930 . S
C161 C160 1.376 . S
C161 C162 1.388 . S
C162 H149 0.930 . S
C162 C161 1.388 . S
C162 C163 1.390 . S
C163 C162 1.390 . S
C163 C164 1.394 . S
C163 C169 1.465 . S
C164 C159 1.399 . S
C164 C163 1.394 . S
C164 C165 1.516 1_554 S
C165 C164 1.516 1_556 S
C165 C166 1.502 . S
C165 C167 1.561 . S
C165 C168 1.526 . S
C166 H150 0.959 . S
C166 H151 0.959 . S
C166 H152 0.961 . S
C166 C165 1.502 . S
C167 H153 0.960 . S
C167 H154 0.961 . S
C167 H155 0.959 1_556 S
C167 C165 1.561 . S
C168 C165 1.526 . S
C168 C169 1.396 1_556 S
C168 C173 1.390 . S
C169 C163 1.465 . S
C169 C168 1.396 1_554 S
C169 C170 1.399 . S
C170 H156 0.929 . S
C170 C169 1.399 . S
C170 C171 1.385 1_554 S
C171 H157 0.931 . S
C171 C170 1.385 1_556 S
C171 C172 1.389 . S
C172 C171 1.389 . S
C172 C173 1.387 . S
C173 H158 0.930 . S
C173 C168 1.390 . S
C173 C172 1.387 . S
H174 C186 0.930 . S
H175 C188 0.930 . S
H176 C189 0.930 . S
H177 C193 0.959 . S
H178 C193 0.959 . S
H179 C193 0.961 . S
H180 C194 0.960 . S
H181 C194 0.961 . S
H182 C194 0.959 . S
H183 C197 0.929 1_565 S
H184 C198 0.931 . S
H185 C200 0.930 . S
C186 H174 0.930 . S
C186 C187 1.399 . S
C186 C191 1.399 . S
C187 C186 1.399 . S
C187 C188 1.376 . S
C188 H175 0.930 . S
C188 C187 1.376 . S
C188 C189 1.388 1_556 S
C189 H176 0.930 . S
C189 C188 1.388 1_554 S
C189 C190 1.390 . S
C190 C189 1.390 . S
C190 C191 1.394 1_554 S
C190 C196 1.465 1_565 S
C191 C186 1.399 . S
C191 C190 1.394 1_556 S
C191 C192 1.516 1_565 S
C192 C191 1.516 1_545 S
C192 C193 1.502 . S
C192 C194 1.561 . S
C192 C195 1.526 1_556 S
C193 H177 0.959 . S
C193 H178 0.959 . S
C193 H179 0.961 . S
C193 C192 1.502 . S
C194 H180 0.960 . S
C194 H181 0.961 . S
C194 H182 0.959 . S
C194 C192 1.561 . S
C195 C192 1.526 1_554 S
C195 C196 1.396 . S
C195 C200 1.390 . S
C196 C190 1.465 1_545 S
C196 C195 1.396 . S
C196 C197 1.399 . S
C197 H183 0.929 1_545 S
C197 C196 1.399 . S
C197 C198 1.385 . S
C198 H184 0.931 . S
C198 C197 1.385 . S
C198 C199 1.389 . S
C199 C198 1.389 . S
C199 C200 1.387 . S
C200 H185 0.930 . S
C200 C195 1.390 . S
C200 C199 1.387 . S
H201 C213 0.930 1_655 S
H202 C215 0.930 . S
H203 C216 0.929 1_556 S
H204 C220 0.959 1_556 S
H205 C220 0.959 1_545 S
H206 C220 0.961 . S
H207 C221 0.960 . S
H208 C221 0.961 . S
H209 C221 0.959 . S
H210 C224 0.929 . S
H211 C225 0.931 . S
H212 C227 0.930 1_655 S
C213 H201 0.930 1_455 S
C213 C214 1.399 . S
C213 C218 1.399 . S
C214 C213 1.399 . S
C214 C215 1.376 . S
C215 H202 0.930 . S
C215 C214 1.376 . S
C215 C216 1.388 . S
C216 H203 0.929 1_554 S
C216 C215 1.388 . S
C216 C217 1.390 . S
C217 C216 1.390 . S
C217 C218 1.394 . S
C217 C223 1.465 1_564 S
C218 C213 1.399 . S
C218 C217 1.394 . S
C218 C219 1.516 1_465 S
C219 C218 1.516 1_645 S
C219 C220 1.502 1_545 S
C219 C221 1.561 . S
C219 C222 1.526 1_654 S
C220 H204 0.959 1_554 S
C220 H205 0.959 1_565 S
C220 H206 0.961 . S
C220 C219 1.502 1_565 S
C221 H207 0.960 . S
C221 H208 0.961 . S
C221 H209 0.959 . S
C221 C219 1.561 . S
C222 C219 1.526 1_456 S
C222 C223 1.396 . S
C222 C227 1.390 . S
C223 C217 1.465 1_546 S
C223 C222 1.396 . S
C223 C224 1.399 . S
C224 H210 0.929 . S
C224 C223 1.399 . S
C224 C225 1.385 . S
C225 H211 0.931 . S
C225 C224 1.385 . S
C225 C226 1.389 . S
C226 C225 1.389 . S
C226 C227 1.387 . S
C227 H212 0.930 1_455 S
C227 C222 1.390 . S
C227 C226 1.387 . S
H228 C240 0.930 . S
H229 C242 0.930 . S
H230 C243 0.930 . S
H231 C247 0.959 . S
H232 C247 0.959 . S
H233 C247 0.961 . S
H234 C248 0.960 . S
H235 C248 0.961 . S
H236 C248 0.959 . S
H237 C251 0.929 . S
H238 C252 0.931 . S
H239 C254 0.930 . S
C240 H228 0.930 . S
C240 C241 1.399 . S
C240 C245 1.399 . S
C241 C240 1.399 . S
C241 C242 1.376 . S
C242 H229 0.930 . S
C242 C241 1.376 . S
C242 C243 1.388 . S
C243 H230 0.930 . S
C243 C242 1.388 . S
C243 C244 1.390 . S
C244 C243 1.390 . S
C244 C245 1.394 . S
C244 C250 1.465 . S
C245 C240 1.399 . S
C245 C244 1.394 . S
C245 C246 1.516 . S
C246 C245 1.516 . S
C246 C247 1.502 . S
C246 C248 1.561 . S
C246 C249 1.526 . S
C247 H231 0.959 . S
C247 H232 0.959 . S
C247 H233 0.961 . S
C247 C246 1.502 . S
C248 H234 0.960 . S
C248 H235 0.961 . S
C248 H236 0.959 . S
C248 C246 1.561 . S
C249 C246 1.526 . S
C249 C250 1.396 . S
C249 C254 1.390 . S
C250 C244 1.465 . S
C250 C249 1.396 . S
C250 C251 1.399 . S
C251 H237 0.929 . S
C251 C250 1.399 . S
C251 C252 1.385 . S
C252 H238 0.931 . S
C252 C251 1.385 . S
C252 C253 1.389 . S
C253 C252 1.389 . S
C253 C254 1.387 . S
C254 H239 0.930 . S
C254 C249 1.390 . S
C254 C253 1.387 . S
H255 C267 0.930 . S
H256 C269 0.930 . S
H257 C270 0.930 . S
H258 C274 0.959 . S
H259 C274 0.959 . S
H260 C274 0.961 . S
H261 C275 0.960 . S
H262 C275 0.961 . S
H263 C275 0.959 . S
H264 C278 0.929 . S
H265 C279 0.931 . S
H266 C281 0.930 . S
C267 H255 0.930 . S
C267 C268 1.399 . S
C267 C272 1.399 . S
C268 C267 1.399 . S
C268 C269 1.376 . S
C269 H256 0.930 . S
C269 C268 1.376 . S
C269 C270 1.388 . S
C270 H257 0.930 . S
C270 C269 1.388 . S
C270 C271 1.390 . S
C271 C270 1.390 . S
C271 C272 1.394 . S
C271 C277 1.465 . S
C272 C267 1.399 . S
C272 C271 1.394 . S
C272 C273 1.516 . S
C273 C272 1.516 . S
C273 C274 1.502 . S
C273 C275 1.561 . S
C273 C276 1.526 . S
C274 H258 0.959 . S
C274 H259 0.959 . S
C274 H260 0.961 . S
C274 C273 1.502 . S
C275 H261 0.960 . S
C275 H262 0.961 . S
C275 H263 0.959 . S
C275 C273 1.561 . S
C276 C273 1.526 . S
C276 C277 1.396 . S
C276 C281 1.390 . S
C277 C271 1.465 . S
C277 C276 1.396 . S
C277 C278 1.399 . S
C278 H264 0.929 . S
C278 C277 1.399 . S
C278 C279 1.385 . S
C279 H265 0.931 . S
C279 C278 1.385 . S
C279 C280 1.389 . S
C280 C279 1.389 . S
C280 C281 1.387 . S
C281 H266 0.930 . S
C281 C276 1.390 . S
C281 C280 1.387 . S
H282 C294 0.930 . S
H283 C296 0.930 . S
H284 C297 0.930 . S
H285 C301 0.959 . S
H286 C301 0.959 . S
H287 C301 0.961 . S
H288 C302 0.960 . S
H289 C302 0.961 . S
H290 C302 0.959 . S
H291 C305 0.929 . S
H292 C306 0.931 . S
H293 C308 0.930 . S
C294 H282 0.930 . S
C294 C295 1.399 . S
C294 C299 1.399 . S
C295 C294 1.399 . S
C295 C296 1.376 . S
C296 H283 0.930 . S
C296 C295 1.376 . S
C296 C297 1.388 . S
C297 H284 0.930 . S
C297 C296 1.388 . S
C297 C298 1.390 . S
C298 C297 1.390 . S
C298 C299 1.394 . S
C298 C304 1.465 . S
C299 C294 1.399 . S
C299 C298 1.394 . S
C299 C300 1.516 . S
C300 C299 1.516 . S
C300 C301 1.502 . S
C300 C302 1.561 . S
C300 C303 1.526 . S
C301 H285 0.959 . S
C301 H286 0.959 . S
C301 H287 0.961 . S
C301 C300 1.502 . S
C302 H288 0.960 . S
C302 H289 0.961 . S
C302 H290 0.959 . S
C302 C300 1.561 . S
C303 C300 1.526 . S
C303 C304 1.396 . S
C303 C308 1.390 . S
C304 C298 1.465 . S
C304 C303 1.396 . S
C304 C305 1.399 . S
C305 H291 0.929 . S
C305 C304 1.399 . S
C305 C306 1.385 . S
C306 H292 0.931 . S
C306 C305 1.385 . S
C306 C307 1.389 . S
C307 C306 1.389 . S
C307 C308 1.387 . S
C308 H293 0.930 . S
C308 C303 1.390 . S
C308 C307 1.387 . S
H309 C321 0.930 . S
H310 C323 0.930 . S
H311 C324 0.930 . S
H312 C328 0.959 . S
H313 C328 0.959 . S
H314 C328 0.961 . S
H315 C329 0.960 . S
H316 C329 0.961 . S
H317 C329 0.959 . S
H318 C332 0.929 . S
H319 C333 0.931 . S
H320 C335 0.930 . S
C321 H309 0.930 . S
C321 C322 1.399 . S
C321 C326 1.399 . S
C322 C321 1.399 . S
C322 C323 1.376 . S
C323 H310 0.930 . S
C323 C322 1.376 . S
C323 C324 1.388 . S
C324 H311 0.930 . S
C324 C323 1.388 . S
C324 C325 1.390 . S
C325 C324 1.390 . S
C325 C326 1.394 . S
C325 C331 1.465 . S
C326 C321 1.399 . S
C326 C325 1.394 . S
C326 C327 1.516 . S
C327 C326 1.516 . S
C327 C328 1.502 . S
C327 C329 1.561 . S
C327 C330 1.526 . S
C328 H312 0.959 . S
C328 H313 0.959 . S
C328 H314 0.961 . S
C328 C327 1.502 . S
C329 H315 0.960 . S
C329 H316 0.961 . S
C329 H317 0.959 . S
C329 C327 1.561 . S
C330 C327 1.526 . S
C330 C331 1.396 . S
C330 C335 1.390 . S
C331 C325 1.465 . S
C331 C330 1.396 . S
C331 C332 1.399 . S
C332 H318 0.929 . S
C332 C331 1.399 . S
C332 C333 1.385 . S
C333 H319 0.931 . S
C333 C332 1.385 . S
C333 C334 1.389 . S
C334 C333 1.389 . S
C334 C335 1.387 . S
C335 H320 0.930 . S
C335 C330 1.390 . S
C335 C334 1.387 . S
H336 C348 0.930 . S
H337 C350 0.930 . S
H338 C351 0.930 . S
H339 C355 0.959 . S
H340 C355 0.959 . S
H341 C355 0.961 . S
H342 C356 0.960 . S
H343 C356 0.961 . S
H344 C356 0.959 . S
H345 C359 0.929 . S
H346 C360 0.931 . S
H347 C362 0.930 . S
C348 H336 0.930 . S
C348 C349 1.399 . S
C348 C353 1.399 . S
C349 C348 1.399 . S
C349 C350 1.376 1_556 S
C350 H337 0.930 . S
C350 C349 1.376 1_554 S
C350 C351 1.388 . S
C351 H338 0.930 . S
C351 C350 1.388 . S
C351 C352 1.390 . S
C352 C351 1.390 . S
C352 C353 1.394 1_554 S
C352 C358 1.465 . S
C353 C348 1.399 . S
C353 C352 1.394 1_556 S
C353 C354 1.516 . S
C354 C353 1.516 . S
C354 C355 1.502 . S
C354 C356 1.561 . S
C354 C357 1.526 . S
C355 H339 0.959 . S
C355 H340 0.959 . S
C355 H341 0.961 . S
C355 C354 1.502 . S
C356 H342 0.960 . S
C356 H343 0.961 . S
C356 H344 0.959 . S
C356 C354 1.561 . S
C357 C354 1.526 . S
C357 C358 1.396 1_556 S
C357 C362 1.390 . S
C358 C352 1.465 . S
C358 C357 1.396 1_554 S
C358 C359 1.399 . S
C359 H345 0.929 . S
C359 C358 1.399 . S
C359 C360 1.385 . S
C360 H346 0.931 . S
C360 C359 1.385 . S
C360 C361 1.389 . S
C361 C360 1.389 . S
C361 C362 1.387 1_554 S
C362 H347 0.930 . S
C362 C357 1.390 . S
C362 C361 1.387 1_556 S
H363 C375 0.930 . S
H364 C377 0.930 . S
H365 C378 0.930 . S
H366 C382 0.959 . S
H367 C382 0.959 . S
H368 C382 0.961 . S
H369 C383 0.960 . S
H370 C383 0.961 . S
H371 C383 0.959 . S
H372 C386 0.929 . S
H373 C387 0.931 . S
H374 C389 0.930 . S
C375 H363 0.930 . S
C375 C376 1.399 . S
C375 C380 1.399 . S
C376 C375 1.399 . S
C376 C377 1.376 . S
C377 H364 0.930 . S
C377 C376 1.376 . S
C377 C378 1.388 . S
C378 H365 0.930 . S
C378 C377 1.388 . S
C378 C379 1.390 . S
C379 C378 1.390 . S
C379 C380 1.394 . S
C379 C385 1.465 . S
C380 C375 1.399 . S
C380 C379 1.394 . S
C380 C381 1.516 1_554 S
C381 C380 1.516 1_556 S
C381 C382 1.502 . S
C381 C383 1.561 1_556 S
C381 C384 1.526 . S
C382 H366 0.959 . S
C382 H367 0.959 . S
C382 H368 0.961 . S
C382 C381 1.502 . S
C383 H369 0.960 . S
C383 H370 0.961 . S
C383 H371 0.959 . S
C383 C381 1.561 1_554 S
C384 C381 1.526 . S
C384 C385 1.396 1_556 S
C384 C389 1.390 . S
C385 C379 1.465 . S
C385 C384 1.396 1_554 S
C385 C386 1.399 . S
C386 H372 0.929 . S
C386 C385 1.399 . S
C386 C387 1.385 1_554 S
C387 H373 0.931 . S
C387 C386 1.385 1_556 S
C387 C388 1.389 . S
C388 C387 1.389 . S
C388 C389 1.387 . S
C389 H374 0.930 . S
C389 C384 1.390 . S
C389 C388 1.387 . S
H390 C402 0.930 . S
H391 C404 0.930 . S
H392 C405 0.930 . S
H393 C409 0.959 . S
H394 C409 0.959 . S
H395 C409 0.961 . S
H396 C410 0.960 . S
H397 C410 0.961 . S
H398 C410 0.959 . S
H399 C413 0.929 . S
H400 C414 0.931 . S
H401 C416 0.930 . S
C402 H390 0.930 . S
C402 C403 1.399 . S
C402 C407 1.399 . S
C403 C402 1.399 . S
C403 C404 1.376 . S
C404 H391 0.930 . S
C404 C403 1.376 . S
C404 C405 1.388 . S
C405 H392 0.930 . S
C405 C404 1.388 . S
C405 C406 1.390 . S
C406 C405 1.390 . S
C406 C407 1.394 . S
C406 C412 1.465 1_554 S
C407 C402 1.399 . S
C407 C406 1.394 . S
C407 C408 1.516 . S
C408 C407 1.516 . S
C408 C409 1.502 1_554 S
C408 C410 1.561 . S
C408 C411 1.526 1_554 S
C409 H393 0.959 . S
C409 H394 0.959 . S
C409 H395 0.961 . S
C409 C408 1.502 1_556 S
C410 H396 0.960 . S
C410 H397 0.961 . S
C410 H398 0.959 . S
C410 C408 1.561 . S
C411 C408 1.526 1_556 S
C411 C412 1.396 . S
C411 C416 1.390 . S
C412 C406 1.465 1_556 S
C412 C411 1.396 . S
C412 C413 1.399 . S
C413 H399 0.929 . S
C413 C412 1.399 . S
C413 C414 1.385 . S
C414 H400 0.931 . S
C414 C413 1.385 . S
C414 C415 1.389 . S
C415 C414 1.389 . S
C415 C416 1.387 . S
C416 H401 0.930 . S
C416 C411 1.390 . S
C416 C415 1.387 . S
H417 C429 0.930 . S
H418 C431 0.930 . S
H419 C432 0.930 . S
H420 C436 0.959 . S
H421 C436 0.959 . S
H422 C436 0.961 . S
H423 C437 0.960 . S
H424 C437 0.961 . S
H425 C437 0.959 . S
H426 C440 0.929 . S
H427 C441 0.931 . S
H428 C443 0.930 . S
C429 H417 0.930 . S
C429 C430 1.399 . S
C429 C434 1.399 . S
C430 C429 1.399 . S
C430 C431 1.376 . S
C431 H418 0.930 . S
C431 C430 1.376 . S
C431 C432 1.388 . S
C432 H419 0.930 . S
C432 C431 1.388 . S
C432 C433 1.390 . S
C433 C432 1.390 . S
C433 C434 1.394 . S
C433 C439 1.465 . S
C434 C429 1.399 . S
C434 C433 1.394 . S
C434 C435 1.516 1_556 S
C435 C434 1.516 1_554 S
C435 C436 1.502 . S
C435 C437 1.561 1_554 S
C435 C438 1.526 . S
C436 H420 0.959 . S
C436 H421 0.959 . S
C436 H422 0.961 . S
C436 C435 1.502 . S
C437 H423 0.960 . S
C437 H424 0.961 . S
C437 H425 0.959 . S
C437 C435 1.561 1_556 S
C438 C435 1.526 . S
C438 C439 1.396 1_554 S
C438 C443 1.390 . S
C439 C433 1.465 . S
C439 C438 1.396 1_556 S
C439 C440 1.399 . S
C440 H426 0.929 . S
C440 C439 1.399 . S
C440 C441 1.385 1_556 S
C441 H427 0.931 . S
C441 C440 1.385 1_554 S
C441 C442 1.389 . S
C442 C441 1.389 . S
C442 C443 1.387 . S
C443 H428 0.930 . S
C443 C438 1.390 . S
C443 C442 1.387 . S
C133 C61 2.192 . S
C145 C10 2.262 . S
C160 C31 2.322 . S
C172 C100 2.275 . S
C187 C91 2.203 . S
C199 C40 2.261 . S
C214 C1 2.307 . S
C226 C70 2.296 . S
C241 N96 1.523 . S
C253 N14 1.574 . S
C268 C87 1.577 . S
C280 C46 1.572 . S
C295 N66 1.532 . S
C307 N44 1.572 . S
C322 C16 1.574 . S
C334 C117 1.575 . S
C349 C106 1.035 . S
C361 C27 0.904 . S
C376 N74 0.574 . S
C388 N36 0.583 . S
C403 C57 0.948 . S
C415 C76 0.969 . S
C430 N6 0.669 . S
C442 N104 0.446 . S
