# Generated by pormake.
# Topology vbm, (6)-cn, num edge types: 1
# Building blocks:
#     Node 0, Type 0, BuildingBlock: NUHQIS_clean_sbu_0, # of connection points: 6
#     Node 1, Type 0, BuildingBlock: NUHQIS_clean_sbu_0, # of connection points: 6
#     Node 2, Type 0, BuildingBlock: NUHQIS_clean_sbu_0, # of connection points: 6
#     Node 3, Type 0, BuildingBlock: NUHQIS_clean_sbu_0, # of connection points: 6
#     Node 4, Type 0, BuildingBlock: NUHQIS_clean_sbu_0, # of connection points: 6
#     Node 5, Type 0, BuildingBlock: NUHQIS_clean_sbu_0, # of connection points: 6
#     Node 6, Type 0, BuildingBlock: NUHQIS_clean_sbu_0, # of connection points: 6
#     Node 7, Type 0, BuildingBlock: NUHQIS_clean_sbu_0, # of connection points: 6
#     Node 8, Type 0, BuildingBlock: NUHQIS_clean_sbu_0, # of connection points: 6
#     Node 9, Type 0, BuildingBlock: NUHQIS_clean_sbu_0, # of connection points: 6
#     Node 10, Type 0, BuildingBlock: NUHQIS_clean_sbu_0, # of connection points: 6
#     Node 11, Type 0, BuildingBlock: NUHQIS_clean_sbu_0, # of connection points: 6
#     Node 12, Type 0, BuildingBlock: NUHQIS_clean_sbu_0, # of connection points: 6
#     Node 13, Type 0, BuildingBlock: NUHQIS_clean_sbu_0, # of connection points: 6
#     Node 14, Type 0, BuildingBlock: NUHQIS_clean_sbu_0, # of connection points: 6
#     Node 15, Type 0, BuildingBlock: NUHQIS_clean_sbu_0, # of connection points: 6
#     Edge 16, Type (0, 0), BuildingBlock: CIFDUS_clean_linker_0, # of connection points: 2
#     Edge 17, Type (0, 0), BuildingBlock: CIFDUS_clean_linker_0, # of connection points: 2
#     Edge 18, Type (0, 0), BuildingBlock: CIFDUS_clean_linker_0, # of connection points: 2
#     Edge 19, Type (0, 0), BuildingBlock: CIFDUS_clean_linker_0, # of connection points: 2
#     Edge 20, Type (0, 0), BuildingBlock: CIFDUS_clean_linker_0, # of connection points: 2
#     Edge 21, Type (0, 0), BuildingBlock: CIFDUS_clean_linker_0, # of connection points: 2
#     Edge 22, Type (0, 0), BuildingBlock: CIFDUS_clean_linker_0, # of connection points: 2
#     Edge 23, Type (0, 0), BuildingBlock: CIFDUS_clean_linker_0, # of connection points: 2
#     Edge 24, Type (0, 0), BuildingBlock: CIFDUS_clean_linker_0, # of connection points: 2
#     Edge 25, Type (0, 0), BuildingBlock: CIFDUS_clean_linker_0, # of connection points: 2
#     Edge 26, Type (0, 0), BuildingBlock: CIFDUS_clean_linker_0, # of connection points: 2
#     Edge 27, Type (0, 0), BuildingBlock: CIFDUS_clean_linker_0, # of connection points: 2
#     Edge 28, Type (0, 0), BuildingBlock: CIFDUS_clean_linker_0, # of connection points: 2
#     Edge 29, Type (0, 0), BuildingBlock: CIFDUS_clean_linker_0, # of connection points: 2
#     Edge 30, Type (0, 0), BuildingBlock: CIFDUS_clean_linker_0, # of connection points: 2
#     Edge 31, Type (0, 0), BuildingBlock: CIFDUS_clean_linker_0, # of connection points: 2
#     Edge 32, Type (0, 0), BuildingBlock: CIFDUS_clean_linker_0, # of connection points: 2
#     Edge 33, Type (0, 0), BuildingBlock: CIFDUS_clean_linker_0, # of connection points: 2
#     Edge 34, Type (0, 0), BuildingBlock: CIFDUS_clean_linker_0, # of connection points: 2
#     Edge 35, Type (0, 0), BuildingBlock: CIFDUS_clean_linker_0, # of connection points: 2
#     Edge 36, Type (0, 0), BuildingBlock: CIFDUS_clean_linker_0, # of connection points: 2
#     Edge 37, Type (0, 0), BuildingBlock: CIFDUS_clean_linker_0, # of connection points: 2
#     Edge 38, Type (0, 0), BuildingBlock: CIFDUS_clean_linker_0, # of connection points: 2
#     Edge 39, Type (0, 0), BuildingBlock: CIFDUS_clean_linker_0, # of connection points: 2
#     Edge 40, Type (0, 0), BuildingBlock: CIFDUS_clean_linker_0, # of connection points: 2
#     Edge 41, Type (0, 0), BuildingBlock: CIFDUS_clean_linker_0, # of connection points: 2
#     Edge 42, Type (0, 0), BuildingBlock: CIFDUS_clean_linker_0, # of connection points: 2
#     Edge 43, Type (0, 0), BuildingBlock: CIFDUS_clean_linker_0, # of connection points: 2
#     Edge 44, Type (0, 0), BuildingBlock: CIFDUS_clean_linker_0, # of connection points: 2
#     Edge 45, Type (0, 0), BuildingBlock: CIFDUS_clean_linker_0, # of connection points: 2
#     Edge 46, Type (0, 0), BuildingBlock: CIFDUS_clean_linker_0, # of connection points: 2
#     Edge 47, Type (0, 0), BuildingBlock: CIFDUS_clean_linker_0, # of connection points: 2
#     Edge 48, Type (0, 0), BuildingBlock: CIFDUS_clean_linker_0, # of connection points: 2
#     Edge 49, Type (0, 0), BuildingBlock: CIFDUS_clean_linker_0, # of connection points: 2
#     Edge 50, Type (0, 0), BuildingBlock: CIFDUS_clean_linker_0, # of connection points: 2
#     Edge 51, Type (0, 0), BuildingBlock: CIFDUS_clean_linker_0, # of connection points: 2
#     Edge 52, Type (0, 0), BuildingBlock: CIFDUS_clean_linker_0, # of connection points: 2
#     Edge 53, Type (0, 0), BuildingBlock: CIFDUS_clean_linker_0, # of connection points: 2
#     Edge 54, Type (0, 0), BuildingBlock: CIFDUS_clean_linker_0, # of connection points: 2
#     Edge 55, Type (0, 0), BuildingBlock: CIFDUS_clean_linker_0, # of connection points: 2
#     Edge 56, Type (0, 0), BuildingBlock: CIFDUS_clean_linker_0, # of connection points: 2
#     Edge 57, Type (0, 0), BuildingBlock: CIFDUS_clean_linker_0, # of connection points: 2
#     Edge 58, Type (0, 0), BuildingBlock: CIFDUS_clean_linker_0, # of connection points: 2
#     Edge 59, Type (0, 0), BuildingBlock: CIFDUS_clean_linker_0, # of connection points: 2
#     Edge 60, Type (0, 0), BuildingBlock: CIFDUS_clean_linker_0, # of connection points: 2
#     Edge 61, Type (0, 0), BuildingBlock: CIFDUS_clean_linker_0, # of connection points: 2
#     Edge 62, Type (0, 0), BuildingBlock: CIFDUS_clean_linker_0, # of connection points: 2
#     Edge 63, Type (0, 0), BuildingBlock: CIFDUS_clean_linker_0, # of connection points: 2
# Relax obj value: 0.060
# Max RMSD: 0.143
# Mean RMSD: 0.143
data_MOF--net-vbm--node1-NUHQIS_clean_sbu_0--edge1-CIFDUS_clean_linker_0
_symmetry_space_group_name_H-M    P1
_symmetry_Int_Tables_number       1
_symmetry_cell_setting            triclinic
loop_
_symmetry_equiv_pos_as_xyz
'x, y, z'
_cell_length_a     47.488046
_cell_length_b     23.63505
_cell_length_c     50.901922
_cell_angle_alpha  89.774139
_cell_angle_beta   90.158537
_cell_angle_gamma 90.18832
loop_
_atom_site_label
_atom_site_type_symbol
_atom_site_fract_x
_atom_site_fract_y
_atom_site_fract_z
_atom_type_partial_charge
Tb0 Tb 0.14567 0.07194 0.12494 0.0
Eu1 Eu 0.11901 0.19705 0.14025 0.0
C2 C 0.12925 0.15965 0.08128 0.0
C3 C 0.18461 0.18006 0.13173 0.0
C4 C 0.15974 0.91801 0.11881 0.0
C5 C 0.16747 0.81811 0.11108 0.0
C6 C 0.17415 0.87467 0.10594 0.0
C7 C 0.13896 0.9044 0.13734 0.0
C8 C 0.13223 0.84782 0.14248 0.0
C9 C 0.14618 0.80405 0.12916 0.0
C10 C 0.16532 0.97705 0.11158 0.0
O11 O 0.14699 0.07195 0.16759 0.0
O12 O 0.11608 0.14405 0.17729 0.0
O13 O 0.08278 0.14074 0.12972 0.0
O14 O 0.10281 0.05374 0.1375 0.0
C15 C 0.13114 0.09975 0.18423 0.0
O16 O 0.1139 0.26639 0.1679 0.0
O17 O 0.09257 0.26936 0.13025 0.0
O18 O 0.13291 0.20183 0.09767 0.0
O19 O 0.12632 0.10777 0.09004 0.0
O20 O 0.17958 0.13322 0.11864 0.0
O21 O 0.16533 0.20511 0.14575 0.0
C22 C 0.08061 0.08615 0.13402 0.0
O23 O 0.1448 1.00258 0.09944 0.0
O24 O 0.17644 1.00887 0.12972 0.0
C25 C 0.10756 0.35577 0.14868 0.0
C26 C 0.12473 0.46962 0.14429 0.0
C27 C 0.10192 0.45435 0.16047 0.0
C28 C 0.09341 0.39792 0.16259 0.0
C29 C 0.13044 0.37042 0.13265 0.0
C30 C 0.13893 0.42694 0.13042 0.0
C31 C 0.09877 0.29662 0.15175 0.0
H32 H 0.17835 0.78546 0.10026 0.0
H33 H 0.19012 0.88461 0.09146 0.0
H34 H 0.12762 0.93754 0.14743 0.0
H35 H 0.11598 0.83834 0.15674 0.0
H36 H 0.09084 0.48592 0.17178 0.0
H37 H 0.07589 0.38712 0.17527 0.0
H38 H 0.1417 0.33816 0.12189 0.0
H39 H 0.15639 0.43726 0.1176 0.0
Tb40 Tb 0.85169 1.0065 0.13197 0.0
Eu41 Eu 0.88296 0.88245 0.13905 0.0
C42 C 0.87319 0.9399 0.08291 0.0
C43 C 0.81604 0.89283 0.13166 0.0
C44 C 0.8387 0.16162 0.12424 0.0
C45 C 0.82738 0.25929 0.1137 0.0
C46 C 0.81923 0.20258 0.11616 0.0
C47 C 0.86668 0.17777 0.12916 0.0
C48 C 0.87484 0.23448 0.12683 0.0
C49 C 0.8552 0.27616 0.11942 0.0
C50 C 0.82917 0.10318 0.12909 0.0
O51 O 0.84456 0.97318 0.17113 0.0
O52 O 0.88745 0.93379 0.17664 0.0
O53 O 0.91765 0.94272 0.13022 0.0
O54 O 0.89593 1.0271 0.14026 0.0
C55 C 0.86591 0.96118 0.18638 0.0
O56 O 0.89113 0.80893 0.16388 0.0
O57 O 0.90982 0.81398 0.12518 0.0
O58 O 0.87097 0.89188 0.09596 0.0
O59 O 0.87275 0.98868 0.09519 0.0
O60 O 0.81852 0.94513 0.12287 0.0
O61 O 0.8369 0.8656 0.1428 0.0
C62 C 0.91868 0.99695 0.13537 0.0
O63 O 0.83044 0.06814 0.10941 0.0
O64 O 0.83821 0.0801 0.15081 0.0
C65 C 0.89689 0.72361 0.14092 0.0
C66 C 0.87988 0.61022 0.1337 0.0
C67 C 0.90687 0.62305 0.14356 0.0
C68 C 0.91525 0.6793 0.1472 0.0
C69 C 0.87016 0.71121 0.13062 0.0
C70 C 0.86167 0.655 0.12711 0.0
C71 C 0.90542 0.78246 0.14587 0.0
H72 H 0.81182 0.28999 0.1075 0.0
H73 H 0.79754 0.19087 0.11223 0.0
H74 H 0.88203 0.14677 0.1355 0.0
H75 H 0.89634 0.24585 0.13169 0.0
H76 H 0.92126 0.58959 0.14911 0.0
H77 H 0.93594 0.68817 0.15523 0.0
H78 H 0.85584 0.74505 0.12551 0.0
H79 H 0.84088 0.64659 0.11921 0.0
Tb80 Tb 0.13843 0.96581 0.38238 0.0
Eu81 Eu 0.1147 0.8394 0.36574 0.0
C82 C 0.12062 0.87784 0.42522 0.0
C83 C 0.17912 0.86095 0.37788 0.0
C84 C 0.15183 0.11989 0.3889 0.0
C85 C 0.15939 0.21987 0.39645 0.0
C86 C 0.16523 0.16355 0.40262 0.0
C87 C 0.13293 0.13279 0.36855 0.0
C88 C 0.12704 0.18914 0.36236 0.0
C89 C 0.13999 0.23326 0.37646 0.0
C90 C 0.1566 0.06126 0.3969 0.0
O91 O 0.14234 0.96638 0.33993 0.0
O92 O 0.11263 0.89294 0.32877 0.0
O93 O 0.07718 0.89196 0.3748 0.0
O94 O 0.09587 0.98071 0.3679 0.0
C95 C 0.12762 0.93795 0.32253 0.0
O96 O 0.1118 0.77095 0.33734 0.0
O97 O 0.08893 0.76499 0.37405 0.0
O98 O 0.12591 0.83563 0.40923 0.0
O99 O 0.11734 0.92919 0.41603 0.0
O100 O 0.17241 0.90661 0.39105 0.0
O101 O 0.16124 0.83498 0.36253 0.0
C102 C 0.0742 0.94621 0.37045 0.0
O103 O 0.13496 0.03579 0.40727 0.0
O104 O 0.1694 1.02929 0.37994 0.0
C105 C 0.10525 0.68045 0.35518 0.0
C106 C 0.12235 0.56701 0.35925 0.0
C107 C 0.10101 0.58283 0.34148 0.0
C108 C 0.09252 0.6391 0.33952 0.0
C109 C 0.12683 0.66535 0.37268 0.0
C110 C 0.13529 0.60893 0.37475 0.0
C111 C 0.09624 0.73928 0.3525 0.0
H112 H 0.1694 0.25288 0.40789 0.0
H113 H 0.17975 0.15406 0.41848 0.0
H114 H 0.12241 0.0993 0.35779 0.0
H115 H 0.11224 0.19821 0.34668 0.0
H116 H 0.091 0.55177 0.32893 0.0
H117 H 0.07605 0.65039 0.32571 0.0
H118 H 0.13701 0.6971 0.38476 0.0
H119 H 0.15161 0.59804 0.38877 0.0
Tb120 Tb 0.86282 0.09797 0.37903 0.0
Eu121 Eu 0.89253 0.22181 0.36692 0.0
C122 C 0.87662 0.18033 0.4249 0.0
C123 C 0.82691 0.20909 0.37369 0.0
C124 C 0.84862 0.94269 0.38243 0.0
C125 C 0.84187 0.84255 0.39119 0.0
C126 C 0.83411 0.89886 0.39515 0.0
C127 C 0.87085 0.9297 0.36541 0.0
C128 C 0.87862 0.87332 0.36139 0.0
C129 C 0.86435 0.82905 0.3744 0.0
C130 C 0.84126 1.00166 0.38817 0.0
O131 O 0.85911 0.11348 0.3372 0.0
O132 O 0.89909 0.16528 0.33112 0.0
O133 O 0.92623 0.16488 0.38144 0.0
O134 O 0.90675 0.07985 0.36917 0.0
C135 C 0.87995 0.12969 0.32215 0.0
O136 O 0.89991 0.29134 0.33944 0.0
O137 O 0.91888 0.2936 0.37817 0.0
O138 O 0.87643 0.22474 0.40918 0.0
O139 O 0.87998 0.12932 0.41553 0.0
O140 O 0.83028 0.16127 0.3867 0.0
O141 O 0.84676 0.23017 0.35883 0.0
C142 C 0.92872 0.11131 0.37559 0.0
O143 O 0.85823 1.02784 0.40411 0.0
O144 O 0.8345 1.03342 0.36819 0.0
C145 C 0.90541 0.38061 0.35903 0.0
C146 C 0.88825 0.49452 0.36259 0.0
C147 C 0.91111 0.47924 0.34659 0.0
C148 C 0.91959 0.42279 0.34485 0.0
C149 C 0.88259 0.39539 0.37501 0.0
C150 C 0.87409 0.45187 0.3768 0.0
C151 C 0.91413 0.32131 0.35639 0.0
H152 H 0.83071 0.80972 0.40184 0.0
H153 H 0.81706 0.90825 0.40853 0.0
H154 H 0.88236 0.96315 0.3555 0.0
H155 H 0.8958 0.86443 0.3481 0.0
H156 H 0.9222 0.51079 0.33507 0.0
H157 H 0.9371 0.41199 0.33225 0.0
H158 H 0.87136 0.36325 0.38607 0.0
H159 H 0.85662 0.46218 0.38952 0.0
Tb160 Tb 0.8842 0.8847 0.86729 0.0
Eu161 Eu 0.85506 1.00783 0.8809 0.0
C162 C 0.87093 0.97454 0.82279 0.0
C163 C 0.92195 0.99389 0.87374 0.0
C164 C 0.8958 0.72982 0.85993 0.0
C165 C 0.90176 0.63046 0.84954 0.0
C166 C 0.91015 0.68689 0.8467 0.0
C167 C 0.87291 0.71582 0.87608 0.0
C168 C 0.86444 0.65935 0.87892 0.0
C169 C 0.8788 0.61595 0.86568 0.0
C170 C 0.90448 0.789 0.85612 0.0
O171 O 0.87193 0.87972 0.90888 0.0
O172 O 0.87501 0.97425 0.91765 0.0
O173 O 0.82163 0.94198 0.88896 0.0
O174 O 0.8392 0.87189 0.86255 0.0
C175 C 0.87444 0.9216 0.92573 0.0
O176 O 0.84952 0.07921 0.90744 0.0
O177 O 0.82667 0.07716 0.87073 0.0
O178 O 0.85057 0.99348 0.83758 0.0
O179 O 0.88963 0.93889 0.83238 0.0
O180 O 0.91915 0.93931 0.87811 0.0
O181 O 0.9001 1.02709 0.86979 0.0
C182 C 0.81885 0.89342 0.8767 0.0
O183 O 0.88879 0.81862 0.84021 0.0
O184 O 0.91085 0.81717 0.87731 0.0
C185 C 0.84069 0.16644 0.88682 0.0
C186 C 0.85615 0.28099 0.88016 0.0
C187 C 0.83313 0.26591 0.89611 0.0
C188 C 0.8255 0.20912 0.89939 0.0
C189 C 0.86351 0.18104 0.8707 0.0
C190 C 0.87115 0.23783 0.86735 0.0
C191 C 0.83317 0.10689 0.89139 0.0
H192 H 0.913 0.59828 0.83875 0.0
H193 H 0.92774 0.69706 0.834 0.0
H194 H 0.86162 0.74857 0.88647 0.0
H195 H 0.84686 0.64964 0.89169 0.0
H196 H 0.82137 0.29787 0.90656 0.0
H197 H 0.80793 0.19848 0.91205 0.0
H198 H 0.87552 0.1485 0.86087 0.0
H199 H 0.88875 0.24793 0.85467 0.0
Tb200 Tb 0.12241 0.18553 0.86886 0.0
Eu201 Eu 0.15325 0.06091 0.87634 0.0
C202 C 0.14199 0.11253 0.82161 0.0
C203 C 0.08555 0.07403 0.87095 0.0
C204 C 0.10523 0.3409 0.86714 0.0
C205 C 0.08931 0.43841 0.86604 0.0
C206 C 0.08465 0.3811 0.8609 0.0
C207 C 0.1306 0.35861 0.87872 0.0
C208 C 0.13535 0.41612 0.88381 0.0
C209 C 0.11472 0.45674 0.87752 0.0
C210 C 0.09977 0.28102 0.86112 0.0
O211 O 0.13299 0.17818 0.9108 0.0
O212 O 0.13094 0.08145 0.91378 0.0
O213 O 0.18694 0.125 0.88614 0.0
O214 O 0.1671 0.20474 0.86749 0.0
C215 C 0.12994 0.13152 0.9248 0.0
O216 O 0.17484 0.99552 0.89949 0.0
O217 O 0.16767 0.98376 0.85772 0.0
O218 O 0.16282 0.09744 0.83677 0.0
O219 O 0.11994 0.1372 0.83199 0.0
O220 O 0.0878 0.12814 0.87633 0.0
O221 O 0.10765 0.04193 0.86641 0.0
C222 C 0.18853 0.17793 0.87812 0.0
O223 O 0.11705 0.25703 0.84475 0.0
O224 O 0.09401 0.24817 0.88102 0.0
C225 C 0.1702 0.90102 0.88382 0.0
C226 C 0.16095 0.78287 0.88608 0.0
C227 C 0.18667 0.80644 0.89455 0.0
C228 C 0.19123 0.86488 0.89338 0.0
C229 C 0.14405 0.87815 0.87638 0.0
C230 C 0.13947 0.81959 0.8775 0.0
C231 C 0.17695 0.96127 0.87953 0.0
H232 H 0.07315 0.4685 0.86056 0.0
H233 H 0.06497 0.36817 0.85187 0.0
H234 H 0.14667 0.32801 0.88377 0.0
H235 H 0.15504 0.4287 0.89289 0.0
H236 H 0.20348 0.7796 0.90172 0.0
H237 H 0.21154 0.88172 0.89923 0.0
H238 H 0.12752 0.90533 0.86889 0.0
H239 H 0.1195 0.80297 0.87062 0.0
Tb240 Tb 0.88573 0.21916 0.64088 0.0
Eu241 Eu 0.85202 0.09763 0.62558 0.0
C242 C 0.86428 0.13415 0.68369 0.0
C243 C 0.91913 0.10511 0.63412 0.0
C244 C 0.89998 0.37436 0.65131 0.0
C245 C 0.90303 0.47019 0.66865 0.0
C246 C 0.90987 0.41264 0.67021 0.0
C247 C 0.88311 0.39483 0.63061 0.0
C248 C 0.87631 0.45265 0.62896 0.0
C249 C 0.88605 0.49115 0.64807 0.0
C250 C 0.90716 0.31351 0.65398 0.0
O251 O 0.8758 0.22683 0.59896 0.0
O252 O 0.87071 0.13255 0.58835 0.0
O253 O 0.82098 0.16708 0.61659 0.0
O254 O 0.84105 0.23552 0.64301 0.0
C255 C 0.87413 0.18586 0.58152 0.0
O256 O 0.84223 1.0283 0.59848 0.0
O257 O 0.82616 1.02564 0.63808 0.0
O258 O 0.84382 0.12125 0.66752 0.0
O259 O 0.88645 0.1625 0.67533 0.0
O260 O 0.91895 0.16036 0.63076 0.0
O261 O 0.89605 0.07527 0.63759 0.0
C262 C 0.82065 0.21722 0.62778 0.0
O263 O 0.89078 0.28339 0.66908 0.0
O264 O 0.91369 0.28625 0.63263 0.0
C265 C 0.83707 0.93721 0.61798 0.0
C266 C 0.85088 0.82022 0.62044 0.0
C267 C 0.83402 0.84191 0.59995 0.0
C268 C 0.82721 0.89955 0.59878 0.0
C269 C 0.854 0.916 0.63848 0.0
C270 C 0.86072 0.85814 0.63975 0.0
C271 C 0.82929 0.99799 0.61618 0.0
H272 H 0.91127 0.49842 0.68352 0.0
H273 H 0.92291 0.39793 0.68634 0.0
H274 H 0.87506 0.3661 0.61584 0.0
H275 H 0.86297 0.46697 0.613 0.0
H276 H 0.82572 0.81414 0.58491 0.0
H277 H 0.81409 0.91475 0.58281 0.0
H278 H 0.86207 0.94413 0.65349 0.0
H279 H 0.87401 0.84327 0.65564 0.0
Tb280 Tb 0.10949 0.87398 0.63747 0.0
Eu281 Eu 0.14404 0.99664 0.62677 0.0
C282 C 0.12787 0.95501 0.68321 0.0
C283 C 0.07659 0.99038 0.63348 0.0
C284 C 0.09222 0.71786 0.64223 0.0
C285 C 0.08133 0.61965 0.65288 0.0
C286 C 0.0765 0.67759 0.65625 0.0
C287 C 0.11311 0.69916 0.62482 0.0
C288 C 0.1181 0.64098 0.62153 0.0
C289 C 0.10212 0.60037 0.63541 0.0
C290 C 0.08646 0.77874 0.64638 0.0
O291 O 0.12091 0.87597 0.59575 0.0
O292 O 0.12036 0.97228 0.59025 0.0
O293 O 0.17477 0.92726 0.61711 0.0
O294 O 0.15388 0.85646 0.64162 0.0
C295 C 0.1186 0.92094 0.58057 0.0
O296 O 0.16038 0.06404 0.60106 0.0
O297 O 0.16589 0.06979 0.64312 0.0
O298 O 0.14955 0.9683 0.66857 0.0
O299 O 0.10687 0.92553 0.67321 0.0
O300 O 0.07655 0.93533 0.6294 0.0
O301 O 0.09976 1.01988 0.63726 0.0
C302 C 0.17483 0.87621 0.62754 0.0
O303 O 0.1028 0.80496 0.66298 0.0
O304 O 0.08153 0.80961 0.62558 0.0
C305 C 0.16103 0.1565 0.61984 0.0
C306 C 0.15022 0.27474 0.62112 0.0
C307 C 0.17244 0.25271 0.60601 0.0
C308 C 0.17779 0.19442 0.60544 0.0
C309 C 0.1383 0.17786 0.63436 0.0
C310 C 0.13297 0.23628 0.63501 0.0
C311 C 0.16861 0.09564 0.6206 0.0
H312 H 0.0689 0.58988 0.66422 0.0
H313 H 0.06039 0.69101 0.66989 0.0
H314 H 0.1254 0.72951 0.61368 0.0
H315 H 0.13411 0.6278 0.60775 0.0
H316 H 0.18587 0.28057 0.59462 0.0
H317 H 0.19537 0.17899 0.59403 0.0
H318 H 0.12502 0.14951 0.64566 0.0
H319 H 0.11583 0.25138 0.64706 0.0
Tb320 Tb 0.64946 0.56892 0.12609 0.0
Eu321 Eu 0.61997 0.69317 0.1405 0.0
C322 C 0.63224 0.65574 0.08148 0.0
C323 C 0.68584 0.68017 0.13208 0.0
C324 C 0.668 0.41383 0.12114 0.0
C325 C 0.68239 0.31656 0.11379 0.0
C326 C 0.68594 0.37456 0.10931 0.0
C327 C 0.6465 0.39439 0.13779 0.0
C328 C 0.6429 0.33618 0.14231 0.0
C329 C 0.66074 0.29645 0.13025 0.0
C330 C 0.6713 0.47432 0.11462 0.0
O331 O 0.65134 0.57657 0.16866 0.0
O332 O 0.61362 0.63484 0.17556 0.0
O333 O 0.58514 0.63502 0.12795 0.0
O334 O 0.60605 0.54889 0.13637 0.0
C335 C 0.63126 0.59576 0.18387 0.0
O336 O 0.61477 0.76267 0.16823 0.0
O337 O 0.59243 0.7643 0.13106 0.0
O338 O 0.63354 0.69859 0.09786 0.0
O339 O 0.63198 0.60321 0.08995 0.0
O340 O 0.68179 0.63313 0.11881 0.0
O341 O 0.66625 0.70217 0.14685 0.0
C342 C 0.58361 0.5801 0.13176 0.0
O343 O 0.65052 0.49739 0.10183 0.0
O344 O 0.68078 0.50754 0.13301 0.0
C345 C 0.60439 0.85266 0.1501 0.0
C346 C 0.61412 0.97051 0.14547 0.0
C347 C 0.59218 0.94939 0.1613 0.0
C348 C 0.58739 0.89117 0.16356 0.0
C349 C 0.62661 0.87311 0.13455 0.0
C350 C 0.63145 0.93156 0.13227 0.0
C351 C 0.59838 0.79163 0.15262 0.0
H352 H 0.69623 0.28739 0.10382 0.0
H353 H 0.70248 0.38873 0.0962 0.0
H354 H 0.63236 0.42413 0.14705 0.0
H355 H 0.62622 0.32232 0.15531 0.0
H356 H 0.57874 0.9779 0.17213 0.0
H357 H 0.57028 0.87617 0.17581 0.0
H358 H 0.64002 0.84396 0.12405 0.0
H359 H 0.64839 0.94626 0.11976 0.0
Tb360 Tb 0.35578 0.49214 0.13095 0.0
Eu361 Eu 0.38719 0.36681 0.13692 0.0
C362 C 0.37694 0.4262 0.08154 0.0
C363 C 0.32016 0.37848 0.13096 0.0
C364 C 0.33999 0.64736 0.12331 0.0
C365 C 0.32503 0.74336 0.11339 0.0
C366 C 0.31886 0.68574 0.11614 0.0
C367 C 0.36763 0.66708 0.12698 0.0
C368 C 0.37382 0.72478 0.12433 0.0
C369 C 0.35249 0.76374 0.11788 0.0
C370 C 0.33232 0.58804 0.12874 0.0
O371 O 0.34985 0.4583 0.17016 0.0
O372 O 0.39249 0.41724 0.17436 0.0
O373 O 0.42177 0.42826 0.12841 0.0
O374 O 0.40003 0.51294 0.13823 0.0
C375 C 0.37166 0.44565 0.18473 0.0
O376 O 0.39624 0.29345 0.16152 0.0
O377 O 0.41393 0.29872 0.12233 0.0
O378 O 0.37458 0.37784 0.09426 0.0
O379 O 0.37654 0.47482 0.09398 0.0
O380 O 0.3228 0.43068 0.12215 0.0
O381 O 0.34111 0.35027 0.14146 0.0
C382 C 0.42271 0.48277 0.13322 0.0
O383 O 0.33308 0.55284 0.10909 0.0
O384 O 0.34304 0.56601 0.15003 0.0
C385 C 0.4053 0.20728 0.13988 0.0
C386 C 0.39507 0.08979 0.13649 0.0
C387 C 0.42212 0.11057 0.14254 0.0
C388 C 0.42714 0.1687 0.14422 0.0
C389 C 0.37838 0.18714 0.13323 0.0
C390 C 0.37331 0.12879 0.13149 0.0
C391 C 0.41095 0.26796 0.1435 0.0
H392 H 0.30806 0.7722 0.10866 0.0
H393 H 0.29737 0.67133 0.11336 0.0
H394 H 0.38427 0.63807 0.13247 0.0
H395 H 0.39525 0.73897 0.12757 0.0
H396 H 0.43944 0.08181 0.14607 0.0
H397 H 0.44807 0.18354 0.1493 0.0
H398 H 0.36124 0.21646 0.12986 0.0
H399 H 0.3522 0.11419 0.12698 0.0
Tb400 Tb 0.64284 0.46776 0.37606 0.0
Eu401 Eu 0.61022 0.34448 0.36474 0.0
C402 C 0.61985 0.394 0.42254 0.0
C403 C 0.67637 0.35191 0.37746 0.0
C404 C 0.65612 0.62396 0.38426 0.0
C405 C 0.6657 0.71931 0.40004 0.0
C406 C 0.67256 0.66172 0.39903 0.0
C407 C 0.63223 0.64458 0.371 0.0
C408 C 0.62546 0.70223 0.37185 0.0
C409 C 0.64231 0.74051 0.38613 0.0
C410 C 0.66537 0.56451 0.38137 0.0
O411 O 0.65314 0.43637 0.33727 0.0
O412 O 0.61037 0.39902 0.32784 0.0
O413 O 0.57613 0.40614 0.37329 0.0
O414 O 0.59986 0.48958 0.36469 0.0
C415 C 0.63323 0.42561 0.32021 0.0
O416 O 0.60311 0.27399 0.33792 0.0
O417 O 0.58191 0.2751 0.37556 0.0
O418 O 0.62122 0.34805 0.40806 0.0
O419 O 0.62057 0.4447 0.41181 0.0
O420 O 0.6744 0.40418 0.38629 0.0
O421 O 0.65619 0.32655 0.36439 0.0
C422 C 0.57643 0.46076 0.36859 0.0
O423 O 0.66064 0.52995 0.40091 0.0
O424 O 0.65995 0.54077 0.35886 0.0
C425 C 0.59302 0.18533 0.35746 0.0
C426 C 0.60488 0.06811 0.36084 0.0
C427 C 0.58212 0.08809 0.34568 0.0
C428 C 0.5763 0.14597 0.34401 0.0
C429 C 0.61556 0.16591 0.37295 0.0
C430 C 0.62139 0.10777 0.37469 0.0
C431 C 0.58704 0.24625 0.35429 0.0
H432 H 0.67927 0.74754 0.41105 0.0
H433 H 0.69115 0.64687 0.40931 0.0
H434 H 0.6191 0.61634 0.35952 0.0
H435 H 0.60706 0.71689 0.36124 0.0
H436 H 0.56868 0.05888 0.33508 0.0
H437 H 0.5588 0.16009 0.33198 0.0
H438 H 0.62881 0.19571 0.38341 0.0
H439 H 0.63922 0.09402 0.38636 0.0
Tb440 Tb 0.35207 0.55953 0.37762 0.0
Eu441 Eu 0.38263 0.68427 0.3678 0.0
C442 C 0.3755 0.63035 0.4246 0.0
C443 C 0.31632 0.67155 0.37957 0.0
C444 C 0.3397 0.40421 0.38531 0.0
C445 C 0.32917 0.30364 0.3855 0.0
C446 C 0.32009 0.35984 0.38588 0.0
C447 C 0.36857 0.39188 0.38512 0.0
C448 C 0.37769 0.33566 0.38461 0.0
C449 C 0.35806 0.29088 0.38439 0.0
C450 C 0.32974 0.4627 0.38257 0.0
O451 O 0.34119 0.59274 0.33913 0.0
O452 O 0.38331 0.63328 0.33023 0.0
O453 O 0.41775 0.62328 0.37472 0.0
O454 O 0.39479 0.53962 0.3653 0.0
C455 C 0.36089 0.60575 0.32226 0.0
O456 O 0.38816 0.75854 0.34286 0.0
O457 O 0.41164 0.75176 0.37936 0.0
O458 O 0.37222 0.6772 0.41098 0.0
O459 O 0.37544 0.58072 0.41303 0.0
O460 O 0.31987 0.61987 0.38863 0.0
O461 O 0.33615 0.69978 0.36721 0.0
C462 C 0.418 0.5691 0.36918 0.0
O463 O 0.33458 0.49672 0.40218 0.0
O464 O 0.33538 0.48669 0.36012 0.0
C465 C 0.39756 0.84301 0.36591 0.0
C466 C 0.38423 0.9566 0.37738 0.0
C467 C 0.41223 0.9405 0.37239 0.0
C468 C 0.41879 0.88423 0.36667 0.0
C469 C 0.36965 0.85851 0.37122 0.0
C470 C 0.36303 0.9148 0.37682 0.0
C471 C 0.40476 0.78415 0.35955 0.0
H472 H 0.3135 0.27024 0.38503 0.0
H473 H 0.29772 0.36868 0.38583 0.0
H474 H 0.38397 0.42574 0.38472 0.0
H475 H 0.40009 0.32725 0.38408 0.0
H476 H 0.42915 0.97129 0.37308 0.0
H477 H 0.44048 0.87291 0.3628 0.0
H478 H 0.35297 0.82717 0.37081 0.0
H479 H 0.34122 0.92567 0.38025 0.0
Tb480 Tb 0.38531 0.37708 0.86633 0.0
Eu481 Eu 0.35791 0.5016 0.88246 0.0
C482 C 0.37188 0.47086 0.82256 0.0
C483 C 0.42389 0.48644 0.87126 0.0
C484 C 0.39636 0.22196 0.85933 0.0
C485 C 0.40155 0.1226 0.84872 0.0
C486 C 0.40999 0.17888 0.84558 0.0
C487 C 0.37408 0.2083 0.87628 0.0
C488 C 0.36561 0.15193 0.87948 0.0
C489 C 0.37929 0.10836 0.86574 0.0
C490 C 0.40503 0.28095 0.85512 0.0
O491 O 0.37321 0.37132 0.90782 0.0
O492 O 0.37991 0.46449 0.91729 0.0
O493 O 0.32377 0.4364 0.88923 0.0
O494 O 0.34024 0.36528 0.86268 0.0
C495 C 0.37779 0.41181 0.92495 0.0
O496 O 0.35727 0.57299 0.9094 0.0
O497 O 0.32705 0.56926 0.87758 0.0
O498 O 0.35579 0.49927 0.83865 0.0
O499 O 0.38737 0.42759 0.83017 0.0
O500 O 0.42113 0.43162 0.87511 0.0
O501 O 0.40205 0.5202 0.86896 0.0
C502 C 0.32026 0.38825 0.87678 0.0
O503 O 0.38892 0.31034 0.8395 0.0
O504 O 0.41208 0.30948 0.876 0.0
C505 C 0.34359 0.6592 0.89047 0.0
C506 C 0.35754 0.77373 0.88167 0.0
C507 C 0.33619 0.75876 0.89955 0.0
C508 C 0.32932 0.70193 0.90392 0.0
C509 C 0.36451 0.67374 0.87223 0.0
C510 C 0.37141 0.73055 0.86785 0.0
C511 C 0.33756 0.59966 0.89657 0.0
H512 H 0.41221 0.09033 0.83748 0.0
H513 H 0.42704 0.18884 0.83222 0.0
H514 H 0.36326 0.24123 0.887 0.0
H515 H 0.34858 0.14244 0.89292 0.0
H516 H 0.32535 0.79086 0.91075 0.0
H517 H 0.31323 0.6913 0.91818 0.0
H518 H 0.37575 0.64113 0.86169 0.0
H519 H 0.38768 0.74065 0.8537 0.0
Tb520 Tb 0.62355 0.68299 0.86913 0.0
Eu521 Eu 0.65473 0.55917 0.87658 0.0
C522 C 0.64328 0.61039 0.8217 0.0
C523 C 0.58699 0.57125 0.87047 0.0
C524 C 0.60983 0.83803 0.86769 0.0
C525 C 0.60092 0.93873 0.86327 0.0
C526 C 0.5927 0.88258 0.8591 0.0
C527 C 0.6351 0.85014 0.88088 0.0
C528 C 0.64348 0.90629 0.88487 0.0
C529 C 0.62654 0.95126 0.87596 0.0
C530 C 0.60165 0.77931 0.86196 0.0
O531 O 0.63436 0.67549 0.91102 0.0
O532 O 0.63173 0.57903 0.91369 0.0
O533 O 0.68839 0.62354 0.88632 0.0
O534 O 0.66821 0.70223 0.86711 0.0
C535 C 0.63104 0.62882 0.92493 0.0
O536 O 0.67531 0.49347 0.90023 0.0
O537 O 0.66972 0.48203 0.85829 0.0
O538 O 0.6641 0.59487 0.83681 0.0
O539 O 0.62126 0.63521 0.83209 0.0
O540 O 0.58888 0.62532 0.87611 0.0
O541 O 0.60934 0.53983 0.86598 0.0
C542 C 0.68975 0.6763 0.87799 0.0
O543 O 0.61713 0.75348 0.84466 0.0
O544 O 0.59641 0.74704 0.88219 0.0
C545 C 0.66753 0.40017 0.88473 0.0
C546 C 0.65065 0.28572 0.8891 0.0
C547 C 0.67785 0.30287 0.89687 0.0
C548 C 0.68621 0.35953 0.89463 0.0
C549 C 0.6401 0.38376 0.87771 0.0
C550 C 0.63177 0.32711 0.87979 0.0
C551 C 0.67732 0.45868 0.88046 0.0
H552 H 0.58757 0.97235 0.85591 0.0
H553 H 0.57315 0.87395 0.84882 0.0
H554 H 0.64839 0.81612 0.88786 0.0
H555 H 0.66318 0.91452 0.89496 0.0
H556 H 0.69279 0.27246 0.90458 0.0
H557 H 0.70744 0.37145 0.90023 0.0
H558 H 0.62533 0.41453 0.87002 0.0
H559 H 0.6108 0.31556 0.87332 0.0
Tb560 Tb 0.38395 0.71374 0.63739 0.0
Eu561 Eu 0.35133 0.59 0.62567 0.0
C562 C 0.36969 0.62762 0.6837 0.0
C563 C 0.41817 0.59907 0.63468 0.0
C564 C 0.39811 0.86981 0.63974 0.0
C565 C 0.40408 0.96972 0.64969 0.0
C566 C 0.41145 0.91309 0.65387 0.0
C567 C 0.37725 0.8839 0.62129 0.0
C568 C 0.36976 0.94057 0.61715 0.0
C569 C 0.38307 0.98432 0.63133 0.0
C570 C 0.40573 0.81038 0.64506 0.0
O571 O 0.37126 0.71303 0.59585 0.0
O572 O 0.3748 0.61775 0.5899 0.0
O573 O 0.32024 0.65972 0.61654 0.0
O574 O 0.33965 0.72642 0.64382 0.0
C575 C 0.37457 0.66916 0.58033 0.0
O576 O 0.34523 0.51732 0.59991 0.0
O577 O 0.32096 0.52351 0.63559 0.0
O578 O 0.35056 0.60249 0.66919 0.0
O579 O 0.38728 0.66587 0.67424 0.0
O580 O 0.41742 0.65383 0.62992 0.0
O581 O 0.39536 0.56822 0.63811 0.0
C582 C 0.31917 0.70864 0.62871 0.0
O583 O 0.39003 0.78386 0.66207 0.0
O584 O 0.41115 0.77877 0.62477 0.0
C585 C 0.33402 0.43186 0.62142 0.0
C586 C 0.34699 0.31656 0.63032 0.0
C587 C 0.32558 0.33216 0.61256 0.0
C588 C 0.31918 0.38923 0.60818 0.0
C589 C 0.35535 0.41674 0.63922 0.0
C590 C 0.36173 0.35964 0.64369 0.0
C591 C 0.32779 0.49176 0.61571 0.0
H592 H 0.41513 1.00212 0.66066 0.0
H593 H 0.42762 0.90306 0.6682 0.0
H594 H 0.36668 0.85106 0.61018 0.0
H595 H 0.35326 0.95 0.60308 0.0
H596 H 0.31356 0.30022 0.60219 0.0
H597 H 0.3027 0.4001 0.59431 0.0
H598 H 0.36724 0.4491 0.64947 0.0
H599 H 0.37856 0.34927 0.65725 0.0
Tb600 Tb 0.61108 0.38243 0.6345 0.0
Eu601 Eu 0.64524 0.50506 0.62666 0.0
C602 C 0.62934 0.45852 0.68196 0.0
C603 C 0.57754 0.49739 0.63288 0.0
C604 C 0.59647 0.2269 0.63601 0.0
C605 C 0.59136 0.12676 0.64626 0.0
C606 C 0.5831 0.18303 0.64983 0.0
C607 C 0.61805 0.21367 0.61829 0.0
C608 C 0.62655 0.15742 0.6149 0.0
C609 C 0.61338 0.11326 0.62895 0.0
C610 C 0.58851 0.28614 0.64118 0.0
O611 O 0.62231 0.38948 0.59274 0.0
O612 O 0.62127 0.48602 0.5898 0.0
O613 O 0.67636 0.43699 0.61581 0.0
O614 O 0.65533 0.36429 0.63883 0.0
C615 C 0.6199 0.43616 0.57867 0.0
O616 O 0.66331 0.57294 0.60239 0.0
O617 O 0.66522 0.57834 0.64475 0.0
O618 O 0.65115 0.47232 0.66763 0.0
O619 O 0.60819 0.43073 0.67124 0.0
O620 O 0.57787 0.443 0.62757 0.0
O621 O 0.60057 0.52717 0.6371 0.0
C622 C 0.67644 0.38515 0.62536 0.0
O623 O 0.60348 0.31214 0.65893 0.0
O624 O 0.58401 0.31836 0.62075 0.0
C625 C 0.6588 0.664 0.62143 0.0
C626 C 0.64054 0.77814 0.62067 0.0
C627 C 0.66527 0.76186 0.60748 0.0
C628 C 0.67431 0.70542 0.60792 0.0
C629 C 0.63392 0.67976 0.63429 0.0
C630 C 0.62498 0.73613 0.63403 0.0
C631 C 0.66899 0.60497 0.62255 0.0
H632 H 0.58098 0.09393 0.6576 0.0
H633 H 0.56648 0.19238 0.66368 0.0
H634 H 0.62843 0.24691 0.60724 0.0
H635 H 0.64336 0.14847 0.60121 0.0
H636 H 0.67759 0.79261 0.59662 0.0
H637 H 0.6935 0.69415 0.59777 0.0
H638 H 0.62153 0.64856 0.64485 0.0
H639 H 0.60609 0.74686 0.64475 0.0
H640 H 0.19467 0.29224 0.13256 0.0
H641 H 0.23613 0.13094 0.1254 0.0
H642 H 0.28206 0.17865 0.12415 0.0
H643 H 0.31018 0.26609 0.12674 0.0
H644 H 0.26829 0.42748 0.13144 0.0
H645 H 0.22249 0.37977 0.13183 0.0
C646 C 0.21379 0.26755 0.13074 0.0
C647 C 0.21221 0.20821 0.12946 0.0
C648 C 0.23988 0.29524 0.12957 0.0
C649 C 0.23697 0.17668 0.1265 0.0
C650 C 0.26314 0.20391 0.12585 0.0
C651 C 0.291 0.29076 0.12781 0.0
C652 C 0.29253 0.35012 0.12936 0.0
C653 C 0.26483 0.26312 0.12765 0.0
C654 C 0.26758 0.38174 0.13024 0.0
C655 C 0.24145 0.3545 0.13056 0.0
H656 H 0.80858 0.78052 0.12545 0.0
H657 H 0.76284 0.93702 0.13247 0.0
H658 H 0.71824 0.8844 0.13286 0.0
H659 H 0.69275 0.79354 0.1335 0.0
H660 H 0.73851 0.63754 0.12422 0.0
H661 H 0.78295 0.69046 0.1224 0.0
C662 C 0.78885 0.80313 0.12698 0.0
C663 C 0.78894 0.86245 0.12928 0.0
C664 C 0.76347 0.77269 0.12692 0.0
C665 C 0.76324 0.89137 0.1307 0.0
C666 C 0.73781 0.86129 0.13106 0.0
C667 C 0.71248 0.77117 0.13107 0.0
C668 C 0.71253 0.71171 0.12941 0.0
C669 C 0.73775 0.80191 0.12958 0.0
C670 C 0.73806 0.68325 0.12565 0.0
C671 C 0.7634 0.71347 0.12466 0.0
H672 H 0.30544 0.7834 0.38398 0.0
H673 H 0.26528 0.61945 0.3814 0.0
H674 H 0.21898 0.66427 0.38166 0.0
H675 H 0.19025 0.7499 0.3798 0.0
H676 H 0.22978 0.91406 0.38448 0.0
H677 H 0.27632 0.8693 0.38641 0.0
C678 C 0.28652 0.7576 0.3836 0.0
C679 C 0.28862 0.69838 0.38232 0.0
C680 C 0.26005 0.78362 0.38405 0.0
C681 C 0.26407 0.66516 0.38237 0.0
C682 C 0.23766 0.69072 0.3824 0.0
C683 C 0.20909 0.7758 0.38134 0.0
C684 C 0.20688 0.83499 0.38157 0.0
C685 C 0.23546 0.74986 0.38278 0.0
C686 C 0.2312 0.86832 0.38418 0.0
C687 C 0.2577 0.84279 0.38518 0.0
H688 H 0.77374 0.17306 0.38505 0.0
H689 H 0.82335 0.32298 0.37012 0.0
H690 H 0.78153 0.38175 0.37311 0.0
H691 H 0.73019 0.39016 0.3765 0.0
H692 H 0.67993 0.23988 0.3878 0.0
H693 H 0.72237 0.18195 0.39001 0.0
C694 C 0.77531 0.2186 0.3827 0.0
C695 C 0.80143 0.24354 0.37712 0.0
C696 C 0.751 0.2522 0.38374 0.0
C697 C 0.80331 0.30264 0.37405 0.0
C698 C 0.77944 0.33641 0.37585 0.0
C699 C 0.72868 0.3449 0.37988 0.0
C700 C 0.70219 0.31918 0.38192 0.0
C701 C 0.75308 0.3116 0.38019 0.0
C702 C 0.70028 0.2604 0.38598 0.0
C703 C 0.72448 0.22726 0.38723 0.0
H704 H 0.69645 0.78963 0.88251 0.0
H705 H 0.74339 0.63419 0.87739 0.0
H706 H 0.78757 0.68804 0.87648 0.0
H707 H 0.81251 0.77959 0.87531 0.0
H708 H 0.76563 0.93455 0.8833 0.0
H709 H 0.72153 0.88055 0.88489 0.0
C710 C 0.71633 0.7675 0.88132 0.0
C711 C 0.71663 0.70802 0.87977 0.0
C712 C 0.74155 0.79867 0.88118 0.0
C713 C 0.7426 0.6799 0.87864 0.0
C714 C 0.76783 0.7107 0.87798 0.0
C715 C 0.79263 0.80151 0.87744 0.0
C716 C 0.79225 0.86101 0.87887 0.0
C717 C 0.76751 0.77012 0.87892 0.0
C718 C 0.76642 0.88883 0.8821 0.0
C719 C 0.74124 0.85798 0.88297 0.0
H720 H 0.31243 0.27489 0.87566 0.0
H721 H 0.26763 0.4324 0.88333 0.0
H722 H 0.2228 0.38082 0.88494 0.0
H723 H 0.19646 0.29113 0.88261 0.0
H724 H 0.24154 0.13337 0.87758 0.0
H725 H 0.28634 0.18488 0.87677 0.0
C726 C 0.29284 0.29791 0.87769 0.0
C727 C 0.29324 0.3574 0.87902 0.0
C728 C 0.26731 0.26794 0.87914 0.0
C729 C 0.2678 0.38664 0.88219 0.0
C730 C 0.24221 0.35718 0.88306 0.0
C731 C 0.2161 0.26802 0.88143 0.0
C732 C 0.21569 0.20855 0.8799 0.0
C733 C 0.24172 0.29787 0.88132 0.0
C734 C 0.2413 0.17912 0.87881 0.0
C735 C 0.2669 0.20856 0.87822 0.0
H736 H 0.73194 0.41426 0.62252 0.0
H737 H 0.67519 0.27167 0.62007 0.0
H738 H 0.7147 0.20659 0.6178 0.0
H739 H 0.76561 0.18946 0.6202 0.0
H740 H 0.82242 0.33151 0.6265 0.0
H741 H 0.78305 0.39718 0.62346 0.0
C742 C 0.72835 0.36902 0.62111 0.0
C743 C 0.70079 0.34773 0.6215 0.0
C744 C 0.75126 0.33157 0.62074 0.0
C745 C 0.69629 0.28898 0.61994 0.0
C746 C 0.71887 0.25167 0.61866 0.0
C747 C 0.76929 0.23477 0.62058 0.0
C748 C 0.7967 0.25565 0.62375 0.0
C749 C 0.74647 0.27236 0.61961 0.0
C750 C 0.80132 0.31448 0.62439 0.0
C751 C 0.77886 0.35211 0.6226 0.0
H752 H 0.23017 0.90503 0.62475 0.0
H753 H 0.17336 0.76255 0.6225 0.0
H754 H 0.21296 0.6974 0.61992 0.0
H755 H 0.26405 0.6804 0.62162 0.0
H756 H 0.32059 0.82273 0.62826 0.0
H757 H 0.28118 0.88818 0.62559 0.0
C758 C 0.22658 0.85978 0.62335 0.0
C759 C 0.19905 0.83849 0.62386 0.0
C760 C 0.24949 0.82241 0.62281 0.0
C761 C 0.1945 0.77977 0.62233 0.0
C762 C 0.21711 0.74247 0.62084 0.0
C763 C 0.26763 0.72573 0.62217 0.0
C764 C 0.29504 0.74678 0.62517 0.0
C765 C 0.24473 0.7632 0.62158 0.0
C766 C 0.29955 0.8056 0.62611 0.0
C767 C 0.27705 0.8431 0.62458 0.0
H768 H 0.12789 0.04724 0.30615 0.0
H769 H 0.12639 0.87589 0.27744 0.0
H770 H 0.12803 0.91089 0.23206 0.0
H771 H 0.13067 0.99046 0.20058 0.0
H772 H 0.1277 0.16176 0.22919 0.0
H773 H 0.12695 0.12677 0.27459 0.0
C774 C 0.12794 1.01763 0.28992 0.0
C775 C 0.12737 0.95904 0.29508 0.0
C776 C 0.12809 0.03813 0.26392 0.0
C777 C 0.12687 0.92112 0.27392 0.0
C778 C 0.12788 0.94114 0.24801 0.0
C779 C 0.1299 1.02005 0.2168 0.0
C780 C 0.1296 0.07864 0.21163 0.0
C781 C 0.12865 0.99954 0.24278 0.0
C782 C 0.128 0.11654 0.23273 0.0
C783 C 0.12763 0.09653 0.25866 0.0
H784 H 0.84035 0.06725 0.29691 0.0
H785 H 0.92509 0.13066 0.28804 0.0
H786 H 0.92936 0.07988 0.24625 0.0
H787 H 0.90846 1.01749 0.21179 0.0
H788 H 0.82287 0.95945 0.22079 0.0
H789 H 0.8197 1.00696 0.2632 0.0
C790 C 0.85981 0.0703 0.2859 0.0
C791 C 0.88235 0.10306 0.29571 0.0
C792 C 0.86208 0.04106 0.262 0.0
C793 C 0.9073 0.1063 0.28094 0.0
C794 C 0.90981 0.07686 0.2571 0.0
C795 C 0.88937 1.01449 0.22336 0.0
C796 C 0.86606 0.98409 0.21344 0.0
C797 C 0.88736 0.04383 0.24746 0.0
C798 C 0.84114 0.98196 0.22818 0.0
C799 C 0.83927 1.00945 0.25234 0.0
H800 H 0.905 0.07905 0.71192 0.0
H801 H 0.81913 0.13685 0.71573 0.0
H802 H 0.81352 0.09222 0.7588 0.0
H803 H 0.8324 0.03486 0.79485 0.0
H804 H 0.91731 0.9713 0.7906 0.0
H805 H 0.92377 1.01899 0.7482 0.0
C806 C 0.88527 0.08254 0.72247 0.0
C807 C 0.86263 0.11208 0.71093 0.0
C808 C 0.88186 0.05485 0.74693 0.0
C809 C 0.83691 0.1149 0.72438 0.0
C810 C 0.83365 0.08911 0.74893 0.0
C811 C 0.85234 1.03116 0.78466 0.0
C812 C 0.87432 0.99933 0.796 0.0
C813 C 0.85585 0.05849 0.76028 0.0
C814 C 0.89993 0.99502 0.78232 0.0
C815 C 0.90371 1.02269 0.75812 0.0
H816 H 0.09919 0.06154 0.79446 0.0
H817 H 0.18579 0.11479 0.78797 0.0
H818 H 0.18918 0.07028 0.74484 0.0
H819 H 0.1683 1.01341 0.70976 0.0
H820 H 0.08239 0.95523 0.71652 0.0
H821 H 0.0781 1.00341 0.75882 0.0
C822 C 0.11857 0.06425 0.78329 0.0
C823 C 0.14209 0.09227 0.79412 0.0
C824 C 0.12067 0.03665 0.75881 0.0
C825 C 0.16735 0.09405 0.77986 0.0
C826 C 0.16935 0.06826 0.7553 0.0
C827 C 0.14861 1.01095 0.72047 0.0
C828 C 0.12574 0.98038 0.70989 0.0
C829 C 0.1463 0.03877 0.74474 0.0
C830 C 0.10045 0.97793 0.72419 0.0
C831 C 0.09791 1.00588 0.74835 0.0
H832 H 0.59392 0.48387 0.29203 0.0
H833 H 0.67936 0.42344 0.28918 0.0
H834 H 0.68637 0.47074 0.24685 0.0
H835 H 0.66873 0.53134 0.21124 0.0
H836 H 0.58438 0.598 0.21521 0.0
H837 H 0.57656 0.54722 0.25656 0.0
C838 C 0.61387 0.4804 0.28184 0.0
C839 C 0.63595 0.44931 0.29338 0.0
C840 C 0.6181 0.50969 0.25794 0.0
C841 C 0.66199 0.44654 0.28047 0.0
C842 C 0.66605 0.47386 0.25636 0.0
C843 C 0.64864 0.535 0.22116 0.0
C844 C 0.62721 0.56865 0.21006 0.0
C845 C 0.64436 0.50604 0.24504 0.0
C846 C 0.60137 0.57293 0.22335 0.0
C847 C 0.5968 0.5435 0.24694 0.0
H848 H 0.40311 0.56047 0.29324 0.0
H849 H 0.31409 0.59543 0.29212 0.0
H850 H 0.30944 0.54806 0.24969 0.0
H851 H 0.33042 0.49515 0.21339 0.0
H852 H 0.41895 0.45478 0.21539 0.0
H853 H 0.42399 0.50479 0.25714 0.0
C854 C 0.38283 0.5584 0.28343 0.0
C855 C 0.35904 0.5822 0.29548 0.0
C856 C 0.38014 0.52925 0.25945 0.0
C857 C 0.33271 0.57788 0.28303 0.0
C858 C 0.33002 0.55055 0.25887 0.0
C859 C 0.35081 0.49697 0.223 0.0
C860 C 0.37425 0.47111 0.21124 0.0
C861 C 0.35353 0.52563 0.24702 0.0
C862 C 0.40049 0.47384 0.22407 0.0
C863 C 0.40344 0.50284 0.24787 0.0
H864 H 0.37485 0.57928 0.80567 0.0
H865 H 0.37283 0.40709 0.77809 0.0
H866 H 0.37205 0.44083 0.73246 0.0
H867 H 0.37002 0.51957 0.70062 0.0
H868 H 0.37634 0.69154 0.72789 0.0
H869 H 0.37755 0.65787 0.7736 0.0
C870 C 0.37432 0.54925 0.7896 0.0
C871 C 0.37349 0.49083 0.79508 0.0
C872 C 0.37462 0.56899 0.76351 0.0
C873 C 0.3734 0.4522 0.77424 0.0
C874 C 0.37287 0.4715 0.74822 0.0
C875 C 0.37175 0.54957 0.71663 0.0
C876 C 0.37268 0.60793 0.7111 0.0
C877 C 0.37316 0.52978 0.74266 0.0
C878 C 0.37552 0.64648 0.73182 0.0
C879 C 0.37612 0.62721 0.75787 0.0
H880 H 0.60038 0.56127 0.79392 0.0
H881 H 0.68736 0.61259 0.78839 0.0
H882 H 0.69084 0.56934 0.74501 0.0
H883 H 0.66991 0.51429 0.7094 0.0
H884 H 0.58355 0.45831 0.71496 0.0
H885 H 0.57922 0.50492 0.75766 0.0
C886 C 0.61987 0.56385 0.78291 0.0
C887 C 0.64348 0.59093 0.79409 0.0
C888 C 0.622 0.53701 0.75824 0.0
C889 C 0.66886 0.59254 0.78002 0.0
C890 C 0.67091 0.56747 0.75531 0.0
C891 C 0.65011 0.51194 0.71993 0.0
C892 C 0.62713 0.48249 0.70891 0.0
C893 C 0.64776 0.53893 0.74439 0.0
C894 C 0.60169 0.48016 0.72299 0.0
C895 C 0.59913 0.50722 0.74736 0.0
H896 H 0.14202 0.21776 0.95977 0.0
H897 H 0.10704 0.0491 0.95483 0.0
H898 H 0.10227 0.04524 1.00218 0.0
H899 H 0.11029 0.08596 0.04504 0.0
H900 H 0.14592 0.25326 0.0523 0.0
H901 H 0.14781 0.26167 0.00416 0.0
C902 C 0.13311 0.18051 0.9691 0.0
C903 C 0.12522 0.13354 0.95364 0.0
C904 C 0.13061 0.17811 0.99679 0.0
C905 C 0.11369 0.08559 0.9661 0.0
C906 C 0.11086 0.08327 0.99328 0.0
C907 C 0.11842 0.12455 0.03623 0.0
C908 C 0.12821 0.16869 0.05234 0.0
C909 C 0.1197 0.12872 0.0088 0.0
C910 C 0.13825 0.21856 0.0404 0.0
C911 C 0.13944 0.22324 0.01285 0.0
H912 H 0.88931 0.99673 0.96303 0.0
H913 H 0.86211 0.8237 0.95362 0.0
H914 H 0.86051 0.81227 1.00164 0.0
H915 H 0.86442 0.85429 0.04662 0.0
H916 H 0.89106 1.02867 0.05365 0.0
H917 H 0.89516 0.03637 0.00638 0.0
C918 C 0.88307 0.95625 0.97132 0.0
C919 C 0.8756 0.91131 0.95462 0.0
C920 C 0.88193 0.9503 0.9987 0.0
C921 C 0.86797 0.85909 0.96595 0.0
C922 C 0.86694 0.85265 0.99344 0.0
C923 C 0.87132 0.89374 0.03777 0.0
C924 C 0.87714 0.94095 0.05388 0.0
C925 C 0.87351 0.89833 0.01009 0.0
C926 C 0.88608 0.99173 0.04197 0.0
C927 C 0.88852 0.9963 0.01481 0.0
H928 H 0.09789 0.95077 0.45951 0.0
H929 H 0.13888 0.78841 0.45624 0.0
H930 H 0.1401 0.78472 0.50457 0.0
H931 H 0.13276 0.8325 0.54785 0.0
H932 H 0.0935 0.99709 0.54871 0.0
H933 H 0.08847 0.99494 0.50125 0.0
C934 C 0.10702 0.91421 0.46922 0.0
C935 C 0.11855 0.87018 0.45418 0.0
C936 C 0.10814 0.91306 0.4967 0.0
C937 C 0.12984 0.82291 0.46729 0.0
C938 C 0.13068 0.82101 0.49494 0.0
C939 C 0.12284 0.86747 0.5376 0.0
C940 C 0.11377 0.91518 0.55187 0.0
C941 C 0.12039 0.8665 0.50989 0.0
C942 C 0.10101 0.96023 0.53829 0.0
C943 C 0.09805 0.95904 0.51109 0.0
H944 H 0.84899 0.1276 0.54269 0.0
H945 H 0.90073 0.27471 0.55625 0.0
H946 H 0.90442 0.29055 0.50857 0.0
H947 H 0.89556 0.25701 0.46244 0.0
H948 H 0.84294 0.10975 0.45122 0.0
H949 H 0.83669 0.10018 0.4983 0.0
C950 C 0.86106 0.16329 0.53528 0.0
C951 C 0.87497 0.19929 0.55298 0.0
C952 C 0.86287 0.1722 0.50809 0.0
C953 C 0.88995 0.24609 0.54301 0.0
C954 C 0.89209 0.25508 0.51573 0.0
C955 C 0.88233 0.22367 0.4704 0.0
C956 C 0.87001 0.18374 0.45332 0.0
C957 C 0.87898 0.21778 0.49796 0.0
C958 C 0.85297 0.14058 0.46392 0.0
C959 C 0.84938 0.13493 0.49089 0.0
H960 H 0.6141 0.58104 0.04538 0.0
H961 H 0.6468 0.75072 0.05247 0.0
H962 H 0.64787 0.7596 0.00432 0.0
H963 H 0.64226 0.7156 0.95992 0.0
H964 H 0.60984 0.54485 0.95515 0.0
H965 H 0.60597 0.54026 1.00254 0.0
C966 C 0.62144 0.62021 0.03652 0.0
C967 C 0.63067 0.66489 0.05258 0.0
C968 C 0.62217 0.62473 0.00908 0.0
C969 C 0.6396 0.71557 0.0406 0.0
C970 C 0.64031 0.72054 0.01305 0.0
C971 C 0.63409 0.67771 0.9693 0.0
C972 C 0.6267 0.6304 0.95384 0.0
C973 C 0.63205 0.67494 0.99702 0.0
C974 C 0.6161 0.58166 0.96638 0.0
C975 C 0.6138 0.5789 0.99359 0.0
H976 H 0.396 0.48322 0.96238 0.0
H977 H 0.36258 0.3148 0.95209 0.0
H978 H 0.36079 0.30232 1.00003 0.0
H979 H 0.3659 0.34283 0.04507 0.0
H980 H 0.39814 0.51313 0.05312 0.0
H981 H 0.40306 0.52111 0.00588 0.0
C982 C 0.38838 0.44351 0.97048 0.0
C983 C 0.37917 0.40023 0.95362 0.0
C984 C 0.38701 0.43713 0.99778 0.0
C985 C 0.36979 0.34888 0.96461 0.0
C986 C 0.36864 0.34187 0.99203 0.0
C987 C 0.37421 0.3814 0.03643 0.0
C988 C 0.38134 0.4275 0.05271 0.0
C989 C 0.37676 0.38619 0.00886 0.0
C990 C 0.3921 0.47721 0.04118 0.0
C991 C 0.39502 0.48188 0.01409 0.0
H992 H 0.60908 0.47856 0.45678 0.0
H993 H 0.62691 0.29983 0.45398 0.0
H994 H 0.62735 0.29578 0.50214 0.0
H995 H 0.62489 0.3448 0.54531 0.0
H996 H 0.6072 0.52404 0.54638 0.0
H997 H 0.6045 0.5257 0.49883 0.0
C998 C 0.61297 0.4385 0.46659 0.0
C999 C 0.61812 0.38967 0.45167 0.0
C1000 C 0.61333 0.43656 0.49415 0.0
C1001 C 0.62286 0.33817 0.46491 0.0
C1002 C 0.6232 0.33586 0.49249 0.0
C1003 C 0.62023 0.38405 0.53512 0.0
C1004 C 0.61651 0.43426 0.5496 0.0
C1005 C 0.61879 0.38502 0.50737 0.0
C1006 C 0.61045 0.48474 0.53596 0.0
C1007 C 0.60885 0.48587 0.50864 0.0
H1008 H 0.39044 0.58928 0.54586 0.0
H1009 H 0.3632 0.76303 0.54957 0.0
H1010 H 0.36253 0.76785 0.50133 0.0
H1011 H 0.36686 0.71981 0.45807 0.0
H1012 H 0.39305 0.54491 0.45628 0.0
H1013 H 0.39683 0.54364 0.50383 0.0
C1014 C 0.38441 0.62848 0.53625 0.0
C1015 C 0.3766 0.67557 0.55137 0.0
C1016 C 0.38372 0.6306 0.50877 0.0
C1017 C 0.36928 0.7261 0.53843 0.0
C1018 C 0.36878 0.72875 0.51084 0.0
C1019 C 0.37362 0.68163 0.4681 0.0
C1020 C 0.37943 0.63238 0.45351 0.0
C1021 C 0.37552 0.68087 0.49578 0.0
C1022 C 0.38816 0.58328 0.46688 0.0
C1023 C 0.39038 0.58245 0.49415 0.0
H1024 H 0.9688 0.94334 0.1367 0.0
H1025 H 0.93198 0.11021 0.13608 0.0
H1026 H 0.97911 0.1525 0.1359 0.0
H1027 H 0.03053 0.14153 0.13493 0.0
H1028 H 0.06675 0.974 0.13594 0.0
H1029 H 0.0197 0.93238 0.13693 0.0
C1030 C 0.97094 0.98904 0.13646 0.0
C1031 C 0.94685 1.02361 0.13617 0.0
C1032 C 0.99793 1.01283 0.13639 0.0
C1033 C 0.95015 0.08267 0.13627 0.0
C1034 C 0.97708 0.10681 0.13611 0.0
C1035 C 0.02819 0.09588 0.13534 0.0
C1036 C 0.05216 0.0609 0.13519 0.0
C1037 C 0.00109 0.07222 0.13599 0.0
C1038 C 0.0487 1.00189 0.136 0.0
C1039 C 0.0218 0.97806 0.13654 0.0
H1040 H 0.94456 1.0017 0.368 0.0
H1041 H 0.97773 0.16992 0.38086 0.0
H1042 H 0.02544 0.13419 0.37901 0.0
H1043 H 0.05806 0.05545 0.37476 0.0
H1044 H 0.02561 0.88653 0.36315 0.0
H1045 H 0.97753 0.92242 0.36333 0.0
C1046 C 0.96224 1.03044 0.37039 0.0
C1047 C 0.95748 0.08821 0.37467 0.0
C1048 C 0.98986 1.00967 0.36948 0.0
C1049 C 0.98065 0.12503 0.37772 0.0
C1050 C 0.00806 0.10479 0.37659 0.0
C1051 C 0.04049 1.02658 0.37206 0.0
C1052 C 0.04537 0.9686 0.36901 0.0
C1053 C 0.01292 0.04723 0.37258 0.0
C1054 C 0.02238 0.93152 0.3657 0.0
C1055 C 0.99486 0.95192 0.3658 0.0
H1056 H 0.03604 0.13087 0.87108 0.0
H1057 H 0.07031 0.96187 0.8694 0.0
H1058 H 0.0226 0.92241 0.8701 0.0
H1059 H 0.97138 0.93613 0.87198 0.0
H1060 H 0.93745 0.10549 0.87302 0.0
H1061 H 0.98509 0.14461 0.87183 0.0
C1062 C 0.0332 0.08532 0.87089 0.0
C1063 C 0.05681 0.04936 0.87036 0.0
C1064 C 0.00581 0.06305 0.87125 0.0
C1065 C 0.05257 0.99053 0.86981 0.0
C1066 C 0.02529 0.96796 0.87028 0.0
C1067 C 0.97434 0.98165 0.87202 0.0
C1068 C 0.9508 1.01783 0.87278 0.0
C1069 C 0.00178 1.00386 0.87115 0.0
C1070 C 0.95512 0.07665 0.87249 0.0
C1071 C 0.98237 0.09906 0.87182 0.0
H1072 H 0.97145 0.15191 0.63435 0.0
H1073 H 0.92795 0.99103 0.63442 0.0
H1074 H 0.97286 0.94155 0.63427 0.0
H1075 H 0.0243 0.94381 0.63381 0.0
H1076 H 0.06789 0.10458 0.63427 0.0
H1077 H 0.02296 0.15415 0.63455 0.0
C1078 C 0.97175 0.10603 0.6343 0.0
C1079 C 0.94637 0.07531 0.63432 0.0
C1080 C 0.99762 0.07777 0.63431 0.0
C1081 C 0.94717 1.01582 0.63444 0.0
C1082 C 0.97285 0.98741 0.63431 0.0
C1083 C 0.02402 0.9897 0.63393 0.0
C1084 C 0.04941 1.02036 0.63394 0.0
C1085 C 0.99817 1.01797 0.63419 0.0
C1086 C 0.04864 0.07984 0.63429 0.0
C1087 C 0.02297 0.10829 0.63442 0.0
H1088 H 0.47354 0.43119 0.13271 0.0
H1089 H 0.43482 0.59628 0.13411 0.0
H1090 H 0.48135 0.64083 0.13356 0.0
H1091 H 0.5328 0.63262 0.13244 0.0
H1092 H 0.57122 0.46715 0.13182 0.0
H1093 H 0.52471 0.42294 0.13226 0.0
C1094 C 0.47516 0.47697 0.13282 0.0
C1095 C 0.45068 0.51036 0.13332 0.0
C1096 C 0.50187 0.50217 0.13263 0.0
C1097 C 0.4533 0.56957 0.13375 0.0
C1098 C 0.47989 0.59506 0.13338 0.0
C1099 C 0.53106 0.58686 0.13231 0.0
C1100 C 0.55549 0.55324 0.13197 0.0
C1101 C 0.50429 0.56172 0.13276 0.0
C1102 C 0.55279 0.49404 0.13208 0.0
C1103 C 0.52621 0.46871 0.13231 0.0
H1104 H 0.46981 0.61802 0.37026 0.0
H1105 H 0.42804 0.45602 0.36332 0.0
H1106 H 0.47352 0.40872 0.36198 0.0
H1107 H 0.52482 0.41306 0.36404 0.0
H1108 H 0.56687 0.5748 0.37032 0.0
H1109 H 0.52133 0.62267 0.37043 0.0
C1110 C 0.47058 0.57235 0.36844 0.0
C1111 C 0.4455 0.54056 0.36722 0.0
C1112 C 0.49679 0.54544 0.36754 0.0
C1113 C 0.44697 0.48151 0.36452 0.0
C1114 C 0.47298 0.45439 0.36373 0.0
C1115 C 0.52409 0.45882 0.36545 0.0
C1116 C 0.54918 0.49032 0.36741 0.0
C1117 C 0.49796 0.48592 0.36547 0.0
C1118 C 0.54785 0.54959 0.36881 0.0
C1119 C 0.52184 0.57695 0.36895 0.0
H1120 H 0.47379 0.42977 0.86937 0.0
H1121 H 0.43875 0.59824 0.87046 0.0
H1122 H 0.48604 0.63866 0.86985 0.0
H1123 H 0.53707 0.62654 0.86992 0.0
H1124 H 0.57264 0.45867 0.86834 0.0
H1125 H 0.52524 0.41769 0.8681 0.0
C1126 C 0.47645 0.47536 0.86947 0.0
C1127 C 0.45265 0.51086 0.87012 0.0
C1128 C 0.50376 0.49844 0.86903 0.0
C1129 C 0.45659 0.56983 0.87 0.0
C1130 C 0.48366 0.59304 0.86968 0.0
C1131 C 0.53457 0.58092 0.86954 0.0
C1132 C 0.55846 0.54574 0.86933 0.0
C1133 C 0.50735 0.55776 0.86935 0.0
C1134 C 0.55467 0.48677 0.86852 0.0
C1135 C 0.52756 0.46332 0.86845 0.0
H1136 H 0.46938 0.65006 0.63531 0.0
H1137 H 0.42919 0.48573 0.63665 0.0
H1138 H 0.4752 0.44013 0.63669 0.0
H1139 H 0.52642 0.44692 0.63518 0.0
H1140 H 0.56679 0.61102 0.63409 0.0
H1141 H 0.52078 0.65685 0.6352 0.0
C1142 C 0.47062 0.60425 0.63561 0.0
C1143 C 0.44589 0.57135 0.63578 0.0
C1144 C 0.49707 0.57834 0.63564 0.0
C1145 C 0.44791 0.51207 0.63647 0.0
C1146 C 0.47418 0.48594 0.63645 0.0
C1147 C 0.52523 0.49275 0.63514 0.0
C1148 C 0.54997 0.52553 0.63434 0.0
C1149 C 0.49884 0.5187 0.63582 0.0
C1150 C 0.54804 0.58482 0.63466 0.0
C1151 C 0.52177 0.61104 0.63525 0.0
H1152 H 0.18039 0.71221 0.13412 0.0
H1153 H 0.09291 0.76119 0.13287 0.0
H1154 H 0.07867 0.66242 0.1377 0.0
H1155 H 0.09094 0.56208 0.14077 0.0
H1156 H 0.17835 0.51261 0.14239 0.0
H1157 H 0.1927 0.61154 0.13812 0.0
C1158 C 0.15821 0.70122 0.1348 0.0
C1159 C 0.13776 0.74407 0.13317 0.0
C1160 C 0.15014 0.64425 0.13735 0.0
C1161 C 0.1091 0.72918 0.13445 0.0
C1162 C 0.10093 0.67265 0.13701 0.0
C1163 C 0.11315 0.5729 0.14052 0.0
C1164 C 0.13351 0.52986 0.14188 0.0
C1165 C 0.12125 0.62985 0.13835 0.0
C1166 C 0.1622 0.54473 0.141 0.0
C1167 C 0.17044 0.60135 0.13875 0.0
H1168 H 0.82443 0.36684 0.13554 0.0
H1169 H 0.90471 0.32273 0.10184 0.0
H1170 H 0.91927 0.42185 0.10305 0.0
H1171 H 0.90955 0.52103 0.11436 0.0
H1172 H 0.82901 0.56493 0.14746 0.0
H1173 H 0.81397 0.4662 0.14507 0.0
C1174 C 0.84495 0.37889 0.12803 0.0
C1175 C 0.86344 0.33708 0.1187 0.0
C1176 C 0.85314 0.43606 0.12861 0.0
C1177 C 0.89016 0.3537 0.10952 0.0
C1178 C 0.89848 0.41048 0.11007 0.0
C1179 C 0.88874 0.50893 0.12112 0.0
C1180 C 0.87048 0.55036 0.13114 0.0
C1181 C 0.88024 0.45196 0.11979 0.0
C1182 C 0.8434 0.53408 0.13942 0.0
C1183 C 0.83484 0.47753 0.13821 0.0
H1184 H 0.17526 0.32391 0.37329 0.0
H1185 H 0.08756 0.27655 0.36824 0.0
H1186 H 0.07453 0.37547 0.36196 0.0
H1187 H 0.08779 0.47541 0.35986 0.0
H1188 H 0.17542 0.52344 0.36474 0.0
H1189 H 0.18868 0.42419 0.36993 0.0
C1190 C 0.1533 0.33532 0.37089 0.0
C1191 C 0.13241 0.293 0.37124 0.0
C1192 C 0.14592 0.39231 0.36757 0.0
C1193 C 0.10407 0.30826 0.36771 0.0
C1194 C 0.09658 0.36483 0.36433 0.0
C1195 C 0.10983 0.46418 0.36169 0.0
C1196 C 0.13057 0.50678 0.36192 0.0
C1197 C 0.11731 0.40718 0.36442 0.0
C1198 C 0.159 0.49152 0.36484 0.0
C1199 C 0.16662 0.43478 0.36764 0.0
H1200 H 0.92152 0.58857 0.36552 0.0
H1201 H 0.83444 0.53574 0.36349 0.0
H1202 H 0.81943 0.63418 0.36664 0.0
H1203 H 0.83098 0.73533 0.36975 0.0
H1204 H 0.91808 0.78798 0.372 0.0
H1205 H 0.93305 0.68972 0.3681 0.0
C1206 C 0.89925 0.59857 0.36548 0.0
C1207 C 0.87917 0.55465 0.36432 0.0
C1208 C 0.89073 0.65532 0.36712 0.0
C1209 C 0.85039 0.5685 0.36474 0.0
C1210 C 0.84176 0.62486 0.36636 0.0
C1211 C 0.85325 0.72533 0.36956 0.0
C1212 C 0.87334 0.76917 0.37116 0.0
C1213 C 0.86175 0.6686 0.36763 0.0
C1214 C 0.90212 0.75533 0.37044 0.0
C1215 C 0.91072 0.69904 0.36841 0.0
H1216 H 0.82237 0.37369 0.87478 0.0
H1217 H 0.90966 0.32411 0.87953 0.0
H1218 H 0.92423 0.42278 0.87536 0.0
H1219 H 0.9123 0.5233 0.87113 0.0
H1220 H 0.8251 0.57334 0.86658 0.0
H1221 H 0.81042 0.47453 0.87071 0.0
C1222 C 0.84458 0.38447 0.87513 0.0
C1223 C 0.86486 0.34132 0.87739 0.0
C1224 C 0.85285 0.44147 0.87298 0.0
C1225 C 0.89357 0.35618 0.8774 0.0
C1226 C 0.90195 0.41271 0.87521 0.0
C1227 C 0.89008 0.5126 0.8708 0.0
C1228 C 0.86986 0.55579 0.86851 0.0
C1229 C 0.88178 0.45568 0.87299 0.0
C1230 C 0.84113 0.54111 0.86863 0.0
C1231 C 0.83271 0.48455 0.87081 0.0
H1232 H 0.16279 0.51769 0.86905 0.0
H1233 H 0.07752 0.53402 0.89703 0.0
H1234 H 0.08435 0.63568 0.90264 0.0
H1235 H 0.1142 0.72056 0.89873 0.0
H1236 H 0.19929 0.70409 0.87022 0.0
H1237 H 0.19306 0.60204 0.8664 0.0
C1238 C 0.14581 0.54333 0.87672 0.0
C1239 C 0.11963 0.51812 0.88245 0.0
C1240 C 0.14986 0.6019 0.8799 0.0
C1241 C 0.09777 0.55231 0.89206 0.0
C1242 C 0.10168 0.61049 0.8954 0.0
C1243 C 0.13136 0.6947 0.89159 0.0
C1244 C 0.15719 0.72024 0.88483 0.0
C1245 C 0.12755 0.63588 0.88913 0.0
C1246 C 0.1793 0.68574 0.87596 0.0
C1247 C 0.1757 0.62728 0.87357 0.0
H1248 H 0.85311 0.74958 0.6634 0.0
H1249 H 0.86539 0.75136 0.57945 0.0
H1250 H 0.87652 0.65062 0.58034 0.0
H1251 H 0.88343 0.56148 0.60496 0.0
H1252 H 0.87114 0.55987 0.68892 0.0
H1253 H 0.85985 0.66049 0.68797 0.0
C1254 C 0.85845 0.72812 0.6453 0.0
C1255 C 0.85826 0.7585 0.62138 0.0
C1256 C 0.86494 0.66984 0.64593 0.0
C1257 C 0.86491 0.72932 0.59813 0.0
C1258 C 0.87145 0.67155 0.59862 0.0
C1259 C 0.87805 0.58296 0.62304 0.0
C1260 C 0.87835 0.55269 0.647 0.0
C1261 C 0.87148 0.64123 0.62239 0.0
C1262 C 0.87158 0.58186 0.67022 0.0
C1263 C 0.86496 0.63956 0.6697 0.0
H1264 H 0.10021 0.33297 0.62306 0.0
H1265 H 0.19025 0.35859 0.62371 0.0
H1266 H 0.18351 0.46052 0.62703 0.0
H1267 H 0.15213 0.54307 0.63108 0.0
H1268 H 0.06215 0.51715 0.63124 0.0
H1269 H 0.06888 0.41534 0.62682 0.0
C1270 C 0.11841 0.36068 0.62412 0.0
C1271 C 0.14573 0.33748 0.62299 0.0
C1272 C 0.11443 0.41964 0.62635 0.0
C1273 C 0.16895 0.37474 0.62404 0.0
C1274 C 0.16513 0.43328 0.62615 0.0
C1275 C 0.13398 0.51524 0.6299 0.0
C1276 C 0.10665 0.53816 0.63166 0.0
C1277 C 0.13798 0.45631 0.62738 0.0
C1278 C 0.08344 0.501 0.63036 0.0
C1279 C 0.08726 0.44259 0.6277 0.0
H1280 H 0.66386 1.02962 0.14436 0.0
H1281 H 0.57382 0.05211 0.13981 0.0
H1282 H 0.58016 0.15417 0.1357 0.0
H1283 H 0.61118 0.23733 0.13241 0.0
H1284 H 0.70124 0.21522 0.13697 0.0
H1285 H 0.69494 0.11312 0.14151 0.0
C1286 C 0.64563 0.05677 0.14226 0.0
C1287 C 0.61839 1.03289 0.1425 0.0
C1288 C 0.6494 0.11573 0.13978 0.0
C1289 C 0.59503 0.06909 0.14008 0.0
C1290 C 0.59862 0.1276 0.13758 0.0
C1291 C 0.62945 0.21033 0.13473 0.0
C1292 C 0.65666 0.23427 0.13427 0.0
C1293 C 0.6257 0.15145 0.13742 0.0
C1294 C 0.68004 0.19817 0.13689 0.0
C1295 C 0.67647 0.13966 0.13962 0.0
H1296 H 0.38421 0.82507 0.1521 0.0
H1297 H 0.33386 0.84169 0.08184 0.0
H1298 H 0.34216 0.94387 0.0815 0.0
H1299 H 0.36388 1.02876 0.10121 0.0
H1300 H 0.41395 1.01115 0.17165 0.0
H1301 H 0.40599 0.90921 0.17157 0.0
C1302 C 0.37535 0.8509 0.1365 0.0
C1303 C 0.3585 0.82562 0.11699 0.0
C1304 C 0.38018 0.90958 0.13643 0.0
C1305 C 0.34672 0.86004 0.09723 0.0
C1306 C 0.35153 0.91849 0.09698 0.0
C1307 C 0.37288 1.00264 0.11663 0.0
C1308 C 0.38963 1.02769 0.13631 0.0
C1309 C 0.36813 0.9438 0.11655 0.0
C1310 C 0.40136 0.99302 0.15601 0.0
C1311 C 0.3967 0.93467 0.15607 0.0
H1312 H 0.6208 1.003 0.40311 0.0
H1313 H 0.60424 0.99391 0.31982 0.0
H1314 H 0.61365 0.89259 0.32042 0.0
H1315 H 0.62683 0.80619 0.34435 0.0
H1316 H 0.64389 0.81448 0.42752 0.0
H1317 H 0.63449 0.91616 0.42709 0.0
C1318 C 0.61947 0.97896 0.38506 0.0
C1319 C 0.61157 1.00631 0.3615 0.0
C1320 C 0.62504 0.92035 0.38548 0.0
C1321 C 0.60974 0.97409 0.33835 0.0
C1322 C 0.61528 0.91604 0.33862 0.0
C1323 C 0.62822 0.83008 0.36246 0.0
C1324 C 0.636 0.80244 0.38595 0.0
C1325 C 0.62281 0.88862 0.36207 0.0
C1326 C 0.6382 0.83454 0.4091 0.0
C1327 C 0.63272 0.89275 0.40889 0.0
H1328 H 0.40601 0.05102 0.35396 0.0
H1329 H 0.3463 0.99781 0.41297 0.0
H1330 H 0.33335 0.09621 0.42069 0.0
H1331 H 0.33853 0.19747 0.41031 0.0
H1332 H 0.39862 0.25035 0.35162 0.0
H1333 H 0.41247 0.15216 0.3448 0.0
C1334 C 0.39046 0.06087 0.3688 0.0
C1335 C 0.3771 1.01682 0.38276 0.0
C1336 C 0.38328 0.11761 0.37333 0.0
C1337 C 0.35663 1.03063 0.40159 0.0
C1338 C 0.34932 0.08697 0.40616 0.0
C1339 C 0.35463 0.18747 0.39601 0.0
C1340 C 0.3675 0.23128 0.38152 0.0
C1341 C 0.36237 0.13079 0.39201 0.0
C1342 C 0.38861 0.21762 0.3633 0.0
C1343 C 0.39641 0.1614 0.35923 0.0
H1344 H 0.32341 0.86619 0.87806 0.0
H1345 H 0.41081 0.81663 0.87773 0.0
H1346 H 0.42511 0.9153 0.87278 0.0
H1347 H 0.41297 1.01569 0.86944 0.0
H1348 H 0.32566 0.06586 0.86945 0.0
H1349 H 0.31122 0.96709 0.87444 0.0
C1350 C 0.34559 0.87702 0.87707 0.0
C1351 C 0.36598 0.83394 0.87818 0.0
C1352 C 0.35371 0.93399 0.87442 0.0
C1353 C 0.39463 0.84874 0.87652 0.0
C1354 C 0.40286 0.90523 0.87388 0.0
C1355 C 0.39076 1.00506 0.87025 0.0
C1356 C 0.37046 0.04826 0.86904 0.0
C1357 C 0.38259 0.94818 0.87283 0.0
C1358 C 0.34178 1.03363 0.87066 0.0
C1359 C 0.33348 0.97708 0.87333 0.0
H1360 H 0.68281 0.19385 0.87703 0.0
H1361 H 0.59945 0.24024 0.90267 0.0
H1362 H 0.58481 0.14126 0.90115 0.0
H1363 H 0.59532 0.04153 0.89169 0.0
H1364 H 0.67893 0.99511 0.86701 0.0
H1365 H 0.69399 0.09384 0.86978 0.0
C1366 C 0.66156 0.18237 0.88273 0.0
C1367 C 0.64227 0.22482 0.8898 0.0
C1368 C 0.65331 0.12522 0.88207 0.0
C1369 C 0.61467 0.20883 0.89669 0.0
C1370 C 0.60629 0.1521 0.89598 0.0
C1371 C 0.61682 0.05308 0.88688 0.0
C1372 C 0.63592 1.01099 0.87905 0.0
C1373 C 0.62534 0.11 0.88845 0.0
C1374 C 0.66385 1.02653 0.87329 0.0
C1375 C 0.67244 0.08306 0.87472 0.0
H1376 H 0.37801 0.06837 0.66786 0.0
H1377 H 0.37069 0.03703 0.58462 0.0
H1378 H 0.35843 0.13598 0.57709 0.0
H1379 H 0.35085 0.2322 0.59391 0.0
H1380 H 0.35877 0.26378 0.67705 0.0
H1381 H 0.37044 0.16449 0.68467 0.0
C1382 C 0.374 0.08317 0.64802 0.0
C1383 C 0.3753 0.04489 0.62687 0.0
C1384 C 0.36725 0.14045 0.64375 0.0
C1385 C 0.36949 0.06503 0.60137 0.0
C1386 C 0.36266 0.12184 0.59699 0.0
C1387 C 0.35487 0.21731 0.61374 0.0
C1388 C 0.35394 0.25569 0.63486 0.0
C1389 C 0.36151 0.15998 0.61802 0.0
C1390 C 0.35967 0.23557 0.66036 0.0
C1391 C 0.3662 0.17862 0.66477 0.0
H1392 H 0.67303 0.87425 0.6232 0.0
H1393 H 0.58647 0.81856 0.6182 0.0
H1394 H 0.5706 0.91636 0.6204 0.0
H1395 H 0.58105 1.01808 0.62409 0.0
H1396 H 0.6675 0.07415 0.6277 0.0
H1397 H 0.68355 0.97619 0.62493 0.0
C1398 C 0.65069 0.88336 0.6222 0.0
C1399 C 0.63106 0.83852 0.62076 0.0
C1400 C 0.64162 0.94002 0.6231 0.0
C1401 C 0.60216 0.85171 0.61987 0.0
C1402 C 0.59301 0.90783 0.62093 0.0
C1403 C 0.60341 1.00885 0.62435 0.0
C1404 C 0.62301 0.05354 0.62618 0.0
C1405 C 0.61252 0.95233 0.62273 0.0
C1406 C 0.65193 0.04075 0.62607 0.0
C1407 C 0.66113 0.98465 0.62463 0.0
loop_
_geom_bond_atom_site_label_1
_geom_bond_atom_site_label_2
_geom_bond_distance
_geom_bond_site_symmetry_2
_ccdc_geom_bond_type
Tb0 C10 2.825 1_545 S
Tb0 O11 2.347 . S
Tb0 O14 2.366 . S
Tb0 O19 2.418 . S
Tb0 O20 2.384 . S
Tb0 O23 2.479 1_545 S
Tb0 O24 2.471 1_545 S
Eu1 O12 2.418 . S
Eu1 O13 2.384 . S
Eu1 O16 2.479 . S
Eu1 O17 2.471 . S
Eu1 O18 2.347 . S
Eu1 O21 2.366 . S
Eu1 C31 2.825 . S
C2 O18 1.259 . S
C2 O19 1.265 . S
C3 O20 1.255 . S
C3 O21 1.265 . S
C4 C6 1.380 . S
C4 C7 1.374 . S
C4 C10 1.507 . S
C5 C6 1.384 . S
C5 C9 1.387 . S
C5 H32 0.930 . S
C6 C4 1.380 . S
C6 C5 1.384 . S
C6 H33 0.931 . S
C7 C4 1.374 . S
C7 C8 1.390 . S
C7 H34 0.930 . S
C8 C7 1.390 . S
C8 C9 1.391 . S
C8 H35 0.930 . S
C9 C5 1.387 . S
C9 C8 1.391 . S
C10 Tb0 2.825 1_565 S
C10 C4 1.507 . S
C10 O23 1.238 . S
C10 O24 1.247 . S
O11 Tb0 2.347 . S
O11 C15 1.259 . S
O12 Eu1 2.418 . S
O12 C15 1.265 . S
O13 Eu1 2.384 . S
O13 C22 1.255 . S
O14 Tb0 2.366 . S
O14 C22 1.265 . S
C15 O11 1.259 . S
C15 O12 1.265 . S
O16 Eu1 2.479 . S
O16 C31 1.238 . S
O17 Eu1 2.471 . S
O17 C31 1.247 . S
O18 Eu1 2.347 . S
O18 C2 1.259 . S
O19 Tb0 2.418 . S
O19 C2 1.265 . S
O20 Tb0 2.384 . S
O20 C3 1.255 . S
O21 Eu1 2.366 . S
O21 C3 1.265 . S
C22 O13 1.255 . S
C22 O14 1.265 . S
O23 Tb0 2.479 1_565 S
O23 C10 1.238 . S
O24 Tb0 2.471 1_565 S
O24 C10 1.247 . S
C25 C28 1.380 . S
C25 C29 1.374 . S
C25 C31 1.507 . S
C26 C27 1.387 . S
C26 C30 1.391 . S
C27 C26 1.387 . S
C27 C28 1.384 . S
C27 H36 0.930 . S
C28 C25 1.380 . S
C28 C27 1.384 . S
C28 H37 0.931 . S
C29 C25 1.374 . S
C29 C30 1.390 . S
C29 H38 0.930 . S
C30 C26 1.391 . S
C30 C29 1.390 . S
C30 H39 0.930 . S
C31 Eu1 2.825 . S
C31 O16 1.238 . S
C31 O17 1.247 . S
C31 C25 1.507 . S
H32 C5 0.930 . S
H33 C6 0.931 . S
H34 C7 0.930 . S
H35 C8 0.930 . S
H36 C27 0.930 . S
H37 C28 0.931 . S
H38 C29 0.930 . S
H39 C30 0.930 . S
Tb40 C50 2.825 1_565 S
Tb40 O51 2.347 . S
Tb40 O54 2.366 . S
Tb40 O59 2.418 . S
Tb40 O60 2.384 . S
Tb40 O63 2.479 1_565 S
Tb40 O64 2.471 1_565 S
Eu41 O52 2.418 . S
Eu41 O53 2.384 . S
Eu41 O56 2.479 . S
Eu41 O57 2.471 . S
Eu41 O58 2.347 . S
Eu41 O61 2.366 . S
Eu41 C71 2.825 . S
C42 O58 1.259 . S
C42 O59 1.265 . S
C43 O60 1.255 . S
C43 O61 1.265 . S
C44 C46 1.380 . S
C44 C47 1.374 . S
C44 C50 1.507 . S
C45 C46 1.384 . S
C45 C49 1.387 . S
C45 H72 0.930 . S
C46 C44 1.380 . S
C46 C45 1.384 . S
C46 H73 0.931 . S
C47 C44 1.374 . S
C47 C48 1.390 . S
C47 H74 0.930 . S
C48 C47 1.390 . S
C48 C49 1.391 . S
C48 H75 0.930 . S
C49 C45 1.387 . S
C49 C48 1.391 . S
C50 Tb40 2.825 1_545 S
C50 C44 1.507 . S
C50 O63 1.238 . S
C50 O64 1.247 . S
O51 Tb40 2.347 . S
O51 C55 1.259 . S
O52 Eu41 2.418 . S
O52 C55 1.265 . S
O53 Eu41 2.384 . S
O53 C62 1.255 . S
O54 Tb40 2.366 . S
O54 C62 1.265 . S
C55 O51 1.259 . S
C55 O52 1.265 . S
O56 Eu41 2.479 . S
O56 C71 1.238 . S
O57 Eu41 2.471 . S
O57 C71 1.247 . S
O58 Eu41 2.347 . S
O58 C42 1.259 . S
O59 Tb40 2.418 . S
O59 C42 1.265 . S
O60 Tb40 2.384 . S
O60 C43 1.255 . S
O61 Eu41 2.366 . S
O61 C43 1.265 . S
C62 O53 1.255 . S
C62 O54 1.265 . S
O63 Tb40 2.479 1_545 S
O63 C50 1.238 . S
O64 Tb40 2.471 1_545 S
O64 C50 1.247 . S
C65 C68 1.380 . S
C65 C69 1.374 . S
C65 C71 1.507 . S
C66 C67 1.387 . S
C66 C70 1.391 . S
C67 C66 1.387 . S
C67 C68 1.384 . S
C67 H76 0.930 . S
C68 C65 1.380 . S
C68 C67 1.384 . S
C68 H77 0.931 . S
C69 C65 1.374 . S
C69 C70 1.390 . S
C69 H78 0.930 . S
C70 C66 1.391 . S
C70 C69 1.390 . S
C70 H79 0.930 . S
C71 Eu41 2.825 . S
C71 O56 1.238 . S
C71 O57 1.247 . S
C71 C65 1.507 . S
H72 C45 0.930 . S
H73 C46 0.931 . S
H74 C47 0.930 . S
H75 C48 0.930 . S
H76 C67 0.930 . S
H77 C68 0.931 . S
H78 C69 0.930 . S
H79 C70 0.930 . S
Tb80 C90 2.825 1_565 S
Tb80 O91 2.347 . S
Tb80 O94 2.366 . S
Tb80 O99 2.418 . S
Tb80 O100 2.384 . S
Tb80 O103 2.479 1_565 S
Tb80 O104 2.471 1_565 S
Eu81 O92 2.418 . S
Eu81 O93 2.384 . S
Eu81 O96 2.479 . S
Eu81 O97 2.471 . S
Eu81 O98 2.347 . S
Eu81 O101 2.366 . S
Eu81 C111 2.825 . S
C82 O98 1.259 . S
C82 O99 1.265 . S
C83 O100 1.255 . S
C83 O101 1.265 . S
C84 C86 1.380 . S
C84 C87 1.374 . S
C84 C90 1.507 . S
C85 C86 1.384 . S
C85 C89 1.387 . S
C85 H112 0.930 . S
C86 C84 1.380 . S
C86 C85 1.384 . S
C86 H113 0.931 . S
C87 C84 1.374 . S
C87 C88 1.390 . S
C87 H114 0.930 . S
C88 C87 1.390 . S
C88 C89 1.391 . S
C88 H115 0.930 . S
C89 C85 1.387 . S
C89 C88 1.391 . S
C90 Tb80 2.825 1_545 S
C90 C84 1.507 . S
C90 O103 1.238 . S
C90 O104 1.247 . S
O91 Tb80 2.347 . S
O91 C95 1.259 . S
O92 Eu81 2.418 . S
O92 C95 1.265 . S
O93 Eu81 2.384 . S
O93 C102 1.255 . S
O94 Tb80 2.366 . S
O94 C102 1.265 . S
C95 O91 1.259 . S
C95 O92 1.265 . S
O96 Eu81 2.479 . S
O96 C111 1.238 . S
O97 Eu81 2.471 . S
O97 C111 1.247 . S
O98 Eu81 2.347 . S
O98 C82 1.259 . S
O99 Tb80 2.418 . S
O99 C82 1.265 . S
O100 Tb80 2.384 . S
O100 C83 1.255 . S
O101 Eu81 2.366 . S
O101 C83 1.265 . S
C102 O93 1.255 . S
C102 O94 1.265 . S
O103 Tb80 2.479 1_545 S
O103 C90 1.238 . S
O104 Tb80 2.471 1_545 S
O104 C90 1.247 . S
C105 C108 1.380 . S
C105 C109 1.374 . S
C105 C111 1.507 . S
C106 C107 1.387 . S
C106 C110 1.391 . S
C107 C106 1.387 . S
C107 C108 1.384 . S
C107 H116 0.930 . S
C108 C105 1.380 . S
C108 C107 1.384 . S
C108 H117 0.931 . S
C109 C105 1.374 . S
C109 C110 1.390 . S
C109 H118 0.930 . S
C110 C106 1.391 . S
C110 C109 1.390 . S
C110 H119 0.930 . S
C111 Eu81 2.825 . S
C111 O96 1.238 . S
C111 O97 1.247 . S
C111 C105 1.507 . S
H112 C85 0.930 . S
H113 C86 0.931 . S
H114 C87 0.930 . S
H115 C88 0.930 . S
H116 C107 0.930 . S
H117 C108 0.931 . S
H118 C109 0.930 . S
H119 C110 0.930 . S
Tb120 C130 2.825 1_545 S
Tb120 O131 2.347 . S
Tb120 O134 2.366 . S
Tb120 O139 2.418 . S
Tb120 O140 2.384 . S
Tb120 O143 2.479 1_545 S
Tb120 O144 2.471 1_545 S
Eu121 O132 2.418 . S
Eu121 O133 2.384 . S
Eu121 O136 2.479 . S
Eu121 O137 2.471 . S
Eu121 O138 2.347 . S
Eu121 O141 2.366 . S
Eu121 C151 2.825 . S
C122 O138 1.259 . S
C122 O139 1.265 . S
C123 O140 1.255 . S
C123 O141 1.265 . S
C124 C126 1.380 . S
C124 C127 1.374 . S
C124 C130 1.507 . S
C125 C126 1.384 . S
C125 C129 1.387 . S
C125 H152 0.930 . S
C126 C124 1.380 . S
C126 C125 1.384 . S
C126 H153 0.931 . S
C127 C124 1.374 . S
C127 C128 1.390 . S
C127 H154 0.930 . S
C128 C127 1.390 . S
C128 C129 1.391 . S
C128 H155 0.930 . S
C129 C125 1.387 . S
C129 C128 1.391 . S
C130 Tb120 2.825 1_565 S
C130 C124 1.507 . S
C130 O143 1.238 . S
C130 O144 1.247 . S
O131 Tb120 2.347 . S
O131 C135 1.259 . S
O132 Eu121 2.418 . S
O132 C135 1.265 . S
O133 Eu121 2.384 . S
O133 C142 1.255 . S
O134 Tb120 2.366 . S
O134 C142 1.265 . S
C135 O131 1.259 . S
C135 O132 1.265 . S
O136 Eu121 2.479 . S
O136 C151 1.238 . S
O137 Eu121 2.471 . S
O137 C151 1.247 . S
O138 Eu121 2.347 . S
O138 C122 1.259 . S
O139 Tb120 2.418 . S
O139 C122 1.265 . S
O140 Tb120 2.384 . S
O140 C123 1.255 . S
O141 Eu121 2.366 . S
O141 C123 1.265 . S
C142 O133 1.255 . S
C142 O134 1.265 . S
O143 Tb120 2.479 1_565 S
O143 C130 1.238 . S
O144 Tb120 2.471 1_565 S
O144 C130 1.247 . S
C145 C148 1.380 . S
C145 C149 1.374 . S
C145 C151 1.507 . S
C146 C147 1.387 . S
C146 C150 1.391 . S
C147 C146 1.387 . S
C147 C148 1.384 . S
C147 H156 0.930 . S
C148 C145 1.380 . S
C148 C147 1.384 . S
C148 H157 0.931 . S
C149 C145 1.374 . S
C149 C150 1.390 . S
C149 H158 0.930 . S
C150 C146 1.391 . S
C150 C149 1.390 . S
C150 H159 0.930 . S
C151 Eu121 2.825 . S
C151 O136 1.238 . S
C151 O137 1.247 . S
C151 C145 1.507 . S
H152 C125 0.930 . S
H153 C126 0.931 . S
H154 C127 0.930 . S
H155 C128 0.930 . S
H156 C147 0.930 . S
H157 C148 0.931 . S
H158 C149 0.930 . S
H159 C150 0.930 . S
Tb160 C170 2.825 . S
Tb160 O171 2.347 . S
Tb160 O174 2.366 . S
Tb160 O179 2.418 . S
Tb160 O180 2.384 . S
Tb160 O183 2.479 . S
Tb160 O184 2.471 . S
Eu161 O172 2.418 . S
Eu161 O173 2.384 . S
Eu161 O176 2.479 1_565 S
Eu161 O177 2.471 1_565 S
Eu161 O178 2.347 . S
Eu161 O181 2.366 . S
Eu161 C191 2.825 1_565 S
C162 O178 1.259 . S
C162 O179 1.265 . S
C163 O180 1.255 . S
C163 O181 1.265 . S
C164 C166 1.380 . S
C164 C167 1.374 . S
C164 C170 1.507 . S
C165 C166 1.384 . S
C165 C169 1.387 . S
C165 H192 0.930 . S
C166 C164 1.380 . S
C166 C165 1.384 . S
C166 H193 0.931 . S
C167 C164 1.374 . S
C167 C168 1.390 . S
C167 H194 0.930 . S
C168 C167 1.390 . S
C168 C169 1.391 . S
C168 H195 0.930 . S
C169 C165 1.387 . S
C169 C168 1.391 . S
C170 Tb160 2.825 . S
C170 C164 1.507 . S
C170 O183 1.238 . S
C170 O184 1.247 . S
O171 Tb160 2.347 . S
O171 C175 1.259 . S
O172 Eu161 2.418 . S
O172 C175 1.265 . S
O173 Eu161 2.384 . S
O173 C182 1.255 . S
O174 Tb160 2.366 . S
O174 C182 1.265 . S
C175 O171 1.259 . S
C175 O172 1.265 . S
O176 Eu161 2.479 1_545 S
O176 C191 1.238 . S
O177 Eu161 2.471 1_545 S
O177 C191 1.247 . S
O178 Eu161 2.347 . S
O178 C162 1.259 . S
O179 Tb160 2.418 . S
O179 C162 1.265 . S
O180 Tb160 2.384 . S
O180 C163 1.255 . S
O181 Eu161 2.366 . S
O181 C163 1.265 . S
C182 O173 1.255 . S
C182 O174 1.265 . S
O183 Tb160 2.479 . S
O183 C170 1.238 . S
O184 Tb160 2.471 . S
O184 C170 1.247 . S
C185 C188 1.380 . S
C185 C189 1.374 . S
C185 C191 1.507 . S
C186 C187 1.387 . S
C186 C190 1.391 . S
C187 C186 1.387 . S
C187 C188 1.384 . S
C187 H196 0.930 . S
C188 C185 1.380 . S
C188 C187 1.384 . S
C188 H197 0.931 . S
C189 C185 1.374 . S
C189 C190 1.390 . S
C189 H198 0.930 . S
C190 C186 1.391 . S
C190 C189 1.390 . S
C190 H199 0.930 . S
C191 Eu161 2.825 1_545 S
C191 O176 1.238 . S
C191 O177 1.247 . S
C191 C185 1.507 . S
H192 C165 0.930 . S
H193 C166 0.931 . S
H194 C167 0.930 . S
H195 C168 0.930 . S
H196 C187 0.930 . S
H197 C188 0.931 . S
H198 C189 0.930 . S
H199 C190 0.930 . S
Tb200 C210 2.825 . S
Tb200 O211 2.347 . S
Tb200 O214 2.366 . S
Tb200 O219 2.418 . S
Tb200 O220 2.384 . S
Tb200 O223 2.479 . S
Tb200 O224 2.471 . S
Eu201 O212 2.418 . S
Eu201 O213 2.384 . S
Eu201 O216 2.479 1_545 S
Eu201 O217 2.471 1_545 S
Eu201 O218 2.347 . S
Eu201 O221 2.366 . S
Eu201 C231 2.825 1_545 S
C202 O218 1.259 . S
C202 O219 1.265 . S
C203 O220 1.255 . S
C203 O221 1.265 . S
C204 C206 1.380 . S
C204 C207 1.374 . S
C204 C210 1.507 . S
C205 C206 1.384 . S
C205 C209 1.387 . S
C205 H232 0.930 . S
C206 C204 1.380 . S
C206 C205 1.384 . S
C206 H233 0.931 . S
C207 C204 1.374 . S
C207 C208 1.390 . S
C207 H234 0.930 . S
C208 C207 1.390 . S
C208 C209 1.391 . S
C208 H235 0.930 . S
C209 C205 1.387 . S
C209 C208 1.391 . S
C210 Tb200 2.825 . S
C210 C204 1.507 . S
C210 O223 1.238 . S
C210 O224 1.247 . S
O211 Tb200 2.347 . S
O211 C215 1.259 . S
O212 Eu201 2.418 . S
O212 C215 1.265 . S
O213 Eu201 2.384 . S
O213 C222 1.255 . S
O214 Tb200 2.366 . S
O214 C222 1.265 . S
C215 O211 1.259 . S
C215 O212 1.265 . S
O216 Eu201 2.479 1_565 S
O216 C231 1.238 . S
O217 Eu201 2.471 1_565 S
O217 C231 1.247 . S
O218 Eu201 2.347 . S
O218 C202 1.259 . S
O219 Tb200 2.418 . S
O219 C202 1.265 . S
O220 Tb200 2.384 . S
O220 C203 1.255 . S
O221 Eu201 2.366 . S
O221 C203 1.265 . S
C222 O213 1.255 . S
C222 O214 1.265 . S
O223 Tb200 2.479 . S
O223 C210 1.238 . S
O224 Tb200 2.471 . S
O224 C210 1.247 . S
C225 C228 1.380 . S
C225 C229 1.374 . S
C225 C231 1.507 . S
C226 C227 1.387 . S
C226 C230 1.391 . S
C227 C226 1.387 . S
C227 C228 1.384 . S
C227 H236 0.930 . S
C228 C225 1.380 . S
C228 C227 1.384 . S
C228 H237 0.931 . S
C229 C225 1.374 . S
C229 C230 1.390 . S
C229 H238 0.930 . S
C230 C226 1.391 . S
C230 C229 1.390 . S
C230 H239 0.930 . S
C231 Eu201 2.825 1_565 S
C231 O216 1.238 . S
C231 O217 1.247 . S
C231 C225 1.507 . S
H232 C205 0.930 . S
H233 C206 0.931 . S
H234 C207 0.930 . S
H235 C208 0.930 . S
H236 C227 0.930 . S
H237 C228 0.931 . S
H238 C229 0.930 . S
H239 C230 0.930 . S
Tb240 C250 2.825 . S
Tb240 O251 2.347 . S
Tb240 O254 2.366 . S
Tb240 O259 2.418 . S
Tb240 O260 2.384 . S
Tb240 O263 2.479 . S
Tb240 O264 2.471 . S
Eu241 O252 2.418 . S
Eu241 O253 2.384 . S
Eu241 O256 2.479 1_545 S
Eu241 O257 2.471 1_545 S
Eu241 O258 2.347 . S
Eu241 O261 2.366 . S
Eu241 C271 2.825 1_545 S
C242 O258 1.259 . S
C242 O259 1.265 . S
C243 O260 1.255 . S
C243 O261 1.265 . S
C244 C246 1.380 . S
C244 C247 1.374 . S
C244 C250 1.507 . S
C245 C246 1.384 . S
C245 C249 1.387 . S
C245 H272 0.930 . S
C246 C244 1.380 . S
C246 C245 1.384 . S
C246 H273 0.931 . S
C247 C244 1.374 . S
C247 C248 1.390 . S
C247 H274 0.930 . S
C248 C247 1.390 . S
C248 C249 1.391 . S
C248 H275 0.930 . S
C249 C245 1.387 . S
C249 C248 1.391 . S
C250 Tb240 2.825 . S
C250 C244 1.507 . S
C250 O263 1.238 . S
C250 O264 1.247 . S
O251 Tb240 2.347 . S
O251 C255 1.259 . S
O252 Eu241 2.418 . S
O252 C255 1.265 . S
O253 Eu241 2.384 . S
O253 C262 1.255 . S
O254 Tb240 2.366 . S
O254 C262 1.265 . S
C255 O251 1.259 . S
C255 O252 1.265 . S
O256 Eu241 2.479 1_565 S
O256 C271 1.238 . S
O257 Eu241 2.471 1_565 S
O257 C271 1.247 . S
O258 Eu241 2.347 . S
O258 C242 1.259 . S
O259 Tb240 2.418 . S
O259 C242 1.265 . S
O260 Tb240 2.384 . S
O260 C243 1.255 . S
O261 Eu241 2.366 . S
O261 C243 1.265 . S
C262 O253 1.255 . S
C262 O254 1.265 . S
O263 Tb240 2.479 . S
O263 C250 1.238 . S
O264 Tb240 2.471 . S
O264 C250 1.247 . S
C265 C268 1.380 . S
C265 C269 1.374 . S
C265 C271 1.507 . S
C266 C267 1.387 . S
C266 C270 1.391 . S
C267 C266 1.387 . S
C267 C268 1.384 . S
C267 H276 0.930 . S
C268 C265 1.380 . S
C268 C267 1.384 . S
C268 H277 0.931 . S
C269 C265 1.374 . S
C269 C270 1.390 . S
C269 H278 0.930 . S
C270 C266 1.391 . S
C270 C269 1.390 . S
C270 H279 0.930 . S
C271 Eu241 2.825 1_565 S
C271 O256 1.238 . S
C271 O257 1.247 . S
C271 C265 1.507 . S
H272 C245 0.930 . S
H273 C246 0.931 . S
H274 C247 0.930 . S
H275 C248 0.930 . S
H276 C267 0.930 . S
H277 C268 0.931 . S
H278 C269 0.930 . S
H279 C270 0.930 . S
Tb280 C290 2.825 . S
Tb280 O291 2.347 . S
Tb280 O294 2.366 . S
Tb280 O299 2.418 . S
Tb280 O300 2.384 . S
Tb280 O303 2.479 . S
Tb280 O304 2.471 . S
Eu281 O292 2.418 . S
Eu281 O293 2.384 . S
Eu281 O296 2.479 1_565 S
Eu281 O297 2.471 1_565 S
Eu281 O298 2.347 . S
Eu281 O301 2.366 . S
Eu281 C311 2.825 1_565 S
C282 O298 1.259 . S
C282 O299 1.265 . S
C283 O300 1.255 . S
C283 O301 1.265 . S
C284 C286 1.380 . S
C284 C287 1.374 . S
C284 C290 1.507 . S
C285 C286 1.384 . S
C285 C289 1.387 . S
C285 H312 0.930 . S
C286 C284 1.380 . S
C286 C285 1.384 . S
C286 H313 0.931 . S
C287 C284 1.374 . S
C287 C288 1.390 . S
C287 H314 0.930 . S
C288 C287 1.390 . S
C288 C289 1.391 . S
C288 H315 0.930 . S
C289 C285 1.387 . S
C289 C288 1.391 . S
C290 Tb280 2.825 . S
C290 C284 1.507 . S
C290 O303 1.238 . S
C290 O304 1.247 . S
O291 Tb280 2.347 . S
O291 C295 1.259 . S
O292 Eu281 2.418 . S
O292 C295 1.265 . S
O293 Eu281 2.384 . S
O293 C302 1.255 . S
O294 Tb280 2.366 . S
O294 C302 1.265 . S
C295 O291 1.259 . S
C295 O292 1.265 . S
O296 Eu281 2.479 1_545 S
O296 C311 1.238 . S
O297 Eu281 2.471 1_545 S
O297 C311 1.247 . S
O298 Eu281 2.347 . S
O298 C282 1.259 . S
O299 Tb280 2.418 . S
O299 C282 1.265 . S
O300 Tb280 2.384 . S
O300 C283 1.255 . S
O301 Eu281 2.366 . S
O301 C283 1.265 . S
C302 O293 1.255 . S
C302 O294 1.265 . S
O303 Tb280 2.479 . S
O303 C290 1.238 . S
O304 Tb280 2.471 . S
O304 C290 1.247 . S
C305 C308 1.380 . S
C305 C309 1.374 . S
C305 C311 1.507 . S
C306 C307 1.387 . S
C306 C310 1.391 . S
C307 C306 1.387 . S
C307 C308 1.384 . S
C307 H316 0.930 . S
C308 C305 1.380 . S
C308 C307 1.384 . S
C308 H317 0.931 . S
C309 C305 1.374 . S
C309 C310 1.390 . S
C309 H318 0.930 . S
C310 C306 1.391 . S
C310 C309 1.390 . S
C310 H319 0.930 . S
C311 Eu281 2.825 1_545 S
C311 O296 1.238 . S
C311 O297 1.247 . S
C311 C305 1.507 . S
H312 C285 0.930 . S
H313 C286 0.931 . S
H314 C287 0.930 . S
H315 C288 0.930 . S
H316 C307 0.930 . S
H317 C308 0.931 . S
H318 C309 0.930 . S
H319 C310 0.930 . S
Tb320 C330 2.825 . S
Tb320 O331 2.347 . S
Tb320 O334 2.366 . S
Tb320 O339 2.418 . S
Tb320 O340 2.384 . S
Tb320 O343 2.479 . S
Tb320 O344 2.471 . S
Eu321 O332 2.418 . S
Eu321 O333 2.384 . S
Eu321 O336 2.479 . S
Eu321 O337 2.471 . S
Eu321 O338 2.347 . S
Eu321 O341 2.366 . S
Eu321 C351 2.825 . S
C322 O338 1.259 . S
C322 O339 1.265 . S
C323 O340 1.255 . S
C323 O341 1.265 . S
C324 C326 1.380 . S
C324 C327 1.374 . S
C324 C330 1.507 . S
C325 C326 1.384 . S
C325 C329 1.387 . S
C325 H352 0.930 . S
C326 C324 1.380 . S
C326 C325 1.384 . S
C326 H353 0.931 . S
C327 C324 1.374 . S
C327 C328 1.390 . S
C327 H354 0.930 . S
C328 C327 1.390 . S
C328 C329 1.391 . S
C328 H355 0.930 . S
C329 C325 1.387 . S
C329 C328 1.391 . S
C330 Tb320 2.825 . S
C330 C324 1.507 . S
C330 O343 1.238 . S
C330 O344 1.247 . S
O331 Tb320 2.347 . S
O331 C335 1.259 . S
O332 Eu321 2.418 . S
O332 C335 1.265 . S
O333 Eu321 2.384 . S
O333 C342 1.255 . S
O334 Tb320 2.366 . S
O334 C342 1.265 . S
C335 O331 1.259 . S
C335 O332 1.265 . S
O336 Eu321 2.479 . S
O336 C351 1.238 . S
O337 Eu321 2.471 . S
O337 C351 1.247 . S
O338 Eu321 2.347 . S
O338 C322 1.259 . S
O339 Tb320 2.418 . S
O339 C322 1.265 . S
O340 Tb320 2.384 . S
O340 C323 1.255 . S
O341 Eu321 2.366 . S
O341 C323 1.265 . S
C342 O333 1.255 . S
C342 O334 1.265 . S
O343 Tb320 2.479 . S
O343 C330 1.238 . S
O344 Tb320 2.471 . S
O344 C330 1.247 . S
C345 C348 1.380 . S
C345 C349 1.374 . S
C345 C351 1.507 . S
C346 C347 1.387 . S
C346 C350 1.391 . S
C347 C346 1.387 . S
C347 C348 1.384 . S
C347 H356 0.930 . S
C348 C345 1.380 . S
C348 C347 1.384 . S
C348 H357 0.931 . S
C349 C345 1.374 . S
C349 C350 1.390 . S
C349 H358 0.930 . S
C350 C346 1.391 . S
C350 C349 1.390 . S
C350 H359 0.930 . S
C351 Eu321 2.825 . S
C351 O336 1.238 . S
C351 O337 1.247 . S
C351 C345 1.507 . S
H352 C325 0.930 . S
H353 C326 0.931 . S
H354 C327 0.930 . S
H355 C328 0.930 . S
H356 C347 0.930 . S
H357 C348 0.931 . S
H358 C349 0.930 . S
H359 C350 0.930 . S
Tb360 C370 2.825 . S
Tb360 O371 2.347 . S
Tb360 O374 2.366 . S
Tb360 O379 2.418 . S
Tb360 O380 2.384 . S
Tb360 O383 2.479 . S
Tb360 O384 2.471 . S
Eu361 O372 2.418 . S
Eu361 O373 2.384 . S
Eu361 O376 2.479 . S
Eu361 O377 2.471 . S
Eu361 O378 2.347 . S
Eu361 O381 2.366 . S
Eu361 C391 2.825 . S
C362 O378 1.259 . S
C362 O379 1.265 . S
C363 O380 1.255 . S
C363 O381 1.265 . S
C364 C366 1.380 . S
C364 C367 1.374 . S
C364 C370 1.507 . S
C365 C366 1.384 . S
C365 C369 1.387 . S
C365 H392 0.930 . S
C366 C364 1.380 . S
C366 C365 1.384 . S
C366 H393 0.931 . S
C367 C364 1.374 . S
C367 C368 1.390 . S
C367 H394 0.930 . S
C368 C367 1.390 . S
C368 C369 1.391 . S
C368 H395 0.930 . S
C369 C365 1.387 . S
C369 C368 1.391 . S
C370 Tb360 2.825 . S
C370 C364 1.507 . S
C370 O383 1.238 . S
C370 O384 1.247 . S
O371 Tb360 2.347 . S
O371 C375 1.259 . S
O372 Eu361 2.418 . S
O372 C375 1.265 . S
O373 Eu361 2.384 . S
O373 C382 1.255 . S
O374 Tb360 2.366 . S
O374 C382 1.265 . S
C375 O371 1.259 . S
C375 O372 1.265 . S
O376 Eu361 2.479 . S
O376 C391 1.238 . S
O377 Eu361 2.471 . S
O377 C391 1.247 . S
O378 Eu361 2.347 . S
O378 C362 1.259 . S
O379 Tb360 2.418 . S
O379 C362 1.265 . S
O380 Tb360 2.384 . S
O380 C363 1.255 . S
O381 Eu361 2.366 . S
O381 C363 1.265 . S
C382 O373 1.255 . S
C382 O374 1.265 . S
O383 Tb360 2.479 . S
O383 C370 1.238 . S
O384 Tb360 2.471 . S
O384 C370 1.247 . S
C385 C388 1.380 . S
C385 C389 1.374 . S
C385 C391 1.507 . S
C386 C387 1.387 . S
C386 C390 1.391 . S
C387 C386 1.387 . S
C387 C388 1.384 . S
C387 H396 0.930 . S
C388 C385 1.380 . S
C388 C387 1.384 . S
C388 H397 0.931 . S
C389 C385 1.374 . S
C389 C390 1.390 . S
C389 H398 0.930 . S
C390 C386 1.391 . S
C390 C389 1.390 . S
C390 H399 0.930 . S
C391 Eu361 2.825 . S
C391 O376 1.238 . S
C391 O377 1.247 . S
C391 C385 1.507 . S
H392 C365 0.930 . S
H393 C366 0.931 . S
H394 C367 0.930 . S
H395 C368 0.930 . S
H396 C387 0.930 . S
H397 C388 0.931 . S
H398 C389 0.930 . S
H399 C390 0.930 . S
Tb400 C410 2.825 . S
Tb400 O411 2.347 . S
Tb400 O414 2.366 . S
Tb400 O419 2.418 . S
Tb400 O420 2.384 . S
Tb400 O423 2.479 . S
Tb400 O424 2.471 . S
Eu401 O412 2.418 . S
Eu401 O413 2.384 . S
Eu401 O416 2.479 . S
Eu401 O417 2.471 . S
Eu401 O418 2.347 . S
Eu401 O421 2.366 . S
Eu401 C431 2.825 . S
C402 O418 1.259 . S
C402 O419 1.265 . S
C403 O420 1.255 . S
C403 O421 1.265 . S
C404 C406 1.380 . S
C404 C407 1.374 . S
C404 C410 1.507 . S
C405 C406 1.384 . S
C405 C409 1.387 . S
C405 H432 0.930 . S
C406 C404 1.380 . S
C406 C405 1.384 . S
C406 H433 0.931 . S
C407 C404 1.374 . S
C407 C408 1.390 . S
C407 H434 0.930 . S
C408 C407 1.390 . S
C408 C409 1.391 . S
C408 H435 0.930 . S
C409 C405 1.387 . S
C409 C408 1.391 . S
C410 Tb400 2.825 . S
C410 C404 1.507 . S
C410 O423 1.238 . S
C410 O424 1.247 . S
O411 Tb400 2.347 . S
O411 C415 1.259 . S
O412 Eu401 2.418 . S
O412 C415 1.265 . S
O413 Eu401 2.384 . S
O413 C422 1.255 . S
O414 Tb400 2.366 . S
O414 C422 1.265 . S
C415 O411 1.259 . S
C415 O412 1.265 . S
O416 Eu401 2.479 . S
O416 C431 1.238 . S
O417 Eu401 2.471 . S
O417 C431 1.247 . S
O418 Eu401 2.347 . S
O418 C402 1.259 . S
O419 Tb400 2.418 . S
O419 C402 1.265 . S
O420 Tb400 2.384 . S
O420 C403 1.255 . S
O421 Eu401 2.366 . S
O421 C403 1.265 . S
C422 O413 1.255 . S
C422 O414 1.265 . S
O423 Tb400 2.479 . S
O423 C410 1.238 . S
O424 Tb400 2.471 . S
O424 C410 1.247 . S
C425 C428 1.380 . S
C425 C429 1.374 . S
C425 C431 1.507 . S
C426 C427 1.387 . S
C426 C430 1.391 . S
C427 C426 1.387 . S
C427 C428 1.384 . S
C427 H436 0.930 . S
C428 C425 1.380 . S
C428 C427 1.384 . S
C428 H437 0.931 . S
C429 C425 1.374 . S
C429 C430 1.390 . S
C429 H438 0.930 . S
C430 C426 1.391 . S
C430 C429 1.390 . S
C430 H439 0.930 . S
C431 Eu401 2.825 . S
C431 O416 1.238 . S
C431 O417 1.247 . S
C431 C425 1.507 . S
H432 C405 0.930 . S
H433 C406 0.931 . S
H434 C407 0.930 . S
H435 C408 0.930 . S
H436 C427 0.930 . S
H437 C428 0.931 . S
H438 C429 0.930 . S
H439 C430 0.930 . S
Tb440 C450 2.825 . S
Tb440 O451 2.347 . S
Tb440 O454 2.366 . S
Tb440 O459 2.418 . S
Tb440 O460 2.384 . S
Tb440 O463 2.479 . S
Tb440 O464 2.471 . S
Eu441 O452 2.418 . S
Eu441 O453 2.384 . S
Eu441 O456 2.479 . S
Eu441 O457 2.471 . S
Eu441 O458 2.347 . S
Eu441 O461 2.366 . S
Eu441 C471 2.825 . S
C442 O458 1.259 . S
C442 O459 1.265 . S
C443 O460 1.255 . S
C443 O461 1.265 . S
C444 C446 1.380 . S
C444 C447 1.374 . S
C444 C450 1.507 . S
C445 C446 1.384 . S
C445 C449 1.387 . S
C445 H472 0.930 . S
C446 C444 1.380 . S
C446 C445 1.384 . S
C446 H473 0.931 . S
C447 C444 1.374 . S
C447 C448 1.390 . S
C447 H474 0.930 . S
C448 C447 1.390 . S
C448 C449 1.391 . S
C448 H475 0.930 . S
C449 C445 1.387 . S
C449 C448 1.391 . S
C450 Tb440 2.825 . S
C450 C444 1.507 . S
C450 O463 1.238 . S
C450 O464 1.247 . S
O451 Tb440 2.347 . S
O451 C455 1.259 . S
O452 Eu441 2.418 . S
O452 C455 1.265 . S
O453 Eu441 2.384 . S
O453 C462 1.255 . S
O454 Tb440 2.366 . S
O454 C462 1.265 . S
C455 O451 1.259 . S
C455 O452 1.265 . S
O456 Eu441 2.479 . S
O456 C471 1.238 . S
O457 Eu441 2.471 . S
O457 C471 1.247 . S
O458 Eu441 2.347 . S
O458 C442 1.259 . S
O459 Tb440 2.418 . S
O459 C442 1.265 . S
O460 Tb440 2.384 . S
O460 C443 1.255 . S
O461 Eu441 2.366 . S
O461 C443 1.265 . S
C462 O453 1.255 . S
C462 O454 1.265 . S
O463 Tb440 2.479 . S
O463 C450 1.238 . S
O464 Tb440 2.471 . S
O464 C450 1.247 . S
C465 C468 1.380 . S
C465 C469 1.374 . S
C465 C471 1.507 . S
C466 C467 1.387 . S
C466 C470 1.391 . S
C467 C466 1.387 . S
C467 C468 1.384 . S
C467 H476 0.930 . S
C468 C465 1.380 . S
C468 C467 1.384 . S
C468 H477 0.931 . S
C469 C465 1.374 . S
C469 C470 1.390 . S
C469 H478 0.930 . S
C470 C466 1.391 . S
C470 C469 1.390 . S
C470 H479 0.930 . S
C471 Eu441 2.825 . S
C471 O456 1.238 . S
C471 O457 1.247 . S
C471 C465 1.507 . S
H472 C445 0.930 . S
H473 C446 0.931 . S
H474 C447 0.930 . S
H475 C448 0.930 . S
H476 C467 0.930 . S
H477 C468 0.931 . S
H478 C469 0.930 . S
H479 C470 0.930 . S
Tb480 C490 2.825 . S
Tb480 O491 2.347 . S
Tb480 O494 2.366 . S
Tb480 O499 2.418 . S
Tb480 O500 2.384 . S
Tb480 O503 2.479 . S
Tb480 O504 2.471 . S
Eu481 O492 2.418 . S
Eu481 O493 2.384 . S
Eu481 O496 2.479 . S
Eu481 O497 2.471 . S
Eu481 O498 2.347 . S
Eu481 O501 2.366 . S
Eu481 C511 2.825 . S
C482 O498 1.259 . S
C482 O499 1.265 . S
C483 O500 1.255 . S
C483 O501 1.265 . S
C484 C486 1.380 . S
C484 C487 1.374 . S
C484 C490 1.507 . S
C485 C486 1.384 . S
C485 C489 1.387 . S
C485 H512 0.930 . S
C486 C484 1.380 . S
C486 C485 1.384 . S
C486 H513 0.931 . S
C487 C484 1.374 . S
C487 C488 1.390 . S
C487 H514 0.930 . S
C488 C487 1.390 . S
C488 C489 1.391 . S
C488 H515 0.930 . S
C489 C485 1.387 . S
C489 C488 1.391 . S
C490 Tb480 2.825 . S
C490 C484 1.507 . S
C490 O503 1.238 . S
C490 O504 1.247 . S
O491 Tb480 2.347 . S
O491 C495 1.259 . S
O492 Eu481 2.418 . S
O492 C495 1.265 . S
O493 Eu481 2.384 . S
O493 C502 1.255 . S
O494 Tb480 2.366 . S
O494 C502 1.265 . S
C495 O491 1.259 . S
C495 O492 1.265 . S
O496 Eu481 2.479 . S
O496 C511 1.238 . S
O497 Eu481 2.471 . S
O497 C511 1.247 . S
O498 Eu481 2.347 . S
O498 C482 1.259 . S
O499 Tb480 2.418 . S
O499 C482 1.265 . S
O500 Tb480 2.384 . S
O500 C483 1.255 . S
O501 Eu481 2.366 . S
O501 C483 1.265 . S
C502 O493 1.255 . S
C502 O494 1.265 . S
O503 Tb480 2.479 . S
O503 C490 1.238 . S
O504 Tb480 2.471 . S
O504 C490 1.247 . S
C505 C508 1.380 . S
C505 C509 1.374 . S
C505 C511 1.507 . S
C506 C507 1.387 . S
C506 C510 1.391 . S
C507 C506 1.387 . S
C507 C508 1.384 . S
C507 H516 0.930 . S
C508 C505 1.380 . S
C508 C507 1.384 . S
C508 H517 0.931 . S
C509 C505 1.374 . S
C509 C510 1.390 . S
C509 H518 0.930 . S
C510 C506 1.391 . S
C510 C509 1.390 . S
C510 H519 0.930 . S
C511 Eu481 2.825 . S
C511 O496 1.238 . S
C511 O497 1.247 . S
C511 C505 1.507 . S
H512 C485 0.930 . S
H513 C486 0.931 . S
H514 C487 0.930 . S
H515 C488 0.930 . S
H516 C507 0.930 . S
H517 C508 0.931 . S
H518 C509 0.930 . S
H519 C510 0.930 . S
Tb520 C530 2.825 . S
Tb520 O531 2.347 . S
Tb520 O534 2.366 . S
Tb520 O539 2.418 . S
Tb520 O540 2.384 . S
Tb520 O543 2.479 . S
Tb520 O544 2.471 . S
Eu521 O532 2.418 . S
Eu521 O533 2.384 . S
Eu521 O536 2.479 . S
Eu521 O537 2.471 . S
Eu521 O538 2.347 . S
Eu521 O541 2.366 . S
Eu521 C551 2.825 . S
C522 O538 1.259 . S
C522 O539 1.265 . S
C523 O540 1.255 . S
C523 O541 1.265 . S
C524 C526 1.380 . S
C524 C527 1.374 . S
C524 C530 1.507 . S
C525 C526 1.384 . S
C525 C529 1.387 . S
C525 H552 0.930 . S
C526 C524 1.380 . S
C526 C525 1.384 . S
C526 H553 0.931 . S
C527 C524 1.374 . S
C527 C528 1.390 . S
C527 H554 0.930 . S
C528 C527 1.390 . S
C528 C529 1.391 . S
C528 H555 0.930 . S
C529 C525 1.387 . S
C529 C528 1.391 . S
C530 Tb520 2.825 . S
C530 C524 1.507 . S
C530 O543 1.238 . S
C530 O544 1.247 . S
O531 Tb520 2.347 . S
O531 C535 1.259 . S
O532 Eu521 2.418 . S
O532 C535 1.265 . S
O533 Eu521 2.384 . S
O533 C542 1.255 . S
O534 Tb520 2.366 . S
O534 C542 1.265 . S
C535 O531 1.259 . S
C535 O532 1.265 . S
O536 Eu521 2.479 . S
O536 C551 1.238 . S
O537 Eu521 2.471 . S
O537 C551 1.247 . S
O538 Eu521 2.347 . S
O538 C522 1.259 . S
O539 Tb520 2.418 . S
O539 C522 1.265 . S
O540 Tb520 2.384 . S
O540 C523 1.255 . S
O541 Eu521 2.366 . S
O541 C523 1.265 . S
C542 O533 1.255 . S
C542 O534 1.265 . S
O543 Tb520 2.479 . S
O543 C530 1.238 . S
O544 Tb520 2.471 . S
O544 C530 1.247 . S
C545 C548 1.380 . S
C545 C549 1.374 . S
C545 C551 1.507 . S
C546 C547 1.387 . S
C546 C550 1.391 . S
C547 C546 1.387 . S
C547 C548 1.384 . S
C547 H556 0.930 . S
C548 C545 1.380 . S
C548 C547 1.384 . S
C548 H557 0.931 . S
C549 C545 1.374 . S
C549 C550 1.390 . S
C549 H558 0.930 . S
C550 C546 1.391 . S
C550 C549 1.390 . S
C550 H559 0.930 . S
C551 Eu521 2.825 . S
C551 O536 1.238 . S
C551 O537 1.247 . S
C551 C545 1.507 . S
H552 C525 0.930 . S
H553 C526 0.931 . S
H554 C527 0.930 . S
H555 C528 0.930 . S
H556 C547 0.930 . S
H557 C548 0.931 . S
H558 C549 0.930 . S
H559 C550 0.930 . S
Tb560 C570 2.825 . S
Tb560 O571 2.347 . S
Tb560 O574 2.366 . S
Tb560 O579 2.418 . S
Tb560 O580 2.384 . S
Tb560 O583 2.479 . S
Tb560 O584 2.471 . S
Eu561 O572 2.418 . S
Eu561 O573 2.384 . S
Eu561 O576 2.479 . S
Eu561 O577 2.471 . S
Eu561 O578 2.347 . S
Eu561 O581 2.366 . S
Eu561 C591 2.825 . S
C562 O578 1.259 . S
C562 O579 1.265 . S
C563 O580 1.255 . S
C563 O581 1.265 . S
C564 C566 1.380 . S
C564 C567 1.374 . S
C564 C570 1.507 . S
C565 C566 1.384 . S
C565 C569 1.387 . S
C565 H592 0.930 . S
C566 C564 1.380 . S
C566 C565 1.384 . S
C566 H593 0.931 . S
C567 C564 1.374 . S
C567 C568 1.390 . S
C567 H594 0.930 . S
C568 C567 1.390 . S
C568 C569 1.391 . S
C568 H595 0.930 . S
C569 C565 1.387 . S
C569 C568 1.391 . S
C570 Tb560 2.825 . S
C570 C564 1.507 . S
C570 O583 1.238 . S
C570 O584 1.247 . S
O571 Tb560 2.347 . S
O571 C575 1.259 . S
O572 Eu561 2.418 . S
O572 C575 1.265 . S
O573 Eu561 2.384 . S
O573 C582 1.255 . S
O574 Tb560 2.366 . S
O574 C582 1.265 . S
C575 O571 1.259 . S
C575 O572 1.265 . S
O576 Eu561 2.479 . S
O576 C591 1.238 . S
O577 Eu561 2.471 . S
O577 C591 1.247 . S
O578 Eu561 2.347 . S
O578 C562 1.259 . S
O579 Tb560 2.418 . S
O579 C562 1.265 . S
O580 Tb560 2.384 . S
O580 C563 1.255 . S
O581 Eu561 2.366 . S
O581 C563 1.265 . S
C582 O573 1.255 . S
C582 O574 1.265 . S
O583 Tb560 2.479 . S
O583 C570 1.238 . S
O584 Tb560 2.471 . S
O584 C570 1.247 . S
C585 C588 1.380 . S
C585 C589 1.374 . S
C585 C591 1.507 . S
C586 C587 1.387 . S
C586 C590 1.391 . S
C587 C586 1.387 . S
C587 C588 1.384 . S
C587 H596 0.930 . S
C588 C585 1.380 . S
C588 C587 1.384 . S
C588 H597 0.931 . S
C589 C585 1.374 . S
C589 C590 1.390 . S
C589 H598 0.930 . S
C590 C586 1.391 . S
C590 C589 1.390 . S
C590 H599 0.930 . S
C591 Eu561 2.825 . S
C591 O576 1.238 . S
C591 O577 1.247 . S
C591 C585 1.507 . S
H592 C565 0.930 . S
H593 C566 0.931 . S
H594 C567 0.930 . S
H595 C568 0.930 . S
H596 C587 0.930 . S
H597 C588 0.931 . S
H598 C589 0.930 . S
H599 C590 0.930 . S
Tb600 C610 2.825 . S
Tb600 O611 2.347 . S
Tb600 O614 2.366 . S
Tb600 O619 2.418 . S
Tb600 O620 2.384 . S
Tb600 O623 2.479 . S
Tb600 O624 2.471 . S
Eu601 O612 2.418 . S
Eu601 O613 2.384 . S
Eu601 O616 2.479 . S
Eu601 O617 2.471 . S
Eu601 O618 2.347 . S
Eu601 O621 2.366 . S
Eu601 C631 2.825 . S
C602 O618 1.259 . S
C602 O619 1.265 . S
C603 O620 1.255 . S
C603 O621 1.265 . S
C604 C606 1.380 . S
C604 C607 1.374 . S
C604 C610 1.507 . S
C605 C606 1.384 . S
C605 C609 1.387 . S
C605 H632 0.930 . S
C606 C604 1.380 . S
C606 C605 1.384 . S
C606 H633 0.931 . S
C607 C604 1.374 . S
C607 C608 1.390 . S
C607 H634 0.930 . S
C608 C607 1.390 . S
C608 C609 1.391 . S
C608 H635 0.930 . S
C609 C605 1.387 . S
C609 C608 1.391 . S
C610 Tb600 2.825 . S
C610 C604 1.507 . S
C610 O623 1.238 . S
C610 O624 1.247 . S
O611 Tb600 2.347 . S
O611 C615 1.259 . S
O612 Eu601 2.418 . S
O612 C615 1.265 . S
O613 Eu601 2.384 . S
O613 C622 1.255 . S
O614 Tb600 2.366 . S
O614 C622 1.265 . S
C615 O611 1.259 . S
C615 O612 1.265 . S
O616 Eu601 2.479 . S
O616 C631 1.238 . S
O617 Eu601 2.471 . S
O617 C631 1.247 . S
O618 Eu601 2.347 . S
O618 C602 1.259 . S
O619 Tb600 2.418 . S
O619 C602 1.265 . S
O620 Tb600 2.384 . S
O620 C603 1.255 . S
O621 Eu601 2.366 . S
O621 C603 1.265 . S
C622 O613 1.255 . S
C622 O614 1.265 . S
O623 Tb600 2.479 . S
O623 C610 1.238 . S
O624 Tb600 2.471 . S
O624 C610 1.247 . S
C625 C628 1.380 . S
C625 C629 1.374 . S
C625 C631 1.507 . S
C626 C627 1.387 . S
C626 C630 1.391 . S
C627 C626 1.387 . S
C627 C628 1.384 . S
C627 H636 0.930 . S
C628 C625 1.380 . S
C628 C627 1.384 . S
C628 H637 0.931 . S
C629 C625 1.374 . S
C629 C630 1.390 . S
C629 H638 0.930 . S
C630 C626 1.391 . S
C630 C629 1.390 . S
C630 H639 0.930 . S
C631 Eu601 2.825 . S
C631 O616 1.238 . S
C631 O617 1.247 . S
C631 C625 1.507 . S
H632 C605 0.930 . S
H633 C606 0.931 . S
H634 C607 0.930 . S
H635 C608 0.930 . S
H636 C627 0.930 . S
H637 C628 0.931 . S
H638 C629 0.930 . S
H639 C630 0.930 . S
H640 C646 0.930 . S
H641 C649 0.930 . S
H642 C650 0.930 . S
H643 C651 0.930 . S
H644 C654 0.930 . S
H645 C655 0.930 . S
C646 H640 0.930 . S
C646 C647 1.355 . S
C646 C648 1.415 . S
C647 C646 1.355 . S
C647 C649 1.419 . S
C648 C646 1.415 . S
C648 C653 1.425 . S
C648 C655 1.409 . S
C649 H641 0.930 . S
C649 C647 1.419 . S
C649 C650 1.362 . S
C650 H642 0.930 . S
C650 C649 1.362 . S
C650 C653 1.409 . S
C651 H643 0.930 . S
C651 C652 1.355 . S
C651 C653 1.415 . S
C652 C651 1.355 . S
C652 C654 1.419 . S
C653 C648 1.425 . S
C653 C650 1.409 . S
C653 C651 1.415 . S
C654 H644 0.930 . S
C654 C652 1.419 . S
C654 C655 1.362 . S
C655 H645 0.930 . S
C655 C648 1.409 . S
C655 C654 1.362 . S
H656 C662 0.930 . S
H657 C665 0.930 . S
H658 C666 0.930 . S
H659 C667 0.930 . S
H660 C670 0.930 . S
H661 C671 0.930 . S
C662 H656 0.930 . S
C662 C663 1.355 . S
C662 C664 1.415 . S
C663 C662 1.355 . S
C663 C665 1.419 . S
C664 C662 1.415 . S
C664 C669 1.425 . S
C664 C671 1.409 . S
C665 H657 0.930 . S
C665 C663 1.419 . S
C665 C666 1.362 . S
C666 H658 0.930 . S
C666 C665 1.362 . S
C666 C669 1.409 . S
C667 H659 0.930 . S
C667 C668 1.355 . S
C667 C669 1.415 . S
C668 C667 1.355 . S
C668 C670 1.419 . S
C669 C664 1.425 . S
C669 C666 1.409 . S
C669 C667 1.415 . S
C670 H660 0.930 . S
C670 C668 1.419 . S
C670 C671 1.362 . S
C671 H661 0.930 . S
C671 C664 1.409 . S
C671 C670 1.362 . S
H672 C678 0.930 . S
H673 C681 0.930 . S
H674 C682 0.930 . S
H675 C683 0.930 . S
H676 C686 0.930 . S
H677 C687 0.930 . S
C678 H672 0.930 . S
C678 C679 1.355 . S
C678 C680 1.415 . S
C679 C678 1.355 . S
C679 C681 1.419 . S
C680 C678 1.415 . S
C680 C685 1.425 . S
C680 C687 1.409 . S
C681 H673 0.930 . S
C681 C679 1.419 . S
C681 C682 1.362 . S
C682 H674 0.930 . S
C682 C681 1.362 . S
C682 C685 1.409 . S
C683 H675 0.930 . S
C683 C684 1.355 . S
C683 C685 1.415 . S
C684 C683 1.355 . S
C684 C686 1.419 . S
C685 C680 1.425 . S
C685 C682 1.409 . S
C685 C683 1.415 . S
C686 H676 0.930 . S
C686 C684 1.419 . S
C686 C687 1.362 . S
C687 H677 0.930 . S
C687 C680 1.409 . S
C687 C686 1.362 . S
H688 C694 0.930 . S
H689 C697 0.930 . S
H690 C698 0.930 . S
H691 C699 0.930 . S
H692 C702 0.930 . S
H693 C703 0.930 . S
C694 H688 0.930 . S
C694 C695 1.355 . S
C694 C696 1.415 . S
C695 C694 1.355 . S
C695 C697 1.419 . S
C696 C694 1.415 . S
C696 C701 1.425 . S
C696 C703 1.409 . S
C697 H689 0.930 . S
C697 C695 1.419 . S
C697 C698 1.362 . S
C698 H690 0.930 . S
C698 C697 1.362 . S
C698 C701 1.409 . S
C699 H691 0.930 . S
C699 C700 1.355 . S
C699 C701 1.415 . S
C700 C699 1.355 . S
C700 C702 1.419 . S
C701 C696 1.425 . S
C701 C698 1.409 . S
C701 C699 1.415 . S
C702 H692 0.930 . S
C702 C700 1.419 . S
C702 C703 1.362 . S
C703 H693 0.930 . S
C703 C696 1.409 . S
C703 C702 1.362 . S
H704 C710 0.930 . S
H705 C713 0.930 . S
H706 C714 0.930 . S
H707 C715 0.930 . S
H708 C718 0.930 . S
H709 C719 0.930 . S
C710 H704 0.930 . S
C710 C711 1.355 . S
C710 C712 1.415 . S
C711 C710 1.355 . S
C711 C713 1.419 . S
C712 C710 1.415 . S
C712 C717 1.425 . S
C712 C719 1.409 . S
C713 H705 0.930 . S
C713 C711 1.419 . S
C713 C714 1.362 . S
C714 H706 0.930 . S
C714 C713 1.362 . S
C714 C717 1.409 . S
C715 H707 0.930 . S
C715 C716 1.355 . S
C715 C717 1.415 . S
C716 C715 1.355 . S
C716 C718 1.419 . S
C717 C712 1.425 . S
C717 C714 1.409 . S
C717 C715 1.415 . S
C718 H708 0.930 . S
C718 C716 1.419 . S
C718 C719 1.362 . S
C719 H709 0.930 . S
C719 C712 1.409 . S
C719 C718 1.362 . S
H720 C726 0.930 . S
H721 C729 0.930 . S
H722 C730 0.930 . S
H723 C731 0.930 . S
H724 C734 0.930 . S
H725 C735 0.930 . S
C726 H720 0.930 . S
C726 C727 1.355 . S
C726 C728 1.415 . S
C727 C726 1.355 . S
C727 C729 1.419 . S
C728 C726 1.415 . S
C728 C733 1.425 . S
C728 C735 1.409 . S
C729 H721 0.930 . S
C729 C727 1.419 . S
C729 C730 1.362 . S
C730 H722 0.930 . S
C730 C729 1.362 . S
C730 C733 1.409 . S
C731 H723 0.930 . S
C731 C732 1.355 . S
C731 C733 1.415 . S
C732 C731 1.355 . S
C732 C734 1.419 . S
C733 C728 1.425 . S
C733 C730 1.409 . S
C733 C731 1.415 . S
C734 H724 0.930 . S
C734 C732 1.419 . S
C734 C735 1.362 . S
C735 H725 0.930 . S
C735 C728 1.409 . S
C735 C734 1.362 . S
H736 C742 0.930 . S
H737 C745 0.930 . S
H738 C746 0.930 . S
H739 C747 0.930 . S
H740 C750 0.930 . S
H741 C751 0.930 . S
C742 H736 0.930 . S
C742 C743 1.355 . S
C742 C744 1.415 . S
C743 C742 1.355 . S
C743 C745 1.419 . S
C744 C742 1.415 . S
C744 C749 1.425 . S
C744 C751 1.409 . S
C745 H737 0.930 . S
C745 C743 1.419 . S
C745 C746 1.362 . S
C746 H738 0.930 . S
C746 C745 1.362 . S
C746 C749 1.409 . S
C747 H739 0.930 . S
C747 C748 1.355 . S
C747 C749 1.415 . S
C748 C747 1.355 . S
C748 C750 1.419 . S
C749 C744 1.425 . S
C749 C746 1.409 . S
C749 C747 1.415 . S
C750 H740 0.930 . S
C750 C748 1.419 . S
C750 C751 1.362 . S
C751 H741 0.930 . S
C751 C744 1.409 . S
C751 C750 1.362 . S
H752 C758 0.930 . S
H753 C761 0.930 . S
H754 C762 0.930 . S
H755 C763 0.930 . S
H756 C766 0.930 . S
H757 C767 0.930 . S
C758 H752 0.930 . S
C758 C759 1.355 . S
C758 C760 1.415 . S
C759 C758 1.355 . S
C759 C761 1.419 . S
C760 C758 1.415 . S
C760 C765 1.425 . S
C760 C767 1.409 . S
C761 H753 0.930 . S
C761 C759 1.419 . S
C761 C762 1.362 . S
C762 H754 0.930 . S
C762 C761 1.362 . S
C762 C765 1.409 . S
C763 H755 0.930 . S
C763 C764 1.355 . S
C763 C765 1.415 . S
C764 C763 1.355 . S
C764 C766 1.419 . S
C765 C760 1.425 . S
C765 C762 1.409 . S
C765 C763 1.415 . S
C766 H756 0.930 . S
C766 C764 1.419 . S
C766 C767 1.362 . S
C767 H757 0.930 . S
C767 C760 1.409 . S
C767 C766 1.362 . S
H768 C774 0.930 1_545 S
H769 C777 0.930 . S
H770 C778 0.930 . S
H771 C779 0.930 1_565 S
H772 C782 0.930 . S
H773 C783 0.930 . S
C774 H768 0.930 1_565 S
C774 C775 1.355 . S
C774 C776 1.415 1_565 S
C775 C774 1.355 . S
C775 C777 1.419 . S
C776 C774 1.415 1_545 S
C776 C781 1.425 1_545 S
C776 C783 1.409 . S
C777 H769 0.930 . S
C777 C775 1.419 . S
C777 C778 1.362 . S
C778 H770 0.930 . S
C778 C777 1.362 . S
C778 C781 1.409 . S
C779 H771 0.930 1_545 S
C779 C780 1.355 . S
C779 C781 1.415 1_545 S
C780 C779 1.355 . S
C780 C782 1.419 . S
C781 C776 1.425 1_565 S
C781 C778 1.409 . S
C781 C779 1.415 1_565 S
C782 H772 0.930 . S
C782 C780 1.419 . S
C782 C783 1.362 . S
C783 H773 0.930 . S
C783 C776 1.409 . S
C783 C782 1.362 . S
H784 C790 0.930 . S
H785 C793 0.930 1_565 S
H786 C794 0.930 . S
H787 C795 0.930 . S
H788 C798 0.930 1_545 S
H789 C799 0.930 . S
C790 H784 0.930 . S
C790 C791 1.355 . S
C790 C792 1.415 . S
C791 C790 1.355 . S
C791 C793 1.419 . S
C792 C790 1.415 . S
C792 C797 1.425 1_545 S
C792 C799 1.409 . S
C793 H785 0.930 1_545 S
C793 C791 1.419 . S
C793 C794 1.362 1_545 S
C794 H786 0.930 . S
C794 C793 1.362 1_565 S
C794 C797 1.409 . S
C795 H787 0.930 . S
C795 C796 1.355 . S
C795 C797 1.415 . S
C796 C795 1.355 . S
C796 C798 1.419 . S
C797 C792 1.425 1_565 S
C797 C794 1.409 . S
C797 C795 1.415 . S
C798 H788 0.930 1_565 S
C798 C796 1.419 . S
C798 C799 1.362 1_565 S
C799 H789 0.930 . S
C799 C792 1.409 . S
C799 C798 1.362 1_545 S
H800 C806 0.930 . S
H801 C809 0.930 . S
H802 C810 0.930 . S
H803 C811 0.930 . S
H804 C814 0.930 . S
H805 C815 0.930 . S
C806 H800 0.930 . S
C806 C807 1.355 . S
C806 C808 1.415 1_545 S
C807 C806 1.355 . S
C807 C809 1.419 . S
C808 C806 1.415 1_565 S
C808 C813 1.425 1_565 S
C808 C815 1.409 . S
C809 H801 0.930 . S
C809 C807 1.419 . S
C809 C810 1.362 . S
C810 H802 0.930 . S
C810 C809 1.362 . S
C810 C813 1.409 . S
C811 H803 0.930 . S
C811 C812 1.355 . S
C811 C813 1.415 1_565 S
C812 C811 1.355 . S
C812 C814 1.419 . S
C813 C808 1.425 1_545 S
C813 C810 1.409 . S
C813 C811 1.415 1_545 S
C814 H804 0.930 . S
C814 C812 1.419 . S
C814 C815 1.362 . S
C815 H805 0.930 . S
C815 C808 1.409 . S
C815 C814 1.362 . S
H816 C822 0.930 . S
H817 C825 0.930 . S
H818 C826 0.930 . S
H819 C827 0.930 . S
H820 C830 0.930 . S
H821 C831 0.930 . S
C822 H816 0.930 . S
C822 C823 1.355 . S
C822 C824 1.415 . S
C823 C822 1.355 . S
C823 C825 1.419 1_545 S
C824 C822 1.415 . S
C824 C829 1.425 1_545 S
C824 C831 1.409 . S
C825 H817 0.930 . S
C825 C823 1.419 1_565 S
C825 C826 1.362 . S
C826 H818 0.930 . S
C826 C825 1.362 . S
C826 C829 1.409 . S
C827 H819 0.930 . S
C827 C828 1.355 . S
C827 C829 1.415 . S
C828 C827 1.355 . S
C828 C830 1.419 1_565 S
C829 C824 1.425 1_565 S
C829 C826 1.409 . S
C829 C827 1.415 . S
C830 H820 0.930 . S
C830 C828 1.419 1_545 S
C830 C831 1.362 . S
C831 H821 0.930 . S
C831 C824 1.409 . S
C831 C830 1.362 . S
H832 C838 0.930 . S
H833 C841 0.930 . S
H834 C842 0.930 . S
H835 C843 0.930 . S
H836 C846 0.930 . S
H837 C847 0.930 . S
C838 H832 0.930 . S
C838 C839 1.355 . S
C838 C840 1.415 . S
C839 C838 1.355 . S
C839 C841 1.419 . S
C840 C838 1.415 . S
C840 C845 1.425 . S
C840 C847 1.409 . S
C841 H833 0.930 . S
C841 C839 1.419 . S
C841 C842 1.362 . S
C842 H834 0.930 . S
C842 C841 1.362 . S
C842 C845 1.409 . S
C843 H835 0.930 . S
C843 C844 1.355 . S
C843 C845 1.415 . S
C844 C843 1.355 . S
C844 C846 1.419 . S
C845 C840 1.425 . S
C845 C842 1.409 . S
C845 C843 1.415 . S
C846 H836 0.930 . S
C846 C844 1.419 . S
C846 C847 1.362 . S
C847 H837 0.930 . S
C847 C840 1.409 . S
C847 C846 1.362 . S
H848 C854 0.930 . S
H849 C857 0.930 . S
H850 C858 0.930 . S
H851 C859 0.930 . S
H852 C862 0.930 . S
H853 C863 0.930 . S
C854 H848 0.930 . S
C854 C855 1.355 . S
C854 C856 1.415 . S
C855 C854 1.355 . S
C855 C857 1.419 . S
C856 C854 1.415 . S
C856 C861 1.425 . S
C856 C863 1.409 . S
C857 H849 0.930 . S
C857 C855 1.419 . S
C857 C858 1.362 . S
C858 H850 0.930 . S
C858 C857 1.362 . S
C858 C861 1.409 . S
C859 H851 0.930 . S
C859 C860 1.355 . S
C859 C861 1.415 . S
C860 C859 1.355 . S
C860 C862 1.419 . S
C861 C856 1.425 . S
C861 C858 1.409 . S
C861 C859 1.415 . S
C862 H852 0.930 . S
C862 C860 1.419 . S
C862 C863 1.362 . S
C863 H853 0.930 . S
C863 C856 1.409 . S
C863 C862 1.362 . S
H864 C870 0.930 . S
H865 C873 0.930 . S
H866 C874 0.930 . S
H867 C875 0.930 . S
H868 C878 0.930 . S
H869 C879 0.930 . S
C870 H864 0.930 . S
C870 C871 1.355 . S
C870 C872 1.415 . S
C871 C870 1.355 . S
C871 C873 1.419 . S
C872 C870 1.415 . S
C872 C877 1.425 . S
C872 C879 1.409 . S
C873 H865 0.930 . S
C873 C871 1.419 . S
C873 C874 1.362 . S
C874 H866 0.930 . S
C874 C873 1.362 . S
C874 C877 1.409 . S
C875 H867 0.930 . S
C875 C876 1.355 . S
C875 C877 1.415 . S
C876 C875 1.355 . S
C876 C878 1.419 . S
C877 C872 1.425 . S
C877 C874 1.409 . S
C877 C875 1.415 . S
C878 H868 0.930 . S
C878 C876 1.419 . S
C878 C879 1.362 . S
C879 H869 0.930 . S
C879 C872 1.409 . S
C879 C878 1.362 . S
H880 C886 0.930 . S
H881 C889 0.930 . S
H882 C890 0.930 . S
H883 C891 0.930 . S
H884 C894 0.930 . S
H885 C895 0.930 . S
C886 H880 0.930 . S
C886 C887 1.355 . S
C886 C888 1.415 . S
C887 C886 1.355 . S
C887 C889 1.419 . S
C888 C886 1.415 . S
C888 C893 1.425 . S
C888 C895 1.409 . S
C889 H881 0.930 . S
C889 C887 1.419 . S
C889 C890 1.362 . S
C890 H882 0.930 . S
C890 C889 1.362 . S
C890 C893 1.409 . S
C891 H883 0.930 . S
C891 C892 1.355 . S
C891 C893 1.415 . S
C892 C891 1.355 . S
C892 C894 1.419 . S
C893 C888 1.425 . S
C893 C890 1.409 . S
C893 C891 1.415 . S
C894 H884 0.930 . S
C894 C892 1.419 . S
C894 C895 1.362 . S
C895 H885 0.930 . S
C895 C888 1.409 . S
C895 C894 1.362 . S
H896 C902 0.930 . S
H897 C905 0.930 . S
H898 C906 0.930 . S
H899 C907 0.930 . S
H900 C910 0.930 . S
H901 C911 0.930 . S
C902 H896 0.930 . S
C902 C903 1.355 . S
C902 C904 1.415 . S
C903 C902 1.355 . S
C903 C905 1.419 . S
C904 C902 1.415 . S
C904 C909 1.425 1_556 S
C904 C911 1.409 1_556 S
C905 H897 0.930 . S
C905 C903 1.419 . S
C905 C906 1.362 . S
C906 H898 0.930 . S
C906 C905 1.362 . S
C906 C909 1.409 1_556 S
C907 H899 0.930 . S
C907 C908 1.355 . S
C907 C909 1.415 . S
C908 C907 1.355 . S
C908 C910 1.419 . S
C909 C904 1.425 1_554 S
C909 C906 1.409 1_554 S
C909 C907 1.415 . S
C910 H900 0.930 . S
C910 C908 1.419 . S
C910 C911 1.362 . S
C911 H901 0.930 . S
C911 C904 1.409 1_554 S
C911 C910 1.362 . S
H912 C918 0.930 . S
H913 C921 0.930 . S
H914 C922 0.930 . S
H915 C923 0.930 . S
H916 C926 0.930 . S
H917 C927 0.930 . S
C918 H912 0.930 . S
C918 C919 1.355 . S
C918 C920 1.415 . S
C919 C918 1.355 . S
C919 C921 1.419 . S
C920 C918 1.415 . S
C920 C925 1.425 1_556 S
C920 C927 1.409 1_556 S
C921 H913 0.930 . S
C921 C919 1.419 . S
C921 C922 1.362 . S
C922 H914 0.930 . S
C922 C921 1.362 . S
C922 C925 1.409 1_556 S
C923 H915 0.930 . S
C923 C924 1.355 . S
C923 C925 1.415 . S
C924 C923 1.355 . S
C924 C926 1.419 . S
C925 C920 1.425 1_554 S
C925 C922 1.409 1_554 S
C925 C923 1.415 . S
C926 H916 0.930 . S
C926 C924 1.419 . S
C926 C927 1.362 . S
C927 H917 0.930 . S
C927 C920 1.409 1_554 S
C927 C926 1.362 . S
H928 C934 0.930 . S
H929 C937 0.930 . S
H930 C938 0.930 . S
H931 C939 0.930 . S
H932 C942 0.930 . S
H933 C943 0.930 . S
C934 H928 0.930 . S
C934 C935 1.355 . S
C934 C936 1.415 . S
C935 C934 1.355 . S
C935 C937 1.419 . S
C936 C934 1.415 . S
C936 C941 1.425 . S
C936 C943 1.409 . S
C937 H929 0.930 . S
C937 C935 1.419 . S
C937 C938 1.362 . S
C938 H930 0.930 . S
C938 C937 1.362 . S
C938 C941 1.409 . S
C939 H931 0.930 . S
C939 C940 1.355 . S
C939 C941 1.415 . S
C940 C939 1.355 . S
C940 C942 1.419 . S
C941 C936 1.425 . S
C941 C938 1.409 . S
C941 C939 1.415 . S
C942 H932 0.930 . S
C942 C940 1.419 . S
C942 C943 1.362 . S
C943 H933 0.930 . S
C943 C936 1.409 . S
C943 C942 1.362 . S
H944 C950 0.930 . S
H945 C953 0.930 . S
H946 C954 0.930 . S
H947 C955 0.930 . S
H948 C958 0.930 . S
H949 C959 0.930 . S
C950 H944 0.930 . S
C950 C951 1.355 . S
C950 C952 1.415 . S
C951 C950 1.355 . S
C951 C953 1.419 . S
C952 C950 1.415 . S
C952 C957 1.425 . S
C952 C959 1.409 . S
C953 H945 0.930 . S
C953 C951 1.419 . S
C953 C954 1.362 . S
C954 H946 0.930 . S
C954 C953 1.362 . S
C954 C957 1.409 . S
C955 H947 0.930 . S
C955 C956 1.355 . S
C955 C957 1.415 . S
C956 C955 1.355 . S
C956 C958 1.419 . S
C957 C952 1.425 . S
C957 C954 1.409 . S
C957 C955 1.415 . S
C958 H948 0.930 . S
C958 C956 1.419 . S
C958 C959 1.362 . S
C959 H949 0.930 . S
C959 C952 1.409 . S
C959 C958 1.362 . S
H960 C966 0.930 . S
H961 C969 0.930 . S
H962 C970 0.930 . S
H963 C971 0.930 . S
H964 C974 0.930 . S
H965 C975 0.930 . S
C966 H960 0.930 . S
C966 C967 1.355 . S
C966 C968 1.415 . S
C967 C966 1.355 . S
C967 C969 1.419 . S
C968 C966 1.415 . S
C968 C973 1.425 1_554 S
C968 C975 1.409 1_554 S
C969 H961 0.930 . S
C969 C967 1.419 . S
C969 C970 1.362 . S
C970 H962 0.930 . S
C970 C969 1.362 . S
C970 C973 1.409 1_554 S
C971 H963 0.930 . S
C971 C972 1.355 . S
C971 C973 1.415 . S
C972 C971 1.355 . S
C972 C974 1.419 . S
C973 C968 1.425 1_556 S
C973 C970 1.409 1_556 S
C973 C971 1.415 . S
C974 H964 0.930 . S
C974 C972 1.419 . S
C974 C975 1.362 . S
C975 H965 0.930 . S
C975 C968 1.409 1_556 S
C975 C974 1.362 . S
H976 C982 0.930 . S
H977 C985 0.930 . S
H978 C986 0.930 . S
H979 C987 0.930 . S
H980 C990 0.930 . S
H981 C991 0.930 . S
C982 H976 0.930 . S
C982 C983 1.355 . S
C982 C984 1.415 . S
C983 C982 1.355 . S
C983 C985 1.419 . S
C984 C982 1.415 . S
C984 C989 1.425 1_556 S
C984 C991 1.409 1_556 S
C985 H977 0.930 . S
C985 C983 1.419 . S
C985 C986 1.362 . S
C986 H978 0.930 . S
C986 C985 1.362 . S
C986 C989 1.409 1_556 S
C987 H979 0.930 . S
C987 C988 1.355 . S
C987 C989 1.415 . S
C988 C987 1.355 . S
C988 C990 1.419 . S
C989 C984 1.425 1_554 S
C989 C986 1.409 1_554 S
C989 C987 1.415 . S
C990 H980 0.930 . S
C990 C988 1.419 . S
C990 C991 1.362 . S
C991 H981 0.930 . S
C991 C984 1.409 1_554 S
C991 C990 1.362 . S
H992 C998 0.930 . S
H993 C1001 0.930 . S
H994 C1002 0.930 . S
H995 C1003 0.930 . S
H996 C1006 0.930 . S
H997 C1007 0.930 . S
C998 H992 0.930 . S
C998 C999 1.355 . S
C998 C1000 1.415 . S
C999 C998 1.355 . S
C999 C1001 1.419 . S
C1000 C998 1.415 . S
C1000 C1005 1.425 . S
C1000 C1007 1.409 . S
C1001 H993 0.930 . S
C1001 C999 1.419 . S
C1001 C1002 1.362 . S
C1002 H994 0.930 . S
C1002 C1001 1.362 . S
C1002 C1005 1.409 . S
C1003 H995 0.930 . S
C1003 C1004 1.355 . S
C1003 C1005 1.415 . S
C1004 C1003 1.355 . S
C1004 C1006 1.419 . S
C1005 C1000 1.425 . S
C1005 C1002 1.409 . S
C1005 C1003 1.415 . S
C1006 H996 0.930 . S
C1006 C1004 1.419 . S
C1006 C1007 1.362 . S
C1007 H997 0.930 . S
C1007 C1000 1.409 . S
C1007 C1006 1.362 . S
H1008 C1014 0.930 . S
H1009 C1017 0.930 . S
H1010 C1018 0.930 . S
H1011 C1019 0.930 . S
H1012 C1022 0.930 . S
H1013 C1023 0.930 . S
C1014 H1008 0.930 . S
C1014 C1015 1.355 . S
C1014 C1016 1.415 . S
C1015 C1014 1.355 . S
C1015 C1017 1.419 . S
C1016 C1014 1.415 . S
C1016 C1021 1.425 . S
C1016 C1023 1.409 . S
C1017 H1009 0.930 . S
C1017 C1015 1.419 . S
C1017 C1018 1.362 . S
C1018 H1010 0.930 . S
C1018 C1017 1.362 . S
C1018 C1021 1.409 . S
C1019 H1011 0.930 . S
C1019 C1020 1.355 . S
C1019 C1021 1.415 . S
C1020 C1019 1.355 . S
C1020 C1022 1.419 . S
C1021 C1016 1.425 . S
C1021 C1018 1.409 . S
C1021 C1019 1.415 . S
C1022 H1012 0.930 . S
C1022 C1020 1.419 . S
C1022 C1023 1.362 . S
C1023 H1013 0.930 . S
C1023 C1016 1.409 . S
C1023 C1022 1.362 . S
H1024 C1030 0.930 . S
H1025 C1033 0.930 . S
H1026 C1034 0.930 . S
H1027 C1035 0.930 . S
H1028 C1038 0.930 . S
H1029 C1039 0.930 . S
C1030 H1024 0.930 . S
C1030 C1031 1.355 . S
C1030 C1032 1.415 . S
C1031 C1030 1.355 . S
C1031 C1033 1.419 1_565 S
C1032 C1030 1.415 . S
C1032 C1037 1.425 1_665 S
C1032 C1039 1.409 1_655 S
C1033 H1025 0.930 . S
C1033 C1031 1.419 1_545 S
C1033 C1034 1.362 . S
C1034 H1026 0.930 . S
C1034 C1033 1.362 . S
C1034 C1037 1.409 1_655 S
C1035 H1027 0.930 . S
C1035 C1036 1.355 . S
C1035 C1037 1.415 . S
C1036 C1035 1.355 . S
C1036 C1038 1.419 1_545 S
C1037 C1032 1.425 1_445 S
C1037 C1034 1.409 1_455 S
C1037 C1035 1.415 . S
C1038 H1028 0.930 . S
C1038 C1036 1.419 1_565 S
C1038 C1039 1.362 . S
C1039 H1029 0.930 . S
C1039 C1032 1.409 1_455 S
C1039 C1038 1.362 . S
H1040 C1046 0.930 . S
H1041 C1049 0.930 . S
H1042 C1050 0.927 1_455 S
H1043 C1051 0.930 . S
H1044 C1054 0.930 . S
H1045 C1055 0.927 1_655 S
C1046 H1040 0.930 . S
C1046 C1047 1.355 1_565 S
C1046 C1048 1.415 . S
C1047 C1046 1.355 1_545 S
C1047 C1049 1.419 . S
C1048 C1046 1.415 . S
C1048 C1053 1.425 1_665 S
C1048 C1055 1.409 1_655 S
C1049 H1041 0.930 . S
C1049 C1047 1.419 . S
C1049 C1050 1.362 . S
C1050 H1042 0.927 1_655 S
C1050 C1049 1.362 . S
C1050 C1053 1.409 1_655 S
C1051 H1043 0.930 . S
C1051 C1052 1.355 1_545 S
C1051 C1053 1.415 . S
C1052 C1051 1.355 1_565 S
C1052 C1054 1.419 . S
C1053 C1048 1.425 1_445 S
C1053 C1050 1.409 1_455 S
C1053 C1051 1.415 . S
C1054 H1044 0.930 . S
C1054 C1052 1.419 . S
C1054 C1055 1.362 . S
C1055 H1045 0.927 1_455 S
C1055 C1048 1.409 1_455 S
C1055 C1054 1.362 . S
H1056 C1062 0.930 . S
H1057 C1065 0.930 . S
H1058 C1066 0.930 . S
H1059 C1067 0.930 . S
H1060 C1070 0.930 . S
H1061 C1071 0.930 . S
C1062 H1056 0.930 . S
C1062 C1063 1.355 . S
C1062 C1064 1.415 . S
C1063 C1062 1.355 . S
C1063 C1065 1.419 1_545 S
C1064 C1062 1.415 . S
C1064 C1069 1.425 1_445 S
C1064 C1071 1.409 1_455 S
C1065 H1057 0.930 . S
C1065 C1063 1.419 1_565 S
C1065 C1066 1.362 . S
C1066 H1058 0.930 . S
C1066 C1065 1.362 . S
C1066 C1069 1.409 1_455 S
C1067 H1059 0.930 . S
C1067 C1068 1.355 . S
C1067 C1069 1.415 . S
C1068 C1067 1.355 . S
C1068 C1070 1.419 1_565 S
C1069 C1064 1.425 1_665 S
C1069 C1066 1.409 1_655 S
C1069 C1067 1.415 . S
C1070 H1060 0.930 . S
C1070 C1068 1.419 1_545 S
C1070 C1071 1.362 . S
C1071 H1061 0.930 . S
C1071 C1064 1.409 1_655 S
C1071 C1070 1.362 . S
H1072 C1078 0.930 . S
H1073 C1081 0.930 . S
H1074 C1082 0.930 . S
H1075 C1083 0.930 . S
H1076 C1086 0.930 . S
H1077 C1087 0.930 . S
C1078 H1072 0.930 . S
C1078 C1079 1.355 . S
C1078 C1080 1.415 . S
C1079 C1078 1.355 . S
C1079 C1081 1.419 1_545 S
C1080 C1078 1.415 . S
C1080 C1085 1.425 1_645 S
C1080 C1087 1.409 1_655 S
C1081 H1073 0.930 . S
C1081 C1079 1.419 1_565 S
C1081 C1082 1.362 . S
C1082 H1074 0.930 . S
C1082 C1081 1.362 . S
C1082 C1085 1.409 1_655 S
C1083 H1075 0.930 . S
C1083 C1084 1.355 . S
C1083 C1085 1.415 . S
C1084 C1083 1.355 . S
C1084 C1086 1.419 1_565 S
C1085 C1080 1.425 1_465 S
C1085 C1082 1.409 1_455 S
C1085 C1083 1.415 . S
C1086 H1076 0.930 . S
C1086 C1084 1.419 1_545 S
C1086 C1087 1.362 . S
C1087 H1077 0.930 . S
C1087 C1080 1.409 1_455 S
C1087 C1086 1.362 . S
H1088 C1094 0.930 . S
H1089 C1097 0.930 . S
H1090 C1098 0.930 . S
H1091 C1099 0.930 . S
H1092 C1102 0.930 . S
H1093 C1103 0.930 . S
C1094 H1088 0.930 . S
C1094 C1095 1.355 . S
C1094 C1096 1.415 . S
C1095 C1094 1.355 . S
C1095 C1097 1.419 . S
C1096 C1094 1.415 . S
C1096 C1101 1.425 . S
C1096 C1103 1.409 . S
C1097 H1089 0.930 . S
C1097 C1095 1.419 . S
C1097 C1098 1.362 . S
C1098 H1090 0.930 . S
C1098 C1097 1.362 . S
C1098 C1101 1.409 . S
C1099 H1091 0.930 . S
C1099 C1100 1.355 . S
C1099 C1101 1.415 . S
C1100 C1099 1.355 . S
C1100 C1102 1.419 . S
C1101 C1096 1.425 . S
C1101 C1098 1.409 . S
C1101 C1099 1.415 . S
C1102 H1092 0.930 . S
C1102 C1100 1.419 . S
C1102 C1103 1.362 . S
C1103 H1093 0.930 . S
C1103 C1096 1.409 . S
C1103 C1102 1.362 . S
H1104 C1110 0.930 . S
H1105 C1113 0.930 . S
H1106 C1114 0.930 . S
H1107 C1115 0.930 . S
H1108 C1118 0.930 . S
H1109 C1119 0.930 . S
C1110 H1104 0.930 . S
C1110 C1111 1.355 . S
C1110 C1112 1.415 . S
C1111 C1110 1.355 . S
C1111 C1113 1.419 . S
C1112 C1110 1.415 . S
C1112 C1117 1.425 . S
C1112 C1119 1.409 . S
C1113 H1105 0.930 . S
C1113 C1111 1.419 . S
C1113 C1114 1.362 . S
C1114 H1106 0.930 . S
C1114 C1113 1.362 . S
C1114 C1117 1.409 . S
C1115 H1107 0.930 . S
C1115 C1116 1.355 . S
C1115 C1117 1.415 . S
C1116 C1115 1.355 . S
C1116 C1118 1.419 . S
C1117 C1112 1.425 . S
C1117 C1114 1.409 . S
C1117 C1115 1.415 . S
C1118 H1108 0.930 . S
C1118 C1116 1.419 . S
C1118 C1119 1.362 . S
C1119 H1109 0.930 . S
C1119 C1112 1.409 . S
C1119 C1118 1.362 . S
H1120 C1126 0.930 . S
H1121 C1129 0.930 . S
H1122 C1130 0.930 . S
H1123 C1131 0.930 . S
H1124 C1134 0.930 . S
H1125 C1135 0.930 . S
C1126 H1120 0.930 . S
C1126 C1127 1.355 . S
C1126 C1128 1.415 . S
C1127 C1126 1.355 . S
C1127 C1129 1.419 . S
C1128 C1126 1.415 . S
C1128 C1133 1.425 . S
C1128 C1135 1.409 . S
C1129 H1121 0.930 . S
C1129 C1127 1.419 . S
C1129 C1130 1.362 . S
C1130 H1122 0.930 . S
C1130 C1129 1.362 . S
C1130 C1133 1.409 . S
C1131 H1123 0.930 . S
C1131 C1132 1.355 . S
C1131 C1133 1.415 . S
C1132 C1131 1.355 . S
C1132 C1134 1.419 . S
C1133 C1128 1.425 . S
C1133 C1130 1.409 . S
C1133 C1131 1.415 . S
C1134 H1124 0.930 . S
C1134 C1132 1.419 . S
C1134 C1135 1.362 . S
C1135 H1125 0.930 . S
C1135 C1128 1.409 . S
C1135 C1134 1.362 . S
H1136 C1142 0.930 . S
H1137 C1145 0.930 . S
H1138 C1146 0.930 . S
H1139 C1147 0.930 . S
H1140 C1150 0.930 . S
H1141 C1151 0.930 . S
C1142 H1136 0.930 . S
C1142 C1143 1.355 . S
C1142 C1144 1.415 . S
C1143 C1142 1.355 . S
C1143 C1145 1.419 . S
C1144 C1142 1.415 . S
C1144 C1149 1.425 . S
C1144 C1151 1.409 . S
C1145 H1137 0.930 . S
C1145 C1143 1.419 . S
C1145 C1146 1.362 . S
C1146 H1138 0.930 . S
C1146 C1145 1.362 . S
C1146 C1149 1.409 . S
C1147 H1139 0.930 . S
C1147 C1148 1.355 . S
C1147 C1149 1.415 . S
C1148 C1147 1.355 . S
C1148 C1150 1.419 . S
C1149 C1144 1.425 . S
C1149 C1146 1.409 . S
C1149 C1147 1.415 . S
C1150 H1140 0.930 . S
C1150 C1148 1.419 . S
C1150 C1151 1.362 . S
C1151 H1141 0.930 . S
C1151 C1144 1.409 . S
C1151 C1150 1.362 . S
H1152 C1158 0.930 . S
H1153 C1161 0.930 . S
H1154 C1162 0.930 . S
H1155 C1163 0.930 . S
H1156 C1166 0.930 . S
H1157 C1167 0.930 . S
C1158 H1152 0.930 . S
C1158 C1159 1.355 . S
C1158 C1160 1.415 . S
C1159 C1158 1.355 . S
C1159 C1161 1.419 . S
C1160 C1158 1.415 . S
C1160 C1165 1.425 . S
C1160 C1167 1.409 . S
C1161 H1153 0.930 . S
C1161 C1159 1.419 . S
C1161 C1162 1.362 . S
C1162 H1154 0.930 . S
C1162 C1161 1.362 . S
C1162 C1165 1.409 . S
C1163 H1155 0.930 . S
C1163 C1164 1.355 . S
C1163 C1165 1.415 . S
C1164 C1163 1.355 . S
C1164 C1166 1.419 . S
C1165 C1160 1.425 . S
C1165 C1162 1.409 . S
C1165 C1163 1.415 . S
C1166 H1156 0.930 . S
C1166 C1164 1.419 . S
C1166 C1167 1.362 . S
C1167 H1157 0.930 . S
C1167 C1160 1.409 . S
C1167 C1166 1.362 . S
H1168 C1174 0.930 . S
H1169 C1177 0.930 . S
H1170 C1178 0.930 . S
H1171 C1179 0.930 . S
H1172 C1182 0.930 . S
H1173 C1183 0.930 . S
C1174 H1168 0.930 . S
C1174 C1175 1.355 . S
C1174 C1176 1.415 . S
C1175 C1174 1.355 . S
C1175 C1177 1.419 . S
C1176 C1174 1.415 . S
C1176 C1181 1.425 . S
C1176 C1183 1.409 . S
C1177 H1169 0.930 . S
C1177 C1175 1.419 . S
C1177 C1178 1.362 . S
C1178 H1170 0.930 . S
C1178 C1177 1.362 . S
C1178 C1181 1.409 . S
C1179 H1171 0.930 . S
C1179 C1180 1.355 . S
C1179 C1181 1.415 . S
C1180 C1179 1.355 . S
C1180 C1182 1.419 . S
C1181 C1176 1.425 . S
C1181 C1178 1.409 . S
C1181 C1179 1.415 . S
C1182 H1172 0.930 . S
C1182 C1180 1.419 . S
C1182 C1183 1.362 . S
C1183 H1173 0.930 . S
C1183 C1176 1.409 . S
C1183 C1182 1.362 . S
H1184 C1190 0.930 . S
H1185 C1193 0.930 . S
H1186 C1194 0.930 . S
H1187 C1195 0.930 . S
H1188 C1198 0.930 . S
H1189 C1199 0.930 . S
C1190 H1184 0.930 . S
C1190 C1191 1.355 . S
C1190 C1192 1.415 . S
C1191 C1190 1.355 . S
C1191 C1193 1.419 . S
C1192 C1190 1.415 . S
C1192 C1197 1.425 . S
C1192 C1199 1.409 . S
C1193 H1185 0.930 . S
C1193 C1191 1.419 . S
C1193 C1194 1.362 . S
C1194 H1186 0.930 . S
C1194 C1193 1.362 . S
C1194 C1197 1.409 . S
C1195 H1187 0.930 . S
C1195 C1196 1.355 . S
C1195 C1197 1.415 . S
C1196 C1195 1.355 . S
C1196 C1198 1.419 . S
C1197 C1192 1.425 . S
C1197 C1194 1.409 . S
C1197 C1195 1.415 . S
C1198 H1188 0.930 . S
C1198 C1196 1.419 . S
C1198 C1199 1.362 . S
C1199 H1189 0.930 . S
C1199 C1192 1.409 . S
C1199 C1198 1.362 . S
H1200 C1206 0.930 . S
H1201 C1209 0.930 . S
H1202 C1210 0.930 . S
H1203 C1211 0.930 . S
H1204 C1214 0.930 . S
H1205 C1215 0.930 . S
C1206 H1200 0.930 . S
C1206 C1207 1.355 . S
C1206 C1208 1.415 . S
C1207 C1206 1.355 . S
C1207 C1209 1.419 . S
C1208 C1206 1.415 . S
C1208 C1213 1.425 . S
C1208 C1215 1.409 . S
C1209 H1201 0.930 . S
C1209 C1207 1.419 . S
C1209 C1210 1.362 . S
C1210 H1202 0.930 . S
C1210 C1209 1.362 . S
C1210 C1213 1.409 . S
C1211 H1203 0.930 . S
C1211 C1212 1.355 . S
C1211 C1213 1.415 . S
C1212 C1211 1.355 . S
C1212 C1214 1.419 . S
C1213 C1208 1.425 . S
C1213 C1210 1.409 . S
C1213 C1211 1.415 . S
C1214 H1204 0.930 . S
C1214 C1212 1.419 . S
C1214 C1215 1.362 . S
C1215 H1205 0.930 . S
C1215 C1208 1.409 . S
C1215 C1214 1.362 . S
H1216 C1222 0.930 . S
H1217 C1225 0.930 . S
H1218 C1226 0.930 . S
H1219 C1227 0.930 . S
H1220 C1230 0.930 . S
H1221 C1231 0.930 . S
C1222 H1216 0.930 . S
C1222 C1223 1.355 . S
C1222 C1224 1.415 . S
C1223 C1222 1.355 . S
C1223 C1225 1.419 . S
C1224 C1222 1.415 . S
C1224 C1229 1.425 . S
C1224 C1231 1.409 . S
C1225 H1217 0.930 . S
C1225 C1223 1.419 . S
C1225 C1226 1.362 . S
C1226 H1218 0.930 . S
C1226 C1225 1.362 . S
C1226 C1229 1.409 . S
C1227 H1219 0.930 . S
C1227 C1228 1.355 . S
C1227 C1229 1.415 . S
C1228 C1227 1.355 . S
C1228 C1230 1.419 . S
C1229 C1224 1.425 . S
C1229 C1226 1.409 . S
C1229 C1227 1.415 . S
C1230 H1220 0.930 . S
C1230 C1228 1.419 . S
C1230 C1231 1.362 . S
C1231 H1221 0.930 . S
C1231 C1224 1.409 . S
C1231 C1230 1.362 . S
H1232 C1238 0.930 . S
H1233 C1241 0.930 . S
H1234 C1242 0.930 . S
H1235 C1243 0.930 . S
H1236 C1246 0.930 . S
H1237 C1247 0.930 . S
C1238 H1232 0.930 . S
C1238 C1239 1.355 . S
C1238 C1240 1.415 . S
C1239 C1238 1.355 . S
C1239 C1241 1.419 . S
C1240 C1238 1.415 . S
C1240 C1245 1.425 . S
C1240 C1247 1.409 . S
C1241 H1233 0.930 . S
C1241 C1239 1.419 . S
C1241 C1242 1.362 . S
C1242 H1234 0.930 . S
C1242 C1241 1.362 . S
C1242 C1245 1.409 . S
C1243 H1235 0.930 . S
C1243 C1244 1.355 . S
C1243 C1245 1.415 . S
C1244 C1243 1.355 . S
C1244 C1246 1.419 . S
C1245 C1240 1.425 . S
C1245 C1242 1.409 . S
C1245 C1243 1.415 . S
C1246 H1236 0.930 . S
C1246 C1244 1.419 . S
C1246 C1247 1.362 . S
C1247 H1237 0.930 . S
C1247 C1240 1.409 . S
C1247 C1246 1.362 . S
H1248 C1254 0.930 . S
H1249 C1257 0.930 . S
H1250 C1258 0.930 . S
H1251 C1259 0.930 . S
H1252 C1262 0.930 . S
H1253 C1263 0.930 . S
C1254 H1248 0.930 . S
C1254 C1255 1.355 . S
C1254 C1256 1.415 . S
C1255 C1254 1.355 . S
C1255 C1257 1.419 . S
C1256 C1254 1.415 . S
C1256 C1261 1.425 . S
C1256 C1263 1.409 . S
C1257 H1249 0.930 . S
C1257 C1255 1.419 . S
C1257 C1258 1.362 . S
C1258 H1250 0.930 . S
C1258 C1257 1.362 . S
C1258 C1261 1.409 . S
C1259 H1251 0.930 . S
C1259 C1260 1.355 . S
C1259 C1261 1.415 . S
C1260 C1259 1.355 . S
C1260 C1262 1.419 . S
C1261 C1256 1.425 . S
C1261 C1258 1.409 . S
C1261 C1259 1.415 . S
C1262 H1252 0.930 . S
C1262 C1260 1.419 . S
C1262 C1263 1.362 . S
C1263 H1253 0.930 . S
C1263 C1256 1.409 . S
C1263 C1262 1.362 . S
H1264 C1270 0.930 . S
H1265 C1273 0.930 . S
H1266 C1274 0.930 . S
H1267 C1275 0.930 . S
H1268 C1278 0.930 . S
H1269 C1279 0.930 . S
C1270 H1264 0.930 . S
C1270 C1271 1.355 . S
C1270 C1272 1.415 . S
C1271 C1270 1.355 . S
C1271 C1273 1.419 . S
C1272 C1270 1.415 . S
C1272 C1277 1.425 . S
C1272 C1279 1.409 . S
C1273 H1265 0.930 . S
C1273 C1271 1.419 . S
C1273 C1274 1.362 . S
C1274 H1266 0.930 . S
C1274 C1273 1.362 . S
C1274 C1277 1.409 . S
C1275 H1267 0.930 . S
C1275 C1276 1.355 . S
C1275 C1277 1.415 . S
C1276 C1275 1.355 . S
C1276 C1278 1.419 . S
C1277 C1272 1.425 . S
C1277 C1274 1.409 . S
C1277 C1275 1.415 . S
C1278 H1268 0.930 . S
C1278 C1276 1.419 . S
C1278 C1279 1.362 . S
C1279 H1269 0.930 . S
C1279 C1272 1.409 . S
C1279 C1278 1.362 . S
H1280 C1286 0.930 . S
H1281 C1289 0.930 1_565 S
H1282 C1290 0.930 . S
H1283 C1291 0.930 . S
H1284 C1294 0.930 . S
H1285 C1295 0.930 . S
C1286 H1280 0.930 . S
C1286 C1287 1.355 1_545 S
C1286 C1288 1.415 . S
C1287 C1286 1.355 1_565 S
C1287 C1289 1.419 1_565 S
C1288 C1286 1.415 . S
C1288 C1293 1.425 . S
C1288 C1295 1.409 . S
C1289 H1281 0.930 1_545 S
C1289 C1287 1.419 1_545 S
C1289 C1290 1.362 . S
C1290 H1282 0.930 . S
C1290 C1289 1.362 . S
C1290 C1293 1.409 . S
C1291 H1283 0.930 . S
C1291 C1292 1.355 . S
C1291 C1293 1.415 . S
C1292 C1291 1.355 . S
C1292 C1294 1.419 . S
C1293 C1288 1.425 . S
C1293 C1290 1.409 . S
C1293 C1291 1.415 . S
C1294 H1284 0.930 . S
C1294 C1292 1.419 . S
C1294 C1295 1.362 . S
C1295 H1285 0.930 . S
C1295 C1288 1.409 . S
C1295 C1294 1.362 . S
H1296 C1302 0.930 . S
H1297 C1305 0.930 . S
H1298 C1306 0.930 . S
H1299 C1307 0.930 . S
H1300 C1310 0.930 1_545 S
H1301 C1311 0.930 . S
C1302 H1296 0.930 . S
C1302 C1303 1.355 . S
C1302 C1304 1.415 . S
C1303 C1302 1.355 . S
C1303 C1305 1.419 . S
C1304 C1302 1.415 . S
C1304 C1309 1.425 . S
C1304 C1311 1.409 . S
C1305 H1297 0.930 . S
C1305 C1303 1.419 . S
C1305 C1306 1.362 . S
C1306 H1298 0.930 . S
C1306 C1305 1.362 . S
C1306 C1309 1.409 . S
C1307 H1299 0.930 . S
C1307 C1308 1.355 1_565 S
C1307 C1309 1.415 . S
C1308 C1307 1.355 1_545 S
C1308 C1310 1.419 1_545 S
C1309 C1304 1.425 . S
C1309 C1306 1.409 . S
C1309 C1307 1.415 . S
C1310 H1300 0.930 1_565 S
C1310 C1308 1.419 1_565 S
C1310 C1311 1.362 . S
C1311 H1301 0.930 . S
C1311 C1304 1.409 . S
C1311 C1310 1.362 . S
H1312 C1318 0.930 . S
H1313 C1321 0.930 . S
H1314 C1322 0.930 . S
H1315 C1323 0.930 . S
H1316 C1326 0.930 . S
H1317 C1327 0.930 . S
C1318 H1312 0.930 . S
C1318 C1319 1.355 1_565 S
C1318 C1320 1.415 . S
C1319 C1318 1.355 1_545 S
C1319 C1321 1.419 1_545 S
C1320 C1318 1.415 . S
C1320 C1325 1.425 . S
C1320 C1327 1.409 . S
C1321 H1313 0.930 . S
C1321 C1319 1.419 1_565 S
C1321 C1322 1.362 . S
C1322 H1314 0.930 . S
C1322 C1321 1.362 . S
C1322 C1325 1.409 . S
C1323 H1315 0.930 . S
C1323 C1324 1.355 . S
C1323 C1325 1.415 . S
C1324 C1323 1.355 . S
C1324 C1326 1.419 . S
C1325 C1320 1.425 . S
C1325 C1322 1.409 . S
C1325 C1323 1.415 . S
C1326 H1316 0.930 . S
C1326 C1324 1.419 . S
C1326 C1327 1.362 . S
C1327 H1317 0.930 . S
C1327 C1320 1.409 . S
C1327 C1326 1.362 . S
H1328 C1334 0.930 . S
H1329 C1337 0.930 1_565 S
H1330 C1338 0.930 . S
H1331 C1339 0.930 . S
H1332 C1342 0.930 . S
H1333 C1343 0.930 . S
C1334 H1328 0.930 . S
C1334 C1335 1.355 1_545 S
C1334 C1336 1.415 . S
C1335 C1334 1.355 1_565 S
C1335 C1337 1.419 1_565 S
C1336 C1334 1.415 . S
C1336 C1341 1.425 . S
C1336 C1343 1.409 . S
C1337 H1329 0.930 1_545 S
C1337 C1335 1.419 1_545 S
C1337 C1338 1.362 . S
C1338 H1330 0.930 . S
C1338 C1337 1.362 . S
C1338 C1341 1.409 . S
C1339 H1331 0.930 . S
C1339 C1340 1.355 . S
C1339 C1341 1.415 . S
C1340 C1339 1.355 . S
C1340 C1342 1.419 . S
C1341 C1336 1.425 . S
C1341 C1338 1.409 . S
C1341 C1339 1.415 . S
C1342 H1332 0.930 . S
C1342 C1340 1.419 . S
C1342 C1343 1.362 . S
C1343 H1333 0.930 . S
C1343 C1336 1.409 . S
C1343 C1342 1.362 . S
H1344 C1350 0.930 . S
H1345 C1353 0.930 . S
H1346 C1354 0.930 . S
H1347 C1355 0.930 . S
H1348 C1358 0.930 1_545 S
H1349 C1359 0.930 . S
C1350 H1344 0.930 . S
C1350 C1351 1.355 . S
C1350 C1352 1.415 . S
C1351 C1350 1.355 . S
C1351 C1353 1.419 . S
C1352 C1350 1.415 . S
C1352 C1357 1.425 . S
C1352 C1359 1.409 . S
C1353 H1345 0.930 . S
C1353 C1351 1.419 . S
C1353 C1354 1.362 . S
C1354 H1346 0.930 . S
C1354 C1353 1.362 . S
C1354 C1357 1.409 . S
C1355 H1347 0.930 . S
C1355 C1356 1.355 1_565 S
C1355 C1357 1.415 . S
C1356 C1355 1.355 1_545 S
C1356 C1358 1.419 1_545 S
C1357 C1352 1.425 . S
C1357 C1354 1.409 . S
C1357 C1355 1.415 . S
C1358 H1348 0.930 1_565 S
C1358 C1356 1.419 1_565 S
C1358 C1359 1.362 . S
C1359 H1349 0.930 . S
C1359 C1352 1.409 . S
C1359 C1358 1.362 . S
H1360 C1366 0.930 . S
H1361 C1369 0.930 . S
H1362 C1370 0.930 . S
H1363 C1371 0.930 . S
H1364 C1374 0.930 . S
H1365 C1375 0.930 . S
C1366 H1360 0.930 . S
C1366 C1367 1.355 . S
C1366 C1368 1.415 . S
C1367 C1366 1.355 . S
C1367 C1369 1.419 . S
C1368 C1366 1.415 . S
C1368 C1373 1.425 . S
C1368 C1375 1.409 . S
C1369 H1361 0.930 . S
C1369 C1367 1.419 . S
C1369 C1370 1.362 . S
C1370 H1362 0.930 . S
C1370 C1369 1.362 . S
C1370 C1373 1.409 . S
C1371 H1363 0.930 . S
C1371 C1372 1.355 1_545 S
C1371 C1373 1.415 . S
C1372 C1371 1.355 1_565 S
C1372 C1374 1.419 1_565 S
C1373 C1368 1.425 . S
C1373 C1370 1.409 . S
C1373 C1371 1.415 . S
C1374 H1364 0.930 . S
C1374 C1372 1.419 1_545 S
C1374 C1375 1.362 . S
C1375 H1365 0.930 . S
C1375 C1368 1.409 . S
C1375 C1374 1.362 . S
H1376 C1382 0.930 . S
H1377 C1385 0.930 1_565 S
H1378 C1386 0.930 . S
H1379 C1387 0.930 . S
H1380 C1390 0.930 . S
H1381 C1391 0.930 . S
C1382 H1376 0.930 . S
C1382 C1383 1.355 1_545 S
C1382 C1384 1.415 . S
C1383 C1382 1.355 1_565 S
C1383 C1385 1.419 1_565 S
C1384 C1382 1.415 . S
C1384 C1389 1.425 . S
C1384 C1391 1.409 . S
C1385 H1377 0.930 1_545 S
C1385 C1383 1.419 1_545 S
C1385 C1386 1.362 . S
C1386 H1378 0.930 . S
C1386 C1385 1.362 . S
C1386 C1389 1.409 . S
C1387 H1379 0.930 . S
C1387 C1388 1.355 . S
C1387 C1389 1.415 . S
C1388 C1387 1.355 . S
C1388 C1390 1.419 . S
C1389 C1384 1.425 . S
C1389 C1386 1.409 . S
C1389 C1387 1.415 . S
C1390 H1380 0.930 . S
C1390 C1388 1.419 . S
C1390 C1391 1.362 . S
C1391 H1381 0.930 . S
C1391 C1384 1.409 . S
C1391 C1390 1.362 . S
H1392 C1398 0.930 . S
H1393 C1401 0.930 . S
H1394 C1402 0.930 . S
H1395 C1403 0.930 . S
H1396 C1406 0.930 . S
H1397 C1407 0.930 . S
C1398 H1392 0.930 . S
C1398 C1399 1.355 . S
C1398 C1400 1.415 . S
C1399 C1398 1.355 . S
C1399 C1401 1.419 . S
C1400 C1398 1.415 . S
C1400 C1405 1.425 . S
C1400 C1407 1.409 . S
C1401 H1393 0.930 . S
C1401 C1399 1.419 . S
C1401 C1402 1.362 . S
C1402 H1394 0.930 . S
C1402 C1401 1.362 . S
C1402 C1405 1.409 . S
C1403 H1395 0.930 . S
C1403 C1404 1.355 1_565 S
C1403 C1405 1.415 . S
C1404 C1403 1.355 1_545 S
C1404 C1406 1.419 1_545 S
C1405 C1400 1.425 . S
C1405 C1402 1.409 . S
C1405 C1403 1.415 . S
C1406 H1396 0.930 . S
C1406 C1404 1.419 1_565 S
C1406 C1407 1.362 . S
C1407 H1397 0.930 . S
C1407 C1400 1.409 . S
C1407 C1406 1.362 . S
C647 C3 1.554 . S
C652 C363 1.560 . S
C663 C43 1.562 . S
C668 C323 1.555 . S
C679 C443 1.569 . S
C684 C83 1.567 . S
C695 C123 1.557 . S
C700 C403 1.553 . S
C711 C542 1.569 . S
C716 C182 1.565 . S
C727 C502 1.560 . S
C732 C222 1.554 . S
C743 C622 1.553 . S
C748 C262 1.555 . S
C759 C302 1.553 . S
C764 C582 1.555 . S
C775 C95 1.709 . S
C780 C15 1.718 . S
C791 C135 1.704 . S
C796 C55 1.712 . S
C807 C242 1.724 . S
C812 C162 1.698 . S
C823 C202 1.708 . S
C828 C282 1.708 . S
C839 C415 1.724 . S
C844 C335 1.699 . S
C855 C455 1.721 . S
C860 C375 1.698 . S
C871 C482 1.698 . S
C876 C562 1.724 . S
C887 C522 1.707 . S
C892 C602 1.709 . S
C903 C215 1.506 . S
C908 C2 1.574 . S
C919 C175 1.574 . S
C924 C42 1.506 . S
C935 C82 1.574 . S
C940 C295 1.506 . S
C951 C255 1.565 . S
C956 C122 1.515 . S
C967 C322 1.574 . S
C972 C535 1.506 . S
C983 C495 1.548 . S
C988 C362 1.533 . S
C999 C402 1.532 . S
C1004 C615 1.549 . S
C1015 C575 1.548 . S
C1020 C442 1.533 . S
C1031 C62 1.647 . S
C1036 C22 1.649 . S
C1047 C142 1.599 . S
C1052 C102 1.598 . S
C1063 C203 1.650 . S
C1068 C163 1.648 . S
C1079 C243 1.647 . S
C1084 C283 1.649 . S
C1095 C382 1.648 . S
C1100 C342 1.650 . S
C1111 C462 1.616 . S
C1116 C422 1.622 . S
C1127 C483 1.650 . S
C1132 C523 1.648 . S
C1143 C563 1.647 . S
C1148 C603 1.643 . S
C1159 C9 1.561 . S
C1164 C26 1.561 . S
C1175 C49 1.563 . S
C1180 C66 1.563 . S
C1191 C89 1.561 . S
C1196 C106 1.561 . S
C1207 C146 1.543 . S
C1212 C129 1.543 . S
C1223 C186 1.543 . S
C1228 C169 1.543 . S
C1239 C209 1.506 . S
C1244 C226 1.506 . S
C1255 C266 1.560 . S
C1260 C249 1.560 . S
C1271 C306 1.506 . S
C1276 C289 1.506 . S
C1287 C346 1.526 . S
C1292 C329 1.526 . S
C1303 C369 1.514 . S
C1308 C386 1.514 . S
C1319 C426 1.559 . S
C1324 C409 1.559 . S
C1335 C466 1.507 . S
C1340 C449 1.507 . S
C1351 C506 1.543 . S
C1356 C489 1.543 . S
C1367 C546 1.559 . S
C1372 C529 1.559 . S
C1383 C569 1.533 . S
C1388 C586 1.533 . S
C1399 C626 1.559 . S
C1404 C609 1.559 . S
