# Generated by pormake.
# Topology snp, (6)-cn, num edge types: 1
# Building blocks:
#     Node 0, Type 0, BuildingBlock: INOVEN_clean_sbu_0, # of connection points: 6
#     Node 1, Type 0, BuildingBlock: INOVEN_clean_sbu_0, # of connection points: 6
#     Node 2, Type 0, BuildingBlock: INOVEN_clean_sbu_0, # of connection points: 6
#     Node 3, Type 0, BuildingBlock: INOVEN_clean_sbu_0, # of connection points: 6
#     Edge 4, Type (0, 0), BuildingBlock: ZUJKAS_clean_linker_0, # of connection points: 2
#     Edge 5, Type (0, 0), BuildingBlock: ZUJKAS_clean_linker_0, # of connection points: 2
#     Edge 6, Type (0, 0), BuildingBlock: ZUJKAS_clean_linker_0, # of connection points: 2
#     Edge 7, Type (0, 0), BuildingBlock: ZUJKAS_clean_linker_0, # of connection points: 2
#     Edge 8, Type (0, 0), BuildingBlock: ZUJKAS_clean_linker_0, # of connection points: 2
#     Edge 9, Type (0, 0), BuildingBlock: ZUJKAS_clean_linker_0, # of connection points: 2
#     Edge 10, Type (0, 0), BuildingBlock: ZUJKAS_clean_linker_0, # of connection points: 2
#     Edge 11, Type (0, 0), BuildingBlock: ZUJKAS_clean_linker_0, # of connection points: 2
#     Edge 12, Type (0, 0), BuildingBlock: ZUJKAS_clean_linker_0, # of connection points: 2
#     Edge 13, Type (0, 0), BuildingBlock: ZUJKAS_clean_linker_0, # of connection points: 2
#     Edge 14, Type (0, 0), BuildingBlock: ZUJKAS_clean_linker_0, # of connection points: 2
#     Edge 15, Type (0, 0), BuildingBlock: ZUJKAS_clean_linker_0, # of connection points: 2
# Relax obj value: 0.191
# Max RMSD: 0.206
# Mean RMSD: 0.198
data_MOF--net-snp--node1-INOVEN_clean_sbu_0--edge1-ZUJKAS_clean_linker_0
_symmetry_space_group_name_H-M    P1
_symmetry_Int_Tables_number       1
_symmetry_cell_setting            triclinic
loop_
_symmetry_equiv_pos_as_xyz
'x, y, z'
_cell_length_a     32.838287
_cell_length_b     31.788835
_cell_length_c     43.892291
_cell_angle_alpha  87.337335
_cell_angle_beta   102.47789
_cell_angle_gamma 94.62529
loop_
_atom_site_label
_atom_site_type_symbol
_atom_site_fract_x
_atom_site_fract_y
_atom_site_fract_z
_atom_type_partial_charge
Gd0 Gd 0.26557 0.16971 0.11478 0.0
Gd1 Gd 0.26385 0.0884 0.07956 0.0
C2 C 0.24828 0.07956 0.14989 0.0
C3 C 0.25262 0.22851 0.14969 0.0
C4 C 0.23671 0.22944 0.1786 0.0
C5 C 0.25044 0.26281 0.19893 0.0
C6 C 0.21063 0.19591 0.18736 0.0
C7 C 0.21371 0.22847 0.23717 0.0
C8 C 0.19925 0.19541 0.21637 0.0
C9 C 0.23899 0.26244 0.22785 0.0
C10 C 0.34053 0.14178 0.11359 0.0
C11 C 0.27504 0.17755 0.04455 0.0
C12 C 0.27423 0.02113 0.05231 0.0
C13 C 0.26662 0.01047 1.01905 0.0
C14 C 0.25708 0.96845 1.01012 0.0
C15 C 0.2669 0.04239 0.99585 0.0
C16 C 0.24801 0.99032 0.95504 0.0
C17 C 0.25795 0.03244 0.96425 0.0
C18 C 0.24784 0.95845 0.97848 0.0
C19 C 0.19314 0.13004 0.06366 0.0
O20 O 0.25089 0.12119 0.15025 0.0
O21 O 0.25319 0.05896 0.1255 0.0
O22 O 0.28858 0.21208 0.1529 0.0
O23 O 0.22578 0.21659 0.12436 0.0
O24 O 0.33328 0.18149 0.11087 0.0
O25 O 0.30858 0.11952 0.11731 0.0
O26 O 0.2887 0.13921 0.04932 0.0
O27 O 0.25926 0.19523 0.06569 0.0
O28 O 0.24068 0.02589 0.0631 0.0
O29 O 0.30461 0.05013 0.06176 0.0
O30 O 0.20877 0.11024 0.04427 0.0
O31 O 0.2151 0.1252 0.09077 0.0
H32 H 0.27067 0.2889 0.19266 0.0
H33 H 0.19978 0.16968 0.17208 0.0
H34 H 0.18013 0.16854 0.22284 0.0
H35 H 0.25011 0.28878 0.24298 0.0
H36 H 0.25621 0.9434 0.02762 0.0
H37 H 0.27377 0.07512 1.00216 0.0
H38 H 0.25899 0.05785 0.94707 0.0
H39 H 0.23963 0.92577 0.97241 0.0
Gd40 Gd 0.96605 0.26324 0.69195 0.0
Gd41 Gd 0.04236 0.25985 0.6609 0.0
C42 C 0.05709 0.2587 0.73584 0.0
C43 C 0.90277 0.24872 0.71856 0.0
C44 C 0.89856 0.23563 0.75065 0.0
C45 C 0.86327 0.24507 0.76147 0.0
C46 C 0.92961 0.21359 0.77071 0.0
C47 C 0.8896 0.20978 0.81184 0.0
C48 C 0.92518 0.20079 0.80089 0.0
C49 C 0.8588 0.23233 0.79169 0.0
C50 C 0.00777 0.33814 0.68315 0.0
C51 C 0.9526 0.26331 0.61522 0.0
C52 C 0.10782 0.27023 0.63683 0.0
C53 C 0.11538 0.26523 0.60528 0.0
C54 C 0.15382 0.25217 0.60175 0.0
C55 C 0.08405 0.27207 0.57856 0.0
C56 C 0.12971 0.2531 0.54505 0.0
C57 C 0.09116 0.2662 0.54878 0.0
C58 C 0.16095 0.24615 0.57198 0.0
C59 C -0.00166 0.18549 0.66597 0.0
O60 O 0.0168 0.2479 0.73319 0.0
O61 O 0.07292 0.27061 0.7113 0.0
O62 O 0.92034 0.28654 0.71507 0.0
O63 O 0.91591 0.22058 0.70285 0.0
O64 O 0.99078 0.32927 0.70697 0.0
O65 O -0.00017 0.30812 0.66468 0.0
O66 O 0.99347 0.26955 0.61795 0.0
O67 O 0.93493 0.2594 0.63993 0.0
O68 O 0.09808 0.23533 0.65152 0.0
O69 O 0.08519 0.3012 0.64008 0.0
O70 O 0.01758 0.19562 0.64356 0.0
O71 O 0.006 0.21389 0.68601 0.0
H72 H 0.83905 0.26226 0.74651 0.0
H73 H 0.95718 0.2059 0.76293 0.0
H74 H 0.94933 0.18308 0.81541 0.0
H75 H 0.8313 0.24049 0.79934 0.0
H76 H 0.17826 0.2463 0.62208 0.0
H77 H 0.05403 0.28196 0.58069 0.0
H78 H 0.06654 0.27242 0.52867 0.0
H79 H 0.19076 0.23542 0.57011 0.0
Gd80 Gd 0.81582 0.0151 0.17841 0.0
Gd81 Gd 0.80472 0.93449 0.13767 0.0
C82 C 0.81335 0.92223 0.21125 0.0
C83 C 0.80528 0.07975 0.20869 0.0
C84 C 0.81287 0.09253 0.2416 0.0
C85 C 0.85021 0.08486 0.26303 0.0
C86 C 0.78185 0.11248 0.25182 0.0
C87 C 0.82549 0.11767 0.30431 0.0
C88 C 0.788 0.12482 0.28281 0.0
C89 C 0.85652 0.09748 0.29401 0.0
C90 C 0.88593 0.97406 0.18099 0.0
C91 C 0.82638 0.02795 0.10728 0.0
C92 C 0.80548 0.87908 0.09634 0.0
C93 C 0.82223 0.87591 0.0679 0.0
C94 C 0.82298 0.83621 0.05551 0.0
C95 C 0.8352 0.91208 0.05189 0.0
C96 C 0.84821 0.86886 1.01086 0.0
C97 C 0.84815 0.90864 1.02376 0.0
C98 C 0.83576 0.83267 0.02733 0.0
C99 C 0.73478 0.96379 0.14935 0.0
O100 O 0.80193 0.96138 0.2109 0.0
O101 O 0.82122 0.90552 0.18617 0.0
O102 O 0.83812 0.07693 0.19649 0.0
O103 O 0.77609 0.04921 0.20056 0.0
O104 O 0.87976 0.99577 0.20379 0.0
O105 O 0.85624 0.97879 0.15812 0.0
O106 O 0.82608 0.98631 0.10638 0.0
O107 O 0.81898 0.04708 0.13157 0.0
O108 O 0.77576 0.90488 0.09422 0.0
O109 O 0.83253 0.88097 0.12315 0.0
O110 O 0.73991 0.92391 0.1482 0.0
O111 O 0.76572 0.98539 0.14316 0.0
H112 H 0.8745 0.06909 0.25589 0.0
H113 H 0.75278 0.11867 0.23575 0.0
H114 H 0.76365 0.14069 0.28978 0.0
H115 H 0.88554 0.09102 0.31001 0.0
H116 H 0.81279 0.80789 0.06731 0.0
H117 H 0.83464 0.94306 0.06081 0.0
H118 H 0.85801 0.93722 1.0121 0.0
H119 H 0.8347 0.80155 1.01803 0.0
Gd120 Gd 0.02282 0.82246 0.59051 0.0
Gd121 Gd 0.09798 0.84677 0.56257 0.0
C122 C 0.10455 0.85976 0.63695 0.0
C123 C 0.96232 0.79249 0.6162 0.0
C124 C 0.95341 0.7987 0.64729 0.0
C125 C 0.96504 0.83737 0.66223 0.0
C126 C 0.93391 0.76578 0.66258 0.0
C127 C 0.93697 0.81037 0.70703 0.0
C128 C 0.92587 0.77148 0.69219 0.0
C129 C 0.9567 0.84322 0.69165 0.0
C130 C 0.03189 0.90492 0.57277 0.0
C131 C 0.01414 0.81352 0.51609 0.0
C132 C 0.15828 0.88209 0.53861 0.0
C133 C 0.16368 0.89332 0.50666 0.0
C134 C 0.19673 0.92186 0.50202 0.0
C135 C 0.13586 0.87597 0.48062 0.0
C136 C 0.17401 0.91595 0.4455 0.0
C137 C 0.14095 0.88715 0.45035 0.0
C138 C 0.20191 0.93306 0.47177 0.0
C139 C 0.08826 0.76454 0.57973 0.0
O140 O 0.06931 0.83603 0.63459 0.0
O141 O 0.12006 0.87126 0.61204 0.0
O142 O 0.95974 0.82558 0.59719 0.0
O143 O 0.99489 0.77146 0.61584 0.0
O144 O 0.02217 0.89147 0.59879 0.0
O145 O 0.03731 0.87385 0.55785 0.0
O146 O 0.04869 0.83867 0.51904 0.0
O147 O 0.00079 0.79777 0.54108 0.0
O148 O 0.15454 0.84172 0.54558 0.0
O149 O 0.13193 0.90352 0.54897 0.0
O150 O 0.10115 0.77725 0.55471 0.0
O151 O 0.08298 0.79556 0.59472 0.0
H152 H 0.98071 0.86314 0.65118 0.0
H153 H 0.92488 0.73563 0.6516 0.0
H154 H 0.91042 0.74562 0.70328 0.0
H155 H 0.96626 0.87332 0.70257 0.0
H156 H 0.21861 0.9355 0.52182 0.0
H157 H 0.11013 0.85385 0.48372 0.0
H158 H 0.11857 0.87373 0.43075 0.0
H159 H 0.22804 0.95485 0.469 0.0
H160 H 0.90567 0.92302 0.13997 0.0
H161 H 0.95364 0.94831 0.1068 0.0
H162 H 0.00674 0.04505 0.1725 0.0
H163 H 0.95798 0.02049 0.20538 0.0
H164 H 0.95627 0.07141 0.11037 0.0
H165 H 0.08027 0.96447 0.1029 0.0
H166 H 0.02818 0.94191 0.10305 0.0
H167 H 0.05911 0.96559 0.13757 0.0
C168 C 0.92938 0.94791 0.14833 0.0
C169 C 0.92739 0.97074 0.17457 0.0
C170 C 0.95652 0.96256 0.12919 0.0
C171 C 0.98273 -0.00091 0.13697 0.0
C172 C 0.9861 0.01705 0.1661 0.0
H173 H 0.15127 0.16471 0.10203 0.0
H174 H 0.07969 0.14212 0.10504 0.0
C175 C 0.95869 0.00257 0.18513 0.0
C176 C -0.0002 0.02334 0.11273 0.0
H177 H 0.07872 0.02814 0.07371 0.0
C178 C 0.98282 0.06188 0.10201 0.0
C179 C 0.03306 0.00978 0.10109 0.0
C180 C 0.0515 0.96825 0.11167 0.0
C181 C 0.00093 0.08911 0.08188 0.0
C182 C 0.03671 0.07732 0.07258 0.0
C183 C 0.05104 0.03697 0.08088 0.0
C184 C 0.0661 0.10874 0.0617 0.0
C185 C 0.98323 0.13111 0.07203 0.0
C186 C 0.08035 0.10119 0.03472 0.0
C187 C 0.12124 0.11454 0.03282 0.0
C188 C 0.14803 0.1345 0.05829 0.0
C189 C 0.1313 0.14864 0.08243 0.0
C190 C 0.0902 0.13601 0.084 0.0
H191 H 0.9494 0.12992 0.07232 0.0
H192 H -0.00015 0.15537 0.08855 0.0
H193 H 0.98755 0.14101 0.04825 0.0
H194 H 0.06203 0.08026 1.01728 0.0
H195 H 0.13326 0.10407 1.01355 0.0
H196 H 0.96664 0.90466 0.52317 0.0
H197 H 0.91643 0.95923 0.51153 0.0
H198 H 0.00085 0.04114 0.57613 0.0
H199 H 0.04982 0.98619 0.58866 0.0
H200 H 0.89187 0.97457 0.56863 0.0
H201 H 0.93826 0.12802 0.51652 0.0
H202 H 0.94217 0.07766 0.49994 0.0
H203 H 0.98145 0.09696 0.53244 0.0
C204 C 0.9753 0.93528 0.53349 0.0
C205 C 0.01176 0.94161 0.55689 0.0
C206 C 0.94667 0.9664 0.52671 0.0
C207 C 0.95498 0.00431 0.54272 0.0
C208 C 0.99414 0.01249 0.56293 0.0
H209 H 0.00914 0.1026 0.66921 0.0
H210 H 0.96273 0.05277 0.63514 0.0
C211 C 0.0221 0.98105 0.57033 0.0
C212 C 0.92046 0.02849 0.54737 0.0
H213 H 0.91943 0.12994 0.56755 0.0
C214 C 0.89571 0.00878 0.56713 0.0
C215 C 0.92382 0.0729 0.54452 0.0
C216 C 0.94747 0.09522 0.52191 0.0
C217 C 0.88438 0.03193 0.58999 0.0
C218 C 0.89678 0.07531 0.59177 0.0
C219 C 0.91116 0.09619 0.56672 0.0
C220 C 0.91225 0.09436 0.62244 0.0
C221 C 0.86591 0.00898 0.61517 0.0
C222 C 0.89759 0.13225 0.62894 0.0
C223 C 0.92371 0.16 0.64955 0.0
C224 C 0.96522 0.15099 0.66253 0.0
C225 C 0.97725 0.11035 0.65969 0.0
C226 C 0.95065 0.08189 0.64005 0.0
H227 H 0.84539 0.98096 0.60579 0.0
H228 H 0.89159 -0.00222 0.63386 0.0
H229 H 0.84771 0.03015 0.62565 0.0
H230 H 0.86808 0.14239 0.61558 0.0
H231 H 0.91282 0.19032 0.65174 0.0
H232 H 0.6613 0.92154 0.15616 0.0
H233 H 0.59382 0.9519 0.15218 0.0
H234 H 0.6517 0.07635 0.13955 0.0
H235 H 0.7189 0.04643 0.14361 0.0
H236 H 0.59589 0.072 0.18095 0.0
H237 H 0.52631 0.99665 0.06781 0.0
H238 H 0.54759 0.9612 0.09926 0.0
H239 H 0.5818 -0.0002 0.08421 0.0
C240 C 0.65958 0.95538 0.15285 0.0
C241 C 0.69511 0.98165 0.15006 0.0
C242 C 0.62112 0.97261 0.15043 0.0
C243 C 0.61785 0.01623 0.14509 0.0
C244 C 0.65367 0.04261 0.14356 0.0
H245 H 0.41521 0.18511 0.11099 0.0
H246 H 0.48372 0.15559 0.11841 0.0
C247 C 0.69198 0.02546 0.14593 0.0
C248 C 0.57695 0.03451 0.14 0.0
H249 H 0.48199 0.03557 0.08972 0.0
C250 C 0.57092 0.06412 0.16103 0.0
C251 C 0.54477 0.02428 0.11382 0.0
C252 C 0.55036 0.99403 0.08978 0.0
C253 C 0.53304 0.08329 0.15688 0.0
C254 C 0.50084 0.07297 0.13073 0.0
C255 C 0.50691 0.04342 0.10968 0.0
C256 C 0.45987 0.09117 0.12542 0.0
C257 C 0.5274 0.11365 0.18081 0.0
C258 C 0.42396 0.0645 0.12605 0.0
C259 C 0.38511 0.08114 0.12169 0.0
C260 C 0.3815 0.12474 0.11644 0.0
C261 C 0.41731 0.15141 0.11511 0.0
C262 C 0.45634 0.13467 0.11953 0.0
H263 H 0.55147 0.11116 0.20278 0.0
H264 H 0.53009 0.14643 0.17122 0.0
H265 H 0.49597 0.10788 0.18638 0.0
H266 H 0.4261 0.03083 0.13042 0.0
H267 H 0.35796 0.05986 0.12284 0.0
H268 H 0.01701 0.40965 0.71686 0.0
H269 H 0.03503 0.48189 0.69944 0.0
H270 H 0.05075 0.43509 0.61232 0.0
H271 H 0.03169 0.36324 0.62918 0.0
H272 H 0.10577 0.51921 0.67958 0.0
H273 H 0.96355 0.52151 0.58448 0.0
H274 H 0.96999 0.4813 0.61519 0.0
H275 H 0.99534 0.47861 0.58295 0.0
C276 C 0.0246 0.41483 0.6941 0.0
C277 C 0.02279 0.38096 0.6743 0.0
C278 C 0.0349 0.45601 0.68419 0.0
C279 C 0.04342 0.46384 0.65436 0.0
C280 C 0.04342 0.4298 0.63516 0.0
H281 H 0.09354 0.69358 0.54854 0.0
H282 H 0.08505 0.61994 0.56703 0.0
C283 C 0.03293 0.38873 0.64495 0.0
C284 C 0.05118 0.50769 0.64296 0.0
H285 H 0.01325 0.58009 0.5861 0.0
C286 C 0.08554 0.5326 0.65919 0.0
C287 C 0.02463 0.52501 0.61636 0.0
C288 C 0.98608 0.50042 0.59886 0.0
C289 C 0.0944 0.5743 0.64926 0.0
C290 C 0.06786 0.59155 0.62267 0.0
C291 C 0.03363 0.5666 0.60637 0.0
C292 C 0.07424 0.63588 0.61189 0.0
C293 C 0.13236 0.5994 0.66702 0.0
C294 C 0.07048 0.66901 0.63088 0.0
C295 C 0.07521 0.71087 0.62039 0.0
C296 C 0.08357 0.72027 0.59065 0.0
C297 C 0.08723 0.68711 0.57159 0.0
C298 C 0.08238 0.64517 0.5821 0.0
H299 H 0.15501 0.57865 0.68166 0.0
H300 H 0.14846 0.61878 0.65083 0.0
H301 H 0.12239 0.62108 0.68267 0.0
H302 H 0.06341 0.66247 0.6537 0.0
H303 H 0.07231 0.73587 0.63557 0.0
H304 H 0.07484 0.21942 0.49408 0.0
H305 H 0.08721 0.21078 0.44178 0.0
H306 H 0.21399 0.26351 0.47156 0.0
H307 H 0.2018 0.27302 0.52371 0.0
H308 H 0.11187 0.2739 0.40062 0.0
H309 H 0.22794 0.15299 0.4308 0.0
H310 H 0.19464 0.16506 0.45655 0.0
H311 H 0.24049 0.19897 0.45427 0.0
C312 C 0.10533 0.22944 0.48952 0.0
C313 C 0.13734 0.24689 0.51327 0.0
C314 C 0.11239 0.22421 0.45963 0.0
C315 C 0.15169 0.2359 0.45287 0.0
C316 C 0.18368 0.25337 0.47642 0.0
H317 H 0.26505 0.25157 0.29268 0.0
H318 H 0.24773 0.25186 0.34406 0.0
C319 C 0.17664 0.25875 0.50628 0.0
C320 C 0.15886 0.23139 0.4209 0.0
H321 H 0.22026 0.18549 0.3801 0.0
C322 C 0.13528 0.25427 0.39604 0.0
C323 C 0.18941 0.20575 0.41499 0.0
C324 C 0.21435 0.17895 0.44048 0.0
C325 C 0.14243 0.25337 0.36563 0.0
C326 C 0.17348 0.22826 0.3598 0.0
C327 C 0.19654 0.2048 0.38458 0.0
C328 C 0.18362 0.22719 0.32842 0.0
C329 C 0.11771 0.2805 0.34024 0.0
C330 C 0.15351 0.21263 0.30252 0.0
C331 C 0.16321 0.21277 0.27294 0.0
C332 C 0.20332 0.22733 0.26869 0.0
C333 C 0.23361 0.24099 0.29489 0.0
C334 C 0.22388 0.24084 0.32438 0.0
H335 H 0.10246 0.30518 0.34994 0.0
H336 H 0.13808 0.29612 0.32525 0.0
H337 H 0.09285 0.26033 0.32529 0.0
H338 H 0.12246 0.20119 0.30516 0.0
H339 H 0.13908 0.20212 0.25333 0.0
H340 H 0.81749 0.17924 0.8301 0.0
H341 H 0.80902 0.15432 0.88201 0.0
H342 H 0.94122 0.17968 0.91795 0.0
H343 H 0.94977 0.20633 0.86637 0.0
H344 H 0.84263 0.08829 0.91668 0.0
H345 H 0.89332 0.23481 0.98249 0.0
H346 H 0.88173 0.23453 0.94037 0.0
H347 H 0.93127 0.21873 0.9623 0.0
C348 C 0.84473 0.18036 0.84911 0.0
C349 C 0.88432 0.19512 0.84384 0.0
C350 C 0.83985 0.16575 0.87882 0.0
C351 C 0.87433 0.16562 0.90416 0.0
C352 C 0.91392 0.18023 0.89904 0.0
H353 H 0.88089 0.00834 0.07255 0.0
H354 H 0.89438 0.04362 1.02475 0.0
C355 C 0.91884 0.19495 0.86932 0.0
C356 C 0.86899 0.14826 0.93543 0.0
H357 H 0.88399 0.17183 1.01262 0.0
C358 C 0.85155 0.10669 0.93759 0.0
C359 C 0.88025 0.17226 0.96282 0.0
C360 C 0.89731 0.21769 0.96195 0.0
C361 C 0.84551 0.08833 0.96622 0.0
C362 C 0.85786 0.11188 0.99376 0.0
C363 C 0.8748 0.15366 0.99161 0.0
C364 C 0.85319 0.0934 1.02482 0.0
C365 C 0.82529 0.04397 0.96655 0.0
C366 C 0.8274 0.11092 0.04195 0.0
C367 C 0.81987 0.09088 0.06965 0.0
C368 C 0.83783 0.05286 0.0805 0.0
C369 C 0.86551 0.03686 0.06426 0.0
C370 C 0.8733 0.05702 0.0369 0.0
H371 H 0.80763 0.03478 0.94297 0.0
H372 H 0.84991 0.0215 0.97438 0.0
H373 H 0.80361 0.04062 0.98288 0.0
H374 H 0.81189 0.13925 0.03329 0.0
H375 H 0.79865 0.10407 0.08178 0.0
H376 H 0.9356 0.77209 0.49748 0.0
H377 H 0.89148 0.77128 0.44443 0.0
H378 H 0.98899 0.84534 0.41011 0.0
H379 H 0.03307 0.84493 0.4618 0.0
H380 H 0.85943 0.83411 0.40847 0.0
H381 H 0.95988 0.76051 0.34437 0.0
H382 H 0.96999 0.75881 0.38647 0.0
H383 H 0.98986 0.8034 0.3656 0.0
C384 C 0.9479 0.78728 0.47843 0.0
C385 C 0.9881 0.80828 0.48404 0.0
C386 C 0.92261 0.78696 0.44813 0.0
C387 C 0.93716 0.80745 0.42295 0.0
C388 C 0.97738 0.82797 0.42867 0.0
H389 H 0.82137 0.95346 0.26922 0.0
H390 H 0.84409 0.91785 0.31942 0.0
C391 C 0.00257 0.82801 0.45859 0.0
C392 C 0.90984 0.81109 0.39114 0.0
H393 H 0.91413 0.81176 0.31408 0.0
C394 C 0.87096 0.82827 0.3878 0.0
C395 C 0.92392 0.80242 0.3639 0.0
C396 C 0.96299 0.77979 0.36534 0.0
C397 C 0.84767 0.84019 0.35827 0.0
C398 C 0.86438 0.83631 0.33139 0.0
C399 C 0.9015 0.81584 0.33454 0.0
C400 C 0.84628 0.85651 0.30052 0.0
C401 C 0.80563 0.85727 0.35641 0.0
C402 C 0.84075 0.83449 0.27264 0.0
C403 C 0.82867 0.85528 0.24353 0.0
C404 C 0.82154 0.89846 0.24169 0.0
C405 C 0.8259 0.92004 0.26962 0.0
C406 C 0.83861 0.8995 0.29856 0.0
H407 H 0.79021 0.84217 0.37474 0.0
H408 H 0.81003 0.89165 0.36062 0.0
H409 H 0.78451 0.85206 0.33328 0.0
H410 H 0.84673 0.80141 0.27337 0.0
H411 H 0.82575 0.83773 0.22251 0.0
H412 H 0.16454 0.92554 0.65334 0.0
H413 H 0.1936 0.95143 0.7061 0.0
H414 H 0.122 0.85095 0.74467 0.0
H415 H 0.09238 0.82577 0.69253 0.0
H416 H 0.11236 0.92513 0.76711 0.0
H417 H 0.28156 0.90711 0.77723 0.0
H418 H 0.25792 0.93857 0.74405 0.0
H419 H 0.24182 0.88335 0.7466 0.0
C420 C 0.15552 0.90868 0.67314 0.0
C421 C 0.12606 0.87365 0.66864 0.0
C422 C 0.17225 0.92342 0.70333 0.0
C423 C 0.16026 0.90298 0.72951 0.0
C424 C 0.13171 0.86739 0.72495 0.0
H425 H 0.26746 0.92087 0.92725 0.0
H426 H 0.24652 0.90221 0.87239 0.0
C427 C 0.1148 0.85298 0.69499 0.0
C428 C 0.17525 0.91938 0.76161 0.0
H429 H 0.26252 0.94028 0.81882 0.0
C430 C 0.14524 0.92854 0.77836 0.0
C431 C 0.2181 0.92344 0.77648 0.0
C432 C 0.25177 0.91227 0.76034 0.0
C433 C 0.1567 0.94109 0.80951 0.0
C434 C 0.19958 0.94585 0.82425 0.0
C435 C 0.22969 0.937 0.80747 0.0
C436 C 0.21359 0.95835 0.85743 0.0
C437 C 0.12257 0.94762 0.82662 0.0
C438 C 0.20268 0.99647 0.86735 0.0
C439 C 0.214 0.00693 0.89885 0.0
C440 C 0.23705 0.97978 0.92121 0.0
C441 C 0.24901 0.9422 0.91096 0.0
C442 C 0.23742 0.93165 0.87947 0.0
H443 H 0.09213 0.93172 0.81507 0.0
H444 H 0.13067 0.93546 0.85115 0.0
H445 H 0.11842 0.98189 0.82689 0.0
H446 H 0.18504 0.01805 0.85075 0.0
H447 H 0.20386 0.03596 0.90572 0.0
H448 H 0.89192 0.80757 0.99274 0.0
H449 H 0.90776 0.79944 0.94149 0.0
H450 H 0.84771 0.91327 0.90771 0.0
H451 H 0.8309 0.92129 0.95865 0.0
H452 H 0.84875 0.79193 0.88329 0.0
H453 H 0.9622 0.93117 0.8822 0.0
H454 H 0.94828 0.90951 0.91767 0.0
H455 H 0.91324 0.94176 0.89123 0.0
C456 C 0.88185 0.83086 0.97444 0.0
C457 C 0.85999 0.86508 0.98003 0.0
C458 C 0.89119 0.82626 0.94516 0.0
C459 C 0.87933 0.85595 0.92081 0.0
C460 C 0.8579 0.89037 0.92629 0.0
H461 H 0.90559 0.87905 0.72698 0.0
H462 H 0.89108 0.88948 0.77842 0.0
C463 C 0.84838 0.89493 0.95554 0.0
C464 C 0.88787 0.84985 0.88938 0.0
H465 H 0.94122 0.89353 0.83546 0.0
C466 C 0.8691 0.81405 0.87286 0.0
C467 C 0.91414 0.87889 0.87567 0.0
C468 C 0.93596 0.91737 0.89262 0.0
C469 C 0.87534 0.80677 0.84288 0.0
C470 C 0.90213 0.83548 0.82928 0.0
C471 C 0.92079 0.87141 0.84581 0.0
C472 C 0.91112 0.8289 0.79797 0.0
C473 C 0.85218 0.76895 0.82576 0.0
C474 C 0.92777 0.79162 0.79176 0.0
C475 C 0.93582 0.78545 0.76226 0.0
C476 C 0.9281 0.81675 0.7384 0.0
C477 C 0.91216 0.85439 0.74485 0.0
C478 C 0.90376 0.86037 0.77427 0.0
H479 H 0.82398 0.75798 0.83489 0.0
H480 H 0.84234 0.77618 0.80036 0.0
H481 H 0.87301 0.74256 0.82905 0.0
H482 H 0.93494 0.76734 0.80983 0.0
H483 H 0.94882 0.75645 0.7583 0.0
H484 H 0.25099 0.11228 0.20654 0.0
H485 H 0.23464 0.07672 0.25298 0.0
H486 H 0.20883 0.95896 0.20511 0.0
H487 H 0.22578 0.99462 0.15797 0.0
H488 H 0.16031 0.03574 0.25994 0.0
H489 H 0.28801 0.92604 0.28665 0.0
H490 H 0.28829 0.97006 0.25917 0.0
H491 H 0.25496 0.92318 0.24828 0.0
C492 C 0.24195 0.07877 0.20565 0.0
C493 C 0.23967 0.05636 0.17832 0.0
C494 C 0.23261 0.05844 0.2324 0.0
C495 C 0.2208 0.01509 0.23274 0.0
C496 C 0.21858 0.99232 0.20561 0.0
H497 H 0.16382 0.86575 0.39461 0.0
H498 H 0.17162 0.88696 0.34164 0.0
C499 C 0.22814 0.01275 0.17864 0.0
C500 C 0.20998 0.99485 0.26153 0.0
H501 H 0.24227 0.92422 0.32137 0.0
C502 C 0.17806 0.01112 0.27323 0.0
C503 C 0.23295 0.96256 0.27883 0.0
C504 C 0.26819 0.94452 0.26784 0.0
C505 C 0.16918 -0.00318 0.30201 0.0
C506 C 0.19324 0.96577 0.31992 0.0
C507 C 0.22402 0.9482 0.30769 0.0
C508 C 0.18827 0.95275 0.35201 0.0
C509 C 0.13417 0.01529 0.31305 0.0
C510 C 0.19552 0.98255 0.37557 0.0
C511 C 0.1909 0.97062 0.40578 0.0
C512 C 0.17914 0.92848 0.41325 0.0
C513 C 0.17232 0.89857 0.38963 0.0
C514 C 0.17703 0.91057 0.35937 0.0
H515 H 0.1113 0.02866 0.29325 0.0
H516 H 0.11734 0.99116 0.32582 0.0
H517 H 0.14742 0.04125 0.32913 0.0
H518 H 0.20495 0.01515 0.37061 0.0
H519 H 0.19607 0.9946 0.42322 0.0
H520 H 0.14212 0.27586 0.75059 0.0
H521 H 0.18932 0.26645 0.80142 0.0
H522 H 0.08414 0.22497 0.84219 0.0
H523 H 0.03672 0.23383 0.79155 0.0
H524 H 0.19184 0.30258 0.8593 0.0
H525 H 0.16254 0.1285 0.8651 0.0
H526 H 0.14748 0.15941 0.82945 0.0
H527 H 0.11557 0.15596 0.85814 0.0
C528 C 0.12895 0.2648 0.77036 0.0
C529 C 0.0856 0.25526 0.76689 0.0
C530 C 0.15602 0.25949 0.79939 0.0
C531 C 0.14029 0.24433 0.82541 0.0
C532 C 0.09699 0.23589 0.82224 0.0
H533 H 0.23233 0.24657 1.02169 0.0
H534 H 0.20755 0.26641 0.96697 0.0
C535 C 0.0699 0.24119 0.79327 0.0
C536 C 0.16901 0.23715 0.85592 0.0
H537 H 0.19721 0.16133 0.91242 0.0
C538 C 0.19341 0.27165 0.87083 0.0
C539 C 0.17168 0.19662 0.8706 0.0
C540 C 0.14826 0.1579 0.85489 0.0
C541 C 0.21897 0.267 0.90074 0.0
C542 C 0.21958 0.22693 0.91622 0.0
C543 C 0.1966 0.19213 0.90066 0.0
C544 C 0.2412 0.22052 0.94929 0.0
C545 C 0.24491 0.30503 0.91548 0.0
C546 C 0.26908 0.18863 0.95772 0.0
C547 C 0.28313 0.17695 0.98911 0.0
C548 C 0.26928 0.19674 1.01264 0.0
C549 C 0.2438 0.23073 1.00424 0.0
C550 C 0.22967 0.24229 0.97285 0.0
H551 H 0.25218 0.32845 0.89746 0.0
H552 H 0.227 0.32067 0.9299 0.0
H553 H 0.2747 0.29596 0.93073 0.0
H554 H 0.27837 0.17137 0.93992 0.0
H555 H 0.30293 0.15081 0.99473 0.0
H556 H 0.89644 0.15676 0.33954 0.0
H557 H 0.90702 0.18214 0.39272 0.0
H558 H 0.7808 0.13723 0.3965 0.0
H559 H 0.77002 0.1113 0.34337 0.0
H560 H 0.8536 0.24271 0.41275 0.0
H561 H 0.85648 0.08854 0.47879 0.0
H562 H 0.86943 0.09402 0.44076 0.0
H563 H 0.8161 0.09477 0.44424 0.0
C564 C 0.87107 0.15173 0.35179 0.0
C565 C 0.83238 0.13189 0.33713 0.0
C566 C 0.87711 0.16647 0.38214 0.0
C567 C 0.84483 0.16128 0.39869 0.0
C568 C 0.80629 0.14118 0.38431 0.0
H569 H 0.87364 0.22352 0.59698 0.0
H570 H 0.83948 0.20152 0.54401 0.0
C571 C 0.80009 0.1267 0.35383 0.0
C572 C 0.85123 0.17851 0.43046 0.0
H573 H 0.86639 0.15003 0.50792 0.0
C574 C 0.8563 0.22245 0.43357 0.0
C575 C 0.85379 0.15211 0.45755 0.0
C576 C 0.84887 0.10469 0.45547 0.0
C577 C 0.86517 0.2407 0.46306 0.0
C578 C 0.87037 0.21428 0.49034 0.0
C579 C 0.86301 0.17035 0.48713 0.0
C580 C 0.88797 0.23119 0.52204 0.0
C581 C 0.86878 0.28822 0.46454 0.0
C582 C 0.92632 0.25544 0.52744 0.0
C583 C 0.9455 0.26832 0.55741 0.0
C584 C 0.92733 0.2567 0.58311 0.0
C585 C 0.88825 0.23346 0.57771 0.0
C586 C 0.86887 0.22059 0.54745 0.0
H587 H 0.84828 0.30261 0.44384 0.0
H588 H 0.86033 0.29893 0.48594 0.0
H589 H 0.90145 0.30015 0.46442 0.0
H590 H 0.94249 0.26307 0.50863 0.0
H591 H 0.97562 0.28604 0.56056 0.0
loop_
_geom_bond_atom_site_label_1
_geom_bond_atom_site_label_2
_geom_bond_distance
_geom_bond_site_symmetry_2
_ccdc_geom_bond_type
Gd0 C3 2.818 . S
Gd0 O20 2.377 . S
Gd0 O22 2.448 . S
Gd0 O23 2.506 . S
Gd0 O24 2.435 . S
Gd0 O25 2.717 . S
Gd0 O27 2.395 . S
Gd0 O31 2.327 . S
Gd1 C12 2.818 1_554 S
Gd1 O21 2.395 . S
Gd1 O25 2.327 . S
Gd1 O26 2.377 . S
Gd1 O28 2.447 1_545 S
Gd1 O29 2.506 . S
Gd1 O30 2.435 . S
Gd1 O31 2.717 . S
C2 O20 1.240 . S
C2 O21 1.240 . S
C3 Gd0 2.818 . S
C3 C4 1.510 . S
C3 O22 1.249 . S
C3 O23 1.252 . S
C4 C3 1.510 . S
C4 C5 1.404 . S
C4 C6 1.352 . S
C5 C4 1.404 . S
C5 C9 1.389 . S
C5 H32 0.930 . S
C6 C4 1.352 . S
C6 C8 1.374 . S
C6 H33 0.931 . S
C7 C8 1.359 . S
C7 C9 1.364 . S
C8 C6 1.374 . S
C8 C7 1.359 . S
C8 H34 0.931 . S
C9 C5 1.389 . S
C9 C7 1.364 . S
C9 H35 0.931 . S
C10 O24 1.256 . S
C10 O25 1.257 . S
C11 O26 1.240 . S
C11 O27 1.240 . S
C12 Gd1 2.818 1_556 S
C12 C13 1.510 1_545 S
C12 O28 1.249 1_546 S
C12 O29 1.252 1_556 S
C13 C12 1.510 1_565 S
C13 C14 1.404 . S
C13 C15 1.352 1_565 S
C14 C13 1.404 . S
C14 C18 1.389 . S
C14 H36 0.930 . S
C15 C13 1.352 1_545 S
C15 C17 1.374 1_545 S
C15 H37 0.931 . S
C16 C17 1.359 . S
C16 C18 1.364 . S
C17 C15 1.374 1_565 S
C17 C16 1.359 . S
C17 H38 0.931 . S
C18 C14 1.389 . S
C18 C16 1.364 . S
C18 H39 0.931 . S
C19 O30 1.256 . S
C19 O31 1.257 . S
O20 Gd0 2.377 . S
O20 C2 1.240 . S
O21 Gd1 2.395 . S
O21 C2 1.240 . S
O22 Gd0 2.448 . S
O22 C3 1.249 . S
O23 Gd0 2.506 . S
O23 C3 1.252 . S
O24 Gd0 2.435 . S
O24 C10 1.256 . S
O25 Gd0 2.717 . S
O25 Gd1 2.327 . S
O25 C10 1.257 . S
O26 Gd1 2.377 . S
O26 C11 1.240 . S
O27 Gd0 2.395 . S
O27 C11 1.240 . S
O28 Gd1 2.447 1_565 S
O28 C12 1.249 1_564 S
O29 Gd1 2.506 . S
O29 C12 1.252 1_554 S
O30 Gd1 2.435 . S
O30 C19 1.256 . S
O31 Gd0 2.327 . S
O31 Gd1 2.717 . S
O31 C19 1.257 . S
H32 C5 0.930 . S
H33 C6 0.931 . S
H34 C8 0.931 . S
H35 C9 0.931 . S
H36 C14 0.930 . S
H37 C15 0.931 . S
H38 C17 0.931 . S
H39 C18 0.931 . S
Gd40 C43 2.818 . S
Gd40 O60 2.377 1_655 S
Gd40 O62 2.448 . S
Gd40 O63 2.506 . S
Gd40 O64 2.435 . S
Gd40 O65 2.717 1_655 S
Gd40 O67 2.395 . S
Gd40 O71 2.327 1_655 S
Gd41 C52 2.818 . S
Gd41 O61 2.395 . S
Gd41 O65 2.327 . S
Gd41 O66 2.377 . S
Gd41 O68 2.448 . S
Gd41 O69 2.506 . S
Gd41 O70 2.435 . S
Gd41 O71 2.717 . S
C42 O60 1.240 . S
C42 O61 1.240 . S
C43 Gd40 2.818 . S
C43 C44 1.510 . S
C43 O62 1.249 . S
C43 O63 1.252 . S
C44 C43 1.510 . S
C44 C45 1.404 . S
C44 C46 1.352 . S
C45 C44 1.404 . S
C45 C49 1.389 . S
C45 H72 0.930 . S
C46 C44 1.352 . S
C46 C48 1.374 . S
C46 H73 0.931 . S
C47 C48 1.359 . S
C47 C49 1.364 . S
C48 C46 1.374 . S
C48 C47 1.359 . S
C48 H74 0.931 . S
C49 C45 1.389 . S
C49 C47 1.364 . S
C49 H75 0.931 . S
C50 O64 1.256 1_455 S
C50 O65 1.257 . S
C51 O66 1.240 1_655 S
C51 O67 1.240 . S
C52 Gd41 2.818 . S
C52 C53 1.510 . S
C52 O68 1.249 . S
C52 O69 1.252 . S
C53 C52 1.510 . S
C53 C54 1.404 . S
C53 C55 1.352 . S
C54 C53 1.404 . S
C54 C58 1.389 . S
C54 H76 0.930 . S
C55 C53 1.352 . S
C55 C57 1.374 . S
C55 H77 0.931 . S
C56 C57 1.359 . S
C56 C58 1.364 . S
C57 C55 1.374 . S
C57 C56 1.359 . S
C57 H78 0.931 . S
C58 C54 1.389 . S
C58 C56 1.364 . S
C58 H79 0.931 . S
C59 O70 1.256 . S
C59 O71 1.257 . S
O60 Gd40 2.377 1_455 S
O60 C42 1.240 . S
O61 Gd41 2.395 . S
O61 C42 1.240 . S
O62 Gd40 2.448 . S
O62 C43 1.249 . S
O63 Gd40 2.506 . S
O63 C43 1.252 . S
O64 Gd40 2.435 . S
O64 C50 1.256 1_655 S
O65 Gd40 2.717 1_455 S
O65 Gd41 2.327 . S
O65 C50 1.257 . S
O66 Gd41 2.377 . S
O66 C51 1.240 1_455 S
O67 Gd40 2.395 . S
O67 C51 1.240 . S
O68 Gd41 2.448 . S
O68 C52 1.249 . S
O69 Gd41 2.506 . S
O69 C52 1.252 . S
O70 Gd41 2.435 . S
O70 C59 1.256 . S
O71 Gd40 2.327 1_455 S
O71 Gd41 2.717 . S
O71 C59 1.257 . S
H72 C45 0.930 . S
H73 C46 0.931 . S
H74 C48 0.931 . S
H75 C49 0.931 . S
H76 C54 0.930 . S
H77 C55 0.931 . S
H78 C57 0.931 . S
H79 C58 0.931 . S
Gd80 C83 2.818 . S
Gd80 O100 2.377 . S
Gd80 O102 2.448 . S
Gd80 O103 2.506 . S
Gd80 O104 2.435 . S
Gd80 O105 2.717 . S
Gd80 O107 2.395 . S
Gd80 O111 2.327 . S
Gd81 C92 2.818 . S
Gd81 O101 2.395 . S
Gd81 O105 2.327 1_565 S
Gd81 O106 2.377 1_565 S
Gd81 O108 2.448 . S
Gd81 O109 2.506 . S
Gd81 O110 2.435 . S
Gd81 O111 2.717 1_565 S
C82 O100 1.240 1_565 S
C82 O101 1.240 . S
C83 Gd80 2.818 . S
C83 C84 1.510 . S
C83 O102 1.249 . S
C83 O103 1.252 . S
C84 C83 1.510 . S
C84 C85 1.404 . S
C84 C86 1.352 . S
C85 C84 1.404 . S
C85 C89 1.389 . S
C85 H112 0.930 . S
C86 C84 1.352 . S
C86 C88 1.374 . S
C86 H113 0.931 . S
C87 C88 1.359 . S
C87 C89 1.364 . S
C88 C86 1.374 . S
C88 C87 1.359 . S
C88 H114 0.931 . S
C89 C85 1.389 . S
C89 C87 1.364 . S
C89 H115 0.931 . S
C90 O104 1.256 . S
C90 O105 1.257 . S
C91 O106 1.240 . S
C91 O107 1.240 . S
C92 Gd81 2.818 . S
C92 C93 1.510 . S
C92 O108 1.249 . S
C92 O109 1.252 . S
C93 C92 1.510 . S
C93 C94 1.404 1_554 S
C93 C95 1.352 1_554 S
C94 C93 1.404 1_556 S
C94 C98 1.389 . S
C94 H116 0.930 1_556 S
C95 C93 1.352 1_556 S
C95 C97 1.374 . S
C95 H117 0.931 1_556 S
C96 C97 1.359 . S
C96 C98 1.364 . S
C97 C95 1.374 . S
C97 C96 1.359 . S
C97 H118 0.931 . S
C98 C94 1.389 . S
C98 C96 1.364 . S
C98 H119 0.931 . S
C99 O110 1.256 1_545 S
C99 O111 1.257 . S
O100 Gd80 2.377 . S
O100 C82 1.240 1_545 S
O101 Gd81 2.395 . S
O101 C82 1.240 . S
O102 Gd80 2.448 . S
O102 C83 1.249 . S
O103 Gd80 2.506 . S
O103 C83 1.252 . S
O104 Gd80 2.435 . S
O104 C90 1.256 . S
O105 Gd80 2.717 . S
O105 Gd81 2.327 1_545 S
O105 C90 1.257 . S
O106 Gd81 2.377 1_545 S
O106 C91 1.240 . S
O107 Gd80 2.395 . S
O107 C91 1.240 . S
O108 Gd81 2.448 . S
O108 C92 1.249 . S
O109 Gd81 2.506 . S
O109 C92 1.252 . S
O110 Gd81 2.435 . S
O110 C99 1.256 1_565 S
O111 Gd80 2.327 . S
O111 Gd81 2.717 1_545 S
O111 C99 1.257 . S
H112 C85 0.930 . S
H113 C86 0.931 . S
H114 C88 0.931 . S
H115 C89 0.931 . S
H116 C94 0.930 1_554 S
H117 C95 0.931 1_554 S
H118 C97 0.931 . S
H119 C98 0.931 . S
Gd120 C123 2.818 . S
Gd120 O140 2.377 1_655 S
Gd120 O142 2.448 . S
Gd120 O143 2.506 . S
Gd120 O144 2.435 . S
Gd120 O145 2.717 1_655 S
Gd120 O147 2.395 . S
Gd120 O151 2.327 1_655 S
Gd121 C132 2.818 . S
Gd121 O141 2.395 . S
Gd121 O145 2.327 . S
Gd121 O146 2.377 . S
Gd121 O148 2.448 . S
Gd121 O149 2.506 . S
Gd121 O150 2.435 . S
Gd121 O151 2.717 . S
C122 O140 1.240 . S
C122 O141 1.240 . S
C123 Gd120 2.818 . S
C123 C124 1.510 . S
C123 O142 1.249 . S
C123 O143 1.252 . S
C124 C123 1.510 . S
C124 C125 1.404 . S
C124 C126 1.352 . S
C125 C124 1.404 . S
C125 C129 1.389 . S
C125 H152 0.930 . S
C126 C124 1.352 . S
C126 C128 1.374 . S
C126 H153 0.931 . S
C127 C128 1.359 . S
C127 C129 1.364 . S
C128 C126 1.374 . S
C128 C127 1.359 . S
C128 H154 0.931 . S
C129 C125 1.389 . S
C129 C127 1.364 . S
C129 H155 0.931 . S
C130 O144 1.256 1_455 S
C130 O145 1.257 . S
C131 O146 1.240 1_655 S
C131 O147 1.240 . S
C132 Gd121 2.818 . S
C132 C133 1.510 . S
C132 O148 1.249 . S
C132 O149 1.252 . S
C133 C132 1.510 . S
C133 C134 1.404 . S
C133 C135 1.352 . S
C134 C133 1.404 . S
C134 C138 1.389 . S
C134 H156 0.930 . S
C135 C133 1.352 . S
C135 C137 1.374 . S
C135 H157 0.931 . S
C136 C137 1.359 . S
C136 C138 1.364 . S
C137 C135 1.374 . S
C137 C136 1.359 . S
C137 H158 0.931 . S
C138 C134 1.389 . S
C138 C136 1.364 . S
C138 H159 0.931 . S
C139 O150 1.256 . S
C139 O151 1.257 . S
O140 Gd120 2.377 1_455 S
O140 C122 1.240 . S
O141 Gd121 2.395 . S
O141 C122 1.240 . S
O142 Gd120 2.448 . S
O142 C123 1.249 . S
O143 Gd120 2.506 . S
O143 C123 1.252 . S
O144 Gd120 2.435 . S
O144 C130 1.256 1_655 S
O145 Gd120 2.717 1_455 S
O145 Gd121 2.327 . S
O145 C130 1.257 . S
O146 Gd121 2.377 . S
O146 C131 1.240 1_455 S
O147 Gd120 2.395 . S
O147 C131 1.240 . S
O148 Gd121 2.448 . S
O148 C132 1.249 . S
O149 Gd121 2.506 . S
O149 C132 1.252 . S
O150 Gd121 2.435 . S
O150 C139 1.256 . S
O151 Gd120 2.327 1_455 S
O151 Gd121 2.717 . S
O151 C139 1.257 . S
H152 C125 0.930 . S
H153 C126 0.931 . S
H154 C128 0.931 . S
H155 C129 0.931 . S
H156 C134 0.930 . S
H157 C135 0.931 . S
H158 C137 0.931 . S
H159 C138 0.931 . S
H160 C168 0.929 . S
H161 C170 0.930 . S
H162 C172 0.930 . S
H163 C175 0.929 . S
H164 C178 0.930 . S
H165 C180 0.960 . S
H166 C180 0.960 . S
H167 C180 0.960 . S
C168 H160 0.929 . S
C168 C169 1.377 . S
C168 C170 1.384 . S
C169 C168 1.377 . S
C169 C175 1.390 . S
C170 H161 0.930 . S
C170 C168 1.384 . S
C170 C171 1.372 . S
C171 C170 1.372 . S
C171 C172 1.400 . S
C171 C176 1.490 . S
C172 H162 0.930 . S
C172 C171 1.400 . S
C172 C175 1.386 . S
H173 C189 0.930 . S
H174 C190 0.931 . S
C175 H163 0.929 . S
C175 C169 1.390 . S
C175 C172 1.386 . S
C176 C171 1.490 . S
C176 C178 1.395 . S
C176 C179 1.403 1_655 S
H177 C183 0.930 . S
C178 H164 0.930 . S
C178 C176 1.395 . S
C178 C181 1.403 1_655 S
C179 C176 1.403 1_455 S
C179 C180 1.524 1_545 S
C179 C183 1.400 . S
C180 H165 0.960 . S
C180 H166 0.960 . S
C180 H167 0.960 . S
C180 C179 1.524 1_565 S
C181 C178 1.403 1_455 S
C181 C182 1.392 . S
C181 C185 1.495 . S
C182 C181 1.392 . S
C182 C183 1.385 . S
C182 C184 1.478 . S
C183 H177 0.930 . S
C183 C179 1.400 . S
C183 C182 1.385 . S
C184 C182 1.478 . S
C184 C186 1.381 . S
C184 C190 1.383 . S
C185 C181 1.495 . S
C185 H191 0.959 . S
C185 H192 0.961 . S
C185 H193 0.960 . S
C186 C184 1.381 . S
C186 C187 1.394 . S
C186 H194 0.930 . S
C187 C186 1.394 . S
C187 C188 1.383 . S
C187 H195 0.929 . S
C188 C187 1.383 . S
C188 C189 1.377 . S
C189 H173 0.930 . S
C189 C188 1.377 . S
C189 C190 1.379 . S
C190 H174 0.931 . S
C190 C184 1.383 . S
C190 C189 1.379 . S
H191 C185 0.959 . S
H192 C185 0.961 . S
H193 C185 0.960 . S
H194 C186 0.930 . S
H195 C187 0.929 . S
H196 C204 0.929 . S
H197 C206 0.948 . S
H198 C208 0.930 . S
H199 C211 0.929 . S
H200 C214 0.934 . S
H201 C216 0.961 . S
H202 C216 0.960 . S
H203 C216 0.960 . S
C204 H196 0.929 . S
C204 C205 1.377 . S
C204 C206 1.384 . S
C205 C204 1.377 . S
C205 C211 1.390 . S
C206 H197 0.948 . S
C206 C204 1.384 . S
C206 C207 1.372 . S
C207 C206 1.372 . S
C207 C208 1.400 . S
C207 C212 1.490 1_565 S
C208 H198 0.930 . S
C208 C207 1.400 . S
C208 C211 1.386 . S
H209 C225 0.930 1_655 S
H210 C226 0.931 1_655 S
C211 H199 0.929 . S
C211 C205 1.390 . S
C211 C208 1.386 . S
C212 C207 1.490 1_545 S
C212 C214 1.395 . S
C212 C215 1.403 . S
H213 C219 0.930 . S
C214 H200 0.934 . S
C214 C212 1.395 . S
C214 C217 1.403 . S
C215 C212 1.403 . S
C215 C216 1.524 1_545 S
C215 C219 1.400 . S
C216 H201 0.961 . S
C216 H202 0.960 . S
C216 H203 0.960 . S
C216 C215 1.524 1_565 S
C217 C214 1.403 . S
C217 C218 1.392 . S
C217 C221 1.495 1_455 S
C218 C217 1.392 . S
C218 C219 1.385 . S
C218 C220 1.478 . S
C219 H213 0.930 . S
C219 C215 1.400 . S
C219 C218 1.385 . S
C220 C218 1.478 . S
C220 C222 1.381 . S
C220 C226 1.383 . S
C221 C217 1.495 1_655 S
C221 H227 0.959 . S
C221 H228 0.961 . S
C221 H229 0.960 1_655 S
C222 C220 1.381 . S
C222 C223 1.394 . S
C222 H230 0.930 . S
C223 C222 1.394 . S
C223 C224 1.383 . S
C223 H231 0.929 . S
C224 C223 1.383 . S
C224 C225 1.377 . S
C225 H209 0.930 1_455 S
C225 C224 1.377 . S
C225 C226 1.379 . S
C226 H210 0.931 1_455 S
C226 C220 1.383 . S
C226 C225 1.379 . S
H227 C221 0.959 . S
H228 C221 0.961 . S
H229 C221 0.960 1_455 S
H230 C222 0.930 . S
H231 C223 0.929 . S
H232 C240 0.929 . S
H233 C242 0.925 1_565 S
H234 C244 0.930 . S
H235 C247 0.929 . S
H236 C250 0.930 . S
H237 C252 0.960 . S
H238 C252 0.960 1_565 S
H239 C252 0.960 . S
C240 H232 0.929 . S
C240 C241 1.377 1_565 S
C240 C242 1.381 1_565 S
C241 C240 1.377 1_545 S
C241 C247 1.390 . S
C242 H233 0.925 1_545 S
C242 C240 1.381 1_545 S
C242 C243 1.380 . S
C243 C242 1.380 . S
C243 C244 1.400 . S
C243 C248 1.490 . S
C244 H234 0.930 . S
C244 C243 1.400 . S
C244 C247 1.386 . S
H245 C261 0.930 . S
H246 C262 0.931 . S
C247 H235 0.929 . S
C247 C241 1.390 . S
C247 C244 1.386 . S
C248 C243 1.490 . S
C248 C250 1.395 . S
C248 C251 1.403 . S
H249 C255 0.930 . S
C250 H236 0.930 . S
C250 C248 1.395 . S
C250 C253 1.403 . S
C251 C248 1.403 . S
C251 C252 1.524 . S
C251 C255 1.400 . S
C252 H237 0.960 . S
C252 H238 0.960 1_545 S
C252 H239 0.960 . S
C252 C251 1.524 . S
C253 C250 1.403 . S
C253 C254 1.392 . S
C253 C257 1.495 . S
C254 C253 1.392 . S
C254 C255 1.385 . S
C254 C256 1.478 . S
C255 H249 0.930 . S
C255 C251 1.400 . S
C255 C254 1.385 . S
C256 C254 1.478 . S
C256 C258 1.381 . S
C256 C262 1.383 . S
C257 C253 1.495 . S
C257 H263 0.959 . S
C257 H264 0.961 . S
C257 H265 0.960 . S
C258 C256 1.381 . S
C258 C259 1.394 . S
C258 H266 0.930 . S
C259 C258 1.394 . S
C259 C260 1.383 . S
C259 H267 0.929 . S
C260 C259 1.383 . S
C260 C261 1.377 . S
C261 H245 0.930 . S
C261 C260 1.377 . S
C261 C262 1.379 . S
C262 H246 0.931 . S
C262 C256 1.383 . S
C262 C261 1.379 . S
H263 C257 0.959 . S
H264 C257 0.961 . S
H265 C257 0.960 . S
H266 C258 0.930 . S
H267 C259 0.929 . S
H268 C276 0.929 . S
H269 C278 0.930 . S
H270 C280 0.930 . S
H271 C283 0.929 . S
H272 C286 0.930 . S
H273 C288 0.960 . S
H274 C288 0.960 . S
H275 C288 0.960 . S
C276 H268 0.929 . S
C276 C277 1.377 . S
C276 C278 1.384 . S
C277 C276 1.377 . S
C277 C283 1.390 . S
C278 H269 0.930 . S
C278 C276 1.384 . S
C278 C279 1.372 . S
C279 C278 1.372 . S
C279 C280 1.400 . S
C279 C284 1.490 . S
C280 H270 0.930 . S
C280 C279 1.400 . S
C280 C283 1.386 . S
H281 C297 0.930 . S
H282 C298 0.931 . S
C283 H271 0.929 . S
C283 C277 1.390 . S
C283 C280 1.386 . S
C284 C279 1.490 . S
C284 C286 1.395 . S
C284 C287 1.418 . S
H285 C291 0.930 1_655 S
C286 H272 0.930 . S
C286 C284 1.395 . S
C286 C289 1.403 . S
C287 C284 1.418 . S
C287 C288 1.507 1_455 S
C287 C291 1.402 . S
C288 H273 0.960 . S
C288 H274 0.960 . S
C288 H275 0.960 . S
C288 C287 1.507 1_655 S
C289 C286 1.403 . S
C289 C290 1.392 . S
C289 C293 1.495 . S
C290 C289 1.392 . S
C290 C291 1.385 . S
C290 C292 1.478 . S
C291 H285 0.930 1_455 S
C291 C287 1.402 . S
C291 C290 1.385 . S
C292 C290 1.478 . S
C292 C294 1.381 . S
C292 C298 1.383 . S
C293 C289 1.495 . S
C293 H299 0.959 . S
C293 H300 0.961 . S
C293 H301 0.960 . S
C294 C292 1.381 . S
C294 C295 1.394 . S
C294 H302 0.930 . S
C295 C294 1.394 . S
C295 C296 1.383 . S
C295 H303 0.929 . S
C296 C295 1.383 . S
C296 C297 1.377 . S
C297 H281 0.930 . S
C297 C296 1.377 . S
C297 C298 1.379 . S
C298 H282 0.931 . S
C298 C292 1.383 . S
C298 C297 1.379 . S
H299 C293 0.959 . S
H300 C293 0.961 . S
H301 C293 0.960 . S
H302 C294 0.930 . S
H303 C295 0.929 . S
H304 C312 0.929 . S
H305 C314 0.930 . S
H306 C316 0.930 . S
H307 C319 0.929 . S
H308 C322 0.930 . S
H309 C324 0.960 . S
H310 C324 0.960 . S
H311 C324 0.960 . S
C312 H304 0.929 . S
C312 C313 1.377 . S
C312 C314 1.384 . S
C313 C312 1.377 . S
C313 C319 1.390 . S
C314 H305 0.930 . S
C314 C312 1.384 . S
C314 C315 1.372 . S
C315 C314 1.372 . S
C315 C316 1.400 . S
C315 C320 1.490 . S
C316 H306 0.930 . S
C316 C315 1.400 . S
C316 C319 1.386 . S
H317 C333 0.930 . S
H318 C334 0.931 . S
C319 H307 0.929 . S
C319 C313 1.390 . S
C319 C316 1.386 . S
C320 C315 1.490 . S
C320 C322 1.395 . S
C320 C323 1.403 . S
H321 C327 0.930 . S
C322 H308 0.930 . S
C322 C320 1.395 . S
C322 C325 1.403 . S
C323 C320 1.403 . S
C323 C324 1.524 . S
C323 C327 1.400 . S
C324 H309 0.960 . S
C324 H310 0.960 . S
C324 H311 0.960 . S
C324 C323 1.524 . S
C325 C322 1.403 . S
C325 C326 1.392 . S
C325 C329 1.495 . S
C326 C325 1.392 . S
C326 C327 1.385 . S
C326 C328 1.478 . S
C327 H321 0.930 . S
C327 C323 1.400 . S
C327 C326 1.385 . S
C328 C326 1.478 . S
C328 C330 1.381 . S
C328 C334 1.383 . S
C329 C325 1.495 . S
C329 H335 0.959 . S
C329 H336 0.961 . S
C329 H337 0.960 . S
C330 C328 1.381 . S
C330 C331 1.394 . S
C330 H338 0.930 . S
C331 C330 1.394 . S
C331 C332 1.383 . S
C331 H339 0.929 . S
C332 C331 1.383 . S
C332 C333 1.377 . S
C333 H317 0.930 . S
C333 C332 1.377 . S
C333 C334 1.379 . S
C334 H318 0.931 . S
C334 C328 1.383 . S
C334 C333 1.379 . S
H335 C329 0.959 . S
H336 C329 0.961 . S
H337 C329 0.960 . S
H338 C330 0.930 . S
H339 C331 0.929 . S
H340 C348 0.929 . S
H341 C350 0.930 . S
H342 C352 0.930 . S
H343 C355 0.929 . S
H344 C358 0.930 . S
H345 C360 0.960 . S
H346 C360 0.960 . S
H347 C360 0.960 . S
C348 H340 0.929 . S
C348 C349 1.377 . S
C348 C350 1.384 . S
C349 C348 1.377 . S
C349 C355 1.390 . S
C350 H341 0.930 . S
C350 C348 1.384 . S
C350 C351 1.372 . S
C351 C350 1.372 . S
C351 C352 1.400 . S
C351 C356 1.490 . S
C352 H342 0.930 . S
C352 C351 1.400 . S
C352 C355 1.386 . S
H353 C369 0.930 . S
H354 C370 0.926 1_556 S
C355 H343 0.929 . S
C355 C349 1.390 . S
C355 C352 1.386 . S
C356 C351 1.490 . S
C356 C358 1.395 . S
C356 C359 1.403 . S
H357 C363 0.930 . S
C358 H344 0.930 . S
C358 C356 1.395 . S
C358 C361 1.403 . S
C359 C356 1.403 . S
C359 C360 1.524 . S
C359 C363 1.400 . S
C360 H345 0.960 . S
C360 H346 0.960 . S
C360 H347 0.960 . S
C360 C359 1.524 . S
C361 C358 1.403 . S
C361 C362 1.392 . S
C361 C365 1.495 . S
C362 C361 1.392 . S
C362 C363 1.385 . S
C362 C364 1.478 . S
C363 H357 0.930 . S
C363 C359 1.400 . S
C363 C362 1.385 . S
C364 C362 1.478 . S
C364 C366 1.381 . S
C364 C370 1.373 1_556 S
C365 C361 1.495 . S
C365 H371 0.959 . S
C365 H372 0.961 . S
C365 H373 0.960 . S
C366 C364 1.381 . S
C366 C367 1.394 1_556 S
C366 H374 0.930 . S
C367 C366 1.394 1_554 S
C367 C368 1.383 . S
C367 H375 0.929 . S
C368 C367 1.383 . S
C368 C369 1.377 . S
C369 H353 0.930 . S
C369 C368 1.377 . S
C369 C370 1.394 . S
C370 H354 0.926 1_554 S
C370 C364 1.373 1_554 S
C370 C369 1.394 . S
H371 C365 0.959 . S
H372 C365 0.961 . S
H373 C365 0.960 . S
H374 C366 0.930 . S
H375 C367 0.929 . S
H376 C384 0.929 . S
H377 C386 0.930 . S
H378 C388 0.930 . S
H379 C391 0.929 1_455 S
H380 C394 0.930 . S
H381 C396 0.960 . S
H382 C396 0.960 . S
H383 C396 0.972 . S
C384 H376 0.929 . S
C384 C385 1.377 . S
C384 C386 1.384 . S
C385 C384 1.377 . S
C385 C391 1.390 . S
C386 H377 0.930 . S
C386 C384 1.384 . S
C386 C387 1.372 . S
C387 C386 1.372 . S
C387 C388 1.400 . S
C387 C392 1.490 . S
C388 H378 0.930 . S
C388 C387 1.400 . S
C388 C391 1.386 . S
H389 C405 0.930 . S
H390 C406 0.931 . S
C391 H379 0.929 1_655 S
C391 C385 1.390 . S
C391 C388 1.386 . S
C392 C387 1.490 . S
C392 C394 1.395 . S
C392 C395 1.403 . S
H393 C399 0.930 . S
C394 H380 0.930 . S
C394 C392 1.395 . S
C394 C397 1.403 . S
C395 C392 1.403 . S
C395 C396 1.524 . S
C395 C399 1.400 . S
C396 H381 0.960 . S
C396 H382 0.960 . S
C396 H383 0.972 . S
C396 C395 1.524 . S
C397 C394 1.403 . S
C397 C398 1.392 . S
C397 C401 1.495 . S
C398 C397 1.392 . S
C398 C399 1.385 . S
C398 C400 1.478 . S
C399 H393 0.930 . S
C399 C395 1.400 . S
C399 C398 1.385 . S
C400 C398 1.478 . S
C400 C402 1.381 . S
C400 C406 1.383 . S
C401 C397 1.495 . S
C401 H407 0.959 . S
C401 H408 0.961 . S
C401 H409 0.960 . S
C402 C400 1.381 . S
C402 C403 1.394 . S
C402 H410 0.930 . S
C403 C402 1.394 . S
C403 C404 1.383 . S
C403 H411 0.929 . S
C404 C403 1.383 . S
C404 C405 1.377 . S
C405 H389 0.930 . S
C405 C404 1.377 . S
C405 C406 1.379 . S
C406 H390 0.931 . S
C406 C400 1.383 . S
C406 C405 1.379 . S
H407 C401 0.959 . S
H408 C401 0.961 . S
H409 C401 0.960 . S
H410 C402 0.930 . S
H411 C403 0.929 . S
H412 C420 0.929 . S
H413 C422 0.930 . S
H414 C424 0.930 . S
H415 C427 0.929 . S
H416 C430 0.930 . S
H417 C432 0.960 . S
H418 C432 0.960 . S
H419 C432 0.960 . S
C420 H412 0.929 . S
C420 C421 1.377 . S
C420 C422 1.384 . S
C421 C420 1.377 . S
C421 C427 1.390 . S
C422 H413 0.930 . S
C422 C420 1.384 . S
C422 C423 1.372 . S
C423 C422 1.372 . S
C423 C424 1.400 . S
C423 C428 1.490 . S
C424 H414 0.930 . S
C424 C423 1.400 . S
C424 C427 1.386 . S
H425 C441 0.930 . S
H426 C442 0.931 . S
C427 H415 0.929 . S
C427 C421 1.390 . S
C427 C424 1.386 . S
C428 C423 1.490 . S
C428 C430 1.395 . S
C428 C431 1.403 . S
H429 C435 0.930 . S
C430 H416 0.930 . S
C430 C428 1.395 . S
C430 C433 1.403 . S
C431 C428 1.403 . S
C431 C432 1.524 . S
C431 C435 1.400 . S
C432 H417 0.960 . S
C432 H418 0.960 . S
C432 H419 0.960 . S
C432 C431 1.524 . S
C433 C430 1.403 . S
C433 C434 1.392 . S
C433 C437 1.495 . S
C434 C433 1.392 . S
C434 C435 1.385 . S
C434 C436 1.478 . S
C435 H429 0.930 . S
C435 C431 1.400 . S
C435 C434 1.385 . S
C436 C434 1.478 . S
C436 C438 1.381 . S
C436 C442 1.383 . S
C437 C433 1.495 . S
C437 H443 0.959 . S
C437 H444 0.961 . S
C437 H445 0.960 . S
C438 C436 1.381 . S
C438 C439 1.394 . S
C438 H446 0.930 . S
C439 C438 1.394 . S
C439 C440 1.383 . S
C439 H447 0.929 1_565 S
C440 C439 1.383 . S
C440 C441 1.377 . S
C441 H425 0.930 . S
C441 C440 1.377 . S
C441 C442 1.379 . S
C442 H426 0.931 . S
C442 C436 1.383 . S
C442 C441 1.379 . S
H443 C437 0.959 . S
H444 C437 0.961 . S
H445 C437 0.960 . S
H446 C438 0.930 . S
H447 C439 0.929 1_545 S
H448 C456 0.929 . S
H449 C458 0.930 . S
H450 C460 0.930 . S
H451 C463 0.929 . S
H452 C466 0.930 . S
H453 C468 0.960 . S
H454 C468 0.960 . S
H455 C468 0.960 . S
C456 H448 0.929 . S
C456 C457 1.377 . S
C456 C458 1.384 . S
C457 C456 1.377 . S
C457 C463 1.390 . S
C458 H449 0.930 . S
C458 C456 1.384 . S
C458 C459 1.372 . S
C459 C458 1.372 . S
C459 C460 1.400 . S
C459 C464 1.490 . S
C460 H450 0.930 . S
C460 C459 1.400 . S
C460 C463 1.386 . S
H461 C477 0.930 . S
H462 C478 0.931 . S
C463 H451 0.929 . S
C463 C457 1.390 . S
C463 C460 1.386 . S
C464 C459 1.490 . S
C464 C466 1.395 . S
C464 C467 1.403 . S
H465 C471 0.930 . S
C466 H452 0.930 . S
C466 C464 1.395 . S
C466 C469 1.403 . S
C467 C464 1.403 . S
C467 C468 1.524 . S
C467 C471 1.400 . S
C468 H453 0.960 . S
C468 H454 0.960 . S
C468 H455 0.960 . S
C468 C467 1.524 . S
C469 C466 1.403 . S
C469 C470 1.392 . S
C469 C473 1.495 . S
C470 C469 1.392 . S
C470 C471 1.385 . S
C470 C472 1.478 . S
C471 H465 0.930 . S
C471 C467 1.400 . S
C471 C470 1.385 . S
C472 C470 1.478 . S
C472 C474 1.381 . S
C472 C478 1.383 . S
C473 C469 1.495 . S
C473 H479 0.959 . S
C473 H480 0.961 . S
C473 H481 0.960 . S
C474 C472 1.381 . S
C474 C475 1.394 . S
C474 H482 0.930 . S
C475 C474 1.394 . S
C475 C476 1.383 . S
C475 H483 0.929 . S
C476 C475 1.383 . S
C476 C477 1.377 . S
C477 H461 0.930 . S
C477 C476 1.377 . S
C477 C478 1.379 . S
C478 H462 0.931 . S
C478 C472 1.383 . S
C478 C477 1.379 . S
H479 C473 0.959 . S
H480 C473 0.961 . S
H481 C473 0.960 . S
H482 C474 0.930 . S
H483 C475 0.929 . S
H484 C492 0.929 . S
H485 C494 0.930 . S
H486 C496 0.930 . S
H487 C499 0.929 . S
H488 C502 0.930 1_545 S
H489 C504 0.960 . S
H490 C504 0.960 . S
H491 C504 0.960 . S
C492 H484 0.929 . S
C492 C493 1.377 . S
C492 C494 1.384 1_545 S
C493 C492 1.377 . S
C493 C499 1.390 . S
C494 H485 0.930 . S
C494 C492 1.384 1_565 S
C494 C495 1.372 . S
C495 C494 1.372 . S
C495 C496 1.400 . S
C495 C500 1.490 . S
C496 H486 0.930 . S
C496 C495 1.400 . S
C496 C499 1.386 1_565 S
H497 C513 0.930 . S
H498 C514 0.931 . S
C499 H487 0.929 . S
C499 C493 1.390 . S
C499 C496 1.386 1_545 S
C500 C495 1.490 . S
C500 C502 1.395 . S
C500 C503 1.403 . S
H501 C507 0.930 . S
C502 H488 0.930 1_565 S
C502 C500 1.395 . S
C502 C505 1.403 . S
C503 C500 1.403 . S
C503 C504 1.524 . S
C503 C507 1.400 . S
C504 H489 0.960 . S
C504 H490 0.960 . S
C504 H491 0.960 . S
C504 C503 1.524 . S
C505 C502 1.403 . S
C505 C506 1.392 . S
C505 C509 1.495 1_565 S
C506 C505 1.392 . S
C506 C507 1.385 . S
C506 C508 1.478 . S
C507 H501 0.930 . S
C507 C503 1.400 . S
C507 C506 1.385 . S
C508 C506 1.478 . S
C508 C510 1.381 . S
C508 C514 1.383 . S
C509 C505 1.495 1_545 S
C509 H515 0.959 . S
C509 H516 0.961 . S
C509 H517 0.960 1_545 S
C510 C508 1.381 . S
C510 C511 1.394 . S
C510 H518 0.930 . S
C511 C510 1.394 . S
C511 C512 1.383 . S
C511 H519 0.929 . S
C512 C511 1.383 . S
C512 C513 1.377 . S
C513 H497 0.930 . S
C513 C512 1.377 . S
C513 C514 1.379 . S
C514 H498 0.931 . S
C514 C508 1.383 . S
C514 C513 1.379 . S
H515 C509 0.959 . S
H516 C509 0.961 . S
H517 C509 0.960 1_565 S
H518 C510 0.930 . S
H519 C511 0.929 . S
H520 C528 0.929 . S
H521 C530 0.930 . S
H522 C532 0.930 . S
H523 C535 0.929 . S
H524 C538 0.930 . S
H525 C540 0.960 . S
H526 C540 0.960 . S
H527 C540 0.960 . S
C528 H520 0.929 . S
C528 C529 1.377 . S
C528 C530 1.384 . S
C529 C528 1.377 . S
C529 C535 1.390 . S
C530 H521 0.930 . S
C530 C528 1.384 . S
C530 C531 1.372 . S
C531 C530 1.372 . S
C531 C532 1.400 . S
C531 C536 1.490 . S
C532 H522 0.930 . S
C532 C531 1.400 . S
C532 C535 1.386 . S
H533 C549 0.930 . S
H534 C550 0.931 . S
C535 H523 0.929 . S
C535 C529 1.390 . S
C535 C532 1.386 . S
C536 C531 1.490 . S
C536 C538 1.395 . S
C536 C539 1.403 . S
H537 C543 0.930 . S
C538 H524 0.930 . S
C538 C536 1.395 . S
C538 C541 1.403 . S
C539 C536 1.403 . S
C539 C540 1.524 . S
C539 C543 1.400 . S
C540 H525 0.960 . S
C540 H526 0.960 . S
C540 H527 0.960 . S
C540 C539 1.524 . S
C541 C538 1.403 . S
C541 C542 1.392 . S
C541 C545 1.495 . S
C542 C541 1.392 . S
C542 C543 1.385 . S
C542 C544 1.478 . S
C543 H537 0.930 . S
C543 C539 1.400 . S
C543 C542 1.385 . S
C544 C542 1.478 . S
C544 C546 1.381 . S
C544 C550 1.383 . S
C545 C541 1.495 . S
C545 H551 0.959 . S
C545 H552 0.961 . S
C545 H553 0.960 . S
C546 C544 1.381 . S
C546 C547 1.394 . S
C546 H554 0.930 . S
C547 C546 1.394 . S
C547 C548 1.383 . S
C547 H555 0.929 . S
C548 C547 1.383 . S
C548 C549 1.377 . S
C549 H533 0.930 . S
C549 C548 1.377 . S
C549 C550 1.379 . S
C550 H534 0.931 . S
C550 C544 1.383 . S
C550 C549 1.379 . S
H551 C545 0.959 . S
H552 C545 0.961 . S
H553 C545 0.960 . S
H554 C546 0.930 . S
H555 C547 0.929 . S
H556 C564 0.929 . S
H557 C566 0.930 . S
H558 C568 0.930 . S
H559 C571 0.929 . S
H560 C574 0.930 . S
H561 C576 0.960 . S
H562 C576 0.960 . S
H563 C576 0.960 . S
C564 H556 0.929 . S
C564 C565 1.377 . S
C564 C566 1.384 . S
C565 C564 1.377 . S
C565 C571 1.390 . S
C566 H557 0.930 . S
C566 C564 1.384 . S
C566 C567 1.372 . S
C567 C566 1.372 . S
C567 C568 1.400 . S
C567 C572 1.490 . S
C568 H558 0.930 . S
C568 C567 1.400 . S
C568 C571 1.386 . S
H569 C585 0.930 . S
H570 C586 0.931 . S
C571 H559 0.929 . S
C571 C565 1.390 . S
C571 C568 1.386 . S
C572 C567 1.490 . S
C572 C574 1.395 . S
C572 C575 1.403 . S
H573 C579 0.930 . S
C574 H560 0.930 . S
C574 C572 1.395 . S
C574 C577 1.403 . S
C575 C572 1.403 . S
C575 C576 1.524 . S
C575 C579 1.400 . S
C576 H561 0.960 . S
C576 H562 0.960 . S
C576 H563 0.960 . S
C576 C575 1.524 . S
C577 C574 1.403 . S
C577 C578 1.392 . S
C577 C581 1.495 . S
C578 C577 1.392 . S
C578 C579 1.385 . S
C578 C580 1.478 . S
C579 H573 0.930 . S
C579 C575 1.400 . S
C579 C578 1.385 . S
C580 C578 1.478 . S
C580 C582 1.381 . S
C580 C586 1.383 . S
C581 C577 1.495 . S
C581 H587 0.959 . S
C581 H588 0.961 . S
C581 H589 0.960 . S
C582 C580 1.381 . S
C582 C583 1.394 . S
C582 H590 0.930 . S
C583 C582 1.394 . S
C583 C584 1.383 . S
C583 H591 0.929 1_655 S
C584 C583 1.383 . S
C584 C585 1.377 . S
C585 H569 0.930 . S
C585 C584 1.377 . S
C585 C586 1.379 . S
C586 H570 0.931 . S
C586 C580 1.383 . S
C586 C585 1.379 . S
H587 C581 0.959 . S
H588 C581 0.961 . S
H589 C581 0.960 . S
H590 C582 0.930 . S
H591 C583 0.929 1_455 S
C169 C90 0.897 . S
C188 C19 0.945 . S
C205 C130 1.154 . S
C224 C59 1.133 . S
C241 C99 0.969 . S
C260 C10 0.942 . S
C277 C50 0.942 . S
C296 C139 0.929 . S
C313 C56 1.003 . S
C332 C7 1.011 . S
C349 C47 1.785 . S
C368 C91 1.803 . S
C385 C131 2.152 . S
C404 C82 2.111 . S
C421 C122 1.281 . S
C440 C16 1.284 . S
C457 C96 0.996 . S
C476 C127 1.024 . S
C493 C2 1.806 . S
C512 C136 1.769 . S
C529 C42 2.150 . S
C548 C11 2.115 1_556 S
C565 C87 1.301 . S
C584 C51 1.307 . S
